data_POSCAR
  _audit_creation_date              2014-09-24
  _audit_creation_method            'ToBaCCo'
  _symmetry_space_group_name_H-M    'P1'
  _symmetry_Int_Tables_number       1
  _symmetry_cell_setting            triclinic
  loop_
  _symmetry_equiv_pos_as_xyz
 x,y,z
_cell_length_a 49.3870
_cell_length_b 48.6748
_cell_length_c 49.4453
_cell_angle_alpha 89.946900
_cell_angle_beta 89.953900
_cell_angle_gamma 90.020300
loop_
  _atom_site_label
  _atom_site_type_symbol
  _atom_site_fract_x
  _atom_site_fract_y
  _atom_site_fract_z
N1 N 0.59417 0.66850 0.61270
 N2 N 0.58355 0.65722 0.63440
 C3 C 0.56157 0.67174 0.64185
 C4 C 0.55820 0.69334 0.62385
 C5 C 0.57935 0.69055 0.60562
 H6 H 0.54910 0.66706 0.65921
 H7 H 0.58360 0.70342 0.58831
 Cu8 Cu 0.59956 0.62468 0.65075
 Cu9 Cu 0.62636 0.65376 0.59515
 Cu10 Cu 0.65520 0.59575 0.62395
 N11 N 0.61594 0.59213 0.66673
 N12 N 0.63767 0.58093 0.65613
 C13 C 0.64480 0.55889 0.67092
 C14 C 0.62654 0.55594 0.69214
 C15 C 0.60848 0.57758 0.68868
 H16 H 0.66207 0.54609 0.66640
 H17 H 0.59118 0.58249 0.70112
 N18 N 0.66993 0.61376 0.59139
 N19 N 0.65894 0.63580 0.58041
 C20 C 0.67354 0.64312 0.55854
 C21 C 0.69482 0.62482 0.55554
 C22 C 0.69182 0.60650 0.57680
 H23 H 0.66911 0.66063 0.54587
 H24 H 0.70451 0.58899 0.58121
 H25 H 0.62093 0.61361 0.60765
 H26 H 0.64268 0.63588 0.62937
 N27 N 0.90581 0.33067 0.11288
 N28 N 0.91597 0.34142 0.13500
 C29 C 0.93789 0.32685 0.14248
 C30 C 0.94178 0.30564 0.12405
 C31 C 0.92085 0.30888 0.10552
 H32 H 0.95002 0.33147 0.16004
 H33 H 0.91670 0.29645 0.08793
 Cu34 Cu 0.89964 0.37351 0.15188
 Cu35 Cu 0.87385 0.34569 0.09521
 Cu36 Cu 0.84494 0.40354 0.12408
 N37 N 0.88360 0.40647 0.16734
 N38 N 0.86222 0.41806 0.15643
 C39 C 0.85534 0.44031 0.17102
 C40 C 0.87340 0.44294 0.19231
 C41 C 0.89108 0.42103 0.18925
 H42 H 0.83854 0.45369 0.16627
 H43 H 0.90801 0.41592 0.20212
 N44 N 0.83041 0.38581 0.09135
 N45 N 0.84146 0.36384 0.08032
 C46 C 0.82701 0.35671 0.05833
 C47 C 0.80578 0.37506 0.05532
 C48 C 0.80864 0.39322 0.07668
 H49 H 0.83148 0.33927 0.04560
 H50 H 0.79593 0.41070 0.08113
 H51 H 0.87951 0.38557 0.10846
 H52 H 0.85691 0.36320 0.12931
 N53 N 0.40609 0.16881 -0.11260
 N54 N 0.41671 0.15754 -0.13428
 C55 C 0.43876 0.17200 -0.14169
 C56 C 0.44218 0.19356 -0.12369
 C57 C 0.42098 0.19080 -0.10549
 H58 H 0.45124 0.16732 -0.15904
 H59 H 0.41674 0.20366 -0.08820
 Cu60 Cu 0.40060 0.12510 -0.15068
 Cu61 Cu 0.37381 0.15413 -0.09512
 Cu62 Cu 0.34486 0.09620 -0.12392
 N63 N 0.38411 0.09267 -0.16671
 N64 N 0.36236 0.08145 -0.15610
 C65 C 0.35521 0.05944 -0.17091
 C66 C 0.37344 0.05663 -0.19206
 C67 C 0.39151 0.07816 -0.18869
 H68 H 0.33786 0.04661 -0.16666
 H69 H 0.40890 0.08280 -0.20115
 N70 N 0.33016 0.11416 -0.09136
 N71 N 0.34113 0.13624 -0.08044
 C72 C 0.32649 0.14357 -0.05862
 C73 C 0.30524 0.12523 -0.05557
 C74 C 0.30828 0.10687 -0.07675
 H75 H 0.33113 0.16086 -0.04576
 H76 H 0.29537 0.08958 -0.08135
 H77 H 0.37916 0.11400 -0.10760
 H78 H 0.35748 0.13632 -0.12936
 N79 N 0.09362 0.83106 0.38758
 N80 N 0.08307 0.84228 0.36585
 C81 C 0.06114 0.82771 0.35836
 C82 C 0.05764 0.80604 0.37639
 C83 C 0.07882 0.80899 0.39467
 H84 H 0.04875 0.83263 0.34105
 H85 H 0.08332 0.79616 0.41192
 Cu86 Cu 0.09907 0.87486 0.34951
 Cu87 Cu 0.12581 0.84583 0.40509
 Cu88 Cu 0.15475 0.90381 0.37621
 N89 N 0.11544 0.90743 0.33354
 N90 N 0.13723 0.91860 0.34407
 C91 C 0.14436 0.94065 0.32924
 C92 C 0.12604 0.94356 0.30820
 C93 C 0.10796 0.92203 0.31165
 H94 H 0.16151 0.95368 0.33365
 H95 H 0.09076 0.91720 0.29903
 N96 N 0.16945 0.88581 0.40877
 N97 N 0.15840 0.86380 0.41979
 C98 C 0.17297 0.85651 0.44167
 C99 C 0.19428 0.87478 0.44461
 C100 C 0.19134 0.89307 0.42332
 H101 H 0.16851 0.83902 0.45437
 H102 H 0.20407 0.91055 0.41888
 H103 H 0.12045 0.88598 0.39256
 H104 H 0.14218 0.86368 0.37084
 N105 N 0.12420 0.12533 0.12537
 N106 N 0.37515 0.87488 0.62543
 N107 N 0.87579 0.62502 0.37451
 N108 N 0.62523 0.37522 -0.12582
 C109 C 0.00333 0.24496 0.12431
 C110 C 0.00252 0.26488 0.14463
 C111 C -0.01774 0.28492 0.14458
 C112 C -0.03769 0.28542 0.12413
 C113 C -0.03654 0.26512 0.10376
 C114 C -0.01622 0.24513 0.10391
 C115 C 0.02420 0.22434 0.12444
 C116 C 0.04169 0.20706 0.12457
 C117 C 0.06255 0.18644 0.12476
 C118 C 0.07482 0.17880 0.14915
 C119 C 0.09507 0.15874 0.14936
 C120 C 0.10329 0.14609 0.12516
 C121 C 0.09088 0.15389 0.10075
 C122 C 0.07063 0.17395 0.10057
 H123 H 0.01759 0.26493 0.16055
 H124 H -0.01754 0.29988 0.16071
 H125 H -0.05120 0.26441 0.08758
 H126 H -0.01578 0.22977 0.08806
 H127 H 0.06875 0.18836 0.16798
 H128 H 0.10449 0.15321 0.16836
 H129 H 0.09674 0.14428 0.08190
 H130 H 0.06124 0.17968 0.08159
 C131 C 0.49591 0.75514 0.62438
 C132 C 0.51847 0.75808 0.60750
 C133 C 0.53872 0.73802 0.60731
 C134 C 0.53670 0.71468 0.62405
 C135 C 0.51390 0.71196 0.64096
 C136 C 0.49367 0.73206 0.64109
 C137 C 0.47507 0.77580 0.62453
 C138 C 0.45762 0.79310 0.62468
 C139 C 0.43678 0.81376 0.62486
 C140 C 0.44336 0.84115 0.63043
 C141 C 0.42313 0.86123 0.63061
 C142 C 0.39607 0.85414 0.62524
 C143 C 0.38964 0.82657 0.61967
 C144 C 0.40989 0.80651 0.61949
 H145 H 0.52043 0.77590 0.59451
 H146 H 0.55600 0.74100 0.59418
 H147 H 0.51145 0.69427 0.65397
 H148 H 0.47626 0.72955 0.65421
 H149 H 0.46412 0.84699 0.63457
 H150 H 0.42858 0.88236 0.63475
 H151 H 0.36891 0.82060 0.61567
 H152 H 0.40457 0.78536 0.61520
 C153 C 0.99644 0.74496 0.37573
 C154 C 0.99685 0.76535 0.35582
 C155 C 1.01701 0.78552 0.35599
 C156 C 1.03724 0.78568 0.37616
 C157 C 1.03650 0.76490 0.39612
 C158 C 1.01629 0.74478 0.39585
 C159 C 0.97565 0.72424 0.37551
 C160 C 0.95822 0.70690 0.37533
 C161 C 0.93740 0.68621 0.37511
 C162 C 0.91050 0.69342 0.38052
 C163 C 0.89026 0.67334 0.38031
 C164 C 0.89670 0.64579 0.37470
 C165 C 0.92377 0.63873 0.36928
 C166 C 0.94399 0.65884 0.36948
 H167 H 0.98155 0.76568 0.34013
 H168 H 1.01648 0.80085 0.34018
 H169 H 1.05140 0.76392 0.41207
 H170 H 1.01615 0.72907 0.41138
 H171 H 0.90516 0.71455 0.38484
 H172 H 0.86952 0.67928 0.38434
 H173 H 0.92923 0.61762 0.36510
 H174 H 0.96475 0.65303 0.36531
 C175 C 0.50459 0.25527 -0.12427
 C176 C 0.48203 0.25824 -0.10742
 C177 C 0.46174 0.23820 -0.10720
 C178 C 0.46373 0.21485 -0.12388
 C179 C 0.48656 0.21209 -0.14075
 C180 C 0.50682 0.23216 -0.14092
 C181 C 0.52544 0.27593 -0.12450
 C182 C 0.54288 0.29326 -0.12471
 C183 C 0.56369 0.31396 -0.12498
 C184 C 0.55707 0.34133 -0.13064
 C185 C 0.57727 0.36146 -0.13092
 C186 C 0.60435 0.35443 -0.12554
 C187 C 0.61082 0.32689 -0.11988
 C188 C 0.59060 0.30679 -0.11960
 H189 H 0.48008 0.27608 -0.09448
 H190 H 0.44445 0.24121 -0.09410
 H191 H 0.48898 0.19439 -0.15371
 H192 H 0.52424 0.22963 -0.15402
 H193 H 0.53630 0.34712 -0.13480
 H194 H 0.57178 0.38256 -0.13513
 H195 H 0.63156 0.32098 -0.11587
 H196 H 0.59595 0.28566 -0.11523
 C197 C 0.12545 0.00550 0.24605
 C198 C 0.10314 -0.01188 0.24938
 C199 C 0.10330 -0.03202 0.26957
 C200 C 0.12583 -0.03505 0.28675
 C201 C 0.14817 -0.01741 0.28320
 C202 C 0.14795 0.00270 0.26299
 C203 C 0.12526 0.02619 0.22524
 C204 C 0.12509 0.04352 0.20781
 C205 C 0.12486 0.06419 0.18699
 C206 C 0.10043 0.07186 0.17480
 C207 C 0.10020 0.09193 0.15457
 C208 C 0.12443 0.10458 0.14628
 C209 C 0.14888 0.09676 0.15863
 C210 C 0.14908 0.07668 0.17886
 H211 H 0.08559 -0.00986 0.23640
 H212 H 0.08566 -0.04499 0.27174
 H213 H 0.16595 -0.01918 0.29582
 H214 H 0.16536 0.01603 0.26055
 H215 H 0.08158 0.06230 0.18091
 H216 H 0.08116 0.09748 0.14520
 H217 H 0.16775 0.10637 0.15271
 H218 H 0.16810 0.07093 0.18819
 C219 C 0.62610 0.49498 -0.24657
 C220 C 0.64613 0.49475 -0.26653
 C221 C 0.64632 0.51482 -0.28677
 C222 C 0.62638 0.53561 -0.28743
 C223 C 0.60629 0.53550 -0.26708
 C224 C 0.60620 0.51538 -0.24689
 C225 C 0.62597 0.47430 -0.22575
 C226 C 0.62586 0.45699 -0.20830
 C227 C 0.62574 0.43633 -0.18747
 C228 C 0.62018 0.40892 -0.19400
 C229 C 0.62002 0.38884 -0.17377
 C230 C 0.62542 0.39595 -0.14675
 C231 C 0.63099 0.42353 -0.14037
 C232 C 0.63115 0.44358 -0.16062
 H233 H 0.66165 0.47902 -0.26647
 H234 H 0.66221 0.51379 -0.30177
 H235 H 0.59050 0.55085 -0.26648
 H236 H 0.59058 0.51575 -0.23150
 H237 H 0.61600 0.40307 -0.21472
 H238 H 0.61588 0.36771 -0.17917
 H239 H 0.63501 0.42951 -0.11968
 H240 H 0.63543 0.46474 -0.15535
 C241 C 0.37389 0.99483 0.74577
 C242 C 0.35705 0.99188 0.76834
 C243 C 0.35687 1.01195 0.78855
 C244 C 0.37359 1.03530 0.78647
 C245 C 0.39044 1.03804 0.76364
 C246 C 0.39057 1.01794 0.74346
 C247 C 0.37407 0.97414 0.72500
 C248 C 0.37424 0.95681 0.70760
 C249 C 0.37445 0.93611 0.68684
 C250 C 0.36904 0.94329 0.65996
 C251 C 0.36927 0.92320 0.63979
 C252 C 0.37491 0.89566 0.64627
 C253 C 0.38031 0.88862 0.67332
 C254 C 0.38008 0.90874 0.69347
 H255 H 0.34409 0.97403 0.77036
 H256 H 0.34378 1.00895 0.80584
 H257 H 0.40342 1.05576 0.76115
 H258 H 0.40366 1.02045 0.72603
 H259 H 0.36470 0.96443 0.65460
 H260 H 0.36525 0.92912 0.61907
 H261 H 0.38450 0.86751 0.67881
 H262 H 0.38426 0.90294 0.71422
 C263 C 0.87433 0.50509 0.25415
 C264 C 0.85201 0.50264 0.23692
 C265 C 0.85169 0.48247 0.21681
 C266 C 0.87374 0.46441 0.21363
 C267 C 0.89609 0.46710 0.23110
 C268 C 0.89636 0.48729 0.25119
 C269 C 0.87460 0.52582 0.27488
 C270 C 0.87483 0.54317 0.29226
 C271 C 0.87509 0.56385 0.31304
 C272 C 0.86969 0.55663 0.33992
 C273 C 0.86992 0.57671 0.36011
 C274 C 0.87557 0.60426 0.35365
 C275 C 0.88098 0.61133 0.32660
 C276 C 0.88074 0.59123 0.30642
 H277 H 0.83481 0.51629 0.23907
 H278 H 0.83404 0.48098 0.20396
 H279 H 0.91352 0.45380 0.22922
 H280 H 0.91377 0.48904 0.26439
 H281 H 0.86533 0.53550 0.34527
 H282 H 0.86590 0.57076 0.38084
 H283 H 0.88517 0.63244 0.32112
 H284 H 0.88491 0.59704 0.28567
 C285 C 0.24359 0.12527 0.00598
 C286 C 0.24685 0.10240 -0.01081
 C287 C 0.26687 0.10236 -0.03082
 C288 C 0.28396 0.12525 -0.03433
 C289 C 0.28048 0.14816 -0.01730
 C290 C 0.26044 0.14814 0.00268
 C291 C 0.22299 0.12528 0.02657
 C292 C 0.20572 0.12528 0.04381
 C293 C 0.18511 0.12530 0.06441
 C294 C 0.17326 0.10055 0.07269
 C295 C 0.15326 0.10055 0.09271
 C296 C 0.14487 0.12532 0.10468
 C297 C 0.15687 0.15008 0.09623
 C298 C 0.17688 0.15006 0.07621
 H299 H 0.23395 0.08455 -0.00840
 H300 H 0.26901 0.08426 -0.04331
 H301 H 0.29302 0.16624 -0.01947
 H302 H 0.25805 0.16599 0.01554
 H303 H 0.17946 0.08128 0.06366
 H304 H 0.14415 0.08126 0.09875
 H305 H 0.15087 0.16938 0.10530
 H306 H 0.18594 0.16932 0.06997
 C307 C 0.75642 0.62486 0.49393
 C308 C 0.75908 0.60795 0.51666
 C309 C 0.73909 0.60792 0.53669
 C310 C 0.71609 0.62484 0.53428
 C311 C 0.71366 0.64178 0.51130
 C312 C 0.73368 0.64176 0.49130
 C313 C 0.77702 0.62487 0.47333
 C314 C 0.79427 0.62489 0.45607
 C315 C 0.81486 0.62493 0.43546
 C316 C 0.84190 0.62998 0.44236
 C317 C 0.86191 0.63002 0.42235
 C318 C 0.85511 0.62500 0.39519
 C319 C 0.82791 0.61995 0.38845
 C320 C 0.80792 0.61991 0.40847
 H321 H 0.77664 0.59482 0.51893
 H322 H 0.74186 0.59477 0.55411
 H323 H 0.69623 0.65493 0.50855
 H324 H 0.73140 0.65491 0.47376
 H325 H 0.84750 0.63384 0.46319
 H326 H 0.88275 0.63376 0.42804
 H327 H 0.82218 0.61624 0.36764
 H328 H 0.78705 0.61601 0.40291
 C329 C 0.74446 0.37535 -0.00646
 C330 C 0.76743 0.35880 -0.00930
 C331 C 0.78737 0.35868 0.01075
 C332 C 0.78463 0.37518 0.03398
 C333 C 0.76142 0.39178 0.03658
 C334 C 0.74151 0.39183 0.01650
 C335 C 0.72392 0.37539 -0.02709
 C336 C 0.70669 0.37540 -0.04435
 C337 C 0.68612 0.37538 -0.06493
 C338 C 0.69307 0.38045 -0.09193
 C339 C 0.67309 0.38040 -0.11194
 C340 C 0.64589 0.37529 -0.10516
 C341 C 0.63909 0.37023 -0.07799
 C342 C 0.65909 0.37028 -0.05800
 H343 H 0.76995 0.34599 -0.02703
 H344 H 0.80498 0.34582 0.00786
 H345 H 0.75842 0.40457 0.05420
 H346 H 0.72377 0.40470 0.01893
 H347 H 0.71394 0.38438 -0.09752
 H348 H 0.67883 0.38414 -0.13275
 H349 H 0.61825 0.36645 -0.07227
 H350 H 0.65348 0.36637 -0.03716
 C351 C 0.25585 0.87475 0.50613
 C352 C 0.23286 0.85821 0.50903
 C353 C 0.21285 0.85819 0.48904
 C354 C 0.21554 0.87476 0.46584
 C355 C 0.23877 0.89133 0.46317
 C356 C 0.25876 0.89130 0.48317
 C357 C 0.27643 0.87475 0.52672
 C358 C 0.29368 0.87476 0.54396
 C359 C 0.31426 0.87479 0.56454
 C360 C 0.30729 0.87986 0.59153
 C361 C 0.32728 0.87988 0.61153
 C362 C 0.35448 0.87484 0.60476
 C363 C 0.36130 0.86978 0.57761
 C364 C 0.34129 0.86976 0.55762
 H365 H 0.23038 0.84535 0.52676
 H366 H 0.19522 0.84534 0.49199
 H367 H 0.24173 0.90418 0.44556
 H368 H 0.27651 0.90415 0.48070
 H369 H 0.28642 0.88374 0.59711
 H370 H 0.32153 0.88363 0.63234
 H371 H 0.38214 0.86605 0.57190
 H372 H 0.34691 0.86586 0.53679
   
