data_POSCAR
  _audit_creation_date              2014-09-24
  _audit_creation_method            'ToBaCCo'
  _symmetry_space_group_name_H-M    'P1'
  _symmetry_Int_Tables_number       1
  _symmetry_cell_setting            triclinic
  loop_
  _symmetry_equiv_pos_as_xyz
 x,y,z
_cell_length_a 47.1036
_cell_length_b 46.8970
_cell_length_c 47.1488
_cell_angle_alpha 90.051100
_cell_angle_beta 90.076500
_cell_angle_gamma 90.007100
loop_
  _atom_site_label
  _atom_site_type_symbol
  _atom_site_fract_x
  _atom_site_fract_y
  _atom_site_fract_z
C1 C 0.33952 0.37906 1.35864
 C2 C 0.35981 0.38020 1.33691
 C3 C 0.38117 0.36001 1.33575
 C4 C 0.38258 0.33846 1.35633
 C5 C 0.36268 0.33746 1.37769
 C6 C 0.34094 0.35787 1.37881
 C7 C 0.31580 0.39511 1.36446
 N8 N 0.30243 0.38425 1.38779
 C9 C 0.31808 0.36133 1.39656
 C10 C 0.36858 0.31386 1.39391
 N11 N 0.39170 0.30011 1.38300
 C12 C 0.40026 0.31539 1.35986
 C13 C 0.39704 0.36563 1.31193
 N14 N 0.38586 0.38875 1.29856
 C15 C 0.36307 0.39779 1.31380
 H16 H 0.30881 0.41295 1.35177
 H17 H 0.31357 0.34772 1.41445
 H18 H 0.35598 0.30711 1.41180
 H19 H 0.41800 0.31050 1.34620
 H20 H 0.41538 0.35368 1.30490
 H21 H 0.34930 0.41535 1.30808
 C22 C 1.16254 0.62205 0.86373
 C23 C 1.14228 0.62065 0.84196
 C24 C 1.12090 0.64077 0.84052
 C25 C 1.11954 0.66263 0.86081
 C26 C 1.13948 0.66395 0.88220
 C27 C 1.16122 0.64353 0.88364
 C28 C 1.18619 0.60599 0.86971
 N29 N 1.19967 0.61711 0.89290
 C30 C 1.18417 0.64022 0.90141
 C31 C 1.13349 0.68774 0.89816
 N32 N 1.11028 0.70125 0.88707
 C33 C 1.10177 0.68565 0.86408
 C34 C 1.10500 0.63476 0.81674
 N35 N 1.11625 0.61150 0.80367
 C36 C 1.13908 0.60276 0.81905
 H37 H 1.19316 0.58807 0.85712
 H38 H 1.18881 0.65398 0.91921
 H39 H 1.14602 0.69472 0.91606
 H40 H 1.08398 0.69024 0.85036
 H41 H 1.08707 0.64699 0.80910
 H42 H 1.15247 0.58472 0.81399
 C43 C 0.66153 -0.11760 0.13749
 C44 C 0.64111 -0.11622 0.15907
 C45 C 0.61973 -0.13637 0.16028
 C46 C 0.61853 -0.15823 0.13999
 C47 C 0.63861 -0.15954 0.11880
 C48 C 0.66034 -0.13909 0.11757
 C49 C 0.68522 -0.10155 0.13170
 N50 N 0.69883 -0.11268 0.10861
 C51 C 0.68337 -0.13578 0.09998
 C52 C 0.63279 -0.18336 0.10282
 N53 N 0.60953 -0.19691 0.11371
 C54 C 0.60083 -0.18129 0.13659
 C55 C 0.60364 -0.13041 0.18388
 N56 N 0.61475 -0.10715 0.19710
 C57 C 0.63771 -0.09835 0.18199
 H58 H 0.69210 -0.08359 0.14430
 H59 H 0.68809 -0.14957 0.08224
 H60 H 0.64547 -0.19035 0.08506
 H61 H 0.58297 -0.18592 0.15016
 H62 H 0.58569 -0.14270 0.19132
 H63 H 0.65106 -0.08032 0.18725
 C64 C -0.16427 1.11720 -0.36111
 C65 C -0.14390 1.11574 -0.33942
 C66 C -0.12239 1.13575 -0.33816
 C67 C -0.12103 1.15755 -0.35846
 C68 C -0.14106 1.15895 -0.37973
 C69 C -0.16290 1.13863 -0.38104
 C70 C -0.18803 1.10125 -0.36705
 N71 N -0.20148 1.11238 -0.39024
 C72 C -0.18588 1.13539 -0.39877
 C73 C -0.13503 1.18269 -0.39571
 N74 N -0.11169 1.19609 -0.38473
 C75 C -0.10315 1.18045 -0.36180
 C76 C -0.10634 1.12974 -0.31452
 N77 N -0.11757 1.10657 -0.30133
 C78 C -0.14059 1.09789 -0.31649
 H79 H -0.19502 1.08332 -0.35450
 H80 H -0.19044 1.14915 -0.41656
 H81 H -0.14759 1.18969 -0.41357
 H82 H -0.08528 1.18497 -0.34814
 H83 H -0.08830 1.14193 -0.30705
 H84 H -0.15404 1.07994 -0.31126
 C85 C 0.66462 0.61937 0.63858
 C86 C 0.64379 0.61816 0.65975
 C87 C 0.62226 0.63815 0.66026
 C88 C 0.62130 0.65968 0.63966
 C89 C 0.64175 0.66087 0.61882
 C90 C 0.66362 0.64055 0.61822
 C91 C 0.68862 0.60347 0.63359
 N92 N 0.70230 0.61445 0.61067
 C93 C 0.68706 0.63714 0.60113
 C94 C 0.63606 0.68446 0.60248
 N95 N 0.61252 0.69798 0.61282
 C96 C 0.60352 0.68256 0.63569
 C97 C 0.60583 0.63253 0.68371
 N98 N 0.61690 0.60963 0.69751
 C99 C 0.64016 0.60072 0.68291
 H100 H 0.69559 0.58527 0.64584
 H101 H 0.69298 0.65075 0.58359
 H102 H 0.64896 0.69128 0.58483
 H103 H 0.58544 0.68723 0.64896
 H104 H 0.58769 0.64484 0.69067
 H105 H 0.65359 0.58293 0.68872
 C106 C 0.83762 0.38274 0.14185
 C107 C 0.85815 0.38375 0.16342
 C108 C 0.87945 0.36349 0.16431
 C109 C 0.88046 0.34191 0.14371
 C110 C 0.86032 0.34102 0.12252
 C111 C 0.83873 0.36160 0.12158
 C112 C 0.81394 0.39895 0.13628
 N113 N 0.80033 0.38826 0.11294
 C114 C 0.81576 0.36528 0.10397
 C115 C 0.86596 0.31744 0.10616
 N116 N 0.88916 0.30359 0.11682
 C117 C 0.89803 0.31881 0.13994
 C118 C 0.89569 0.36906 0.18794
 N119 N 0.88476 0.39219 0.20149
 C120 C 0.86176 0.40128 0.18657
 H121 H 0.80750 0.41714 0.14875
 H122 H 0.81069 0.35140 0.08640
 H123 H 0.85319 0.31081 0.08829
 H124 H 0.91592 0.31387 0.15342
 H125 H 0.91364 0.35661 0.19516
 H126 H 0.84853 0.41931 0.19210
 C127 C 0.33559 0.12177 0.85816
 C128 C 0.35602 0.12026 0.83659
 C129 C 0.37759 0.14022 0.83543
 C130 C 0.37895 0.16203 0.85575
 C131 C 0.35880 0.16347 0.87699
 C132 C 0.33693 0.14320 0.87813
 C133 C 0.31181 0.10584 0.86394
 N134 N 0.29831 0.11699 0.88708
 C135 C 0.31392 0.13998 0.89574
 C136 C 0.36482 0.18720 0.89308
 N137 N 0.38813 0.20026 0.88212
 C138 C 0.39689 0.18492 0.85925
 C139 C 0.39369 0.13411 0.81188
 N140 N 0.38242 0.11093 0.79866
 C141 C 0.35935 0.10235 0.81372
 H142 H 0.30485 0.08790 0.85136
 H143 H 0.30933 0.15375 0.91352
 H144 H 0.35258 0.19482 0.91096
 H145 H 0.41498 0.18999 0.84606
 H146 H 0.41180 0.14620 0.80450
 H147 H 0.34589 0.08439 0.80847
 C148 C 0.16027 0.87769 0.35998
 C149 C 0.13953 0.87890 0.33865
 C150 C 0.11807 0.85880 0.33786
 C151 C 0.11702 0.83726 0.35844
 C152 C 0.13746 0.83615 0.37948
 C153 C 0.15929 0.85650 0.38017
 C154 C 0.18409 0.89376 0.36531
 N155 N 0.19797 0.88292 0.38839
 C156 C 0.18256 0.85999 0.39746
 C157 C 0.13179 0.81255 0.39581
 N158 N 0.10842 0.79923 0.38520
 C159 C 0.09928 0.81428 0.36229
 C160 C 0.10172 0.86449 0.31433
 N161 N 0.11272 0.88758 0.30080
 C162 C 0.13585 0.89652 0.31562
 H163 H 0.19081 0.91156 0.35246
 H164 H 0.18746 0.84643 0.41532
 H165 H 0.14433 0.80516 0.41360
 H166 H 0.08109 0.80893 0.34929
 H167 H 0.08321 0.85260 0.30760
 H168 H 0.14958 0.91402 0.30967
 Zn169 Zn 0.00563 1.03664 -0.01684
 Zn170 Zn -0.02282 0.97969 -0.02127
 Zn171 Zn 0.03360 0.98525 0.00749
 Zn172 Zn -0.01806 1.00916 0.03487
 O173 O -0.00045 1.00265 0.00102
 O174 O -0.01154 1.03842 -0.05060
 O175 O -0.00565 0.94672 -0.03060
 O176 O 0.06319 1.00538 -0.00539
 O177 O -0.03252 0.99638 -0.05420
 O178 O 0.04241 1.04346 -0.02355
 O179 O 0.03597 0.95124 -0.00932
 O180 O 0.00183 0.99639 0.06465
 O181 O -0.05563 0.97008 -0.00430
 O182 O 0.04027 0.97880 0.04431
 O183 O -0.05186 0.99210 0.03702
 O184 O -0.02459 1.04619 0.04141
 O185 O -0.00716 1.06661 0.00296
 C186 C -0.02676 1.02081 -0.06430
 C187 C 0.01881 0.93703 -0.02454
 C188 C 0.06465 1.02918 -0.01809
 C189 C 0.02573 0.98400 0.06636
 C190 C -0.06564 0.97642 0.01991
 C191 C -0.01941 1.06835 0.02687
 Zn192 Zn 0.49189 -0.03590 0.48119
 Zn193 Zn 0.51557 -0.00853 0.53305
 Zn194 Zn 0.52088 0.02076 0.47693
 Zn195 Zn 0.46426 0.01582 0.50526
 O196 O 0.49818 -0.00193 0.49907
 O197 O 0.50478 -0.06590 0.50086
 O198 O 0.54935 0.00851 0.53557
 O199 O 0.53052 0.00394 0.44405
 O200 O 0.52219 -0.04556 0.53943
 O201 O 0.50890 -0.03778 0.44742
 O202 O 0.55366 0.03019 0.49417
 O203 O 0.46225 0.04983 0.48838
 O204 O 0.49549 0.00417 0.56272
 O205 O 0.50405 0.05382 0.46746
 O206 O 0.45745 0.02232 0.54205
 O207 O 0.43455 -0.00416 0.49229
 O208 O 0.45505 -0.04261 0.47455
 C209 C 0.51713 -0.06768 0.52473
 C210 C 0.56339 0.02398 0.51854
 C211 C 0.52439 -0.02037 0.43383
 C212 C 0.47966 0.06379 0.47327
 C213 C 0.47171 0.01680 0.56424
 C214 C 0.43292 -0.02811 0.47983
 Zn215 Zn 1.00980 0.46248 0.48559
 Zn216 Zn 1.03731 0.51426 0.50983
 Zn217 Zn 0.98082 0.51909 0.48112
 Zn218 Zn 0.98586 0.48989 0.53729
 O219 O 1.00342 0.49646 0.50343
 O220 O 1.04665 0.45599 0.47888
 O221 O 1.03933 0.54829 0.49299
 O222 O 0.97115 0.50220 0.44829
 O223 O 1.06707 0.49441 0.49685
 O224 O 0.99266 0.46044 0.45182
 O225 O 0.99767 0.55209 0.47166
 O226 O 0.95203 0.50693 0.53957
 O227 O 1.04398 0.52078 0.54668
 O228 O 0.94806 0.52864 0.49814
 O229 O 1.00579 0.50271 0.56706
 O230 O 0.97934 0.45285 0.54371
 O231 O 0.99708 0.43247 0.50535
 C232 C 1.06874 0.47057 0.48419
 C233 C 1.02198 0.56216 0.47768
 C234 C 0.97718 0.47783 0.43817
 C235 C 0.93817 0.52248 0.52243
 C236 C 1.02957 0.51536 0.56875
 C237 C 0.98462 0.43070 0.52914
 Zn238 Zn 0.48303 0.49504 0.96487
 Zn239 Zn 0.53478 0.51897 0.99222
 Zn240 Zn 0.47860 0.52364 1.02151
 Zn241 Zn 0.50747 0.46702 1.01597
 O242 O 0.50093 0.50121 0.99869
 O243 O 0.50277 0.50795 0.93509
 O244 O 0.53691 0.55291 1.00920
 O245 O 0.44563 0.53335 1.00484
 O246 O 0.54128 0.52553 0.95540
 O247 O 0.44923 0.51218 0.96307
 O248 O 0.49560 0.55662 1.03114
 O249 O 0.49057 0.46457 1.04972
 O250 O 0.56462 0.49910 1.00500
 O251 O 0.46925 0.50633 1.05425
 O252 O 0.54434 0.46048 1.02253
 O253 O 0.49469 0.43724 0.99587
 O254 O 0.47639 0.45809 0.95803
 C255 C 0.52669 0.52029 0.93336
 C256 C 0.51982 0.56672 1.02482
 C257 C 0.43551 0.52749 0.98053
 C258 C 0.47530 0.48175 1.06384
 C259 C 0.56638 0.47515 1.01739
 C260 C 0.48196 0.43576 0.97217
 C261 C 1.22596 0.41364 0.42365
 C262 C 1.23871 0.42872 0.40155
 C263 C 1.26420 0.41916 0.38974
 C264 C 1.27762 0.39408 0.39978
 C265 C 1.26441 0.37934 0.42243
 C266 C 1.23891 0.38903 0.43411
 C267 C 1.19935 0.42316 0.43524
 C268 C 1.17691 0.43107 0.44466
 C269 C 1.14995 0.44051 0.45551
 C270 C 1.14794 0.46635 0.47023
 C271 C 1.12158 0.47597 0.47994
 C272 C 1.09685 0.45983 0.47501
 C273 C 1.09918 0.43370 0.46048
 C274 C 1.12556 0.42414 0.45080
 H275 H 1.22887 0.44789 0.39332
 H276 H 1.27310 0.43182 0.37287
 H277 H 1.27316 0.36001 0.43119
 H278 H 1.22917 0.37714 0.45123
 H279 H 1.16670 0.47920 0.47397
 H280 H 1.12055 0.49617 0.49103
 H281 H 1.08059 0.42077 0.45631
 H282 H 1.12688 0.40411 0.43941
 C283 C 0.27652 0.58787 0.92815
 C284 C 0.26279 0.57202 0.90715
 C285 C 0.23714 0.58151 0.89564
 C286 C 0.22453 0.60731 0.90485
 C287 C 0.23861 0.62279 0.92651
 C288 C 0.26432 0.61317 0.93792
 C289 C 0.30349 0.57837 0.93898
 C290 C 0.32625 0.56999 0.94719
 C291 C 0.35360 0.55945 0.95590
 C292 C 0.36931 0.54243 0.93728
 C293 C 0.39591 0.53207 0.94533
 C294 C 0.40725 0.53859 0.97220
 C295 C 0.39130 0.55573 0.99083
 C296 C 0.36462 0.56609 0.98270
 H297 H 0.27202 0.55230 0.89949
 H298 H 0.22744 0.56818 0.87969
 H299 H 0.23047 0.64273 0.93451
 H300 H 0.27484 0.62567 0.95416
 H301 H 0.36099 0.53716 0.91649
 H302 H 0.40758 0.51895 0.93047
 H303 H 0.39941 0.56113 1.01165
 H304 H 0.35263 0.57927 0.99727
 C305 C -0.22430 0.91661 0.07361
 C306 C -0.23662 0.89145 0.06364
 C307 C -0.26230 0.88179 0.07499
 C308 C -0.27627 0.89713 0.09680
 C309 C -0.26351 0.92278 0.10626
 C310 C -0.23787 0.93229 0.09480
 C311 C -0.19739 0.92614 0.06272
 C312 C -0.17468 0.93447 0.05436
 C313 C -0.14740 0.94489 0.04538
 C314 C -0.13161 0.96230 0.06361
 C315 C -0.10506 0.97252 0.05529
 C316 C -0.09385 0.96545 0.02852
 C317 C -0.10988 0.94792 0.01029
 C318 C -0.13650 0.93771 0.01869
 H319 H -0.22622 0.87907 0.04724
 H320 H -0.27055 0.86198 0.06678
 H321 H -0.27307 0.93596 0.12238
 H322 H -0.22853 0.95191 0.10263
 H323 H -0.13983 0.96798 0.08431
 H324 H -0.09332 0.98595 0.06986
 H325 H -0.10187 0.94210 -0.01044
 H326 H -0.14856 0.92422 0.00442
 C327 C 0.72179 0.08328 0.57405
 C328 C 0.73511 0.06764 0.59543
 C329 C 0.76070 0.07710 0.60714
 C330 C 0.77365 0.10265 0.59775
 C331 C 0.75992 0.11795 0.57575
 C332 C 0.73429 0.10835 0.56415
 C333 C 0.69495 0.07381 0.56285
 C334 C 0.67229 0.06555 0.55423
 C335 C 0.64504 0.05522 0.54493
 C336 C 0.62897 0.03803 0.56304
 C337 C 0.60245 0.02791 0.55441
 C338 C 0.59156 0.03485 0.52747
 C339 C 0.60789 0.05217 0.50936
 C340 C 0.63448 0.06229 0.51807
 H341 H 0.72563 0.04810 0.60321
 H342 H 0.77007 0.06396 0.62341
 H343 H 0.76831 0.13769 0.56757
 H344 H 0.72408 0.12069 0.54760
 H345 H 0.63694 0.03244 0.58387
 H346 H 0.59049 0.01464 0.56889
 H347 H 0.60012 0.05790 0.48850
 H348 H 0.64676 0.07561 0.50389
 C349 C 0.42671 0.22313 0.41286
 C350 C 0.43659 0.23516 0.38766
 C351 C 0.42526 0.26090 0.37783
 C352 C 0.40356 0.27521 0.39300
 C353 C 0.39423 0.26275 0.41871
 C354 C 0.40566 0.23706 0.42840
 C355 C 0.43751 0.19613 0.42257
 C356 C 0.44576 0.17334 0.43104
 C357 C 0.45461 0.14595 0.44160
 C358 C 0.48148 0.13505 0.43502
 C359 C 0.48975 0.10831 0.44532
 C360 C 0.47120 0.09217 0.46232
 C361 C 0.44426 0.10340 0.46880
 C362 C 0.43607 0.13007 0.45850
 H363 H 0.45287 0.22448 0.37540
 H364 H 0.43336 0.26891 0.35799
 H365 H 0.37823 0.27261 0.43179
 H366 H 0.39791 0.22796 0.44805
 H367 H 0.49600 0.14718 0.42193
 H368 H 0.51062 0.10029 0.43994
 H369 H 0.42945 0.09157 0.48182
 H370 H 0.41522 0.13830 0.46372
 C371 C 0.92466 0.27265 0.58601
 C372 C 0.90281 0.25966 0.57072
 C373 C 0.89085 0.23413 0.58024
 C374 C 0.90048 0.22092 0.60549
 C375 C 0.92291 0.23437 0.62044
 C376 C 0.93475 0.25991 0.61079
 C377 C 0.93634 0.29935 0.57654
 C378 C 0.94576 0.32189 0.56864
 C379 C 0.95652 0.34899 0.55921
 C380 C 0.97094 0.35108 0.53337
 C381 C 0.98047 0.37760 0.52374
 C382 C 0.97565 0.40241 0.53986
 C383 C 0.96144 0.40000 0.56600
 C384 C 0.95194 0.37346 0.57557
 H385 H 0.89488 0.26934 0.55141
 H386 H 0.87420 0.22501 0.56739
 H387 H 0.93132 0.22579 0.63993
 H388 H 0.95167 0.26986 0.62286
 H389 H 0.97456 0.33227 0.52052
 H390 H 0.99132 0.37870 0.50354
 H391 H 0.95738 0.41865 0.57892
 H392 H 0.94077 0.37208 0.59559
 C393 C 0.07437 0.77808 -0.08371
 C394 C 0.09581 0.76472 -0.06818
 C395 C 0.10759 0.73910 -0.07767
 C396 C 0.09821 0.72615 -0.10316
 C397 C 0.07616 0.73992 -0.11836
 C398 C 0.06449 0.76558 -0.10873
 C399 C 0.06312 0.80497 -0.07421
 C400 C 0.05446 0.82769 -0.06593
 C401 C 0.04514 0.85501 -0.05560
 C402 C 0.06333 0.87124 -0.03856
 C403 C 0.05471 0.89786 -0.02849
 C404 C 0.02769 0.90871 -0.03531
 C405 C 0.00948 0.89222 -0.05244
 C406 C 0.01819 0.86552 -0.06252
 H407 H 0.10358 0.77420 -0.04869
 H408 H 0.12390 0.72970 -0.06461
 H409 H 0.06798 0.73154 -0.13805
 H410 H 0.04790 0.77582 -0.12099
 H411 H 0.08424 0.86331 -0.03309
 H412 H 0.06927 0.90994 -0.01536
 H413 H -0.01144 0.89995 -0.05807
 H414 H 0.00394 0.85313 -0.07572
 C415 C 0.57415 0.72600 1.08441
 C416 C 0.56406 0.73852 1.10930
 C417 C 0.57555 0.76427 1.11896
 C418 C 0.59762 0.77811 1.10390
 C419 C 0.60720 0.76515 1.07852
 C420 C 0.59560 0.73944 1.06900
 C421 C 0.56310 0.69902 1.07489
 C422 C 0.55462 0.67624 1.06658
 C423 C 0.54552 0.64885 1.05620
 C424 C 0.51883 0.63790 1.06338
 C425 C 0.51033 0.61116 1.05321
 C426 C 0.52850 0.59506 1.03573
 C427 C 0.55527 0.60633 1.02867
 C428 C 0.56367 0.63300 1.03883
 H429 H 0.54747 0.72822 1.12146
 H430 H 0.56722 0.77266 1.13856
 H431 H 0.62353 0.77460 1.06557
 H432 H 0.60353 0.72995 1.04960
 H433 H 0.50461 0.65001 1.07684
 H434 H 0.48960 0.60310 1.05904
 H435 H 0.56979 0.59455 1.01527
 H436 H 0.58439 0.64126 1.03315
 C437 C 0.41489 0.42447 1.22080
 C438 C 0.40096 0.44168 1.24066
 C439 C 0.39147 0.43000 1.26625
 C440 C 0.39583 0.40093 1.27231
 C441 C 0.40990 0.38387 1.25219
 C442 C 0.41934 0.39557 1.22665
 C443 C 0.42465 0.43621 1.19436
 C444 C 0.43316 0.44521 1.17198
 C445 C 0.44376 0.45482 1.14502
 C446 C 0.43685 0.48193 1.13466
 C447 C 0.44713 0.49085 1.10825
 C448 C 0.46443 0.47271 1.09191
 C449 C 0.47126 0.44554 1.10262
 C450 C 0.46100 0.43671 1.12895
 H451 H 0.39748 0.46410 1.23638
 H452 H 0.38103 0.44378 1.28141
 H453 H 0.41322 0.36136 1.25595
 H454 H 0.43001 0.38203 1.21138
 H455 H 0.42350 0.49611 1.14694
 H456 H 0.44148 0.51187 1.10063
 H457 H 0.48452 0.43103 1.09064
 H458 H 0.46646 0.41569 1.13675
 C459 C 0.58495 -0.07215 0.27492
 C460 C 0.56605 -0.08577 0.25643
 C461 C 0.57576 -0.09698 0.23073
 C462 C 0.60456 -0.09473 0.22317
 C463 C 0.62333 -0.08067 0.24177
 C464 C 0.61358 -0.06950 0.26748
 C465 C 0.57508 -0.06180 0.30191
 C466 C 0.56657 -0.05380 0.32466
 C467 C 0.55604 -0.04510 0.35198
 C468 C 0.53882 -0.06369 0.36750
 C469 C 0.52856 -0.05561 0.39409
 C470 C 0.53538 -0.02875 0.40559
 C471 C 0.55271 -0.01017 0.38981
 C472 C 0.56297 -0.01832 0.36316
 H473 H 0.54384 -0.08793 0.26197
 H474 H 0.56070 -0.10730 0.21674
 H475 H 0.64568 -0.07890 0.23679
 H476 H 0.62842 -0.05913 0.28172
 H477 H 0.53334 -0.08447 0.35905
 H478 H 0.51528 -0.07044 0.40563
 H479 H 0.55835 0.01064 0.39805
 H480 H 0.57631 -0.00378 0.35131
 C481 C -0.08784 1.07174 -0.22339
 C482 C -0.06889 1.08514 -0.24192
 C483 C -0.07858 1.09626 -0.26766
 C484 C -0.10741 1.09415 -0.27524
 C485 C -0.12623 1.08028 -0.25662
 C486 C -0.11649 1.06919 -0.23085
 C487 C -0.07796 1.06154 -0.19633
 C488 C -0.06940 1.05367 -0.17353
 C489 C -0.05880 1.04514 -0.14618
 C490 C -0.04189 1.06399 -0.13054
 C491 C -0.03150 1.05605 -0.10394
 C492 C -0.03788 1.02907 -0.09255
 C493 C -0.05491 1.01022 -0.10844
 C494 C -0.06530 1.01824 -0.13510
 H495 H -0.04666 1.08722 -0.23635
 H496 H -0.06349 1.10643 -0.28167
 H497 H -0.14859 1.07861 -0.26162
 H498 H -0.13137 1.05899 -0.21659
 H499 H -0.03674 1.08487 -0.13891
 H500 H -0.01847 1.07108 -0.09231
 H501 H -0.06021 0.98931 -0.10028
 H502 H -0.07838 1.00349 -0.14704
 C503 C 1.08714 0.57524 0.72607
 C504 C 1.11573 0.57293 0.73380
 C505 C 1.12527 0.58466 0.75935
 C506 C 1.10631 0.59893 0.77755
 C507 C 1.07756 0.60100 0.76963
 C508 C 1.06807 0.58922 0.74406
 C509 C 1.07750 0.56374 0.69943
 C510 C 1.06950 0.55440 0.67697
 C511 C 1.05995 0.54366 0.65000
 C512 C 1.07615 0.54845 0.62561
 C513 C 1.06649 0.53889 0.59922
 C514 C 1.04041 0.52440 0.59687
 C515 C 1.02444 0.51938 0.62159
 C516 C 1.03416 0.52898 0.64796
 H517 H 1.13070 0.56227 0.71995
 H518 H 1.14758 0.58304 0.76457
 H519 H 1.06238 0.61151 0.78330
 H520 H 1.04587 0.59111 0.73830
 H521 H 1.09614 0.55982 0.62695
 H522 H 1.07929 0.54311 0.58064
 H523 H 1.00429 0.50832 0.62054
 H524 H 1.02144 0.52518 0.66671
 C525 C 0.78075 0.58478 0.57694
 C526 C 0.77449 0.58089 0.60567
 C527 C 0.74875 0.59060 0.61673
 C528 C 0.72883 0.60437 0.59918
 C529 C 0.73535 0.60823 0.57030
 C530 C 0.76114 0.59846 0.55926
 C531 C 0.80735 0.57463 0.56584
 C532 C 0.82982 0.56581 0.55734
 C533 C 0.85684 0.55487 0.54820
 C534 C 0.87253 0.53737 0.56640
 C535 C 0.89892 0.52681 0.55796
 C536 C 0.91005 0.53361 0.53112
 C537 C 0.89408 0.55117 0.51289
 C538 C 0.86763 0.56174 0.52141
 H539 H 0.78956 0.57042 0.61957
 H540 H 0.74465 0.58769 0.63910
 H541 H 0.72036 0.61844 0.55617
 H542 H 0.76576 0.60152 0.53696
 H543 H 0.86438 0.53193 0.58719
 H544 H 0.91061 0.51335 0.57253
 H545 H 0.90204 0.55681 0.49210
 H546 H 0.85566 0.57529 0.50715
 C547 C 0.72379 0.41803 1.07745
 C548 C 0.73445 0.43034 1.10224
 C549 C 0.75996 0.42069 1.11395
 C550 C 0.77549 0.39827 1.10112
 C551 C 0.76438 0.38635 1.07581
 C552 C 0.73885 0.39613 1.06422
 C553 C 0.69716 0.42757 1.06588
 C554 C 0.67470 0.43551 1.05649
 C555 C 0.64771 0.44498 1.04571
 C556 C 0.64561 0.47096 1.03129
 C557 C 0.61922 0.48061 1.02169
 C558 C 0.59453 0.46438 1.02643
 C559 C 0.59695 0.43811 1.04065
 C560 C 0.62336 0.42851 1.05023
 H561 H 0.72289 0.44734 1.11269
 H562 H 0.76689 0.43080 1.13331
 H563 H 0.77513 0.36953 1.06450
 H564 H 0.73080 0.38648 1.04492
 H565 H 0.66433 0.48388 1.02772
 H566 H 0.61811 0.50092 1.01084
 H567 H 0.57839 0.42510 1.04467
 H568 H 0.62475 0.40837 1.06140
 C569 C 0.22170 1.08779 -0.07730
 C570 C 0.23485 1.07228 -0.09887
 C571 C 0.26038 1.08179 -0.11059
 C572 C 0.27343 1.10725 -0.10101
 C573 C 0.25982 1.12245 -0.07888
 C574 C 0.23427 1.11280 -0.06727
 C575 C 0.19507 1.07822 -0.06581
 C576 C 0.17263 1.07013 -0.05655
 C577 C 0.14571 1.06036 -0.04595
 C578 C 0.14390 1.03451 -0.03127
 C579 C 0.11759 1.02451 -0.02186
 C580 C 0.09268 1.04027 -0.02707
 C581 C 0.09478 1.06640 -0.04157
 C582 C 0.12113 1.07634 -0.05095
 H583 H 0.22532 1.05278 -0.10674
 H584 H 0.26964 1.06875 -0.12701
 H585 H 0.26827 1.14212 -0.07055
 H586 H 0.22420 1.12503 -0.05057
 H587 H 0.16280 1.02194 -0.02733
 H588 H 0.11672 1.00432 -0.01077
 H589 H 0.07605 1.07905 -0.04594
 H590 H 0.12229 1.09637 -0.06234
 C591 C 0.27510 -0.08730 0.42265
 C592 C 0.26155 -0.07207 0.40112
 C593 C 0.23585 -0.08177 0.38985
 C594 C 0.22301 -0.10715 0.39986
 C595 C 0.23703 -0.12206 0.42194
 C596 C 0.26275 -0.11222 0.43310
 C597 C 0.30190 -0.07754 0.43367
 C598 C 0.32447 -0.06931 0.44255
 C599 C 0.35154 -0.05939 0.45272
 C600 C 0.37603 -0.07550 0.44775
 C601 C 0.40249 -0.06549 0.45683
 C602 C 0.40479 -0.03916 0.47100
 C603 C 0.37998 -0.02324 0.47613
 C604 C 0.35355 -0.03331 0.46703
 H605 H 0.27091 -0.05265 0.39293
 H606 H 0.22629 -0.06894 0.37344
 H607 H 0.22875 -0.14164 0.43059
 H608 H 0.27312 -0.12423 0.44978
 H609 H 0.37471 -0.09570 0.43666
 H610 H 0.42114 -0.07827 0.45254
 H611 H 0.38100 -0.00290 0.48697
 H612 H 0.33472 -0.02064 0.47094
 C613 C 0.57686 -0.22561 0.58228
 C614 C 0.59916 -0.23858 0.56769
 C615 C 0.61090 -0.26407 0.57762
 C616 C 0.60058 -0.27725 0.60259
 C617 C 0.57771 -0.26382 0.61681
 C618 C 0.56610 -0.23833 0.60675
 C619 C 0.56541 -0.19894 0.57245
 C620 C 0.55612 -0.17642 0.56436
 C621 C 0.54544 -0.14932 0.55482
 C622 C 0.53119 -0.14723 0.52884
 C623 C 0.52161 -0.12073 0.51919
 C624 C 0.52622 -0.09594 0.53543
 C625 C 0.54029 -0.09835 0.56167
 C626 C 0.54983 -0.12487 0.57127
 H627 H 0.60763 -0.22892 0.54862
 H628 H 0.62795 -0.27316 0.56534
 H629 H 0.56872 -0.27238 0.63602
 H630 H 0.54882 -0.22841 0.61826
 H631 H 0.52771 -0.16604 0.51593
 H632 H 0.51088 -0.11963 0.49890
 H633 H 0.54418 -0.07972 0.57469
 H634 H 0.56086 -0.12625 0.59140
 C635 C 1.07392 0.72135 0.41615
 C636 C 1.08787 0.74003 0.43466
 C637 C 1.09893 0.76574 0.42458
 C638 C 1.09620 0.77313 0.39578
 C639 C 1.08184 0.75434 0.37741
 C640 C 1.07082 0.72861 0.38754
 C641 C 1.06366 0.69436 0.42639
 C642 C 1.05566 0.67159 0.43516
 C643 C 1.04690 0.64426 0.44588
 C644 C 1.06540 0.62857 0.46306
 C645 C 1.05725 0.60191 0.47341
 C646 C 1.03041 0.59052 0.46672
 C647 C 1.01190 0.60649 0.44947
 C648 C 1.02013 0.63320 0.43911
 H649 H 1.09038 0.73462 0.45686
 H650 H 1.10950 0.77989 0.43934
 H651 H 1.07970 0.75918 0.35508
 H652 H 1.06019 0.71422 0.37300
 H653 H 1.08617 0.63693 0.46841
 H654 H 1.07202 0.59022 0.48663
 H655 H 0.99111 0.59834 0.44393
 H656 H 1.00565 0.64518 0.42581
 C657 C -0.07599 1.22681 0.08627
 C658 C -0.06570 1.23892 0.11131
 C659 C -0.07702 1.26456 0.12138
 C660 C -0.09911 1.27871 0.10661
 C661 C -0.10892 1.26614 0.08108
 C662 C -0.09749 1.24053 0.07114
 C663 C -0.06494 1.19999 0.07636
 C664 C -0.05611 1.17736 0.06803
 C665 C -0.04605 1.15017 0.05808
 C666 C -0.03210 1.14809 0.03198
 C667 C -0.02315 1.12151 0.02192
 C668 C -0.02809 1.09664 0.03786
 C669 C -0.04190 1.09902 0.06422
 C670 C -0.05082 1.12561 0.07422
 H671 H -0.04906 1.22841 0.12325
 H672 H -0.06852 1.27264 0.14106
 H673 H -0.12529 1.27584 0.06832
 H674 H -0.10556 1.23135 0.05163
 H675 H -0.02835 1.16697 0.01929
 H676 H -0.01259 1.12043 0.00156
 H677 H -0.04603 1.08032 0.07702
 H678 H -0.06164 1.12699 0.09444
 C679 C 0.42411 0.27789 0.91227
 C680 C 0.42666 0.27040 0.88365
 C681 C 0.41508 0.24479 0.87377
 C682 C 0.40072 0.22633 0.89241
 C683 C 0.39848 0.23398 0.92119
 C684 C 0.41010 0.25958 0.93103
 C685 C 0.43529 0.30463 0.92225
 C686 C 0.44430 0.32718 0.93062
 C687 C 0.45461 0.35427 0.94063
 C688 C 0.44951 0.37899 0.92483
 C689 C 0.45870 0.40547 0.93491
 C690 C 0.47310 0.40758 0.96101
 C691 C 0.47838 0.38254 0.97660
 C692 C 0.46916 0.35608 0.96646
 H693 H 0.43734 0.28448 0.86892
 H694 H 0.41685 0.23976 0.85145
 H695 H 0.38792 0.22009 0.93615
 H696 H 0.40803 0.26516 0.95323
 H697 H 0.43823 0.37783 0.90482
 H698 H 0.45428 0.42430 0.92239
 H699 H 0.48940 0.38341 0.99675
 H700 H 0.47318 0.33707 0.97887
 C701 C 0.58632 0.57563 0.77540
 C702 C 0.61507 0.57319 0.76841
 C703 C 0.62509 0.58410 0.74272
 C704 C 0.60646 0.59768 0.72367
 C705 C 0.57754 0.59982 0.73082
 C706 C 0.56756 0.58886 0.75651
 C707 C 0.57619 0.56511 0.80219
 C708 C 0.56776 0.55660 0.82479
 C709 C 0.55775 0.54682 0.85190
 C710 C 0.53162 0.53279 0.85402
 C711 C 0.52160 0.52391 0.88048
 C712 C 0.53761 0.52900 0.90521
 C713 C 0.56396 0.54293 0.90281
 C714 C 0.57393 0.55177 0.87632
 H715 H 0.62980 0.56310 0.78294
 H716 H 0.64752 0.58245 0.73808
 H717 H 0.56259 0.60979 0.71649
 H718 H 0.54524 0.59083 0.76170
 H719 H 0.51892 0.52887 0.83524
 H720 H 0.50123 0.51325 0.88158
 H721 H 0.57681 0.54718 0.92140
 H722 H 0.59418 0.56264 0.87492
 C723 C 0.41228 0.07483 0.72137
 C724 C 0.43122 0.08855 0.73976
 C725 C 0.42148 0.10021 0.76524
 C726 C 0.39261 0.09831 0.77269
 C727 C 0.37380 0.08425 0.75414
 C728 C 0.38359 0.07263 0.72865
 C729 C 0.42219 0.06359 0.69475
 C730 C 0.43047 0.05453 0.67231
 C731 C 0.44038 0.04416 0.64535
 C732 C 0.46628 0.02966 0.64350
 C733 C 0.47634 0.02042 0.61716
 C734 C 0.46060 0.02562 0.59229
 C735 C 0.43444 0.03995 0.59444
 C736 C 0.42443 0.04916 0.62080
 H737 H 0.45349 0.09034 0.73434
 H738 H 0.43656 0.11053 0.77920
 H739 H 0.35141 0.08276 0.75901
 H740 H 0.36872 0.06218 0.71450
 H741 H 0.47881 0.02572 0.66238
 H742 H 0.49655 0.00947 0.61626
 H743 H 0.42180 0.04430 0.57574
 H744 H 0.40437 0.06040 0.62200
 C745 C 0.08302 0.92348 0.22334
 C746 C 0.09716 0.94061 0.24314
 C747 C 0.10677 0.92889 0.26867
 C748 C 0.10233 0.89984 0.27473
 C749 C 0.08793 0.88286 0.25472
 C750 C 0.07837 0.89462 0.22921
 C751 C 0.07356 0.93534 0.19683
 C752 C 0.06564 0.94489 0.17445
 C753 C 0.05615 0.95577 0.14754
 C754 C 0.03026 0.97025 0.14552
 C755 C 0.02052 0.97984 0.11917
 C756 C 0.03659 0.97502 0.09447
 C757 C 0.06279 0.96077 0.09681
 C758 C 0.07246 0.95121 0.12318
 H759 H 0.10082 0.96300 0.23883
 H760 H 0.11744 0.94260 0.28376
 H761 H 0.08452 0.86038 0.25851
 H762 H 0.06754 0.88115 0.21398
 H763 H 0.01744 0.97385 0.16425
 H764 H 0.00027 0.99072 0.11811
 H765 H 0.07567 0.95670 0.07824
 H766 H 0.09253 0.93999 0.12452
 C767 C 0.91537 0.42626 0.27949
 C768 C 0.93404 0.41273 0.26077
 C769 C 0.92407 0.40181 0.23502
 C770 C 0.89521 0.40426 0.22764
 C771 C 0.87666 0.41821 0.24649
 C772 C 0.88669 0.42909 0.27226
 C773 C 0.92553 0.43640 0.30647
 C774 C 0.93427 0.44431 0.32920
 C775 C 0.94501 0.45299 0.35646
 C776 C 0.96225 0.43438 0.37198
 C777 C 0.97270 0.44249 0.39852
 C778 C 0.96605 0.46940 0.40997
 C779 C 0.94870 0.48801 0.39419
 C780 C 0.93825 0.47983 0.36760
 H781 H 0.95630 0.41043 0.26615
 H782 H 0.93896 0.39157 0.22084
 H783 H 0.85429 0.42013 0.24166
 H784 H 0.87201 0.43939 0.28667
 H785 H 0.96760 0.41356 0.36356
 H786 H 0.98599 0.42764 0.41007
 H787 H 0.94319 0.50886 0.40239
 H788 H 0.92490 0.49439 0.35575
   
