data_POSCAR
  _audit_creation_date              2014-09-24
  _audit_creation_method            'ToBaCCo'
  _symmetry_space_group_name_H-M    'P1'
  _symmetry_Int_Tables_number       1
  _symmetry_cell_setting            triclinic
  loop_
  _symmetry_equiv_pos_as_xyz
 x,y,z
_cell_length_a 59.1967
_cell_length_b 43.1625
_cell_length_c 41.9097
_cell_angle_alpha 89.973900
_cell_angle_beta 89.992400
_cell_angle_gamma 90.107000
loop_
  _atom_site_label
  _atom_site_type_symbol
  _atom_site_fract_x
  _atom_site_fract_y
  _atom_site_fract_z
C1 C 0.24671 0.26559 0.25435
 C2 C 0.24775 0.23412 0.25150
 C3 C 0.23159 0.21632 0.23140
 C4 C 0.26506 0.21591 0.26902
 C5 C 0.26478 0.28287 0.27126
 C6 C 0.22807 0.28433 0.24037
 C7 C 0.22772 0.22431 0.19942
 C8 C 0.21169 0.20822 0.18132
 C9 C 0.19936 0.18330 0.19465
 C10 C 0.20408 0.17476 0.22651
 C11 C 0.21996 0.19106 0.24454
 C12 C 0.26705 0.21834 0.30230
 C13 C 0.28373 0.20186 0.31857
 C14 C 0.29852 0.18215 0.30197
 C15 C 0.29603 0.17903 0.26874
 C16 C 0.27944 0.19575 0.25244
 C17 C 0.28693 0.28308 0.25934
 C18 C 0.30400 0.29892 0.27563
 C19 C 0.29925 0.31440 0.30435
 C20 C 0.27701 0.31426 0.31612
 C21 C 0.25985 0.29895 0.29945
 C22 C 0.23317 0.31116 0.22279
 C23 C 0.21597 0.32849 0.20865
 C24 C 0.19333 0.31914 0.21149
 C25 C 0.18814 0.29279 0.22978
 C26 C 0.20532 0.27588 0.24457
 H27 H 0.23692 0.24330 0.18857
 H28 H 0.20899 0.21558 0.15691
 H29 H 0.19531 0.15571 0.23796
 H30 H 0.22284 0.18432 0.26911
 H31 H 0.25571 0.23310 0.31566
 H32 H 0.28497 0.20454 0.34420
 H33 H 0.27801 0.19334 0.22679
 H34 H 0.29094 0.27092 0.23747
 H35 H 0.32098 0.29859 0.26605
 H36 H 0.27284 0.32619 0.33806
 H37 H 0.24281 0.29906 0.30886
 H38 H 0.25054 0.31838 0.21944
 H39 H 0.22046 0.34871 0.19469
 H40 H 0.17079 0.28534 0.23276
 H41 H 0.20085 0.25594 0.25896
 H42 H 0.30709 0.16398 0.25525
 C43 C 0.75128 0.23248 0.25021
 C44 C 0.75265 0.26380 0.25361
 C45 C 0.77159 0.28252 0.24020
 C46 C 0.73490 0.28061 0.27146
 C47 C 0.73320 0.21488 0.26666
 C48 C 0.76714 0.21464 0.22973
 C49 C 0.79419 0.27333 0.24430
 C50 C 0.81173 0.29017 0.23016
 C51 C 0.80710 0.31718 0.21269
 C52 C 0.78465 0.32724 0.20996
 C53 C 0.76708 0.31001 0.22342
 C54 C 0.73691 0.28502 0.30445
 C55 C 0.71978 0.30006 0.32139
 C56 C 0.70052 0.31124 0.30546
 C57 C 0.69866 0.30673 0.27233
 C58 C 0.71562 0.29132 0.25555
 C59 C 0.71157 0.21285 0.25317
 C60 C 0.69420 0.19755 0.26945
 C61 C 0.69843 0.18337 0.29902
 C62 C 0.72015 0.18524 0.31232
 C63 C 0.73729 0.20137 0.29652
 C64 C 0.77081 0.22312 0.19775
 C65 C 0.78662 0.20725 0.17912
 C66 C 0.79884 0.18225 0.19196
 C67 C 0.79455 0.17320 0.22363
 C68 C 0.77889 0.18918 0.24225
 H69 H 0.79827 0.25291 0.25814
 H70 H 0.82894 0.28216 0.23305
 H71 H 0.78058 0.34798 0.19660
 H72 H 0.74992 0.31791 0.22003
 H73 H 0.75164 0.27657 0.31704
 H74 H 0.72171 0.30320 0.34688
 H75 H 0.71373 0.28766 0.23012
 H76 H 0.70811 0.22349 0.23027
 H77 H 0.67756 0.19639 0.25876
 H78 H 0.72370 0.17484 0.33530
 H79 H 0.75371 0.20351 0.30770
 H80 H 0.76163 0.24233 0.18736
 H81 H 0.78936 0.21467 0.15474
 H82 H 0.80359 0.15405 0.23432
 H83 H 0.77647 0.18203 0.26672
 H84 H 0.68396 0.31479 0.25941
 C85 C 0.74995 0.76740 0.74940
 C86 C 0.75136 0.73595 0.74681
 C87 C 0.73531 0.71763 0.72707
 C88 C 0.76884 0.71821 0.76453
 C89 C 0.76785 0.78520 0.76604
 C90 C 0.73098 0.78557 0.73550
 C91 C 0.72388 0.69239 0.74069
 C92 C 0.70804 0.67569 0.72298
 C93 C 0.70332 0.68382 0.69117
 C94 C 0.71528 0.70858 0.67726
 C95 C 0.73126 0.72517 0.69497
 C96 C 0.77063 0.72077 0.79782
 C97 C 0.78707 0.70415 0.81440
 C98 C 0.80181 0.68411 0.79812
 C99 C 0.79962 0.68100 0.76485
 C100 C 0.78326 0.69789 0.74823
 C101 C 0.78966 0.78701 0.75320
 C102 C 0.80659 0.80349 0.76912
 C103 C 0.80215 0.81793 0.79866
 C104 C 0.78009 0.81600 0.81129
 C105 C 0.76306 0.80021 0.79486
 C106 C 0.73559 0.81244 0.71772
 C107 C 0.71806 0.82929 0.70376
 C108 C 0.69556 0.81941 0.70701
 C109 C 0.69086 0.79300 0.72546
 C110 C 0.70836 0.77657 0.74006
 H111 H 0.72685 0.68605 0.76534
 H112 H 0.69923 0.65671 0.73445
 H113 H 0.71223 0.71528 0.65274
 H114 H 0.74025 0.74415 0.68378
 H115 H 0.75919 0.73555 0.81099
 H116 H 0.78809 0.70682 0.84005
 H117 H 0.78197 0.69534 0.72259
 H118 H 0.79353 0.77566 0.73082
 H119 H 0.82325 0.80432 0.75848
 H120 H 0.77583 0.82689 0.83376
 H121 H 0.74624 0.79907 0.80497
 H122 H 0.75284 0.82007 0.71408
 H123 H 0.72217 0.84957 0.68968
 H124 H 0.67362 0.78516 0.72876
 H125 H 0.70426 0.75663 0.75463
 H126 H 0.81065 0.66572 0.75159
 C127 C 0.24721 0.73143 0.74471
 C128 C 0.24863 0.76289 0.74744
 C129 C 0.26627 0.78074 0.73003
 C130 C 0.23262 0.78117 0.76721
 C131 C 0.22830 0.71300 0.75866
 C132 C 0.26520 0.71383 0.72804
 C133 C 0.28065 0.80091 0.74669
 C134 C 0.29730 0.81769 0.73047
 C135 C 0.29986 0.81461 0.69725
 C136 C 0.28515 0.79476 0.68059
 C137 C 0.26840 0.77824 0.69678
 C138 C 0.22844 0.77355 0.79925
 C139 C 0.21259 0.79025 0.81701
 C140 C 0.20084 0.81535 0.80327
 C141 C 0.20579 0.82350 0.77144
 C142 C 0.22147 0.80662 0.75370
 C143 C 0.20568 0.72216 0.75507
 C144 C 0.18832 0.70564 0.77003
 C145 C 0.19306 0.67869 0.78781
 C146 C 0.21564 0.66856 0.78966
 C147 C 0.23301 0.68566 0.77553
 C148 C 0.26028 0.69783 0.69978
 C149 C 0.27740 0.68236 0.68327
 C150 C 0.29958 0.68197 0.69526
 C151 C 0.30429 0.69733 0.72408
 C152 C 0.28726 0.71333 0.74021
 H153 H 0.27912 0.80339 0.77232
 H154 H 0.30831 0.83282 0.74402
 H155 H 0.28645 0.79211 0.65497
 H156 H 0.25705 0.76349 0.68334
 H157 H 0.23725 0.75442 0.81037
 H158 H 0.20954 0.78333 0.84148
 H159 H 0.22457 0.81306 0.72911
 H160 H 0.20143 0.74239 0.74104
 H161 H 0.17118 0.71396 0.76739
 H162 H 0.22012 0.64790 0.80288
 H163 H 0.25026 0.67780 0.77834
 H164 H 0.24330 0.69795 0.69017
 H165 H 0.27326 0.67052 0.66126
 H166 H 0.32123 0.69748 0.73384
 H167 H 0.29126 0.72542 0.76214
 H168 H 0.19734 0.84268 0.75986
 O169 O 1.02307 -0.03749 -0.00731
 O170 O 0.97876 0.00541 0.03549
 O171 O 0.97886 -0.03700 -0.00827
 O172 O 1.02269 0.00526 0.03644
 O173 O 1.02315 0.04160 -0.00069
 O174 O 0.98007 -0.00146 -0.04620
 O175 O 0.97893 0.04128 -0.00213
 O176 O 1.02390 -0.00112 -0.04440
 Cu177 Cu 1.00080 -0.01961 0.01781
 Cu178 Cu 1.00155 0.02376 -0.02707
 C179 C 1.03111 -0.02652 -0.03304
 C180 C 0.97119 0.03050 0.02389
 C181 C 0.97204 -0.02645 -0.03486
 C182 C 1.03038 0.03060 0.02548
 O183 O 0.47873 0.49464 0.45876
 O184 O 0.52265 0.53810 0.50205
 O185 O 0.52247 0.49466 0.45896
 O186 O 0.47836 0.53770 0.50225
 O187 O 0.47914 0.50272 0.54073
 O188 O 0.52233 0.45886 0.49667
 O189 O 0.52298 0.50218 0.53961
 O190 O 0.47808 0.45962 0.49723
 Cu191 Cu 0.50054 0.51993 0.47677
 Cu192 Cu 0.50060 0.47722 0.52233
 C193 C 0.47087 0.46983 0.47068
 C194 C 0.53044 0.52738 0.52803
 C195 C 0.52986 0.46940 0.47044
 C196 C 0.47130 0.52755 0.52891
 O197 O -0.02302 0.53920 -0.00534
 O198 O 0.02251 0.50180 0.04024
 O199 O 0.02073 0.54033 -0.00790
 O200 O -0.02160 0.50071 0.04213
 O201 O -0.02215 0.46153 0.00821
 O202 O 0.02140 0.50005 -0.04041
 O203 O 0.02139 0.46167 0.00755
 O204 O -0.02281 0.50041 -0.03973
 Cu205 Cu -0.00025 0.52446 0.02068
 Cu206 Cu -0.00059 0.47703 -0.01959
 C207 C -0.03056 0.52630 -0.03039
 C208 C 0.02944 0.47516 0.03195
 C209 C 0.02832 0.52685 -0.03259
 C210 C -0.02909 0.47438 0.03362
 O211 O 0.47681 1.03988 0.49554
 O212 O 0.52171 1.00114 0.54117
 O213 O 0.52064 1.04140 0.49463
 O214 O 0.47763 0.99951 0.54154
 O215 O 0.47705 0.96248 0.50515
 O216 O 0.52244 1.00203 0.46104
 O217 O 0.52083 0.96185 0.50741
 O218 O 0.47827 1.00290 0.45916
 Cu219 Cu 0.49920 1.02430 0.52179
 Cu220 Cu 0.49972 0.97853 0.47959
 C221 C 0.47003 1.02815 0.46947
 C222 C 0.52864 0.97467 0.53236
 C223 C 0.52903 1.02863 0.47005
 C224 C 0.46979 0.97406 0.53103
 C225 C 1.15048 0.13840 0.14385
 N226 N 1.15556 0.12951 0.17403
 N227 N 1.17158 0.14410 0.19052
 C228 C 1.18330 0.16819 0.17757
 N229 N 1.17818 0.17686 0.14718
 N230 N 1.16210 0.16232 0.13068
 C231 C 1.13256 0.12247 0.12594
 N232 N 1.12633 0.13243 0.09649
 N233 N 1.10993 0.11805 0.08047
 C234 C 1.09919 0.09316 0.09331
 N235 N 1.10545 0.08319 0.12273
 N236 N 1.12180 0.09761 0.13877
 C237 C 1.08116 0.07715 0.07573
 N238 N 1.07144 0.05120 0.08792
 N239 N 1.05520 0.03647 0.07195
 C240 C 1.04802 0.04720 0.04324
 N241 N 1.05769 0.07320 0.03107
 N242 N 1.07398 0.08790 0.04701
 C243 C 0.65266 0.63654 0.64052
 N244 N 0.65920 0.62674 0.66986
 N245 N 0.67538 0.64162 0.68576
 C246 C 0.68573 0.66686 0.67297
 N247 N 0.67922 0.67655 0.64351
 N248 N 0.66299 0.66169 0.62760
 C249 C 0.63451 0.62034 0.62338
 N250 N 0.62707 0.63079 0.59467
 N251 N 0.61042 0.61618 0.57941
 C252 C 0.60062 0.59060 0.59229
 N253 N 0.60809 0.58015 0.62095
 N254 N 0.62470 0.59477 0.63622
 C255 C 0.58226 0.57440 0.57559
 N256 N 0.57313 0.54821 0.58813
 N257 N 0.55656 0.53333 0.57301
 C258 C 0.54846 0.54413 0.54483
 N259 N 0.55755 0.57036 0.53230
 N260 N 0.57416 0.58522 0.54740
 C261 C -0.14167 0.36533 0.16451
 N262 N -0.13943 0.33469 0.17107
 N263 N -0.15552 0.31953 0.18694
 C264 C -0.17455 0.33436 0.19659
 N265 N -0.17674 0.36504 0.19003
 N266 N -0.16055 0.38028 0.17444
 C267 C -0.12432 0.38179 0.14606
 N268 N -0.12401 0.41323 0.14496
 N269 N -0.10857 0.42811 0.12756
 C270 C -0.09307 0.41207 0.11037
 N271 N -0.09341 0.38064 0.11145
 N272 N -0.10870 0.36577 0.12908
 C273 C -0.07642 0.42836 0.09054
 N274 N -0.06482 0.41291 0.06761
 N275 N -0.04986 0.42767 0.04933
 C276 C -0.04581 0.45836 0.05351
 N277 N -0.05732 0.47381 0.07655
 N278 N -0.07246 0.45911 0.09463
 C279 C 0.35066 0.86325 0.64831
 N280 N 0.33869 0.84058 0.63353
 N281 N 0.32254 0.82525 0.64906
 C282 C 0.31775 0.83189 0.68002
 N283 N 0.32979 0.85457 0.69478
 N284 N 0.34591 0.87000 0.67922
 C285 C 0.36848 0.88003 0.63107
 N286 N 0.37938 0.90432 0.64479
 N287 N 0.39553 0.91949 0.62901
 C288 C 0.40141 0.91082 0.59900
 N289 N 0.39053 0.88650 0.58533
 N290 N 0.37434 0.87143 0.60105
 C291 C 0.41923 0.92735 0.58151
 N292 N 0.42619 0.91698 0.55257
 N293 N 0.44234 0.93186 0.53657
 C294 C 0.45208 0.95773 0.54887
 N295 N 0.44510 0.96815 0.57780
 N296 N 0.42899 0.95319 0.59386
 C297 C -0.14854 0.63498 -0.15141
 N298 N -0.15305 0.62800 -0.18234
 N299 N -0.16879 0.64359 -0.19841
 C300 C -0.18068 0.66667 -0.18415
 N301 N -0.17613 0.67352 -0.15317
 N302 N -0.16035 0.65804 -0.13714
 C303 C -0.13109 0.61813 -0.13357
 N304 N -0.12538 0.62721 -0.10364
 N305 N -0.10948 0.61219 -0.08737
 C306 C -0.09877 0.58745 -0.10036
 N307 N -0.10451 0.57828 -0.13028
 N308 N -0.12037 0.59339 -0.14662
 C309 C -0.08115 0.57121 -0.08228
 N310 N -0.07152 0.54493 -0.09375
 N311 N -0.05546 0.53044 -0.07719
 C312 C -0.04842 0.54180 -0.04865
 N313 N -0.05804 0.56807 -0.03724
 N314 N -0.07413 0.58246 -0.05371
 C315 C 0.34981 1.13488 0.35105
 N316 N 0.34516 1.12796 0.32015
 N317 N 0.32886 1.14290 0.30455
 C318 C 0.31652 1.16525 0.31928
 N319 N 0.32120 1.17203 0.35023
 N320 N 0.33753 1.15719 0.36580
 C321 C 0.36787 1.11873 0.36833
 N322 N 0.37356 1.12761 0.39834
 N323 N 0.38997 1.11314 0.41412
 C324 C 0.40125 1.08919 0.40053
 N325 N 0.39555 1.08025 0.37053
 N326 N 0.37917 1.09480 0.35468
 C327 C 0.41927 1.07331 0.41816
 N328 N 0.42946 1.04776 0.40597
 N329 N 0.44568 1.03333 0.42225
 C330 C 0.45234 1.04402 0.45124
 N331 N 0.44218 1.06961 0.46336
 N332 N 0.42593 1.08396 0.44715
 C333 C 1.15183 -0.13728 -0.14650
 N334 N 1.16277 -0.16160 -0.13301
 N335 N 1.17872 -0.17676 -0.14909
 C336 C 1.18435 -0.16830 -0.17935
 N337 N 1.17335 -0.14386 -0.19267
 N338 N 1.15746 -0.12865 -0.17659
 C339 C 1.13401 -0.12072 -0.12913
 N340 N 1.12396 -0.09553 -0.14231
 N341 N 1.10763 -0.08059 -0.12684
 C342 C 1.10067 -0.09034 -0.09765
 N343 N 1.11071 -0.11554 -0.08444
 N344 N 1.12710 -0.13045 -0.09989
 C345 C 1.08256 -0.07387 -0.08079
 N346 N 1.07458 -0.08448 -0.05244
 N347 N 1.05811 -0.06948 -0.03725
 C348 C 1.04907 -0.04329 -0.04985
 N349 N 1.05707 -0.03269 -0.07819
 N350 N 1.07348 -0.04773 -0.09340
 C351 C 0.64926 0.35765 0.35534
 N352 N 0.66450 0.33992 0.37119
 N353 N 0.68083 0.32524 0.35540
 C354 C 0.68246 0.32758 0.32314
 N355 N 0.66714 0.34527 0.30736
 N356 N 0.65091 0.36009 0.32315
 C357 C 0.63132 0.37403 0.37263
 N358 N 0.61823 0.39516 0.35738
 N359 N 0.60200 0.41019 0.37300
 C360 C 0.59816 0.40449 0.40439
 N361 N 0.61119 0.38327 0.41963
 N362 N 0.62753 0.36838 0.40406
 C363 C 0.58029 0.42116 0.42153
 N364 N 0.57424 0.41265 0.45154
 N365 N 0.55806 0.42788 0.46707
 C366 C 0.54744 0.45228 0.45321
 N367 N 0.55352 0.46082 0.42324
 N368 N 0.56960 0.44547 0.40764
 C369 C 0.85265 -0.13608 -0.15254
 N370 N 0.85617 -0.14638 -0.18271
 N371 N 0.83990 -0.16132 -0.19841
 C372 C 0.81934 -0.16624 -0.18477
 N373 N 0.81588 -0.15565 -0.15460
 N374 N 0.83223 -0.14104 -0.13874
 C375 C 0.87064 -0.11991 -0.13507
 N376 N 0.86989 -0.11770 -0.10278
 N377 N 0.88627 -0.10318 -0.08687
 C378 C 0.90384 -0.09003 -0.10272
 N379 N 0.90453 -0.09208 -0.13503
 N380 N 0.88829 -0.10693 -0.15091
 C381 C 0.92173 -0.07373 -0.08518
 N382 N 0.93535 -0.05305 -0.10027
 N383 N 0.95137 -0.03792 -0.08422
 C384 C 0.95453 -0.04324 -0.05261
 N385 N 0.94102 -0.06410 -0.03758
 N386 N 0.92483 -0.07894 -0.05354
 C387 C 0.35091 0.35981 0.35446
 N388 N 0.35252 0.35542 0.32247
 N389 N 0.33614 0.34090 0.30658
 C390 C 0.31742 0.33049 0.32201
 N391 N 0.31580 0.33505 0.35400
 N392 N 0.33227 0.34931 0.36995
 C393 C 0.36899 0.37579 0.37193
 N394 N 0.37002 0.37441 0.40427
 N395 N 0.38645 0.38893 0.42008
 C396 C 0.40232 0.40559 0.40412
 N397 N 0.40124 0.40706 0.37180
 N398 N 0.38494 0.39230 0.35598
 C399 C 0.42024 0.42203 0.42147
 N400 N 0.43274 0.44414 0.40662
 N401 N 0.44884 0.45938 0.42236
 C402 C 0.45319 0.45284 0.45344
 N403 N 0.44079 0.43060 0.46827
 N404 N 0.42453 0.41556 0.45260
 C405 C 0.14277 0.63226 -0.16338
 N406 N 0.16374 0.61991 -0.16597
 N407 N 0.17993 0.63484 -0.18185
 C408 C 0.17576 0.66255 -0.19615
 N409 N 0.15461 0.67461 -0.19382
 N410 N 0.13849 0.65988 -0.17758
 C411 C 0.12522 0.61633 -0.14483
 N412 N 0.10730 0.63224 -0.13309
 N413 N 0.09175 0.61796 -0.11537
 C414 C 0.09343 0.58719 -0.10910
 N415 N 0.11124 0.57122 -0.12110
 N416 N 0.12694 0.58558 -0.13846
 C417 C 0.07642 0.57151 -0.08935
 N418 N 0.07393 0.54027 -0.09065
 N419 N 0.05851 0.52604 -0.07268
 C420 C 0.04526 0.54250 -0.05243
 N421 N 0.04785 0.57373 -0.05098
 N422 N 0.06307 0.58800 -0.06926
 C423 C 0.64710 1.13676 0.34835
 N424 N 0.66859 1.12590 0.34869
 N425 N 0.68492 1.14079 0.33304
 C426 C 0.68029 1.16684 0.31611
 N427 N 0.65873 1.17755 0.31555
 N428 N 0.64246 1.16289 0.33157
 C429 C 0.62925 1.12060 0.36608
 N430 N 0.61034 1.13586 0.37545
 N431 N 0.59434 1.12128 0.39208
 C432 C 0.59654 1.09082 0.39954
 N433 N 0.61536 1.07551 0.38995
 N434 N 0.63150 1.09020 0.37372
 C435 C 0.57894 1.07471 0.41780
 N436 N 0.57695 1.04341 0.41626
 N437 N 0.56094 1.02875 0.43277
 C438 C 0.54656 1.04482 0.45178
 N439 N 0.54864 1.07610 0.45349
 N440 N 0.56445 1.09081 0.43662
 C441 C 0.14301 0.36722 0.16162
 N442 N 0.16220 0.38189 0.17095
 N443 N 0.17811 0.36669 0.18704
 C444 C 0.17534 0.33633 0.19471
 N445 N 0.15601 0.32178 0.18564
 N446 N 0.14020 0.33690 0.16927
 C447 C 0.12587 0.38361 0.14283
 N448 N 0.10977 0.36755 0.12673
 N449 N 0.09454 0.38231 0.10899
 C450 C 0.09472 0.41370 0.10694
 N451 N 0.11071 0.42980 0.12322
 N452 N 0.12609 0.41501 0.14072
 C453 C 0.07795 0.42986 0.08727
 N454 N 0.07449 0.46078 0.09067
 N455 N 0.05905 0.47529 0.07301
 C456 C 0.04673 0.45945 0.05107
 N457 N 0.05031 0.42860 0.04753
 N458 N 0.06557 0.41404 0.06541
 C459 C 0.64410 0.86655 0.65852
 N460 N 0.66318 0.88163 0.66760
 N461 N 0.67947 0.86670 0.68320
 C462 C 0.67720 0.83621 0.69062
 N463 N 0.65799 0.82124 0.68179
 N464 N 0.64179 0.83608 0.66590
 C465 C 0.62650 0.88275 0.64039
 N466 N 0.61044 0.86653 0.62437
 N467 N 0.59480 0.88120 0.60724
 C468 C 0.59453 0.91262 0.60577
 N469 N 0.61049 0.92884 0.62198
 N470 N 0.62627 0.91416 0.63885
 C471 C 0.57738 0.92876 0.58673
 N472 N 0.57369 0.95954 0.59079
 N473 N 0.55810 0.97417 0.57353
 C474 C 0.54582 0.95860 0.55134
 N475 N 0.54960 0.92786 0.54717
 N476 N 0.56503 0.91317 0.56465
 C477 C 0.84911 0.13680 0.13904
 N478 N 0.84283 0.12618 0.16819
 N479 N 0.82677 0.14049 0.18477
 C480 C 0.81627 0.16597 0.17289
 N481 N 0.82251 0.17649 0.14359
 N482 N 0.83863 0.16220 0.12699
 C483 C 0.86718 0.12116 0.12124
 N484 N 0.87442 0.13222 0.09266
 N485 N 0.89104 0.11806 0.07691
 C486 C 0.90098 0.09234 0.08919
 N487 N 0.89369 0.08130 0.11772
 N488 N 0.87713 0.09546 0.13346
 C489 C 0.91932 0.07656 0.07209
 N490 N 0.92859 0.05040 0.08432
 N491 N 0.94516 0.03586 0.06897
 C492 C 0.95313 0.04697 0.04083
 N493 N 0.94390 0.07319 0.02857
 N494 N 0.92728 0.08773 0.04393
 C495 C 0.35130 0.63670 0.64537
 N496 N 0.35280 0.64097 0.67738
 N497 N 0.33639 0.65541 0.69322
 C498 C 0.31775 0.66585 0.67770
 N499 N 0.31623 0.66142 0.64568
 N500 N 0.33274 0.64723 0.62979
 C501 C 0.36944 0.62089 0.62793
 N502 N 0.37055 0.62240 0.59560
 N503 N 0.38704 0.60805 0.57982
 C504 C 0.40289 0.59145 0.59577
 N505 N 0.40173 0.58985 0.62808
 N506 N 0.38537 0.60444 0.64389
 C507 C 0.42085 0.57518 0.57841
 N508 N 0.43337 0.55312 0.59321
 N509 N 0.44945 0.53798 0.57741
 C510 C 0.45375 0.54456 0.54632
 N511 N 0.44134 0.56677 0.53155
 N512 N 0.42511 0.58171 0.54728
   
