data_POSCAR
  _audit_creation_date              2014-09-24
  _audit_creation_method            'ToBaCCo'
  _symmetry_space_group_name_H-M    'P1'
  _symmetry_Int_Tables_number       1
  _symmetry_cell_setting            triclinic
  loop_
  _symmetry_equiv_pos_as_xyz
 x,y,z
_cell_length_a 40.8763
_cell_length_b 41.0251
_cell_length_c 54.7413
_cell_angle_alpha 89.932400
_cell_angle_beta 89.153800
_cell_angle_gamma 90.806500
loop_
  _atom_site_label
  _atom_site_type_symbol
  _atom_site_fract_x
  _atom_site_fract_y
  _atom_site_fract_z
C1 C -0.00069 0.50224 0.98791
 C2 C 0.00014 0.50218 1.01280
 C3 C 0.00208 0.53292 1.02708
 C4 C -0.00080 0.47131 1.02704
 C5 C 0.00064 0.47152 0.97361
 C6 C -0.00302 0.53299 0.97371
 C7 C 0.02693 0.55603 1.02255
 C8 C 0.02821 0.58507 1.03584
 C9 C 0.00476 0.59192 1.05449
 C10 C -0.01979 0.56772 1.05902
 C11 C -0.02095 0.53883 1.04560
 C12 C 0.02390 0.46497 1.04382
 C13 C 0.02374 0.43576 1.05695
 C14 C -0.00132 0.41240 1.05368
 C15 C -0.02645 0.41913 1.03722
 C16 C -0.02627 0.44838 1.02410
 C17 C -0.02399 0.46431 0.95681
 C18 C -0.02347 0.43521 0.94361
 C19 C 0.00187 0.41284 0.94683
 C20 C 0.02691 0.42046 0.96330
 C21 C 0.02637 0.44960 0.97650
 C22 C -0.02831 0.55507 0.97830
 C23 C -0.02990 0.58411 0.96501
 C24 C -0.00645 0.59140 0.94668
 C25 C 0.01848 0.56893 0.94185
 C26 C 0.02009 0.53997 0.95518
 H27 H 0.04561 0.55146 1.00878
 H28 H 0.04887 0.60102 1.03197
 H29 H -0.03961 0.57123 1.07196
 H30 H -0.04046 0.52128 1.04931
 H31 H 0.04358 0.48250 1.04651
 H32 H 0.04310 0.43154 1.06981
 H33 H -0.04587 0.45307 1.01152
 H34 H -0.04388 0.48106 0.95416
 H35 H -0.04278 0.43031 0.93074
 H36 H 0.04665 0.40365 0.96628
 H37 H 0.04591 0.45498 0.98908
 H38 H -0.04682 0.54979 0.99216
 H39 H -0.04970 0.60067 0.96886
 H40 H 0.03709 0.57401 0.92804
 H41 H 0.03972 0.52320 0.95131
 H42 H -0.04598 0.40156 1.03421
 C43 C 0.50010 -0.00507 0.48730
 C44 C 0.49995 -0.00477 0.51221
 C45 C 0.46892 -0.00661 0.52668
 C46 C 0.53077 -0.00240 0.52621
 C47 C 0.53100 -0.00777 0.47283
 C48 C 0.46936 -0.00255 0.47330
 C49 C 0.46233 0.01699 0.54453
 C50 C 0.43302 0.01584 0.55796
 C51 C 0.40980 -0.00913 0.55393
 C52 C 0.41676 -0.03314 0.53636
 C53 C 0.44610 -0.03196 0.52294
 C54 C 0.55350 0.02297 0.52173
 C55 C 0.58250 0.02484 0.53488
 C56 C 0.58920 0.00153 0.55292
 C57 C 0.56612 -0.02353 0.55762
 C58 C 0.53714 -0.02538 0.54446
 C59 C 0.55279 -0.03326 0.47705
 C60 C 0.58191 -0.03536 0.46348
 C61 C 0.58961 -0.01223 0.44524
 C62 C 0.56744 0.01293 0.44079
 C63 C 0.53839 0.01505 0.45440
 C64 C 0.46188 -0.02592 0.45548
 C65 C 0.43296 -0.02393 0.44232
 C66 C 0.41107 0.00165 0.44658
 C67 C 0.41891 0.02536 0.46416
 C68 C 0.44785 0.02335 0.47732
 H69 H 0.47975 0.03657 0.54784
 H70 H 0.42861 0.03435 0.57165
 H71 H 0.39930 -0.05256 0.53273
 H72 H 0.45098 -0.05075 0.50954
 H73 H 0.54878 0.04129 0.50801
 H74 H 0.59988 0.04430 0.53073
 H75 H 0.51977 -0.04495 0.54835
 H76 H 0.54720 -0.05156 0.49082
 H77 H 0.59822 -0.05533 0.46704
 H78 H 0.57284 0.03132 0.42705
 H79 H 0.52185 0.03484 0.45081
 H80 H 0.47832 -0.04591 0.45194
 H81 H 0.42788 -0.04225 0.42861
 H82 H 0.40246 0.04523 0.46798
 H83 H 0.45346 0.04196 0.49069
 H84 H 0.57032 -0.04152 0.57168
 C85 C 0.07171 0.00784 0.25825
 H86 H 0.07351 0.00881 0.23853
 C87 C 0.10000 0.00985 0.27219
 H88 H 0.12357 0.01193 0.26300
 C89 C 0.03869 0.00341 0.29407
 H90 H 0.01474 0.00140 0.30256
 C91 C 0.06634 0.00532 0.30871
 H92 H 0.06330 0.00476 0.32839
 N93 N 0.04188 0.00416 0.26931
 C94 C -0.01913 -0.04389 0.21500
 H95 H -0.03942 -0.02727 0.21435
 C96 C -0.01947 -0.07212 0.20077
 H97 H -0.04027 -0.07717 0.18928
 C98 C 0.03207 -0.05793 0.23148
 H99 H 0.05191 -0.05261 0.24371
 C100 C 0.03271 -0.08644 0.21760
 H101 H 0.05348 -0.10239 0.21895
 Zn102 Zn 0.00489 0.00120 0.24895
 N103 N 0.00656 -0.03715 0.22976
 C104 C 0.00539 0.03648 0.20406
 N105 N 0.00530 0.03880 0.22885
 C106 C 0.00630 0.06828 0.24015
 C107 C 0.00643 0.09701 0.22647
 C108 C 0.00547 0.06461 0.18966
 C109 C -0.03921 -0.02747 0.28257
 C110 C -0.06770 -0.03043 0.29685
 C111 C -0.08579 0.02076 0.28033
 C112 C -0.05698 0.02273 0.26636
 N113 N -0.03418 -0.00098 0.26796
 H114 H 0.00549 0.01288 0.19537
 H115 H 0.00664 0.06941 0.25990
 H116 H 0.00644 0.12022 0.23586
 H117 H 0.00566 0.06229 0.16995
 H118 H -0.02090 -0.04623 0.28321
 H119 H -0.07094 -0.05139 0.30873
 H120 H -0.10373 0.03977 0.27865
 H121 H -0.05306 0.04311 0.25413
 C122 C 0.00673 -0.09382 0.20194
 C123 C 0.09754 0.00835 0.29778
 C124 C -0.09138 -0.00600 0.29593
 C125 C 0.00580 0.09541 0.20085
 C126 C -0.00505 0.06960 0.75961
 H127 H -0.00584 0.07070 0.73988
 C128 C -0.00456 0.09834 0.77323
 H129 H -0.00525 0.12154 0.76381
 C130 C -0.00408 0.03785 0.79577
 H131 H -0.00421 0.01425 0.80452
 C132 C -0.00362 0.06599 0.81011
 H133 H -0.00276 0.06368 0.82979
 N134 N -0.00430 0.04014 0.77098
 C135 C 0.03852 -0.02555 0.71707
 H136 H 0.01992 -0.04455 0.71658
 C137 C 0.06685 -0.02816 0.70266
 H138 H 0.06967 -0.04910 0.69083
 C139 C 0.05722 0.02491 0.73305
 H140 H 0.05373 0.04525 0.74526
 C141 C 0.08587 0.02329 0.71895
 H142 H 0.10413 0.04253 0.72050
 Zn143 Zn -0.00473 0.00253 0.75097
 N144 N 0.03404 0.00089 0.73164
 C145 C -0.03935 0.00410 0.70617
 N146 N -0.04203 0.00494 0.73096
 C147 C -0.07158 0.00832 0.74233
 C148 C -0.10012 0.00991 0.72872
 C149 C -0.06728 0.00564 0.69184
 C150 C 0.01920 -0.04222 0.78479
 C151 C 0.01936 -0.07045 0.79908
 C152 C -0.03332 -0.08547 0.78276
 C153 C -0.03249 -0.05695 0.76882
 N154 N -0.00664 -0.03583 0.77026
 H155 H -0.01562 0.00214 0.69743
 H156 H -0.07294 0.00955 0.76206
 H157 H -0.12341 0.01261 0.73813
 H158 H -0.06471 0.00418 0.67216
 H159 H 0.03975 -0.02533 0.78522
 H160 H 0.04028 -0.07522 0.81038
 H161 H -0.05435 -0.10171 0.78163
 H162 H -0.05246 -0.05190 0.75677
 C163 C 0.09093 -0.00343 0.70341
 C164 C -0.00364 0.09678 0.79884
 C165 C -0.00718 -0.09251 0.79819
 C166 C -0.09822 0.00833 0.70311
 C167 C -0.01004 -0.34702 0.10343
 C168 C 0.00705 -0.31997 0.09417
 C169 C 0.02360 -0.32224 0.07179
 C170 C 0.02305 -0.35143 0.05862
 C171 C 0.00570 -0.37941 0.06748
 C172 C -0.01077 -0.37627 0.09040
 C173 C 0.00747 -0.28988 0.10767
 C174 C 0.00762 -0.26483 0.11916
 C175 C 0.00761 -0.23567 0.13281
 C176 C 0.00752 -0.21090 0.14463
 C177 C 0.00736 -0.18149 0.15894
 C178 C 0.01828 -0.18197 0.18304
 C179 C 0.01806 -0.15350 0.19703
 C180 C 0.00688 -0.12410 0.18708
 C181 C -0.00410 -0.12388 0.16284
 C182 C -0.00383 -0.15240 0.14887
 H183 H -0.02265 -0.34563 0.12095
 H184 H 0.03670 -0.30127 0.06432
 H185 H 0.03500 -0.35084 0.04090
 H186 H -0.02311 -0.39655 0.09932
 H187 H 0.02687 -0.20439 0.19105
 H188 H 0.02623 -0.15458 0.21574
 H189 H -0.01247 -0.10157 0.15457
 H190 H -0.01229 -0.15175 0.13021
 C191 C -0.02989 0.33836 0.09029
 C192 C -0.00042 0.32207 0.09356
 C193 C 0.02868 0.33515 0.08369
 C194 C 0.02837 0.36447 0.07067
 C195 C -0.00110 0.38112 0.06735
 C196 C -0.03027 0.36769 0.07725
 C197 C 0.00008 0.29208 0.10722
 C198 C 0.00071 0.26704 0.11873
 C199 C 0.00164 0.23781 0.13231
 C200 C 0.00252 0.21293 0.14400
 C201 C 0.00362 0.18332 0.15808
 C202 C 0.02351 0.18166 0.17861
 C203 C 0.02437 0.15304 0.19247
 C204 C 0.00532 0.12566 0.18594
 C205 C -0.01448 0.12754 0.16518
 C206 C -0.01532 0.15620 0.15136
 H207 H -0.05255 0.32849 0.09792
 H208 H 0.05162 0.32270 0.08606
 H209 H 0.05114 0.37394 0.06298
 H210 H -0.05327 0.38011 0.07524
 H211 H 0.03835 0.20249 0.18393
 H212 H 0.04019 0.15223 0.20814
 H213 H -0.02975 0.10704 0.15986
 H214 H -0.03088 0.15725 0.13554
 C215 C 0.33568 -0.04032 0.59002
 C216 C 0.31903 -0.01134 0.59465
 C217 C 0.33192 0.01828 0.58589
 C218 C 0.36140 0.01899 0.57262
 C219 C 0.37840 -0.00998 0.56792
 C220 C 0.36517 -0.03967 0.57673
 C221 C 0.28883 -0.01186 0.60851
 C222 C 0.26359 -0.01186 0.62018
 C223 C 0.23411 -0.01137 0.63391
 C224 C 0.20900 -0.01052 0.64571
 C225 C 0.17911 -0.00898 0.65987
 C226 C 0.16318 0.02078 0.66265
 C227 C 0.13444 0.02255 0.67670
 C228 C 0.12121 -0.00548 0.68819
 C229 C 0.13731 -0.03534 0.68517
 C230 C 0.16609 -0.03704 0.67111
 H231 H 0.32596 -0.06337 0.59678
 H232 H 0.31919 0.04084 0.58931
 H233 H 0.37070 0.04216 0.56579
 H234 H 0.37787 -0.06232 0.57365
 H235 H 0.17300 0.04264 0.65398
 H236 H 0.12239 0.04579 0.67838
 H237 H 0.12797 -0.05725 0.69402
 H238 H 0.17829 -0.06019 0.66915
 C239 C -0.33378 -0.02364 0.58546
 C240 C -0.32166 0.00646 0.59357
 C241 C -0.33850 0.03501 0.58826
 C242 C -0.36742 0.03348 0.57494
 C243 C -0.37990 0.00330 0.56681
 C244 C -0.36269 -0.02524 0.57217
 C245 C -0.29214 0.00793 0.60757
 C246 C -0.26751 0.00885 0.61940
 C247 C -0.23878 0.00959 0.63339
 C248 C -0.21435 0.00990 0.64546
 C249 C -0.18530 0.00989 0.66000
 C250 C -0.18501 -0.00754 0.68198
 C251 C -0.15676 -0.00793 0.69604
 C252 C -0.12834 0.00913 0.68828
 C253 C -0.12890 0.02666 0.66618
 C254 C -0.15721 0.02703 0.65214
 H255 H -0.32089 -0.04589 0.58943
 H256 H -0.32940 0.05843 0.59452
 H257 H -0.38031 0.05582 0.57136
 H258 H -0.37141 -0.04877 0.56588
 H259 H -0.20658 -0.02099 0.68818
 H260 H -0.15698 -0.02202 0.71278
 H261 H -0.10757 0.04035 0.65987
 H262 H -0.15719 0.04066 0.63518
 C263 C -0.01602 -0.31897 0.93137
 C264 C -0.00917 -0.31879 0.90624
 C265 C -0.00185 -0.34797 0.89428
 C266 C -0.00118 -0.37720 0.90739
 C267 C -0.00784 -0.37764 0.93268
 C268 C -0.01540 -0.34820 0.94452
 C269 C -0.00934 -0.28868 0.89272
 C270 C -0.00928 -0.26362 0.88121
 C271 C -0.00904 -0.23443 0.86753
 C272 C -0.00875 -0.20965 0.85568
 C273 C -0.00839 -0.18022 0.84132
 C274 C 0.00339 -0.15098 0.85124
 C275 C 0.00385 -0.12245 0.83723
 C276 C -0.00753 -0.12280 0.81309
 C277 C -0.01930 -0.15235 0.80330
 C278 C -0.01971 -0.18084 0.81733
 H279 H -0.02164 -0.29650 0.94083
 H280 H 0.00340 -0.34812 0.87482
 H281 H 0.00429 -0.39951 0.89770
 H282 H -0.02023 -0.34769 0.96402
 H283 H 0.01217 -0.15022 0.86982
 H284 H 0.01268 -0.10002 0.84539
 H285 H -0.02779 -0.15353 0.78467
 H286 H -0.02876 -0.20337 0.80944
 C287 C 0.03131 0.34022 0.91003
 C288 C 0.00204 0.32279 0.90671
 C289 C -0.02721 0.33463 0.91663
 C290 C -0.02724 0.36385 0.92973
 C291 C 0.00202 0.38165 0.93309
 C292 C 0.03134 0.36946 0.92315
 C293 C 0.00188 0.29291 0.89296
 C294 C 0.00151 0.26796 0.88135
 C295 C 0.00088 0.23883 0.86767
 C296 C 0.00023 0.21404 0.85588
 C297 C -0.00063 0.18455 0.84167
 C298 C -0.01981 0.15790 0.84950
 C299 C -0.02080 0.12932 0.83561
 C300 C -0.00261 0.12706 0.81366
 C301 C 0.01662 0.15400 0.80598
 C302 C 0.01759 0.18252 0.81990
 H303 H 0.05408 0.33132 0.90236
 H304 H -0.04999 0.32129 0.91422
 H305 H -0.05012 0.37235 0.93745
 H306 H 0.05419 0.38278 0.92519
 H307 H -0.03410 0.15924 0.86629
 H308 H -0.03615 0.10918 0.84186
 H309 H 0.03125 0.15287 0.78935
 H310 H 0.03258 0.20298 0.81370
 C311 C -0.32054 -0.02310 0.42915
 C312 C -0.32014 -0.01633 0.40409
 C313 C -0.34927 -0.00872 0.39239
 C314 C -0.37867 -0.00764 0.40572
 C315 C -0.37930 -0.01415 0.43097
 C316 C -0.34992 -0.02206 0.44252
 C317 C -0.28980 -0.01653 0.39041
 C318 C -0.26446 -0.01628 0.37886
 C319 C -0.23490 -0.01547 0.36521
 C320 C -0.20974 -0.01436 0.35346
 C321 C -0.17979 -0.01249 0.33933
 C322 C -0.16337 0.01745 0.33648
 C323 C -0.13457 0.01953 0.32246
 C324 C -0.12177 -0.00836 0.31108
 C325 C -0.13837 -0.03841 0.31417
 C326 C -0.16721 -0.04043 0.32819
 H327 H -0.29810 -0.02889 0.43841
 H328 H -0.34925 -0.00348 0.37299
 H329 H -0.40094 -0.00191 0.39625
 H330 H -0.34956 -0.02680 0.46198
 H331 H -0.17285 0.03922 0.34507
 H332 H -0.12213 0.04292 0.32072
 H333 H -0.12936 -0.06024 0.30540
 H334 H -0.17979 -0.06372 0.33021
 C335 C 0.34009 0.03532 0.41087
 C336 C 0.32189 0.00692 0.40617
 C337 C 0.33270 -0.02313 0.41478
 C338 C 0.36164 -0.02484 0.42797
 C339 C 0.38019 0.00354 0.43273
 C340 C 0.36905 0.03367 0.42408
 C341 C 0.29225 0.00850 0.39237
 C342 C 0.26748 0.00951 0.38074
 C343 C 0.23852 0.01031 0.36705
 C344 C 0.21382 0.01067 0.35529
 C345 C 0.18439 0.01069 0.34118
 C346 C 0.15825 -0.01015 0.34757
 C347 C 0.12991 -0.01072 0.33359
 C348 C 0.12736 0.00955 0.31296
 C349 C 0.15371 0.03057 0.30677
 C350 C 0.18203 0.03111 0.32081
 H351 H 0.33199 0.05870 0.40422
 H352 H 0.31875 -0.04525 0.41130
 H353 H 0.36933 -0.04832 0.43468
 H354 H 0.38298 0.05588 0.42719
 H355 H 0.15987 -0.02616 0.36325
 H356 H 0.11025 -0.02749 0.33863
 H357 H 0.15234 0.04676 0.29120
 H358 H 0.20211 0.04738 0.31572
   
