data_POSCAR
  _audit_creation_date              2014-09-24
  _audit_creation_method            'ToBaCCo'
  _symmetry_space_group_name_H-M    'P1'
  _symmetry_Int_Tables_number       1
  _symmetry_cell_setting            triclinic
  loop_
  _symmetry_equiv_pos_as_xyz
 x,y,z
_cell_length_a 27.7074
_cell_length_b 30.9656
_cell_length_c 28.4558
_cell_angle_alpha 92.875100
_cell_angle_beta 97.972000
_cell_angle_gamma 99.097900
loop_
  _atom_site_label
  _atom_site_type_symbol
  _atom_site_fract_x
  _atom_site_fract_y
  _atom_site_fract_z
C1 C 0.63490 0.68943 0.67428
 C2 C 0.64487 0.65106 0.69528
 C3 C 0.68039 0.62786 0.68031
 C4 C 0.70436 0.64267 0.64219
 C5 C 0.69336 0.67992 0.61948
 C6 C 0.65861 0.70326 0.63583
 H7 H 0.62600 0.64007 0.72450
 H8 H 0.73128 0.62502 0.62943
 H9 H 0.65037 0.73244 0.61913
 C10 C 0.88674 0.30382 0.17977
 C11 C 0.85938 0.29359 0.13393
 C12 C 0.81944 0.31463 0.11837
 C13 C 0.80689 0.34670 0.14873
 C14 C 0.83365 0.35750 0.19453
 C15 C 0.87372 0.33642 0.20970
 H16 H 0.86882 0.26885 0.11013
 H17 H 0.77588 0.36287 0.13692
 H18 H 0.89386 0.34522 0.24512
 C19 C 0.30801 0.19072 -0.19179
 C20 C 0.26191 0.18957 -0.17625
 C21 C 0.23807 0.15109 -0.15966
 C22 C 0.26032 0.11342 -0.15950
 C23 C 0.30542 0.11368 -0.17675
 C24 C 0.32911 0.15245 -0.19269
 H25 H 0.24611 0.21930 -0.17430
 H26 H 0.24192 0.08363 -0.14691
 H27 H 0.36455 0.15305 -0.20493
 C28 C 0.16649 0.82047 0.35498
 C29 C 0.14127 0.83786 0.31592
 C30 C 0.16083 0.87817 0.30004
 C31 C 0.20447 0.90264 0.32511
 C32 C 0.23005 0.88623 0.36459
 C33 C 0.21160 0.84458 0.37837
 H34 H 0.10694 0.81953 0.29691
 H35 H 0.21904 0.93386 0.31277
 H36 H 0.23112 0.83229 0.40913
 N37 N 0.02645 0.16101 0.11835
 N38 N 0.04376 0.15033 0.16083
 C39 C 0.02886 0.17572 0.19404
 C40 C 0.00030 0.20324 0.17075
 C41 C -0.00067 0.19287 0.12290
 H42 H 0.03695 0.17347 0.23204
 H43 H -0.01932 0.20772 0.09354
 Cu44 Cu 0.08050 0.10184 0.16840
 Cu45 Cu 0.04094 0.13385 0.06013
 Cu46 Cu 0.12265 0.06088 0.07355
 N47 N 0.10013 0.04407 0.16682
 N48 N 0.11376 0.02711 0.12844
 C49 C 0.12215 -0.01382 0.13565
 C50 C 0.11402 -0.02262 0.18124
 C51 C 0.10049 0.01481 0.20028
 H52 H 0.13415 -0.03520 0.11000
 H53 H 0.09037 0.01989 0.23527
 N54 N 0.10939 0.08980 0.01463
 N55 N 0.07689 0.11669 0.00893
 C56 C 0.07984 0.13523 -0.03259
 C57 C 0.11618 0.11937 -0.05371
 C58 C 0.13394 0.09044 -0.02300
 H59 H 0.06019 0.16118 -0.04438
 H60 H 0.16484 0.07362 -0.02614
 H61 H 0.05675 0.07493 0.08502
 H62 H 0.10765 0.12362 0.09416
 N63 N 0.47378 0.83439 0.64680
 N64 N 0.47870 0.84808 0.69199
 C65 C 0.50831 0.82474 0.71779
 C66 C 0.52296 0.79507 0.68702
 C67 C 0.50049 0.80206 0.64221
 H68 H 0.51857 0.82913 0.75601
 H69 H 0.50261 0.78445 0.60895
 Cu70 Cu 0.44553 0.89483 0.71301
 Cu71 Cu 0.43055 0.85851 0.59845
 Cu72 Cu 0.42205 0.96585 0.63143
 N73 N 0.42018 0.94787 0.72912
 N74 N 0.41301 0.97661 0.69745
 C75 C 0.39491 1.00980 0.71732
 C76 C 0.38946 1.00085 0.76352
 C77 C 0.40601 0.96138 0.77001
 H78 H 0.38367 1.03698 0.69861
 H79 H 0.40621 0.94321 0.80150
 N80 N 0.40713 0.94067 0.56492
 N81 N 0.40649 0.89879 0.55298
 C82 C 0.38367 0.88916 0.50790
 C83 C 0.36980 0.92694 0.49057
 C84 C 0.38559 0.95904 0.52739
 H85 H 0.37508 0.85661 0.49007
 H86 H 0.37704 0.99194 0.52856
 H87 H 0.46329 0.91488 0.63440
 H88 H 0.39566 0.90119 0.63718
 N89 N 0.96715 0.67761 0.38920
 N90 N 0.98591 0.64197 0.38103
 C91 C 1.03372 0.65338 0.37586
 C92 C 1.04492 0.69862 0.37976
 C93 C 1.00190 0.71302 0.38785
 H94 H 1.05831 0.63060 0.36935
 H95 H 0.99697 0.74662 0.39466
 Cu96 Cu 0.94527 0.58433 0.37514
 Cu97 Cu 0.90057 0.67520 0.40532
 Cu98 Cu 0.84010 0.57183 0.42142
 N99 N 0.89350 0.53391 0.35529
 N100 N 0.85161 0.52961 0.37275
 C101 C 0.82067 0.49453 0.35018
 C102 C 0.84462 0.47584 0.31694
 C103 C 0.89090 0.50139 0.32132
 H104 H 0.78313 0.48422 0.35658
 H105 H 0.91947 0.49798 0.29972
 N106 N 0.82241 0.62529 0.44893
 N107 N 0.84348 0.66494 0.44069
 C108 C 0.82374 0.69477 0.46470
 C109 C 0.78906 0.67253 0.48938
 C110 C 0.78920 0.62862 0.47859
 H111 H 0.83559 0.72987 0.46619
 H112 H 0.76737 0.60111 0.49198
 H113 H 0.90678 0.61809 0.43605
 H114 H 0.86826 0.61320 0.37606
 N115 N 0.52789 0.32219 -0.16815
 N116 N 0.51374 0.35789 -0.18449
 C117 C 0.46506 0.34924 -0.20126
 C118 C 0.44804 0.30571 -0.19510
 C119 C 0.48885 0.28951 -0.17424
 H120 H 0.44359 0.37297 -0.21599
 H121 H 0.48976 0.25680 -0.16285
 Cu122 Cu 0.56033 0.41208 -0.18243
 Cu123 Cu 0.59518 0.32117 -0.13799
 Cu124 Cu 0.66966 0.42233 -0.11244
 N125 N 0.61535 0.45718 -0.19064
 N126 N 0.65906 0.45976 -0.16479
 C127 C 0.69142 0.49045 -0.18112
 C128 C 0.66625 0.50837 -0.21864
 C129 C 0.61806 0.48681 -0.22359
 H130 H 0.73035 0.49870 -0.16714
 H131 H 0.58795 0.49068 -0.25078
 N132 N 0.68267 0.37059 -0.07896
 N133 N 0.65618 0.33132 -0.09116
 C134 C 0.67454 0.30226 -0.06307
 C135 C 0.71394 0.32456 -0.03134
 C136 C 0.71808 0.36782 -0.04224
 H137 H 0.65901 0.26785 -0.06417
 H138 H 0.74489 0.39517 -0.02490
 H139 H 0.59941 0.38396 -0.11088
 H140 H 0.63265 0.37678 -0.16286
 C141 C -0.07467 0.28062 0.19454
 C142 C -0.04814 0.28264 0.23991
 C143 C -0.01641 0.25325 0.23755
 C144 C -0.02542 0.23596 0.19106
 O145 O -0.06047 0.25232 0.16512
 H146 H -0.05171 0.30220 0.27139
 H147 H 0.01022 0.24559 0.26615
 C148 C 0.60169 0.71627 0.69401
 C149 C 0.59490 0.71869 0.74121
 C150 C 0.56451 0.74879 0.74486
 C151 C 0.55466 0.76232 0.69965
 O152 O 0.57727 0.74285 0.66869
 H153 H 0.61124 0.70156 0.76992
 H154 H 0.55116 0.75960 0.77669
 C155 C 1.14591 0.78008 0.37031
 C156 C 1.17113 0.75347 0.39891
 C157 C 1.13680 0.71798 0.40423
 C158 C 1.09314 0.72600 0.37963
 O159 O 1.09844 0.76328 0.35884
 H160 H 1.20995 0.75852 0.41345
 H161 H 1.14249 0.69032 0.42489
 C162 C 0.33646 0.23248 -0.20288
 C163 C 0.31652 0.26798 -0.21947
 C164 C 0.35602 0.30025 -0.22052
 C165 C 0.39696 0.28206 -0.20425
 O166 O 0.38524 0.24100 -0.19379
 H167 H 0.27788 0.27033 -0.22893
 H168 H 0.35498 0.33335 -0.23060
 C169 C 0.13738 -0.10596 0.25593
 C170 C 0.11699 -0.13253 0.21535
 C171 C 0.10541 -0.10460 0.18163
 C172 C 0.11881 -0.06325 0.20442
 O173 O 0.13845 -0.06384 0.24938
 H174 H 0.11308 -0.16786 0.21041
 H175 H 0.08943 -0.11321 0.14480
 C176 C 0.69183 0.59123 -0.29578
 C177 C 0.73375 0.57234 -0.29768
 C178 C 0.73065 0.53963 -0.26731
 C179 C 0.68677 0.54023 -0.25004
 O180 O 0.66326 0.57137 -0.26694
 H181 H 0.76394 0.58182 -0.31739
 H182 H 0.75664 0.51737 -0.25950
 C183 C 0.32777 1.07356 0.82108
 C184 C 0.32454 1.04155 0.85309
 C185 C 0.34909 1.01033 0.83682
 C186 C 0.36499 1.02551 0.79591
 O187 O 0.35233 1.06389 0.78641
 H188 H 0.30639 1.04098 0.88442
 H189 H 0.35359 0.97969 0.85216
 C190 C 0.81899 0.38982 0.22730
 C191 C 0.77073 0.39368 0.23114
 C192 C 0.77383 0.42589 0.26640
 C193 C 0.82373 0.43959 0.28097
 O194 O 0.85126 0.41767 0.25749
 H195 H 0.73734 0.37481 0.21115
 H196 H 0.74342 0.43842 0.27932
 C197 C 0.19171 0.15067 -0.13947
 C198 C 0.15755 0.17792 -0.15089
 C199 C 0.12301 0.16852 -0.12146
 C200 C 0.13875 0.13636 -0.09428
 O201 O 0.18016 0.12531 -0.10529
 H202 H 0.15808 0.20217 -0.17697
 H203 H 0.09110 0.18420 -0.11913
 C204 C 0.71909 0.69384 0.57912
 C205 C 0.72692 0.73590 0.56433
 C206 C 0.75446 0.73385 0.52823
 C207 C 0.76092 0.69071 0.52346
 O208 O 0.73968 0.66650 0.55422
 H209 H 0.71525 0.76484 0.57885
 H210 H 0.76832 0.76056 0.50802
 C211 C 0.78975 0.30227 0.07099
 C212 C 0.77950 0.26029 0.04922
 C213 C 0.74923 0.26296 0.00780
 C214 C 0.74381 0.30641 0.00712
 O215 O 0.76811 0.33034 0.04544
 H216 H 0.79161 0.23105 0.06251
 H217 H 0.73317 0.23650 -0.01878
 C218 C 0.27497 0.91259 0.39295
 C219 C 0.29009 0.95720 0.39120
 C220 C 0.32918 0.96844 0.42674
 C221 C 0.33536 0.92997 0.44723
 O222 O 0.30268 0.89614 0.42695
 H223 H 0.27344 0.97948 0.36849
 H224 H 0.34971 1.00098 0.43742
   
