data_POSCAR
  _audit_creation_date              2014-09-24
  _audit_creation_method            'ToBaCCo'
  _symmetry_space_group_name_H-M    'P1'
  _symmetry_Int_Tables_number       1
  _symmetry_cell_setting            triclinic
  loop_
  _symmetry_equiv_pos_as_xyz
 x,y,z
_cell_length_a 36.5601
_cell_length_b 36.6355
_cell_length_c 16.1175
_cell_angle_alpha 89.823700
_cell_angle_beta 90.221400
_cell_angle_gamma 119.555100
loop_
  _atom_site_label
  _atom_site_type_symbol
  _atom_site_fract_x
  _atom_site_fract_y
  _atom_site_fract_z
C1 C 0.11817 0.45241 0.52726
 C2 C 0.11502 0.44815 0.44309
 C3 C 0.15018 0.44666 0.41579
 N4 N 0.17407 0.44863 0.48220
 C5 C 0.15511 0.45336 0.55040
 C6 C 0.15941 0.44303 0.33119
 C7 C 0.19359 0.43688 0.30985
 C8 C 0.19596 0.41668 0.23934
 C9 C 0.23576 0.42155 0.23734
 C10 C 0.25651 0.44361 0.30808
 N11 N 0.23030 0.45246 0.35220
 C12 C 0.29958 0.45921 0.32748
 C13 C 0.31553 0.47808 0.40551
 C14 C 0.35497 0.51221 0.42025
 C15 C 0.35844 0.51839 0.50456
 C16 C 0.32122 0.48755 0.53864
 N17 N 0.29462 0.46351 0.47780
 C18 C 0.31174 0.47995 0.62411
 C19 C 0.26968 0.46428 0.65033
 C20 C 0.25330 0.44772 0.72783
 C21 C 0.21275 0.44045 0.72881
 C22 C 0.20574 0.45394 0.65329
 N23 N 0.24009 0.46745 0.60500
 C24 C 0.17009 0.45739 0.63332
 H25 H 0.09465 0.45324 0.56586
 H26 H 0.08869 0.44522 0.40775
 H27 H 0.24499 0.48315 0.54858
 H28 H 0.17148 0.39974 0.19405
 H29 H 0.24744 0.41057 0.18782
 H30 H 0.37825 0.53170 0.37497
 H31 H 0.38454 0.54402 0.53628
 H32 H 0.19093 0.42663 0.77968
 H33 H 0.23890 0.47265 0.40282
 H34 H 0.26832 0.44182 0.77971
 C35 C 0.48640 -0.17709 0.57611
 C36 C 0.47991 -0.18064 0.49198
 C37 C 0.51458 -0.18060 0.45806
 N38 N 0.54200 -0.17730 0.51756
 C39 C 0.52510 -0.17451 0.58983
 C40 C 0.52319 -0.17948 0.37340
 C41 C 0.53981 -0.20424 0.34173
 C42 C 0.55096 -0.20543 0.26011
 C43 C 0.56211 -0.23633 0.25583
 C44 C 0.55729 -0.25324 0.33480
 N45 N 0.54382 -0.23345 0.38650
 C46 C 0.56411 -0.28678 0.35770
 C47 C 0.57956 -0.28880 0.43772
 C48 C 0.59348 -0.31641 0.46082
 C49 C 0.60180 -0.31110 0.54384
 C50 C 0.59285 -0.28039 0.56970
 N51 N 0.58091 -0.26552 0.50407
 C52 C 0.59173 -0.26994 0.65386
 C53 C 0.59007 -0.23399 0.67835
 C54 C 0.60440 -0.21350 0.75337
 C55 C 0.59124 -0.18421 0.75809
 C56 C 0.56947 -0.18747 0.68515
 N57 N 0.56922 -0.21787 0.63716
 C58 C 0.54625 -0.16690 0.66652
 H59 H 0.46502 -0.17671 0.62185
 H60 H 0.45283 -0.18315 0.45935
 H61 H 0.55066 -0.23126 0.58498
 H62 H 0.55033 -0.18690 0.20843
 H63 H 0.57321 -0.24482 0.20104
 H64 H 0.59755 -0.33827 0.42276
 H65 H 0.61294 -0.32832 0.58069
 H66 H 0.59546 -0.16489 0.81156
 H67 H 0.53352 -0.24251 0.44707
 H68 H 0.62161 -0.21981 0.80077
 C69 C 1.09660 0.70167 0.53717
 C70 C 1.09793 0.69962 0.45216
 C71 C 1.13944 0.71341 0.43186
 N72 N 1.16350 0.72386 0.50066
 C73 C 1.13727 0.71600 0.56525
 C74 C 1.15469 0.71232 0.35282
 C75 C 1.19426 0.74530 0.32630
 C76 C 1.21363 0.74732 0.25140
 C77 C 1.24999 0.78570 0.24885
 C78 C 1.25222 0.80625 0.32260
 N79 N 1.21772 0.78151 0.36850
 C80 C 1.28374 0.84745 0.34589
 C81 C 1.28643 0.86023 0.42967
 C82 C 1.30070 0.90072 0.45788
 C83 C 1.30268 0.89934 0.54302
 C84 C 1.28897 0.85795 0.56405
 N85 N 1.27834 0.83394 0.49493
 C86 C 1.28784 0.84240 0.64494
 C87 C 1.25365 0.80338 0.66995
 C88 C 1.24993 0.78345 0.74532
 C89 C 1.21077 0.74870 0.74710
 C90 C 1.19131 0.74767 0.67245
 N91 N 1.21749 0.78161 0.62659
 C92 C 1.15007 0.71714 0.64808
 H93 H 1.06905 0.69419 0.57382
 H94 H 1.07160 0.68969 0.41001
 H95 H 1.20992 0.79117 0.57131
 H96 H 1.20258 0.72435 0.20225
 H97 H 1.27166 0.79672 0.19756
 H98 H 1.30685 0.92802 0.42165
 H99 H 1.31136 0.92543 0.58479
 H100 H 1.19862 0.72750 0.79898
 H101 H 1.20908 0.79028 0.42323
 H102 H 1.27212 0.79278 0.79576
 C103 C 0.66240 0.49104 0.43276
 C104 C 0.66007 0.48575 0.51735
 C105 C 0.69668 0.51849 0.54964
 N106 N 0.72182 0.54291 0.48770
 C107 C 0.70048 0.52664 0.41641
 C108 C 0.70705 0.52723 0.63446
 C109 C 0.74948 0.54375 0.65904
 C110 C 0.76654 0.56053 0.73601
 C111 C 0.80723 0.56795 0.73572
 C112 C 0.81365 0.55466 0.65956
 N113 N 0.77876 0.54090 0.61256
 C114 C 0.84905 0.55111 0.63792
 C115 C 0.86402 0.55694 0.55476
 C116 C 0.90160 0.55971 0.53016
 C117 C 0.90361 0.56372 0.44590
 C118 C 0.86725 0.56332 0.42024
 N119 N 0.84373 0.56064 0.48739
 C120 C 0.85618 0.56487 0.33609
 C121 C 0.82095 0.56917 0.31470
 C122 C 0.81635 0.58660 0.24183
 C123 C 0.77629 0.58124 0.24201
 C124 C 0.75763 0.56114 0.31572
 N125 N 0.78530 0.55429 0.35978
 C126 C 0.71492 0.54500 0.33767
 H127 H 0.63944 0.47008 0.38830
 H128 H 0.63528 0.45960 0.55053
 H129 H 0.77819 0.53560 0.41255
 H130 H 0.75159 0.56611 0.78820
 H131 H 0.82943 0.58120 0.78642
 H132 H 0.92610 0.56002 0.56792
 H133 H 0.92977 0.56749 0.40908
 H134 H 0.76267 0.59022 0.19200
 H135 H 0.77337 0.52502 0.55639
 H136 H 0.83954 0.60205 0.19372
 C137 C 0.40481 0.09095 0.46566
 C138 C 0.39916 0.08822 0.54966
 C139 C 0.40904 0.12787 0.57677
 N140 N 0.41898 0.15429 0.51134
 C141 C 0.41820 0.13226 0.44362
 C142 C 0.41283 0.13999 0.66118
 C143 C 0.41167 0.17625 0.68624
 C144 C 0.39831 0.18200 0.76283
 C145 C 0.40598 0.22276 0.76480
 C146 C 0.42353 0.24074 0.68876
 N147 N 0.42651 0.21187 0.64157
 C148 C 0.44151 0.28363 0.66674
 C149 C 0.46131 0.29767 0.58890
 C150 C 0.49830 0.33498 0.57427
 C151 C 0.50396 0.33833 0.49024
 C152 C 0.47066 0.30275 0.45673
 N153 N 0.44471 0.27760 0.51675
 C154 C 0.46321 0.29450 0.37170
 C155 C 0.44985 0.25357 0.34132
 C156 C 0.44240 0.24094 0.25911
 C157 C 0.43416 0.19988 0.25730
 C158 C 0.43713 0.18864 0.33823
 N159 N 0.44659 0.22145 0.38866
 C160 C 0.43251 0.14952 0.36358
 H161 H 0.39959 0.06513 0.42604
 H162 H 0.38923 0.06020 0.58647
 H163 H 0.45535 0.22341 0.45049
 H164 H 0.38514 0.15938 0.81276
 H165 H 0.40122 0.23731 0.81850
 H166 H 0.51953 0.35719 0.61920
 H167 H 0.53004 0.36353 0.45758
 H168 H 0.42635 0.18042 0.20252
 H169 H 0.44341 0.21799 0.58691
 H170 H 0.44399 0.25929 0.20534
 C171 C 0.65358 0.10979 0.45438
 C172 C 0.65319 0.10989 0.53911
 C173 C 0.69074 0.14369 0.56478
 N174 N 0.71437 0.16400 0.49738
 C175 C 0.69111 0.14400 0.42921
 C176 C 0.70302 0.15451 0.64911
 C177 C 0.74362 0.18588 0.67113
 C178 C 0.76452 0.18737 0.74394
 C179 C 0.79992 0.22639 0.74711
 C180 C 0.79983 0.24725 0.67518
 N181 N 0.76554 0.22195 0.62913
 C182 C 0.82728 0.28978 0.65562
 C183 C 0.82328 0.30480 0.57776
 C184 C 0.82626 0.34332 0.56136
 C185 C 0.82293 0.34542 0.47686
 C186 C 0.81814 0.30817 0.44548
 N187 N 0.81760 0.28307 0.50708
 C188 C 0.82010 0.29919 0.36188
 C189 C 0.79406 0.25780 0.33214
 C190 C 0.79663 0.24213 0.25563
 C191 C 0.76415 0.20114 0.25223
 C192 C 0.74172 0.19313 0.32555
 N193 N 0.76054 0.22775 0.37404
 C194 C 0.70356 0.15602 0.34501
 H195 H 0.62864 0.08629 0.41734
 H196 H 0.62820 0.08646 0.57634
 H197 H 0.74875 0.23235 0.42940
 H198 H 0.75504 0.16309 0.79057
 H199 H 0.82168 0.23798 0.79847
 H200 H 0.82992 0.36708 0.60554
 H201 H 0.82419 0.37139 0.44228
 H202 H 0.75896 0.17947 0.20241
 H203 H 0.75424 0.23069 0.57775
 H204 H 0.81915 0.25802 0.20686
 O205 O 0.97394 0.52085 -0.16293
 O206 O 1.04732 0.53222 0.17542
 O207 O 0.92517 0.48866 0.06413
 O208 O 1.06379 0.58216 -0.06510
 O209 O 0.98300 0.53167 0.12258
 O210 O 1.05100 0.54606 -0.17348
 O211 O 1.05962 0.57322 0.07596
 O212 O 0.92040 0.47497 -0.08764
 C213 C 0.93582 0.50344 -0.14332
 C214 C 1.06548 0.56891 0.15012
 C215 C 0.94530 0.51958 0.11025
 C216 C 1.06379 0.58063 -0.14122
 O217 O 1.03740 0.47109 -0.15265
 O218 O 0.97086 0.46624 0.20097
 O219 O 0.93938 0.41248 -0.05361
 O220 O 1.08280 0.51170 0.06662
 O221 O 1.02462 0.45978 0.11441
 O222 O 0.96027 0.44557 -0.16766
 O223 O 1.08931 0.52224 -0.08456
 O224 O 0.94584 0.42772 0.09047
 Co225 Co 1.00568 0.49626 -0.14934
 Co226 Co 1.00233 0.49472 0.11243
 Co227 Co 0.93891 0.45533 0.00203
 Co228 Co 1.06884 0.54353 -0.00243
 O229 O 1.00547 0.49916 -0.01372
 C230 C 1.07549 0.49122 -0.13416
 C231 C 0.94178 0.43203 0.16715
 C232 C 0.93949 0.41214 -0.12994
 C233 C 1.06372 0.47706 0.10511
 O234 O 0.49955 0.45165 -0.16555
 O235 O 0.44981 0.46688 0.11243
 O236 O 0.49263 0.43190 0.09280
 O237 O 0.45166 0.53359 -0.08923
 O238 O 0.50792 0.47095 0.20261
 O239 O 0.45396 0.48420 -0.16213
 O240 O 0.44414 0.51950 0.06383
 O241 O 0.48175 0.41868 -0.05067
 C242 C 0.48031 0.41810 -0.12693
 C243 C 0.42850 0.48487 0.10266
 C244 C 0.50039 0.43558 0.16997
 C245 C 0.43660 0.50522 -0.14493
 O246 O 0.51920 0.55696 -0.17220
 O247 O 0.56290 0.53511 0.12422
 O248 O 0.56521 0.47443 -0.08463
 O249 O 0.52882 0.57928 0.07881
 O250 O 0.49972 0.53792 0.17645
 O251 O 0.56563 0.52553 -0.15572
 O252 O 0.53514 0.59112 -0.05948
 O253 O 0.57472 0.48967 0.06537
 Co254 Co 0.50968 0.50468 -0.14919
 Co255 Co 0.50686 0.50018 0.11273
 Co256 Co 0.52721 0.45838 0.00411
 Co257 Co 0.49096 0.55167 -0.00188
 O258 O 0.50898 0.50582 -0.01320
 C259 C 0.53785 0.59081 -0.13524
 C260 C 0.58681 0.52077 0.11179
 C261 C 0.58210 0.50377 -0.13796
 C262 C 0.51809 0.57472 0.15211
 O263 O 0.55272 0.03005 -0.14280
 O264 O 0.49404 -0.03581 0.21102
 O265 O 0.55838 0.07586 0.07567
 O266 O 0.51430 -0.06751 -0.04493
 O267 O 0.55326 0.01784 0.12341
 O268 O 0.50146 -0.04629 -0.15864
 O269 O 0.50559 -0.06195 0.09931
 O270 O 0.55405 0.08246 -0.07508
 C271 C 0.57106 0.06792 -0.12387
 C272 C 0.49857 -0.06535 0.17666
 C273 C 0.57442 0.05695 0.11421
 C274 C 0.51589 -0.06598 -0.12115
 O275 O 0.44047 -0.03077 -0.15230
 O276 O 0.50318 0.04062 0.18508
 O277 O 0.46849 0.05717 -0.05323
 O278 O 0.42430 -0.08118 0.07378
 O279 O 0.44020 -0.02371 0.13538
 O280 O 0.49204 0.04587 -0.16273
 O281 O 0.43316 -0.08516 -0.07933
 O282 O 0.47394 0.05263 0.08574
 Co283 Co 0.49639 -0.00030 -0.13938
 Co284 Co 0.49612 -0.00444 0.12280
 Co285 Co 0.51251 0.06210 0.00747
 Co286 Co 0.47111 -0.06772 0.01097
 O287 O 0.49384 -0.00107 -0.00367
 C288 C 0.42018 -0.06898 -0.13451
 C289 C 0.48434 0.05871 0.15944
 C290 C 0.46976 0.05799 -0.12912
 C291 C 0.41451 -0.06111 0.12278
 C292 C 1.09595 0.42535 0.15339
 C293 C 1.14359 0.45493 0.17119
 C294 C 1.13487 0.44837 0.26575
 C295 C 1.08770 0.41883 0.24839
 C296 C 1.12779 0.48661 0.26763
 C297 C 1.13609 0.49290 0.17378
 C298 C 1.08899 0.46340 0.15690
 C299 C 1.08054 0.45713 0.25057
 H300 H 1.08285 0.40026 0.10575
 H301 H 1.16971 0.45598 0.13459
 H302 H 1.06754 0.38827 0.27941
 H303 H 1.14076 0.51238 0.31394
 H304 H 1.15623 0.52351 0.14289
 H305 H 1.05435 0.45812 0.28319
 C306 C 0.49888 0.62272 0.24895
 C307 C 0.52497 0.63262 0.32960
 C308 C 0.55252 0.67868 0.30094
 C309 C 0.52606 0.66883 0.22067
 C310 C 0.58324 0.66744 0.25818
 C311 C 0.55580 0.62118 0.28652
 C312 C 0.52974 0.61169 0.20682
 C313 C 0.55685 0.65742 0.17746
 H314 H 0.46410 0.60493 0.24519
 H315 H 0.51143 0.62207 0.39244
 H316 H 0.51233 0.68684 0.19157
 H317 H 0.61806 0.68599 0.26159
 H318 H 0.56760 0.60099 0.31345
 H319 H 0.56982 0.66742 0.11408
 C320 C 0.33949 -0.12825 0.16350
 C321 C 0.34651 -0.14017 0.25200
 C322 C 0.31625 -0.12606 0.28721
 C323 C 0.30895 -0.11413 0.19905
 C324 C 0.35366 -0.08107 0.29977
 C325 C 0.38353 -0.09540 0.26423
 C326 C 0.37632 -0.08359 0.17637
 C327 C 0.34668 -0.06894 0.21122
 H328 H 0.33378 -0.14747 0.10679
 H329 H 0.34718 -0.16922 0.26902
 H330 H 0.27798 -0.12189 0.17201
 H331 H 0.36393 -0.05933 0.35325
 H332 H 0.41454 -0.08690 0.29185
 H333 H 0.34685 -0.03951 0.19396
 C334 C 0.91648 0.57467 0.15155
 C335 C 0.86926 0.54676 0.17445
 C336 C 0.88045 0.55702 0.26743
 C337 C 0.92727 0.58492 0.24509
 C338 C 0.88673 0.51843 0.27544
 C339 C 0.87588 0.50839 0.18310
 C340 C 0.92260 0.53628 0.16117
 C341 C 0.93358 0.54625 0.25343
 H342 H 0.92880 0.59771 0.09990
 H343 H 0.84256 0.54531 0.13886
 H344 H 0.94862 0.61654 0.27087
 H345 H 0.87448 0.49483 0.32615
 H346 H 0.85458 0.47668 0.15758
 H347 H 0.96027 0.54594 0.28596
 C348 C 0.44952 0.37329 0.27160
 C349 C 0.44563 0.33162 0.24026
 C350 C 0.47212 0.33125 0.31468
 C351 C 0.47555 0.37270 0.34658
 C352 C 0.51290 0.35616 0.26478
 C353 C 0.48663 0.35677 0.18954
 C354 C 0.49038 0.39797 0.22215
 C355 C 0.51657 0.39775 0.29657
 H356 H 0.42358 0.38071 0.27455
 H357 H 0.41591 0.30482 0.21707
 H358 H 0.47024 0.38005 0.41066
 H359 H 0.53900 0.34894 0.26181
 H360 H 0.49110 0.35028 0.12426
 H361 H 0.54535 0.42499 0.32164
 C362 C 0.62912 0.12963 0.18179
 C363 C 0.62737 0.12192 0.27589
 C364 C 0.67306 0.13004 0.27468
 C365 C 0.67490 0.13805 0.17975
 C366 C 0.65686 0.08295 0.25860
 C367 C 0.61109 0.07482 0.26022
 C368 C 0.61299 0.08264 0.16626
 C369 C 0.65835 0.09057 0.16333
 H370 H 0.61783 0.14920 0.15014
 H371 H 0.61395 0.13478 0.32138
 H372 H 0.69883 0.16401 0.14164
 H373 H 0.66810 0.06342 0.29055
 H374 H 0.58457 0.04852 0.29338
 H375 H 0.67108 0.07762 0.11659
 C376 C 0.41869 0.09208 -0.15468
 C377 C 0.44718 0.13551 -0.19527
 C378 C 0.42435 0.11807 -0.27894
 C379 C 0.39581 0.07497 -0.23916
 C380 C 0.45704 0.10462 -0.30193
 C381 C 0.47942 0.12165 -0.21846
 C382 C 0.45091 0.07864 -0.17904
 C383 C 0.42847 0.06128 -0.26213
 H384 H 0.40324 0.08671 -0.09325
 H385 H 0.45623 0.16624 -0.16622
 H386 H 0.36127 0.05582 -0.24795
 H387 H 0.47369 0.10992 -0.36202
 H388 H 0.51398 0.14064 -0.20955
 H389 H 0.42108 0.03054 -0.28917
 C390 C 0.66472 0.52563 -0.17265
 C391 C 0.66354 0.49084 -0.22957
 C392 C 0.67513 0.52047 -0.30507
 C393 C 0.67688 0.55539 -0.24894
 C394 C 0.62814 0.50452 -0.32314
 C395 C 0.61629 0.47470 -0.24762
 C396 C 0.61799 0.50939 -0.19169
 C397 C 0.62997 0.53924 -0.26692
 H398 H 0.67958 0.53422 -0.11034
 H399 H 0.67746 0.47068 -0.21449
 H400 H 0.70133 0.58905 -0.25020
 H401 H 0.61031 0.49692 -0.38223
 H402 H 0.59237 0.44101 -0.24615
 H403 H 0.61652 0.55971 -0.28309
 C404 C 0.87947 0.38072 -0.23617
 C405 C 0.89278 0.36265 -0.30871
 C406 C 0.85707 0.31843 -0.28514
 C407 C 0.84402 0.33647 -0.21233
 C408 C 0.88770 0.31217 -0.22826
 C409 C 0.92323 0.35679 -0.25125
 C410 C 0.90996 0.37481 -0.17902
 C411 C 0.87489 0.33081 -0.15438
 H412 H 0.87627 0.40926 -0.23975
 H413 H 0.90230 0.37703 -0.37119
 H414 H 0.81129 0.32824 -0.19673
 H415 H 0.89225 0.28439 -0.22601
 H416 H 0.95610 0.36534 -0.26650
 H417 H 0.86806 0.31801 -0.09032
 C418 C 0.49517 -0.12543 -0.22759
 C419 C 0.52705 -0.10841 -0.29933
 C420 C 0.54204 -0.13974 -0.27449
 C421 C 0.51045 -0.15644 -0.20252
 C422 C 0.57585 -0.10619 -0.21716
 C423 C 0.56028 -0.07520 -0.24140
 C424 C 0.52847 -0.09221 -0.17013
 C425 C 0.54386 -0.12276 -0.14415
 H426 H 0.46171 -0.13344 -0.23145
 H427 H 0.52084 -0.10030 -0.36227
 H428 H 0.48977 -0.19004 -0.18686
 H429 H 0.60964 -0.09698 -0.21375
 H430 H 0.58076 -0.04150 -0.25663
 H431 H 0.55088 -0.12816 -0.07966
 C432 C 0.38813 0.46749 -0.27261
 C433 C 0.34164 0.45321 -0.25529
 C434 C 0.34420 0.48719 -0.31579
 C435 C 0.39082 0.50121 -0.33335
 C436 C 0.35720 0.51890 -0.24370
 C437 C 0.35494 0.48496 -0.18240
 C438 C 0.40122 0.49924 -0.20071
 C439 C 0.40408 0.53305 -0.26117
 H440 H 0.40054 0.44580 -0.28499
 H441 H 0.31680 0.41970 -0.25372
 H442 H 0.40803 0.50660 -0.39260
 H443 H 0.34439 0.54029 -0.23213
 H444 H 0.34038 0.47833 -0.11991
 H445 H 0.42996 0.56611 -0.26315
 C446 C 1.09854 0.61538 -0.28212
 C447 C 1.08127 0.64356 -0.31439
 C448 C 1.12458 0.68263 -0.29718
 C449 C 1.14165 0.65409 -0.26531
 C450 C 1.11063 0.68602 -0.20868
 C451 C 1.06710 0.64664 -0.22531
 C452 C 1.08472 0.61883 -0.19385
 C453 C 1.12766 0.65722 -0.17640
 H454 H 1.09373 0.58616 -0.31255
 H455 H 1.06029 0.63415 -0.36932
 H456 H 1.17222 0.65659 -0.28219
 H457 H 1.11568 0.71537 -0.17860
 H458 H 1.03615 0.64313 -0.20814
 H459 H 1.14641 0.66232 -0.11893
 C460 C 0.86410 0.48612 -0.22563
 C461 C 0.85352 0.52163 -0.21021
 C462 C 0.86895 0.53881 -0.29889
 C463 C 0.87875 0.50295 -0.31424
 C464 C 0.91368 0.56739 -0.26601
 C465 C 0.89884 0.55042 -0.17700
 C466 C 0.90880 0.51500 -0.19341
 C467 C 0.92373 0.53171 -0.28172
 H468 H 0.84362 0.45276 -0.20804
 H469 H 0.82427 0.51578 -0.17840
 H470 H 0.87066 0.48313 -0.37072
 H471 H 0.93430 0.60084 -0.28295
 H472 H 0.90697 0.56954 -0.11958
 H473 H 0.95275 0.53567 -0.31180
 C474 C 0.45549 0.33492 -0.14476
 C475 C 0.41663 0.31414 -0.20374
 C476 C 0.44565 0.31473 -0.27401
 C477 C 0.48393 0.33499 -0.21584
 C478 C 0.45324 0.35836 -0.30173
 C479 C 0.42511 0.35837 -0.23097
 C480 C 0.46366 0.37830 -0.17369
 C481 C 0.49182 0.37846 -0.24413
 H482 H 0.45627 0.32566 -0.07943
 H483 H 0.38467 0.28862 -0.18758
 H484 H 0.50841 0.32558 -0.20989
 H485 H 0.45193 0.36887 -0.36582
 H486 H 0.40107 0.36839 -0.23633
 H487 H 0.52243 0.40535 -0.26247
 C488 C 0.62969 0.14227 -0.19418
 C489 C 0.67350 0.14531 -0.18875
 C490 C 0.67072 0.13402 -0.28212
 C491 C 0.62751 0.13174 -0.28749
 C492 C 0.64982 0.08716 -0.26061
 C493 C 0.65223 0.09784 -0.16714
 C494 C 0.60918 0.09541 -0.17341
 C495 C 0.60655 0.08471 -0.26644
 H496 H 0.62129 0.16478 -0.16614
 H497 H 0.70006 0.17070 -0.15400
 H498 H 0.61706 0.14547 -0.33747
 H499 H 0.65783 0.06430 -0.28828
 H500 H 0.66229 0.08408 -0.11656
 H501 H 0.57871 0.05978 -0.29931
 C502 C 1.11642 0.44862 -0.17645
 C503 C 1.10312 0.43534 -0.26778
 C504 C 1.14778 0.46681 -0.29691
 C505 C 1.16167 0.48040 -0.20583
 C506 C 1.13590 0.50164 -0.30528
 C507 C 1.09105 0.47001 -0.27662
 C508 C 1.10445 0.48309 -0.18589
 C509 C 1.14904 0.51489 -0.21437
 H510 H 1.10859 0.42710 -0.12258
 H511 H 1.08396 0.40261 -0.29026
 H512 H 1.19113 0.48650 -0.17413
 H513 H 1.14374 0.52370 -0.35823
 H514 H 1.06183 0.46579 -0.30666
 H515 H 1.16785 0.54762 -0.19166
 C516 C 0.57419 0.63367 -0.27105
 C517 C 0.54609 0.65147 -0.30143
 C518 C 0.58194 0.69625 -0.28154
 C519 C 0.61004 0.67858 -0.25087
 C520 C 0.56401 0.69267 -0.19326
 C521 C 0.52853 0.64791 -0.21358
 C522 C 0.55659 0.63032 -0.18348
 C523 C 0.59206 0.67458 -0.16186
 H524 H 0.57811 0.60894 -0.30272
 H525 H 0.52651 0.64144 -0.35858
 H526 H 0.64375 0.69148 -0.26635
 H527 H 0.55855 0.71576 -0.15906
 H528 H 0.49483 0.63491 -0.19782
 H529 H 0.61066 0.68351 -0.10350
 C530 C 0.38850 -0.11047 -0.27309
 C531 C 0.34794 -0.15256 -0.25770
 C532 C 0.32196 -0.13424 -0.29778
 C533 C 0.36261 -0.09233 -0.31380
 C534 C 0.31669 -0.11855 -0.21241
 C535 C 0.34300 -0.13661 -0.17152
 C536 C 0.38305 -0.09494 -0.18802
 C537 C 0.35744 -0.07647 -0.22826
 H538 H 0.41833 -0.10701 -0.29783
 H539 H 0.34439 -0.18390 -0.27068
 H540 H 0.37345 -0.07291 -0.37084
 H541 H 0.28697 -0.12168 -0.18774
 H542 H 0.33541 -0.15456 -0.11252
 H543 H 0.36144 -0.04494 -0.21551
 C544 C 0.51558 -0.12876 0.19261
 C545 C 0.54969 -0.11623 0.26083
 C546 C 0.51639 -0.14939 0.31899
 C547 C 0.48245 -0.16215 0.25149
 C548 C 0.50583 -0.11613 0.35268
 C549 C 0.53886 -0.08311 0.29395
 C550 C 0.50479 -0.09605 0.22704
 C551 C 0.47165 -0.12894 0.28493
 H552 H 0.51964 -0.13359 0.12605
 H553 H 0.58203 -0.11081 0.25114
 H554 H 0.45928 -0.19487 0.23408
 H555 H 0.50251 -0.10860 0.41785
 H556 H 0.56198 -0.05031 0.31107
 H557 H 0.43925 -0.13473 0.29500
 C558 C 0.34619 0.46479 0.13012
 C559 C 0.32614 0.42840 0.19462
 C560 C 0.33049 0.46032 0.26222
 C561 C 0.35016 0.49626 0.19847
 C562 C 0.37447 0.46692 0.28503
 C563 C 0.37056 0.43566 0.21711
 C564 C 0.38992 0.47177 0.15397
 C565 C 0.39403 0.50306 0.22177
 H566 H 0.33463 0.46370 0.06590
 H567 H 0.29952 0.39638 0.18343
 H568 H 0.34210 0.52160 0.19100
 H569 H 0.38709 0.46725 0.34793
 H570 H 0.37891 0.41052 0.22414
 H571 H 0.42231 0.53377 0.23375
 C572 C 1.12882 0.64611 0.17951
 C573 C 1.11011 0.67267 0.21475
 C574 C 1.12970 0.67333 0.29974
 C575 C 1.14853 0.64693 0.26515
 C576 C 1.08948 0.63260 0.32568
 C577 C 1.06974 0.63187 0.24012
 C578 C 1.08876 0.60589 0.20561
 C579 C 1.10820 0.60619 0.29024
 H580 H 1.14501 0.65141 0.11892
 H581 H 1.11098 0.70017 0.18370
 H582 H 1.18112 0.65310 0.27562
 H583 H 1.07231 0.62481 0.38544
 H584 H 1.03695 0.62515 0.22970
 H585 H 1.10725 0.57853 0.32078
 C586 C 0.44564 0.10313 0.18126
 C587 C 0.41688 0.08572 0.25830
 C588 C 0.44649 0.12615 0.30546
 C589 C 0.47542 0.14378 0.22899
 C590 C 0.47281 0.10625 0.33682
 C591 C 0.44302 0.06550 0.28931
 C592 C 0.47144 0.08313 0.21325
 C593 C 0.50135 0.12343 0.25983
 H594 H 0.43468 0.10173 0.11640
 H595 H 0.38204 0.07035 0.25754
 H596 H 0.48996 0.17600 0.20305
 H597 H 0.48447 0.10775 0.40113
 H598 H 0.43011 0.03309 0.31370
 H599 H 0.53617 0.13845 0.26013
 C600 C 0.67057 0.54677 0.14225
 C601 C 0.68594 0.57835 0.21598
 C602 C 0.68314 0.54338 0.27415
 C603 C 0.66831 0.51226 0.20133
 C604 C 0.63722 0.53083 0.29524
 C605 C 0.63963 0.56526 0.23659
 C606 C 0.62492 0.53390 0.16437
 C607 C 0.62248 0.49946 0.22280
 H608 H 0.68410 0.55357 0.07884
 H609 H 0.71184 0.61139 0.21402
 H610 H 0.67990 0.49010 0.18723
 H611 H 0.62194 0.52495 0.35691
 H612 H 0.62781 0.58728 0.25037
 H613 H 0.59642 0.46657 0.22451
 C614 C 0.87558 0.35411 0.18229
 C615 C 0.88561 0.33101 0.25185
 C616 C 0.85315 0.33404 0.30809
 C617 C 0.84298 0.35687 0.23929
 C618 C 0.88822 0.37663 0.34224
 C619 C 0.92046 0.37372 0.28530
 C620 C 0.90994 0.39635 0.21721
 C621 C 0.87791 0.39955 0.27327
 H622 H 0.87076 0.34509 0.11579
 H623 H 0.88972 0.30319 0.24352
 H624 H 0.81093 0.34977 0.22028
 H625 H 0.89627 0.38752 0.40729
 H626 H 0.95266 0.38108 0.30386
 H627 H 0.87510 0.42810 0.28194
   
