data_POSCAR
  _audit_creation_date              2014-09-24
  _audit_creation_method            'ToBaCCo'
  _symmetry_space_group_name_H-M    'P1'
  _symmetry_Int_Tables_number       1
  _symmetry_cell_setting            triclinic
  loop_
  _symmetry_equiv_pos_as_xyz
 x,y,z
_cell_length_a 51.5097
_cell_length_b 51.5499
_cell_length_c 49.4797
_cell_angle_alpha 90.062600
_cell_angle_beta 89.961000
_cell_angle_gamma 90.043700
loop_
  _atom_site_label
  _atom_site_type_symbol
  _atom_site_fract_x
  _atom_site_fract_y
  _atom_site_fract_z
C1 C 0.29007 0.28547 0.23972
 H2 H 0.29137 0.28578 0.26154
 C3 C 0.30676 0.30083 0.22429
 H4 H 0.32103 0.31283 0.23442
 C5 C 0.27031 0.26880 0.20010
 H6 H 0.25629 0.25610 0.19071
 C7 C 0.28665 0.28383 0.18389
 H8 H 0.28461 0.28287 0.16213
 N9 N 0.27206 0.27015 0.22749
 C10 C 0.21088 0.25993 0.28757
 H11 H 0.20964 0.23899 0.28814
 C12 C 0.19423 0.27487 0.30352
 H13 H 0.18008 0.26525 0.31624
 C14 C 0.23035 0.29783 0.26959
 H15 H 0.24421 0.30674 0.25611
 C16 C 0.21406 0.31351 0.28516
 H17 H 0.21600 0.33439 0.28387
 Zn18 Zn 0.25029 0.24991 0.25002
 N19 N 0.22870 0.27155 0.27130
 C20 C 0.27069 0.23092 0.29969
 N21 N 0.27213 0.22954 0.27227
 C22 C 0.28988 0.21409 0.25983
 C23 C 0.30661 0.19863 0.27505
 C24 C 0.28709 0.21581 0.31570
 C25 C 0.21040 0.24016 0.21297
 C26 C 0.19346 0.22534 0.19724
 C27 C 0.21316 0.18656 0.21536
 C28 C 0.22974 0.20213 0.23071
 N29 N 0.22830 0.22843 0.22901
 H30 H 0.25688 0.24373 0.30924
 H31 H 0.29094 0.21374 0.23799
 H32 H 0.32067 0.18653 0.26475
 H33 H 0.28530 0.21681 0.33748
 H34 H 0.20933 0.26111 0.21241
 H35 H 0.17925 0.23505 0.18472
 H36 H 0.21493 0.16567 0.21664
 H37 H 0.24367 0.19313 0.24401
 C38 C 0.19575 0.30206 0.30250
 C39 C 0.30510 0.30023 0.19596
 C40 C 0.19476 0.19814 0.19826
 C41 C 0.30527 0.19928 0.30339
 C42 C 0.79008 0.78562 0.23946
 H43 H 0.79150 0.78587 0.26127
 C44 C 0.80676 0.80096 0.22400
 H45 H 0.82124 0.81221 0.23462
 C46 C 0.77034 0.76888 0.20000
 H47 H 0.75622 0.75624 0.19068
 C48 C 0.78666 0.78383 0.18370
 H49 H 0.78368 0.78285 0.16211
 N50 N 0.77207 0.77029 0.22735
 C51 C 0.71097 0.76015 0.28753
 H52 H 0.70971 0.73921 0.28809
 C53 C 0.69435 0.77510 0.30350
 H54 H 0.68020 0.76549 0.31623
 C55 C 0.73046 0.79804 0.26954
 H56 H 0.74431 0.80694 0.25605
 C57 C 0.71420 0.81373 0.28513
 H58 H 0.71615 0.83460 0.28385
 Zn59 Zn 0.75033 0.75010 0.24993
 N60 N 0.72879 0.77175 0.27124
 C61 C 0.77078 0.73110 0.29958
 N62 N 0.77217 0.72971 0.27216
 C63 C 0.78988 0.71422 0.25970
 C64 C 0.80661 0.69874 0.27490
 C65 C 0.78716 0.71597 0.31557
 C66 C 0.71038 0.74038 0.21295
 C67 C 0.69344 0.72557 0.19720
 C68 C 0.71313 0.68678 0.21528
 C69 C 0.72971 0.70232 0.23065
 N70 N 0.72828 0.72862 0.22898
 H71 H 0.75699 0.74394 0.30915
 H72 H 0.79092 0.71387 0.23786
 H73 H 0.82063 0.68662 0.26459
 H74 H 0.78540 0.71697 0.33735
 H75 H 0.70932 0.76133 0.21242
 H76 H 0.67925 0.73530 0.18467
 H77 H 0.71490 0.66588 0.21652
 H78 H 0.74364 0.69330 0.24394
 C79 C 0.69589 0.80228 0.30248
 C80 C 0.80530 0.80050 0.19547
 C81 C 0.69475 0.69837 0.19817
 C82 C 0.80530 0.69940 0.30325
 C83 C 0.79023 0.28525 0.74002
 H84 H 0.79156 0.28562 0.76184
 C85 C 0.80687 0.30062 0.72453
 H86 H 0.82111 0.31267 0.73460
 C87 C 0.77046 0.26845 0.70047
 H88 H 0.75645 0.25569 0.69114
 C89 C 0.78674 0.28347 0.68420
 H90 H 0.78467 0.28246 0.66245
 N91 N 0.77224 0.26986 0.72786
 C92 C 0.71110 0.25968 0.78799
 H93 H 0.70989 0.23873 0.78861
 C94 C 0.69442 0.27463 0.80390
 H95 H 0.68028 0.26501 0.81663
 C96 C 0.73050 0.29757 0.76992
 H97 H 0.74435 0.30648 0.75642
 C98 C 0.71418 0.31326 0.78544
 H99 H 0.71608 0.33413 0.78409
 Zn100 Zn 0.75052 0.24964 0.75045
 N101 N 0.72891 0.27129 0.77170
 C102 C 0.77106 0.23082 0.80008
 N103 N 0.77240 0.22935 0.77274
 C104 C 0.79011 0.21390 0.76041
 C105 C 0.80690 0.19849 0.77561
 C106 C 0.78748 0.21582 0.81617
 C107 C 0.71061 0.23980 0.71348
 C108 C 0.69368 0.22495 0.69776
 C109 C 0.71348 0.18621 0.71584
 C110 C 0.73005 0.20180 0.73118
 N111 N 0.72855 0.22809 0.72950
 H112 H 0.75713 0.24353 0.80959
 H113 H 0.79127 0.21365 0.73857
 H114 H 0.82118 0.18752 0.76444
 H115 H 0.78435 0.21695 0.83771
 H116 H 0.70950 0.26075 0.71293
 H117 H 0.67945 0.23464 0.68525
 H118 H 0.71530 0.16532 0.71709
 H119 H 0.74401 0.19282 0.74446
 C120 C 0.69588 0.30181 0.80279
 C121 C 0.80516 0.29995 0.69621
 C122 C 0.69505 0.19775 0.69876
 C123 C 0.80597 0.19888 0.80428
 C124 C 0.28972 0.78561 0.73974
 H125 H 0.29105 0.78595 0.76156
 C126 C 0.30639 0.80096 0.72427
 H127 H 0.32066 0.81296 0.73436
 C128 C 0.26991 0.76890 0.70017
 H129 H 0.25588 0.75618 0.69082
 C130 C 0.28622 0.78390 0.68391
 H131 H 0.28415 0.78292 0.66216
 N132 N 0.27169 0.77027 0.72756
 C133 C 0.21060 0.76008 0.78775
 H134 H 0.20937 0.73913 0.78834
 C135 C 0.19396 0.77502 0.80370
 H136 H 0.17983 0.76541 0.81644
 C137 C 0.23003 0.79797 0.76971
 H138 H 0.24387 0.80687 0.75620
 C139 C 0.21375 0.81365 0.78528
 H140 H 0.21567 0.83453 0.78395
 Zn141 Zn 0.24996 0.75005 0.75014
 N142 N 0.22840 0.77168 0.77144
 C143 C 0.27043 0.73103 0.79977
 N144 N 0.27183 0.72968 0.77235
 C145 C 0.28957 0.71424 0.75987
 C146 C 0.30632 0.69876 0.77506
 C147 C 0.28684 0.71590 0.81575
 C148 C 0.21003 0.74026 0.71315
 C149 C 0.19309 0.72542 0.69742
 C150 C 0.21284 0.68667 0.71553
 C151 C 0.22941 0.70225 0.73087
 N152 N 0.22795 0.72854 0.72917
 H153 H 0.25663 0.74383 0.80936
 H154 H 0.29061 0.71392 0.73803
 H155 H 0.32036 0.68667 0.76472
 H156 H 0.28507 0.71687 0.83753
 H157 H 0.20894 0.76121 0.71258
 H158 H 0.17888 0.73512 0.68490
 H159 H 0.21463 0.66578 0.71680
 H160 H 0.24336 0.69326 0.74417
 C161 C 0.19546 0.80221 0.80264
 C162 C 0.30468 0.80032 0.69594
 C163 C 0.19442 0.69822 0.69844
 C164 C 0.30500 0.69937 0.80340
 C165 C 0.03510 0.04008 0.01063
 H166 H 0.03575 0.04128 -0.01119
 C167 C 0.05036 0.05673 0.02624
 H168 H 0.06300 0.07049 0.01625
 C169 C 0.01798 0.02037 0.05005
 H170 H 0.00502 0.00650 0.05928
 C171 C 0.03290 0.03664 0.06644
 H172 H 0.03123 0.03506 0.08819
 N173 N 0.01961 0.02211 0.02267
 C174 C 0.00986 -0.03900 -0.03757
 H175 H -0.01109 -0.04019 -0.03835
 C176 C 0.02492 -0.05555 -0.05351
 H177 H 0.01536 -0.06922 -0.06682
 C178 C 0.04767 -0.01950 -0.01934
 H179 H 0.05650 -0.00577 -0.00565
 C180 C 0.06346 -0.03565 -0.03494
 H181 H 0.08435 -0.03413 -0.03304
 Zn182 Zn -0.00044 0.00033 -0.00004
 N183 N 0.02138 -0.02119 -0.02119
 C184 C -0.01904 0.02070 -0.04985
 N185 N -0.02073 0.02210 -0.02245
 C186 C -0.03641 0.03976 -0.01017
 C187 C -0.05177 0.05644 -0.02557
 C188 C -0.03407 0.03701 -0.06602
 C189 C -0.01027 -0.03951 0.03694
 C190 C -0.02512 -0.05642 0.05267
 C191 C -0.06391 -0.03691 0.03432
 C192 C -0.04832 -0.02035 0.01898
 N193 N -0.02201 -0.02170 0.02081
 H194 H -0.00593 0.00708 -0.05926
 H195 H -0.03711 0.04070 0.01166
 H196 H -0.06455 0.06997 -0.01539
 H197 H -0.03233 0.03572 -0.08779
 H198 H 0.01070 -0.04051 0.03761
 H199 H -0.01540 -0.07053 0.06530
 H200 H -0.08482 -0.03521 0.03296
 H201 H -0.05733 -0.00650 0.00560
 C202 C 0.05212 -0.05391 -0.05241
 C203 C 0.04948 0.05503 0.05456
 C204 C -0.05233 -0.05519 0.05155
 C205 C -0.05082 0.05511 -0.05390
 C206 C 0.03533 0.53982 0.51061
 H207 H 0.03600 0.54102 0.48879
 C208 C 0.05054 0.55650 0.52623
 H209 H 0.06317 0.57028 0.51624
 C210 C 0.01818 0.52011 0.55001
 H211 H 0.00522 0.50623 0.55923
 C212 C 0.03306 0.53640 0.56641
 H213 H 0.03137 0.53483 0.58816
 N214 N 0.01984 0.52184 0.52263
 C215 C 0.01015 0.46071 0.46241
 H216 H -0.01081 0.45950 0.46163
 C217 C 0.02521 0.44417 0.44647
 H218 H 0.01567 0.43049 0.43316
 C219 C 0.04795 0.48025 0.48062
 H220 H 0.05677 0.49399 0.49430
 C221 C 0.06375 0.46411 0.46502
 H222 H 0.08463 0.46565 0.46691
 Zn223 Zn -0.00019 0.50005 0.49992
 N224 N 0.02165 0.47853 0.47878
 C225 C -0.01878 0.52039 0.45010
 N226 N -0.02048 0.52180 0.47749
 C227 C -0.03617 0.53945 0.48976
 C228 C -0.05153 0.55613 0.47435
 C229 C -0.03381 0.53668 0.43391
 C230 C -0.01001 0.46020 0.53690
 C231 C -0.02485 0.44330 0.55263
 C232 C -0.06365 0.46279 0.53428
 C233 C -0.04806 0.47935 0.51893
 N234 N -0.02175 0.47801 0.52075
 H235 H -0.00566 0.50677 0.44069
 H236 H -0.03687 0.54041 0.51159
 H237 H -0.06431 0.56965 0.48452
 H238 H -0.03207 0.53537 0.41214
 H239 H 0.01096 0.45922 0.53756
 H240 H -0.01513 0.42920 0.56527
 H241 H -0.08455 0.46450 0.53292
 H242 H -0.05707 0.49320 0.50554
 C243 C 0.05241 0.44584 0.44756
 C244 C 0.04963 0.55482 0.55455
 C245 C -0.05206 0.44453 0.55152
 C246 C -0.05057 0.55477 0.44601
 C247 C 0.53555 0.03987 0.51085
 H248 H 0.53622 0.04110 0.48903
 C249 C 0.55079 0.05649 0.52650
 H250 H 0.56345 0.07026 0.51654
 C251 C 0.51836 0.02013 0.55021
 H252 H 0.50538 0.00625 0.55941
 C253 C 0.53327 0.03636 0.56664
 H254 H 0.53158 0.03476 0.58839
 N255 N 0.52003 0.02190 0.52284
 C256 C 0.51033 -0.03915 0.46253
 H257 H 0.48937 -0.04034 0.46173
 C258 C 0.52539 -0.05568 0.44658
 H259 H 0.51585 -0.06933 0.43323
 C260 C 0.54812 -0.01967 0.48081
 H261 H 0.55694 -0.00595 0.49452
 C262 C 0.56392 -0.03580 0.46520
 H263 H 0.58481 -0.03427 0.46711
 Zn264 Zn 0.49999 0.00015 0.50008
 N265 N 0.52183 -0.02136 0.47894
 C266 C 0.48146 0.02055 0.45026
 N267 N 0.47975 0.02195 0.47766
 C268 C 0.46406 0.03961 0.48992
 C269 C 0.44869 0.05628 0.47451
 C270 C 0.46642 0.03685 0.43408
 C271 C 0.49007 -0.03972 0.53701
 C272 C 0.47519 -0.05662 0.55270
 C273 C 0.43644 -0.03706 0.53431
 C274 C 0.45207 -0.02051 0.51899
 N275 N 0.47838 -0.02188 0.52086
 H276 H 0.49457 0.00693 0.44085
 H277 H 0.46335 0.04055 0.51175
 H278 H 0.43591 0.06980 0.48468
 H279 H 0.46817 0.03554 0.41231
 H280 H 0.51104 -0.04073 0.53771
 H281 H 0.48487 -0.07074 0.56535
 H282 H 0.41554 -0.03532 0.53292
 H283 H 0.44310 -0.00664 0.50561
 C284 C 0.55259 -0.05404 0.44769
 C285 C 0.54988 0.05476 0.55481
 C286 C 0.44797 -0.05535 0.55155
 C287 C 0.44965 0.05493 0.44618
 C288 C 0.53546 0.54007 0.01007
 H289 H 0.53585 0.54127 -0.01176
 C290 C 0.55078 0.55682 0.02548
 H291 H 0.56281 0.57103 0.01534
 C292 C 0.51868 0.52048 0.04970
 H293 H 0.50594 0.50649 0.05909
 C294 C 0.53365 0.53687 0.06590
 H295 H 0.53263 0.53492 0.08766
 N296 N 0.52011 0.52210 0.02230
 C297 C 0.51020 0.46074 -0.03761
 H298 H 0.48924 0.45951 -0.03831
 C299 C 0.52523 0.44416 -0.05354
 H300 H 0.51565 0.43042 -0.06676
 C301 C 0.54804 0.48038 -0.01961
 H302 H 0.55689 0.49418 -0.00601
 C303 C 0.56380 0.46419 -0.03519
 H304 H 0.58469 0.46576 -0.03338
 Zn305 Zn 0.49998 0.50022 -0.00021
 N306 N 0.52174 0.47863 -0.02135
 C307 C 0.48118 0.52038 -0.05004
 N308 N 0.47961 0.52190 -0.02264
 C309 C 0.46401 0.53963 -0.01036
 C310 C 0.44861 0.55627 -0.02576
 C311 C 0.46610 0.53664 -0.06621
 C312 C 0.49023 0.46050 0.03697
 C313 C 0.47540 0.44363 0.05275
 C314 C 0.43658 0.46308 0.03439
 C315 C 0.45216 0.47962 0.01900
 N316 N 0.47847 0.47827 0.02079
 H317 H 0.49422 0.50670 -0.05945
 H318 H 0.46342 0.54067 0.01147
 H319 H 0.43591 0.56986 -0.01558
 H320 H 0.46773 0.53525 -0.08798
 H321 H 0.51120 0.45951 0.03761
 H322 H 0.48513 0.42954 0.06540
 H323 H 0.41568 0.46478 0.03304
 H324 H 0.44314 0.49343 0.00558
 C325 C 0.55243 0.44585 -0.05255
 C326 C 0.55010 0.55526 0.05381
 C327 C 0.44818 0.44484 0.05164
 C328 C 0.44943 0.55482 -0.05409
 C329 C 0.14561 -0.15016 -0.14834
 C330 C 0.15103 -0.14306 -0.17504
 C331 C 0.16714 -0.15859 -0.19103
 C332 C 0.17806 -0.18146 -0.18050
 C333 C 0.17239 -0.18849 -0.15366
 C334 C 0.15628 -0.17291 -0.13770
 C335 C 0.12933 -0.13393 -0.13180
 C336 C 0.11580 -0.12019 -0.11799
 C337 C 0.09980 -0.10362 -0.10153
 C338 C 0.10658 -0.07757 -0.09788
 C339 C 0.09110 -0.06141 -0.08190
 C340 C 0.06857 -0.07111 -0.06936
 C341 C 0.06190 -0.09734 -0.07318
 C342 C 0.07743 -0.11348 -0.08916
 H343 H 0.14282 -0.12551 -0.18350
 H344 H 0.17084 -0.15284 -0.21172
 H345 H 0.18075 -0.20579 -0.14486
 H346 H 0.15228 -0.17854 -0.11702
 H347 H 0.12381 -0.06972 -0.10743
 H348 H 0.09656 -0.04124 -0.07966
 H349 H 0.04487 -0.10547 -0.06353
 H350 H 0.07204 -0.13364 -0.09180
 C351 C 0.14591 0.34967 0.35155
 C352 C 0.15135 0.35680 0.32486
 C353 C 0.16745 0.34128 0.30886
 C354 C 0.17836 0.31838 0.31936
 C355 C 0.17266 0.31133 0.34619
 C356 C 0.15656 0.32689 0.36217
 C357 C 0.12963 0.36589 0.36810
 C358 C 0.11611 0.37962 0.38193
 C359 C 0.10011 0.39617 0.39840
 C360 C 0.10687 0.42223 0.40206
 C361 C 0.09139 0.43837 0.41805
 C362 C 0.06887 0.42865 0.43060
 C363 C 0.06222 0.40241 0.42678
 C364 C 0.07776 0.38629 0.41079
 H365 H 0.14316 0.37436 0.31642
 H366 H 0.17117 0.34705 0.28818
 H367 H 0.18101 0.29401 0.35498
 H368 H 0.15254 0.32125 0.38284
 H369 H 0.12409 0.43009 0.39249
 H370 H 0.09683 0.45855 0.42029
 H371 H 0.04521 0.39427 0.43644
 H372 H 0.07239 0.36613 0.40815
 C373 C 0.64610 -0.15010 0.35159
 C374 C 0.65153 -0.14297 0.32490
 C375 C 0.66763 -0.15848 0.30888
 C376 C 0.67852 -0.18138 0.31937
 C377 C 0.67284 -0.18845 0.34620
 C378 C 0.65675 -0.17289 0.36219
 C379 C 0.62982 -0.13390 0.36815
 C380 C 0.61630 -0.12018 0.38199
 C381 C 0.60029 -0.10365 0.39848
 C382 C 0.60707 -0.07760 0.40219
 C383 C 0.59158 -0.06147 0.41820
 C384 C 0.56905 -0.07120 0.43072
 C385 C 0.56239 -0.09743 0.42684
 C386 C 0.57793 -0.11353 0.41084
 H387 H 0.64334 -0.12540 0.31647
 H388 H 0.67133 -0.15270 0.28820
 H389 H 0.68118 -0.20578 0.35497
 H390 H 0.65273 -0.17854 0.38286
 H391 H 0.62429 -0.06973 0.39265
 H392 H 0.59704 -0.04130 0.42048
 H393 H 0.54536 -0.10558 0.43648
 H394 H 0.57255 -0.13369 0.40816
 C395 C 0.64591 0.34946 -0.14833
 C396 C 0.65135 0.35652 -0.17504
 C397 C 0.66750 0.34099 -0.19098
 C398 C 0.67844 0.31815 -0.18040
 C399 C 0.67274 0.31115 -0.15355
 C400 C 0.65660 0.32673 -0.13764
 C401 C 0.62961 0.36570 -0.13184
 C402 C 0.61607 0.37946 -0.11805
 C403 C 0.60006 0.39605 -0.10163
 C404 C 0.60680 0.42214 -0.09811
 C405 C 0.59132 0.43833 -0.08216
 C406 C 0.56886 0.42862 -0.06950
 C407 C 0.56224 0.40236 -0.07319
 C408 C 0.57776 0.38620 -0.08914
 H409 H 0.64314 0.37405 -0.18354
 H410 H 0.67122 0.34671 -0.21167
 H411 H 0.68112 0.29387 -0.14471
 H412 H 0.65258 0.32113 -0.11695
 H413 H 0.62398 0.42999 -0.10776
 H414 H 0.59675 0.45852 -0.08002
 H415 H 0.54526 0.39423 -0.06344
 H416 H 0.57241 0.36601 -0.09168
 C417 C -0.14495 0.15176 -0.14836
 C418 C -0.14892 0.14601 -0.17558
 C419 C -0.16508 0.16162 -0.19136
 C420 C -0.17790 0.18363 -0.18031
 C421 C -0.17334 0.18898 -0.15252
 C422 C -0.15713 0.17327 -0.13690
 C423 C -0.12852 0.13545 -0.13213
 C424 C -0.11485 0.12166 -0.11858
 C425 C -0.09863 0.10506 -0.10245
 C426 C -0.09498 0.07914 -0.10993
 C427 C -0.07938 0.06291 -0.09420
 C428 C -0.06723 0.07242 -0.07072
 C429 C -0.07099 0.09854 -0.06340
 C430 C -0.08659 0.11473 -0.07918
 H431 H -0.13977 0.12918 -0.18460
 H432 H -0.16824 0.15516 -0.21186
 H433 H -0.18107 0.20595 -0.14257
 H434 H -0.15395 0.17807 -0.11583
 H435 H -0.10428 0.07143 -0.12786
 H436 H -0.07715 0.04282 -0.10018
 H437 H -0.06164 0.10652 -0.04565
 H438 H -0.08924 0.13479 -0.07324
 C439 C -0.14479 0.65124 0.35146
 C440 C -0.15577 0.64150 0.32766
 C441 C -0.17193 0.65717 0.31194
 C442 C -0.17734 0.68284 0.31984
 C443 C -0.16616 0.69247 0.34378
 C444 C -0.14999 0.67676 0.35947
 C445 C -0.12834 0.63498 0.36771
 C446 C -0.11465 0.62123 0.38128
 C447 C -0.09842 0.60466 0.39743
 C448 C -0.09476 0.57873 0.38998
 C449 C -0.07915 0.56252 0.40572
 C450 C -0.06699 0.57206 0.42918
 C451 C -0.07076 0.59819 0.43648
 C452 C -0.08637 0.61436 0.42069
 H453 H -0.15194 0.62174 0.32132
 H454 H -0.18051 0.64907 0.29382
 H455 H -0.16968 0.71223 0.35023
 H456 H -0.14153 0.68451 0.37783
 H457 H -0.10406 0.57099 0.37206
 H458 H -0.07691 0.54243 0.39976
 H459 H -0.06141 0.60619 0.45422
 H460 H -0.08903 0.63443 0.42660
 C461 C 0.35526 0.15123 0.35163
 C462 C 0.34431 0.14146 0.32783
 C463 C 0.32813 0.15710 0.31210
 C464 C 0.32265 0.18275 0.32000
 C465 C 0.33379 0.19241 0.34395
 C466 C 0.34999 0.17673 0.35965
 C467 C 0.37174 0.13501 0.36789
 C468 C 0.38546 0.12128 0.38146
 C469 C 0.40173 0.10474 0.39760
 C470 C 0.40542 0.07881 0.39016
 C471 C 0.42106 0.06264 0.40589
 C472 C 0.43322 0.07219 0.42935
 C473 C 0.42941 0.09832 0.43664
 C474 C 0.41377 0.11447 0.42085
 H475 H 0.34819 0.12171 0.32149
 H476 H 0.31958 0.14898 0.29398
 H477 H 0.33022 0.21216 0.35040
 H478 H 0.35841 0.18450 0.37801
 H479 H 0.39612 0.07106 0.37225
 H480 H 0.42332 0.04255 0.39994
 H481 H 0.43876 0.10634 0.45437
 H482 H 0.41109 0.13453 0.42676
 C483 C 0.35499 0.65122 -0.14848
 C484 C 0.34402 0.64149 -0.17229
 C485 C 0.32784 0.65716 -0.18798
 C486 C 0.32238 0.68281 -0.18003
 C487 C 0.33355 0.69242 -0.15607
 C488 C 0.34976 0.67671 -0.14042
 C489 C 0.37148 0.63496 -0.13226
 C490 C 0.38521 0.62122 -0.11872
 C491 C 0.40148 0.60466 -0.10261
 C492 C 0.40504 0.57869 -0.10999
 C493 C 0.42069 0.56250 -0.09427
 C494 C 0.43298 0.57209 -0.07091
 C495 C 0.42931 0.59825 -0.06368
 C496 C 0.41366 0.61441 -0.07945
 H497 H 0.34788 0.62175 -0.17866
 H498 H 0.31926 0.64908 -0.20611
 H499 H 0.33000 0.71217 -0.14960
 H500 H 0.35820 0.68445 -0.12205
 H501 H 0.39563 0.57092 -0.12783
 H502 H 0.42284 0.54239 -0.10017
 H503 H 0.43877 0.60629 -0.04603
 H504 H 0.41108 0.63450 -0.07359
 C505 C -0.14552 -0.15216 0.14693
 C506 C -0.15081 -0.14519 0.17364
 C507 C -0.16685 -0.16074 0.18966
 C508 C -0.17810 -0.18377 0.17927
 C509 C -0.17236 -0.19046 0.15215
 C510 C -0.15627 -0.17482 0.13625
 C511 C -0.12923 -0.13592 0.13043
 C512 C -0.11567 -0.12220 0.11663
 C513 C -0.09960 -0.10569 0.10020
 C514 C -0.07693 -0.09482 0.11093
 C515 C -0.06149 -0.07850 0.09509
 C516 C -0.06855 -0.07280 0.06827
 C517 C -0.09133 -0.08391 0.05765
 C518 C -0.10674 -0.10024 0.07352
 H519 H -0.14275 -0.12752 0.18206
 H520 H -0.17113 -0.15385 0.20981
 H521 H -0.17936 -0.20824 0.14316
 H522 H -0.15211 -0.18052 0.11561
 H523 H -0.07128 -0.09884 0.13159
 H524 H -0.04426 -0.07000 0.10396
 H525 H -0.09711 -0.08018 0.03698
 H526 H -0.12422 -0.10860 0.06499
 C527 C -0.14529 0.34780 0.64712
 C528 C -0.15584 0.35762 0.67110
 C529 C -0.17188 0.34204 0.68711
 C530 C -0.17759 0.31640 0.67932
 C531 C -0.16683 0.30669 0.65519
 C532 C -0.15078 0.32231 0.63921
 C533 C -0.12898 0.36397 0.63056
 C534 C -0.11541 0.37764 0.61672
 C535 C -0.09933 0.39411 0.60025
 C536 C -0.07665 0.40497 0.61096
 C537 C -0.06120 0.42126 0.59509
 C538 C -0.06827 0.42693 0.56826
 C539 C -0.09107 0.41582 0.55766
 C540 C -0.10647 0.39952 0.57356
 H541 H -0.15179 0.37735 0.67735
 H542 H -0.18014 0.35019 0.70536
 H543 H -0.17058 0.28694 0.64882
 H544 H -0.14266 0.31450 0.62071
 H545 H -0.07100 0.40098 0.63162
 H546 H -0.04397 0.42977 0.60394
 H547 H -0.09685 0.41953 0.53699
 H548 H -0.12396 0.39116 0.56506
 C549 C 0.35440 -0.15193 0.64693
 C550 C 0.34386 -0.14210 0.67092
 C551 C 0.32776 -0.15764 0.68690
 C552 C 0.32198 -0.18326 0.67908
 C553 C 0.33272 -0.19297 0.65494
 C554 C 0.34883 -0.17739 0.63900
 C555 C 0.37077 -0.13580 0.63041
 C556 C 0.38440 -0.12216 0.61660
 C557 C 0.40054 -0.10572 0.60016
 C558 C 0.42322 -0.09490 0.61091
 C559 C 0.43873 -0.07864 0.59508
 C560 C 0.43171 -0.07294 0.56825
 C561 C 0.40892 -0.08401 0.55760
 C562 C 0.39346 -0.10029 0.57346
 H563 H 0.34797 -0.12238 0.67720
 H564 H 0.31952 -0.14949 0.70516
 H565 H 0.32892 -0.21271 0.64855
 H566 H 0.35694 -0.18521 0.62050
 H567 H 0.42884 -0.09891 0.63159
 H568 H 0.45597 -0.07016 0.60397
 H569 H 0.40318 -0.08028 0.53692
 H570 H 0.37597 -0.10861 0.56492
 C571 C 0.35485 0.34807 0.14708
 C572 C 0.34428 0.35786 0.17107
 C573 C 0.32818 0.34228 0.18701
 C574 C 0.32241 0.31668 0.17914
 C575 C 0.33319 0.30700 0.15501
 C576 C 0.34930 0.32261 0.13910
 C577 C 0.37121 0.36424 0.13058
 C578 C 0.38481 0.37791 0.11678
 C579 C 0.40091 0.39438 0.10032
 C580 C 0.42357 0.40525 0.11106
 C581 C 0.43903 0.42155 0.09520
 C582 C 0.43197 0.42723 0.06838
 C583 C 0.40920 0.41610 0.05775
 C584 C 0.39379 0.39979 0.07363
 H585 H 0.34838 0.37757 0.17738
 H586 H 0.31992 0.35041 0.20527
 H587 H 0.32939 0.28728 0.14858
 H588 H 0.35743 0.31483 0.12059
 H589 H 0.42921 0.40126 0.13173
 H590 H 0.45626 0.43007 0.10407
 H591 H 0.40343 0.41981 0.03707
 H592 H 0.37631 0.39143 0.06511
 C593 C 0.14398 0.15086 0.14989
 C594 C 0.14964 0.14371 0.17651
 C595 C 0.16606 0.15912 0.19230
 C596 C 0.17704 0.18193 0.18163
 C597 C 0.17111 0.18902 0.15488
 C598 C 0.15470 0.17356 0.13913
 C599 C 0.12739 0.13475 0.13357
 C600 C 0.11360 0.12111 0.11992
 C601 C 0.09730 0.10466 0.10366
 C602 C 0.09378 0.07862 0.11075
 C603 C 0.07816 0.06251 0.09486
 C604 C 0.06585 0.07224 0.07160
 C605 C 0.06946 0.09848 0.06468
 C606 C 0.08508 0.11456 0.08062
 H607 H 0.14139 0.12621 0.18507
 H608 H 0.16995 0.15333 0.21292
 H609 H 0.17951 0.20627 0.14598
 H610 H 0.15051 0.17923 0.11851
 H611 H 0.10322 0.07074 0.12850
 H612 H 0.07605 0.04234 0.10052
 H613 H 0.05999 0.10663 0.04711
 H614 H 0.08763 0.13471 0.07498
 C615 C 0.14376 0.65087 0.65001
 C616 C 0.14942 0.64373 0.67664
 C617 C 0.16578 0.65917 0.69244
 C618 C 0.17674 0.68200 0.68179
 C619 C 0.17082 0.68908 0.65503
 C620 C 0.15445 0.67360 0.63926
 C621 C 0.12723 0.63473 0.63366
 C622 C 0.11351 0.62106 0.61999
 C623 C 0.09726 0.60456 0.60370
 C624 C 0.09379 0.57852 0.61080
 C625 C 0.07823 0.56237 0.59489
 C626 C 0.06594 0.57207 0.57160
 C627 C 0.06951 0.59830 0.56467
 C628 C 0.08507 0.61443 0.58064
 H629 H 0.14119 0.62620 0.68518
 H630 H 0.16967 0.65337 0.71307
 H631 H 0.17920 0.70636 0.64615
 H632 H 0.15027 0.67926 0.61864
 H633 H 0.10321 0.57066 0.62857
 H634 H 0.07616 0.54219 0.60056
 H635 H 0.06005 0.60643 0.54708
 H636 H 0.08759 0.63457 0.57499
 C637 C 0.64434 0.15044 0.65035
 C638 C 0.65004 0.14326 0.67695
 C639 C 0.66643 0.15868 0.69275
 C640 C 0.67736 0.18152 0.68211
 C641 C 0.67141 0.18863 0.65537
 C642 C 0.65502 0.17317 0.63960
 C643 C 0.62776 0.13433 0.63401
 C644 C 0.61398 0.12071 0.62033
 C645 C 0.59768 0.10428 0.60404
 C646 C 0.59413 0.07824 0.61109
 C647 C 0.57852 0.06217 0.59516
 C648 C 0.56624 0.07194 0.57190
 C649 C 0.56988 0.09818 0.56502
 C650 C 0.58549 0.11423 0.58100
 H651 H 0.64182 0.12573 0.68549
 H652 H 0.67034 0.15287 0.71337
 H653 H 0.67978 0.20591 0.64649
 H654 H 0.65081 0.17886 0.61900
 H655 H 0.60355 0.07033 0.62883
 H656 H 0.57639 0.04198 0.60079
 H657 H 0.56043 0.10636 0.54745
 H658 H 0.58807 0.13438 0.57540
 C659 C 0.64419 0.65116 0.14950
 C660 C 0.64974 0.64396 0.17613
 C661 C 0.66608 0.65936 0.19202
 C662 C 0.67709 0.68220 0.18145
 C663 C 0.67126 0.68933 0.15469
 C664 C 0.65493 0.67389 0.13883
 C665 C 0.62770 0.63507 0.13304
 C666 C 0.61403 0.62147 0.11922
 C667 C 0.59787 0.60510 0.10270
 C668 C 0.57237 0.59961 0.11061
 C669 C 0.55677 0.58347 0.09469
 C670 C 0.56652 0.57262 0.07063
 C671 C 0.59217 0.57834 0.06283
 C672 C 0.60772 0.59447 0.07878
 H673 H 0.64148 0.62643 0.18461
 H674 H 0.66990 0.65352 0.21265
 H675 H 0.67969 0.70661 0.14586
 H676 H 0.65083 0.67959 0.11820
 H677 H 0.56453 0.60779 0.12907
 H678 H 0.53702 0.57971 0.10107
 H679 H 0.60035 0.57002 0.04462
 H680 H 0.62747 0.59852 0.07252
   
