data_POSCAR
  _audit_creation_date              2014-09-24
  _audit_creation_method            'ToBaCCo'
  _symmetry_space_group_name_H-M    'P1'
  _symmetry_Int_Tables_number       1
  _symmetry_cell_setting            triclinic
  loop_
  _symmetry_equiv_pos_as_xyz
 x,y,z
_cell_length_a 14.3385
_cell_length_b 15.0218
_cell_length_c 15.1329
_cell_angle_alpha 92.485900
_cell_angle_beta 96.729300
_cell_angle_gamma 97.278700
loop_
  _atom_site_label
  _atom_site_type_symbol
  _atom_site_fract_x
  _atom_site_fract_y
  _atom_site_fract_z
C1 C 0.31001 0.26332 0.17731
 N2 N 0.24971 0.32633 0.17715
 C3 C 0.18941 0.32647 0.24025
 N4 N 0.18957 0.26413 0.30233
 C5 C 0.24975 0.20183 0.30193
 N6 N 0.30976 0.20153 0.23967
 C7 C 0.70225 -0.26375 0.19187
 N8 N 0.71202 -0.20030 0.25933
 C9 C 0.77454 -0.20304 0.33292
 N10 N 0.83170 -0.26920 0.33829
 C11 C 0.82554 -0.33182 0.26861
 N12 N 0.75911 -0.32968 0.19638
 C13 C 0.67438 0.22585 0.83300
 N14 N 0.74262 0.29784 0.83236
 C15 C 0.79818 0.30403 0.76567
 N16 N 0.78686 0.23746 0.70120
 C17 C 0.72260 0.16383 0.70267
 N18 N 0.66485 0.15777 0.76825
 C19 C 0.32454 -0.21815 0.79362
 N20 N 0.32441 -0.15254 0.73384
 C21 C 0.25431 -0.15964 0.66282
 N22 N 0.18317 -0.23057 0.65439
 C23 C 0.18363 -0.29486 0.71494
 N24 N 0.25469 -0.28834 0.78242
 C25 C 0.69194 -0.26006 0.82811
 N26 N 0.74736 -0.32720 0.82445
 C27 C 0.80376 -0.33121 0.75813
 N28 N 0.80249 -0.26977 0.69517
 C29 C 0.74888 -0.20239 0.69998
 N30 N 0.69473 -0.19689 0.76684
 C31 C 0.29944 0.26799 0.80509
 N32 N 0.23744 0.32927 0.80274
 C33 C 0.17006 0.32876 0.73102
 N34 N 0.16514 0.26609 0.66163
 C35 C 0.22784 0.20480 0.66493
 N36 N 0.29386 0.20655 0.73650
 C37 C 0.32776 -0.22806 0.16502
 N38 N 0.33529 -0.15851 0.22844
 C39 C 0.27741 -0.16420 0.29423
 N40 N 0.21300 -0.23769 0.29552
 C41 C 0.20190 -0.30491 0.23171
 N42 N 0.25952 -0.30038 0.16634
 C43 C 0.68276 0.21327 0.20663
 N44 N 0.75389 0.28167 0.21377
 C45 C 0.82192 0.29446 0.28414
 N46 N 0.82025 0.23483 0.34964
 C47 C 0.74992 0.16273 0.34235
 N48 N 0.68019 0.15294 0.27111
 O49 O 0.17276 0.09243 0.38364
 O50 O 0.17661 -0.07803 0.55135
 O51 O 0.15680 0.09466 0.54962
 O52 O 0.19351 -0.07745 0.38038
 O53 O 0.34913 -0.04735 0.40364
 O54 O 0.31267 0.12134 0.57677
 O55 O 0.33259 -0.04836 0.57842
 O56 O 0.32881 0.12000 0.40799
 Cu57 Cu 0.15988 0.00341 0.46268
 Cu58 Cu 0.34592 0.03985 0.49510
 C59 C 0.25034 0.13509 0.36795
 C60 C 0.25472 -0.09165 0.59457
 C61 C 0.23136 0.13817 0.59215
 C62 C 0.27460 -0.09120 0.36145
 O63 O 0.80755 0.07580 0.62006
 O64 O 0.84503 -0.09518 0.45063
 O65 O 0.82794 0.07916 0.45230
 O66 O 0.82751 -0.09398 0.61803
 O67 O 0.67154 -0.12103 0.59199
 O68 O 0.67197 0.04959 0.42400
 O69 O 0.68927 -0.12124 0.42209
 O70 O 0.65181 0.04608 0.59523
 Cu71 Cu 0.84214 -0.00495 0.53886
 Cu72 Cu 0.65610 -0.04067 0.50458
 C73 C 0.72613 0.09026 0.63722
 C74 C 0.77068 -0.13776 0.40684
 C75 C 0.74995 0.09419 0.40989
 C76 C 0.74939 -0.13597 0.63339
 O77 O 0.42310 0.32989 0.09011
 O78 O 0.59679 0.30379 -0.06587
 O79 O 0.41895 0.33189 -0.07913
 O80 O 0.59567 0.29228 0.10530
 O81 O 0.55782 0.14499 0.09468
 O82 O 0.38210 0.18414 -0.09371
 O83 O 0.55803 0.15642 -0.08086
 O84 O 0.38597 0.18213 0.07870
 Cu85 Cu 0.51469 0.32848 0.01437
 Cu86 Cu 0.46580 0.15224 -0.00217
 C87 C 0.37512 0.25898 0.11102
 C88 C 0.60671 0.22787 -0.10099
 C89 C 0.36945 0.26200 -0.11791
 C90 C 0.60715 0.21529 0.13268
 O91 O 0.61682 0.81833 0.09660
 O92 O 0.44284 0.85215 -0.09656
 O93 O 0.44077 0.84237 0.08203
 O94 O 0.61422 0.82024 -0.07888
 O95 O 0.58416 0.67220 -0.08589
 O96 O 0.40466 0.69493 0.06717
 O97 O 0.40682 0.70485 -0.10451
 O98 O 0.58754 0.67037 0.07962
 Cu99 Cu 0.53328 0.84769 0.00276
 Cu100 Cu 0.48941 0.67167 -0.01240
 C101 C 0.63402 0.74115 0.11966
 C102 C 0.39466 0.78095 -0.13414
 C103 C 0.39279 0.77043 0.10238
 C104 C 0.62931 0.74378 -0.10902
 O105 O 0.11416 0.42908 0.31820
 O106 O -0.06367 0.58479 0.33902
 O107 O -0.05813 0.40557 0.35223
 O108 O 0.11221 0.60307 0.31412
 O109 O 0.08826 0.57874 0.16795
 O110 O -0.09803 0.39844 0.20691
 O111 O -0.09635 0.57091 0.19254
 O112 O 0.07449 0.40983 0.17237
 Cu113 Cu 0.03046 0.50784 0.34526
 Cu114 Cu -0.01416 0.48871 0.17118
 C115 C 0.12377 0.39262 0.24310
 C116 C -0.10984 0.60554 0.26734
 C117 C -0.10816 0.36792 0.28261
 C118 C 0.13249 0.62261 0.23723
 O119 O 0.08391 0.61078 0.79238
 O120 O -0.09470 0.42364 0.83024
 O121 O 0.08456 0.42682 0.80606
 O122 O -0.09378 0.57982 0.82739
 O123 O -0.11140 0.57981 0.68067
 O124 O 0.05961 0.41746 0.65900
 O125 O -0.11173 0.39707 0.68417
 O126 O 0.06537 0.58743 0.64618
 Cu127 Cu 0.00605 0.51339 0.82640
 Cu128 Cu -0.03259 0.49525 0.65336
 C129 C 0.10591 0.63183 0.71639
 C130 C -0.13436 0.37768 0.76050
 C131 C 0.10144 0.39420 0.73152
 C132 C -0.13308 0.60630 0.75568
   
