data_POSCAR
  _audit_creation_date              2014-09-24
  _audit_creation_method            'ToBaCCo'
  _symmetry_space_group_name_H-M    'P1'
  _symmetry_Int_Tables_number       1
  _symmetry_cell_setting            triclinic
  loop_
  _symmetry_equiv_pos_as_xyz
 x,y,z
_cell_length_a 36.7607
_cell_length_b 36.7621
_cell_length_c 36.6967
_cell_angle_alpha 90.183000
_cell_angle_beta 90.297900
_cell_angle_gamma 90.289500
loop_
  _atom_site_label
  _atom_site_type_symbol
  _atom_site_fract_x
  _atom_site_fract_y
  _atom_site_fract_z
C1 C 0.71495 0.68282 0.95480
 H2 H 0.74122 0.68297 0.94164
 C3 C 0.68545 0.70044 0.93845
 H4 H 0.68909 0.71449 0.91281
 C5 C 0.67722 0.66200 1.00273
 H6 H 0.67362 0.64589 1.02698
 C7 C 0.64714 0.67927 0.98737
 H8 H 0.62074 0.67668 1.00014
 N9 N 0.71023 0.66364 0.98610
 C10 C 0.81544 0.63913 1.03568
 H11 H 0.81060 0.61039 1.03987
 C12 C 0.84801 0.65483 1.04739
 H13 H 0.86823 0.63822 1.06092
 C14 C 0.79495 0.69578 1.01278
 H15 H 0.77412 0.71149 0.99926
 C16 C 0.82736 0.71267 1.02418
 H17 H 0.83146 0.74148 1.01957
 Zn18 Zn 0.74826 0.63318 1.00274
 N19 N 0.78989 0.65951 1.01838
 C20 C 0.79619 0.60394 0.95101
 N21 N 0.76131 0.60270 0.96320
 C22 C 0.73528 0.58304 0.94523
 C23 C 0.74399 0.56388 0.91341
 C24 C 0.80601 0.58517 0.91960
 C25 C 0.72696 0.62589 1.07437
 C26 C 0.71369 0.60920 1.10566
 C27 C 0.71182 0.55196 1.07293
 C28 C 0.72528 0.56984 1.04214
 N29 N 0.73192 0.60628 1.04332
 H30 H 0.81635 0.62043 0.96483
 H31 H 0.70757 0.58316 0.95501
 H32 H 0.72307 0.54889 0.89878
 H33 H 0.83374 0.58694 0.90984
 H34 H 0.73274 0.65478 1.07452
 H35 H 0.70917 0.62540 1.12995
 H36 H 0.70583 0.52308 1.07156
 H37 H 0.72985 0.55475 1.01728
 C38 C 0.85418 0.69184 1.04143
 C39 C 0.65111 0.69807 0.95461
 C40 C 0.70568 0.57196 1.10490
 C41 C 0.77969 0.56531 0.90039
 C42 C 0.72022 0.32394 0.53249
 H43 H 0.74644 0.32214 0.54587
 C44 C 0.69023 0.30533 0.54673
 H45 H 0.69340 0.28892 0.57099
 C46 C 0.68328 0.34949 0.48607
 H47 H 0.68024 0.36769 0.46326
 C48 C 0.65270 0.33134 0.49936
 H49 H 0.62645 0.33539 0.48647
 N50 N 0.71617 0.34582 0.50291
 C51 C 0.82333 0.36961 0.45775
 H52 H 0.82094 0.39891 0.45680
 C53 C 0.85437 0.35287 0.44416
 H54 H 0.87596 0.36929 0.43262
 C55 C 0.79778 0.31240 0.47345
 H56 H 0.77546 0.29684 0.48459
 C57 C 0.82850 0.29448 0.46004
 H58 H 0.82985 0.26507 0.46088
 Zn59 Zn 0.75547 0.37619 0.48891
 N60 N 0.79596 0.34937 0.47226
 C61 C 0.80359 0.40137 0.54366
 N62 N 0.76909 0.40407 0.53034
 C63 C 0.74343 0.42393 0.54805
 C64 C 0.75219 0.44213 0.58053
 C65 C 0.81345 0.41912 0.57585
 C66 C 0.73475 0.38820 0.41761
 C67 C 0.72157 0.40691 0.38740
 C68 C 0.72167 0.46217 0.42333
 C69 C 0.73501 0.44235 0.45299
 N70 N 0.74049 0.40588 0.44976
 H71 H 0.82336 0.38468 0.52995
 H72 H 0.71597 0.42496 0.53735
 H73 H 0.73156 0.45749 0.59477
 H74 H 0.84087 0.41638 0.58642
 H75 H 0.73956 0.35924 0.41582
 H76 H 0.71611 0.39235 0.36223
 H77 H 0.71630 0.49097 0.42625
 H78 H 0.74021 0.45593 0.47866
 C79 C 0.85704 0.31500 0.44532
 C80 C 0.65607 0.30953 0.53028
 C81 C 0.71452 0.44410 0.39040
 C82 C 0.78752 0.43946 0.59459
 C83 C 0.22006 -0.17535 0.03208
 H84 H 0.24628 -0.17709 0.04546
 C85 C 0.19009 -0.19397 0.04635
 H86 H 0.19327 -0.21031 0.07066
 C87 C 0.18310 -0.15000 -0.01443
 H88 H 0.18005 -0.13188 -0.03731
 C89 C 0.15254 -0.16815 -0.00111
 H90 H 0.12630 -0.16420 -0.01403
 N91 N 0.21599 -0.15358 0.00242
 C92 C 0.32296 -0.12998 -0.04324
 H93 H 0.32051 -0.10069 -0.04440
 C94 C 0.35400 -0.14676 -0.05677
 H95 H 0.37553 -0.13038 -0.06850
 C96 C 0.29759 -0.18711 -0.02699
 H97 H 0.27535 -0.20263 -0.01563
 C98 C 0.32831 -0.20507 -0.04034
 H99 H 0.32975 -0.23447 -0.03924
 Zn100 Zn 0.25527 -0.12327 -0.01178
 N101 N 0.29569 -0.15016 -0.02847
 C102 C 0.30366 -0.09797 0.04264
 N103 N 0.26908 -0.09526 0.02952
 C104 C 0.24355 -0.07534 0.04734
 C105 C 0.25251 -0.05710 0.07975
 C106 C 0.31372 -0.08019 0.07475
 C107 C 0.23450 -0.11157 -0.08308
 C108 C 0.22112 -0.09308 -0.11334
 C109 C 0.22082 -0.03768 -0.07756
 C110 C 0.23439 -0.05731 -0.04787
 N111 N 0.24014 -0.09374 -0.05101
 H112 H 0.32333 -0.11471 0.02886
 H113 H 0.21604 -0.07430 0.03680
 H114 H 0.23199 -0.04171 0.09409
 H115 H 0.34120 -0.08295 0.08517
 H116 H 0.23954 -0.14049 -0.08477
 H117 H 0.21580 -0.10795 -0.13840
 H118 H 0.21527 -0.00889 -0.07455
 H119 H 0.23951 -0.04363 -0.02224
 C120 C 0.35677 -0.18460 -0.05530
 C121 C 0.15593 -0.18988 0.02987
 C122 C 0.21371 -0.05590 -0.11047
 C123 C 0.28792 -0.05980 0.09361
 C124 C 0.21541 0.18299 0.45399
 H125 H 0.24170 0.18337 0.44088
 C126 C 0.18584 0.20057 0.43772
 H127 H 0.18944 0.21483 0.41219
 C128 C 0.17771 0.16163 0.50170
 H129 H 0.17415 0.14532 0.52582
 C130 C 0.14756 0.17885 0.48642
 H131 H 0.12116 0.17604 0.49913
 N132 N 0.21074 0.16356 0.48514
 C133 C 0.31600 0.13901 0.53463
 H134 H 0.31122 0.11022 0.53853
 C135 C 0.34849 0.15467 0.54659
 H136 H 0.36872 0.13798 0.56000
 C137 C 0.29540 0.19584 0.51227
 H138 H 0.27456 0.21163 0.49887
 C139 C 0.32774 0.21270 0.52393
 H140 H 0.33177 0.24157 0.51963
 Zn141 Zn 0.24888 0.13315 0.50166
 N142 N 0.29043 0.15950 0.51749
 C143 C 0.29692 0.10443 0.44976
 N144 N 0.26207 0.10289 0.46201
 C145 C 0.23617 0.08303 0.44406
 C146 C 0.24501 0.06394 0.41222
 C147 C 0.30686 0.08575 0.41833
 C148 C 0.22755 0.12556 0.57323
 C149 C 0.21448 0.10869 0.60450
 C150 C 0.21302 0.05153 0.57172
 C151 C 0.22627 0.06954 0.54092
 N152 N 0.23263 0.10604 0.54214
 H153 H 0.31696 0.12108 0.46356
 H154 H 0.20848 0.08291 0.45388
 H155 H 0.22419 0.04877 0.39762
 H156 H 0.33456 0.08775 0.40854
 H157 H 0.23311 0.15449 0.57343
 H158 H 0.20982 0.12465 0.62889
 H159 H 0.20723 0.02264 0.57050
 H160 H 0.23093 0.05451 0.51604
 C161 C 0.35458 0.19176 0.54104
 C162 C 0.15148 0.19791 0.45381
 C163 C 0.20683 0.07144 0.60368
 C164 C 0.28068 0.06567 0.39917
 C165 C 0.18406 0.45389 0.21549
 H166 H 0.18431 0.44094 0.24191
 C167 C 0.20159 0.43743 0.18602
 H168 H 0.21570 0.41191 0.18984
 C169 C 0.16300 0.50138 0.17733
 H170 H 0.14679 0.52548 0.17356
 C171 C 0.18018 0.48591 0.14727
 H172 H 0.17744 0.49844 0.12072
 N173 N 0.16478 0.48501 0.21053
 C174 C 0.13974 0.53451 0.31566
 H175 H 0.11097 0.53827 0.31075
 C176 C 0.15527 0.54660 0.34821
 H177 H 0.13847 0.55996 0.36835
 C178 C 0.19671 0.51242 0.29532
 H179 H 0.21261 0.49909 0.27454
 C180 C 0.21343 0.52421 0.32772
 H181 H 0.24231 0.52008 0.33187
 Zn182 Zn 0.13422 0.50158 0.24850
 N183 N 0.16037 0.51745 0.29019
 C184 C 0.10513 0.44978 0.29658
 N185 N 0.10383 0.46203 0.26164
 C186 C 0.08411 0.44414 0.23559
 C187 C 0.06491 0.41236 0.24434
 C188 C 0.08634 0.41840 0.30643
 C189 C 0.12679 0.57296 0.22673
 C190 C 0.10992 0.60416 0.21361
 C191 C 0.05270 0.57143 0.21246
 C192 C 0.07070 0.54070 0.22574
 N193 N 0.10723 0.54193 0.23198
 H194 H 0.12168 0.46354 0.31673
 H195 H 0.08418 0.45397 0.20783
 H196 H 0.04985 0.39779 0.22340
 H197 H 0.08814 0.40859 0.33420
 H198 H 0.15573 0.57318 0.23223
 H199 H 0.12590 0.62852 0.20884
 H200 H 0.02377 0.57020 0.20678
 H201 H 0.05564 0.51588 0.23056
 C202 C 0.19235 0.54126 0.35445
 C203 C 0.19904 0.45329 0.15147
 C204 C 0.07263 0.60333 0.20611
 C205 C 0.06639 0.39929 0.28009
 C206 C -0.17700 0.03320 0.21876
 H207 H -0.17895 0.04647 0.24502
 C208 C -0.19540 0.04751 0.18861
 H209 H -0.21179 0.07172 0.19180
 C210 C -0.15129 -0.01301 0.18188
 H211 H -0.13309 -0.03576 0.17893
 C212 C -0.16921 0.00033 0.15113
 H213 H -0.16496 -0.01255 0.12489
 N214 N -0.15513 0.00371 0.21481
 C215 C -0.13138 -0.04165 0.32215
 H216 H -0.10209 -0.04259 0.31962
 C217 C -0.14800 -0.05527 0.35331
 H218 H -0.13150 -0.06685 0.37485
 C219 C -0.18866 -0.02586 0.29682
 H220 H -0.20430 -0.01464 0.27454
 C221 C -0.20648 -0.03931 0.32767
 H222 H -0.23588 -0.03845 0.32918
 Zn223 Zn -0.12488 -0.01032 0.25428
 N224 N -0.15171 -0.02707 0.29483
 C225 C -0.09976 0.04417 0.30259
 N226 N -0.09695 0.03098 0.26803
 C227 C -0.07685 0.04867 0.24245
 C228 C -0.05846 0.08095 0.25139
 C229 C -0.08182 0.07616 0.31263
 C230 C -0.11293 -0.08144 0.23356
 C231 C -0.09420 -0.11159 0.22053
 C232 C -0.03886 -0.07575 0.22091
 C233 C -0.05869 -0.04614 0.23411
 N234 N -0.09520 -0.04936 0.23937
 H235 H -0.11663 0.03049 0.32228
 H236 H -0.07574 0.03808 0.21494
 H237 H -0.04287 0.09516 0.23085
 H238 H -0.08461 0.08661 0.34011
 H239 H -0.14191 -0.08322 0.23823
 H240 H -0.10879 -0.13671 0.21501
 H241 H -0.01002 -0.07285 0.21570
 H242 H -0.04507 -0.02054 0.23938
 C243 C -0.18585 -0.05409 0.35617
 C244 C -0.19100 0.03121 0.15436
 C245 C -0.05696 -0.10861 0.21369
 C246 C -0.06119 0.09485 0.28681
 C247 C 0.32345 0.53278 0.72051
 H248 H 0.32164 0.54597 0.74683
 C249 C 0.30491 0.54718 0.69051
 H250 H 0.28854 0.57138 0.69376
 C251 C 0.34897 0.48667 0.68336
 H252 H 0.36714 0.46393 0.68024
 C253 C 0.33088 0.50013 0.65275
 H254 H 0.33494 0.48742 0.62642
 N255 N 0.34529 0.50328 0.71636
 C256 C 0.36908 0.45773 0.82356
 H257 H 0.39839 0.45694 0.82119
 C258 C 0.35235 0.44385 0.85456
 H259 H 0.36878 0.43225 0.87614
 C260 C 0.31185 0.47328 0.79797
 H261 H 0.29628 0.48446 0.77563
 C262 C 0.29393 0.45956 0.82864
 H263 H 0.26451 0.46022 0.82995
 Zn264 Zn 0.37564 0.48913 0.75568
 N265 N 0.34882 0.47229 0.79619
 C266 C 0.40102 0.54358 0.80396
 N267 N 0.40363 0.53040 0.76938
 C268 C 0.42352 0.54813 0.74367
 C269 C 0.44185 0.58047 0.75246
 C270 C 0.41891 0.57565 0.81385
 C271 C 0.38747 0.41807 0.73470
 C272 C 0.40613 0.38795 0.72149
 C273 C 0.46149 0.42375 0.72181
 C274 C 0.44173 0.45333 0.73519
 N275 N 0.40524 0.45011 0.74057
 H276 H 0.38430 0.52986 0.82376
 H277 H 0.42447 0.53752 0.71616
 H278 H 0.45725 0.59472 0.73180
 H279 H 0.41626 0.58612 0.84134
 H280 H 0.35850 0.41629 0.73946
 H281 H 0.39151 0.36286 0.71593
 H282 H 0.49032 0.42666 0.71652
 H283 H 0.45538 0.47891 0.74050
 C284 C 0.31447 0.44475 0.85717
 C285 C 0.30913 0.53097 0.65622
 C286 C 0.44335 0.39093 0.71453
 C287 C 0.43930 0.59439 0.78788
 C288 C 0.68482 0.95463 0.71603
 H289 H 0.68524 0.94147 0.74236
 C290 C 0.70222 0.93843 0.68633
 H291 H 0.71640 0.91292 0.68987
 C292 C 0.66342 1.00235 0.67837
 H293 H 0.64712 1.02643 0.67486
 C294 C 0.68046 0.98715 0.64808
 H295 H 0.67754 0.99988 0.62165
 N296 N 0.66541 0.98573 0.71143
 C297 C 0.64045 1.03436 0.81706
 H298 H 0.61163 1.03797 0.81226
 C299 C 0.65600 1.04637 0.84963
 H300 H 0.63910 1.05950 0.86986
 C301 C 0.69748 1.01278 0.79637
 H302 H 0.71339 0.99969 0.77544
 C303 C 0.71426 1.02450 0.82878
 H304 H 0.74320 1.02052 0.83270
 Zn305 Zn 0.63491 1.00190 0.74964
 N306 N 0.66109 1.01761 0.79140
 C307 C 0.60609 0.94963 0.79740
 N308 N 0.60469 0.96213 0.76256
 C309 C 0.58493 0.94439 0.73643
 C310 C 0.56574 0.91256 0.74501
 C311 C 0.58731 0.91818 0.80709
 C312 C 0.62708 1.07341 0.72838
 C313 C 0.61009 1.10453 0.71520
 C314 C 0.55309 1.07144 0.71363
 C315 C 0.57121 1.04080 0.72697
 N316 N 0.60769 1.04224 0.73341
 H317 H 0.62267 0.96327 0.81762
 H318 H 0.58493 0.95442 0.70874
 H319 H 0.55062 0.89815 0.72402
 H320 H 0.58916 0.90820 0.83479
 H321 H 0.65600 1.07379 0.73400
 H322 H 0.62595 1.12899 0.71054
 H323 H 0.52421 1.07003 0.70773
 H324 H 0.55628 1.01586 0.73161
 C325 C 0.69318 1.04127 0.85572
 C326 C 0.69942 0.95455 0.65192
 C327 C 0.57287 1.10346 0.70743
 C328 C 0.56728 0.89926 0.78067
 C329 C 0.03223 0.21933 -0.17523
 H330 H 0.04551 0.24560 -0.17687
 C331 C 0.04670 0.18945 -0.19377
 H332 H 0.07104 0.19276 -0.20997
 C333 C -0.01416 0.18214 -0.15014
 H334 H -0.03706 0.17896 -0.13212
 C335 C -0.00064 0.15167 -0.16823
 H336 H -0.01345 0.12537 -0.16434
 N337 N 0.00256 0.21510 -0.15360
 C338 C -0.04315 0.32191 -0.12963
 H339 H -0.04427 0.31928 -0.10031
 C340 C -0.05674 0.35303 -0.14633
 H341 H -0.06847 0.37443 -0.12984
 C342 C -0.02696 0.29690 -0.18696
 H343 H -0.01561 0.27476 -0.20258
 C344 C -0.04037 0.32771 -0.20483
 H345 H -0.03933 0.32931 -0.23428
 Zn346 Zn -0.01173 0.25419 -0.12314
 N347 N -0.02839 0.29477 -0.14995
 C348 C 0.04261 0.30240 -0.09745
 N349 N 0.02946 0.26783 -0.09490
 C350 C 0.04725 0.24213 -0.07506
 C351 C 0.07967 0.25091 -0.05679
 C352 C 0.07473 0.31227 -0.07961
 C353 C -0.08290 0.23324 -0.11174
 C354 C -0.11316 0.21987 -0.09333
 C355 C -0.07756 0.21951 -0.03768
 C356 C -0.04787 0.23307 -0.05724
 N357 N -0.05092 0.23887 -0.09375
 H358 H 0.02885 0.32220 -0.11413
 H359 H 0.03668 0.21463 -0.07416
 H360 H 0.09399 0.23025 -0.04149
 H361 H 0.08519 0.33975 -0.08226
 H362 H -0.08453 0.23833 -0.14072
 H363 H -0.13815 0.21459 -0.10832
 H364 H -0.07464 0.21396 -0.00882
 H365 H -0.02232 0.23818 -0.04343
 C366 C -0.05533 0.35602 -0.18423
 C367 C 0.03038 0.15521 -0.18977
 C368 C -0.11039 0.21245 -0.05606
 C369 C 0.09358 0.28630 -0.05934
 C370 C 0.45517 0.21529 0.18362
 H371 H 0.44201 0.24155 0.18383
 C372 C 0.43892 0.18570 0.20121
 H373 H 0.41337 0.18927 0.21533
 C374 C 0.50293 0.17766 0.16256
 H375 H 0.52706 0.17413 0.14632
 C376 C 0.48768 0.14750 0.17980
 H377 H 0.50041 0.12111 0.17709
 N378 N 0.48632 0.21066 0.16429
 C379 C 0.53521 0.31602 0.13890
 H380 H 0.53907 0.31109 0.11010
 C381 C 0.54703 0.34866 0.15435
 H382 H 0.56029 0.36884 0.13747
 C383 C 0.51311 0.29565 0.19599
 H384 H 0.49986 0.27485 0.21197
 C385 C 0.52463 0.32814 0.21263
 H386 H 0.52038 0.33232 0.24153
 Zn387 Zn 0.50258 0.24871 0.13356
 N388 N 0.51827 0.29049 0.15962
 C389 C 0.45044 0.29632 0.10440
 N390 N 0.46282 0.26152 0.10320
 C391 C 0.44490 0.23535 0.08368
 C392 C 0.41295 0.24385 0.06462
 C393 C 0.41889 0.30593 0.08573
 C394 C 0.57410 0.22757 0.12590
 C395 C 0.60527 0.21451 0.10896
 C396 C 0.57223 0.21272 0.05183
 C397 C 0.54154 0.22596 0.06989
 N398 N 0.54294 0.23248 0.10642
 H399 H 0.46423 0.31658 0.12078
 H400 H 0.45484 0.20770 0.08384
 H401 H 0.39836 0.22282 0.04974
 H402 H 0.40899 0.33359 0.08747
 H403 H 0.57444 0.23325 0.15484
 H404 H 0.62972 0.20998 0.12490
 H405 H 0.57086 0.20680 0.02292
 H406 H 0.51661 0.23048 0.05490
 C407 C 0.54155 0.35493 0.19145
 C408 C 0.45504 0.15137 0.19869
 C409 C 0.60426 0.20670 0.07170
 C410 C 0.39974 0.27946 0.06601
 C411 C 0.95366 0.71502 0.68461
 H412 H 0.94060 0.74133 0.68506
 C413 C 0.93745 0.68541 0.70221
 H414 H 0.91203 0.68900 0.71655
 C415 C 1.00115 0.67733 0.66305
 H416 H 1.02515 0.67380 0.64664
 C417 C 0.98594 0.64714 0.68028
 H418 H 0.99857 0.62073 0.67738
 N419 N 0.98467 0.71037 0.66506
 C420 C 1.03383 0.81574 0.64036
 H421 H 1.03750 0.81105 0.61150
 C422 C 1.04591 0.84817 0.65603
 H423 H 1.05916 0.86845 0.63926
 C424 C 1.01200 0.79494 0.69740
 H425 H 0.99877 0.77404 0.71327
 C426 C 1.02378 0.82722 0.71427
 H427 H 1.01975 0.83114 0.74323
 Zn428 Zn 1.00104 0.74859 0.63459
 N429 N 1.01691 0.79010 0.66095
 C430 C 0.94905 0.79661 0.60588
 N431 N 0.96137 0.76180 0.60429
 C432 C 0.94355 0.73593 0.58428
 C433 C 0.91181 0.74477 0.56502
 C434 C 0.91771 0.80655 0.58703
 C435 C 1.07246 0.72723 0.62688
 C436 C 1.10364 0.71429 0.60989
 C437 C 1.07078 0.71325 0.55264
 C438 C 1.04007 0.72635 0.57077
 N439 N 1.04137 0.73244 0.60736
 H440 H 0.96274 0.81660 0.62265
 H441 H 0.95343 0.70826 0.58413
 H442 H 0.89733 0.72400 0.54969
 H443 H 0.90787 0.83422 0.58904
 H444 H 1.07273 0.73259 0.65588
 H445 H 1.12803 0.70953 0.62584
 H446 H 1.06949 0.70767 0.52366
 H447 H 1.01520 0.73113 0.55574
 C448 C 1.04070 0.85412 0.69323
 C449 C 0.95346 0.65104 0.69945
 C450 C 1.10273 0.70692 0.57254
 C451 C 0.89870 0.78041 0.56674
 C452 C 0.53251 0.72114 0.32233
 H453 H 0.54580 0.74738 0.32044
 C454 C 0.54675 0.69115 0.30378
 H455 H 0.57093 0.69435 0.28732
 C456 C 0.48632 0.68414 0.34806
 H457 H 0.46361 0.68106 0.36632
 C458 C 0.49962 0.65356 0.32997
 H459 H 0.48682 0.62729 0.33411
 N460 N 0.50305 0.71705 0.34428
 C461 C 0.45785 0.82411 0.36828
 H462 H 0.45702 0.82154 0.39762
 C463 C 0.44415 0.85521 0.35166
 H464 H 0.43264 0.87663 0.36831
 C465 C 0.47341 0.79891 0.31086
 H466 H 0.48454 0.77670 0.29518
 C467 C 0.45987 0.82969 0.29302
 H468 H 0.46065 0.83113 0.26355
 Zn469 Zn 0.48906 0.75631 0.37469
 N470 N 0.47234 0.79688 0.34788
 C471 C 0.54364 0.80443 0.40007
 N472 N 0.53039 0.76991 0.40272
 C473 C 0.54802 0.74426 0.42276
 C474 C 0.58030 0.75306 0.44126
 C475 C 0.57565 0.81434 0.41812
 C476 C 0.41793 0.73543 0.38665
 C477 C 0.38779 0.72231 0.40542
 C478 C 0.42366 0.72262 0.46084
 C479 C 0.45326 0.73592 0.44097
 N480 N 0.45002 0.74126 0.40440
 H481 H 0.53001 0.82419 0.38324
 H482 H 0.53737 0.71679 0.42375
 H483 H 0.59445 0.73246 0.45680
 H484 H 0.58615 0.84179 0.41546
 H485 H 0.41612 0.74017 0.35762
 H486 H 0.36266 0.71678 0.39081
 H487 H 0.42658 0.71737 0.48973
 H488 H 0.47886 0.74120 0.45460
 C489 C 0.44515 0.85812 0.31370
 C490 C 0.53043 0.65695 0.30810
 C491 C 0.39079 0.71539 0.44272
 C492 C 0.59426 0.78844 0.43870
 C493 C 0.36018 0.00319 0.24905
 C494 C 0.12046 1.00809 0.75113
 C495 C 0.62016 0.50965 0.24897
 C496 C 0.85897 0.50280 0.75022
 C497 C 0.24914 0.35792 0.00361
 C498 C 0.75098 0.11995 1.00806
 C499 C 0.24985 0.62107 0.50872
 C500 C 0.74912 0.86007 0.50332
 C501 C 0.00336 0.24924 0.35932
 C502 C 1.00875 0.75034 0.11965
 C503 C 0.50885 0.24997 0.62016
 C504 C 0.50342 0.74937 0.85950
 C505 C 0.43066 -0.11194 0.29746
 C506 C 0.41677 -0.08519 0.28462
 C507 C 0.39901 -0.05397 0.27120
 C508 C 0.38239 -0.02773 0.26078
 C509 C 0.92951 0.38772 0.79859
 C510 C 0.91563 0.41450 0.78583
 C511 C 0.89788 0.44573 0.77244
 C512 C 0.88123 0.47195 0.76201
 C513 C 0.04716 1.12325 0.79514
 C514 C 0.06193 1.09628 0.78390
 C515 C 0.08041 1.06488 0.77193
 C516 C 0.09756 1.03867 0.76235
 C517 C 0.54701 0.62490 0.29299
 C518 C 0.56166 0.59785 0.28172
 C519 C 0.58004 0.56640 0.26974
 C520 C 0.59718 0.54017 0.26016
 C521 C 0.55424 0.38865 0.20717
 C522 C 0.56634 0.41712 0.21842
 C523 C 0.58246 0.45020 0.22990
 C524 C 0.59822 0.47773 0.23878
 C525 C 0.05370 0.88761 0.70918
 C526 C 0.06604 0.91592 0.72057
 C527 C 0.08243 0.94883 0.73213
 C528 C 0.09838 0.97625 0.74102
 C529 C 0.93503 0.61923 0.71305
 C530 C 0.91913 0.59224 0.72288
 C531 C 0.89969 0.56065 0.73302
 C532 C 0.88205 0.53409 0.74098
 C533 C 0.43653 0.11955 0.21219
 C534 C 0.42057 0.09256 0.22192
 C535 C 0.40104 0.06099 0.23196
 C536 C 0.38333 0.03445 0.23986
 C537 C 0.29725 0.42922 -0.11130
 C538 C 0.28448 0.41506 -0.08465
 C539 C 0.27113 0.39702 -0.05352
 C540 C 0.26076 0.38023 -0.02732
 C541 C 0.79707 0.93072 0.38794
 C542 C 0.78443 0.91682 0.41479
 C543 C 0.77120 0.89903 0.44612
 C544 C 0.76086 0.88236 0.47241
 C545 C 0.79485 0.04697 1.12388
 C546 C 0.78361 0.06160 1.09672
 C547 C 0.77168 0.07995 1.06512
 C548 C 0.76214 0.09704 1.03876
 C549 C 0.29402 0.54771 0.62416
 C550 C 0.28275 0.56248 0.59710
 C551 C 0.27075 0.58098 0.56563
 C552 C 0.26113 0.59815 0.53936
 C553 C 0.20815 0.55427 0.38805
 C554 C 0.21943 0.56663 0.41643
 C555 C 0.23089 0.58304 0.44940
 C556 C 0.23974 0.59900 0.47685
 C557 C 0.70827 0.05357 0.88748
 C558 C 0.71983 0.06579 0.91583
 C559 C 0.73160 0.08205 0.94878
 C560 C 0.74066 0.09792 0.97622
 C561 C 0.71271 0.93610 0.62000
 C562 C 0.72227 0.92019 0.59292
 C563 C 0.73215 0.90075 0.56125
 C564 C 0.73995 0.88312 0.53464
 C565 C 0.21249 0.43457 0.11979
 C566 C 0.22217 0.41845 0.09289
 C567 C 0.23215 0.39879 0.06140
 C568 C 0.23999 0.38103 0.03489
 C569 C -0.11136 0.29776 0.43012
 C570 C -0.08467 0.28494 0.41621
 C571 C -0.05354 0.27150 0.39839
 C572 C -0.02740 0.26102 0.38168
 C573 C 0.38841 0.79812 0.92965
 C574 C 0.41515 0.78527 0.91587
 C575 C 0.44636 0.77178 0.89822
 C576 C 0.47257 0.76125 0.88166
 C577 C 1.12389 0.79488 0.04642
 C578 C 1.09685 0.78349 0.06106
 C579 C 1.06543 0.77137 0.07945
 C580 C 1.03922 0.76166 0.09661
 C581 C 0.62401 0.29433 0.54685
 C582 C 0.59698 0.28299 0.56152
 C583 C 0.56556 0.27091 0.57995
 C584 C 0.53936 0.26125 0.59713
 C585 C 0.38815 0.20770 0.55387
 C586 C 0.41653 0.21910 0.56607
 C587 C 0.44950 0.23073 0.58231
 C588 C 0.47697 0.23971 0.59816
 C589 C 0.88784 0.70782 0.05396
 C590 C 0.91628 0.71930 0.06594
 C591 C 0.94933 0.73102 0.08197
 C592 C 0.97684 0.74006 0.09770
 C593 C 0.61938 0.71172 0.93608
 C594 C 0.59247 0.72161 0.92009
 C595 C 0.56099 0.73186 0.90052
 C596 C 0.53454 0.73994 0.88275
 C597 C 0.11970 0.21155 0.43535
 C598 C 0.09273 0.22143 0.41945
 C599 C 0.06116 0.23168 0.40001
 C600 C 0.03462 0.23978 0.38238
 C601 C 0.55591 0.13477 0.69137
 C602 C 0.54333 0.16128 0.67688
 C603 C 0.53024 0.19234 0.65867
 C604 C 0.52012 0.21863 0.64196
 C605 C 1.05574 0.63478 0.19027
 C606 C 1.04322 0.66141 0.17596
 C607 C 1.03016 0.69259 0.15796
 C608 C 1.02005 0.71897 0.14138
 C609 C 0.96152 0.86137 0.19690
 C610 C 0.97501 0.83588 0.18143
 C611 C 0.98862 0.80597 0.16172
 C612 C 0.99856 0.78060 0.14349
 C613 C 0.46175 0.36096 0.69759
 C614 C 0.47519 0.33550 0.68201
 C615 C 0.48875 0.30562 0.66222
 C616 C 0.49867 0.28026 0.64397
 C617 C 0.45605 0.62847 0.79785
 C618 C 0.46872 0.65693 0.80840
 C619 C 0.48207 0.68981 0.82336
 C620 C 0.49232 0.71724 0.83840
 C621 C -0.04431 0.12881 0.29698
 C622 C -0.03155 0.15715 0.30774
 C623 C -0.01812 0.18988 0.32293
 C624 C -0.00782 0.21720 0.33814
 C625 C 0.04934 0.36555 0.29027
 C626 C 0.03676 0.33755 0.30175
 C627 C 0.02381 0.30557 0.31849
 C628 C 0.01400 0.27932 0.33549
 C629 C 0.55011 0.86553 0.79070
 C630 C 0.53738 0.83754 0.80205
 C631 C 0.52423 0.80558 0.81867
 C632 C 0.51424 0.77936 0.83564
 C633 C 0.69100 0.55673 0.13344
 C634 C 0.67659 0.54411 0.16002
 C635 C 0.65848 0.53100 0.19116
 C636 C 0.64187 0.52089 0.21753
 C637 C 0.19095 1.05459 0.63518
 C638 C 0.17664 1.04215 0.66188
 C639 C 0.15864 1.02922 0.69315
 C640 C 0.14210 1.01924 0.71962
 C641 C 0.19807 0.96071 0.86224
 C642 C 0.18246 0.97428 0.83677
 C643 C 0.16263 0.98794 0.80686
 C644 C 0.14434 0.99791 0.78147
 C645 C 0.69759 0.46255 0.36032
 C646 C 0.68203 0.47602 0.33478
 C647 C 0.66225 0.48960 0.30480
 C648 C 0.64399 0.49951 0.27935
 C649 C 0.79746 0.45605 0.62880
 C650 C 0.80800 0.46857 0.65738
 C651 C 0.82294 0.48174 0.69039
 C652 C 0.83794 0.49184 0.71794
 C653 C 0.29808 -0.04323 0.12778
 C654 C 0.30882 -0.03076 0.15631
 C655 C 0.32395 -0.01768 0.18926
 C656 C 0.33909 -0.00767 0.21678
 C657 C 0.29094 0.04871 0.36539
 C658 C 0.30249 0.03623 0.33737
 C659 C 0.31930 0.02340 0.30539
 C660 C 0.33634 0.01370 0.27914
 C661 C 0.78984 0.54834 0.86659
 C662 C 0.80131 0.53584 0.83855
 C663 C 0.81806 0.52300 0.80653
 C664 C 0.83508 0.51330 0.78028
 C665 C 0.13415 0.69121 0.55554
 C666 C 0.16078 0.67701 0.54298
 C667 C 0.19198 0.65912 0.52993
 C668 C 0.21839 0.64265 0.51988
 C669 C 0.63564 0.19081 1.05479
 C670 C 0.66222 0.17646 1.04228
 C671 C 0.69334 0.15839 1.02926
 C672 C 0.71966 0.14176 1.01922
 C673 C 0.86228 0.19692 0.96051
 C674 C 0.83677 0.18145 0.97408
 C675 C 0.80680 0.16180 0.98777
 C676 C 0.78136 0.14366 0.99778
 C677 C 0.36079 0.69853 0.46125
 C678 C 0.33532 0.68300 0.47480
 C679 C 0.30543 0.66324 0.48849
 C680 C 0.28009 0.64497 0.49849
 C681 C 0.62825 0.79845 0.45567
 C682 C 0.65664 0.80905 0.46850
 C683 C 0.68946 0.82403 0.48198
 C684 C 0.71690 0.83906 0.49227
 C685 C 0.12780 0.29625 -0.04280
 C686 C 0.15637 0.30681 -0.03035
 C687 C 0.18937 0.32179 -0.01729
 C688 C 0.21690 0.33684 -0.00727
 C689 C 0.36583 0.28938 0.04913
 C690 C 0.33769 0.30067 0.03667
 C691 C 0.30557 0.31722 0.02386
 C692 C 0.27924 0.33412 0.01414
 C693 C 0.86506 0.79070 0.54953
 C694 C 0.83715 0.80225 0.53683
 C695 C 0.80527 0.81908 0.52377
 C696 C 0.77911 0.83616 0.51392
   
