data_POSCAR
  _audit_creation_date              2014-09-24
  _audit_creation_method            'ToBaCCo'
  _symmetry_space_group_name_H-M    'P1'
  _symmetry_Int_Tables_number       1
  _symmetry_cell_setting            triclinic
  loop_
  _symmetry_equiv_pos_as_xyz
 x,y,z
_cell_length_a 38.1544
_cell_length_b 37.6652
_cell_length_c 40.2937
_cell_angle_alpha 90.146600
_cell_angle_beta 90.011500
_cell_angle_gamma 87.786600
loop_
  _atom_site_label
  _atom_site_type_symbol
  _atom_site_fract_x
  _atom_site_fract_y
  _atom_site_fract_z
O1 O -0.06646 0.28000 0.02773
 O2 O -0.00102 0.27541 -0.03888
 O3 O -0.06601 0.27764 -0.03500
 O4 O 0.00373 0.27796 0.02799
 O5 O -0.00027 0.22009 0.03495
 O6 O -0.06005 0.21920 -0.03692
 O7 O 0.01039 0.21905 -0.02711
 O8 O -0.06581 0.22143 0.02915
 Cu9 Cu -0.03156 0.28373 -0.00384
 Cu10 Cu -0.02939 0.21387 -0.00087
 C11 C -0.07817 0.25139 0.03918
 C12 C 0.01664 0.24666 -0.04382
 C13 C -0.07404 0.24816 -0.04767
 C14 C 0.01253 0.24942 0.04313
 O15 O 0.49062 0.77949 0.53499
 O16 O 0.55658 0.79071 0.46946
 O17 O 0.48963 0.77966 0.47078
 O18 O 0.55763 0.79056 0.53450
 O19 O 0.57006 0.73274 0.53327
 O20 O 0.50185 0.72189 0.46973
 O21 O 0.56891 0.73286 0.46975
 O22 O 0.50301 0.72174 0.53538
 Cu23 Cu 0.52249 0.79092 0.50248
 Cu24 Cu 0.53679 0.72139 0.50201
 C25 C 0.48570 0.74874 0.54649
 C26 C 0.57410 0.76373 0.45869
 C27 C 0.48427 0.74894 0.45924
 C28 C 0.57557 0.76354 0.54445
 O29 O 1.06397 0.71646 0.03479
 O30 O 0.99669 0.71996 -0.03096
 O31 O 1.06511 0.71613 -0.02974
 O32 O 0.99544 0.72032 0.03378
 O33 O 0.99683 0.77881 0.03377
 O34 O 1.06603 0.77457 -0.03000
 O35 O 0.99817 0.77846 -0.03118
 O36 O 1.06475 0.77491 0.03503
 Cu37 Cu 1.03016 0.71238 0.00200
 Cu38 Cu 1.03154 0.78251 0.00191
 C39 C 1.07580 0.74507 0.04639
 C40 C 0.98622 0.74986 -0.04257
 C41 C 1.07739 0.74462 -0.04101
 C42 C 0.98442 0.75034 0.04484
 O43 O 0.50662 0.22490 0.52922
 O44 O 0.43804 0.22159 0.46531
 O45 O 0.50593 0.22627 0.46508
 O46 O 0.43863 0.22020 0.53000
 O47 O 0.43243 0.27869 0.53109
 O48 O 0.49965 0.28478 0.46626
 O49 O 0.43208 0.28008 0.46628
 O50 O 0.49966 0.28339 0.53128
 Cu51 Cu 0.47284 0.21734 0.49727
 Cu52 Cu 0.46533 0.28762 0.49881
 C53 C 0.51460 0.25468 0.54131
 C54 C 0.42357 0.25026 0.45459
 C55 C 0.51420 0.25656 0.45453
 C56 C 0.42428 0.24845 0.54189
 O57 O 0.72375 -0.02988 0.02857
 O58 O 0.70991 0.03490 -0.03883
 O59 O 0.72640 -0.03146 -0.03449
 O60 O 0.70304 0.03769 0.02708
 O61 O 0.75877 0.05100 0.03227
 O62 O 0.78086 -0.01363 -0.03396
 O63 O 0.76175 0.05630 -0.02834
 O64 O 0.77837 -0.01319 0.03377
 Cu65 Cu 0.70993 0.00181 -0.00446
 Cu66 Cu 0.77592 0.02018 0.00005
 C67 C 0.75360 -0.03270 0.04247
 C68 C 0.73311 0.05751 -0.04439
 C69 C 0.75764 -0.03387 -0.04511
 C70 C 0.72681 0.05571 0.04036
 O71 O 0.21486 0.52989 0.47133
 O72 O 0.20033 0.46361 0.53649
 O73 O 0.21573 0.53024 0.53556
 O74 O 0.19918 0.46328 0.47131
 O75 O 0.25538 0.44662 0.47164
 O76 O 0.27204 0.51450 0.53492
 O77 O 0.25678 0.44790 0.53556
 O78 O 0.27100 0.51351 0.46993
 Cu79 Cu 0.20181 0.49822 0.50372
 Cu80 Cu 0.26951 0.47920 0.50287
 C81 C 0.24542 0.53301 0.45947
 C82 C 0.22617 0.44463 0.54711
 C83 C 0.24671 0.53382 0.54623
 C84 C 0.22446 0.44347 0.46073
 O85 O 0.28359 1.02844 0.03433
 O86 O 0.29940 0.95812 -0.02793
 O87 O 0.28435 1.02569 -0.02990
 O88 O 0.29784 0.96017 0.03688
 O89 O 0.24142 0.94887 0.03541
 O90 O 0.22795 1.01522 -0.03087
 O91 O 0.24286 0.94721 -0.02815
 O92 O 0.22732 1.01737 0.03466
 Cu93 Cu 0.29694 0.99416 0.00350
 Cu94 Cu 0.22908 0.98144 0.00278
 C95 C 0.25282 1.03498 0.04534
 C96 C 0.27385 0.94071 -0.03853
 C97 C 0.25397 1.03155 -0.04212
 C98 C 0.27197 0.94300 0.04708
 O99 O 0.77581 0.47093 0.46451
 O100 O 0.78699 0.53756 0.53045
 O101 O 0.77704 0.46931 0.52872
 O102 O 0.78601 0.53895 0.46563
 O103 O 0.72879 0.54988 0.46680
 O104 O 0.71980 0.48023 0.52965
 O105 O 0.72972 0.54802 0.53172
 O106 O 0.71863 0.48263 0.46498
 Cu107 Cu 0.78724 0.50321 0.49728
 Cu108 Cu 0.71851 0.51635 0.49849
 C109 C 0.74530 0.46563 0.45336
 C110 C 0.76020 0.55397 0.54256
 C111 C 0.74683 0.46277 0.53986
 C112 C 0.75886 0.55599 0.45511
 C113 C 0.21802 0.21668 0.22434
 C114 C 0.18844 0.24031 0.22702
 C115 C 0.18494 0.26308 0.25447
 C116 C 0.21098 0.26385 0.27904
 C117 C 0.24140 0.24118 0.27571
 C118 C 0.24413 0.21749 0.24884
 H119 H 0.26708 0.19972 0.24682
 H120 H 0.16190 0.28073 0.25642
 C121 C 0.78038 0.79353 0.22895
 C122 C 0.80465 0.76427 0.22719
 C123 C 0.80333 0.73751 0.25126
 C124 C 0.77865 0.73960 0.27714
 C125 C 0.75571 0.77012 0.27993
 C126 C 0.75684 0.79657 0.25553
 H127 H 0.73878 0.81947 0.25683
 H128 H 0.82137 0.71462 0.24962
 C129 C 0.73767 0.26462 0.21707
 C130 C 0.70955 0.24103 0.21683
 C131 C 0.68501 0.24261 0.24276
 C132 C 0.68743 0.26752 0.26844
 C133 C 0.71489 0.29158 0.26820
 C134 C 0.73969 0.28986 0.24260
 H135 H 0.76126 0.30778 0.24302
 H136 H 0.66373 0.22433 0.24297
 C137 C 0.25647 0.73506 0.22568
 C138 C 0.28571 0.75726 0.22374
 C139 C 0.31133 0.75521 0.24882
 C140 C 0.30872 0.73156 0.27539
 C141 C 0.28010 0.70897 0.27694
 C142 C 0.25438 0.71100 0.25211
 H143 H 0.23212 0.69403 0.25372
 H144 H 0.33341 0.77247 0.24788
 C145 C 0.69426 0.25858 0.72190
 C146 C 0.72430 0.27868 0.71730
 C147 C 0.75178 0.27546 0.74021
 C148 C 0.74971 0.25326 0.76798
 C149 C 0.71861 0.23437 0.77364
 C150 C 0.69139 0.23729 0.75012
 H151 H 0.66770 0.22276 0.75356
 H152 H 0.77498 0.29076 0.73661
 C153 C 0.31357 0.72929 0.73294
 C154 C 0.28458 0.70723 0.73088
 C155 C 0.25890 0.70914 0.75576
 C156 C 0.26130 0.73271 0.78264
 C157 C 0.29095 0.75431 0.78513
 C158 C 0.31664 0.75223 0.76011
 H159 H 0.33899 0.76911 0.76142
 H160 H 0.23637 0.69257 0.75380
 C161 C 0.22126 0.26320 0.72732
 C162 C 0.24808 0.23628 0.72575
 C163 C 0.24908 0.20930 0.74956
 C164 C 0.22484 0.20899 0.77580
 C165 C 0.19899 0.23723 0.77873
 C166 C 0.19797 0.26394 0.75420
 H167 H 0.17880 0.28581 0.75582
 H168 H 0.26948 0.18850 0.74798
 C169 C 0.78553 0.73802 0.72040
 C170 C 0.76280 0.76874 0.71805
 C171 C 0.76474 0.79533 0.74237
 C172 C 0.78869 0.79215 0.76859
 C173 C 0.81264 0.76262 0.76997
 C174 C 0.81068 0.73581 0.74588
 H175 H 0.82847 0.71271 0.74729
 H176 H 0.74684 0.81838 0.74143
 C177 C 0.23685 0.11382 0.11893
 C178 C 0.26956 0.11000 0.10316
 C179 C 0.27471 0.08370 0.07879
 C180 C 0.24719 0.06163 0.06951
 C181 C 0.21423 0.06650 0.08522
 C182 C 0.20912 0.09217 0.11027
 C183 C 0.23171 0.14069 0.14537
 C184 C 0.19948 0.14351 0.16214
 C185 C 0.19519 0.16818 0.18808
 C186 C 0.22237 0.19087 0.19647
 C187 C 0.25439 0.18791 0.17910
 C188 C 0.25934 0.16259 0.15378
 C189 C 0.17699 0.09630 0.12717
 C190 C 0.17234 0.12135 0.15284
 C191 C 0.29657 0.13244 0.11223
 C192 C 0.29148 0.15843 0.13696
 H193 H 0.15538 0.07975 0.12078
 H194 H 0.14728 0.12340 0.16548
 H195 H 0.32190 0.12985 0.10012
 H196 H 0.31301 0.17515 0.14322
 H197 H 0.30017 0.08068 0.06694
 H198 H 0.19277 0.04979 0.07863
 H199 H 0.17100 0.16926 0.20211
 H200 H 0.27548 0.20515 0.18550
 C201 C 0.77211 0.62935 0.62120
 C202 C 0.80154 0.61829 0.60238
 C203 C 0.79760 0.59340 0.57679
 C204 C 0.76440 0.58006 0.56967
 C205 C 0.73515 0.59166 0.58873
 C206 C 0.73890 0.61613 0.61464
 C207 C 0.77607 0.65555 0.64808
 C208 C 0.74666 0.66643 0.66699
 C209 C 0.75040 0.69187 0.69204
 C210 C 0.78289 0.70756 0.69718
 C211 C 0.81234 0.69570 0.67862
 C212 C 0.80907 0.66962 0.65400
 C213 C 0.71009 0.62769 0.63411
 C214 C 0.71393 0.65233 0.65993
 C215 C 0.83424 0.63253 0.60939
 C216 C 0.83791 0.65789 0.63466
 H217 H 0.68434 0.61766 0.62931
 H218 H 0.69102 0.66070 0.67423
 H219 H 0.85714 0.62425 0.59503
 H220 H 0.86350 0.66850 0.63898
 H221 H 0.82023 0.58477 0.56219
 H222 H 0.70955 0.58141 0.58360
 H223 H 0.72781 0.70060 0.70666
 H224 H 0.83738 0.70768 0.68260
 C225 C 0.76705 0.89275 0.12137
 C226 C 0.78099 0.92657 0.12458
 C227 C 0.77750 0.95062 0.09814
 C228 C 0.75917 0.94133 0.06929
 C229 C 0.74512 0.90748 0.06655
 C230 C 0.74946 0.88283 0.09235
 C231 C 0.77054 0.86739 0.14907
 C232 C 0.75731 0.83329 0.14552
 C233 C 0.76093 0.80920 0.17181
 C234 C 0.77679 0.81939 0.20163
 C235 C 0.78925 0.85381 0.20521
 C236 C 0.78678 0.87780 0.17866
 C237 C 0.73643 0.84855 0.08981
 C238 C 0.74055 0.82409 0.11585
 C239 C 0.79764 0.93580 0.15432
 C240 C 0.80025 0.91191 0.18100
 H241 H 0.72300 0.84055 0.06747
 H242 H 0.73022 0.79788 0.11288
 H243 H 0.80842 0.96183 0.15713
 H244 H 0.81300 0.92017 0.20362
 H245 H 0.78795 0.97689 0.10035
 H246 H 0.73112 0.90034 0.04423
 H247 H 0.75120 0.78265 0.16935
 H248 H 0.80147 0.86145 0.22830
 C249 C 0.21629 0.36788 0.62347
 C250 C 0.21509 0.40418 0.63175
 C251 C 0.21699 0.42945 0.60634
 C252 C 0.22086 0.41840 0.57318
 C253 C 0.22201 0.38207 0.56518
 C254 C 0.21942 0.35659 0.59028
 C255 C 0.21520 0.34117 0.65009
 C256 C 0.21644 0.30493 0.64177
 C257 C 0.21630 0.27964 0.66717
 C258 C 0.21669 0.29030 0.70071
 C259 C 0.21464 0.32675 0.70865
 C260 C 0.21377 0.35235 0.68337
 C261 C 0.22046 0.32009 0.58296
 C262 C 0.21877 0.29469 0.60827
 C263 C 0.21284 0.41436 0.66528
 C264 C 0.21238 0.38888 0.69066
 H265 H 0.22280 0.31108 0.55747
 H266 H 0.21989 0.26678 0.60160
 H267 H 0.21195 0.44226 0.67199
 H268 H 0.21119 0.39786 0.71622
 H269 H 0.21658 0.45755 0.61232
 H270 H 0.22520 0.37378 0.53953
 H271 H 0.21722 0.25160 0.66094
 H272 H 0.21493 0.33510 0.73441
 C273 C 0.84306 0.25686 0.11489
 C274 C 0.86035 0.22414 0.10779
 C275 C 0.88566 0.22234 0.08254
 C276 C 0.89399 0.25306 0.06475
 C277 C 0.87624 0.28563 0.07217
 C278 C 0.85066 0.28765 0.09714
 C279 C 0.81662 0.25898 0.14157
 C280 C 0.79910 0.29165 0.14848
 C281 C 0.77366 0.29341 0.17357
 C282 C 0.76585 0.26283 0.19170
 C283 C 0.78436 0.23051 0.18509
 C284 C 0.80940 0.22830 0.15967
 C285 C 0.83266 0.31987 0.10483
 C286 C 0.80723 0.32181 0.13000
 C287 C 0.85220 0.19396 0.12627
 C288 C 0.82720 0.19603 0.15183
 H289 H 0.83827 0.34380 0.09126
 H290 H 0.79388 0.34715 0.13509
 H291 H 0.86537 0.16857 0.12103
 H292 H 0.82170 0.17215 0.16551
 H293 H 0.89927 0.19719 0.07716
 H294 H 0.88235 0.30940 0.05857
 H295 H 0.75946 0.31831 0.17867
 H296 H 0.77878 0.20705 0.19940
 C297 C 0.41151 0.73884 0.62521
 C298 C 0.44138 0.71585 0.62421
 C299 C 0.46516 0.71848 0.59781
 C300 C 0.45969 0.74458 0.57319
 C301 C 0.42970 0.76752 0.57469
 C302 C 0.40528 0.76448 0.60044
 C303 C 0.38645 0.73627 0.65291
 C304 C 0.35623 0.75881 0.65352
 C305 C 0.33236 0.75606 0.67976
 C306 C 0.33901 0.73159 0.70547
 C307 C 0.36977 0.70981 0.70503
 C308 C 0.39333 0.71157 0.67838
 C309 C 0.37485 0.78666 0.60201
 C310 C 0.35062 0.78371 0.62799
 C311 C 0.44706 0.69108 0.64987
 C312 C 0.42358 0.68915 0.67661
 H313 H 0.36969 0.80645 0.58298
 H314 H 0.32745 0.80126 0.62823
 H315 H 0.47004 0.67326 0.64945
 H316 H 0.42910 0.66986 0.69601
 H317 H 0.48839 0.70099 0.59690
 H318 H 0.42529 0.78750 0.55567
 H319 H 0.30875 0.77302 0.68043
 H320 H 0.37499 0.69131 0.72515
 C321 C 0.15058 0.74082 0.12361
 C322 C 0.13607 0.77386 0.11355
 C323 C 0.11162 0.77522 0.08750
 C324 C 0.10097 0.74370 0.07196
 C325 C 0.11577 0.71074 0.08274
 C326 C 0.14082 0.70922 0.10824
 C327 C 0.17660 0.73927 0.15072
 C328 C 0.19195 0.70631 0.16005
 C329 C 0.21757 0.70512 0.18502
 C330 C 0.22751 0.73652 0.20091
 C331 C 0.21058 0.76915 0.19234
 C332 C 0.18579 0.77079 0.16662
 C333 C 0.15639 0.67668 0.11860
 C334 C 0.18169 0.67528 0.14391
 C335 C 0.14618 0.80488 0.12987
 C336 C 0.17045 0.80335 0.15609
 H337 H 0.14915 0.65211 0.10688
 H338 H 0.19329 0.64968 0.15093
 H339 H 0.13515 0.83056 0.12238
 H340 H 0.17752 0.82789 0.16800
 H341 H 0.10054 0.80083 0.07979
 H342 H 0.10818 0.68621 0.07111
 H343 H 0.23037 0.67992 0.19163
 H344 H 0.21756 0.79330 0.20500
 C345 C 0.59097 0.25632 0.61851
 C346 C 0.56031 0.27802 0.62117
 C347 C 0.53574 0.27811 0.59528
 C348 C 0.54123 0.25579 0.56758
 C349 C 0.57182 0.23387 0.56544
 C350 C 0.59712 0.23448 0.59063
 C351 C 0.61707 0.25639 0.64545
 C352 C 0.64829 0.23564 0.64222
 C353 C 0.67340 0.23651 0.66753
 C354 C 0.66695 0.25714 0.69611
 C355 C 0.63516 0.27687 0.69959
 C356 C 0.61036 0.27723 0.67389
 C357 C 0.62845 0.21375 0.58850
 C358 C 0.65376 0.21457 0.61375
 C359 C 0.55473 0.29888 0.64979
 C360 C 0.57921 0.29827 0.67583
 H361 H 0.63355 0.19692 0.56706
 H362 H 0.67770 0.19840 0.61104
 H363 H 0.53113 0.31563 0.65218
 H364 H 0.57383 0.31460 0.69755
 H365 H 0.51194 0.29470 0.59703
 H366 H 0.57606 0.21682 0.54397
 H367 H 0.69794 0.22121 0.66514
 H368 H 0.63040 0.29272 0.72175
 C369 C 0.71833 0.13562 0.88227
 C370 C 0.73810 0.14315 0.91061
 C371 C 0.74369 0.11665 0.93457
 C372 C 0.72726 0.08386 0.93165
 C373 C 0.70560 0.07768 0.90402
 C374 C 0.70253 0.10281 0.87845
 C375 C 0.71503 0.16221 0.85563
 C376 C 0.69916 0.15311 0.82554
 C377 C 0.69977 0.17707 0.79898
 C378 C 0.71417 0.21078 0.80303
 C379 C 0.72580 0.22086 0.83481
 C380 C 0.72875 0.19585 0.86038
 C381 C 0.68502 0.09540 0.84868
 C382 C 0.68408 0.11982 0.82236
 C383 C 0.75201 0.17695 0.91430
 C384 C 0.74665 0.20319 0.88994
 H385 H 0.67296 0.07007 0.84528
 H386 H 0.67143 0.11259 0.79937
 H387 H 0.76703 0.18322 0.93623
 H388 H 0.75780 0.22892 0.89368
 H389 H 0.75975 0.12205 0.95609
 H390 H 0.69317 0.05242 0.90129
 H391 H 0.69010 0.16896 0.77495
 H392 H 0.73474 0.24741 0.83908
 C393 C 0.26138 0.60931 0.38285
 C394 C 0.23111 0.61238 0.40261
 C395 C 0.22604 0.58730 0.42765
 C396 C 0.25118 0.55955 0.43323
 C397 C 0.28161 0.55716 0.41342
 C398 C 0.28670 0.58181 0.38799
 C399 C 0.26649 0.63519 0.35605
 C400 C 0.29630 0.63156 0.33570
 C401 C 0.30056 0.65569 0.30973
 C402 C 0.27579 0.68378 0.30466
 C403 C 0.24608 0.68710 0.32526
 C404 C 0.24121 0.66274 0.35096
 C405 C 0.31642 0.57934 0.36739
 C406 C 0.32106 0.60370 0.34159
 C407 C 0.20646 0.64037 0.39684
 C408 C 0.21147 0.66518 0.37150
 H409 H 0.33613 0.55823 0.37108
 H410 H 0.34422 0.60071 0.32613
 H411 H 0.18305 0.64308 0.41200
 H412 H 0.19178 0.68632 0.36783
 H413 H 0.20264 0.58950 0.44289
 H414 H 0.30101 0.53581 0.41742
 H415 H 0.32274 0.65230 0.29312
 H416 H 0.22682 0.70856 0.32111
 C417 C 0.28916 0.85996 0.88830
 C418 C 0.27892 0.85053 0.92050
 C419 C 0.27394 0.87724 0.94454
 C420 C 0.28010 0.91277 0.93663
 C421 C 0.29123 0.92175 0.90463
 C422 C 0.29519 0.89545 0.88009
 C423 C 0.29274 0.83228 0.86247
 C424 C 0.30074 0.84204 0.82982
 C425 C 0.30148 0.81605 0.80486
 C426 C 0.29489 0.78045 0.81249
 C427 C 0.28950 0.77072 0.84581
 C428 C 0.28710 0.79675 0.87072
 C429 C 0.30428 0.90399 0.84738
 C430 C 0.30670 0.87777 0.82259
 C431 C 0.27353 0.81470 0.92782
 C432 C 0.27785 0.78821 0.90341
 H433 H 0.30889 0.93128 0.84074
 H434 H 0.31305 0.88558 0.79750
 H435 H 0.26574 0.80709 0.95258
 H436 H 0.27317 0.76093 0.91001
 H437 H 0.26547 0.87053 0.96936
 H438 H 0.29567 0.94928 0.89868
 H439 H 0.30576 0.82374 0.77932
 H440 H 0.28523 0.74323 0.85196
 C441 C 0.73235 0.39119 0.37453
 C442 C 0.75931 0.38505 0.39780
 C443 C 0.76369 0.40971 0.42348
 C444 C 0.74075 0.43974 0.42636
 C445 C 0.71355 0.44521 0.40312
 C446 C 0.70952 0.42125 0.37684
 C447 C 0.72801 0.36573 0.34713
 C448 C 0.70180 0.37252 0.32324
 C449 C 0.69820 0.34855 0.29694
 C450 C 0.71951 0.31734 0.29535
 C451 C 0.74574 0.31089 0.31931
 C452 C 0.75032 0.33523 0.34520
 C453 C 0.68334 0.42690 0.35269
 C454 C 0.67971 0.40306 0.32620
 C455 C 0.78128 0.35438 0.39492
 C456 C 0.77672 0.32978 0.36917
 H457 H 0.66566 0.45006 0.35416
 H458 H 0.65930 0.40847 0.30799
 H459 H 0.80208 0.34928 0.41278
 H460 H 0.79412 0.30639 0.36792
 H461 H 0.78452 0.40533 0.44148
 H462 H 0.69604 0.46849 0.40510
 H463 H 0.67886 0.35404 0.27776
 H464 H 0.76246 0.28701 0.31766
 C465 C 0.09426 0.24391 0.88252
 C466 C 0.10120 0.22687 0.91290
 C467 C 0.07448 0.22601 0.93683
 C468 C 0.04263 0.24550 0.93184
 C469 C 0.03695 0.26410 0.90189
 C470 C 0.06192 0.26171 0.87646
 C471 C 0.12134 0.24308 0.85650
 C472 C 0.11302 0.25642 0.82492
 C473 C 0.13807 0.25316 0.79961
 C474 C 0.17253 0.23994 0.80632
 C475 C 0.18111 0.23003 0.83925
 C476 C 0.15500 0.22900 0.86369
 C477 C 0.05501 0.27619 0.84493
 C478 C 0.07980 0.27269 0.81929
 C479 C 0.13485 0.21165 0.91880
 C480 C 0.16162 0.21364 0.89496
 H481 H 0.02996 0.28959 0.83982
 H482 H 0.07316 0.28341 0.79507
 H483 H 0.14075 0.19877 0.94226
 H484 H 0.18739 0.20216 0.90067
 H485 H 0.07926 0.21220 0.96008
 H486 H 0.01222 0.27854 0.89762
 H487 H 0.13051 0.26097 0.77469
 H488 H 0.20775 0.22223 0.84587
 C489 C 0.65221 0.77318 0.38403
 C490 C 0.66221 0.76248 0.41615
 C491 C 0.63634 0.75950 0.44061
 C492 C 0.60103 0.76810 0.43323
 C493 C 0.59144 0.77959 0.40124
 C494 C 0.61694 0.78159 0.37628
 C495 C 0.67908 0.77488 0.35783
 C496 C 0.66885 0.78358 0.32529
 C497 C 0.69422 0.78302 0.30008
 C498 C 0.72967 0.77445 0.30737
 C499 C 0.73971 0.76803 0.34056
 C500 C 0.71437 0.76701 0.36569
 C501 C 0.60786 0.79113 0.34362
 C502 C 0.63333 0.79180 0.31849
 C503 C 0.69778 0.75469 0.42303
 C504 C 0.72347 0.75723 0.39829
 H505 H 0.58076 0.79757 0.33730
 H506 H 0.62513 0.79865 0.29349
 H507 H 0.70582 0.74650 0.44773
 H508 H 0.75059 0.75084 0.40458
 H509 H 0.64356 0.75070 0.46538
 H510 H 0.56410 0.78584 0.39564
 H511 H 0.68626 0.78810 0.27465
 H512 H 0.76704 0.76230 0.34651
 C513 C 0.91278 0.75437 0.87696
 C514 C 0.91576 0.72353 0.89642
 C515 C 0.93983 0.72210 0.92281
 C516 C 0.96037 0.75147 0.93003
 C517 C 0.95669 0.78231 0.91042
 C518 C 0.93316 0.78379 0.88370
 C519 C 0.88786 0.75590 0.84896
 C520 C 0.88538 0.78653 0.82920
 C521 C 0.86169 0.78789 0.80266
 C522 C 0.83962 0.75949 0.79652
 C523 C 0.84273 0.72874 0.81626
 C524 C 0.86696 0.72676 0.84251
 C525 C 0.92978 0.81405 0.86345
 C526 C 0.90639 0.81533 0.83656
 C527 C 0.89462 0.69478 0.88906
 C528 C 0.87053 0.69643 0.86267
 H529 H 0.94541 0.83689 0.86837
 H530 H 0.90457 0.83916 0.82155
 H531 H 0.89661 0.67085 0.90391
 H532 H 0.85460 0.67376 0.85797
 H533 H 0.94241 0.69830 0.93782
 H534 H 0.97258 0.80492 0.91559
 H535 H 0.86010 0.81118 0.78694
 H536 H 0.82585 0.70678 0.81156
 C537 C 0.34767 0.24602 0.37654
 C538 C 0.35790 0.21473 0.39340
 C539 C 0.38268 0.21629 0.41900
 C540 C 0.39692 0.24891 0.42800
 C541 C 0.38606 0.28011 0.41102
 C542 C 0.36157 0.27877 0.38514
 C543 C 0.32180 0.24447 0.34946
 C544 C 0.31178 0.27572 0.33242
 C545 C 0.28681 0.27417 0.30701
 C546 C 0.27092 0.24196 0.29960
 C547 C 0.28181 0.21074 0.31638
 C548 C 0.30731 0.21184 0.34137
 C549 C 0.35079 0.30949 0.36759
 C550 C 0.32638 0.30797 0.34160
 C551 C 0.34311 0.18251 0.38435
 C552 C 0.31813 0.18112 0.35886
 H553 H 0.36133 0.33492 0.37398
 H554 H 0.31868 0.33228 0.32876
 H555 H 0.35077 0.15820 0.39720
 H556 H 0.30713 0.15580 0.35284
 H557 H 0.39075 0.19216 0.43198
 H558 H 0.39699 0.30531 0.41762
 H559 H 0.27872 0.29815 0.29380
 H560 H 0.26961 0.18593 0.31066
 C561 C 0.77630 0.89069 0.87733
 C562 C 0.75903 0.88044 0.90635
 C563 C 0.75382 0.90519 0.93203
 C564 C 0.76648 0.93960 0.92914
 C565 C 0.78496 0.94915 0.90052
 C566 C 0.78936 0.92491 0.87415
 C567 C 0.77994 0.86542 0.84945
 C568 C 0.79556 0.87620 0.81973
 C569 C 0.79779 0.85239 0.79288
 C570 C 0.78557 0.81785 0.79624
 C571 C 0.77045 0.80729 0.82623
 C572 C 0.76714 0.83114 0.85284
 C573 C 0.80562 0.93443 0.84434
 C574 C 0.80848 0.91056 0.81752
 C575 C 0.74669 0.84589 0.90883
 C576 C 0.75095 0.82154 0.88262
 H577 H 0.81571 0.96074 0.84152
 H578 H 0.82081 0.91910 0.79484
 H579 H 0.73348 0.83767 0.93118
 H580 H 0.74101 0.79516 0.88549
 H581 H 0.73969 0.89788 0.95418
 H582 H 0.79436 0.97583 0.89821
 H583 H 0.80951 0.86031 0.76968
 H584 H 0.76094 0.78064 0.82855
 C585 C 0.21006 0.36585 0.38546
 C586 C 0.22159 0.35492 0.41708
 C587 C 0.22606 0.38058 0.44184
 C588 C 0.21809 0.41662 0.43528
 C589 C 0.20559 0.42712 0.40387
 C590 C 0.20217 0.40183 0.37857
 C591 C 0.20719 0.33924 0.35880
 C592 C 0.19801 0.35044 0.32663
 C593 C 0.19794 0.32537 0.30084
 C594 C 0.20639 0.28929 0.30720
 C595 C 0.21294 0.27821 0.34009
 C596 C 0.21470 0.30324 0.36577
 C597 C 0.19190 0.41186 0.34634
 C598 C 0.19019 0.38663 0.32073
 C599 C 0.22884 0.31864 0.42311
 C600 C 0.22511 0.29319 0.39796
 H601 H 0.18584 0.43953 0.34070
 H602 H 0.18295 0.39558 0.29604
 H603 H 0.23762 0.30988 0.44742
 H604 H 0.23122 0.26552 0.40355
 H605 H 0.23563 0.37267 0.46617
 H606 H 0.19985 0.45502 0.39889
 H607 H 0.19272 0.33410 0.27565
 H608 H 0.21854 0.25036 0.34532
 C609 C 0.24150 0.10417 0.87882
 C610 C 0.27418 0.09976 0.89456
 C611 C 0.27808 0.07555 0.92072
 C612 C 0.24945 0.05600 0.93172
 C613 C 0.21663 0.06116 0.91576
 C614 C 0.21264 0.08501 0.88912
 C615 C 0.23741 0.12957 0.85115
 C616 C 0.20484 0.13383 0.83506
 C617 C 0.20106 0.15848 0.80905
 C618 C 0.22918 0.17979 0.80033
 C619 C 0.26177 0.17460 0.81633
 C620 C 0.26608 0.14947 0.84163
 C621 C 0.18041 0.09006 0.87252
 C622 C 0.17662 0.11393 0.84586
 C623 C 0.30237 0.11978 0.88395
 C624 C 0.29833 0.14437 0.85804
 H625 H 0.15790 0.07543 0.88018
 H626 H 0.15130 0.11708 0.83383
 H627 H 0.32771 0.11662 0.89595
 H628 H 0.32063 0.15957 0.85085
 H629 H 0.30349 0.07223 0.93261
 H630 H 0.19430 0.04638 0.92369
 H631 H 0.17602 0.16228 0.79659
 H632 H 0.28345 0.19096 0.80969
 C633 C 0.76823 0.63190 0.37703
 C634 C 0.79817 0.62112 0.39521
 C635 C 0.79502 0.59628 0.42082
 C636 C 0.76211 0.58271 0.42857
 C637 C 0.73231 0.59416 0.41028
 C638 C 0.73526 0.61855 0.38432
 C639 C 0.77140 0.65784 0.34996
 C640 C 0.74150 0.66833 0.33160
 C641 C 0.74453 0.69347 0.30632
 C642 C 0.77678 0.70930 0.30045
 C643 C 0.80672 0.69784 0.31845
 C644 C 0.80418 0.67201 0.34327
 C645 C 0.70593 0.62976 0.36543
 C646 C 0.70903 0.65414 0.33942
 C647 C 0.83061 0.63548 0.38746
 C648 C 0.83353 0.66063 0.36204
 H649 H 0.68037 0.61959 0.37080
 H650 H 0.68575 0.66222 0.32555
 H651 H 0.85389 0.62741 0.40133
 H652 H 0.85896 0.67133 0.35711
 H653 H 0.81807 0.58770 0.43483
 H654 H 0.70692 0.58366 0.41588
 H655 H 0.72156 0.70193 0.29214
 H656 H 0.83158 0.70996 0.31392
 C657 C 0.15404 0.73961 0.88342
 C658 C 0.14369 0.70813 0.89847
 C659 C 0.11813 0.70991 0.92351
 C660 C 0.10332 0.74300 0.93410
 C661 C 0.11462 0.77439 0.91894
 C662 C 0.13962 0.77278 0.89337
 C663 C 0.18052 0.73779 0.85671
 C664 C 0.19028 0.76920 0.84110
 C665 C 0.21544 0.76728 0.81571
 C666 C 0.23211 0.73448 0.80716
 C667 C 0.22163 0.70320 0.82275
 C668 C 0.19567 0.70468 0.84741
 C669 C 0.15034 0.80368 0.87740
 C670 C 0.17508 0.80190 0.85157
 C671 C 0.15915 0.67545 0.88820
 C672 C 0.18486 0.67378 0.86326
 H673 H 0.13941 0.82947 0.88481
 H674 H 0.18259 0.82635 0.83990
 H675 H 0.15146 0.65096 0.89968
 H676 H 0.19632 0.64807 0.85628
 H677 H 0.11006 0.68547 0.93487
 H678 H 0.10356 0.80010 0.92653
 H679 H 0.22288 0.79135 0.80330
 H680 H 0.23423 0.67788 0.81612
 C681 C 0.58934 0.26228 0.37627
 C682 C 0.59058 0.23284 0.39761
 C683 C 0.56594 0.23115 0.42330
 C684 C 0.54066 0.25893 0.42803
 C685 C 0.54021 0.28856 0.40678
 C686 C 0.56424 0.29017 0.38057
 C687 C 0.61456 0.26374 0.34866
 C688 C 0.61254 0.29258 0.32662
 C689 C 0.63605 0.29339 0.29996
 C690 C 0.66218 0.26639 0.29612
 C691 C 0.66389 0.23763 0.31830
 C692 C 0.63992 0.23603 0.34456
 C693 C 0.56337 0.31884 0.35830
 C694 C 0.58699 0.31992 0.33165
 C695 C 0.61628 0.20561 0.39269
 C696 C 0.64066 0.20726 0.36670
 H697 H 0.54408 0.34047 0.36132
 H698 H 0.58529 0.34237 0.31489
 H699 H 0.61756 0.18281 0.40905
 H700 H 0.66008 0.18573 0.36377
 H701 H 0.56654 0.20837 0.43971
 H702 H 0.52061 0.30989 0.41014
 H703 H 0.63391 0.31479 0.28210
 H704 H 0.68382 0.21661 0.31496
 C705 C 0.85402 0.24963 0.87063
 C706 C 0.86878 0.21691 0.88139
 C707 C 0.89212 0.21628 0.90840
 C708 C 0.90063 0.24813 0.92447
 C709 C 0.88534 0.28060 0.91331
 C710 C 0.86206 0.28151 0.88649
 C711 C 0.82939 0.25056 0.84243
 C712 C 0.81410 0.28328 0.83229
 C713 C 0.78942 0.28392 0.80662
 C714 C 0.77977 0.25217 0.79131
 C715 C 0.79659 0.21972 0.80052
 C716 C 0.82102 0.21870 0.82662
 C717 C 0.84662 0.31375 0.87530
 C718 C 0.82296 0.31461 0.84869
 C719 C 0.85986 0.18558 0.86489
 C720 C 0.83641 0.18646 0.83796
 H721 H 0.85267 0.33851 0.88738
 H722 H 0.81130 0.33997 0.84105
 H723 H 0.87101 0.16014 0.87293
 H724 H 0.83001 0.16167 0.82613
 H725 H 0.90375 0.19115 0.91674
 H726 H 0.89159 0.30530 0.92541
 H727 H 0.77642 0.30889 0.79956
 H728 H 0.78922 0.19527 0.78860
 C729 C 0.40825 0.73961 0.38198
 C730 C 0.43749 0.71579 0.38282
 C731 C 0.46183 0.71823 0.40879
 C732 C 0.45754 0.74492 0.43314
 C733 C 0.42813 0.76864 0.43185
 C734 C 0.40317 0.76585 0.40652
 C735 C 0.38269 0.73733 0.35466
 C736 C 0.35316 0.76081 0.35414
 C737 C 0.32888 0.75844 0.32818
 C738 C 0.33442 0.73334 0.30269
 C739 C 0.36451 0.71060 0.30303
 C740 C 0.38846 0.71201 0.32939
 C741 C 0.37338 0.78892 0.40508
 C742 C 0.34868 0.78629 0.37945
 C743 C 0.44205 0.69041 0.35739
 C744 C 0.41807 0.68871 0.33101
 H745 H 0.36911 0.80919 0.42393
 H746 H 0.32604 0.80457 0.37929
 H747 H 0.46453 0.67194 0.35769
 H748 H 0.42271 0.66894 0.31177
 H749 H 0.48462 0.70013 0.40952
 H750 H 0.42462 0.78911 0.45065
 H751 H 0.30581 0.77617 0.32756
 H752 H 0.36901 0.69176 0.28296
 C753 C 0.28505 0.86298 0.12098
 C754 C 0.29045 0.89859 0.12942
 C755 C 0.28718 0.92477 0.10477
 C756 C 0.27739 0.91548 0.07239
 C757 C 0.27182 0.87983 0.06429
 C758 C 0.27609 0.85330 0.08846
 C759 C 0.28804 0.83541 0.14684
 C760 C 0.28306 0.79978 0.13833
 C761 C 0.28506 0.77381 0.16320
 C762 C 0.28954 0.78363 0.19666
 C763 C 0.29539 0.81936 0.20461
 C764 C 0.29494 0.84534 0.17974
 C765 C 0.27128 0.81737 0.08090
 C766 C 0.27501 0.79102 0.10536
 C767 C 0.29832 0.90734 0.16244
 C768 C 0.30024 0.88120 0.18723
 H769 H 0.26447 0.80958 0.05588
 H770 H 0.27085 0.76365 0.09855
 H771 H 0.30242 0.93471 0.16928
 H772 H 0.30571 0.88916 0.21250
 H773 H 0.29120 0.95237 0.11087
 H774 H 0.26439 0.87287 0.03919
 H775 H 0.28137 0.74623 0.15683
 H776 H 0.29898 0.82710 0.23028
 C777 C 0.73620 0.38236 0.61362
 C778 C 0.70927 0.40843 0.60942
 C779 C 0.71268 0.43436 0.58487
 C780 C 0.74307 0.43474 0.56506
 C781 C 0.76989 0.40843 0.56966
 C782 C 0.76647 0.38200 0.59380
 C783 C 0.73284 0.35520 0.63958
 C784 C 0.75973 0.32905 0.64380
 C785 C 0.75652 0.30353 0.66883
 C786 C 0.72692 0.30445 0.68971
 C787 C 0.70056 0.33121 0.68544
 C788 C 0.70310 0.35632 0.66010
 C789 C 0.79277 0.35534 0.59865
 C790 C 0.78939 0.32924 0.62316
 C791 C 0.67963 0.40831 0.63010
 C792 C 0.67668 0.38279 0.65514
 H793 H 0.81620 0.35470 0.58344
 H794 H 0.81032 0.30923 0.62616
 H795 H 0.65869 0.42830 0.62711
 H796 H 0.65355 0.38380 0.67077
 H797 H 0.69201 0.45461 0.58162
 H798 H 0.79326 0.40840 0.55437
 H799 H 0.77703 0.28315 0.67229
 H800 H 0.67847 0.33293 0.70230
 C801 C 0.70884 0.13490 0.11420
 C802 C 0.71403 0.14513 0.08111
 C803 C 0.71868 0.11883 0.05668
 C804 C 0.71766 0.08278 0.06525
 C805 C 0.71158 0.07281 0.09823
 C806 C 0.70749 0.09888 0.12300
 C807 C 0.70616 0.16235 0.14030
 C808 C 0.70294 0.15206 0.17360
 C809 C 0.70272 0.17813 0.19849
 C810 C 0.70562 0.21418 0.19019
 C811 C 0.70695 0.22419 0.15658
 C812 C 0.70808 0.19830 0.13155
 C813 C 0.70323 0.08969 0.15648
 C814 C 0.70114 0.11583 0.18138
 C815 C 0.71542 0.18138 0.07328
 C816 C 0.71228 0.20754 0.09808
 H817 H 0.70217 0.06202 0.16357
 H818 H 0.69853 0.10758 0.20697
 H819 H 0.71935 0.18956 0.04784
 H820 H 0.71388 0.23519 0.09107
 H821 H 0.72386 0.12622 0.03120
 H822 H 0.71154 0.04488 0.10469
 H823 H 0.70169 0.17034 0.22435
 H824 H 0.70860 0.25199 0.15010
 C825 C 0.26439 0.60971 0.62309
 C826 C 0.23335 0.61247 0.60440
 C827 C 0.22782 0.58767 0.57912
 C828 C 0.25321 0.56048 0.57228
 C829 C 0.28446 0.55846 0.59094
 C830 C 0.29004 0.58284 0.61659
 C831 C 0.26991 0.63513 0.65029
 C832 C 0.30047 0.63171 0.66963
 C833 C 0.30510 0.65532 0.69607
 C834 C 0.27990 0.68267 0.70261
 C835 C 0.24947 0.68583 0.68296
 C836 C 0.24424 0.66198 0.65682
 C837 C 0.32053 0.58062 0.63617
 C838 C 0.32558 0.60455 0.66235
 C839 C 0.20835 0.63978 0.61156
 C840 C 0.21375 0.66420 0.63727
 H841 H 0.34052 0.56002 0.63141
 H842 H 0.34931 0.60174 0.67704
 H843 H 0.18433 0.64224 0.59726
 H844 H 0.19377 0.68480 0.64205
 H845 H 0.20379 0.58956 0.56477
 H846 H 0.30405 0.53751 0.58598
 H847 H 0.32791 0.65204 0.71191
 H848 H 0.22990 0.70673 0.68821
 C849 C 0.90746 0.75584 0.12234
 C850 C 0.91152 0.72464 0.10336
 C851 C 0.93673 0.72289 0.07794
 C852 C 0.95737 0.75228 0.07120
 C853 C 0.95257 0.78349 0.09028
 C854 C 0.92788 0.78531 0.11605
 C855 C 0.88143 0.75767 0.14943
 C856 C 0.87797 0.78862 0.16883
 C857 C 0.85349 0.79012 0.19472
 C858 C 0.83165 0.76151 0.20061
 C859 C 0.83561 0.73052 0.18111
 C860 C 0.86063 0.72841 0.15552
 C861 C 0.92342 0.81592 0.13584
 C862 C 0.89900 0.81748 0.16188
 C863 C 0.89035 0.69583 0.11028
 C864 C 0.86525 0.69774 0.13582
 H865 H 0.93907 0.83881 0.13126
 H866 H 0.89644 0.84155 0.17662
 H867 H 0.89316 0.67161 0.09579
 H868 H 0.84941 0.67496 0.14024
 H869 H 0.94014 0.69880 0.06332
 H870 H 0.96849 0.80615 0.08548
 H871 H 0.85138 0.81355 0.21034
 H872 H 0.81897 0.70836 0.18565
 C873 C 0.35051 0.24223 0.62139
 C874 C 0.35765 0.21213 0.60151
 C875 C 0.38184 0.21423 0.57543
 C876 C 0.39834 0.24631 0.56894
 C877 C 0.39050 0.27633 0.58890
 C878 C 0.36682 0.27436 0.61533
 C879 C 0.32540 0.24010 0.64903
 C880 C 0.31868 0.27007 0.66915
 C881 C 0.29463 0.26802 0.69521
 C882 C 0.27626 0.23679 0.70036
 C883 C 0.28372 0.20674 0.68037
 C884 C 0.30840 0.20823 0.65466
 C885 C 0.35928 0.30382 0.63592
 C886 C 0.33571 0.30167 0.66248
 C887 C 0.34043 0.18060 0.60811
 C888 C 0.31608 0.17874 0.63413
 H889 H 0.37175 0.32874 0.63150
 H890 H 0.33057 0.32500 0.67777
 H891 H 0.34567 0.15722 0.59292
 H892 H 0.30317 0.15401 0.63821
 H893 H 0.38760 0.19106 0.56008
 H894 H 0.40327 0.30105 0.58424
 H895 H 0.28937 0.29100 0.71094
 H896 H 0.26963 0.18266 0.68431
 C897 C 0.08636 0.24853 0.12248
 C898 C 0.05431 0.23195 0.12659
 C899 C 0.03025 0.23234 0.10033
 C900 C 0.03767 0.25008 0.07065
 C901 C 0.06945 0.26737 0.06711
 C902 C 0.09428 0.26609 0.09282
 C903 C 0.11227 0.24714 0.14960
 C904 C 0.14497 0.26230 0.14496
 C905 C 0.16991 0.25990 0.17048
 C906 C 0.16183 0.24331 0.20057
 C907 C 0.12865 0.22924 0.20531
 C908 C 0.10396 0.23039 0.17956
 C909 C 0.12702 0.28150 0.08934
 C910 C 0.15207 0.27937 0.11487
 C911 C 0.04705 0.21522 0.15681
 C912 C 0.07135 0.21472 0.18297
 H913 H 0.13350 0.29497 0.06655
 H914 H 0.17715 0.29126 0.11106
 H915 H 0.02234 0.20248 0.16029
 H916 H 0.06471 0.20161 0.20590
 H917 H 0.00561 0.21922 0.10301
 H918 H 0.07519 0.28073 0.04405
 H919 H 0.19550 0.27092 0.16713
 H920 H 0.12268 0.21645 0.22860
 C921 C 0.65614 0.77245 0.61684
 C922 C 0.62124 0.78146 0.62553
 C923 C 0.59493 0.77968 0.60129
 C924 C 0.60336 0.76778 0.56910
 C925 C 0.63832 0.75860 0.56077
 C926 C 0.66498 0.76138 0.58448
 C927 C 0.68384 0.77389 0.64227
 C928 C 0.71878 0.76544 0.63346
 C929 C 0.74492 0.76627 0.65788
 C930 C 0.73599 0.77308 0.69131
 C931 C 0.70088 0.78217 0.69955
 C932 C 0.67474 0.78295 0.67506
 C933 C 0.70023 0.75302 0.57663
 C934 C 0.72672 0.75532 0.60065
 C935 C 0.61330 0.79135 0.65840
 C936 C 0.63956 0.79175 0.68282
 H937 H 0.70739 0.74456 0.55174
 H938 H 0.75356 0.74846 0.59363
 H939 H 0.58649 0.79827 0.66544
 H940 H 0.63223 0.79888 0.70801
 H941 H 0.56785 0.78636 0.60764
 H942 H 0.64463 0.74948 0.53584
 H943 H 0.77199 0.76013 0.65119
 H944 H 0.69376 0.78752 0.72517
   
