data_POSCAR
  _audit_creation_date              2014-09-24
  _audit_creation_method            'ToBaCCo'
  _symmetry_space_group_name_H-M    'P1'
  _symmetry_Int_Tables_number       1
  _symmetry_cell_setting            triclinic
  loop_
  _symmetry_equiv_pos_as_xyz
 x,y,z
_cell_length_a 44.6844
_cell_length_b 44.1098
_cell_length_c 15.1765
_cell_angle_alpha 90.009900
_cell_angle_beta 90.751000
_cell_angle_gamma 121.186100
loop_
  _atom_site_label
  _atom_site_type_symbol
  _atom_site_fract_x
  _atom_site_fract_y
  _atom_site_fract_z
C1 C 0.15290 0.43452 0.44284
 C2 C 0.17411 0.44188 0.36856
 C3 C 0.21007 0.45619 0.38152
 C4 C 0.22533 0.46391 0.46659
 C5 C 0.20369 0.45760 0.53961
 C6 C 0.16755 0.44384 0.52872
 C7 C 0.26396 0.47992 0.47859
 C8 C 0.27791 0.47342 0.55555
 C9 C 0.31412 0.48823 0.56629
 C10 C 0.33657 0.51058 0.50080
 C11 C 0.32332 0.51585 0.42253
 C12 C 0.28724 0.50119 0.41203
 H13 H 0.12524 0.42310 0.43285
 H14 H 0.22601 0.46065 0.32428
 H15 H 0.21528 0.46525 0.60503
 H16 H 0.26074 0.45587 0.60588
 H17 H 0.36465 0.52297 0.50884
 H18 H 0.27778 0.50698 0.35221
 C19 C 0.58864 -0.26949 0.48081
 C20 C 0.57953 -0.25542 0.40914
 C21 C 0.56952 -0.23069 0.42608
 C22 C 0.57217 -0.21696 0.51165
 C23 C 0.58141 -0.23158 0.58213
 C24 C 0.58702 -0.25976 0.56836
 C25 C 0.56505 -0.18772 0.52714
 C26 C 0.55258 -0.18396 0.60899
 C27 C 0.54857 -0.15505 0.62523
 C28 C 0.55430 -0.13113 0.55763
 C29 C 0.56390 -0.13587 0.47333
 C30 C 0.57088 -0.16307 0.46004
 H31 H 0.59528 -0.28931 0.46807
 H32 H 0.56036 -0.22163 0.37158
 H33 H 0.58314 -0.22194 0.64869
 H34 H 0.54638 -0.20300 0.66099
 H35 H 0.55089 -0.10903 0.57134
 H36 H 0.58064 -0.16492 0.39666
 C37 C 1.29874 0.84177 0.54379
 C38 C 1.28389 0.83964 0.45970
 C39 C 1.25024 0.81034 0.44111
 C40 C 1.23247 0.78282 0.50260
 C41 C 1.24878 0.78531 0.58469
 C42 C 1.28139 0.81494 0.60558
 C43 C 1.19744 0.75118 0.48045
 C44 C 1.17276 0.73316 0.54703
 C45 C 1.14087 0.70162 0.52884
 C46 C 1.13223 0.69053 0.44011
 C47 C 1.15613 0.70839 0.37260
 C48 C 1.18901 0.73787 0.39345
 H49 H 1.32409 0.86369 0.56332
 H50 H 1.23793 0.80889 0.37803
 H51 H 1.23662 0.76411 0.63213
 H52 H 1.17886 0.74300 0.61424
 H53 H 1.10739 0.66750 0.42197
 H54 H 1.20798 0.75012 0.34163
 C55 C 0.82452 0.47779 0.47976
 C56 C 0.82237 0.49920 0.41464
 C57 C 0.79820 0.51028 0.42409
 C58 C 0.77674 0.50071 0.49920
 C59 C 0.78042 0.47990 0.56449
 C60 C 0.80497 0.46956 0.55606
 C61 C 0.75167 0.51335 0.51208
 C62 C 0.74153 0.51620 0.59784
 C63 C 0.71705 0.52626 0.61229
 C64 C 0.70326 0.53498 0.53962
 C65 C 0.71317 0.53319 0.45304
 C66 C 0.73703 0.52185 0.43996
 H67 H 0.84255 0.46845 0.47306
 H68 H 0.79727 0.52737 0.37440
 H69 H 0.76431 0.47121 0.62233
 H70 H 0.75300 0.51122 0.65501
 H71 H 0.68229 0.53981 0.55045
 H72 H 0.74326 0.51875 0.37318
 C73 C 0.43163 0.30824 0.55748
 C74 C 0.42830 0.29585 0.47072
 C75 C 0.42786 0.26437 0.45533
 C76 C 0.43526 0.24750 0.52394
 C77 C 0.44250 0.26287 0.60929
 C78 C 0.43900 0.29215 0.62773
 C79 C 0.43529 0.21404 0.50612
 C80 C 0.42720 0.18884 0.57325
 C81 C 0.42698 0.15726 0.55739
 C82 C 0.43146 0.14953 0.47001
 C83 C 0.43935 0.17401 0.40236
 C84 C 0.44279 0.20669 0.42139
 H85 H 0.43072 0.33194 0.56890
 H86 H 0.42256 0.25377 0.38892
 H87 H 0.45011 0.25172 0.66231
 H88 H 0.42129 0.19377 0.63873
 H89 H 0.42956 0.12488 0.45260
 H90 H 0.45083 0.22594 0.36918
 C91 C 0.67542 0.16289 0.47500
 C92 C 0.69391 0.18454 0.40434
 C93 C 0.73060 0.20342 0.40609
 C94 C 0.74891 0.20032 0.47862
 C95 C 0.72955 0.17638 0.54635
 C96 C 0.69291 0.15772 0.54534
 C97 C 0.78782 0.22317 0.48715
 C98 C 0.80332 0.23457 0.57142
 C99 C 0.83966 0.25592 0.58311
 C100 C 0.86074 0.26745 0.50784
 C101 C 0.84567 0.25928 0.42269
 C102 C 0.80947 0.23571 0.41277
 H103 H 0.64718 0.14983 0.47374
 H104 H 0.74444 0.22131 0.35267
 H105 H 0.74291 0.17214 0.60062
 H106 H 0.78695 0.22739 0.62889
 H107 H 0.88872 0.28502 0.51432
 H108 H 0.79824 0.22841 0.34700
 N109 N 0.98990 0.44141 0.15474
 N110 N 0.97392 0.42861 0.22988
 N111 N 1.05098 0.45473 0.03692
 N112 N 1.07331 0.44384 0.04799
 N113 N 1.05861 0.48102 0.09144
 N114 N 1.08666 0.48897 0.13924
 N115 N 0.98215 0.41564 0.09842
 N116 N 0.96043 0.38447 0.13394
 C117 C 0.95561 0.39320 0.21612
 C118 C 1.09597 0.46610 0.11032
 N119 N 1.01403 0.45539 -0.19955
 N120 N 1.02899 0.45952 -0.27634
 N121 N 0.95619 0.39989 -0.08185
 N122 N 0.93675 0.36512 -0.09235
 N123 N 0.94548 0.41575 -0.13581
 N124 N 0.91806 0.39221 -0.18228
 N125 N 1.02489 0.44041 -0.14313
 N126 N 1.04786 0.43418 -0.18015
 Mn127 Mn 1.00358 0.42741 -0.02239
 C128 C 1.05020 0.44654 -0.26322
 C129 C 0.91247 0.36082 -0.15343
 N130 N 1.05394 0.54374 0.09085
 N131 N 1.08138 0.56725 0.13738
 N132 N 0.97454 0.51910 0.09802
 N133 N 0.95131 0.52511 0.13414
 N134 N 0.98540 0.50426 0.15478
 N135 N 0.97013 0.50003 0.23122
 N136 N 1.04320 0.55965 0.03692
 N137 N 1.06279 0.59445 0.04747
 Mn138 Mn 1.02208 0.49267 0.12332
 C139 C 1.08707 0.59873 0.10875
 C140 C 0.94884 0.51289 0.21725
 N141 N 0.94069 0.47789 -0.13580
 N142 N 0.90999 0.46586 -0.17455
 N143 N 1.01650 0.54362 -0.14373
 N144 N 1.03520 0.57480 -0.18217
 N145 N 1.00904 0.51786 -0.19978
 N146 N 1.02225 0.53065 -0.27753
 N147 N 0.94769 0.50374 -0.08068
 N148 N 0.92184 0.51014 -0.08119
 Mn149 Mn 0.97725 0.46670 -0.16813
 Mn150 Mn 0.99548 0.53187 -0.02247
 Cl151 Cl 0.99970 0.47973 -0.02240
 C152 C 0.89822 0.48578 -0.13898
 C153 C 1.03872 0.56607 -0.26558
 N154 N 0.47135 0.45669 0.13928
 N155 N 0.46072 0.42562 0.17616
 N156 N 0.45806 0.51911 0.12976
 N157 N 0.43796 0.52911 0.16668
 N158 N 0.44001 0.49337 0.07270
 N159 N 0.40699 0.48497 0.07001
 N160 N 0.48952 0.48255 0.19608
 N161 N 0.49184 0.46992 0.27281
 C162 C 0.47392 0.43450 0.25944
 C163 C 0.40628 0.50798 0.12782
 N164 N 0.55081 0.60092 0.07904
 N165 N 0.56451 0.63549 0.08767
 N166 N 0.55664 0.54776 0.19916
 N167 N 0.56832 0.54231 0.27414
 N168 N 0.58221 0.56384 0.14288
 N169 N 0.61189 0.56917 0.17741
 N170 N 0.52448 0.58381 0.13279
 N171 N 0.51915 0.60619 0.17741
 Mn172 Mn 0.50714 0.53333 0.16511
 C173 C 0.54381 0.63826 0.14755
 C174 C 0.60271 0.55560 0.25941
 N175 N 0.45262 0.47953 -0.10473
 N176 N 0.42282 0.47216 -0.14307
 N177 N 0.50996 0.45900 -0.09204
 N178 N 0.51396 0.43621 -0.13912
 N179 N 0.48315 0.44209 -0.03928
 N180 N 0.46811 0.40747 -0.05089
 N181 N 0.47860 0.49543 -0.15992
 N182 N 0.46727 0.49912 -0.23734
 Mn183 Mn 0.46145 0.46763 0.01706
 C184 C 0.43258 0.48472 -0.22579
 C185 C 0.48820 0.40419 -0.11169
 N186 N 0.59496 0.55125 -0.03445
 N187 N 0.62887 0.56480 -0.04406
 N188 N 0.54533 0.56056 -0.15696
 N189 N 0.54413 0.57295 -0.23502
 N190 N 0.56244 0.58662 -0.09997
 N191 N 0.57336 0.61757 -0.13802
 N192 N 0.57709 0.52445 -0.08914
 N193 N 0.59858 0.51895 -0.13579
 Mn194 Mn 0.57279 0.57595 0.02194
 Mn195 Mn 0.52781 0.50977 -0.12479
 Cl196 Cl 0.51732 0.52161 0.01978
 C197 C 0.63073 0.54371 -0.10534
 C198 C 0.56138 0.60839 -0.22222
 N199 N 0.42681 -0.01260 0.14110
 N200 N 0.39775 -0.03537 0.18185
 N201 N 0.48795 0.06574 0.11614
 N202 N 0.49567 0.09473 0.16025
 N203 N 0.45989 0.05516 0.06631
 N204 N 0.44761 0.07649 0.07743
 N205 N 0.45415 -0.00175 0.19359
 N206 N 0.44449 -0.01664 0.27152
 C207 C 0.40934 -0.03745 0.26331
 C208 C 0.47080 0.10160 0.13445
 N209 N 0.56632 0.05407 0.05182
 N210 N 0.60020 0.07731 0.04656
 N211 N 0.51806 -0.00246 0.18633
 N212 N 0.51520 -0.01697 0.26397
 N213 N 0.53264 -0.01332 0.12996
 N214 N 0.54028 -0.03553 0.16814
 N215 N 0.55181 0.06496 0.10834
 N216 N 0.57542 0.09594 0.14243
 Mn217 Mn 0.50309 0.03175 0.15154
 C218 C 0.60538 0.10367 0.10198
 C219 C 0.52919 -0.03740 0.25191
 N220 N 0.44090 0.02284 -0.10856
 N221 N 0.43245 0.04428 -0.14766
 N222 N 0.42152 -0.05589 -0.08719
 N223 N 0.39782 -0.08587 -0.12535
 N224 N 0.40665 -0.04481 -0.03218
 N225 N 0.37239 -0.06694 -0.03265
 N226 N 0.45493 0.01138 -0.16510
 N227 N 0.45634 0.02452 -0.24384
 Mn228 Mn 0.43329 0.00519 0.01661
 C229 C 0.44241 0.04501 -0.23213
 C230 C 0.36738 -0.09290 -0.08937
 N231 N 0.51336 -0.04587 -0.04369
 N232 N 0.52632 -0.06657 -0.05450
 N233 N 0.51888 0.01076 -0.17258
 N234 N 0.52861 0.02415 -0.25195
 N235 N 0.54624 0.02151 -0.12028
 N236 N 0.57541 0.04269 -0.16263
 N237 N 0.48564 -0.05656 -0.09497
 N238 N 0.47908 -0.08493 -0.14051
 Mn239 Mn 0.53989 0.00409 0.00456
 Mn240 Mn 0.47013 -0.02270 -0.13025
 Cl241 Cl 0.48657 0.00456 0.01061
 C242 C 0.50417 -0.09134 -0.11345
 C243 C 0.56384 0.04405 -0.24471
 C244 C 1.16104 0.43937 0.28210
 C245 C 1.12700 0.42000 0.25970
 C246 C 1.11238 0.42684 0.17992
 C247 C 1.12059 0.45984 0.16022
 H248 H 1.10834 0.39958 0.30272
 H249 H 1.08903 0.40454 0.15099
 H250 H 1.17940 0.45529 0.23142
 H251 H 1.14126 0.48205 0.19707
 C252 C 0.57718 0.73199 0.32246
 C253 C 0.59505 0.71699 0.29523
 C254 C 0.58599 0.69506 0.21490
 C255 C 0.55266 0.67092 0.19499
 H256 H 0.61650 0.71927 0.33462
 H257 H 0.60670 0.69262 0.18592
 H258 H 0.56005 0.73444 0.27548
 H259 H 0.53185 0.67076 0.23127
 C260 C 0.30175 -0.13520 0.39267
 C261 C 0.33457 -0.10727 0.40062
 C262 C 0.35340 -0.08418 0.32575
 C263 C 0.38745 -0.05995 0.33512
 H264 H 0.34923 -0.10142 0.46159
 H265 H 0.34009 -0.08787 0.26292
 H266 H 0.28863 -0.13946 0.32922
 H267 H 0.40053 -0.05721 0.39789
 C268 C 0.84591 0.51017 0.33786
 C269 C 0.87838 0.51609 0.34698
 C270 C 0.90034 0.51917 0.27208
 C271 C 0.92693 0.51397 0.28669
 H272 H 0.88842 0.51613 0.41245
 H273 H 0.89360 0.52308 0.20593
 H274 H 0.83606 0.51186 0.27358
 H275 H 0.93196 0.50826 0.35291
 C276 C 0.42773 0.31686 0.39508
 C277 C 0.44700 0.35231 0.39692
 C278 C 0.44943 0.37443 0.32150
 C279 C 0.46947 0.40964 0.32942
 H280 H 0.46267 0.36573 0.45510
 H281 H 0.43515 0.36227 0.26076
 H282 H 0.41395 0.30323 0.33497
 H283 H 0.48321 0.42121 0.39118
 C284 C 0.67344 0.18535 0.32871
 C285 C 0.67546 0.17302 0.25009
 C286 C 0.64409 0.15561 0.19261
 C287 C 0.64032 0.13198 0.13174
 H288 H 0.69700 0.16903 0.23692
 H289 H 0.62158 0.15731 0.21064
 H290 H 0.65036 0.18652 0.34351
 H291 H 0.66258 0.12994 0.11345
 C292 C 0.42347 0.13538 -0.37030
 C293 C 0.42805 0.10763 -0.37498
 C294 C 0.42850 0.08816 -0.29636
 C295 C 0.43871 0.06470 -0.30510
 H296 H 0.43396 0.09982 -0.43655
 H297 H 0.42193 0.09375 -0.23231
 H298 H 0.41899 0.14273 -0.30573
 H299 H 0.44593 0.06019 -0.36959
 C300 C 0.70406 0.52365 -0.30241
 C301 C 0.68911 0.54158 -0.27610
 C302 C 0.66660 0.53070 -0.19891
 C303 C 0.66249 0.55436 -0.15496
 H304 H 0.69135 0.56328 -0.31487
 H305 H 0.64981 0.50263 -0.18593
 H306 H 0.70588 0.50595 -0.25593
 H307 H 0.68039 0.58244 -0.16507
 C308 C 0.85313 0.26846 -0.33144
 C309 C 0.88718 0.28497 -0.30902
 C310 C 0.90166 0.30731 -0.22922
 C311 C 0.88968 0.32796 -0.20242
 H312 H 0.90590 0.28411 -0.35173
 H313 H 0.92689 0.31263 -0.20514
 H314 H 0.83490 0.26571 -0.28105
 H315 H 0.86671 0.32568 -0.23399
 C316 C 0.53749 -0.14981 -0.28792
 C317 C 0.55742 -0.11947 -0.24340
 C318 C 0.54527 -0.10757 -0.16850
 C319 C 0.51235 -0.11463 -0.16364
 H320 H 0.58358 -0.10102 -0.26635
 H321 H 0.56544 -0.08678 -0.12727
 H322 H 0.51227 -0.16998 -0.26346
 H323 H 0.49258 -0.13310 -0.20977
 C324 C 0.32870 0.47997 -0.35524
 C325 C 0.35721 0.47751 -0.36188
 C326 C 0.37663 0.47558 -0.28523
 C327 C 0.40920 0.48266 -0.29713
 H328 H 0.36799 0.47894 -0.42639
 H329 H 0.36553 0.47068 -0.22000
 H330 H 0.31645 0.47665 -0.29197
 H331 H 0.42027 0.48915 -0.36250
 C332 C 1.12001 0.68152 -0.39965
 C333 C 1.09352 0.64772 -0.40645
 C334 C 1.07599 0.62601 -0.32849
 C335 C 1.05621 0.59085 -0.33807
 H336 H 1.08601 0.63413 -0.46928
 H337 H 1.08029 0.63828 -0.26401
 H338 H 1.12765 0.69295 -0.33395
 H339 H 1.05325 0.57909 -0.40278
 C340 C 0.81359 0.45323 -0.37099
 C341 C 0.82383 0.46927 -0.29219
 C342 C 0.84656 0.46248 -0.23501
 C343 C 0.86729 0.48589 -0.17320
 H344 H 0.82072 0.49152 -0.27717
 H345 H 0.85018 0.44074 -0.25242
 H346 H 0.81957 0.43306 -0.38798
 H347 H 0.86416 0.50791 -0.15570
 C348 C 0.44543 0.30654 -0.28626
 C349 C 0.43198 0.32575 -0.25736
 C350 C 0.44372 0.34750 -0.17643
 C351 C 0.47758 0.37161 -0.16252
 H352 H 0.41152 0.32637 -0.29481
 H353 H 0.42413 0.35013 -0.14172
 H354 H 0.46133 0.30146 -0.24113
 H355 H 0.49701 0.37149 -0.20426
 C356 C 0.67363 0.13429 -0.37977
 C357 C 0.64033 0.10766 -0.38696
 C358 C 0.62048 0.08689 -0.31030
 C359 C 0.58605 0.06428 -0.31859
 H360 H 0.62688 0.10120 -0.45020
 H361 H 0.63357 0.09101 -0.24693
 H362 H 0.68720 0.13923 -0.31682
 H363 H 0.57318 0.06111 -0.38190
 C364 C 1.14775 0.44157 -0.39670
 C365 C 1.11582 0.43754 -0.40150
 C366 C 1.09711 0.43856 -0.32325
 C367 C 1.07070 0.44424 -0.33476
 H368 H 1.10360 0.43618 -0.46435
 H369 H 1.10528 0.43578 -0.25771
 H370 H 1.15996 0.44592 -0.33197
 H371 H 1.06415 0.44863 -0.40072
 C372 C 0.58880 0.72157 -0.35777
 C373 C 0.58437 0.68906 -0.36295
 C374 C 0.58078 0.66776 -0.28442
 C375 C 0.56756 0.63295 -0.29460
 H376 H 0.57991 0.67577 -0.42574
 H377 H 0.58753 0.67990 -0.21946
 H378 H 0.59030 0.73239 -0.29254
 H379 H 0.55983 0.62123 -0.35996
 C380 C 0.29932 -0.18207 -0.31013
 C381 C 0.29994 -0.16092 -0.24627
 C382 C 0.32952 -0.14416 -0.18310
 C383 C 0.33291 -0.11938 -0.12628
 H384 H 0.28185 -0.15147 -0.24963
 H385 H 0.35119 -0.14831 -0.19201
 H386 H 0.31817 -0.19054 -0.30904
 H387 H 0.31122 -0.11541 -0.11591
 C388 C 0.56627 -0.11317 0.39806
 C389 C 0.54714 -0.09779 0.39380
 C390 C 0.54803 -0.07637 0.31814
 C391 C 0.53056 -0.05937 0.32266
 H392 H 0.52946 -0.10164 0.44657
 H393 H 0.56283 -0.07433 0.26010
 H394 H 0.58246 -0.11075 0.34276
 H395 H 0.51672 -0.06105 0.38238
 C396 C 0.34804 0.53409 0.35063
 C397 C 0.34380 0.51802 0.27283
 C398 C 0.37469 0.52751 0.21941
 C399 C 0.37383 0.50522 0.15832
 H400 H 0.31918 0.49404 0.25676
 H401 H 0.39962 0.55040 0.23919
 H402 H 0.37365 0.55635 0.36870
 H403 H 0.34911 0.48215 0.13838
 C404 C 1.14795 0.69353 0.28206
 C405 C 1.11630 0.68141 0.24504
 C406 C 1.10256 0.65682 0.16875
 C407 C 1.11065 0.63182 0.15695
 H408 H 1.09822 0.68737 0.27615
 H409 H 1.08012 0.65448 0.13395
 H410 H 1.16745 0.69049 0.24828
 H411 H 1.13075 0.63195 0.19787
 C412 C 0.44603 0.16585 0.31281
 C413 C 0.42382 0.13462 0.27402
 C414 C 0.43238 0.12011 0.19706
 C415 C 0.46475 0.12664 0.18370
 H416 H 0.39866 0.11732 0.30375
 H417 H 0.41053 0.09816 0.16247
 H418 H 0.47006 0.18493 0.28099
 H419 H 0.48635 0.14632 0.22378
 C420 C 0.69625 0.53947 0.37535
 C421 C 0.67745 0.55522 0.38167
 C422 C 0.65569 0.55564 0.30848
 C423 C 0.62690 0.55641 0.32704
 H424 H 0.67613 0.56669 0.44330
 H425 H 0.66193 0.55342 0.24091
 H426 H 0.69785 0.52923 0.31177
 H427 H 0.61959 0.55569 0.39519
 C428 C 0.86700 0.27798 0.34454
 C429 C 0.89215 0.31231 0.34994
 C430 C 0.91254 0.33350 0.27396
 C431 C 0.93407 0.36844 0.28524
 H432 H 0.89699 0.32609 0.41248
 H433 H 0.90970 0.32108 0.21031
 H434 H 0.86000 0.26461 0.28109
 H435 H 0.93577 0.38017 0.34932
   
