data_POSCAR
  _audit_creation_date              2014-09-24
  _audit_creation_method            'ToBaCCo'
  _symmetry_space_group_name_H-M    'P1'
  _symmetry_Int_Tables_number       1
  _symmetry_cell_setting            triclinic
  loop_
  _symmetry_equiv_pos_as_xyz
 x,y,z
_cell_length_a 37.9744
_cell_length_b 37.2769
_cell_length_c 37.1288
_cell_angle_alpha 89.547100
_cell_angle_beta 89.940600
_cell_angle_gamma 89.869900
loop_
  _atom_site_label
  _atom_site_type_symbol
  _atom_site_fract_x
  _atom_site_fract_y
  _atom_site_fract_z
N1 N 0.18840 1.26312 0.16322
 N2 N 0.16360 1.26223 0.18800
 C3 C 0.14034 1.28885 0.18146
 C4 C 0.15142 1.30722 0.15118
 C5 C 0.18183 1.29033 0.14009
 H6 H 0.11665 1.29386 0.19684
 H7 H 0.19738 1.29666 0.11645
 Cu8 Cu 0.16307 1.22502 0.22504
 Cu9 Cu 0.22607 1.22762 0.16147
 Cu10 Cu 0.22552 1.16106 0.22733
 N11 N 0.16300 1.18760 0.26186
 N12 N 0.18758 1.16266 0.26262
 C13 C 0.18067 1.13934 0.28959
 C14 C 0.15025 1.15045 0.30645
 C15 C 0.13953 1.18097 0.28833
 H16 H 0.19602 1.11560 0.29578
 H17 H 0.11598 1.19650 0.29343
 N18 N 0.26169 1.16400 0.18932
 N19 N 0.26191 1.18936 0.16424
 C20 C 0.28880 1.18319 0.14139
 C21 C 0.30615 1.15269 0.15279
 C22 C 0.28844 1.14106 0.18306
 H23 H 0.29475 1.19903 0.11763
 H24 H 0.29405 1.11710 0.19866
 H25 H 0.19831 1.18656 0.18619
 H26 H 0.22592 1.21534 0.21580
 N27 N 0.81090 0.73857 0.16438
 N28 N 0.83527 0.73881 0.18954
 C29 C 0.85876 0.71253 0.18289
 C30 C 0.84832 0.69503 0.15216
 C31 C 0.81799 0.71210 0.14097
 H32 H 0.88212 0.70700 0.19862
 H33 H 0.80278 0.70625 0.11712
 Cu34 Cu 0.83503 0.77436 0.22763
 Cu35 Cu 0.77294 0.77364 0.16282
 Cu36 Cu 0.77275 0.83894 0.22866
 N37 N 0.83506 0.81214 0.26348
 N38 N 0.81062 0.83721 0.26385
 C39 C 0.81756 0.86044 0.29051
 C40 C 0.84786 0.84914 0.30756
 C41 C 0.85848 0.81862 0.28988
 H42 H 0.80228 0.88420 0.29644
 H43 H 0.88189 0.80292 0.29530
 N44 N 0.73661 0.83628 0.19078
 N45 N 0.73669 0.81137 0.16567
 C46 C 0.70980 0.81769 0.14280
 C47 C 0.69214 0.84782 0.15423
 C48 C 0.70968 0.85910 0.18453
 H49 H 0.70410 0.80227 0.11897
 H50 H 0.70386 0.88277 0.20010
 H51 H 0.80085 0.81380 0.18822
 H52 H 0.77234 0.78474 0.21728
 N53 N 0.81108 1.26197 -0.16302
 N54 N 0.83590 1.26109 -0.18777
 C55 C 0.85930 1.28738 -0.18130
 C56 C 0.84832 1.30554 -0.15109
 C57 C 0.81779 1.28884 -0.14001
 H58 H 0.88294 1.29246 -0.19678
 H59 H 0.80218 1.29516 -0.11651
 Cu60 Cu 0.83585 1.22442 -0.22474
 Cu61 Cu 0.77297 1.22702 -0.16126
 Cu62 Cu 0.77280 1.16161 -0.22733
 N63 N 0.83575 1.18776 -0.26175
 N64 N 0.81083 1.16329 -0.26263
 C65 C 0.81750 1.14035 -0.28966
 C66 C 0.84808 1.15125 -0.30644
 C67 C 0.85919 1.18121 -0.28819
 H68 H 0.80186 1.11700 -0.29593
 H69 H 0.88296 1.19642 -0.29319
 N70 N 0.73664 1.16445 -0.18927
 N71 N 0.73672 1.18934 -0.16410
 C72 C 0.70984 1.18309 -0.14117
 C73 C 0.69219 1.15304 -0.15262
 C74 C 0.70971 1.14175 -0.18298
 H75 H 0.70412 1.19851 -0.11732
 H76 H 0.70388 1.11813 -0.19860
 H77 H 0.80009 1.18587 -0.18603
 H78 H 0.77289 1.21564 -0.21557
 N79 N 0.19197 0.73715 -0.16526
 N80 N 0.17061 0.73522 -0.19304
 C81 C 0.14712 0.70877 -0.18722
 C82 C 0.15442 0.69342 -0.15415
 C83 C 0.18289 0.71194 -0.14083
 H84 H 0.12589 0.70181 -0.20526
 H85 H 0.19545 0.70796 -0.11497
 Cu86 Cu 0.17451 0.76835 -0.23343
 Cu87 Cu 0.22879 0.77329 -0.16210
 Cu88 Cu 0.22867 0.83939 -0.22814
 N89 N 0.17046 0.80873 -0.26648
 N90 N 0.19178 0.83642 -0.26442
 C91 C 0.18258 0.86090 -0.28959
 C92 C 0.15411 0.84764 -0.30819
 C93 C 0.14687 0.81462 -0.29296
 H94 H 0.19508 0.88670 -0.29343
 H95 H 0.12564 0.79668 -0.29999
 N96 N 0.26375 0.83745 -0.18906
 N97 N 0.26380 0.81222 -0.16386
 C98 C 0.29002 0.81882 -0.14043
 C99 C 0.30711 0.84950 -0.15158
 C100 C 0.28995 0.86076 -0.18232
 H101 H 0.29581 0.80302 -0.11660
 H102 H 0.29568 0.88457 -0.19807
 H103 H 0.19954 0.81042 -0.19099
 H104 H 0.23420 0.78532 -0.21633
 C105 C 0.49935 1.00085 0.00094
 C106 C -0.00044 0.50075 0.99929
 C107 C 0.99852 -0.00069 0.50075
 C108 C 0.09886 0.38465 1.09881
 N109 N 0.06736 0.39635 1.11141
 N110 N 0.04870 0.42047 1.09280
 C111 C 0.06098 0.43363 1.06105
 N112 N 0.09251 0.42199 1.04848
 N113 N 0.11118 0.39787 1.06709
 C114 C 0.11815 0.35745 1.11799
 C115 C 0.13397 0.33408 1.13375
 C116 C 0.04002 0.45811 1.04009
 C117 C 0.02198 0.47786 1.02197
 C118 C -0.09823 0.61665 1.09896
 N119 N -0.11146 0.60275 1.06816
 N120 N -0.09306 0.57869 1.04954
 C121 C -0.06091 0.56777 1.06118
 N122 N -0.04770 0.58164 1.09199
 N123 N -0.06609 0.60570 1.11061
 C124 C -0.11735 0.64371 1.11815
 C125 C -0.13315 0.66691 1.13387
 C126 C -0.04031 0.54334 1.04015
 C127 C -0.02256 0.52362 1.02197
 C128 C -0.09860 0.38438 0.90130
 N129 N -0.06683 0.39565 0.88897
 N130 N -0.04840 0.41981 0.90726
 C131 C -0.06119 0.43346 0.93841
 N132 N -0.09299 0.42224 0.95071
 N133 N -0.11142 0.39807 0.93241
 C134 C -0.11770 0.35718 0.88247
 C135 C -0.13339 0.33386 0.86699
 C136 C -0.04052 0.45802 0.95907
 C137 C -0.02268 0.47783 0.97693
 C138 C 0.09848 0.61611 0.89879
 N139 N 0.11293 0.59838 0.92721
 N140 N 0.09407 0.57455 0.94590
 C141 C 0.06020 0.56770 0.93673
 N142 N 0.04576 0.58539 0.90828
 N143 N 0.06462 0.60923 0.88958
 C144 C 0.11833 0.64284 0.87962
 C145 C 0.13486 0.66572 0.86397
 C146 C 0.03938 0.54338 0.95792
 C147 C 0.02158 0.52367 0.97629
 C148 C 1.09746 0.09808 0.38379
 N149 N 1.10909 0.06577 0.39595
 N150 N 1.09044 0.04726 0.42016
 C151 C 1.05963 0.06052 0.43295
 N152 N 1.04802 0.09286 0.42083
 N153 N 1.06667 0.11137 0.39662
 C154 C 1.11676 0.11726 0.35658
 C155 C 1.13265 0.13301 0.33323
 C156 C 1.03871 0.03977 0.45761
 C157 C 1.02076 0.02181 0.47757
 C158 C 1.09849 -0.10037 0.61626
 N159 N 1.06455 -0.10948 0.60971
 N160 N 1.04546 -0.09090 0.58590
 C161 C 1.05974 -0.06265 0.56791
 N162 N 1.09370 -0.05358 0.57441
 N163 N 1.11279 -0.07216 0.59822
 C164 C 1.11861 -0.11949 0.64291
 C165 C 1.13536 -0.13514 0.66572
 C166 C 1.03870 -0.04164 0.54354
 C167 C 1.02072 -0.02345 0.52379
 C168 C 0.90030 -0.09917 0.38470
 N169 N 0.93234 -0.11108 0.39570
 N170 N 0.95077 -0.09270 0.41984
 C171 C 0.93771 -0.06188 0.43376
 N172 N 0.90566 -0.04999 0.42279
 N173 N 0.88722 -0.06837 0.39865
 C174 C 0.88116 -0.11812 0.35754
 C175 C 0.86537 -0.13367 0.33425
 C176 C 0.95839 -0.04110 0.45823
 C177 C 0.97624 -0.02313 0.47794
 C178 C 0.90052 0.09904 0.61656
 N179 N 0.93286 0.11037 0.60597
 N180 N 0.95134 0.09172 0.58197
 C181 C 0.93803 0.06120 0.56780
 N182 N 0.90566 0.04990 0.57834
 N183 N 0.88718 0.06855 0.60235
 C184 C 0.88134 0.11819 0.64362
 C185 C 0.86556 0.13390 0.66686
 C186 C 0.95866 0.04016 0.54339
 C187 C 0.97642 0.02199 0.52366
 C188 C 0.38477 1.10010 0.10007
 N189 N 0.39667 1.11253 0.06787
 N190 N 0.42057 1.09400 0.04936
 C191 C 0.43332 1.06251 0.06251
 N192 N 0.42147 1.05012 0.09475
 N193 N 0.39757 1.06864 0.11326
 C194 C 0.35774 1.11910 0.11911
 C195 C 0.33448 1.13465 0.13470
 C196 C 0.45746 1.04156 0.04162
 C197 C 0.47689 1.02345 0.02354
 C198 C 0.61369 1.10022 -0.09948
 N199 N 0.60052 1.11334 -0.06825
 N200 N 0.57672 1.09475 -0.04950
 C201 C 0.56534 1.06249 -0.06141
 N202 N 0.57844 1.04941 -0.09268
 N203 N 0.60225 1.06800 -0.11143
 C204 C 0.64064 1.11934 -0.11870
 C205 C 0.66386 1.13496 -0.13441
 C206 C 0.54126 1.04154 -0.04020
 C207 C 0.52184 1.02344 -0.02190
 C208 C 0.38490 0.90231 -0.09833
 N209 N 0.39731 0.88938 -0.06654
 N210 N 0.42110 0.90781 -0.04795
 C211 C 0.43322 0.93970 -0.06061
 N212 N 0.42085 0.95260 -0.09244
 N213 N 0.39705 0.93418 -0.11103
 C214 C 0.35809 0.88329 -0.11751
 C215 C 0.33507 0.86768 -0.13324
 C216 C 0.45736 0.96045 -0.03967
 C217 C 0.47683 0.97840 -0.02160
 C218 C 0.61369 0.90090 0.10107
 N219 N 0.60165 0.88855 0.06911
 N220 N 0.57786 0.90724 0.05038
 C221 C 0.56537 0.93884 0.06305
 N222 N 0.57735 0.95115 0.09505
 N223 N 0.60114 0.93246 0.11378
 C224 C 0.64062 0.88170 0.12032
 C225 C 0.66383 0.86601 0.13604
 C226 C 0.54127 0.95992 0.04194
 C227 C 0.52184 0.97812 0.02370
   
