data_POSCAR
  _audit_creation_date              2014-09-24
  _audit_creation_method            'ToBaCCo'
  _symmetry_space_group_name_H-M    'P1'
  _symmetry_Int_Tables_number       1
  _symmetry_cell_setting            triclinic
  loop_
  _symmetry_equiv_pos_as_xyz
 x,y,z
_cell_length_a 12.1469
_cell_length_b 12.0778
_cell_length_c 12.2804
_cell_angle_alpha 88.237800
_cell_angle_beta 89.794200
_cell_angle_gamma 89.433500
loop_
  _atom_site_label
  _atom_site_type_symbol
  _atom_site_fract_x
  _atom_site_fract_y
  _atom_site_fract_z
C1 C 0.00497 0.50024 0.24876
 C2 C 0.00315 0.50636 0.74535
 C3 C 0.25082 -0.00095 0.49485
 C4 C 0.76049 -0.00522 0.49439
 C5 C 0.49262 0.24594 1.00763
 C6 C 0.49553 0.74975 0.99998
 B7 B 1.00072 1.12005 0.06235
 B8 B 1.00719 1.11345 -0.07303
 B9 B 1.11205 1.05911 0.00322
 B10 B 1.05640 0.99743 0.11769
 B11 B 0.91782 1.01813 0.10836
 B12 B 0.88607 1.08467 -0.01111
 B13 B 0.98193 0.88613 -0.05959
 B14 B 0.97557 0.89399 0.07667
 B15 B 0.87030 0.94772 0.00027
 B16 B 0.92893 1.00456 -0.11563
 B17 B 1.06686 0.99193 -0.10890
 B18 B 1.09784 0.92014 0.01062
 B19 B 0.61854 0.48398 0.43502
 B20 B 0.61791 0.47972 0.56935
 B21 B 0.58667 0.60187 0.50389
 B22 B 0.51487 0.57211 0.39127
 B23 B 0.49859 0.43086 0.38838
 B24 B 0.55970 0.37268 0.50222
 B25 B 0.39243 0.50794 0.57033
 B26 B 0.39304 0.51510 0.43093
 B27 B 0.42223 0.39130 0.50107
 B28 B 0.49773 0.42228 0.61434
 B29 B 0.51241 0.56160 0.61616
 B30 B 0.45000 0.61945 0.50428
 N31 N 0.92865 1.31226 0.05024
 N32 N 0.93816 1.41340 0.08452
 C33 C 1.01478 1.41193 0.16298
 C34 C 1.05224 1.30090 0.17472
 N35 N 0.99635 1.24160 0.10108
 H36 H 1.10607 1.26579 0.23676
 N37 N 0.85858 0.73608 0.13212
 N38 N 0.86640 0.63029 0.16005
 C39 C 0.97065 0.60998 0.19171
 C40 C 1.02748 0.70905 0.17827
 N41 N 0.95427 0.78564 0.14032
 H42 H 1.11363 0.72360 0.19384
 N43 N 1.12541 1.27997 -0.10232
 N44 N 1.12341 1.38451 -0.13594
 C45 C 1.02637 1.40194 -0.18557
 C46 C 0.96795 1.30211 -0.17871
 N47 N 1.03387 1.22741 -0.12724
 H48 H 0.88464 1.28640 -0.20432
 N49 N 0.87855 0.70699 -0.07792
 N50 N 0.88436 0.60784 -0.12002
 C51 C 0.97703 0.60394 -0.17959
 C52 C 1.02949 0.70656 -0.16680
 N53 N 0.96379 0.76926 -0.10537
 H54 H 1.10877 0.73445 -0.19443
 N55 N 1.03887 0.92053 0.30903
 N56 N 1.08375 0.91714 0.40677
 C57 C 1.17946 0.97025 0.39702
 C58 C 1.19250 1.00306 0.28637
 N59 N 1.09971 0.97496 0.23529
 H60 H 1.26006 1.04786 0.24887
 N61 N 1.08839 1.09813 -0.28446
 N62 N 1.12159 1.09912 -0.38598
 C63 C 1.18218 1.00779 -0.39938
 C64 C 1.18249 0.94874 -0.29660
 N65 N 1.12145 1.00956 -0.22597
 H66 H 1.22238 0.87059 -0.27606
 N67 N 0.89165 1.13155 0.26997
 N68 N 0.86488 1.12411 0.37370
 C69 C 0.81500 1.02666 0.38866
 C70 C 0.81112 0.97472 0.28903
 N71 N 0.86100 1.04350 0.21641
 H72 H 0.78150 0.89266 0.27307
 N73 N 0.94077 0.91469 -0.29182
 N74 N 0.92084 0.92571 -0.39611
 C75 C 0.84441 1.00519 -0.41101
 C76 C 0.83185 1.05355 -0.30862
 N77 N 0.88920 0.99045 -0.23463
 H78 H 0.79099 1.13094 -0.29296
 N79 N 1.28834 1.06956 -0.09325
 N80 N 1.38756 1.10978 -0.09109
 C81 C 1.39332 1.17403 -0.00402
 C82 C 1.29141 1.17101 0.04873
 N83 N 1.22877 1.10281 -0.00996
 H84 H 1.26398 1.21632 0.11826
 N85 N 0.71702 1.10982 -0.11418
 N86 N 0.61125 1.12617 -0.10164
 C87 C 0.59590 1.17422 -0.00552
 C88 C 0.70125 1.18571 0.04044
 N89 N 0.77503 1.14395 -0.03109
 H90 H 0.72145 1.21882 0.11867
 N91 N 1.19513 0.73787 -0.00229
 N92 N 1.29444 0.69394 -0.00793
 C93 C 1.36969 0.77381 0.00732
 C94 C 1.30935 0.86785 0.03148
 N95 N 1.20045 0.84374 0.01913
 H96 H 1.34301 0.94397 0.05911
 N97 N 0.68093 0.95161 0.08598
 N98 N 0.57838 0.91728 0.07733
 C99 C 0.57351 0.84960 -0.00752
 C100 C 0.68136 0.84810 -0.05163
 N101 N 0.74680 0.91051 0.01060
 H102 H 0.71011 0.80150 -0.11915
 N103 N 0.76736 0.36074 0.36081
 N104 N 0.87084 0.35957 0.32742
 C105 C 0.90761 0.46423 0.32346
 C106 C 0.81842 0.52918 0.35754
 N107 N 0.73164 0.46224 0.37863
 H108 H 0.81509 0.61788 0.35332
 N109 N 0.21131 0.61118 0.42007
 N110 N 0.10966 0.60262 0.38518
 C111 C 0.10904 0.52157 0.31320
 C112 C 0.21798 0.48287 0.30361
 N113 N 0.27914 0.53878 0.37616
 H114 H 0.24859 0.41957 0.25071
 N115 N 0.79851 0.37867 0.58233
 N116 N 0.90139 0.39108 0.61330
 C117 C 0.90444 0.48221 0.67351
 C118 C 0.79719 0.52549 0.67672
 N119 N 0.73372 0.45879 0.61790
 H120 H 0.76784 0.59942 0.71533
 N121 N 0.24247 0.63341 0.62833
 N122 N 0.13719 0.63536 0.65295
 C123 C 0.10562 0.53116 0.67508
 C124 C 0.19775 0.46319 0.65453
 N125 N 0.28191 0.53112 0.62723
 H126 H 0.20328 0.37374 0.66111
 N127 N 0.63385 0.65417 0.24546
 N128 N 0.63310 0.68482 0.14146
 C129 C 0.52793 0.68973 0.10799
 C130 C 0.46330 0.66010 0.19936
 N131 N 0.53317 0.63824 0.28339
 H132 H 0.37462 0.65440 0.20383
 N133 N 0.44040 0.54890 0.80436
 N134 N 0.44781 0.58173 0.90440
 C135 C 0.50939 0.67254 0.90321
 C136 C 0.54523 0.68947 0.79329
 N137 N 0.50212 0.60639 0.73469
 H138 H 0.59032 0.75825 0.75775
 N139 N 0.58264 0.43187 0.20680
 N140 N 0.58034 0.39258 0.10899
 C141 C 0.50290 0.31457 0.10860
 C142 C 0.45788 0.30684 0.21435
 N143 N 0.50967 0.38449 0.27282
 H144 H 0.39764 0.24913 0.24567
 N145 N 0.60472 0.39293 0.78178
 N146 N 0.59896 0.36983 0.88615
 C147 C 0.50124 0.32233 0.90588
 C148 C 0.44569 0.31977 0.80440
 N149 N 0.51428 0.36627 0.72887
 H150 H 0.36420 0.28931 0.78784
 N151 N 0.76693 0.69442 0.51618
 N152 N 0.81356 0.79140 0.50581
 C153 C 0.73459 0.86987 0.49129
 C154 C 0.63755 0.81367 0.48200
 N155 N 0.66035 0.70399 0.50211
 H156 H 0.56135 0.85096 0.45596
 N157 N 0.58902 0.19622 0.61340
 N158 N 0.62246 0.09205 0.61040
 C159 C 0.66283 0.07550 0.51045
 C160 C 0.64167 0.17464 0.44953
 N161 N 0.60091 0.25011 0.51847
 H162 H 0.65902 0.19044 0.36418
 N163 N 0.43479 0.79517 0.60670
 N164 N 0.39534 0.89734 0.60306
 C165 C 0.33862 0.90975 0.50989
 C166 C 0.34817 0.80983 0.45488
 N167 N 0.40774 0.73956 0.51937
 H168 H 0.31222 0.78985 0.37760
 N169 N 0.27444 0.28766 0.41378
 N170 N 0.23847 0.18684 0.40121
 C171 C 0.29225 0.11760 0.47145
 C172 C 0.35738 0.18497 0.53420
 N173 N 0.34725 0.29032 0.49243
 H174 H 0.39884 0.16006 0.60827
   
