data_POSCAR
  _audit_creation_date              2014-09-24
  _audit_creation_method            'ToBaCCo'
  _symmetry_space_group_name_H-M    'P1'
  _symmetry_Int_Tables_number       1
  _symmetry_cell_setting            triclinic
  loop_
  _symmetry_equiv_pos_as_xyz
 x,y,z
_cell_length_a 49.2653
_cell_length_b 51.2749
_cell_length_c 47.6528
_cell_angle_alpha 90.458700
_cell_angle_beta 87.647100
_cell_angle_gamma 81.120000
loop_
  _atom_site_label
  _atom_site_type_symbol
  _atom_site_fract_x
  _atom_site_fract_y
  _atom_site_fract_z
N1 N 0.29569 0.22460 0.22377
 N2 N 0.28471 0.24790 0.21480
 C3 C 0.30098 0.25529 0.19387
 C4 C 0.32343 0.23554 0.18964
 C5 C 0.31943 0.21647 0.20905
 H6 H 0.29673 0.27361 0.18265
 H7 H 0.33271 0.19793 0.21210
 Cu8 Cu 0.25028 0.26625 0.23165
 Cu9 Cu 0.27843 0.20672 0.25409
 Cu10 Cu 0.20943 0.23096 0.26747
 N11 N 0.21753 0.28343 0.25273
 N12 N 0.20135 0.26924 0.26633
 C13 C 0.17968 0.28531 0.27809
 C14 C 0.18243 0.31098 0.27175
 C15 C 0.20671 0.30917 0.25554
 H16 H 0.16305 0.27875 0.29029
 H17 H 0.21567 0.32519 0.24622
 N18 N 0.22665 0.19595 0.27931
 N19 N 0.25316 0.18709 0.27545
 C20 C 0.25895 0.16371 0.28835
 C21 C 0.23484 0.15780 0.30100
 C22 C 0.21484 0.17858 0.29473
 H23 H 0.27925 0.15223 0.28891
 H24 H 0.19348 0.18143 0.30197
 H25 H 0.24213 0.22066 0.23749
 H26 H 0.24875 0.23673 0.27127
 N27 N 0.68808 -0.22202 0.21771
 N28 N 0.69868 -0.24655 0.21112
 C29 C 0.68506 -0.25560 0.19007
 C30 C 0.66230 -0.23452 0.18147
 C31 C 0.66678 -0.21349 0.20159
 H32 H 0.68989 -0.27523 0.18096
 H33 H 0.65478 -0.19397 0.20332
 Cu34 Cu 0.72919 -0.26501 0.23170
 Cu35 Cu 0.70231 -0.20251 0.24772
 Cu36 Cu 0.76970 -0.22718 0.26203
 N37 N 0.76248 -0.28056 0.24994
 N38 N 0.77827 -0.26545 0.26160
 C39 C 0.80013 -0.28063 0.27205
 C40 C 0.79792 -0.30672 0.26688
 C41 C 0.77374 -0.30605 0.25274
 H42 H 0.81645 -0.27319 0.28262
 H43 H 0.76504 -0.32267 0.24493
 N44 N 0.75214 -0.19117 0.27252
 N45 N 0.72617 -0.18204 0.26803
 C46 C 0.71964 -0.15783 0.27985
 C47 C 0.74256 -0.15154 0.29253
 C48 C 0.76283 -0.17312 0.28745
 H49 H 0.69950 -0.14594 0.27992
 H50 H 0.78343 -0.17609 0.29507
 H51 H 0.73921 -0.21986 0.23242
 H52 H 0.72952 -0.23122 0.26803
 N53 N 0.73041 0.25221 0.77402
 N54 N 0.74014 0.27114 0.78730
 C55 C 0.72240 0.28040 0.80867
 C56 C 0.70031 0.26669 0.80845
 C57 C 0.70597 0.24912 0.78614
 H58 H 0.72506 0.29626 0.82290
 H59 H 0.69343 0.23481 0.77958
 Cu60 Cu 0.77440 0.28285 0.77479
 Cu61 Cu 0.75090 0.23174 0.74330
 Cu62 Cu 0.80763 0.25589 0.71575
 N63 N 0.80279 0.29919 0.75508
 N64 N 0.81559 0.28843 0.73209
 C65 C 0.83407 0.30342 0.72278
 C66 C 0.83287 0.32477 0.74078
 C67 C 0.81273 0.32158 0.76117
 H68 H 0.84745 0.29915 0.70420
 H69 H 0.80578 0.33440 0.77900
 N70 N 0.79643 0.22320 0.70199
 N71 N 0.77469 0.21387 0.71238
 C72 C 0.77251 0.19125 0.69864
 C73 C 0.79395 0.18630 0.67865
 C74 C 0.80860 0.20692 0.68135
 H75 H 0.75650 0.17940 0.70283
 H76 H 0.82684 0.20976 0.66907
 H77 H 0.78933 0.24054 0.75091
 H78 H 0.76647 0.26451 0.72932
 N79 N 0.26583 -0.26473 0.78334
 N80 N 0.25799 -0.28714 0.79085
 C81 C 0.27318 -0.29723 0.81224
 C82 C 0.29146 -0.28027 0.81840
 C83 C 0.28621 -0.25983 0.79961
 H84 H 0.27122 -0.31556 0.82263
 H85 H 0.29637 -0.24265 0.79782
 Cu86 Cu 0.22866 -0.30085 0.77188
 Cu87 Cu 0.24908 -0.24343 0.75308
 Cu88 Cu 0.19773 -0.26778 0.71833
 N89 N 0.20022 -0.31460 0.75146
 N90 N 0.18836 -0.30144 0.73053
 C91 C 0.16949 -0.31481 0.72015
 C92 C 0.16937 -0.33756 0.73536
 C93 C 0.18920 -0.33692 0.75513
 H94 H 0.15657 -0.30837 0.70293
 H95 H 0.19507 -0.35138 0.77102
 N96 N 0.20993 -0.23406 0.70887
 N97 N 0.22961 -0.22478 0.72194
 C98 C 0.23353 -0.20171 0.71027
 C99 C 0.21538 -0.19633 0.68890
 C100 C 0.20076 -0.21716 0.68866
 H101 H 0.24855 -0.18984 0.71674
 H102 H 0.18483 -0.21987 0.67446
 H103 H 0.21149 -0.25634 0.75634
 H104 H 0.23786 -0.27462 0.73112
 N105 N 0.68995 -0.23374 0.75527
 N106 N 0.70266 -0.25395 0.76878
 C107 C 0.68676 -0.25907 0.79106
 C108 C 0.66268 -0.24109 0.79137
 C109 C 0.66539 -0.22536 0.76833
 H110 H 0.69252 -0.27457 0.80591
 H111 H 0.65068 -0.20891 0.76170
 Cu112 Cu 0.73877 -0.27158 0.75613
 Cu113 Cu 0.70644 -0.22027 0.72173
 Cu114 Cu 0.77738 -0.23835 0.71383
 N115 N 0.77819 -0.28163 0.75191
 N116 N 0.79354 -0.26823 0.73618
 C117 C 0.82005 -0.27953 0.73748
 C118 C 0.82120 -0.30124 0.75478
 C119 C 0.79418 -0.30187 0.76365
 H120 H 0.83713 -0.27293 0.72610
 H121 H 0.78651 -0.31586 0.77756
 N122 N 0.75655 -0.20906 0.69298
 N123 N 0.72955 -0.20268 0.69582
 C124 C 0.72122 -0.18254 0.67874
 C125 C 0.74392 -0.17597 0.66428
 C126 C 0.76607 -0.19316 0.67374
 H127 H 0.70012 -0.17326 0.67693
 H128 H 0.78744 -0.19411 0.66707
 H129 H 0.73977 -0.24964 0.71051
 H130 H 0.74338 -0.22739 0.74078
 N131 N 0.32983 0.23381 0.76062
 N132 N 0.31648 0.25469 0.77403
 C133 C 0.33042 0.25985 0.79657
 C134 C 0.35393 0.24119 0.79719
 C135 C 0.35293 0.22503 0.77403
 H136 H 0.32375 0.27591 0.81131
 H137 H 0.36777 0.20803 0.76753
 Cu138 Cu 0.28220 0.27318 0.76086
 Cu139 Cu 0.31589 0.22005 0.72686
 Cu140 Cu 0.24598 0.24038 0.71827
 N141 N 0.24350 0.28474 0.75610
 N142 N 0.22903 0.27177 0.73992
 C143 C 0.20276 0.28413 0.74092
 C144 C 0.20092 0.30591 0.75879
 C145 C 0.22711 0.30561 0.76799
 H146 H 0.18641 0.27785 0.72938
 H147 H 0.23373 0.31961 0.78233
 N148 N 0.26754 0.20943 0.69819
 N149 N 0.29421 0.20236 0.70110
 C150 C 0.30326 0.18116 0.68460
 C151 C 0.28137 0.17448 0.67058
 C152 C 0.25896 0.19280 0.67959
 H153 H 0.32425 0.17109 0.68307
 H154 H 0.23807 0.19402 0.67302
 H155 H 0.28457 0.24998 0.71524
 H156 H 0.27729 0.22900 0.74550
 N157 N 0.27371 -0.26845 0.22694
 N158 N 0.26453 -0.28903 0.21645
 C159 C 0.27992 -0.29780 0.19334
 C160 C 0.29984 -0.28189 0.18914
 C161 C 0.29539 -0.26343 0.21089
 H162 H 0.27670 -0.31436 0.18035
 H163 H 0.30676 -0.24742 0.21466
 Cu164 Cu 0.23313 -0.30219 0.23349
 Cu165 Cu 0.25637 -0.24958 0.26026
 Cu166 Cu 0.19456 -0.26724 0.28487
 N167 N 0.19629 -0.30851 0.24337
 N168 N 0.18114 -0.29509 0.26356
 C169 C 0.15674 -0.30390 0.26595
 C170 C 0.15680 -0.32379 0.24603
 C171 C 0.18214 -0.32610 0.23211
 H172 H 0.14030 -0.29637 0.28097
 H173 H 0.18976 -0.33973 0.21512
 N174 N 0.21204 -0.23964 0.30312
 N175 N 0.23559 -0.23304 0.29366
 C176 C 0.24225 -0.21388 0.31031
 C177 C 0.22193 -0.20811 0.33131
 C178 C 0.20310 -0.22476 0.32610
 H179 H 0.26048 -0.20477 0.30724
 H180 H 0.18427 -0.22588 0.33821
 H181 H 0.23633 -0.27879 0.27765
 H182 H 0.21775 -0.25748 0.25065
 N183 N 0.70147 0.28599 0.23504
 N184 N 0.71448 0.30351 0.22260
 C185 C 0.70180 0.31143 0.19898
 C186 C 0.67960 0.29822 0.19659
 C187 C 0.67989 0.28226 0.21993
 H188 H 0.70836 0.32558 0.18448
 H189 H 0.66583 0.26871 0.22545
 Cu190 Cu 0.74673 0.31416 0.23844
 Cu191 Cu 0.71399 0.26927 0.26963
 Cu192 Cu 0.78228 0.27293 0.28293
 N193 N 0.78432 0.31703 0.24635
 N194 N 0.79846 0.30084 0.26358
 C195 C 0.82381 0.30726 0.26574
 C196 C 0.82686 0.33040 0.24774
 C197 C 0.79953 0.33471 0.23615
 H198 H 0.83931 0.29723 0.27898
 H199 H 0.79227 0.35009 0.22166
 N200 N 0.76159 0.24660 0.30048
 N201 N 0.73539 0.24608 0.29604
 C202 C 0.72685 0.22650 0.31094
 C203 C 0.74862 0.21399 0.32546
 C204 C 0.77040 0.22719 0.31844
 H205 H 0.70640 0.22129 0.31076
 H206 H 0.79107 0.22298 0.32576
 H207 H 0.74290 0.29186 0.28365
 H208 H 0.75332 0.26866 0.25351
 O209 O 0.23371 0.00648 0.46981
 O210 O 0.22889 -0.03668 0.53114
 O211 O 0.22669 0.01405 0.52403
 O212 O 0.23384 -0.04385 0.47690
 O213 O 0.27893 -0.04912 0.47982
 O214 O 0.27175 0.00909 0.52708
 O215 O 0.27536 -0.04167 0.53409
 O216 O 0.28015 0.00108 0.47318
 Cu217 Cu 0.22654 -0.01450 0.50021
 Cu218 Cu 0.28068 -0.02062 0.50383
 C219 C 0.25810 0.01204 0.45971
 C220 C 0.25146 -0.04760 0.54434
 C221 C 0.24792 0.02150 0.53357
 C222 C 0.25753 -0.05637 0.47029
 O223 O 0.76221 0.03545 0.51641
 O224 O 0.76912 -0.00878 0.45505
 O225 O 0.76616 -0.01527 0.50912
 O226 O 0.76830 0.04178 0.46254
 O227 O 0.81352 0.03643 0.46454
 O228 O 0.81273 -0.02026 0.51107
 O229 O 0.81432 -0.01438 0.45682
 O230 O 0.80738 0.03053 0.51874
 Cu231 Cu 0.76209 0.01381 0.48550
 Cu232 Cu 0.81635 0.00768 0.48786
 C233 C 0.78345 0.04051 0.52812
 C234 C 0.79270 -0.01931 0.44552
 C235 C 0.78933 -0.02867 0.51923
 C236 C 0.79130 0.04885 0.45575
 O237 O 0.48414 0.24965 0.02637
 O238 O 0.54457 0.24534 -0.02272
 O239 O 0.53687 0.24570 0.03148
 O240 O 0.49137 0.24916 -0.02817
 O241 O 0.48724 0.29267 -0.02720
 O242 O 0.53369 0.28915 0.03152
 O243 O 0.54014 0.28887 -0.02320
 O244 O 0.48081 0.29310 0.02727
 Cu245 Cu 0.51458 0.24308 0.00157
 Cu246 Cu 0.51014 0.29531 0.00213
 C247 C 0.47236 0.27212 0.03541
 C248 C 0.55257 0.26636 -0.03137
 C249 C 0.54301 0.26686 0.04165
 C250 C 0.48139 0.27152 -0.03767
 O251 O 0.51150 0.71389 0.01828
 O252 O 0.45608 0.72140 -0.03216
 O253 O 0.50967 0.71409 -0.03620
 O254 O 0.45809 0.72168 0.02252
 O255 O 0.45744 0.76485 0.02258
 O256 O 0.50931 0.75722 -0.03585
 O257 O 0.45572 0.76452 -0.03199
 O258 O 0.51090 0.75705 0.01866
 Cu259 Cu 0.48382 0.71344 -0.00694
 Cu260 Cu 0.48328 0.76524 -0.00668
 C261 C 0.52059 0.73418 0.02711
 C262 C 0.44649 0.74426 -0.04070
 C263 C 0.51839 0.73438 -0.04591
 C264 C 0.44908 0.74453 0.03263
 O265 O 0.02495 0.48106 0.24044
 O266 O -0.04223 0.52289 0.23988
 O267 O 0.00845 0.53170 0.24166
 O268 O -0.02580 0.47223 0.24269
 O269 O -0.02784 0.47368 0.28908
 O270 O 0.00619 0.53238 0.28942
 O271 O -0.04455 0.52455 0.28624
 O272 O 0.02317 0.48164 0.28682
 Cu273 Cu -0.00851 0.50185 0.23668
 Cu274 Cu -0.01102 0.50311 0.29232
 C275 C 0.03554 0.47412 0.26350
 C276 C -0.05480 0.53102 0.26274
 C277 C 0.01404 0.54336 0.26579
 C278 C -0.03259 0.46289 0.26616
 O279 O 0.02272 0.51449 0.73746
 O280 O -0.03167 0.47197 0.74293
 O281 O -0.03120 0.52232 0.73842
 O282 O 0.02157 0.46388 0.73334
 O283 O 0.02377 0.46272 0.77950
 O284 O -0.02821 0.52334 0.78448
 O285 O -0.02834 0.47139 0.78903
 O286 O 0.02648 0.51191 0.78480
 Cu287 Cu -0.00489 0.49321 0.73357
 Cu288 Cu -0.00194 0.49296 0.78852
 C289 C 0.03533 0.52105 0.76062
 C290 C -0.03921 0.46451 0.76708
 C291 C -0.03883 0.53279 0.76211
 C292 C 0.03149 0.45308 0.75523
 C293 C 0.34679 0.23415 0.16903
 C294 C 0.34901 0.25384 0.14933
 C295 C 0.37213 0.25292 0.12815
 C296 C 0.37588 0.27623 0.11427
 C297 C 0.39728 0.27635 0.09407
 C298 C 0.41551 0.25301 0.08725
 C299 C 0.41139 0.22959 0.10070
 C300 C 0.38998 0.22947 0.12088
 C301 C 0.43861 0.25200 0.06603
 C302 C 0.44873 0.27423 0.05571
 H303 H 0.33342 0.27122 0.14984
 H304 H 0.36219 0.29449 0.11911
 H305 H 0.39905 0.29471 0.08371
 H306 H 0.42484 0.21124 0.09558
 H307 H 0.38740 0.21085 0.13027
 H308 H 0.44881 0.23269 0.05893
 H309 H 0.36266 0.21713 0.16990
 H310 H 0.43988 0.29379 0.06312
 C311 C 0.63968 0.76671 0.15869
 C312 C 0.63695 0.74561 0.14110
 C313 C 0.61536 0.74751 0.12013
 C314 C 0.61294 0.72530 0.10357
 C315 C 0.59269 0.72648 0.08365
 C316 C 0.57433 0.75000 0.07997
 C317 C 0.57701 0.77228 0.09631
 C318 C 0.59719 0.77108 0.11624
 C319 C 0.55265 0.75235 0.05902
 C320 C 0.54258 0.73083 0.04740
 H321 H 0.65085 0.72715 0.14287
 H322 H 0.62682 0.70697 0.10599
 H323 H 0.59190 0.70906 0.07098
 H324 H 0.56330 0.79069 0.09377
 H325 H 0.59852 0.78865 0.12854
 H326 H 0.54338 0.77206 0.05335
 H327 H 0.65201 0.76463 0.17008
 H328 H 0.55026 0.71097 0.05379
 C329 C 0.67563 0.26989 -0.17265
 C330 C 0.67605 0.27849 -0.14490
 C331 C 0.65162 0.28011 -0.12559
 C332 C 0.65469 0.27147 -0.09789
 C333 C 0.63172 0.27245 -0.07943
 C334 C 0.60540 0.28286 -0.08819
 C335 C 0.60245 0.29229 -0.11562
 C336 C 0.62531 0.29057 -0.13434
 C337 C 0.58102 0.28479 -0.06878
 C338 C 0.57679 0.26437 -0.05079
 H339 H 0.69537 0.28170 -0.13644
 H340 H 0.67484 0.26356 -0.09069
 H341 H 0.63456 0.26554 -0.05818
 H342 H 0.58236 0.30063 -0.12267
 H343 H 0.62251 0.29780 -0.15548
 H344 H 0.56513 0.30184 -0.07008
 H345 H 0.65728 0.26337 -0.18011
 H346 H 0.59099 0.24597 -0.05187
 C347 C 0.31189 0.71613 -0.15959
 C348 C 0.32973 0.73432 -0.15497
 C349 C 0.35083 0.73176 -0.13330
 C350 C 0.36516 0.75301 -0.12906
 C351 C 0.38547 0.75166 -0.10924
 C352 C 0.39190 0.72892 -0.09298
 C353 C 0.37781 0.70754 -0.09742
 C354 C 0.35750 0.70888 -0.11729
 C355 C 0.41360 0.72636 -0.07199
 C356 C 0.42452 0.74769 -0.06101
 H357 H 0.32803 0.75177 -0.16778
 H358 H 0.36074 0.77078 -0.14127
 H359 H 0.39629 0.76832 -0.10725
 H360 H 0.38254 0.68966 -0.08545
 H361 H 0.34750 0.69178 -0.12005
 H362 H 0.42092 0.70678 -0.06439
 H363 H 0.31240 0.69877 -0.14684
 H364 H 0.41675 0.76763 -0.06703
 C365 C 0.16249 0.33442 0.28011
 C366 C 0.16526 0.35988 0.27166
 C367 C 0.14336 0.38276 0.27731
 C368 C 0.14101 0.40395 0.25870
 C369 C 0.11911 0.42475 0.26187
 C370 C 0.09915 0.42477 0.28386
 C371 C 0.10256 0.40452 0.30360
 C372 C 0.12441 0.38365 0.30036
 C373 C 0.07421 0.44501 0.28614
 C374 C 0.06231 0.45690 0.26246
 H375 H 0.18277 0.36275 0.25821
 H376 H 0.15567 0.40402 0.24113
 H377 H 0.11777 0.44062 0.24691
 H378 H 0.08778 0.40439 0.32105
 H379 H 0.12622 0.36823 0.31583
 H380 H 0.06335 0.44847 0.30639
 H381 H 0.14426 0.33103 0.29208
 H382 H 0.07187 0.45194 0.24187
 C383 C 0.15202 0.64378 0.73112
 C384 C 0.15167 0.62154 0.74778
 C385 C 0.13174 0.60297 0.74430
 C386 C 0.12462 0.58845 0.76753
 C387 C 0.10508 0.57154 0.76548
 C388 C 0.09239 0.56858 0.73995
 C389 C 0.10017 0.58244 0.71645
 C390 C 0.11967 0.59944 0.71853
 C391 C 0.07084 0.55158 0.73750
 C392 C 0.06078 0.53963 0.76090
 H393 H 0.16498 0.61859 0.76537
 H394 H 0.13381 0.59058 0.78753
 H395 H 0.09981 0.56098 0.78401
 H396 H 0.09095 0.58028 0.69647
 H397 H 0.12532 0.60957 0.69987
 H398 H 0.06215 0.54913 0.71727
 H399 H 0.13758 0.64757 0.71459
 H400 H 0.04824 0.53068 0.75882
 C401 C -0.18305 0.67169 0.27442
 C402 C -0.18543 0.64554 0.26795
 C403 C -0.16364 0.62325 0.27403
 C404 C -0.16003 0.60075 0.25654
 C405 C -0.13826 0.58028 0.26024
 C406 C -0.11976 0.58189 0.28168
 C407 C -0.12444 0.60358 0.30030
 C408 C -0.14612 0.62413 0.29651
 C409 C -0.09505 0.56177 0.28454
 C410 C -0.08139 0.54831 0.26126
 H411 H -0.20244 0.64137 0.25587
 H412 H -0.17360 0.59935 0.23945
 H413 H -0.13590 0.56334 0.24617
 H414 H -0.11079 0.60502 0.31730
 H415 H -0.14898 0.64067 0.31113
 H416 H -0.08575 0.55962 0.30477
 H417 H -0.16513 0.67586 0.28497
 H418 H -0.08934 0.55201 0.24059
 C419 C -0.15077 0.34456 0.73792
 C420 C -0.15206 0.36583 0.75667
 C421 C -0.13340 0.38582 0.75376
 C422 C -0.12774 0.39976 0.77771
 C423 C -0.10915 0.41778 0.77602
 C424 C -0.09579 0.42223 0.75019
 C425 C -0.10249 0.40924 0.72601
 C426 C -0.12109 0.39126 0.72770
 C427 C -0.07497 0.44020 0.74755
 C428 C -0.06060 0.44756 0.77019
 H429 H -0.16582 0.36699 0.77511
 H430 H -0.13738 0.39637 0.79792
 H431 H -0.10552 0.42817 0.79498
 H432 H -0.09299 0.41273 0.70576
 H433 H -0.12581 0.38184 0.70851
 H434 H -0.06970 0.44674 0.72674
 H435 H -0.13584 0.34257 0.72044
 H436 H -0.06454 0.44038 0.79099
 C437 C 0.23065 0.13578 0.31948
 C438 C 0.25224 0.11691 0.32778
 C439 C 0.24875 0.09685 0.34931
 C440 C 0.27177 0.08563 0.36386
 C441 C 0.26918 0.06769 0.38535
 C442 C 0.24342 0.06043 0.39263
 C443 C 0.22056 0.07098 0.37749
 C444 C 0.22316 0.08892 0.35596
 C445 C 0.23978 0.04240 0.41611
 C446 C 0.26168 0.03168 0.43192
 H447 H 0.27293 0.11822 0.31998
 H448 H 0.29176 0.09120 0.35900
 H449 H 0.28732 0.05981 0.39645
 H450 H 0.20057 0.06546 0.38246
 H451 H 0.20508 0.09636 0.34462
 H452 H 0.21942 0.03786 0.42143
 H453 H 0.21005 0.13574 0.32816
 H454 H 0.25888 0.02218 0.44544
 C455 C 0.80039 0.16451 0.65801
 C456 C 0.78529 0.14369 0.65673
 C457 C 0.79046 0.12267 0.63477
 C458 C 0.76932 0.10822 0.62904
 C459 C 0.77279 0.08913 0.60758
 C460 C 0.79758 0.08411 0.59130
 C461 C 0.81920 0.09762 0.59794
 C462 C 0.81574 0.11671 0.61944
 C463 C 0.80154 0.06508 0.56738
 C464 C 0.77965 0.05832 0.55273
 H465 H 0.76786 0.14362 0.67130
 H466 H 0.74986 0.11201 0.64092
 H467 H 0.75602 0.07835 0.60398
 H468 H 0.83870 0.09372 0.58613
 H469 H 0.83298 0.12656 0.62392
 H470 H 0.82236 0.05747 0.55994
 H471 H 0.81712 0.16565 0.64290
 H472 H 0.75877 0.06694 0.55877
 C473 C 0.21217 -0.17404 0.66941
 C474 C 0.22951 -0.15495 0.66887
 C475 C 0.22799 -0.13393 0.64761
 C476 C 0.25170 -0.12288 0.64081
 C477 C 0.25149 -0.10387 0.61995
 C478 C 0.22738 -0.09531 0.60561
 C479 C 0.20339 -0.10565 0.61311
 C480 C 0.20363 -0.12476 0.63392
 C481 C 0.22690 -0.07619 0.58248
 C482 C 0.25077 -0.06784 0.57208
 H483 H 0.24625 -0.15666 0.68309
 H484 H 0.27063 -0.12939 0.65126
 H485 H 0.27031 -0.09612 0.61492
 H486 H 0.18449 -0.09916 0.60261
 H487 H 0.18469 -0.13213 0.63925
 H488 H 0.20766 -0.06947 0.57260
 H489 H 0.19651 -0.17368 0.65411
 H490 H 0.25003 -0.05782 0.55844
 C491 C 0.74358 -0.12794 0.31004
 C492 C 0.76725 -0.12380 0.32352
 C493 C 0.76799 -0.10216 0.34416
 C494 C 0.79357 -0.09585 0.35144
 C495 C 0.79524 -0.07651 0.37193
 C496 C 0.77123 -0.06321 0.38577
 C497 C 0.74567 -0.06936 0.37826
 C498 C 0.74401 -0.08866 0.35785
 C499 C 0.77151 -0.04319 0.40836
 C500 C 0.79500 -0.03773 0.42136
 H501 H 0.78621 -0.13714 0.31896
 H502 H 0.81238 -0.10603 0.34131
 H503 H 0.81535 -0.07225 0.37670
 H504 H 0.72683 -0.05953 0.38863
 H505 H 0.72392 -0.09334 0.35358
 H506 H 0.75171 -0.03290 0.41611
 H507 H 0.72488 -0.11388 0.31264
 H508 H 0.81525 -0.04755 0.41467
 C509 C 0.63916 0.76165 -0.18821
 C510 C 0.63788 0.74431 -0.16594
 C511 C 0.61489 0.74672 -0.14463
 C512 C 0.61151 0.72465 -0.12842
 C513 C 0.59046 0.72611 -0.10766
 C514 C 0.57228 0.74983 -0.10266
 C515 C 0.57597 0.77205 -0.11851
 C516 C 0.59701 0.77057 -0.13931
 C517 C 0.55012 0.75247 -0.08042
 C518 C 0.53946 0.73104 -0.06891
 H519 H 0.65410 0.72761 -0.16441
 H520 H 0.62529 0.70617 -0.13176
 H521 H 0.58900 0.70879 -0.09526
 H522 H 0.56255 0.79068 -0.11473
 H523 H 0.59946 0.78830 -0.15063
 H524 H 0.54144 0.77222 -0.07320
 H525 H 0.62239 0.77749 -0.19131
 H526 H 0.54650 0.71123 -0.07685
 C527 C 0.37552 0.23845 -0.18209
 C528 C 0.37459 0.25592 -0.15934
 C529 C 0.39561 0.25418 -0.13782
 C530 C 0.39583 0.27614 -0.12013
 C531 C 0.41489 0.27548 -0.09919
 C532 C 0.43430 0.25274 -0.09550
 C533 C 0.43379 0.23058 -0.11281
 C534 C 0.41469 0.23123 -0.13381
 C535 C 0.45453 0.25116 -0.07321
 C536 C 0.46253 0.27339 -0.06088
 H537 H 0.35792 0.27234 -0.15747
 H538 H 0.38108 0.29391 -0.12245
 H539 H 0.41384 0.29265 -0.08564
 H540 H 0.44822 0.21267 -0.11006
 H541 H 0.41474 0.21358 -0.14636
 H542 H 0.46387 0.23175 -0.06667
 H543 H 0.39253 0.22255 -0.18536
 H544 H 0.45489 0.29291 -0.06831
 C545 C 0.32063 0.71547 0.16585
 C546 C 0.34017 0.73235 0.16276
 C547 C 0.36079 0.73032 0.13904
 C548 C 0.37338 0.75237 0.13248
 C549 C 0.39271 0.75140 0.11005
 C550 C 0.39985 0.72821 0.09364
 C551 C 0.38784 0.70594 0.10073
 C552 C 0.36857 0.70690 0.12318
 C553 C 0.42008 0.72612 0.06954
 C554 C 0.42879 0.74778 0.05636
 H555 H 0.33962 0.74852 0.17762
 H556 H 0.36811 0.77051 0.14467
 H557 H 0.40213 0.76876 0.10603
 H558 H 0.39335 0.68768 0.08880
 H559 H 0.36022 0.68912 0.12817
 H560 H 0.42795 0.70654 0.06129
 H561 H 0.31978 0.70009 0.15041
 H562 H 0.42065 0.76769 0.06324
 C563 C 0.66065 0.30064 0.17338
 C564 C 0.63959 0.28546 0.17170
 C565 C 0.62113 0.28661 0.14787
 C566 C 0.60740 0.26511 0.14294
 C567 C 0.59012 0.26516 0.12042
 C568 C 0.58620 0.28685 0.10233
 C569 C 0.59925 0.30870 0.10779
 C570 C 0.61655 0.30863 0.13030
 C571 C 0.56822 0.28772 0.07814
 C572 C 0.56105 0.26523 0.06554
 H573 H 0.63740 0.27099 0.18772
 H574 H 0.61020 0.24810 0.15646
 H575 H 0.57966 0.24834 0.11762
 H576 H 0.59616 0.32585 0.09449
 H577 H 0.62591 0.32601 0.13398
 H578 H 0.56116 0.30682 0.06922
 H579 H 0.66430 0.31407 0.15676
 H580 H 0.56902 0.24579 0.07295
 C581 C -0.15532 0.68094 0.76070
 C582 C -0.15675 0.65789 0.77580
 C583 C -0.13280 0.63715 0.77904
 C584 C -0.13686 0.61070 0.77823
 C585 C -0.11468 0.59041 0.78021
 C586 C -0.08811 0.59622 0.78379
 C587 C -0.08413 0.62266 0.78593
 C588 C -0.10630 0.64307 0.78318
 C589 C -0.06455 0.57469 0.78417
 C590 C -0.06105 0.55538 0.76311
 H591 H -0.17657 0.65321 0.78282
 H592 H -0.15716 0.60571 0.77534
 H593 H -0.11823 0.57011 0.77887
 H594 H -0.06378 0.62748 0.78885
 H595 H -0.10277 0.66336 0.78449
 H596 H -0.04908 0.57502 0.79962
 H597 H -0.13564 0.68452 0.75188
 H598 H -0.07482 0.55742 0.74582
 C599 C -0.14853 0.34864 0.24145
 C600 C -0.12453 0.34703 0.25597
 C601 C -0.10535 0.36626 0.25126
 C602 C -0.08474 0.36776 0.27039
 C603 C -0.06783 0.38722 0.26779
 C604 C -0.07121 0.40555 0.24590
 C605 C -0.09083 0.40317 0.22592
 C606 C -0.10789 0.38386 0.22864
 C607 C -0.05511 0.42760 0.24377
 C608 C -0.04623 0.43937 0.26747
 H609 H -0.12082 0.33272 0.27257
 H610 H -0.08214 0.35425 0.28778
 H611 H -0.05224 0.38790 0.28300
 H612 H -0.09357 0.41684 0.20868
 H613 H -0.12333 0.38302 0.21327
 H614 H -0.05247 0.43638 0.22342
 H615 H -0.15951 0.33769 0.24627
 H616 H -0.05072 0.43205 0.28812
 C617 C 0.17713 0.32608 0.76659
 C618 C 0.15128 0.32657 0.75556
 C619 C 0.12824 0.34838 0.76161
 C620 C 0.10767 0.35370 0.74205
 C621 C 0.08653 0.37510 0.74614
 C622 C 0.08552 0.39165 0.77000
 C623 C 0.10522 0.38548 0.79030
 C624 C 0.12642 0.36410 0.78618
 C625 C 0.06432 0.41537 0.77420
 C626 C 0.05199 0.42911 0.75174
 H627 H 0.14843 0.31163 0.74024
 H628 H 0.10825 0.34157 0.72325
 H629 H 0.07104 0.37851 0.73059
 H630 H 0.10455 0.39757 0.80914
 H631 H 0.14122 0.36000 0.80233
 H632 H 0.05962 0.42319 0.79533
 H633 H 0.18077 0.34179 0.78055
 H634 H 0.05792 0.42250 0.73043
 C635 C 0.13551 0.65990 0.24034
 C636 C 0.11153 0.66066 0.25709
 C637 C 0.09199 0.64187 0.25298
 C638 C 0.07659 0.63468 0.27626
 C639 C 0.05956 0.61547 0.27358
 C640 C 0.05736 0.60325 0.24738
 C641 C 0.07171 0.61137 0.22383
 C642 C 0.08886 0.63050 0.22654
 C643 C 0.04113 0.58147 0.24429
 C644 C 0.03019 0.57005 0.26758
 H645 H 0.10830 0.67362 0.27537
 H646 H 0.07839 0.64338 0.29676
 H647 H 0.04850 0.60994 0.29214
 H648 H 0.07009 0.60252 0.20337
 H649 H 0.09963 0.63626 0.20792
 H650 H 0.03920 0.57320 0.22358
 H651 H 0.13996 0.64562 0.22329
 H652 H 0.02236 0.55700 0.26521
 C653 C 0.74334 -0.15495 0.64336
 C654 C 0.76680 -0.14958 0.62852
 C655 C 0.76626 -0.12818 0.60768
 C656 C 0.79076 -0.11851 0.60066
 C657 C 0.79103 -0.09801 0.58153
 C658 C 0.76672 -0.08683 0.56885
 C659 C 0.74235 -0.09685 0.57539
 C660 C 0.74209 -0.11739 0.59447
 C661 C 0.76612 -0.06468 0.54907
 C662 C 0.78974 -0.05453 0.54105
 H663 H 0.78657 -0.16071 0.63317
 H664 H 0.80972 -0.12662 0.61029
 H665 H 0.81025 -0.09085 0.57688
 H666 H 0.72343 -0.08878 0.56569
 H667 H 0.72296 -0.12485 0.59843
 H668 H 0.74665 -0.05599 0.54077
 H669 H 0.72360 -0.14314 0.64015
 H670 H 0.78865 -0.04178 0.53031
 C671 C 0.21999 -0.18829 0.35421
 C672 C 0.24076 -0.17306 0.35828
 C673 C 0.23959 -0.15212 0.38017
 C674 C 0.26374 -0.14182 0.38535
 C675 C 0.26360 -0.12140 0.40499
 C676 C 0.23916 -0.11077 0.42000
 C677 C 0.21498 -0.12101 0.41476
 C678 C 0.21511 -0.14142 0.39509
 C679 C 0.23761 -0.08841 0.44027
 C680 C 0.26047 -0.07946 0.45123
 H681 H 0.25926 -0.17683 0.34489
 H682 H 0.28283 -0.14946 0.37395
 H683 H 0.28257 -0.11375 0.40771
 H684 H 0.19579 -0.11301 0.42577
 H685 H 0.19587 -0.14821 0.39135
 H686 H 0.21731 -0.07859 0.44709
 H687 H 0.20189 -0.18611 0.36812
 H688 H 0.28104 -0.08946 0.44608
 C689 C 0.74771 0.19105 0.34367
 C690 C 0.77077 0.17780 0.35642
 C691 C 0.77002 0.15426 0.37419
 C692 C 0.79129 0.14703 0.39263
 C693 C 0.79138 0.12497 0.40972
 C694 C 0.77025 0.10945 0.40847
 C695 C 0.74901 0.11664 0.39002
 C696 C 0.74896 0.13862 0.37287
 C697 C 0.76934 0.08611 0.42641
 C698 C 0.79266 0.07176 0.43768
 H699 H 0.79005 0.18537 0.35399
 H700 H 0.80775 0.15869 0.39408
 H701 H 0.80774 0.12052 0.42420
 H702 H 0.73253 0.10499 0.38862
 H703 H 0.73261 0.14288 0.35838
 H704 H 0.74971 0.07935 0.42994
 H705 H 0.72792 0.18472 0.34703
 H706 H 0.81274 0.07706 0.43288
 C707 C 0.28292 0.15229 0.65050
 C708 C 0.25995 0.14513 0.63807
 C709 C 0.26182 0.12233 0.61837
 C710 C 0.23869 0.10982 0.61537
 C711 C 0.23991 0.08791 0.59740
 C712 C 0.26429 0.07829 0.58170
 C713 C 0.28729 0.09103 0.58447
 C714 C 0.28607 0.11290 0.60242
 C715 C 0.26687 0.05481 0.56284
 C716 C 0.24446 0.04481 0.55233
 H717 H 0.23975 0.15560 0.64415
 H718 H 0.21976 0.11671 0.62738
 H719 H 0.22187 0.07837 0.59644
 H720 H 0.30628 0.08413 0.57255
 H721 H 0.30409 0.12249 0.60340
 H722 H 0.28741 0.04550 0.55618
 H723 H 0.30298 0.14073 0.64626
 H724 H 0.22372 0.05451 0.55725
   
