data_POSCAR
  _audit_creation_date              2014-09-24
  _audit_creation_method            'ToBaCCo'
  _symmetry_space_group_name_H-M    'P1'
  _symmetry_Int_Tables_number       1
  _symmetry_cell_setting            triclinic
  loop_
  _symmetry_equiv_pos_as_xyz
 x,y,z
_cell_length_a 47.3755
_cell_length_b 48.9615
_cell_length_c 18.7186
_cell_angle_alpha 89.630600
_cell_angle_beta 90.439900
_cell_angle_gamma 121.520000
loop_
  _atom_site_label
  _atom_site_type_symbol
  _atom_site_fract_x
  _atom_site_fract_y
  _atom_site_fract_z
C1 C 0.16281 0.47053 0.48130
 C2 C 0.17794 0.46931 0.41823
 C3 C 0.19520 0.45312 0.41887
 C4 C 0.19777 0.43894 0.48278
 C5 C 0.17822 0.43675 0.54191
 C6 C 0.16175 0.45368 0.54323
 C7 C 0.22371 0.43040 0.49274
 C8 C 0.23782 0.43386 0.56134
 C9 C 0.26303 0.42777 0.57357
 C10 C 0.27566 0.41933 0.51669
 C11 C 0.26461 0.41862 0.44644
 C12 C 0.23761 0.42287 0.43496
 H13 H 0.14910 0.48262 0.47990
 H14 H 0.20868 0.45411 0.37157
 H15 H 0.17793 0.42361 0.58862
 H16 H 0.23059 0.44291 0.60568
 H17 H 0.29637 0.41619 0.52667
 H18 H 0.22880 0.42201 0.38114
 C19 C 0.50450 -0.32927 0.51728
 C20 C 0.51989 -0.31204 0.45446
 C21 C 0.53310 -0.27865 0.45494
 C22 C 0.53047 -0.26309 0.51586
 C23 C 0.51786 -0.28094 0.57973
 C24 C 0.50434 -0.31411 0.58037
 C25 C 0.53783 -0.22933 0.51071
 C26 C 0.54507 -0.21008 0.57241
 C27 C 0.54637 -0.18067 0.56920
 C28 C 0.54271 -0.16964 0.50238
 C29 C 0.53706 -0.18746 0.44037
 C30 C 0.53422 -0.21729 0.44456
 H31 H 0.49465 -0.35481 0.51942
 H32 H 0.54500 -0.26457 0.40802
 H33 H 0.51587 -0.26995 0.62779
 H34 H 0.54943 -0.21803 0.62289
 H35 H 0.54349 -0.14717 0.49808
 H36 H 0.52730 -0.23156 0.39650
 C37 C 1.29103 0.88490 0.48692
 C38 C 1.27297 0.87118 0.42367
 C39 C 1.24250 0.84203 0.42942
 C40 C 1.23322 0.82366 0.49301
 C41 C 1.25297 0.83750 0.55471
 C42 C 1.28149 0.86830 0.55206
 C43 C 1.20593 0.78891 0.49126
 C44 C 1.19006 0.77159 0.55443
 C45 C 1.16821 0.73792 0.55295
 C46 C 1.16099 0.72240 0.48621
 C47 C 1.17465 0.73925 0.42305
 C48 C 1.19752 0.77205 0.42580
 H49 H 1.31416 0.90780 0.48527
 H50 H 1.22626 0.83320 0.38362
 H51 H 1.24778 0.82390 0.60367
 H52 H 1.19586 0.78412 0.60463
 H53 H 1.14347 0.69684 0.48219
 H54 H 1.20961 0.78363 0.37640
 C55 C 0.82457 0.51948 0.51726
 C56 C 0.81568 0.52295 0.44809
 C57 C 0.79373 0.53388 0.43853
 C58 C 0.78142 0.54238 0.49814
 C59 C 0.79326 0.54088 0.56695
 C60 C 0.81332 0.52806 0.57647
 C61 C 0.75556 0.55145 0.48981
 C62 C 0.73626 0.55001 0.54899
 C63 C 0.71087 0.55686 0.54225
 C64 C 0.70420 0.56421 0.47384
 C65 C 0.72220 0.56497 0.41422
 C66 C 0.74808 0.55929 0.42237
 H67 H 0.84154 0.51114 0.52538
 H68 H 0.78608 0.53476 0.38459
 H69 H 0.78682 0.54899 0.61408
 H70 H 0.73896 0.54091 0.59931
 H71 H 0.68402 0.56832 0.46580
 H72 H 0.76160 0.56057 0.37507
 C73 C 0.44005 0.28457 0.47897
 C74 C 0.43936 0.26764 0.41888
 C75 C 0.44528 0.24273 0.42607
 C76 C 0.45475 0.23597 0.49262
 C77 C 0.45546 0.25359 0.55305
 C78 C 0.44772 0.27780 0.54718
 C79 C 0.46676 0.21290 0.49694
 C80 C 0.46833 0.19896 0.56255
 C81 C 0.48283 0.17998 0.56619
 C82 C 0.49290 0.17286 0.50194
 C83 C 0.48904 0.18409 0.43607
 C84 C 0.47794 0.20543 0.43454
 H85 H 0.43547 0.30389 0.47126
 H86 H 0.44324 0.22955 0.37834
 H87 H 0.46453 0.25026 0.60325
 H88 H 0.45950 0.20382 0.61083
 H89 H 0.50203 0.15667 0.50238
 H90 H 0.47884 0.21643 0.38387
 C91 C 0.73165 0.14484 0.54207
 C92 C 0.73754 0.15733 0.47241
 C93 C 0.75913 0.19047 0.46237
 C94 C 0.77591 0.21116 0.52062
 C95 C 0.77032 0.19746 0.58953
 C96 C 0.74694 0.16491 0.60088
 C97 C 0.79612 0.24698 0.51032
 C98 C 0.80203 0.26822 0.56771
 C99 C 0.81778 0.30149 0.55673
 C100 C 0.82723 0.31336 0.48711
 C101 C 0.82349 0.29338 0.43013
 C102 C 0.80849 0.26037 0.44212
 H103 H 0.71330 0.11976 0.55097
 H104 H 0.76073 0.20011 0.40953
 H105 H 0.78283 0.21196 0.63578
 H106 H 0.79322 0.25931 0.62085
 H107 H 0.84087 0.33895 0.47781
 H108 H 0.80648 0.24540 0.39788
 N109 N 0.97878 0.54885 0.08798
 N110 N 0.95582 0.55521 0.10502
 N111 N 1.04823 0.55910 0.11393
 N112 N 1.07266 0.57427 0.15994
 N113 N 1.04746 0.57932 0.06865
 N114 N 1.07106 0.60909 0.08452
 N115 N 0.97910 0.52854 0.13366
 N116 N 0.95618 0.52041 0.18292
 C117 C 0.94194 0.53732 0.16440
 C118 C 1.08707 0.60531 0.14070
 N119 N 1.03901 0.47804 0.05784
 N120 N 1.06124 0.46954 0.06406
 N121 N 0.97419 0.46730 0.12774
 N122 N 0.95091 0.45372 0.17651
 N123 N 0.97035 0.44637 0.07922
 N124 N 0.94447 0.41776 0.09414
 N125 N 1.04328 0.49851 0.10800
 N126 N 1.06885 0.50498 0.14866
 Mn127 Mn 1.01112 0.51330 0.12158
 C128 C 1.08002 0.48702 0.12044
 C129 C 0.93262 0.42291 0.15488
 N130 N 1.03691 0.57692 -0.08640
 N131 N 1.05975 0.60585 -0.10962
 N132 N 0.96203 0.52431 -0.11028
 N133 N 0.93559 0.51710 -0.14829
 N134 N 0.96847 0.54678 -0.06366
 N135 N 0.94670 0.55587 -0.06958
 N136 N 1.03045 0.55527 -0.13532
 N137 N 1.04893 0.56858 -0.19196
 Mn138 Mn 1.00818 0.56347 0.00167
 C139 C 1.06732 0.59999 -0.17547
 C140 C 0.92611 0.53667 -0.12203
 N141 N 0.95957 0.44384 -0.07208
 N142 N 0.93609 0.41371 -0.08395
 N143 N 1.02531 0.49477 -0.14084
 N144 N 1.04493 0.50140 -0.19577
 N145 N 1.02822 0.47579 -0.09560
 N146 N 1.04980 0.46857 -0.11954
 N147 N 0.95681 0.46308 -0.11684
 N148 N 0.93143 0.44654 -0.16035
 Mn149 Mn 0.99944 0.46071 -0.00766
 Mn150 Mn 0.99346 0.50931 -0.12618
 Cl151 Cl 1.00316 0.51176 -0.00264
 C152 C 0.91837 0.41585 -0.13849
 C153 C 1.06018 0.48515 -0.18201
 N154 N 0.46718 0.41600 0.05178
 N155 N 0.45804 0.38570 0.06217
 N156 N 0.45305 0.45929 0.14292
 N157 N 0.44051 0.46188 0.20316
 N158 N 0.42936 0.44152 0.09714
 N159 N 0.39994 0.43163 0.12515
 N160 N 0.49165 0.43471 0.09511
 N161 N 0.50026 0.41773 0.13429
 C162 C 0.47969 0.38734 0.11209
 C163 C 0.40743 0.44462 0.19153
 N164 N 0.52502 0.54670 0.09603
 N165 N 0.52805 0.57299 0.12342
 N166 N 0.54915 0.49814 0.09361
 N167 N 0.57097 0.49429 0.12897
 N168 N 0.56410 0.52270 0.04978
 N169 N 0.59663 0.53669 0.05598
 N170 N 0.51071 0.52286 0.14180
 N171 N 0.50352 0.53212 0.20113
 Mn172 Mn 0.50125 0.47875 0.11872
 C173 C 0.51441 0.56334 0.18920
 C174 C 0.60041 0.51797 0.10391
 N175 N 0.41538 0.44885 -0.05032
 N176 N 0.38295 0.43336 -0.06041
 N177 N 0.46858 0.44860 -0.14216
 N178 N 0.47254 0.43834 -0.20389
 N179 N 0.45463 0.42498 -0.09571
 N180 N 0.44899 0.39798 -0.12463
 N181 N 0.43029 0.47335 -0.09430
 N182 N 0.40840 0.47558 -0.13361
 Mn183 Mn 0.44138 0.43256 0.00072
 C184 C 0.37900 0.45095 -0.11113
 C185 C 0.46051 0.40687 -0.19212
 N186 N 0.54999 0.53025 -0.09765
 N187 N 0.57940 0.54179 -0.12732
 N188 N 0.48760 0.53656 -0.09494
 N189 N 0.47723 0.55276 -0.13126
 N190 N 0.51173 0.55550 -0.05119
 N191 N 0.51870 0.58538 -0.05794
 N192 N 0.52631 0.51241 -0.14341
 N193 N 0.53882 0.51170 -0.20546
 Mn194 Mn 0.53806 0.53918 -0.00074
 Mn195 Mn 0.47818 0.49276 -0.11897
 Cl196 Cl 0.48974 0.48579 -0.00008
 C197 C 0.57189 0.52985 -0.19466
 C198 C 0.49631 0.58304 -0.10710
 N199 N 0.44273 -0.02336 0.05881
 N200 N 0.41148 -0.03314 0.07310
 N201 N 0.50290 0.03216 0.13620
 N202 N 0.51399 0.05298 0.18869
 N203 N 0.49060 0.04115 0.08447
 N204 N 0.49254 0.06832 0.10125
 N205 N 0.45519 -0.03256 0.10993
 N206 N 0.43258 -0.04904 0.15871
 C207 C 0.40519 -0.05011 0.13438
 C208 C 0.50753 0.07543 0.16639
 N209 N 0.57444 0.01580 0.11165
 N210 N 0.60421 0.03135 0.14199
 N211 N 0.50559 -0.04816 0.12497
 N212 N 0.49254 -0.07189 0.17134
 N213 N 0.52767 -0.04941 0.08530
 N214 N 0.53038 -0.07400 0.10496
 N215 N 0.55258 0.01633 0.15330
 N216 N 0.56654 0.03179 0.21282
 Mn217 Mn 0.50400 -0.00814 0.13108
 C218 C 0.59870 0.04134 0.20510
 C219 C 0.50765 -0.08823 0.15771
 N220 N 0.50335 0.05162 -0.06813
 N221 N 0.49874 0.07472 -0.09103
 N222 N 0.47842 -0.01459 -0.13511
 N223 N 0.46378 -0.03130 -0.19301
 N224 N 0.45687 -0.01351 -0.09330
 N225 N 0.42681 -0.02971 -0.12188
 N226 N 0.52524 0.05030 -0.10821
 N227 N 0.53632 0.07263 -0.15795
 Mn228 Mn 0.47316 0.01404 -0.00461
 C229 C 0.52019 0.08815 -0.14618
 C230 C 0.43162 -0.04085 -0.18402
 N231 N 0.54178 -0.03834 -0.06719
 N232 N 0.54873 -0.05968 -0.09054
 N233 N 0.57595 0.03543 -0.09109
 N234 N 0.59947 0.05720 -0.13224
 N235 N 0.58859 0.02627 -0.04040
 N236 N 0.62115 0.04108 -0.04727
 N237 N 0.52959 -0.02939 -0.11943
 N238 N 0.52808 -0.04425 -0.17895
 Mn239 Mn 0.55838 -0.01151 0.02248
 Mn240 Mn 0.52730 0.01044 -0.11354
 Cl241 Cl 0.51565 0.00110 0.00872
 C242 C 0.53939 -0.06349 -0.16020
 C243 C 0.62750 0.06097 -0.10366
 C244 C 1.14559 0.47228 0.24409
 C245 C 1.14365 0.49974 0.25254
 N246 N 1.15874 0.51936 0.30886
 C247 C 1.17396 0.51180 0.35989
 C248 C 1.17338 0.48273 0.35584
 N249 N 1.16041 0.46431 0.29602
 N250 N 1.12908 0.45210 0.18880
 C251 C 1.10974 0.45749 0.14358
 C252 C 1.10603 0.48378 0.15552
 N253 N 1.12380 0.50458 0.20879
 H254 H 1.18465 0.52739 0.40574
 H255 H 1.09587 0.44040 0.10173
 C256 C 0.50726 0.62013 0.34794
 C257 C 0.52459 0.63453 0.28508
 N258 N 0.53974 0.66684 0.27759
 C259 C 0.53856 0.68539 0.33034
 C260 C 0.52152 0.67094 0.39473
 N261 N 0.50629 0.63848 0.40011
 N262 N 0.49213 0.58805 0.35694
 C263 C 0.49377 0.56950 0.30583
 C264 C 0.51152 0.58364 0.24273
 N265 N 0.52646 0.61601 0.23346
 H266 H 0.55139 0.71090 0.32155
 H267 H 0.48151 0.54393 0.31487
 C268 C 0.33561 -0.07454 0.29654
 C269 C 0.32666 -0.09349 0.23491
 N270 N 0.29752 -0.12200 0.23369
 C271 C 0.27756 -0.13308 0.29211
 C272 C 0.28785 -0.11537 0.35668
 N273 N 0.31639 -0.08604 0.35541
 N274 N 0.36496 -0.04633 0.29910
 C275 C 0.38639 -0.03672 0.24366
 C276 C 0.37851 -0.05653 0.18363
 N277 N 0.34853 -0.08439 0.18003
 H278 H 0.25552 -0.15663 0.28875
 H279 H 0.41025 -0.01469 0.24810
 C280 C 0.86823 0.53801 0.28906
 C281 C 0.87414 0.51278 0.29465
 N282 N 0.85740 0.48932 0.34370
 C283 C 0.83593 0.49052 0.38936
 C284 C 0.83155 0.51686 0.38739
 N285 N 0.84741 0.53971 0.33602
 N286 N 0.88510 0.56148 0.23986
 C287 C 0.90804 0.56118 0.19700
 C288 C 0.91511 0.53676 0.20494
 N289 N 0.89762 0.51292 0.25322
 H290 H 0.82362 0.47189 0.42927
 H291 H 0.92143 0.58042 0.15891
 C292 C 0.47048 0.31737 0.25655
 C293 C 0.44221 0.31707 0.23207
 N294 N 0.41271 0.29782 0.26488
 C295 C 0.41036 0.27949 0.32224
 C296 C 0.43881 0.28051 0.34801
 N297 N 0.46812 0.29923 0.31387
 N298 N 0.50040 0.33815 0.22729
 C299 C 0.50357 0.35935 0.17601
 C300 C 0.47559 0.35984 0.15292
 N301 N 0.44541 0.33833 0.18089
 H302 H 0.38692 0.26539 0.34943
 H303 H 0.52791 0.37661 0.15570
 C304 C 0.66514 0.09346 0.37259
 C305 C 0.67654 0.09870 0.30184
 N306 N 0.70824 0.12239 0.28801
 C307 C 0.72882 0.14127 0.34148
 C308 C 0.71721 0.13633 0.41234
 N309 N 0.68561 0.11220 0.42563
 N310 N 0.63339 0.07055 0.38701
 C311 C 0.61220 0.05287 0.33377
 C312 C 0.62314 0.05819 0.26256
 N313 N 0.65531 0.08090 0.24811
 H314 H 0.75391 0.15991 0.32871
 H315 H 0.58681 0.03506 0.34690
 C316 C 0.51523 0.14454 -0.31117
 C317 C 0.49553 0.13777 -0.25049
 N318 N 0.47316 0.14723 -0.24909
 C319 C 0.46918 0.16254 -0.30613
 C320 C 0.48760 0.16755 -0.36918
 N321 N 0.51044 0.15861 -0.36841
 N322 N 0.53800 0.13582 -0.31345
 C323 C 0.54142 0.11967 -0.25838
 C324 C 0.52044 0.11092 -0.19882
 N325 N 0.49812 0.12061 -0.19573
 H326 H 0.45045 0.16877 -0.30317
 H327 H 0.55945 0.11254 -0.26268
 C328 C 0.63925 0.54665 -0.36022
 C329 C 0.64842 0.54688 -0.28877
 N330 N 0.67849 0.55101 -0.27383
 C331 C 0.69966 0.55451 -0.32698
 C332 C 0.69056 0.55418 -0.39940
 N333 N 0.66047 0.55061 -0.41307
 N334 N 0.60889 0.54155 -0.37595
 C335 C 0.58708 0.53643 -0.32331
 C336 C 0.59611 0.53680 -0.25145
 N337 N 0.62680 0.54224 -0.23571
 H338 H 0.72357 0.55844 -0.31199
 H339 H 0.56290 0.53217 -0.33748
 C340 C 0.85224 0.33894 -0.27073
 C341 C 0.85948 0.37022 -0.28375
 N342 N 0.84854 0.37682 -0.34456
 C343 C 0.83224 0.35403 -0.39510
 C344 C 0.82720 0.32310 -0.38557
 N345 N 0.83621 0.31609 -0.32173
 N346 N 0.86412 0.33278 -0.21038
 C347 C 0.88378 0.35669 -0.16380
 C348 C 0.89247 0.38833 -0.17901
 N349 N 0.87947 0.39407 -0.23807
 H350 H 0.82390 0.36037 -0.44285
 H351 H 0.89372 0.35128 -0.11727
 C352 C 0.55523 -0.11355 -0.32171
 C353 C 0.54613 -0.12696 -0.25313
 N354 N 0.53956 -0.15721 -0.24197
 C355 C 0.54104 -0.17482 -0.29650
 C356 C 0.54929 -0.16165 -0.36603
 N357 N 0.55657 -0.13105 -0.37563
 N358 N 0.56052 -0.08401 -0.33471
 C359 C 0.55652 -0.06734 -0.28246
 C360 C 0.54677 -0.08072 -0.21383
 N361 N 0.54217 -0.11021 -0.20022
 H362 H 0.53436 -0.19919 -0.28582
 H363 H 0.56050 -0.04394 -0.29473
 C364 C 0.30206 0.42142 -0.25986
 C365 C 0.32221 0.45387 -0.24128
 N366 N 0.32004 0.47643 -0.27906
 C367 C 0.29922 0.46813 -0.33594
 C368 C 0.28055 0.43595 -0.35744
 N369 N 0.28217 0.41321 -0.31847
 N370 N 0.30437 0.39895 -0.22175
 C371 C 0.32677 0.40758 -0.16754
 C372 C 0.34866 0.44022 -0.15270
 N373 N 0.34545 0.46251 -0.18943
 H374 H 0.29856 0.48664 -0.36651
 H375 H 0.32912 0.38933 -0.14011
 C376 C 1.12508 0.66605 -0.33651
 C377 C 1.12124 0.67753 -0.27129
 N378 N 1.13463 0.70964 -0.26344
 C379 C 1.15120 0.73059 -0.31815
 C380 C 1.15373 0.71877 -0.38514
 N381 N 1.14067 0.68664 -0.39088
 N382 N 1.11241 0.63436 -0.34570
 C383 C 1.09524 0.61322 -0.29291
 C384 C 1.08980 0.62409 -0.22803
 N385 N 1.10331 0.65626 -0.21817
 H386 H 1.16071 0.75575 -0.30976
 H387 H 1.08516 0.58799 -0.30255
 C388 C 0.85986 0.54561 -0.25387
 C389 C 0.85553 0.51548 -0.23923
 N390 N 0.83372 0.48965 -0.27821
 C391 C 0.81706 0.49278 -0.33363
 C392 C 0.82324 0.52327 -0.35229
 N393 N 0.84394 0.54898 -0.31087
 N394 N 0.88261 0.57152 -0.21575
 C395 C 0.90220 0.56885 -0.16596
 C396 C 0.89968 0.53919 -0.15607
 N397 N 0.87585 0.51317 -0.19187
 H398 H 0.80083 0.47206 -0.36598
 H399 H 0.92126 0.59009 -0.13888
 C400 C 0.45351 0.34503 -0.35605
 C401 C 0.45346 0.33653 -0.28449
 N402 N 0.45170 0.30852 -0.26901
 C403 C 0.45009 0.28869 -0.32188
 C404 C 0.44971 0.29699 -0.39433
 N405 N 0.45132 0.32512 -0.40831
 N406 N 0.45606 0.37320 -0.37258
 C407 C 0.45857 0.39345 -0.32045
 C408 C 0.45803 0.38496 -0.24840
 N409 N 0.45539 0.35653 -0.23189
 H410 H 0.44799 0.26639 -0.30669
 H411 H 0.46057 0.41580 -0.33526
 C412 C 0.70525 0.10893 -0.24755
 C413 C 0.69403 0.12582 -0.20864
 N414 N 0.70423 0.15644 -0.22695
 C415 C 0.72424 0.17065 -0.28409
 C416 C 0.73343 0.15302 -0.32686
 N417 N 0.72403 0.12260 -0.30673
 N418 N 0.69468 0.07814 -0.22932
 C419 C 0.67239 0.06312 -0.17577
 C420 C 0.65912 0.07922 -0.14094
 N421 N 0.67061 0.11035 -0.15781
 H422 H 0.73071 0.19462 -0.29913
 H423 H 0.66302 0.03808 -0.16477
 C424 C 1.12060 0.48141 -0.34023
 C425 C 1.11043 0.46006 -0.28249
 N426 N 1.11843 0.43713 -0.28159
 C427 C 1.13582 0.43444 -0.33612
 C428 C 1.14514 0.45535 -0.39574
 N429 N 1.13720 0.47834 -0.39461
 N430 N 1.11301 0.50445 -0.34246
 C431 C 1.09492 0.50677 -0.28999
 C432 C 1.08340 0.48473 -0.23299
 N433 N 1.09174 0.46194 -0.22993
 H434 H 1.14080 0.41532 -0.33346
 H435 H 1.08893 0.52525 -0.29387
 C436 C 0.50514 0.65634 -0.24132
 C437 C 0.47836 0.62466 -0.24710
 N438 N 0.45808 0.61564 -0.30474
 C439 C 0.46430 0.63634 -0.35920
 C440 C 0.49244 0.66761 -0.35669
 N441 N 0.51151 0.67725 -0.29612
 N442 N 0.52649 0.66443 -0.18517
 C443 C 0.52297 0.64199 -0.13638
 C444 C 0.49723 0.60991 -0.14501
 N445 N 0.47520 0.60245 -0.19929
 H446 H 0.44815 0.62803 -0.40556
 H447 H 0.54111 0.64875 -0.09408
 C448 C 0.36040 -0.08951 -0.34661
 C449 C 0.35006 -0.08834 -0.27724
 N450 N 0.31709 -0.10274 -0.26372
 C451 C 0.29413 -0.11789 -0.31667
 C452 C 0.30466 -0.11812 -0.38662
 N453 N 0.33764 -0.10399 -0.39926
 N454 N 0.39305 -0.07576 -0.36076
 C455 C 0.41610 -0.06058 -0.30875
 C456 C 0.40618 -0.05853 -0.23936
 N457 N 0.37320 -0.07259 -0.22503
 H458 H 0.26808 -0.12878 -0.30482
 H459 H 0.44201 -0.04971 -0.32201
 C460 C 0.50498 -0.15181 0.31390
 C461 C 0.52772 -0.14195 0.25755
 N462 N 0.55108 -0.15015 0.25879
 C463 C 0.55321 -0.16700 0.31469
 C464 C 0.53160 -0.17523 0.37283
 N465 N 0.50779 -0.16767 0.37040
 N466 N 0.48172 -0.14366 0.31355
 C467 C 0.48072 -0.12518 0.26054
 C468 C 0.50463 -0.11350 0.20613
 N469 N 0.52735 -0.12264 0.20524
 H470 H 0.57264 -0.17241 0.31560
 H471 H 0.46230 -0.11848 0.26279
 C472 C 0.33994 0.43473 0.35056
 C473 C 0.32843 0.42373 0.28123
 N474 N 0.29564 0.41059 0.26627
 C475 C 0.27399 0.40810 0.31753
 C476 C 0.28566 0.41911 0.38727
 N477 N 0.31849 0.43212 0.40112
 N478 N 0.37247 0.44828 0.36645
 C479 C 0.39433 0.45148 0.31595
 C480 C 0.38322 0.44053 0.24611
 N481 N 0.35032 0.42675 0.23020
 H482 H 0.24809 0.39744 0.30404
 H483 H 0.42019 0.46249 0.33047
 C484 C 1.14862 0.67363 0.29324
 C485 C 1.13433 0.68233 0.23852
 N486 N 1.13685 0.71127 0.24153
 C487 C 1.15212 0.73139 0.29779
 C488 C 1.16451 0.72169 0.35468
 N489 N 1.16280 0.69316 0.35020
 N490 N 1.14598 0.64475 0.29130
 C491 C 1.12861 0.62355 0.23854
 C492 C 1.11227 0.63113 0.18622
 N493 N 1.11606 0.66073 0.18656
 H494 H 1.15281 0.75381 0.30015
 H495 H 1.12617 0.60030 0.23967
 C496 C 0.51745 0.14362 0.31556
 C497 C 0.49612 0.13608 0.25660
 N498 N 0.47543 0.14745 0.25389
 C499 C 0.47439 0.16519 0.30837
 C500 C 0.49450 0.17130 0.36936
 N501 N 0.51591 0.16069 0.37037
 N502 N 0.53740 0.13155 0.31996
 C503 C 0.53624 0.11132 0.26928
 C504 C 0.51367 0.10226 0.21211
 N505 N 0.49450 0.11537 0.20627
 H506 H 0.45653 0.17260 0.30584
 H507 H 0.55182 0.10134 0.27524
 C508 C 0.67779 0.53648 0.24279
 C509 C 0.67136 0.56075 0.22604
 N510 N 0.68540 0.58778 0.26620
 C511 C 0.70461 0.59119 0.32389
 C512 C 0.70978 0.56629 0.34271
 N513 N 0.69670 0.53978 0.30071
 N514 N 0.66194 0.50850 0.20611
 C515 C 0.63901 0.50316 0.15519
 C516 C 0.63144 0.52679 0.14051
 N517 N 0.64825 0.55530 0.17554
 H518 H 0.71428 0.61230 0.35702
 H519 H 0.62544 0.48002 0.12932
 C520 C 0.85854 0.35610 0.29121
 C521 C 0.87671 0.34696 0.24955
 N522 N 0.87370 0.31815 0.26191
 C523 C 0.85431 0.29864 0.31584
 C524 C 0.83766 0.30874 0.36033
 N525 N 0.83970 0.33692 0.34512
 N526 N 0.86267 0.38546 0.28233
 C527 C 0.88506 0.40668 0.23510
 C528 C 0.90434 0.39823 0.19533
 N529 N 0.89930 0.36826 0.20234
 H530 H 0.85383 0.27667 0.32665
 H531 H 0.88863 0.43034 0.23052
   
