data_POSCAR
  _audit_creation_date              2014-09-24
  _audit_creation_method            'ToBaCCo'
  _symmetry_space_group_name_H-M    'P1'
  _symmetry_Int_Tables_number       1
  _symmetry_cell_setting            triclinic
  loop_
  _symmetry_equiv_pos_as_xyz
 x,y,z
_cell_length_a 30.8864
_cell_length_b 30.0039
_cell_length_c 27.8946
_cell_angle_alpha 88.285600
_cell_angle_beta 89.749400
_cell_angle_gamma 90.745300
loop_
  _atom_site_label
  _atom_site_type_symbol
  _atom_site_fract_x
  _atom_site_fract_y
  _atom_site_fract_z
C1 C 0.19105 0.52969 1.04274
 H2 H 0.18908 0.55375 1.01318
 C3 C 0.16285 0.53231 1.08150
 H4 H 0.13850 0.55801 1.08121
 C5 C 0.22351 0.46512 1.07724
 H6 H 0.24658 0.43852 1.07483
 C7 C 0.19542 0.46609 1.11652
 H8 H 0.19682 0.44003 1.14419
 N9 N 0.22015 0.49618 1.04098
 C10 C 0.31033 0.55515 0.93790
 H11 H 0.30882 0.53200 0.90895
 C12 C 0.33958 0.59098 0.93549
 H13 H 0.36121 0.59497 0.90495
 C14 C 0.28772 0.57546 1.01556
 H15 H 0.26909 0.56829 1.04772
 C16 C 0.31686 0.61130 1.01487
 H17 H 0.32067 0.63103 1.04652
 Zn18 Zn 0.25261 0.49426 0.98401
 N19 N 0.28567 0.54763 0.97789
 C20 C 0.20761 0.52321 0.90016
 N21 N 0.21147 0.48986 0.93396
 C22 C 0.18194 0.45582 0.93737
 C23 C 0.14593 0.45531 0.90713
 C24 C 0.17239 0.52373 0.86896
 C25 C 0.32203 0.44665 1.02155
 C26 C 0.35244 0.41280 1.02622
 C27 C 0.32054 0.37747 0.95795
 C28 C 0.29027 0.41191 0.95486
 N29 N 0.29150 0.44552 0.98660
 H30 H 0.23056 0.55063 0.89870
 H31 H 0.18528 0.43020 0.96518
 H32 H 0.12183 0.42892 0.91129
 H33 H 0.16918 0.55097 0.84289
 H34 H 0.32272 0.47406 1.04587
 H35 H 0.37654 0.41431 1.05424
 H36 H 0.31987 0.35135 0.93199
 H37 H 0.26624 0.41205 0.92679
 C38 C 0.34416 0.61818 0.97525
 C39 C 0.16351 0.49900 1.11780
 C40 C 0.35185 0.37751 0.99436
 C41 C 0.14031 0.49033 0.87343
 C42 C 0.80391 0.53976 -0.05875
 H43 H 0.80115 0.56726 -0.03485
 C44 C 0.83670 0.54050 -0.09337
 H45 H 0.85916 0.56851 -0.09575
 C46 C 0.77977 0.46857 -0.08276
 H47 H 0.75901 0.43964 -0.07711
 C48 C 0.81138 0.46851 -0.11877
 H49 H 0.81385 0.44001 -0.14150
 N50 N 0.77721 0.50353 -0.05296
 C51 C 0.70799 0.57540 0.04986
 H52 H 0.72448 0.56297 0.08142
 C53 C 0.68225 0.61287 0.05350
 H54 H 0.68027 0.62961 0.08730
 C55 C 0.68682 0.56673 -0.03093
 H56 H 0.68886 0.54849 -0.06371
 C57 C 0.65844 0.60238 -0.02780
 H58 H 0.63779 0.61094 -0.05790
 Zn59 Zn 0.74310 0.50078 0.00377
 N60 N 0.71023 0.55336 0.00795
 C61 C 0.80304 0.53670 0.06687
 N62 N 0.78397 0.49758 0.05446
 C63 C 0.79871 0.45781 0.07228
 C64 C 0.83227 0.45673 0.10578
 C65 C 0.83592 0.53721 0.10054
 C66 C 0.67903 0.44331 -0.03407
 C67 C 0.64876 0.40817 -0.03376
 C68 C 0.66726 0.39114 0.04864
 C69 C 0.69671 0.42693 0.04697
 N70 N 0.70325 0.45130 0.00552
 H71 H 0.79381 0.56772 0.04948
 H72 H 0.78596 0.42687 0.05895
 H73 H 0.84490 0.42508 0.11862
 H74 H 0.85129 0.56858 0.10931
 H75 H 0.68315 0.46429 -0.06599
 H76 H 0.62975 0.40224 -0.06552
 H77 H 0.66302 0.37170 0.08171
 H78 H 0.71362 0.43564 0.07921
 C79 C 0.65504 0.62480 0.01543
 C80 C 0.84172 0.50378 -0.12263
 C81 C 0.64336 0.38093 0.00768
 C82 C 0.85111 0.49692 0.11979
 C83 C -0.02527 0.30396 0.42600
 H84 H -0.05264 0.30065 0.45021
 C85 C -0.02577 0.33639 0.38935
 H86 H -0.05394 0.35731 0.38528
 C87 C 0.04675 0.28504 0.40624
 H88 H 0.07619 0.26779 0.41489
 C89 C 0.04773 0.31726 0.36930
 H90 H 0.07717 0.32255 0.34851
 N91 N 0.01051 0.27877 0.43370
 C92 C -0.04304 0.17538 0.53216
 H93 H -0.01758 0.17284 0.55848
 C94 C -0.07896 0.14665 0.53593
 H95 H -0.08099 0.12215 0.56519
 C96 C -0.06947 0.20677 0.45930
 H97 H -0.06493 0.22802 0.42789
 C98 C -0.10637 0.17972 0.46240
 H99 H -0.13022 0.18167 0.43408
 Zn100 Zn 0.01080 0.24298 0.49106
 N101 N -0.03926 0.20534 0.49468
 C102 C 0.00075 0.27223 0.58817
 N103 N 0.01185 0.28393 0.54212
 C104 C 0.02256 0.32694 0.52970
 C105 C 0.01925 0.36045 0.56283
 C106 C -0.00176 0.30475 0.62298
 C107 C 0.07480 0.18782 0.45292
 C108 C 0.11124 0.16098 0.45414
 C109 C 0.11154 0.16563 0.54036
 C110 C 0.07726 0.19531 0.53705
 N111 N 0.05976 0.20603 0.49370
 H112 H -0.00711 0.23801 0.59789
 H113 H 0.03287 0.33583 0.49364
 H114 H 0.02601 0.39471 0.55155
 H115 H -0.01132 0.29529 0.65932
 H116 H 0.05848 0.19406 0.41923
 H117 H 0.12360 0.14854 0.42080
 H118 H 0.12261 0.15504 0.57559
 H119 H 0.06356 0.20840 0.56932
 C120 C -0.11161 0.14940 0.50122
 C121 C 0.01186 0.34482 0.36208
 C122 C 0.13003 0.14898 0.49841
 C123 C 0.00574 0.34970 0.60971
 C124 C 0.94989 0.71283 0.55888
 H125 H 0.92405 0.73668 0.55780
 C126 C 0.95033 0.67988 0.59557
 H127 H 0.92524 0.67910 0.62284
 C128 C 1.01366 0.68390 0.52488
 H129 H 1.03840 0.68576 0.49729
 C130 C 1.01500 0.65022 0.56037
 H131 H 1.04064 0.62596 0.55971
 N132 N 0.98212 0.71510 0.52532
 C133 C 0.91561 0.80927 0.43644
 H134 H 0.92472 0.79490 0.40288
 C135 C 0.88073 0.83866 0.43753
 H136 H 0.86358 0.84690 0.40474
 C137 C 0.92922 0.81968 0.51882
 H138 H 0.94894 0.81311 0.55014
 C139 C 0.89412 0.84835 0.52175
 H140 H 0.88701 0.86358 0.55556
 Zn141 Zn 0.98719 0.76079 0.47642
 N142 N 0.93889 0.80004 0.47689
 C143 C 0.95470 0.70913 0.40326
 N144 N 0.99075 0.73129 0.41771
 C145 C 1.02970 0.72608 0.39556
 C146 C 1.03395 0.69515 0.35935
 C147 C 0.95726 0.67893 0.36649
 C148 C 1.06397 0.78679 0.52543
 C149 C 1.10091 0.81304 0.53315
 C150 C 1.08658 0.85353 0.45887
 C151 C 1.04988 0.82662 0.45259
 N152 N 1.03901 0.79433 0.48592
 H153 H 0.92450 0.71278 0.42245
 H154 H 1.05820 0.74301 0.40860
 H155 H 1.06567 0.68824 0.34486
 H156 H 0.92891 0.65932 0.35747
 H157 H 1.05454 0.76148 0.55192
 H158 H 1.11931 0.80825 0.56582
 H159 H 1.09387 0.88043 0.43322
 H160 H 1.02944 0.83206 0.42163
 C161 C 0.86938 0.85835 0.48073
 C162 C 0.98393 0.64887 0.59725
 C163 C 1.11203 0.84727 0.49998
 C164 C 0.99769 0.67002 0.34606
 C165 C 0.43042 -0.05213 0.33028
 H166 H 0.45239 -0.07993 0.33162
 C167 C 0.39361 -0.05273 0.35986
 H168 H 0.38760 -0.08086 0.38432
 C169 C 0.41263 0.01937 0.29861
 H170 H 0.42059 0.04808 0.27591
 C171 C 0.37523 0.01983 0.32693
 H172 H 0.35448 0.04864 0.32489
 N173 N 0.43932 -0.01637 0.30048
 C174 C 0.52845 -0.08346 0.20723
 H175 H 0.55881 -0.06816 0.21721
 C176 C 0.52869 -0.12082 0.17875
 H177 H 0.55977 -0.13511 0.17074
 C178 C 0.45204 -0.08249 0.20651
 H179 H 0.42224 -0.06682 0.21695
 C180 C 0.45085 -0.11805 0.17511
 H181 H 0.41991 -0.12768 0.16027
 Zn182 Zn 0.49139 -0.01675 0.26325
 N183 N 0.49051 -0.06649 0.22265
 C184 C 0.56650 -0.05379 0.31369
 N185 N 0.53902 -0.01882 0.30739
 C186 C 0.54449 0.01879 0.33266
 C187 C 0.58066 0.02424 0.36164
 C188 C 0.60351 -0.04965 0.34237
 C189 C 0.46261 0.04535 0.19209
 C190 C 0.46358 0.08415 0.16293
 C191 C 0.53417 0.10183 0.19438
 C192 C 0.53177 0.06286 0.22318
 N193 N 0.49587 0.03596 0.22252
 H194 H 0.56022 -0.08491 0.29649
 H195 H 0.52163 0.04564 0.32843
 H196 H 0.58527 0.05567 0.37888
 H197 H 0.62585 -0.07708 0.34574
 H198 H 0.43493 0.02294 0.19100
 H199 H 0.43670 0.09138 0.13925
 H200 H 0.56281 0.12298 0.19555
 H201 H 0.55891 0.05410 0.24563
 C202 C 0.48945 -0.13950 0.16213
 C203 C 0.36535 -0.01643 0.35828
 C204 C 0.49945 0.11322 0.16444
 C205 C 0.61132 -0.00984 0.36617
 C206 C 0.56515 -0.03479 0.69061
 H207 H 0.53969 -0.05985 0.68952
 C208 C 0.59879 -0.03525 0.65727
 H209 H 0.59889 -0.06034 0.63013
 C210 C 0.59480 0.02960 0.72565
 H211 H 0.59420 0.05376 0.75343
 C212 C 0.62923 0.03045 0.69284
 H213 H 0.65363 0.05665 0.69393
 N214 N 0.56185 -0.00068 0.72139
 C215 C 0.48102 -0.08661 0.78551
 H216 H 0.46156 -0.08648 0.75343
 C217 C 0.48025 -0.12405 0.81642
 H218 H 0.45950 -0.15226 0.80862
 C219 C 0.53206 -0.05047 0.83496
 H220 H 0.55208 -0.02151 0.84180
 C221 C 0.53229 -0.08722 0.86682
 H222 H 0.55240 -0.08660 0.89851
 Zn223 Zn 0.50771 0.00042 0.75435
 N224 N 0.50631 -0.05062 0.79556
 C225 C 0.42068 -0.00878 0.72779
 N226 N 0.46142 -0.00331 0.70966
 C227 C 0.46857 -0.00122 0.66141
 C228 C 0.43438 -0.00738 0.62955
 C229 C 0.38552 -0.01427 0.69723
 C230 C 0.47084 0.04688 0.82902
 C231 C 0.46320 0.08198 0.85953
 C232 C 0.51415 0.12727 0.81323
 C233 C 0.51867 0.09215 0.78178
 N234 N 0.49902 0.05201 0.79160
 H235 H 0.41553 -0.00954 0.76614
 H236 H 0.50067 0.00535 0.64729
 H237 H 0.44060 -0.00603 0.59129
 H238 H 0.35325 -0.01786 0.71231
 H239 H 0.45463 0.01513 0.83568
 H240 H 0.44065 0.07683 0.88906
 H241 H 0.53318 0.15744 0.80693
 H242 H 0.53822 0.09711 0.74990
 C243 C 0.50625 -0.12453 0.85746
 C244 C 0.62987 -0.00092 0.65668
 C245 C 0.48599 0.12260 0.85289
 C246 C 0.39233 -0.01481 0.64746
 C247 C 0.24026 -0.00926 0.51746
 C248 C 0.75028 0.01241 0.48708
 C249 C 0.49849 0.25083 1.01125
 C250 C 0.49773 0.73123 0.00820
 C251 C 1.00841 0.50439 0.23721
 C252 C -0.00991 0.49950 0.74154
 C253 C 0.18583 0.04089 0.47776
 C254 C 0.15996 0.07776 0.47171
 C255 C 0.16426 0.11427 0.50122
 C256 C 0.19674 0.11325 0.53698
 C257 C 0.21849 0.07271 0.54845
 C258 C 0.21520 0.03602 0.51622
 C259 C 0.23895 0.07053 0.59362
 N260 N 0.24561 0.10800 0.61872
 N261 N 0.23146 0.14745 0.60307
 C262 C 0.20713 0.15132 0.56299
 H263 H 0.18093 0.01437 0.45298
 H264 H 0.13525 0.07660 0.44438
 H265 H 0.24764 0.03964 0.61106
 H266 H 0.19540 0.18392 0.55225
 C267 C 0.57943 0.71950 -0.00884
 C268 C 0.61648 0.69368 -0.00764
 C269 C 0.61899 0.65593 0.02252
 C270 C 0.58522 0.64644 0.05592
 C271 C 0.54757 0.67333 0.05551
 C272 C 0.54208 0.70734 0.01825
 C273 C 0.51481 0.66149 0.08891
 N274 N 0.51889 0.62602 0.11957
 N275 N 0.55348 0.60032 0.11881
 C276 C 0.58634 0.60880 0.08762
 H277 H 0.58029 0.74853 -0.03254
 H278 H 0.64302 0.70245 -0.03181
 H279 H 0.48521 0.67841 0.09001
 H280 H 0.61233 0.58527 0.08778
 C281 C 0.82132 -0.03029 0.50382
 C282 C 0.84932 -0.06561 0.50102
 C283 C 0.83624 -0.10591 0.48215
 C284 C 0.79250 -0.11096 0.46767
 C285 C 0.76335 -0.07422 0.46997
 C286 C 0.77867 -0.03133 0.48484
 C287 C 0.71953 -0.08274 0.45941
 N288 N 0.70640 -0.12364 0.44553
 N289 N 0.73382 -0.15725 0.44234
 C290 C 0.77627 -0.15240 0.45319
 H291 H 0.83452 -0.00193 0.52192
 H292 H 0.88204 -0.06121 0.51417
 H293 H 0.69522 -0.05770 0.46253
 H294 H 0.79663 -0.18132 0.45148
 C295 C 0.46324 0.32884 0.99767
 C296 C 0.42896 0.35801 0.99333
 C297 C 0.38628 0.34316 0.99745
 C298 C 0.37800 0.29708 1.00589
 C299 C 0.41315 0.26651 1.01054
 C300 C 0.45754 0.28232 1.00723
 C301 C 0.40209 0.22142 1.02045
 N302 N 0.36013 0.20812 1.02474
 N303 N 0.32782 0.23673 1.02032
 C304 C 0.33532 0.28072 1.01144
 H305 H 0.49451 0.34429 0.99178
 H306 H 0.43602 0.39309 0.98618
 H307 H 0.42590 0.19655 1.02692
 H308 H 0.30775 0.30244 1.00939
 C309 C 0.81192 0.06182 0.45887
 C310 C 0.84514 0.09270 0.46131
 C311 C 0.85120 0.11755 0.50194
 C312 C 0.82228 0.11141 0.54117
 C313 C 0.78804 0.07865 0.53977
 C314 C 0.78229 0.05277 0.49715
 C315 C 0.76103 0.07506 0.58061
 N316 N 0.76726 0.10150 0.61856
 N317 N 0.79863 0.13213 0.61906
 C318 C 0.82606 0.13822 0.58155
 H319 H 0.81071 0.04277 0.42653
 H320 H 0.86713 0.09654 0.43102
 H321 H 0.73401 0.05338 0.58336
 H322 H 0.85015 0.16451 0.58354
 C323 C 0.41997 0.71674 -0.01684
 C324 C 0.38278 0.69104 -0.02362
 C325 C 0.38416 0.64480 -0.01926
 C326 C 0.42401 0.62356 -0.01113
 C327 C 0.46306 0.64911 -0.00998
 C328 C 0.46063 0.69741 -0.00593
 C329 C 0.50151 0.62419 -0.01542
 N330 N 0.50091 0.57905 -0.01205
 N331 N 0.46430 0.55599 -0.00585
 C332 C 0.42580 0.57668 -0.00543
 H333 H 0.41600 0.75247 -0.01680
 H334 H 0.35231 0.70749 -0.03051
 H335 H 0.53245 0.63873 -0.02388
 H336 H 0.39696 0.55607 -0.00155
 C337 C 0.21949 -0.09298 0.51660
 C338 C 0.18877 -0.12699 0.50962
 C339 C 0.14440 -0.11823 0.51254
 C340 C 0.13102 -0.07717 0.53054
 C341 C 0.16233 -0.04390 0.54079
 C342 C 0.20653 -0.04880 0.52506
 C343 C 0.14877 -0.00958 0.57064
 N344 N 0.10631 -0.00461 0.58136
 N345 N 0.07631 -0.03301 0.56626
 C346 C 0.08721 -0.06938 0.54158
 H347 H 0.25333 -0.10006 0.51050
 H348 H 0.19962 -0.15948 0.49914
 H349 H 0.17160 0.01151 0.58826
 H350 H 0.06171 -0.09267 0.53266
 C351 C 0.54733 0.31008 1.04673
 C352 C 0.57992 0.34241 1.04529
 C353 C 0.61126 0.34336 1.00914
 C354 C 0.61249 0.30758 0.97714
 C355 C 0.57966 0.27342 0.97934
 C356 C 0.54269 0.27826 1.01059
 C357 C 0.58741 0.23513 0.95241
 N358 N 0.62181 0.23358 0.92224
 N359 N 0.65043 0.26690 0.91802
 C360 C 0.64725 0.30354 0.94479
 H361 H 0.52308 0.31252 1.07448
 H362 H 0.57961 0.36805 1.07183
 H363 H 0.56864 0.20503 0.95646
 H364 H 0.67286 0.32830 0.94162
 C365 C 0.53576 0.19266 1.06491
 C366 C 0.53523 0.15819 1.09938
 C367 C 0.50162 0.15407 1.13281
 C368 C 0.47187 0.18940 1.13601
 C369 C 0.47357 0.22591 1.10190
 C370 C 0.50148 0.22346 1.06063
 C371 C 0.44892 0.26364 1.11252
 N372 N 0.42119 0.26257 1.15036
 N373 N 0.41726 0.22695 1.17965
 C374 C 0.44185 0.19047 1.17398
 H375 H 0.56093 0.19202 1.03801
 H376 H 0.56001 0.13300 1.09808
 H377 H 0.45234 0.29481 1.09291
 H378 H 0.43875 0.16335 1.20023
 C379 C -0.04438 0.54876 0.67632
 C380 C -0.04729 0.58429 0.64339
 C381 C -0.01322 0.61467 0.63689
 C382 C 0.02490 0.60869 0.66411
 C383 C 0.02988 0.56992 0.69451
 C384 C -0.00739 0.54122 0.70516
 C385 C 0.07265 0.56146 0.71018
 N386 N 0.10456 0.59251 0.70364
 N387 N 0.09769 0.63118 0.68074
 C388 C 0.05899 0.64026 0.66061
 H389 H -0.07219 0.52687 0.67933
 H390 H -0.07636 0.58758 0.62204
 H391 H 0.08264 0.53031 0.72559
 H392 H 0.05537 0.67190 0.64156
 C393 C 0.48284 0.81048 -0.02867
 C394 C 0.48630 0.84460 -0.06306
 C395 C 0.50423 0.83728 -0.10777
 C396 C 0.51703 0.79383 -0.11900
 C397 C 0.51276 0.75825 -0.08404
 C398 C 0.49935 0.76701 -0.03563
 C399 C 0.52220 0.71535 -0.09938
 N400 N 0.53747 0.70879 -0.14421
 N401 N 0.54369 0.74246 -0.17562
 C402 C 0.53409 0.78478 -0.16451
 H403 H 0.46620 0.81920 0.00377
 H404 H 0.47408 0.87722 -0.05478
 H405 H 0.51738 0.68697 -0.07666
 H406 H 0.53973 0.81087 -0.19146
 C407 C 0.98067 0.42616 0.26760
 C408 C 0.98166 0.38865 0.29759
 C409 C 1.01429 0.38271 0.33142
 C410 C 1.04636 0.41661 0.33629
 C411 C 1.04539 0.45567 0.30593
 C412 C 1.01164 0.46121 0.27044
 C413 C 1.07662 0.48928 0.31490
 N414 N 1.10607 0.48416 0.35030
 N415 N 1.10631 0.44807 0.37889
 C416 C 1.07715 0.41467 0.37373
 H417 H 0.95421 0.42689 0.24272
 H418 H 0.95661 0.36335 0.29370
 H419 H 1.07707 0.52082 0.29651
 H420 H 1.07776 0.38786 0.40027
 C421 C 0.52549 0.78900 0.06388
 C422 C 0.52434 0.82088 0.09834
 C423 C 0.48968 0.82379 0.13043
 C424 C 0.45650 0.79015 0.12855
 C425 C 0.45588 0.75839 0.09069
 C426 C 0.49109 0.75845 0.05595
 C427 C 0.42147 0.72668 0.09216
 N428 N 0.39173 0.72589 0.12794
 N429 N 0.39396 0.75378 0.16385
 C430 C 0.42581 0.78485 0.16600
 H431 H 0.55297 0.79114 0.03968
 H432 H 0.55029 0.84545 0.09700
 H433 H 0.41926 0.69937 0.06881
 H434 H 0.42759 0.80384 0.19818
 C435 C 0.02684 0.45264 0.67941
 C436 C 0.03206 0.41642 0.65044
 C437 C -0.00166 0.38610 0.64359
 C438 C -0.04276 0.39442 0.66390
 C439 C -0.04868 0.43206 0.69354
 C440 C -0.01147 0.45949 0.70589
 C441 C -0.09204 0.44132 0.70641
 N442 N -0.12504 0.41369 0.69457
 N443 N -0.11872 0.37776 0.66902
 C444 C -0.07895 0.36756 0.65277
 H445 H 0.05446 0.47460 0.68288
 H446 H 0.06310 0.41203 0.63304
 H447 H -0.10174 0.47096 0.72330
 H448 H -0.07661 0.33921 0.63009
 C449 C 0.48772 0.17233 0.97517
 C450 C 0.48520 0.14269 0.93823
 C451 C 0.48411 0.15733 0.89038
 C452 C 0.48432 0.20392 0.88025
 C453 C 0.49162 0.23462 0.91779
 C454 C 0.49317 0.21904 0.96722
 C455 C 0.49805 0.27970 0.90372
 N456 N 0.49244 0.29351 0.85750
 N457 N 0.48137 0.26528 0.82370
 C458 C 0.47699 0.22103 0.83354
 H459 H 0.48520 0.15686 1.01035
 H460 H 0.48458 0.10741 0.94771
 H461 H 0.50883 0.30413 0.92818
 H462 H 0.46740 0.19970 0.80479
 C463 C 1.00840 0.58941 0.24588
 C464 C 1.00806 0.62890 0.27099
 C465 C 1.00298 0.62792 0.32061
 C466 C 0.99643 0.58669 0.34530
 C467 C 0.99124 0.54700 0.31932
 C468 C 1.00350 0.54697 0.26896
 C469 C 0.97179 0.51060 0.34528
 N470 N 0.96705 0.51127 0.39357
 N471 N 0.97834 0.54668 0.41827
 C472 C 0.99268 0.58454 0.39575
 H473 H 1.01307 0.59240 0.20766
 H474 H 1.01152 0.66050 0.25145
 H475 H 0.95836 0.48208 0.32862
 H476 H 1.00012 0.61292 0.41742
 C477 C 1.08442 0.53317 0.20820
 C478 C 1.12141 0.53141 0.17995
 C479 C 1.12878 0.49570 0.15024
 C480 C 1.09721 0.46114 0.14774
 C481 C 1.05790 0.46394 0.17438
 C482 C 1.05099 0.50054 0.20627
 C483 C 1.02577 0.43123 0.16537
 N484 N 1.03312 0.39778 0.13505
 N485 N 1.07020 0.39482 0.11136
 C486 C 1.10210 0.42554 0.11603
 H487 H 1.08239 0.56164 0.23060
 H488 H 1.14490 0.55852 0.18147
 H489 H 0.99384 0.43256 0.17942
 H490 H 1.13032 0.42196 0.09377
 C491 C 0.71713 -0.02512 0.56421
 C492 C 0.69053 -0.02615 0.60548
 C493 C 0.65815 0.00498 0.61437
 C494 C 0.64697 0.03569 0.57853
 C495 C 0.66923 0.02594 0.52052
 C496 C 0.71085 0.00310 0.52302
 C497 C 0.62748 0.09341 0.45673
 N498 N 0.59633 0.12201 0.49180
 N499 N 0.58965 0.11528 0.54641
 C500 C 0.60900 0.08015 0.58755
 H501 H 0.74525 -0.04609 0.56644
 H502 H 0.69777 -0.05068 0.63351
 H503 H 0.63376 0.10387 0.41954
 H504 H 0.59689 0.08370 0.62357
 C505 C -0.07804 0.53540 0.77946
 C506 C -0.11261 0.53624 0.81154
 C507 C -0.12020 0.50135 0.84471
 C508 C -0.09165 0.46488 0.84602
 C509 C -0.05836 0.46183 0.81076
 C510 C -0.04982 0.49854 0.77712
 C511 C -0.03541 0.42145 0.81047
 N512 N -0.04171 0.38965 0.84538
 N513 N -0.06999 0.39475 0.88071
 C514 C -0.09505 0.43127 0.88231
 H515 H -0.07413 0.56478 0.75670
 H516 H -0.13369 0.56484 0.81052
 H517 H -0.01339 0.41362 0.78251
 H518 H -0.11713 0.43371 0.91222
 C519 C 0.28941 0.02738 0.45128
 C520 C 0.32255 0.02428 0.41779
 C521 C 0.32772 -0.01440 0.39193
 C522 C 0.29400 -0.04691 0.39481
 C523 C 0.25951 -0.04240 0.42877
 C524 C 0.26331 -0.00985 0.46557
 C525 C 0.22072 -0.06551 0.41896
 N526 N 0.21962 -0.09697 0.38507
 N527 N 0.25394 -0.10511 0.35789
 C528 C 0.29101 -0.08085 0.36126
 H529 H 0.28474 0.05964 0.46639
 H530 H 0.34445 0.05249 0.41234
 H531 H 0.19074 -0.05823 0.43674
 H532 H 0.31663 -0.08664 0.33580
 C533 C 0.05677 0.46070 0.78157
 C534 C 0.09154 0.45851 0.81295
 C535 C 0.10051 0.49295 0.84378
 C536 C 0.07262 0.52990 0.84437
 C537 C 0.03812 0.53372 0.81068
 C538 C 0.02929 0.49831 0.77790
 C539 C 0.01475 0.57384 0.81041
 N540 N 0.02272 0.60520 0.84331
 N541 N 0.05300 0.59989 0.87658
 C542 C 0.07819 0.56337 0.87822
 H543 H 0.05239 0.43174 0.76024
 H544 H 0.11215 0.42955 0.81270
 H545 H -0.00886 0.58184 0.78382
 H546 H 0.10217 0.56079 0.90625
 C547 C 0.73114 0.00127 0.39775
 C548 C 0.69296 -0.00965 0.37290
 C549 C 0.65205 -0.00173 0.39322
 C550 C 0.65117 0.02149 0.43596
 C551 C 0.69392 0.05458 0.44516
 C552 C 0.72944 0.02723 0.43913
 C553 C 0.69555 0.09308 0.48912
 N554 N 0.65432 0.09267 0.52425
 N555 N 0.60781 0.05245 0.51363
 C556 C 0.60833 0.01912 0.47139
 H557 H 0.76102 -0.01450 0.38770
 H558 H 0.69536 -0.02777 0.34003
 H559 H 0.72276 0.11522 0.49453
 H560 H 0.58104 -0.00285 0.46506
 C561 C 0.92637 0.50177 0.22445
 C562 C 0.88920 0.49634 0.19719
 C563 C 0.89155 0.49758 0.14737
 C564 C 0.93128 0.50793 0.12435
 C565 C 0.96851 0.51756 0.15203
 C566 C 0.96777 0.50755 0.20320
 C567 C 1.00339 0.53869 0.12683
 N568 N 1.00353 0.54220 0.07828
 N569 N 0.97041 0.52781 0.05251
 C570 C 0.93416 0.51102 0.07389
 H571 H 0.92263 0.49937 0.26281
 H572 H 0.85830 0.49122 0.21519
 H573 H 1.02994 0.55438 0.14427
 H574 H 0.90758 0.50112 0.05125
 C575 C 0.31212 0.01922 0.55363
 C576 C 0.34924 0.01650 0.58112
 C577 C 0.35493 -0.01825 0.61429
 C578 C 0.32149 -0.05044 0.62058
 C579 C 0.28115 -0.04495 0.59630
 C580 C 0.27767 -0.01253 0.55677
 C581 C 0.24589 -0.06918 0.61695
 N582 N 0.25239 -0.10265 0.64977
 N583 N 0.29168 -0.11234 0.66588
 C584 C 0.32650 -0.08710 0.65260
 H585 H 0.30950 0.04980 0.53338
 H586 H 0.37304 0.04331 0.57785
 H587 H 0.21301 -0.06046 0.61051
 H588 H 0.35760 -0.09515 0.66806
   
