data_POSCAR
  _audit_creation_date              2014-09-24
  _audit_creation_method            'ToBaCCo'
  _symmetry_space_group_name_H-M    'P1'
  _symmetry_Int_Tables_number       1
  _symmetry_cell_setting            triclinic
  loop_
  _symmetry_equiv_pos_as_xyz
 x,y,z
_cell_length_a 29.0302
_cell_length_b 29.0981
_cell_length_c 28.9671
_cell_angle_alpha 89.919700
_cell_angle_beta 89.981900
_cell_angle_gamma 90.026000
loop_
  _atom_site_label
  _atom_site_type_symbol
  _atom_site_fract_x
  _atom_site_fract_y
  _atom_site_fract_z
N1 N 0.54946 0.09328 0.02186
 N2 N 0.58252 0.12022 0.03757
 N3 N 0.45252 0.09280 -0.02319
 N4 N 0.41942 0.11939 -0.03945
 N5 N 0.45258 0.09315 0.02215
 N6 N 0.41954 0.11999 0.03804
 N7 N 0.54941 0.09285 -0.02349
 N8 N 0.58241 0.11949 -0.03991
 C9 C 0.60285 0.13590 -0.00138
 C10 C 0.39907 0.13569 -0.00081
 N11 N 0.45238 -0.02299 -0.09230
 N12 N 0.41918 -0.03923 -0.11883
 N13 N 0.54926 0.02216 -0.09317
 N14 N 0.58183 0.03792 -0.12088
 N15 N 0.54930 -0.02295 -0.09236
 N16 N 0.58390 -0.03961 -0.12119
 N17 N 0.45239 0.02215 -0.09279
 N18 N 0.41921 0.03790 -0.11965
 Mn19 Mn 0.50090 0.05785 -0.05852
 C20 C 0.39872 -0.00081 -0.13523
 C21 C 0.60279 -0.00026 -0.13734
 N22 N 0.45281 0.02372 0.09326
 N23 N 0.41965 0.03987 0.11990
 N24 N 0.54975 -0.02122 0.09356
 N25 N 0.58233 -0.03694 0.12123
 N26 N 0.54976 0.02389 0.09278
 N27 N 0.58436 0.04058 0.12159
 N28 N 0.45289 -0.02142 0.09373
 N29 N 0.41980 -0.03726 0.12067
 Mn30 Mn 0.50114 0.05887 0.05789
 C31 C 0.39930 0.00138 0.13635
 C32 C 0.60329 0.00124 0.13769
 N33 N 0.54945 -0.09230 -0.02148
 N34 N 0.58251 -0.11907 -0.03742
 N35 N 0.45275 -0.09206 0.02413
 N36 N 0.41977 -0.11875 0.04054
 N37 N 0.45259 -0.09238 -0.02122
 N38 N 0.41953 -0.11930 -0.03694
 N39 N 0.54965 -0.09189 0.02386
 N40 N 0.58283 -0.11840 0.04006
 Mn41 Mn 0.50091 -0.05800 -0.05721
 Mn42 Mn 0.50127 -0.05700 0.05918
 Cl43 Cl 0.50103 0.00043 0.00034
 C44 C 0.60312 -0.13470 0.00138
 C45 C 0.39927 -0.13507 0.00200
 N46 N 0.09349 0.45151 0.02190
 N47 N 0.12012 0.41829 0.03780
 N48 N 0.09416 0.54859 -0.02259
 N49 N 0.12102 0.58174 -0.03828
 N50 N 0.09396 0.54816 0.02275
 N51 N 0.12068 0.58100 0.03921
 N52 N 0.09367 0.45193 -0.02345
 N53 N 0.12044 0.41903 -0.03969
 C54 C 0.13626 0.39825 -0.00105
 C55 C 0.13692 0.60172 0.00070
 N56 N -0.02095 0.54985 -0.09354
 N57 N -0.03673 0.58257 -0.12095
 N58 N 0.02375 0.45298 -0.09408
 N59 N 0.03971 0.41990 -0.12083
 N60 N -0.02149 0.45321 -0.09425
 N61 N -0.03761 0.42031 -0.12112
 N62 N 0.02427 0.54969 -0.09305
 N63 N 0.04098 0.58433 -0.12183
 Mn64 Mn 0.05932 0.50079 -0.05867
 C65 C 0.00154 0.60346 -0.13757
 C66 C 0.00099 0.39977 -0.13707
 N67 N 0.02345 0.54780 0.09280
 N68 N 0.03949 0.58062 0.11982
 N69 N -0.02225 0.45134 0.09178
 N70 N -0.03856 0.41823 0.11838
 N71 N 0.02299 0.45114 0.09197
 N72 N 0.03876 0.41790 0.11869
 N73 N -0.02180 0.54798 0.09259
 N74 N -0.03782 0.58093 0.11944
 Mn75 Mn 0.05883 0.49965 0.05771
 C76 C 0.00083 0.60105 0.13579
 C77 C -0.00006 0.39758 0.13449
 N78 N -0.09197 0.45284 -0.02420
 N79 N -0.11873 0.42001 -0.04064
 N80 N -0.09165 0.54901 0.02197
 N81 N -0.11835 0.58193 0.03824
 N82 N -0.09144 0.54950 -0.02338
 N83 N -0.11801 0.58278 -0.03924
 N84 N -0.09212 0.45237 0.02114
 N85 N -0.11897 0.41921 0.03684
 Mn86 Mn -0.05682 0.50136 -0.05920
 Mn87 Mn -0.05731 0.50017 0.05722
 Cl88 Cl 0.00101 0.50048 -0.00073
 C89 C -0.13492 0.39926 -0.00212
 C90 C -0.13413 0.60279 -0.00036
 N91 N 0.02151 0.09187 0.45157
 N92 N 0.03762 0.11856 0.41839
 N93 N -0.02385 0.09210 0.54860
 N94 N -0.03987 0.11908 0.58151
 N95 N 0.02139 0.09203 0.54865
 N96 N 0.03744 0.11894 0.58159
 N97 N -0.02374 0.09188 0.45150
 N98 N -0.03970 0.11858 0.41828
 C99 C -0.00099 0.13455 0.39783
 C100 C -0.00120 0.13514 0.60189
 N101 N -0.09420 -0.02303 0.54894
 N102 N -0.12116 -0.03889 0.58205
 N103 N -0.09403 0.02188 0.45167
 N104 N -0.12089 0.03781 0.41855
 N105 N -0.09408 -0.02326 0.45185
 N106 N -0.12098 -0.03932 0.41885
 N107 N -0.09412 0.02212 0.54875
 N108 N -0.12102 0.03825 0.58172
 Mn109 Mn -0.05929 0.05735 0.50013
 C110 C -0.13722 -0.00023 0.60228
 C111 C -0.13703 -0.00079 0.39828
 N112 N 0.09151 0.02194 0.54896
 N113 N 0.11838 0.03795 0.58200
 N114 N 0.09159 -0.02332 0.45198
 N115 N 0.11853 -0.03934 0.41898
 N116 N 0.09162 0.02182 0.45187
 N117 N 0.11855 0.03780 0.41881
 N118 N 0.09145 -0.02320 0.54908
 N119 N 0.11828 -0.03918 0.58220
 Mn120 Mn 0.05686 0.05726 0.50027
 C121 C 0.13440 -0.00061 0.60254
 C122 C 0.13467 -0.00077 0.39849
 N123 N -0.02395 -0.09333 0.45213
 N124 N -0.03994 -0.12014 0.41906
 N125 N 0.02119 -0.09319 0.54923
 N126 N 0.03716 -0.12010 0.58229
 N127 N -0.02406 -0.09315 0.54922
 N128 N -0.04015 -0.12004 0.58226
 N129 N 0.02130 -0.09332 0.45215
 N130 N 0.03737 -0.12010 0.41912
 Mn131 Mn -0.05943 -0.05855 0.50054
 Mn132 Mn 0.05674 -0.05861 0.50061
 Cl133 Cl -0.00128 -0.00064 0.50039
 C134 C -0.00126 -0.13617 0.39869
 C135 C -0.00153 -0.13617 0.60269
 C136 C -0.29419 0.23268 -0.00226
 C137 C -0.31349 0.28159 -0.00665
 C138 C -0.28044 0.31481 -0.00679
 C139 C -0.23127 0.29592 -0.00253
 C140 C -0.22646 0.26132 -0.04220
 C141 C -0.25956 0.22805 -0.04206
 C142 C -0.26472 0.23337 0.04174
 C143 C -0.23163 0.26663 0.04160
 C144 C -0.33014 0.19725 -0.00205
 C145 C -0.36038 0.16885 -0.00178
 C146 C -0.19602 0.33205 -0.00260
 C147 C -0.16775 0.36241 -0.00248
 H148 H -0.34994 0.28944 -0.00942
 H149 H -0.28860 0.35111 -0.00968
 H150 H -0.19944 0.26279 -0.06808
 H151 H -0.26089 0.20101 -0.06782
 H152 H -0.26939 0.20979 0.07044
 H153 H -0.20796 0.27154 0.07018
 C154 C 0.29626 0.76820 0.00222
 C155 C 0.26391 0.77015 0.04412
 C156 C 0.23079 0.73690 0.04388
 C157 C 0.23331 0.70501 0.00177
 C158 C 0.28259 0.68595 0.00202
 C159 C 0.31566 0.71915 0.00226
 C160 C 0.26440 0.77039 -0.04002
 C161 C 0.23129 0.73715 -0.04025
 C162 C 0.33223 0.80361 0.00239
 C163 C 0.36249 0.83199 0.00233
 C164 C 0.19803 0.66890 0.00147
 C165 C 0.16976 0.63857 0.00114
 H166 H 0.26673 0.79542 0.07151
 H167 H 0.20524 0.73370 0.07107
 H168 H 0.29081 0.64956 0.00202
 H169 H 0.35219 0.71118 0.00246
 H170 H 0.26752 0.79582 -0.06730
 H171 H 0.20605 0.73411 -0.06774
 C172 C 0.29584 0.23211 -0.00122
 C173 C 0.26363 0.22984 0.04078
 C174 C 0.23045 0.26299 0.04075
 C175 C 0.23275 0.29513 -0.00127
 C176 C 0.23066 0.26321 -0.04339
 C177 C 0.26384 0.23006 -0.04335
 C178 C 0.31514 0.28122 -0.00111
 C179 C 0.28200 0.31432 -0.00114
 C180 C 0.33189 0.19680 -0.00115
 C181 C 0.36221 0.16852 -0.00103
 C182 C 0.19741 0.33114 -0.00127
 C183 C 0.16910 0.36143 -0.00121
 H184 H 0.26659 0.20443 0.06809
 H185 H 0.20498 0.26596 0.06803
 H186 H 0.20532 0.26633 -0.07077
 H187 H 0.26693 0.20479 -0.07072
 H188 H 0.35166 0.28930 -0.00103
 H189 H 0.29015 0.35074 -0.00108
 C190 C -0.29360 0.76898 0.00111
 C191 C -0.26182 0.77125 -0.04122
 C192 C -0.22865 0.73811 -0.04154
 C193 C -0.23053 0.70597 0.00050
 C194 C -0.27977 0.68677 0.00087
 C195 C -0.31290 0.71987 0.00119
 C196 C -0.26118 0.77102 0.04291
 C197 C -0.22800 0.73788 0.04260
 C198 C -0.32965 0.80427 0.00139
 C199 C -0.35999 0.83253 0.00149
 C200 C -0.19520 0.66995 0.00015
 C201 C -0.16692 0.63965 -0.00011
 H202 H -0.26506 0.79667 -0.06849
 H203 H -0.20346 0.73514 -0.06908
 H204 H -0.28792 0.65035 0.00089
 H205 H -0.34942 0.71179 0.00148
 H206 H -0.26399 0.79629 0.07031
 H207 H -0.20238 0.73475 0.06972
 C208 C 0.00018 -0.29589 0.23246
 C209 C -0.04185 -0.26399 0.22982
 C210 C -0.04224 -0.23080 0.26300
 C211 C -0.00055 -0.23279 0.29553
 C212 C 0.04171 -0.23055 0.26371
 C213 C 0.04209 -0.26374 0.23054
 C214 C -0.00021 -0.31502 0.28186
 C215 C -0.00059 -0.28188 0.31499
 C216 C 0.00057 -0.33193 0.19711
 C217 C 0.00077 -0.36220 0.16875
 C218 C -0.00094 -0.19743 0.33157
 C219 C -0.00116 -0.16909 0.36187
 H220 H -0.06890 -0.26716 0.20414
 H221 H -0.06961 -0.20554 0.26574
 H222 H 0.06889 -0.20512 0.26692
 H223 H 0.06960 -0.26674 0.20533
 H224 H -0.00018 -0.35143 0.29010
 H225 H -0.00090 -0.28991 0.35160
 C226 C 0.00022 0.29606 0.76696
 C227 C -0.00040 0.31482 0.71743
 C228 C -0.00079 0.28142 0.68455
 C229 C -0.00052 0.23249 0.70437
 C230 C -0.04209 0.23057 0.73709
 C231 C -0.04170 0.26400 0.77002
 C232 C 0.04224 0.26409 0.76895
 C233 C 0.04185 0.23066 0.73603
 C234 C 0.00062 0.33236 0.80205
 C235 C 0.00086 0.36282 0.83020
 C236 C -0.00091 0.19685 0.66860
 C237 C -0.00112 0.16829 0.63850
 H238 H -0.00052 0.35117 0.70891
 H239 H -0.00125 0.28918 0.64788
 H240 H -0.06939 0.20517 0.73465
 H241 H -0.06866 0.26725 0.79578
 H242 H 0.06983 0.26740 0.79403
 H243 H 0.06911 0.20532 0.73290
 C244 C -0.00062 0.29420 0.23110
 C245 C 0.04104 0.26181 0.22859
 C246 C 0.04096 0.22861 0.26185
 C247 C -0.00078 0.23107 0.29432
 C248 C -0.04299 0.22935 0.26244
 C249 C -0.04291 0.26255 0.22919
 C250 C -0.00011 0.31330 0.28045
 C251 C -0.00019 0.28014 0.31366
 C252 C -0.00051 0.33029 0.19569
 C253 C -0.00035 0.36065 0.16735
 C254 C -0.00086 0.19571 0.33045
 C255 C -0.00092 0.16740 0.36086
 H256 H 0.06817 0.26467 0.20294
 H257 H 0.06802 0.20302 0.26468
 H258 H -0.07048 0.20423 0.26567
 H259 H -0.07032 0.26589 0.20393
 H260 H 0.00028 0.34971 0.28861
 H261 H 0.00013 0.28816 0.35026
 C262 C -0.00059 -0.29674 0.76860
 C263 C -0.04263 -0.26485 0.77127
 C264 C -0.04296 -0.23150 0.73815
 C265 C -0.00122 -0.23333 0.70565
 C266 C -0.00123 -0.28233 0.68610
 C267 C -0.00090 -0.31563 0.71917
 C268 C 0.04131 -0.26459 0.77061
 C269 C 0.04098 -0.23124 0.73751
 C270 C -0.00011 -0.33293 0.80391
 C271 C 0.00055 -0.36326 0.83230
 C272 C -0.00149 -0.19778 0.66968
 C273 C -0.00157 -0.16927 0.63945
 H274 H -0.06972 -0.26815 0.79692
 H275 H -0.07033 -0.20623 0.73543
 H276 H -0.00149 -0.29019 0.64947
 H277 H -0.00088 -0.35200 0.71085
 H278 H 0.06878 -0.26770 0.79585
 H279 H 0.06817 -0.20580 0.73438
 C280 C 0.29494 -0.00103 0.76850
 C281 C 0.26138 -0.04166 0.77225
 C282 C 0.22800 -0.04155 0.73916
 C283 C 0.23148 -0.00082 0.70558
 C284 C 0.28057 -0.00317 0.68605
 C285 C 0.31390 -0.00328 0.71910
 C286 C 0.26436 0.04199 0.76943
 C287 C 0.23099 0.04211 0.73633
 C288 C 0.33120 -0.00111 0.80375
 C289 C 0.36169 -0.00106 0.83199
 C290 C 0.19592 -0.00069 0.66961
 C291 C 0.16744 -0.00062 0.63935
 H292 H 0.26361 -0.06815 0.79860
 H293 H 0.20162 -0.06794 0.73714
 H294 H 0.28846 -0.00462 0.64944
 H295 H 0.35034 -0.00483 0.71079
 H296 H 0.26852 0.06988 0.79394
 H297 H 0.20655 0.07009 0.73249
 C298 C -0.29720 -0.00053 0.23190
 C299 C -0.31639 -0.00111 0.28127
 C300 C -0.28318 -0.00125 0.31445
 C301 C -0.23397 -0.00080 0.29507
 C302 C -0.23204 0.04139 0.26325
 C303 C -0.26529 0.04153 0.23003
 C304 C -0.26490 -0.04221 0.22931
 C305 C -0.23164 -0.04236 0.26254
 C306 C -0.33328 -0.00024 0.19646
 C307 C -0.36353 0.00032 0.16796
 C308 C -0.19851 -0.00089 0.33115
 C309 C -0.17007 -0.00087 0.36146
 H310 H -0.35289 -0.00140 0.28945
 H311 H -0.29124 -0.00166 0.35105
 H312 H -0.20677 0.06871 0.26648
 H313 H -0.26850 0.06898 0.20481
 H314 H -0.26786 -0.06920 0.20364
 H315 H -0.20610 -0.06947 0.26533
 C316 C 0.29550 0.00087 0.23268
 C317 C 0.26386 -0.04136 0.23026
 C318 C 0.23044 -0.04182 0.26334
 C319 C 0.23195 -0.00000 0.29556
 C320 C 0.22954 0.04193 0.26342
 C321 C 0.26296 0.04239 0.23034
 C322 C 0.31443 0.00096 0.28213
 C323 C 0.28106 0.00050 0.31517
 C324 C 0.33179 0.00130 0.19743
 C325 C 0.36228 0.00148 0.16918
 C326 C 0.19634 -0.00046 0.33150
 C327 C 0.16780 -0.00071 0.36173
 H328 H 0.26736 -0.06848 0.20480
 H329 H 0.20531 -0.06932 0.26621
 H330 H 0.20382 0.06885 0.26634
 H331 H 0.26588 0.06970 0.20493
 H332 H 0.35089 0.00135 0.29049
 H333 H 0.28894 0.00050 0.35181
 C334 C -0.29760 0.00097 0.76851
 C335 C -0.26503 0.04248 0.77091
 C336 C -0.23172 0.04225 0.73771
 C337 C -0.23428 0.00053 0.70540
 C338 C -0.28346 0.00116 0.68597
 C339 C -0.31672 0.00139 0.71913
 C340 C -0.26597 -0.04127 0.77064
 C341 C -0.23268 -0.04149 0.73745
 C342 C -0.33373 0.00104 0.80392
 C343 C -0.36401 0.00065 0.83240
 C344 C -0.19878 0.00024 0.66936
 C345 C -0.17030 -0.00002 0.63908
 H346 H -0.26785 0.06962 0.79643
 H347 H -0.20601 0.06920 0.73479
 H348 H -0.29146 0.00142 0.64936
 H349 H -0.35320 0.00184 0.71091
 H350 H -0.26940 -0.06855 0.79601
 H351 H -0.20758 -0.06897 0.73439
   
