data_POSCAR
  _audit_creation_date              2014-09-24
  _audit_creation_method            'ToBaCCo'
  _symmetry_space_group_name_H-M    'P1'
  _symmetry_Int_Tables_number       1
  _symmetry_cell_setting            triclinic
  loop_
  _symmetry_equiv_pos_as_xyz
 x,y,z
_cell_length_a 44.1373
_cell_length_b 20.3959
_cell_length_c 11.3600
_cell_angle_alpha 92.656900
_cell_angle_beta 89.650400
_cell_angle_gamma 90.386900
loop_
  _atom_site_label
  _atom_site_type_symbol
  _atom_site_fract_x
  _atom_site_fract_y
  _atom_site_fract_z
C1 C 0.74757 0.26859 0.48446
 C2 C 0.74672 0.24253 0.59371
 C3 C 0.72189 0.25462 0.68329
 C4 C 0.77037 0.19501 0.62373
 C5 C 0.77407 0.25774 0.40370
 C6 C 0.72243 0.30753 0.43752
 C7 C 0.70654 0.31485 0.69539
 C8 C 0.68093 0.32144 0.76783
 C9 C 0.67191 0.27054 0.84001
 C10 C 0.68952 0.21350 0.83964
 C11 C 0.71357 0.20486 0.75979
 C12 C 0.79292 0.21260 0.70574
 C13 C 0.81707 0.17018 0.72307
 C14 C 0.81843 0.10886 0.66124
 C15 C 0.79458 0.08986 0.58580
 C16 C 0.77093 0.13284 0.56603
 C17 C 0.76966 0.23151 0.28857
 C18 C 0.79436 0.22035 0.21274
 C19 C 0.82398 0.23467 0.25105
 C20 C 0.82837 0.26178 0.36560
 C21 C 0.80361 0.27432 0.44041
 C22 C 0.69257 0.28352 0.43555
 C23 C 0.66887 0.32351 0.40165
 C24 C 0.67470 0.38766 0.36605
 C25 C 0.70492 0.40925 0.35874
 C26 C 0.72851 0.36974 0.39481
 H27 H 0.71375 0.35668 0.64710
 H28 H 0.66880 0.36744 0.77046
 H29 H 0.68341 0.17333 0.89434
 H30 H 0.72516 0.15821 0.75636
 H31 H 0.79252 0.26024 0.75198
 H32 H 0.83483 0.18574 0.78353
 H33 H 0.75338 0.11833 0.50370
 H34 H 0.74707 0.21890 0.25794
 H35 H 0.79032 0.19915 0.12507
 H36 H 0.85091 0.27436 0.39662
 H37 H 0.80751 0.29696 0.52708
 H38 H 0.68750 0.23486 0.46495
 H39 H 0.64598 0.30473 0.40766
 H40 H 0.71045 0.45735 0.32825
 H41 H 0.75150 0.38862 0.39298
 H42 H 0.79471 0.04298 0.53837
 C43 C 0.25005 0.75194 0.41536
 C44 C 0.24873 0.72130 0.51929
 C45 C 0.22262 0.73051 0.60186
 C46 C 0.27415 0.68004 0.55693
 C47 C 0.27543 0.74150 0.33141
 C48 C 0.22723 0.80061 0.38432
 C49 C 0.22761 0.75191 0.71941
 C50 C 0.20315 0.76391 0.79614
 C51 C 0.17325 0.75510 0.75638
 C52 C 0.16831 0.73200 0.63966
 C53 C 0.19277 0.71879 0.56377
 C54 C 0.30327 0.70698 0.57076
 C55 C 0.32764 0.66735 0.59770
 C56 C 0.32336 0.59995 0.61432
 C57 C 0.29371 0.57409 0.60813
 C58 C 0.26936 0.61375 0.57902
 C59 C 0.27701 0.68396 0.25918
 C60 C 0.30135 0.67427 0.18095
 C61 C 0.32469 0.72120 0.17691
 C62 C 0.32309 0.77856 0.24949
 C63 C 0.29828 0.78929 0.32446
 C64 C 0.20467 0.78367 0.30203
 C65 C 0.18133 0.82757 0.28161
 C66 C 0.18091 0.88987 0.34002
 C67 C 0.20486 0.90823 0.41564
 C68 C 0.22759 0.86351 0.43921
 H69 H 0.25044 0.76078 0.75105
 H70 H 0.20766 0.78191 0.88550
 H71 H 0.14552 0.72351 0.60733
 H72 H 0.18838 0.69972 0.47503
 H73 H 0.30721 0.75871 0.55901
 H74 H 0.34983 0.68988 0.60353
 H75 H 0.24689 0.59238 0.57113
 H76 H 0.25946 0.64677 0.26363
 H77 H 0.30241 0.62948 0.12605
 H78 H 0.34094 0.81522 0.24727
 H79 H 0.29726 0.83402 0.37958
 H80 H 0.20442 0.73547 0.25777
 H81 H 0.16346 0.81250 0.22125
 H82 H 0.20551 0.95606 0.46019
 H83 H 0.24521 0.87746 0.50162
 H84 H 0.28914 0.52308 0.62343
 C85 C 0.24285 0.27626 -0.43339
 C86 C 0.24181 0.30846 -0.53574
 C87 C 0.26771 0.34967 -0.57187
 C88 C 0.21634 0.29885 -0.62030
 C89 C 0.22011 0.22592 -0.40512
 C90 C 0.26823 0.28580 -0.35001
 C91 C 0.26429 0.41722 -0.58355
 C92 C 0.28926 0.45620 -0.61215
 C93 C 0.31832 0.42838 -0.62793
 C94 C 0.32092 0.35965 -0.62195
 C95 C 0.29591 0.32097 -0.59539
 C96 C 0.18614 0.30615 -0.58311
 C97 C 0.16236 0.28979 -0.65961
 C98 C 0.16812 0.26931 -0.77776
 C99 C 0.19847 0.26727 -0.81722
 C100 C 0.22226 0.28106 -0.73894
 C101 C 0.22217 0.16255 -0.45692
 C102 C 0.19951 0.11613 -0.43718
 C103 C 0.17363 0.13315 -0.36946
 C104 C 0.17245 0.19651 -0.31415
 C105 C 0.19588 0.24174 -0.32937
 C106 C 0.29190 0.24026 -0.35091
 C107 C 0.31661 0.25040 -0.27597
 C108 C 0.31737 0.30483 -0.19590
 C109 C 0.29326 0.34943 -0.19260
 C110 C 0.26899 0.34044 -0.27048
 H111 H 0.24242 0.43994 -0.56825
 H112 H 0.28550 0.50810 -0.61923
 H113 H 0.34220 0.33472 -0.63652
 H114 H 0.29865 0.26839 -0.59169
 H115 H 0.18089 0.32404 -0.49432
 H116 H 0.13945 0.29479 -0.62611
 H117 H 0.24538 0.27598 -0.77043
 H118 H 0.24107 0.14942 -0.51432
 H119 H 0.20183 0.06830 -0.48054
 H120 H 0.15361 0.21152 -0.25822
 H121 H 0.19439 0.29024 -0.28671
 H122 H 0.29153 0.19772 -0.41160
 H123 H 0.33496 0.21536 -0.27941
 H124 H 0.29360 0.39197 -0.13188
 H125 H 0.25082 0.37590 -0.26887
 H126 H 0.20423 0.25164 -0.90676
 C127 C -0.24594 0.73614 -0.56320
 C128 C -0.24529 0.70701 -0.45777
 C129 C -0.26980 0.66223 -0.42258
 C130 C -0.22010 0.71886 -0.37345
 C131 C -0.22215 0.78346 -0.59488
 C132 C -0.27153 0.72693 -0.64661
 C133 C -0.29505 0.68692 -0.36074
 C134 C -0.32000 0.64654 -0.34112
 C135 C -0.31972 0.57955 -0.37824
 C136 C -0.29298 0.55400 -0.43076
 C137 C -0.26852 0.59529 -0.45491
 C138 C -0.22511 0.75408 -0.26611
 C139 C -0.20108 0.76755 -0.18874
 C140 C -0.17162 0.74692 -0.21865
 C141 C -0.16678 0.71047 -0.32487
 C142 C -0.19095 0.69545 -0.40046
 C143 C -0.19511 0.76197 -0.64800
 C144 C -0.17142 0.80630 -0.66527
 C145 C -0.17467 0.87363 -0.63295
 C146 C -0.20296 0.89507 -0.58804
 C147 C -0.22626 0.85032 -0.56781
 C148 C -0.26643 0.70084 -0.76126
 C149 C -0.29042 0.69300 -0.84085
 C150 C -0.32024 0.70993 -0.80647
 C151 C -0.32496 0.73731 -0.69165
 C152 C -0.30079 0.74731 -0.61422
 H153 H -0.29605 0.73829 -0.33243
 H154 H -0.33938 0.66851 -0.29669
 H155 H -0.29117 0.50295 -0.45878
 H156 H -0.24884 0.57533 -0.50101
 H157 H -0.24745 0.77228 -0.24317
 H158 H -0.20533 0.79589 -0.10743
 H159 H -0.18685 0.66606 -0.48065
 H160 H -0.19200 0.71053 -0.67274
 H161 H -0.15070 0.78709 -0.70394
 H162 H -0.20714 0.94580 -0.56377
 H163 H -0.24733 0.86767 -0.52846
 H164 H -0.24387 0.68602 -0.78895
 H165 H -0.28548 0.67141 -0.92749
 H166 H -0.34715 0.75345 -0.66209
 H167 H -0.30493 0.77181 -0.52931
 H168 H -0.14435 0.69309 -0.34884
 N169 N -0.03076 1.00746 0.25057
 N170 N -0.05690 1.02364 0.30091
 N171 N 0.03348 0.94786 0.21695
 N172 N 0.05981 0.92224 0.24285
 N173 N 0.03353 1.01141 0.24250
 N174 N 0.06014 1.03045 0.28524
 N175 N -0.03009 0.94411 0.22386
 N176 N -0.05553 0.91574 0.25626
 C177 C -0.07184 0.96572 0.30538
 C178 C 0.07604 0.97399 0.28657
 N179 N 0.03259 0.88019 -0.11138
 N180 N 0.05716 0.85714 -0.16539
 N181 N -0.03083 0.86481 0.00767
 N182 N -0.05562 0.83295 0.03818
 N183 N -0.03117 0.87586 -0.10532
 N184 N -0.05602 0.85126 -0.15464
 N185 N 0.03322 0.86836 0.00123
 N186 N 0.05831 0.83722 0.02680
 Mn187 Mn 0.00143 0.90568 0.11330
 C188 C 0.07286 0.83014 -0.07807
 C189 C -0.07090 0.82425 -0.06427
 N190 N 0.03092 1.12885 0.11137
 N191 N 0.05538 1.15556 0.16050
 N192 N -0.03384 1.13568 0.00597
 N193 N -0.05950 1.16465 -0.01951
 N194 N -0.03283 1.12434 0.11878
 N195 N -0.05771 1.14562 0.17288
 N196 N 0.03016 1.14017 -0.00141
 N197 N 0.05424 1.17424 -0.03220
 Mn198 Mn 0.00025 1.06839 0.18239
 C199 C 0.06956 1.18402 0.06989
 C200 C -0.07398 1.17110 0.08561
 N201 N -0.03352 0.99281 -0.23699
 N202 N -0.05971 0.97344 -0.28300
 N203 N 0.02973 1.06067 -0.21678
 N204 N 0.05504 1.08947 -0.24950
 N205 N 0.03065 0.99730 -0.24340
 N206 N 0.05675 0.98159 -0.29456
 N207 N -0.03392 1.05618 -0.21015
 N208 N -0.06020 1.08138 -0.23791
 Mn209 Mn -0.00034 0.93614 -0.17579
 Mn210 Mn -0.00199 1.09877 -0.10647
 Cl211 Cl -0.00016 1.00227 0.00335
 C212 C -0.07587 1.02948 -0.28443
 C213 C 0.07146 1.03979 -0.29911
 N214 N 0.53359 0.53954 -0.22933
 N215 N 0.55973 0.56203 -0.26789
 N216 N 0.46864 0.47988 -0.24483
 N217 N 0.44246 0.46052 -0.29063
 N218 N 0.46982 0.54424 -0.23257
 N219 N 0.44453 0.57002 -0.27056
 N220 N 0.53259 0.47523 -0.24131
 N221 N 0.55811 0.45244 -0.28840
 C222 C 0.57462 0.50728 -0.30562
 C223 C 0.42787 0.51724 -0.30766
 N224 N 0.46403 0.37171 0.02904
 N225 N 0.43691 0.35161 0.06224
 N226 N 0.52957 0.37064 -0.08130
 N227 N 0.55566 0.34865 -0.12353
 N228 N 0.52792 0.36370 0.03300
 N229 N 0.55254 0.33454 0.07037
 N230 N 0.46551 0.37415 -0.08626
 N231 N 0.43955 0.35483 -0.13394
 Mn232 Mn 0.49912 0.42435 -0.16447
 C233 C 0.42210 0.34025 -0.04048
 C234 C 0.56955 0.32555 -0.02850
 N235 N 0.47067 0.63773 -0.03408
 N236 N 0.44492 0.66231 -0.07041
 N237 N 0.53412 0.62886 0.08374
 N238 N 0.55983 0.65010 0.13072
 N239 N 0.53493 0.63239 -0.03143
 N240 N 0.56152 0.65525 -0.06549
 N241 N 0.47059 0.63519 0.08134
 N242 N 0.44502 0.65889 0.12593
 Mn243 Mn 0.50224 0.58918 -0.13276
 C244 C 0.42942 0.67631 0.03049
 C245 C 0.57658 0.66698 0.03682
 N246 N 0.52896 0.45771 0.23044
 N247 N 0.55415 0.43022 0.26473
 N248 N 0.46699 0.52928 0.23931
 N249 N 0.44130 0.55314 0.28295
 N250 N 0.46546 0.46496 0.22723
 N251 N 0.43887 0.44367 0.26343
 N252 N 0.53117 0.52206 0.24130
 N253 N 0.55818 0.53952 0.28219
 Mn254 Mn 0.49651 0.41394 0.13091
 Mn255 Mn 0.50077 0.57934 0.16275
 Cl256 Cl 0.49965 0.50177 -0.00099
 C257 C 0.57199 0.48163 0.29796
 C258 C 0.42419 0.49909 0.29895
 N259 N 0.37443 0.55426 0.33184
 N260 N 0.34446 0.53393 0.34749
 C261 C 0.34427 0.46777 0.35366
 C262 C 0.37396 0.44548 0.34196
 C263 C 0.39183 0.50038 0.32840
 H264 H 0.38215 0.39567 0.34134
 H265 H 0.38142 0.60250 0.31965
 H266 H 0.32616 0.56601 0.35242
 N267 N -0.12260 1.00975 0.36102
 N268 N -0.15170 0.98383 0.37395
 C269 C -0.15003 0.91776 0.35819
 C270 C -0.12001 0.90090 0.33450
 C271 C -0.10385 0.95921 0.33737
 H272 H -0.11063 0.85258 0.31705
 H273 H -0.11712 1.05969 0.36412
 H274 H -0.17092 1.01262 0.38740
 N275 N 0.62842 0.67862 -0.04665
 N276 N 0.65760 0.68786 -0.00194
 C277 C 0.65518 0.69968 0.11585
 C278 C 0.62464 0.69781 0.14760
 C279 C 0.60889 0.68395 0.04438
 H280 H 0.61496 0.70162 0.23536
 H281 H 0.62326 0.66574 -0.13416
 H282 H 0.67722 0.68667 -0.05371
 N283 N 0.11808 1.22267 -0.01515
 N284 N 0.14612 1.24451 0.02761
 C285 C 0.14412 1.25025 0.14644
 C286 C 0.11503 1.23172 0.18095
 C287 C 0.09977 1.21433 0.07798
 H288 H 0.10637 1.22762 0.26964
 H289 H 0.11310 1.21182 -0.10362
 H290 H 0.16460 1.25540 -0.02593
 N291 N 0.61145 0.26530 0.05129
 N292 N 0.64036 0.24725 0.01121
 C293 C 0.64530 0.27597 -0.09204
 C294 C 0.61962 0.31024 -0.12175
 C295 C 0.59897 0.30158 -0.03151
 H296 H 0.61603 0.33679 -0.20066
 H297 H 0.60131 0.25035 0.12900
 H298 H 0.65551 0.21904 0.05738
 N299 N 0.12117 0.78614 -0.00287
 N300 N 0.14776 0.76720 -0.04598
 C301 C 0.14731 0.77074 -0.16424
 C302 C 0.11916 0.79318 -0.19761
 C303 C 0.10337 0.80248 -0.09262
 H304 H 0.11155 0.80334 -0.28528
 H305 H 0.11561 0.78884 0.08672
 H306 H 0.16574 0.75199 0.00526
 N307 N 0.37657 0.46923 -0.34458
 N308 N 0.34883 0.49103 -0.36065
 C309 C 0.34983 0.55713 -0.36559
 C310 C 0.37972 0.57768 -0.35219
 C311 C 0.39576 0.52077 -0.33879
 H312 H 0.38885 0.62702 -0.34989
 H313 H 0.38202 0.42002 -0.33501
 H314 H 0.32982 0.46044 -0.36793
 N315 N -0.12591 0.98047 -0.34190
 N316 N -0.15404 1.00120 -0.35284
 C317 C -0.15458 1.06678 -0.33034
 C318 C -0.12553 1.08850 -0.30417
 C319 C -0.10813 1.03250 -0.31280
 H320 H -0.11796 1.13815 -0.28255
 H321 H -0.11924 0.93150 -0.35272
 H322 H -0.17243 0.97050 -0.37394
 N323 N 0.62328 0.45351 -0.36505
 N324 N 0.65318 0.47395 -0.38188
 C325 C 0.65415 0.54007 -0.36646
 C326 C 0.62505 0.56247 -0.34021
 C327 C 0.60669 0.50739 -0.33996
 H328 H 0.61763 0.61250 -0.32455
 H329 H 0.61575 0.40484 -0.36958
 H330 H 0.67117 0.44196 -0.39884
 N331 N 0.12128 0.99758 -0.37172
 N332 N 0.15016 1.02386 -0.38868
 C333 C 0.14907 1.08898 -0.36084
 C334 C 0.11970 1.10503 -0.32562
 C335 C 0.10322 1.04712 -0.33435
 H336 H 0.11093 1.15283 -0.29887
 H337 H 0.11544 0.94800 -0.38341
 H338 H 0.16910 0.99580 -0.41141
 N339 N 0.36950 0.34098 0.03959
 N340 N 0.34173 0.33396 -0.00229
 C341 C 0.34355 0.31539 -0.11746
 C342 C 0.37371 0.31079 -0.15065
 C343 C 0.38940 0.32775 -0.04860
 H344 H 0.38288 0.29993 -0.23792
 H345 H 0.37461 0.35720 0.12574
 H346 H 0.32199 0.34246 0.04712
 N347 N -0.12034 0.78789 0.01844
 N348 N -0.14716 0.76885 -0.02215
 C349 C -0.14587 0.76459 -0.14088
 C350 C -0.11705 0.78213 -0.17739
 C351 C -0.10165 0.79673 -0.07371
 H352 H -0.10882 0.78622 -0.26673
 H353 H -0.11529 0.79643 0.10754
 H354 H -0.16593 0.75925 0.03091
 N355 N 0.37778 0.68132 -0.05472
 N356 N 0.34985 0.69072 -0.01511
 C357 C 0.35116 0.70964 0.09991
 C358 C 0.38107 0.71200 0.13543
 C359 C 0.39721 0.69325 0.03488
 H360 H 0.38967 0.72188 0.22355
 H361 H 0.38323 0.66386 -0.13997
 H362 H 0.33033 0.68312 -0.06560
 N363 N -0.12356 1.20824 0.01028
 N364 N -0.15058 1.22383 0.05339
 C365 C -0.14982 1.22144 0.17178
 C366 C -0.12100 1.20330 0.20532
 C367 C -0.10514 1.19522 0.10017
 H368 H -0.11298 1.19508 0.29324
 H369 H -0.11808 1.20548 -0.07938
 H370 H -0.16908 1.23609 0.00210
 N371 N 0.62450 0.52412 0.33051
 N372 N 0.65178 0.49909 0.34311
 C373 C 0.64936 0.43297 0.34411
 C374 C 0.61912 0.41562 0.33107
 C375 C 0.60425 0.47459 0.32322
 H376 H 0.60912 0.36701 0.32637
 H377 H 0.62004 0.57415 0.32566
 H378 H 0.67142 0.52751 0.35297
 N379 N 0.12724 1.02167 0.33044
 N380 N 0.15515 0.99948 0.34058
 C381 C 0.15454 0.93336 0.32831
 C382 C 0.12500 0.91276 0.30902
 C383 C 0.10846 0.97002 0.31164
 H384 H 0.11659 0.86302 0.29566
 H385 H 0.12138 1.07127 0.33422
 H386 H 0.17422 1.02940 0.35343
   
