data_POSCAR
  _audit_creation_date              2014-09-24
  _audit_creation_method            'ToBaCCo'
  _symmetry_space_group_name_H-M    'P1'
  _symmetry_Int_Tables_number       1
  _symmetry_cell_setting            triclinic
  loop_
  _symmetry_equiv_pos_as_xyz
 x,y,z
_cell_length_a 61.3654
_cell_length_b 37.7424
_cell_length_c 21.7372
_cell_angle_alpha 90.020300
_cell_angle_beta 89.929600
_cell_angle_gamma 90.066400
loop_
  _atom_site_label
  _atom_site_type_symbol
  _atom_site_fract_x
  _atom_site_fract_y
  _atom_site_fract_z
C1 C 0.74915 0.24936 0.46973
 C2 C 0.74903 0.25081 0.53242
 C3 C 0.73014 0.26548 0.56669
 C4 C 0.76754 0.23739 0.56985
 C5 C 0.76699 0.23174 0.43531
 C6 C 0.73142 0.26548 0.43281
 C7 C 0.73317 0.29352 0.60774
 C8 C 0.71551 0.30798 0.63958
 C9 C 0.69402 0.29462 0.63183
 C10 C 0.69150 0.26557 0.59080
 C11 C 0.70925 0.25130 0.55911
 C12 C 0.78903 0.24837 0.55821
 C13 C 0.80632 0.23429 0.59200
 C14 C 0.80245 0.20958 0.63928
 C15 C 0.78081 0.19978 0.65240
 C16 C 0.76357 0.21348 0.61798
 C17 C 0.77196 0.19593 0.44553
 C18 C 0.78973 0.18027 0.41589
 C19 C 0.80284 0.20019 0.37560
 C20 C 0.79746 0.23578 0.36427
 C21 C 0.77958 0.25133 0.39351
 C22 C 0.71894 0.24426 0.39328
 C23 C 0.70141 0.25876 0.36101
 C24 C 0.69626 0.29488 0.36703
 C25 C 0.70921 0.31630 0.40532
 C26 C 0.72664 0.30172 0.43793
 H27 H 0.74924 0.30488 0.61403
 H28 H 0.71904 0.33095 0.66743
 H29 H 0.67612 0.25217 0.58451
 H30 H 0.70671 0.22885 0.52888
 H31 H 0.79245 0.26752 0.52240
 H32 H 0.82275 0.24228 0.58021
 H33 H 0.74710 0.20502 0.62837
 H34 H 0.76228 0.18034 0.47726
 H35 H 0.79356 0.15284 0.42561
 H36 H 0.80710 0.25157 0.33276
 H37 H 0.77591 0.27895 0.38488
 H38 H 0.72248 0.21628 0.38857
 H39 H 0.69188 0.24177 0.33120
 H40 H 0.70554 0.34416 0.41110
 H41 H 0.73624 0.31857 0.46779
 H42 H 0.77715 0.18153 0.68941
 C43 C 0.25242 0.76045 0.46740
 C44 C 0.25316 0.75937 0.53005
 C45 C 0.23564 0.77448 0.56898
 C46 C 0.27165 0.74263 0.56280
 C47 C 0.26941 0.74263 0.42990
 C48 C 0.23473 0.77893 0.43340
 C49 C 0.24067 0.80110 0.61165
 C50 C 0.22427 0.81653 0.64720
 C51 C 0.20250 0.80523 0.64150
 C52 C 0.19763 0.77783 0.59970
 C53 C 0.21405 0.76261 0.56376
 C54 C 0.29295 0.75551 0.55558
 C55 C 0.31037 0.73859 0.58460
 C56 C 0.30680 0.70845 0.62140
 C57 C 0.28533 0.69608 0.62931
 C58 C 0.26792 0.71318 0.60060
 C59 C 0.27271 0.70594 0.43443
 C60 C 0.28954 0.68969 0.40156
 C61 C 0.30332 0.70989 0.36353
 C62 C 0.29957 0.74649 0.35789
 C63 C 0.28267 0.76267 0.39053
 C64 C 0.22387 0.76136 0.38540
 C65 C 0.20685 0.77790 0.35398
 C66 C 0.20028 0.81226 0.37025
 C67 C 0.21143 0.83020 0.41728
 C68 C 0.22873 0.81389 0.44792
 H69 H 0.25727 0.81055 0.61628
 H70 H 0.22859 0.83788 0.67815
 H71 H 0.18115 0.76797 0.59500
 H72 H 0.20995 0.74166 0.53173
 H73 H 0.29605 0.77856 0.52721
 H74 H 0.32661 0.74924 0.57852
 H75 H 0.25157 0.70288 0.60655
 H76 H 0.26245 0.69002 0.46414
 H77 H 0.29212 0.66150 0.40706
 H78 H 0.30975 0.76259 0.32825
 H79 H 0.28023 0.79099 0.38624
 H80 H 0.22832 0.73452 0.37300
 H81 H 0.19845 0.76353 0.31796
 H82 H 0.20685 0.85693 0.42992
 H83 H 0.23734 0.82849 0.48324
 H84 H 0.28201 0.67269 0.65657
 C85 C 0.25280 0.23877 -0.46936
 C86 C 0.25226 0.23972 -0.53198
 C87 C 0.27064 0.25476 -0.56797
 C88 C 0.23325 0.22615 -0.56700
 C89 C 0.23577 0.22016 -0.43325
 C90 C 0.27054 0.25617 -0.43418
 C91 C 0.26710 0.28334 -0.60763
 C92 C 0.28455 0.29932 -0.63831
 C93 C 0.30615 0.28694 -0.63053
 C94 C 0.30925 0.25711 -0.59205
 C95 C 0.29176 0.24131 -0.56140
 C96 C 0.21229 0.23922 -0.55571
 C97 C 0.19436 0.22563 -0.58747
 C98 C 0.19686 0.19849 -0.63191
 C99 C 0.21827 0.18626 -0.64376
 C100 C 0.23615 0.20004 -0.61193
 C101 C 0.23193 0.18391 -0.44177
 C102 C 0.21568 0.16662 -0.40815
 C103 C 0.20266 0.18524 -0.36523
 C104 C 0.20694 0.22176 -0.35681
 C105 C 0.22340 0.23881 -0.38997
 C106 C 0.28364 0.23609 -0.39457
 C107 C 0.30105 0.25192 -0.36354
 C108 C 0.30545 0.28823 -0.37098
 C109 C 0.29193 0.30847 -0.40948
 C110 C 0.27461 0.29257 -0.44077
 H111 H 0.25086 0.29413 -0.61310
 H112 H 0.28093 0.32259 -0.66534
 H113 H 0.32507 0.24498 -0.58640
 H114 H 0.29471 0.21863 -0.53206
 H115 H 0.20980 0.26015 -0.52231
 H116 H 0.17871 0.23759 -0.57812
 H117 H 0.25225 0.18958 -0.62121
 H118 H 0.24145 0.16905 -0.47488
 H119 H 0.21283 0.13895 -0.41828
 H120 H 0.19821 0.23724 -0.32296
 H121 H 0.22634 0.26677 -0.38231
 H122 H 0.28065 0.20800 -0.38870
 H123 H 0.31102 0.23582 -0.33350
 H124 H 0.29502 0.33644 -0.41635
 H125 H 0.26450 0.30856 -0.47065
 H126 H 0.22143 0.16481 -0.67545
 C127 C -0.25255 0.75289 -0.47275
 C128 C -0.25239 0.75321 -0.53547
 C129 C -0.23577 0.77337 -0.57067
 C130 C -0.26869 0.73318 -0.57197
 C131 C -0.27127 0.73797 -0.43764
 C132 C -0.23398 0.76739 -0.43657
 C133 C -0.23322 0.80991 -0.56196
 C134 C -0.21736 0.82866 -0.59473
 C135 C -0.20342 0.81121 -0.63680
 C136 C -0.20644 0.77440 -0.64560
 C137 C -0.22253 0.75590 -0.61342
 C138 C -0.28125 0.75066 -0.61619
 C139 C -0.29676 0.73214 -0.65046
 C140 C -0.29990 0.69531 -0.64218
 C141 C -0.28670 0.67790 -0.59832
 C142 C -0.27138 0.69664 -0.56365
 C143 C -0.26767 0.71348 -0.39041
 C144 C -0.28515 0.69923 -0.35737
 C145 C -0.30691 0.70911 -0.37049
 C146 C -0.31020 0.73439 -0.41768
 C147 C -0.29265 0.74872 -0.45024
 C148 C -0.21248 0.75703 -0.44951
 C149 C -0.19509 0.77130 -0.41638
 C150 C -0.19880 0.79560 -0.36843
 C151 C -0.22042 0.80509 -0.35434
 C152 C -0.23781 0.79115 -0.38811
 H153 H -0.24344 0.82388 -0.52934
 H154 H -0.21552 0.85654 -0.58452
 H155 H -0.19698 0.75975 -0.67900
 H156 H -0.22448 0.72773 -0.62131
 H157 H -0.27916 0.77882 -0.62387
 H158 H -0.30562 0.74680 -0.68505
 H159 H -0.26164 0.68262 -0.53002
 H160 H -0.25125 0.70527 -0.37914
 H161 H -0.28123 0.68139 -0.32015
 H162 H -0.32631 0.74244 -0.43186
 H163 H -0.29582 0.76813 -0.48581
 H164 H -0.20914 0.73801 -0.48559
 H165 H -0.17870 0.76362 -0.42904
 H166 H -0.22395 0.82311 -0.31690
 H167 H -0.25428 0.79914 -0.37675
 H168 H -0.28869 0.65002 -0.58833
 O169 O -0.02956 0.93595 0.11105
 O170 O -0.05453 0.96859 0.05679
 C171 C -0.04943 0.94508 0.09789
 O172 O 0.03113 1.06267 0.10401
 O173 O 0.05431 1.03000 0.04360
 C174 C 0.05051 1.05390 0.08517
 O175 O -0.03020 1.05893 0.11691
 O176 O -0.05466 1.02708 0.05947
 C177 C -0.04996 1.04943 0.10273
 O178 O 0.03154 0.93405 0.09891
 O179 O 0.05446 0.96867 0.04089
 C180 C 0.05083 0.94386 0.08091
 Zr181 Zr 0.00044 0.95345 0.07331
 O182 O 0.00383 0.95002 0.17000
 O183 O -0.00031 0.89772 0.06415
 Zr184 Zr 0.00005 1.04307 0.07780
 O185 O 0.00389 1.04164 0.17454
 O186 O -0.00253 1.09899 0.08040
 O187 O -0.01894 0.99779 0.09007
 O188 O 0.01929 0.99835 0.08447
 O189 O 0.02782 0.93630 -0.11571
 O190 O 0.05259 0.96968 -0.06213
 C191 C 0.04763 0.94555 -0.10234
 O192 O -0.03342 1.06254 -0.10697
 O193 O -0.05634 1.02907 -0.04705
 C194 C -0.05273 1.05280 -0.08906
 O195 O 0.02786 1.06660 -0.10858
 O196 O 0.05268 1.03155 -0.05858
 C197 C 0.04770 1.05700 -0.09604
 O198 O -0.03312 0.93905 -0.11287
 O199 O -0.05615 0.97043 -0.05014
 C200 C -0.05247 0.94806 -0.09423
 Zr201 Zr -0.00205 0.95590 -0.08168
 O202 O -0.00123 0.95792 -0.17900
 O203 O -0.00387 0.89992 -0.08384
 Zr204 Zr -0.00224 1.04547 -0.07749
 O205 O -0.00123 1.04640 -0.17485
 O206 O -0.00487 1.10137 -0.07530
 Zr207 Zr -0.03327 0.99907 0.00202
 Zr208 Zr 0.03147 0.99987 -0.00605
 O209 O 0.01662 1.00107 -0.09322
 O210 O -0.02173 1.00066 -0.08930
 O211 O 0.01869 0.94807 -0.00691
 O212 O -0.02002 1.05051 0.00279
 O213 O -0.01976 0.94796 -0.00202
 O214 O 0.01831 1.05144 -0.00187
 H215 H 0.02962 0.99796 0.11947
 H216 H -0.02997 1.07113 0.00509
 H217 H 0.02596 1.00175 -0.13042
 H218 H -0.02960 0.92712 -0.00178
 H219 H 0.00953 1.10877 0.05540
 H220 H 0.00715 1.11041 -0.04942
 H221 H -0.01396 1.03287 -0.18995
 H222 H -0.01390 0.97206 -0.19263
 H223 H 0.00677 0.89090 -0.05350
 H224 H 0.00030 0.88811 0.10653
 H225 H -0.00675 0.96671 0.18831
 H226 H -0.00809 1.02704 0.19147
 O227 O 0.46850 0.43855 0.11358
 O228 O 0.44467 0.46936 0.05258
 C229 C 0.44891 0.44706 0.09632
 O230 O 0.52869 0.56645 0.10491
 O231 O 0.55317 0.53199 0.05223
 C232 C 0.54842 0.55728 0.09036
 O233 O 0.46750 0.56141 0.10965
 O234 O 0.44416 0.52791 0.05134
 C235 C 0.44806 0.55139 0.09347
 O236 O 0.52989 0.43612 0.10913
 O237 O 0.55359 0.47062 0.05366
 C238 C 0.54945 0.44606 0.09368
 Zr239 Zr 0.49919 0.45525 0.07882
 O240 O 0.50098 0.45436 0.17603
 O241 O 0.49851 0.39934 0.07389
 Zr242 Zr 0.49843 0.54497 0.07673
 O243 O 0.50061 0.54507 0.17394
 O244 O 0.49546 0.60084 0.07657
 O245 O 0.47939 0.49978 0.08933
 O246 O 0.51766 0.50068 0.08972
 O247 O 0.53068 0.43426 -0.10321
 O248 O 0.55409 0.46960 -0.04830
 C249 C 0.55015 0.44431 -0.08720
 O250 O 0.46853 0.55917 -0.11505
 O251 O 0.44466 0.52745 -0.05529
 C252 C 0.44894 0.54994 -0.09876
 O253 O 0.52978 0.56385 -0.10779
 O254 O 0.55358 0.53050 -0.05093
 C255 C 0.54936 0.55475 -0.09140
 O256 O 0.46931 0.43633 -0.11141
 O257 O 0.44506 0.46888 -0.05436
 C258 C 0.44961 0.44567 -0.09642
 Zr259 Zr 0.49975 0.45398 -0.07637
 O260 O 0.50260 0.45317 -0.17343
 O261 O 0.49812 0.39798 -0.07454
 Zr262 Zr 0.49914 0.54364 -0.07887
 O263 O 0.50198 0.54297 -0.17592
 O264 O 0.49624 0.59953 -0.07980
 Zr265 Zr 0.46680 0.49882 -0.00082
 Zr266 Zr 0.53147 0.50030 0.00113
 O267 O 0.51839 0.49908 -0.08831
 O268 O 0.48010 0.49829 -0.09028
 O269 O 0.51898 0.44830 0.00200
 O270 O 0.47984 0.55040 -0.00180
 O271 O 0.48050 0.44778 0.00091
 O272 O 0.51815 0.55174 -0.00068
 H273 H 0.52742 0.50123 0.12600
 H274 H 0.46978 0.57091 -0.00259
 H275 H 0.52840 0.49886 -0.12410
 H276 H 0.47070 0.42689 0.00109
 H277 H 0.50682 0.61025 0.04870
 H278 H 0.50863 0.60932 -0.05621
 H279 H 0.49019 0.52769 -0.19200
 H280 H 0.49035 0.46712 -0.19029
 H281 H 0.50829 0.38986 -0.04221
 H282 H 0.49843 0.39082 0.11700
 H283 H 0.48998 0.47128 0.19157
 H284 H 0.48792 0.53177 0.19003
 C285 C 0.34546 0.30150 0.36474
 C286 C 0.36300 0.31892 0.33695
 C287 C 0.35986 0.33958 0.28451
 C288 C 0.33889 0.34245 0.25948
 C289 C 0.32129 0.32498 0.28691
 C290 C 0.32412 0.30416 0.34048
 N291 N 0.37822 0.35726 0.25761
 N292 N 0.37628 0.37822 0.21209
 C293 C 0.39466 0.39564 0.18485
 C294 C 0.39118 0.41930 0.13636
 C295 C 0.40876 0.43632 0.10802
 C296 C 0.43024 0.42982 0.12767
 C297 C 0.43366 0.40620 0.17677
 C298 C 0.41603 0.38929 0.20517
 H299 H 0.34879 0.28731 0.40685
 H300 H 0.37909 0.31669 0.35693
 H301 H 0.33610 0.35796 0.21835
 H302 H 0.30570 0.32706 0.26419
 H303 H 0.37479 0.42443 0.12031
 H304 H 0.40550 0.45433 0.07036
 H305 H 0.44995 0.40060 0.19313
 H306 H 0.41914 0.37109 0.24262
 C307 C -0.18885 0.86647 0.31796
 C308 C -0.17245 0.88468 0.28630
 C309 C -0.15346 0.86724 0.26804
 C310 C -0.15112 0.83104 0.28095
 C311 C -0.16759 0.81259 0.31166
 C312 C -0.18681 0.82993 0.33116
 N313 N -0.13681 0.88668 0.23638
 N314 N -0.11794 0.87367 0.22757
 C315 C -0.10115 0.89231 0.19521
 C316 C -0.07997 0.87872 0.19629
 C317 C -0.06314 0.89604 0.16515
 C318 C -0.06730 0.92711 0.13144
 C319 C -0.08867 0.94053 0.12991
 C320 C -0.10545 0.92342 0.16191
 H321 H -0.20345 0.88102 0.32965
 H322 H -0.17452 0.91256 0.27611
 H323 H -0.13653 0.81694 0.26738
 H324 H -0.16462 0.78502 0.32223
 H325 H -0.07650 0.85468 0.22162
 H326 H -0.04691 0.88484 0.16695
 H327 H -0.09243 0.96430 0.10422
 H328 H -0.12176 0.93428 0.16013
 C329 C 0.68630 0.63990 0.31118
 C330 C 0.67040 0.62155 0.27785
 C331 C 0.65180 0.63897 0.25673
 C332 C 0.64938 0.67531 0.26839
 C333 C 0.66532 0.69387 0.30096
 C334 C 0.68410 0.67654 0.32352
 N335 N 0.63548 0.61924 0.22438
 N336 N 0.61707 0.63274 0.21138
 C337 C 0.60043 0.61360 0.17937
 C338 C 0.57964 0.62848 0.17551
 C339 C 0.56276 0.61021 0.14638
 C340 C 0.56652 0.57683 0.11972
 C341 C 0.58757 0.56221 0.12248
 C342 C 0.60439 0.58035 0.15246
 H343 H 0.70063 0.62532 0.32506
 H344 H 0.67255 0.59356 0.26871
 H345 H 0.63506 0.68939 0.25272
 H346 H 0.66221 0.72151 0.31063
 H347 H 0.57643 0.65413 0.19592
 H348 H 0.54678 0.62230 0.14463
 H349 H 0.59094 0.53651 0.10247
 H350 H 0.62041 0.56842 0.15468
 C351 C 0.15735 1.18545 0.36289
 C352 C 0.13943 1.17058 0.33278
 C353 C 0.14196 1.15357 0.27625
 C354 C 0.16273 1.15182 0.24947
 C355 C 0.18072 1.16675 0.27924
 C356 C 0.17850 1.18383 0.33694
 N357 N 0.12325 1.13807 0.24745
 N358 N 0.12455 1.12031 0.19779
 C359 C 0.10576 1.10468 0.16954
 C360 C 0.10854 1.08333 0.11750
 C361 C 0.09061 1.06697 0.08978
 C362 C 0.06948 1.07189 0.11357
 C363 C 0.06673 1.09378 0.16540
 C364 C 0.08470 1.10995 0.19325
 H365 H 0.15445 1.19674 0.40784
 H366 H 0.12349 1.17185 0.35416
 H367 H 0.16507 1.13910 0.20530
 H368 H 0.19615 1.16577 0.25528
 H369 H 0.12468 1.07912 0.09873
 H370 H 0.09332 1.05043 0.04977
 H371 H 0.05072 1.09812 0.18498
 H372 H 0.08211 1.12641 0.23338
 C373 C 0.65478 0.30362 -0.35798
 C374 C 0.63709 0.31890 -0.32743
 C375 C 0.64028 0.34023 -0.27590
 C376 C 0.66150 0.34600 -0.25452
 C377 C 0.67930 0.33076 -0.28468
 C378 C 0.67653 0.30919 -0.33771
 N379 N 0.62174 0.35595 -0.24660
 N380 N 0.62356 0.37695 -0.20107
 C381 C 0.60496 0.39283 -0.17230
 C382 C 0.60818 0.41718 -0.12464
 C383 C 0.59040 0.43378 -0.09661
 C384 C 0.56900 0.42613 -0.11577
 C385 C 0.56583 0.40129 -0.16321
 C386 C 0.58364 0.38484 -0.19132
 H387 H 0.65099 0.28914 -0.39943
 H388 H 0.62075 0.31454 -0.34474
 H389 H 0.66437 0.36209 -0.21408
 H390 H 0.69500 0.33502 -0.26361
 H391 H 0.62454 0.42352 -0.10953
 H392 H 0.59344 0.45267 -0.06009
 H393 H 0.54960 0.39478 -0.17916
 H394 H 0.58073 0.36604 -0.22803
 C395 C 0.18885 0.83358 -0.26092
 C396 C 0.17251 0.85051 -0.22705
 C397 C 0.15195 0.85617 -0.25284
 C398 C 0.14788 0.84482 -0.31334
 C399 C 0.16426 0.82823 -0.34749
 C400 C 0.18497 0.82236 -0.32172
 N401 N 0.13554 0.87365 -0.21707
 N402 N 0.11587 0.87544 -0.23519
 C403 C 0.09924 0.89318 -0.20076
 C404 C 0.07758 0.88935 -0.21941
 C405 C 0.06085 0.90617 -0.18718
 C406 C 0.06553 0.92763 -0.13590
 C407 C 0.08738 0.93179 -0.11762
 C408 C 0.10410 0.91450 -0.14954
 H409 H 0.20447 0.82902 -0.23924
 H410 H 0.17583 0.85904 -0.18042
 H411 H 0.13215 0.84916 -0.33452
 H412 H 0.16080 0.82060 -0.39449
 H413 H 0.07366 0.87310 -0.25896
 H414 H 0.04426 0.90255 -0.20285
 H415 H 0.09154 0.94829 -0.07863
 H416 H 0.12078 0.91803 -0.13456
 C417 C 0.34539 0.68610 -0.38015
 C418 C 0.36276 0.66821 -0.35263
 C419 C 0.36043 0.65333 -0.29408
 C420 C 0.34050 0.65684 -0.26279
 C421 C 0.32318 0.67499 -0.28998
 C422 C 0.32537 0.68974 -0.34913
 N423 N 0.37855 0.63514 -0.26724
 N424 N 0.37682 0.61792 -0.21714
 C425 C 0.39500 0.60030 -0.18954
 C426 C 0.39153 0.57946 -0.13725
 C427 C 0.40898 0.56260 -0.10827
 C428 C 0.43033 0.56661 -0.13093
 C429 C 0.43375 0.58739 -0.18379
 C430 C 0.41624 0.60401 -0.21297
 H431 H 0.34755 0.69661 -0.42610
 H432 H 0.37804 0.66565 -0.37722
 H433 H 0.33837 0.64584 -0.21720
 H434 H 0.30814 0.67781 -0.26436
 H435 H 0.37524 0.57644 -0.11874
 H436 H 0.40577 0.54687 -0.06757
 H437 H 0.44996 0.59094 -0.20256
 H438 H 0.41934 0.62004 -0.25333
 C439 C -0.16040 1.21379 -0.31206
 C440 C -0.14291 1.19849 -0.28068
 C441 C -0.14387 1.16313 -0.26171
 C442 C -0.16255 1.14298 -0.27477
 C443 C -0.17994 1.15808 -0.30683
 C444 C -0.17911 1.19371 -0.32588
 N445 N -0.12553 1.14810 -0.23059
 N446 N -0.12644 1.11794 -0.20453
 C447 C -0.10788 1.10249 -0.17507
 C448 C -0.11073 1.07225 -0.13875
 C449 C -0.09288 1.05631 -0.11003
 C450 C -0.07176 1.07006 -0.11820
 C451 C -0.06897 1.10044 -0.15487
 C452 C -0.08687 1.11663 -0.18278
 H453 H -0.15931 1.24142 -0.32505
 H454 H -0.12859 1.21430 -0.27081
 H455 H -0.16357 1.11545 -0.26112
 H456 H -0.19385 1.14158 -0.31771
 H457 H -0.12685 1.06108 -0.13253
 H458 H -0.09562 1.03307 -0.08193
 H459 H -0.05295 1.11182 -0.16190
 H460 H -0.08425 1.13992 -0.21090
 C461 C 0.65483 0.71166 -0.33400
 C462 C 0.63722 0.69660 -0.30256
 C463 C 0.63934 0.66386 -0.27342
 C464 C 0.65938 0.64611 -0.27605
 C465 C 0.67701 0.66092 -0.30772
 C466 C 0.67518 0.69411 -0.33763
 N467 N 0.62088 0.64901 -0.24224
 N468 N 0.62224 0.62061 -0.21094
 C469 C 0.60380 0.60521 -0.18055
 C470 C 0.60698 0.57548 -0.14329
 C471 C 0.58934 0.55934 -0.11377
 C472 C 0.56808 0.57256 -0.12147
 C473 C 0.56494 0.60253 -0.15888
 C474 C 0.58266 0.61880 -0.18803
 H475 H 0.65239 0.73773 -0.35332
 H476 H 0.62188 0.71070 -0.30045
 H477 H 0.66136 0.62048 -0.25444
 H478 H 0.69168 0.64521 -0.31050
 H479 H 0.62319 0.56472 -0.13727
 H480 H 0.59236 0.53622 -0.08554
 H481 H 0.54881 0.61342 -0.16568
 H482 H 0.57979 0.64174 -0.21677
 C483 C 0.18677 1.13120 -0.31916
 C484 C 0.17013 1.11426 -0.28647
 C485 C 0.15192 1.13318 -0.26645
 C486 C 0.15061 1.16960 -0.27869
 C487 C 0.16735 1.18678 -0.31059
 C488 C 0.18578 1.16791 -0.33190
 N489 N 0.13500 1.11484 -0.23399
 N490 N 0.11679 1.12935 -0.22167
 C491 C 0.09990 1.11109 -0.18899
 C492 C 0.07918 1.12638 -0.18568
 C493 C 0.06218 1.10888 -0.15543
 C494 C 0.06575 1.07590 -0.12713
 C495 C 0.08671 1.06089 -0.12958
 C496 C 0.10361 1.07822 -0.16056
 H497 H 0.20077 1.11545 -0.33205
 H498 H 0.17141 1.08619 -0.27681
 H499 H 0.13662 1.18481 -0.26380
 H500 H 0.16517 1.21461 -0.32062
 H501 H 0.07614 1.15175 -0.20726
 H502 H 0.04626 1.12123 -0.15404
 H503 H 0.08998 1.03547 -0.10840
 H504 H 0.11954 1.06595 -0.16225
 C505 C 0.34454 0.28773 -0.33741
 C506 C 0.36230 0.30359 -0.30800
 C507 C 0.36005 0.33662 -0.27949
 C508 C 0.33975 0.35385 -0.28095
 C509 C 0.32202 0.33814 -0.31072
 C510 C 0.32422 0.30488 -0.33916
 N511 N 0.37855 0.35208 -0.24958
 N512 N 0.37718 0.38088 -0.21935
 C513 C 0.39560 0.39662 -0.18953
 C514 C 0.39239 0.42663 -0.15293
 C515 C 0.40992 0.44254 -0.12266
 C516 C 0.43111 0.42878 -0.12892
 C517 C 0.43434 0.39879 -0.16624
 C518 C 0.41673 0.38274 -0.19613
 H519 H 0.34677 0.26229 -0.35959
 H520 H 0.37786 0.29011 -0.30735
 H521 H 0.33760 0.37943 -0.25924
 H522 H 0.30651 0.35179 -0.31089
 H523 H 0.37620 0.43762 -0.14763
 H524 H 0.40685 0.46573 -0.09460
 H525 H 0.45044 0.38752 -0.17196
 H526 H 0.41962 0.35959 -0.22438
 C527 C -0.16148 0.79086 -0.32118
 C528 C -0.14377 0.80580 -0.29021
 C529 C -0.14449 0.84101 -0.27033
 C530 C -0.16320 0.86135 -0.28196
 C531 C -0.18083 0.84660 -0.31362
 C532 C -0.18020 0.81114 -0.33371
 N533 N -0.12593 0.85562 -0.23951
 N534 N -0.12657 0.88557 -0.21266
 C535 C -0.10784 0.90051 -0.18313
 C536 C -0.11049 0.93024 -0.14546
 C537 C -0.09255 0.94550 -0.11605
 C538 C -0.07151 0.93161 -0.12482
 C539 C -0.06888 0.90186 -0.16309
 C540 C -0.08690 0.88630 -0.19171
 H541 H -0.16055 0.76333 -0.33488
 H542 H -0.12946 0.78984 -0.28136
 H543 H -0.16405 0.88876 -0.26749
 H544 H -0.19476 0.86321 -0.32340
 H545 H -0.12654 0.94147 -0.13857
 H546 H -0.09516 0.96831 -0.08680
 H547 H -0.05292 0.89042 -0.17063
 H548 H -0.08444 0.86341 -0.22091
 C549 C 0.34241 0.70943 0.33011
 C550 C 0.36002 0.69323 0.30064
 C551 C 0.35740 0.66053 0.27126
 C552 C 0.33686 0.64401 0.27170
 C553 C 0.31925 0.66008 0.30153
 C554 C 0.32185 0.69298 0.33101
 N555 N 0.37588 0.64464 0.24192
 N556 N 0.37448 0.61597 0.21132
 C557 C 0.39310 0.60015 0.18259
 C558 C 0.39019 0.57029 0.14536
 C559 C 0.40801 0.55439 0.11632
 C560 C 0.42917 0.56803 0.12453
 C561 C 0.43206 0.59788 0.16244
 C562 C 0.41419 0.61387 0.19105
 H563 H 0.34496 0.73454 0.35315
 H564 H 0.37579 0.70614 0.30079
 H565 H 0.33444 0.61869 0.24930
 H566 H 0.30355 0.64696 0.30110
 H567 H 0.37403 0.55941 0.13860
 H568 H 0.40522 0.53135 0.08767
 H569 H 0.44810 0.60910 0.16965
 H570 H 0.41688 0.63688 0.21979
 C571 C -0.15787 1.20258 0.34395
 C572 C -0.13956 1.18737 0.31622
 C573 C -0.14084 1.15368 0.28962
 C574 C -0.16069 1.13503 0.29173
 C575 C -0.17895 1.15006 0.31998
 C576 C -0.17776 1.18407 0.34607
 N577 N -0.12192 1.13913 0.26032
 N578 N -0.12279 1.11040 0.22978
 C579 C -0.10416 1.09541 0.19985
 C580 C -0.10723 1.06644 0.16081
 C581 C -0.08962 1.05156 0.12945
 C582 C -0.06843 1.06513 0.13725
 C583 C -0.06530 1.09398 0.17732
 C584 C -0.08305 1.10915 0.20817
 H585 H -0.15644 1.22865 0.36438
 H586 H -0.12437 1.20197 0.31505
 H587 H -0.16210 1.10890 0.27156
 H588 H -0.19411 1.13533 0.32061
 H589 H -0.12340 1.05562 0.15407
 H590 H -0.09268 1.02946 0.09893
 H591 H -0.04922 1.10511 0.18424
 H592 H -0.08029 1.13152 0.23835
 C593 C 0.65726 0.29191 0.33296
 C594 C 0.63924 0.30653 0.30299
 C595 C 0.64092 0.33932 0.27333
 C596 C 0.66094 0.35750 0.27411
 C597 C 0.67892 0.34305 0.30449
 C598 C 0.67727 0.31008 0.33419
 N599 N 0.62212 0.35370 0.24337
 N600 N 0.62310 0.38200 0.21167
 C601 C 0.60441 0.39704 0.18216
 C602 C 0.60731 0.42649 0.14407
 C603 C 0.58950 0.44218 0.11498
 C604 C 0.56830 0.42881 0.12393
 C605 C 0.56542 0.39915 0.16230
 C606 C 0.58334 0.38330 0.19105
 H607 H 0.65545 0.26666 0.35609
 H608 H 0.62390 0.29232 0.30292
 H609 H 0.66266 0.38293 0.25158
 H610 H 0.69418 0.35748 0.30428
 H611 H 0.62346 0.43734 0.13695
 H612 H 0.59235 0.46501 0.08587
 H613 H 0.54935 0.38815 0.17008
 H614 H 0.58070 0.36056 0.22046
 C615 C 0.16467 0.84437 0.37357
 C616 C 0.14659 0.85913 0.34417
 C617 C 0.14528 0.85942 0.27990
 C618 C 0.16225 0.84448 0.24506
 C619 C 0.18017 0.82915 0.27445
 C620 C 0.18155 0.82904 0.33896
 N621 N 0.12645 0.87455 0.25132
 N622 N 0.12578 0.88147 0.19405
 C623 C 0.10672 0.89603 0.16577
 C624 C 0.10847 0.91137 0.10738
 C625 C 0.09029 0.92682 0.07951
 C626 C 0.06991 0.92638 0.10914
 C627 C 0.06809 0.91012 0.16710
 C628 C 0.08637 0.89534 0.19544
 H629 H 0.16528 0.84427 0.42337
 H630 H 0.13357 0.87046 0.37149
 H631 H 0.16154 0.84427 0.19530
 H632 H 0.19304 0.81758 0.24686
 H633 H 0.12405 0.91194 0.08396
 H634 H 0.09217 0.93908 0.03482
 H635 H 0.05263 0.90954 0.19119
 H636 H 0.08460 0.88337 0.24042
   
