data_POSCAR
  _audit_creation_date              2014-09-24
  _audit_creation_method            'ToBaCCo'
  _symmetry_space_group_name_H-M    'P1'
  _symmetry_Int_Tables_number       1
  _symmetry_cell_setting            triclinic
  loop_
  _symmetry_equiv_pos_as_xyz
 x,y,z
_cell_length_a 44.9125
_cell_length_b 49.0562
_cell_length_c 35.2397
_cell_angle_alpha 90.584100
_cell_angle_beta 93.233800
_cell_angle_gamma 86.159800
loop_
  _atom_site_label
  _atom_site_type_symbol
  _atom_site_fract_x
  _atom_site_fract_y
  _atom_site_fract_z
C1 C 0.63130 0.67117 0.61855
 C2 C 0.65998 0.66761 0.60480
 C3 C 0.67623 0.64232 0.60797
 C4 C 0.66381 0.62025 0.62478
 C5 C 0.63456 0.62296 0.63774
 C6 C 0.61875 0.64880 0.63457
 H7 H 0.66982 0.68453 0.59180
 H8 H 0.67664 0.60076 0.62580
 H9 H 0.59727 0.65222 0.64686
 C10 C 0.87358 0.32353 0.14646
 C11 C 0.84388 0.32444 0.13083
 C12 C 0.82705 0.34933 0.12506
 C13 C 0.83973 0.37379 0.13559
 C14 C 0.86900 0.37360 0.15175
 C15 C 0.88585 0.34855 0.15662
 H16 H 0.83408 0.30596 0.12076
 H17 H 0.82671 0.39303 0.13130
 H18 H 0.90796 0.34870 0.17047
 C19 C 0.38025 0.17828 -0.15769
 C20 C 0.38911 0.15150 -0.16830
 C21 C 0.37344 0.12945 -0.15702
 C22 C 0.34814 0.13450 -0.13573
 C23 C 0.33904 0.16126 -0.12451
 C24 C 0.35551 0.18304 -0.13539
 H25 H 0.40846 0.14780 -0.18514
 H26 H 0.33577 0.11747 -0.12762
 H27 H 0.34915 0.20374 -0.12662
 C28 C 0.10800 0.83673 0.36276
 C29 C 0.12385 0.83357 0.39852
 C30 C 0.14605 0.85115 0.41018
 C31 C 0.15239 0.87244 0.38645
 C32 C 0.13640 0.87673 0.35160
 C33 C 0.11423 0.85909 0.34005
 H34 H 0.12069 0.81647 0.41665
 H35 H 0.16941 0.88614 0.39557
 H36 H 0.10176 0.86331 0.31337
 N37 N 0.07226 0.16320 0.13934
 N38 N 0.06030 0.14273 0.15521
 C39 C 0.03236 0.15082 0.16436
 C40 C 0.02653 0.17790 0.15379
 C41 C 0.05251 0.18506 0.13816
 H42 H 0.01746 0.13797 0.17783
 H43 H 0.05660 0.20447 0.12587
 Cu44 Cu 0.08269 0.10767 0.16282
 Cu45 Cu 0.11236 0.15996 0.12079
 Cu46 Cu 0.14348 0.09374 0.11353
 N47 N 0.10949 0.07549 0.17379
 N48 N 0.13351 0.07041 0.15459
 C49 C 0.14814 0.04723 0.16742
 C50 C 0.13249 0.03714 0.19632
 C51 C 0.10795 0.05556 0.19952
 H52 H 0.16853 0.03832 0.15621
 H53 H 0.09057 0.05476 0.21943
 N54 N 0.15805 0.12450 0.08648
 N55 N 0.14665 0.14984 0.08981
 C56 C 0.16104 0.16606 0.06740
 C57 C 0.18271 0.15015 0.04932
 C58 C 0.18017 0.12390 0.06226
 H59 H 0.15583 0.18778 0.06419
 H60 H 0.19302 0.10557 0.05409
 H61 H 0.10533 0.12098 0.10495
 H62 H 0.13064 0.12461 0.14835
 N63 N 0.43317 0.83111 0.64531
 N64 N 0.44757 0.84438 0.67238
 C65 C 0.47673 0.83606 0.67338
 C66 C 0.48087 0.81622 0.64567
 C67 C 0.45270 0.81349 0.62846
 H68 H 0.49352 0.84338 0.69346
 H69 H 0.44683 0.79966 0.60557
 Cu70 Cu 0.42696 0.87065 0.70461
 Cu71 Cu 0.39010 0.83745 0.63487
 Cu72 Cu 0.35287 0.88317 0.69506
 N73 N 0.40766 0.90387 0.72444
 N74 N 0.37855 0.90881 0.72107
 C75 C 0.37133 0.93323 0.73714
 C76 C 0.39748 0.94431 0.75109
 C77 C 0.42004 0.92495 0.74242
 H78 H 0.34876 0.94229 0.73796
 H79 H 0.44383 0.92611 0.74800
 N80 N 0.33228 0.86257 0.65433
 N81 N 0.34656 0.84656 0.62998
 C82 C 0.32663 0.83797 0.60323
 C83 C 0.29850 0.84883 0.61142
 C84 C 0.30288 0.86422 0.64408
 H85 H 0.33211 0.82488 0.57940
 H86 H 0.28611 0.87682 0.65818
 H87 H 0.38574 0.87676 0.65740
 H88 H 0.38069 0.84758 0.68929
 N89 N 0.94505 0.66382 0.36092
 N90 N 0.94980 0.65497 0.32631
 C91 C 0.96810 0.67147 0.31009
 C92 C 0.97537 0.69176 0.33599
 C93 C 0.96045 0.68610 0.36808
 H94 H 0.97573 0.66874 0.28166
 H95 H 0.96019 0.69763 0.39440
 Cu96 Cu 0.93179 0.62258 0.30599
 Cu97 Cu 0.91898 0.64566 0.39365
 Cu98 Cu 0.87084 0.60308 0.34539
 N99 N 0.91510 0.58805 0.29204
 N100 N 0.89073 0.58074 0.30699
 C101 C 0.88358 0.55649 0.29220
 C102 C 0.90483 0.54790 0.26681
 C103 C 0.92449 0.56858 0.26745
 H104 H 0.86473 0.54567 0.30026
 H105 H 0.94414 0.56949 0.25128
 N106 N 0.86315 0.61897 0.39561
 N107 N 0.88236 0.63372 0.41501
 C108 C 0.87162 0.64010 0.44912
 C109 C 0.84423 0.62897 0.45112
 C110 C 0.83956 0.61576 0.41664
 H111 H 0.88254 0.65255 0.47049
 H112 H 0.82073 0.60411 0.40783
 H113 H 0.91281 0.60847 0.36572
 H114 H 0.89224 0.64008 0.34638
 N115 N 0.54222 0.35151 -0.14186
 N116 N 0.53789 0.36022 -0.17699
 C117 C 0.51742 0.34544 -0.19549
 C118 C 0.50822 0.32650 -0.17048
 C119 C 0.52433 0.33110 -0.13658
 H120 H 0.50979 0.34829 -0.22491
 H121 H 0.52391 0.31987 -0.11038
 Cu122 Cu 0.55920 0.39024 -0.19490
 Cu123 Cu 0.57159 0.36676 -0.10635
 Cu124 Cu 0.62246 0.40610 -0.14756
 N125 N 0.57832 0.42336 -0.20583
 N126 N 0.60364 0.42929 -0.18812
 C127 C 0.61235 0.45274 -0.20218
 C128 C 0.59101 0.46217 -0.22977
 C129 C 0.56978 0.44295 -0.23128
 H130 H 0.63227 0.46251 -0.19233
 H131 H 0.54971 0.44305 -0.24975
 N132 N 0.63007 0.38912 -0.09722
 N133 N 0.61024 0.37504 -0.08111
 C134 C 0.62201 0.36564 -0.04743
 C135 C 0.65074 0.37418 -0.04189
 C136 C 0.65498 0.38918 -0.07410
 H137 H 0.61066 0.35282 -0.02898
 H138 H 0.67495 0.39884 -0.08083
 H139 H 0.58037 0.40328 -0.13259
 H140 H 0.59836 0.37063 -0.15050
 C141 C -0.06194 0.27120 0.15360
 C142 C -0.07655 0.24794 0.15887
 C143 C -0.10732 0.24825 0.16092
 C144 C -0.12377 0.27352 0.15712
 C145 C -0.10943 0.29818 0.15144
 C146 C -0.07772 0.29660 0.15017
 O147 O -0.03268 0.26639 0.15108
 C148 C -0.02876 0.23948 0.15495
 C149 C -0.05486 0.22721 0.15996
 C150 C -0.05587 0.19912 0.16397
 C151 C -0.02886 0.18303 0.16257
 C152 C -0.00161 0.19517 0.15693
 C153 C -0.00173 0.22392 0.15332
 H154 H -0.11835 0.22965 0.16516
 H155 H -0.14764 0.27366 0.15986
 H156 H -0.06550 0.31426 0.14459
 H157 H -0.07672 0.18988 0.16768
 H158 H -0.02941 0.16111 0.16507
 H159 H 0.01854 0.23399 0.14919
 C160 C 0.56856 0.72662 0.61443
 C161 C 0.58386 0.74899 0.62550
 C162 C 0.61468 0.74761 0.63274
 C163 C 0.63031 0.72205 0.62898
 C164 C 0.61497 0.69851 0.61835
 C165 C 0.58363 0.70107 0.61037
 O166 O 0.53916 0.73189 0.61109
 C167 C 0.53579 0.75814 0.62048
 C168 C 0.56244 0.76956 0.62959
 C169 C 0.56396 0.79627 0.64274
 C170 C 0.53690 0.81172 0.64709
 C171 C 0.50909 0.80035 0.63813
 C172 C 0.50864 0.77326 0.62404
 H173 H 0.62618 0.76541 0.64201
 H174 H 0.65416 0.72042 0.63587
 H175 H 0.57122 0.68355 0.60230
 H176 H 0.58518 0.80470 0.65024
 H177 H 0.53764 0.83245 0.65776
 H178 H 0.48783 0.76378 0.61779
 C179 C 1.05385 0.78180 0.36093
 C180 C 1.04908 0.77810 0.32248
 C181 C 1.06231 0.79337 0.29598
 C182 C 1.08146 0.81316 0.30961
 C183 C 1.08735 0.81750 0.34945
 C184 C 1.07278 0.80134 0.37523
 O185 O 1.03933 0.76494 0.38133
 C186 C 1.02523 0.75016 0.35509
 C187 C 1.03052 0.75738 0.31861
 C188 C 1.01851 0.74417 0.28679
 C189 C 1.00036 0.72259 0.29282
 C190 C 0.99447 0.71470 0.33021
 C191 C 1.00709 0.72889 0.36176
 H192 H 1.05846 0.78985 0.26578
 H193 H 1.09273 0.82389 0.28859
 H194 H 1.07529 0.80405 0.40570
 H195 H 1.02307 0.75017 0.25834
 H196 H 0.99074 0.71227 0.26827
 H197 H 1.00341 0.72329 0.39066
 C198 C 0.42625 0.23991 -0.15500
 C199 C 0.43126 0.24235 -0.19294
 C200 C 0.41982 0.22494 -0.22068
 C201 C 0.40270 0.20404 -0.20877
 C202 C 0.39716 0.20117 -0.16982
 C203 C 0.40889 0.21956 -0.14262
 O204 O 0.44020 0.25778 -0.13310
 C205 C 0.45430 0.27181 -0.15775
 C206 C 0.44944 0.26328 -0.19474
 C207 C 0.46248 0.27487 -0.22501
 C208 C 0.48141 0.29605 -0.21681
 C209 C 0.48715 0.30500 -0.17880
 C210 C 0.47319 0.29268 -0.14891
 H211 H 0.42429 0.22711 -0.25032
 H212 H 0.39379 0.19003 -0.22976
 H213 H 0.40540 0.21749 -0.11265
 H214 H 0.45847 0.26768 -0.25387
 H215 H 0.49210 0.30495 -0.24003
 H216 H 0.47696 0.29903 -0.11963
 C217 C 0.12790 -0.06023 0.29016
 C218 C 0.15722 -0.05738 0.28248
 C219 C 0.18056 -0.07528 0.29622
 C220 C 0.17341 -0.09698 0.31892
 C221 C 0.14332 -0.10049 0.32707
 C222 C 0.12023 -0.08188 0.31227
 O223 O 0.10921 -0.04068 0.27493
 C224 C 0.12713 -0.02521 0.25717
 C225 C 0.15668 -0.03463 0.26076
 C226 C 0.17922 -0.02169 0.24414
 C227 C 0.17096 0.00191 0.22287
 C228 C 0.14064 0.01223 0.21892
 C229 C 0.11845 -0.00158 0.23652
 H230 H 0.20348 -0.07255 0.28990
 H231 H 0.19122 -0.11117 0.33000
 H232 H 0.09714 -0.08391 0.31841
 H233 H 0.20233 -0.02951 0.24737
 H234 H 0.18829 0.01229 0.20993
 H235 H 0.09511 0.00559 0.23381
 C236 C 0.62477 0.55830 -0.31045
 C237 C 0.59423 0.55757 -0.31388
 C238 C 0.57592 0.57737 -0.33311
 C239 C 0.58958 0.59899 -0.34924
 C240 C 0.62127 0.60059 -0.34629
 C241 C 0.63897 0.57940 -0.32673
 O242 O 0.63799 0.53773 -0.29021
 C243 C 0.61523 0.52369 -0.28086
 C244 C 0.58800 0.53494 -0.29483
 C245 C 0.56119 0.52360 -0.28859
 C246 C 0.56249 0.49958 -0.26716
 C247 C 0.59028 0.48755 -0.25220
 C248 C 0.61704 0.49994 -0.25909
 H249 H 0.55191 0.57622 -0.33563
 H250 H 0.57522 0.61390 -0.36517
 H251 H 0.66298 0.57980 -0.32249
 H252 H 0.54002 0.53290 -0.29981
 H253 H 0.54177 0.49062 -0.26184
 H254 H 0.63860 0.49122 -0.24831
 C255 C 0.37540 1.05608 0.80870
 C256 C 0.40535 1.04864 0.81468
 C257 C 0.42582 1.06637 0.82991
 C258 C 0.41498 1.09292 0.83925
 C259 C 0.38417 1.10117 0.83338
 C260 C 0.36408 1.08233 0.81811
 O261 O 0.35994 1.03633 0.79295
 C262 C 0.38062 1.01600 0.78895
 C263 C 0.40872 1.02249 0.80191
 C264 C 0.43373 1.00442 0.79997
 C265 C 0.42969 0.97862 0.78376
 C266 C 0.40098 0.97135 0.76961
 C267 C 0.37606 0.99044 0.77265
 H268 H 0.44932 1.06005 0.83420
 H269 H 0.43054 1.10704 0.85127
 H270 H 0.34052 1.08814 0.81294
 H271 H 0.45564 1.01004 0.81036
 H272 H 0.44913 0.96453 0.78220
 H273 H 0.35384 0.98589 0.76215
 C274 C 0.87677 0.44313 0.19698
 C275 C 0.90568 0.44778 0.18933
 C276 C 0.92376 0.42914 0.16948
 C277 C 0.91152 0.40474 0.15707
 C278 C 0.88168 0.39953 0.16454
 C279 C 0.86414 0.41916 0.18478
 O280 O 0.86351 0.46312 0.21681
 C281 C 0.88448 0.48082 0.22179
 C282 C 0.91069 0.47249 0.20548
 C283 C 0.93559 0.48794 0.20761
 C284 C 0.93340 0.51291 0.22750
 C285 C 0.90664 0.52189 0.24490
 C286 C 0.88183 0.50548 0.24170
 H287 H 0.94650 0.43317 0.16387
 H288 H 0.92517 0.39002 0.14141
 H289 H 0.84148 0.41565 0.19149
 H290 H 0.95603 0.48095 0.19464
 H291 H 0.95276 0.52491 0.22974
 H292 H 0.86097 0.51158 0.25426
 C293 C 0.28138 0.15299 -0.05185
 C294 C 0.26272 0.17602 -0.05850
 C295 C 0.26764 0.19500 -0.08611
 C296 C 0.29280 0.19001 -0.10774
 C297 C 0.31255 0.16642 -0.10131
 C298 C 0.30661 0.14775 -0.07271
 O299 O 0.27250 0.13726 -0.02484
 C300 C 0.24767 0.15064 -0.01420
 C301 C 0.24072 0.17454 -0.03377
 C302 C 0.21556 0.19163 -0.02708
 C303 C 0.19674 0.18367 0.00076
 C304 C 0.20324 0.15889 0.02102
 C305 C 0.22924 0.14227 0.01336
 H306 H 0.25251 0.21288 -0.09110
 H307 H 0.29656 0.20430 -0.12989
 H308 H 0.32127 0.12974 -0.06656
 H309 H 0.21050 0.21033 -0.04286
 H310 H 0.17688 0.19658 0.00591
 H311 H 0.23510 0.12337 0.02838
 C312 C 0.73818 0.63427 0.54054
 C313 C 0.76281 0.63585 0.56536
 C314 C 0.76060 0.63870 0.60449
 C315 C 0.73184 0.64018 0.61848
 C316 C 0.70626 0.63906 0.59326
 C317 C 0.70945 0.63599 0.55381
 O318 O 0.74504 0.63163 0.50451
 C319 C 0.77462 0.63164 0.50654
 C320 C 0.78663 0.63435 0.54307
 C321 C 0.81715 0.63565 0.55142
 C322 C 0.83603 0.63405 0.52088
 C323 C 0.82417 0.63088 0.48301
 C324 C 0.79298 0.62961 0.47590
 H325 H 0.78026 0.63989 0.62349
 H326 H 0.72937 0.64266 0.64874
 H327 H 0.69011 0.63523 0.53411
 H328 H 0.82609 0.63797 0.58035
 H329 H 0.85986 0.63494 0.52681
 H330 H 0.78318 0.62760 0.44731
 C331 C 0.75901 0.36636 0.05949
 C332 C 0.73972 0.34816 0.07184
 C333 C 0.74729 0.33029 0.10176
 C334 C 0.77600 0.33110 0.11950
 C335 C 0.79637 0.34963 0.10720
 C336 C 0.78755 0.36767 0.07692
 O337 O 0.74785 0.38087 0.02978
 C338 C 0.72091 0.37163 0.02323
 C339 C 0.71481 0.35167 0.04822
 C340 C 0.68817 0.33876 0.04594
 C341 C 0.66701 0.34662 0.01659
 C342 C 0.67280 0.36701 -0.00995
 C343 C 0.70022 0.37977 -0.00616
 H344 H 0.73179 0.31603 0.11083
 H345 H 0.78243 0.31728 0.14275
 H346 H 0.80278 0.38170 0.06649
 H347 H 0.68395 0.32295 0.06579
 H348 H 0.64644 0.33633 0.01435
 H349 H 0.70557 0.39540 -0.02562
 C350 C 0.21027 0.84443 0.48374
 C351 C 0.19520 0.84419 0.51666
 C352 C 0.16414 0.84488 0.51659
 C353 C 0.14803 0.84618 0.48118
 C354 C 0.16315 0.84724 0.44701
 C355 C 0.19473 0.84608 0.44841
 O356 O 0.23969 0.84418 0.48985
 C357 C 0.24334 0.84397 0.52744
 C358 C 0.21685 0.84416 0.54529
 C359 C 0.21557 0.84557 0.58464
 C360 C 0.24268 0.84694 0.60636
 C361 C 0.27025 0.84646 0.58851
 C362 C 0.27050 0.84469 0.54847
 H363 H 0.15272 0.84477 0.54282
 H364 H 0.12384 0.84725 0.48035
 H365 H 0.20679 0.84688 0.42273
 H366 H 0.19446 0.84610 0.59810
 H367 H 0.24222 0.84832 0.63701
 H368 H 0.29112 0.84489 0.53401
   
