data_POSCAR
  _audit_creation_date              2014-09-24
  _audit_creation_method            'ToBaCCo'
  _symmetry_space_group_name_H-M    'P1'
  _symmetry_Int_Tables_number       1
  _symmetry_cell_setting            triclinic
  loop_
  _symmetry_equiv_pos_as_xyz
 x,y,z
_cell_length_a 55.7524
_cell_length_b 55.8030
_cell_length_c 55.8609
_cell_angle_alpha 90.001700
_cell_angle_beta 89.997700
_cell_angle_gamma 89.942300
loop_
  _atom_site_label
  _atom_site_type_symbol
  _atom_site_fract_x
  _atom_site_fract_y
  _atom_site_fract_z
C1 C 0.18428 0.15319 0.18479
 C2 C 0.17391 0.14306 0.20534
 C3 C 0.15333 0.15327 0.21613
 C4 C 0.14337 0.17402 0.20547
 C5 C 0.15354 0.18425 0.18492
 C6 C 0.17403 0.17378 0.17451
 C7 C 0.20486 0.14297 0.17450
 C8 C 0.21558 0.15294 0.15381
 C9 C 0.20484 0.17357 0.14368
 C10 C 0.18431 0.18396 0.15384
 C11 C 0.17406 0.20460 0.14375
 C12 C 0.15360 0.21518 0.15401
 C13 C 0.14342 0.20482 0.17457
 H14 H 0.18277 0.12780 0.21339
 H15 H 0.12707 0.18191 0.21246
 H16 H 0.21180 0.12662 0.18228
 H17 H 0.21290 0.18242 0.12844
 H18 H 0.18223 0.21266 0.12809
 H19 H 0.12746 0.21269 0.18242
 C20 C -0.18429 0.84680 0.18475
 C21 C -0.17395 0.85693 0.20530
 C22 C -0.15338 0.84673 0.21612
 C23 C -0.14339 0.82600 0.20547
 C24 C -0.15354 0.81575 0.18491
 C25 C -0.17403 0.82621 0.17448
 C26 C -0.20486 0.85701 0.17443
 C27 C -0.21556 0.84703 0.15374
 C28 C -0.20481 0.82640 0.14362
 C29 C -0.18428 0.81602 0.15380
 C30 C -0.17401 0.79538 0.14373
 C31 C -0.15356 0.78480 0.15402
 C32 C -0.14340 0.79518 0.17458
 H33 H -0.18282 0.87220 0.21335
 H34 H -0.12710 0.81811 0.21247
 H35 H -0.21182 0.87336 0.18221
 H36 H -0.21285 0.81754 0.12838
 H37 H -0.18216 0.78731 0.12807
 H38 H -0.12745 0.78733 0.18245
 C39 C -0.18472 0.15368 -0.18442
 C40 C -0.17448 0.14360 -0.20506
 C41 C -0.15402 0.15385 -0.21561
 C42 C -0.14378 0.17438 -0.20523
 C43 C -0.15384 0.18469 -0.18466
 C44 C -0.17442 0.17433 -0.17422
 C45 C -0.20526 0.14355 -0.17405
 C46 C -0.21599 0.15369 -0.15343
 C47 C -0.20526 0.17438 -0.14344
 C48 C -0.18471 0.18466 -0.15364
 C49 C -0.17430 0.20519 -0.14352
 C50 C -0.15380 0.21565 -0.15380
 C51 C -0.14367 0.20524 -0.17438
 H52 H -0.18267 0.12795 -0.21313
 H53 H -0.12781 0.18222 -0.21305
 H54 H -0.21334 0.12832 -0.18291
 H55 H -0.21217 0.18219 -0.12711
 H56 H -0.18243 0.21331 -0.12787
 H57 H -0.12771 0.21300 -0.18227
 C58 C 0.18434 0.84636 -0.18486
 C59 C 0.17406 0.85652 -0.20542
 C60 C 0.15346 0.84641 -0.21623
 C61 C 0.14341 0.82571 -0.20557
 C62 C 0.15354 0.81538 -0.18504
 C63 C 0.17408 0.82571 -0.17463
 C64 C 0.20497 0.85642 -0.17454
 C65 C 0.21545 0.84613 -0.15406
 C66 C 0.20498 0.82560 -0.14388
 C67 C 0.18440 0.81534 -0.15401
 C68 C 0.17405 0.79480 -0.14391
 C69 C 0.15352 0.78438 -0.15417
 C70 C 0.14336 0.79484 -0.17471
 H71 H 0.18297 0.87176 -0.21343
 H72 H 0.12708 0.81792 -0.21256
 H73 H 0.21310 0.87206 -0.18267
 H74 H 0.21274 0.81774 -0.12791
 H75 H 0.18221 0.78667 -0.12828
 H76 H 0.12737 0.78709 -0.18256
 C77 C 0.15305 1.18446 0.81517
 C78 C 0.14291 1.17414 0.79461
 C79 C 0.15309 1.15357 0.78380
 C80 C 0.17383 1.14356 0.79447
 C81 C 0.18408 1.15369 0.81504
 C82 C 0.17364 1.17418 0.82545
 C83 C 0.14287 1.20504 0.82547
 C84 C 0.15286 1.21572 0.84617
 C85 C 0.17348 1.20494 0.85630
 C86 C 0.18384 1.18441 0.84613
 C87 C 0.20448 1.17413 0.85622
 C88 C 0.21504 1.15368 0.84594
 C89 C 0.20465 1.14353 0.82538
 H90 H 0.12765 1.18302 0.78655
 H91 H 0.18170 1.12726 0.78749
 H92 H 0.12652 1.21201 0.81768
 H93 H 0.18235 1.21297 0.87154
 H94 H 0.21256 1.18226 0.87188
 H95 H 0.21249 1.12758 0.81752
 C96 C 0.84705 0.81550 0.81531
 C97 C 0.85728 0.82579 0.79478
 C98 C 0.84731 0.84653 0.78409
 C99 C 0.82670 0.85671 0.79482
 C100 C 0.81635 0.84660 0.81535
 C101 C 0.82659 0.82595 0.82566
 C102 C 0.85720 0.79494 0.82567
 C103 C 0.84715 0.78430 0.84637
 C104 C 0.82655 0.79515 0.85647
 C105 C 0.81630 0.81573 0.84631
 C106 C 0.79568 0.82609 0.85636
 C107 C 0.78523 0.84660 0.84609
 C108 C 0.79573 0.85676 0.82559
 H109 H 0.87360 0.81794 0.78782
 H110 H 0.81782 0.87196 0.78676
 H111 H 0.87352 0.78790 0.81789
 H112 H 0.81762 0.78715 0.87169
 H113 H 0.78753 0.81796 0.87199
 H114 H 0.78798 0.87276 0.81775
 C115 C 0.15371 0.81505 1.18474
 C116 C 0.14362 0.82541 1.20531
 C117 C 0.15392 0.84588 1.21577
 C118 C 0.17449 0.85603 1.20533
 C119 C 0.18474 0.84590 1.18475
 C120 C 0.17428 0.82536 1.17438
 C121 C 0.14349 0.79453 1.17444
 C122 C 0.15345 0.78385 1.15371
 C123 C 0.17407 0.79459 1.14355
 C124 C 0.18445 0.81511 1.15369
 C125 C 0.20508 0.82536 1.14358
 C126 C 0.21566 0.84580 1.15384
 C127 C 0.20530 0.85599 1.17441
 H128 H 0.12797 0.81728 1.21345
 H129 H 0.18239 0.87198 1.21310
 H130 H 0.12716 0.78759 1.18227
 H131 H 0.18291 0.78656 1.12829
 H132 H 0.21313 0.81721 1.12790
 H133 H 0.21314 0.87193 1.18226
 C134 C 0.84650 1.18439 1.18484
 C135 C 0.85663 1.17401 1.20537
 C136 C 0.84642 1.15344 1.21612
 C137 C 0.82567 1.14352 1.20543
 C138 C 0.81539 1.15373 1.18490
 C139 C 0.82583 1.17422 1.17454
 C140 C 0.85666 1.20497 1.17458
 C141 C 0.84647 1.21550 1.15408
 C142 C 0.82592 1.20513 1.14383
 C143 C 0.81554 1.18459 1.15391
 C144 C 0.79492 1.17437 1.14379
 C145 C 0.78439 1.15390 1.15401
 C146 C 0.79480 1.14366 1.17454
 H147 H 0.87190 1.18284 1.21342
 H148 H 0.81779 1.12722 1.21238
 H149 H 0.87269 1.21267 1.18240
 H150 H 0.81775 1.21329 1.12821
 H151 H 0.78683 1.18259 1.12816
 H152 H 0.78697 1.12770 1.18235
 N153 N 0.52516 1.04248 0.97413
 N154 N 0.54379 1.05683 0.97158
 N155 N 0.47470 1.02578 0.95748
 N156 N 0.45605 1.02835 0.94316
 N157 N 0.47465 1.04240 0.97412
 N158 N 0.45597 1.05671 0.97156
 N159 N 0.52520 1.02586 0.95749
 N160 N 0.54386 1.02845 0.94319
 C161 C 0.55527 1.04790 0.95215
 C162 C 0.44455 1.04777 0.95212
 N163 N 0.47487 0.95755 0.97402
 N164 N 0.45625 0.94319 0.97142
 N165 N 0.52534 0.97428 0.95744
 N166 N 0.54400 0.97175 0.94312
 N167 N 0.52538 0.95763 0.97404
 N168 N 0.54407 0.94333 0.97146
 N169 N 0.47484 0.97420 0.95742
 N170 N 0.45620 0.97162 0.94309
 Mn171 Mn 0.50002 1.00003 0.95716
 C172 C 0.44479 0.95215 0.95200
 C173 C 0.55550 0.95231 0.95205
 N174 N 0.47463 1.04234 1.02564
 N175 N 0.45594 1.05665 1.02824
 N176 N 0.52518 1.02577 1.04225
 N177 N 0.54381 1.02838 1.05659
 N178 N 0.52513 1.04242 1.02565
 N179 N 0.54373 1.05680 1.02825
 N180 N 0.47467 1.02568 1.04224
 N181 N 0.45602 1.02821 1.05657
 Mn182 Mn 0.49989 1.04271 0.99989
 C183 C 0.44452 1.04765 1.04766
 C184 C 0.55521 1.04786 1.04767
 N185 N 0.52537 0.95757 1.02556
 N186 N 0.54406 0.94327 1.02813
 N187 N 0.47481 0.97410 1.04218
 N188 N 0.45617 0.97147 1.05650
 N189 N 0.47487 0.95749 1.02555
 N190 N 0.45626 0.94310 1.02810
 N191 N 0.52531 0.97419 1.04220
 N192 N 0.54396 0.97164 1.05653
 Mn193 Mn 0.50012 0.95725 0.99979
 Mn194 Mn 0.49999 0.99994 1.04252
 Cl195 Cl 0.50001 0.99998 0.99984
 C196 C 0.55547 0.95222 1.04758
 C197 C 0.44478 0.95201 1.04754
 N198 N 0.02591 0.47475 0.04245
 N199 N 0.02850 0.45611 0.05677
 N200 N 0.04255 0.52519 0.02582
 N201 N 0.05689 0.54382 0.02836
 N202 N 0.02592 0.52521 0.04245
 N203 N 0.02849 0.54385 0.05676
 N204 N 0.04254 0.47473 0.02582
 N205 N 0.05689 0.45608 0.02837
 C206 C 0.04795 0.44465 0.04781
 C207 C 0.04795 0.55528 0.04780
 N208 N 0.02582 0.52519 -0.04231
 N209 N 0.02838 0.54382 -0.05664
 N210 N 0.04249 0.47472 -0.02571
 N211 N 0.05682 0.45605 -0.02829
 N212 N 0.02581 0.47474 -0.04230
 N213 N 0.02835 0.45610 -0.05662
 N214 N 0.04249 0.52518 -0.02571
 N215 N 0.05685 0.54379 -0.02831
 Mn216 Mn 0.04282 0.49995 0.00005
 C217 C 0.04786 0.55524 -0.04773
 C218 C 0.04782 0.44462 -0.04771
 N219 N -0.02571 0.52527 0.04251
 N220 N -0.02827 0.54391 0.05683
 N221 N -0.04238 0.47482 0.02592
 N222 N -0.05673 0.45620 0.02851
 N223 N -0.02571 0.47481 0.04252
 N224 N -0.02827 0.45617 0.05684
 N225 N -0.04238 0.52528 0.02591
 N226 N -0.05672 0.54393 0.02849
 Mn227 Mn 0.00010 0.50001 0.04279
 C228 C -0.04774 0.55537 0.04790
 C229 C -0.04775 0.44475 0.04793
 N230 N -0.02581 0.47480 -0.04224
 N231 N -0.02840 0.45617 -0.05656
 N232 N -0.04244 0.52528 -0.02561
 N233 N -0.05677 0.54394 -0.02816
 N234 N -0.02580 0.52525 -0.04224
 N235 N -0.02837 0.54390 -0.05656
 N236 N -0.04244 0.47482 -0.02561
 N237 N -0.05680 0.45620 -0.02816
 Mn238 Mn 0.00000 0.50000 -0.04258
 Mn239 Mn -0.04272 0.50005 0.00015
 Cl240 Cl 0.00005 0.50000 0.00010
 C241 C -0.04786 0.44475 -0.04759
 C242 C -0.04782 0.55537 -0.04760
 N243 N 1.02567 0.04247 0.52518
 N244 N 1.02819 0.05681 0.54379
 N245 N 1.04235 0.02582 0.47479
 N246 N 1.05670 0.02838 0.45617
 N247 N 1.02568 0.04245 0.47477
 N248 N 1.02823 0.05677 0.45614
 N249 N 1.04234 0.02585 0.52519
 N250 N 1.05667 0.02843 0.54382
 C251 C 1.04766 0.04788 0.55524
 C252 C 1.04771 0.04781 0.44472
 N253 N 1.02580 -0.04239 0.47481
 N254 N 1.02839 -0.05674 0.45620
 N255 N 1.04242 -0.02573 0.52521
 N256 N 1.05678 -0.02829 0.54382
 N257 N 1.02580 -0.04238 0.52521
 N258 N 1.02840 -0.05670 0.54383
 N259 N 1.04243 -0.02576 0.47480
 N260 N 1.05678 -0.02834 0.45618
 Mn261 Mn 1.04269 0.00005 0.50000
 C262 C 1.04784 -0.04780 0.44477
 C263 C 1.04785 -0.04774 0.55526
 N264 N 0.97405 0.04243 0.47477
 N265 N 0.97147 0.05675 0.45615
 N266 N 0.95742 0.02581 0.52518
 N267 N 0.94307 0.02836 0.54379
 N268 N 0.97404 0.04245 0.52518
 N269 N 0.97144 0.05678 0.54380
 N270 N 0.95742 0.02579 0.47477
 N271 N 0.94308 0.02835 0.45615
 Mn272 Mn 0.99986 0.04276 0.49997
 C273 C 0.95203 0.04779 0.44471
 C274 C 0.95199 0.04782 0.55523
 N275 N 0.97417 -0.04240 0.52520
 N276 N 0.97165 -0.05671 0.54384
 N277 N 0.95750 -0.02579 0.47480
 N278 N 0.94316 -0.02834 0.45617
 N279 N 0.97417 -0.04241 0.47480
 N280 N 0.97163 -0.05674 0.45616
 N281 N 0.95750 -0.02577 0.52520
 N282 N 0.94318 -0.02833 0.54385
 Mn283 Mn 0.99998 -0.04270 0.50000
 Mn284 Mn 0.95715 0.00001 0.49999
 Cl285 Cl 0.99992 0.00003 0.49999
 C286 C 0.95219 -0.04776 0.55528
 C287 C 0.95215 -0.04778 0.44473
 C288 C 1.11981 0.14723 0.27413
 C289 C 1.12289 0.12290 0.27909
 C290 C 1.13590 0.10854 0.26326
 C291 C 1.14589 0.11844 0.24255
 C292 C 1.14306 0.14308 0.23714
 C293 C 1.12972 0.15724 0.25344
 C294 C 1.11281 0.11273 0.30052
 C295 C 1.10441 0.10431 0.31854
 C296 C 1.09464 0.09455 0.33970
 C297 C 1.08635 0.08629 0.35784
 C298 C 1.07653 0.07651 0.37956
 C299 C 1.08716 0.05643 0.39022
 C300 C 1.07776 0.04705 0.41145
 C301 C 1.05762 0.05768 0.42227
 C302 C 1.04699 0.07779 0.41141
 C303 C 1.05642 0.08714 0.39018
 H304 H 1.10993 0.15858 0.28641
 H305 H 1.13822 0.08959 0.26684
 H306 H 1.15500 0.10634 0.23046
 H307 H 1.12764 0.17635 0.25101
 H308 H 1.10272 0.04806 0.38216
 H309 H 1.08627 0.03151 0.41940
 H310 H 1.03143 0.08629 0.41932
 H311 H 1.04805 0.10268 0.38207
 C312 C 0.86400 -0.10853 0.26326
 C313 C 0.87700 -0.12288 0.27910
 C314 C 0.88009 -0.14721 0.27414
 C315 C 0.87020 -0.15722 0.25345
 C316 C 0.85687 -0.14307 0.23714
 C317 C 0.85402 -0.11843 0.24254
 C318 C 0.88707 -0.11270 0.30053
 C319 C 0.89547 -0.10428 0.31855
 C320 C 0.90524 -0.09452 0.33971
 C321 C 0.91353 -0.08626 0.35785
 C322 C 0.92336 -0.07648 0.37957
 C323 C 0.94347 -0.08711 0.39019
 C324 C 0.95289 -0.07776 0.41142
 C325 C 0.94226 -0.05766 0.42228
 C326 C 0.92211 -0.04703 0.41146
 C327 C 0.91272 -0.05641 0.39024
 H328 H 0.86167 -0.08958 0.26684
 H329 H 0.88996 -0.15856 0.28643
 H330 H 0.87228 -0.17633 0.25102
 H331 H 0.84492 -0.10634 0.23045
 H332 H 0.95184 -0.10265 0.38208
 H333 H 0.96845 -0.08627 0.41933
 H334 H 0.91360 -0.03149 0.41941
 H335 H 0.89716 -0.04804 0.38216
 C336 C 0.86859 0.10825 0.73923
 C337 C 0.87651 0.12313 0.72068
 C338 C 0.87450 0.14803 0.72295
 C339 C 0.86461 0.15802 0.74367
 C340 C 0.85657 0.14322 0.76242
 C341 C 0.85867 0.11820 0.75996
 C342 C 0.88661 0.11290 0.69928
 C343 C 0.89504 0.10444 0.68129
 C344 C 0.90485 0.09465 0.66015
 C345 C 0.91318 0.08637 0.64204
 C346 C 0.92306 0.07657 0.62033
 C347 C 0.94315 0.08720 0.60972
 C348 C 0.95261 0.07783 0.58851
 C349 C 0.94205 0.05771 0.57766
 C350 C 0.92193 0.04707 0.58848
 C351 C 0.91249 0.05647 0.60969
 H352 H 0.87011 0.08895 0.73767
 H353 H 0.88050 0.15971 0.70867
 H354 H 0.86294 0.17732 0.74489
 H355 H 0.85292 0.10636 0.77420
 H356 H 0.95147 0.10276 0.61781
 H357 H 0.96816 0.08634 0.58060
 H358 H 0.91347 0.03152 0.58055
 H359 H 0.89694 0.04809 0.61776
 C360 C 1.11999 -0.14737 0.72576
 C361 C 1.12314 -0.12306 0.72080
 C362 C 1.13620 -0.10877 0.73663
 C363 C 1.14615 -0.11872 0.75735
 C364 C 1.14323 -0.14334 0.76276
 C365 C 1.12985 -0.15743 0.74645
 C366 C 1.11308 -0.11283 0.69937
 C367 C 1.10470 -0.10437 0.68137
 C368 C 1.09492 -0.09458 0.66021
 C369 C 1.08662 -0.08629 0.64208
 C370 C 1.07677 -0.07649 0.62037
 C371 C 1.08734 -0.05640 0.60972
 C372 C 1.07791 -0.04700 0.58851
 C373 C 1.05779 -0.05763 0.57769
 C374 C 1.04722 -0.07775 0.58854
 C375 C 1.05667 -0.08712 0.60975
 H376 H 1.11007 -0.15867 0.71348
 H377 H 1.13858 -0.08983 0.73305
 H378 H 1.15529 -0.10667 0.76943
 H379 H 1.12771 -0.17653 0.74889
 H380 H 1.10289 -0.04803 0.61779
 H381 H 1.08638 -0.03145 0.58058
 H382 H 1.03167 -0.08625 0.58063
 H383 H 1.04834 -0.10267 0.61785
 C384 C 0.26274 1.13551 1.10904
 C385 C 0.27859 1.12242 1.12332
 C386 C 0.27361 1.11926 1.14761
 C387 C 0.25289 1.12917 1.15765
 C388 C 0.23659 1.14261 1.14357
 C389 C 0.24201 1.14550 1.11897
 C390 C 0.30007 1.11238 1.11310
 C391 C 0.31812 1.10404 1.10462
 C392 C 0.33932 1.09433 1.09476
 C393 C 0.35748 1.08610 1.08642
 C394 C 0.37925 1.07633 1.07656
 C395 C 0.38996 1.05624 1.08710
 C396 C 0.41122 1.04686 1.07768
 C397 C 0.42203 1.05752 1.05759
 C398 C 0.41111 1.07764 1.04704
 C399 C 0.38985 1.08699 1.05650
 H400 H 0.26634 1.13790 1.09012
 H401 H 0.28590 1.10932 1.15890
 H402 H 0.25044 1.12703 1.17673
 H403 H 0.22992 1.15467 1.10692
 H404 H 0.38190 1.04785 1.10263
 H405 H 0.41920 1.03131 1.08613
 H406 H 0.41901 1.08616 1.03152
 H407 H 0.38170 1.10254 1.04819
 C408 C 0.27689 0.85186 0.87463
 C409 C 0.27918 0.87675 0.87661
 C410 C 0.26063 0.89167 0.86864
 C411 C 0.23988 0.88174 0.85869
 C412 C 0.23742 0.85673 0.85660
 C413 C 0.25616 0.84190 0.86471
 C414 C 0.30061 0.88696 0.88672
 C415 C 0.31862 0.89541 0.89514
 C416 C 0.33978 0.90521 0.90495
 C417 C 0.35791 0.91350 0.91326
 C418 C 0.37963 0.92332 0.92311
 C419 C 0.39025 0.94344 0.91257
 C420 C 0.41148 0.95287 0.92199
 C421 C 0.42234 0.94223 0.94208
 C422 C 0.41152 0.92208 0.95262
 C423 C 0.39029 0.91269 0.94317
 H424 H 0.29118 0.84016 0.88068
 H425 H 0.26219 0.91096 0.87013
 H426 H 0.22564 0.89360 0.85288
 H427 H 0.25494 0.82260 0.86305
 H428 H 0.38215 0.95182 0.89705
 H429 H 0.41939 0.96844 0.91354
 H430 H 0.41945 0.91357 0.96814
 H431 H 0.38221 0.89712 0.95148
 C432 C 0.73729 0.86441 1.10893
 C433 C 0.72142 0.87748 1.12320
 C434 C 0.72639 0.88065 1.14749
 C435 C 0.74711 0.87077 1.15755
 C436 C 0.76343 0.85734 1.14348
 C437 C 0.75803 0.85443 1.11888
 C438 C 0.69994 0.88750 1.11297
 C439 C 0.68189 0.89583 1.10448
 C440 C 0.66069 0.90552 1.09463
 C441 C 0.64252 0.91375 1.08630
 C442 C 0.62075 0.92353 1.07644
 C443 C 0.61002 0.94359 1.08703
 C444 C 0.58875 0.95297 1.07762
 C445 C 0.57797 0.94235 1.05750
 C446 C 0.58890 0.92226 1.04691
 C447 C 0.61016 0.91290 1.05636
 H448 H 0.73371 0.86201 1.09001
 H449 H 0.71408 0.89059 1.15878
 H450 H 0.74954 0.87292 1.17663
 H451 H 0.77014 0.84527 1.10684
 H452 H 0.61807 0.95195 1.10258
 H453 H 0.58076 0.96850 1.08609
 H454 H 0.58101 0.91376 1.03137
 H455 H 0.61832 0.89738 1.04802
 C456 C 0.73683 1.10896 0.86398
 C457 C 0.72103 1.12328 0.87708
 C458 C 0.72603 1.14759 0.88023
 C459 C 0.74673 1.15761 0.87030
 C460 C 0.76300 1.14348 0.85687
 C461 C 0.75755 1.11887 0.85397
 C462 C 0.69958 1.11310 0.88717
 C463 C 0.68155 1.10465 0.89557
 C464 C 0.66037 1.09486 0.90533
 C465 C 0.64222 1.08657 0.91361
 C466 C 0.62048 1.07674 0.92342
 C467 C 0.60980 1.08735 0.94348
 C468 C 0.58855 1.07795 0.95288
 C469 C 0.57774 1.05783 0.94228
 C470 C 0.58862 1.04722 0.92219
 C471 C 0.60987 1.05665 0.91282
 H472 H 0.73322 1.09003 0.86160
 H473 H 0.71377 1.15891 0.89018
 H474 H 0.74919 1.17670 0.87244
 H475 H 0.76962 1.10679 0.84480
 H476 H 0.61787 1.10290 0.95182
 H477 H 0.58059 1.08644 0.96840
 H478 H 0.58071 1.03167 0.91370
 H479 H 0.61799 1.04830 0.89729
 C480 C 0.13097 0.26031 0.10841
 C481 C 0.12308 0.27893 0.12325
 C482 C 0.12510 0.27670 0.14812
 C483 C 0.13497 0.25596 0.15814
 C484 C 0.14298 0.23716 0.14337
 C485 C 0.14086 0.23956 0.11838
 C486 C 0.11304 0.30037 0.11300
 C487 C 0.10466 0.31838 0.10451
 C488 C 0.09491 0.33956 0.09468
 C489 C 0.08663 0.35770 0.08638
 C490 C 0.07680 0.37944 0.07656
 C491 C 0.05671 0.39011 0.08718
 C492 C 0.04728 0.41135 0.07780
 C493 C 0.05787 0.42218 0.05769
 C494 C 0.07799 0.41130 0.04707
 C495 C 0.08739 0.39006 0.05648
 H496 H 0.12944 0.26183 0.08913
 H497 H 0.11912 0.29104 0.15978
 H498 H 0.13666 0.25478 0.17741
 H499 H 0.14660 0.22527 0.10657
 H500 H 0.04836 0.38204 0.10272
 H501 H 0.03173 0.41930 0.08630
 H502 H 0.08647 0.41922 0.03153
 H503 H 0.10295 0.38195 0.04812
 C504 C -0.12512 0.27703 -0.14794
 C505 C -0.12310 0.27925 -0.12307
 C506 C -0.13102 0.26068 -0.10822
 C507 C -0.14097 0.23996 -0.11819
 C508 C -0.14310 0.23756 -0.14317
 C509 C -0.13504 0.25633 -0.15794
 C510 C -0.11303 0.30066 -0.11282
 C511 C -0.10464 0.31865 -0.10433
 C512 C -0.09487 0.33979 -0.09449
 C513 C -0.08658 0.35791 -0.08618
 C514 C -0.07674 0.37962 -0.07636
 C515 C -0.08734 0.39027 -0.05629
 C516 C -0.07793 0.41149 -0.04688
 C517 C -0.05779 0.42231 -0.05748
 C518 C -0.04719 0.41145 -0.07758
 C519 C -0.05663 0.39023 -0.08696
 H520 H -0.11911 0.29133 -0.15959
 H521 H -0.12950 0.26220 -0.08894
 H522 H -0.14674 0.22571 -0.10637
 H523 H -0.13673 0.25515 -0.17722
 H524 H -0.10291 0.38221 -0.04794
 H525 H -0.08641 0.41943 -0.03134
 H526 H -0.03162 0.41935 -0.08607
 H527 H -0.04828 0.38213 -0.10250
 C528 C 0.13082 0.73931 -0.10858
 C529 C 0.12286 0.72075 -0.12344
 C530 C 0.12482 0.72301 -0.14831
 C531 C 0.13471 0.74372 -0.15831
 C532 C 0.14282 0.76247 -0.14354
 C533 C 0.14074 0.76004 -0.11855
 C534 C 0.11282 0.69933 -0.11318
 C535 C 0.10447 0.68133 -0.10468
 C536 C 0.09474 0.66018 -0.09482
 C537 C 0.08648 0.64205 -0.08649
 C538 C 0.07667 0.62034 -0.07663
 C539 C 0.05654 0.60972 -0.08717
 C540 C 0.04712 0.58851 -0.07775
 C541 C 0.05777 0.57767 -0.05766
 C542 C 0.07793 0.58849 -0.04712
 C543 C 0.08733 0.60971 -0.05657
 H544 H 0.12934 0.73777 -0.08931
 H545 H 0.11879 0.70871 -0.15997
 H546 H 0.13637 0.74492 -0.17759
 H547 H 0.14655 0.77428 -0.10673
 H548 H 0.04815 0.61780 -0.10270
 H549 H 0.03154 0.58059 -0.08619
 H550 H 0.08646 0.58057 -0.03160
 H551 H 0.10291 0.61778 -0.04827
 C552 C -0.13086 0.73966 0.10846
 C553 C -0.12297 0.72106 0.12332
 C554 C -0.12501 0.72330 0.14819
 C555 C -0.13490 0.74404 0.15818
 C556 C -0.14292 0.76283 0.14340
 C557 C -0.14078 0.76041 0.11841
 C558 C -0.11289 0.69963 0.11309
 C559 C -0.10449 0.68161 0.10462
 C560 C -0.09472 0.66045 0.09480
 C561 C -0.08642 0.64231 0.08650
 C562 C -0.07658 0.62057 0.07668
 C563 C -0.05646 0.60992 0.08726
 C564 C -0.04703 0.58868 0.07788
 C565 C -0.05765 0.57784 0.05780
 C566 C -0.07780 0.58869 0.04721
 C567 C -0.08721 0.60993 0.05663
 H568 H -0.12932 0.73813 0.08918
 H569 H -0.11903 0.70898 0.15985
 H570 H -0.13661 0.74524 0.17745
 H571 H -0.14652 0.77468 0.10659
 H572 H -0.04809 0.61801 0.10279
 H573 H -0.03146 0.58075 0.08635
 H574 H -0.08631 0.58076 0.03169
 H575 H -0.10278 0.61803 0.04829
 C576 C 1.14703 0.12010 0.72580
 C577 C 1.12269 0.12321 0.72082
 C578 C 1.10832 0.13624 0.73664
 C579 C 1.11824 0.14621 0.75735
 C580 C 1.14289 0.14334 0.76278
 C581 C 1.15705 0.12998 0.74649
 C582 C 1.11250 0.11313 0.69940
 C583 C 1.10408 0.10472 0.68139
 C584 C 1.09433 0.09493 0.66023
 C585 C 1.08608 0.08661 0.64210
 C586 C 1.07632 0.07676 0.62038
 C587 C 1.05620 0.08732 0.60972
 C588 C 1.04683 0.07791 0.58850
 C589 C 1.05752 0.05780 0.57769
 C590 C 1.07767 0.04724 0.58855
 C591 C 1.08701 0.05669 0.60978
 H592 H 1.15838 0.11020 0.71353
 H593 H 1.08937 0.13859 0.73305
 H594 H 1.10614 0.15533 0.76943
 H595 H 1.17617 0.12788 0.74893
 H596 H 1.04778 0.10286 0.61778
 H597 H 1.03126 0.08637 0.58055
 H598 H 1.08623 0.03171 0.58065
 H599 H 1.10258 0.04837 0.61789
 C600 C 0.86468 -0.10873 0.73695
 C601 C 0.87770 -0.12308 0.72112
 C602 C 0.88085 -0.14739 0.72610
 C603 C 0.87099 -0.15741 0.74681
 C604 C 0.85761 -0.14327 0.76310
 C605 C 0.85473 -0.11864 0.75768
 C606 C 0.88769 -0.11290 0.69965
 C607 C 0.89599 -0.10444 0.68160
 C608 C 0.90564 -0.09463 0.66041
 C609 C 0.91384 -0.08633 0.64225
 C610 C 0.92358 -0.07652 0.62050
 C611 C 0.94367 -0.08712 0.60982
 C612 C 0.95302 -0.07774 0.58858
 C613 C 0.94234 -0.05765 0.57775
 C614 C 0.92221 -0.04705 0.58863
 C615 C 0.91289 -0.05646 0.60988
 H616 H 0.86230 -0.08980 0.73336
 H617 H 0.89075 -0.15873 0.71382
 H618 H 0.87312 -0.17651 0.74926
 H619 H 0.84561 -0.10655 0.76976
 H620 H 0.95209 -0.10265 0.61790
 H621 H 0.96858 -0.08623 0.58063
 H622 H 0.91366 -0.03152 0.58071
 H623 H 0.89733 -0.04811 0.61799
 C624 C 1.10836 -0.13132 0.26090
 C625 C 1.12328 -0.12338 0.27941
 C626 C 1.14820 -0.12542 0.27712
 C627 C 1.15817 -0.13537 0.25642
 C628 C 1.14332 -0.14344 0.23772
 C629 C 1.11829 -0.14130 0.24019
 C630 C 1.11307 -0.11323 0.30080
 C631 C 1.10462 -0.10478 0.31878
 C632 C 1.09482 -0.09495 0.33991
 C633 C 1.08652 -0.08661 0.35801
 C634 C 1.07669 -0.07673 0.37970
 C635 C 1.08730 -0.05663 0.39030
 C636 C 1.07789 -0.04716 0.41149
 C637 C 1.05776 -0.05774 0.42235
 C638 C 1.04716 -0.07787 0.41155
 C639 C 1.05658 -0.08730 0.39035
 H640 H 1.08905 -0.12978 0.26247
 H641 H 1.15991 -0.11940 0.29137
 H642 H 1.17748 -0.13707 0.25519
 H643 H 1.10642 -0.14708 0.22598
 H644 H 1.10286 -0.04830 0.38220
 H645 H 1.08639 -0.03161 0.41939
 H646 H 1.03160 -0.08634 0.41948
 H647 H 1.04823 -0.10286 0.38230
 C648 C 0.85246 0.11988 0.27407
 C649 C 0.87680 0.12293 0.27906
 C650 C 0.89117 0.13594 0.26326
 C651 C 0.88127 0.14595 0.24255
 C652 C 0.85662 0.14314 0.23711
 C653 C 0.84245 0.12980 0.25339
 C654 C 0.88698 0.11284 0.30050
 C655 C 0.89540 0.10445 0.31852
 C656 C 0.90517 0.09468 0.33969
 C657 C 0.91345 0.08639 0.35783
 C658 C 0.92325 0.07658 0.37956
 C659 C 0.94333 0.08719 0.39021
 C660 C 0.95273 0.07780 0.41144
 C661 C 0.94213 0.05769 0.42227
 C662 C 0.92201 0.04708 0.41141
 C663 C 0.91264 0.05650 0.39018
 H664 H 0.84110 0.11000 0.28633
 H665 H 0.91013 0.13825 0.26686
 H666 H 0.89338 0.15505 0.23049
 H667 H 0.82333 0.12774 0.25093
 H668 H 0.95169 0.10273 0.38214
 H669 H 0.96828 0.08630 0.41938
 H670 H 0.91352 0.03154 0.41932
 H671 H 0.89709 0.04814 0.38208
 C672 C 0.11929 0.27377 -0.14761
 C673 C 0.12246 0.27873 -0.12332
 C674 C 0.13550 0.26286 -0.10904
 C675 C 0.14546 0.24212 -0.11898
 C676 C 0.14256 0.23672 -0.14358
 C677 C 0.12916 0.25305 -0.15766
 C678 C 0.11245 0.30021 -0.11310
 C679 C 0.10414 0.31826 -0.10461
 C680 C 0.09447 0.33946 -0.09475
 C681 C 0.08626 0.35762 -0.08642
 C682 C 0.07650 0.37938 -0.07656
 C683 C 0.08718 0.38999 -0.05652
 C684 C 0.07783 0.41125 -0.04708
 C685 C 0.05769 0.42214 -0.05762
 C686 C 0.04701 0.41133 -0.07770
 C687 C 0.05638 0.39007 -0.08711
 H688 H 0.10938 0.28608 -0.15891
 H689 H 0.13789 0.26643 -0.09012
 H690 H 0.15460 0.23001 -0.10694
 H691 H 0.12702 0.25062 -0.17674
 H692 H 0.10275 0.38186 -0.04822
 H693 H 0.08638 0.41915 -0.03157
 H694 H 0.03144 0.41930 -0.08614
 H695 H 0.04797 0.38201 -0.10262
 C696 C -0.12471 0.27684 0.14832
 C697 C -0.12280 0.27916 0.12345
 C698 C -0.13083 0.26066 0.10857
 C699 C -0.14077 0.23992 0.11850
 C700 C -0.14281 0.23743 0.14349
 C701 C -0.13463 0.25612 0.15829
 C702 C -0.11274 0.30059 0.11323
 C703 C -0.10437 0.31860 0.10476
 C704 C -0.09463 0.33976 0.09493
 C705 C -0.08636 0.35789 0.08661
 C706 C -0.07655 0.37961 0.07677
 C707 C -0.08719 0.39025 0.05671
 C708 C -0.07780 0.41148 0.04728
 C709 C -0.05765 0.42231 0.05784
 C710 C -0.04701 0.41146 0.07793
 C711 C -0.05642 0.39024 0.08733
 H712 H -0.11862 0.29108 0.16001
 H713 H -0.12939 0.26225 0.08929
 H714 H -0.14663 0.22573 0.10665
 H715 H -0.13624 0.25487 0.17757
 H716 H -0.10276 0.38218 0.04840
 H717 H -0.08632 0.41941 0.03176
 H718 H -0.03144 0.41937 0.08638
 H719 H -0.04804 0.38215 0.10285
 C720 C -0.11943 0.72617 -0.14736
 C721 C -0.12261 0.72124 -0.12306
 C722 C -0.13565 0.73715 -0.10880
 C723 C -0.14556 0.75790 -0.11876
 C724 C -0.14263 0.76327 -0.14337
 C725 C -0.12925 0.74690 -0.15743
 C726 C -0.11263 0.69977 -0.11282
 C727 C -0.10431 0.68172 -0.10433
 C728 C -0.09462 0.66053 -0.09450
 C729 C -0.08638 0.64237 -0.08619
 C730 C -0.07658 0.62061 -0.07637
 C731 C -0.08721 0.61000 -0.05630
 C732 C -0.07784 0.58874 -0.04689
 C733 C -0.05772 0.57785 -0.05749
 C734 C -0.04710 0.58866 -0.07759
 C735 C -0.05650 0.60992 -0.08697
 H736 H -0.10952 0.71384 -0.15863
 H737 H -0.13805 0.73359 -0.08988
 H738 H -0.15469 0.77004 -0.10674
 H739 H -0.12709 0.74931 -0.17651
 H740 H -0.10276 0.61813 -0.04795
 H741 H -0.08634 0.58083 -0.03135
 H742 H -0.03155 0.58070 -0.08608
 H743 H -0.04813 0.61799 -0.10250
 C744 C 0.11985 0.72589 0.14751
 C745 C 0.12297 0.72094 0.12321
 C746 C 0.13600 0.73678 0.10892
 C747 C 0.14599 0.75749 0.11885
 C748 C 0.14314 0.76288 0.14347
 C749 C 0.12975 0.74657 0.15756
 C750 C 0.11292 0.69950 0.11299
 C751 C 0.10456 0.68148 0.10452
 C752 C 0.09483 0.66031 0.09469
 C753 C 0.08657 0.64218 0.08638
 C754 C 0.07675 0.62045 0.07656
 C755 C 0.08738 0.60980 0.05650
 C756 C 0.07799 0.58857 0.04709
 C757 C 0.05786 0.57773 0.05768
 C758 C 0.04724 0.58858 0.07778
 C759 C 0.05665 0.60982 0.08716
 H760 H 0.10994 0.71360 0.15881
 H761 H 0.13836 0.73322 0.08999
 H762 H 0.15512 0.76958 0.10680
 H763 H 0.12764 0.74899 0.17664
 H764 H 0.10294 0.61788 0.04815
 H765 H 0.08649 0.58063 0.03155
 H766 H 0.03168 0.58067 0.08626
 H767 H 0.04829 0.61791 0.10269
 C768 C 0.27655 1.12506 0.85181
 C769 C 0.27877 1.12303 0.87668
 C770 C 0.26016 1.13093 0.89153
 C771 C 0.23941 1.14087 0.88156
 C772 C 0.23701 1.14302 0.85658
 C773 C 0.25581 1.13498 0.84181
 C774 C 0.30021 1.11293 0.88692
 C775 C 0.31822 1.10452 0.89540
 C776 C 0.33940 1.09473 0.90522
 C777 C 0.35755 1.08643 0.91352
 C778 C 0.37930 1.07659 0.92334
 C779 C 0.38991 1.08717 0.94344
 C780 C 0.41117 1.07777 0.95285
 C781 C 0.42206 1.05767 0.94223
 C782 C 0.41124 1.04710 0.92210
 C783 C 0.38998 1.05653 0.91272
 H784 H 0.29088 1.11907 0.84015
 H785 H 0.26168 1.12939 0.91080
 H786 H 0.22512 1.14663 0.89338
 H787 H 0.25463 1.13668 0.82253
 H788 H 0.38179 1.10270 0.95180
 H789 H 0.41908 1.08624 0.96840
 H790 H 0.41921 1.03157 0.91360
 H791 H 0.38191 1.04820 0.89717
 C792 C 0.27715 0.87431 1.14788
 C793 C 0.27934 0.87635 1.12301
 C794 C 0.26072 0.86847 1.10818
 C795 C 0.23998 0.85854 1.11818
 C796 C 0.23762 0.85641 1.14317
 C797 C 0.25644 0.86442 1.15791
 C798 C 0.30074 0.88646 1.11274
 C799 C 0.31872 0.89489 1.10425
 C800 C 0.33986 0.90471 1.09442
 C801 C 0.35798 0.91305 1.08612
 C802 C 0.37968 0.92296 1.07631
 C803 C 0.39037 0.91241 1.05622
 C804 C 0.41158 0.92188 1.04682
 C805 C 0.42235 0.94202 1.05743
 C806 C 0.41145 0.95257 1.07754
 C807 C 0.39024 0.94307 1.08692
 H808 H 0.29149 0.88029 1.15952
 H809 H 0.26220 0.87001 1.08891
 H810 H 0.22569 0.85281 1.10638
 H811 H 0.25528 0.86272 1.17719
 H812 H 0.38233 0.89684 1.04787
 H813 H 0.41954 0.91343 1.03127
 H814 H 0.41933 0.96813 1.08604
 H815 H 0.38212 0.95138 1.10246
 C816 C 0.72291 1.12535 1.14810
 C817 C 0.72067 1.12338 1.12323
 C818 C 0.73925 1.13133 1.10839
 C819 C 0.76000 1.14124 1.11837
 C820 C 0.76242 1.14330 1.14336
 C821 C 0.74363 1.13523 1.15812
 C822 C 0.69926 1.11329 1.11298
 C823 C 0.68126 1.10487 1.10449
 C824 C 0.66012 1.09506 1.09466
 C825 C 0.64200 1.08673 1.08635
 C826 C 0.62030 1.07685 1.07652
 C827 C 0.60962 1.08743 1.05645
 C828 C 0.58842 1.07798 1.04702
 C829 C 0.57764 1.05782 1.05759
 C830 C 0.58851 1.04724 1.07769
 C831 C 0.60972 1.05672 1.08709
 H832 H 0.70860 1.11932 1.15976
 H833 H 0.73772 1.12984 1.08911
 H834 H 0.77426 1.14702 1.10656
 H835 H 0.74483 1.13687 1.17740
 H836 H 0.61767 1.10301 1.04811
 H837 H 0.58046 1.08645 1.03148
 H838 H 0.58063 1.03167 1.08616
 H839 H 0.61784 1.04839 1.10263
 C840 C 0.73999 0.86933 0.89158
 C841 C 0.72145 0.87732 0.87668
 C842 C 0.72376 0.87536 0.85181
 C843 C 0.74452 0.86543 0.84186
 C844 C 0.76325 0.85730 0.85667
 C845 C 0.76076 0.85938 0.88166
 C846 C 0.69998 0.88740 0.88688
 C847 C 0.68194 0.89579 0.89534
 C848 C 0.66074 0.90554 0.90514
 C849 C 0.64257 0.91381 0.91344
 C850 C 0.62081 0.92360 0.92326
 C851 C 0.61012 0.94369 0.91268
 C852 C 0.58885 0.95308 0.92207
 C853 C 0.57801 0.94245 0.94215
 C854 C 0.58890 0.92233 0.95273
 C855 C 0.61017 0.91297 0.94331
 H856 H 0.73840 0.87081 0.91085
 H857 H 0.70949 0.88141 0.84012
 H858 H 0.74577 0.86378 0.82258
 H859 H 0.77498 0.85355 0.89351
 H860 H 0.61821 0.95207 0.89716
 H861 H 0.58088 0.96863 0.91360
 H862 H 0.58098 0.91382 0.96825
 H863 H 0.61830 0.89742 0.95165
   
