data_POSCAR
  _audit_creation_date              2014-09-24
  _audit_creation_method            'ToBaCCo'
  _symmetry_space_group_name_H-M    'P1'
  _symmetry_Int_Tables_number       1
  _symmetry_cell_setting            triclinic
  loop_
  _symmetry_equiv_pos_as_xyz
 x,y,z
_cell_length_a 37.6438
_cell_length_b 39.3236
_cell_length_c 21.5706
_cell_angle_alpha 89.965700
_cell_angle_beta 90.028300
_cell_angle_gamma 118.527100
loop_
  _atom_site_label
  _atom_site_type_symbol
  _atom_site_fract_x
  _atom_site_fract_y
  _atom_site_fract_z
C1 C 0.48060 0.91888 0.55712
 C2 C 0.46896 0.90004 0.49955
 C3 C 0.47996 0.92015 0.44363
 C4 C 0.50365 0.96081 0.44383
 C5 C 0.51649 0.98094 0.50094
 C6 C 0.50570 0.95994 0.55783
 C7 C 0.52370 0.98023 0.61261
 C8 C 0.54837 1.02009 0.61256
 C9 C 0.55619 1.04207 0.55787
 C10 C 0.54142 1.02204 0.50095
 C11 C 0.51536 0.98172 0.38822
 C12 C 0.54000 1.02149 0.38819
 C13 C 0.55262 1.04271 0.44387
 C14 C 0.57889 1.08343 0.44395
 C15 C 0.59478 1.10206 0.50063
 C16 C 0.58157 1.08296 0.55784
 H17 H 0.52110 0.96564 0.65603
 H18 H 0.56303 1.03293 0.65584
 H19 H 0.50636 0.96746 0.34371
 H20 H 0.55028 1.03478 0.34341
 H21 H 0.45001 0.86886 0.49768
 H22 H 0.61413 1.13318 0.50038
 C23 C -0.08924 0.48442 0.44455
 C24 C -0.11013 0.47612 0.50067
 C25 C -0.09003 0.48556 0.55813
 C26 C -0.04689 0.50687 0.55846
 C27 C -0.02532 0.51555 0.50133
 C28 C -0.04661 0.50406 0.44432
 C29 C -0.02473 0.51189 0.38859
 C30 C 0.01732 0.53142 0.38851
 C31 C 0.03917 0.54407 0.44414
 C32 C 0.01772 0.53578 0.50112
 C33 C -0.02459 0.52197 0.61345
 C34 C 0.01745 0.54142 0.61325
 C35 C 0.03924 0.54768 0.55788
 C36 C 0.08202 0.56684 0.55745
 C37 C 0.10263 0.57483 0.50099
 C38 C 0.08196 0.56403 0.44456
 H39 H -0.03992 0.50286 0.34432
 H40 H 0.03247 0.53623 0.34425
 H41 H -0.03903 0.52034 0.65733
 H42 H 0.03267 0.55226 0.65707
 H43 H -0.14288 0.45980 0.49905
 H44 H 0.13544 0.58966 0.50096
 C45 C 0.45050 0.53347 0.55721
 C46 C 0.45018 0.55058 0.50016
 C47 C 0.45447 0.53539 0.44387
 C48 C 0.46380 0.50458 0.44385
 C49 C 0.46716 0.48834 0.50092
 C50 C 0.45964 0.50213 0.55776
 C51 C 0.46381 0.48554 0.61326
 C52 C 0.47386 0.45585 0.61315
 C53 C 0.48362 0.44311 0.55798
 C54 C 0.47868 0.45859 0.50104
 C55 C 0.47106 0.49039 0.38821
 C56 C 0.48122 0.46079 0.38831
 C57 C 0.48585 0.44490 0.44413
 C58 C 0.49710 0.41537 0.44420
 C59 C 0.50051 0.39943 0.50034
 C60 C 0.49667 0.41440 0.55771
 H61 H 0.46043 0.49556 0.65821
 H62 H 0.47309 0.44281 0.65746
 H63 H 0.46962 0.50240 0.34376
 H64 H 0.48545 0.45054 0.34383
 H65 H 0.44265 0.57400 0.49884
 H66 H 0.51076 0.37792 0.49883
 O67 O 0.39685 0.66150 -0.05415
 O68 O 0.39754 0.72676 -0.07314
 C69 C 0.38038 0.74706 -0.08351
 O70 O 0.35153 0.74519 -0.05046
 O71 O 0.28356 0.68198 -0.07045
 C72 C 0.26334 0.64606 -0.08155
 O73 O 0.26672 0.62038 -0.04990
 O74 O 0.33296 0.61628 -0.07070
 C75 C 0.37023 0.63270 -0.08401
 O76 O 0.39733 0.67351 0.06972
 O77 O 0.40177 0.74095 0.05038
 C78 C 0.37743 0.74748 0.08287
 O79 O 0.33976 0.73158 0.07250
 O80 O 0.26963 0.67100 0.05263
 C81 C 0.26391 0.64160 0.08450
 O82 O 0.28159 0.62184 0.07326
 O83 O 0.34567 0.61465 0.05200
 C84 C 0.37704 0.63778 0.08217
 Cr85 Cr 0.39628 0.69980 -0.00166
 Cr86 Cr 0.31210 0.70628 0.00102
 Cr87 Cr 0.30785 0.62035 0.00112
 O88 O 0.33878 0.67542 0.00014
 O89 O 0.59603 0.30874 -0.07213
 O90 O 0.61184 0.25197 -0.05225
 C91 C 0.64149 0.25365 -0.08298
 O92 O 0.67803 0.27727 -0.07072
 O93 O 0.73590 0.34756 -0.05113
 C94 C 0.73283 0.37312 -0.08342
 O95 O 0.70704 0.38432 -0.07241
 O96 O 0.63359 0.37157 -0.05156
 C97 C 0.60712 0.34397 -0.08352
 O98 O 0.59074 0.31776 0.05219
 O99 O 0.60966 0.26288 0.07072
 C100 C 0.63593 0.25258 0.08355
 O101 O 0.66868 0.26398 0.05331
 O102 O 0.72349 0.33493 0.07212
 C103 C 0.73445 0.37017 0.08297
 O104 O 0.72261 0.39002 0.05087
 O105 O 0.64746 0.37294 0.07089
 C106 C 0.61104 0.34881 0.08300
 Cr107 Cr 0.60415 0.28677 -0.00037
 Cr108 Cr 0.70002 0.30652 0.00080
 Cr109 Cr 0.67708 0.37768 -0.00051
 O110 O 0.66037 0.32358 0.00025
 C111 C 0.43706 0.84831 -0.28863
 N112 N 0.44486 0.83507 -0.34208
 N113 N 0.45879 0.85798 -0.39142
 C114 C 0.46647 0.89544 -0.38922
 N115 N 0.45811 0.90847 -0.33563
 N116 N 0.44364 0.88537 -0.28630
 C117 C 0.42243 0.82270 -0.23449
 N118 N 0.40210 0.82910 -0.18784
 N119 N 0.38836 0.80495 -0.13962
 C120 C 0.39496 0.77391 -0.13614
 N121 N 0.41551 0.76779 -0.18258
 N122 N 0.42874 0.79157 -0.23102
 C123 C 0.15529 0.60010 -0.28424
 N124 N 0.15997 0.62636 -0.32869
 N125 N 0.13623 0.61583 -0.37853
 C126 C 0.10658 0.57873 -0.38541
 N127 N 0.10187 0.55239 -0.34101
 N128 N 0.12581 0.56289 -0.29129
 C129 C 0.18246 0.61177 -0.23045
 N130 N 0.18264 0.58497 -0.19086
 N131 N 0.20827 0.59579 -0.14317
 C132 C 0.23448 0.63380 -0.13324
 N133 N 0.23409 0.66054 -0.17264
 N134 N 0.20865 0.64973 -0.22044
 C135 C 0.41770 0.57507 -0.28943
 N136 N 0.43985 0.59928 -0.33569
 N137 N 0.45035 0.58574 -0.38502
 C138 C 0.44011 0.54762 -0.38941
 N139 N 0.41738 0.52345 -0.34329
 N140 N 0.40632 0.53684 -0.29437
 C141 C 0.40580 0.58990 -0.23540
 N142 N 0.37221 0.56637 -0.20246
 N143 N 0.36092 0.58002 -0.15413
 C144 C 0.38320 0.61751 -0.13636
 N145 N 0.41702 0.64095 -0.16892
 N146 N 0.42796 0.62745 -0.21785
 C147 C 0.60856 0.15289 -0.28699
 N148 N 0.57482 0.11789 -0.28851
 N149 N 0.56661 0.09498 -0.33786
 C150 C 0.59171 0.10600 -0.38782
 N151 N 0.62515 0.14146 -0.38629
 N152 N 0.63361 0.16424 -0.33676
 C153 C 0.61731 0.17851 -0.23313
 N154 N 0.65444 0.20965 -0.22587
 N155 N 0.66223 0.23329 -0.17760
 C156 C 0.63307 0.22688 -0.13513
 N157 N 0.59590 0.19578 -0.14245
 N158 N 0.58823 0.17192 -0.19043
 C159 C 0.83727 0.44005 -0.28747
 N160 N 0.82326 0.44967 -0.33879
 N161 N 0.84692 0.46462 -0.38811
 C162 C 0.88590 0.47139 -0.38791
 N163 N 0.89964 0.46134 -0.33643
 N164 N 0.87586 0.44597 -0.28722
 C165 C 0.81075 0.42313 -0.23366
 N166 N 0.81965 0.40387 -0.18924
 N167 N 0.79485 0.38783 -0.14126
 C168 C 0.76052 0.39085 -0.13574
 N169 N 0.75184 0.41034 -0.17995
 N170 N 0.77638 0.42600 -0.22818
 C171 C 0.53974 0.38254 -0.28842
 N172 N 0.54070 0.41741 -0.29070
 N173 N 0.52614 0.42732 -0.33969
 C174 C 0.50982 0.40285 -0.38850
 N175 N 0.50976 0.36820 -0.38647
 N176 N 0.52406 0.35810 -0.33726
 C177 C 0.55640 0.37208 -0.23458
 N178 N 0.55040 0.33541 -0.22714
 N179 N 0.56607 0.32627 -0.17855
 C180 C 0.58852 0.35353 -0.13587
 N181 N 0.59452 0.39017 -0.14339
 N182 N 0.57861 0.39923 -0.19169
 C183 C 0.83918 0.43836 0.28648
 N184 N 0.86060 0.47733 0.29428
 N185 N 0.88398 0.49224 0.34410
 C186 C 0.88660 0.46864 0.38779
 N187 N 0.86504 0.42977 0.38010
 N188 N 0.84193 0.41491 0.33022
 C189 C 0.81282 0.42135 0.23247
 N190 N 0.79576 0.38270 0.22213
 N191 N 0.77111 0.36665 0.17417
 C192 C 0.76236 0.38858 0.13489
 N193 N 0.77940 0.42731 0.14512
 N194 N 0.80430 0.44344 0.19302
 C195 C 0.60410 0.15365 0.28964
 N196 N 0.63219 0.16225 0.33482
 N197 N 0.62405 0.13954 0.38448
 C198 C 0.58788 0.10678 0.39027
 N199 N 0.55971 0.09873 0.34521
 N200 N 0.56758 0.12168 0.29600
 C201 C 0.61258 0.17889 0.23540
 N202 N 0.58177 0.17922 0.20319
 N203 N 0.58928 0.20260 0.15462
 C204 C 0.62784 0.22602 0.13584
 N205 N 0.65867 0.22542 0.16766
 N206 N 0.65118 0.20243 0.21683
 C207 C 0.54092 0.38524 0.28658
 N208 N 0.55716 0.42262 0.30536
 N209 N 0.54264 0.43207 0.35482
 C210 C 0.51132 0.40451 0.38747
 N211 N 0.49528 0.36698 0.36923
 N212 N 0.50967 0.35754 0.31938
 C213 C 0.55814 0.37534 0.23283
 N214 N 0.53953 0.33938 0.20733
 N215 N 0.55596 0.33085 0.15900
 C216 C 0.59170 0.35791 0.13481
 N217 N 0.61019 0.39377 0.16043
 N218 N 0.59366 0.40236 0.20830
 C219 C 0.15565 0.59480 0.28693
 N220 N 0.12813 0.60755 0.29418
 N221 N 0.10399 0.59715 0.34367
 C222 C 0.10655 0.57364 0.38759
 N223 N 0.13423 0.56114 0.38049
 N224 N 0.15816 0.57133 0.33090
 C225 C 0.18302 0.60668 0.23337
 N226 N 0.20697 0.59018 0.22330
 N227 N 0.23249 0.60124 0.17561
 C228 C 0.23523 0.62939 0.13641
 N229 N 0.21129 0.64597 0.14643
 N230 N 0.18556 0.63474 0.19401
 C231 C 0.43774 0.85076 0.28516
 N232 N 0.47806 0.87338 0.29441
 N233 N 0.49161 0.89615 0.34416
 C234 C 0.46531 0.89714 0.38626
 N235 N 0.42506 0.87434 0.37717
 N236 N 0.41152 0.85173 0.32737
 C237 C 0.42248 0.82478 0.23149
 N238 N 0.38213 0.80438 0.22074
 N239 N 0.36792 0.78003 0.17307
 C240 C 0.39351 0.77500 0.13452
 N241 N 0.43393 0.79543 0.14517
 N242 N 0.44817 0.81994 0.19278
 C243 C 0.42572 0.57890 0.28520
 N244 N 0.45359 0.60328 0.32629
 N245 N 0.46332 0.58945 0.37617
 C246 C 0.44587 0.55072 0.38640
 N247 N 0.41784 0.52639 0.34546
 N248 N 0.40802 0.54021 0.29573
 C249 C 0.41391 0.59412 0.23135
 N250 N 0.38303 0.56996 0.19411
 N251 N 0.37147 0.58382 0.14630
 C252 C 0.39047 0.62234 0.13384
 N253 N 0.42150 0.64648 0.17088
 N254 N 0.43296 0.63263 0.21883
   
