data_POSCAR
  _audit_creation_date              2014-09-24
  _audit_creation_method            'ToBaCCo'
  _symmetry_space_group_name_H-M    'P1'
  _symmetry_Int_Tables_number       1
  _symmetry_cell_setting            triclinic
  loop_
  _symmetry_equiv_pos_as_xyz
 x,y,z
_cell_length_a 45.7006
_cell_length_b 46.1276
_cell_length_c 44.4983
_cell_angle_alpha 89.953500
_cell_angle_beta 90.006000
_cell_angle_gamma 91.629500
loop_
  _atom_site_label
  _atom_site_type_symbol
  _atom_site_fract_x
  _atom_site_fract_y
  _atom_site_fract_z
C1 C -0.06243 0.31268 -0.02807
 C2 C -0.07744 0.31307 -0.00051
 C3 C -0.06300 0.31106 0.02728
 C4 C -0.03186 0.31087 0.02757
 C5 C -0.01608 0.31125 0.00004
 C6 C -0.03129 0.31290 -0.02771
 C7 C -0.01485 0.31735 -0.05413
 C8 C 0.01552 0.31669 -0.05389
 C9 C 0.03103 0.31163 -0.02719
 C10 C 0.01513 0.31080 0.00027
 C11 C -0.01592 0.31273 0.05463
 C12 C 0.01443 0.31198 0.05486
 C13 C 0.03036 0.31023 0.02800
 C14 C 0.06123 0.30930 0.02821
 C15 C 0.07655 0.30963 0.00104
 C16 C 0.06214 0.30998 -0.02689
 H17 H -0.02526 0.32227 -0.07529
 H18 H 0.02672 0.32114 -0.07486
 H19 H -0.02664 0.31560 0.07602
 H20 H 0.02533 0.31354 0.07641
 H21 H -0.10116 0.31151 -0.00074
 H22 H 0.10011 0.30745 0.00186
 C23 C 0.44193 0.80887 0.47198
 C24 C 0.42683 0.80892 0.49932
 C25 C 0.44164 0.80912 0.52684
 C26 C 0.47263 0.81002 0.52720
 C27 C 0.48828 0.81010 0.49967
 C28 C 0.47292 0.80989 0.47196
 C29 C 0.48893 0.81120 0.44500
 C30 C 0.51937 0.81128 0.44517
 C31 C 0.53504 0.81001 0.47230
 C32 C 0.51939 0.81012 0.49983
 C33 C 0.48837 0.81136 0.55433
 C34 C 0.51881 0.81131 0.55449
 C35 C 0.53475 0.80998 0.52754
 C36 C 0.56568 0.80900 0.52752
 C37 C 0.58078 0.80900 0.50017
 C38 C 0.56597 0.80912 0.47266
 H39 H 0.47808 0.81242 0.42345
 H40 H 0.53050 0.81255 0.42373
 H41 H 0.47731 0.81265 0.57576
 H42 H 0.52973 0.81258 0.57605
 H43 H 0.40309 0.80744 0.49919
 H44 H 0.60443 0.80753 0.50030
 C45 C 0.93803 0.69989 -0.02708
 C46 C 0.92330 0.69915 0.00041
 C47 C 0.93845 0.70004 0.02766
 C48 C 0.96943 0.70123 0.02763
 C49 C 0.98483 0.70144 -0.00007
 C50 C 0.96901 0.70117 -0.02753
 C51 C 0.98445 0.70407 -0.05463
 C52 C 1.01478 0.70679 -0.05492
 C53 C 1.03126 0.70573 -0.02819
 C54 C 1.01603 0.70368 -0.00032
 C55 C 0.98528 0.70408 0.05449
 C56 C 1.01562 0.70671 0.05430
 C57 C 1.03169 0.70566 0.02731
 C58 C 1.06271 0.70938 0.02699
 C59 C 1.07705 0.71199 -0.00080
 C60 C 1.06227 0.70953 -0.02836
 H61 H 0.97319 0.70529 -0.07597
 H62 H 1.02491 0.71094 -0.07647
 H63 H 0.97435 0.70530 0.07599
 H64 H 1.02610 0.71078 0.07568
 H65 H 0.89955 0.69871 0.00060
 H66 H 1.10078 0.71369 -0.00100
 C67 C 0.55932 0.20086 0.52769
 C68 C 0.57410 0.20136 0.50019
 C69 C 0.55901 0.20082 0.47287
 C70 C 0.52803 0.19977 0.47281
 C71 C 0.51266 0.19933 0.50054
 C72 C 0.52834 0.19990 0.52810
 C73 C 0.51267 0.20073 0.55525
 C74 C 0.48223 0.20099 0.55541
 C75 C 0.46622 0.20041 0.52844
 C76 C 0.48155 0.19955 0.50071
 C77 C 0.51206 0.20038 0.44583
 C78 C 0.48162 0.20054 0.44600
 C79 C 0.46590 0.20014 0.47315
 C80 C 0.43501 0.20153 0.47355
 C81 C 0.42028 0.20243 0.50104
 C82 C 0.43533 0.20188 0.52837
 H83 H 0.52378 0.20175 0.57670
 H84 H 0.47143 0.20219 0.57698
 H85 H 0.52294 0.20128 0.42425
 H86 H 0.47057 0.20156 0.42454
 H87 H 0.59785 0.20252 0.50005
 H88 H 0.39663 0.20390 0.50118
 C89 C 0.71816 -0.06517 -0.02819
 C90 C 0.72354 -0.07870 -0.00056
 C91 C 0.71993 -0.06463 0.02708
 C92 C 0.71329 -0.03467 0.02704
 C93 C 0.70906 -0.01999 -0.00071
 C94 C 0.71095 -0.03533 -0.02834
 C95 C 0.70757 -0.01983 -0.05532
 C96 C 0.70147 0.00947 -0.05533
 C97 C 0.70096 0.02550 -0.02851
 C98 C 0.70398 0.01042 -0.00086
 C99 C 0.71299 -0.01842 0.05381
 C100 C 0.70688 0.01086 0.05369
 C101 C 0.70259 0.02580 0.02665
 C102 C 0.69721 0.05583 0.02649
 C103 C 0.69325 0.07015 -0.00080
 C104 C 0.69651 0.05600 -0.02851
 H105 H 0.71020 -0.02984 -0.07703
 H106 H 0.69729 0.01938 -0.07686
 H107 H 0.71821 -0.02786 0.07530
 H108 H 0.70599 0.02176 0.07518
 H109 H 0.72782 -0.10173 -0.00051
 H110 H 0.69061 0.09345 -0.00026
 C111 C 0.20670 0.43617 0.52800
 C112 C 0.20862 0.42135 0.50071
 C113 C 0.20680 0.43580 0.47317
 C114 C 0.20343 0.46620 0.47268
 C115 C 0.20192 0.48165 0.50019
 C116 C 0.20329 0.46657 0.52796
 C117 C 0.20192 0.48237 0.55489
 C118 C 0.19941 0.51236 0.55461
 C119 C 0.19886 0.52785 0.52741
 C120 C 0.19975 0.51234 0.49992
 C121 C 0.20225 0.48162 0.44548
 C122 C 0.19977 0.51161 0.44522
 C123 C 0.19905 0.52748 0.47216
 C124 C 0.19757 0.55810 0.47209
 C125 C 0.19623 0.57301 0.49939
 C126 C 0.19736 0.55847 0.52694
 H127 H 0.20299 0.47175 0.57652
 H128 H 0.19798 0.52328 0.57605
 H129 H 0.20345 0.47071 0.42403
 H130 H 0.19849 0.52223 0.42360
 H131 H 0.21145 0.39808 0.50090
 H132 H 0.19585 0.59652 0.49920
 C133 C 0.30289 0.93621 0.02635
 C134 C 0.30508 0.92184 -0.00116
 C135 C 0.30176 0.93635 -0.02871
 C136 C 0.29857 0.96704 -0.02843
 C137 C 0.29727 0.98206 -0.00061
 C138 C 0.29929 0.96654 0.02682
 C139 C 0.29787 0.98175 0.05410
 C140 C 0.29335 1.01138 0.05457
 C141 C 0.29099 1.02723 0.02776
 C142 C 0.29354 1.01265 -0.00016
 C143 C 0.29786 0.98335 -0.05514
 C144 C 0.29325 1.01299 -0.05475
 C145 C 0.29159 1.02842 -0.02757
 C146 C 0.28626 1.05876 -0.02683
 C147 C 0.28248 1.07217 0.00117
 C148 C 0.28539 1.05716 0.02818
 H149 H 0.30015 0.97086 0.07548
 H150 H 0.29152 1.02169 0.07629
 H151 H 0.30086 0.97347 -0.07688
 H152 H 0.29048 1.02335 -0.07627
 H153 H 0.30660 0.89841 -0.00085
 H154 H 0.27877 1.09529 0.00221
 C155 C 0.80041 0.43395 0.47165
 C156 C 0.80155 0.41903 0.49899
 C157 C 0.80049 0.43361 0.52651
 C158 C 0.79926 0.46425 0.52689
 C159 C 0.79855 0.47976 0.49937
 C160 C 0.79921 0.46460 0.47165
 C161 C 0.79874 0.48048 0.44467
 C162 C 0.79647 0.51049 0.44485
 C163 C 0.79525 0.52592 0.47202
 C164 C 0.79659 0.51046 0.49956
 C165 C 0.79882 0.47978 0.55406
 C166 C 0.79650 0.50979 0.55427
 C167 C 0.79523 0.52556 0.52730
 C168 C 0.79194 0.55596 0.52725
 C169 C 0.79019 0.57078 0.49994
 C170 C 0.79200 0.55632 0.47246
 H171 H 0.80005 0.46986 0.42307
 H172 H 0.79546 0.52144 0.42339
 H173 H 0.80017 0.46888 0.57553
 H174 H 0.79550 0.52045 0.57587
 H175 H 0.80175 0.39551 0.49886
 H176 H 0.78744 0.59407 0.50009
 O177 O 0.23505 0.27389 0.21271
 O178 O 0.29137 0.24972 0.26554
 O179 O 0.27227 0.23239 0.21296
 O180 O 0.25379 0.29081 0.26550
 O181 O 0.22105 0.26157 0.28739
 O182 O 0.23957 0.20318 0.23497
 O183 O 0.25868 0.22051 0.28757
 O184 O 0.20229 0.24465 0.23459
 Cu185 Cu 0.26642 0.26463 0.23695
 Cu186 Cu 0.22710 0.22951 0.26332
 C187 C 0.20923 0.26320 0.21456
 C188 C 0.28447 0.23131 0.28570
 C189 C 0.25884 0.20801 0.21493
 C190 C 0.23449 0.28594 0.28551
 O191 O 0.76084 0.79214 0.23633
 O192 O 0.77872 0.73397 0.28945
 O193 O 0.79781 0.75055 0.23674
 O194 O 0.74182 0.77580 0.28931
 O195 O 0.70876 0.74674 0.26772
 O196 O 0.76477 0.72150 0.21506
 O197 O 0.74568 0.70492 0.26778
 O198 O 0.72778 0.76307 0.21473
 Cu199 Cu 0.77310 0.76606 0.26518
 Cu200 Cu 0.73338 0.73114 0.23917
 C201 C 0.74155 0.78728 0.21631
 C202 C 0.76510 0.70968 0.28767
 C203 C 0.79068 0.73199 0.21684
 C204 C 0.71591 0.76534 0.28757
 O205 O 0.73346 0.22016 0.28418
 O206 O 0.79103 0.24390 0.23084
 O207 O 0.77444 0.26024 0.28432
 O208 O 0.75007 0.20368 0.23079
 O209 O 0.71958 0.23425 0.21005
 O210 O 0.74393 0.29083 0.26366
 O211 O 0.76051 0.27449 0.21019
 O212 O 0.70297 0.25073 0.26343
 Cu213 Cu 0.76533 0.22890 0.25960
 Cu214 Cu 0.72868 0.26565 0.23473
 C215 C 0.70860 0.23168 0.28301
 C216 C 0.78539 0.26303 0.21134
 C217 C 0.76305 0.28498 0.28326
 C218 C 0.73091 0.20948 0.21123
 O219 O 0.27977 0.76055 0.21297
 O220 O 0.25551 0.70429 0.26697
 O221 O 0.23853 0.72073 0.21367
 O222 O 0.29644 0.74457 0.26654
 O223 O 0.26610 0.77534 0.28713
 O224 O 0.20827 0.75148 0.23443
 O225 O 0.22523 0.73503 0.28770
 O226 O 0.24944 0.79132 0.23359
 Cu227 Cu 0.27062 0.72942 0.23799
 Cu228 Cu 0.23422 0.76639 0.26282
 C229 C 0.26847 0.78533 0.21395
 C230 C 0.23645 0.71021 0.28659
 C231 C 0.21373 0.73234 0.21492
 C232 C 0.29095 0.76385 0.28591
 O233 O 0.77632 0.25990 0.71446
 O234 O 0.75254 0.20357 0.76855
 O235 O 0.73550 0.21970 0.71512
 O236 O 0.79319 0.24417 0.76803
 O237 O 0.76254 0.27470 0.78851
 O238 O 0.70492 0.25021 0.73576
 O239 O 0.72195 0.23408 0.78916
 O240 O 0.74568 0.29044 0.73497
 Cu241 Cu 0.76748 0.22874 0.73950
 Cu242 Cu 0.73070 0.26542 0.76421
 C243 C 0.76478 0.28457 0.71536
 C244 C 0.73342 0.20937 0.78812
 C245 C 0.71058 0.23111 0.71629
 C246 C 0.78752 0.26346 0.78733
 O247 O 0.29395 0.74742 0.73115
 O248 O 0.23589 0.72315 0.78362
 O249 O 0.25331 0.70684 0.73053
 O250 O 0.27655 0.76344 0.78447
 O251 O 0.24609 0.79387 0.76346
 O252 O 0.22287 0.73724 0.70943
 O253 O 0.20545 0.75355 0.76252
 O254 O 0.26348 0.77784 0.71014
 Cu255 Cu 0.26802 0.73214 0.75952
 Cu256 Cu 0.23143 0.76870 0.73422
 C257 C 0.28843 0.76656 0.71163
 C258 C 0.21097 0.73451 0.78214
 C259 C 0.23431 0.71253 0.71077
 C260 C 0.26496 0.78808 0.78333
 O261 O 0.25471 0.29330 0.73696
 O262 O 0.27499 0.23578 0.78989
 O263 O 0.29312 0.25295 0.73695
 O264 O 0.23652 0.27616 0.78996
 O265 O 0.20432 0.24605 0.76855
 O266 O 0.26094 0.22284 0.71547
 O267 O 0.24281 0.20567 0.76843
 O268 O 0.22251 0.26318 0.71553
 Cu269 Cu 0.26807 0.26759 0.76562
 Cu270 Cu 0.22939 0.23139 0.73985
 C271 C 0.23542 0.28785 0.71709
 C272 C 0.26215 0.21109 0.78824
 C273 C 0.28651 0.23419 0.71706
 C274 C 0.21094 0.26485 0.78838
 O275 O 0.74009 0.77348 0.71160
 O276 O 0.79593 0.74845 0.76446
 O277 O 0.77723 0.73186 0.71159
 O278 O 0.75860 0.78974 0.76471
 O279 O 0.72560 0.76038 0.78605
 O280 O 0.74427 0.70252 0.73301
 O281 O 0.76298 0.71911 0.78591
 O282 O 0.70708 0.74413 0.73293
 Cu283 Cu 0.77127 0.76384 0.73590
 Cu284 Cu 0.73164 0.72857 0.76160
 C285 C 0.71422 0.76288 0.71318
 C286 C 0.78883 0.72981 0.78431
 C287 C 0.76375 0.70748 0.71322
 C288 C 0.73918 0.78471 0.78456
 C289 C 0.25321 0.10405 0.08865
 C290 C 0.27762 0.10972 0.10695
 C291 C 0.30439 0.09718 0.10017
 C292 C 0.30681 0.07937 0.07491
 C293 C 0.28243 0.07389 0.05634
 C294 C 0.25561 0.08629 0.06341
 C295 C 0.27533 0.12955 0.13174
 C296 C 0.27274 0.14678 0.15184
 C297 C 0.26886 0.16758 0.17461
 C298 C 0.26475 0.18582 0.19340
 H299 H 0.23245 0.11378 0.09357
 H300 H 0.32347 0.10160 0.11406
 H301 H 0.32776 0.07030 0.06947
 H302 H 0.23669 0.08251 0.04912
 C303 C 0.81050 0.59579 0.59953
 C304 C 0.78403 0.60932 0.60542
 C305 C 0.76002 0.60447 0.58637
 C306 C 0.76250 0.58652 0.56130
 C307 C 0.78901 0.57311 0.55512
 C308 C 0.81300 0.57776 0.57441
 C309 C 0.78159 0.62918 0.63015
 C310 C 0.77872 0.64642 0.65020
 C311 C 0.77442 0.66722 0.67290
 C312 C 0.76997 0.68540 0.69166
 H313 H 0.82927 0.59953 0.61402
 H314 H 0.73950 0.61494 0.59062
 H315 H 0.74389 0.58334 0.54647
 H316 H 0.83370 0.56785 0.56969
 C317 C 0.70231 0.90162 0.10174
 C318 C 0.72524 0.88236 0.10467
 C319 C 0.74646 0.88093 0.08215
 C320 C 0.74485 0.89863 0.05678
 C321 C 0.72215 0.91852 0.05362
 C322 C 0.70065 0.91944 0.07636
 C323 C 0.72684 0.86342 0.13030
 C324 C 0.72896 0.84691 0.15115
 C325 C 0.73237 0.82686 0.17478
 C326 C 0.73609 0.80913 0.19421
 H327 H 0.68549 0.90257 0.11883
 H328 H 0.76423 0.86598 0.08412
 H329 H 0.76180 0.89717 0.03986
 H330 H 0.68202 0.93326 0.07407
 C331 C 0.18802 0.39709 0.60078
 C332 C 0.21447 0.38363 0.60695
 C333 C 0.23845 0.38807 0.58775
 C334 C 0.23597 0.40563 0.56234
 C335 C 0.20952 0.41906 0.55596
 C336 C 0.18552 0.41472 0.57532
 C337 C 0.21697 0.36436 0.63223
 C338 C 0.21990 0.34763 0.65277
 C339 C 0.22431 0.32740 0.67605
 C340 C 0.22891 0.30961 0.69521
 H341 H 0.16927 0.39366 0.61539
 H342 H 0.25895 0.37765 0.59220
 H343 H 0.25459 0.40857 0.54748
 H344 H 0.16486 0.42465 0.57048
 C345 C 0.90726 0.28009 0.09922
 C346 C 0.88225 0.29646 0.10311
 C347 C 0.87574 0.31805 0.08228
 C348 C 0.89405 0.32320 0.05758
 C349 C 0.91954 0.30706 0.05343
 C350 C 0.92566 0.28520 0.07456
 C351 C 0.86251 0.29021 0.12763
 C352 C 0.84553 0.28464 0.14770
 C353 C 0.82513 0.27766 0.17059
 C354 C 0.80724 0.27126 0.18956
 H355 H 0.91222 0.26294 0.11491
 H356 H 0.85632 0.33073 0.08495
 H357 H 0.88848 0.34017 0.04193
 H358 H 0.94404 0.27120 0.07140
 C359 C 0.40778 0.77753 0.59770
 C360 C 0.38683 0.79811 0.60446
 C361 C 0.38454 0.82286 0.58645
 C362 C 0.40290 0.82683 0.56155
 C363 C 0.42381 0.80616 0.55455
 C364 C 0.42612 0.78147 0.57281
 C365 C 0.36666 0.79295 0.62885
 C366 C 0.34936 0.78793 0.64876
 C367 C 0.32863 0.78128 0.67142
 C368 C 0.31051 0.77493 0.69015
 H369 H 0.40955 0.75817 0.61131
 H370 H 0.36824 0.83879 0.59133
 H371 H 0.40059 0.84582 0.54750
 H372 H 0.44173 0.76503 0.56742
 C373 C 0.12135 0.73215 0.08105
 C374 C 0.11735 0.71173 0.10399
 C375 C 0.09505 0.69043 0.10164
 C376 C 0.07673 0.68966 0.07641
 C377 C 0.08024 0.71044 0.05328
 C378 C 0.10317 0.73143 0.05588
 C379 C 0.13653 0.71293 0.12962
 C380 C 0.15337 0.71532 0.15037
 C381 C 0.17384 0.71969 0.17378
 C382 C 0.19183 0.72474 0.19300
 H383 H 0.13859 0.74871 0.08260
 H384 H 0.09202 0.67427 0.11913
 H385 H 0.06035 0.67231 0.07459
 H386 H 0.10665 0.74782 0.03869
 C387 C 0.61225 0.23073 0.58584
 C388 C 0.61377 0.20751 0.60599
 C389 C 0.59687 0.18214 0.60093
 C390 C 0.57869 0.17999 0.57564
 C391 C 0.57724 0.20325 0.55535
 C392 C 0.59415 0.22860 0.56062
 C393 C 0.63332 0.20981 0.63130
 C394 C 0.65031 0.21289 0.65185
 C395 C 0.67082 0.21785 0.67514
 C396 C 0.68878 0.22324 0.69434
 H397 H 0.62529 0.25040 0.58947
 H398 H 0.59798 0.16399 0.61631
 H399 H 0.56601 0.16017 0.57168
 H400 H 0.59342 0.24665 0.54507
 C401 C 0.68168 0.11507 0.91642
 C402 C 0.70440 0.11155 0.89582
 C403 C 0.72392 0.08907 0.89972
 C404 C 0.72094 0.07029 0.92425
 C405 C 0.69806 0.07341 0.94521
 C406 C 0.67863 0.09633 0.94100
 C407 C 0.70878 0.13196 0.87164
 C408 C 0.71321 0.14934 0.85180
 C409 C 0.71930 0.16998 0.82905
 C410 C 0.72529 0.18784 0.81009
 H411 H 0.66657 0.13256 0.91375
 H412 H 0.74196 0.08651 0.88423
 H413 H 0.73740 0.05414 0.92751
 H414 H 0.66083 0.09959 0.95660
 C415 C 0.22878 0.59360 0.40194
 C416 C 0.20666 0.61270 0.39441
 C417 C 0.18099 0.61307 0.41158
 C418 C 0.17763 0.59469 0.43644
 C419 C 0.19986 0.57566 0.44422
 C420 C 0.22546 0.57525 0.42678
 C421 C 0.21114 0.63295 0.37009
 C422 C 0.21570 0.65024 0.35019
 C423 C 0.22197 0.67084 0.32744
 C424 C 0.22813 0.68869 0.30850
 H425 H 0.24885 0.59332 0.38899
 H426 H 0.16384 0.62793 0.40610
 H427 H 0.15792 0.59556 0.44988
 H428 H 0.24309 0.56115 0.43282
 C429 C 0.27311 0.90519 0.89911
 C430 C 0.29234 0.88259 0.89443
 C431 C 0.31494 0.87807 0.91494
 C432 C 0.31831 0.89605 0.94006
 C433 C 0.29937 0.91924 0.94488
 C434 C 0.27643 0.92322 0.92417
 C435 C 0.28797 0.86321 0.86938
 C436 C 0.28374 0.84665 0.84878
 C437 C 0.27806 0.82680 0.82522
 C438 C 0.27251 0.80939 0.80570
 H439 H 0.25514 0.90851 0.88370
 H440 H 0.32980 0.86046 0.91169
 H441 H 0.33611 0.89210 0.95548
 H442 H 0.26031 0.93960 0.92793
 C443 C 0.76945 0.39929 0.40097
 C444 C 0.79165 0.38037 0.39322
 C445 C 0.81716 0.37962 0.41062
 C446 C 0.82035 0.39753 0.43584
 C447 C 0.79809 0.41647 0.44376
 C448 C 0.77260 0.41717 0.42617
 C449 C 0.78744 0.36076 0.36833
 C450 C 0.78311 0.34399 0.34793
 C451 C 0.77710 0.32391 0.32465
 C452 C 0.77114 0.30637 0.30536
 H453 H 0.74950 0.39985 0.38786
 H454 H 0.83436 0.36488 0.40497
 H455 H 0.83999 0.39645 0.44938
 H456 H 0.75497 0.43122 0.43228
 C457 C 0.12468 0.31651 0.91909
 C458 C 0.11563 0.29712 0.89660
 C459 C 0.08847 0.28255 0.89897
 C460 C 0.07049 0.28720 0.92385
 C461 C 0.07927 0.30674 0.94676
 C462 C 0.10681 0.32117 0.94400
 C463 C 0.13492 0.29113 0.87193
 C464 C 0.15160 0.28577 0.85182
 C465 C 0.17173 0.27904 0.82896
 C466 C 0.18938 0.27285 0.81006
 H467 H 0.14575 0.32780 0.91757
 H468 H 0.08146 0.26709 0.88193
 H469 H 0.05029 0.27448 0.92573
 H470 H 0.11442 0.33648 0.96093
 C471 C 0.59790 0.77727 0.40193
 C472 C 0.62003 0.79781 0.39502
 C473 C 0.62379 0.82261 0.41290
 C474 C 0.60571 0.82668 0.43782
 C475 C 0.58361 0.80605 0.44495
 C476 C 0.57984 0.78130 0.42683
 C477 C 0.63982 0.79255 0.37060
 C478 C 0.65673 0.78742 0.35065
 C479 C 0.67694 0.78057 0.32793
 C480 C 0.69454 0.77401 0.30913
 H481 H 0.59498 0.75786 0.38843
 H482 H 0.64101 0.83852 0.40789
 H483 H 0.60914 0.84572 0.45176
 H484 H 0.56328 0.76489 0.43234
 C485 C 0.90075 0.68107 0.89901
 C486 C 0.88384 0.70560 0.89466
 C487 C 0.88513 0.72824 0.91559
 C488 C 0.90308 0.72637 0.94083
 C489 C 0.92004 0.70187 0.94538
 C490 C 0.91879 0.67918 0.92435
 C491 C 0.86460 0.70775 0.86922
 C492 C 0.84787 0.71087 0.84861
 C493 C 0.82772 0.71601 0.82533
 C494 C 0.81012 0.72165 0.80618
 H495 H 0.89982 0.66339 0.88299
 H496 H 0.87209 0.74726 0.91249
 H497 H 0.90370 0.74398 0.95693
 H498 H 0.93157 0.66003 0.92772
 C499 C 0.39590 0.18260 0.40068
 C500 C 0.38073 0.20810 0.39540
 C501 C 0.38400 0.23150 0.41524
 C502 C 0.40209 0.22941 0.44037
 C503 C 0.41725 0.20392 0.44588
 C504 C 0.41408 0.18049 0.42588
 C505 C 0.36111 0.21034 0.37025
 C506 C 0.34413 0.21336 0.34982
 C507 C 0.32372 0.21823 0.32667
 C508 C 0.30595 0.22355 0.30758
 H509 H 0.39342 0.16431 0.38554
 H510 H 0.37230 0.25128 0.41144
 H511 H 0.40414 0.24759 0.45570
 H512 H 0.42538 0.16056 0.43004
 C513 C 0.69808 0.89851 0.89910
 C514 C 0.72197 0.88059 0.89514
 C515 C 0.74450 0.88084 0.91638
 C516 C 0.74329 0.89893 0.94144
 C517 C 0.71967 0.91757 0.94554
 C518 C 0.69681 0.91672 0.92420
 C519 C 0.72339 0.86132 0.86978
 C520 C 0.72557 0.84459 0.84915
 C521 C 0.72924 0.82435 0.82577
 C522 C 0.73329 0.80654 0.80652
 H523 H 0.68026 0.89812 0.88304
 H524 H 0.76302 0.86692 0.91364
 H525 H 0.76121 0.89877 0.95738
 H526 H 0.67752 0.92949 0.92738
 C527 C 0.18820 0.39610 0.40082
 C528 C 0.21464 0.38259 0.39485
 C529 C 0.23858 0.38709 0.41409
 C530 C 0.23606 0.40481 0.43934
 C531 C 0.20962 0.41833 0.44550
 C532 C 0.18566 0.41388 0.42611
 C533 C 0.21716 0.36320 0.36972
 C534 C 0.22002 0.34637 0.34929
 C535 C 0.22421 0.32598 0.32617
 C536 C 0.22851 0.30800 0.30716
 H537 H 0.16949 0.39261 0.38618
 H538 H 0.25908 0.37661 0.40978
 H539 H 0.25466 0.40785 0.45422
 H540 H 0.16501 0.42390 0.43080
 C541 C 0.30494 0.09485 0.89990
 C542 C 0.28195 0.11411 0.89733
 C543 C 0.26050 0.11482 0.91966
 C544 C 0.26188 0.09637 0.94444
 C545 C 0.28456 0.07642 0.94719
 C546 C 0.30636 0.07626 0.92473
 C547 C 0.28027 0.13368 0.87222
 C548 C 0.27771 0.15069 0.85187
 C549 C 0.27346 0.17122 0.82887
 C550 C 0.26882 0.18921 0.80992
 H551 H 0.32193 0.09445 0.88295
 H552 H 0.24268 0.12974 0.91798
 H553 H 0.24474 0.09727 0.96121
 H554 H 0.32500 0.06241 0.92682
 C555 C 0.81093 0.59689 0.40069
 C556 C 0.78455 0.61060 0.39487
 C557 C 0.76046 0.60567 0.41381
 C558 C 0.76280 0.58744 0.43870
 C559 C 0.78922 0.57384 0.44481
 C560 C 0.81329 0.57860 0.42563
 C561 C 0.78226 0.63070 0.37030
 C562 C 0.77953 0.64813 0.35039
 C563 C 0.77541 0.66911 0.32782
 C564 C 0.77112 0.68745 0.30916
 H565 H 0.82975 0.60071 0.38627
 H566 H 0.74001 0.61627 0.40960
 H567 H 0.74413 0.58418 0.45344
 H568 H 0.83393 0.56853 0.43030
 C569 C 0.09352 0.69127 0.89634
 C570 C 0.11561 0.71276 0.89373
 C571 C 0.11986 0.73303 0.91673
 C572 C 0.10212 0.73201 0.94221
 C573 C 0.07938 0.71085 0.94507
 C574 C 0.07563 0.69019 0.92189
 C575 C 0.13439 0.71425 0.86780
 C576 C 0.15095 0.71687 0.84684
 C577 C 0.17118 0.72151 0.82327
 C578 C 0.18907 0.72676 0.80400
 H579 H 0.09032 0.67520 0.87881
 H580 H 0.13696 0.74972 0.91497
 H581 H 0.10577 0.74830 0.95944
 H582 H 0.05940 0.67272 0.92390
 C583 C 0.59601 0.18236 0.39931
 C584 C 0.61252 0.20792 0.39395
 C585 C 0.61090 0.23118 0.41401
 C586 C 0.59311 0.22889 0.43944
 C587 C 0.57660 0.20334 0.44501
 C588 C 0.57813 0.18005 0.42481
 C589 C 0.63182 0.21038 0.36846
 C590 C 0.64863 0.21356 0.34777
 C591 C 0.66898 0.21858 0.32434
 C592 C 0.68684 0.22396 0.30505
 H593 H 0.59721 0.16419 0.38400
 H594 H 0.62365 0.25100 0.41016
 H595 H 0.59231 0.24696 0.45492
 H596 H 0.56575 0.16009 0.42900
 C597 C 0.91019 0.28414 0.89807
 C598 C 0.88429 0.29924 0.89482
 C599 C 0.87662 0.31962 0.91647
 C600 C 0.89455 0.32461 0.94149
 C601 C 0.92075 0.30950 0.94522
 C602 C 0.92821 0.28909 0.92305
 C603 C 0.86470 0.29264 0.87026
 C604 C 0.84778 0.28663 0.85027
 C605 C 0.82738 0.27906 0.82757
 C606 C 0.80946 0.27217 0.80882
 H607 H 0.91609 0.26794 0.88170
 H608 H 0.85653 0.33135 0.91426
 H609 H 0.88800 0.34057 0.95783
 H610 H 0.94725 0.27588 0.92568
 C611 C 0.40923 0.77626 0.40111
 C612 C 0.38816 0.79655 0.39380
 C613 C 0.38540 0.82145 0.41146
 C614 C 0.40341 0.82586 0.43655
 C615 C 0.42443 0.80546 0.44409
 C616 C 0.42721 0.78062 0.42619
 C617 C 0.36836 0.79096 0.36920
 C618 C 0.35134 0.78563 0.34913
 C619 C 0.33088 0.77869 0.32632
 C620 C 0.31293 0.77221 0.30747
 H621 H 0.41135 0.75678 0.38778
 H622 H 0.36900 0.83717 0.40614
 H623 H 0.40074 0.84496 0.45032
 H624 H 0.44292 0.76439 0.43201
 C625 C 0.27271 0.89881 0.09592
 C626 C 0.29588 0.88119 0.10399
 C627 C 0.32178 0.88213 0.08712
 C628 C 0.32439 0.90050 0.06213
 C629 C 0.30117 0.91818 0.05395
 C630 C 0.27528 0.91710 0.07097
 C631 C 0.29231 0.86125 0.12873
 C632 C 0.28829 0.84432 0.14907
 C633 C 0.28245 0.82417 0.17237
 C634 C 0.27656 0.80664 0.19171
 H635 H 0.25247 0.89805 0.10861
 H636 H 0.33975 0.86840 0.09302
 H637 H 0.34436 0.90076 0.04901
 H638 H 0.25692 0.93014 0.06463
 C639 C 0.76986 0.39827 0.59699
 C640 C 0.79226 0.37956 0.60469
 C641 C 0.81775 0.37905 0.58722
 C642 C 0.82071 0.39706 0.56202
 C643 C 0.79828 0.41583 0.55421
 C644 C 0.77279 0.41623 0.57181
 C645 C 0.78835 0.35998 0.62966
 C646 C 0.78423 0.34327 0.65017
 C647 C 0.77843 0.32330 0.67361
 C648 C 0.77266 0.30586 0.69305
 H649 H 0.74994 0.39864 0.61016
 H650 H 0.83511 0.36448 0.59283
 H651 H 0.84036 0.39622 0.54846
 H652 H 0.75504 0.43018 0.56578
 C653 C 0.72802 0.09586 0.09409
 C654 C 0.70388 0.11154 0.10344
 C655 C 0.67715 0.10827 0.08821
 C656 C 0.67469 0.08956 0.06353
 C657 C 0.69889 0.07387 0.05403
 C658 C 0.72559 0.07723 0.06944
 C659 C 0.70721 0.13197 0.12772
 C660 C 0.71107 0.14936 0.14763
 C661 C 0.71681 0.17002 0.17041
 C662 C 0.72270 0.18791 0.18936
 H663 H 0.74887 0.09844 0.10551
 H664 H 0.65841 0.12049 0.09510
 H665 H 0.65407 0.08755 0.05160
 H666 H 0.74465 0.06577 0.06202
 C667 C 0.18016 0.61409 0.58647
 C668 C 0.20572 0.61401 0.60384
 C669 C 0.22797 0.59492 0.59675
 C670 C 0.22490 0.57628 0.57215
 C671 C 0.19941 0.57639 0.55452
 C672 C 0.17704 0.59541 0.56185
 C673 C 0.20993 0.63452 0.62792
 C674 C 0.21428 0.65202 0.64763
 C675 C 0.22032 0.67283 0.67018
 C676 C 0.22626 0.69084 0.68898
 H677 H 0.16292 0.62894 0.59161
 H678 H 0.24795 0.59487 0.60986
 H679 H 0.24261 0.56218 0.56646
 H680 H 0.15742 0.59605 0.54825
 C681 C 0.90184 0.68194 0.10211
 C682 C 0.88532 0.70672 0.10654
 C683 C 0.88673 0.72931 0.08553
 C684 C 0.90436 0.72713 0.06009
 C685 C 0.92089 0.70236 0.05544
 C686 C 0.91957 0.67974 0.07658
 C687 C 0.86628 0.70914 0.13209
 C688 C 0.84967 0.71249 0.15275
 C689 C 0.82960 0.71788 0.17602
 C690 C 0.81201 0.72369 0.19511
 H691 H 0.90080 0.66429 0.11819
 H692 H 0.87399 0.74853 0.08868
 H693 H 0.90505 0.74469 0.04391
 H694 H 0.93202 0.66039 0.07313
 C695 C 0.39689 0.18423 0.60194
 C696 C 0.38212 0.20998 0.60706
 C697 C 0.38544 0.23313 0.58687
 C698 C 0.40318 0.23053 0.56155
 C699 C 0.41793 0.20478 0.55620
 C700 C 0.41472 0.18161 0.57654
 C701 C 0.36278 0.21270 0.63236
 C702 C 0.34600 0.21605 0.65288
 C703 C 0.32575 0.22118 0.67609
 C704 C 0.30803 0.22657 0.69521
 H705 H 0.39436 0.16613 0.61734
 H706 H 0.37403 0.25310 0.59054
 H707 H 0.40527 0.24852 0.54595
 H708 H 0.42572 0.16148 0.57252
 C709 C 0.11834 0.32134 0.08901
 C710 C 0.11397 0.29641 0.10662
 C711 C 0.09161 0.27629 0.09923
 C712 C 0.07395 0.28085 0.07411
 C713 C 0.07837 0.30571 0.05623
 C714 C 0.10067 0.32594 0.06388
 C715 C 0.13341 0.29062 0.13123
 C716 C 0.15011 0.28518 0.15129
 C717 C 0.17018 0.27817 0.17412
 C718 C 0.18776 0.27163 0.19297
 H719 H 0.13573 0.33694 0.09438
 H720 H 0.08821 0.25679 0.11252
 H721 H 0.05722 0.26474 0.06823
 H722 H 0.10460 0.34506 0.05015
 C723 C 0.62311 0.82153 0.58785
 C724 C 0.61893 0.79665 0.60557
 C725 C 0.59662 0.77640 0.59840
 C726 C 0.57881 0.78080 0.57338
 C727 C 0.58300 0.80562 0.55540
 C728 C 0.60527 0.82597 0.56282
 C729 C 0.63853 0.79098 0.63006
 C730 C 0.65530 0.78553 0.65005
 C731 C 0.67537 0.77837 0.67279
 C732 C 0.69289 0.77163 0.69160
 H733 H 0.64047 0.83721 0.59306
 H734 H 0.59339 0.75694 0.61177
 H735 H 0.56211 0.76460 0.56765
 H736 H 0.60903 0.84505 0.54899
   
