data_POSCAR
  _audit_creation_date              2014-09-24
  _audit_creation_method            'ToBaCCo'
  _symmetry_space_group_name_H-M    'P1'
  _symmetry_Int_Tables_number       1
  _symmetry_cell_setting            triclinic
  loop_
  _symmetry_equiv_pos_as_xyz
 x,y,z
_cell_length_a 32.8893
_cell_length_b 33.7773
_cell_length_c 29.8995
_cell_angle_alpha 89.285100
_cell_angle_beta 90.804400
_cell_angle_gamma 91.143700
loop_
  _atom_site_label
  _atom_site_type_symbol
  _atom_site_fract_x
  _atom_site_fract_y
  _atom_site_fract_z
N1 N 0.18687 0.17974 0.17598
 N2 N -0.22075 0.78752 0.19782
 N3 N -0.18042 0.20310 -0.16618
 N4 N 0.21798 0.78149 -0.23217
 N5 N 0.20618 1.23096 0.81861
 N6 N 0.77856 0.76787 0.79934
 N7 N 0.21811 0.80570 1.22319
 N8 N 0.81715 1.18684 1.14978
 O9 O 0.53404 0.97252 0.87917
 O10 O 0.46432 0.97278 1.06721
 O11 O 0.55142 0.93556 1.01393
 O12 O 0.44534 0.92443 0.93501
 O13 O 0.53929 0.97907 1.06307
 O14 O 0.46119 0.96356 0.87935
 O15 O 0.43545 0.93168 1.01967
 O16 O 0.54375 0.93305 0.93376
 C17 C 0.54576 0.93952 0.89313
 C18 C 0.44447 0.94131 1.05875
 C19 C 0.55200 0.94545 1.05366
 C20 C 0.44982 0.92983 0.89391
 O21 O 0.45321 1.04019 0.90773
 O22 O 0.53241 1.05103 1.02429
 O23 O 0.57611 1.00799 0.92749
 O24 O 0.40961 1.00482 1.00574
 O25 O 0.45552 1.04484 1.03658
 O26 O 0.52707 1.04678 0.91288
 O27 O 0.41170 0.99350 0.92378
 O28 O 0.57999 1.01080 1.00773
 Co29 Co 0.49403 1.00430 0.90113
 Co30 Co 0.49814 1.01002 1.04031
 Co31 Co 0.55742 0.97320 0.97046
 Co32 Co 0.43234 0.96588 0.97084
 O33 O 0.49531 0.98871 0.97113
 C34 C 0.41751 1.02811 0.91056
 C35 C 0.56915 1.04486 1.01847
 C36 C 0.56423 1.04197 0.91751
 C37 C 0.41931 1.03659 1.02597
 O38 O 0.03124 0.46275 0.12247
 O39 O 0.03594 0.54305 -0.06225
 O40 O 0.06536 0.45789 -0.00991
 O41 O 0.06510 0.58039 0.06644
 O42 O 0.02284 0.47059 -0.06145
 O43 O 0.05667 0.53302 0.11643
 O44 O 0.06185 0.59242 -0.01957
 O45 O 0.06788 0.45634 0.06721
 C46 C 0.06218 0.44838 0.10667
 C47 C 0.05718 0.57522 -0.05852
 C48 C 0.05680 0.45799 -0.05016
 C49 C 0.07347 0.56516 0.10386
 O50 O -0.01930 0.55647 0.10588
 O51 O -0.05052 0.48055 -0.02527
 O52 O -0.01432 0.43212 0.06971
 O53 O -0.00454 0.59213 0.00642
 O54 O -0.04107 0.55192 -0.03397
 O55 O -0.04201 0.48378 0.10040
 O56 O 0.00468 0.59274 0.04900
 O57 O -0.01373 0.43039 -0.01011
 Co58 Co 0.00696 0.50902 0.10393
 Co59 Co -0.00641 0.51090 -0.03841
 Co60 Co 0.02530 0.44854 0.02956
 Co61 Co 0.03875 0.55862 0.01760
 O62 O 0.01227 0.50744 0.03147
 C63 C -0.01538 0.58928 0.08589
 C64 C -0.04691 0.44406 -0.02366
 C65 C -0.04340 0.44778 0.09039
 C66 C -0.03443 0.58617 -0.02043
 O67 O 1.04333 0.06085 0.46834
 O68 O 0.90683 0.04311 0.54626
 O69 O 0.95620 0.03347 0.41893
 O70 O 1.02009 0.03968 0.61757
 O71 O 0.90180 0.02559 0.46283
 O72 O 1.04146 0.06291 0.55214
 O73 O 0.96559 0.06859 0.56954
 O74 O 0.99235 0.04894 0.42322
 C75 C 1.02279 0.07032 0.43406
 C76 C 0.92750 0.07140 0.56407
 C77 C 0.91791 0.03796 0.42656
 C78 C 1.04587 0.06177 0.59486
 O79 O 1.05840 -0.01478 0.55452
 O80 O 0.91599 -0.04943 0.48355
 O81 O 1.02690 -0.01423 0.40610
 O82 O 0.94338 0.00650 0.61021
 O83 O 0.92195 -0.03541 0.56289
 O84 O 1.05756 -0.01913 0.47332
 O85 O 1.00312 -0.03069 0.58651
 O86 O 0.95302 -0.03399 0.42577
 Co87 Co 1.04387 0.02163 0.51192
 Co88 Co 0.91681 -0.00270 0.51419
 Co89 Co 0.99256 -0.00086 0.44816
 Co90 Co 0.98682 0.01922 0.57515
 O91 O 0.97924 0.00907 0.51098
 C92 C 1.03881 -0.03828 0.57877
 C93 C 0.92598 -0.05514 0.44389
 C94 C 1.05821 -0.02524 0.43117
 C95 C 0.92228 -0.02358 0.60219
 C96 C 1.13290 0.17203 0.23303
 C97 C 1.11988 0.15825 0.27515
 C98 C 1.14790 0.13955 0.30444
 C99 C 1.18861 0.13640 0.29203
 C100 C 1.20134 0.15058 0.25042
 C101 C 1.17366 0.16801 0.22027
 C102 C 1.13459 0.12310 0.34505
 C103 C 1.09351 0.12457 0.35659
 C104 C 1.06572 0.14481 0.32845
 C105 C 1.07915 0.16178 0.28797
 C106 C 1.02464 0.14615 0.34050
 C107 C 1.01073 0.12482 0.37793
 C108 C 1.03764 0.10202 0.40375
 C109 C 1.07935 0.10390 0.39440
 H110 H 1.11127 0.18503 0.20974
 H111 H 1.21048 0.12237 0.31421
 H112 H 1.23285 0.14744 0.24130
 H113 H 1.15592 0.10779 0.36685
 H114 H 1.05767 0.17645 0.26579
 H115 H 1.00302 0.16229 0.31998
 H116 H 0.97883 0.12522 0.38604
 H117 H 1.10034 0.08630 0.41423
 C118 C 0.80926 -0.19131 0.26984
 C119 C 0.83068 -0.16323 0.29577
 C120 C 0.84296 -0.12667 0.27608
 C121 C 0.83265 -0.11837 0.23133
 C122 C 0.81073 -0.14619 0.20610
 C123 C 0.79920 -0.18286 0.22503
 C124 C 0.86539 -0.09899 0.30135
 C125 C 0.87489 -0.10691 0.34638
 C126 C 0.86154 -0.14287 0.36658
 C127 C 0.83997 -0.17105 0.34097
 C128 C 0.86969 -0.14978 0.41221
 C129 C 0.89066 -0.12124 0.43760
 C130 C 0.90478 -0.08592 0.41744
 C131 C 0.89701 -0.07906 0.37174
 H132 H 0.80032 -0.21972 0.28426
 H133 H 0.84169 -0.09047 0.21579
 H134 H 0.80352 -0.13960 0.17139
 H135 H 0.87516 -0.07115 0.28607
 H136 H 0.83012 -0.19884 0.35628
 H137 H 0.85945 -0.17702 0.42834
 H138 H 0.89620 -0.12687 0.47288
 H139 H 0.90716 -0.05144 0.35626
 C140 C 0.82678 0.18633 0.75411
 C141 C 0.85116 0.17578 0.71810
 C142 C 0.89401 0.17708 0.72301
 C143 C 0.91172 0.19109 0.76277
 C144 C 0.88729 0.20146 0.79839
 C145 C 0.84461 0.19799 0.79499
 C146 C 0.91842 0.16247 0.68910
 C147 C 0.90047 0.14556 0.65085
 C148 C 0.85776 0.14636 0.64476
 C149 C 0.83340 0.16199 0.67815
 C150 C 0.83992 0.12907 0.60671
 C151 C 0.86360 0.10776 0.57739
 C152 C 0.90560 0.10391 0.58525
 C153 C 0.92423 0.12503 0.62050
 H154 H 0.79394 0.18399 0.75112
 H155 H 0.94449 0.19261 0.76697
 H156 H 0.90200 0.21044 0.82931
 H157 H 0.95121 0.16216 0.69366
 H158 H 0.80056 0.16132 0.67414
 H159 H 0.80731 0.12983 0.60117
 H160 H 0.84857 0.09204 0.55027
 H161 H 0.95657 0.12223 0.62702
 C162 C 1.17315 -0.19431 0.70679
 C163 C 1.15491 -0.16293 0.68345
 C164 C 1.17165 -0.12424 0.68715
 C165 C 1.20530 -0.11739 0.71538
 C166 C 1.22119 -0.14825 0.74120
 C167 C 1.20577 -0.18729 0.73691
 C168 C 1.15324 -0.09265 0.66447
 C169 C 1.11673 -0.09881 0.64064
 C170 C 1.09887 -0.13720 0.63853
 C171 C 1.11880 -0.16926 0.65872
 C172 C 1.06082 -0.14258 0.61733
 C173 C 1.04057 -0.11015 0.59869
 C174 C 1.05885 -0.07233 0.59959
 C175 C 1.09706 -0.06685 0.62014
 H176 H 1.16024 -0.22397 0.70397
 H177 H 1.21784 -0.08772 0.71947
 H178 H 1.24437 -0.14094 0.76588
 H179 H 1.16634 -0.06301 0.66701
 H180 H 1.10533 -0.19878 0.65685
 H181 H 1.04647 -0.17170 0.61580
 H182 H 1.01107 -0.11466 0.58279
 H183 H 1.11084 -0.03742 0.62130
 C184 C 0.24787 1.16436 1.13200
 C185 C 0.27224 1.13701 1.11024
 C186 C 0.25984 1.09671 1.10825
 C187 C 0.22281 1.08467 1.12731
 C188 C 0.19870 1.11209 1.14876
 C189 C 0.21103 1.15209 1.15155
 C190 C 0.28499 1.06903 1.08808
 C191 C 0.32268 1.08107 1.07036
 C192 C 0.33456 1.12158 1.07173
 C193 C 0.30920 1.14923 1.09129
 C194 C 0.37228 1.13372 1.05472
 C195 C 0.39886 1.10590 1.03839
 C196 C 0.38812 1.06542 1.03796
 C197 C 0.34940 1.05321 1.05280
 H198 H 0.25776 1.19506 1.13453
 H199 H 0.21271 1.05397 1.12608
 H200 H 0.17039 1.10210 1.16358
 H201 H 0.27570 1.03806 1.08714
 H202 H 0.31870 1.18014 1.09270
 H203 H 0.38176 1.16462 1.05528
 H204 H 0.42840 1.11600 1.02677
 H205 H 0.34103 1.02200 1.05288
 C206 C 0.29210 0.79886 0.76885
 C207 C 0.32656 0.81022 0.79433
 C208 C 0.32843 0.80035 0.84041
 C209 C 0.29704 0.77778 0.85962
 C210 C 0.26178 0.76927 0.83499
 C211 C 0.25771 0.78191 0.78996
 C212 C 0.35962 0.81611 0.86750
 C213 C 0.38701 0.84427 0.84992
 C214 C 0.38639 0.85309 0.80356
 C215 C 0.35706 0.83475 0.77567
 C216 C 0.41282 0.88259 0.78667
 C217 C 0.43634 0.90590 0.81596
 C218 C 0.43454 0.89932 0.86243
 C219 C 0.41197 0.86663 0.87879
 H220 H 0.29025 0.80717 0.73377
 H221 H 0.29828 0.76949 0.89475
 H222 H 0.23683 0.75498 0.85247
 H223 H 0.36011 0.80945 0.90310
 H224 H 0.35566 0.84255 0.74039
 H225 H 0.41313 0.88954 0.75119
 H226 H 0.45402 0.93053 0.80243
 H227 H 0.41054 0.86102 0.91453
 C228 C 0.71527 0.82441 1.18833
 C229 C 0.68321 0.83813 1.16117
 C230 C 0.67854 0.82406 1.11702
 C231 C 0.70519 0.79572 1.10129
 C232 C 0.73738 0.78273 1.12825
 C233 C 0.74337 0.79751 1.17173
 C234 C 0.64834 0.83963 1.08871
 C235 C 0.62351 0.86994 1.10354
 C236 C 0.62739 0.88334 1.14803
 C237 C 0.65684 0.86693 1.17679
 C238 C 0.60294 0.91416 1.16236
 C239 C 0.57666 0.93311 1.13220
 C240 C 0.57395 0.92119 1.08737
 C241 C 0.59638 0.88851 1.07378
 H242 H 0.71928 0.83569 1.22192
 H243 H 0.70198 0.78457 1.06757
 H244 H 0.75847 0.76219 1.11431
 H245 H 0.64533 0.82934 1.05457
 H246 H 0.66036 0.87773 1.21067
 H247 H 0.60532 0.92467 1.19641
 H248 H 0.55956 0.95806 1.14355
 H249 H 0.59460 0.87898 1.03930
 C250 C 0.75058 1.18363 0.85844
 C251 C 0.72142 1.15419 0.86945
 C252 C 0.73218 1.11384 0.86846
 C253 C 0.77150 1.10358 0.85612
 C254 C 0.79992 1.13294 0.84445
 C255 C 0.78974 1.17307 0.84540
 C256 C 0.70341 1.08429 0.87931
 C257 C 0.66363 1.09433 0.89002
 C258 C 0.65248 1.13451 0.89053
 C259 C 0.68163 1.16429 0.88078
 C260 C 0.61218 1.14407 0.90016
 C261 C 0.58316 1.11406 0.90855
 C262 C 0.59419 1.07411 0.90828
 C263 C 0.63465 1.06458 0.89947
 H264 H 0.74281 1.21465 0.85916
 H265 H 0.78018 1.07283 0.85522
 H266 H 0.83017 1.12442 0.83507
 H267 H 0.71181 1.05340 0.87865
 H268 H 0.67318 1.19515 0.88126
 H269 H 0.60301 1.17469 0.90075
 H270 H 0.55222 1.12206 0.91573
 H271 H 0.64347 1.03383 0.89905
 C272 C 0.16447 0.24957 0.18349
 C273 C 0.15151 0.28545 0.16429
 C274 C 0.15255 0.29078 0.11737
 C275 C 0.16513 0.25983 0.09044
 C276 C 0.17581 0.22355 0.10961
 C277 C 0.17594 0.21779 0.15637
 C278 C 0.13976 0.32646 0.09793
 C279 C 0.12340 0.35596 0.12450
 C280 C 0.12088 0.35025 0.17128
 C281 C 0.13618 0.31553 0.19108
 C282 C 0.10165 0.37871 0.19708
 C283 C 0.08343 0.41148 0.17642
 C284 C 0.08576 0.41722 0.12993
 C285 C 0.10739 0.39012 0.10454
 H286 H 0.16483 0.24624 0.21956
 H287 H 0.16557 0.26327 0.05436
 H288 H 0.18361 0.19982 0.08753
 H289 H 0.14082 0.33054 0.06190
 H290 H 0.13454 0.31119 0.22702
 H291 H 0.09922 0.37476 0.23297
 H292 H 0.06695 0.43198 0.19663
 H293 H 0.10965 0.39424 0.06866
 C294 C -0.17052 0.27114 -0.13956
 C295 C -0.15065 0.29794 -0.11072
 C296 C -0.12634 0.28337 -0.07494
 C297 C -0.12522 0.24253 -0.06624
 C298 C -0.14579 0.21618 -0.09456
 C299 C -0.16710 0.23029 -0.13226
 C300 C -0.10233 0.30968 -0.04959
 C301 C -0.10305 0.35043 -0.05883
 C302 C -0.13001 0.36534 -0.09188
 C303 C -0.15335 0.33894 -0.11805
 C304 C -0.13218 0.40637 -0.09905
 C305 C -0.10674 0.43227 -0.07489
 C306 C -0.07801 0.41747 -0.04407
 C307 C -0.07649 0.37643 -0.03620
 H308 H -0.18723 0.28178 -0.16865
 H309 H -0.10730 0.23094 -0.03854
 H310 H -0.14295 0.18463 -0.08887
 H311 H -0.08246 0.29837 -0.02333
 H312 H -0.17276 0.35021 -0.14472
 H313 H -0.15299 0.41838 -0.12389
 H314 H -0.10827 0.46375 -0.08185
 H315 H -0.05430 0.36464 -0.01267
 C316 C 0.18460 0.71746 -0.21240
 C317 C 0.15495 0.69601 -0.18823
 C318 C 0.12601 0.71675 -0.16339
 C319 C 0.12604 0.75816 -0.16441
 C320 C 0.15554 0.77909 -0.18831
 C321 C 0.18533 0.75902 -0.21177
 C322 C 0.09845 0.69595 -0.13640
 C323 C 0.09969 0.65470 -0.13321
 C324 C 0.12707 0.63349 -0.15943
 C325 C 0.15451 0.65436 -0.18710
 C326 C 0.12744 0.59191 -0.15599
 C327 C 0.10263 0.57194 -0.12491
 C328 C 0.07754 0.59351 -0.09702
 C329 C 0.07521 0.63457 -0.10235
 H330 H 0.20775 0.70216 -0.23050
 H331 H 0.10400 0.77437 -0.14567
 H332 H 0.15610 0.81113 -0.18741
 H333 H 0.07706 0.71199 -0.11648
 H334 H 0.17634 0.63834 -0.20640
 H335 H 0.14791 0.57505 -0.17608
 H336 H 0.10463 0.54011 -0.12099
 H337 H 0.05541 0.65107 -0.08095
 C338 C -0.15890 0.75555 0.17204
 C339 C -0.13776 0.72169 0.16040
 C340 C -0.15622 0.68382 0.16605
 C341 C -0.19578 0.68066 0.18304
 C342 C -0.21692 0.71474 0.19382
 C343 C -0.19859 0.75229 0.18847
 C344 C -0.13509 0.64991 0.15400
 C345 C -0.09611 0.65354 0.13556
 C346 C -0.07801 0.69158 0.12952
 C347 C -0.09875 0.72530 0.14239
 C348 C -0.03957 0.69536 0.11017
 C349 C -0.01934 0.66186 0.09637
 C350 C -0.03695 0.62399 0.10207
 C351 C -0.07514 0.61987 0.12228
 H352 H -0.14502 0.78463 0.16722
 H353 H -0.21051 0.65193 0.18744
 H354 H -0.24762 0.71197 0.20626
 H355 H -0.14918 0.62083 0.15834
 H356 H -0.08479 0.75442 0.13777
 H357 H -0.02531 0.72426 0.10528
 H358 H 0.01025 0.66549 0.08119
 H359 H -0.08893 0.59067 0.12651
 C360 C 1.18468 0.19574 0.75180
 C361 C 1.15449 0.17497 0.72745
 C362 C 1.11484 0.17073 0.74476
 C363 C 1.10549 0.18925 0.78488
 C364 C 1.13538 0.21074 0.80839
 C365 C 1.17573 0.21349 0.79289
 C366 C 1.08535 0.14770 0.72196
 C367 C 1.09475 0.12970 0.68142
 C368 C 1.13372 0.13597 0.66286
 C369 C 1.16347 0.15808 0.68623
 C370 C 1.14242 0.11979 0.62125
 C371 C 1.11316 0.09687 0.59864
 C372 C 1.07514 0.08866 0.61775
 C373 C 1.06592 0.10543 0.65910
 H374 H 1.21527 0.19822 0.73887
 H375 H 1.07518 0.18661 0.79849
 H376 H 1.12742 0.22342 0.84011
 H377 H 1.05523 0.14368 0.73583
 H378 H 1.19364 0.16198 0.67244
 H379 H 1.17192 0.12474 0.60624
 H380 H 1.12084 0.08467 0.56670
 H381 H 1.03632 0.09984 0.67367
 C382 C 0.81045 -0.17050 0.77021
 C383 C 0.82986 -0.14906 0.73579
 C384 C 0.83705 -0.16758 0.69453
 C385 C 0.82523 -0.20735 0.68871
 C386 C 0.80632 -0.22854 0.72333
 C387 C 0.79846 -0.21021 0.76403
 C388 C 0.85605 -0.14615 0.65987
 C389 C 0.86846 -0.10658 0.66609
 C390 C 0.86186 -0.08826 0.70758
 C391 C 0.84236 -0.10952 0.74204
 C392 C 0.87510 -0.04898 0.71398
 C393 C 0.89482 -0.02805 0.67970
 C394 C 0.90118 -0.04581 0.63821
 C395 C 0.88772 -0.08510 0.63157
 H396 H 0.80477 -0.15658 0.80192
 H397 H 0.83065 -0.22206 0.65741
 H398 H 0.79729 -0.25918 0.71828
 H399 H 0.86136 -0.16032 0.62818
 H400 H 0.83711 -0.09538 0.77377
 H401 H 0.87039 -0.03451 0.74557
 H402 H 0.90488 0.00220 0.68554
 H403 H 0.89278 -0.09917 0.59978
 C404 C 1.19859 -0.16160 0.29130
 C405 C 1.16840 -0.14317 0.31583
 C406 C 1.12718 -0.14760 0.30251
 C407 C 1.11664 -0.17201 0.26654
 C408 C 1.14681 -0.18964 0.24179
 C409 C 1.18840 -0.18338 0.25256
 C410 C 1.09728 -0.12626 0.32407
 C411 C 1.10812 -0.10021 0.35850
 C412 C 1.14905 -0.09711 0.37339
 C413 C 1.17897 -0.11878 0.35204
 C414 C 1.15940 -0.07167 0.40871
 C415 C 1.12962 -0.04874 0.42824
 C416 C 1.08936 -0.05045 0.41215
 C417 C 1.07870 -0.07659 0.37767
 H418 H 1.23030 -0.15728 0.30075
 H419 H 1.08513 -0.17594 0.25616
 H420 H 1.13758 -0.20571 0.21211
 H421 H 1.06577 -0.12896 0.31308
 H422 H 1.21055 -0.11565 0.36261
 H423 H 1.19052 -0.06916 0.42085
 H424 H 1.13821 -0.02894 0.45513
 H425 H 1.04743 -0.07862 0.36579
 C426 C 0.81962 0.15322 0.22179
 C427 C 0.84235 0.13635 0.25694
 C428 C 0.88527 0.13908 0.25626
 C429 C 0.90459 0.16112 0.22240
 C430 C 0.88171 0.17902 0.18838
 C431 C 0.83905 0.17415 0.18667
 C432 C 0.90823 0.11934 0.28910
 C433 C 0.88880 0.09836 0.32374
 C434 C 0.84596 0.09803 0.32640
 C435 C 0.82290 0.11639 0.29245
 C436 C 0.82703 0.07897 0.36278
 C437 C 0.85038 0.06031 0.39608
 C438 C 0.89295 0.05932 0.39280
 C439 C 0.91170 0.07773 0.35584
 H440 H 0.78674 0.15005 0.22144
 H441 H 0.93746 0.16394 0.22179
 H442 H 0.89757 0.19459 0.16174
 H443 H 0.94118 0.12038 0.28776
 H444 H 0.78995 0.11510 0.29361
 H445 H 0.79421 0.07861 0.36556
 H446 H 0.83505 0.04593 0.42387
 H447 H 0.94418 0.07575 0.35164
 C448 C 0.17281 0.29410 -0.17568
 C449 C 0.16097 0.32612 -0.14981
 C450 C 0.17485 0.32918 -0.10501
 C451 C 0.20154 0.30108 -0.08741
 C452 C 0.21303 0.26917 -0.11320
 C453 C 0.19818 0.26457 -0.15749
 C454 C 0.16055 0.35931 -0.07794
 C455 C 0.13175 0.38584 -0.09481
 C456 C 0.11899 0.38376 -0.14010
 C457 C 0.13413 0.35422 -0.16751
 C458 C 0.08975 0.41002 -0.15660
 C459 C 0.07122 0.43617 -0.12775
 C460 C 0.08206 0.43685 -0.08214
 C461 C 0.11369 0.41283 -0.06634
 H462 H 0.16170 0.29167 -0.20987
 H463 H 0.21244 0.30298 -0.05311
 H464 H 0.23178 0.24686 -0.09745
 H465 H 0.17042 0.36099 -0.04322
 H466 H 0.12361 0.35203 -0.20196
 H467 H 0.07985 0.40908 -0.19129
 H468 H 0.04712 0.45465 -0.14073
 H469 H 0.12231 0.41310 -0.03119
 C470 C -0.16263 0.25589 0.15827
 C471 C -0.14969 0.29209 0.13931
 C472 C -0.14852 0.29649 0.09229
 C473 C -0.16223 0.26541 0.06508
 C474 C -0.17514 0.22947 0.08414
 C475 C -0.17448 0.22363 0.13104
 C476 C -0.13206 0.33123 0.07321
 C477 C -0.11588 0.36118 0.10059
 C478 C -0.11908 0.35784 0.14759
 C479 C -0.13637 0.32341 0.16668
 C480 C -0.10294 0.38816 0.17465
 C481 C -0.08105 0.41985 0.15545
 C482 C -0.07523 0.42158 0.10907
 C483 C -0.09425 0.39324 0.08182
 H484 H -0.16287 0.25252 0.19437
 H485 H -0.16164 0.26839 0.02896
 H486 H -0.18335 0.20547 0.06190
 H487 H -0.13016 0.33418 0.03717
 H488 H -0.13771 0.32024 0.20278
 H489 H -0.10541 0.38632 0.21071
 H490 H -0.06629 0.44145 0.17704
 H491 H -0.09028 0.39514 0.04623
 C492 C -0.17058 0.74135 -0.14804
 C493 C -0.15195 0.70922 -0.12645
 C494 C -0.16279 0.67011 -0.13902
 C495 C -0.19254 0.66391 -0.17247
 C496 C -0.21147 0.69614 -0.19315
 C497 C -0.20045 0.73486 -0.18119
 C498 C -0.14367 0.63793 -0.11806
 C499 C -0.11379 0.64433 -0.08480
 C500 C -0.10359 0.68341 -0.07165
 C501 C -0.12281 0.71558 -0.09247
 C502 C -0.07347 0.68971 -0.03875
 C503 C -0.05233 0.65778 -0.02046
 C504 C -0.06138 0.61889 -0.03407
 C505 C -0.09293 0.61234 -0.06556
 H506 H -0.16271 0.77145 -0.13858
 H507 H -0.20137 0.63417 -0.18237
 H508 H -0.23488 0.69103 -0.21837
 H509 H -0.15162 0.60797 -0.12807
 H510 H -0.11468 0.74556 -0.08267
 H511 H -0.06527 0.71944 -0.02826
 H512 H -0.02769 0.66378 0.00295
 H513 H -0.09997 0.58253 -0.07672
 C514 C 0.19527 0.73674 0.22055
 C515 C 0.18282 0.70382 0.19516
 C516 C 0.18949 0.70405 0.14859
 C517 C 0.21016 0.73612 0.12861
 C518 C 0.22165 0.76909 0.15381
 C519 C 0.21319 0.77069 0.19997
 C520 C 0.17348 0.67330 0.12226
 C521 C 0.14977 0.64291 0.14170
 C522 C 0.14462 0.64148 0.18853
 C523 C 0.16172 0.67171 0.21512
 C524 C 0.12061 0.61095 0.20754
 C525 C 0.09954 0.58389 0.18014
 C526 C 0.10236 0.58691 0.13339
 C527 C 0.12902 0.61542 0.11462
 H528 H 0.18924 0.73683 0.25610
 H529 H 0.21558 0.73665 0.09294
 H530 H 0.23445 0.79448 0.13619
 H531 H 0.17760 0.67417 0.08632
 H532 H 0.15677 0.67133 0.25091
 H533 H 0.11657 0.60916 0.24342
 H534 H 0.07918 0.56219 0.19535
 H535 H 0.13176 0.61774 0.07858
 C536 C 0.24338 1.17023 0.82839
 C537 C 0.27915 1.15078 0.84034
 C538 C 0.31565 1.17266 0.84756
 C539 C 0.31565 1.21393 0.84194
 C540 C 0.27956 1.23333 0.83101
 C541 C 0.24261 1.21187 0.82487
 C542 C 0.35109 1.15296 0.86135
 C543 C 0.35001 1.11178 0.86897
 C544 C 0.31315 1.09028 0.86161
 C545 C 0.27829 1.10976 0.84686
 C546 C 0.31131 1.04955 0.86985
 C547 C 0.34543 1.03006 0.88577
 C548 C 0.38245 1.05069 0.89336
 C549 C 0.38475 1.09169 0.88453
 H550 H 0.21540 1.15298 0.82485
 H551 H 0.34334 1.23130 0.84703
 H552 H 0.28036 1.26530 0.82765
 H553 H 0.37911 1.16971 0.86711
 H554 H 0.25014 1.09306 0.84152
 H555 H 0.28330 1.03273 0.86440
 H556 H 0.34275 0.99846 0.89195
 H557 H 0.41307 1.10786 0.89044
 C558 C 0.28733 0.82054 1.19864
 C559 C 0.31653 0.84813 1.18284
 C560 C 0.30765 0.88891 1.18188
 C561 C 0.27022 0.90154 1.19721
 C562 C 0.24095 0.87405 1.21146
 C563 C 0.24853 0.83289 1.21200
 C564 C 0.33538 0.91637 1.16349
 C565 C 0.37107 0.90343 1.14389
 C566 C 0.38048 0.86272 1.14535
 C567 C 0.35363 0.83544 1.16590
 C568 C 0.41519 0.84970 1.12356
 C569 C 0.43840 0.87622 1.09769
 C570 C 0.42825 0.91632 1.09493
 C571 C 0.39571 0.93014 1.11964
 H572 H 0.29434 0.78932 1.19944
 H573 H 0.26284 0.93268 1.19638
 H574 H 0.21145 0.88518 1.21998
 H575 H 0.32803 0.94754 1.16204
 H576 H 0.36048 0.80416 1.16631
 H577 H 0.42288 0.81865 1.12418
 H578 H 0.46310 0.86517 1.07809
 H579 H 0.38726 0.96094 1.11637
 C580 C 0.75313 1.17403 1.11033
 C581 C 0.72513 1.14705 1.09107
 C582 C 0.73453 1.10641 1.08981
 C583 C 0.77132 1.09331 1.10796
 C584 C 0.79847 1.12000 1.12798
 C585 C 0.78999 1.16080 1.12960
 C586 C 0.70660 1.07918 1.07150
 C587 C 0.66858 1.09169 1.05605
 C588 C 0.65872 1.13220 1.05746
 C589 C 0.68741 1.15980 1.07421
 C590 C 0.61983 1.14405 1.04346
 C591 C 0.59059 1.11579 1.02998
 C592 C 0.60021 1.07549 1.02914
 C593 C 0.63964 1.06387 1.04102
 H594 H 0.74561 1.20508 1.11195
 H595 H 0.77894 1.06226 1.10717
 H596 H 0.82680 1.10876 1.14139
 H597 H 0.71391 1.04801 1.07073
 H598 H 0.67992 1.19089 1.07545
 H599 H 0.61168 1.17495 1.04419
 H600 H 0.56039 1.12536 1.02053
 H601 H 0.64727 1.03278 1.04074
 C602 C 0.71626 0.80843 0.79591
 C603 C 0.68214 0.82424 0.81644
 C604 C 0.67268 0.81276 0.86077
 C605 C 0.69673 0.78506 0.88336
 C606 C 0.73085 0.76989 0.86300
 C607 C 0.74172 0.78197 0.81939
 C608 C 0.64016 0.83006 0.88244
 C609 C 0.61771 0.85968 0.86088
 C610 C 0.62635 0.87064 0.81619
 C611 C 0.65815 0.85236 0.79395
 C612 C 0.60423 0.90100 0.79532
 C613 C 0.57583 0.92206 0.81949
 C614 C 0.56865 0.91261 0.86463
 C615 C 0.58840 0.88014 0.88440
 H616 H 0.72343 0.81737 0.76196
 H617 H 0.68973 0.77579 0.91728
 H618 H 0.74915 0.74929 0.88208
 H619 H 0.63347 0.82171 0.91676
 H620 H 0.66531 0.86121 0.75992
 H621 H 0.61024 0.90966 0.76099
 H622 H 0.56085 0.94686 0.80349
 H623 H 0.58309 0.87247 0.91919
   
