data_POSCAR
  _audit_creation_date              2014-09-24
  _audit_creation_method            'ToBaCCo'
  _symmetry_space_group_name_H-M    'P1'
  _symmetry_Int_Tables_number       1
  _symmetry_cell_setting            triclinic
  loop_
  _symmetry_equiv_pos_as_xyz
 x,y,z
_cell_length_a 34.0119
_cell_length_b 33.2384
_cell_length_c 35.2135
_cell_angle_alpha 89.307900
_cell_angle_beta 85.020000
_cell_angle_gamma 92.617800
loop_
  _atom_site_label
  _atom_site_type_symbol
  _atom_site_fract_x
  _atom_site_fract_y
  _atom_site_fract_z
C1 C 0.61288 0.65504 0.63969
 C2 C 0.63343 0.62463 0.62040
 C3 C 0.63771 0.58806 0.63855
 C4 C 0.62170 0.58153 0.67633
 C5 C 0.60114 0.61139 0.69513
 C6 C 0.59726 0.64849 0.67697
 C7 C 0.60455 0.69374 0.62956
 N8 N 0.58518 0.71073 0.66016
 C9 C 0.58057 0.68340 0.68925
 C10 C 0.58792 0.59665 0.73081
 N11 N 0.60054 0.55870 0.73442
 C12 C 0.62158 0.54933 0.70137
 C13 C 0.65905 0.56450 0.61315
 N14 N 0.66812 0.58609 0.58032
 C15 C 0.65276 0.62290 0.58452
 H16 H 0.61279 0.70879 0.60241
 H17 H 0.56613 0.68864 0.71727
 H18 H 0.57081 0.61269 0.75258
 H19 H 0.63505 0.52088 0.69566
 H20 H 0.66800 0.53425 0.61845
 H21 H 0.65559 0.64668 0.56304
 C22 C 0.88103 0.34878 0.11226
 C23 C 0.87225 0.36743 0.07831
 C24 C 0.86628 0.40825 0.07752
 C25 C 0.86786 0.43067 0.11079
 C26 C 0.87511 0.41211 0.14474
 C27 C 0.88181 0.37064 0.14550
 C28 C 0.89349 0.31105 0.11986
 N29 N 0.90140 0.30907 0.15694
 C30 C 0.89363 0.34515 0.17316
 C31 C 0.87666 0.44194 0.17164
 N32 N 0.87085 0.47779 0.15453
 C33 C 0.86531 0.47111 0.11741
 C34 C 0.85939 0.41856 0.04084
 N35 N 0.86014 0.38476 0.01965
 C36 C 0.86796 0.35327 0.04218
 H37 H 0.89813 0.28728 0.09939
 H38 H 0.89923 0.35339 0.20191
 H39 H 0.88299 0.43812 0.20104
 H40 H 0.86050 0.49409 0.09649
 H41 H 0.85277 0.44814 0.03061
 H42 H 0.86984 0.32238 0.03304
 C43 C 0.39317 0.13403 -0.10381
 C44 C 0.35287 0.13833 -0.09337
 C45 C 0.32480 0.11757 -0.11272
 C46 C 0.33665 0.09354 -0.14368
 C47 C 0.37640 0.08912 -0.15391
 C48 C 0.40490 0.10898 -0.13343
 C49 C 0.42685 0.15141 -0.09081
 N50 N 0.45857 0.13694 -0.11131
 C51 C 0.44560 0.11102 -0.13749
 C52 C 0.37915 0.06685 -0.18667
 N53 N 0.34210 0.05843 -0.19695
 C54 C 0.31588 0.07420 -0.17047
 C55 C 0.28824 0.12668 -0.09605
 N56 N 0.29360 0.15281 -0.06752
 C57 C 0.33291 0.16044 -0.06574
 H58 H 0.42826 0.17315 -0.06826
 H59 H 0.46437 0.09582 -0.15861
 H60 H 0.40622 0.05933 -0.20300
 H61 H 0.28413 0.07340 -0.17138
 H62 H 0.25984 0.11527 -0.10404
 H63 H 0.34592 0.17981 -0.04524
 C64 C 0.11469 0.84006 0.40635
 C65 C 0.15472 0.84586 0.41218
 C66 C 0.17880 0.87188 0.38860
 C67 C 0.16320 0.89181 0.35840
 C68 C 0.12367 0.88588 0.35228
 C69 C 0.09927 0.85914 0.37618
 C70 C 0.08481 0.81661 0.42521
 N71 N 0.05166 0.81989 0.40671
 C72 C 0.06025 0.84552 0.37640
 C73 C 0.11718 0.90928 0.32095
 N74 N 0.15198 0.92834 0.30761
 C75 C 0.18023 0.91762 0.33035
 C76 C 0.21629 0.87110 0.40056
 N77 N 0.21540 0.84447 0.43012
 C78 C 0.17798 0.82881 0.43748
 H79 H 0.08754 0.79750 0.44985
 H80 H 0.03955 0.85404 0.35637
 H81 H 0.08944 0.91151 0.30829
 H82 H 0.21098 0.92801 0.32711
 H83 H 0.24250 0.88759 0.38799
 H84 H 0.16857 0.80646 0.45942
 N85 N 0.03562 0.17428 0.13406
 N86 N 0.02397 0.14887 0.16216
 C87 C -0.00832 0.16284 0.18181
 C88 C -0.01760 0.19826 0.16423
 C89 C 0.01074 0.20448 0.13409
 H90 H -0.02343 0.14884 0.20723
 H91 H 0.01449 0.23048 0.11513
 Cu92 Cu 0.05349 0.10090 0.17032
 Cu93 Cu 0.08593 0.17080 0.10395
 Cu94 Cu 0.12299 0.07608 0.10198
 N95 N 0.08916 0.05772 0.17834
 N96 N 0.11641 0.04854 0.15141
 C97 C 0.13934 0.02083 0.16499
 C98 C 0.12575 0.01196 0.20234
 C99 C 0.09365 0.03564 0.20997
 H100 H 0.16529 0.00955 0.14943
 H101 H 0.07682 0.03877 0.23720
 N102 N 0.14052 0.11822 0.06378
 N103 N 0.12834 0.15529 0.06627
 C104 C 0.15058 0.17908 0.04082
 C105 C 0.17792 0.15572 0.02130
 C106 C 0.17052 0.11724 0.03625
 H107 H 0.14816 0.21127 0.03781
 H108 H 0.18793 0.09132 0.02997
 H109 H 0.07299 0.11146 0.10200
 H110 H 0.11314 0.12621 0.13274
 N111 N 0.47062 0.85131 0.59749
 N112 N 0.47916 0.87989 0.62136
 C113 C 0.50847 0.86835 0.64172
 C114 C 0.51892 0.83050 0.62993
 C115 C 0.49460 0.82069 0.60161
 H116 H 0.51928 0.88498 0.66520
 H117 H 0.49251 0.79222 0.58720
 Cu118 Cu 0.44665 0.92586 0.62892
 Cu119 Cu 0.42567 0.85382 0.56670
 Cu120 Cu 0.36825 0.93713 0.57983
 N121 N 0.40383 0.95878 0.64794
 N122 N 0.37237 0.96220 0.62916
 C123 C 0.34561 0.98306 0.65024
 C124 C 0.36128 0.99302 0.68404
 C125 C 0.39834 0.97747 0.68154
 H126 H 0.31656 0.98935 0.64205
 H127 H 0.41889 0.97785 0.70334
 N128 N 0.35905 0.89598 0.54155
 N129 N 0.37926 0.86302 0.53813
 C130 C 0.36193 0.83800 0.51407
 C131 C 0.32966 0.85641 0.50160
 C132 C 0.32885 0.89317 0.51929
 H133 H 0.37119 0.80808 0.50713
 H134 H 0.30617 0.91486 0.51834
 H135 H 0.42436 0.91518 0.56491
 H136 H 0.39202 0.88881 0.60372
 N137 N 0.87001 0.71815 0.39414
 N138 N 0.89069 0.71514 0.36106
 C139 C 0.92441 0.73806 0.36118
 C140 C 0.92500 0.75583 0.39645
 C141 C 0.88996 0.74273 0.41654
 H142 H 0.94845 0.73830 0.33893
 H143 H 0.88119 0.74793 0.44629
 Cu144 Cu 0.87502 0.67565 0.32414
 Cu145 Cu 0.82237 0.68435 0.40779
 Cu146 Cu 0.82804 0.59213 0.36377
 N147 N 0.86658 0.62757 0.29465
 N148 N 0.84942 0.59446 0.31043
 C149 C 0.84918 0.56538 0.28411
 C150 C 0.86658 0.58144 0.25000
 C151 C 0.87727 0.62096 0.25767
 H152 H 0.83653 0.53514 0.28920
 H153 H 0.89201 0.64313 0.23796
 N154 N 0.79457 0.60072 0.41158
 N155 N 0.79067 0.63658 0.42681
 C156 C 0.76538 0.63330 0.45833
 C157 C 0.75304 0.59336 0.46347
 C158 C 0.77196 0.57343 0.43333
 H159 H 0.75795 0.65787 0.47708
 H160 H 0.76967 0.54151 0.42783
 H161 H 0.85733 0.64160 0.38533
 H162 H 0.81336 0.65001 0.35851
 N163 N 0.62386 0.26639 -0.09121
 N164 N 0.59430 0.28689 -0.10166
 C165 C 0.56267 0.26167 -0.10429
 C166 C 0.57311 0.22323 -0.09567
 C167 C 0.61217 0.22715 -0.08743
 H168 H 0.53488 0.27029 -0.11399
 H169 H 0.63090 0.20327 -0.08018
 Cu170 Cu 0.60074 0.34358 -0.11602
 Cu171 Cu 0.67518 0.29314 -0.08469
 Cu172 Cu 0.69340 0.37090 -0.15043
 N173 N 0.61250 0.39230 -0.14650
 N174 N 0.64827 0.40105 -0.16261
 C175 C 0.64758 0.43437 -0.18459
 C176 C 0.60957 0.44761 -0.18116
 C177 C 0.58801 0.42038 -0.15671
 H178 H 0.67318 0.44895 -0.20031
 H179 H 0.55687 0.42070 -0.14743
 N180 N 0.73485 0.34913 -0.12101
 N181 N 0.72751 0.32069 -0.09450
 C182 C 0.75804 0.32010 -0.07262
 C183 C 0.78591 0.34969 -0.08596
 C184 C 0.77045 0.36711 -0.11692
 H185 H 0.75810 0.30250 -0.04658
 H186 H 0.78182 0.39420 -0.13218
 H187 H 0.66680 0.35491 -0.09742
 H188 H 0.66437 0.31613 -0.13567
 C189 C -0.08126 0.27769 0.17286
 C190 C -0.07763 0.27221 0.21135
 C191 C -0.05582 0.23880 0.21373
 C192 C -0.04721 0.22721 0.17656
 O193 O -0.06280 0.25054 0.15183
 H194 H -0.08879 0.29055 0.23469
 H195 H -0.04519 0.22612 0.23916
 C196 C 0.57226 0.75103 0.66197
 C197 C 0.57558 0.77544 0.69295
 C198 C 0.55772 0.80975 0.68408
 C199 C 0.54435 0.80324 0.64863
 O200 O 0.55329 0.76756 0.63501
 H201 H 0.58889 0.76870 0.71897
 H202 H 0.55347 0.83566 0.70203
 C203 C 1.01622 0.80026 0.41659
 C204 C 1.00575 0.78228 0.45185
 C205 C 0.96882 0.76557 0.44945
 C206 C 0.95989 0.77375 0.41278
 O207 O 0.98848 0.79507 0.39270
 H208 H 1.02274 0.78149 0.47640
 H209 H 0.95126 0.74781 0.47124
 C210 C 0.49883 0.14932 -0.10739
 C211 C 0.53016 0.12442 -0.11188
 C212 C 0.56267 0.14857 -0.10617
 C213 C 0.54849 0.18630 -0.09932
 O214 O 0.50973 0.18678 -0.09990
 H215 H 0.52934 0.09272 -0.11855
 H216 H 0.59311 0.14009 -0.10817
 C217 C 0.15774 -0.04686 0.27637
 C218 C 0.19448 -0.03413 0.25942
 C219 C 0.18696 -0.01133 0.22880
 C220 C 0.14638 -0.01109 0.22974
 O221 O 0.12837 -0.03275 0.25850
 H222 H 0.22330 -0.04115 0.26769
 H223 H 0.20849 0.00402 0.20855
 C224 C 0.59320 0.53384 -0.23458
 C225 C 0.56597 0.54044 -0.20405
 C226 C 0.56748 0.50787 -0.18040
 C227 C 0.59600 0.48450 -0.19789
 O228 O 0.61158 0.50000 -0.23083
 H229 H 0.54685 0.56540 -0.19971
 H230 H 0.55060 0.50228 -0.15322
 C231 C 0.33357 1.04017 0.77018
 C232 C 0.29626 1.03597 0.75747
 C233 C 0.30175 1.01817 0.72283
 C234 C 0.34176 1.01257 0.71727
 O235 O 0.36115 1.02585 0.74590
 H236 H 0.26852 1.04518 0.77124
 H237 H 0.27925 1.00992 0.70407
 C238 C 0.87266 0.51660 0.17189
 C239 C 0.88090 0.55231 0.15177
 C240 C 0.88033 0.58141 0.17864
 C241 C 0.87143 0.56132 0.21304
 O242 O 0.86687 0.52184 0.20911
 H243 H 0.88701 0.55660 0.12130
 H244 H 0.88533 0.61350 0.17370
 C245 C 0.26280 0.16806 -0.04227
 C246 C 0.26182 0.20737 -0.03047
 C247 C 0.22837 0.20854 -0.00622
 C248 C 0.21209 0.16966 -0.00469
 O249 O 0.23290 0.14499 -0.02669
 H250 H 0.28300 0.23194 -0.03846
 H251 H 0.21794 0.23424 0.00961
 C252 C 0.69133 0.57335 0.54708
 C253 C 0.69845 0.53381 0.53846
 C254 C 0.72197 0.53573 0.50494
 C255 C 0.72754 0.57626 0.49604
 O256 O 0.70888 0.59912 0.52150
 H257 H 0.68784 0.50696 0.55454
 H258 H 0.73422 0.51071 0.48933
 C259 C 0.85008 0.38238 -0.01888
 C260 C 0.86164 0.41123 -0.04649
 C261 C 0.84111 0.40097 -0.07677
 C262 C 0.81815 0.36697 -0.06504
 O263 O 0.82371 0.35551 -0.02986
 H264 H 0.88138 0.43738 -0.04416
 H265 H 0.84120 0.41765 -0.10335
 C266 C 0.24869 0.83365 0.44949
 C267 C 0.25766 0.79454 0.45708
 C268 C 0.29082 0.79780 0.47623
 C269 C 0.29889 0.83865 0.47935
 O270 O 0.27340 0.86056 0.46298
 H271 H 0.24186 0.76718 0.44962
 H272 H 0.30633 0.77340 0.48782
   
