data_POSCAR
  _audit_creation_date              2014-09-24
  _audit_creation_method            'ToBaCCo'
  _symmetry_space_group_name_H-M    'P1'
  _symmetry_Int_Tables_number       1
  _symmetry_cell_setting            triclinic
  loop_
  _symmetry_equiv_pos_as_xyz
 x,y,z
_cell_length_a 34.3243
_cell_length_b 34.3240
_cell_length_c 34.3237
_cell_angle_alpha 89.999400
_cell_angle_beta 89.999800
_cell_angle_gamma 90.000400
loop_
  _atom_site_label
  _atom_site_type_symbol
  _atom_site_fract_x
  _atom_site_fract_y
  _atom_site_fract_z
N1 N 0.30440 0.30877 1.30672
 N2 N 1.19211 0.69212 0.80790
 N3 N 0.69330 -0.19560 0.19125
 N4 N -0.19123 1.19330 -0.30438
 N5 N 0.69206 0.69650 0.69449
 N6 N 0.80428 0.30429 0.19573
 N7 N 0.30551 0.19207 0.80351
 N8 N 0.19651 0.80552 0.30795
 Zn9 Zn 0.05123 0.98088 0.00227
 Zn10 Zn 0.00156 1.04956 -0.01629
 Zn11 Zn -0.02961 0.96877 -0.02896
 Zn12 Zn -0.01737 0.99953 0.05206
 O13 O 0.00138 0.99961 0.00220
 O14 O 0.08600 1.01490 -0.01668
 O15 O -0.02781 1.05486 -0.05879
 O16 O -0.00315 0.92894 -0.05059
 O17 O 0.04903 1.06603 -0.03029
 O18 O 0.05628 0.93831 -0.02706
 O19 O -0.05110 0.99543 -0.06875
 O20 O -0.05984 0.97001 0.05705
 O21 O -0.01724 1.08424 0.01793
 O22 O -0.06947 0.94712 -0.00260
 O23 O -0.03144 1.04695 0.06868
 O24 O 0.01680 0.98081 0.08684
 O25 O 0.06782 0.96706 0.04975
 C26 C 0.08187 1.04918 -0.02974
 C27 C -0.04826 1.03106 -0.07819
 C28 C 0.03239 0.91919 -0.04767
 C29 C -0.07907 0.94966 0.03301
 C30 C -0.03055 1.07992 0.05209
 C31 C 0.05111 0.96783 0.08266
 Zn32 Zn 0.50348 0.05313 0.51551
 Zn33 Zn 0.55313 -0.01549 0.49653
 Zn34 Zn 0.47230 -0.02770 0.52772
 Zn35 Zn 0.48450 0.00348 0.44688
 O36 O 0.50329 0.00329 0.49673
 O37 O 0.55100 0.06953 0.52952
 O38 O 0.55825 -0.05799 0.52600
 O39 O 0.45060 -0.00121 0.56745
 O40 O 0.58798 0.01855 0.51533
 O41 O 0.47402 0.05825 0.55801
 O42 O 0.49879 -0.06743 0.54942
 O43 O 0.44201 -0.02598 0.44177
 O44 O 0.56952 -0.02950 0.44902
 O45 O 0.43257 -0.04941 0.50123
 O46 O 0.51854 -0.01531 0.41204
 O47 O 0.47050 0.05100 0.43049
 O48 O 0.48469 0.08798 0.48147
 C49 C 0.58387 0.05274 0.52863
 C50 C 0.53435 -0.07710 0.54662
 C51 C 0.45340 0.03435 0.57711
 C52 C 0.42290 -0.04661 0.46567
 C53 C 0.55273 -0.02862 0.41615
 C54 C 0.47138 0.08387 0.44728
 Zn55 Zn 0.94796 0.48263 0.50048
 Zn56 Zn 1.02898 0.47039 0.53124
 Zn57 Zn 1.01630 0.50156 0.45046
 Zn58 Zn 0.99775 0.55123 0.51913
 O59 O 0.99782 0.50138 0.50040
 O60 O 0.94297 0.44016 0.53001
 O61 O 1.06877 0.44890 0.50459
 O62 O 0.98209 0.48276 0.41578
 O63 O 1.00262 0.43053 0.55290
 O64 O 0.93134 0.46856 0.45307
 O65 O 1.05880 0.47219 0.44516
 O66 O 1.01670 0.58600 0.48512
 O67 O 1.05061 0.49685 0.57107
 O68 O 1.03031 0.54903 0.43398
 O69 O 1.02708 0.55628 0.56171
 O70 O 0.95027 0.56782 0.53296
 O71 O 0.91318 0.51680 0.51921
 C72 C 0.96701 0.42093 0.55036
 C73 C 1.07821 0.45174 0.46895
 C74 C 0.94793 0.46945 0.42010
 C75 C 1.02976 0.58187 0.45084
 C76 C 1.04769 0.53239 0.58083
 C77 C 0.91736 0.55111 0.53219
 Zn78 Zn 0.49953 0.44796 1.01738
 Zn79 Zn 0.48088 0.49775 0.94878
 Zn80 Zn 0.46877 0.52898 1.02962
 Zn81 Zn 0.54956 0.51630 0.99845
 O82 O 0.49961 0.49782 0.99864
 O83 O 0.48080 0.41319 0.98321
 O84 O 0.43831 0.52709 0.94373
 O85 O 0.44711 0.50262 1.06949
 O86 O 0.46705 0.45028 0.93219
 O87 O 0.47000 0.44297 1.05986
 O88 O 0.42894 0.55062 1.00317
 O89 O 0.55486 0.55880 1.02782
 O90 O 0.51489 0.51670 0.91401
 O91 O 0.49543 0.56877 1.05111
 O92 O 0.56603 0.53030 0.95098
 O93 O 0.58423 0.48209 1.01725
 O94 O 0.54694 0.43134 1.03145
 C95 C 0.46782 0.41737 0.94890
 C96 C 0.41919 0.54769 0.96763
 C97 C 0.44965 0.46701 1.07909
 C98 C 0.53106 0.57821 1.04827
 C99 C 0.54917 0.52976 0.91814
 C100 C 0.57991 0.44792 1.03056
 C101 C 1.22758 0.36086 0.37851
 N102 N 1.22803 0.39998 0.38403
 N103 N 1.20016 0.41718 0.40489
 C104 C 1.17106 0.39580 0.42094
 N105 N 1.17069 0.35666 0.41553
 N106 N 1.19856 0.33945 0.39467
 C107 C 1.25592 0.34264 0.35374
 C108 C 1.27883 0.32707 0.33211
 C109 C 1.13917 0.41477 0.44021
 C110 C 1.11166 0.43128 0.45450
 C111 C 0.26939 0.63965 0.87891
 N112 N 0.29882 0.66080 0.89466
 N113 N 0.32682 0.64335 0.91513
 C114 C 0.32620 0.60421 0.92054
 N115 N 0.29668 0.58308 0.90491
 N116 N 0.26868 0.60053 0.88444
 C117 C 0.24090 0.65810 0.85450
 C118 C 0.21784 0.67378 0.83310
 C119 C 0.35816 0.58497 0.93941
 C120 C 0.38571 0.56829 0.95342
 C121 C -0.22906 0.85677 0.12056
 N122 N -0.23026 0.89580 0.11450
 N123 N -0.20217 0.91343 0.09431
 C124 C -0.17204 0.89257 0.07951
 N125 N -0.17091 0.85352 0.08545
 N126 N -0.19901 0.83589 0.10564
 C127 C -0.25767 0.83822 0.14475
 C128 C -0.28083 0.82257 0.16606
 C129 C -0.14005 0.91206 0.06092
 C130 C -0.11251 0.92892 0.04710
 C131 C 0.73197 0.14140 0.62369
 N132 N 0.73110 0.10209 0.61979
 N133 N 0.70340 0.08507 0.59856
 C134 C 0.67577 0.10683 0.58054
 N135 N 0.67671 0.14614 0.58435
 N136 N 0.70441 0.16317 0.60558
 C137 C 0.76022 0.15958 0.64857
 C138 C 0.78313 0.17511 0.67022
 C139 C 0.64422 0.08828 0.56034
 C140 C 0.61700 0.07232 0.54492
 C141 C 0.37632 0.23197 0.35861
 N142 N 0.38028 0.23114 0.39791
 N143 N 0.40151 0.20344 0.41494
 C144 C 0.41947 0.17577 0.39318
 N145 N 0.41561 0.17667 0.35387
 N146 N 0.39439 0.20437 0.33684
 C147 C 0.35145 0.26021 0.34043
 C148 C 0.32979 0.28313 0.32490
 C149 C 0.43967 0.14421 0.41173
 C150 C 0.45510 0.11700 0.42769
 C151 C 0.87946 0.27094 0.64325
 N152 N 0.89436 0.30100 0.66413
 N153 N 0.91455 0.32910 0.64650
 C154 C 0.92051 0.32796 0.60745
 N155 N 0.90573 0.29782 0.58660
 N156 N 0.88554 0.26972 0.60422
 C157 C 0.85527 0.24233 0.66180
 C158 C 0.83396 0.21916 0.67744
 C159 C 0.93910 0.35994 0.58796
 C160 C 0.95292 0.38748 0.57110
 C161 C 0.12110 0.76939 -0.13963
 N162 N 0.10536 0.79883 -0.16078
 N163 N 0.08489 0.82683 -0.14332
 C164 C 0.07947 0.82620 -0.10419
 N165 N 0.09510 0.79668 -0.08306
 N166 N 0.11558 0.76868 -0.10051
 C167 C 0.14551 0.74090 -0.15808
 C168 C 0.16691 0.71785 -0.17376
 C169 C 0.06060 0.85816 -0.08495
 C170 C 0.04659 0.88571 -0.06826
 C171 C 0.62152 0.72758 1.13916
 N172 N 0.61600 0.72803 1.10004
 N173 N 0.59513 0.70016 1.08283
 C174 C 0.57908 0.67106 1.10422
 N175 N 0.58449 0.67069 1.14335
 N176 N 0.60535 0.69856 1.16056
 C177 C 0.64628 0.75591 1.15738
 C178 C 0.66791 0.77883 1.17295
 C179 C 0.55981 0.63917 1.08524
 C180 C 0.54552 0.61166 1.06873
 C181 C 0.35677 0.37947 1.22908
 N182 N 0.33589 0.39437 1.19901
 N183 N 0.35351 0.41456 1.17091
 C184 C 0.39256 0.42052 1.17206
 N185 N 0.41342 0.40573 1.20220
 N186 N 0.39579 0.38554 1.23029
 C187 C 0.33822 0.35527 1.25769
 C188 C 0.32257 0.33396 1.28085
 C189 C 0.41205 0.43910 1.14007
 C190 C 0.42891 0.45293 1.11253
 C191 C 0.64139 -0.12368 0.26805
 N192 N 0.60209 -0.11979 0.26892
 N193 N 0.58506 -0.09856 0.29662
 C194 C 0.60682 -0.08053 0.32424
 N195 N 0.64614 -0.08433 0.32330
 N196 N 0.66316 -0.10555 0.29560
 C197 C 0.65958 -0.14855 0.23980
 C198 C 0.67511 -0.17021 0.21688
 C199 C 0.58828 -0.06033 0.35580
 C200 C 0.57232 -0.04490 0.38301
 C201 C -0.13915 1.12151 -0.22756
 N202 N -0.16055 1.10536 -0.19853
 N203 N -0.14334 1.08450 -0.17067
 C204 C -0.10421 1.07908 -0.17104
 N205 N -0.08282 1.09511 -0.20015
 N206 N -0.10003 1.11598 -0.22802
 C207 C -0.15737 1.14627 -0.25590
 C208 C -0.17293 1.16791 -0.27881
 C209 C -0.08523 1.05981 -0.13915
 C210 C -0.06872 1.04551 -0.11164
 C211 C 1.13964 0.62111 0.73063
 N212 N 1.16079 0.60534 0.70121
 N213 N 1.14334 0.58487 0.67320
 C214 C 1.10420 0.57947 0.67382
 N215 N 1.08307 0.59512 0.70333
 N216 N 1.10052 0.61559 0.73133
 C217 C 1.15809 0.64552 0.75912
 C218 C 1.17377 0.66692 0.78217
 C219 C 1.08496 0.56060 0.64186
 C220 C 1.06828 0.54659 0.61431
 C221 C 0.76919 0.64279 0.62428
 N222 N 0.76972 0.60340 0.62126
 N223 N 0.79748 0.58565 0.60071
 C224 C 0.82551 0.60675 0.58252
 N225 N 0.82490 0.64615 0.58544
 N226 N 0.79715 0.66390 0.60599
 C227 C 0.74087 0.66176 0.64847
 C228 C 0.71785 0.67783 0.66961
 C229 C 0.85705 0.58749 0.56299
 C230 C 0.88425 0.57105 0.54805
 C231 C 0.72755 0.35740 1.12462
 N232 N 0.69989 0.33602 1.10620
 N233 N 0.67226 0.35347 1.08523
 C234 C 0.67149 0.39284 1.08200
 N235 N 0.69923 0.41422 1.10032
 N236 N 0.72685 0.39677 1.12129
 C237 C 0.75575 0.33874 1.14919
 C238 C 0.77864 0.32285 1.17060
 C239 C 0.64005 0.41181 1.06202
 C240 C 0.61293 0.42807 1.04674
 C241 C 0.22921 1.13867 -0.12515
 N242 N 0.22754 1.09926 -0.12289
 N243 N 0.20004 1.08196 -0.10163
 C244 C 0.17341 1.10354 -0.08195
 N245 N 0.17516 1.14295 -0.08413
 N246 N 0.20266 1.16025 -0.10538
 C247 C 0.25726 1.15728 -0.14993
 C248 C 0.28002 1.17326 -0.17140
 C249 C 0.14203 1.08485 -0.06164
 C250 C 0.11492 1.06881 -0.04612
 C251 C 0.27370 -0.14056 0.37795
 N252 N 0.30317 -0.16130 0.39417
 N253 N 0.33108 -0.14335 0.41432
 C254 C 0.33033 -0.10411 0.41893
 N255 N 0.30078 -0.08339 0.40282
 N256 N 0.27287 -0.10134 0.38267
 C257 C 0.24527 -0.15959 0.35391
 C258 C 0.22224 -0.17570 0.33282
 C259 C 0.36215 -0.08441 0.43756
 C260 C 0.38957 -0.06743 0.45146
 C261 C 0.62207 -0.22630 0.64058
 N262 N 0.60587 -0.19682 0.66131
 N263 N 0.58572 -0.16890 0.64336
 C264 C 0.58109 -0.16966 0.60413
 N265 N 0.59718 -0.19922 0.58341
 N266 N 0.61734 -0.22714 0.60136
 C267 C 0.64611 -0.25473 0.65960
 C268 C 0.66720 -0.27776 0.67572
 C269 C 0.56246 -0.13785 0.58443
 C270 C 0.54856 -0.11043 0.56744
 C271 C 1.12517 0.72921 0.36135
 N272 N 1.12287 0.72757 0.40075
 N273 N 1.10161 0.70006 0.41805
 C274 C 1.08196 0.67342 0.39647
 N275 N 1.08417 0.67513 0.35706
 N276 N 1.10542 0.70264 0.33977
 C277 C 1.14994 0.75726 0.34273
 C278 C 1.17142 0.78003 0.32675
 C279 C 1.06166 0.64203 0.41517
 C280 C 1.04614 0.61492 0.43121
 C281 C -0.12461 1.22756 0.14262
 N282 N -0.10621 1.19988 0.16400
 N283 N -0.08524 1.17225 0.14654
 C284 C -0.08199 1.17150 0.10717
 N285 N -0.10030 1.19924 0.08580
 N286 N -0.12127 1.22687 0.10325
 C287 C -0.14918 1.25575 0.16128
 C288 C -0.17059 1.27865 0.17717
 C289 C -0.06201 1.14006 0.08821
 C290 C -0.04673 1.11294 0.07194
 C291 C 0.37572 0.26920 0.85722
 N292 N 0.37876 0.26972 0.89661
 N293 N 0.39931 0.29747 0.91436
 C294 C 0.41748 0.32551 0.89326
 N295 N 0.41454 0.32492 0.85386
 N296 N 0.39399 0.29717 0.83611
 C297 C 0.35154 0.24087 0.83825
 C298 C 0.33039 0.21786 0.82218
 C299 C 0.43701 0.35705 0.91252
 C300 C 0.45196 0.38425 0.92896
 C301 C 0.63866 0.62516 0.77079
 N302 N 0.66025 0.60540 0.79735
 N303 N 0.64295 0.58414 0.82486
 C304 C 0.60354 0.58196 0.82659
 N305 N 0.58196 0.60163 0.79996
 N306 N 0.59926 0.62289 0.77245
 C307 C 0.65728 0.64994 0.74275
 C308 C 0.67326 0.67141 0.71998
 C309 C 0.58484 0.56165 0.85798
 C310 C 0.56880 0.54614 0.88509
 C311 C 0.35944 0.12207 0.72632
 N312 N 0.33870 0.10584 0.69685
 N313 N 0.35666 0.08569 0.66894
 C314 C 0.39589 0.08109 0.66968
 N315 N 0.41661 0.09721 0.69923
 N316 N 0.39866 0.11737 0.72714
 C317 C 0.34041 0.14611 0.75474
 C318 C 0.32429 0.16720 0.77777
 C319 C 0.41560 0.06246 0.63787
 C320 C 0.43258 0.04856 0.61045
 C321 C 0.14279 0.87573 0.23083
 N322 N 0.10340 0.87876 0.23030
 N323 N 0.08566 0.89931 0.20254
 C324 C 0.10676 0.91750 0.17451
 N325 N 0.14615 0.91457 0.17511
 N326 N 0.16390 0.89402 0.20287
 C327 C 0.16177 0.85155 0.25915
 C328 C 0.17783 0.83040 0.28217
 C329 C 0.08749 0.93703 0.14297
 C330 C 0.07105 0.95197 0.11577
 C331 C 0.85740 0.37540 0.27246
 N332 N 0.83602 0.39382 0.30012
 N333 N 0.85347 0.41478 0.32775
 C334 C 0.89284 0.41801 0.32852
 N335 N 0.91422 0.39969 0.30078
 N336 N 0.89676 0.37872 0.27315
 C337 C 0.83873 0.35082 0.24426
 C338 C 0.82284 0.32941 0.22137
 C339 C 0.91181 0.43799 0.35996
 C340 C 0.92808 0.45327 0.38708
   
