data_POSCAR
  _audit_creation_date              2014-09-24
  _audit_creation_method            'ToBaCCo'
  _symmetry_space_group_name_H-M    'P1'
  _symmetry_Int_Tables_number       1
  _symmetry_cell_setting            triclinic
  loop_
  _symmetry_equiv_pos_as_xyz
 x,y,z
_cell_length_a 37.5400
_cell_length_b 32.6348
_cell_length_c 32.6518
_cell_angle_alpha 88.707200
_cell_angle_beta 91.126600
_cell_angle_gamma 89.530900
loop_
  _atom_site_label
  _atom_site_type_symbol
  _atom_site_fract_x
  _atom_site_fract_y
  _atom_site_fract_z
C1 C 0.28115 0.32913 0.22065
 H2 H 0.26523 0.34503 0.24247
 C3 C 0.30528 0.35132 0.19710
 H4 H 0.30643 0.38424 0.20015
 C5 C 0.29957 0.26717 0.19090
 H6 H 0.29742 0.23422 0.18906
 C7 C 0.32432 0.28808 0.16705
 H8 H 0.34129 0.27082 0.14717
 N9 N 0.27812 0.28790 0.21652
 C10 C 0.21261 0.27858 0.32119
 H11 H 0.22518 0.25099 0.33364
 C12 C 0.19043 0.30161 0.34579
 H13 H 0.18613 0.29066 0.37678
 C14 C 0.20031 0.32310 0.26442
 H15 H 0.20347 0.33060 0.23227
 C16 C 0.17918 0.34809 0.28838
 H17 H 0.16766 0.37549 0.27422
 Zn18 Zn 0.24585 0.25642 0.24816
 N19 N 0.21746 0.28987 0.28140
 C20 C 0.29679 0.23633 0.30905
 N21 N 0.27366 0.21983 0.28155
 C22 C 0.27154 0.17857 0.27716
 C23 C 0.29291 0.15213 0.30140
 C24 C 0.31873 0.21101 0.33387
 C25 C 0.21496 0.22872 0.17282
 C26 C 0.19181 0.20479 0.14949
 C27 C 0.16702 0.17795 0.21224
 C28 C 0.19036 0.20256 0.23428
 N29 N 0.21426 0.22655 0.21446
 H30 H 0.29829 0.26928 0.31147
 H31 H 0.25363 0.16600 0.25452
 H32 H 0.29057 0.11937 0.29768
 H33 H 0.33740 0.22479 0.35505
 H34 H 0.23357 0.24870 0.15760
 H35 H 0.19319 0.20610 0.11640
 H36 H 0.14846 0.15869 0.22861
 H37 H 0.18997 0.20198 0.26741
 C38 C 0.17365 0.33750 0.32985
 C39 C 0.32726 0.33086 0.16968
 C40 C 0.16784 0.17852 0.16930
 C41 C 0.31701 0.16826 0.33015
 C42 C 0.78646 0.82546 0.22734
 H43 H 0.77334 0.83990 0.25241
 C44 C 0.81102 0.84786 0.20460
 H45 H 0.81422 0.87986 0.21155
 C46 C 0.79813 0.76625 0.18940
 H47 H 0.79386 0.73395 0.18459
 C48 C 0.82266 0.78750 0.16553
 H49 H 0.83711 0.77045 0.14311
 N50 N 0.77953 0.78577 0.21854
 C51 C 0.70692 0.77303 0.31896
 H52 H 0.71620 0.74314 0.32970
 C53 C 0.68297 0.79510 0.34235
 H54 H 0.67403 0.78085 0.37043
 C55 C 0.70483 0.82456 0.26694
 H56 H 0.71217 0.83512 0.23667
 C57 C 0.68243 0.84868 0.29024
 H58 H 0.67485 0.87847 0.27778
 Zn59 Zn 0.74645 0.75449 0.24953
 N60 N 0.71750 0.78807 0.28208
 C61 C 0.79888 0.73633 0.30849
 N62 N 0.77402 0.71863 0.28397
 C63 C 0.77054 0.67721 0.28321
 C64 C 0.79242 0.65192 0.30812
 C65 C 0.82184 0.71218 0.33322
 C66 C 0.71578 0.72708 0.17368
 C67 C 0.69312 0.70300 0.14994
 C68 C 0.66787 0.67568 0.21216
 C69 C 0.69102 0.70017 0.23465
 N70 N 0.71508 0.72438 0.21532
 H71 H 0.80136 0.76934 0.30811
 H72 H 0.75110 0.66355 0.26304
 H73 H 0.78862 0.61910 0.30749
 H74 H 0.84224 0.72711 0.35120
 H75 H 0.73389 0.74774 0.15864
 H76 H 0.69490 0.70463 0.11689
 H77 H 0.64914 0.65645 0.22828
 H78 H 0.69026 0.69936 0.26775
 C79 C 0.67044 0.83402 0.32853
 C80 C 0.82938 0.82933 0.17241
 C81 C 0.66910 0.67637 0.16920
 C82 C 0.81889 0.66923 0.33330
 C83 C 0.80260 0.30447 0.73468
 H84 H 0.80135 0.30782 0.76751
 C85 C 0.82734 0.32694 0.71229
 H86 H 0.84499 0.34767 0.72809
 C87 C 0.78234 0.27182 0.67462
 H88 H 0.76579 0.24924 0.66016
 C89 C 0.80678 0.29351 0.65107
 H90 H 0.80773 0.28843 0.61846
 N91 N 0.78000 0.27841 0.71549
 C92 C 0.69617 0.26446 0.80562
 H93 H 0.69400 0.23143 0.80530
 C94 C 0.67416 0.28713 0.83069
 H95 H 0.65474 0.27111 0.84898
 C96 C 0.72316 0.32507 0.78044
 H97 H 0.74176 0.33986 0.76024
 C98 C 0.70205 0.34896 0.80562
 H99 H 0.70557 0.38184 0.80518
 Zn100 Zn 0.74776 0.24863 0.74861
 N101 N 0.72021 0.28353 0.78134
 C102 C 0.78141 0.22069 0.82263
 N103 N 0.77604 0.21307 0.78235
 C104 C 0.79319 0.18180 0.76429
 C105 C 0.81668 0.15639 0.78691
 C106 C 0.80519 0.19658 0.84640
 C107 C 0.69925 0.23625 0.68294
 C108 C 0.67575 0.21420 0.65836
 C109 C 0.68222 0.15684 0.70595
 C110 C 0.70679 0.17942 0.72860
 N111 N 0.71530 0.21813 0.71642
 H112 H 0.76830 0.24661 0.83609
 H113 H 0.78853 0.17654 0.73203
 H114 H 0.82773 0.13088 0.77084
 H115 H 0.80968 0.20628 0.87741
 H116 H 0.70529 0.26770 0.67478
 H117 H 0.66524 0.22891 0.63066
 H118 H 0.67526 0.12671 0.71746
 H119 H 0.71852 0.16626 0.75645
 C120 C 0.67707 0.33004 0.83129
 C121 C 0.82945 0.32180 0.66984
 C122 C 0.66677 0.17368 0.66957
 C123 C 0.82408 0.16350 0.82899
 C124 C 0.27307 0.82608 0.71414
 H125 H 0.25169 0.84091 0.72997
 C126 C 0.29672 0.84968 0.69126
 H127 H 0.29322 0.88265 0.68953
 C128 C 0.30355 0.76515 0.69682
 H129 H 0.30621 0.73217 0.69967
 C130 C 0.32763 0.78754 0.67338
 H131 H 0.34896 0.77159 0.65836
 N132 N 0.27707 0.78464 0.71674
 C133 C 0.18189 0.78488 0.77826
 H134 H 0.16991 0.76566 0.75551
 C135 C 0.15978 0.80754 0.80321
 H136 H 0.13112 0.80483 0.79997
 C137 C 0.23320 0.81322 0.80959
 H138 H 0.26178 0.81581 0.81174
 C139 C 0.21196 0.83724 0.83455
 H140 H 0.22435 0.85760 0.85625
 Zn141 Zn 0.24727 0.75243 0.75024
 N142 N 0.21800 0.78697 0.78260
 C143 C 0.30284 0.73615 0.80827
 N144 N 0.27746 0.71839 0.78438
 C145 C 0.27519 0.67685 0.78247
 C146 C 0.29848 0.65162 0.80560
 C147 C 0.32659 0.71203 0.83209
 C148 C 0.21998 0.71977 0.67561
 C149 C 0.19801 0.69493 0.65180
 C150 C 0.17116 0.66935 0.71380
 C151 C 0.19408 0.69394 0.73637
 N152 N 0.21771 0.71880 0.71715
 H153 H 0.30550 0.76903 0.80796
 H154 H 0.25588 0.66296 0.76238
 H155 H 0.29608 0.61867 0.80372
 H156 H 0.34696 0.72675 0.85036
 H157 H 0.23888 0.73971 0.66081
 H158 H 0.20094 0.69556 0.61889
 H159 H 0.15186 0.65102 0.73000
 H160 H 0.19272 0.69373 0.76944
 C161 C 0.17484 0.83375 0.83197
 C162 C 0.32458 0.83042 0.67075
 C163 C 0.17298 0.66932 0.67083
 C164 C 0.32466 0.66915 0.83077
 C165 C 0.00213 -0.00295 0.00241
 C166 C -0.00061 0.49814 0.50306
 C167 C 0.49733 -0.00155 0.50003
 C168 C 0.50383 0.49625 0.00005
 C169 C 0.10448 -0.10076 -0.08988
 C170 C 0.12724 -0.07904 -0.11662
 C171 C 0.15124 -0.10052 -0.14096
 C172 C 0.15163 -0.14347 -0.14042
 C173 C 0.12844 -0.16492 -0.11481
 C174 C 0.10530 -0.14395 -0.08960
 C175 C 0.07933 -0.07682 -0.06437
 C176 C 0.05850 -0.09514 -0.03379
 C177 C 0.03433 -0.07191 -0.01197
 C178 C 0.02902 -0.02975 -0.02089
 C179 C 0.05212 -0.01092 -0.04913
 C180 C 0.07705 -0.03392 -0.07065
 C181 C 0.12496 -0.03622 -0.11994
 C182 C 0.09991 -0.01421 -0.09806
 H183 H 0.14217 -0.01953 -0.14059
 H184 H 0.09859 0.01878 -0.10248
 H185 H 0.16867 -0.08396 -0.16148
 H186 H 0.12824 -0.19813 -0.11442
 H187 H 0.02032 -0.08745 0.01233
 H188 H 0.05031 0.02193 -0.05459
 H189 H 0.08771 -0.16206 -0.07093
 H190 H 0.06099 -0.12728 -0.02567
 C191 C 0.10428 0.40852 0.40644
 C192 C 0.10111 0.41200 0.36333
 C193 C 0.12309 0.38832 0.33864
 C194 C 0.15025 0.36301 0.35607
 C195 C 0.15494 0.36244 0.39898
 C196 C 0.13205 0.38430 0.42381
 C197 C 0.07831 0.43154 0.43168
 C198 C 0.07543 0.42500 0.47416
 C199 C 0.05000 0.44619 0.49612
 C200 C 0.02656 0.47490 0.47673
 C201 C 0.03089 0.48297 0.43444
 C202 C 0.05492 0.45997 0.41167
 C203 C 0.07647 0.43968 0.34514
 C204 C 0.05477 0.46421 0.36886
 H205 H 0.07445 0.44304 0.31208
 H206 H 0.03660 0.48567 0.35335
 H207 H 0.11851 0.38962 0.30584
 H208 H 0.17653 0.34532 0.41382
 H209 H 0.04830 0.43973 0.52868
 H210 H 0.01551 0.50678 0.41862
 H211 H 0.13699 0.38252 0.45647
 H212 H 0.09190 0.40280 0.49081
 C213 C 0.59680 -0.09372 0.39928
 C214 C 0.61515 -0.12739 0.41782
 C215 C 0.64002 -0.14962 0.39535
 C216 C 0.64475 -0.14134 0.35315
 C217 C 0.62392 -0.10968 0.33445
 C218 C 0.60091 -0.08580 0.35721
 C219 C 0.57227 -0.06916 0.42478
 C220 C 0.55902 -0.03047 0.41206
 C221 C 0.53581 -0.00893 0.43667
 C222 C 0.52299 -0.02642 0.47338
 C223 C 0.53863 -0.06375 0.48758
 C224 C 0.56375 -0.08446 0.46412
 C225 C 0.60759 -0.13946 0.45821
 C226 C 0.58140 -0.11942 0.48028
 H227 H 0.62118 -0.16570 0.47243
 H228 H 0.57560 -0.13076 0.51086
 H229 H 0.65530 -0.17347 0.41125
 H230 H 0.62457 -0.10326 0.30191
 H231 H 0.52731 0.02149 0.42657
 H232 H 0.53211 -0.07627 0.51747
 H233 H 0.58558 -0.06211 0.34115
 H234 H 0.56721 -0.01593 0.38377
 C235 C 0.60722 0.39924 -0.09158
 C236 C 0.61876 0.41634 -0.12920
 C237 C 0.64151 0.39383 -0.15414
 C238 C 0.65390 0.35461 -0.14175
 C239 C 0.64362 0.33866 -0.10349
 C240 C 0.62052 0.36043 -0.07887
 C241 C 0.58133 0.42327 -0.06699
 C242 C 0.56632 0.40781 -0.03070
 C243 C 0.54149 0.43083 -0.00960
 C244 C 0.53014 0.46985 -0.02425
 C245 C 0.54706 0.48641 -0.05900
 C246 C 0.57125 0.46301 -0.08119
 C247 C 0.60756 0.45581 -0.14170
 C248 C 0.58480 0.47890 -0.11787
 H249 H 0.61668 0.46916 -0.17028
 H250 H 0.57704 0.50934 -0.12884
 H251 H 0.64896 0.40669 -0.18359
 H252 H 0.65358 0.30919 -0.09228
 H253 H 0.53143 0.41789 0.01864
 H254 H 0.54068 0.51742 -0.06942
 H255 H 0.61361 0.34635 -0.04995
 H256 H 0.57315 0.37788 -0.01813
 C257 C -0.09973 0.09177 -0.10264
 C258 C -0.12359 0.11778 -0.08254
 C259 C -0.14931 0.14079 -0.10517
 C260 C -0.15138 0.14006 -0.14864
 C261 C -0.12633 0.11448 -0.16798
 C262 C -0.10131 0.09087 -0.14556
 C263 C -0.07326 0.06697 -0.07729
 C264 C -0.05069 0.03730 -0.09397
 C265 C -0.02648 0.01497 -0.06910
 C266 C -0.02309 0.02232 -0.02679
 C267 C -0.04685 0.05081 -0.00994
 C268 C -0.07179 0.07272 -0.03455
 C269 C -0.12146 0.12114 -0.03982
 C270 C -0.09574 0.09964 -0.01645
 H271 H -0.13961 0.14124 -0.02423
 H272 H -0.09489 0.10376 0.01640
 H273 H -0.16821 0.15799 -0.08779
 H274 H -0.12407 0.11350 -0.20081
 H275 H -0.01119 -0.00875 -0.08339
 H276 H -0.04602 0.05559 0.02281
 H277 H -0.08278 0.07288 -0.16266
 H278 H -0.05192 0.03005 -0.12603
 C279 C -0.10731 0.59269 0.40485
 C280 C -0.11727 0.63178 0.41877
 C281 C -0.14210 0.65596 0.39610
 C282 C -0.15611 0.64270 0.35841
 C283 C -0.14514 0.60438 0.34417
 C284 C -0.12131 0.57962 0.36708
 C285 C -0.08118 0.56757 0.43020
 C286 C -0.07300 0.52654 0.42183
 C287 C -0.04765 0.50485 0.44557
 C288 C -0.02818 0.52376 0.47722
 C289 C -0.03888 0.56364 0.48797
 C290 C -0.06501 0.58544 0.46484
 C291 C -0.10168 0.64696 0.45464
 C292 C -0.07557 0.62465 0.47670
 H293 H -0.10910 0.67702 0.46526
 H294 H -0.06368 0.63818 0.50367
 H295 H -0.15029 0.68527 0.40785
 H296 H -0.15434 0.59369 0.31470
 H297 H -0.04265 0.47304 0.43866
 H298 H -0.02770 0.57765 0.51498
 H299 H -0.11346 0.55086 0.35416
 H300 H -0.08634 0.51041 0.39755
 C301 C 0.38865 0.08928 0.40134
 C302 C 0.37279 0.12383 0.41933
 C303 C 0.34895 0.14898 0.39629
 C304 C 0.34103 0.14072 0.35508
 C305 C 0.35693 0.10653 0.33736
 C306 C 0.38038 0.08115 0.36006
 C307 C 0.41460 0.06379 0.42663
 C308 C 0.43043 0.02778 0.41231
 C309 C 0.45623 0.00665 0.43591
 C310 C 0.46818 0.02143 0.47401
 C311 C 0.44912 0.05453 0.49034
 C312 C 0.42326 0.07625 0.46676
 C313 C 0.38137 0.13354 0.45991
 C314 C 0.40626 0.11044 0.48301
 H315 H 0.36918 0.15992 0.47377
 H316 H 0.41255 0.11974 0.51396
 H317 H 0.33665 0.17514 0.41043
 H318 H 0.35191 0.09988 0.30543
 H319 H 0.46684 -0.02147 0.42394
 H320 H 0.45516 0.06413 0.52124
 H321 H 0.39226 0.05587 0.34441
 H322 H 0.42318 0.01521 0.38308
 C323 C 0.40022 0.59252 -0.10109
 C324 C 0.38458 0.62701 -0.08271
 C325 C 0.35999 0.65185 -0.10502
 C326 C 0.35050 0.64283 -0.14559
 C327 C 0.36601 0.60864 -0.16371
 C328 C 0.39059 0.58386 -0.14191
 C329 C 0.42655 0.56697 -0.07631
 C330 C 0.44302 0.53161 -0.09137
 C331 C 0.46778 0.50924 -0.06734
 C332 C 0.47789 0.52192 -0.02783
 C333 C 0.45942 0.55558 -0.01175
 C334 C 0.43469 0.57851 -0.03575
 C335 C 0.39358 0.63656 -0.04223
 C336 C 0.41807 0.61282 -0.01925
 H337 H 0.38157 0.66289 -0.02809
 H338 H 0.42421 0.62159 0.01190
 H339 H 0.34791 0.67802 -0.09064
 H340 H 0.35955 0.60138 -0.19518
 H341 H 0.47856 0.48146 -0.07984
 H342 H 0.46459 0.56415 0.01967
 H343 H 0.40181 0.55832 -0.15773
 H344 H 0.43692 0.52033 -0.12145
 C345 C -0.09883 -0.10218 0.09800
 C346 C -0.10472 -0.09105 0.13890
 C347 C -0.12842 -0.11358 0.16321
 C348 C -0.14631 -0.14813 0.14793
 C349 C -0.13936 -0.15946 0.10738
 C350 C -0.11618 -0.13693 0.08289
 C351 C -0.07381 -0.07686 0.07286
 C352 C -0.06840 -0.08326 0.03097
 C353 C -0.04433 -0.05935 0.00915
 C354 C -0.02381 -0.02906 0.02843
 C355 C -0.03119 -0.02072 0.06967
 C356 C -0.05560 -0.04440 0.09184
 C357 C -0.08651 -0.05784 0.15561
 C358 C -0.06224 -0.03530 0.13273
 H359 H -0.09082 -0.04937 0.18704
 H360 H -0.04857 -0.01018 0.14726
 H361 H -0.13144 -0.10490 0.19476
 H362 H -0.15291 -0.18487 0.09341
 H363 H -0.04123 -0.06493 -0.02317
 H364 H -0.01876 0.00482 0.08469
 H365 H -0.11224 -0.14735 0.05219
 H366 H -0.08276 -0.10623 0.01430
 C367 C -0.09654 0.39162 0.59742
 C368 C -0.11601 0.41054 0.62864
 C369 C -0.13985 0.38755 0.65224
 C370 C -0.14482 0.34571 0.64527
 C371 C -0.12537 0.32694 0.61451
 C372 C -0.10148 0.34946 0.59095
 C373 C -0.07156 0.41741 0.57271
 C374 C -0.05164 0.40192 0.54032
 C375 C -0.02873 0.42718 0.51822
 C376 C -0.02423 0.46865 0.52822
 C377 C -0.04542 0.48450 0.55942
 C378 C -0.06843 0.45937 0.58187
 C379 C -0.11173 0.45232 0.63607
 C380 C -0.08843 0.47620 0.61320
 H381 H -0.12664 0.46682 0.65995
 H382 H -0.08607 0.50839 0.62016
 H383 H -0.15506 0.40244 0.67566
 H384 H -0.12834 0.29455 0.60893
 H385 H -0.01521 0.41401 0.49266
 H386 H -0.04376 0.51676 0.56637
 H387 H -0.08717 0.33322 0.56796
 H388 H -0.05366 0.37050 0.53109
 C389 C 0.40101 -0.09785 0.60371
 C390 C 0.38674 -0.13394 0.58684
 C391 C 0.36200 -0.15730 0.60888
 C392 C 0.35076 -0.14500 0.64750
 C393 C 0.36482 -0.10917 0.66405
 C394 C 0.38966 -0.08595 0.64262
 C395 C 0.42718 -0.07364 0.57906
 C396 C 0.44273 -0.03728 0.59295
 C397 C 0.46601 -0.01508 0.56838
 C398 C 0.47543 -0.02876 0.52937
 C399 C 0.45932 -0.06478 0.51517
 C400 C 0.43593 -0.08744 0.53973
 C401 C 0.39694 -0.14627 0.54794
 C402 C 0.42085 -0.12342 0.52481
 H403 H 0.38601 -0.17387 0.53498
 H404 H 0.42759 -0.13407 0.49471
 H405 H 0.35098 -0.18472 0.59565
 H406 H 0.35691 -0.09934 0.69403
 H407 H 0.47579 0.01366 0.57981
 H408 H 0.46457 -0.07487 0.48446
 H409 H 0.39951 -0.05883 0.65712
 H410 H 0.43682 -0.02490 0.62239
 C411 C 0.40164 0.39816 0.09480
 C412 C 0.39487 0.41033 0.13526
 C413 C 0.37101 0.38808 0.15958
 C414 C 0.35304 0.35396 0.14408
 C415 C 0.35957 0.34226 0.10379
 C416 C 0.38357 0.36385 0.07953
 C417 C 0.42763 0.42253 0.07003
 C418 C 0.43647 0.41279 0.02970
 C419 C 0.46098 0.43625 0.00806
 C420 C 0.47830 0.46975 0.02599
 C421 C 0.46794 0.48085 0.06557
 C422 C 0.44368 0.45708 0.08787
 C423 C 0.41179 0.44477 0.15119
 C424 C 0.43544 0.46781 0.12791
 H425 H 0.40653 0.45421 0.18212
 H426 H 0.44770 0.49428 0.14163
 H427 H 0.36672 0.39721 0.19081
 H428 H 0.34566 0.31662 0.09063
 H429 H 0.46656 0.42803 -0.02312
 H430 H 0.47839 0.50830 0.07918
 H431 H 0.38731 0.35329 0.04886
 H432 H 0.42476 0.38727 0.01414
 C433 C 0.09875 0.09881 0.10093
 C434 C 0.10271 0.14034 0.08841
 C435 C 0.12558 0.16606 0.11047
 C436 C 0.14417 0.15128 0.14553
 C437 C 0.13982 0.11031 0.15818
 C438 C 0.11749 0.08437 0.13625
 C439 C 0.07436 0.07227 0.07631
 C440 C 0.07041 0.03004 0.08451
 C441 C 0.04720 0.00674 0.06085
 C442 C 0.02622 0.02472 0.02891
 C443 C 0.03162 0.06661 0.01935
 C444 C 0.05517 0.09028 0.04274
 C445 C 0.08349 0.15607 0.05431
 C446 C 0.06002 0.13169 0.03219
 H447 H 0.08638 0.18788 0.04477
 H448 H 0.04555 0.14547 0.00626
 H449 H 0.12835 0.19788 0.10086
 H450 H 0.15405 0.09813 0.18501
 H451 H 0.04537 -0.02580 0.06769
 H452 H 0.01838 0.08100 -0.00701
 H453 H 0.11513 0.05328 0.14770
 H454 H 0.08531 0.01422 0.10867
 C455 C 0.10015 0.59352 0.60230
 C456 C 0.11250 0.63070 0.58486
 C457 C 0.13607 0.65537 0.60722
 C458 C 0.14875 0.64284 0.64641
 C459 C 0.13786 0.60476 0.66245
 C460 C 0.11378 0.58059 0.64097
 C461 C 0.07360 0.56913 0.57843
 C462 C 0.05725 0.53391 0.59466
 C463 C 0.03289 0.51198 0.57125
 C464 C 0.02340 0.52463 0.53086
 C465 C 0.04068 0.55926 0.51423
 C466 C 0.06443 0.58229 0.53803
 C467 C 0.10156 0.64276 0.54508
 C468 C 0.07868 0.61859 0.52183
 H469 H 0.11128 0.67101 0.53144
 H470 H 0.07147 0.62894 0.49097
 H471 H 0.14410 0.68460 0.59417
 H472 H 0.14813 0.59326 0.69175
 H473 H 0.02241 0.48419 0.58485
 H474 H 0.03524 0.56852 0.48262
 H475 H 0.10658 0.55169 0.65502
 H476 H 0.06285 0.52265 0.62543
 C477 C 0.59453 0.10331 0.59379
 C478 C 0.61871 0.08326 0.62139
 C479 C 0.64282 0.10617 0.64475
 C480 C 0.64160 0.14935 0.64369
 C481 C 0.61582 0.16896 0.61795
 C482 C 0.59302 0.14638 0.59297
 C483 C 0.57040 0.07769 0.56804
 C484 C 0.55007 0.09386 0.53474
 C485 C 0.52739 0.06874 0.51218
 C486 C 0.52266 0.02722 0.52363
 C487 C 0.54511 0.01063 0.55509
 C488 C 0.56926 0.03514 0.57651
 C489 C 0.61791 0.04053 0.62648
 C490 C 0.59287 0.01713 0.60553
 H491 H 0.63612 0.02508 0.64801
 H492 H 0.59253 -0.01567 0.61148
 H493 H 0.66241 0.08993 0.66381
 H494 H 0.61264 0.20192 0.61732
 H495 H 0.51380 0.08215 0.48558
 H496 H 0.54385 -0.02175 0.56288
 H497 H 0.57364 0.16305 0.57409
 H498 H 0.55217 0.12557 0.52500
 C499 C 0.60138 0.59635 0.09904
 C500 C 0.60767 0.63695 0.08495
 C501 C 0.62977 0.66285 0.10780
 C502 C 0.64582 0.64902 0.14485
 C503 C 0.63957 0.60873 0.15864
 C504 C 0.61766 0.58277 0.13622
 C505 C 0.57730 0.56984 0.07396
 C506 C 0.57008 0.52878 0.08470
 C507 C 0.54673 0.50576 0.06095
 C508 C 0.52882 0.52305 0.02630
 C509 C 0.53827 0.56312 0.01378
 C510 C 0.56153 0.58671 0.03762
 C511 C 0.59166 0.65158 0.04830
 C512 C 0.56910 0.62701 0.02517
 H513 H 0.59649 0.68262 0.03742
 H514 H 0.55720 0.63990 -0.00281
 H515 H 0.63398 0.69407 0.09705
 H516 H 0.65202 0.59699 0.18677
 H517 H 0.54231 0.47413 0.07004
 H518 H 0.52774 0.57618 -0.01477
 H519 H 0.61381 0.55228 0.14865
 H520 H 0.58225 0.51368 0.11120
   
