data_POSCAR
  _audit_creation_date              2014-09-24
  _audit_creation_method            'ToBaCCo'
  _symmetry_space_group_name_H-M    'P1'
  _symmetry_Int_Tables_number       1
  _symmetry_cell_setting            triclinic
  loop_
  _symmetry_equiv_pos_as_xyz
 x,y,z
_cell_length_a 27.7826
_cell_length_b 27.7344
_cell_length_c 48.0987
_cell_angle_alpha 89.897000
_cell_angle_beta 91.907600
_cell_angle_gamma 89.965100
loop_
  _atom_site_label
  _atom_site_type_symbol
  _atom_site_fract_x
  _atom_site_fract_y
  _atom_site_fract_z
C1 C -0.00176 0.39645 1.02564
 C2 C -0.00048 0.37184 1.00035
 C3 C 0.00084 0.39670 0.97513
 C4 C 0.00106 0.44763 0.97487
 C5 C -0.00039 0.47314 1.00039
 C6 C -0.00190 0.44749 1.02592
 C7 C -0.00349 0.47354 1.05095
 C8 C -0.00365 0.52373 1.05092
 C9 C -0.00208 0.54990 1.02587
 C10 C -0.00034 0.52437 1.00036
 C11 C 0.00271 0.47367 0.94983
 C12 C 0.00296 0.52385 0.94979
 C13 C 0.00144 0.54997 0.97482
 C14 C 0.00164 0.60099 0.97506
 C15 C -0.00024 0.62570 1.00030
 C16 C -0.00218 0.60093 1.02556
 H17 H -0.00470 0.45526 1.07082
 H18 H -0.00496 0.54192 1.07078
 H19 H 0.00388 0.45540 0.92999
 H20 H 0.00430 0.54209 0.92991
 H21 H -0.00051 0.33267 1.00024
 H22 H -0.00020 0.66490 1.00027
 C23 C 0.40091 0.00646 0.52635
 C24 C 0.37427 0.00675 0.50122
 C25 C 0.39699 0.00709 0.47576
 C26 C 0.44780 0.00701 0.47514
 C27 C 0.47530 0.00691 0.50055
 C28 C 0.45177 0.00672 0.52629
 C29 C 0.47967 0.00675 0.55121
 C30 C 0.52977 0.00696 0.55089
 C31 C 0.55390 0.00699 0.52562
 C32 C 0.52638 0.00691 0.50021
 C33 C 0.47181 0.00698 0.44987
 C34 C 0.52191 0.00677 0.44953
 C35 C 0.54986 0.00673 0.47445
 C36 C 0.60070 0.00646 0.47434
 C37 C 0.62743 0.00672 0.49944
 C38 C 0.60480 0.00706 0.52496
 H39 H 0.46294 0.00666 0.57123
 H40 H 0.54951 0.00700 0.57069
 H41 H 0.45201 0.00704 0.43010
 H42 H 0.53860 0.00668 0.42950
 H43 H 0.33521 0.00661 0.50147
 H44 H 0.66650 0.00658 0.49905
 C45 C 0.08472 0.00209 0.26260
 H46 H 0.08791 0.00184 0.24024
 C47 C 0.12609 0.00418 0.27993
 H48 H 0.16132 0.00533 0.27095
 C49 C 0.03502 0.00137 0.30175
 H50 H -0.00043 0.00107 0.31025
 C51 C 0.07536 0.00348 0.31976
 H52 H 0.07077 0.00421 0.34204
 N53 N 0.04033 -0.00004 0.27372
 C54 C -0.05370 -0.06911 0.21108
 H55 H -0.08337 -0.04380 0.21045
 C56 C -0.05494 -0.10942 0.19373
 H57 H -0.08558 -0.11519 0.17961
 C58 C 0.02297 -0.09209 0.22984
 H59 H 0.05317 -0.08539 0.24400
 C60 C 0.02318 -0.13288 0.21283
 H61 H 0.05376 -0.15715 0.21373
 Zn62 Zn -0.01464 -0.00299 0.24933
 N63 N -0.01464 -0.06060 0.22819
 C64 C -0.01204 0.04502 0.19730
 N65 N -0.01276 0.05129 0.22535
 C66 C -0.01047 0.09613 0.23681
 C67 C -0.00883 0.13700 0.21978
 C68 C -0.01040 0.08482 0.17958
 C69 C -0.07911 -0.04146 0.28673
 C70 C -0.11866 -0.04249 0.30388
 C71 C -0.14315 0.03522 0.28550
 C72 C -0.10308 0.03482 0.26867
 N73 N -0.07143 -0.00269 0.27008
 H74 H -0.01244 0.00923 0.18855
 H75 H -0.01014 0.10009 0.25918
 H76 H -0.00743 0.17258 0.22901
 H77 H -0.01013 0.07946 0.15728
 H78 H -0.05368 -0.07104 0.28719
 H79 H -0.12374 -0.07289 0.31765
 H80 H -0.16752 0.06574 0.28482
 H81 H -0.09703 0.06478 0.25487
 C82 C -0.01587 -0.14124 0.19437
 C83 C 0.12128 0.00461 0.30878
 C84 C -0.15061 -0.00351 0.30350
 C85 C -0.00901 0.13119 0.19090
 C86 C 0.01007 0.09585 0.76277
 H87 H 0.00985 0.09990 0.74039
 C88 C 0.00831 0.13664 0.77976
 H89 H 0.00692 0.17227 0.77050
 C90 C 0.01151 0.04457 0.80230
 H91 H 0.01191 0.00874 0.81108
 C92 C 0.00974 0.08429 0.81999
 H93 H 0.00937 0.07884 0.84230
 N94 N 0.01236 0.05096 0.77425
 C95 C 0.07913 -0.04156 0.71305
 H96 H 0.05374 -0.07113 0.71257
 C97 C 0.11882 -0.04254 0.69601
 H98 H 0.12402 -0.07289 0.68229
 C99 C 0.10293 0.03464 0.73111
 H100 H 0.09677 0.06455 0.74487
 C101 C 0.14312 0.03509 0.71439
 H102 H 0.16748 0.06558 0.71511
 Zn103 Zn 0.01443 -0.00324 0.75033
 N104 N 0.07131 -0.00284 0.72966
 C105 C -0.03508 0.00122 0.69786
 N106 N -0.04047 -0.00026 0.72588
 C107 C -0.08489 0.00183 0.73696
 C108 C -0.12623 0.00393 0.71959
 C109 C -0.07538 0.00334 0.67980
 C110 C 0.05351 -0.06942 0.78870
 C111 C 0.05475 -0.10972 0.80615
 C112 C -0.02331 -0.13316 0.78704
 C113 C -0.02311 -0.09238 0.76994
 N114 N 0.01447 -0.06090 0.77155
 H115 H 0.00040 0.00094 0.68939
 H116 H -0.08814 0.00153 0.75931
 H117 H -0.16148 0.00505 0.72854
 H118 H -0.07074 0.00411 0.65753
 H119 H 0.08315 -0.04412 0.78930
 H120 H 0.08536 -0.11549 0.82031
 H121 H -0.05388 -0.15741 0.78618
 H122 H -0.05329 -0.08567 0.75574
 C123 C 0.15075 -0.00359 0.69644
 C124 C 0.00836 0.13071 0.80865
 C125 C 0.01570 -0.14152 0.80556
 C126 C -0.12134 0.00443 0.69075
 C127 C -0.00424 -0.37229 0.04934
 C128 C -0.00612 -0.34749 0.06984
 C129 C -0.00838 -0.31639 0.09367
 C130 C -0.05280 -0.29798 0.10166
 C131 C -0.05469 -0.26481 0.12347
 C132 C -0.01216 -0.24992 0.13738
 C133 C 0.03218 -0.26904 0.12974
 C134 C 0.03406 -0.30221 0.10793
 C135 C -0.01372 -0.21294 0.15827
 C136 C -0.01483 -0.18084 0.17511
 H137 H -0.08581 -0.30848 0.09067
 H138 H -0.08913 -0.25003 0.12909
 H139 H 0.06531 -0.25756 0.14024
 H140 H 0.06863 -0.31601 0.10182
 C141 C -0.00273 0.36949 0.04945
 C142 C -0.00347 0.34434 0.06990
 C143 C -0.00425 0.31259 0.09357
 C144 C -0.04830 0.29697 0.10371
 C145 C -0.04913 0.26276 0.12509
 C146 C -0.00590 0.24404 0.13642
 C147 C 0.03817 0.26045 0.12670
 C148 C 0.03900 0.29465 0.10532
 C149 C -0.00684 0.20568 0.15658
 C150 C -0.00775 0.17234 0.17267
 H151 H -0.08196 0.31035 0.09465
 H152 H -0.08341 0.25008 0.13232
 H153 H 0.07180 0.24597 0.13518
 H154 H 0.07325 0.30623 0.09751
 C155 C 0.37452 0.00554 0.55173
 C156 C 0.35106 0.00455 0.57236
 C157 C 0.32140 0.00318 0.59631
 C158 C 0.30679 -0.04122 0.60711
 C159 C 0.27473 -0.04263 0.62891
 C160 C 0.25716 0.00036 0.64000
 C161 C 0.27254 0.04477 0.62958
 C162 C 0.30460 0.04618 0.60777
 C163 C 0.22108 -0.00111 0.66076
 C164 C 0.18964 -0.00230 0.67743
 H165 H 0.31932 -0.07468 0.59828
 H166 H 0.26284 -0.07716 0.63668
 H167 H 0.25894 0.07822 0.63787
 H168 H 0.31542 0.08070 0.59946
 C169 C -0.36652 0.00736 0.54862
 C170 C -0.33999 0.00761 0.56898
 C171 C -0.30678 0.00785 0.59258
 C172 C -0.29324 -0.03561 0.60552
 C173 C -0.25796 -0.03583 0.62696
 C174 C -0.23609 0.00741 0.63554
 C175 C -0.25035 0.05098 0.62299
 C176 C -0.28562 0.05120 0.60155
 C177 C -0.19694 0.00668 0.65589
 C178 C -0.16304 0.00581 0.67220
 H179 H -0.30915 -0.06938 0.59864
 H180 H -0.24699 -0.06977 0.63640
 H181 H -0.23345 0.08458 0.62933
 H182 H -0.29561 0.08497 0.59156
 C183 C 0.00376 -0.37219 0.95125
 C184 C 0.00569 -0.34739 0.93070
 C185 C 0.00801 -0.31632 0.90679
 C186 C -0.03438 -0.30226 0.89240
 C187 C -0.03245 -0.26916 0.87049
 C188 C 0.01189 -0.25000 0.86288
 C189 C 0.05438 -0.26477 0.87694
 C190 C 0.05244 -0.29786 0.89885
 C191 C 0.01349 -0.21310 0.84187
 C192 C 0.01463 -0.18106 0.82493
 H193 H -0.06895 -0.31609 0.89848
 H194 H -0.06555 -0.25777 0.85987
 H195 H 0.08882 -0.24996 0.87135
 H196 H 0.08541 -0.30828 0.90994
 C197 C 0.00184 0.36836 0.94997
 C198 C 0.00255 0.34325 0.92955
 C199 C 0.00332 0.31158 0.90591
 C200 C 0.04737 0.29626 0.89563
 C201 C 0.04821 0.26217 0.87426
 C202 C 0.00501 0.24327 0.86308
 C203 C -0.03907 0.25937 0.87294
 C204 C -0.03991 0.29346 0.89432
 C205 C 0.00602 0.20503 0.84292
 C206 C 0.00699 0.17177 0.82685
 H207 H 0.08102 0.30979 0.90458
 H208 H 0.08251 0.24973 0.86692
 H209 H -0.07267 0.24474 0.86459
 H210 H -0.07416 0.30481 0.90224
 C211 C -0.37300 0.00553 0.44893
 C212 C -0.34967 0.00455 0.42825
 C213 C -0.32020 0.00318 0.40423
 C214 C -0.30369 0.04618 0.39256
 C215 C -0.27186 0.04479 0.37065
 C216 C -0.25642 0.00038 0.36031
 C217 C -0.27369 -0.04261 0.37161
 C218 C -0.30552 -0.04122 0.39352
 C219 C -0.22056 -0.00107 0.33942
 C220 C -0.18931 -0.00224 0.32264
 H221 H -0.31457 0.08070 0.40079
 H222 H -0.25849 0.07825 0.36219
 H223 H -0.26174 -0.07715 0.36390
 H224 H -0.31782 -0.07469 0.40250
 C225 C 0.36670 0.00742 0.45075
 C226 C 0.34011 0.00768 0.43042
 C227 C 0.30684 0.00793 0.40685
 C228 C 0.29331 -0.03553 0.39401
 C229 C 0.25801 -0.03572 0.37258
 C230 C 0.23611 0.00753 0.36391
 C231 C 0.25035 0.05110 0.37637
 C232 C 0.28565 0.05129 0.39780
 C233 C 0.19694 0.00683 0.34358
 C234 C 0.16301 0.00598 0.32729
 H235 H 0.30925 -0.06930 0.40096
 H236 H 0.24705 -0.06965 0.36322
 H237 H 0.23343 0.08471 0.36996
 H238 H 0.29563 0.08506 0.40770
   
