data_POSCAR
  _audit_creation_date              2014-09-24
  _audit_creation_method            'ToBaCCo'
  _symmetry_space_group_name_H-M    'P1'
  _symmetry_Int_Tables_number       1
  _symmetry_cell_setting            triclinic
  loop_
  _symmetry_equiv_pos_as_xyz
 x,y,z
_cell_length_a 68.9066
_cell_length_b 69.1181
_cell_length_c 20.9923
_cell_angle_alpha 90.163000
_cell_angle_beta 89.864700
_cell_angle_gamma 119.912000
loop_
  _atom_site_label
  _atom_site_type_symbol
  _atom_site_fract_x
  _atom_site_fract_y
  _atom_site_fract_z
C1 C 0.22383 0.48212 0.47046
 C2 C 0.22430 0.48116 0.53852
 C3 C 0.24124 0.47848 0.56780
 C4 C 0.25923 0.47928 0.53321
 C5 C 0.25961 0.48237 0.46605
 C6 C 0.24205 0.48347 0.43624
 H7 H 0.24250 0.48476 0.38470
 H8 H 0.24109 0.47714 0.61923
 C9 C 0.51147 -0.26095 0.46604
 C10 C 0.51243 -0.26055 0.53387
 C11 C 0.51242 -0.24289 0.56711
 C12 C 0.51155 -0.22537 0.53561
 C13 C 0.51268 -0.22474 0.46779
 C14 C 0.51260 -0.24245 0.43460
 H15 H 0.51291 -0.24191 0.38298
 H16 H 0.51259 -0.24319 0.61873
 C17 C 1.25817 0.77609 0.46419
 C18 C 1.25764 0.77622 0.53215
 C19 C 1.23976 0.75848 0.56440
 C20 C 1.22200 0.74075 0.53177
 C21 C 1.22236 0.74076 0.46423
 C22 C 1.23991 0.75864 0.43174
 H23 H 1.23998 0.75799 0.38012
 H24 H 1.23925 0.75898 0.61597
 C25 C 0.77732 0.51848 0.46683
 C26 C 0.77695 0.51600 0.53436
 C27 C 0.75888 0.51530 0.56840
 C28 C 0.74251 0.51870 0.53869
 C29 C 0.74357 0.52175 0.47161
 C30 C 0.76106 0.52187 0.43715
 H31 H 0.76128 0.52328 0.38565
 H32 H 0.75821 0.51341 0.61971
 C33 C 0.48816 0.26277 0.47099
 C34 C 0.48790 0.26227 0.53884
 C35 C 0.48523 0.24295 0.56955
 C36 C 0.48468 0.22495 0.53583
 C37 C 0.48688 0.22673 0.46819
 C38 C 0.48802 0.24518 0.43727
 H39 H 0.48863 0.24572 0.38561
 H40 H 0.48440 0.24231 0.62109
 C41 C 0.74202 0.22092 0.46525
 C42 C 0.74227 0.22073 0.53278
 C43 C 0.76026 0.23853 0.56502
 C44 C 0.77814 0.25645 0.53226
 C45 C 0.77739 0.25620 0.46426
 C46 C 0.75973 0.23833 0.43235
 H47 H 0.75927 0.23851 0.38068
 H48 H 0.76044 0.23805 0.61657
 N49 N 0.97583 0.51961 0.06855
 N50 N 0.95912 0.52354 0.07739
 N51 N 1.02275 0.52974 0.11477
 N52 N 1.03924 0.54060 0.15566
 N53 N 1.02289 0.54335 0.07101
 N54 N 1.03944 0.56387 0.08102
 N55 N 0.97558 0.50591 0.11214
 N56 N 0.95861 0.50002 0.15166
 C57 C 0.94851 0.51113 0.12925
 C58 C 1.04949 0.56184 0.13391
 N59 N 1.02388 0.47539 0.06909
 N60 N 1.04005 0.47087 0.08023
 N61 N 0.97613 0.46460 0.11101
 N62 N 0.95907 0.45342 0.14991
 N63 N 0.97674 0.45136 0.06706
 N64 N 0.96012 0.43072 0.07506
 N65 N 1.02310 0.48819 0.11420
 N66 N 1.03856 0.49252 0.15769
 Mn67 Mn 0.99938 0.49712 0.11373
 C68 C 1.04909 0.48176 0.13550
 C69 C 0.94926 0.43235 0.12685
 N70 N 1.02383 0.54399 -0.06629
 N71 N 1.03971 0.56484 -0.07628
 N72 N 0.97714 0.50697 -0.11326
 N73 N 0.96119 0.50197 -0.15554
 N74 N 0.97659 0.52004 -0.06862
 N75 N 0.96004 0.52409 -0.07893
 N76 N 1.02400 0.53086 -0.11134
 N77 N 1.03977 0.54241 -0.15362
 Mn78 Mn 0.99979 0.53199 0.00117
 C79 C 1.04954 0.56352 -0.13076
 C80 C 0.95059 0.51264 -0.13324
 N81 N 0.97757 0.45200 -0.07012
 N82 N 0.96134 0.43135 -0.08067
 N83 N 1.02479 0.48960 -0.11185
 N84 N 1.04209 0.49615 -0.15041
 N85 N 1.02478 0.47604 -0.06813
 N86 N 1.04211 0.47299 -0.07578
 N87 N 0.97775 0.46550 -0.11430
 N88 N 0.96178 0.45437 -0.15648
 Mn89 Mn 1.00076 0.46347 -0.00056
 Mn90 Mn 1.00091 0.49821 -0.11335
 Cl91 Cl 1.00022 0.49770 0.00026
 C92 C 0.95164 0.43314 -0.13462
 C93 C 1.05271 0.48566 -0.12732
 N94 N 0.48045 0.45573 0.06921
 N95 N 0.47667 0.43530 0.07969
 N96 N 0.46798 0.49130 0.11165
 N97 N 0.45639 0.49687 0.14998
 N98 N 0.45509 0.47753 0.06713
 N99 N 0.43423 0.47323 0.07429
 N100 N 0.49294 0.46933 0.11458
 N101 N 0.49768 0.45847 0.15779
 C102 C 0.48759 0.43734 0.13499
 C103 C 0.43541 0.48548 0.12619
 N104 N 0.52179 0.54761 0.07091
 N105 N 0.52443 0.56771 0.07997
 N106 N 0.53376 0.51199 0.11639
 N107 N 0.54493 0.50691 0.15760
 N108 N 0.54734 0.52605 0.07346
 N109 N 0.56818 0.53093 0.08438
 N110 N 0.50846 0.53368 0.11436
 N111 N 0.50166 0.54387 0.15424
 Mn112 Mn 0.50081 0.50157 0.11489
 C113 C 0.51171 0.56503 0.13210
 C114 C 0.56634 0.51881 0.13695
 N115 N 0.45641 0.47779 -0.07040
 N116 N 0.43552 0.47250 -0.08217
 N117 N 0.49526 0.46976 -0.11087
 N118 N 0.50201 0.45940 -0.15028
 N119 N 0.48167 0.45592 -0.06765
 N120 N 0.47884 0.43573 -0.07635
 N121 N 0.46995 0.49140 -0.11420
 N122 N 0.45861 0.49562 -0.15723
 Mn123 Mn 0.46816 0.46650 -0.00045
 C124 C 0.43720 0.48382 -0.13634
 C125 C 0.49168 0.43823 -0.12802
 N126 N 0.54868 0.52649 -0.06414
 N127 N 0.56978 0.53183 -0.07247
 N128 N 0.51079 0.53418 -0.11197
 N129 N 0.50604 0.54498 -0.15537
 N130 N 0.52301 0.54780 -0.06622
 N131 N 0.52663 0.56816 -0.07673
 N132 N 0.53590 0.51224 -0.10794
 N133 N 0.54784 0.50715 -0.14651
 Mn134 Mn 0.53543 0.53724 0.00353
 Mn135 Mn 0.50298 0.50190 -0.11195
 Cl136 Cl 0.50184 0.50180 0.00147
 C137 C 0.56891 0.51950 -0.12378
 C138 C 0.51588 0.56609 -0.13236
 N139 N 0.45242 -0.02339 0.07257
 N140 N 0.43201 -0.04028 0.08232
 N141 N 0.48996 0.02377 0.11461
 N142 N 0.49635 0.04076 0.15411
 N143 N 0.47602 0.02365 0.07191
 N144 N 0.47244 0.04052 0.08133
 N145 N 0.46630 -0.02318 0.11568
 N146 N 0.45576 -0.03984 0.15601
 C147 C 0.43441 -0.05036 0.13457
 C148 C 0.48528 0.05103 0.13273
 N149 N 0.54467 0.02312 0.06662
 N150 N 0.56541 0.03958 0.07510
 N151 N 0.50802 -0.02335 0.11273
 N152 N 0.50400 -0.03880 0.15573
 N153 N 0.52065 -0.02395 0.06674
 N154 N 0.52531 -0.04006 0.07670
 N155 N 0.53146 0.02343 0.11130
 N156 N 0.54276 0.04007 0.15128
 Mn157 Mn 0.49893 0.00018 0.11423
 C158 C 0.56386 0.05000 0.12804
 C159 C 0.51471 -0.04920 0.13224
 N160 N 0.47505 0.02347 -0.06537
 N161 N 0.47031 0.03952 -0.07544
 N162 N 0.46440 -0.02343 -0.11070
 N163 N 0.45273 -0.03902 -0.15331
 N164 N 0.45134 -0.02364 -0.06472
 N165 N 0.43046 -0.03962 -0.07429
 N166 N 0.48817 0.02328 -0.11060
 N167 N 0.49251 0.03898 -0.15294
 Mn168 Mn 0.46345 0.00000 0.00364
 C169 C 0.48142 0.04908 -0.13010
 C170 C 0.43167 -0.04909 -0.12960
 N171 N 0.51958 -0.02420 -0.07054
 N172 N 0.52283 -0.04129 -0.07999
 N173 N 0.52994 0.02288 -0.11411
 N174 N 0.54107 0.03877 -0.15638
 N175 N 0.54357 0.02291 -0.07045
 N176 N 0.56428 0.03901 -0.08122
 N177 N 0.50593 -0.02397 -0.11367
 N178 N 0.49955 -0.04080 -0.15369
 Mn179 Mn 0.53235 -0.00055 -0.00197
 Mn180 Mn 0.49713 -0.00028 -0.11291
 Cl181 Cl 0.49796 -0.00016 0.00072
 C182 C 0.51020 -0.05145 -0.13206
 C183 C 0.56242 0.04878 -0.13485
 C184 C 1.17018 0.47661 0.36661
 N185 N 1.16755 0.47029 0.42854
 N186 N 1.18469 0.47173 0.46165
 C187 C 1.20534 0.48011 0.43506
 N188 N 1.20760 0.48568 0.37220
 N189 N 1.19043 0.48402 0.33871
 C190 C 1.15168 0.47632 0.33134
 N191 N 1.13431 0.47593 0.36313
 N192 N 1.11797 0.47669 0.33153
 C193 C 1.11827 0.47763 0.26695
 N194 N 1.13552 0.47779 0.23506
 N195 N 1.15202 0.47731 0.26672
 C196 C 1.10039 0.47879 0.23243
 N197 N 1.09681 0.47350 0.16958
 N198 N 1.08044 0.47444 0.13859
 C199 C 1.06728 0.48098 0.16916
 N200 N 1.07097 0.48643 0.23183
 N201 N 1.08716 0.48524 0.26299
 C202 C 0.50472 0.68606 0.35699
 N203 N 0.49770 0.68290 0.41843
 N204 N 0.49967 0.69989 0.45339
 C205 C 0.50891 0.72081 0.42877
 N206 N 0.51516 0.72368 0.36637
 N207 N 0.51328 0.70672 0.33135
 C208 C 0.50397 0.66764 0.31999
 N209 N 0.51359 0.67132 0.26145
 N210 N 0.51398 0.65482 0.22952
 C211 C 0.50470 0.63404 0.25495
 N212 N 0.49490 0.63033 0.31320
 N213 N 0.49459 0.64684 0.34520
 C214 C 0.50592 0.61601 0.22136
 N215 N 0.49589 0.59514 0.24629
 N216 N 0.49758 0.57888 0.21733
 C217 C 0.50945 0.58292 0.16251
 N218 N 0.51944 0.60377 0.13733
 N219 N 0.51769 0.62003 0.16624
 C220 C 0.31152 -0.17712 0.35756
 N221 N 0.31452 -0.18115 0.41888
 N222 N 0.29741 -0.19633 0.45308
 C223 C 0.27652 -0.20800 0.42778
 N224 N 0.27381 -0.20442 0.36551
 N225 N 0.29089 -0.18917 0.33126
 C226 C 0.33012 -0.15939 0.32131
 N227 N 0.32664 -0.15332 0.26285
 N228 N 0.34334 -0.13649 0.23145
 C229 C 0.36414 -0.12518 0.25734
 N230 N 0.36764 -0.13138 0.31555
 N231 N 0.35093 -0.14814 0.34701
 C232 C 0.38244 -0.10613 0.22408
 N233 N 0.40339 -0.09564 0.24911
 N234 N 0.41994 -0.07798 0.22017
 C235 C 0.41615 -0.07008 0.16529
 N236 N 0.39523 -0.08057 0.14007
 N237 N 0.37866 -0.09830 0.16894
 C238 C 0.82332 0.51246 0.34947
 N239 N 0.82089 0.53076 0.34584
 N240 N 0.80608 0.53257 0.38262
 C241 C 0.79324 0.51618 0.42457
 N242 N 0.79516 0.49757 0.42671
 N243 N 0.81004 0.49582 0.39017
 C244 C 0.84070 0.51113 0.31228
 N245 N 0.84555 0.49468 0.32379
 N246 N 0.86209 0.49407 0.29252
 C247 C 0.87432 0.50984 0.24837
 N248 N 0.86934 0.52617 0.23640
 N249 N 0.85287 0.52685 0.26794
 C250 C 0.89314 0.50967 0.21584
 N251 N 0.90408 0.52407 0.16747
 N252 N 0.92157 0.52436 0.13934
 C253 C 0.92884 0.51035 0.15885
 N254 N 0.91790 0.49593 0.20710
 N255 N 0.90032 0.49556 0.23499
 C256 C 0.48462 0.31214 0.36363
 N257 N 0.49701 0.30307 0.34292
 N258 N 0.49812 0.28741 0.37702
 C259 C 0.48684 0.28020 0.43304
 N260 N 0.47375 0.28869 0.45228
 N261 N 0.47290 0.30458 0.41871
 C262 C 0.48450 0.33036 0.32835
 N263 N 0.48006 0.34505 0.35897
 N264 N 0.48069 0.36209 0.32772
 C265 C 0.48548 0.36490 0.26452
 N266 N 0.48970 0.35009 0.23371
 N267 N 0.48940 0.33322 0.26519
 C268 C 0.48627 0.38378 0.23046
 N269 N 0.48277 0.38278 0.16661
 N270 N 0.48316 0.39985 0.13607
 C271 C 0.48744 0.41865 0.16816
 N272 N 0.49115 0.41973 0.23185
 N273 N 0.49043 0.40254 0.26253
 C274 C 0.68907 0.17320 0.35487
 N275 N 0.68502 0.18344 0.40424
 N276 N 0.70183 0.19867 0.43932
 C277 C 0.72327 0.20400 0.42675
 N278 N 0.72734 0.19408 0.37660
 N279 N 0.71054 0.17890 0.34144
 C280 C 0.67049 0.15588 0.31766
 N281 N 0.67449 0.14599 0.26727
 N282 N 0.65758 0.12976 0.23480
 C283 C 0.63607 0.12281 0.25169
 N284 N 0.63208 0.13276 0.30191
 N285 N 0.64897 0.14901 0.33425
 C286 C 0.61736 0.10436 0.21778
 N287 N 0.59607 0.09631 0.23875
 N288 N 0.57906 0.07910 0.20961
 C289 C 0.58270 0.06934 0.15833
 N290 N 0.60397 0.07744 0.13697
 N291 N 0.62102 0.09464 0.16628
 C292 C 0.47819 0.17071 -0.36194
 N293 N 0.47831 0.17052 -0.42646
 N294 N 0.48001 0.18775 -0.45922
 C295 C 0.48200 0.20611 -0.42935
 N296 N 0.48142 0.20596 -0.36443
 N297 N 0.47956 0.18866 -0.33141
 C298 C 0.47758 0.15217 -0.32630
 N299 N 0.47416 0.15029 -0.26231
 N300 N 0.47429 0.13372 -0.23027
 C301 C 0.47807 0.11858 -0.26103
 N302 N 0.48148 0.12050 -0.32494
 N303 N 0.48116 0.13692 -0.35699
 C304 C 0.47891 0.10063 -0.22619
 N305 N 0.48731 0.08876 -0.25488
 N306 N 0.48824 0.07247 -0.22385
 C307 C 0.48063 0.06733 -0.16314
 N308 N 0.47215 0.07913 -0.13432
 N309 N 0.47140 0.09558 -0.16523
 C310 C 0.69484 0.52174 -0.34862
 N311 N 0.70425 0.50945 -0.33040
 N312 N 0.71985 0.50877 -0.36635
 C313 C 0.72624 0.51982 -0.42287
 N314 N 0.71690 0.53230 -0.44043
 N315 N 0.70160 0.53333 -0.40396
 C316 C 0.67709 0.52186 -0.31037
 N317 N 0.67480 0.54025 -0.30819
 N318 N 0.65820 0.54008 -0.27497
 C319 C 0.64309 0.52138 -0.24379
 N320 N 0.64532 0.50296 -0.24625
 N321 N 0.66216 0.50326 -0.27847
 C322 C 0.62409 0.52076 -0.21040
 N323 N 0.60384 0.50180 -0.21022
 N324 N 0.58626 0.50141 -0.18237
 C325 C 0.58843 0.51984 -0.15265
 N326 N 0.60875 0.53873 -0.15205
 N327 N 0.62624 0.53925 -0.18098
 C328 C 0.83003 0.30667 -0.36354
 N329 N 0.83092 0.30643 -0.42795
 N330 N 0.81443 0.29014 -0.46116
 C331 C 0.79610 0.27349 -0.43199
 N332 N 0.79551 0.27365 -0.36708
 N333 N 0.81210 0.28986 -0.33353
 C334 C 0.84797 0.32527 -0.32777
 N335 N 0.84991 0.32415 -0.26368
 N336 N 0.86625 0.34125 -0.23195
 C337 C 0.88107 0.36013 -0.26311
 N338 N 0.87904 0.36124 -0.32707
 N339 N 0.86286 0.34410 -0.35881
 C340 C 0.89909 0.37913 -0.22877
 N341 N 0.91081 0.39929 -0.25773
 N342 N 0.92738 0.41654 -0.22737
 C343 C 0.93297 0.41423 -0.16710
 N344 N 0.92129 0.39408 -0.13805
 N345 N 0.90457 0.37685 -0.16824
 C346 C 0.50488 -0.17891 -0.35596
 N347 N 0.51330 -0.19113 -0.33003
 N348 N 0.51515 -0.20629 -0.36482
 C349 C 0.50902 -0.20962 -0.42727
 N350 N 0.49992 -0.19781 -0.45219
 N351 N 0.49797 -0.18272 -0.41745
 C352 C 0.50409 -0.16119 -0.31923
 N353 N 0.49463 -0.14983 -0.34464
 N354 N 0.49483 -0.13302 -0.31291
 C355 C 0.50461 -0.12687 -0.25471
 N356 N 0.51398 -0.13829 -0.22908
 N357 N 0.51371 -0.15518 -0.26075
 C358 C 0.50558 -0.10770 -0.22131
 N359 N 0.51733 -0.09984 -0.16629
 N360 N 0.51875 -0.08196 -0.13744
 C361 C 0.50844 -0.07136 -0.16258
 N362 N 0.49661 -0.07930 -0.21732
 N363 N 0.49524 -0.09710 -0.24622
 C364 C 0.30950 0.47589 -0.36747
 N365 N 0.31028 0.47758 -0.43180
 N366 N 0.29395 0.47822 -0.46370
 C367 C 0.27620 0.47748 -0.43310
 N368 N 0.27536 0.47539 -0.36846
 N369 N 0.29162 0.47459 -0.33632
 C370 C 0.32816 0.47636 -0.33243
 N371 N 0.32647 0.47170 -0.26917
 N372 N 0.34370 0.47268 -0.23753
 C373 C 0.36329 0.47855 -0.26790
 N374 N 0.36497 0.48322 -0.33109
 N375 N 0.34770 0.48208 -0.36278
 C376 C 0.38248 0.48003 -0.23319
 N377 N 0.40304 0.48968 -0.26081
 N378 N 0.42051 0.49106 -0.22967
 C379 C 0.41803 0.48270 -0.16991
 N380 N 0.39747 0.47301 -0.14225
 N381 N 0.38003 0.47179 -0.17324
 C382 C 1.16911 0.69084 -0.36099
 N383 N 1.16566 0.69512 -0.42165
 N384 N 1.18229 0.71115 -0.45526
 C385 C 1.20316 0.72323 -0.43019
 N386 N 1.20642 0.71918 -0.36891
 N387 N 1.18973 0.70333 -0.33492
 C388 C 1.15102 0.67243 -0.32533
 N389 N 1.15181 0.67146 -0.26083
 N390 N 1.13555 0.65438 -0.22898
 C391 C 1.11811 0.63753 -0.26060
 N392 N 1.11739 0.63849 -0.32505
 N393 N 1.13348 0.65569 -0.35679
 C394 C 1.10046 0.61834 -0.22619
 N395 N 1.08754 0.59878 -0.25718
 N396 N 1.07149 0.58126 -0.22640
 C397 C 1.06760 0.58275 -0.16369
 N398 N 1.08044 0.60233 -0.13264
 N399 N 1.09671 0.61979 -0.16327
 C400 C 0.82789 0.51504 -0.36330
 N401 N 0.80913 0.51209 -0.33349
 N402 N 0.79273 0.51223 -0.36661
 C403 C 0.79434 0.51539 -0.43088
 N404 N 0.81344 0.51878 -0.45985
 N405 N 0.82976 0.51842 -0.42708
 C406 C 0.84588 0.51446 -0.32767
 N407 N 0.84697 0.51633 -0.26318
 N408 N 0.86349 0.51593 -0.23130
 C409 C 0.87934 0.51342 -0.26277
 N410 N 0.87815 0.51143 -0.32716
 N411 N 0.86179 0.51205 -0.35904
 C412 C 0.89756 0.51291 -0.22821
 N413 N 0.91013 0.50543 -0.25759
 N414 N 0.92688 0.50515 -0.22692
 C415 C 0.93180 0.51255 -0.16596
 N416 N 0.91928 0.52009 -0.13649
 N417 N 0.90237 0.52016 -0.16700
 C418 C 0.49609 0.31549 -0.35054
 N419 N 0.50405 0.31881 -0.41102
 N420 N 0.50161 0.30172 -0.44638
 C421 C 0.49095 0.28055 -0.42319
 N422 N 0.48375 0.27747 -0.36164
 N423 N 0.48610 0.29454 -0.32622
 C424 C 0.49735 0.33412 -0.31344
 N425 N 0.48710 0.33054 -0.25586
 N426 N 0.48714 0.34729 -0.22412
 C427 C 0.49748 0.36823 -0.24877
 N428 N 0.50791 0.37183 -0.30603
 N429 N 0.50781 0.35508 -0.33783
 C430 C 0.49665 0.38654 -0.21562
 N431 N 0.50733 0.40746 -0.24033
 N432 N 0.50592 0.42396 -0.21189
 C433 C 0.49371 0.42013 -0.15783
 N434 N 0.48310 0.39925 -0.13286
 N435 N 0.48455 0.38274 -0.16125
 C436 C 0.69117 0.16859 -0.36082
 N437 N 0.69573 0.16496 -0.42110
 N438 N 0.71222 0.18132 -0.45419
 C439 C 0.72453 0.20211 -0.42905
 N440 N 0.72023 0.20555 -0.36805
 N441 N 0.70391 0.18911 -0.33452
 C442 C 0.67219 0.15079 -0.32595
 N443 N 0.67089 0.15144 -0.26149
 N444 N 0.65342 0.13533 -0.23039
 C445 C 0.63649 0.11820 -0.26274
 N446 N 0.63775 0.11765 -0.32718
 N447 N 0.65534 0.13358 -0.35816
 C448 C 0.61711 0.10051 -0.22891
 N449 N 0.59753 0.08765 -0.26012
 N450 N 0.57998 0.07139 -0.22984
 C451 C 0.58146 0.06722 -0.16746
 N452 N 0.60105 0.08002 -0.13624
 N453 N 0.61852 0.09648 -0.16631
 C454 C 1.18100 0.49026 -0.34510
 N455 N 1.18750 0.50077 -0.40211
 N456 N 1.20169 0.49808 -0.43918
 C457 C 1.20971 0.48450 -0.42136
 N458 N 1.20401 0.47487 -0.36274
 N459 N 1.18976 0.47751 -0.32563
 C460 C 1.16374 0.49160 -0.30735
 N461 N 1.15465 0.50386 -0.32854
 N462 N 1.13787 0.50390 -0.29706
 C463 C 1.12950 0.49162 -0.24326
 N464 N 1.13872 0.47951 -0.22164
 N465 N 1.15554 0.47949 -0.25315
 C466 C 1.11011 0.49071 -0.21108
 N467 N 1.10086 0.47769 -0.15890
 N468 N 1.08266 0.47620 -0.13166
 C469 C 1.07307 0.48764 -0.15575
 N470 N 1.08239 0.50073 -0.20764
 N471 N 1.10056 0.50222 -0.23483
 C472 C 0.51803 0.69130 -0.35856
 N473 N 0.50520 0.69986 -0.33767
 N474 N 0.50356 0.71523 -0.37168
 C475 C 0.51471 0.72265 -0.42778
 N476 N 0.52828 0.71473 -0.44716
 N477 N 0.52967 0.69913 -0.41366
 C478 C 0.51853 0.67320 -0.32368
 N479 N 0.52327 0.65878 -0.35463
 N480 N 0.52277 0.64172 -0.32383
 C481 C 0.51779 0.63862 -0.26077
 N482 N 0.51328 0.65317 -0.22962
 N483 N 0.51345 0.67006 -0.26066
 C484 C 0.51708 0.61970 -0.22714
 N485 N 0.52030 0.62050 -0.16319
 N486 N 0.51992 0.60339 -0.13292
 C487 C 0.51594 0.58475 -0.16539
 N488 N 0.51251 0.58387 -0.22920
 N489 N 0.51322 0.60110 -0.25961
 C490 C 0.30485 -0.17039 -0.35690
 N491 N 0.29723 -0.16649 -0.41217
 N492 N 0.28193 -0.18339 -0.44678
 C493 C 0.27416 -0.20485 -0.42841
 N494 N 0.28135 -0.20868 -0.37213
 N495 N 0.29641 -0.19177 -0.33701
 C496 C 0.32279 -0.15186 -0.32117
 N497 N 0.32581 -0.15389 -0.25816
 N498 N 0.34270 -0.13729 -0.22661
 C499 C 0.35737 -0.11823 -0.25725
 N500 N 0.35436 -0.11624 -0.32024
 N501 N 0.33729 -0.13269 -0.35153
 C502 C 0.37657 -0.10030 -0.22359
 N503 N 0.39537 -0.08611 -0.25622
 N504 N 0.41299 -0.06994 -0.22599
 C505 C 0.41234 -0.06717 -0.16218
 N506 N 0.39349 -0.08124 -0.12949
 N507 N 0.37596 -0.09765 -0.15962
 C508 C 0.51915 -0.17087 0.35923
 N509 N 0.50630 -0.19216 0.33834
 N510 N 0.50435 -0.20921 0.37276
 C511 C 0.51521 -0.20561 0.42929
 N512 N 0.52879 -0.18423 0.44875
 N513 N 0.53048 -0.16719 0.41483
 C514 C 0.51990 -0.15223 0.32391
 N515 N 0.52448 -0.13312 0.35466
 N516 N 0.52398 -0.11660 0.32356
 C517 C 0.51920 -0.11848 0.26039
 N518 N 0.51490 -0.13748 0.22941
 N519 N 0.51506 -0.15414 0.26075
 C520 C 0.51812 -0.10048 0.22675
 N521 N 0.52139 -0.09795 0.16280
 N522 N 0.52041 -0.08152 0.13255
 C523 C 0.51575 -0.06732 0.16508
 N524 N 0.51231 -0.06996 0.22888
 N525 N 0.51362 -0.08616 0.25925
 C526 C 0.31054 0.48671 0.34753
 N527 N 0.31453 0.50360 0.38826
 N528 N 0.29828 0.50236 0.42552
 C529 C 0.27753 0.48405 0.42393
 N530 N 0.27339 0.46737 0.38228
 N531 N 0.28963 0.46866 0.34483
 C532 C 0.32879 0.48755 0.30922
 N533 N 0.32470 0.47139 0.26563
 N534 N 0.34147 0.47164 0.23316
 C535 C 0.36293 0.48799 0.24339
 N536 N 0.36698 0.50419 0.28671
 N537 N 0.35022 0.50401 0.31891
 C538 C 0.38164 0.48772 0.21062
 N539 N 0.40299 0.50201 0.22896
 N540 N 0.42006 0.50132 0.20148
 C541 C 0.41643 0.48640 0.15442
 N542 N 0.39509 0.47221 0.13554
 N543 N 0.37797 0.47281 0.16335
 C544 C 1.17441 0.68734 0.35557
 N545 N 1.18022 0.70869 0.34099
 N546 N 1.19557 0.72567 0.37530
 C547 C 1.20556 0.72191 0.42569
 N548 N 1.20014 0.70059 0.43927
 N549 N 1.18476 0.68362 0.40507
 C550 C 1.15674 0.66856 0.31971
 N551 N 1.14961 0.64721 0.33784
 N552 N 1.13302 0.63017 0.30679
 C553 C 1.12298 0.63385 0.25640
 N554 N 1.13020 0.65519 0.23801
 N555 N 1.14675 0.67224 0.26916
 C556 C 1.10424 0.61507 0.22346
 N557 N 1.09465 0.61864 0.17174
 N558 N 1.07729 0.60164 0.14284
 C559 C 1.06888 0.58049 0.16477
 N560 N 1.07849 0.57691 0.21637
 N561 N 1.09587 0.59389 0.24516
 C562 C 0.49025 0.17881 0.35358
 N563 N 0.47310 0.18303 0.34717
 N564 N 0.47215 0.19843 0.38324
 C565 C 0.48826 0.21008 0.42721
 N566 N 0.50574 0.20631 0.43243
 N567 N 0.50663 0.19085 0.39653
 C568 C 0.49060 0.16092 0.31661
 N569 N 0.50606 0.15475 0.32916
 N570 N 0.50576 0.13782 0.29780
 C571 C 0.49004 0.12649 0.25257
 N572 N 0.47468 0.13278 0.23961
 N573 N 0.47492 0.14966 0.27118
 C574 C 0.48922 0.10728 0.21989
 N575 N 0.47455 0.09681 0.17158
 N576 N 0.47342 0.07899 0.14327
 C577 C 0.48684 0.07096 0.16252
 N578 N 0.50153 0.08144 0.21068
 N579 N 0.50273 0.09931 0.23878
 C580 C 0.69139 0.52033 0.36536
 N581 N 0.68695 0.50574 0.41377
 N582 N 0.70354 0.50625 0.44752
 C583 C 0.72519 0.52155 0.43464
 N584 N 0.72966 0.53591 0.38545
 N585 N 0.71305 0.53537 0.35156
 C586 C 0.67295 0.51988 0.32917
 N587 N 0.67706 0.53389 0.27931
 N588 N 0.66020 0.53355 0.24730
 C589 C 0.63864 0.51921 0.26412
 N590 N 0.63457 0.50520 0.31390
 N591 N 0.65140 0.50551 0.34577
 C592 C 0.61994 0.51898 0.23000
 N593 N 0.59858 0.50551 0.25000
 N594 N 0.58154 0.50543 0.22004
 C595 C 0.58522 0.51878 0.16888
 N596 N 0.60656 0.53221 0.14861
 N597 N 0.62364 0.53232 0.17871
 C598 C 0.82423 0.30772 0.34886
 N599 N 0.82133 0.28684 0.34447
 N600 N 0.80637 0.27044 0.38108
 C601 C 0.79388 0.27438 0.42364
 N602 N 0.79632 0.29511 0.42680
 N603 N 0.81136 0.31152 0.39039
 C604 C 0.84157 0.32607 0.31117
 N605 N 0.84661 0.34743 0.32231
 N606 N 0.86306 0.36424 0.29035
 C607 C 0.87501 0.36031 0.24586
 N608 N 0.86985 0.33893 0.23425
 N609 N 0.85345 0.32212 0.26646
 C610 C 0.89379 0.37898 0.21293
 N611 N 0.90475 0.37528 0.16479
 N612 N 0.92229 0.39230 0.13659
 C613 C 0.92953 0.41358 0.15588
 N614 N 0.91855 0.41728 0.20384
 N615 N 0.90096 0.40029 0.23176
   
