data_POSCAR
  _audit_creation_date              2014-09-24
  _audit_creation_method            'ToBaCCo'
  _symmetry_space_group_name_H-M    'P1'
  _symmetry_Int_Tables_number       1
  _symmetry_cell_setting            triclinic
  loop_
  _symmetry_equiv_pos_as_xyz
 x,y,z
_cell_length_a 64.3588
_cell_length_b 63.7245
_cell_length_c 23.3271
_cell_angle_alpha 90.278400
_cell_angle_beta 89.791100
_cell_angle_gamma 121.451800
loop_
  _atom_site_label
  _atom_site_type_symbol
  _atom_site_fract_x
  _atom_site_fract_y
  _atom_site_fract_z
C1 C 0.21013 0.50499 0.45526
 C2 C 0.20195 0.50776 0.50892
 C3 C 0.21189 0.50589 0.56067
 C4 C 0.23214 0.50269 0.55871
 C5 C 0.24138 0.50063 0.50481
 C6 C 0.23027 0.50160 0.45297
 C7 C 0.24107 0.50156 0.40040
 C8 C 0.26165 0.49980 0.39830
 C9 C 0.27284 0.49870 0.44869
 C10 C 0.26273 0.49912 0.50262
 C11 C 0.24496 0.50412 0.60871
 C12 C 0.26574 0.50267 0.60651
 C13 C 0.27478 0.49962 0.55418
 C14 C 0.29690 0.49961 0.55129
 C15 C 0.30641 0.49937 0.49724
 C16 C 0.29475 0.49872 0.44645
 H17 H 0.23445 0.50399 0.36001
 H18 H 0.26926 0.50027 0.35654
 H19 H 0.23984 0.50767 0.65017
 H20 H 0.27524 0.50520 0.64643
 H21 H 0.18598 0.50938 0.51052
 H22 H 0.32309 0.49905 0.49433
 C23 C 0.52829 -0.28095 0.55944
 C24 C 0.53462 -0.28790 0.50847
 C25 C 0.53183 -0.27967 0.45499
 C26 C 0.52543 -0.26144 0.45331
 C27 C 0.52001 -0.25338 0.50499
 C28 C 0.52079 -0.26369 0.55805
 C29 C 0.51382 -0.25669 0.60824
 C30 C 0.50647 -0.23966 0.60656
 C31 C 0.50673 -0.22813 0.55497
 C32 C 0.51317 -0.23544 0.50341
 C33 C 0.52520 -0.25043 0.40141
 C34 C 0.51843 -0.23302 0.39970
 C35 C 0.51242 -0.22520 0.45006
 C36 C 0.50522 -0.20772 0.44832
 C37 C 0.49817 -0.20137 0.49896
 C38 C 0.49919 -0.21074 0.55258
 H39 H 0.51380 -0.26449 0.64938
 H40 H 0.50019 -0.23601 0.64624
 H41 H 0.53047 -0.25502 0.36140
 H42 H 0.51772 -0.22597 0.35814
 H43 H 0.53902 -0.30217 0.51033
 H44 H 0.49348 -0.18732 0.49686
 C45 C 1.17018 0.74054 0.53477
 C46 C 1.16060 0.73436 0.47911
 C47 C 1.17488 0.74533 0.43065
 C48 C 1.19968 0.76372 0.43717
 C49 C 1.20979 0.77115 0.49293
 C50 C 1.19497 0.75969 0.54212
 C51 C 1.20603 0.76602 0.59648
 C52 C 1.23066 0.78336 0.60280
 C53 C 1.24566 0.79498 0.55507
 C54 C 1.23522 0.78856 0.49930
 C55 C 1.21481 0.77400 0.38916
 C56 C 1.23966 0.79036 0.39532
 C57 C 1.25037 0.79822 0.44981
 C58 C 1.27604 0.81360 0.45647
 C59 C 1.28577 0.81896 0.51198
 C60 C 1.27122 0.81083 0.56132
 H61 H 1.19614 0.75710 0.63508
 H62 H 1.23806 0.78649 0.64568
 H63 H 1.20769 0.76880 0.34608
 H64 H 1.25039 0.79591 0.35651
 H65 H 1.14185 0.71951 0.47317
 H66 H 1.30524 0.83162 0.51694
 C67 C 0.78212 0.47499 0.56384
 C68 C 0.79338 0.47404 0.51309
 C69 C 0.78480 0.47513 0.45901
 C70 C 0.76385 0.47684 0.45453
 C71 C 0.75151 0.47694 0.50512
 C72 C 0.76053 0.47585 0.55991
 C73 C 0.74648 0.47322 0.60868
 C74 C 0.72464 0.47261 0.60429
 C75 C 0.71602 0.47521 0.55105
 C76 C 0.72948 0.47702 0.50074
 C77 C 0.75430 0.47730 0.40083
 C78 C 0.73314 0.47797 0.39655
 C79 C 0.72040 0.47772 0.44578
 C80 C 0.69817 0.47697 0.44136
 C81 C 0.68493 0.47462 0.49089
 C82 C 0.69326 0.47377 0.54582
 H83 H 0.75160 0.47038 0.65072
 H84 H 0.71422 0.46918 0.64322
 H85 H 0.76281 0.47663 0.36136
 H86 H 0.72641 0.47785 0.35403
 H87 H 0.81000 0.47362 0.51546
 H88 H 0.66806 0.47447 0.48646
 C89 C 0.47383 0.28267 0.45127
 C90 C 0.47379 0.29241 0.50495
 C91 C 0.47512 0.28150 0.55544
 C92 C 0.47603 0.25984 0.55267
 C93 C 0.47537 0.24928 0.49851
 C94 C 0.47428 0.26078 0.44754
 C95 C 0.47458 0.25066 0.39421
 C96 C 0.47633 0.22984 0.39079
 C97 C 0.47781 0.21834 0.44059
 C98 C 0.47713 0.22797 0.49515
 C99 C 0.47857 0.24910 0.60238
 C100 C 0.48056 0.22840 0.59915
 C101 C 0.47932 0.21706 0.54616
 C102 C 0.48228 0.19644 0.54210
 C103 C 0.48348 0.18778 0.48742
 C104 C 0.48098 0.19809 0.43721
 H105 H 0.47377 0.25896 0.35455
 H106 H 0.47705 0.22316 0.34854
 H107 H 0.47959 0.25697 0.64428
 H108 H 0.48391 0.22199 0.63880
 H109 H 0.47413 0.30960 0.50739
 H110 H 0.48534 0.17185 0.48352
 C111 C 0.71680 0.20235 0.55096
 C112 C 0.70533 0.19479 0.49772
 C113 C 0.71810 0.20406 0.44639
 C114 C 0.74335 0.22173 0.44793
 C115 C 0.75528 0.22997 0.50174
 C116 C 0.74196 0.22024 0.55343
 C117 C 0.75406 0.22885 0.60607
 C118 C 0.77873 0.24666 0.60811
 C119 C 0.79223 0.25714 0.55763
 C120 C 0.78052 0.24814 0.50390
 C121 C 0.75688 0.23170 0.39740
 C122 C 0.78172 0.24915 0.39954
 C123 C 0.79387 0.25760 0.45230
 C124 C 0.81906 0.27530 0.45478
 C125 C 0.83060 0.28333 0.50796
 C126 C 0.81739 0.27566 0.55953
 H127 H 0.74455 0.22202 0.64638
 H128 H 0.78720 0.25191 0.64991
 H129 H 0.74837 0.22611 0.35568
 H130 H 0.79136 0.25596 0.35932
 H131 H 0.68606 0.18086 0.49614
 H132 H 0.84966 0.29788 0.50866
 N133 N 0.97212 0.52426 0.05869
 N134 N 0.95194 0.52452 0.06726
 N135 N 1.02609 0.54619 0.09309
 N136 N 1.04489 0.56166 0.12464
 N137 N 1.02261 0.55779 0.05136
 N138 N 1.03879 0.58169 0.05418
 N139 N 0.97549 0.51257 0.10033
 N140 N 0.95763 0.50434 0.13801
 C141 C 0.94306 0.51188 0.11686
 C142 C 1.05260 0.58370 0.10013
 N143 N 1.03696 0.49178 0.06860
 N144 N 1.05676 0.49132 0.08102
 N145 N 0.98412 0.47284 0.11041
 N146 N 0.96598 0.46032 0.14647
 N147 N 0.98648 0.45793 0.07564
 N148 N 0.97007 0.43474 0.08767
 N149 N 1.03463 0.50658 0.10373
 N150 N 1.05282 0.51678 0.14042
 Mn151 Mn 1.00507 0.50956 0.10245
 C152 C 1.06660 0.50729 0.12563
 C153 C 0.95746 0.43661 0.13211
 N154 N 1.02002 0.55198 -0.07247
 N155 N 1.03463 0.57499 -0.08954
 N156 N 0.97142 0.50306 -0.09875
 N157 N 0.95179 0.49050 -0.13041
 N158 N 0.96936 0.51823 -0.06431
 N159 N 0.94811 0.51645 -0.07210
 N160 N 1.02170 0.53670 -0.10731
 N161 N 1.03744 0.54872 -0.14850
 Mn162 Mn 0.99601 0.53840 -0.00675
 C163 C 1.04553 0.57256 -0.13699
 C164 C 0.93738 0.49896 -0.11356
 N165 N 0.98436 0.45222 -0.04766
 N166 N 0.97003 0.42810 -0.05333
 N167 N 1.03060 0.49741 -0.09689
 N168 N 1.04857 0.50662 -0.13419
 N169 N 1.03473 0.48632 -0.05512
 N170 N 1.05567 0.48746 -0.06348
 N171 N 0.98014 0.46357 -0.08860
 N172 N 0.96261 0.44764 -0.12255
 Mn173 Mn 1.01074 0.47181 0.01047
 Mn174 Mn 1.00092 0.50014 -0.09830
 Cl175 Cl 1.00321 0.50499 0.00199
 C176 C 0.95638 0.42565 -0.09988
 C177 C 1.06407 0.50031 -0.11312
 N178 N 0.48985 0.46494 -0.09669
 N179 N 0.49392 0.45060 -0.12958
 N180 N 0.45703 0.48575 -0.06432
 N181 N 0.43705 0.48590 -0.07665
 N182 N 0.47420 0.49868 -0.10202
 N183 N 0.46654 0.50814 -0.14054
 N184 N 0.47256 0.45188 -0.05932
 N185 N 0.46417 0.42816 -0.06635
 C186 C 0.47780 0.42773 -0.11031
 C187 C 0.44340 0.50013 -0.12425
 N188 N 0.47108 0.49994 0.09902
 N189 N 0.46224 0.50968 0.13391
 N190 N 0.47058 0.45252 0.06442
 N191 N 0.46234 0.42892 0.07279
 N192 N 0.48655 0.46603 0.10394
 N193 N 0.48983 0.45212 0.13979
 N194 N 0.45503 0.48637 0.05970
 N195 N 0.43458 0.48625 0.06742
 Mn196 Mn 0.46344 0.46886 0.00008
 C197 C 0.43952 0.50111 0.11372
 C198 C 0.47460 0.42905 0.12008
 N199 N 0.52381 0.53866 -0.09888
 N200 N 0.51997 0.55242 -0.13394
 N201 N 0.55545 0.51848 -0.05451
 N202 N 0.57599 0.51880 -0.06197
 N203 N 0.53953 0.50492 -0.09404
 N204 N 0.54866 0.49548 -0.12909
 N205 N 0.53974 0.55222 -0.05932
 N206 N 0.54744 0.57575 -0.06700
 Mn207 Mn 0.50686 0.50179 -0.09846
 C208 C 0.53487 0.57549 -0.11387
 C209 C 0.57136 0.50417 -0.10852
 N210 N 0.53631 0.50590 0.10681
 N211 N 0.54333 0.49481 0.14239
 N212 N 0.53810 0.55283 0.06473
 N213 N 0.54784 0.57660 0.07463
 N214 N 0.52072 0.53977 0.10190
 N215 N 0.51778 0.55419 0.13728
 N216 N 0.55346 0.51890 0.06910
 N217 N 0.57277 0.51716 0.07846
 Mn218 Mn 0.50366 0.50292 0.10347
 Mn219 Mn 0.54703 0.53589 0.00500
 Cl220 Cl 0.50524 0.50237 0.00253
 C221 C 0.56610 0.50203 0.12448
 C222 C 0.53472 0.57705 0.11966
 N223 N 0.45129 -0.02144 0.05659
 N224 N 0.42803 -0.03785 0.06581
 N225 N 0.49549 0.02928 0.09216
 N226 N 0.50384 0.04857 0.12609
 N227 N 0.48180 0.03000 0.05155
 N228 N 0.48017 0.04977 0.05747
 N229 N 0.46484 -0.02221 0.09750
 N230 N 0.45124 -0.03926 0.13532
 C231 C 0.42834 -0.04892 0.11499
 C232 C 0.49424 0.06124 0.10405
 N233 N 0.55157 0.02235 0.06225
 N234 N 0.57462 0.03960 0.07051
 N235 N 0.50681 -0.02684 0.10411
 N236 N 0.49747 -0.04505 0.14127
 N237 N 0.52115 -0.02907 0.06771
 N238 N 0.52218 -0.04878 0.07957
 N239 N 0.53746 0.02480 0.09892
 N240 N 0.55047 0.04393 0.13272
 Mn241 Mn 0.50114 0.00126 0.09879
 C242 C 0.57361 0.05300 0.11452
 C243 C 0.50722 -0.05857 0.12555
 N244 N 0.48272 0.02715 -0.07245
 N245 N 0.48078 0.04614 -0.08654
 N246 N 0.46657 -0.02679 -0.10315
 N247 N 0.45400 -0.04631 -0.13589
 N248 N 0.45221 -0.02447 -0.06698
 N249 N 0.42929 -0.04239 -0.07467
 N250 N 0.49687 0.02465 -0.10892
 N251 N 0.50508 0.04189 -0.14838
 Mn252 Mn 0.46671 0.00286 -0.00788
 C253 C 0.49503 0.05525 -0.13391
 C254 C 0.43080 -0.05589 -0.11789
 N255 N 0.52221 -0.03179 -0.05561
 N256 N 0.52438 -0.05121 -0.06126
 N257 N 0.53887 0.02026 -0.10192
 N258 N 0.55198 0.03860 -0.13729
 N259 N 0.55254 0.01969 -0.06109
 N260 N 0.57550 0.03755 -0.06805
 N261 N 0.50853 -0.03132 -0.09652
 N262 N 0.50081 -0.05048 -0.13078
 Mn263 Mn 0.53714 -0.00473 0.00336
 Mn264 Mn 0.50271 -0.00332 -0.10318
 Cl265 Cl 0.50191 -0.00098 -0.00221
 C266 C 0.51074 -0.06280 -0.10819
 C267 C 0.57477 0.04916 -0.11588
 C268 C 1.17382 0.48595 0.31979
 C269 C 1.16723 0.50391 0.31495
 C270 C 1.17667 0.52300 0.35647
 C271 C 1.19138 0.52355 0.40127
 C272 C 1.19743 0.50543 0.40625
 C273 C 1.18855 0.48671 0.36470
 C274 C 1.17107 0.54133 0.35399
 C275 C 1.15533 0.54065 0.31272
 C276 C 1.14433 0.52140 0.27205
 C277 C 1.15104 0.50320 0.27180
 C278 C 1.14097 0.48470 0.22913
 C279 C 1.12395 0.48318 0.19011
 C280 C 1.11614 0.49987 0.19205
 C281 C 1.12646 0.51946 0.23245
 C282 C 1.11773 0.53576 0.23292
 C283 C 1.09894 0.53208 0.19676
 C284 C 1.08833 0.51230 0.15834
 C285 C 1.09747 0.49663 0.15493
 H286 H 1.16736 0.47065 0.29064
 H287 H 1.19826 0.53831 0.43268
 H288 H 1.19205 0.47188 0.36836
 H289 H 1.17863 0.55622 0.38506
 H290 H 1.15206 0.55557 0.31434
 H291 H 1.14572 0.47088 0.22491
 H292 H 1.11639 0.46837 0.15887
 H293 H 1.12438 0.55115 0.26183
 H294 H 1.09235 0.54460 0.19979
 H295 H 1.08930 0.48124 0.12524
 C296 C 0.51082 0.68153 0.32351
 C297 C 0.52903 0.67567 0.31581
 C298 C 0.54990 0.68772 0.35138
 C299 C 0.55098 0.70278 0.39691
 C300 C 0.53224 0.70760 0.40563
 C301 C 0.51248 0.69723 0.36749
 C302 C 0.56936 0.68432 0.34195
 C303 C 0.56847 0.66894 0.29831
 C304 C 0.54743 0.65529 0.26424
 C305 C 0.52706 0.65804 0.27466
 C306 C 0.50490 0.64205 0.24627
 C307 C 0.50257 0.62365 0.20986
 C308 C 0.52246 0.62123 0.19808
 C309 C 0.54552 0.63783 0.22261
 C310 C 0.56556 0.63589 0.20504
 C311 C 0.56229 0.61696 0.16843
 C312 C 0.53901 0.59935 0.14918
 C313 C 0.51926 0.60182 0.16304
 H314 H 0.49509 0.67434 0.29607
 H315 H 0.56659 0.71104 0.42537
 H316 H 0.49748 0.70017 0.37348
 H317 H 0.58549 0.69365 0.36865
 H318 H 0.58409 0.66700 0.29445
 H319 H 0.48853 0.64232 0.25401
 H320 H 0.48493 0.61110 0.19092
 H321 H 0.58395 0.64876 0.21877
 H322 H 0.57779 0.61539 0.15737
 H323 H 0.50128 0.58835 0.14710
 C324 C 0.33261 -0.16315 0.37051
 C325 C 0.33038 -0.14849 0.32860
 C326 C 0.30815 -0.14889 0.32648
 C327 C 0.28970 -0.16224 0.36722
 C328 C 0.29273 -0.17574 0.41038
 C329 C 0.31430 -0.17619 0.41070
 C330 C 0.30473 -0.13536 0.28483
 C331 C 0.32309 -0.12090 0.24595
 C332 C 0.34596 -0.11896 0.24786
 C333 C 0.34967 -0.13297 0.28998
 C334 C 0.37287 -0.13024 0.29373
 C335 C 0.39199 -0.11390 0.25903
 C336 C 0.38878 -0.09994 0.21836
 C337 C 0.36560 -0.10275 0.21065
 C338 C 0.36332 -0.08881 0.16659
 C339 C 0.38350 -0.07193 0.13422
 C340 C 0.40652 -0.06832 0.14482
 C341 C 0.40891 -0.08275 0.18610
 H342 H 0.34830 -0.16490 0.37400
 H343 H 0.27357 -0.16091 0.36725
 H344 H 0.31708 -0.18680 0.44263
 H345 H 0.28773 -0.13571 0.28266
 H346 H 0.31899 -0.11076 0.21597
 H347 H 0.37724 -0.13988 0.32448
 H348 H 0.40963 -0.11198 0.26461
 H349 H 0.34626 -0.09041 0.15613
 H350 H 0.38119 -0.06117 0.10188
 H351 H 0.42663 -0.08040 0.19365
 C352 C 0.81778 0.45477 0.36112
 C353 C 0.83145 0.47552 0.32545
 C354 C 0.82682 0.49494 0.32974
 C355 C 0.81079 0.49437 0.37172
 C356 C 0.79861 0.47430 0.40884
 C357 C 0.80179 0.45434 0.40222
 C358 C 0.83876 0.51515 0.29334
 C359 C 0.85569 0.51689 0.25350
 C360 C 0.86199 0.49875 0.24970
 C361 C 0.84990 0.47789 0.28689
 C362 C 0.85753 0.46074 0.28648
 C363 C 0.87668 0.46411 0.25223
 C364 C 0.88856 0.48426 0.21573
 C365 C 0.88082 0.50136 0.21202
 C366 C 0.89263 0.52056 0.17131
 C367 C 0.91224 0.52343 0.13876
 C368 C 0.92079 0.50747 0.14609
 C369 C 0.90855 0.48763 0.18370
 H370 H 0.81907 0.43861 0.35868
 H371 H 0.80838 0.50990 0.37688
 H372 H 0.79230 0.43855 0.43023
 H373 H 0.83515 0.52995 0.29606
 H374 H 0.86438 0.53335 0.22793
 H375 H 0.84979 0.44496 0.31418
 H376 H 0.88240 0.45087 0.25477
 H377 H 0.88714 0.53364 0.16350
 H378 H 0.92124 0.53868 0.10912
 H379 H 0.91478 0.47486 0.18848
 C380 C 0.50396 0.33534 0.34798
 C381 C 0.48402 0.33313 0.31699
 C382 C 0.46074 0.31177 0.32625
 C383 C 0.45750 0.29454 0.36832
 C384 C 0.47728 0.29814 0.40096
 C385 C 0.50050 0.31819 0.38953
 C386 C 0.44073 0.30814 0.29479
 C387 C 0.44304 0.32560 0.25555
 C388 C 0.46548 0.34782 0.24718
 C389 C 0.48629 0.35167 0.27861
 C390 C 0.50842 0.37443 0.27288
 C391 C 0.51005 0.39311 0.23941
 C392 C 0.48995 0.38977 0.20911
 C393 C 0.46760 0.36686 0.21054
 C394 C 0.44827 0.36431 0.17606
 C395 C 0.45075 0.38419 0.14469
 C396 C 0.47238 0.40713 0.14717
 C397 C 0.49202 0.40959 0.17836
 H398 H 0.52246 0.35020 0.34180
 H399 H 0.43951 0.27882 0.37713
 H400 H 0.51598 0.32096 0.41420
 H401 H 0.42296 0.29176 0.30120
 H402 H 0.42657 0.32152 0.23401
 H403 H 0.52475 0.37892 0.29565
 H404 H 0.52723 0.41054 0.23785
 H405 H 0.43101 0.34729 0.17254
 H406 H 0.43544 0.38185 0.12004
 H407 H 0.50901 0.42720 0.17925
 C408 C 0.66689 0.18230 0.34068
 C409 C 0.66923 0.16492 0.30767
 C410 C 0.69075 0.16422 0.31472
 C411 C 0.70783 0.17856 0.35724
 C412 C 0.70395 0.19394 0.39282
 C413 C 0.68389 0.19633 0.38287
 C414 C 0.69457 0.14835 0.28123
 C415 C 0.67702 0.13229 0.24255
 C416 C 0.65452 0.13097 0.23686
 C417 C 0.65058 0.14761 0.26990
 C418 C 0.62761 0.14542 0.26670
 C419 C 0.60880 0.12702 0.23448
 C420 C 0.61219 0.11045 0.20290
 C421 C 0.63533 0.11273 0.20156
 C422 C 0.63799 0.09620 0.16591
 C423 C 0.61814 0.07735 0.13616
 C424 C 0.59505 0.07427 0.14118
 C425 C 0.59232 0.09121 0.17356
 H426 H 0.65190 0.18513 0.33606
 H427 H 0.72338 0.17668 0.36503
 H428 H 0.68078 0.20835 0.40976
 H429 H 0.71111 0.14796 0.28587
 H430 H 0.68126 0.12030 0.21956
 H431 H 0.62313 0.15700 0.29068
 H432 H 0.59123 0.12555 0.23499
 H433 H 0.65512 0.09724 0.16012
 H434 H 0.62073 0.06467 0.11049
 H435 H 0.57457 0.08926 0.17644
 C436 C 0.46743 0.16094 -0.32118
 C437 C 0.48505 0.15395 -0.32049
 C438 C 0.50255 0.16290 -0.36521
 C439 C 0.50188 0.17750 -0.40902
 C440 C 0.48407 0.18393 -0.40990
 C441 C 0.46696 0.17556 -0.36516
 C442 C 0.52049 0.15694 -0.36688
 C443 C 0.52100 0.14138 -0.32646
 C444 C 0.50337 0.13093 -0.28247
 C445 C 0.48554 0.13789 -0.27829
 C446 C 0.46859 0.12823 -0.23271
 C447 C 0.46828 0.11148 -0.19421
 C448 C 0.48471 0.10355 -0.19949
 C449 C 0.50272 0.11338 -0.24320
 C450 C 0.51885 0.10458 -0.24687
 C451 C 0.51655 0.08628 -0.21029
 C452 C 0.49835 0.07620 -0.16832
 C453 C 0.48283 0.08533 -0.16213
 H454 H 0.45332 0.15491 -0.28931
 H455 H 0.51545 0.18401 -0.44286
 H456 H 0.45237 0.17932 -0.36552
 H457 H 0.53415 0.16410 -0.40050
 H458 H 0.53551 0.13781 -0.33141
 H459 H 0.45509 0.13310 -0.22572
 H460 H 0.45466 0.10426 -0.16053
 H461 H 0.53312 0.11090 -0.27836
 H462 H 0.52896 0.07972 -0.21558
 H463 H 0.46869 0.07760 -0.12966
 C464 C 0.63714 0.45342 -0.36863
 C465 C 0.64560 0.47032 -0.32241
 C466 C 0.67103 0.48742 -0.31862
 C467 C 0.68705 0.48776 -0.36047
 C468 C 0.67817 0.47143 -0.40728
 C469 C 0.65306 0.45420 -0.41022
 C470 C 0.68026 0.50470 -0.27431
 C471 C 0.66478 0.50621 -0.23505
 C472 C 0.63924 0.49032 -0.23839
 C473 C 0.62957 0.47152 -0.28160
 C474 C 0.60412 0.45497 -0.28363
 C475 C 0.58848 0.45773 -0.24790
 C476 C 0.59747 0.47682 -0.20809
 C477 C 0.62294 0.49299 -0.20123
 C478 C 0.63085 0.51160 -0.15866
 C479 C 0.61411 0.51466 -0.12686
 C480 C 0.58909 0.49939 -0.13650
 C481 C 0.58092 0.48012 -0.17605
 H482 H 0.61824 0.43975 -0.37527
 H483 H 0.70625 0.50185 -0.35852
 H484 H 0.64559 0.44117 -0.44544
 H485 H 0.69970 0.51766 -0.27073
 H486 H 0.67346 0.52039 -0.20297
 H487 H 0.59547 0.43971 -0.31304
 H488 H 0.56904 0.44502 -0.25236
 H489 H 0.64979 0.52446 -0.14966
 H490 H 0.62083 0.52958 -0.09605
 H491 H 0.56152 0.46792 -0.18298
 C492 C 0.83135 0.31584 -0.31246
 C493 C 0.85533 0.32214 -0.29887
 C494 C 0.86518 0.30996 -0.32919
 C495 C 0.85246 0.29431 -0.37547
 C496 C 0.82906 0.28906 -0.39016
 C497 C 0.81851 0.29959 -0.35714
 C498 C 0.88785 0.31384 -0.31385
 C499 C 0.90123 0.32989 -0.26956
 C500 C 0.89295 0.34372 -0.24076
 C501 C 0.86998 0.34037 -0.25706
 C502 C 0.86311 0.35637 -0.23379
 C503 C 0.87843 0.37545 -0.19715
 C504 C 0.90061 0.37860 -0.18002
 C505 C 0.90760 0.36199 -0.19895
 C506 C 0.92930 0.36480 -0.17610
 C507 C 0.94441 0.38464 -0.14024
 C508 C 0.93843 0.40225 -0.12687
 C509 C 0.91627 0.39884 -0.14554
 H510 H 0.82196 0.32312 -0.28922
 H511 H 0.86068 0.28594 -0.39987
 H512 H 0.80068 0.29631 -0.36782
 H513 H 0.89540 0.30440 -0.33644
 H514 H 0.91875 0.33218 -0.26109
 H515 H 0.84658 0.35559 -0.24591
 H516 H 0.87292 0.38800 -0.18243
 H517 H 0.93508 0.35201 -0.18531
 H518 H 0.96142 0.38694 -0.12548
 H519 H 0.91150 0.41235 -0.13421
 C520 C 0.47055 -0.18441 -0.35750
 C521 C 0.48785 -0.17244 -0.31328
 C522 C 0.50745 -0.17657 -0.31047
 C523 C 0.51028 -0.19079 -0.35262
 C524 C 0.49389 -0.20100 -0.39868
 C525 C 0.47375 -0.19806 -0.39951
 C526 C 0.52482 -0.16551 -0.26722
 C527 C 0.52399 -0.14937 -0.22835
 C528 C 0.50575 -0.14340 -0.23151
 C529 C 0.48700 -0.15563 -0.27374
 C530 C 0.46865 -0.14980 -0.27679
 C531 C 0.46943 -0.13153 -0.24279
 C532 C 0.48821 -0.11858 -0.20362
 C533 C 0.50616 -0.12485 -0.19562
 C534 C 0.52419 -0.11161 -0.15327
 C535 C 0.52510 -0.09210 -0.12319
 C536 C 0.50820 -0.08513 -0.13439
 C537 C 0.48943 -0.09887 -0.17348
 H538 H 0.45465 -0.18308 -0.36223
 H539 H 0.52639 -0.19214 -0.35200
 H540 H 0.46047 -0.20611 -0.43377
 H541 H 0.53967 -0.16885 -0.26428
 H542 H 0.53845 -0.14128 -0.19728
 H543 H 0.45364 -0.15853 -0.30629
 H544 H 0.45539 -0.12713 -0.24813
 H545 H 0.53812 -0.11552 -0.14293
 H546 H 0.53961 -0.08189 -0.09252
 H547 H 0.47597 -0.09387 -0.18145
 C548 C 0.31387 0.48308 -0.31033
 C549 C 0.33951 0.49936 -0.30943
 C550 C 0.35005 0.51677 -0.35430
 C551 C 0.33568 0.51708 -0.39881
 C552 C 0.31042 0.50048 -0.40009
 C553 C 0.29966 0.48366 -0.35492
 C554 C 0.37501 0.53363 -0.35547
 C555 C 0.39016 0.53304 -0.31443
 C556 C 0.38094 0.51525 -0.27046
 C557 C 0.35513 0.49854 -0.26688
 C558 C 0.34594 0.48126 -0.22180
 C559 C 0.36140 0.47947 -0.18334
 C560 C 0.38662 0.49477 -0.18806
 C561 C 0.39677 0.51321 -0.23097
 C562 C 0.42247 0.52829 -0.23379
 C563 C 0.43727 0.52432 -0.19779
 C564 C 0.42716 0.50550 -0.15710
 C565 C 0.40180 0.49123 -0.15116
 H566 H 0.30423 0.46928 -0.27805
 H567 H 0.34427 0.53047 -0.43294
 H568 H 0.28032 0.47009 -0.35538
 H569 H 0.38306 0.54727 -0.38920
 H570 H 0.40918 0.54672 -0.31916
 H571 H 0.32677 0.46848 -0.21544
 H572 H 0.35350 0.46554 -0.15023
 H573 H 0.43192 0.54296 -0.26420
 H574 H 0.45685 0.53586 -0.20264
 H575 H 0.39386 0.47666 -0.11954
 C576 C 1.13583 0.71522 -0.32773
 C577 C 1.12710 0.68977 -0.33404
 C578 C 1.13331 0.68216 -0.38514
 C579 C 1.14705 0.69911 -0.42793
 C580 C 1.15596 0.72426 -0.42088
 C581 C 1.15007 0.73214 -0.37049
 C582 C 1.12592 0.65761 -0.39369
 C583 C 1.11285 0.64025 -0.35204
 C584 C 1.10629 0.64670 -0.30005
 C585 C 1.11261 0.67162 -0.29172
 C586 C 1.10377 0.67730 -0.24215
 C587 C 1.08916 0.65924 -0.20236
 C588 C 1.08354 0.63504 -0.20913
 C589 C 1.09281 0.62871 -0.25708
 C590 C 1.08831 0.60453 -0.26008
 C591 C 1.07359 0.58694 -0.21995
 C592 C 1.06295 0.59267 -0.17491
 C593 C 1.06849 0.61697 -0.16868
 H594 H 1.13230 0.72268 -0.28998
 H595 H 1.15164 0.69277 -0.46650
 H596 H 1.15620 0.75140 -0.36448
 H597 H 1.13042 0.65172 -0.43306
 H598 H 1.10746 0.62164 -0.36295
 H599 H 1.10722 0.69549 -0.23377
 H600 H 1.08230 0.66433 -0.16572
 H601 H 1.09611 0.59861 -0.29252
 H602 H 1.07032 0.56854 -0.22484
 H603 H 1.06076 0.62171 -0.13319
 C604 C 0.81470 0.49736 -0.29666
 C605 C 0.82452 0.48210 -0.28983
 C606 C 0.81673 0.46227 -0.32887
 C607 C 0.80169 0.45936 -0.37523
 C608 C 0.79345 0.47559 -0.38382
 C609 C 0.79943 0.49409 -0.34285
 C610 C 0.82465 0.44584 -0.32294
 C611 C 0.84137 0.44936 -0.28112
 C612 C 0.85137 0.46994 -0.24404
 C613 C 0.84242 0.48630 -0.24747
 C614 C 0.85257 0.50693 -0.21044
 C615 C 0.87179 0.51227 -0.17396
 C616 C 0.88153 0.49720 -0.17228
 C617 C 0.87089 0.47534 -0.20575
 C618 C 0.88102 0.46033 -0.20136
 C619 C 0.90194 0.46779 -0.16936
 C620 C 0.91331 0.49014 -0.13953
 C621 C 0.90248 0.50434 -0.13908
 H622 H 0.81895 0.51238 -0.26801
 H623 H 0.79667 0.44453 -0.40569
 H624 H 0.79364 0.50715 -0.34849
 H625 H 0.81828 0.43032 -0.35197
 H626 H 0.84667 0.43591 -0.28062
 H627 H 0.84662 0.51989 -0.21001
 H628 H 0.87956 0.52879 -0.14788
 H629 H 0.87371 0.44296 -0.22315
 H630 H 0.90960 0.45616 -0.16911
 H631 H 0.91108 0.52156 -0.11551
 C632 C 0.50578 0.33038 -0.33164
 C633 C 0.48577 0.32933 -0.30313
 C634 C 0.46210 0.30934 -0.31641
 C635 C 0.45869 0.29264 -0.36035
 C636 C 0.47865 0.29533 -0.39089
 C637 C 0.50216 0.31373 -0.37515
 C638 C 0.44188 0.30670 -0.28747
 C639 C 0.44442 0.32402 -0.24719
 C640 C 0.46735 0.34517 -0.23531
 C641 C 0.48838 0.34786 -0.26376
 C642 C 0.51112 0.36965 -0.25454
 C643 C 0.51314 0.38864 -0.22099
 C644 C 0.49281 0.38650 -0.19393
 C645 C 0.46981 0.36439 -0.19839
 C646 C 0.45017 0.36284 -0.16681
 C647 C 0.45300 0.38306 -0.13592
 C648 C 0.47533 0.40535 -0.13590
 C649 C 0.49530 0.40674 -0.16365
 H650 H 0.52445 0.34408 -0.32226
 H651 H 0.44048 0.27824 -0.37265
 H652 H 0.51775 0.31582 -0.39832
 H653 H 0.42378 0.29129 -0.29690
 H654 H 0.42778 0.32083 -0.22797
 H655 H 0.52769 0.37320 -0.27480
 H656 H 0.53082 0.40539 -0.21692
 H657 H 0.43237 0.34638 -0.16536
 H658 H 0.43743 0.38153 -0.11385
 H659 H 0.51282 0.42385 -0.16250
 C660 C 0.66383 0.17709 -0.34650
 C661 C 0.66703 0.16044 -0.31324
 C662 C 0.68907 0.16070 -0.32024
 C663 C 0.70597 0.17540 -0.36262
 C664 C 0.70156 0.19041 -0.39771
 C665 C 0.68076 0.19163 -0.38825
 C666 C 0.69373 0.14564 -0.28643
 C667 C 0.67664 0.12959 -0.24700
 C668 C 0.65375 0.12743 -0.24098
 C669 C 0.64884 0.14305 -0.27488
 C670 C 0.62543 0.13983 -0.27176
 C671 C 0.60715 0.12145 -0.23858
 C672 C 0.61157 0.10596 -0.20589
 C673 C 0.63513 0.10929 -0.20450
 C674 C 0.63877 0.09386 -0.16758
 C675 C 0.61939 0.07493 -0.13681
 C676 C 0.59590 0.07073 -0.14223
 C677 C 0.59224 0.08668 -0.17564
 H678 H 0.64834 0.17916 -0.34195
 H679 H 0.72208 0.17441 -0.37003
 H680 H 0.67723 0.20337 -0.41468
 H681 H 0.71066 0.14597 -0.29114
 H682 H 0.68153 0.11826 -0.22364
 H683 H 0.62017 0.15052 -0.29657
 H684 H 0.58921 0.11911 -0.23919
 H685 H 0.65630 0.09584 -0.16164
 H686 H 0.62263 0.06300 -0.11033
 H687 H 0.57413 0.08386 -0.17875
 C688 C 1.17840 0.48733 -0.29977
 C689 C 1.17079 0.50450 -0.29415
 C690 C 1.17957 0.52360 -0.33524
 C691 C 1.19409 0.52453 -0.38118
 C692 C 1.20056 0.50677 -0.38790
 C693 C 1.19298 0.48848 -0.34586
 C694 C 1.17331 0.54142 -0.33151
 C695 C 1.15715 0.53993 -0.29007
 C696 C 1.14628 0.52024 -0.25080
 C697 C 1.15406 0.50288 -0.25097
 C698 C 1.14430 0.48417 -0.20908
 C699 C 1.12644 0.48151 -0.17080
 C700 C 1.11736 0.49716 -0.17300
 C701 C 1.12741 0.51698 -0.21250
 C702 C 1.11724 0.53201 -0.21403
 C703 C 1.09736 0.52686 -0.17996
 C704 C 1.08705 0.50689 -0.14239
 C705 C 1.09760 0.49252 -0.13756
 H706 H 1.17273 0.47227 -0.27053
 H707 H 1.20019 0.53910 -0.41265
 H708 H 1.19707 0.47407 -0.35037
 H709 H 1.18055 0.55645 -0.36192
 H710 H 1.15341 0.55452 -0.29054
 H711 H 1.14988 0.47098 -0.20513
 H712 H 1.11912 0.46653 -0.14027
 H713 H 1.12345 0.54735 -0.24267
 H714 H 1.08964 0.53837 -0.18406
 H715 H 1.08959 0.47694 -0.10868
 C716 C 0.50064 0.66919 -0.32936
 C717 C 0.52138 0.67062 -0.30438
 C718 C 0.54460 0.69097 -0.31924
 C719 C 0.54683 0.70762 -0.36176
 C720 C 0.52611 0.70475 -0.38869
 C721 C 0.50308 0.68594 -0.37106
 C722 C 0.56549 0.69412 -0.29303
 C723 C 0.56400 0.67715 -0.25344
 C724 C 0.54151 0.65574 -0.23998
 C725 C 0.51989 0.65225 -0.26660
 C726 C 0.49771 0.62988 -0.25730
 C727 C 0.49671 0.61127 -0.22460
 C728 C 0.51754 0.61443 -0.19822
 C729 C 0.54005 0.63703 -0.20328
 C730 C 0.56019 0.63965 -0.17216
 C731 C 0.55829 0.62002 -0.14086
 C732 C 0.53646 0.59725 -0.14019
 C733 C 0.51604 0.59476 -0.16783
 H734 H 0.48228 0.65524 -0.31807
 H735 H 0.56468 0.72234 -0.37535
 H736 H 0.48689 0.68364 -0.39136
 H737 H 0.58326 0.70977 -0.30375
 H738 H 0.58106 0.68074 -0.23618
 H739 H 0.48085 0.62561 -0.27712
 H740 H 0.47943 0.59407 -0.22042
 H741 H 0.57762 0.65660 -0.17111
 H742 H 0.57419 0.62239 -0.11891
 H743 H 0.49889 0.57728 -0.16616
 C744 C 0.29085 -0.15512 -0.29984
 C745 C 0.31354 -0.15325 -0.29081
 C746 C 0.31963 -0.16695 -0.32786
 C747 C 0.30464 -0.18013 -0.37422
 C748 C 0.28313 -0.18032 -0.38532
 C749 C 0.27596 -0.16843 -0.34633
 C750 C 0.34118 -0.16671 -0.32011
 C751 C 0.35793 -0.15163 -0.27919
 C752 C 0.35396 -0.13574 -0.24480
 C753 C 0.33092 -0.13744 -0.24854
 C754 C 0.32651 -0.12255 -0.21157
 C755 C 0.34454 -0.10535 -0.17524
 C756 C 0.36771 -0.10212 -0.17450
 C757 C 0.37262 -0.11761 -0.20841
 C758 C 0.39649 -0.11338 -0.20686
 C759 C 0.41484 -0.09390 -0.17565
 C760 C 0.41014 -0.07811 -0.14406
 C761 C 0.38634 -0.08279 -0.14191
 H762 H 0.28449 -0.14574 -0.27326
 H763 H 0.31013 -0.18977 -0.40316
 H764 H 0.25965 -0.16788 -0.35400
 H765 H 0.34551 -0.17779 -0.34720
 H766 H 0.37410 -0.15258 -0.27649
 H767 H 0.30937 -0.12337 -0.21048
 H768 H 0.34052 -0.09386 -0.14882
 H769 H 0.40202 -0.12409 -0.23100
 H770 H 0.43305 -0.09085 -0.17738
 H771 H 0.38261 -0.07059 -0.11749
 C772 C 0.53005 -0.16415 0.32212
 C773 C 0.50991 -0.16213 0.30651
 C774 C 0.48767 -0.17692 0.33637
 C775 C 0.48585 -0.19311 0.37941
 C776 C 0.50618 -0.19422 0.39558
 C777 C 0.52823 -0.17967 0.36651
 C778 C 0.46761 -0.17481 0.32479
 C779 C 0.46952 -0.15715 0.28696
 C780 C 0.49154 -0.14126 0.25799
 C781 C 0.51144 -0.14501 0.26470
 C782 C 0.53222 -0.13140 0.22978
 C783 C 0.53420 -0.11350 0.19247
 C784 C 0.51595 -0.10792 0.18980
 C785 C 0.49438 -0.12163 0.22274
 C786 C 0.47706 -0.11431 0.22122
 C787 C 0.48121 -0.09412 0.18892
 C788 C 0.50242 -0.08086 0.15617
 C789 C 0.51950 -0.08817 0.15572
 H790 H 0.54782 -0.15297 0.30313
 H791 H 0.46886 -0.20404 0.40254
 H792 H 0.54436 -0.17967 0.37960
 H793 H 0.45044 -0.18639 0.34670
 H794 H 0.45324 -0.15659 0.28065
 H795 H 0.54720 -0.13444 0.22972
 H796 H 0.55057 -0.10336 0.16679
 H797 H 0.46062 -0.12309 0.24652
 H798 H 0.46781 -0.08870 0.19003
 H799 H 0.53612 -0.07771 0.13102
 C800 C 0.31028 0.47738 0.31009
 C801 C 0.33411 0.49732 0.29797
 C802 C 0.34354 0.51855 0.33335
 C803 C 0.32990 0.51930 0.37945
 C804 C 0.30692 0.49903 0.39214
 C805 C 0.29702 0.47825 0.35675
 C806 C 0.36688 0.53866 0.32393
 C807 C 0.38189 0.53766 0.28270
 C808 C 0.37408 0.51639 0.24890
 C809 C 0.34934 0.49651 0.25410
 C810 C 0.34092 0.47634 0.21614
 C811 C 0.35654 0.47476 0.17743
 C812 C 0.38123 0.49290 0.17568
 C813 C 0.39033 0.51412 0.21101
 C814 C 0.41566 0.53156 0.20928
 C815 C 0.43124 0.52755 0.17585
 C816 C 0.42221 0.50636 0.14211
 C817 C 0.39708 0.48946 0.14061
 H818 H 0.30175 0.46046 0.28594
 H819 H 0.33758 0.53534 0.40722
 H820 H 0.27932 0.46232 0.36650
 H821 H 0.37391 0.55514 0.34992
 H822 H 0.39966 0.55400 0.27843
 H823 H 0.32224 0.46134 0.21536
 H824 H 0.34935 0.45869 0.14994
 H825 H 0.42430 0.54796 0.23529
 H826 H 0.45063 0.54090 0.17749
 H827 H 0.39004 0.47289 0.11492
 C828 C 1.13098 0.72003 0.30612
 C829 C 1.13685 0.70354 0.28050
 C830 C 1.15731 0.70332 0.30225
 C831 C 1.17082 0.71862 0.34820
 C832 C 1.16395 0.73381 0.37469
 C833 C 1.14420 0.73466 0.35297
 C834 C 1.16352 0.68699 0.27993
 C835 C 1.14874 0.66938 0.23980
 C836 C 1.12724 0.66767 0.21975
 C837 C 1.12227 0.68620 0.23685
 C838 C 1.10257 0.68633 0.21074
 C839 C 1.08700 0.66776 0.17303
 C840 C 1.08998 0.64800 0.16126
 C841 C 1.11024 0.64773 0.18425
 C842 C 1.11174 0.62664 0.17409
 C843 C 1.09339 0.60641 0.14455
 C844 C 1.07338 0.60671 0.12257
 C845 C 1.07214 0.62787 0.12914
 H846 H 1.11548 0.72104 0.29315
 H847 H 1.18583 0.71759 0.36592
 H848 H 1.13843 0.74603 0.37377
 H849 H 1.17950 0.68718 0.29530
 H850 H 1.15470 0.65731 0.22505
 H851 H 1.09875 0.70067 0.21857
 H852 H 1.07183 0.66835 0.15488
 H853 H 1.12603 0.62452 0.19141
 H854 H 1.09452 0.59009 0.14018
 H855 H 1.05638 0.62792 0.11305
 C856 C 0.46140 0.15997 0.30126
 C857 C 0.48241 0.15912 0.28715
 C858 C 0.50358 0.17343 0.32099
 C859 C 0.50331 0.18728 0.36755
 C860 C 0.48208 0.18695 0.38224
 C861 C 0.46128 0.17356 0.34839
 C862 C 0.52470 0.17317 0.30965
 C863 C 0.52489 0.15763 0.26817
 C864 C 0.50383 0.14170 0.23604
 C865 C 0.48278 0.14363 0.24291
 C866 C 0.46270 0.12957 0.20630
 C867 C 0.46238 0.11274 0.16756
 C868 C 0.48178 0.10887 0.16456
 C869 C 0.50292 0.12348 0.19831
 C870 C 0.52171 0.11820 0.19552
 C871 C 0.51906 0.09862 0.16281
 C872 C 0.49795 0.08395 0.13075
 C873 C 0.47971 0.08967 0.13002
 H874 H 0.44445 0.14949 0.27844
 H875 H 0.51937 0.19756 0.39417
 H876 H 0.44462 0.17291 0.35976
 H877 H 0.54111 0.18458 0.33439
 H878 H 0.54194 0.15853 0.26237
 H879 H 0.44681 0.13110 0.20663
 H880 H 0.44635 0.10197 0.14122
 H881 H 0.53818 0.12795 0.22039
 H882 H 0.53341 0.09451 0.16384
 H883 H 0.46320 0.07815 0.10569
 C884 C 0.68800 0.50429 0.30875
 C885 C 0.66349 0.48652 0.29490
 C886 C 0.65191 0.46428 0.32657
 C887 C 0.66422 0.46050 0.37094
 C888 C 0.68784 0.47889 0.38628
 C889 C 0.69982 0.50056 0.35420
 C890 C 0.62769 0.44634 0.31580
 C891 C 0.61396 0.45075 0.27764
 C892 C 0.62409 0.47330 0.24814
 C893 C 0.64964 0.49064 0.25345
 C894 C 0.66025 0.51169 0.21815
 C895 C 0.64609 0.51658 0.18218
 C896 C 0.62080 0.50114 0.18126
 C897 C 0.60943 0.47925 0.21426
 C898 C 0.58368 0.46491 0.21470
 C899 C 0.56995 0.47229 0.18459
 C900 C 0.58124 0.49383 0.15203
 C901 C 0.60670 0.50791 0.14926
 H902 H 0.69807 0.52183 0.28755
 H903 H 0.65488 0.44378 0.39613
 H904 H 0.71799 0.51514 0.36613
 H905 H 0.61896 0.42904 0.33877
 H906 H 0.59534 0.43601 0.27199
 H907 H 0.67959 0.52475 0.21717
 H908 H 0.65498 0.53314 0.15644
 H909 H 0.57352 0.44853 0.24016
 H910 H 0.55030 0.46120 0.18755
 H911 H 0.61553 0.52480 0.12465
 C912 C 0.86749 0.30127 0.33934
 C913 C 0.86485 0.32031 0.31626
 C914 C 0.84562 0.32286 0.33776
 C915 C 0.82983 0.30694 0.38013
 C916 C 0.83327 0.28885 0.40356
 C917 C 0.85206 0.28601 0.38287
 C918 C 0.84273 0.34184 0.31847
 C919 C 0.85945 0.35944 0.28100
 C920 C 0.87954 0.35841 0.26033
 C921 C 0.88130 0.33762 0.27493
 C922 C 0.89952 0.33500 0.24806
 C923 C 0.91641 0.35286 0.21101
 C924 C 0.91635 0.37439 0.20082
 C925 C 0.89801 0.37757 0.22573
 C926 C 0.89961 0.40035 0.21734
 C927 C 0.91871 0.41912 0.18612
 C928 C 0.93655 0.41576 0.16111
 C929 C 0.93502 0.39316 0.16744
 H930 H 0.88199 0.29848 0.32672
 H931 H 0.81552 0.30939 0.39720
 H932 H 0.85515 0.27233 0.40150
 H933 H 0.82778 0.34358 0.33390
 H934 H 0.85594 0.37354 0.26830
 H935 H 0.90098 0.31906 0.25423
 H936 H 0.93017 0.35015 0.19162
 H937 H 0.88706 0.40471 0.23658
 H938 H 0.91965 0.43653 0.18197
 H939 H 0.94906 0.39066 0.14889
   
