data_POSCAR
  _audit_creation_date              2014-09-24
  _audit_creation_method            'ToBaCCo'
  _symmetry_space_group_name_H-M    'P1'
  _symmetry_Int_Tables_number       1
  _symmetry_cell_setting            triclinic
  loop_
  _symmetry_equiv_pos_as_xyz
 x,y,z
_cell_length_a 18.8193
_cell_length_b 18.7648
_cell_length_c 30.8427
_cell_angle_alpha 82.385300
_cell_angle_beta 98.161700
_cell_angle_gamma 86.492500
loop_
  _atom_site_label
  _atom_site_type_symbol
  _atom_site_fract_x
  _atom_site_fract_y
  _atom_site_fract_z
O1 O -0.07733 0.57927 0.94378
 O2 O -0.10273 0.42226 1.02403
 O3 O -0.09919 0.55965 1.02577
 O4 O -0.08107 0.43953 0.94176
 O5 O 0.03650 0.42441 0.96402
 O6 O 0.01853 0.54405 1.04776
 O7 O 0.01497 0.40712 1.04602
 O8 O 0.04023 0.56359 0.96602
 Cu9 Cu -0.10194 0.50174 0.98129
 Cu10 Cu 0.03947 0.48324 1.00789
 C11 C -0.01427 0.59866 0.94195
 C12 C -0.04809 0.38865 1.04885
 C13 C -0.04330 0.57169 1.05110
 C14 C -0.01925 0.41086 0.93918
 O15 O 0.59813 -0.02853 0.54748
 O16 O 0.43780 -0.04544 0.46748
 O17 O 0.57666 -0.04538 0.46474
 O18 O 0.46165 -0.02815 0.55026
 O19 O 0.44938 0.09033 0.53121
 O20 O 0.56493 0.07296 0.44536
 O21 O 0.42537 0.07290 0.44810
 O22 O 0.58645 0.08995 0.52843
 Cu23 Cu 0.51961 -0.04884 0.50913
 Cu24 Cu 0.50516 0.09349 0.48602
 C25 C 0.61923 0.03344 0.55164
 C26 C 0.40377 0.01080 0.44479
 C27 C 0.59146 0.01084 0.44120
 C28 C 0.43656 0.03390 0.55543
 C29 C -0.04196 -0.12258 0.22565
 C30 C -0.10066 -0.11846 0.25508
 C31 C -0.10140 -0.05924 0.27631
 C32 C -0.04224 -0.00896 0.26628
 C33 C -0.05275 -0.05074 0.19471
 C34 C -0.05386 0.00876 0.21542
 C35 C 0.02859 -0.11675 0.25645
 C36 C 0.02872 -0.05806 0.27829
 H37 H -0.13969 -0.15831 0.25761
 H38 H -0.04309 0.03917 0.28355
 H39 H -0.05665 -0.04760 0.15911
 H40 H 0.07648 -0.15237 0.25867
 C41 C 0.13633 0.04156 0.73066
 C42 C 0.13310 -0.02625 0.76391
 C43 C 0.07092 -0.02896 0.78176
 C44 C 0.01834 0.03884 0.76603
 C45 C 0.06744 0.04533 0.69730
 C46 C 0.00579 0.04348 0.71541
 C47 C 0.12465 0.10379 0.75716
 C48 C 0.06268 0.10324 0.77539
 H49 H 0.17656 -0.06851 0.77253
 H50 H -0.03233 0.03749 0.78046
 H51 H 0.06796 0.04915 0.66198
 H52 H 0.16399 0.14229 0.76343
 C53 C -0.05369 -0.29319 0.14334
 C54 C 0.00450 -0.29588 0.17731
 C55 C 0.00785 -0.24342 0.20558
 C56 C -0.04955 -0.38194 0.08392
 C57 C -0.10729 -0.18741 0.16717
 C58 C -0.11039 -0.23985 0.13894
 C59 C -0.05265 -0.34217 0.11131
 C60 C -0.04680 -0.18653 0.19980
 H61 H 0.04830 -0.33760 0.18130
 H62 H 0.05394 -0.24796 0.23115
 H63 H -0.15106 -0.14552 0.16243
 H64 H -0.15600 -0.23752 0.11290
 C65 C -0.06790 0.21549 0.13547
 C66 C -0.11127 0.16223 0.12195
 C67 C -0.10935 0.09620 0.14908
 C68 C -0.05685 0.33130 0.07875
 C69 C -0.02316 0.13759 0.20440
 C70 C -0.02499 0.20370 0.17713
 C71 C -0.06293 0.27936 0.10505
 C72 C -0.06361 0.08238 0.19006
 H73 H -0.14481 0.17081 0.08981
 H74 H -0.14228 0.05519 0.13748
 H75 H 0.01265 0.12865 0.23547
 H76 H 0.00900 0.24457 0.18786
 C77 C 0.30575 0.04167 0.64933
 C78 C 0.27727 -0.02266 0.66388
 C79 C 0.22535 -0.02287 0.69194
 C80 C 0.39205 0.03970 0.58900
 C81 C 0.23140 0.10568 0.69209
 C82 C 0.28338 0.10572 0.66383
 C83 C 0.35360 0.04201 0.61692
 C84 C 0.20178 0.04115 0.70680
 H85 H 0.29326 -0.07234 0.65221
 H86 H 0.20137 -0.07284 0.70041
 H87 H 0.21233 0.15684 0.70048
 H88 H 0.30417 0.15611 0.65205
 C89 C -0.19906 0.04131 0.63461
 C90 C -0.13795 0.00410 0.62499
 C91 C -0.07170 0.00418 0.65166
 C92 C -0.32095 0.03876 0.58081
 C93 C -0.12732 0.07801 0.69844
 C94 C -0.19390 0.07796 0.67153
 C95 C -0.26638 0.04126 0.60603
 C96 C -0.06547 0.04174 0.68840
 H97 H -0.14147 -0.02489 0.59671
 H98 H -0.02536 -0.02560 0.64363
 H99 H -0.12391 0.10770 0.72637
 H100 H -0.24104 0.10685 0.67928
 C101 C 0.02037 -0.21964 0.86176
 C102 C 0.06268 -0.22546 0.82844
 C103 C 0.07896 -0.16352 0.80253
 C104 C -0.00411 -0.33763 0.91289
 C105 C 0.01008 -0.08922 0.84285
 C106 C -0.00609 -0.15141 0.86884
 C107 C 0.00609 -0.28373 0.88935
 C108 C 0.05340 -0.09449 0.80964
 H109 H 0.08330 -0.27794 0.82254
 H110 H 0.11085 -0.16993 0.77652
 H111 H -0.01033 -0.03725 0.84933
 H112 H -0.03874 -0.14623 0.89467
 C113 C 0.00822 0.26492 0.85464
 C114 C -0.01208 0.19464 0.86409
 C115 C 0.00420 0.14231 0.83780
 C116 C -0.01193 0.36081 0.90835
 C117 C 0.06004 0.23077 0.79206
 C118 C 0.04366 0.28298 0.81830
 C119 C -0.00387 0.31749 0.88346
 C120 C 0.04148 0.15945 0.80189
 H121 H -0.03927 0.17992 0.89227
 H122 H -0.01047 0.08811 0.84652
 H123 H 0.08741 0.24632 0.76410
 H124 H 0.05956 0.33718 0.81058
 C125 C -0.26169 -0.01760 0.35826
 C126 C -0.23592 0.03984 0.33278
 C127 C -0.18318 0.02649 0.30639
 C128 C -0.35884 0.00365 0.41045
 C129 C -0.18164 -0.10173 0.33117
 C130 C -0.23418 -0.08830 0.35747
 C131 C -0.31520 -0.00470 0.38605
 C132 C -0.15570 -0.04453 0.30518
 H133 H -0.25671 0.09483 0.33319
 H134 H -0.16510 0.07158 0.28631
 H135 H -0.16082 -0.15692 0.33153
 H136 H -0.25323 -0.13314 0.37732
 C137 C 0.21842 -0.01742 0.36482
 C138 C 0.20358 -0.08807 0.35948
 C139 C 0.14121 -0.10118 0.33234
 C140 C 0.33874 0.00360 0.41569
 C141 C 0.10688 0.02706 0.31650
 C142 C 0.16951 0.04010 0.34370
 C143 C 0.28377 -0.00471 0.39220
 C144 C 0.09257 -0.04368 0.30961
 H145 H 0.24045 -0.13317 0.37619
 H146 H 0.13121 -0.15663 0.32939
 H147 H 0.07085 0.07269 0.30042
 H148 H 0.18004 0.09506 0.34797
   
