data_POSCAR
  _audit_creation_date              2014-09-24
  _audit_creation_method            'ToBaCCo'
  _symmetry_space_group_name_H-M    'P1'
  _symmetry_Int_Tables_number       1
  _symmetry_cell_setting            triclinic
  loop_
  _symmetry_equiv_pos_as_xyz
 x,y,z
_cell_length_a 43.3391
_cell_length_b 43.9818
_cell_length_c 41.2745
_cell_angle_alpha 89.735500
_cell_angle_beta 89.640300
_cell_angle_gamma 104.753100
loop_
  _atom_site_label
  _atom_site_type_symbol
  _atom_site_fract_x
  _atom_site_fract_y
  _atom_site_fract_z
C1 C -0.05084 0.31992 0.02588
 C2 C -0.06488 0.32252 -0.00422
 C3 C -0.05026 0.31939 -0.03402
 C4 C -0.01883 0.31471 -0.03373
 C5 C -0.00345 0.31285 -0.00361
 C6 C -0.01977 0.31445 0.02618
 C7 C -0.00540 0.30814 0.05513
 C8 C 0.02563 0.30497 0.05555
 C9 C 0.04286 0.30500 0.02674
 C10 C 0.02786 0.30772 -0.00324
 C11 C -0.00301 0.30970 -0.06235
 C12 C 0.02816 0.30691 -0.06201
 C13 C 0.04402 0.30512 -0.03279
 C14 C 0.07594 0.30189 -0.03218
 C15 C 0.09085 0.30173 -0.00213
 C16 C 0.07461 0.30206 0.02710
 H17 H -0.01791 0.30493 0.07804
 H18 H 0.03577 0.30211 0.07888
 H19 H -0.01429 0.30742 -0.08569
 H20 H 0.03948 0.30615 -0.08526
 H21 H -0.08747 0.32888 -0.00456
 H22 H 0.11489 0.29862 -0.00127
 C23 C 0.44984 0.83634 0.53357
 C24 C 0.43408 0.83856 0.50450
 C25 C 0.44654 0.83258 0.47446
 C26 C 0.47608 0.82415 0.47338
 C27 C 0.49309 0.82328 0.50252
 C28 C 0.48026 0.83002 0.53257
 C29 C 0.49813 0.83022 0.56090
 C30 C 0.52680 0.82155 0.56020
 C31 C 0.53892 0.81270 0.53107
 C32 C 0.52248 0.81447 0.50183
 C33 C 0.48861 0.81549 0.44429
 C34 C 0.51773 0.80762 0.44353
 C35 C 0.53494 0.80664 0.47204
 C36 C 0.56416 0.79779 0.47167
 C37 C 0.57991 0.79591 0.50081
 C38 C 0.56719 0.80227 0.53048
 H39 H 0.49011 0.83711 0.58395
 H40 H 0.53947 0.82196 0.58277
 H41 H 0.47599 0.81415 0.42168
 H42 H 0.52639 0.80191 0.42028
 H43 H 0.41085 0.84357 0.50538
 H44 H 0.60153 0.78777 0.50053
 C45 C 1.04679 0.65819 0.02970
 C46 C 1.05965 0.65031 0.00065
 C47 C 1.04547 0.65268 -0.02950
 C48 C 1.01516 0.65961 -0.02987
 C49 C 1.00192 0.66811 -0.00079
 C50 C 1.01808 0.66807 0.02900
 C51 C 1.00534 0.67847 0.05706
 C52 C 0.97638 0.68657 0.05639
 C53 C 0.95955 0.68600 0.02735
 C54 C 0.97258 0.67707 -0.00160
 C55 C 0.99684 0.65642 -0.05824
 C56 C 0.96810 0.66491 -0.05897
 C57 C 0.95632 0.67698 -0.03136
 C58 C 0.92752 0.68684 -0.03226
 C59 C 0.91409 0.69353 -0.00291
 C60 C 0.92986 0.69380 0.02656
 H61 H 1.01751 0.68065 0.07998
 H62 H 0.96734 0.69327 0.07902
 H63 H 1.00431 0.64674 -0.08010
 H64 H 0.95487 0.66127 -0.08137
 H65 H 1.08255 0.64467 0.00157
 H66 H 0.89222 0.70125 -0.00308
 C67 C 0.41575 0.17790 0.46610
 C68 C 0.39994 0.17939 0.49543
 C69 C 0.41447 0.17731 0.52520
 C70 C 0.44552 0.17244 0.52588
 C71 C 0.46157 0.16980 0.49636
 C72 C 0.44688 0.17319 0.46636
 C73 C 0.46371 0.17185 0.43749
 C74 C 0.49429 0.16725 0.43795
 C75 C 0.50879 0.16216 0.46721
 C76 C 0.49247 0.16406 0.49684
 C77 C 0.46094 0.17017 0.55526
 C78 C 0.49159 0.16582 0.55576
 C79 C 0.50752 0.16168 0.52697
 C80 C 0.53844 0.15624 0.52726
 C81 C 0.55314 0.15248 0.49781
 C82 C 0.53954 0.15635 0.46790
 H83 H 0.45350 0.17453 0.41413
 H84 H 0.50626 0.16794 0.41487
 H85 H 0.44956 0.17188 0.57833
 H86 H 0.50241 0.16582 0.57921
 H87 H 0.37626 0.18342 0.49508
 H88 H 0.57660 0.14794 0.49819
 C89 C 0.69048 -0.07035 0.02821
 C90 C 0.69127 -0.08521 -0.00173
 C91 C 0.68899 -0.07002 -0.03131
 C92 C 0.68237 -0.03997 -0.03080
 C93 C 0.68043 -0.02489 -0.00081
 C94 C 0.68399 -0.04026 0.02874
 C95 C 0.67837 -0.02623 0.05805
 C96 C 0.67235 0.00328 0.05854
 C97 C 0.67106 0.01992 0.02972
 C98 C 0.67412 0.00538 -0.00032
 C99 C 0.67480 -0.02584 -0.05929
 C100 C 0.66877 0.00369 -0.05882
 C101 C 0.67008 0.02064 -0.02984
 C102 C 0.66472 0.05127 -0.02925
 C103 C 0.66177 0.06499 0.00093
 C104 C 0.66531 0.05014 0.03018
 H105 H 0.67767 -0.03829 0.08103
 H106 H 0.66794 0.01257 0.08185
 H107 H 0.67246 -0.03790 -0.08227
 H108 H 0.66206 0.01260 -0.08145
 H109 H 0.69762 -0.10753 -0.00210
 H110 H 0.65886 0.08874 0.00188
 C111 C 0.16904 0.53819 0.47136
 C112 C 0.16867 0.55365 0.50084
 C113 C 0.17296 0.53973 0.53050
 C114 C 0.17756 0.50887 0.53072
 C115 C 0.17674 0.49236 0.50107
 C116 C 0.17239 0.50703 0.47133
 C117 C 0.17095 0.48999 0.44242
 C118 C 0.17468 0.45949 0.44248
 C119 C 0.18000 0.44479 0.47147
 C120 C 0.18067 0.46120 0.50111
 C121 C 0.18363 0.49425 0.55954
 C122 C 0.18651 0.46346 0.55968
 C123 C 0.18518 0.44649 0.53078
 C124 C 0.18802 0.41511 0.53068
 C125 C 0.18730 0.39936 0.50125
 C126 C 0.18403 0.41385 0.47172
 H127 H 0.16652 0.49993 0.41942
 H128 H 0.17292 0.44738 0.41955
 H129 H 0.18641 0.50633 0.58245
 H130 H 0.18994 0.45322 0.58282
 H131 H 0.16567 0.57740 0.50058
 H132 H 0.19037 0.37563 0.50128
 C133 C 0.30702 0.94539 -0.02547
 C134 C 0.31148 0.93155 0.00438
 C135 C 0.31309 0.94760 0.03371
 C136 C 0.31121 0.97917 0.03375
 C137 C 0.30550 0.99359 0.00438
 C138 C 0.30263 0.97655 -0.02520
 C139 C 0.29356 0.99062 -0.05309
 C140 C 0.29184 1.02173 -0.05314
 C141 C 0.29645 1.03953 -0.02465
 C142 C 0.30231 1.02507 0.00468
 C143 C 0.31573 0.99691 0.06232
 C144 C 0.31337 1.02783 0.06244
 C145 C 0.30536 1.04212 0.03422
 C146 C 0.30245 1.07367 0.03424
 C147 C 0.29896 1.08795 0.00444
 C148 C 0.29548 1.07142 -0.02467
 H149 H 0.28723 0.97777 -0.07531
 H150 H 0.28656 1.03153 -0.07589
 H151 H 0.32186 0.98724 0.08483
 H152 H 0.31864 1.04061 0.08488
 H153 H 0.31483 0.90797 0.00507
 H154 H 0.29649 1.11189 0.00390
 C155 C 0.82639 0.45084 0.52778
 C156 C 0.82908 0.43681 0.49787
 C157 C 0.82566 0.45165 0.46853
 C158 C 0.81977 0.48187 0.46894
 C159 C 0.81672 0.49637 0.49904
 C160 C 0.82071 0.48115 0.52852
 C161 C 0.81935 0.49684 0.55790
 C162 C 0.81183 0.52576 0.55851
 C163 C 0.80579 0.54033 0.52973
 C164 C 0.80928 0.52602 0.49967
 C165 C 0.81733 0.49822 0.44011
 C166 C 0.80983 0.52714 0.44074
 C167 C 0.80480 0.54103 0.47025
 C168 C 0.79581 0.56977 0.47110
 C169 C 0.79239 0.58357 0.50093
 C170 C 0.79680 0.56909 0.53018
 H171 H 0.82419 0.48700 0.58080
 H172 H 0.81099 0.53667 0.58183
 H173 H 0.82128 0.48888 0.41669
 H174 H 0.80820 0.53859 0.41779
 H175 H 0.83244 0.41320 0.49744
 H176 H 0.78461 0.60514 0.50142
 O177 O 0.27715 0.24034 0.21163
 O178 O 0.25505 0.29281 0.27198
 O179 O 0.23899 0.27750 0.21225
 O180 O 0.29296 0.25530 0.27139
 O181 O 0.33237 0.29440 0.25405
 O182 O 0.27831 0.31688 0.19532
 O183 O 0.29470 0.33177 0.25482
 O184 O 0.31626 0.27965 0.19414
 Cu185 Cu 0.26209 0.26257 0.24357
 Cu186 Cu 0.30937 0.30955 0.22282
 C187 C 0.30038 0.25113 0.19237
 C188 C 0.27122 0.32125 0.27384
 C189 C 0.24943 0.30100 0.19362
 C190 C 0.32187 0.27113 0.27295
 O191 O 0.70239 0.74393 0.27428
 O192 O 0.74722 0.71116 0.21338
 O193 O 0.74084 0.70729 0.27610
 O194 O 0.70903 0.74791 0.21118
 O195 O 0.74980 0.78933 0.21685
 O196 O 0.78196 0.74845 0.28135
 O197 O 0.78815 0.75252 0.21845
 O198 O 0.74351 0.78503 0.27974
 Cu199 Cu 0.72072 0.72347 0.24323
 Cu200 Cu 0.76995 0.77299 0.24960
 C201 C 0.71541 0.76992 0.28773
 C202 C 0.77528 0.72631 0.20532
 C203 C 0.76676 0.72091 0.28992
 C204 C 0.72414 0.77551 0.20272
 O205 O 0.79118 0.26514 0.22355
 O206 O 0.74493 0.22789 0.29473
 O207 O 0.75874 0.20840 0.23723
 O208 O 0.77723 0.28395 0.28034
 O209 O 0.73359 0.29389 0.26066
 O210 O 0.71528 0.21854 0.21730
 O211 O 0.70121 0.23691 0.27393
 O212 O 0.74753 0.27452 0.20302
 Cu213 Cu 0.77234 0.24521 0.26097
 Cu214 Cu 0.72012 0.25720 0.23674
 C215 C 0.77698 0.27535 0.20074
 C216 C 0.71538 0.22665 0.29671
 C217 C 0.73427 0.20089 0.21927
 C218 C 0.75810 0.30146 0.27856
 O219 O 0.27516 0.77896 0.22322
 O220 O 0.25855 0.70260 0.26581
 O221 O 0.24538 0.72253 0.20831
 O222 O 0.28883 0.75991 0.27988
 O223 O 0.24392 0.76676 0.30048
 O224 O 0.20050 0.72973 0.22861
 O225 O 0.21373 0.71043 0.28534
 O226 O 0.23056 0.78694 0.24314
 Cu227 Cu 0.27142 0.74005 0.24237
 Cu228 Cu 0.21774 0.74941 0.26636
 C229 C 0.25531 0.79571 0.22532
 C230 C 0.23363 0.69373 0.28340
 C231 C 0.21573 0.72050 0.20590
 C232 C 0.27364 0.76902 0.30268
 O233 O 0.77564 0.27947 0.71493
 O234 O 0.75411 0.20301 0.75750
 O235 O 0.74095 0.22461 0.70064
 O236 O 0.78934 0.25867 0.77090
 O237 O 0.74695 0.26981 0.79292
 O238 O 0.69847 0.23546 0.72280
 O239 O 0.71204 0.21517 0.77883
 O240 O 0.73331 0.29117 0.73622
 Cu241 Cu 0.76918 0.24009 0.73384
 Cu242 Cu 0.71855 0.25428 0.75983
 C243 C 0.75763 0.29804 0.71766
 C244 C 0.72979 0.19638 0.77612
 C245 C 0.71175 0.22490 0.69943
 C246 C 0.77610 0.26931 0.79425
 O247 O 0.29422 0.73663 0.74336
 O248 O 0.21597 0.70913 0.78338
 O249 O 0.24014 0.69868 0.72801
 O250 O 0.26911 0.74693 0.79961
 O251 O 0.25485 0.78706 0.77748
 O252 O 0.22636 0.73900 0.70563
 O253 O 0.20080 0.74887 0.76170
 O254 O 0.27941 0.77674 0.72203
 Cu255 Cu 0.25656 0.71895 0.76577
 Cu256 Cu 0.23869 0.76686 0.73959
 C257 C 0.29992 0.76084 0.72513
 C258 C 0.19520 0.72466 0.77994
 C259 C 0.22907 0.71095 0.70432
 C260 C 0.26616 0.77489 0.80109
 O261 O 0.29915 0.32698 0.74410
 O262 O 0.31919 0.27173 0.80274
 O263 O 0.33527 0.28839 0.74313
 O264 O 0.28300 0.31080 0.80406
 O265 O 0.24238 0.27337 0.78686
 O266 O 0.29488 0.25052 0.72624
 O267 O 0.27832 0.23426 0.78607
 O268 O 0.25859 0.28940 0.72702
 Cu269 Cu 0.31316 0.30324 0.77531
 Cu270 Cu 0.26448 0.25812 0.75483
 C271 C 0.27564 0.31754 0.72523
 C272 C 0.30214 0.24360 0.80457
 C273 C 0.32399 0.26576 0.72408
 C274 C 0.25379 0.29590 0.80602
 O275 O 0.74705 0.78539 0.71883
 O276 O 0.78757 0.75113 0.78214
 O277 O 0.78373 0.74719 0.71920
 O278 O 0.75056 0.78945 0.78190
 O279 O 0.70856 0.74896 0.78699
 O280 O 0.74173 0.70676 0.72441
 O281 O 0.74515 0.71108 0.78745
 O282 O 0.70488 0.74512 0.72397
 Cu283 Cu 0.77146 0.77235 0.75008
 Cu284 Cu 0.72084 0.72393 0.75608
 C285 C 0.71907 0.77090 0.71035
 C286 C 0.77316 0.72549 0.79588
 C287 C 0.76826 0.71979 0.71090
 C288 C 0.72407 0.77627 0.79545
 C289 C 0.31680 0.12324 0.06428
 C290 C 0.31243 0.14161 0.09074
 C291 C 0.29173 0.12782 0.11635
 C292 C 0.27642 0.09567 0.11540
 C293 C 0.28085 0.07750 0.08891
 C294 C 0.30094 0.09101 0.06283
 C295 C 0.28609 0.14655 0.14206
 C296 C 0.30086 0.17891 0.14237
 C297 C 0.32223 0.19247 0.11712
 C298 C 0.32793 0.17373 0.09153
 C299 C 0.33716 0.22470 0.11758
 C300 C 0.33049 0.24355 0.14242
 C301 C 0.30868 0.23057 0.16723
 C302 C 0.29419 0.19806 0.16723
 H303 H 0.33267 0.13410 0.04469
 H304 H 0.26031 0.08474 0.13474
 H305 H 0.26717 0.05320 0.08811
 H306 H 0.26983 0.13606 0.16150
 H307 H 0.34398 0.18427 0.07195
 H308 H 0.35370 0.23543 0.09849
 H309 H 0.34202 0.26848 0.14182
 H310 H 0.27748 0.18771 0.18633
 C311 C 0.80554 0.61376 0.56932
 C312 C 0.79632 0.62804 0.59683
 C313 C 0.76983 0.61162 0.61562
 C314 C 0.75339 0.58103 0.60692
 C315 C 0.76272 0.56703 0.57953
 C316 C 0.78875 0.58327 0.56056
 C317 C 0.75983 0.62619 0.64245
 C318 C 0.77589 0.65704 0.65069
 C319 C 0.80274 0.67325 0.63231
 C320 C 0.81283 0.65864 0.60553
 C321 C 0.81880 0.70401 0.64076
 C322 C 0.80798 0.71886 0.66674
 C323 C 0.78086 0.70325 0.68474
 C324 C 0.76516 0.67212 0.67675
 H325 H 0.82549 0.62637 0.55448
 H326 H 0.73303 0.56813 0.62101
 H327 H 0.74930 0.54366 0.57275
 H328 H 0.73930 0.61370 0.65661
 H329 H 0.83322 0.67121 0.59122
 H330 H 0.83949 0.71675 0.62703
 H331 H 0.82055 0.74282 0.67235
 H332 H 0.74430 0.65974 0.69049
 C333 C 0.68629 0.88260 0.06194
 C334 C 0.69548 0.86788 0.08916
 C335 C 0.71842 0.88552 0.11060
 C336 C 0.73144 0.91761 0.10473
 C337 C 0.72186 0.93219 0.07788
 C338 C 0.69893 0.91504 0.05627
 C339 C 0.72820 0.87077 0.13742
 C340 C 0.71509 0.83863 0.14329
 C341 C 0.69161 0.82110 0.12227
 C342 C 0.68206 0.83580 0.09525
 C343 C 0.67824 0.78909 0.12854
 C344 C 0.68834 0.77444 0.15511
 C345 C 0.71217 0.79149 0.17574
 C346 C 0.72527 0.82370 0.16976
 H347 H 0.66862 0.86896 0.04562
 H348 H 0.74927 0.93142 0.12075
 H349 H 0.73321 0.95681 0.07345
 H350 H 0.74606 0.88427 0.15366
 H351 H 0.66427 0.82227 0.07896
 H352 H 0.66014 0.77531 0.11277
 H353 H 0.67791 0.74959 0.15913
 H354 H 0.74352 0.83716 0.18562
 C355 C 0.21963 0.40700 0.57928
 C356 C 0.22432 0.38876 0.60594
 C357 C 0.20112 0.36061 0.61365
 C358 C 0.17336 0.35158 0.59507
 C359 C 0.16886 0.36992 0.56870
 C360 C 0.19191 0.39764 0.56055
 C361 C 0.20629 0.34162 0.63940
 C362 C 0.23438 0.35035 0.65756
 C363 C 0.25721 0.37887 0.65039
 C364 C 0.25204 0.39789 0.62463
 C365 C 0.28508 0.38764 0.66885
 C366 C 0.29065 0.36804 0.69368
 C367 C 0.26854 0.33922 0.70045
 C368 C 0.24022 0.33073 0.68246
 H369 H 0.23770 0.42813 0.57265
 H370 H 0.15534 0.33012 0.60064
 H371 H 0.14752 0.36227 0.55426
 H372 H 0.18868 0.31984 0.64499
 H373 H 0.26976 0.41955 0.61888
 H374 H 0.30277 0.40947 0.66381
 H375 H 0.31266 0.37517 0.70714
 H376 H 0.22287 0.30867 0.68755
 C377 C 0.89780 0.30854 0.05496
 C378 C 0.87959 0.30935 0.08292
 C379 C 0.89459 0.32344 0.11132
 C380 C 0.92711 0.33898 0.11028
 C381 C 0.94489 0.33919 0.08182
 C382 C 0.93103 0.32237 0.05426
 C383 C 0.87690 0.32133 0.14026
 C384 C 0.84424 0.30590 0.14078
 C385 C 0.82883 0.29412 0.11161
 C386 C 0.84665 0.29561 0.08299
 C387 C 0.79596 0.28012 0.11173
 C388 C 0.77874 0.27620 0.14076
 C389 C 0.79422 0.28562 0.17018
 C390 C 0.82686 0.30112 0.17004
 H391 H 0.88611 0.29565 0.03420
 H392 H 0.93882 0.35099 0.13146
 H393 H 0.96963 0.35253 0.08147
 H394 H 0.88862 0.33113 0.16239
 H395 H 0.83500 0.28551 0.06092
 H396 H 0.78375 0.27135 0.08952
 H397 H 0.75363 0.26403 0.14045
 H398 H 0.83882 0.30862 0.19272
 C399 C 0.42708 0.81101 0.58590
 C400 C 0.40679 0.80890 0.61285
 C401 C 0.39036 0.83242 0.61802
 C402 C 0.39577 0.85843 0.59700
 C403 C 0.41632 0.86050 0.57036
 C404 C 0.43181 0.83664 0.56432
 C405 C 0.36796 0.82896 0.64337
 C406 C 0.36166 0.80215 0.66339
 C407 C 0.37928 0.77944 0.65915
 C408 C 0.40181 0.78301 0.63398
 C409 C 0.37318 0.75286 0.67937
 C410 C 0.34856 0.74782 0.70232
 C411 C 0.32959 0.76926 0.70545
 C412 C 0.33703 0.79697 0.68661
 H413 H 0.43831 0.79210 0.58098
 H414 H 0.38352 0.87677 0.60068
 H415 H 0.41952 0.88036 0.55393
 H416 H 0.35469 0.84656 0.64679
 H417 H 0.41469 0.76515 0.63020
 H418 H 0.38667 0.73539 0.67664
 H419 H 0.34341 0.72633 0.71653
 H420 H 0.32273 0.81380 0.68893
 C421 C 0.09805 0.67521 0.05992
 C422 C 0.11606 0.67716 0.08823
 C423 C 0.10143 0.66299 0.11716
 C424 C 0.06964 0.64503 0.11654
 C425 C 0.05217 0.64225 0.08784
 C426 C 0.06577 0.65850 0.05971
 C427 C 0.11868 0.66742 0.14619
 C428 C 0.15056 0.68524 0.14638
 C429 C 0.16577 0.69737 0.11691
 C430 C 0.14833 0.69355 0.08812
 C431 C 0.19801 0.71386 0.11684
 C432 C 0.21472 0.71959 0.14588
 C433 C 0.19928 0.70950 0.17546
 C434 C 0.16733 0.69184 0.17560
 H435 H 0.10895 0.68730 0.03814
 H436 H 0.05822 0.63336 0.13828
 H437 H 0.02768 0.62824 0.08781
 H438 H 0.10718 0.65745 0.16862
 H439 H 0.15973 0.70377 0.06573
 H440 H 0.21010 0.72298 0.09443
 H441 H 0.23930 0.73339 0.14539
 H442 H 0.15545 0.68382 0.19843
 C443 C 0.58872 0.17860 0.55746
 C444 C 0.60790 0.18122 0.58500
 C445 C 0.59597 0.16380 0.61325
 C446 C 0.56583 0.14229 0.61252
 C447 C 0.54740 0.13879 0.58435
 C448 C 0.55809 0.15790 0.55706
 C449 C 0.61433 0.16831 0.64162
 C450 C 0.64488 0.18922 0.64162
 C451 C 0.65755 0.20479 0.61253
 C452 C 0.63880 0.20110 0.58462
 C453 C 0.68866 0.22425 0.61192
 C454 C 0.70676 0.22917 0.64010
 C455 C 0.69379 0.21540 0.66949
 C456 C 0.66292 0.19519 0.67019
 H457 H 0.59754 0.19292 0.53626
 H458 H 0.55658 0.12811 0.63366
 H459 H 0.52450 0.12165 0.58408
 H460 H 0.60486 0.15570 0.66363
 H461 H 0.64822 0.21382 0.56263
 H462 H 0.69881 0.23605 0.58975
 H463 H 0.73045 0.24499 0.63930
 H464 H 0.65299 0.18440 0.69290
 C465 C 0.68746 0.07232 0.91790
 C466 C 0.68868 0.09299 0.89161
 C467 C 0.66627 0.11131 0.88974
 C468 C 0.64272 0.10826 0.91374
 C469 C 0.64184 0.08793 0.93993
 C470 C 0.66412 0.06962 0.94252
 C471 C 0.66839 0.13321 0.86455
 C472 C 0.69314 0.13763 0.84162
 C473 C 0.71522 0.11893 0.84297
 C474 C 0.71267 0.09647 0.86780
 C475 C 0.74014 0.12384 0.82012
 C476 C 0.74409 0.14810 0.79721
 C477 C 0.72298 0.16765 0.79656
 C478 C 0.69694 0.16152 0.81825
 H479 H 0.70582 0.05968 0.92008
 H480 H 0.62532 0.12209 0.91261
 H481 H 0.62338 0.08631 0.95816
 H482 H 0.65147 0.14760 0.86348
 H483 H 0.72990 0.08244 0.86917
 H484 H 0.75722 0.10963 0.82068
 H485 H 0.76433 0.15226 0.78077
 H486 H 0.68041 0.17633 0.81803
 C487 C 0.19357 0.56321 0.41948
 C488 C 0.19435 0.58411 0.39346
 C489 C 0.16877 0.59828 0.38920
 C490 C 0.14241 0.59049 0.41031
 C491 C 0.14195 0.56984 0.43622
 C492 C 0.16761 0.55636 0.44125
 C493 C 0.17045 0.62086 0.36469
 C494 C 0.19761 0.62985 0.34472
 C495 C 0.22270 0.61494 0.34824
 C496 C 0.22081 0.59198 0.37244
 C497 C 0.24978 0.62405 0.32820
 C498 C 0.25269 0.64873 0.30598
 C499 C 0.22852 0.66469 0.30329
 C500 C 0.20060 0.65444 0.32216
 H501 H 0.21366 0.55323 0.42363
 H502 H 0.12259 0.60107 0.40734
 H503 H 0.12188 0.56494 0.45291
 H504 H 0.15112 0.63219 0.36189
 H505 H 0.24037 0.58101 0.37557
 H506 H 0.26916 0.61275 0.33042
 H507 H 0.27441 0.65606 0.29173
 H508 H 0.18168 0.66640 0.32027
 C509 C 0.29382 0.89488 0.94551
 C510 C 0.29405 0.87718 0.91737
 C511 C 0.30739 0.89231 0.88842
 C512 C 0.32233 0.92454 0.88877
 C513 C 0.32314 0.94180 0.91726
 C514 C 0.30756 0.92769 0.94575
 C515 C 0.30549 0.87499 0.85967
 C516 C 0.29116 0.84253 0.85979
 C517 C 0.27976 0.82710 0.88931
 C518 C 0.28085 0.84457 0.91777
 C519 C 0.26692 0.79445 0.88977
 C520 C 0.26429 0.77735 0.86108
 C521 C 0.27376 0.79267 0.83140
 C522 C 0.28756 0.82525 0.83088
 H523 H 0.28170 0.88307 0.96687
 H524 H 0.33368 0.93637 0.86708
 H525 H 0.33633 0.96628 0.91696
 H526 H 0.31494 0.88677 0.83723
 H527 H 0.27126 0.83282 0.94019
 H528 H 0.25840 0.78223 0.91222
 H529 H 0.25340 0.75228 0.86187
 H530 H 0.29508 0.83710 0.80798
 C531 C 0.79926 0.42642 0.41797
 C532 C 0.79819 0.40651 0.39128
 C533 C 0.82404 0.39310 0.38516
 C534 C 0.85096 0.40075 0.40509
 C535 C 0.85189 0.42074 0.43147
 C536 C 0.82602 0.43351 0.43829
 C537 C 0.82216 0.37153 0.35986
 C538 C 0.79467 0.36300 0.34077
 C539 C 0.76935 0.37733 0.34607
 C540 C 0.77131 0.39908 0.37123
 C541 C 0.74202 0.36887 0.32677
 C542 C 0.73909 0.34531 0.30353
 C543 C 0.76343 0.32979 0.29916
 C544 C 0.79159 0.33946 0.31729
 H545 H 0.77894 0.43570 0.42353
 H546 H 0.87101 0.39077 0.40070
 H547 H 0.87260 0.42580 0.44702
 H548 H 0.84169 0.36072 0.35565
 H549 H 0.75159 0.40955 0.37574
 H550 H 0.72249 0.37977 0.33033
 H551 H 0.71716 0.33835 0.28991
 H552 H 0.81063 0.32782 0.31406
 C553 C 0.12544 0.31460 0.93600
 C554 C 0.14396 0.30872 0.90997
 C555 C 0.13052 0.28510 0.88737
 C556 C 0.09865 0.26799 0.89109
 C557 C 0.08034 0.27394 0.91717
 C558 C 0.09335 0.29751 0.93984
 C559 C 0.14934 0.27857 0.86183
 C560 C 0.18147 0.29529 0.85875
 C561 C 0.19473 0.31921 0.88115
 C562 C 0.17588 0.32583 0.90654
 C563 C 0.22680 0.33587 0.87804
 C564 C 0.24579 0.32857 0.85332
 C565 C 0.23308 0.30451 0.83118
 C566 C 0.20071 0.28815 0.83389
 H567 H 0.13596 0.33276 0.95326
 H568 H 0.08806 0.24953 0.87422
 H569 H 0.05634 0.25919 0.92030
 H570 H 0.13912 0.26023 0.84465
 H571 H 0.18616 0.34402 0.92386
 H572 H 0.23730 0.35432 0.89496
 H573 H 0.27059 0.34158 0.85180
 H574 H 0.19056 0.26957 0.81697
 C575 C 0.60777 0.80666 0.43016
 C576 C 0.62234 0.79692 0.40301
 C577 C 0.60717 0.76857 0.38731
 C578 C 0.57754 0.75067 0.39883
 C579 C 0.56329 0.76051 0.42593
 C580 C 0.57826 0.78852 0.44170
 C581 C 0.62208 0.75831 0.36072
 C582 C 0.65208 0.77591 0.34978
 C583 C 0.66703 0.80444 0.36524
 C584 C 0.65202 0.81482 0.39167
 C585 C 0.69701 0.82191 0.35430
 C586 C 0.71239 0.81095 0.32872
 C587 C 0.69807 0.78234 0.31348
 C588 C 0.66763 0.76513 0.32396
 H589 H 0.61946 0.82814 0.44260
 H590 H 0.56562 0.72886 0.38715
 H591 H 0.54072 0.74610 0.43490
 H592 H 0.61057 0.73644 0.34887
 H593 H 0.66364 0.83658 0.40367
 H594 H 0.70877 0.84386 0.36581
 H595 H 0.73577 0.82473 0.32116
 H596 H 0.65628 0.74304 0.31246
 C597 C 0.87978 0.68387 0.93498
 C598 C 0.86537 0.69207 0.90707
 C599 C 0.88445 0.71035 0.88254
 C600 C 0.91766 0.71920 0.88585
 C601 C 0.93188 0.71055 0.91346
 C602 C 0.91320 0.69289 0.93850
 C603 C 0.87000 0.71992 0.85537
 C604 C 0.83671 0.71113 0.85224
 C605 C 0.81772 0.69180 0.87616
 C606 C 0.83215 0.68253 0.90350
 C607 C 0.78452 0.68240 0.87253
 C608 C 0.77018 0.69263 0.84584
 C609 C 0.78873 0.71277 0.82256
 C610 C 0.82207 0.72169 0.82574
 H611 H 0.86498 0.67002 0.95380
 H612 H 0.93264 0.73330 0.86734
 H613 H 0.95751 0.71899 0.91587
 H614 H 0.88462 0.73444 0.83684
 H615 H 0.81752 0.66817 0.92212
 H616 H 0.76962 0.66743 0.89052
 H617 H 0.74443 0.68551 0.84391
 H618 H 0.83658 0.73697 0.80771
 C619 C 0.40973 0.20912 0.41664
 C620 C 0.39157 0.21489 0.39032
 C621 C 0.36208 0.19336 0.38337
 C622 C 0.35167 0.16609 0.40234
 C623 C 0.36982 0.16062 0.42852
 C624 C 0.39880 0.18210 0.43598
 C625 C 0.34312 0.19977 0.35810
 C626 C 0.35313 0.22753 0.33978
 C627 C 0.38293 0.24870 0.34622
 C628 C 0.40200 0.24222 0.37139
 C629 C 0.39294 0.27628 0.32768
 C630 C 0.37335 0.28320 0.30345
 C631 C 0.34330 0.26275 0.29736
 C632 C 0.33353 0.23471 0.31546
 H633 H 0.43186 0.22599 0.42274
 H634 H 0.32916 0.14935 0.39735
 H635 H 0.36097 0.13986 0.44345
 H636 H 0.32033 0.18343 0.35308
 H637 H 0.42465 0.25869 0.37660
 H638 H 0.41575 0.29272 0.33218
 H639 H 0.38150 0.30494 0.28988
 H640 H 0.31052 0.21861 0.31089
 C641 C 0.68429 0.88328 0.93474
 C642 C 0.69323 0.86882 0.90724
 C643 C 0.71526 0.88684 0.88475
 C644 C 0.72733 0.91915 0.88973
 C645 C 0.71801 0.93347 0.91692
 C646 C 0.69634 0.91583 0.93983
 C647 C 0.72520 0.87222 0.85790
 C648 C 0.71314 0.83982 0.85306
 C649 C 0.69033 0.82199 0.87501
 C650 C 0.68064 0.83655 0.90202
 C651 C 0.67782 0.78976 0.86976
 C652 C 0.68824 0.77516 0.84338
 C653 C 0.71160 0.79243 0.82193
 C654 C 0.72376 0.82490 0.82680
 H655 H 0.66746 0.86927 0.95195
 H656 H 0.74438 0.93330 0.87285
 H657 H 0.72886 0.95823 0.92070
 H658 H 0.74248 0.88600 0.84093
 H659 H 0.66348 0.82275 0.91909
 H660 H 0.66021 0.77576 0.88624
 H661 H 0.67854 0.75012 0.84023
 H662 H 0.74160 0.83850 0.81027
 C663 C 0.21244 0.40771 0.42025
 C664 C 0.21751 0.38948 0.39390
 C665 C 0.19662 0.35944 0.38896
 C666 C 0.17064 0.34848 0.41008
 C667 C 0.16591 0.36671 0.43638
 C668 C 0.18684 0.39630 0.44174
 C669 C 0.20249 0.34055 0.36354
 C670 C 0.22916 0.35119 0.34318
 C671 C 0.24967 0.38146 0.34777
 C672 C 0.24364 0.40046 0.37300
 C673 C 0.27622 0.39206 0.32736
 C674 C 0.28285 0.37263 0.30304
 C675 C 0.26306 0.34222 0.29864
 C676 C 0.23599 0.33179 0.31865
 H677 H 0.22894 0.43032 0.42472
 H678 H 0.15439 0.32554 0.40667
 H679 H 0.14624 0.35751 0.45296
 H680 H 0.18669 0.31737 0.35999
 H681 H 0.25961 0.42352 0.37673
 H682 H 0.29212 0.41523 0.33047
 H683 H 0.30382 0.38132 0.28797
 H684 H 0.22044 0.30845 0.31545
 C685 C 0.31355 0.11576 0.93601
 C686 C 0.30769 0.13448 0.91033
 C687 C 0.27830 0.12577 0.89377
 C688 C 0.25535 0.09840 0.90320
 C689 C 0.26118 0.08023 0.92923
 C690 C 0.29033 0.08869 0.94570
 C691 C 0.27205 0.14494 0.86865
 C692 C 0.29453 0.17303 0.86035
 C693 C 0.32390 0.18167 0.87695
 C694 C 0.33042 0.16219 0.90158
 C695 C 0.34607 0.20999 0.86904
 C696 C 0.33905 0.22990 0.84532
 C697 C 0.30988 0.22174 0.82877
 C698 C 0.28785 0.19299 0.83618
 H699 H 0.33585 0.12262 0.94910
 H700 H 0.23262 0.09148 0.89095
 H701 H 0.24274 0.05984 0.93694
 H702 H 0.24945 0.13835 0.85606
 H703 H 0.35289 0.16894 0.91440
 H704 H 0.36869 0.21695 0.88151
 H705 H 0.35649 0.25181 0.84001
 H706 H 0.26520 0.18648 0.82371
 C707 C 0.80368 0.61506 0.43235
 C708 C 0.79412 0.62961 0.40521
 C709 C 0.76723 0.61346 0.38729
 C710 C 0.75057 0.58299 0.39662
 C711 C 0.76024 0.56873 0.42363
 C712 C 0.78683 0.58458 0.44157
 C713 C 0.75716 0.62813 0.36060
 C714 C 0.77354 0.65879 0.35161
 C715 C 0.80064 0.67483 0.36923
 C716 C 0.81079 0.66013 0.39590
 C717 C 0.81693 0.70546 0.36003
 C718 C 0.80621 0.72027 0.33395
 C719 C 0.77899 0.70471 0.31658
 C720 C 0.76295 0.67380 0.32545
 H721 H 0.82405 0.62737 0.44642
 H722 H 0.72989 0.57032 0.38322
 H723 H 0.74680 0.54536 0.43082
 H724 H 0.73640 0.61581 0.34704
 H725 H 0.83145 0.67251 0.40956
 H726 H 0.83779 0.71809 0.37320
 H727 H 0.81904 0.74408 0.32764
 H728 H 0.74198 0.66148 0.31223
 C729 C 0.06559 0.67419 0.91710
 C730 C 0.08709 0.67631 0.89113
 C731 C 0.10707 0.65550 0.88965
 C732 C 0.10442 0.63225 0.91354
 C733 C 0.08321 0.63047 0.93949
 C734 C 0.06367 0.65159 0.94198
 C735 C 0.13029 0.65909 0.86513
 C736 C 0.13431 0.68377 0.84257
 C737 C 0.11368 0.70401 0.84340
 C738 C 0.08996 0.69994 0.86747
 C739 C 0.11800 0.72878 0.82094
 C740 C 0.14361 0.73457 0.79905
 C741 C 0.16519 0.71552 0.79907
 C742 C 0.15967 0.68946 0.82021
 H743 H 0.05206 0.69172 0.91905
 H744 H 0.11940 0.61594 0.91264
 H745 H 0.08210 0.61241 0.95771
 H746 H 0.14607 0.64351 0.86444
 H747 H 0.07457 0.71588 0.86853
 H748 H 0.10227 0.74440 0.82109
 H749 H 0.14721 0.75472 0.78298
 H750 H 0.17603 0.67448 0.82044
 C751 C 0.59108 0.17751 0.43854
 C752 C 0.61087 0.18001 0.41123
 C753 C 0.59921 0.16326 0.38285
 C754 C 0.56877 0.14227 0.38330
 C755 C 0.54969 0.13885 0.41126
 C756 C 0.56008 0.15756 0.43857
 C757 C 0.61806 0.16804 0.35455
 C758 C 0.64874 0.18864 0.35474
 C759 C 0.66120 0.20335 0.38398
 C760 C 0.64203 0.19930 0.41187
 C761 C 0.69242 0.22253 0.38467
 C762 C 0.71072 0.22830 0.35634
 C763 C 0.69782 0.21560 0.32681
 C764 C 0.66699 0.19537 0.32611
 H765 H 0.59965 0.19150 0.45976
 H766 H 0.55972 0.12857 0.36207
 H767 H 0.52646 0.12223 0.41130
 H768 H 0.60876 0.15607 0.33240
 H769 H 0.65122 0.21146 0.43397
 H770 H 0.70243 0.23364 0.40696
 H771 H 0.73439 0.24411 0.35715
 H772 H 0.65713 0.18542 0.30328
 C773 C 0.89869 0.30490 0.93729
 C774 C 0.88023 0.30449 0.90950
 C775 C 0.89466 0.31891 0.88068
 C776 C 0.92682 0.33579 0.88106
 C777 C 0.94479 0.33720 0.90936
 C778 C 0.93158 0.32028 0.93744
 C779 C 0.87672 0.31604 0.85206
 C780 C 0.84431 0.29963 0.85233
 C781 C 0.82945 0.28733 0.88189
 C782 C 0.84758 0.28945 0.91013
 C783 C 0.79677 0.27244 0.88263
 C784 C 0.77915 0.26849 0.85412
 C785 C 0.79404 0.27870 0.82431
 C786 C 0.82657 0.29470 0.82353
 H787 H 0.88751 0.29198 0.95854
 H788 H 0.93804 0.34807 0.85953
 H789 H 0.96905 0.35176 0.90925
 H790 H 0.88802 0.32623 0.82964
 H791 H 0.83634 0.27908 0.93253
 H792 H 0.78498 0.26323 0.90515
 H793 H 0.75417 0.25593 0.85511
 H794 H 0.83806 0.30279 0.80054
 C795 C 0.39445 0.81491 0.44578
 C796 C 0.37545 0.81319 0.41819
 C797 C 0.38878 0.82865 0.38933
 C798 C 0.42016 0.84764 0.38943
 C799 C 0.43857 0.85015 0.41747
 C800 C 0.42641 0.83260 0.44536
 C801 C 0.37069 0.82441 0.36084
 C802 C 0.33924 0.80549 0.36115
 C803 C 0.32522 0.79210 0.39067
 C804 C 0.34352 0.79575 0.41891
 C805 C 0.29334 0.77448 0.39129
 C806 C 0.27594 0.76882 0.36265
 C807 C 0.29034 0.78014 0.33294
 C808 C 0.32181 0.79899 0.33233
 H809 H 0.38461 0.80183 0.46742
 H810 H 0.43054 0.86031 0.36778
 H811 H 0.46272 0.86498 0.41711
 H812 H 0.38123 0.83535 0.33840
 H813 H 0.33309 0.78454 0.44129
 H814 H 0.28214 0.76438 0.41376
 H815 H 0.25174 0.75410 0.36346
 H816 H 0.33287 0.80792 0.30938
 C817 C 0.29116 0.92413 0.08711
 C818 C 0.29132 0.90359 0.11324
 C819 C 0.31655 0.88872 0.11612
 C820 C 0.34169 0.89549 0.09351
 C821 C 0.34120 0.91575 0.06748
 C822 C 0.31578 0.92984 0.06381
 C823 C 0.31566 0.86647 0.14079
 C824 C 0.28959 0.85842 0.16226
 C825 C 0.26488 0.87400 0.16007
 C826 C 0.26603 0.89669 0.13575
 C827 C 0.23884 0.86578 0.18155
 C828 C 0.23647 0.84128 0.20388
 C829 C 0.26018 0.82465 0.20529
 C830 C 0.28719 0.83406 0.18498
 H831 H 0.27128 0.93466 0.08407
 H832 H 0.36125 0.88439 0.09541
 H833 H 0.36027 0.91985 0.04964
 H834 H 0.33469 0.85461 0.14254
 H835 H 0.24674 0.90817 0.13365
 H836 H 0.21978 0.87760 0.18036
 H837 H 0.21547 0.83463 0.21926
 H838 H 0.30573 0.82155 0.18584
 C839 C 0.80052 0.42507 0.57882
 C840 C 0.79933 0.40453 0.60514
 C841 C 0.82442 0.38978 0.60977
 C842 C 0.85085 0.39684 0.58873
 C843 C 0.85199 0.41761 0.56277
 C844 C 0.82678 0.43169 0.55745
 C845 C 0.82224 0.36756 0.63473
 C846 C 0.79520 0.35979 0.65497
 C847 C 0.77076 0.37551 0.65116
 C848 C 0.77301 0.39783 0.62632
 C849 C 0.74393 0.36788 0.67162
 C850 C 0.74052 0.34377 0.69453
 C851 C 0.76387 0.32684 0.69740
 C852 C 0.79164 0.33565 0.67813
 H853 H 0.78066 0.43531 0.57440
 H854 H 0.87035 0.38585 0.59197
 H855 H 0.87231 0.42228 0.54640
 H856 H 0.84113 0.35570 0.63780
 H857 H 0.75390 0.40937 0.62295
 H858 H 0.72510 0.37988 0.66921
 H859 H 0.71891 0.33752 0.70907
 H860 H 0.80992 0.32291 0.68022
 C861 C 0.69186 0.07516 0.08074
 C862 C 0.69314 0.09518 0.10737
 C863 C 0.66742 0.10876 0.11354
 C864 C 0.64041 0.10118 0.09373
 C865 C 0.63930 0.08114 0.06737
 C866 C 0.66507 0.06824 0.06046
 C867 C 0.66953 0.13046 0.13874
 C868 C 0.69715 0.13900 0.15764
 C869 C 0.72235 0.12453 0.15229
 C870 C 0.72014 0.10260 0.12727
 C871 C 0.74982 0.13305 0.17139
 C872 C 0.75300 0.15680 0.19446
 C873 C 0.72876 0.17244 0.19885
 C874 C 0.70047 0.16271 0.18095
 H875 H 0.71205 0.06571 0.07515
 H876 H 0.62046 0.11129 0.09817
 H877 H 0.61856 0.07618 0.05187
 H878 H 0.65009 0.14140 0.14298
 H879 H 0.73977 0.09201 0.12271
 H880 H 0.76927 0.12204 0.16779
 H881 H 0.77502 0.16379 0.20791
 H882 H 0.68149 0.17444 0.18422
 C883 C 0.19326 0.58979 0.56111
 C884 C 0.19429 0.60840 0.58876
 C885 C 0.17641 0.59568 0.61662
 C886 C 0.15611 0.56525 0.61548
 C887 C 0.15417 0.54736 0.58727
 C888 C 0.17369 0.55894 0.56031
 C889 C 0.17916 0.61358 0.64505
 C890 C 0.19873 0.64441 0.64554
 C891 C 0.21483 0.65777 0.61689
 C892 C 0.21294 0.63952 0.58889
 C893 C 0.23295 0.68909 0.61683
 C894 C 0.23598 0.70678 0.64513
 C895 C 0.22162 0.69321 0.67408
 C896 C 0.20280 0.66208 0.67421
 H897 H 0.20787 0.59925 0.54017
 H898 H 0.14161 0.55536 0.63631
 H899 H 0.13783 0.52420 0.58668
 H900 H 0.16616 0.60354 0.66673
 H901 H 0.22602 0.64952 0.56723
 H902 H 0.24515 0.69977 0.59501
 H903 H 0.25077 0.73071 0.64480
 H904 H 0.19157 0.65168 0.69659
 C905 C 0.88548 0.68612 0.06711
 C906 C 0.87026 0.69674 0.09325
 C907 C 0.88489 0.72575 0.10803
 C908 C 0.91460 0.74349 0.09655
 C909 C 0.92948 0.73281 0.07040
 C910 C 0.91509 0.70407 0.05562
 C911 C 0.86939 0.73678 0.13367
 C912 C 0.83933 0.71931 0.14457
 C913 C 0.82485 0.69019 0.12995
 C914 C 0.84045 0.67904 0.10448
 C915 C 0.79478 0.67287 0.14081
 C916 C 0.77893 0.68445 0.16557
 C917 C 0.79286 0.71355 0.18006
 C918 C 0.82330 0.73072 0.16957
 H919 H 0.87422 0.66410 0.05540
 H920 H 0.92610 0.76581 0.10749
 H921 H 0.95209 0.74710 0.06139
 H922 H 0.88053 0.75912 0.14486
 H923 H 0.82922 0.65680 0.09315
 H924 H 0.78336 0.65049 0.12992
 H925 H 0.75556 0.67069 0.17318
 H926 H 0.83435 0.75319 0.18049
 C927 C 0.40823 0.20743 0.57505
 C928 C 0.39023 0.21274 0.60181
 C929 C 0.35996 0.19207 0.60816
 C930 C 0.34854 0.16611 0.58801
 C931 C 0.36670 0.16094 0.56151
 C932 C 0.39659 0.18151 0.55485
 C933 C 0.34138 0.19798 0.63419
 C934 C 0.35266 0.22431 0.65391
 C935 C 0.38321 0.24457 0.64795
 C936 C 0.40180 0.23866 0.62196
 C937 C 0.39451 0.27071 0.66785
 C938 C 0.37548 0.27714 0.69301
 C939 C 0.34475 0.25762 0.69871
 C940 C 0.33365 0.23098 0.67921
 H941 H 0.43106 0.22366 0.56954
 H942 H 0.32541 0.15004 0.59251
 H943 H 0.35731 0.14104 0.54591
 H944 H 0.31802 0.18234 0.63881
 H945 H 0.42508 0.25442 0.61719
 H946 H 0.41791 0.28640 0.66372
 H947 H 0.38465 0.29780 0.70764
 H948 H 0.31008 0.21563 0.68344
 C949 C 0.12096 0.31863 0.06453
 C950 C 0.13943 0.31240 0.09033
 C951 C 0.12818 0.28494 0.10939
 C952 C 0.09852 0.26437 0.10244
 C953 C 0.08058 0.27047 0.07630
 C954 C 0.09161 0.29761 0.05720
 C955 C 0.14714 0.27805 0.13444
 C956 C 0.17747 0.29794 0.14029
 C957 C 0.18859 0.32548 0.12134
 C958 C 0.16939 0.33268 0.09670
 C959 C 0.21902 0.34510 0.12694
 C960 C 0.23856 0.33726 0.15065
 C961 C 0.22800 0.30977 0.16943
 C962 C 0.19716 0.29039 0.16433
 H963 H 0.12979 0.33931 0.04944
 H964 H 0.08960 0.24313 0.11664
 H965 H 0.05839 0.25363 0.07047
 H966 H 0.13861 0.25686 0.14888
 H967 H 0.17807 0.35369 0.08203
 H968 H 0.22789 0.36631 0.11267
 H969 H 0.26211 0.35269 0.15412
 H970 H 0.18870 0.26908 0.17857
 C971 C 0.61357 0.80937 0.56818
 C972 C 0.62781 0.80027 0.59581
 C973 C 0.61019 0.77545 0.61565
 C974 C 0.57855 0.76053 0.60787
 C975 C 0.56459 0.76978 0.58044
 C976 C 0.58194 0.79417 0.56046
 C977 C 0.62455 0.76560 0.64268
 C978 C 0.65635 0.78016 0.65018
 C979 C 0.67384 0.80536 0.63078
 C980 C 0.65945 0.81528 0.60372
 C981 C 0.70558 0.81992 0.63859
 C982 C 0.72008 0.80920 0.66493
 C983 C 0.70312 0.78367 0.68388
 C984 C 0.67108 0.76952 0.67652
 H985 H 0.62699 0.82807 0.55259
 H986 H 0.56474 0.74148 0.62278
 H987 H 0.54028 0.75763 0.57447
 H988 H 0.61110 0.74636 0.65765
 H989 H 0.67296 0.83440 0.58864
 H990 H 0.71933 0.83935 0.62409
 H991 H 0.74480 0.82052 0.67006
 H992 H 0.65766 0.74992 0.69103
   
