data_POSCAR
  _audit_creation_date              2014-09-24
  _audit_creation_method            'ToBaCCo'
  _symmetry_space_group_name_H-M    'P1'
  _symmetry_Int_Tables_number       1
  _symmetry_cell_setting            triclinic
  loop_
  _symmetry_equiv_pos_as_xyz
 x,y,z
_cell_length_a 52.5126
_cell_length_b 51.1347
_cell_length_c 54.5890
_cell_angle_alpha 89.495800
_cell_angle_beta 90.009400
_cell_angle_gamma 89.353100
loop_
  _atom_site_label
  _atom_site_type_symbol
  _atom_site_fract_x
  _atom_site_fract_y
  _atom_site_fract_z
N1 N 0.19381 1.23867 0.17975
 N2 N 0.17804 1.23943 0.19840
 C3 C 0.16190 1.25988 0.19538
 C4 C 0.16762 1.27250 0.17341
 C5 C 0.18821 1.25842 0.16418
 H6 H 0.14626 1.26425 0.20757
 H7 H 0.19802 1.26162 0.14705
 Cu8 Cu 0.17799 1.21152 0.22295
 Cu9 Cu 0.21885 1.21073 0.17551
 Cu10 Cu 0.21819 1.16016 0.21809
 N11 N 0.17842 1.18331 0.24720
 N12 N 0.19359 1.16292 0.24461
 C13 C 0.18858 1.14525 0.26229
 C14 C 0.16910 1.15495 0.27696
 C15 C 0.16331 1.17935 0.26681
 H16 H 0.19831 1.12661 0.26399
 H17 H 0.14841 1.19271 0.27248
 N18 N 0.24184 1.16104 0.19010
 N19 N 0.24261 1.18069 0.17429
 C20 C 0.26067 1.17559 0.15741
 C21 C 0.27164 1.15149 0.16272
 C22 C 0.25922 1.14284 0.18357
 H23 H 0.26495 1.18806 0.14190
 H24 H 0.26261 1.12459 0.19323
 H25 H 0.19759 1.18241 0.19305
 H26 H 0.22158 1.19986 0.21199
 N27 N 0.81386 0.76327 0.17725
 N28 N 0.83286 0.76503 0.19278
 C29 C 0.85027 0.74629 0.18777
 C30 C 0.84185 0.73218 0.16787
 C31 C 0.81864 0.74353 0.16170
 H32 H 0.86816 0.74369 0.19734
 H33 H 0.80628 0.73809 0.14679
 Cu34 Cu 0.83410 0.79244 0.21723
 Cu35 Cu 0.78523 0.78767 0.17738
 Cu36 Cu 0.78403 0.83393 0.22321
 N37 N 0.83151 0.81697 0.24418
 N38 N 0.81174 0.83262 0.24685
 C39 C 0.81516 0.84742 0.26684
 C40 C 0.83857 0.84091 0.27726
 C41 C 0.84829 0.82137 0.26226
 H42 H 0.80188 0.86236 0.27275
 H43 H 0.86622 0.81103 0.26422
 N44 N 0.75775 0.83214 0.19756
 N45 N 0.75791 0.81409 0.18044
 C46 C 0.73823 0.81859 0.16510
 C47 C 0.72520 0.84071 0.17274
 C48 C 0.73811 0.84878 0.19340
 H49 H 0.73444 0.80747 0.14877
 H50 H 0.73385 0.86587 0.20423
 H51 H 0.80356 0.81873 0.19356
 H52 H 0.78785 0.79474 0.21462
 N53 N 0.81322 1.24085 -0.17163
 N54 N 0.82974 1.24193 -0.18967
 C55 C 0.84730 1.26012 -0.18451
 C56 C 0.84152 1.27086 -0.16193
 C57 C 0.81972 1.25815 -0.15438
 H58 H 0.86356 1.26459 -0.19588
 H59 H 0.80944 1.26106 -0.13745
 Cu60 Cu 0.82739 1.21812 -0.21721
 Cu61 Cu 0.78519 1.21631 -0.17110
 Cu62 Cu 0.77998 1.17446 -0.22041
 N63 N 0.82462 1.19413 -0.24454
 N64 N 0.80575 1.17756 -0.24597
 C65 C 0.80889 1.16273 -0.26602
 C66 C 0.83121 1.17008 -0.27778
 C67 C 0.84055 1.19023 -0.26351
 H68 H 0.79641 1.14696 -0.27089
 H69 H 0.85788 1.20101 -0.26637
 N70 N 0.75592 1.17437 -0.19263
 N71 N 0.75811 1.19021 -0.17382
 C72 C 0.74007 1.18442 -0.15720
 C73 C 0.72581 1.16386 -0.16583
 C74 C 0.73636 1.15808 -0.18844
 H75 H 0.73779 1.19417 -0.13985
 H76 H 0.73086 1.14244 -0.20047
 H77 H 0.80257 1.18782 -0.19235
 H78 H 0.78219 1.21252 -0.20867
 N79 N 0.18891 0.75679 -0.17815
 N80 N 0.17016 0.75845 -0.19407
 C81 C 0.15289 0.73998 -0.18874
 C82 C 0.16117 0.72608 -0.16830
 C83 C 0.18414 0.73734 -0.16209
 H84 H 0.13517 0.73743 -0.19846
 H85 H 0.19635 0.73202 -0.14685
 Cu86 Cu 0.16962 0.78563 -0.21922
 Cu87 Cu 0.21754 0.78077 -0.17870
 Cu88 Cu 0.21701 0.82872 -0.22414
 N89 N 0.16921 0.81276 -0.24444
 N90 N 0.18831 0.82895 -0.24679
 C91 C 0.18345 0.84566 -0.26543
 C92 C 0.15974 0.83996 -0.27521
 C93 C 0.15133 0.81887 -0.26128
 H94 H 0.19588 0.86144 -0.27069
 H95 H 0.13357 0.80862 -0.26319
 N96 N 0.24427 0.82531 -0.19945
 N97 N 0.24468 0.80688 -0.18235
 C98 C 0.26482 0.81070 -0.16757
 C99 C 0.27752 0.83274 -0.17556
 C100 C 0.26398 0.84144 -0.19584
 H101 H 0.26914 0.79919 -0.15136
 H102 H 0.26781 0.85870 -0.20672
 H103 H 0.19818 0.81199 -0.19468
 H104 H 0.21565 0.78938 -0.21558
 C105 C 0.47380 0.97831 -0.02422
 C106 C 0.48594 0.99354 -0.00657
 C107 C 0.47139 1.00816 0.01006
 C108 C 0.44470 1.00759 0.00920
 C109 C 0.43271 0.99238 -0.00858
 C110 C 0.44711 0.97774 -0.02536
 C111 C 0.51389 0.99434 -0.00536
 C112 C 0.52747 1.00995 -0.02195
 C113 C 0.55397 1.01241 -0.01966
 C114 C 0.56676 0.99866 -0.00088
 C115 C 0.55340 0.98250 0.01546
 C116 C 0.52688 0.98052 0.01318
 H117 H 0.48509 0.96711 -0.03712
 H118 H 0.48086 1.01980 0.02376
 H119 H 0.51729 1.02083 -0.03606
 H120 H 0.51629 0.96853 0.02599
 H121 H 0.41209 0.99192 -0.00937
 H122 H 0.58727 1.00004 0.00068
 C123 C -0.01094 0.46944 0.98666
 C124 C 0.00210 0.48401 1.00419
 C125 C 0.01519 0.47117 1.02327
 C126 C 0.01584 0.44371 1.02474
 C127 C 0.00238 0.42937 1.00717
 C128 C -0.01135 0.44206 0.98837
 C129 C 0.00159 0.51279 1.00300
 C130 C -0.01118 0.52705 1.02113
 C131 C -0.01172 0.55450 1.02032
 C132 C 0.00131 0.56748 1.00138
 C133 C 0.01445 0.55344 0.98319
 C134 C 0.01416 0.52597 0.98399
 H135 H -0.02154 0.47949 0.97230
 H136 H 0.02484 0.48269 1.03692
 H137 H -0.02068 0.51667 1.03585
 H138 H 0.02386 0.51475 0.96999
 H139 H 0.00291 0.40819 1.00775
 H140 H 0.00126 0.58864 1.00084
 C141 C 0.98013 -0.01292 0.47575
 C142 C 0.99660 0.00395 0.48802
 C143 C 1.01504 0.01783 0.47482
 C144 C 1.01746 0.01449 0.44945
 C145 C 1.00132 -0.00292 0.43743
 C146 C 0.98254 -0.01658 0.45040
 C147 C 0.99569 0.00576 0.51486
 C148 C 1.01270 -0.00934 0.52905
 C149 C 1.01188 -0.00822 0.55469
 C150 C 0.99450 0.00882 0.56600
 C151 C 0.97767 0.02429 0.55196
 C152 C 0.97800 0.02236 0.52633
 H153 H 0.96601 -0.02375 0.48602
 H154 H 1.02778 0.03080 0.48437
 H155 H 1.02610 -0.02243 0.52012
 H156 H 0.96496 0.03414 0.51535
 H157 H 1.00295 -0.00534 0.41778
 H158 H 0.99402 0.01002 0.58582
 C159 C 0.12526 0.33305 1.13771
 C160 C 0.14562 0.32045 1.12581
 C161 C 0.16002 0.30113 1.13779
 C162 C 0.15422 0.29338 1.16199
 C163 C 0.13413 0.30648 1.17408
 C164 C 0.11995 0.32610 1.16213
 C165 C 0.10905 0.35246 1.12425
 C166 C 0.08257 0.35347 1.12805
 C167 C 0.06709 0.37015 1.11395
 C168 C 0.07762 0.38602 1.09546
 C169 C 0.10420 0.38559 1.09220
 C170 C 0.11971 0.36919 1.10653
 C171 C 0.06096 0.40186 1.07879
 C172 C 0.06912 0.42600 1.06925
 C173 C 0.05434 0.43976 1.05206
 C174 C 0.03083 0.42993 1.04420
 C175 C 0.02224 0.40629 1.05443
 C176 C 0.03718 0.39235 1.07133
 H177 H 0.15002 0.32491 1.10686
 H178 H 0.17513 0.29181 1.12752
 H179 H 0.12918 0.30176 1.19281
 H180 H 0.10475 0.33578 1.17206
 H181 H 0.07364 0.34075 1.14138
 H182 H 0.04678 0.37031 1.11735
 H183 H 0.11304 0.39729 1.07803
 H184 H 0.14007 0.36936 1.10344
 H185 H 0.08710 0.43419 1.07486
 H186 H 0.06172 0.45776 1.04444
 H187 H 0.00402 0.39836 1.04923
 H188 H 0.03035 0.37370 1.07797
 C189 C -0.11656 0.67206 1.12952
 C190 C -0.13615 0.68636 1.11777
 C191 C -0.14998 0.70548 1.13037
 C192 C -0.14438 0.71096 1.15494
 C193 C -0.12503 0.69650 1.16681
 C194 C -0.11136 0.67718 1.15428
 C195 C -0.10115 0.65252 1.11573
 C196 C -0.07481 0.64989 1.11988
 C197 C -0.06008 0.63255 1.10604
 C198 C -0.07126 0.61755 1.08754
 C199 C -0.09768 0.61979 1.08371
 C200 C -0.11245 0.63697 1.09770
 C201 C -0.05534 0.60048 1.07161
 C202 C -0.06458 0.57648 1.06315
 C203 C -0.05023 0.56131 1.04692
 C204 C -0.02622 0.56971 1.03886
 C205 C -0.01665 0.59329 1.04791
 C206 C -0.03106 0.60854 1.06398
 H207 H -0.14038 0.68331 1.09861
 H208 H -0.16454 0.71647 1.12058
 H209 H -0.12049 0.70001 1.18583
 H210 H -0.09674 0.66622 1.16404
 H211 H -0.06539 0.66174 1.13342
 H212 H -0.03986 0.63103 1.10974
 H213 H -0.10691 0.60879 1.06945
 H214 H -0.13273 0.63817 1.09426
 H215 H -0.08302 0.56947 1.06894
 H216 H -0.05825 0.54335 1.04015
 H217 H 0.00196 0.60012 1.04240
 H218 H -0.02342 0.62703 1.06988
 C219 C -0.11596 0.32768 0.87863
 C220 C -0.11302 0.32569 0.85310
 C221 C -0.12678 0.30725 0.83987
 C222 C -0.14389 0.29052 0.85188
 C223 C -0.14683 0.29255 0.87736
 C224 C -0.13296 0.31079 0.89057
 C225 C -0.10117 0.34693 0.89297
 C226 C -0.11225 0.35945 0.91325
 C227 C -0.09793 0.37603 0.92787
 C228 C -0.07227 0.38076 0.92241
 C229 C -0.06136 0.36911 0.90164
 C230 C -0.07563 0.35226 0.88712
 C231 C -0.05670 0.39678 0.93906
 C232 C -0.04059 0.41630 0.92985
 C233 C -0.02595 0.43125 0.94582
 C234 C -0.02687 0.42659 0.97121
 C235 C -0.04288 0.40698 0.98034
 C236 C -0.05773 0.39234 0.96446
 H237 H -0.10032 0.33860 0.84327
 H238 H -0.12425 0.30634 0.82022
 H239 H -0.15949 0.27970 0.88728
 H240 H -0.13526 0.31129 0.91027
 H241 H -0.13202 0.35633 0.91794
 H242 H -0.10689 0.38513 0.94356
 H243 H -0.04154 0.37230 0.89717
 H244 H -0.06640 0.34275 0.87182
 H245 H -0.03955 0.42015 0.91033
 H246 H -0.01365 0.44620 0.93835
 H247 H -0.04409 0.40316 0.99986
 H248 H -0.06981 0.37724 0.97200
 C249 C 0.11994 0.66646 0.87084
 C250 C 0.13959 0.68023 0.88235
 C251 C 0.15330 0.69918 0.86952
 C252 C 0.14756 0.70501 0.84493
 C253 C 0.12821 0.69101 0.83328
 C254 C 0.11464 0.67188 0.84605
 C255 C 0.10450 0.64726 0.88492
 C256 C 0.07816 0.64528 0.88076
 C257 C 0.06336 0.62837 0.89490
 C258 C 0.07445 0.61321 0.91378
 C259 C 0.10088 0.61474 0.91758
 C260 C 0.11573 0.63145 0.90325
 C261 C 0.05837 0.59685 0.93018
 C262 C 0.06746 0.57278 0.93952
 C263 C 0.05298 0.55839 0.95626
 C264 C 0.02898 0.56763 0.96393
 C265 C 0.01954 0.59125 0.95395
 C266 C 0.03410 0.60574 0.93742
 H267 H 0.14393 0.67693 0.90153
 H268 H 0.16792 0.70974 0.87914
 H269 H 0.12354 0.69473 0.81425
 H270 H 0.10000 0.66131 0.83645
 H271 H 0.06878 0.65734 0.86700
 H272 H 0.04315 0.62738 0.89118
 H273 H 0.11006 0.60358 0.93209
 H274 H 0.13601 0.63212 0.90669
 H275 H 0.08589 0.56514 0.93407
 H276 H 0.06094 0.54040 0.96374
 H277 H 0.00096 0.59875 0.95913
 H278 H 0.02658 0.62433 0.93088
 C279 C 1.13040 0.11544 0.33432
 C280 C 1.12555 0.14205 0.32977
 C281 C 1.13848 0.15523 0.31105
 C282 C 1.15690 0.14215 0.29668
 C283 C 1.16233 0.11564 0.30213
 C284 C 1.14906 0.10245 0.32052
 C285 C 1.11520 0.10080 0.35253
 C286 C 1.10349 0.07744 0.34578
 C287 C 1.08880 0.06354 0.36261
 C288 C 1.08579 0.07246 0.38677
 C289 C 1.09766 0.09588 0.39352
 C290 C 1.11206 0.11003 0.37649
 C291 C 1.06987 0.05754 0.40448
 C292 C 1.05442 0.07056 0.42168
 C293 C 1.03808 0.05649 0.43701
 C294 C 1.03661 0.02919 0.43520
 C295 C 1.05254 0.01608 0.41862
 C296 C 1.06915 0.03006 0.40360
 H297 H 1.11119 0.15245 0.34022
 H298 H 1.13384 0.17564 0.30795
 H299 H 1.17624 0.10457 0.29182
 H300 H 1.15324 0.08193 0.32388
 H301 H 1.10529 0.07020 0.32726
 H302 H 1.07941 0.04604 0.35649
 H303 H 1.09605 0.10317 0.41202
 H304 H 1.12105 0.12797 0.38210
 H305 H 1.05424 0.09169 0.42273
 H306 H 1.02582 0.06702 0.44957
 H307 H 1.05197 -0.00502 0.41716
 H308 H 1.08125 0.01928 0.39110
 C309 C 1.12012 -0.11885 0.66826
 C310 C 1.14602 -0.11415 0.67272
 C311 C 1.15908 -0.12769 0.69129
 C312 C 1.14675 -0.14675 0.70569
 C313 C 1.12096 -0.15189 0.70071
 C314 C 1.10781 -0.13796 0.68248
 C315 C 1.10578 -0.10346 0.64936
 C316 C 1.08583 -0.11486 0.63610
 C317 C 1.07130 -0.09994 0.61958
 C318 C 1.07671 -0.07345 0.61557
 C319 C 1.09710 -0.06217 0.62810
 C320 C 1.11135 -0.07695 0.64497
 C321 C 1.06027 -0.05727 0.59936
 C322 C 1.07083 -0.04153 0.58084
 C323 C 1.05508 -0.02586 0.56595
 C324 C 1.02864 -0.02528 0.56978
 C325 C 1.01814 -0.04097 0.58834
 C326 C 1.03379 -0.05701 0.60285
 H327 H 1.15634 -0.10007 0.66177
 H328 H 1.17898 -0.12332 0.69396
 H329 H 1.11045 -0.16607 0.71132
 H330 H 1.08776 -0.14179 0.67998
 H331 H 1.08132 -0.13532 0.63851
 H332 H 1.05577 -0.10907 0.60993
 H333 H 1.10140 -0.04167 0.62548
 H334 H 1.12619 -0.06731 0.65512
 H335 H 1.09122 -0.04150 0.57783
 H336 H 1.06355 -0.01381 0.55178
 H337 H 0.99778 -0.04091 0.59151
 H338 H 1.02529 -0.06883 0.61715
 C339 C 0.87489 -0.12314 0.33768
 C340 C 0.84937 -0.11717 0.33195
 C341 C 0.83731 -0.12914 0.31222
 C342 C 0.85034 -0.14769 0.29777
 C343 C 0.87569 -0.15415 0.30407
 C344 C 0.88780 -0.14192 0.32358
 C345 C 0.88838 -0.10912 0.35755
 C346 C 0.90712 -0.12198 0.37180
 C347 C 0.92136 -0.10821 0.38894
 C348 C 0.91692 -0.08140 0.39249
 C349 C 0.89758 -0.06872 0.37902
 C350 C 0.88356 -0.08238 0.36164
 C351 C 0.93353 -0.06627 0.40893
 C352 C 0.92312 -0.04813 0.42546
 C353 C 0.93906 -0.03259 0.43966
 C354 C 0.96562 -0.03462 0.43721
 C355 C 0.97600 -0.05310 0.42106
 C356 C 0.96012 -0.06891 0.40718
 H357 H 0.83865 -0.10320 0.34273
 H358 H 0.81771 -0.12375 0.30853
 H359 H 0.88673 -0.16808 0.29361
 H360 H 0.90760 -0.14669 0.32711
 H361 H 0.91098 -0.14266 0.36956
 H362 H 0.93601 -0.11847 0.39930
 H363 H 0.89402 -0.04796 0.38119
 H364 H 0.86961 -0.07171 0.35077
 H365 H 0.90268 -0.04585 0.42719
 H366 H 0.93066 -0.01837 0.45192
 H367 H 0.99645 -0.05509 0.41898
 H368 H 0.96860 -0.08258 0.39444
 C369 C 0.86698 0.13318 0.66157
 C370 C 0.87931 0.15309 0.67442
 C371 C 0.86729 0.16571 0.69391
 C372 C 0.84266 0.15852 0.70149
 C373 C 0.83013 0.13895 0.68820
 C374 C 0.84207 0.12658 0.66847
 C375 C 0.88055 0.11865 0.64186
 C376 C 0.87700 0.09160 0.63899
 C377 C 0.89126 0.07754 0.62183
 C378 C 0.90963 0.09014 0.60744
 C379 C 0.91277 0.11721 0.60975
 C380 C 0.89824 0.13137 0.62661
 C381 C 0.92680 0.07471 0.59150
 C382 C 0.95328 0.07748 0.59359
 C383 C 0.96977 0.06136 0.58033
 C384 C 0.96008 0.04255 0.56438
 C385 C 0.93363 0.04036 0.56155
 C386 C 0.91708 0.05613 0.57524
 H387 H 0.89866 0.15843 0.66997
 H388 H 0.87791 0.18050 0.70340
 H389 H 0.81103 0.13299 0.69285
 H390 H 0.83174 0.11176 0.65866
 H391 H 0.86394 0.08102 0.65065
 H392 H 0.88876 0.05660 0.62059
 H393 H 0.92671 0.12736 0.59867
 H394 H 0.90110 0.15223 0.62789
 H395 H 0.96121 0.09149 0.60616
 H396 H 0.99013 0.06333 0.58273
 H397 H 0.92584 0.02584 0.54941
 H398 H 0.89672 0.05370 0.57334
 C399 C 0.32831 1.11042 0.12032
 C400 C 0.31129 1.09668 0.13546
 C401 C 0.29319 1.11004 0.14950
 C402 C 0.29141 1.13744 0.14848
 C403 C 0.30837 1.15124 0.13341
 C404 C 0.32673 1.13791 0.11963
 C405 C 0.34723 1.09607 0.10498
 C406 C 0.35367 1.10535 0.08145
 C407 C 0.37076 1.09140 0.06674
 C408 C 0.38150 1.06770 0.07508
 C409 C 0.37535 1.05849 0.09860
 C410 C 0.35856 1.07261 0.11347
 C411 C 0.39839 1.05219 0.05892
 C412 C 0.39408 1.02539 0.05567
 C413 C 0.40924 1.01089 0.03960
 C414 C 0.42923 1.02283 0.02679
 C415 C 0.43390 1.04950 0.03041
 C416 C 0.41846 1.06412 0.04618
 H417 H 0.31153 1.07551 0.13610
 H418 H 0.28018 1.09881 0.16067
 H419 H 0.30765 1.17239 0.13247
 H420 H 0.33980 1.14919 0.10856
 H421 H 0.34502 1.12304 0.07408
 H422 H 0.37500 1.09874 0.04854
 H423 H 0.38364 1.04039 0.10552
 H424 H 0.35454 1.06514 0.13165
 H425 H 0.37860 1.01581 0.06514
 H426 H 0.40538 0.99031 0.03718
 H427 H 0.44913 1.05914 0.02060
 H428 H 0.42219 1.08474 0.04849
 C429 C 0.66674 1.12238 -0.12733
 C430 C 0.68336 1.13895 -0.11478
 C431 C 0.70225 1.15257 -0.12733
 C432 C 0.70517 1.14989 -0.15277
 C433 C 0.68853 1.13340 -0.16540
 C434 C 0.66949 1.11983 -0.15282
 C435 C 0.64717 1.10740 -0.11358
 C436 C 0.64188 1.08131 -0.11959
 C437 C 0.62500 1.06663 -0.10536
 C438 C 0.61321 1.07768 -0.08474
 C439 C 0.61783 1.10396 -0.07920
 C440 C 0.63451 1.11868 -0.09351
 C441 C 0.59726 1.06151 -0.06824
 C442 C 0.60074 1.06268 -0.04276
 C443 C 0.58655 1.04685 -0.02706
 C444 C 0.56839 1.02967 -0.03647
 C445 C 0.56456 1.02877 -0.06192
 C446 C 0.57902 1.04442 -0.07770
 H447 H 0.68218 1.14095 -0.09508
 H448 H 0.71490 1.16475 -0.11688
 H449 H 0.69009 1.13108 -0.18503
 H450 H 0.65681 1.10747 -0.16310
 H451 H 0.65152 1.07192 -0.13474
 H452 H 0.62195 1.04633 -0.10990
 H453 H 0.60865 1.11307 -0.06363
 H454 H 0.63767 1.13888 -0.08870
 H455 H 0.61486 1.07547 -0.03499
 H456 H 0.58972 1.04807 -0.00750
 H457 H 0.55077 1.01556 -0.06962
 H458 H 0.57590 1.04324 -0.09727
 C459 C 0.33784 0.87173 -0.13743
 C460 C 0.32126 0.88577 -0.15311
 C461 C 0.30218 0.87297 -0.16600
 C462 C 0.29894 0.84589 -0.16329
 C463 C 0.31569 0.83172 -0.14797
 C464 C 0.33504 0.84446 -0.13532
 C465 C 0.35713 0.88572 -0.12259
 C466 C 0.36283 0.87748 -0.09851
 C467 C 0.37955 0.89169 -0.08397
 C468 C 0.39068 0.91463 -0.09305
 C469 C 0.38554 0.92260 -0.11722
 C470 C 0.36913 0.90819 -0.13191
 C471 C 0.40642 0.93097 -0.07688
 C472 C 0.40122 0.95787 -0.07499
 C473 C 0.41475 0.97312 -0.05849
 C474 C 0.43400 0.96184 -0.04388
 C475 C 0.43976 0.93511 -0.04626
 C476 C 0.42589 0.91972 -0.06247
 H477 H 0.32244 0.90682 -0.15486
 H478 H 0.28940 0.88451 -0.17741
 H479 H 0.31385 0.81077 -0.14577
 H480 H 0.34775 0.83293 -0.12383
 H481 H 0.35368 0.86057 -0.09053
 H482 H 0.38301 0.88532 -0.06527
 H483 H 0.39414 0.94010 -0.12469
 H484 H 0.36570 0.91481 -0.15052
 H485 H 0.38614 0.96693 -0.08574
 H486 H 0.41007 0.99373 -0.05698
 H487 H 0.45444 0.92600 -0.03503
 H488 H 0.43025 0.89902 -0.06368
 C489 C 0.66563 0.88063 0.13251
 C490 C 0.68159 0.89445 0.14844
 C491 C 0.70041 0.88138 0.16209
 C492 C 0.70395 0.85425 0.15989
 C493 C 0.68773 0.84031 0.14442
 C494 C 0.66867 0.85331 0.13104
 C495 C 0.64670 0.89476 0.11677
 C496 C 0.64183 0.88625 0.09278
 C497 C 0.62496 0.90009 0.07756
 C498 C 0.61282 0.92295 0.08582
 C499 C 0.61740 0.93140 0.10980
 C500 C 0.63401 0.91736 0.12518
 C501 C 0.59630 0.93845 0.06903
 C502 C 0.59968 0.96555 0.06651
 C503 C 0.58545 0.97993 0.04935
 C504 C 0.56732 0.96756 0.03465
 C505 C 0.56336 0.94061 0.03770
 C506 C 0.57788 0.92614 0.05460
 H507 H 0.68016 0.91552 0.14978
 H508 H 0.71279 0.89271 0.17366
 H509 H 0.68978 0.81933 0.14262
 H510 H 0.65638 0.84191 0.11944
 H511 H 0.65160 0.86930 0.08544
 H512 H 0.62202 0.89338 0.05902
 H513 H 0.60806 0.94886 0.11665
 H514 H 0.63687 0.92423 0.14366
 H515 H 0.61389 0.97544 0.07728
 H516 H 0.58872 1.00073 0.04741
 H517 H 0.54958 0.93063 0.02648
 H518 H 0.57485 0.90529 0.05631
   
