data_POSCAR
  _audit_creation_date              2014-09-24
  _audit_creation_method            'ToBaCCo'
  _symmetry_space_group_name_H-M    'P1'
  _symmetry_Int_Tables_number       1
  _symmetry_cell_setting            triclinic
  loop_
  _symmetry_equiv_pos_as_xyz
 x,y,z
_cell_length_a 36.1216
_cell_length_b 36.0831
_cell_length_c 32.9566
_cell_angle_alpha 89.842100
_cell_angle_beta 90.033100
_cell_angle_gamma 90.016900
loop_
  _atom_site_label
  _atom_site_type_symbol
  _atom_site_fract_x
  _atom_site_fract_y
  _atom_site_fract_z
C1 C 1.27907 0.21076 0.27115
 C2 C 1.25127 0.23019 0.25040
 C3 C 1.22347 0.21065 0.22990
 C4 C 1.22362 0.17185 0.22972
 C5 C 1.25122 0.15243 0.25087
 C6 C 1.27888 0.17192 0.27181
 C7 C 1.25127 0.27096 0.25015
 C8 C 1.27904 0.29041 0.22941
 C9 C 1.27882 0.32925 0.22869
 C10 C 1.25114 0.34872 0.24959
 C11 C 1.22356 0.32928 0.27074
 C12 C 1.22345 0.29047 0.27060
 H13 H 1.30038 0.22596 0.28729
 H14 H 1.20214 0.22569 0.21355
 H15 H 1.30035 0.27522 0.21330
 H16 H 1.20214 0.27542 0.28694
 H17 H 1.25111 0.12236 0.25098
 H18 H 1.25101 0.37879 0.24943
 C19 C 0.77784 -0.29067 0.27091
 C20 C 0.74987 -0.27118 0.25055
 C21 C 0.72196 -0.29064 0.23015
 C22 C 0.72219 -0.32943 0.22968
 C23 C 0.74997 -0.34894 0.25045
 C24 C 0.77773 -0.32951 0.27130
 C25 C 0.74984 -0.23043 0.25054
 C26 C 0.77779 -0.21088 0.23020
 C27 C 0.77762 -0.17208 0.22980
 C28 C 0.74986 -0.15268 0.25056
 C29 C 0.72209 -0.17220 0.27131
 C30 C 0.72190 -0.21100 0.27088
 H31 H 0.79924 -0.27552 0.28698
 H32 H 0.70050 -0.27555 0.21406
 H33 H 0.79924 -0.22589 0.21415
 H34 H 0.70045 -0.22611 0.28694
 H35 H 0.74994 -0.37900 0.25034
 H36 H 0.74987 -0.12263 0.25058
 C37 C 0.77853 0.21127 -0.23014
 C38 C 0.75055 0.23070 -0.25058
 C39 C 0.72259 0.21116 -0.27081
 C40 C 0.72279 0.17236 -0.27103
 C41 C 0.75058 0.15296 -0.25018
 C42 C 0.77836 0.17247 -0.22953
 C43 C 0.75054 0.27146 -0.25080
 C44 C 0.77849 0.29092 -0.27123
 C45 C 0.77830 0.32975 -0.27189
 C46 C 0.75048 0.34922 -0.25123
 C47 C 0.72272 0.32976 -0.23038
 C48 C 0.72257 0.29097 -0.23060
 H49 H 0.79999 0.22637 -0.21417
 H50 H 0.70112 0.22618 -0.28695
 H51 H 0.79993 0.27574 -0.28716
 H52 H 0.70113 0.27591 -0.21447
 H53 H 0.75059 0.12291 -0.25003
 H54 H 0.75037 0.37929 -0.25133
 C55 C 1.27806 -0.29066 -0.22926
 C56 C 1.24991 -0.27113 -0.24928
 C57 C 1.22179 -0.29055 -0.26936
 C58 C 1.22199 -0.32933 -0.26986
 C59 C 1.24993 -0.34887 -0.24943
 C60 C 1.27790 -0.32948 -0.22890
 C61 C 1.24993 -0.23040 -0.24929
 C62 C 1.27806 -0.21089 -0.26934
 C63 C 1.27789 -0.17210 -0.26977
 C64 C 1.24998 -0.15268 -0.24933
 C65 C 1.22204 -0.17217 -0.22886
 C66 C 1.22182 -0.21096 -0.22925
 H67 H 1.29963 -0.27555 -0.21342
 H68 H 1.20020 -0.27543 -0.28521
 H69 H 1.29963 -0.22592 -0.28520
 H70 H 1.20024 -0.22604 -0.21339
 H71 H 1.24986 -0.37894 -0.24956
 H72 H 1.25000 -0.12263 -0.24935
 C73 C 0.21035 0.27761 0.73061
 C74 C 0.22986 0.24979 0.75125
 C75 C 0.21046 0.22185 0.77182
 C76 C 0.17166 0.22189 0.77217
 C77 C 0.15219 0.24957 0.75108
 C78 C 0.17159 0.27732 0.73011
 C79 C 0.27058 0.24991 0.75130
 C80 C 0.28996 0.27784 0.77177
 C81 C 0.32876 0.27781 0.77219
 C82 C 0.34826 0.25017 0.75126
 C83 C 0.32887 0.22244 0.73039
 C84 C 0.29012 0.22213 0.73082
 H85 H 0.22536 0.29905 0.71439
 H86 H 0.22565 0.20052 0.78806
 H87 H 0.27476 0.29914 0.78789
 H88 H 0.27512 0.20071 0.71467
 H89 H 0.12215 0.24956 0.75095
 H90 H 0.37829 0.25020 0.75117
 C91 C 0.70946 0.77824 0.72958
 C92 C 0.72892 0.75036 0.75019
 C93 C 0.70946 0.72251 0.77086
 C94 C 0.67067 0.72270 0.77135
 C95 C 0.65122 0.75043 0.75031
 C96 C 0.67066 0.77811 0.72921
 C97 C 0.76964 0.75031 0.75011
 C98 C 0.78919 0.77809 0.77065
 C99 C 0.82795 0.77788 0.77096
 C100 C 0.84730 0.75026 0.74992
 C101 C 0.82779 0.72267 0.72897
 C102 C 0.78903 0.72251 0.72948
 H103 H 0.72460 0.79957 0.71331
 H104 H 0.72462 0.70114 0.78707
 H105 H 0.77420 0.79943 0.78692
 H106 H 0.77391 0.70120 0.71328
 H107 H 0.62117 0.75045 0.75035
 H108 H 0.87732 0.75024 0.74985
 C109 C 0.71055 0.27786 0.22926
 C110 C 0.72998 0.24975 0.24952
 C111 C 0.71049 0.22161 0.26964
 C112 C 0.67174 0.22177 0.26991
 C113 C 0.65234 0.24968 0.24925
 C114 C 0.67181 0.27763 0.22872
 C115 C 0.77067 0.24981 0.24969
 C116 C 0.79004 0.27795 0.26979
 C117 C 0.82879 0.27782 0.27035
 C118 C 0.84831 0.24992 0.24998
 C119 C 0.82896 0.22197 0.22946
 C120 C 0.79021 0.22172 0.22973
 H121 H 0.72562 0.29946 0.21336
 H122 H 0.72551 0.20005 0.28566
 H123 H 0.77493 0.29951 0.28557
 H124 H 0.77524 0.20012 0.21383
 H125 H 0.62232 0.24966 0.24915
 H126 H 0.87833 0.24997 0.25009
 C127 C 0.20956 0.77789 0.22960
 C128 C 0.22902 0.74998 0.25014
 C129 C 0.20958 0.72210 0.27076
 C130 C 0.17079 0.72230 0.27126
 C131 C 0.15134 0.75005 0.25028
 C132 C 0.17077 0.77777 0.22923
 C133 C 0.26973 0.74996 0.25007
 C134 C 0.28926 0.77780 0.27052
 C135 C 0.32802 0.77763 0.27082
 C136 C 0.34739 0.74998 0.24984
 C137 C 0.32790 0.72232 0.22898
 C138 C 0.28914 0.72213 0.22951
 H139 H 0.22471 0.79926 0.21337
 H140 H 0.22474 0.70071 0.28693
 H141 H 0.27426 0.79916 0.28673
 H142 H 0.27404 0.70077 0.21336
 H143 H 0.12129 0.75007 0.25033
 H144 H 0.37741 0.74999 0.24975
 O145 O 1.06399 0.01908 0.05086
 O146 O 0.93726 -0.01927 0.05069
 O147 O 0.98156 0.06326 0.05064
 O148 O 1.01974 -0.06354 0.05090
 O149 O 0.93023 0.04302 0.02839
 O150 O 1.07112 -0.04320 0.02878
 O151 O 0.95752 -0.07065 0.02862
 O152 O 1.04379 0.07050 0.02851
 C153 C 1.06097 0.05279 0.05507
 C154 C 0.94034 -0.05297 0.05508
 C155 C 0.94792 0.06005 0.05497
 C156 C 1.05341 -0.06046 0.05526
 O157 O 1.06394 -0.01945 -0.04976
 O158 O 0.93749 0.01950 -0.05006
 O159 O 1.02019 0.06331 -0.05000
 O160 O 0.98118 -0.06333 -0.04985
 O161 O 0.92994 -0.04279 -0.02778
 O162 O 1.07142 0.04277 -0.02771
 O163 O 1.04335 -0.07076 -0.02752
 O164 O 0.95800 0.07077 -0.02788
 Co165 Co 1.06101 -0.00019 0.00053
 Co166 Co 0.94034 0.00010 0.00032
 Co167 Co 1.00086 0.06034 0.00033
 Co168 Co 1.00047 -0.06046 0.00052
 O169 O 1.00067 -0.00005 0.00043
 C170 C 1.06051 -0.05310 -0.05410
 C171 C 0.94076 0.05319 -0.05441
 C172 C 1.05384 0.06011 -0.05425
 C173 C 0.94753 -0.06009 -0.05421
 O174 O 1.06322 0.51953 0.55005
 O175 O 0.93667 0.48097 0.55001
 O176 O 0.98043 0.56364 0.54981
 O177 O 1.01941 0.43698 0.55011
 O178 O 0.92921 0.54324 0.52748
 O179 O 1.07067 0.45734 0.52780
 O180 O 0.95720 0.42963 0.52806
 O181 O 1.04268 0.57092 0.52791
 C182 C 1.05983 0.55317 0.55447
 C183 C 0.93991 0.44728 0.55446
 C184 C 0.94676 0.56049 0.55400
 C185 C 1.05307 0.44008 0.55436
 O186 O 1.06332 0.48122 0.44935
 O187 O 0.93664 0.51951 0.44918
 O188 O 1.01933 0.56377 0.44927
 O189 O 0.98071 0.43705 0.44945
 O190 O 0.92942 0.45725 0.47169
 O191 O 1.07060 0.54347 0.47168
 O192 O 1.04292 0.42978 0.47151
 O193 O 0.95705 0.57092 0.47113
 Co194 Co 1.06032 0.50038 0.49971
 Co195 Co 0.93961 0.50025 0.49960
 Co196 Co 0.99988 0.56072 0.49954
 Co197 Co 1.00005 0.43996 0.49977
 O198 O 0.99997 0.50033 0.49965
 C199 C 1.06022 0.44752 0.44506
 C200 C 0.93979 0.55320 0.44472
 C201 C 1.05301 0.56072 0.44510
 C202 C 0.94707 0.44021 0.44513
 O203 O 0.56319 0.01924 0.55073
 O204 O 0.43658 -0.01933 0.55071
 O205 O 0.48080 0.06332 0.55067
 O206 O 0.51903 -0.06352 0.55093
 O207 O 0.42942 0.04298 0.52860
 O208 O 0.57038 -0.04307 0.52884
 O209 O 0.45682 -0.07066 0.52854
 O210 O 0.54297 0.07060 0.52827
 C211 C 0.56013 0.05295 0.55488
 C212 C 0.43979 -0.05301 0.55510
 C213 C 0.44714 0.06017 0.55505
 C214 C 0.55269 -0.06038 0.55531
 O215 O 0.56314 -0.01951 0.45019
 O216 O 0.43663 0.01954 0.45002
 O217 O 0.51916 0.06331 0.44991
 O218 O 0.48052 -0.06336 0.45017
 O219 O 0.42924 -0.04277 0.47218
 O220 O 0.57045 0.04273 0.47207
 O221 O 0.54272 -0.07082 0.47257
 O222 O 0.45701 0.07081 0.47225
 Co223 Co 0.56020 -0.00014 0.50046
 Co224 Co 0.43956 0.00009 0.50038
 Co225 Co 0.49998 0.06037 0.50029
 Co226 Co 0.49978 -0.06046 0.50054
 O227 O 0.49988 -0.00004 0.50042
 C228 C 0.55993 -0.05320 0.44599
 C229 C 0.43975 0.05325 0.44574
 C230 C 0.55277 0.05990 0.44548
 C231 C 0.44688 -0.06006 0.44576
 O232 O 0.56295 0.51931 0.04949
 O233 O 0.43635 0.48076 0.04969
 O234 O 0.48003 0.56336 0.04947
 O235 O 0.51918 0.43680 0.04939
 O236 O 0.42880 0.54304 0.02711
 O237 O 0.57035 0.45718 0.02688
 O238 O 0.45693 0.42945 0.02769
 O239 O 0.54226 0.57075 0.02762
 C240 C 0.55961 0.55296 0.05401
 C241 C 0.43963 0.44707 0.05413
 C242 C 0.44637 0.56022 0.05367
 C243 C 0.55284 0.44001 0.05355
 O244 O 0.56281 0.48131 -0.05136
 O245 O 0.43612 0.51927 -0.05114
 O246 O 0.51889 0.56373 -0.05111
 O247 O 0.48009 0.43696 -0.05109
 O248 O 0.42885 0.45699 -0.02858
 O249 O 0.57018 0.54351 -0.02875
 O250 O 0.54239 0.42980 -0.02937
 O251 O 0.45665 0.57067 -0.02923
 Co252 Co 0.55993 0.50031 -0.00093
 Co253 Co 0.43918 0.50003 -0.00074
 Co254 Co 0.49947 0.56055 -0.00082
 Co255 Co 0.49964 0.43984 -0.00085
 O256 O 0.49956 0.50019 -0.00083
 C257 C 0.55961 0.44764 -0.05581
 C258 C 0.43944 0.55294 -0.05566
 C259 C 0.55258 0.56080 -0.05528
 C260 C 0.44640 0.43986 -0.05517
 C261 C 1.19602 0.15228 0.20661
 C262 C 1.17318 0.13665 0.18617
 C263 C 1.14699 0.11894 0.16096
 C264 C 1.12539 0.10405 0.13836
 C265 C 1.10126 0.08660 0.11062
 C266 C 1.08197 0.07142 0.08584
 C267 C 1.19419 0.65128 0.70724
 C268 C 1.17120 0.63588 0.68683
 C269 C 1.14495 0.61850 0.66153
 C270 C 1.12339 0.60389 0.63872
 C271 C 1.09944 0.58673 0.61064
 C272 C 1.08041 0.57173 0.58555
 C273 C 0.69509 0.15275 0.70607
 C274 C 0.67219 0.13709 0.68576
 C275 C 0.64598 0.11932 0.66067
 C276 C 0.62438 0.10438 0.63813
 C277 C 0.60030 0.08686 0.61041
 C278 C 0.58106 0.07163 0.58564
 C279 C 0.69453 0.65112 0.20655
 C280 C 0.67163 0.63568 0.18603
 C281 C 0.64538 0.61827 0.16068
 C282 C 0.62376 0.60364 0.13791
 C283 C 0.59966 0.58647 0.10994
 C284 C 0.58044 0.57148 0.08497
 C285 C 0.80531 -0.15248 0.20682
 C286 C 0.82823 -0.13685 0.18644
 C287 C 0.85447 -0.11915 0.16126
 C288 C 0.87608 -0.10427 0.13863
 C289 C 0.90018 -0.08682 0.11081
 C290 C 0.91942 -0.07164 0.08594
 C291 C 0.80450 0.34823 0.70624
 C292 C 0.82747 0.36380 0.68585
 C293 C 0.85379 0.38138 0.66065
 C294 C 0.87548 0.39615 0.63801
 C295 C 0.89968 0.41347 0.61018
 C296 C 0.91898 0.42860 0.58532
 C297 C 0.30567 -0.15254 0.70741
 C298 C 0.32861 -0.13692 0.68708
 C299 C 0.35478 -0.11922 0.66189
 C300 C 0.37628 -0.10433 0.63917
 C301 C 0.40016 -0.08688 0.61118
 C302 C 0.41917 -0.07169 0.58615
 C303 C 0.30486 0.34773 0.20656
 C304 C 0.32768 0.36333 0.18597
 C305 C 0.35385 0.38095 0.16059
 C306 C 0.37543 0.39577 0.13784
 C307 C 0.39953 0.41316 0.10993
 C308 C 0.41876 0.42834 0.08503
 C309 C 0.80607 0.15298 -0.20643
 C310 C 0.82898 0.13739 -0.18598
 C311 C 0.85518 0.11969 -0.16073
 C312 C 0.87675 0.10477 -0.13806
 C313 C 0.90079 0.08725 -0.11019
 C314 C 0.91995 0.07198 -0.08530
 C315 C 0.80398 0.65198 0.29309
 C316 C 0.82700 0.63641 0.31343
 C317 C 0.85339 0.61886 0.33857
 C318 C 0.87516 0.60414 0.36118
 C319 C 0.89944 0.58688 0.38899
 C320 C 0.91880 0.57181 0.41385
 C321 C 0.30493 0.15342 0.29391
 C322 C 0.32775 0.13773 0.31443
 C323 C 0.35389 0.11993 0.33971
 C324 C 0.37545 0.10494 0.36236
 C325 C 0.39953 0.08735 0.39016
 C326 C 0.41878 0.07205 0.41496
 C327 C 0.30424 0.65197 -0.20736
 C328 C 0.32731 0.63634 -0.18719
 C329 C 0.35369 0.61873 -0.16214
 C330 C 0.37539 0.60395 -0.13954
 C331 C 0.39950 0.58664 -0.11165
 C332 C 0.41868 0.57155 -0.08668
 C333 C 1.19429 -0.15267 -0.20608
 C334 C 1.17138 -0.13707 -0.18580
 C335 C 1.14525 -0.11938 -0.16066
 C336 C 1.12380 -0.10447 -0.13799
 C337 C 1.09999 -0.08699 -0.11007
 C338 C 1.08105 -0.07178 -0.08509
 C339 C 1.19592 0.34880 0.29379
 C340 C 1.17299 0.36432 0.31419
 C341 C 1.14667 0.38186 0.33934
 C342 C 1.12495 0.39659 0.36190
 C343 C 1.10068 0.41387 0.38961
 C344 C 1.08129 0.42893 0.41434
 C345 C 0.69443 -0.15272 0.29433
 C346 C 0.67157 -0.13715 0.31474
 C347 C 0.64542 -0.11948 0.33994
 C348 C 0.62389 -0.10460 0.36257
 C349 C 0.59989 -0.08713 0.39037
 C350 C 0.58075 -0.07192 0.41520
 C351 C 0.69498 0.34927 -0.20748
 C352 C 0.67201 0.36477 -0.18715
 C353 C 0.64568 0.38226 -0.16200
 C354 C 0.62399 0.39694 -0.13939
 C355 C 0.59980 0.41415 -0.11158
 C356 C 0.58052 0.42915 -0.08671
 C357 C 1.15321 0.19569 -0.20589
 C358 C 1.13762 0.17272 -0.18546
 C359 C 1.11999 0.14640 -0.16025
 C360 C 1.10516 0.12469 -0.13763
 C361 C 1.08775 0.10047 -0.10984
 C362 C 1.07257 0.08113 -0.08503
 C363 C 1.15233 0.69615 0.29327
 C364 C 1.13673 0.67323 0.31375
 C365 C 1.11909 0.64696 0.33901
 C366 C 1.10426 0.62529 0.36168
 C367 C 1.08687 0.60109 0.38949
 C368 C 1.07170 0.58176 0.41432
 C369 C 0.65220 0.19398 0.29280
 C370 C 0.63658 0.17104 0.31319
 C371 C 0.61890 0.14486 0.33845
 C372 C 0.60402 0.12336 0.36122
 C373 C 0.58658 0.09948 0.38927
 C374 C 0.57141 0.08049 0.41436
 C375 C 0.65218 0.69656 -0.20664
 C376 C 0.63653 0.67365 -0.18618
 C377 C 0.61881 0.64737 -0.16098
 C378 C 0.60391 0.62567 -0.13840
 C379 C 0.58644 0.60141 -0.11069
 C380 C 0.57125 0.58199 -0.08597
 C381 C 0.84757 -0.19458 -0.20589
 C382 C 0.86325 -0.17180 -0.18543
 C383 C 0.88103 -0.14569 -0.16020
 C384 C 0.89599 -0.12417 -0.13758
 C385 C 0.91354 -0.10015 -0.10981
 C386 C 0.92880 -0.08096 -0.08500
 C387 C 0.84819 0.30564 0.29319
 C388 C 0.86368 0.32863 0.31350
 C389 C 0.88123 0.35488 0.33866
 C390 C 0.89600 0.37645 0.36133
 C391 C 0.91333 0.40042 0.38923
 C392 C 0.92845 0.41951 0.41418
 C393 C 0.34759 -0.19477 0.29389
 C394 C 0.36318 -0.17191 0.31433
 C395 C 0.38081 -0.14573 0.33957
 C396 C 0.39564 -0.12415 0.36222
 C397 C 0.41304 -0.10009 0.39005
 C398 C 0.42820 -0.08090 0.41491
 C399 C 0.34718 0.30402 -0.20598
 C400 C 0.36275 0.32700 -0.18565
 C401 C 0.38034 0.35334 -0.16058
 C402 C 0.39513 0.37508 -0.13808
 C403 C 0.41251 0.39936 -0.11045
 C404 C 0.42767 0.41876 -0.08578
 C405 C 1.15229 -0.19605 0.20728
 C406 C 1.13671 -0.17310 0.18682
 C407 C 1.11912 -0.14679 0.16156
 C408 C 1.10435 -0.12508 0.13888
 C409 C 1.08705 -0.10086 0.11102
 C410 C 1.07198 -0.08151 0.08614
 C411 C 1.15207 0.30492 0.70683
 C412 C 1.13654 0.32779 0.68622
 C413 C 1.11898 0.35401 0.66081
 C414 C 1.10421 0.37564 0.63805
 C415 C 1.08688 0.39979 0.61012
 C416 C 1.07175 0.41909 0.58522
 C417 C 0.65216 -0.19574 0.70721
 C418 C 0.63651 -0.17283 0.68674
 C419 C 0.61880 -0.14658 0.66150
 C420 C 0.60392 -0.12492 0.63885
 C421 C 0.58648 -0.10074 0.61102
 C422 C 0.57132 -0.08141 0.58617
 C423 C 0.65234 0.30543 0.20575
 C424 C 0.63679 0.32839 0.18534
 C425 C 0.61915 0.35463 0.16009
 C426 C 0.60429 0.37619 0.13737
 C427 C 0.58684 0.40017 0.10943
 C428 C 0.57161 0.41927 0.08447
 C429 C 0.84855 0.19422 0.20674
 C430 C 0.86419 0.17130 0.18650
 C431 C 0.88188 0.14513 0.16141
 C432 C 0.89675 0.12363 0.13878
 C433 C 0.91417 0.09973 0.11089
 C434 C 0.92932 0.08070 0.08593
 C435 C 0.84724 0.69511 0.70573
 C436 C 0.86278 0.67231 0.68520
 C437 C 0.88043 0.64619 0.65991
 C438 C 0.89530 0.62465 0.63726
 C439 C 0.91278 0.60061 0.60949
 C440 C 0.92801 0.58140 0.58471
 C441 C 0.34841 0.19489 0.70723
 C442 C 0.36395 0.17207 0.68671
 C443 C 0.38150 0.14592 0.66140
 C444 C 0.39624 0.12435 0.63869
 C445 C 0.41352 0.10028 0.61080
 C446 C 0.42858 0.08106 0.58592
 C447 C 0.34733 0.69475 0.20577
 C448 C 0.36283 0.67194 0.18522
 C449 C 0.38037 0.64580 0.15988
 C450 C 0.39515 0.62427 0.13717
 C451 C 0.41251 0.60025 0.10930
 C452 C 0.42766 0.58107 0.08445
   
