data_POSCAR
  _audit_creation_date              2014-09-24
  _audit_creation_method            'ToBaCCo'
  _symmetry_space_group_name_H-M    'P1'
  _symmetry_Int_Tables_number       1
  _symmetry_cell_setting            triclinic
  loop_
  _symmetry_equiv_pos_as_xyz
 x,y,z
_cell_length_a 14.8689
_cell_length_b 34.3815
_cell_length_c 25.9938
_cell_angle_alpha 90.000000
_cell_angle_beta 89.779500
_cell_angle_gamma 90.000000
loop_
  _atom_site_label
  _atom_site_type_symbol
  _atom_site_fract_x
  _atom_site_fract_y
  _atom_site_fract_z
B1 B -0.06967 -0.03008 0.02474
 B2 B 0.04075 -0.03211 0.03590
 B3 B 0.00114 -0.04163 -0.02258
 B4 B -0.08683 -0.01219 -0.03455
 B5 B -0.10039 0.01646 0.01892
 B6 B -0.02065 0.00330 0.06284
 B7 B 0.06639 0.03056 -0.02205
 B8 B -0.04380 0.03276 -0.03282
 B9 B -0.00420 0.04214 0.02559
 B10 B 0.08373 0.01279 0.03739
 B11 B 0.09710 -0.01592 -0.01597
 B12 B 0.01731 -0.00282 -0.05984
 B13 B 0.53907 0.48354 0.55675
 B14 B 0.42906 0.48295 0.54341
 B15 B 0.48156 0.52513 0.55597
 B16 B 0.58642 0.52335 0.53071
 B17 B 0.59824 0.47897 0.50174
 B18 B 0.49993 0.45402 0.51038
 B19 B 0.46248 0.51786 0.45383
 B20 B 0.57244 0.51863 0.46694
 B21 B 0.52042 0.47633 0.45457
 B22 B 0.41542 0.47812 0.47974
 B23 B 0.40356 0.52255 0.50878
 B24 B 0.50176 0.54746 0.50012
 B25 B 0.57022 0.02915 0.52255
 B26 B 0.45943 0.03134 0.53298
 B27 B 0.50125 0.04114 0.47489
 B28 B 0.58935 0.01164 0.46327
 B29 B 0.60079 -0.01731 0.51653
 B30 B 0.51962 -0.00431 0.55997
 B31 B 0.43545 -0.03102 0.47426
 B32 B 0.54602 -0.03318 0.46433
 B33 B 0.50431 -0.04295 0.52226
 B34 B 0.41612 -0.01355 0.53374
 B35 B 0.40477 0.01550 0.48056
 B36 B 0.48603 0.00255 0.43714
 B37 B -0.04637 0.51570 0.05214
 B38 B 0.06400 0.51632 0.03937
 B39 B 0.01118 0.47420 0.05175
 B40 B -0.09306 0.47592 0.02593
 B41 B -0.10391 0.52034 -0.00318
 B42 B -0.00580 0.54525 0.00598
 B43 B 0.03307 0.48126 -0.05024
 B44 B -0.07705 0.48069 -0.03782
 B45 B -0.02463 0.52293 -0.04997
 B46 B 0.07961 0.52106 -0.02426
 B47 B 0.09042 0.47667 0.00498
 B48 B -0.00762 0.45180 -0.00406
 B49 B 0.06639 0.46943 0.47795
 B50 B -0.04380 0.46723 0.46718
 B51 B -0.00420 0.45785 0.52559
 B52 B 0.08373 0.48720 0.53739
 B53 B 0.09710 0.51591 0.48403
 B54 B 0.01731 0.50281 0.44016
 B55 B -0.06967 0.53007 0.52474
 B56 B 0.04075 0.53210 0.53590
 B57 B 0.00114 0.54162 0.47742
 B58 B -0.08683 0.51218 0.46545
 B59 B -0.10039 0.48353 0.51892
 B60 B -0.02065 0.49669 0.56284
 B61 B 0.46248 -0.01787 -0.04617
 B62 B 0.57244 -0.01863 -0.03306
 B63 B 0.52042 0.02366 -0.04543
 B64 B 0.41542 0.02188 -0.02027
 B65 B 0.40356 -0.02256 0.00878
 B66 B 0.50176 -0.04746 0.00012
 B67 B 0.53907 0.01645 0.05675
 B68 B 0.42906 0.01704 0.04341
 B69 B 0.48156 -0.02514 0.05597
 B70 B 0.58642 -0.02336 0.03071
 B71 B 0.59824 0.02102 0.00174
 B72 B 0.49993 0.04597 0.01038
 B73 B 0.43545 0.53101 -0.02574
 B74 B 0.54602 0.53317 -0.03567
 B75 B 0.50431 0.54294 0.02226
 B76 B 0.41612 0.51354 0.03374
 B77 B 0.40477 0.48449 -0.01944
 B78 B 0.48603 0.49744 -0.06286
 B79 B 0.57022 0.47084 0.02255
 B80 B 0.45943 0.46865 0.03298
 B81 B 0.50125 0.45885 -0.02511
 B82 B 0.58935 0.48835 -0.03673
 B83 B 0.60079 0.51730 0.01653
 B84 B 0.51962 0.50430 0.05997
 B85 B 0.03307 0.01873 0.44976
 B86 B -0.07705 0.01931 0.46218
 B87 B -0.02463 -0.02294 0.45003
 B88 B 0.07961 -0.02107 0.47574
 B89 B 0.09042 0.02332 0.50498
 B90 B -0.00762 0.04819 0.49594
 B91 B -0.04637 -0.01571 0.55214
 B92 B 0.06400 -0.01633 0.53937
 B93 B 0.01118 0.02579 0.55175
 B94 B -0.09306 0.02407 0.52593
 B95 B -0.10391 -0.02035 0.49682
 B96 B -0.00580 -0.04526 0.50598
 B97 B 0.75811 0.20780 0.27632
 B98 B 0.80088 0.21843 0.21741
 B99 B 0.68925 0.21114 0.22563
 B100 B 0.65676 0.23032 0.28275
 B101 B 0.75087 0.24974 0.30977
 B102 B 0.84049 0.24144 0.26983
 B103 B 0.72017 0.28809 0.21929
 B104 B 0.67710 0.27861 0.27811
 B105 B 0.78853 0.28517 0.27053
 B106 B 0.82100 0.26614 0.21403
 B107 B 0.72639 0.24694 0.18674
 B108 B 0.63694 0.25448 0.22662
 B109 B 0.74328 0.79373 0.78067
 B110 B 0.69728 0.78518 0.72243
 B111 B 0.80911 0.79189 0.72794
 B112 B 0.84501 0.77109 0.78328
 B113 B 0.75207 0.75132 0.81187
 B114 B 0.66041 0.76053 0.77427
 B115 B 0.77720 0.71522 0.71872
 B116 B 0.82369 0.72306 0.77713
 B117 B 0.71201 0.71689 0.77171
 B118 B 0.67632 0.73735 0.71700
 B119 B 0.76841 0.75737 0.68814
 B120 B 0.86076 0.74848 0.72551
 B121 B 0.29565 0.21739 0.72545
 B122 B 0.18265 0.22147 0.72474
 B123 B 0.23654 0.21233 0.78081
 B124 B 0.33506 0.23661 0.78036
 B125 B 0.34223 0.26181 0.72407
 B126 B 0.24685 0.25249 0.68947
 B127 B 0.19566 0.28879 0.77714
 B128 B 0.30859 0.28421 0.77849
 B129 B 0.25577 0.29362 0.72260
 B130 B 0.15585 0.26914 0.72238
 B131 B 0.14909 0.24411 0.77927
 B132 B 0.24412 0.25429 0.81336
 B133 B 0.24637 0.70366 0.22039
 B134 B 0.19364 0.71365 0.27634
 B135 B 0.30614 0.70751 0.27487
 B136 B 0.34806 0.72680 0.22016
 B137 B 0.25859 0.74474 0.18744
 B138 B 0.16220 0.73660 0.22210
 B139 B 0.27063 0.78454 0.27892
 B140 B 0.32443 0.77488 0.22285
 B141 B 0.21170 0.78034 0.22361
 B142 B 0.17051 0.76155 0.27847
 B143 B 0.25977 0.74265 0.31120
 B144 B 0.35589 0.75160 0.27716
 B145 B 0.30614 0.79248 0.77487
 B146 B 0.19364 0.78634 0.77634
 B147 B 0.24637 0.79633 0.72039
 B148 B 0.34806 0.77319 0.72016
 B149 B 0.35589 0.74839 0.77717
 B150 B 0.25977 0.75735 0.81120
 B151 B 0.21170 0.71965 0.72361
 B152 B 0.32443 0.72511 0.72285
 B153 B 0.27063 0.71545 0.77892
 B154 B 0.17051 0.73844 0.77847
 B155 B 0.16220 0.76339 0.72210
 B156 B 0.25859 0.75525 0.68744
 B157 B 0.23654 0.28766 0.28081
 B158 B 0.18265 0.27852 0.22474
 B159 B 0.29565 0.28260 0.22545
 B160 B 0.33506 0.26338 0.28036
 B161 B 0.24412 0.24570 0.31336
 B162 B 0.14909 0.25588 0.27927
 B163 B 0.25577 0.20637 0.22260
 B164 B 0.30859 0.21578 0.27849
 B165 B 0.19566 0.21120 0.27714
 B166 B 0.15585 0.23085 0.22238
 B167 B 0.24685 0.24750 0.18947
 B168 B 0.34223 0.23818 0.22407
 B169 B 0.80911 0.70810 0.22794
 B170 B 0.69728 0.71481 0.22243
 B171 B 0.74328 0.70626 0.28067
 B172 B 0.84501 0.72890 0.28328
 B173 B 0.86076 0.75151 0.22551
 B174 B 0.76841 0.74262 0.18814
 B175 B 0.71201 0.78310 0.27171
 B176 B 0.82369 0.77693 0.27713
 B177 B 0.77720 0.78477 0.21872
 B178 B 0.67632 0.76264 0.21700
 B179 B 0.66041 0.73946 0.27427
 B180 B 0.75207 0.74867 0.31187
 B181 B 0.72017 0.21190 0.71929
 B182 B 0.67710 0.22138 0.77811
 B183 B 0.78853 0.21482 0.77053
 B184 B 0.82101 0.23385 0.71403
 B185 B 0.72639 0.25305 0.68674
 B186 B 0.63694 0.24552 0.72662
 B187 B 0.75811 0.29219 0.77632
 B188 B 0.80088 0.28156 0.71741
 B189 B 0.68925 0.28885 0.72563
 B190 B 0.65676 0.26967 0.78275
 B191 B 0.75086 0.25025 0.80977
 B192 B 0.84049 0.25855 0.76983
 C193 C 0.10688 0.39679 0.84986
 C194 C 0.13923 0.36633 0.88020
 C195 C 0.15945 0.33055 0.85804
 C196 C 0.06689 0.45896 0.90301
 C197 C 0.10953 0.35479 0.77562
 C198 C 0.08870 0.39065 0.79789
 C199 C 0.08676 0.43283 0.87466
 C200 C 0.14913 0.32497 0.80475
 H201 H 0.15060 0.37049 0.92101
 H202 H 0.18832 0.30829 0.88233
 H203 H 0.09785 0.35089 0.73529
 H204 H 0.06007 0.41360 0.77456
 C205 C 0.38109 0.59827 0.34942
 C206 C 0.40140 0.60362 0.29733
 C207 C 0.38717 0.63993 0.27451
 C208 C 0.42787 0.53895 0.40628
 C209 C 0.33348 0.66521 0.35594
 C210 C 0.34939 0.62939 0.37879
 C211 C 0.40474 0.56349 0.37632
 C212 C 0.34808 0.67049 0.30283
 H213 H 0.43051 0.58021 0.27489
 H214 H 0.40547 0.64373 0.23472
 H215 H 0.30534 0.68800 0.37976
 H216 H 0.33661 0.62592 0.41963
 C217 C 0.88008 0.90297 0.65695
 C218 C 0.89672 0.89779 0.70948
 C219 C 0.88452 0.86102 0.73177
 C220 C 0.91971 0.96327 0.60011
 C221 C 0.84418 0.83489 0.64852
 C222 C 0.85693 0.87118 0.62649
 C223 C 0.89938 0.93850 0.63050
 C224 C 0.85238 0.82972 0.70209
 H225 H 0.92021 0.92180 0.73282
 H226 H 0.89827 0.85748 0.77213
 H227 H 0.82259 0.81164 0.62343
 H228 H 0.84804 0.87449 0.58533
 C229 C 0.61153 0.09970 0.15880
 C230 C 0.63853 0.13035 0.12717
 C231 C 0.65374 0.16694 0.14777
 C232 C 0.57169 0.03807 0.10450
 C233 C 0.60741 0.14367 0.23168
 C234 C 0.59333 0.10651 0.21095
 C235 C 0.59168 0.06355 0.13391
 C236 C 0.64438 0.17346 0.20089
 H237 H 0.64835 0.12592 0.08623
 H238 H 0.67642 0.18955 0.12196
 H239 H 0.59548 0.14823 0.27236
 H240 H 0.56798 0.08338 0.23529
 C241 C 0.80047 0.09905 0.36661
 C242 C 0.79972 0.09756 0.31287
 C243 C 0.78573 0.13153 0.28416
 C244 C 0.86246 0.04179 0.42434
 C245 C 0.77295 0.16861 0.36273
 C246 C 0.78616 0.13465 0.39132
 C247 C 0.82896 0.06600 0.39672
 C248 C 0.77394 0.16793 0.30841
 H249 H 0.81177 0.07032 0.29307
 H250 H 0.78423 0.12897 0.24280
 H251 H 0.76282 0.19541 0.38373
 H252 H 0.78783 0.13641 0.43294
 C253 C 0.30193 0.40333 0.63642
 C254 C 0.36789 0.38749 0.66791
 C255 C 0.35436 0.35223 0.69282
 C256 C 0.36429 0.46064 0.57920
 C257 C 0.20522 0.34836 0.65675
 C258 C 0.22061 0.38335 0.62994
 C259 C 0.32774 0.43637 0.60552
 C260 C 0.27088 0.33313 0.69040
 H261 H 0.43139 0.40213 0.67189
 H262 H 0.40979 0.34025 0.71443
 H263 H 0.14244 0.33312 0.65082
 H264 H 0.17031 0.39429 0.60366
 C265 C 0.69259 0.90122 0.87105
 C266 C 0.77412 0.88140 0.87672
 C267 C 0.78991 0.84704 0.84884
 C268 C 0.63480 0.95859 0.93014
 C269 C 0.64112 0.85104 0.81236
 C270 C 0.62664 0.88568 0.83903
 C271 C 0.66836 0.93412 0.90277
 C272 C 0.72484 0.83218 0.81454
 H273 H 0.82458 0.89207 0.90311
 H274 H 0.85320 0.83219 0.85408
 H275 H 0.58676 0.83943 0.78947
 H276 H 0.56295 0.90021 0.83569
 C277 C 0.19107 0.59539 0.13314
 C278 C 0.27658 0.61235 0.12987
 C279 C 0.29483 0.64690 0.15694
 C280 C 0.12770 0.53853 0.07565
 C281 C 0.14138 0.64828 0.18773
 C282 C 0.12421 0.61375 0.16184
 C283 C 0.16413 0.56257 0.10224
 C284 C 0.22824 0.66451 0.18807
 H285 H 0.32815 0.59942 0.10584
 H286 H 0.36060 0.65995 0.15314
 H287 H 0.08615 0.66189 0.20814
 H288 H 0.05758 0.60166 0.16307
 C289 C 0.44010 0.87863 0.14927
 C290 C 0.46790 0.86874 0.19915
 C291 C 0.44182 0.83287 0.22088
 C292 C 0.46658 0.94560 0.10060
 C293 C 0.36882 0.81543 0.14147
 C294 C 0.39487 0.85084 0.11983
 C295 C 0.45619 0.91656 0.12646
 C296 C 0.38446 0.80746 0.19381
 H297 H 0.50617 0.88921 0.22195
 H298 H 0.45902 0.82689 0.26047
 H299 H 0.33098 0.79554 0.11773
 H300 H 0.37633 0.85718 0.08042
 C301 C 0.56935 0.38163 0.35860
 C302 C 0.61624 0.35301 0.38587
 C303 C 0.64140 0.31816 0.36202
 C304 C 0.53771 0.44717 0.41003
 C305 C 0.56604 0.33844 0.28437
 C306 C 0.54137 0.37360 0.30829
 C307 C 0.55096 0.41863 0.38356
 C308 C 0.62129 0.31124 0.30980
 H309 H 0.63673 0.35829 0.42523
 H310 H 0.68242 0.29803 0.38368
 H311 H 0.54623 0.33371 0.24503
 H312 H 0.50305 0.39496 0.28701
 C313 C 0.93027 0.61829 0.85449
 C314 C 0.95594 0.62625 0.80361
 C315 C 0.93214 0.66183 0.78041
 C316 C 0.95959 0.55224 0.90536
 C317 C 0.86243 0.68258 0.85980
 C318 C 0.88673 0.64736 0.88289
 C319 C 0.94745 0.58095 0.87900
 C320 C 0.87991 0.68957 0.80716
 H321 H 0.99180 0.60456 0.78139
 H322 H 0.95026 0.66650 0.74075
 H323 H 0.82410 0.70304 0.88266
 H324 H 0.86814 0.64220 0.92267
 C325 C 0.06132 0.11965 0.64808
 C326 C 0.03228 0.12965 0.69784
 C327 C 0.06204 0.16454 0.72074
 C328 C 0.02678 0.05450 0.59692
 C329 C 0.14242 0.18076 0.64286
 C330 C 0.11283 0.14634 0.62010
 C331 C 0.04016 0.08275 0.62379
 C332 C 0.12403 0.18885 0.69497
 H333 H -0.01036 0.11002 0.71955
 H334 H 0.04314 0.17062 0.76013
 H335 H 0.18391 0.19992 0.61993
 H336 H 0.13286 0.13996 0.58086
 C337 C 0.19564 0.38763 0.38679
 C338 C 0.18685 0.39321 0.33366
 C339 C 0.20477 0.36266 0.29943
 C340 C 0.12641 0.43973 0.45007
 C341 C 0.24384 0.32167 0.37139
 C342 C 0.22653 0.35214 0.40534
 C343 C 0.16239 0.41633 0.42232
 C344 C 0.22921 0.32562 0.31772
 H345 H 0.16362 0.42084 0.31873
 H346 H 0.19918 0.36829 0.25880
 H347 H 0.26630 0.29465 0.38827
 H348 H 0.23394 0.34745 0.44634
 C349 C 0.31177 0.61462 0.88383
 C350 C 0.31355 0.60881 0.83049
 C351 C 0.29712 0.63991 0.79689
 C352 C 0.37681 0.56085 0.94588
 C353 C 0.27517 0.68215 0.87011
 C354 C 0.29090 0.65118 0.90338
 C355 C 0.34265 0.58484 0.91838
 C356 C 0.28066 0.67762 0.81591
 H357 H 0.33008 0.58050 0.81480
 H358 H 0.29850 0.63425 0.75609
 H359 H 0.26073 0.70985 0.88792
 H360 H 0.28987 0.65616 0.94456
 C361 C 0.68239 0.11687 0.60772
 C362 C 0.76267 0.11889 0.63536
 C363 C 0.77467 0.14859 0.67160
 C364 C 0.62971 0.05949 0.54873
 C365 C 0.62528 0.17290 0.65336
 C366 C 0.61522 0.14441 0.61600
 C367 C 0.66156 0.08509 0.57425
 C368 C 0.70455 0.17514 0.68266
 H369 H 0.81564 0.09779 0.62887
 H370 H 0.83886 0.15079 0.69080
 H371 H 0.57116 0.19364 0.65824
 H372 H 0.55438 0.14363 0.59347
 C373 C 0.81682 0.88027 0.10715
 C374 C 0.88369 0.85252 0.11510
 C375 C 0.87194 0.82329 0.15139
 C376 C 0.87071 0.93897 0.05018
 C377 C 0.72229 0.84749 0.16965
 C378 C 0.73544 0.87767 0.13411
 C379 C 0.83867 0.91277 0.07483
 C380 C 0.79211 0.82088 0.18059
 H381 H 0.94593 0.85383 0.09350
 H382 H 0.92602 0.80256 0.15619
 H383 H 0.65788 0.84523 0.18890
 H384 H 0.68271 0.89890 0.12793
 C385 C 0.88641 0.11876 0.86429
 C386 C 0.82124 0.11163 0.82724
 C387 C 0.79596 0.14112 0.79387
 C388 C 0.92253 0.06475 0.93208
 C389 C 0.90586 0.18415 0.83235
 C390 C 0.93139 0.15440 0.86571
 C391 C 0.90484 0.08966 0.90168
 C392 C 0.83512 0.17835 0.79724
 H393 H 0.78674 0.08388 0.82578
 H394 H 0.74034 0.13522 0.76866
 H395 H 0.93826 0.21219 0.83619
 H396 H 0.98348 0.15971 0.89391
 C397 C 0.11598 0.62170 0.63205
 C398 C 0.11512 0.61843 0.68571
 C399 C 0.13764 0.65062 0.71593
 C400 C 0.07612 0.56368 0.57115
 C401 C 0.15333 0.68935 0.63873
 C402 C 0.13165 0.65746 0.60881
 C403 C 0.09619 0.58939 0.59985
 C404 C 0.16404 0.68557 0.69245
 H405 H 0.09844 0.59104 0.70399
 H406 H 0.13636 0.64783 0.75730
 H407 H 0.16605 0.71642 0.61882
 H408 H 0.12827 0.66059 0.56736
 C409 C 0.61571 0.88064 0.36257
 C410 C 0.57081 0.84509 0.36583
 C411 C 0.59569 0.81476 0.33330
 C412 C 0.58073 0.93511 0.42948
 C413 C 0.70430 0.85715 0.29185
 C414 C 0.67969 0.88723 0.32445
 C415 C 0.59837 0.91011 0.39934
 C416 C 0.66573 0.81996 0.29730
 H417 H 0.51953 0.84030 0.39489
 H418 H 0.56348 0.78681 0.33858
 H419 H 0.75898 0.86263 0.26559
 H420 H 0.71385 0.91501 0.32158
 C421 C 0.38628 0.37973 0.13111
 C422 C 0.38417 0.38440 0.18457
 C423 C 0.36441 0.35252 0.21604
 C424 C 0.42348 0.43718 0.06845
 C425 C 0.35939 0.31128 0.14074
 C426 C 0.37717 0.34297 0.10947
 C427 C 0.40402 0.41167 0.09773
 C428 C 0.34469 0.31627 0.19401
 H429 H 0.39625 0.41261 0.20176
 H430 H 0.36282 0.35650 0.25717
 H431 H 0.35150 0.28335 0.12214
 H432 H 0.38318 0.33883 0.06825
 C433 C 0.55494 0.63484 0.11821
 C434 C 0.60990 0.62006 0.15699
 C435 C 0.65001 0.64496 0.19225
 C436 C 0.51043 0.58224 0.04962
 C437 C 0.57477 0.69962 0.15261
 C438 C 0.53557 0.67455 0.11665
 C439 C 0.52588 0.60851 0.07881
 C440 C 0.63558 0.68535 0.18989
 H441 H 0.62548 0.58927 0.15849
 H442 H 0.69653 0.63238 0.21926
 H443 H 0.56071 0.73038 0.14922
 H444 H 0.49263 0.68627 0.08686
 C445 C 0.05150 0.86625 0.88127
 C446 C 0.03199 0.82652 0.88282
 C447 C 0.07057 0.80147 0.84637
 C448 C 0.00777 0.91907 0.94996
 C449 C 0.14633 0.85615 0.80678
 C450 C 0.10639 0.88102 0.84227
 C451 C 0.02293 0.89266 0.92083
 C452 C 0.13119 0.81577 0.80878
 H453 H -0.01055 0.81476 0.91296
 H454 H 0.05671 0.77068 0.84972
 H455 H 0.19406 0.86875 0.78029
 H456 H 0.12250 0.91176 0.84091
 C457 C 0.45128 0.13415 0.38064
 C458 C 0.38835 0.12040 0.34542
 C459 C 0.34784 0.14567 0.31093
 C460 C 0.49617 0.08070 0.44795
 C461 C 0.43752 0.19869 0.34407
 C462 C 0.47799 0.17313 0.37916
 C463 C 0.48133 0.10744 0.41937
 C464 C 0.36935 0.18552 0.31046
 H465 H 0.36738 0.09020 0.34608
 H466 H 0.29629 0.13383 0.28646
 H467 H 0.45696 0.22900 0.34510
 H468 H 0.52740 0.18402 0.40607
 C469 C 0.95116 0.35936 0.61296
 C470 C 0.96143 0.36332 0.66623
 C471 C 0.92061 0.33667 0.69979
 C472 C 0.98984 0.41845 0.55255
 C473 C 0.86112 0.30211 0.62656
 C474 C 0.90389 0.32786 0.59326
 C475 C 0.97646 0.39040 0.57908
 C476 C 0.86320 0.30780 0.68051
 H477 H 0.99844 0.38774 0.68179
 H478 H 0.93058 0.33980 0.74071
 H479 H 0.82337 0.27869 0.60924
 H480 H 0.89597 0.32430 0.55209
 C481 C 0.88008 0.59702 0.15695
 C482 C 0.89672 0.60220 0.20948
 C483 C 0.88452 0.63897 0.23177
 C484 C 0.91971 0.53672 0.10011
 C485 C 0.84418 0.66510 0.14852
 C486 C 0.85693 0.62881 0.12649
 C487 C 0.89938 0.56150 0.13050
 C488 C 0.85238 0.67027 0.20209
 H489 H 0.92021 0.57820 0.23282
 H490 H 0.89827 0.64251 0.27213
 H491 H 0.82259 0.68835 0.12343
 H492 H 0.84804 0.62550 0.08533
 C493 C 0.61153 0.40029 0.65880
 C494 C 0.63853 0.36964 0.62717
 C495 C 0.65374 0.33305 0.64777
 C496 C 0.57169 0.46192 0.60450
 C497 C 0.60741 0.35632 0.73168
 C498 C 0.59333 0.39348 0.71095
 C499 C 0.59168 0.43644 0.63391
 C500 C 0.64439 0.32653 0.70089
 H501 H 0.64835 0.37408 0.58623
 H502 H 0.67642 0.31044 0.62196
 H503 H 0.59548 0.35176 0.77236
 H504 H 0.56798 0.41661 0.73529
 C505 C 0.10688 0.10320 0.34986
 C506 C 0.08870 0.10934 0.29789
 C507 C 0.10952 0.14521 0.27562
 C508 C 0.06689 0.04103 0.40301
 C509 C 0.15945 0.16944 0.35804
 C510 C 0.13923 0.13366 0.38020
 C511 C 0.08675 0.06716 0.37466
 C512 C 0.14913 0.17502 0.30475
 H513 H 0.06007 0.08639 0.27456
 H514 H 0.09785 0.14910 0.23529
 H515 H 0.18832 0.19170 0.38233
 H516 H 0.15060 0.12950 0.42101
 C517 C 0.38109 0.90172 0.84942
 C518 C 0.40140 0.89638 0.79733
 C519 C 0.38717 0.86006 0.77451
 C520 C 0.42787 0.96104 0.90628
 C521 C 0.33348 0.83478 0.85594
 C522 C 0.34939 0.87060 0.87878
 C523 C 0.40474 0.93650 0.87632
 C524 C 0.34808 0.82950 0.80283
 H525 H 0.43051 0.91978 0.77489
 H526 H 0.40547 0.85626 0.73472
 H527 H 0.30534 0.81199 0.87976
 H528 H 0.33661 0.87407 0.91963
 C529 C 0.19107 0.90461 0.63314
 C530 C 0.27658 0.88764 0.62987
 C531 C 0.29483 0.85309 0.65694
 C532 C 0.12770 0.96146 0.57565
 C533 C 0.14138 0.85171 0.68774
 C534 C 0.12421 0.88624 0.66184
 C535 C 0.16413 0.93742 0.60224
 C536 C 0.22824 0.83548 0.68807
 H537 H 0.32815 0.90057 0.60584
 H538 H 0.36060 0.84004 0.65313
 H539 H 0.08615 0.83811 0.70814
 H540 H 0.05758 0.89833 0.66307
 C541 C 0.69259 0.59877 0.37105
 C542 C 0.77412 0.61859 0.37672
 C543 C 0.78991 0.65295 0.34884
 C544 C 0.63480 0.54140 0.43014
 C545 C 0.64112 0.64895 0.31236
 C546 C 0.62664 0.61431 0.33904
 C547 C 0.66836 0.56587 0.40277
 C548 C 0.72484 0.66781 0.31454
 H549 H 0.82458 0.60792 0.40311
 H550 H 0.85320 0.66780 0.35408
 H551 H 0.58676 0.66056 0.28947
 H552 H 0.56295 0.59979 0.33569
 C553 C 0.30193 0.09666 0.13642
 C554 C 0.36789 0.11250 0.16791
 C555 C 0.35436 0.14776 0.19282
 C556 C 0.36429 0.03935 0.07920
 C557 C 0.20522 0.15163 0.15675
 C558 C 0.22061 0.11664 0.12994
 C559 C 0.32774 0.06362 0.10552
 C560 C 0.27088 0.16686 0.19040
 H561 H 0.43139 0.09786 0.17189
 H562 H 0.40979 0.15974 0.21443
 H563 H 0.14244 0.16687 0.15082
 H564 H 0.17031 0.10570 0.10366
 C565 C 0.80047 0.40094 0.86661
 C566 C 0.79972 0.40243 0.81287
 C567 C 0.78573 0.36846 0.78416
 C568 C 0.86246 0.45821 0.92434
 C569 C 0.77295 0.33138 0.86273
 C570 C 0.78616 0.36534 0.89132
 C571 C 0.82896 0.43399 0.89672
 C572 C 0.77394 0.33206 0.80841
 H573 H 0.81177 0.42967 0.79307
 H574 H 0.78423 0.37102 0.74280
 H575 H 0.76282 0.30458 0.88373
 H576 H 0.78783 0.36358 0.93294
 C577 C 0.56935 0.11836 0.85860
 C578 C 0.54137 0.12639 0.80829
 C579 C 0.56604 0.16155 0.78437
 C580 C 0.53771 0.05282 0.91003
 C581 C 0.64140 0.18183 0.86202
 C582 C 0.61624 0.14698 0.88587
 C583 C 0.55096 0.08136 0.88356
 C584 C 0.62129 0.18875 0.80980
 H585 H 0.50305 0.10503 0.78701
 H586 H 0.54623 0.16628 0.74503
 H587 H 0.68242 0.20196 0.88368
 H588 H 0.63673 0.14171 0.92523
 C589 C 0.44010 0.62136 0.64928
 C590 C 0.46790 0.63125 0.69915
 C591 C 0.44182 0.66712 0.72088
 C592 C 0.46658 0.55439 0.60060
 C593 C 0.36882 0.68457 0.64147
 C594 C 0.39487 0.64915 0.61983
 C595 C 0.45619 0.58343 0.62646
 C596 C 0.38446 0.69253 0.69381
 H597 H 0.50617 0.61078 0.72195
 H598 H 0.45902 0.67310 0.76047
 H599 H 0.33098 0.70445 0.61773
 H600 H 0.37633 0.64282 0.58042
 C601 C 0.06132 0.38034 0.14808
 C602 C 0.11283 0.35365 0.12010
 C603 C 0.14242 0.31923 0.14286
 C604 C 0.02678 0.44549 0.09692
 C605 C 0.06204 0.33545 0.22074
 C606 C 0.03228 0.37034 0.19784
 C607 C 0.04016 0.41724 0.12379
 C608 C 0.12403 0.31114 0.19497
 H609 H 0.13286 0.36003 0.08086
 H610 H 0.18391 0.30007 0.11993
 H611 H 0.04314 0.32937 0.26013
 H612 H -0.01036 0.38997 0.21955
 C613 C 0.93027 0.88170 0.35449
 C614 C 0.95594 0.87374 0.30361
 C615 C 0.93214 0.83816 0.28041
 C616 C 0.95959 0.94775 0.40536
 C617 C 0.86243 0.81741 0.35980
 C618 C 0.88673 0.85263 0.38289
 C619 C 0.94745 0.91904 0.37900
 C620 C 0.87991 0.81042 0.30716
 H621 H 0.99180 0.89543 0.28139
 H622 H 0.95026 0.83349 0.24075
 H623 H 0.82410 0.79695 0.38266
 H624 H 0.86814 0.85779 0.42267
 C625 C 0.81682 0.61972 0.60715
 C626 C 0.88369 0.64747 0.61510
 C627 C 0.87194 0.67670 0.65139
 C628 C 0.87071 0.56102 0.55018
 C629 C 0.72229 0.65250 0.66965
 C630 C 0.73544 0.62232 0.63411
 C631 C 0.83867 0.58722 0.57483
 C632 C 0.79211 0.67911 0.68059
 H633 H 0.94593 0.64616 0.59350
 H634 H 0.92602 0.69743 0.65619
 H635 H 0.65788 0.65476 0.68890
 H636 H 0.68271 0.60109 0.62793
 C637 C 0.68239 0.38312 0.10772
 C638 C 0.61522 0.35558 0.11600
 C639 C 0.62528 0.32709 0.15336
 C640 C 0.62971 0.44050 0.04873
 C641 C 0.77467 0.35140 0.17160
 C642 C 0.76267 0.38110 0.13536
 C643 C 0.66156 0.41490 0.07425
 C644 C 0.70455 0.32485 0.18266
 H645 H 0.55438 0.35636 0.09347
 H646 H 0.57116 0.30635 0.15824
 H647 H 0.83886 0.34920 0.19080
 H648 H 0.81564 0.40220 0.12887
 C649 C 0.31177 0.88537 0.38383
 C650 C 0.31355 0.89118 0.33049
 C651 C 0.29712 0.86008 0.29689
 C652 C 0.37681 0.93914 0.44588
 C653 C 0.27517 0.81784 0.37011
 C654 C 0.29090 0.84881 0.40338
 C655 C 0.34265 0.91515 0.41838
 C656 C 0.28066 0.82237 0.31591
 H657 H 0.33008 0.91949 0.31480
 H658 H 0.29850 0.86574 0.25609
 H659 H 0.26073 0.79014 0.38792
 H660 H 0.28987 0.84383 0.44456
 C661 C 0.19564 0.11236 0.88679
 C662 C 0.18685 0.10678 0.83366
 C663 C 0.20477 0.13733 0.79943
 C664 C 0.12641 0.06026 0.95007
 C665 C 0.24384 0.17832 0.87139
 C666 C 0.22653 0.14785 0.90534
 C667 C 0.16239 0.08366 0.92232
 C668 C 0.22921 0.17437 0.81772
 H669 H 0.16362 0.07915 0.81873
 H670 H 0.19918 0.13170 0.75880
 H671 H 0.26630 0.20534 0.88827
 H672 H 0.23394 0.15254 0.94634
 C673 C 0.11598 0.87829 0.13205
 C674 C 0.13165 0.84254 0.10881
 C675 C 0.15333 0.81064 0.13873
 C676 C 0.07612 0.93631 0.07115
 C677 C 0.13764 0.84937 0.21593
 C678 C 0.11512 0.88156 0.18571
 C679 C 0.09619 0.91060 0.09985
 C680 C 0.16404 0.81442 0.19245
 H681 H 0.12827 0.83940 0.06736
 H682 H 0.16605 0.78357 0.11882
 H683 H 0.13636 0.85217 0.25730
 H684 H 0.09844 0.90895 0.20399
 C685 C 0.88641 0.38123 0.36429
 C686 C 0.93139 0.34559 0.36571
 C687 C 0.90586 0.31584 0.33235
 C688 C 0.92253 0.43524 0.43208
 C689 C 0.79596 0.35887 0.29387
 C690 C 0.82124 0.38836 0.32724
 C691 C 0.90484 0.41033 0.40168
 C692 C 0.83512 0.32164 0.29724
 H693 H 0.98348 0.34029 0.39391
 H694 H 0.93826 0.28780 0.33619
 H695 H 0.74034 0.36478 0.26866
 H696 H 0.78674 0.41611 0.32578
 C697 C 0.38628 0.12026 0.63111
 C698 C 0.38417 0.11559 0.68457
 C699 C 0.36441 0.14747 0.71604
 C700 C 0.42348 0.06281 0.56845
 C701 C 0.35940 0.18871 0.64074
 C702 C 0.37717 0.15702 0.60947
 C703 C 0.40402 0.08832 0.59773
 C704 C 0.34469 0.18372 0.69401
 H705 H 0.39625 0.08738 0.70176
 H706 H 0.36282 0.14349 0.75717
 H707 H 0.35150 0.21664 0.62214
 H708 H 0.38318 0.16116 0.56825
 C709 C 0.61571 0.61935 0.86257
 C710 C 0.57081 0.65490 0.86583
 C711 C 0.59569 0.68523 0.83330
 C712 C 0.58073 0.56488 0.92948
 C713 C 0.70430 0.64284 0.79185
 C714 C 0.67969 0.61276 0.82445
 C715 C 0.59837 0.58988 0.89934
 C716 C 0.66573 0.68003 0.79730
 H717 H 0.51953 0.65969 0.89489
 H718 H 0.56347 0.71318 0.83858
 H719 H 0.75898 0.63736 0.76559
 H720 H 0.71385 0.58498 0.82158
 C721 C 0.45129 0.36584 0.88064
 C722 C 0.38835 0.37958 0.84542
 C723 C 0.34784 0.35432 0.81093
 C724 C 0.49617 0.41929 0.94795
 C725 C 0.43752 0.30131 0.84407
 C726 C 0.47799 0.32686 0.87916
 C727 C 0.48133 0.39255 0.91937
 C728 C 0.36935 0.31447 0.81046
 H729 H 0.36738 0.40979 0.84608
 H730 H 0.29629 0.36616 0.78646
 H731 H 0.45696 0.27099 0.84510
 H732 H 0.52741 0.31597 0.90607
 C733 C 0.95116 0.14063 0.11296
 C734 C 0.96143 0.13667 0.16623
 C735 C 0.92061 0.16332 0.19979
 C736 C 0.98984 0.08154 0.05255
 C737 C 0.86112 0.19788 0.12656
 C738 C 0.90389 0.17213 0.09326
 C739 C 0.97646 0.10959 0.07908
 C740 C 0.86320 0.19219 0.18051
 H741 H 0.99844 0.11225 0.18179
 H742 H 0.93058 0.16020 0.24071
 H743 H 0.82337 0.22130 0.10924
 H744 H 0.89597 0.17569 0.05209
 C745 C 0.55494 0.86515 0.61821
 C746 C 0.53557 0.82544 0.61665
 C747 C 0.57477 0.80037 0.65261
 C748 C 0.51043 0.91775 0.54962
 C749 C 0.65001 0.85503 0.69225
 C750 C 0.60990 0.87993 0.65699
 C751 C 0.52588 0.89148 0.57881
 C752 C 0.63558 0.81464 0.68989
 H753 H 0.49263 0.81372 0.58686
 H754 H 0.56071 0.76961 0.64922
 H755 H 0.69653 0.86761 0.71926
 H756 H 0.62548 0.91072 0.65849
 C757 C 0.05150 0.63374 0.38127
 C758 C 0.10640 0.61897 0.34227
 C759 C 0.14633 0.64384 0.30678
 C760 C 0.00777 0.58092 0.44996
 C761 C 0.07057 0.69852 0.34637
 C762 C 0.03199 0.67347 0.38282
 C763 C 0.02293 0.60733 0.42083
 C764 C 0.13119 0.68422 0.30878
 H765 H 0.12250 0.58823 0.34092
 H766 H 0.19406 0.63124 0.28029
 H767 H 0.05671 0.72931 0.34972
 H768 H -0.01055 0.68523 0.41296
   
