data_POSCAR
  _audit_creation_date              2014-09-24
  _audit_creation_method            'ToBaCCo'
  _symmetry_space_group_name_H-M    'P1'
  _symmetry_Int_Tables_number       1
  _symmetry_cell_setting            triclinic
  loop_
  _symmetry_equiv_pos_as_xyz
 x,y,z
_cell_length_a 43.9974
_cell_length_b 44.4612
_cell_length_c 44.2111
_cell_angle_alpha 88.636800
_cell_angle_beta 89.973800
_cell_angle_gamma 90.108900
loop_
  _atom_site_label
  _atom_site_type_symbol
  _atom_site_fract_x
  _atom_site_fract_y
  _atom_site_fract_z
C1 C 0.25002 0.50056 0.99950
 C2 C 0.74980 0.50004 -0.00005
 C3 C 0.00019 0.25016 0.49845
 C4 C 0.99978 0.74925 0.50105
 C5 C 0.50018 -0.00034 0.24887
 C6 C 0.50069 0.00098 0.75092
 C7 C 0.29683 0.02319 0.46454
 H8 H 0.29754 0.04003 0.48179
 C9 C 0.31766 0.02436 0.44073
 H10 H 0.33446 0.04220 0.43952
 C11 C 0.27468 -0.02121 0.44548
 H12 H 0.25832 -0.03926 0.44775
 C13 C 0.29512 -0.02087 0.42126
 H14 H 0.29429 -0.03851 0.40480
 N15 N 0.27581 0.00073 0.46642
 C16 C 0.20341 0.03585 0.52278
 H17 H 0.20255 0.01850 0.54034
 C18 C 0.18262 0.05953 0.52294
 H19 H 0.16572 0.06052 0.54072
 C20 C 0.22578 0.05526 0.47752
 H21 H 0.24217 0.05317 0.45951
 C22 C 0.20538 0.07932 0.47683
 H23 H 0.20630 0.09584 0.45843
 Zn24 Zn 0.25001 0.00000 0.50065
 N25 N 0.22449 0.03420 0.50036
 C26 C 0.27416 0.02122 0.55606
 N27 N 0.27539 -0.00077 0.53518
 C28 C 0.29619 -0.02333 0.53735
 C29 C 0.31667 -0.02457 0.56144
 C30 C 0.29427 0.02082 0.58053
 C31 C 0.20352 -0.03584 0.47800
 C32 C 0.18266 -0.05952 0.47762
 C33 C 0.20476 -0.07928 0.52400
 C34 C 0.22524 -0.05522 0.52353
 N35 N 0.22432 -0.03417 0.50067
 H36 H 0.25798 0.03933 0.55356
 H37 H 0.29699 -0.04020 0.52014
 H38 H 0.33328 -0.04251 0.56290
 H39 H 0.29337 0.03850 0.59695
 H40 H 0.20295 -0.01849 0.46043
 H41 H 0.16600 -0.06053 0.45963
 H42 H 0.20539 -0.09579 0.54241
 H43 H 0.24139 -0.05311 0.54174
 C44 C 0.18355 0.08138 0.49969
 C45 C 0.31683 0.00209 0.41895
 C46 C 0.18323 -0.08136 0.50088
 C47 C 0.31573 -0.00226 0.58316
 C48 C 0.70426 0.02175 0.53596
 H49 H 0.70350 0.03917 0.51847
 C50 C 0.68392 0.02240 0.56018
 H51 H 0.66745 0.04041 0.56145
 C52 C 0.72614 -0.02346 0.55535
 H53 H 0.74222 -0.04159 0.55310
 C54 C 0.70616 -0.02368 0.57994
 H55 H 0.70707 -0.04185 0.59668
 N56 N 0.72497 -0.00083 0.53409
 C57 C 0.79704 0.03591 0.47637
 H58 H 0.79781 0.01894 0.45926
 C59 C 0.81759 0.05988 0.47528
 H60 H 0.83421 0.06148 0.45722
 C61 C 0.77504 0.05418 0.52135
 H62 H 0.75886 0.05157 0.53959
 C63 C 0.79520 0.07852 0.52110
 H64 H 0.79430 0.09472 0.53900
 Zn65 Zn 0.75052 -0.00063 0.49963
 N66 N 0.77619 0.03360 0.49906
 C67 C 0.72620 0.02228 0.44400
 N68 N 0.72493 -0.00040 0.46522
 C69 C 0.70406 -0.02290 0.46340
 C70 C 0.68356 -0.02339 0.43931
 C71 C 0.70608 0.02265 0.41955
 C72 C 0.79686 -0.03719 0.52285
 C73 C 0.81730 -0.06116 0.52395
 C74 C 0.79483 -0.07982 0.47816
 C75 C 0.77477 -0.05548 0.47791
 N76 N 0.77602 -0.03488 0.50019
 H77 H 0.74242 0.04035 0.44622
 H78 H 0.70323 -0.04035 0.48086
 H79 H 0.66691 -0.04130 0.43812
 H80 H 0.70703 0.04088 0.40287
 H81 H 0.79770 -0.02020 0.53996
 H82 H 0.83391 -0.06275 0.54200
 H83 H 0.79387 -0.09604 0.46027
 H84 H 0.75860 -0.05287 0.45969
 C85 C 0.81667 0.08134 0.49787
 C86 C 0.68488 -0.00054 0.58234
 C87 C 0.81629 -0.08263 0.50137
 C88 C 0.68456 -0.00037 0.41723
 C89 C 0.47588 0.20285 1.02910
 H90 H 0.45884 0.20248 1.01147
 C91 C 0.47484 0.18165 1.05289
 H92 H 0.45691 0.16492 1.05369
 C93 C 0.52065 0.22451 1.04917
 H94 H 0.53880 0.24082 1.04731
 C95 C 0.52044 0.20370 1.07336
 H96 H 0.53828 0.20423 1.09022
 N97 N 0.49845 0.22380 1.02774
 C98 C 0.46276 0.29686 0.97071
 H99 H 0.48028 0.29818 0.95354
 C100 C 0.43891 0.31753 0.97018
 H101 H 0.43794 0.33480 0.95251
 C102 C 0.44322 0.27350 1.01546
 H103 H 0.44536 0.25679 1.03345
 C104 C 0.41897 0.29375 1.01577
 H105 H 0.40238 0.29242 1.03387
 Zn106 Zn 0.49912 0.25024 0.99356
 N107 N 0.46447 0.27539 0.99310
 C108 C 0.47751 0.22751 0.93785
 N109 N 0.49998 0.22602 0.95899
 C110 C 0.52279 0.20551 0.95723
 C111 C 0.52366 0.18545 0.93343
 C112 C 0.47751 0.20783 0.91367
 C113 C 0.53472 0.29579 1.01739
 C114 C 0.55856 0.31644 1.01883
 C115 C 0.57948 0.29577 0.97325
 C116 C 0.55520 0.27546 0.97263
 N117 N 0.53352 0.27576 0.99462
 H118 H 0.45918 0.24344 0.94004
 H119 H 0.54004 0.20446 0.97465
 H120 H 0.54167 0.16892 0.93242
 H121 H 0.45932 0.20881 0.89718
 H122 H 0.51689 0.29586 1.03425
 H123 H 0.55920 0.33246 1.03691
 H124 H 0.59653 0.29562 0.95556
 H125 H 0.55347 0.25989 0.95434
 C126 C 0.41691 0.31604 0.99300
 C127 C 0.49736 0.18206 1.07517
 C128 C 0.58109 0.31647 0.99653
 C129 C 0.50072 0.18652 0.91157
 C130 C 0.47779 0.79771 -0.02955
 H131 H 0.46066 0.79815 -0.01200
 C132 C 0.47698 0.81884 -0.05340
 H133 H 0.45914 0.83559 -0.05432
 C134 C 0.52255 0.77593 -0.04936
 H135 H 0.54061 0.75960 -0.04737
 C136 C 0.52258 0.79667 -0.07361
 H137 H 0.54051 0.79608 -0.09039
 N138 N 0.50025 0.77673 -0.02802
 C139 C 0.46377 0.70385 0.02893
 H140 H 0.48117 0.70251 0.04620
 C141 C 0.43978 0.68325 0.02937
 H142 H 0.43860 0.66600 0.04707
 C143 C 0.44464 0.72720 -0.01594
 H144 H 0.44699 0.74388 -0.03395
 C145 C 0.42027 0.70701 -0.01635
 H146 H 0.40379 0.70836 -0.03453
 Zn147 Zn 0.50056 0.75036 0.00620
 N148 N 0.46575 0.72529 0.00653
 C149 C 0.47873 0.77324 0.06175
 N150 N 0.50137 0.77464 0.04076
 C151 C 0.52431 0.79507 0.04266
 C152 C 0.52515 0.81514 0.06646
 C153 C 0.47869 0.79293 0.08591
 C154 C 0.53597 0.70470 -0.01741
 C155 C 0.55969 0.68399 -0.01877
 C156 C 0.58056 0.70466 0.02686
 C157 C 0.55640 0.72502 0.02738
 N158 N 0.53480 0.72475 0.00533
 H159 H 0.46031 0.75737 0.05944
 H160 H 0.54170 0.79605 0.02535
 H161 H 0.54327 0.83160 0.06759
 H162 H 0.46037 0.79202 0.10229
 H163 H 0.51820 0.70464 -0.03433
 H164 H 0.56030 0.66794 -0.03683
 H165 H 0.59754 0.70478 0.04459
 H166 H 0.55469 0.74062 0.04565
 C167 C 0.41793 0.68476 0.00644
 C168 C 0.49961 0.81833 -0.07558
 C169 C 0.58213 0.68393 0.00360
 C170 C 0.50204 0.81415 0.08818
 C171 C 1.03560 0.48507 0.20421
 H172 H 1.01807 0.46798 0.20407
 C173 C 1.05964 0.48394 0.18367
 H174 H 1.06074 0.46588 0.16768
 C175 C 1.05531 0.52989 0.22476
 H176 H 1.05325 0.54803 0.24045
 C177 C 1.07975 0.52962 0.20455
 H178 H 1.09659 0.54741 0.20487
 N179 N 1.03399 0.50766 0.22437
 C180 C 0.97758 0.47134 0.29768
 H181 H 0.96013 0.48842 0.29835
 C182 C 0.97716 0.44735 0.31865
 H183 H 0.95929 0.44586 0.33549
 C184 C 1.02272 0.45279 0.27550
 H185 H 1.04078 0.45531 0.25909
 C186 C 1.02314 0.42844 0.29607
 H187 H 1.04137 0.41213 0.29524
 Zn188 Zn 0.99979 0.50781 0.25033
 N189 N 1.00003 0.47353 0.27656
 C190 C 0.94417 0.48509 0.22717
 N191 N 0.96486 0.50788 0.22539
 C192 C 0.96225 0.53050 0.20427
 C193 C 0.93794 0.53091 0.18398
 C194 C 0.91952 0.48464 0.20727
 C195 C 1.02342 0.54381 0.29543
 C196 C 1.02435 0.56737 0.31572
 C197 C 0.97763 0.58657 0.29403
 C198 C 0.97756 0.56263 0.27410
 N199 N 1.00033 0.54192 0.27510
 H200 H 0.94703 0.46693 0.24356
 H201 H 0.97933 0.54802 0.20301
 H202 H 0.93617 0.54885 0.16706
 H203 H 0.90333 0.46625 0.20857
 H204 H 1.04090 0.52673 0.29610
 H205 H 1.04267 0.56855 0.33203
 H206 H 0.95930 0.60280 0.29337
 H207 H 0.95903 0.56033 0.25832
 C208 C 1.00018 0.42576 0.31785
 C209 C 1.08190 0.50641 0.18384
 C210 C 1.00119 0.58886 0.31508
 C211 C 0.91646 0.50770 0.18544
 C212 C -0.03808 0.46887 0.79530
 H213 H -0.02104 0.45138 0.79658
 C214 C -0.06238 0.46847 0.81563
 H215 H -0.06419 0.45056 0.83259
 C216 C -0.05604 0.51423 0.77235
 H217 H -0.05313 0.53237 0.75594
 C218 C -0.08068 0.51469 0.79228
 H219 H -0.09681 0.53306 0.79098
 N220 N -0.03541 0.49147 0.77415
 C221 C 0.02319 0.45566 0.70411
 H222 H 0.04066 0.47282 0.70343
 C223 C 0.02413 0.43212 0.68382
 H224 H 0.04245 0.43102 0.66750
 C225 C -0.02266 0.43665 0.72549
 H226 H -0.04119 0.43888 0.74130
 C227 C -0.02258 0.41271 0.70556
 H228 H -0.04090 0.39640 0.70624
 Zn229 Zn -0.00046 0.49161 0.74919
 N230 N 0.00010 0.45746 0.72447
 C231 C 0.05509 0.46983 0.77473
 N232 N 0.03374 0.49195 0.77512
 C233 C 0.03533 0.51458 0.79525
 C234 C 0.05938 0.51588 0.81574
 C235 C 0.07954 0.47027 0.79491
 C236 C -0.02265 0.52792 0.70179
 C237 C -0.02309 0.55189 0.68082
 C238 C 0.02289 0.57102 0.70334
 C239 C 0.02247 0.54668 0.72392
 N240 N -0.00021 0.52585 0.72290
 H241 H 0.05306 0.45166 0.75908
 H242 H 0.01777 0.53158 0.79538
 H243 H 0.06046 0.53398 0.83169
 H244 H 0.09642 0.45257 0.79458
 H245 H -0.04009 0.51076 0.70116
 H246 H -0.04096 0.55330 0.66399
 H247 H 0.04110 0.58741 0.70414
 H248 H 0.04053 0.54425 0.74032
 C249 C 0.00099 0.41053 0.68448
 C250 C -0.08379 0.49166 0.81416
 C251 C -0.00008 0.57359 0.68159
 C252 C 0.08167 0.49352 0.81556
 C253 C 0.11863 0.14724 0.49688
 C254 C 0.12529 0.17708 0.50529
 C255 C 0.10190 0.19910 0.50514
 C256 C 0.07201 0.19113 0.49657
 C257 C 0.06541 0.16139 0.48784
 C258 C 0.08879 0.13938 0.48796
 C259 C 0.08161 0.10978 0.47919
 C260 C 0.05217 0.10214 0.47057
 C261 C 0.02930 0.12365 0.47050
 C262 C 0.03570 0.15295 0.47902
 C263 C 0.10903 0.22874 0.51374
 C264 C 0.13849 0.23643 0.52223
 C265 C 0.16138 0.21491 0.52237
 C266 C 0.15498 0.18554 0.51402
 C267 C 0.04781 0.21320 0.49725
 C268 C 0.02682 0.23055 0.49781
 C269 C 0.14223 0.12446 0.49784
 C270 C 0.16136 0.10508 0.49868
 H271 H 0.09861 0.09225 0.47888
 H272 H 0.04709 0.07940 0.46393
 H273 H 0.00646 0.11761 0.46382
 H274 H 0.01712 0.16886 0.47861
 H275 H 0.09198 0.24625 0.51396
 H276 H 0.14357 0.25921 0.52874
 H277 H 0.18422 0.22100 0.52898
 H278 H 0.17353 0.16959 0.51446
 C279 C 0.64774 0.61885 0.00141
 C280 C 0.63911 0.59002 -0.00856
 C281 C 0.66098 0.56661 -0.00965
 C282 C 0.69131 0.57209 -0.00057
 C283 C 0.69995 0.60086 0.00947
 C284 C 0.67810 0.62434 0.01041
 C285 C 0.68725 0.65291 0.02058
 C286 C 0.71711 0.65809 0.02964
 C287 C 0.73845 0.63510 0.02878
 C288 C 0.73010 0.60676 0.01880
 C289 C 0.65182 0.53798 -0.01973
 C290 C 0.62185 0.53256 -0.02820
 C291 C 0.60043 0.55542 -0.02704
 C292 C 0.60884 0.58388 -0.01743
 C293 C 0.71320 0.54777 -0.00073
 C294 C 0.73040 0.52671 -0.00063
 C295 C 0.62525 0.64265 0.00252
 C296 C 0.60593 0.66183 0.00317
 H297 H 0.67144 0.67147 0.02168
 H298 H 0.72372 0.68007 0.03740
 H299 H 0.76160 0.63923 0.03588
 H300 H 0.74749 0.58959 0.01849
 H301 H 0.66767 0.51951 -0.02121
 H302 H 0.61524 0.51049 -0.03570
 H303 H 0.57717 0.55111 -0.03366
 H304 H 0.59134 0.60094 -0.01698
 C305 C 0.87959 -0.15005 0.50288
 C306 C 0.87920 -0.17308 0.48129
 C307 C 0.90255 -0.19514 0.48144
 C308 C 0.92608 -0.19406 0.50319
 C309 C 0.92621 -0.17135 0.52510
 C310 C 0.90293 -0.14924 0.52491
 C311 C 0.90374 -0.12654 0.54683
 C312 C 0.92690 -0.12571 0.56829
 C313 C 0.94962 -0.14738 0.56851
 C314 C 0.94937 -0.17001 0.54726
 C315 C 0.90187 -0.21779 0.45948
 C316 C 0.87876 -0.21862 0.43797
 C317 C 0.85590 -0.19707 0.43785
 C318 C 0.85600 -0.17450 0.45921
 C319 C 0.95098 -0.21534 0.50228
 C320 C 0.97251 -0.23202 0.50165
 C321 C 0.85653 -0.12672 0.50206
 C322 C 0.83790 -0.10687 0.50162
 H323 H 0.88655 -0.10921 0.54763
 H324 H 0.92719 -0.10817 0.58486
 H325 H 0.96756 -0.14666 0.58524
 H326 H 0.96749 -0.18642 0.54845
 H327 H 0.91913 -0.23506 0.45872
 H328 H 0.87858 -0.23609 0.42133
 H329 H 0.83798 -0.19782 0.42111
 H330 H 0.83774 -0.15824 0.45822
 C331 C 0.35174 0.38150 0.99639
 C332 C 0.36055 0.41019 1.00662
 C333 C 0.33879 0.43367 1.00807
 C334 C 0.30840 0.42843 0.99905
 C335 C 0.29959 0.39982 0.98873
 C336 C 0.32131 0.37625 0.98746
 C337 C 0.31199 0.34784 0.97703
 C338 C 0.28207 0.34289 0.96801
 C339 C 0.26085 0.36598 0.96917
 C340 C 0.26938 0.39416 0.97942
 C341 C 0.34812 0.46214 1.01844
 C342 C 0.37815 0.46735 1.02683
 C343 C 0.39946 0.44442 1.02530
 C344 C 0.39089 0.41611 1.01541
 C345 C 0.28661 0.45283 0.99956
 C346 C 0.26944 0.47391 0.99975
 C347 C 0.37412 0.35761 0.99492
 C348 C 0.39330 0.33833 0.99392
 H349 H 0.32769 0.32921 0.97569
 H350 H 0.27532 0.32103 0.96005
 H351 H 0.23766 0.36203 0.96210
 H352 H 0.25207 0.41141 0.97997
 H353 H 0.33235 0.48065 1.02021
 H354 H 0.38489 0.48929 1.03456
 H355 H 0.42277 0.44856 1.03186
 H356 H 0.40831 0.39900 1.01467
 C357 C 0.88010 0.14888 0.49644
 C358 C 0.90352 0.14815 0.47448
 C359 C 0.92679 0.17035 0.47433
 C360 C 0.92658 0.19308 0.49623
 C361 C 0.90297 0.19408 0.51792
 C362 C 0.87963 0.17192 0.51802
 C363 C 0.85635 0.17327 0.54004
 C364 C 0.85617 0.19585 0.56139
 C365 C 0.87903 0.21749 0.56131
 C366 C 0.90222 0.21673 0.53987
 C367 C 0.95003 0.16909 0.45223
 C368 C 0.95036 0.14645 0.43099
 C369 C 0.92764 0.12470 0.43116
 C370 C 0.90441 0.12544 0.45257
 C371 C 0.95145 0.21449 0.49716
 C372 C 0.97296 0.23128 0.49782
 C373 C 0.85702 0.12548 0.49720
 C374 C 0.83835 0.10559 0.49762
 H375 H 0.83809 0.15693 0.54100
 H376 H 0.83820 0.19654 0.57808
 H377 H 0.87879 0.23497 0.57794
 H378 H 0.91947 0.23408 0.54065
 H379 H 0.96815 0.18558 0.45107
 H380 H 0.96836 0.14580 0.41431
 H381 H 0.92799 0.10716 0.41461
 H382 H 0.88723 0.10804 0.45174
 C383 C 0.35234 0.61947 0.00279
 C384 C 0.32196 0.62474 0.01183
 C385 C 0.30010 0.60122 0.01049
 C386 C 0.30873 0.57265 -0.00001
 C387 C 0.33907 0.56740 -0.00914
 C388 C 0.36097 0.59083 -0.00762
 C389 C 0.39126 0.58491 -0.01653
 C390 C 0.39965 0.55664 -0.02660
 C391 C 0.37819 0.53376 -0.02819
 C392 C 0.34821 0.53898 -0.01969
 C393 C 0.26994 0.60688 0.01991
 C394 C 0.26160 0.63502 0.03033
 C395 C 0.28295 0.65806 0.03156
 C396 C 0.31282 0.65311 0.02244
 C397 C 0.28680 0.54828 -0.00056
 C398 C 0.26954 0.52722 -0.00076
 C399 C 0.37487 0.64330 0.00436
 C400 C 0.39418 0.66253 0.00544
 H401 H 0.40878 0.60198 -0.01574
 H402 H 0.42292 0.55249 -0.03324
 H403 H 0.38480 0.51184 -0.03606
 H404 H 0.33233 0.52050 -0.02152
 H405 H 0.25253 0.58967 0.01931
 H406 H 0.23844 0.63897 0.03748
 H407 H 0.27634 0.67988 0.03966
 H408 H 0.32863 0.67169 0.02384
 C409 C 0.11818 -0.14735 0.50305
 C410 C 0.08832 -0.13963 0.51198
 C411 C 0.06494 -0.16171 0.51198
 C412 C 0.07154 -0.19139 0.50311
 C413 C 0.10143 -0.19921 0.49452
 C414 C 0.12484 -0.17712 0.49449
 C415 C 0.15454 -0.18543 0.48573
 C416 C 0.16093 -0.21474 0.47724
 C417 C 0.13803 -0.23633 0.47725
 C418 C 0.10857 -0.22878 0.48577
 C419 C 0.03522 -0.15342 0.52083
 C420 C 0.02881 -0.12418 0.52949
 C421 C 0.05170 -0.10260 0.52954
 C422 C 0.08114 -0.11010 0.52089
 C423 C 0.04734 -0.21354 0.50237
 C424 C 0.02638 -0.23100 0.50175
 C425 C 0.14181 -0.12451 0.50229
 C426 C 0.16097 -0.10509 0.50163
 H427 H 0.17310 -0.16942 0.48538
 H428 H 0.18378 -0.22073 0.47061
 H429 H 0.14311 -0.25906 0.47063
 H430 H 0.09150 -0.24634 0.48545
 H431 H 0.01663 -0.16938 0.52115
 H432 H 0.00597 -0.11824 0.53619
 H433 H 0.04662 -0.07991 0.53629
 H434 H 0.09816 -0.09251 0.52130
 C435 C 0.64708 0.38141 0.99880
 C436 C 0.63863 0.41023 1.00887
 C437 C 0.66063 0.43361 1.00991
 C438 C 0.69090 0.42810 1.00069
 C439 C 0.69935 0.39934 0.99057
 C440 C 0.67738 0.37589 0.98967
 C441 C 0.68633 0.34733 0.97941
 C442 C 0.71614 0.34212 0.97022
 C443 C 0.73760 0.36508 0.97104
 C444 C 0.72944 0.39341 0.98110
 C445 C 0.65167 0.46223 1.02010
 C446 C 0.62176 0.46768 1.02871
 C447 C 0.60021 0.44485 1.02760
 C448 C 0.60843 0.41640 1.01789
 C449 C 0.71291 0.45240 1.00077
 C450 C 0.73023 0.47343 1.00060
 C451 C 0.62444 0.35766 0.99769
 C452 C 0.60501 0.33853 0.99702
 H453 H 0.67042 0.32879 0.97834
 H454 H 0.72260 0.32015 0.96240
 H455 H 0.76071 0.36092 0.96385
 H456 H 0.74693 0.41055 0.98138
 H457 H 0.66763 0.48067 1.02155
 H458 H 0.61530 0.48974 1.03629
 H459 H 0.57700 0.44918 1.03433
 H460 H 0.59084 0.39937 1.01748
 C461 C 0.49734 0.11681 1.14212
 C462 C 0.48905 0.08711 1.13459
 C463 C 0.48960 0.06381 1.15714
 C464 C 0.49835 0.07035 1.18710
 C465 C 0.50644 0.10005 1.19469
 C466 C 0.50595 0.12336 1.17212
 C467 C 0.51420 0.15288 1.18022
 C468 C 0.52269 0.15918 1.20977
 C469 C 0.52317 0.13637 1.23183
 C470 C 0.51516 0.10709 1.22451
 C471 C 0.48140 0.03425 1.14904
 C472 C 0.47280 0.02792 1.11954
 C473 C 0.47218 0.05073 1.09751
 C474 C 0.48020 0.08001 1.10481
 C475 C 0.49919 0.04636 1.20990
 C476 C 0.49975 0.02571 1.22804
 C477 C 0.49732 0.14044 1.11887
 C478 C 0.49733 0.15965 1.09917
 H479 H 0.51417 0.17136 1.16384
 H480 H 0.52893 0.18188 1.21558
 H481 H 0.52978 0.14138 1.25475
 H482 H 0.51588 0.09010 1.24243
 H483 H 0.48155 0.01573 1.16535
 H484 H 0.46661 0.00519 1.11375
 H485 H 0.46548 0.04571 1.07461
 H486 H 0.47936 0.09697 1.08686
 C487 C 0.00137 0.64144 0.61729
 C488 C 0.00991 0.63453 0.58736
 C489 C 0.00980 0.65743 0.56439
 C490 C 0.00121 0.68712 0.57150
 C491 C -0.00707 0.69411 0.60144
 C492 C -0.00699 0.67119 0.62443
 C493 C -0.01541 0.67870 0.65421
 C494 C -0.02368 0.70801 0.66107
 C495 C -0.02377 0.73040 0.63858
 C496 C -0.01559 0.72366 0.60906
 C497 C 0.01828 0.64995 0.53459
 C498 C 0.02670 0.62071 0.52770
 C499 C 0.02685 0.59832 0.55017
 C500 C 0.01856 0.60501 0.57969
 C501 C 0.00057 0.71021 0.54777
 C502 C 0.00013 0.72848 0.52720
 C503 C 0.00087 0.61783 0.64056
 C504 C 0.00043 0.59786 0.65949
 H505 H -0.01567 0.66205 0.67246
 H506 H -0.03005 0.71336 0.68397
 H507 H -0.03021 0.75312 0.64404
 H508 H -0.01599 0.74182 0.59232
 H509 H 0.01850 0.66656 0.51631
 H510 H 0.03312 0.61540 0.50480
 H511 H 0.03340 0.57563 0.54472
 H512 H 0.01903 0.58681 0.59637
 C513 C 0.50020 0.88376 -0.14235
 C514 C 0.50428 0.87672 -0.17316
 C515 C 0.50459 0.90011 -0.19566
 C516 C 0.50085 0.93037 -0.18718
 C517 C 0.49689 0.93744 -0.15637
 C518 C 0.49645 0.91406 -0.13390
 C519 C 0.49228 0.92169 -0.10326
 C520 C 0.48874 0.95155 -0.09506
 C521 C 0.48931 0.97443 -0.11703
 C522 C 0.49335 0.96759 -0.14735
 C523 C 0.50872 0.89257 -0.22630
 C524 C 0.51244 0.86273 -0.23451
 C525 C 0.51213 0.83985 -0.21252
 C526 C 0.50810 0.84663 -0.18216
 C527 C 0.50096 0.95435 -0.21001
 C528 C 0.50091 0.97498 -0.22819
 C529 C 0.50001 0.85999 -0.11925
 C530 C 0.49984 0.84072 -0.09960
 H531 H 0.49172 0.90471 -0.08532
 H532 H 0.48559 0.95697 -0.07153
 H533 H 0.48665 0.99760 -0.11054
 H534 H 0.49376 0.98617 -0.16357
 H535 H 0.50915 0.90961 -0.24420
 H536 H 0.51558 0.85735 -0.25805
 H537 H 0.51503 0.81671 -0.21901
 H538 H 0.50802 0.82807 -0.16587
 C539 C 1.00173 0.35795 0.38217
 C540 C 1.01005 0.36496 0.41214
 C541 C 1.00997 0.34206 0.43512
 C542 C 1.00163 0.31228 0.42799
 C543 C 0.99357 0.30520 0.39800
 C544 C 0.99362 0.32811 0.37501
 C545 C 0.98541 0.32051 0.34520
 C546 C 0.97739 0.29112 0.33830
 C547 C 0.97733 0.26873 0.36080
 C548 C 0.98531 0.27556 0.39035
 C549 C 1.01822 0.34964 0.46496
 C550 C 1.02640 0.37897 0.47188
 C551 C 1.02652 0.40135 0.44939
 C552 C 1.01845 0.39457 0.41984
 C553 C 1.00100 0.28919 0.45172
 C554 C 1.00057 0.27092 0.47230
 C555 C 1.00120 0.38155 0.35890
 C556 C 1.00073 0.40151 0.33996
 H557 H 0.98513 0.33715 0.32694
 H558 H 0.97118 0.28569 0.31538
 H559 H 0.97108 0.24593 0.35532
 H560 H 0.98494 0.25739 0.40709
 H561 H 1.01845 0.33304 0.48324
 H562 H 1.03265 0.38435 0.49481
 H563 H 1.03289 0.42411 0.45487
 H564 H 1.01890 0.41276 0.40316
 C565 C 0.49944 0.87821 0.15315
 C566 C 0.52018 0.87799 0.17764
 C567 C 0.51977 0.90171 0.19865
 C568 C 0.49860 0.92544 0.19505
 C569 C 0.47746 0.92537 0.17092
 C570 C 0.47792 0.90173 0.14987
 C571 C 0.45678 0.90234 0.12572
 C572 C 0.43581 0.92564 0.12247
 C573 C 0.43532 0.94873 0.14311
 C574 C 0.45581 0.94869 0.16711
 C575 C 0.54087 0.90118 0.22281
 C576 C 0.56179 0.87784 0.22615
 C577 C 0.56219 0.85464 0.20562
 C578 C 0.54167 0.85460 0.18160
 C579 C 0.49930 0.95065 0.21527
 C580 C 0.49976 0.97234 0.23108
 C581 C 0.50066 0.85480 0.13084
 C582 C 0.50143 0.83594 0.11171
 H583 H 0.45621 0.88486 0.10911
 H584 H 0.41984 0.92577 0.10385
 H585 H 0.41898 0.96678 0.14051
 H586 H 0.45443 0.96708 0.18265
 H587 H 0.54137 0.91870 0.23938
 H588 H 0.57776 0.87777 0.24477
 H589 H 0.57848 0.83656 0.20832
 H590 H 0.54284 0.83606 0.16622
 C591 C 0.00189 0.34571 0.62026
 C592 C -0.01959 0.32194 0.62035
 C593 C -0.01956 0.30098 0.59656
 C594 C 0.00198 0.30390 0.57289
 C595 C 0.02378 0.32737 0.57304
 C596 C 0.02370 0.34837 0.59676
 C597 C 0.04550 0.37185 0.59623
 C598 C 0.06675 0.37449 0.57292
 C599 C 0.06686 0.35391 0.54976
 C600 C 0.04572 0.33055 0.54973
 C601 C -0.04141 0.27757 0.59694
 C602 C -0.06270 0.27492 0.62021
 C603 C -0.06271 0.29539 0.64350
 C604 C -0.04146 0.31868 0.64369
 C605 C 0.00106 0.28366 0.54767
 C606 C 0.00053 0.26786 0.52591
 C607 C 0.00118 0.36794 0.64378
 C608 C 0.00091 0.38702 0.66270
 H609 H 0.04639 0.38840 0.61376
 H610 H 0.08322 0.39261 0.57285
 H611 H 0.08341 0.35604 0.53171
 H612 H 0.04683 0.31503 0.53127
 H613 H -0.04224 0.26109 0.57934
 H614 H -0.07926 0.25688 0.62016
 H615 H -0.07929 0.29323 0.66152
 H616 H -0.04235 0.33406 0.66228
 C617 C 0.49836 0.12229 0.84677
 C618 C 0.47975 0.09668 0.85209
 C619 C 0.47947 0.07307 0.83100
 C620 C 0.49800 0.07509 0.80483
 C621 C 0.51618 0.10091 0.79921
 C622 C 0.51635 0.12461 0.82024
 C623 C 0.53483 0.15014 0.81423
 C624 C 0.55263 0.15220 0.78817
 C625 C 0.55246 0.12901 0.76761
 C626 C 0.53449 0.10360 0.77296
 C627 C 0.46064 0.04771 0.83678
 C628 C 0.44281 0.04561 0.86279
 C629 C 0.44320 0.06862 0.88351
 C630 C 0.46136 0.09394 0.87832
 C631 C 0.49918 0.04999 0.78451
 C632 C 0.50000 0.02831 0.76868
 C633 C 0.49943 0.14581 0.86898
 C634 C 0.50014 0.16473 0.88806
 H635 H 0.53569 0.16875 0.82955
 H636 H 0.56663 0.17190 0.78390
 H637 H 0.56630 0.13074 0.74740
 H638 H 0.53503 0.08617 0.75629
 H639 H 0.45941 0.02930 0.82127
 H640 H 0.42864 0.02601 0.86689
 H641 H 0.42931 0.06689 0.90369
 H642 H 0.46079 0.11128 0.89506
 C643 C 1.00197 0.65374 0.37924
 C644 C 1.02379 0.65125 0.40272
 C645 C 1.02378 0.67226 0.42644
 C646 C 1.00189 0.69555 0.42661
 C647 C 0.98034 0.69831 0.40295
 C648 C 0.98040 0.67734 0.37916
 C649 C 0.95854 0.68044 0.35584
 C650 C 0.93720 0.70357 0.35603
 C651 C 0.93713 0.72405 0.37932
 C652 C 0.95841 0.72156 0.40257
 C653 C 1.04573 0.66925 0.44973
 C654 C 1.06697 0.64606 0.44968
 C655 C 1.06694 0.62547 0.42652
 C656 C 1.04569 0.62794 0.40323
 C657 C 1.00086 0.71577 0.45183
 C658 C 1.00023 0.73157 0.47359
 C659 C 1.00133 0.63148 0.35575
 C660 C 1.00110 0.61238 0.33685
 H661 H 0.95771 0.66505 0.33725
 H662 H 0.92062 0.70561 0.33802
 H663 H 0.92050 0.74196 0.37937
 H664 H 0.95751 0.73804 0.42017
 H665 H 1.04677 0.68478 0.46818
 H666 H 1.08353 0.64406 0.46771
 H667 H 1.08349 0.60748 0.42657
 H668 H 1.04664 0.61140 0.38570
 C669 C 1.15014 0.50370 0.12097
 C670 C 1.16565 0.53022 0.11148
 C671 C 1.18746 0.52910 0.08781
 C672 C 1.19360 0.50147 0.07378
 C673 C 1.17874 0.47480 0.08383
 C674 C 1.15693 0.47591 0.10750
 C675 C 1.14218 0.44898 0.11700
 C676 C 1.14882 0.42174 0.10353
 C677 C 1.17015 0.42067 0.08038
 C678 C 1.18500 0.44683 0.07054
 C679 C 1.20253 0.55594 0.07853
 C680 C 1.19625 0.58311 0.09228
 C681 C 1.17491 0.58421 0.11544
 C682 C 1.15971 0.55814 0.12501
 C683 C 1.21421 0.50074 0.04819
 C684 C 1.23073 0.50042 0.02645
 C685 C 1.12649 0.50508 0.14381
 C686 C 1.10639 0.50589 0.16231
 H687 H 1.12545 0.44866 0.13495
 H688 H 1.13734 0.40136 0.11109
 H689 H 1.17524 0.39946 0.06999
 H690 H 1.20147 0.44485 0.05250
 H691 H 1.21936 0.55620 0.06066
 H692 H 1.20801 0.60341 0.08493
 H693 H 1.17012 0.60537 0.12605
 H694 H 1.14335 0.56010 0.14314
 C695 C 0.62231 -0.00109 0.65096
 C696 C 0.61582 0.02569 0.66642
 C697 C 0.59225 0.02596 0.68841
 C698 C 0.57529 -0.00053 0.69476
 C699 C 0.58235 -0.02753 0.67997
 C700 C 0.60594 -0.02782 0.65800
 C701 C 0.61245 -0.05503 0.64335
 C702 C 0.59611 -0.08121 0.65021
 C703 C 0.57304 -0.08092 0.67168
 C704 C 0.56612 -0.05445 0.68645
 C705 C 0.58604 0.05302 0.70345
 C706 C 0.60265 0.07909 0.69695
 C707 C 0.62569 0.07884 0.67542
 C708 C 0.63229 0.05252 0.66025
 C709 C 0.54973 0.00026 0.71545
 C710 C 0.52790 0.00073 0.73191
 C711 C 0.64502 -0.00092 0.62712
 C712 C 0.66343 -0.00076 0.60690
 H713 H 0.63023 -0.05640 0.62652
 H714 H 0.60141 -0.10183 0.63881
 H715 H 0.56042 -0.10131 0.67694
 H716 H 0.54802 -0.05537 0.70303
 H717 H 0.56838 0.05429 0.72041
 H718 H 0.59763 0.09959 0.70868
 H719 H 0.63853 0.09916 0.67045
 H720 H 0.65045 0.05342 0.64374
 C721 C -0.15134 0.49514 0.87772
 C722 C -0.15930 0.52332 0.88971
 C723 C -0.18081 0.52472 0.91364
 C724 C -0.19423 0.49796 0.92539
 C725 C -0.18696 0.46987 0.91282
 C726 C -0.16542 0.46846 0.88893
 C727 C -0.15831 0.44010 0.87690
 C728 C -0.17214 0.41390 0.88812
 C729 C -0.19323 0.41529 0.91147
 C730 C -0.20063 0.44289 0.92378
 C731 C -0.18824 0.55310 0.92544
 C732 C -0.17482 0.57937 0.91389
 C733 C -0.15380 0.57802 0.89049
 C734 C -0.14603 0.55038 0.87846
 C735 C -0.21459 0.49914 0.95114
 C736 C -0.23097 0.49980 0.97297
 C737 C -0.12795 0.49358 0.85464
 C738 C -0.10805 0.49254 0.83594
 H739 H -0.14208 0.43789 0.85869
 H740 H -0.16646 0.39240 0.87864
 H741 H -0.20393 0.39488 0.92009
 H742 H -0.21721 0.44284 0.94187
 H743 H -0.20451 0.55531 0.94361
 H744 H -0.18079 0.60090 0.92316
 H745 H -0.14345 0.59849 0.88159
 H746 H -0.12961 0.55049 0.86023
 C747 C 0.38157 0.00291 0.35239
 C748 C 0.41016 0.01611 0.35858
 C749 C 0.43358 0.01573 0.33646
 C750 C 0.42827 0.00221 0.30827
 C751 C 0.39961 -0.01068 0.30193
 C752 C 0.37617 -0.01034 0.32407
 C753 C 0.34774 -0.02349 0.31729
 C754 C 0.34261 -0.03659 0.28941
 C755 C 0.36553 -0.03690 0.26776
 C756 C 0.39376 -0.02413 0.27383
 C757 C 0.46205 0.02889 0.34324
 C758 C 0.46720 0.04209 0.37105
 C759 C 0.44426 0.04251 0.39266
 C760 C 0.41603 0.02971 0.38662
 C761 C 0.45261 0.00109 0.28619
 C762 C 0.47362 0.00032 0.26873
 C763 C 0.35801 0.00255 0.37540
 C764 C 0.33895 0.00229 0.39499
 H765 H 0.32922 -0.02378 0.33340
 H766 H 0.32072 -0.04654 0.28458
 H767 H 0.36142 -0.04710 0.24615
 H768 H 0.41089 -0.02490 0.25628
 H769 H 0.48061 0.02915 0.32718
 H770 H 0.48909 0.05203 0.37585
 H771 H 0.44836 0.05280 0.41423
 H772 H 0.39892 0.03062 0.40416
 C773 C 0.15001 0.49677 0.87825
 C774 C 0.15677 0.52463 0.89164
 C775 C 0.17862 0.52592 0.91524
 C776 C 0.19355 0.49936 0.92532
 C777 C 0.18743 0.47166 0.91138
 C778 C 0.16558 0.47036 0.88777
 C779 C 0.15967 0.44237 0.87433
 C780 C 0.17493 0.41641 0.88393
 C781 C 0.19629 0.41769 0.90702
 C782 C 0.20256 0.44493 0.92068
 C783 C 0.18485 0.55397 0.92845
 C784 C 0.16993 0.58002 0.91858
 C785 C 0.14856 0.57877 0.89550
 C786 C 0.14196 0.55146 0.88210
 C787 C 0.21418 0.50027 0.95086
 C788 C 0.23072 0.50067 0.97257
 C789 C 0.12632 0.49520 0.85548
 C790 C 0.10619 0.49423 0.83703
 H791 H 0.14327 0.44027 0.85625
 H792 H 0.17014 0.39519 0.87339
 H793 H 0.20810 0.39747 0.91440
 H794 H 0.21942 0.44480 0.93850
 H795 H 0.20133 0.55608 0.94644
 H796 H 0.17498 0.60129 0.92891
 H797 H 0.13703 0.59907 0.88791
 H798 H 0.12520 0.55164 0.86420
 C799 C 0.62105 0.00168 0.34952
 C800 C 0.59852 0.02440 0.34960
 C801 C 0.57511 0.02457 0.32747
 C802 C 0.57430 0.00196 0.30546
 C803 C 0.59711 -0.02042 0.30501
 C804 C 0.62059 -0.02055 0.32710
 C805 C 0.64305 -0.04326 0.32632
 C806 C 0.64232 -0.06522 0.30434
 C807 C 0.61935 -0.06510 0.28276
 C808 C 0.59693 -0.04300 0.28298
 C809 C 0.55276 0.04743 0.32806
 C810 C 0.55347 0.06943 0.34997
 C811 C 0.57631 0.06923 0.37166
 C812 C 0.59865 0.04705 0.37158
 C813 C 0.54917 0.00102 0.28429
 C814 C 0.52751 0.00034 0.26765
 C815 C 0.64413 0.00079 0.37300
 C816 C 0.66281 0.00019 0.39295
 H817 H 0.66138 -0.04427 0.34262
 H818 H 0.65969 -0.08242 0.30406
 H819 H 0.61889 -0.08219 0.26574
 H820 H 0.57956 -0.04378 0.26570
 H821 H 0.53459 0.04862 0.31160
 H822 H 0.53618 0.08673 0.35009
 H823 H 0.57676 0.08636 0.38864
 H824 H 0.61598 0.04788 0.38890
 C825 C 0.84882 0.50445 0.12200
 C826 C 0.83491 0.53120 0.11089
 C827 C 0.81335 0.52990 0.08702
 C828 C 0.80589 0.50188 0.07439
 C829 C 0.81914 0.47504 0.08605
 C830 C 0.84067 0.47633 0.10995
 C831 C 0.85377 0.44921 0.12111
 C832 C 0.84582 0.42163 0.10902
 C833 C 0.82477 0.42038 0.08564
 C834 C 0.81152 0.44671 0.07419
 C835 C 0.79985 0.55695 0.07615
 C836 C 0.80744 0.58450 0.08852
 C837 C 0.82855 0.58577 0.11185
 C838 C 0.84222 0.55950 0.12298
 C839 C 0.78549 0.50081 0.04868
 C840 C 0.76908 0.50023 0.02688
 C841 C 0.87225 0.50590 0.14505
 C842 C 0.89217 0.50686 0.16371
 H843 H 0.87021 0.44901 0.13932
 H844 H 0.85604 0.40110 0.11785
 H845 H 0.81866 0.39890 0.07633
 H846 H 0.79522 0.44460 0.05604
 H847 H 0.78327 0.55709 0.05808
 H848 H 0.79687 0.60495 0.07996
 H849 H 0.83437 0.60723 0.12138
 H850 H 0.85847 0.56163 0.14118
 C851 C 0.37937 -0.00328 0.65072
 C852 C 0.40016 -0.02752 0.65278
 C853 C 0.42396 -0.02711 0.67449
 C854 C 0.42679 -0.00248 0.69402
 C855 C 0.40555 0.02138 0.69249
 C856 C 0.38176 0.02098 0.67076
 C857 C 0.36092 0.04519 0.66950
 C858 C 0.36350 0.06910 0.68917
 C859 C 0.38678 0.06948 0.71041
 C860 C 0.40764 0.04596 0.71215
 C861 C 0.44463 -0.05146 0.67598
 C862 C 0.44185 -0.07556 0.65658
 C863 C 0.41857 -0.07597 0.63536
 C864 C 0.39791 -0.05229 0.63337
 C865 C 0.45220 -0.00123 0.71485
 C866 C 0.47382 -0.00020 0.73152
 C867 C 0.35621 -0.00287 0.62733
 C868 C 0.33748 -0.00256 0.60744
 H869 H 0.34241 0.04587 0.65339
 H870 H 0.34736 0.08742 0.68791
 H871 H 0.38869 0.08811 0.72563
 H872 H 0.42532 0.04723 0.72909
 H873 H 0.46310 -0.05220 0.69214
 H874 H 0.45785 -0.09400 0.65804
 H875 H 0.41649 -0.09475 0.62034
 H876 H 0.38016 -0.05366 0.61651
   
