data_POSCAR
  _audit_creation_date              2014-09-24
  _audit_creation_method            'ToBaCCo'
  _symmetry_space_group_name_H-M    'P1'
  _symmetry_Int_Tables_number       1
  _symmetry_cell_setting            triclinic
  loop_
  _symmetry_equiv_pos_as_xyz
 x,y,z
_cell_length_a 44.6787
_cell_length_b 43.8034
_cell_length_c 41.5859
_cell_angle_alpha 91.755700
_cell_angle_beta 91.292800
_cell_angle_gamma 90.099900
loop_
  _atom_site_label
  _atom_site_type_symbol
  _atom_site_fract_x
  _atom_site_fract_y
  _atom_site_fract_z
N1 N 0.15974 0.17999 0.24579
 N2 N 0.17687 0.15613 0.24045
 C3 C 0.17605 0.13772 0.26557
 C4 C 0.15660 0.15001 0.28801
 C5 C 0.14650 0.17700 0.27443
 H6 H 0.18739 0.11597 0.26625
 H7 H 0.13085 0.19328 0.28449
 Cu8 Cu 0.19561 0.14854 0.19952
 Cu9 Cu 0.15688 0.21224 0.21392
 Cu10 Cu 0.21954 0.21127 0.16505
 N11 N 0.22304 0.14616 0.16438
 N12 N 0.23444 0.17078 0.15221
 C13 C 0.25575 0.16237 0.13121
 C14 C 0.25700 0.13058 0.12952
 C15 C 0.23570 0.12129 0.15096
 H16 H 0.26883 0.17823 0.11784
 H17 H 0.23094 0.09825 0.15792
 N18 N 0.19240 0.24684 0.16976
 N19 N 0.16811 0.24702 0.18730
 C20 C 0.15263 0.27284 0.18186
 C21 C 0.16778 0.28976 0.15958
 C22 C 0.19296 0.27243 0.15273
 H23 H 0.13123 0.27812 0.19224
 H24 H 0.20974 0.27705 0.13523
 H25 H 0.17754 0.19355 0.17241
 H26 H 0.20037 0.20355 0.20936
 N27 N -0.17486 0.81235 0.23393
 N28 N -0.19844 0.82333 0.24889
 C29 C -0.18904 0.84142 0.27394
 C30 C -0.15795 0.84177 0.27470
 C31 C -0.14988 0.82307 0.24893
 H32 H -0.20375 0.85330 0.29037
 H33 H -0.12745 0.81661 0.24234
 Cu34 Cu -0.23963 0.81259 0.23469
 Cu35 Cu -0.17727 0.78169 0.19828
 Cu36 Cu -0.24548 0.75221 0.18327
 N37 N -0.27486 0.80668 0.20619
 N38 N -0.27702 0.78266 0.18657
 C39 C -0.30195 0.78484 0.16820
 C40 C -0.31642 0.81203 0.17624
 C41 C -0.29851 0.82511 0.20089
 H42 H -0.30786 0.76843 0.14919
 H43 H -0.30150 0.84698 0.21312
 N44 N -0.20973 0.73083 0.16956
 N45 N -0.18319 0.74342 0.17409
 C46 C -0.16252 0.72567 0.15991
 C47 C -0.17679 0.70030 0.14608
 C48 C -0.20681 0.70421 0.15282
 H49 H -0.13879 0.73064 0.16014
 H50 H -0.22519 0.68937 0.14525
 H51 H -0.21950 0.80069 0.19379
 H52 H -0.21315 0.77296 0.22651
 N53 N -0.18013 0.19017 -0.23089
 N54 N -0.19190 0.16284 -0.22854
 C55 C -0.19143 0.14817 -0.25735
 C56 C -0.17820 0.16707 -0.27891
 C57 C -0.17107 0.19354 -0.26130
 H58 H -0.19878 0.12486 -0.26192
 H59 H -0.15970 0.21345 -0.26984
 Cu60 Cu -0.20435 0.14732 -0.18786
 Cu61 Cu -0.17655 0.21826 -0.19366
 Cu62 Cu -0.21270 0.19658 -0.12515
 N63 N -0.22903 0.13776 -0.15187
 N64 N -0.23494 0.15805 -0.12900
 C65 C -0.25577 0.14643 -0.10977
 C66 C -0.26263 0.11687 -0.12085
 C67 C -0.24495 0.11226 -0.14751
 H68 H -0.26457 0.15828 -0.08884
 H69 H -0.24504 0.09259 -0.16387
 N70 N -0.18826 0.23416 -0.12664
 N71 N -0.17561 0.24301 -0.15322
 C72 C -0.15900 0.26813 -0.14636
 C73 C -0.16070 0.27503 -0.11383
 C74 C -0.17932 0.25296 -0.10199
 H75 H -0.14465 0.27913 -0.16314
 H76 H -0.18480 0.25005 -0.07707
 H77 H -0.17831 0.18719 -0.15665
 H78 H -0.21498 0.20018 -0.17448
 N79 N 0.13331 0.82078 -0.24557
 N80 N 0.14360 0.84626 -0.23197
 C81 C 0.12746 0.86989 -0.24261
 C82 C 0.10610 0.85873 -0.26454
 C83 C 0.11057 0.82740 -0.26603
 H84 H 0.13191 0.89359 -0.23614
 H85 H 0.09830 0.81072 -0.28083
 Cu86 Cu 0.17930 0.84671 -0.20473
 Cu87 Cu 0.15101 0.78146 -0.23541
 Cu88 Cu 0.20451 0.78205 -0.17317
 N89 N 0.21999 0.84341 -0.18813
 N90 N 0.23002 0.81864 -0.17456
 C91 C 0.25819 0.82395 -0.16325
 C92 C 0.26638 0.85367 -0.17069
 C93 C 0.24132 0.86503 -0.18661
 H94 H 0.27158 0.80733 -0.15075
 H95 H 0.23809 0.88768 -0.19560
 N96 N 0.18147 0.74501 -0.18679
 N97 N 0.16211 0.74482 -0.21126
 C98 C 0.14789 0.71775 -0.21301
 C99 C 0.15849 0.69975 -0.18840
 C100 C 0.17999 0.71790 -0.17232
 H101 H 0.12936 0.71270 -0.22947
 H102 H 0.19240 0.71258 -0.15060
 H103 H 0.16171 0.79683 -0.18916
 H104 H 0.19338 0.79401 -0.21762
 N105 N 0.18611 1.17940 0.74791
 N106 N 0.17886 1.20793 0.74271
 C107 C 0.16360 1.20916 0.71448
 C108 C 0.16120 1.17977 0.70127
 C109 C 0.17582 1.16152 0.72321
 H110 H 0.15408 1.22972 0.70484
 H111 H 0.17747 1.13688 0.72223
 Cu112 Cu 0.18702 1.23996 0.77525
 Cu113 Cu 0.20516 1.16724 0.78809
 Cu114 Cu 0.24099 1.22666 0.83028
 N115 N 0.19682 1.26968 0.80964
 N116 N 0.21806 1.26438 0.83110
 C117 C 0.21859 1.28711 0.85359
 C118 C 0.19620 1.30769 0.84608
 C119 C 0.18295 1.29593 0.81787
 H120 H 0.23322 1.28768 0.87467
 H121 H 0.16336 1.30466 0.80551
 N122 N 0.25080 1.18355 0.83647
 N123 N 0.23608 1.16088 0.82165
 C124 C 0.24661 1.13423 0.83244
 C125 C 0.26908 1.14044 0.85520
 C126 C 0.27114 1.17199 0.85706
 H127 H 0.23894 1.11198 0.82378
 H128 H 0.28583 1.18563 0.87275
 H129 H 0.20140 1.20604 0.81839
 H130 H 0.22911 1.20581 0.78544
 N131 N 0.83936 0.87953 0.79909
 N132 N 0.86579 0.87444 0.81268
 C133 C 0.88686 0.88942 0.79676
 C134 C 0.87312 0.90467 0.77183
 C135 C 0.84291 0.89795 0.77412
 H136 H 0.91066 0.88771 0.80168
 H137 H 0.82491 0.90533 0.75840
 Cu138 Cu 0.87235 0.84506 0.84702
 Cu139 Cu 0.80226 0.86053 0.81377
 Cu140 Cu 0.81209 0.80443 0.86584
 N141 N 0.87575 0.80737 0.87029
 N142 N 0.85218 0.79102 0.87703
 C143 C 0.86113 0.76586 0.89222
 C144 C 0.89211 0.76644 0.89521
 C145 C 0.90057 0.79332 0.88114
 H146 H 0.84613 0.74855 0.90052
 H147 H 0.92308 0.80165 0.87803
 N148 N 0.77439 0.82607 0.86229
 N149 N 0.77018 0.84812 0.84195
 C150 C 0.74245 0.85964 0.84577
 C151 C 0.72878 0.84412 0.87015
 C152 C 0.74979 0.82288 0.87982
 H153 H 0.73351 0.87876 0.83282
 H154 H 0.74775 0.80667 0.89873
 H155 H 0.82752 0.85617 0.85385
 H156 H 0.83649 0.82790 0.82094
 N157 N 0.18871 0.83666 1.24355
 N158 N 0.16702 0.81618 1.24474
 C159 C 0.14398 0.82863 1.26087
 C160 C 0.15132 0.85850 1.26955
 C161 C 0.17975 0.86283 1.25813
 H162 H 0.12306 0.81718 1.26520
 H163 H 0.19293 0.88356 1.26030
 Cu164 Cu 0.16940 0.77509 1.22365
 Cu165 Cu 0.22715 0.82893 1.22226
 Cu166 Cu 0.23248 0.76085 1.18513
 N167 N 0.18034 0.73348 1.20973
 N168 N 0.20564 0.72795 1.19518
 C169 C 0.20618 0.69862 1.18487
 C170 C 0.17958 0.68476 1.19287
 C171 C 0.16373 0.70772 1.20886
 H172 H 0.22353 0.68895 1.17011
 H173 H 0.14104 0.70652 1.21721
 N174 N 0.25929 0.79374 1.17507
 N175 N 0.25773 0.82038 1.19035
 C176 C 0.27933 0.83878 1.17974
 C177 C 0.29482 0.82288 1.15611
 C178 C 0.28141 0.79444 1.15370
 H179 H 0.28293 0.86220 1.18796
 H180 H 0.28748 0.77564 1.13771
 H181 H 0.19746 0.80204 1.19637
 H182 H 0.21276 0.78495 1.23375
 N183 N 0.82415 1.14430 1.18446
 N184 N 0.83020 1.16926 1.20173
 C185 C 0.84171 1.16164 1.23052
 C186 C 0.84325 1.13008 1.23122
 C187 C 0.83195 1.11986 1.20149
 H188 H 0.84985 1.17791 1.24878
 H189 H 0.82987 1.09646 1.19263
 Cu190 Cu 0.82611 1.20905 1.18331
 Cu191 Cu 0.80842 1.14571 1.14045
 Cu192 Cu 0.78302 1.21647 1.11722
 N193 N 0.83108 1.24313 1.15522
 N194 N 0.81396 1.24656 1.12947
 C195 C 0.82511 1.26930 1.11219
 C196 C 0.85092 1.28016 1.12771
 C197 C 0.85374 1.26328 1.15516
 H198 H 0.81680 1.27533 1.08859
 H199 H 0.87204 1.26400 1.17265
 N200 N 0.76823 1.17823 1.09710
 N201 N 0.77996 1.15152 1.10408
 C202 C 0.76560 1.12955 1.08653
 C203 C 0.74356 1.14304 1.06802
 C204 C 0.74566 1.17396 1.07545
 H205 H 0.76894 1.10531 1.08929
 H206 H 0.73122 1.19184 1.06673
 H207 H 0.81819 1.18937 1.12805
 H208 H 0.78529 1.18322 1.15382
 O209 O 0.51300 0.95704 0.93674
 O210 O 0.46545 0.97728 1.06626
 O211 O 0.55780 0.95531 1.03531
 O212 O 0.45704 0.93945 0.97351
 O213 O 0.52108 0.97439 1.06650
 O214 O 0.45819 0.96798 0.93428
 O215 O 0.45899 0.94296 1.02974
 O216 O 0.54892 0.95330 0.97324
 C217 C 0.53811 0.94678 0.94580
 C218 C 0.45829 0.95049 1.05857
 C219 C 0.54514 0.95848 1.06346
 C220 C 0.45100 0.94289 0.94494
 O221 O 0.46789 1.02505 0.95207
 O222 O 0.52164 1.03206 1.04511
 O223 O 0.55442 0.99844 0.98581
 O224 O 0.43211 0.99904 1.02904
 O225 O 0.46677 1.03224 1.03913
 O226 O 0.52438 1.01581 0.94674
 O227 O 0.43156 0.99794 0.97167
 O228 O 0.55364 1.00556 1.01748
 Co229 Co 0.49089 0.99126 0.94751
 Co230 Co 0.49324 1.00247 1.04925
 Co231 Co 0.53098 0.97056 1.00881
 Co232 Co 0.44804 0.97087 1.00076
 O233 O 0.49102 0.98662 0.99924
 C234 C 0.44097 1.02247 0.95970
 C235 C 0.54749 1.02918 1.03481
 C236 C 0.54968 1.01476 0.96063
 C237 C 0.43963 1.02616 1.03572
 O238 O 0.01568 0.46847 0.06023
 O239 O 0.04001 0.53262 -0.06412
 O240 O 0.05960 0.46574 -0.02857
 O241 O 0.05544 0.54507 0.03986
 O242 O 0.03384 0.47780 -0.06993
 O243 O 0.01990 0.52502 0.06786
 O244 O 0.06591 0.53944 -0.02003
 O245 O 0.05137 0.45702 0.02808
 C246 C 0.04096 0.45666 0.05551
 C247 C 0.06441 0.53997 -0.04994
 C248 C 0.05779 0.46796 -0.05816
 C249 C 0.04433 0.53935 0.06637
 O250 O -0.03207 0.53375 0.03992
 O251 O -0.02406 0.48283 -0.05248
 O252 O -0.00494 0.43927 0.01449
 O253 O 0.01401 0.56789 -0.03163
 O254 O -0.01942 0.53685 -0.04853
 O255 O -0.03614 0.47527 0.02736
 O256 O 0.00192 0.56669 0.02550
 O257 O 0.00316 0.44423 -0.04246
 Co258 Co -0.00607 0.50056 0.04358
 Co259 Co 0.00841 0.50721 -0.05433
 Co260 Co 0.02636 0.45593 -0.00714
 Co261 Co 0.03281 0.54990 0.00245
 O262 O 0.01552 0.50343 -0.00355
 C263 C -0.02378 0.56077 0.03595
 C264 C -0.02143 0.45476 -0.05181
 C265 C -0.03099 0.44780 0.02141
 C266 C -0.01205 0.56347 -0.04193
 O267 O 1.04019 0.03086 0.46732
 O268 O 0.92960 0.05727 0.52918
 O269 O 0.94996 0.02590 0.43187
 O270 O 1.02220 0.05708 0.53378
 O271 O 0.93229 0.05448 0.46953
 O272 O 1.04854 0.01884 0.52535
 O273 O 0.97332 0.07196 0.54591
 O274 O 0.99978 0.04793 0.44563
 C275 C 1.02709 0.05073 0.45090
 C276 C 0.94593 0.07616 0.54432
 C277 C 0.93470 0.04845 0.44027
 C278 C 1.04712 0.04569 0.53507
 O279 O 1.01722 -0.03115 0.51785
 O280 O 0.92290 -0.00640 0.47187
 O281 O 1.00038 -0.00404 0.41667
 O282 O 0.95935 0.01645 0.56735
 O283 O 0.92448 -0.00066 0.53271
 O284 O 1.01685 -0.02671 0.45949
 O285 O 1.01089 -0.00047 0.55942
 O286 O 0.96428 -0.02589 0.45504
 Co287 Co 1.02600 0.00037 0.49287
 Co288 Co 0.93229 0.02542 0.50022
 Co289 Co 0.98295 0.01137 0.45261
 Co290 Co 0.99116 0.03476 0.54747
 O291 O 0.98083 0.01954 0.50032
 C292 C 1.01553 -0.02706 0.54770
 C293 C 0.93666 -0.02788 0.45805
 C294 C 1.01875 -0.02390 0.42927
 C295 C 0.93559 0.00120 0.56086
 C296 C 1.12175 0.14573 0.33276
 C297 C 1.11077 0.12879 0.35827
 C298 C 1.12669 0.10292 0.36878
 C299 C 1.15355 0.09482 0.35427
 C300 C 1.16374 0.11099 0.32831
 C301 C 1.14766 0.13616 0.31650
 C302 C 1.11492 0.08469 0.39262
 C303 C 1.08668 0.09111 0.40511
 C304 C 1.07087 0.11724 0.39505
 C305 C 1.08332 0.13630 0.37226
 C306 C 1.04214 0.12294 0.40667
 C307 C 1.02848 0.10196 0.42635
 C308 C 1.04361 0.07540 0.43555
 C309 C 1.07320 0.07072 0.42589
 H310 H 1.10894 0.16500 0.32436
 H311 H 1.16622 0.07527 0.36226
 H312 H 1.18436 0.10342 0.31756
 H313 H 1.12702 0.06460 0.40020
 H314 H 1.07093 0.15604 0.36421
 H315 H 1.02968 0.14284 0.39931
 H316 H 1.00563 0.10600 0.43354
 H317 H 1.08485 0.05006 0.43249
 C318 C 0.85273 -0.13237 0.32862
 C319 C 0.87249 -0.11741 0.35071
 C320 C 0.90254 -0.11233 0.34224
 C321 C 0.91240 -0.12253 0.31208
 C322 C 0.89267 -0.13737 0.29030
 C323 C 0.86265 -0.14237 0.29820
 C324 C 0.92212 -0.09655 0.36372
 C325 C 0.91189 -0.08509 0.39330
 C326 C 0.88197 -0.09051 0.40206
 C327 C 0.86257 -0.10699 0.38089
 C328 C 0.87163 -0.07825 0.43130
 C329 C 0.89016 -0.05925 0.45068
 C330 C 0.91954 -0.05282 0.44156
 C331 C 0.93065 -0.06683 0.41345
 H332 H 0.82975 -0.13628 0.33518
 H333 H 0.93532 -0.11872 0.30515
 H334 H 0.90096 -0.14449 0.26702
 H335 H 0.94505 -0.09235 0.35697
 H336 H 0.83954 -0.11085 0.38747
 H337 H 0.84883 -0.08224 0.43849
 H338 H 0.88117 -0.04867 0.47228
 H339 H 0.95318 -0.06170 0.40600
 C340 C 0.85784 0.16650 0.67588
 C341 C 0.86785 0.15304 0.64695
 C342 C 0.84899 0.13233 0.62924
 C343 C 0.82024 0.12615 0.64014
 C344 C 0.81096 0.13870 0.66946
 C345 C 0.82989 0.15833 0.68788
 C346 C 0.85975 0.11665 0.60204
 C347 C 0.88962 0.12012 0.59327
 C348 C 0.90834 0.14134 0.61037
 C349 C 0.89710 0.15826 0.63665
 C350 C 0.93851 0.14384 0.60213
 C351 C 0.95052 0.12384 0.57898
 C352 C 0.93239 0.10159 0.56308
 C353 C 0.90161 0.10094 0.56926
 H354 H 0.87264 0.18143 0.69019
 H355 H 0.80549 0.11045 0.62679
 H356 H 0.78924 0.13237 0.67823
 H357 H 0.84546 0.10024 0.58900
 H358 H 0.91165 0.17401 0.65026
 H359 H 0.95318 0.16006 0.61484
 H360 H 0.97430 0.12487 0.57457
 H361 H 0.88740 0.08379 0.55731
 C362 C 1.07796 -0.13160 0.68394
 C363 C 1.06187 -0.11168 0.66410
 C364 C 1.05209 -0.08319 0.67690
 C365 C 1.05795 -0.07539 0.70935
 C366 C 1.07477 -0.09485 0.72856
 C367 C 1.08535 -0.12280 0.71593
 C368 C 1.03787 -0.06233 0.65677
 C369 C 1.03444 -0.06900 0.62371
 C370 C 1.04362 -0.09768 0.61094
 C371 C 1.05676 -0.11909 0.63134
 C372 C 1.04070 -0.10390 0.57772
 C373 C 1.03037 -0.08135 0.55716
 C374 C 1.02238 -0.05233 0.56951
 C375 C 1.02346 -0.04676 0.60300
 H376 H 1.08626 -0.15303 0.67395
 H377 H 1.05049 -0.05374 0.71958
 H378 H 1.07992 -0.08781 0.75326
 H379 H 1.03081 -0.04032 0.66655
 H380 H 1.06426 -0.14089 0.62145
 H381 H 1.04746 -0.12581 0.56751
 H382 H 1.02958 -0.08632 0.53148
 H383 H 1.01721 -0.02454 0.61290
 C384 C 0.30284 1.12267 1.09854
 C385 C 0.32347 1.10248 1.08411
 C386 C 0.31661 1.07097 1.08119
 C387 C 0.28952 1.06013 1.09252
 C388 C 0.26984 1.07997 1.10799
 C389 C 0.27629 1.11142 1.11173
 C390 C 0.33736 1.05047 1.06810
 C391 C 0.36560 1.06073 1.05931
 C392 C 0.37277 1.09215 1.06216
 C393 C 0.35137 1.11298 1.07388
 C394 C 0.40160 1.10191 1.05436
 C395 C 0.42340 1.08060 1.04518
 C396 C 0.41648 1.04929 1.04294
 C397 C 0.38724 1.03970 1.04916
 H398 H 0.30846 1.14669 1.10118
 H399 H 0.28387 1.03607 1.09024
 H400 H 0.24933 1.07039 1.11670
 H401 H 0.33201 1.02630 1.06610
 H402 H 0.35690 1.13707 1.07631
 H403 H 0.40755 1.12590 1.05629
 H404 H 0.44575 1.08853 1.04021
 H405 H 0.38163 1.01559 1.04760
 C406 C 0.31540 0.85748 0.85775
 C407 C 0.34086 0.87483 0.86732
 C408 C 0.34475 0.90443 0.85541
 C409 C 0.32354 0.91600 0.83384
 C410 C 0.29812 0.89900 0.82493
 C411 C 0.29325 0.86968 0.83708
 C412 C 0.36926 0.92244 0.86594
 C413 C 0.38959 0.91165 0.88907
 C414 C 0.38601 0.88191 0.90080
 C415 C 0.36196 0.86351 0.88948
 C416 C 0.40588 0.87156 0.92463
 C417 C 0.42806 0.89100 0.93788
 C418 C 0.43124 0.92090 0.92704
 C419 C 0.41253 0.93073 0.90183
 H420 H 0.31246 0.83508 0.86754
 H421 H 0.32627 0.93856 0.82430
 H422 H 0.28238 0.90926 0.80842
 H423 H 0.37187 0.94529 0.85705
 H424 H 0.35907 0.84085 0.89878
 H425 H 0.40354 0.84886 0.93393
 H426 H 0.44224 0.88296 0.95731
 H427 H 0.41456 0.95388 0.89359
 C428 C 0.64765 0.85418 1.16849
 C429 C 0.62495 0.86781 1.14975
 C430 C 0.61259 0.85158 1.12269
 C431 C 0.62177 0.82168 1.11579
 C432 C 0.64423 0.80836 1.13432
 C433 C 0.65839 0.82464 1.16026
 C434 C 0.59198 0.86574 1.10221
 C435 C 0.58372 0.89615 1.10811
 C436 C 0.59463 0.91213 1.13602
 C437 C 0.61514 0.89777 1.15682
 C438 C 0.58570 0.94255 1.14179
 C439 C 0.56758 0.95743 1.11917
 C440 C 0.55842 0.94206 1.09054
 C441 C 0.56581 0.91124 1.08563
 H442 H 0.65752 0.86716 1.18861
 H443 H 0.61211 0.80879 1.09544
 H444 H 0.65076 0.78540 1.12743
 H445 H 0.58323 0.85344 1.08097
 H446 H 0.62423 0.91024 1.17777
 H447 H 0.59360 0.95515 1.16316
 H448 H 0.56218 0.98132 1.12313
 H449 H 0.55861 0.89937 1.06349
 C450 C 0.69212 1.10658 0.90951
 C451 C 0.66941 1.08621 0.91797
 C452 C 0.67205 1.05474 0.90989
 C453 C 0.69677 1.04430 0.89273
 C454 C 0.71821 1.06488 0.88266
 C455 C 0.71626 1.09628 0.89082
 C456 C 0.64947 1.03430 0.91807
 C457 C 0.62332 1.04512 0.93239
 C458 C 0.61999 1.07677 0.93925
 C459 C 0.64345 1.09697 0.93296
 C460 C 0.59299 1.08771 0.95169
 C461 C 0.56954 1.06750 0.95724
 C462 C 0.57317 1.03603 0.95151
 C463 C 0.60012 1.02486 0.93932
 H464 H 0.68979 1.13068 0.91557
 H465 H 0.69909 1.02029 0.88623
 H466 H 0.73667 1.05589 0.86891
 H467 H 0.65177 1.01013 0.91218
 H468 H 0.64103 1.12117 0.93862
 H469 H 0.58996 1.11187 0.95699
 H470 H 0.54894 1.07628 0.96715
 H471 H 0.60279 1.00049 0.93492
 C472 C 0.13065 0.33265 0.15154
 C473 C 0.11994 0.35753 0.13395
 C474 C 0.13648 0.36795 0.10783
 C475 C 0.16381 0.35417 0.10048
 C476 C 0.17422 0.32950 0.11793
 C477 C 0.15758 0.31790 0.14322
 C478 C 0.12514 0.39143 0.08891
 C479 C 0.09724 0.40451 0.09548
 C480 C 0.08108 0.39498 0.12225
 C481 C 0.09261 0.37165 0.14144
 C482 C 0.05321 0.40829 0.12869
 C483 C 0.04079 0.42968 0.10792
 C484 C 0.05607 0.43822 0.08039
 C485 C 0.08473 0.42612 0.07490
 H486 H 0.11761 0.32447 0.17115
 H487 H 0.17691 0.36209 0.08074
 H488 H 0.19514 0.31924 0.11091
 H489 H 0.13763 0.39889 0.06849
 H490 H 0.07992 0.36391 0.16159
 H491 H 0.04056 0.40144 0.14920
 H492 H 0.01866 0.43855 0.11268
 H493 H 0.09680 0.43254 0.05380
 C494 C -0.13780 0.32682 -0.10744
 C495 C -0.11725 0.34721 -0.09236
 C496 C -0.09995 0.33783 -0.06554
 C497 C -0.10489 0.30888 -0.05307
 C498 C -0.12590 0.28897 -0.06781
 C499 C -0.14188 0.29750 -0.09555
 C500 C -0.07762 0.35725 -0.05212
 C501 C -0.07280 0.38615 -0.06482
 C502 C -0.09150 0.39623 -0.09026
 C503 C -0.11335 0.37659 -0.10410
 C504 C -0.08780 0.42573 -0.10172
 C505 C -0.06539 0.44487 -0.08862
 C506 C -0.04574 0.43460 -0.06447
 C507 C -0.04955 0.40515 -0.05263
 H508 H -0.15030 0.33351 -0.12873
 H509 H -0.09208 0.30140 -0.03234
 H510 H -0.12863 0.26635 -0.05844
 H511 H -0.06382 0.34975 -0.03209
 H512 H -0.12710 0.38407 -0.12419
 H513 H -0.10217 0.43399 -0.12088
 H514 H -0.06294 0.46754 -0.09797
 H515 H -0.03468 0.39720 -0.03373
 C516 C 0.15401 0.65707 -0.14913
 C517 C 0.13864 0.63149 -0.13800
 C518 C 0.11464 0.61862 -0.15661
 C519 C 0.10749 0.63042 -0.18670
 C520 C 0.12278 0.65579 -0.19755
 C521 C 0.14550 0.67016 -0.17851
 C522 C 0.09743 0.59498 -0.14437
 C523 C 0.10353 0.58435 -0.11344
 C524 C 0.12844 0.59610 -0.09545
 C525 C 0.14602 0.61939 -0.10796
 C526 C 0.13447 0.58542 -0.06455
 C527 C 0.11474 0.56513 -0.05063
 C528 C 0.08872 0.55493 -0.06743
 C529 C 0.08406 0.56354 -0.09946
 H530 H 0.17167 0.66741 -0.13423
 H531 H 0.08945 0.62057 -0.20149
 H532 H 0.11608 0.66448 -0.22066
 H533 H 0.07849 0.58581 -0.15833
 H534 H 0.16459 0.62899 -0.09373
 H535 H 0.15365 0.59387 -0.05054
 H536 H 0.11905 0.55870 -0.02602
 H537 H 0.06414 0.55585 -0.11273
 C538 C -0.13632 0.67986 0.11123
 C539 C -0.12120 0.65546 0.09630
 C540 C -0.13227 0.62538 0.09866
 C541 C -0.15906 0.62045 0.11472
 C542 C -0.17417 0.64498 0.12927
 C543 C -0.16254 0.67473 0.12828
 C544 C -0.11606 0.60074 0.08553
 C545 C -0.08891 0.60587 0.07018
 C546 C -0.07859 0.63611 0.06669
 C547 C -0.09483 0.66070 0.07969
 C548 C -0.05172 0.64127 0.05103
 C549 C -0.03447 0.61670 0.04020
 C550 C -0.04377 0.58647 0.04475
 C551 C -0.07147 0.58124 0.05907
 H552 H -0.12752 0.70284 0.10979
 H553 H -0.16803 0.59758 0.11653
 H554 H -0.19440 0.64055 0.14221
 H555 H -0.12421 0.57759 0.08791
 H556 H -0.08655 0.68383 0.07756
 H557 H -0.04366 0.66430 0.04783
 H558 H -0.01345 0.62144 0.02887
 H559 H -0.07903 0.55806 0.06252
 C560 C 1.14926 0.14081 0.65745
 C561 C 1.13061 0.12942 0.63224
 C562 C 1.10581 0.14682 0.62179
 C563 C 1.10083 0.17582 0.63583
 C564 C 1.11953 0.18700 0.66089
 C565 C 1.14346 0.16934 0.67245
 C566 C 1.08588 0.13461 0.59822
 C567 C 1.09022 0.10505 0.58526
 C568 C 1.11565 0.08810 0.59476
 C569 C 1.13581 0.10048 0.61804
 C570 C 1.11989 0.05857 0.58166
 C571 C 1.09831 0.04531 0.56071
 C572 C 1.07221 0.06140 0.55246
 C573 C 1.06882 0.09167 0.56401
 H574 H 1.16793 0.12718 0.66579
 H575 H 1.08203 0.18953 0.62799
 H576 H 1.11448 0.20900 0.67198
 H577 H 1.06647 0.14770 0.59077
 H578 H 1.15496 0.08720 0.62585
 H579 H 1.13935 0.04532 0.58851
 H580 H 1.10146 0.02199 0.55204
 H581 H 1.04881 0.10434 0.55767
 C582 C 0.87419 -0.07520 0.71611
 C583 C 0.88910 -0.06068 0.69145
 C584 C 0.91820 -0.04868 0.69729
 C585 C 0.93188 -0.05149 0.72770
 C586 C 0.91703 -0.06629 0.75201
 C587 C 0.88813 -0.07839 0.74645
 C588 C 0.93317 -0.03422 0.67263
 C589 C 0.91946 -0.03174 0.64214
 C590 C 0.89047 -0.04401 0.63627
 C591 C 0.87547 -0.05833 0.66094
 C592 C 0.87692 -0.04180 0.60574
 C593 C 0.89181 -0.02743 0.58125
 C594 C 0.92048 -0.01477 0.58683
 C595 C 0.93424 -0.01714 0.61741
 H596 H 0.85205 -0.08466 0.71137
 H597 H 0.95414 -0.04240 0.73265
 H598 H 0.92820 -0.06819 0.77524
 H599 H 0.95548 -0.02501 0.67715
 H600 H 0.85324 -0.06772 0.65638
 H601 H 0.85475 -0.05113 0.60081
 H602 H 0.88068 -0.02594 0.55795
 H603 H 0.95642 -0.00767 0.62200
 C604 C 1.11482 -0.12735 0.31213
 C605 C 1.09784 -0.10548 0.32905
 C606 C 1.09769 -0.07478 0.31940
 C607 C 1.11508 -0.06640 0.29341
 C608 C 1.13271 -0.08812 0.27742
 C609 C 1.13257 -0.11872 0.28650
 C610 C 1.08061 -0.05290 0.33620
 C611 C 1.06457 -0.06108 0.36329
 C612 C 1.06547 -0.09164 0.37342
 C613 C 1.08159 -0.11371 0.35590
 C614 C 1.05069 -0.09955 0.40134
 C615 C 1.03552 -0.07737 0.41936
 C616 C 1.03413 -0.04708 0.40932
 C617 C 1.04832 -0.03908 0.38099
 H618 H 1.11499 -0.15088 0.31952
 H619 H 1.11537 -0.04299 0.28573
 H620 H 1.14617 -0.08109 0.25760
 H621 H 1.08036 -0.02941 0.32866
 H622 H 1.08205 -0.13715 0.36361
 H623 H 1.05133 -0.12278 0.40957
 H624 H 1.02465 -0.08393 0.44113
 H625 H 1.04756 -0.01561 0.37345
 C626 C 0.85949 0.12355 0.28863
 C627 C 0.87313 0.10639 0.31282
 C628 C 0.88409 0.07684 0.30517
 C629 C 0.88079 0.06477 0.27372
 C630 C 0.86704 0.08191 0.24987
 C631 C 0.85654 0.11153 0.25697
 C632 C 0.89833 0.05986 0.32899
 C633 C 0.90163 0.07195 0.36045
 C634 C 0.89024 0.10124 0.36837
 C635 C 0.87611 0.11835 0.34445
 C636 C 0.89325 0.11288 0.40011
 C637 C 0.90754 0.09568 0.42371
 C638 C 0.91929 0.06676 0.41581
 C639 C 0.91618 0.05506 0.38411
 H640 H 0.85112 0.14619 0.29452
 H641 H 0.88904 0.04215 0.26751
 H642 H 0.86528 0.07215 0.22569
 H643 H 0.90692 0.03728 0.32304
 H644 H 0.86755 0.14094 0.35041
 H645 H 0.88459 0.13525 0.40667
 H646 H 0.90967 0.10511 0.44803
 H647 H 0.92490 0.03261 0.37785
 C648 C 0.16706 0.35612 -0.14686
 C649 C 0.15345 0.37828 -0.12699
 C650 C 0.15830 0.37787 -0.09328
 C651 C 0.17772 0.35622 -0.08018
 C652 C 0.19103 0.33416 -0.10010
 C653 C 0.18522 0.33339 -0.13349
 C654 C 0.14274 0.39825 -0.07313
 C655 C 0.12188 0.41855 -0.08623
 C656 C 0.11794 0.41984 -0.12000
 C657 C 0.13405 0.39995 -0.14020
 C658 C 0.09687 0.43998 -0.13296
 C659 C 0.07841 0.45712 -0.11266
 C660 C 0.08098 0.45467 -0.07909
 C661 C 0.10368 0.43632 -0.06601
 H662 H 0.16279 0.35607 -0.17262
 H663 H 0.18185 0.35571 -0.05442
 H664 H 0.20484 0.31693 -0.08907
 H665 H 0.14585 0.39734 -0.04723
 H666 H 0.13048 0.40041 -0.16607
 H667 H 0.09374 0.44147 -0.15878
 H668 H 0.06129 0.47136 -0.12329
 H669 H 0.10591 0.43430 -0.04015
 C670 C -0.13425 0.32270 0.09244
 C671 C -0.11226 0.34138 0.07952
 C672 C -0.08180 0.33698 0.08822
 C673 C -0.07386 0.31441 0.10988
 C674 C -0.09588 0.29641 0.12308
 C675 C -0.12620 0.30030 0.11449
 C676 C -0.05974 0.35555 0.07562
 C677 C -0.06777 0.37934 0.05550
 C678 C -0.09821 0.38419 0.04707
 C679 C -0.12024 0.36473 0.05860
 C680 C -0.10608 0.40916 0.02828
 C681 C -0.08413 0.42980 0.01919
 C682 C -0.05399 0.42498 0.02767
 C683 C -0.04585 0.39928 0.04500
 H684 H -0.15760 0.32592 0.08577
 H685 H -0.05063 0.31078 0.11677
 H686 H -0.08898 0.27895 0.13953
 H687 H -0.03640 0.35214 0.08234
 H688 H -0.14360 0.36836 0.05217
 H689 H -0.12927 0.41332 0.02164
 H690 H -0.09064 0.44963 0.00576
 H691 H -0.02259 0.39590 0.05206
 C692 C -0.09915 0.71298 -0.08721
 C693 C -0.08021 0.68981 -0.07637
 C694 C -0.04975 0.69632 -0.06915
 C695 C -0.03889 0.72606 -0.07258
 C696 C -0.05784 0.74894 -0.08383
 C697 C -0.08809 0.74261 -0.09145
 C698 C -0.03056 0.67289 -0.05930
 C699 C -0.04138 0.64294 -0.05717
 C700 C -0.07192 0.63655 -0.06422
 C701 C -0.09118 0.66007 -0.07343
 C702 C -0.08259 0.60656 -0.06274
 C703 C -0.06307 0.58293 -0.05513
 C704 C -0.03262 0.58890 -0.04853
 C705 C -0.02199 0.61908 -0.04899
 H706 H -0.12229 0.70756 -0.09323
 H707 H -0.01565 0.73153 -0.06697
 H708 H -0.04872 0.77158 -0.08656
 H709 H -0.00712 0.67781 -0.05408
 H710 H -0.11454 0.65507 -0.07903
 H711 H -0.10592 0.60128 -0.06808
 H712 H -0.07179 0.55986 -0.05463
 H713 H 0.00149 0.62388 -0.04389
 C714 C 0.13822 0.64611 0.18281
 C715 C 0.12657 0.62081 0.16500
 C716 C 0.14545 0.60376 0.14437
 C717 C 0.17600 0.61056 0.14397
 C718 C 0.18740 0.63563 0.16170
 C719 C 0.16842 0.65469 0.17997
 C720 C 0.13329 0.58122 0.12328
 C721 C 0.10240 0.57575 0.12228
 C722 C 0.08381 0.59096 0.14470
 C723 C 0.09605 0.61334 0.16606
 C724 C 0.05300 0.58476 0.14409
 C725 C 0.04044 0.56555 0.11994
 C726 C 0.05846 0.55259 0.09591
 C727 C 0.08958 0.55675 0.09793
 H728 H 0.12333 0.65998 0.19730
 H729 H 0.19092 0.59724 0.12892
 H730 H 0.21097 0.64062 0.15985
 H731 H 0.14764 0.56910 0.10652
 H732 H 0.08158 0.62595 0.18228
 H733 H 0.03844 0.59590 0.16129
 H734 H 0.01635 0.56263 0.11869
 H735 H 0.10356 0.54656 0.07953
 C736 C 0.31538 1.12675 0.88649
 C737 C 0.33343 1.10538 0.90213
 C738 C 0.32308 1.07509 0.90504
 C739 C 0.29475 1.06679 0.89247
 C740 C 0.27710 1.08811 0.87651
 C741 C 0.28731 1.11819 0.87315
 C742 C 0.34149 1.05340 0.91969
 C743 C 0.37050 1.06139 0.93051
 C744 C 0.38081 1.09173 0.92771
 C745 C 0.36203 1.11364 0.91402
 C746 C 0.41015 1.09939 0.93760
 C747 C 0.42952 1.07693 0.94882
 C748 C 0.41967 1.04664 0.95105
 C749 C 0.38984 1.03918 0.94279
 H750 H 0.32367 1.14977 0.88384
 H751 H 0.28643 1.04370 0.89452
 H752 H 0.25541 1.08100 0.86685
 H753 H 0.33364 1.03010 0.92168
 H754 H 0.37002 1.13685 0.91166
 H755 H 0.41839 1.12253 0.93568
 H756 H 0.45238 1.08313 0.95539
 H757 H 0.38218 1.01577 0.94424
 C758 C 0.33965 0.85616 1.14933
 C759 C 0.36287 0.86701 1.13053
 C760 C 0.36581 0.85571 1.09851
 C761 C 0.34613 0.83310 1.08621
 C762 C 0.32330 0.82223 1.10517
 C763 C 0.31964 0.83390 1.13668
 C764 C 0.38784 0.86773 1.07903
 C765 C 0.40669 0.89125 1.09099
 C766 C 0.40450 0.90180 1.12334
 C767 C 0.38277 0.88941 1.14300
 C768 C 0.42322 0.92552 1.13506
 C769 C 0.44238 0.94013 1.11434
 C770 C 0.44346 0.93093 1.08171
 C771 C 0.42655 0.90553 1.07056
 H772 H 0.33718 0.86500 1.17375
 H773 H 0.34810 0.82414 1.06177
 H774 H 0.30803 0.80520 1.09484
 H775 H 0.38961 0.85954 1.05426
 H776 H 0.38071 0.89792 1.16763
 H777 H 0.42208 0.93369 1.15986
 H778 H 0.45536 0.95953 1.12351
 H779 H 0.42722 0.89822 1.04543
 C780 C 0.68932 1.13489 1.05604
 C781 C 0.66596 1.11523 1.04580
 C782 C 0.67261 1.08783 1.02851
 C783 C 0.70229 1.08108 1.02082
 C784 C 0.72545 1.10008 1.03236
 C785 C 0.71916 1.12664 1.05063
 C786 C 0.64983 1.06670 1.02100
 C787 C 0.62078 1.07197 1.03180
 C788 C 0.61379 1.09971 1.04814
 C789 C 0.63638 1.12147 1.05455
 C790 C 0.58459 1.10463 1.05891
 C791 C 0.56277 1.08187 1.05436
 C792 C 0.56984 1.05392 1.03894
 C793 C 0.59889 1.04931 1.02752
 H794 H 0.68447 1.15520 1.07054
 H795 H 0.70772 1.06026 1.00747
 H796 H 0.74841 1.09353 1.02798
 H797 H 0.65503 1.04547 1.00821
 H798 H 0.63125 1.14249 1.06774
 H799 H 0.57880 1.12581 1.07139
 H800 H 0.54049 1.08600 1.06322
 H801 H 0.60471 1.02782 1.01566
 C802 C 0.67734 0.86772 0.86957
 C803 C 0.65073 0.87562 0.88530
 C804 C 0.64670 0.86658 0.91729
 C805 C 0.66858 0.84906 0.93260
 C806 C 0.69477 0.84124 0.91684
 C807 C 0.69974 0.85086 0.88544
 C808 C 0.62133 0.87598 0.93397
 C809 C 0.60008 0.89480 0.91940
 C810 C 0.60319 0.90296 0.88703
 C811 C 0.62847 0.89308 0.87002
 C812 C 0.58160 0.92195 0.87285
 C813 C 0.55843 0.93439 0.89128
 C814 C 0.55656 0.92789 0.92403
 C815 C 0.57671 0.90704 0.93748
 H816 H 0.68073 0.87501 0.84526
 H817 H 0.66574 0.84196 0.95709
 H818 H 0.71150 0.82841 0.92985
 H819 H 0.61871 0.86960 0.95877
 H820 H 0.63131 0.89985 0.84540
 H821 H 0.58344 0.92833 0.84801
 H822 H 0.54324 0.95063 0.88056
 H823 H 0.57532 0.90185 0.96274
   
