data_POSCAR
  _audit_creation_date              2014-09-24
  _audit_creation_method            'ToBaCCo'
  _symmetry_space_group_name_H-M    'P1'
  _symmetry_Int_Tables_number       1
  _symmetry_cell_setting            triclinic
  loop_
  _symmetry_equiv_pos_as_xyz
 x,y,z
_cell_length_a 31.9061
_cell_length_b 32.0255
_cell_length_c 29.2077
_cell_angle_alpha 90.006400
_cell_angle_beta 89.912800
_cell_angle_gamma 91.783000
loop_
  _atom_site_label
  _atom_site_type_symbol
  _atom_site_fract_x
  _atom_site_fract_y
  _atom_site_fract_z
O1 O 0.04206 0.31538 -0.05081
 O2 O -0.03892 0.32338 0.03785
 O3 O 0.04259 0.32363 0.03775
 O4 O -0.03998 0.31035 -0.05024
 O5 O -0.04100 0.24217 -0.03867
 O6 O 0.04457 0.25498 0.04415
 O7 O -0.03776 0.25528 0.04914
 O8 O 0.04001 0.24663 -0.04403
 Cu9 Cu 0.00138 0.32504 -0.00737
 Cu10 Cu 0.00144 0.24293 0.00385
 C11 C 0.05459 0.27983 -0.06285
 C12 C -0.05207 0.29091 0.05888
 C13 C 0.05822 0.29124 0.05508
 C14 C -0.05471 0.27384 -0.05908
 O15 O 0.45552 0.82234 0.54823
 O16 O 0.53768 0.82942 0.46061
 O17 O 0.45608 0.81449 0.46007
 O18 O 0.53594 0.83154 0.55041
 O19 O 0.54434 0.76337 0.55340
 O20 O 0.46578 0.74655 0.46351
 O21 O 0.54631 0.76138 0.46472
 O22 O 0.46279 0.75408 0.55275
 Cu23 Cu 0.49566 0.83129 0.50405
 Cu24 Cu 0.50553 0.74952 0.50903
 C25 C 0.44520 0.78728 0.56560
 C26 C 0.55621 0.79696 0.44783
 C27 C 0.44734 0.77743 0.44666
 C28 C 0.55355 0.80002 0.56733
 O29 O 1.04776 0.70385 0.04974
 O30 O 0.96530 0.68809 -0.03760
 O31 O 1.04713 0.69693 -0.03923
 O32 O 0.96737 0.69262 0.05175
 O33 O 0.95995 0.76077 0.04566
 O34 O 1.04005 0.76503 -0.04542
 O35 O 0.95926 0.75641 -0.04278
 O36 O 1.04138 0.77208 0.04424
 Cu37 Cu 1.00759 0.68851 0.00650
 Cu38 Cu 0.99971 0.77045 -0.00002
 C39 C 1.05828 0.74073 0.06232
 C40 C 0.94819 0.71967 -0.05502
 C41 C 1.05706 0.73160 -0.05810
 C42 C 0.95013 0.72591 0.06422
 O43 O 0.53902 0.19798 0.55119
 O44 O 0.45872 0.18440 0.46112
 O45 O 0.53958 0.18578 0.46271
 O46 O 0.45643 0.19563 0.54918
 O47 O 0.45560 0.26363 0.53689
 O48 O 0.54303 0.25449 0.45544
 O49 O 0.46151 0.25249 0.44896
 O50 O 0.53675 0.26649 0.54342
 Cu51 Cu 0.49845 0.18408 0.50746
 Cu52 Cu 0.49937 0.26613 0.49512
 C53 C 0.55122 0.23463 0.56287
 C54 C 0.44696 0.21618 0.43919
 C55 C 0.55556 0.21853 0.44454
 C56 C 0.44118 0.23113 0.55701
 O57 O 0.70491 0.05664 -0.03941
 O58 O 0.68879 -0.02438 0.04939
 O59 O 0.70478 0.05582 0.04925
 O60 O 0.68825 -0.02344 -0.04061
 O61 O 0.75562 -0.03726 -0.03834
 O62 O 0.77281 0.04491 0.04829
 O63 O 0.75691 -0.03431 0.05046
 O64 O 0.77233 0.04305 -0.04155
 Cu65 Cu 0.68982 0.01720 0.00464
 Cu66 Cu 0.77126 0.00300 0.00445
 C67 C 0.74141 0.06337 -0.05581
 C68 C 0.72030 -0.04251 0.06584
 C69 C 0.74156 0.06387 0.06403
 C70 C 0.71910 -0.04408 -0.05448
 O71 O 0.18728 0.43289 0.53740
 O72 O 0.17441 0.51892 0.45466
 O73 O 0.18168 0.43761 0.44934
 O74 O 0.17614 0.51260 0.54409
 O75 O 0.24452 0.52500 0.53928
 O76 O 0.25051 0.44711 0.44647
 O77 O 0.24320 0.52784 0.45080
 O78 O 0.25583 0.44494 0.53601
 Cu79 Cu 0.17294 0.47462 0.49648
 Cu80 Cu 0.25542 0.48712 0.49275
 C81 C 0.22393 0.42467 0.55108
 C82 C 0.20676 0.53806 0.43868
 C83 C 0.21692 0.42906 0.43224
 C84 C 0.20922 0.53171 0.55769
 O85 O 0.29146 1.02905 0.04493
 O86 O 0.30450 0.94572 -0.04000
 O87 O 0.30238 1.02692 -0.04338
 O88 O 0.29150 0.94779 0.04793
 O89 O 0.22320 0.94316 0.03568
 O90 O 0.23381 1.02385 -0.05332
 O91 O 0.23610 0.94279 -0.05163
 O92 O 0.22289 1.02517 0.03535
 Cu93 Cu 0.30431 0.98776 0.00352
 Cu94 Cu 0.22210 0.98356 -0.00944
 C95 C 0.25509 1.04146 0.05475
 C96 C 0.27261 0.93001 -0.06029
 C97 C 0.26984 1.03889 -0.06398
 C98 C 0.25553 0.93158 0.05678
 O99 O 0.82309 0.55506 0.54498
 O100 O 0.82629 0.47925 0.45175
 O101 O 0.81500 0.55937 0.45629
 O102 O 0.82638 0.47413 0.54073
 O103 O 0.75742 0.46726 0.54473
 O104 O 0.74623 0.54911 0.45869
 O105 O 0.75754 0.46941 0.45559
 O106 O 0.75402 0.54856 0.54807
 Cu107 Cu 0.82952 0.51785 0.49812
 Cu108 Cu 0.74692 0.50782 0.50221
 C109 C 0.78846 0.56494 0.56243
 C110 C 0.79283 0.46120 0.43782
 C111 C 0.77840 0.56810 0.44268
 C112 C 0.79350 0.45629 0.55718
 C113 C 0.25159 0.26462 0.22932
 C114 C 0.27960 0.23338 0.23202
 C115 C 0.27914 0.19705 0.20030
 C116 C 0.31265 0.23432 0.26781
 C117 C 0.25127 0.29759 0.26497
 C118 C 0.21908 0.26691 0.19287
 C119 C 0.24280 0.17187 0.19353
 C120 C 0.24326 0.13790 0.16329
 C121 C 0.28028 0.12835 0.13962
 C122 C 0.31670 0.15301 0.14755
 C123 C 0.31615 0.18693 0.17748
 C124 C 0.31343 0.20269 0.30093
 C125 C 0.34316 0.20445 0.33606
 C126 C 0.37301 0.23776 0.33827
 C127 C 0.37241 0.26900 0.30457
 C128 C 0.34276 0.26714 0.26945
 C129 C 0.26529 0.33845 0.25464
 C130 C 0.26575 0.36930 0.28855
 C131 C 0.25081 0.36000 0.33270
 C132 C 0.23661 0.31903 0.34288
 C133 C 0.23709 0.28801 0.30930
 C134 C 0.22866 0.26011 0.14648
 C135 C 0.19709 0.26050 0.11333
 C136 C 0.15592 0.26984 0.12557
 C137 C 0.14663 0.27856 0.17147
 C138 C 0.17783 0.27684 0.20479
 H139 H 0.21417 0.17848 0.21174
 H140 H 0.21486 0.11897 0.15931
 H141 H 0.34573 0.14621 0.13018
 H142 H 0.34464 0.20565 0.18249
 H143 H 0.29030 0.17722 0.30020
 H144 H 0.34175 0.18030 0.36192
 H145 H 0.34298 0.29153 0.24377
 H146 H 0.27644 0.34618 0.22054
 H147 H 0.27702 0.40063 0.28015
 H148 H 0.22568 0.31089 0.37694
 H149 H 0.22627 0.25655 0.31773
 H150 H 0.26041 0.25403 0.13591
 H151 H 0.20484 0.25381 0.07801
 H152 H 0.11492 0.28525 0.18182
 H153 H 0.16946 0.28250 0.24015
 H154 H 0.39494 0.29500 0.30545
 C155 C 0.77145 0.75159 0.25629
 C156 C 0.74139 0.78085 0.25952
 C157 C 0.74078 0.81701 0.22764
 C158 C 0.70798 0.77788 0.29503
 C159 C 0.77725 0.72068 0.29330
 C160 C 0.80129 0.75015 0.21700
 C161 C 0.77671 0.84280 0.22159
 C162 C 0.77770 0.87368 0.18788
 C163 C 0.74258 0.88005 0.16013
 C164 C 0.70585 0.85544 0.16766
 C165 C 0.70495 0.82436 0.20137
 C166 C 0.70011 0.81228 0.32314
 C167 C 0.66849 0.80982 0.35631
 C168 C 0.64373 0.77293 0.36161
 C169 C 0.65178 0.73855 0.33350
 C170 C 0.68325 0.74112 0.30021
 C171 C 0.77112 0.67794 0.28434
 C172 C 0.77801 0.64860 0.31866
 C173 C 0.79222 0.66157 0.36209
 C174 C 0.79939 0.70428 0.37064
 C175 C 0.79141 0.73372 0.33663
 C176 C 0.78731 0.75353 0.17150
 C177 C 0.81596 0.75434 0.13525
 C178 C 0.85876 0.74959 0.14363
 C179 C 0.87267 0.74450 0.18881
 C180 C 0.84422 0.74502 0.22515
 H181 H 0.80448 0.83806 0.24201
 H182 H 0.80633 0.89223 0.18294
 H183 H 0.67837 0.85881 0.14653
 H184 H 0.67692 0.80477 0.20558
 H185 H 0.71887 0.84090 0.31977
 H186 H 0.66415 0.83660 0.37818
 H187 H 0.68812 0.71448 0.27822
 H188 H 0.76078 0.66742 0.25085
 H189 H 0.77297 0.61572 0.31107
 H190 H 0.81057 0.71482 0.40381
 H191 H 0.79695 0.76663 0.34375
 H192 H 0.75426 0.75599 0.16403
 H193 H 0.80468 0.75805 0.10057
 H194 H 0.90568 0.74124 0.19606
 H195 H 0.85590 0.74214 0.25976
 H196 H 0.63327 0.70978 0.33690
 C197 C 0.73928 0.24341 0.25590
 C198 C 0.76913 0.27461 0.25249
 C199 C 0.80332 0.27252 0.21806
 C200 C 0.76894 0.31176 0.28283
 C201 C 0.70853 0.24076 0.29440
 C202 C 0.73448 0.21221 0.21880
 C203 C 0.82998 0.23848 0.21745
 C204 C 0.86143 0.23595 0.18433
 C205 C 0.86731 0.26765 0.15156
 C206 C 0.84058 0.30192 0.15243
 C207 C 0.80914 0.30442 0.18565
 C208 C 0.80434 0.32214 0.30928
 C209 C 0.80303 0.35431 0.34146
 C210 C 0.76639 0.37729 0.34716
 C211 C 0.73146 0.36759 0.31957
 C212 C 0.73282 0.33540 0.28737
 C213 C 0.66590 0.23190 0.28543
 C214 C 0.63651 0.23155 0.32092
 C215 C 0.64915 0.24063 0.36592
 C216 C 0.69168 0.24855 0.37525
 C217 C 0.72129 0.24743 0.34001
 C218 C 0.71912 0.22434 0.17602
 C219 C 0.71416 0.19509 0.14088
 C220 C 0.72566 0.15368 0.14767
 C221 C 0.74105 0.14154 0.19059
 C222 C 0.74491 0.17059 0.22616
 H223 H 0.82636 0.21382 0.24264
 H224 H 0.88138 0.20918 0.18443
 H225 H 0.84299 0.32643 0.12704
 H226 H 0.78871 0.33081 0.18548
 H227 H 0.83238 0.30410 0.30641
 H228 H 0.83026 0.35983 0.36284
 H229 H 0.70530 0.32810 0.26685
 H230 H 0.65510 0.22631 0.25078
 H231 H 0.60370 0.22567 0.31301
 H232 H 0.70198 0.25528 0.40987
 H233 H 0.75409 0.25264 0.34829
 H234 H 0.71064 0.25639 0.17011
 H235 H 0.70188 0.20488 0.10817
 H236 H 0.74927 0.10949 0.19684
 H237 H 0.75652 0.16084 0.25918
 H238 H 0.70289 0.38470 0.32328
 C239 C 0.26023 0.76502 0.26262
 C240 C 0.23132 0.73274 0.26168
 C241 C 0.19838 0.72915 0.22581
 C242 C 0.23240 0.69805 0.29548
 C243 C 0.29121 0.76917 0.30022
 C244 C 0.26332 0.79789 0.22650
 C245 C 0.17114 0.76185 0.21721
 C246 C 0.14125 0.75824 0.18228
 C247 C 0.13797 0.72167 0.15548
 C248 C 0.16441 0.68863 0.16527
 C249 C 0.19429 0.69232 0.19999
 C250 C 0.19643 0.68705 0.32103
 C251 C 0.19659 0.65328 0.35145
 C252 C 0.23275 0.62958 0.35643
 C253 C 0.26864 0.64076 0.33076
 C254 C 0.26836 0.67433 0.30028
 C255 C 0.33395 0.76522 0.29060
 C256 C 0.36385 0.77221 0.32479
 C257 C 0.35147 0.78424 0.36895
 C258 C 0.30870 0.78869 0.37841
 C259 C 0.27866 0.78067 0.34440
 C260 C 0.26308 0.78766 0.17965
 C261 C 0.26688 0.81904 0.14651
 C262 C 0.27284 0.86096 0.15968
 C263 C 0.27478 0.87113 0.20623
 C264 C 0.26949 0.83998 0.23933
 H265 H 0.17312 0.79015 0.23748
 H266 H 0.12048 0.78384 0.17706
 H267 H 0.16224 0.65995 0.14562
 H268 H 0.21477 0.66658 0.20625
 H269 H 0.16828 0.70482 0.31757
 H270 H 0.16861 0.64642 0.37132
 H271 H 0.29608 0.68148 0.27997
 H272 H 0.34410 0.75700 0.25644
 H273 H 0.39670 0.76937 0.31639
 H274 H 0.29859 0.79820 0.41215
 H275 H 0.24578 0.78454 0.35206
 H276 H 0.26038 0.75542 0.16863
 H277 H 0.26629 0.81055 0.11061
 H278 H 0.27971 0.90329 0.21693
 H279 H 0.27039 0.84879 0.27512
 H280 H 0.29691 0.62311 0.33391
 C281 C 0.76403 0.27417 0.74817
 C282 C 0.73533 0.24193 0.74993
 C283 C 0.70377 0.23496 0.71349
 C284 C 0.73344 0.21236 0.78884
 C285 C 0.79725 0.27949 0.78338
 C286 C 0.76352 0.30601 0.71126
 C287 C 0.66158 0.24312 0.72214
 C288 C 0.63147 0.23660 0.68800
 C289 C 0.64301 0.22076 0.64506
 C290 C 0.68507 0.21146 0.63693
 C291 C 0.71541 0.21906 0.67074
 C292 C 0.71921 0.22522 0.83189
 C293 C 0.71553 0.19657 0.86793
 C294 C 0.72701 0.15499 0.86172
 C295 C 0.74155 0.14230 0.81857
 C296 C 0.74429 0.17071 0.78230
 C297 C 0.82565 0.24780 0.79155
 C298 C 0.85742 0.25345 0.82401
 C299 C 0.86141 0.29105 0.84891
 C300 C 0.83363 0.32310 0.83970
 C301 C 0.80180 0.31737 0.80727
 C302 C 0.79963 0.31411 0.68483
 C303 C 0.80024 0.34547 0.65149
 C304 C 0.76472 0.36966 0.64440
 C305 C 0.72860 0.36124 0.67080
 C306 C 0.72810 0.33003 0.70419
 H307 H 0.65212 0.25499 0.75518
 H308 H 0.59909 0.24327 0.69536
 H309 H 0.69450 0.19897 0.60416
 H310 H 0.74783 0.21219 0.66382
 H311 H 0.71028 0.25721 0.83725
 H312 H 0.70385 0.20686 0.90075
 H313 H 0.75493 0.16027 0.74910
 H314 H 0.82362 0.21893 0.77227
 H315 H 0.87927 0.22865 0.82863
 H316 H 0.83635 0.35252 0.85793
 H317 H 0.78053 0.34244 0.80094
 H318 H 0.82734 0.29599 0.68996
 H319 H 0.82833 0.35017 0.63117
 H320 H 0.70081 0.37935 0.66606
 H321 H 0.70031 0.32512 0.72505
 H322 H 0.74965 0.11018 0.81252
 C323 C 0.23045 0.71343 0.74837
 C324 C 0.26043 0.74454 0.75126
 C325 C 0.29677 0.74702 0.71953
 C326 C 0.25725 0.77854 0.78552
 C327 C 0.19850 0.70843 0.78491
 C328 C 0.22886 0.68285 0.70991
 C329 C 0.32349 0.71332 0.71436
 C330 C 0.35602 0.71525 0.68218
 C331 C 0.36267 0.75099 0.65492
 C332 C 0.33587 0.78483 0.66060
 C333 C 0.30366 0.78297 0.69296
 C334 C 0.28904 0.78537 0.81795
 C335 C 0.28616 0.81757 0.85007
 C336 C 0.25154 0.84387 0.84980
 C337 C 0.21989 0.83689 0.81712
 C338 C 0.22291 0.80484 0.78500
 C339 C 0.15753 0.72155 0.77776
 C340 C 0.12831 0.71963 0.81347
 C341 C 0.13944 0.70329 0.85626
 C342 C 0.17993 0.68859 0.86271
 C343 C 0.20953 0.69180 0.82748
 C344 C 0.23339 0.69619 0.66421
 C345 C 0.23502 0.66711 0.62867
 C346 C 0.22991 0.62434 0.63782
 C347 C 0.22323 0.61095 0.68311
 C348 C 0.22292 0.63997 0.71887
 H349 H 0.31876 0.68535 0.73480
 H350 H 0.37595 0.68869 0.67844
 H351 H 0.33857 0.81245 0.63947
 H352 H 0.28309 0.80910 0.69614
 H353 H 0.31580 0.76538 0.81875
 H354 H 0.31066 0.82110 0.87542
 H355 H 0.19855 0.80069 0.75949
 H356 H 0.14861 0.73430 0.74496
 H357 H 0.09695 0.73049 0.80763
 H358 H 0.18890 0.67560 0.89537
 H359 H 0.24107 0.68144 0.83333
 H360 H 0.23631 0.72911 0.65604
 H361 H 0.23983 0.67803 0.59389
 H362 H 0.21956 0.57799 0.69099
 H363 H 0.21901 0.62879 0.75365
 H364 H 0.19291 0.85660 0.81615
 C365 C 0.24688 0.20741 0.73480
 C366 C 0.21694 0.23660 0.73375
 C367 C 0.21489 0.26799 0.69686
 C368 C 0.18496 0.23883 0.77020
 C369 C 0.24641 0.17462 0.77062
 C370 C 0.28184 0.20730 0.70129
 C371 C 0.22556 0.30993 0.70607
 C372 C 0.22240 0.34007 0.67180
 C373 C 0.20752 0.32879 0.62809
 C374 C 0.19611 0.28689 0.61923
 C375 C 0.20030 0.25654 0.65324
 C376 C 0.19523 0.25710 0.81247
 C377 C 0.16503 0.25910 0.84702
 C378 C 0.12435 0.24220 0.83991
 C379 C 0.11442 0.22331 0.79782
 C380 C 0.14432 0.22232 0.76285
 C381 C 0.21310 0.14515 0.77340
 C382 C 0.21209 0.11522 0.80816
 C383 C 0.24469 0.11370 0.84030
 C384 C 0.27841 0.14303 0.83704
 C385 C 0.27930 0.17305 0.80227
 C386 C 0.28972 0.17093 0.67640
 C387 C 0.32375 0.16980 0.64632
 C388 C 0.35058 0.20499 0.64051
 C389 C 0.34302 0.24128 0.66611
 C390 C 0.30901 0.24232 0.69627
 H391 H 0.23641 0.31925 0.73979
 H392 H 0.23051 0.37232 0.67982
 H393 H 0.18421 0.27767 0.58590
 H394 H 0.19146 0.22431 0.64589
 H395 H 0.22658 0.26982 0.81857
 H396 H 0.17362 0.27319 0.87952
 H397 H 0.13608 0.20806 0.73032
 H398 H 0.18781 0.14545 0.74874
 H399 H 0.18576 0.09308 0.80988
 H400 H 0.30360 0.14371 0.86176
 H401 H 0.30521 0.19568 0.80059
 H402 H 0.26948 0.14337 0.68033
 H403 H 0.32911 0.14133 0.62745
 H404 H 0.36380 0.26852 0.66404
 H405 H 0.30447 0.27014 0.71650
 H406 H 0.08330 0.20997 0.79180
 C407 C 0.73231 0.77066 0.75908
 C408 C 0.76127 0.74007 0.75877
 C409 C 0.76008 0.70605 0.72415
 C410 C 0.79716 0.74059 0.79121
 C411 C 0.73028 0.80144 0.79735
 C412 C 0.70245 0.77557 0.72035
 C413 C 0.72397 0.68051 0.71778
 C414 C 0.72289 0.64990 0.68354
 C415 C 0.75796 0.64403 0.65537
 C416 C 0.79404 0.66988 0.66197
 C417 C 0.79518 0.70011 0.69634
 C418 C 0.80511 0.70527 0.81787
 C419 C 0.83796 0.70611 0.84957
 C420 C 0.86384 0.74226 0.85464
 C421 C 0.85627 0.77716 0.82710
 C422 C 0.82356 0.77625 0.79543
 C423 C 0.72696 0.84421 0.78775
 C424 C 0.72745 0.87352 0.82321
 C425 C 0.73183 0.86057 0.86884
 C426 C 0.73420 0.81790 0.87862
 C427 C 0.73232 0.78849 0.84331
 C428 C 0.71660 0.77514 0.67471
 C429 C 0.68814 0.77681 0.63859
 C430 C 0.64540 0.78139 0.64735
 C431 C 0.63137 0.78449 0.69278
 C432 C 0.65969 0.78131 0.72903
 H433 H 0.69656 0.68456 0.73906
 H434 H 0.69463 0.63073 0.67906
 H435 H 0.82124 0.66788 0.64010
 H436 H 0.82312 0.71987 0.70031
 H437 H 0.78515 0.67742 0.81496
 H438 H 0.84206 0.67884 0.87068
 H439 H 0.81848 0.80356 0.77452
 H440 H 0.72513 0.85504 0.75271
 H441 H 0.72606 0.90639 0.81487
 H442 H 0.73741 0.80735 0.91364
 H443 H 0.73345 0.75565 0.85182
 H444 H 0.74962 0.77265 0.66699
 H445 H 0.69948 0.77452 0.60372
 H446 H 0.59834 0.78759 0.70020
 H447 H 0.64809 0.78234 0.76387
 H448 H 0.87568 0.80538 0.83023
 C449 C 0.25016 0.07354 0.08671
 C450 C 0.28313 0.09269 0.10736
 H451 H 0.21868 0.08355 0.09354
 H452 H 0.31450 0.08310 0.09882
 C453 C 0.78970 0.59583 0.59965
 C454 C 0.75553 0.61169 0.61884
 H455 H 0.82060 0.60545 0.61145
 H456 H 0.72480 0.60025 0.60800
 C457 C 0.71436 0.92859 0.10135
 C458 C 0.74676 0.91070 0.12222
 H459 H 0.68261 0.92178 0.11278
 H460 H 0.77849 0.91958 0.11195
 C461 C 0.22995 0.39199 0.58556
 C462 C 0.20192 0.36063 0.59222
 H463 H 0.25876 0.39325 0.60520
 H464 H 0.17496 0.35730 0.56984
 C465 C 0.91728 0.29534 0.09255
 C466 C 0.90061 0.26309 0.11644
 H467 H 0.90709 0.32667 0.09921
 H468 H 0.91230 0.23205 0.11094
 C469 C 0.41237 0.78647 0.60097
 C470 C 0.39675 0.75132 0.62013
 H471 H 0.40124 0.81653 0.61143
 H472 H 0.40971 0.72169 0.61047
 C473 C 0.08822 0.74741 0.09665
 C474 C 0.10669 0.71587 0.11827
 H475 H 0.09629 0.77942 0.10568
 H476 H 0.09945 0.68399 0.10768
 C477 C 0.58211 0.24093 0.59968
 C478 C 0.61144 0.21319 0.60882
 H479 H 0.58215 0.27033 0.61809
 H480 H 0.61404 0.18571 0.58745
 C481 C 0.74820 0.09434 0.90749
 C482 C 0.72135 0.12486 0.89975
 H483 H 0.77639 0.09241 0.88698
 H484 H 0.69510 0.12879 0.92278
 C485 C 0.20180 0.57278 0.40609
 C486 C 0.23515 0.59402 0.38879
 H487 H 0.17030 0.58054 0.39636
 H488 H 0.26629 0.58434 0.39798
 C489 C 0.27866 0.89637 0.90617
 C490 C 0.24657 0.87801 0.88353
 H491 H 0.31046 0.88707 0.89996
 H492 H 0.21523 0.88921 0.88885
 C493 C 0.79611 0.43024 0.40095
 C494 C 0.76280 0.40988 0.38291
 H495 H 0.82730 0.42456 0.38829
 H496 H 0.73164 0.41765 0.39429
 C497 C 0.08689 0.27774 0.90141
 C498 C 0.09219 0.24347 0.87619
 H499 H 0.10571 0.30579 0.89445
 H500 H 0.07090 0.21668 0.88025
 C501 C 0.58965 0.80145 0.41320
 C502 C 0.61007 0.76880 0.39656
 H503 H 0.59690 0.83266 0.40072
 H504 H 0.60081 0.73756 0.40769
 C505 C 0.91505 0.71343 0.91028
 C506 C 0.89766 0.74590 0.88933
 H507 H 0.90559 0.68168 0.90173
 H508 H 0.90926 0.77722 0.89740
 C509 C 0.41604 0.21034 0.40215
 C510 C 0.40407 0.24212 0.37585
 H511 H 0.40382 0.17895 0.39614
 H512 H 0.41845 0.27285 0.38125
 C513 C 0.71241 0.92438 0.90956
 C514 C 0.73670 0.89128 0.90617
 H515 H 0.68654 0.92799 0.88604
 H516 H 0.76006 0.88575 0.93222
 C517 C 0.21811 0.39691 0.39643
 C518 C 0.25058 0.39311 0.36789
 H519 H 0.19075 0.37626 0.39278
 H520 H 0.27644 0.41586 0.36876
 C521 C 0.27421 0.06883 0.90143
 C522 C 0.24135 0.08217 0.87739
 H523 H 0.30555 0.08070 0.89372
 H524 H 0.21038 0.06856 0.88405
 C525 C 0.77231 0.59954 0.40693
 C526 C 0.79994 0.63078 0.39849
 H527 H 0.74317 0.59766 0.38789
 H528 H 0.82728 0.63523 0.42012
 C529 C 0.08645 0.73345 0.90647
 C530 C 0.10892 0.70060 0.89413
 H531 H 0.09163 0.76299 0.88886
 H532 H 0.10687 0.67180 0.91363
 C533 C 0.58815 0.21435 0.40950
 C534 C 0.61798 0.24391 0.40286
 H535 H 0.58808 0.18598 0.38926
 H536 H 0.62045 0.27049 0.42579
 C537 C 0.91211 0.26707 0.90659
 C538 C 0.89473 0.29826 0.88360
 H539 H 0.90141 0.23510 0.90088
 H540 H 0.90413 0.33026 0.89152
 C541 C 0.41607 0.76946 0.41067
 C542 C 0.38292 0.79341 0.40492
 H543 H 0.41919 0.74162 0.38999
 H544 H 0.37751 0.81879 0.42854
 C545 C 0.25089 0.89830 0.09112
 C546 C 0.27822 0.89426 0.12528
 H547 H 0.22355 0.87741 0.08916
 H548 H 0.30346 0.91732 0.12986
 C549 C 0.79740 0.42251 0.59108
 C550 C 0.76341 0.40323 0.60951
 H551 H 0.82862 0.41428 0.60136
 H552 H 0.73262 0.41344 0.59969
 C553 C 0.74825 0.09484 0.10056
 C554 C 0.71977 0.12331 0.11020
 H555 H 0.77745 0.09462 0.11944
 H556 H 0.69219 0.12571 0.08883
 C557 C 0.20624 0.56153 0.59566
 C558 C 0.23312 0.59412 0.59998
 H559 H 0.18025 0.55767 0.61938
 H560 H 0.25663 0.60018 0.57378
 C561 C 0.91922 0.72378 0.10145
 C562 C 0.88877 0.75129 0.10523
 H563 H 0.92089 0.69825 0.12569
 H564 H 0.88465 0.77447 0.07871
 C565 C 0.40621 0.23526 0.58949
 C566 C 0.38670 0.20201 0.60879
 H567 H 0.39556 0.26643 0.59606
 H568 H 0.39651 0.17099 0.59963
 C569 C 0.09244 0.29576 0.08843
 C570 C 0.12249 0.26762 0.09080
 H571 H 0.09363 0.32305 0.11038
 H572 H 0.12328 0.24263 0.06579
 C573 C 0.58460 0.80578 0.60405
 C574 C 0.61554 0.77897 0.60906
 H575 H 0.58228 0.83228 0.62687
 H576 H 0.61984 0.75477 0.58366
   
