data_POSCAR
  _audit_creation_date              2014-09-24
  _audit_creation_method            'ToBaCCo'
  _symmetry_space_group_name_H-M    'P1'
  _symmetry_Int_Tables_number       1
  _symmetry_cell_setting            triclinic
  loop_
  _symmetry_equiv_pos_as_xyz
 x,y,z
_cell_length_a 23.1968
_cell_length_b 23.1968
_cell_length_c 23.1968
_cell_angle_alpha 89.996900
_cell_angle_beta 89.989900
_cell_angle_gamma 90.001300
loop_
  _atom_site_label
  _atom_site_type_symbol
  _atom_site_fract_x
  _atom_site_fract_y
  _atom_site_fract_z
O1 O 0.57863 0.50007 0.04737
 O2 O 0.41961 0.50009 0.04733
 O3 O 0.49913 0.42077 0.04727
 O4 O 0.49915 0.57934 0.04728
 O5 O 0.49918 0.57934 -0.04807
 O6 O 0.49916 0.42080 -0.04808
 O7 O 0.41963 0.50010 -0.04798
 O8 O 0.57867 0.50008 -0.04796
 Cu9 Cu 0.49912 0.50006 0.05693
 Cu10 Cu 0.49916 0.50007 -0.05764
 C11 C 0.60550 0.50009 -0.00029
 C12 C 0.39275 0.50012 -0.00032
 C13 C 0.49916 0.39404 -0.00041
 C14 C 0.49919 0.60609 -0.00040
 O15 O -0.04738 0.58037 0.50008
 O16 O -0.04736 0.42136 0.50008
 O17 O -0.04730 0.50085 0.57935
 O18 O -0.04730 0.50085 0.42078
 O19 O 0.04805 0.50086 0.42077
 O20 O 0.04805 0.50086 0.57932
 O21 O 0.04797 0.42136 0.50007
 O22 O 0.04794 0.58040 0.50006
 Cu23 Cu -0.05695 0.50086 0.50006
 Cu24 Cu 0.05762 0.50088 0.50005
 C25 C 0.00027 0.60726 0.50009
 C26 C 0.00030 0.39450 0.50010
 C27 C 0.00038 0.50083 0.60608
 C28 C 0.00039 0.50083 0.39403
 O29 O 0.49993 0.04735 0.58037
 O30 O 0.49993 0.04735 0.42136
 O31 O 0.42066 0.04726 0.50086
 O32 O 0.57923 0.04729 0.50084
 O33 O 0.57923 -0.04806 0.50084
 O34 O 0.42069 -0.04809 0.50087
 O35 O 0.49994 -0.04798 0.42135
 O36 O 0.49994 -0.04797 0.58039
 Cu37 Cu 0.49995 0.05693 0.50086
 Cu38 Cu 0.49996 -0.05764 0.50087
 C39 C 0.49992 -0.00030 0.60725
 C40 C 0.49992 -0.00031 0.39450
 C41 C 0.39393 -0.00043 0.50085
 C42 C 0.60598 -0.00039 0.50081
 O43 O 0.45194 0.00003 -0.08030
 O44 O 0.45193 0.00003 0.07874
 O45 O 0.45183 0.07932 -0.00076
 O46 O 0.45185 -0.07922 -0.00075
 O47 O 0.54720 -0.07923 -0.00077
 O48 O 0.54718 0.07935 -0.00078
 O49 O 0.54726 0.00004 0.07871
 O50 O 0.54726 0.00004 -0.08030
 Cu51 Cu 0.44227 0.00005 -0.00078
 Cu52 Cu 0.55685 0.00006 -0.00079
 C53 C 0.49961 0.00001 -0.10716
 C54 C 0.49960 0.00001 0.10558
 C55 C 0.49950 0.10608 -0.00075
 C56 C 0.49952 -0.10597 -0.00074
 O57 O -0.07874 0.54805 1.00004
 O58 O 0.08031 0.54807 1.00001
 O59 O 0.00076 0.54815 0.92077
 O60 O 0.00076 0.54815 1.07932
 O61 O 0.00078 0.45280 1.07933
 O62 O 0.00078 0.45280 0.92076
 O63 O 0.08031 0.45274 1.00001
 O64 O -0.07871 0.45272 1.00004
 Cu65 Cu 0.00078 0.55772 1.00004
 Cu66 Cu 0.00080 0.44315 1.00005
 C67 C -0.10558 0.50037 1.00003
 C68 C 0.10716 0.50040 0.99998
 C69 C 0.00074 0.50048 0.89402
 C70 C 0.00075 0.50048 1.10607
 O71 O -0.00001 -0.08029 0.45273
 O72 O 0.00001 0.07873 0.45273
 O73 O 0.07927 -0.00077 0.45282
 O74 O -0.07931 -0.00075 0.45279
 O75 O -0.07932 -0.00076 0.54814
 O76 O 0.07922 -0.00078 0.54817
 O77 O -0.00002 0.07874 0.54806
 O78 O -0.00005 -0.08031 0.54806
 Cu79 Cu -0.00002 -0.00078 0.44315
 Cu80 Cu -0.00005 -0.00079 0.55773
 C81 C -0.00001 -0.10715 0.50039
 C82 C 0.00002 0.10559 0.50039
 C83 C 0.10599 -0.00076 0.50050
 C84 C -0.10606 -0.00073 0.50047
 C85 C -0.33254 0.50014 0.99974
 C86 C -0.28051 0.50019 0.99980
 C87 C -0.21956 0.50026 0.99991
 C88 C -0.16753 0.50033 0.99997
 C89 C 0.33414 0.50018 0.99968
 C90 C 0.28211 0.50026 0.99973
 C91 C 0.22115 0.50034 0.99982
 C92 C 0.16912 0.50039 0.99990
 C93 C 0.00024 -0.33414 0.50015
 C94 C 0.00018 -0.28210 0.50021
 C95 C 0.00010 -0.22114 0.50031
 C96 C 0.00004 -0.16911 0.50036
 C97 C 0.00028 0.33255 0.50017
 C98 C 0.00023 0.28052 0.50024
 C99 C 0.00015 0.21957 0.50032
 C100 C 0.00009 0.16754 0.50036
 C101 C 0.49985 -0.00028 -0.33414
 C102 C 0.49977 -0.00024 -0.28210
 C103 C 0.49968 -0.00015 -0.22114
 C104 C 0.49963 -0.00006 -0.16911
 C105 C 0.49984 -0.00028 0.33255
 C106 C 0.49977 -0.00024 0.28052
 C107 C 0.49967 -0.00014 0.21956
 C108 C 0.49962 -0.00006 0.16754
 C109 C 0.49927 -0.33220 -0.00042
 C110 C 0.49936 -0.28031 -0.00048
 C111 C 0.49945 -0.21958 -0.00058
 C112 C 0.49950 -0.16769 -0.00066
 C113 C 0.49922 0.33232 -0.00044
 C114 C 0.49929 0.28043 -0.00051
 C115 C 0.49940 0.21969 -0.00061
 C116 C 0.49947 0.16780 -0.00068
 C117 C -0.33230 -0.00041 0.50073
 C118 C -0.28041 -0.00046 0.50064
 C119 C -0.21967 -0.00056 0.50054
 C120 C -0.16778 -0.00064 0.50049
 C121 C 0.33221 -0.00047 0.50079
 C122 C 0.28032 -0.00054 0.50071
 C123 C 0.21959 -0.00063 0.50060
 C124 C 0.16771 -0.00069 0.50054
 C125 C 0.00041 0.50075 1.33231
 C126 C 0.00047 0.50067 1.28042
 C127 C 0.00058 0.50056 1.21968
 C128 C 0.00067 0.50051 1.16779
 C129 C 0.00041 0.50076 0.66780
 C130 C 0.00046 0.50067 0.71968
 C131 C 0.00057 0.50057 0.78041
 C132 C 0.00066 0.50051 0.83230
   
