data_POSCAR
  _audit_creation_date              2014-09-24
  _audit_creation_method            'ToBaCCo'
  _symmetry_space_group_name_H-M    'P1'
  _symmetry_Int_Tables_number       1
  _symmetry_cell_setting            triclinic
  loop_
  _symmetry_equiv_pos_as_xyz
 x,y,z
_cell_length_a 35.1143
_cell_length_b 35.1788
_cell_length_c 34.4648
_cell_angle_alpha 89.514400
_cell_angle_beta 90.395500
_cell_angle_gamma 90.583600
loop_
  _atom_site_label
  _atom_site_type_symbol
  _atom_site_fract_x
  _atom_site_fract_y
  _atom_site_fract_z
Si1 Si 0.24611 0.25074 0.25156
 Si2 Si 0.74844 0.75010 0.25059
 Si3 Si 0.74875 0.24954 0.75066
 Si4 Si 0.25070 0.75032 0.75143
 C5 C 0.05985 0.05056 0.01420
 H6 H 0.06375 0.05062 -0.01692
 C7 C 0.08299 0.07350 0.03756
 H8 H 0.10481 0.09124 0.02439
 C9 C 0.02624 0.02780 0.06927
 H10 H 0.00383 0.01023 0.08144
 C11 C 0.04816 0.05098 0.09361
 H12 H 0.04285 0.05078 0.12453
 N13 N 0.03264 0.02777 0.03037
 C14 C 0.01556 -0.05712 -0.06017
 H15 H -0.01503 -0.05606 -0.06396
 C16 C 0.03713 -0.08094 -0.08345
 H17 H 0.02289 -0.09759 -0.10559
 C18 C 0.07107 -0.03619 -0.02695
 H19 H 0.08418 -0.01945 -0.00431
 C20 C 0.09367 -0.05981 -0.04930
 H21 H 0.12399 -0.06076 -0.04354
 Zn22 Zn 0.00210 -0.00228 -0.00311
 N23 N 0.03284 -0.03462 -0.03326
 C24 C -0.02326 0.03132 -0.07441
 N25 N -0.02593 0.03168 -0.03505
 C26 C -0.04828 0.05725 -0.01684
 C27 C -0.07050 0.08258 -0.03834
 C28 C -0.04493 0.05625 -0.09707
 C29 C -0.01481 -0.06113 0.04880
 C30 C -0.03735 -0.08530 0.07157
 C31 C -0.09315 -0.05293 0.04746
 C32 C -0.06955 -0.02967 0.02479
 N33 N -0.03110 -0.03375 0.02632
 H34 H -0.00447 0.01168 -0.08841
 H35 H -0.04916 0.05758 0.01453
 H36 H -0.08831 0.10252 -0.02328
 H37 H -0.04319 0.05485 -0.12837
 H38 H 0.01583 -0.06411 0.04903
 H39 H -0.02370 -0.10717 0.08884
 H40 H -0.12357 -0.04836 0.04662
 H41 H -0.08210 -0.00829 0.00622
 C42 C 0.07685 -0.08224 -0.07842
 C43 C 0.07712 0.07388 0.07774
 C44 C -0.07713 -0.08118 0.07142
 C45 C -0.06931 0.08201 -0.07905
 C46 C 0.05781 0.55716 0.51842
 H47 H 0.06089 0.55804 0.48721
 C48 C 0.08095 0.58015 0.54172
 H49 H 0.10199 0.59872 0.52841
 C50 C 0.02631 0.53219 0.57383
 H51 H 0.00479 0.51365 0.58618
 C52 C 0.04826 0.55537 0.59815
 H53 H 0.04387 0.55422 0.62921
 N54 N 0.03175 0.53316 0.53477
 C55 C 0.01502 0.44555 0.44695
 H56 H -0.01575 0.44480 0.44519
 C57 C 0.03639 0.42139 0.42387
 H58 H 0.02187 0.40238 0.40400
 C59 C 0.07127 0.47145 0.47492
 H60 H 0.08485 0.49027 0.49546
 C61 C 0.09373 0.44795 0.45227
 H62 H 0.12441 0.44918 0.45553
 Zn63 Zn 0.00161 0.50249 0.50147
 N64 N 0.03266 0.47043 0.47135
 C65 C -0.02463 0.53408 0.42982
 N66 N -0.02688 0.53564 0.46917
 C67 C -0.04902 0.56175 0.48683
 C68 C -0.07128 0.58661 0.46478
 C69 C -0.04632 0.55852 0.40664
 C70 C -0.01473 0.44301 0.55297
 C71 C -0.03712 0.41836 0.57536
 C72 C -0.09310 0.45102 0.55212
 C73 C -0.06965 0.47476 0.52982
 N74 N -0.03119 0.47071 0.53104
 H75 H -0.00616 0.51383 0.41626
 H76 H -0.04963 0.56294 0.51818
 H77 H -0.08887 0.60706 0.47940
 H78 H -0.04486 0.55624 0.37537
 H79 H 0.01591 0.44007 0.55294
 H80 H -0.02336 0.39619 0.59212
 H81 H -0.12354 0.45551 0.55149
 H82 H -0.08233 0.49645 0.51171
 C83 C 0.07633 0.42270 0.42611
 C84 C 0.07624 0.57932 0.58207
 C85 C -0.07692 0.42231 0.57540
 C86 C -0.07035 0.58496 0.42411
 C87 C 0.55692 0.05277 0.51523
 H88 H 0.56054 0.05285 0.48408
 C89 C 0.58013 0.07583 0.53838
 H90 H 0.60171 0.09371 0.52499
 C91 C 0.52401 0.02972 0.57062
 H92 H 0.50187 0.01194 0.58299
 C93 C 0.54605 0.05298 0.59477
 H94 H 0.54112 0.05260 0.62576
 N95 N 0.53004 0.02976 0.53165
 C96 C 0.51326 -0.05516 0.44118
 H97 H 0.48266 -0.05416 0.43751
 C98 C 0.53479 -0.07890 0.41779
 H99 H 0.52049 -0.09556 0.39570
 C100 C 0.56886 -0.03406 0.47415
 H101 H 0.58201 -0.01726 0.49672
 C102 C 0.59143 -0.05762 0.45168
 H103 H 0.62178 -0.05849 0.45730
 Zn104 Zn 0.49966 -0.00071 0.49840
 N105 N 0.53059 -0.03267 0.46806
 C106 C 0.47479 0.03317 0.42720
 N107 N 0.47106 0.03279 0.46648
 C108 C 0.44729 0.05721 0.48446
 C109 C 0.42451 0.08186 0.46272
 C110 C 0.45282 0.05765 0.40434
 C111 C 0.48404 -0.05959 0.55068
 C112 C 0.46208 -0.08418 0.57357
 C113 C 0.40552 -0.05329 0.54926
 C114 C 0.42856 -0.02961 0.52646
 N115 N 0.46712 -0.03272 0.52805
 H116 H 0.49475 0.01453 0.41343
 H117 H 0.44562 0.05706 0.51579
 H118 H 0.40536 0.10074 0.47751
 H119 H 0.45551 0.05700 0.37307
 H120 H 0.51475 -0.06184 0.55093
 H121 H 0.47624 -0.10564 0.59094
 H122 H 0.37499 -0.04945 0.54837
 H123 H 0.41549 -0.00873 0.50769
 C124 C 0.57453 -0.08014 0.42266
 C125 C 0.57474 0.07607 0.57865
 C126 C 0.42220 -0.08103 0.57339
 C127 C 0.42687 0.08200 0.42209
 C128 C 0.55796 0.55225 0.01548
 H129 H 0.56168 0.55254 -0.01565
 C130 C 0.58115 0.57509 0.03889
 H131 H 0.60282 0.59300 0.02571
 C132 C 0.52474 0.52896 0.07059
 H133 H 0.50249 0.51118 0.08275
 C134 C 0.54676 0.55199 0.09499
 H135 H 0.54168 0.55146 0.12595
 N136 N 0.53090 0.52927 0.03165
 C137 C 0.51349 0.44410 -0.05857
 H138 H 0.48290 0.44518 -0.06233
 C139 C 0.53499 0.42008 -0.08171
 H140 H 0.52068 0.40332 -0.10372
 C141 C 0.56909 0.46520 -0.02562
 H142 H 0.58227 0.48212 -0.00316
 C143 C 0.59161 0.44136 -0.04782
 H144 H 0.62194 0.44041 -0.04208
 Zn145 Zn 0.50023 0.49940 -0.00188
 N146 N 0.53085 0.46677 -0.03186
 C147 C 0.47514 0.53272 -0.07339
 N148 N 0.47259 0.53352 -0.03403
 C149 C 0.45076 0.55967 -0.01604
 C150 C 0.42896 0.58521 -0.03775
 C151 C 0.45387 0.55781 -0.09625
 C152 C 0.48282 0.44004 0.04916
 C153 C 0.46018 0.41597 0.07192
 C154 C 0.40477 0.45030 0.04989
 C155 C 0.42844 0.47335 0.02709
 N156 N 0.46678 0.46824 0.02759
 H157 H 0.49353 0.51262 -0.08724
 H158 H 0.44999 0.56036 0.01533
 H159 H 0.41159 0.60565 -0.02285
 H160 H 0.45550 0.55605 -0.12754
 H161 H 0.51335 0.43629 0.04862
 H162 H 0.47364 0.39338 0.08832
 H163 H 0.37449 0.45575 0.04992
 H164 H 0.41606 0.49545 0.00929
 C165 C 0.57472 0.41874 -0.07675
 C166 C 0.57555 0.57513 0.07913
 C167 C 0.42053 0.42112 0.07286
 C168 C 0.43003 0.58422 -0.07845
 C169 C 0.17090 -0.17620 -0.17606
 C170 C 0.17191 -0.21587 -0.17087
 C171 C 0.19588 -0.23806 -0.19342
 C172 C 0.22001 -0.22100 -0.22098
 C173 C 0.21801 -0.18158 -0.22722
 C174 C 0.19382 -0.15945 -0.20495
 C175 C 0.14653 -0.15224 -0.15122
 C176 C 0.15956 -0.11639 -0.13884
 C177 C 0.13690 -0.09375 -0.11547
 C178 C 0.10072 -0.10648 -0.10351
 C179 C 0.08767 -0.14237 -0.11580
 C180 C 0.11027 -0.16494 -0.13945
 H181 H 0.19609 -0.26855 -0.18871
 H182 H 0.23469 -0.16754 -0.24944
 H183 H 0.14767 -0.06606 -0.10706
 H184 H 0.06014 -0.15325 -0.10681
 H185 H 0.19283 -0.12916 -0.21062
 H186 H 0.18753 -0.10591 -0.14686
 H187 H 0.15476 -0.22975 -0.14883
 H188 H 0.09915 -0.19221 -0.14879
 C189 C 0.16920 0.32663 0.32994
 C190 C 0.15263 0.29957 0.30507
 C191 C 0.17542 0.27673 0.28194
 C192 C 0.21522 0.28080 0.28274
 C193 C 0.23180 0.30720 0.30819
 C194 C 0.20910 0.32993 0.33145
 C195 C 0.14510 0.35122 0.35436
 C196 C 0.15509 0.38957 0.36018
 C197 C 0.13276 0.41268 0.38342
 C198 C 0.09981 0.39806 0.40126
 C199 C 0.08959 0.35983 0.39526
 C200 C 0.11204 0.33664 0.37213
 H201 H 0.16161 0.25584 0.26376
 H202 H 0.26231 0.30981 0.31097
 H203 H 0.14098 0.44220 0.38700
 H204 H 0.06462 0.34767 0.40904
 H205 H 0.22285 0.34967 0.35113
 H206 H 0.17995 0.40189 0.34633
 H207 H 0.12199 0.29631 0.30313
 H208 H 0.10387 0.30709 0.36874
 C209 C 0.66796 -0.17461 0.32487
 C210 C 0.66867 -0.21432 0.33005
 C211 C 0.69234 -0.23668 0.30734
 C212 C 0.71623 -0.21975 0.27962
 C213 C 0.71486 -0.18037 0.27356
 C214 C 0.69098 -0.15800 0.29594
 C215 C 0.64379 -0.15049 0.34978
 C216 C 0.65700 -0.11468 0.36209
 C217 C 0.63450 -0.09192 0.38551
 C218 C 0.59830 -0.10449 0.39757
 C219 C 0.58509 -0.14036 0.38537
 C220 C 0.60752 -0.16304 0.36168
 H221 H 0.69253 -0.26718 0.31193
 H222 H 0.73197 -0.16670 0.25143
 H223 H 0.64539 -0.06426 0.39385
 H224 H 0.55755 -0.15115 0.39446
 H225 H 0.69035 -0.12768 0.29038
 H226 H 0.68499 -0.10432 0.35398
 H227 H 0.65155 -0.22808 0.35217
 H228 H 0.59626 -0.19026 0.35240
 C229 C 0.66825 0.32431 -0.17450
 C230 C 0.66897 0.28457 -0.16955
 C231 C 0.69266 0.26234 -0.19238
 C232 C 0.71657 0.27943 -0.21999
 C233 C 0.71516 0.31885 -0.22583
 C234 C 0.69126 0.34107 -0.20334
 C235 C 0.64407 0.34832 -0.14948
 C236 C 0.65729 0.38410 -0.13709
 C237 C 0.63475 0.40686 -0.11372
 C238 C 0.59852 0.39432 -0.10174
 C239 C 0.58532 0.35846 -0.11397
 C240 C 0.60778 0.33578 -0.13764
 H241 H 0.69285 0.23182 -0.18799
 H242 H 0.73224 0.33266 -0.24789
 H243 H 0.64565 0.43453 -0.10537
 H244 H 0.55775 0.34770 -0.10495
 H245 H 0.69060 0.37141 -0.20876
 H246 H 0.68530 0.39446 -0.14514
 H247 H 0.65183 0.27069 -0.14751
 H248 H 0.59653 0.30857 -0.14697
 C249 C -0.16699 0.17896 -0.17222
 C250 C -0.19327 0.20336 -0.15488
 C251 C -0.21827 0.22483 -0.17769
 C252 C -0.21768 0.22205 -0.21822
 C253 C -0.19069 0.19877 -0.23569
 C254 C -0.16572 0.17721 -0.21294
 C255 C -0.14153 0.15492 -0.14793
 C256 C -0.10353 0.14889 -0.15871
 C257 C -0.07999 0.12546 -0.13627
 C258 C -0.09390 0.10761 -0.10251
 C259 C -0.13179 0.11388 -0.09159
 C260 C -0.15533 0.13722 -0.11405
 H261 H -0.23786 0.24355 -0.16345
 H262 H -0.18934 0.19680 -0.26700
 H263 H -0.05076 0.12161 -0.14512
 H264 H -0.14353 0.10002 -0.06611
 H265 H -0.14599 0.15857 -0.22723
 H266 H -0.09188 0.16258 -0.18432
 H267 H -0.19434 0.20605 -0.12364
 H268 H -0.18464 0.14072 -0.10532
 C269 C -0.16746 0.68063 0.32895
 C270 C -0.19360 0.70550 0.34581
 C271 C -0.21851 0.72665 0.32261
 C272 C -0.21797 0.72312 0.28215
 C273 C -0.19107 0.69942 0.26512
 C274 C -0.16620 0.67815 0.28827
 C275 C -0.14216 0.65688 0.35370
 C276 C -0.10423 0.65032 0.34301
 C277 C -0.08083 0.62719 0.36593
 C278 C -0.09481 0.61019 0.40010
 C279 C -0.13262 0.61698 0.41093
 C280 C -0.15603 0.64000 0.38799
 H281 H -0.23800 0.74572 0.33650
 H282 H -0.18974 0.69689 0.23386
 H283 H -0.05165 0.62291 0.35713
 H284 H -0.14440 0.60378 0.43675
 H285 H -0.14658 0.65915 0.27433
 H286 H -0.09251 0.66337 0.31710
 H287 H -0.19463 0.70878 0.37700
 H288 H -0.18529 0.64391 0.39668
 C289 C 0.32827 0.17762 0.32848
 C290 C 0.33299 0.18008 0.28802
 C291 C 0.30854 0.20227 0.26530
 C292 C 0.27880 0.22215 0.28250
 C293 C 0.27396 0.21990 0.32276
 C294 C 0.29856 0.19801 0.34557
 C295 C 0.35379 0.15346 0.35269
 C296 C 0.33926 0.13275 0.38449
 C297 C 0.36309 0.10990 0.40716
 C298 C 0.40192 0.10692 0.39838
 C299 C 0.41653 0.12746 0.36659
 C300 C 0.39277 0.15062 0.34409
 H301 H 0.31258 0.20356 0.23418
 H302 H 0.25105 0.23473 0.33673
 H303 H 0.35096 0.09391 0.43114
 H304 H 0.44647 0.12600 0.35946
 H305 H 0.29442 0.19724 0.37667
 H306 H 0.30928 0.13362 0.39149
 H307 H 0.35513 0.16431 0.27378
 H308 H 0.40505 0.16665 0.32024
 C309 C 0.33377 0.68181 -0.17249
 C310 C 0.30823 0.70707 -0.15535
 C311 C 0.28321 0.72842 -0.17823
 C312 C 0.28284 0.72459 -0.21876
 C313 C 0.30952 0.70067 -0.23602
 C314 C 0.33451 0.67926 -0.21315
 C315 C 0.35893 0.65766 -0.14799
 C316 C 0.39670 0.65068 -0.15892
 C317 C 0.41990 0.62710 -0.13626
 C318 C 0.40586 0.61004 -0.10214
 C319 C 0.36819 0.61726 -0.09109
 C320 C 0.34500 0.64077 -0.11374
 H321 H 0.26447 0.74787 -0.16384
 H322 H 0.31056 0.69788 -0.26729
 H323 H 0.44897 0.62251 -0.14524
 H324 H 0.35632 0.60403 -0.06533
 H325 H 0.35377 0.66003 -0.22728
 H326 H 0.40844 0.66372 -0.18484
 H327 H 0.30774 0.71049 -0.12416
 H328 H 0.31584 0.64502 -0.10489
 C329 C -0.17369 -0.17572 0.16974
 C330 C -0.19801 -0.20370 0.15387
 C331 C -0.22164 -0.22571 0.17780
 C332 C -0.22126 -0.22031 0.21802
 C333 C -0.19666 -0.19303 0.23410
 C334 C -0.17338 -0.17066 0.21021
 C335 C -0.14876 -0.15197 0.14428
 C336 C -0.11220 -0.14065 0.15682
 C337 C -0.08908 -0.11775 0.13327
 C338 C -0.10168 -0.10591 0.09632
 C339 C -0.13806 -0.11760 0.08358
 C340 C -0.16137 -0.14015 0.10733
 H341 H -0.23979 -0.24718 0.16478
 H342 H -0.19576 -0.18875 0.26518
 H343 H -0.06149 -0.10892 0.14433
 H344 H -0.14855 -0.10954 0.05510
 H345 H -0.15551 -0.14908 0.22348
 H346 H -0.10125 -0.14967 0.18482
 H347 H -0.19841 -0.20901 0.12298
 H348 H -0.18951 -0.14788 0.09686
 C349 C -0.17314 0.32514 0.67141
 C350 C -0.19747 0.29751 0.65492
 C351 C -0.22114 0.27503 0.67836
 C352 C -0.22080 0.27962 0.71869
 C353 C -0.19618 0.30653 0.73537
 C354 C -0.17287 0.32936 0.71198
 C355 C -0.14825 0.34949 0.64649
 C356 C -0.11173 0.36063 0.65929
 C357 C -0.08870 0.38419 0.63631
 C358 C -0.10136 0.39688 0.59968
 C359 C -0.13769 0.38534 0.58666
 C360 C -0.16090 0.36214 0.60984
 H361 H -0.23933 0.25386 0.66488
 H362 H -0.19532 0.31019 0.76654
 H363 H -0.06113 0.39286 0.64758
 H364 H -0.14821 0.39404 0.55839
 H365 H -0.15500 0.35066 0.72573
 H366 H -0.10074 0.35099 0.68706
 H367 H -0.19786 0.29286 0.62391
 H368 H -0.18902 0.35456 0.59919
 C369 C 0.32749 -0.17721 0.67200
 C370 C 0.30339 -0.20536 0.65618
 C371 C 0.27973 -0.22738 0.68007
 C372 C 0.27974 -0.22180 0.72035
 C373 C 0.30457 -0.19456 0.73636
 C374 C 0.32781 -0.17217 0.71246
 C375 C 0.35204 -0.15313 0.64645
 C376 C 0.38842 -0.14116 0.65890
 C377 C 0.41108 -0.11785 0.63528
 C378 C 0.39820 -0.10626 0.59835
 C379 C 0.36203 -0.11866 0.58568
 C380 C 0.33917 -0.14158 0.60950
 H381 H 0.26193 -0.24895 0.66676
 H382 H 0.30559 -0.19010 0.76743
 H383 H 0.43852 -0.10848 0.64630
 H384 H 0.35134 -0.11086 0.55721
 H385 H 0.34560 -0.15053 0.72571
 H386 H 0.39959 -0.14994 0.68689
 H387 H 0.30311 -0.21078 0.62531
 H388 H 0.31115 -0.14978 0.59909
 C389 C 0.32404 0.32628 0.17116
 C390 C 0.29794 0.30013 0.15503
 C391 C 0.27448 0.27785 0.17887
 C392 C 0.27660 0.28110 0.21937
 C393 C 0.30334 0.30630 0.23557
 C394 C 0.32641 0.32902 0.21180
 C395 C 0.34887 0.35028 0.14577
 C396 C 0.38621 0.35988 0.15735
 C397 C 0.40928 0.38288 0.13385
 C398 C 0.39591 0.39647 0.09781
 C399 C 0.35872 0.38650 0.08601
 C400 C 0.33544 0.36395 0.10979
 H401 H 0.25525 0.25773 0.16535
 H402 H 0.30700 0.30820 0.26659
 H403 H 0.43750 0.39036 0.14427
 H404 H 0.34756 0.39587 0.05823
 H405 H 0.34596 0.34890 0.22540
 H406 H 0.39785 0.34941 0.18452
 H407 H 0.29603 0.29634 0.12394
 H408 H 0.30671 0.35763 0.10007
 C409 C 0.17027 0.17061 0.17475
 C410 C 0.16559 0.21015 0.17320
 C411 C 0.18855 0.23390 0.19594
 C412 C 0.21592 0.21847 0.22123
 C413 C 0.22032 0.17890 0.22308
 C414 C 0.19794 0.15516 0.19969
 C415 C 0.14641 0.14555 0.15025
 C416 C 0.16338 0.11939 0.12535
 C417 C 0.14082 0.09625 0.10153
 C418 C 0.10094 0.09834 0.10291
 C419 C 0.08396 0.12411 0.12823
 C420 C 0.10654 0.14786 0.15141
 H421 H 0.18488 0.26439 0.19392
 H422 H 0.24100 0.16615 0.24243
 H423 H 0.15443 0.07644 0.08227
 H424 H 0.05325 0.12625 0.12958
 H425 H 0.20182 0.12469 0.20142
 H426 H 0.19409 0.11732 0.12394
 H427 H 0.14456 0.22264 0.15395
 H428 H 0.09294 0.16778 0.17054
 C429 C 0.17171 0.67341 0.67944
 C430 C 0.16723 0.71298 0.67912
 C431 C 0.19149 0.73608 0.70119
 C432 C 0.22029 0.71997 0.72436
 C433 C 0.22385 0.68023 0.72566
 C434 C 0.20012 0.65721 0.70291
 C435 C 0.14715 0.64910 0.65486
 C436 C 0.16350 0.62390 0.62854
 C437 C 0.14038 0.60146 0.60460
 C438 C 0.10057 0.60326 0.60725
 C439 C 0.08420 0.62808 0.63396
 C440 C 0.10734 0.65118 0.65729
 H441 H 0.18785 0.76662 0.69988
 H442 H 0.24481 0.66659 0.74397
 H443 H 0.15352 0.58237 0.58428
 H444 H 0.05353 0.62995 0.63631
 H445 H 0.20365 0.62666 0.70390
 H446 H 0.19417 0.62205 0.62613
 H447 H 0.14548 0.72602 0.66116
 H448 H 0.09423 0.67039 0.67751
 C449 C 0.66980 0.17113 0.67568
 C450 C 0.66421 0.21057 0.67655
 C451 C 0.68807 0.23374 0.69900
 C452 C 0.71743 0.21778 0.72135
 C453 C 0.72245 0.17829 0.72128
 C454 C 0.69911 0.15518 0.69821
 C455 C 0.64538 0.14669 0.65103
 C456 C 0.66184 0.12152 0.62474
 C457 C 0.63882 0.09880 0.60096
 C458 C 0.59899 0.10031 0.60368
 C459 C 0.58252 0.12514 0.63031
 C460 C 0.60554 0.14847 0.65352
 H461 H 0.68366 0.26417 0.69886
 H462 H 0.74436 0.16512 0.73878
 H463 H 0.65209 0.07971 0.58072
 H464 H 0.55185 0.12685 0.63272
 H465 H 0.70363 0.12476 0.69827
 H466 H 0.69251 0.11987 0.62225
 H467 H 0.64183 0.22346 0.65928
 H468 H 0.59231 0.16761 0.67373
 C469 C 0.66972 0.67066 0.17652
 C470 C 0.66400 0.71008 0.17697
 C471 C 0.68774 0.73354 0.19924
 C472 C 0.71711 0.71789 0.22180
 C473 C 0.72222 0.67841 0.22220
 C474 C 0.69900 0.65500 0.19932
 C475 C 0.64553 0.64595 0.15193
 C476 C 0.66224 0.62074 0.12584
 C477 C 0.63944 0.59790 0.10196
 C478 C 0.59959 0.59934 0.10439
 C479 C 0.58287 0.62417 0.13086
 C480 C 0.60568 0.64761 0.15416
 H481 H 0.68327 0.76396 0.19872
 H482 H 0.74412 0.66548 0.23988
 H483 H 0.65289 0.57881 0.08184
 H484 H 0.55218 0.62583 0.13303
 H485 H 0.70361 0.62460 0.19969
 H486 H 0.69293 0.61918 0.12355
 H487 H 0.64165 0.72274 0.15949
 H488 H 0.59226 0.66678 0.17421
   
