data_POSCAR
  _audit_creation_date              2014-09-24
  _audit_creation_method            'ToBaCCo'
  _symmetry_space_group_name_H-M    'P1'
  _symmetry_Int_Tables_number       1
  _symmetry_cell_setting            triclinic
  loop_
  _symmetry_equiv_pos_as_xyz
 x,y,z
_cell_length_a 19.5315
_cell_length_b 19.3806
_cell_length_c 35.9239
_cell_angle_alpha 90.296000
_cell_angle_beta 89.701700
_cell_angle_gamma 123.321900
loop_
  _atom_site_label
  _atom_site_type_symbol
  _atom_site_fract_x
  _atom_site_fract_y
  _atom_site_fract_z
Zn1 Zn 0.94030 0.04037 1.01757
 Zn2 Zn 1.10507 0.06435 1.01602
 Zn3 Zn 0.95159 -0.10675 1.01856
 Zn4 Zn 0.99392 -0.00432 0.94984
 O5 O 0.99805 -0.00169 1.00053
 O6 O 0.99967 0.12764 1.04631
 O7 O 1.13450 0.00884 1.04408
 O8 O 0.86619 -0.13741 1.04900
 O9 O 1.12343 0.14984 1.04489
 O10 O 0.85502 -0.03004 1.04573
 O11 O 1.02272 -0.11790 1.04537
 O12 O 0.94599 -0.10683 0.93132
 O13 O 1.17710 0.10648 0.97773
 O14 O 0.91232 -0.18334 0.98220
 O15 O 1.09308 0.05489 0.92939
 O16 O 0.94074 0.03914 0.93101
 O17 O 0.90311 0.07479 0.98180
 C18 C 1.07396 0.16871 1.05627
 C19 C 1.09658 -0.06575 1.05479
 C20 C 0.83081 -0.10104 1.05813
 C21 C 0.91337 -0.17667 0.94701
 C22 C 1.16467 0.09844 0.94282
 C23 C 0.90738 0.07236 0.94668
 Zn24 Zn 0.05000 0.95170 0.51962
 Zn25 Zn -0.10386 0.95062 0.51825
 Zn26 Zn 0.05896 1.11052 0.51193
 Zn27 Zn -0.00426 0.98963 0.44945
 O28 O 0.00032 1.00057 0.49990
 O29 O -0.01801 0.86492 0.54914
 O30 O -0.11894 1.01969 0.54482
 O31 O 0.14613 1.14020 0.54025
 O32 O -0.13027 0.86691 0.54854
 O33 O 0.13699 1.02209 0.54788
 O34 O 0.00090 1.13833 0.53897
 O35 O 0.05312 1.08634 0.42613
 O36 O -0.18073 0.90851 0.48275
 O37 O 0.09634 1.17734 0.47210
 O38 O -0.10623 0.93997 0.43138
 O39 O 0.03833 0.93393 0.43298
 O40 O 0.08754 0.91393 0.48433
 C41 C -0.09136 0.83570 0.55951
 C42 C -0.07147 1.09619 0.55184
 C43 C 0.17198 1.09881 0.55445
 C44 C 0.09167 1.16027 0.43770
 C45 C -0.17496 0.90866 0.44757
 C46 C 0.07807 0.90863 0.44922
 O47 O 0.20789 0.56068 0.29227
 O48 O 0.19447 0.68327 0.27447
 C49 C 0.23947 0.74756 0.29414
 O50 O 0.31689 0.79238 0.29092
 O51 O 0.46354 0.81833 0.28144
 C52 C 0.47819 0.77422 0.30168
 O53 O 0.44027 0.69670 0.29807
 O54 O 0.31372 0.54762 0.28457
 C55 C 0.24872 0.53047 0.30139
 O56 O 0.21586 0.52938 0.21924
 O57 O 0.21013 0.65716 0.20234
 C58 C 0.24093 0.73308 0.19619
 O59 O 0.29813 0.79015 0.21608
 O60 O 0.43962 0.80626 0.20763
 C61 C 0.48308 0.77648 0.20350
 O62 O 0.47667 0.72034 0.22444
 O63 O 0.34741 0.57471 0.21135
 C64 C 0.27259 0.52691 0.20298
 Cr65 Cr 0.21126 0.61001 0.24722
 Cr66 Cr 0.37766 0.79766 0.24915
 Cr67 Cr 0.39218 0.63654 0.25453
 O68 O 0.32706 0.68133 0.25015
 O69 O 0.80610 0.46210 0.77625
 O70 O 0.79230 0.32181 0.79015
 C71 C 0.75353 0.24476 0.79561
 O72 O 0.68698 0.19350 0.77931
 O73 O 0.56374 0.20508 0.79862
 C74 C 0.52910 0.24340 0.80502
 O75 O 0.53873 0.30128 0.78425
 O76 O 0.68396 0.43868 0.79154
 C77 C 0.76119 0.47824 0.79513
 O78 O 0.79041 0.42614 0.70335
 O79 O 0.78150 0.28920 0.71605
 C80 C 0.72399 0.22589 0.69902
 O81 O 0.64901 0.19020 0.70797
 O82 O 0.51959 0.19040 0.72667
 C83 C 0.51211 0.23845 0.70575
 O84 O 0.55671 0.31635 0.70923
 O85 O 0.69870 0.45719 0.71679
 C86 C 0.75829 0.46678 0.69753
 Cr87 Cr 0.78832 0.37267 0.74667
 Cr88 Cr 0.60706 0.19914 0.75313
 Cr89 Cr 0.62127 0.37615 0.75045
 O90 O 0.67253 0.31637 0.75002
 C91 C 0.20483 0.34447 0.12020
 C92 C 0.14784 0.36040 0.13466
 N93 N 0.06947 0.31591 0.12241
 C94 C 0.04502 0.25550 0.09655
 C95 C 0.10135 0.23798 0.08240
 N96 N 0.18034 0.28340 0.09457
 N97 N 0.28337 0.38952 0.13249
 C98 C 0.30736 0.44942 0.15873
 C99 C 0.24994 0.46452 0.17370
 N100 N 0.17148 0.41947 0.16108
 H101 H -0.01826 0.22067 0.08762
 H102 H 0.37032 0.48407 0.16811
 C103 C 0.66291 0.86925 0.11876
 C104 C 0.64108 0.79741 0.13827
 N105 N 0.67903 0.75779 0.13019
 C106 C 0.73863 0.78734 0.10368
 C107 C 0.76194 0.86040 0.08464
 N108 N 0.72295 0.89925 0.09266
 N109 N 0.62489 0.90879 0.12671
 C110 C 0.56610 0.87997 0.15353
 C111 C 0.54495 0.80874 0.17364
 N112 N 0.58306 0.76908 0.16532
 H113 H 0.76860 0.75511 0.09815
 H114 H 0.53703 0.91297 0.15935
 C115 C 0.13667 0.80252 0.11336
 C116 C 0.21107 0.86158 0.13039
 N117 N 0.24831 0.94239 0.12127
 C118 C 0.21412 0.96708 0.09618
 C119 C 0.13837 0.90842 0.07975
 N120 N 0.10172 0.82722 0.08873
 N121 N 0.09967 0.72165 0.12239
 C122 C 0.13316 0.69719 0.14801
 C123 C 0.20662 0.75646 0.16594
 N124 N 0.24389 0.83742 0.15642
 H125 H 0.24492 1.03212 0.08984
 H126 H 0.10161 0.63236 0.15493
 C127 C 0.86685 0.65772 0.61725
 C128 C 0.79311 0.63532 0.63493
 N129 N 0.75778 0.67733 0.62712
 C130 C 0.79302 0.74110 0.60258
 C131 C 0.86776 0.76486 0.58527
 N132 N 0.90273 0.72212 0.59307
 N133 N 0.90185 0.61531 0.62492
 C134 C 0.86697 0.55203 0.64973
 C135 C 0.79395 0.53048 0.66817
 N136 N 0.75875 0.57285 0.66009
 H137 H 0.76348 0.77363 0.59711
 H138 H 0.89700 0.52011 0.65553
 C139 C 0.32445 0.12820 0.62465
 C140 C 0.36859 0.21374 0.63105
 N141 N 0.34926 0.26063 0.61158
 C142 C 0.28741 0.22578 0.58623
 C143 C 0.24262 0.13989 0.57998
 N144 N 0.26281 0.09342 0.59939
 N145 N 0.34278 0.08094 0.64431
 C146 C 0.40303 0.11510 0.67029
 C147 C 0.44734 0.20081 0.67711
 N148 N 0.42908 0.24820 0.65704
 H149 H 0.27296 0.26466 0.57138
 H150 H 0.41600 0.07548 0.68549
 C151 C 0.79476 0.12504 0.61446
 C152 C 0.84990 0.20486 0.62834
 N153 N 0.92814 0.24927 0.61556
 C154 C 0.95427 0.21700 0.58983
 C155 C 0.89995 0.13602 0.57666
 N156 N 0.82111 0.09220 0.58922
 N157 N 0.71643 0.08080 0.62726
 C158 C 0.69096 0.11245 0.65370
 C159 C 0.74680 0.19154 0.66845
 N160 N 0.82494 0.23590 0.65512
 H161 H 1.01741 0.25347 0.58058
 H162 H 0.62841 0.07543 0.66370
 C163 C 0.35733 0.16130 0.89314
 C164 C 0.35348 0.20415 0.86265
 N165 N 0.29046 0.21455 0.85997
 C166 C 0.23038 0.18316 0.88619
 C167 C 0.23380 0.14016 0.91672
 N168 N 0.29769 0.13064 0.91965
 N169 N 0.41848 0.14772 0.89475
 C170 C 0.47549 0.17438 0.86712
 C171 C 0.47162 0.21720 0.83654
 N172 N 0.41079 0.23149 0.83533
 H173 H 0.17983 0.19084 0.88306
 H174 H 0.52312 0.16206 0.86893
 C175 C 0.87538 0.68496 0.86711
 C176 C 0.80205 0.61190 0.87773
 N177 N 0.76818 0.60831 0.91138
 C178 C 0.80397 0.67467 0.93474
 C179 C 0.87580 0.74875 0.92358
 N180 N 0.90973 0.75188 0.88992
 N181 N 0.91102 0.68788 0.83414
 C182 C 0.87642 0.62122 0.81110
 C183 C 0.80162 0.54881 0.82099
 N184 N 0.76604 0.54591 0.85420
 H185 H 0.77546 0.67042 0.96130
 H186 H 0.90584 0.62544 0.78481
 C187 C 0.84272 0.13521 0.86374
 C188 C 0.82350 0.18939 0.87922
 N189 N 0.82992 0.20256 0.91655
 C190 C 0.85499 0.16436 0.93908
 C191 C 0.87536 0.11098 0.92355
 N192 N 0.86875 0.09799 0.88612
 N193 N 0.83433 0.12005 0.82661
 C194 C 0.80717 0.15630 0.80421
 C195 C 0.78862 0.21103 0.81949
 N196 N 0.79722 0.22653 0.85675
 H197 H 0.86020 0.17662 0.96870
 H198 H 0.79980 0.14241 0.77470
 C199 C 0.68231 0.88402 0.37342
 C200 C 0.61282 0.80538 0.38123
 N201 N 0.61305 0.76314 0.41123
 C202 C 0.68000 0.79575 0.43360
 C203 C 0.75070 0.87296 0.42493
 N204 N 0.74998 0.91541 0.39504
 N205 N 0.68127 0.92741 0.34415
 C206 C 0.61431 0.89520 0.32190
 C207 C 0.54592 0.81496 0.32858
 N208 N 0.54690 0.77202 0.35829
 H209 H 0.67887 0.76092 0.45733
 H210 H 0.61589 0.93050 0.29827
 C211 C 0.15647 0.35318 0.38722
 C212 C 0.19830 0.34769 0.35660
 N213 N 0.20546 0.28214 0.35344
 C214 C 0.17223 0.22140 0.37944
 C215 C 0.13115 0.22710 0.41033
 N216 N 0.12459 0.29328 0.41361
 N217 N 0.14602 0.41682 0.38936
 C218 C 0.17524 0.47507 0.36218
 C219 C 0.21795 0.47015 0.33175
 N220 N 0.22877 0.40660 0.32987
 H221 H 0.17800 0.16925 0.37613
 H222 H 0.16571 0.52495 0.36439
 C223 C 0.12034 0.81877 0.36818
 C224 C 0.19333 0.82638 0.37877
 N225 N 0.22473 0.85620 0.41315
 C226 C 0.18699 0.87971 0.43722
 C227 C 0.11554 0.87492 0.42609
 N228 N 0.08405 0.84428 0.39175
 N229 N 0.08738 0.78696 0.33433
 C230 C 0.12426 0.76264 0.31039
 C231 C 0.19858 0.77228 0.32033
 N232 N 0.23153 0.80404 0.35444
 H233 H 0.21404 0.90455 0.46420
 H234 H 0.09671 0.73757 0.28350
   
