data_POSCAR
  _audit_creation_date              2014-09-24
  _audit_creation_method            'ToBaCCo'
  _symmetry_space_group_name_H-M    'P1'
  _symmetry_Int_Tables_number       1
  _symmetry_cell_setting            triclinic
  loop_
  _symmetry_equiv_pos_as_xyz
 x,y,z
_cell_length_a 30.4010
_cell_length_b 30.6319
_cell_length_c 70.5933
_cell_angle_alpha 84.341400
_cell_angle_beta 95.897400
_cell_angle_gamma 118.846500
loop_
  _atom_site_label
  _atom_site_type_symbol
  _atom_site_fract_x
  _atom_site_fract_y
  _atom_site_fract_z
C1 C 0.03412 0.12950 0.52174
 H2 H 0.07157 0.13356 0.52205
 C3 C 0.02550 0.16106 0.53191
 H4 H 0.05643 0.18897 0.54026
 C5 C -0.05157 0.08792 0.51040
 H6 H -0.08118 0.05989 0.50172
 C7 C -0.06199 0.11862 0.52050
 H8 H -0.09979 0.11393 0.51956
 N9 N -0.00410 0.09382 0.51129
 C10 C 0.04318 -0.01768 0.50638
 H11 H 0.04537 -0.01609 0.49111
 C12 C 0.04785 -0.05521 0.51790
 H13 H 0.05380 -0.08229 0.51136
 C14 C 0.02835 0.01319 0.53318
 H15 H 0.01907 0.03880 0.53902
 C16 C 0.03281 -0.02363 0.54521
 H17 H 0.02819 -0.02504 0.56030
 Zn18 Zn 0.01470 0.05659 0.49730
 N19 N 0.03278 0.01502 0.51410
 C20 C 0.11437 0.10509 0.48403
 N21 N 0.06877 0.10367 0.48302
 C22 C 0.06010 0.13825 0.47217
 C23 C 0.09796 0.17617 0.46166
 C24 C 0.15341 0.14240 0.47363
 C25 C -0.07969 -0.02464 0.48852
 C26 C -0.11594 -0.06226 0.47723
 C27 C -0.06747 -0.01935 0.44995
 C28 C -0.03241 0.01736 0.46179
 N29 N -0.03858 0.01369 0.48075
 H30 H 0.12065 0.07769 0.49301
 H31 H 0.02355 0.13636 0.47177
 H32 H 0.09003 0.20300 0.45295
 H33 H 0.18968 0.14344 0.47467
 H34 H -0.08305 -0.02735 0.50376
 H35 H -0.14582 -0.09323 0.48461
 H36 H -0.06100 -0.01333 0.43493
 H37 H 0.00070 0.04791 0.45584
 C38 C 0.04137 -0.05927 0.53754
 C39 C -0.02300 0.15602 0.53132
 C40 C -0.10984 -0.06153 0.45751
 C41 C 0.14543 0.17873 0.46235
 C42 C 1.12989 0.03723 0.14620
 H43 H 1.13345 0.07393 0.14691
 C44 C 1.16125 0.03072 0.13502
 H45 H 1.18849 0.06258 0.12692
 C46 C 1.08954 -0.04884 0.15589
 H47 H 1.06201 -0.07952 0.16428
 C48 C 1.12012 -0.05710 0.14479
 H49 H 1.11587 -0.09427 0.14475
 N50 N 1.09477 -0.00226 0.15626
 C51 C 0.97999 0.03926 0.16411
 H52 H 0.98142 0.03879 0.17950
 C53 C 0.94217 0.04532 0.15312
 H54 H 0.91515 0.05053 0.16015
 C55 C 1.01215 0.03067 0.13632
 H56 H 1.03820 0.02303 0.12984
 C57 C 0.97515 0.03679 0.12480
 H58 H 0.97345 0.03402 0.10954
 Zn59 Zn 1.05639 0.01251 0.17139
 N60 N 1.01356 0.03144 0.15561
 C61 C 1.10342 0.10900 0.18674
 N62 N 1.10283 0.06430 0.18686
 C63 C 1.13766 0.05528 0.19759
 C64 C 1.17452 0.09162 0.20909
 C65 C 1.13986 0.14661 0.19802
 C66 C 0.97561 -0.08305 0.17794
 C67 C 0.93919 -0.12246 0.18860
 C68 C 0.98309 -0.08059 0.21730
 C69 C 1.01849 -0.04190 0.20610
 N70 N 1.01405 -0.04364 0.18678
 H71 H 1.07588 0.11565 0.17784
 H72 H 1.13679 0.01968 0.19711
 H73 H 1.20217 0.08378 0.21737
 H74 H 1.13958 0.18183 0.19795
 H75 H 0.97241 -0.08302 0.16253
 H76 H 0.90852 -0.15326 0.18131
 H77 H 0.98642 -0.07770 0.23260
 H78 H 1.04833 -0.00967 0.21286
 C79 C 0.93888 0.04318 0.13321
 C80 C 1.15666 -0.01691 0.13421
 C81 C 0.94234 -0.12120 0.20854
 C82 C 1.17594 0.13801 0.20944
 C83 C 0.00055 0.91108 0.85692
 H84 H -0.03385 0.87592 0.85609
 C85 C 0.04212 0.91384 0.86822
 H86 H 0.03917 0.88070 0.87630
 C87 C 0.04574 0.99699 0.84737
 H88 H 0.04720 1.02903 0.83896
 C89 C 0.08827 1.00148 0.85858
 H90 H 0.12224 1.03717 0.85869
 N91 N 0.00292 0.95230 0.84689
 C92 C -0.15282 0.92177 0.83792
 H93 H -0.15728 0.92273 0.82251
 C94 C -0.19104 0.91794 0.84849
 H95 H -0.22536 0.91378 0.84080
 C96 C -0.10209 0.92580 0.86613
 H97 H -0.06655 0.93099 0.87293
 C98 C -0.13939 0.92165 0.87729
 H99 H -0.13065 0.92436 0.89250
 Zn100 Zn -0.05532 0.94270 0.83146
 N101 N -0.10913 0.92644 0.84681
 C102 C -0.11286 0.84650 0.81604
 N103 N -0.06977 0.89099 0.81542
 C104 C -0.03325 0.89985 0.80367
 C105 C -0.04010 0.86406 0.79130
 C106 C -0.12076 0.80903 0.80417
 C107 C -0.03596 1.04222 0.82593
 C108 C -0.03301 1.08490 0.81569
 C109 C -0.04931 1.04296 0.78653
 C110 C -0.05213 1.00111 0.79730
 N111 N -0.04528 1.00146 0.81664
 H112 H -0.14085 0.83991 0.82582
 H113 H 0.00109 0.93516 0.80381
 H114 H -0.01095 0.87186 0.78185
 H115 H -0.15511 0.77370 0.80468
 H116 H -0.03199 1.04107 0.84135
 H117 H -0.02672 1.11651 0.82338
 H118 H -0.05456 1.04189 0.77114
 H119 H -0.06113 0.96800 0.79014
 C120 C -0.18454 0.91905 0.86858
 C121 C 0.08678 0.95947 0.86915
 C122 C -0.04019 1.08545 0.79571
 C123 C -0.08425 0.81809 0.79149
 O124 O 0.54926 -0.01230 -0.01778
 O125 O 0.47786 0.00650 0.01703
 O126 O 0.56415 0.00722 0.01811
 O127 O 0.46540 -0.00795 -0.01922
 O128 O 0.42515 -0.08894 -0.01195
 O129 O 0.52540 -0.07383 0.02535
 O130 O 0.43925 -0.07453 0.02431
 O131 O 0.50932 -0.09330 -0.01051
 Cu132 Cu 0.51813 0.00645 -0.00120
 Cu133 Cu 0.47086 -0.09077 0.00748
 C134 C 0.54155 -0.05621 -0.02000
 C135 C 0.44621 -0.03104 0.02662
 C136 C 0.56197 -0.03048 0.02810
 C137 C 0.42812 -0.05074 -0.02189
 O138 O -0.01037 0.54308 0.68530
 O139 O 0.00382 0.47688 0.64738
 O140 O 0.00569 0.56266 0.64912
 O141 O -0.00795 0.45990 0.68369
 O142 O -0.09023 0.42233 0.67758
 O143 O -0.07633 0.52506 0.64240
 O144 O -0.07838 0.43916 0.64111
 O145 O -0.09237 0.50624 0.67844
 Cu146 Cu 0.00603 0.51448 0.66697
 Cu147 Cu -0.09254 0.46943 0.65921
 C148 C -0.05392 0.53608 0.68827
 C149 C -0.03505 0.44617 0.63790
 C150 C -0.03284 0.56175 0.63991
 C151 C -0.05123 0.42351 0.68658
 O152 O 0.51769 0.47532 0.31846
 O153 O 0.59667 0.56526 0.35483
 O154 O 0.51613 0.47814 0.35504
 O155 O 0.60160 0.55931 0.31866
 O156 O 0.55793 0.59994 0.31283
 O157 O 0.46955 0.51565 0.34867
 O158 O 0.54999 0.60280 0.34909
 O159 O 0.47410 0.51595 0.31213
 Cu160 Cu 0.56257 0.51566 0.33736
 Cu161 Cu 0.50847 0.56258 0.33009
 C162 C 0.48225 0.48043 0.30908
 C163 C 0.58651 0.59939 0.35819
 C164 C 0.47786 0.48229 0.35795
 C165 C 0.59485 0.59366 0.30958
 C166 C -0.07473 0.17143 0.55265
 C167 C -0.08140 0.20319 0.56362
 C168 C -0.04575 0.25400 0.56413
 C169 C -0.00431 0.27289 0.55275
 C170 C 0.00246 0.24113 0.54188
 C171 C -0.03224 0.18995 0.54194
 C172 C -0.05316 0.28589 0.57662
 C173 C -0.01534 0.32848 0.58326
 C174 C -0.02162 0.35913 0.59670
 C175 C 0.02097 0.39256 0.60744
 C176 C 0.01684 0.42138 0.62062
 C177 C -0.03007 0.41759 0.62328
 C178 C -0.07252 0.38513 0.61217
 C179 C -0.06837 0.35639 0.59896
 H180 H -0.10204 0.13214 0.55299
 H181 H -0.11396 0.18775 0.57207
 H182 H 0.02289 0.31214 0.55204
 H183 H 0.03489 0.25666 0.53336
 H184 H -0.09051 0.27170 0.58146
 H185 H 0.02273 0.34012 0.57977
 H186 H 0.05753 0.39584 0.60586
 H187 H 0.05031 0.44614 0.62890
 H188 H -0.10913 0.38175 0.61372
 H189 H -0.10182 0.33254 0.59050
 C190 C 0.91446 0.82143 0.23786
 C191 C 0.87660 0.78644 0.24926
 C192 C 0.82568 0.76910 0.24335
 C193 C 0.81332 0.78621 0.22541
 C194 C 0.85123 0.82109 0.21396
 C195 C 0.90220 0.83949 0.22015
 C196 C 0.78695 0.73265 0.25614
 C197 C 0.73991 0.72620 0.25567
 C198 C 0.70235 0.69101 0.26913
 C199 C 0.66299 0.69969 0.27312
 C200 C 0.62764 0.66794 0.28612
 C201 C 0.63082 0.62661 0.29528
 C202 C 0.66940 0.61718 0.29087
 C203 C 0.70457 0.64878 0.27789
 H204 H 0.95339 0.83437 0.24288
 H205 H 0.88716 0.77339 0.26289
 H206 H 0.77457 0.77261 0.22008
 H207 H 0.84061 0.83449 0.20043
 H208 H 0.79900 0.71276 0.26713
 H209 H 0.72919 0.74954 0.24594
 H210 H 0.66006 0.73162 0.26640
 H211 H 0.59821 0.67607 0.28913
 H212 H 0.67253 0.58525 0.29746
 H213 H 0.73304 0.63957 0.27465
 C214 C 0.16088 0.00424 -0.10783
 C215 C 0.20199 0.00670 -0.09619
 C216 C 0.21445 -0.03208 -0.09527
 C217 C 0.18560 -0.07292 -0.10672
 C218 C 0.14442 -0.07542 -0.11832
 C219 C 0.13138 -0.03706 -0.11891
 C220 C 0.25824 -0.02783 -0.08258
 C221 C 0.26519 -0.06692 -0.07607
 C222 C 0.30822 -0.06227 -0.06281
 C223 C 0.30353 -0.10416 -0.05126
 C224 C 0.34271 -0.10086 -0.03818
 C225 C 0.38756 -0.05554 -0.03646
 C226 C 0.39287 -0.01405 -0.04845
 C227 C 0.35383 -0.01739 -0.06154
 H228 H 0.15160 0.03422 -0.10788
 H229 H 0.22379 0.03878 -0.08766
 H230 H 0.19495 -0.10270 -0.10702
 H231 H 0.12308 -0.10717 -0.12704
 H232 H 0.28410 0.00882 -0.07762
 H233 H 0.23695 -0.10426 -0.07955
 H234 H 0.26905 -0.13935 -0.05211
 H235 H 0.33752 -0.13356 -0.02920
 H236 H 0.42722 0.02124 -0.04768
 H237 H 0.35986 0.01521 -0.07070
 C238 C 0.07291 0.87895 0.54737
 C239 C 0.06955 0.83693 0.55833
 C240 C 0.03256 0.81223 0.57161
 C241 C -0.00000 0.83145 0.57417
 C242 C 0.00343 0.87343 0.56327
 C243 C 0.03970 0.89752 0.54966
 C244 C 0.02990 0.76768 0.58295
 C245 C -0.01263 0.73175 0.59029
 C246 C -0.01603 0.68766 0.60221
 C247 C -0.06365 0.64609 0.60451
 C248 C -0.06909 0.60478 0.61644
 C249 C -0.02695 0.60427 0.62647
 C250 C 0.02080 0.64570 0.62407
 C251 C 0.02625 0.68702 0.61215
 H252 H 0.10164 0.89705 0.53716
 H253 H 0.09556 0.82332 0.55628
 H254 H -0.02789 0.81457 0.58471
 H255 H -0.02303 0.88650 0.56528
 H256 H 0.06359 0.76373 0.58453
 H257 H -0.04726 0.73368 0.58704
 H258 H -0.09689 0.64572 0.59715
 H259 H -0.10642 0.57355 0.61800
 H260 H 0.05401 0.64667 0.63171
 H261 H 0.06342 0.71875 0.61127
 C262 C 0.22921 0.16438 0.23999
 C263 C 0.26696 0.20089 0.25126
 C264 C 0.29142 0.25102 0.24444
 C265 C 0.27778 0.26380 0.22589
 C266 C 0.23988 0.22724 0.21462
 C267 C 0.21522 0.17713 0.22154
 C268 C 0.33123 0.28833 0.25701
 C269 C 0.34554 0.33729 0.25510
 C270 C 0.38253 0.37387 0.26856
 C271 C 0.37994 0.41769 0.27045
 C272 C 0.41275 0.45247 0.28341
 C273 C 0.44941 0.44451 0.29468
 C274 C 0.45320 0.40141 0.29238
 C275 C 0.42014 0.36643 0.27943
 H276 H 0.21060 0.12615 0.24579
 H277 H 0.27681 0.18995 0.26544
 H278 H 0.29680 0.30165 0.21981
 H279 H 0.23066 0.23799 0.20031
 H280 H 0.34670 0.27417 0.26903
 H281 H 0.32680 0.35094 0.24417
 H282 H 0.35172 0.42460 0.26212
 H283 H 0.40901 0.48544 0.28472
 H284 H 0.48132 0.39443 0.30074
 H285 H 0.42444 0.33391 0.27791
 C286 C 0.74702 -0.06075 -0.12847
 C287 C 0.71423 -0.05612 -0.11732
 C288 C 0.71174 -0.07118 -0.09791
 C289 C 0.74279 -0.09121 -0.08980
 C290 C 0.77588 -0.09559 -0.10087
 C291 C 0.77928 -0.07987 -0.12043
 C292 C 0.67866 -0.06282 -0.08637
 C293 C 0.65998 -0.08971 -0.07021
 C294 C 0.62846 -0.08031 -0.05824
 C295 C 0.59557 -0.11962 -0.04635
 C296 C 0.56676 -0.11193 -0.03421
 C297 C 0.57072 -0.06445 -0.03349
 C298 C 0.60373 -0.02496 -0.04537
 C299 C 0.63234 -0.03276 -0.05763
 H300 H 0.74872 -0.04638 -0.14314
 H301 H 0.69114 -0.03998 -0.12387
 H302 H 0.74272 -0.10242 -0.07478
 H303 H 0.79801 -0.11230 -0.09394
 H304 H 0.66820 -0.03455 -0.09177
 H305 H 0.66631 -0.12121 -0.06582
 H306 H 0.59223 -0.15645 -0.04642
 H307 H 0.54190 -0.14311 -0.02518
 H308 H 0.60788 0.01212 -0.04505
 H309 H 0.65838 -0.00118 -0.06618
 C310 C 0.17066 -0.06590 0.11123
 C311 C 0.20178 -0.07163 0.09955
 C312 C 0.25272 -0.03583 0.09869
 C313 C 0.27235 0.00519 0.11026
 C314 C 0.24121 0.01097 0.12189
 C315 C 0.18994 -0.02424 0.12237
 C316 C 0.28412 -0.04323 0.08591
 C317 C 0.32703 -0.00605 0.07929
 C318 C 0.35763 -0.01341 0.06611
 C319 C 0.39072 0.02772 0.05487
 C320 C 0.41988 0.02228 0.04214
 C321 C 0.41671 -0.02448 0.04046
 C322 C 0.38442 -0.06543 0.05201
 C323 C 0.35543 -0.05997 0.06476
 H324 H 0.13126 -0.09351 0.11122
 H325 H 0.18579 -0.10382 0.09093
 H326 H 0.31177 0.03260 0.11063
 H327 H 0.25739 0.04284 0.13067
 H328 H 0.26951 -0.08040 0.08103
 H329 H 0.33917 0.03191 0.08272
 H330 H 0.39359 0.06412 0.05578
 H331 H 0.44454 0.05460 0.03350
 H332 H 0.38156 -0.10185 0.05124
 H333 H 0.33195 -0.09222 0.07365
 C334 C 0.87236 0.89200 0.42908
 C335 C 0.84047 0.85133 0.41824
 C336 C 0.79256 0.81694 0.42397
 C337 C 0.77714 0.82367 0.44101
 C338 C 0.80903 0.86415 0.45203
 C339 C 0.85782 0.89959 0.44644
 C340 C 0.76056 0.77401 0.41206
 C341 C 0.71015 0.75032 0.41153
 C342 C 0.67865 0.70997 0.39848
 C343 C 0.63122 0.70401 0.39166
 C344 C 0.60118 0.66777 0.37873
 C345 C 0.61759 0.63605 0.37258
 C346 C 0.66433 0.64076 0.37993
 C347 C 0.69466 0.67744 0.39273
 H348 H 0.90954 0.91526 0.42408
 H349 H 0.85359 0.84658 0.40527
 H350 H 0.74065 0.79739 0.44609
 H351 H 0.79373 0.86785 0.46455
 H352 H 0.77933 0.76398 0.40242
 H353 H 0.69103 0.76345 0.41969
 H354 H 0.61783 0.72823 0.39603
 H355 H 0.56515 0.66480 0.37347
 H356 H 0.67782 0.61665 0.37555
 H357 H 0.73039 0.68003 0.39817
 C358 C -0.00458 0.17819 0.78938
 C359 C -0.00345 0.21939 0.77852
 C360 C -0.03730 0.21289 0.76258
 C361 C -0.07227 0.16402 0.75767
 C362 C -0.07348 0.12289 0.76856
 C363 C -0.03947 0.12943 0.78447
 C364 C -0.03297 0.25773 0.75094
 C365 C -0.06943 0.25773 0.73845
 C366 C -0.06365 0.30181 0.72591
 C367 C -0.10701 0.30283 0.71739
 C368 C -0.10321 0.34253 0.70478
 C369 C -0.05582 0.38205 0.70036
 C370 C -0.01242 0.38110 0.70889
 C371 C -0.01620 0.34138 0.72142
 H372 H 0.02257 0.18452 0.80140
 H373 H 0.02427 0.25654 0.78250
 H374 H -0.09809 0.15704 0.74522
 H375 H -0.10122 0.08583 0.76451
 H376 H 0.00153 0.29220 0.75316
 H377 H -0.10565 0.22452 0.73749
 H378 H -0.14402 0.27264 0.72044
 H379 H -0.13736 0.34208 0.69840
 H380 H 0.02470 0.41070 0.70564
 H381 H 0.01825 0.34144 0.72706
 C382 C 0.90342 0.06952 0.10331
 C383 C 0.86246 0.06680 0.09149
 C384 C 0.81319 0.03801 0.09731
 C385 C 0.80586 0.01384 0.11562
 C386 C 0.84685 0.01673 0.12747
 C387 C 0.89601 0.04395 0.12132
 C388 C 0.77074 0.03428 0.08394
 C389 C 0.72412 -0.00469 0.08437
 C390 C 0.68249 -0.01005 0.07019
 C391 C 0.64246 -0.05799 0.06701
 C392 C 0.60305 -0.06476 0.05347
 C393 C 0.60270 -0.02359 0.04289
 C394 C 0.64213 0.02452 0.04642
 C395 C 0.68146 0.03129 0.05996
 H396 H 0.94092 0.09138 0.09829
 H397 H 0.86921 0.08636 0.07757
 H398 H 0.76864 -0.00733 0.12089
 H399 H 0.83989 -0.00358 0.14124
 H400 H 0.77948 0.06295 0.07252
 H401 H 0.71670 -0.03569 0.09466
 H402 H 0.64205 -0.09042 0.07484
 H403 H 0.57312 -0.10229 0.05116
 H404 H 0.64269 0.05711 0.03869
 H405 H 0.71055 0.06898 0.06245
 C406 C 0.19321 0.26819 0.45041
 C407 C 0.22985 0.30593 0.43930
 C408 C 0.26044 0.29573 0.42889
 C409 C 0.25344 0.24661 0.42982
 C410 C 0.21687 0.20889 0.44101
 C411 C 0.18609 0.21919 0.45129
 C412 C 0.29720 0.33665 0.41661
 C413 C 0.33695 0.33602 0.41023
 C414 C 0.37304 0.37600 0.39746
 C415 C 0.41951 0.37788 0.39580
 C416 C 0.45382 0.41301 0.38326
 C417 C 0.44243 0.44716 0.37200
 C418 C 0.39617 0.44579 0.37376
 C419 C 0.36167 0.41044 0.38627
 H420 H 0.17040 0.27738 0.45834
 H421 H 0.23421 0.34327 0.43880
 H422 H 0.27491 0.23659 0.42155
 H423 H 0.21160 0.17128 0.44116
 H424 H 0.29179 0.36903 0.41331
 H425 H 0.34473 0.30560 0.41495
 H426 H 0.42920 0.35172 0.40413
 H427 H 0.48912 0.41299 0.38225
 H428 H 0.38610 0.47128 0.36513
 H429 H 0.32579 0.40954 0.38665
 C430 C -0.08852 0.79180 0.75877
 C431 C -0.09194 0.75719 0.74644
 C432 C -0.09685 0.71085 0.75366
 C433 C -0.10079 0.69861 0.77337
 C434 C -0.09853 0.73288 0.78567
 C435 C -0.09145 0.78003 0.77847
 C436 C -0.09754 0.67632 0.74029
 C437 C -0.07466 0.64831 0.74468
 C438 C -0.07076 0.61800 0.73053
 C439 C -0.02699 0.61332 0.73093
 C440 C -0.02138 0.58671 0.71721
 C441 C -0.06002 0.56330 0.70310
 C442 C -0.10454 0.56665 0.70310
 C443 C -0.10980 0.59390 0.71662
 H444 H -0.08328 0.82796 0.75296
 H445 H -0.08925 0.76718 0.73129
 H446 H -0.10568 0.66265 0.77924
 H447 H -0.10084 0.72321 0.80085
 H448 H -0.11298 0.67778 0.72585
 H449 H -0.05435 0.65111 0.75844
 H450 H 0.00340 0.63129 0.74162
 H451 H 0.01317 0.58441 0.71765
 H452 H -0.13507 0.54882 0.69246
 H453 H -0.14451 0.59584 0.71625
   
