data_POSCAR
  _audit_creation_date              2014-09-24
  _audit_creation_method            'ToBaCCo'
  _symmetry_space_group_name_H-M    'P1'
  _symmetry_Int_Tables_number       1
  _symmetry_cell_setting            triclinic
  loop_
  _symmetry_equiv_pos_as_xyz
 x,y,z
_cell_length_a 59.5809
_cell_length_b 56.4005
_cell_length_c 56.7555
_cell_angle_alpha 90.570000
_cell_angle_beta 88.373400
_cell_angle_gamma 89.794700
loop_
  _atom_site_label
  _atom_site_type_symbol
  _atom_site_fract_x
  _atom_site_fract_y
  _atom_site_fract_z
N1 N 0.59298 0.65551 0.61094
 N2 N 0.58496 0.64697 0.63092
 C3 C 0.56572 0.65840 0.63692
 C4 C 0.56140 0.67492 0.61973
 C5 C 0.57904 0.67250 0.60346
 H6 H 0.55569 0.65510 0.65270
 H7 H 0.58199 0.68299 0.58785
 Cu8 Cu 0.60081 0.62224 0.64743
 Cu9 Cu 0.62185 0.64547 0.59721
 Cu10 Cu 0.65163 0.60339 0.62794
 N11 N 0.61699 0.59753 0.66362
 N12 N 0.63716 0.59079 0.65636
 C13 C 0.64451 0.57359 0.67052
 C14 C 0.62793 0.56901 0.68759
 C15 C 0.61071 0.58470 0.68255
 H16 H 0.66044 0.56462 0.66795
 H17 H 0.59474 0.58669 0.69185
 N18 N 0.66322 0.61806 0.59867
 N19 N 0.65145 0.63323 0.58642
 C20 C 0.66338 0.63905 0.56682
 C21 C 0.68370 0.62712 0.56683
 C22 C 0.68304 0.61402 0.58730
 H23 H 0.65790 0.65137 0.55368
 H24 H 0.69589 0.60206 0.59318
 H25 H 0.62221 0.61185 0.61153
 H26 H 0.63566 0.63605 0.62876
 N27 N 0.90055 0.33804 0.10982
 N28 N 0.91299 0.35230 0.12235
 C29 C 0.93232 0.34124 0.12724
 C30 C 0.93204 0.31859 0.11737
 C31 C 0.91145 0.31728 0.10649
 H32 H 0.94530 0.34909 0.13765
 H33 H 0.90498 0.30261 0.09638
 Cu34 Cu 0.90272 0.38372 0.13198
 Cu35 Cu 0.87185 0.34813 0.09751
 Cu36 Cu 0.84993 0.40052 0.12037
 N37 N 0.88792 0.40971 0.14899
 N38 N 0.86719 0.41597 0.14467
 C39 C 0.86088 0.43370 0.15946
 C40 C 0.87862 0.43890 0.17388
 C41 C 0.89555 0.42331 0.16666
 H42 H 0.84456 0.44216 0.15968
 H43 H 0.91197 0.42151 0.17408
 N44 N 0.83518 0.38207 0.09567
 N45 N 0.84324 0.36178 0.08726
 C46 C 0.82976 0.35384 0.07025
 C47 C 0.81249 0.37004 0.06772
 C48 C 0.81649 0.38768 0.08418
 H49 H 0.83280 0.33797 0.05978
 H50 H 0.80664 0.40358 0.08736
 H51 H 0.87584 0.38438 0.10052
 H52 H 0.86520 0.36831 0.12740
 N53 N 0.40284 0.16347 -0.11389
 N54 N 0.41130 0.15415 -0.13353
 C55 C 0.43008 0.16599 -0.13985
 C56 C 0.43365 0.18359 -0.12322
 C57 C 0.41603 0.18142 -0.10696
 H58 H 0.44055 0.16193 -0.15523
 H59 H 0.41285 0.19231 -0.09143
 Cu60 Cu 0.39717 0.12723 -0.14877
 Cu61 Cu 0.37519 0.15193 -0.09899
 Cu62 Cu 0.34998 0.10355 -0.12534
 N63 N 0.38320 0.09957 -0.16285
 N64 N 0.36454 0.09067 -0.15383
 C65 C 0.35831 0.07203 -0.16706
 C66 C 0.37399 0.06892 -0.18530
 C67 C 0.38959 0.08671 -0.18204
 H68 H 0.34365 0.06128 -0.16344
 H69 H 0.40433 0.09016 -0.19298
 N70 N 0.33777 0.11902 -0.09646
 N71 N 0.34714 0.13768 -0.08661
 C72 C 0.33468 0.14430 -0.06746
 C73 C 0.31672 0.12893 -0.06502
 C74 C 0.31926 0.11314 -0.08371
 H75 H 0.33855 0.15896 -0.05588
 H76 H 0.30824 0.09860 -0.08786
 H77 H 0.37881 0.11745 -0.11120
 H78 H 0.36156 0.13788 -0.12909
 N79 N 0.09998 0.83833 0.38897
 N80 N 0.08716 0.85229 0.37670
 C81 C 0.06789 0.84101 0.37214
 C82 C 0.06863 0.81854 0.38194
 C83 C 0.08942 0.81756 0.39243
 H84 H 0.05460 0.84859 0.36202
 H85 H 0.09621 0.80315 0.40244
 Cu86 Cu 0.09691 0.88363 0.36704
 Cu87 Cu 0.12863 0.84887 0.40099
 Cu88 Cu 0.14959 0.90110 0.37828
 N89 N 0.11125 0.90941 0.34995
 N90 N 0.13192 0.91592 0.35414
 C91 C 0.13795 0.93329 0.33921
 C92 C 0.12008 0.93800 0.32486
 C93 C 0.10337 0.92251 0.33226
 H94 H 0.15418 0.94180 0.33882
 H95 H 0.08695 0.92038 0.32488
 N96 N 0.16479 0.88317 0.40278
 N97 N 0.15711 0.86289 0.41105
 C98 C 0.17087 0.85521 0.42781
 C99 C 0.18795 0.87154 0.43032
 C100 C 0.18354 0.88902 0.41413
 H101 H 0.16817 0.83939 0.43810
 H102 H 0.19317 0.90494 0.41098
 H103 H 0.12407 0.88509 0.39823
 H104 H 0.13474 0.86874 0.37116
 C105 C 0.10384 0.14313 0.12360
 N106 N 0.12181 0.14426 0.10836
 C107 C 0.13829 0.12756 0.10869
 N108 N 0.13680 0.10986 0.12470
 C109 C 0.11906 0.10860 0.14020
 N110 N 0.10254 0.12523 0.13943
 C111 C 0.39007 0.85300 0.61963
 N112 N 0.39002 0.87049 0.63628
 C113 C 0.37420 0.88790 0.63648
 N114 N 0.35830 0.88769 0.61978
 C115 C 0.35812 0.87034 0.60300
 N116 N 0.37406 0.85306 0.60305
 C117 C 0.89719 0.64388 0.37937
 N118 N 0.87961 0.64494 0.39512
 C119 C 0.86239 0.62932 0.39375
 N120 N 0.86278 0.61265 0.37631
 C121 C 0.88031 0.61127 0.36049
 N122 N 0.89751 0.62691 0.36219
 C123 C 0.61055 0.35424 -0.12243
 N124 N 0.62673 0.35367 -0.10603
 C125 C 0.64325 0.37024 -0.10598
 N126 N 0.64344 0.38749 -0.12253
 C127 C 0.62737 0.38832 -0.13900
 N128 N 0.61098 0.37164 -0.13883
 C129 C -0.01701 0.26585 0.11941
 C130 C -0.01295 0.28900 0.12744
 C131 C -0.02978 0.30628 0.12704
 C132 C -0.05107 0.30102 0.11811
 C133 C -0.05496 0.27775 0.10989
 C134 C -0.03823 0.26036 0.11077
 C135 C 0.00083 0.24759 0.11999
 N136 N -0.00438 0.22417 0.12052
 N137 N 0.01172 0.20776 0.12118
 C138 C 0.03370 0.21410 0.12112
 N139 N 0.03891 0.23751 0.12047
 N140 N 0.02281 0.25392 0.12003
 C141 C 0.05161 0.19591 0.12173
 C142 C 0.07340 0.20099 0.11315
 C143 C 0.09030 0.18376 0.11354
 C144 C 0.08588 0.16127 0.12297
 C145 C 0.06415 0.15626 0.13178
 C146 C 0.04712 0.17333 0.13093
 H147 H 0.00324 0.29373 0.13429
 H148 H -0.02576 0.32384 0.13340
 H149 H -0.07101 0.27265 0.10305
 H150 H -0.04182 0.24266 0.10439
 H151 H 0.07732 0.21820 0.10586
 H152 H 0.10691 0.18816 0.10672
 H153 H 0.06023 0.13904 0.13906
 H154 H 0.03051 0.16895 0.13777
 C155 C 0.50810 0.72669 0.61934
 C156 C 0.51916 0.71963 0.59820
 C157 C 0.53641 0.70276 0.59831
 C158 C 0.54278 0.69238 0.61952
 C159 C 0.53149 0.69916 0.64060
 C160 C 0.51443 0.71623 0.64053
 C161 C 0.49029 0.74509 0.61937
 N162 N 0.48324 0.75583 0.63980
 N163 N 0.46746 0.77261 0.63983
 C164 C 0.45798 0.77929 0.61944
 N165 N 0.46495 0.76848 0.59901
 N166 N 0.48082 0.75178 0.59897
 C167 C 0.44053 0.79807 0.61950
 C168 C 0.42720 0.80139 0.59974
 C169 C 0.41073 0.81911 0.59984
 C170 C 0.40739 0.83409 0.61958
 C171 C 0.42079 0.83083 0.63929
 C172 C 0.43707 0.81294 0.63930
 H173 H 0.51470 0.72736 0.58158
 H174 H 0.54466 0.69777 0.58175
 H175 H 0.53611 0.69166 0.65726
 H176 H 0.50621 0.72121 0.65711
 H177 H 0.42939 0.79019 0.58423
 H178 H 0.40073 0.82118 0.58434
 H179 H 0.41861 0.84201 0.65481
 H180 H 0.44710 0.81092 0.65477
 C181 C 1.01819 0.76557 0.38139
 C182 C 1.01366 0.78852 0.37347
 C183 C 1.03034 0.80587 0.37331
 C184 C 1.05193 0.80087 0.38160
 C185 C 1.05630 0.77777 0.38966
 C186 C 1.03972 0.76031 0.38931
 C187 C 1.00047 0.74728 0.38151
 N188 N 1.00585 0.72386 0.38043
 N189 N 0.98983 0.70743 0.38039
 C190 C 0.96781 0.71376 0.38167
 N191 N 0.96245 0.73718 0.38287
 N192 N 0.97845 0.75360 0.38269
 C193 C 0.94997 0.69561 0.38160
 C194 C 0.92862 0.70070 0.39153
 C195 C 0.91163 0.68370 0.39122
 C196 C 0.91550 0.66144 0.38053
 C197 C 0.93686 0.65634 0.37056
 C198 C 0.95401 0.67317 0.37132
 H199 H 0.99722 0.79305 0.36715
 H200 H 1.02597 0.82329 0.36709
 H201 H 1.07260 0.77286 0.39598
 H202 H 1.04366 0.74274 0.39558
 H203 H 0.92507 0.71780 0.39968
 H204 H 0.89531 0.68818 0.39895
 H205 H 0.94034 0.63928 0.36228
 H206 H 0.97029 0.66880 0.36345
 C207 C 0.48750 0.23432 -0.12264
 C208 C 0.47596 0.22831 -0.10160
 C209 C 0.45839 0.21194 -0.10180
 C210 C 0.45219 0.20100 -0.12298
 C211 C 0.46385 0.20686 -0.14397
 C212 C 0.48121 0.22345 -0.14382
 C213 C 0.50592 0.25190 -0.12253
 N214 N 0.51354 0.26181 -0.14293
 N215 N 0.53000 0.27772 -0.14287
 C216 C 0.53963 0.28431 -0.12242
 N217 N 0.53207 0.27433 -0.10202
 N218 N 0.51552 0.25851 -0.10207
 C219 C 0.55789 0.30208 -0.12241
 C220 C 0.57139 0.30493 -0.10267
 C221 C 0.58862 0.32170 -0.10273
 C222 C 0.59254 0.33620 -0.12242
 C223 C 0.57898 0.33339 -0.14211
 C224 C 0.56195 0.31643 -0.14216
 H225 H 0.48035 0.23640 -0.08499
 H226 H 0.44986 0.20766 -0.08531
 H227 H 0.45936 0.19891 -0.16061
 H228 H 0.48979 0.22764 -0.16033
 H229 H 0.56874 0.29409 -0.08720
 H230 H 0.59873 0.32346 -0.08725
 H231 H 0.58159 0.34421 -0.15760
 H232 H 0.55181 0.31474 -0.15762
 C233 C 0.11827 -0.01209 0.26792
 C234 C 0.09823 -0.02054 0.27842
 C235 C 0.09878 -0.03681 0.29684
 C236 C 0.11938 -0.04480 0.30532
 C237 C 0.13940 -0.03629 0.29488
 C238 C 0.13885 -0.02021 0.27635
 C239 C 0.11784 0.00510 0.24835
 N240 N 0.13694 0.01035 0.23590
 N241 N 0.13671 0.02595 0.21846
 C242 C 0.11738 0.03705 0.21275
 N243 N 0.09824 0.03180 0.22518
 N244 N 0.09846 0.01612 0.24259
 C245 C 0.11736 0.05478 0.19364
 C246 C 0.09855 0.06937 0.19031
 C247 C 0.09897 0.08669 0.17283
 C248 C 0.11816 0.08968 0.15816
 C249 C 0.13678 0.07477 0.16122
 C250 C 0.13642 0.05761 0.17878
 H251 H 0.08209 -0.01467 0.27234
 H252 H 0.08306 -0.04290 0.30460
 H253 H 0.15556 -0.04224 0.30078
 H254 H 0.15461 -0.01407 0.26871
 H255 H 0.08359 0.06767 0.20145
 H256 H 0.08430 0.09782 0.17091
 H257 H 0.15185 0.07656 0.15027
 H258 H 0.15116 0.04660 0.18076
 C259 C 0.62843 0.51641 -0.25933
 C260 C 0.64783 0.52097 -0.27312
 C261 C 0.64771 0.53829 -0.29057
 C262 C 0.62821 0.55178 -0.29453
 C263 C 0.60892 0.54738 -0.28029
 C264 C 0.60900 0.52982 -0.26309
 C265 C 0.62835 0.49760 -0.24131
 N266 N 0.60870 0.48880 -0.23247
 N267 N 0.60859 0.47169 -0.21647
 C268 C 0.62813 0.46273 -0.20853
 N269 N 0.64780 0.47160 -0.21728
 N270 N 0.64791 0.48862 -0.23339
 C271 C 0.62798 0.44367 -0.19077
 C272 C 0.64728 0.43872 -0.17799
 C273 C 0.64705 0.42084 -0.16110
 C274 C 0.62762 0.40730 -0.15685
 C275 C 0.60838 0.41213 -0.16978
 C276 C 0.60851 0.43022 -0.18642
 H277 H 0.66309 0.51091 -0.27067
 H278 H 0.66306 0.54103 -0.30076
 H279 H 0.59347 0.55708 -0.28251
 H280 H 0.59379 0.52682 -0.25266
 H281 H 0.66252 0.44881 -0.18087
 H282 H 0.66217 0.41751 -0.15149
 H283 H 0.59311 0.40208 -0.16688
 H284 H 0.59340 0.43353 -0.19604
 C285 C 0.37421 1.01512 0.76029
 C286 C 0.39427 1.02630 0.76652
 C287 C 0.39417 1.04391 0.78404
 C288 C 0.37407 1.05051 0.79591
 C289 C 0.35403 1.03929 0.78975
 C290 C 0.35407 1.02190 0.77203
 C291 C 0.37427 0.99644 0.74175
 N292 N 0.35481 0.98933 0.73202
 N293 N 0.35485 0.97248 0.71541
 C294 C 0.37434 0.96193 0.70791
 N295 N 0.39380 0.96902 0.71766
 N296 N 0.39377 0.98596 0.73418
 C297 C 0.37434 0.94306 0.68956
 C298 C 0.39323 0.92836 0.68576
 C299 C 0.39314 0.91038 0.66862
 C300 C 0.37426 0.90689 0.65471
 C301 C 0.35544 0.92170 0.65840
 C302 C 0.35543 0.93949 0.67573
 H303 H 0.41006 1.02153 0.75778
 H304 H 0.40992 1.05209 0.78850
 H305 H 0.33823 1.04412 0.79841
 H306 H 0.33833 1.01361 0.76769
 H307 H 0.40804 0.93059 0.69617
 H308 H 0.40794 0.89933 0.66618
 H309 H 0.34061 0.91944 0.64803
 H310 H 0.34064 0.95055 0.67816
 C311 C 0.87983 0.49057 0.23030
 C312 C 0.89996 0.48162 0.22014
 C313 C 0.89959 0.46481 0.20187
 C314 C 0.87909 0.45673 0.19322
 C315 C 0.85897 0.46576 0.20331
 C316 C 0.85934 0.48241 0.22168
 C317 C 0.88013 0.50827 0.24978
 N318 N 0.86087 0.51437 0.26176
 N319 N 0.86106 0.53029 0.27923
 C320 C 0.88050 0.54085 0.28546
 N321 N 0.89976 0.53476 0.27348
 N322 N 0.89959 0.51878 0.25603
 C323 C 0.88060 0.55869 0.30482
 C324 C 0.89987 0.57224 0.30898
 C325 C 0.89980 0.58930 0.32704
 C326 C 0.88051 0.59307 0.34146
 C327 C 0.86131 0.57936 0.33741
 C328 C 0.86134 0.56245 0.31926
 H329 H 0.91605 0.48750 0.22636
 H330 H 0.91539 0.45836 0.19438
 H331 H 0.84288 0.45978 0.19726
 H332 H 0.84351 0.48893 0.22906
 H333 H 0.91499 0.56983 0.29817
 H334 H 0.91490 0.59950 0.32971
 H335 H 0.84615 0.58181 0.34813
 H336 H 0.84622 0.55227 0.31660
 C337 C 0.26424 0.12946 -0.01126
 C338 C 0.27002 0.10842 -0.02348
 C339 C 0.28699 0.10831 -0.04098
 C340 C 0.29877 0.12915 -0.04645
 C341 C 0.29318 0.15016 -0.03408
 C342 C 0.27598 0.15035 -0.01678
 C343 C 0.24602 0.12954 0.00705
 N344 N 0.23651 0.15020 0.01487
 N345 N 0.21990 0.15016 0.03110
 C346 C 0.21221 0.12947 0.04029
 N347 N 0.22181 0.10884 0.03255
 N348 N 0.23832 0.10887 0.01624
 C349 C 0.19362 0.12929 0.05818
 C350 C 0.18923 0.10884 0.07146
 C351 C 0.17148 0.10843 0.08805
 C352 C 0.15751 0.12837 0.09157
 C353 C 0.16193 0.14886 0.07835
 C354 C 0.17988 0.14937 0.06194
 H355 H 0.26128 0.09203 -0.01970
 H356 H 0.29103 0.09179 -0.05002
 H357 H 0.30186 0.16654 -0.03801
 H358 H 0.27198 0.16684 -0.00764
 H359 H 0.19955 0.09311 0.06907
 H360 H 0.16852 0.09234 0.09789
 H361 H 0.15153 0.16454 0.08070
 H362 H 0.18278 0.16538 0.05195
 C363 C 0.73720 0.62962 0.51439
 C364 C 0.74177 0.62463 0.53798
 C365 C 0.72437 0.62366 0.55498
 C366 C 0.70209 0.62807 0.54881
 C367 C 0.69753 0.63333 0.52529
 C368 C 0.71488 0.63388 0.50820
 C369 C 0.75558 0.63023 0.49633
 N370 N 0.75125 0.62734 0.47311
 N371 N 0.76785 0.62758 0.45688
 C372 C 0.78944 0.63092 0.46319
 N373 N 0.79375 0.63395 0.48640
 N374 N 0.77718 0.63352 0.50264
 C375 C 0.80792 0.63099 0.44522
 C376 C 0.82859 0.64159 0.45014
 C377 C 0.84614 0.64141 0.43327
 C378 C 0.84353 0.63025 0.41128
 C379 C 0.82285 0.61964 0.40635
 C380 C 0.80516 0.62019 0.42307
 H381 H 0.75879 0.62119 0.54328
 H382 H 0.72840 0.61974 0.57301
 H383 H 0.68050 0.63664 0.51999
 H384 H 0.71084 0.63784 0.49017
 H385 H 0.83117 0.65015 0.46700
 H386 H 0.86190 0.64966 0.43762
 H387 H 0.82030 0.61098 0.38953
 H388 H 0.78945 0.61180 0.41880
 C389 C 0.76080 0.36890 0.01616
 C390 C 0.76733 0.39034 0.02673
 C391 C 0.78391 0.39062 0.04363
 C392 C 0.79453 0.36952 0.05020
 C393 C 0.78804 0.34806 0.03966
 C394 C 0.77124 0.34773 0.02292
 C395 C 0.74336 0.36879 -0.00194
 N396 N 0.73350 0.34826 -0.00879
 N397 N 0.71782 0.34829 -0.02507
 C398 C 0.71142 0.36885 -0.03527
 N399 N 0.72132 0.38935 -0.02844
 N400 N 0.73691 0.38933 -0.01210
 C401 C 0.69406 0.36901 -0.05345
 C402 C 0.69113 0.38909 -0.06752
 C403 C 0.67477 0.38938 -0.08465
 C404 C 0.66076 0.36970 -0.08796
 C405 C 0.66363 0.34963 -0.07385
 C406 C 0.68019 0.34923 -0.05687
 H407 H 0.75960 0.40696 0.02199
 H408 H 0.78865 0.40749 0.05121
 H409 H 0.79580 0.33149 0.04447
 H410 H 0.76662 0.33093 0.01509
 H411 H 0.70159 0.40459 -0.06542
 H412 H 0.67299 0.40516 -0.09517
 H413 H 0.65316 0.33415 -0.07599
 H414 H 0.68198 0.33351 -0.04628
 C415 C 0.24033 0.87062 0.48110
 C416 C 0.23359 0.89201 0.47091
 C417 C 0.21680 0.89225 0.45423
 C418 C 0.20618 0.87114 0.44753
 C419 C 0.21291 0.84972 0.45767
 C420 C 0.22990 0.84944 0.47417
 C421 C 0.25796 0.87048 0.49899
 N422 N 0.26772 0.84986 0.50556
 N423 N 0.28350 0.84979 0.52173
 C424 C 0.29010 0.87033 0.53211
 N425 N 0.28031 0.89093 0.52556
 N426 N 0.26462 0.89101 0.50932
 C427 C 0.30752 0.87029 0.55022
 C428 C 0.31085 0.89044 0.56445
 C429 C 0.32717 0.89040 0.58165
 C430 C 0.34073 0.87030 0.58485
 C431 C 0.33748 0.85019 0.57053
 C432 C 0.32098 0.85013 0.55350
 H433 H 0.24132 0.90863 0.47580
 H434 H 0.21189 0.90908 0.44694
 H435 H 0.20518 0.83313 0.45274
 H436 H 0.23467 0.83266 0.48170
 H437 H 0.30072 0.90623 0.56245
 H438 H 0.32927 0.90622 0.59233
 H439 H 0.34759 0.83439 0.57258
 H440 H 0.31889 0.83435 0.54279
   
