data_POSCAR
  _audit_creation_date              2014-09-24
  _audit_creation_method            'ToBaCCo'
  _symmetry_space_group_name_H-M    'P1'
  _symmetry_Int_Tables_number       1
  _symmetry_cell_setting            triclinic
  loop_
  _symmetry_equiv_pos_as_xyz
 x,y,z
_cell_length_a 24.6196
_cell_length_b 24.1783
_cell_length_c 24.7026
_cell_angle_alpha 88.421900
_cell_angle_beta 93.068300
_cell_angle_gamma 92.350400
loop_
  _atom_site_label
  _atom_site_type_symbol
  _atom_site_fract_x
  _atom_site_fract_y
  _atom_site_fract_z
C1 C 0.30166 0.36581 0.22592
 H2 H 0.29897 0.37571 0.26810
 C3 C 0.32350 0.40517 0.18978
 H4 H 0.33749 0.44539 0.20434
 C5 C 0.28885 0.30062 0.15603
 H6 H 0.27591 0.25969 0.14300
 C7 C 0.31194 0.33806 0.11902
 H8 H 0.31622 0.32576 0.07768
 N9 N 0.28346 0.31519 0.20824
 C10 C 0.15699 0.25317 0.31436
 H11 H 0.16759 0.21019 0.31786
 C12 C 0.11004 0.27029 0.33741
 H13 H 0.08490 0.24035 0.35911
 C14 C 0.17709 0.34454 0.28215
 H15 H 0.20235 0.37336 0.25972
 C16 C 0.13145 0.36368 0.30592
 H17 H 0.12260 0.40717 0.30214
 Zn18 Zn 0.25251 0.26287 0.25766
 N19 N 0.18965 0.29028 0.28765
 C20 C 0.29581 0.25061 0.36649
 N21 N 0.30616 0.24670 0.31319
 C22 C 0.35444 0.22848 0.29790
 C23 C 0.39272 0.20883 0.33670
 C24 C 0.33359 0.23253 0.40678
 C25 C 0.18872 0.19943 0.18269
 C26 C 0.17298 0.15305 0.15223
 C27 C 0.24355 0.10230 0.20077
 C28 C 0.25724 0.14923 0.23096
 N29 N 0.23088 0.19708 0.22051
 H30 H 0.25751 0.26596 0.37781
 H31 H 0.36195 0.22656 0.25524
 H32 H 0.42977 0.19183 0.32371
 H33 H 0.32366 0.23368 0.44887
 H34 H 0.16795 0.23774 0.17560
 H35 H 0.13995 0.15583 0.12164
 H36 H 0.26553 0.06491 0.20926
 H37 H 0.28934 0.14723 0.26229
 C38 C 0.09731 0.32635 0.33376
 C39 C 0.32872 0.39125 0.13560
 C40 C 0.20141 0.10416 0.16035
 C41 C 0.38205 0.20981 0.39183
 C42 C 0.81309 0.81616 0.24763
 H43 H 0.80291 0.81187 0.28965
 C44 C 0.85954 0.84731 0.23388
 H45 H 0.88415 0.86684 0.26606
 C46 C 0.79346 0.79362 0.15582
 H47 H 0.76789 0.77216 0.12561
 C48 C 0.84019 0.82339 0.14032
 H49 H 0.84943 0.82488 0.09790
 N50 N 0.78040 0.79129 0.20864
 C51 C 0.61688 0.77348 0.26783
 H52 H 0.60652 0.73198 0.25440
 C53 C 0.57806 0.80367 0.29216
 H54 H 0.53796 0.78498 0.29762
 C55 C 0.68227 0.84764 0.27815
 H56 H 0.72259 0.86506 0.27224
 C57 C 0.64512 0.87872 0.30388
 H58 H 0.65744 0.91963 0.31790
 Zn59 Zn 0.71825 0.74964 0.23077
 N60 N 0.66800 0.79553 0.26172
 C61 C 0.72292 0.69556 0.33358
 N62 N 0.74284 0.69679 0.28327
 C63 C 0.78416 0.66433 0.27133
 C64 C 0.80826 0.62998 0.31138
 C65 C 0.74574 0.66185 0.37476
 C66 C 0.65601 0.74865 0.13341
 C67 C 0.62320 0.72610 0.09112
 C68 C 0.64434 0.63467 0.12594
 C69 C 0.67652 0.65901 0.16784
 N70 N 0.68136 0.71508 0.17097
 H71 H 0.69042 0.72204 0.34244
 H72 H 0.79966 0.66664 0.23113
 H73 H 0.84223 0.60570 0.30156
 H74 H 0.72957 0.66245 0.41455
 H75 H 0.66025 0.79311 0.13722
 H76 H 0.60306 0.75377 0.06212
 H77 H 0.63997 0.58997 0.12467
 H78 H 0.69637 0.63309 0.19857
 C79 C 0.59240 0.85669 0.31120
 C80 C 0.87365 0.85163 0.17937
 C81 C 0.61631 0.66833 0.08755
 C82 C 0.78994 0.62946 0.36425
 C83 C 0.84941 0.32802 0.76894
 H84 H 0.84511 0.33042 0.81216
 C85 C 0.87926 0.36940 0.74166
 H86 H 0.89780 0.40341 0.76446
 C87 C 0.83109 0.27976 0.68737
 H88 H 0.81299 0.24434 0.66650
 C89 C 0.86092 0.31997 0.65858
 H90 H 0.86466 0.31547 0.61545
 N91 N 0.82524 0.28488 0.74142
 C92 C 0.70442 0.22881 0.85491
 H93 H 0.71400 0.18555 0.85851
 C94 C 0.66777 0.25020 0.88919
 H95 H 0.64860 0.22297 0.91868
 C96 C 0.71875 0.31700 0.81250
 H97 H 0.73902 0.34285 0.78277
 C98 C 0.68128 0.33987 0.84517
 H99 H 0.67307 0.38346 0.84058
 Zn100 Zn 0.78563 0.23049 0.78131
 N101 N 0.73047 0.26264 0.81891
 C102 C 0.83505 0.21549 0.88516
 N103 N 0.83538 0.19813 0.83333
 C104 C 0.87133 0.16048 0.81928
 C105 C 0.90453 0.13439 0.85913
 C106 C 0.86856 0.19194 0.92598
 C107 C 0.71439 0.19764 0.69535
 C108 C 0.68918 0.16238 0.65686
 C109 C 0.73709 0.08643 0.69991
 C110 C 0.76057 0.12289 0.73812
 N111 N 0.75061 0.17782 0.73398
 H112 H 0.80863 0.24786 0.89517
 H113 H 0.87338 0.14965 0.77728
 H114 H 0.93119 0.10294 0.84694
 H115 H 0.86571 0.20657 0.96661
 H116 H 0.70615 0.24128 0.69369
 H117 H 0.66169 0.17906 0.62541
 H118 H 0.74645 0.04307 0.70322
 H119 H 0.78679 0.10703 0.77075
 C120 C 0.65664 0.30661 0.88511
 C121 C 0.88491 0.36587 0.68557
 C122 C 0.70177 0.10637 0.65801
 C123 C 0.90290 0.14918 0.91384
 C124 C 0.32648 0.83624 0.72573
 H125 H 0.32376 0.82591 0.76842
 C126 C 0.36389 0.87743 0.70922
 H127 H 0.38954 0.89868 0.73961
 C128 C 0.29829 0.81863 0.63447
 H129 H 0.27416 0.79445 0.60529
 C130 C 0.33571 0.85896 0.61613
 H131 H 0.33888 0.86626 0.57294
 N132 N 0.29356 0.80876 0.68856
 C133 C 0.15927 0.74251 0.78346
 H134 H 0.15734 0.70033 0.76976
 C135 C 0.12074 0.75976 0.81821
 H136 H 0.08951 0.73047 0.83163
 C137 C 0.20181 0.83224 0.78181
 H138 H 0.23219 0.86098 0.76627
 C139 C 0.16501 0.85079 0.81773
 H140 H 0.16799 0.89348 0.83013
 Zn141 Zn 0.24559 0.75189 0.71510
 N142 N 0.19866 0.77871 0.76584
 C143 C 0.28995 0.67986 0.79961
 N144 N 0.29034 0.69704 0.74671
 C145 C 0.32397 0.67504 0.71194
 C146 C 0.35776 0.63262 0.72925
 C147 C 0.32375 0.63761 0.81892
 C148 C 0.17414 0.75108 0.62041
 C149 C 0.14235 0.72628 0.57843
 C150 C 0.16156 0.63671 0.61909
 C151 C 0.19437 0.66305 0.65913
 N152 N 0.20095 0.71923 0.65858
 H153 H 0.26328 0.69854 0.82664
 H154 H 0.32380 0.69008 0.67028
 H155 H 0.38400 0.61585 0.70057
 H156 H 0.32278 0.62368 0.86091
 H157 H 0.17813 0.79573 0.62208
 H158 H 0.12232 0.75196 0.54747
 H159 H 0.15714 0.59194 0.61984
 H160 H 0.21415 0.63847 0.69100
 C161 C 0.12350 0.81455 0.83569
 C162 C 0.36865 0.88935 0.65370
 C163 C 0.13615 0.66836 0.57755
 C164 C 0.35745 0.61286 0.78320
 C165 C 0.04486 -0.07959 -0.02341
 C166 C 0.09982 -0.05959 0.00296
 C167 C 0.09538 -0.02316 0.04334
 C168 C 0.03661 -0.01016 0.05391
 C169 C 0.01237 -0.10311 0.02397
 C170 C 0.00819 -0.06680 0.06441
 C171 C 0.01637 -0.02653 -0.04177
 C172 C 0.01170 0.00980 -0.00127
 H173 H 0.13861 -0.07284 -0.00952
 H174 H 0.03358 0.01905 0.08726
 H175 H -0.00550 -0.14479 0.02543
 H176 H -0.00057 -0.01961 -0.08265
 C177 C -0.01022 0.44388 0.44151
 C178 C 0.03446 0.48976 0.44813
 C179 C 0.02209 0.52995 0.48222
 C180 C -0.03356 0.52121 0.50657
 C181 C -0.02081 0.42299 0.49948
 C182 C -0.03308 0.46339 0.53342
 C183 C -0.06142 0.47476 0.42272
 C184 C -0.07384 0.51494 0.45713
 H185 H 0.07179 0.49125 0.42675
 H186 H -0.04309 0.55479 0.53385
 H187 H -0.02073 0.37964 0.51183
 H188 H -0.08570 0.46533 0.38603
 C189 C 0.52486 -0.02025 0.44450
 C190 C 0.58116 -0.00746 0.47165
 C191 C 0.58071 0.02642 0.51469
 C192 C 0.52373 0.04562 0.52595
 C193 C 0.49042 -0.04297 0.49071
 C194 C 0.48981 -0.00867 0.53345
 C195 C 0.50211 0.03626 0.42932
 C196 C 0.50070 0.07075 0.47183
 H197 H 0.61766 -0.02613 0.45953
 H198 H 0.52390 0.07376 0.56055
 H199 H 0.46923 -0.08312 0.48990
 H200 H 0.48460 0.04621 0.38923
 C201 C 0.52655 0.43080 -0.04414
 C202 C 0.55352 0.48444 -0.02198
 C203 C 0.51905 0.52695 -0.02090
 C204 C 0.46044 0.51177 -0.04131
 C205 C 0.47813 0.41817 -0.00870
 C206 C 0.44419 0.46087 -0.00612
 C207 C 0.50061 0.44726 -0.09959
 C208 C 0.46594 0.48960 -0.09837
 H209 H 0.59599 0.48820 -0.00819
 H210 H 0.43193 0.54601 -0.04029
 H211 H 0.47355 0.38053 0.01568
 H212 H 0.50963 0.42714 -0.13642
 C213 C 0.08339 -0.16555 -0.12787
 C214 C 0.02949 -0.18362 -0.12759
 C215 C 0.00734 -0.15328 -0.08924
 C216 C 0.04958 -0.11966 -0.06834
 O217 O 0.09555 -0.12662 -0.09218
 H218 H 0.00864 -0.21440 -0.15298
 H219 H -0.03444 -0.15560 -0.07752
 C220 C 0.05020 0.34676 0.36063
 C221 C 0.00188 0.31715 0.36775
 C222 C -0.02853 0.35064 0.39658
 C223 C 0.00373 0.39791 0.40537
 O224 O 0.05131 0.39574 0.38325
 H225 H -0.00954 0.27594 0.35411
 H226 H -0.06854 0.34108 0.41129
 C227 C 0.55399 -0.11178 0.34091
 C228 C 0.49795 -0.11589 0.33400
 C229 C 0.47931 -0.08098 0.37069
 C230 C 0.52531 -0.05871 0.39761
 O231 O 0.57056 -0.07704 0.37930
 H232 H 0.47363 -0.14122 0.30572
 H233 H 0.43731 -0.07345 0.37788
 C234 C 0.62034 0.33113 -0.07729
 C235 C 0.61374 0.31296 -0.02449
 C236 C 0.57842 0.34809 -0.00431
 C237 C 0.56537 0.38453 -0.04658
 O238 O 0.59144 0.37477 -0.09057
 H239 H 0.63324 0.27899 -0.00290
 H240 H 0.56398 0.34724 0.03631
 C241 C -0.06736 0.12191 -0.04699
 C242 C -0.06359 0.13384 0.00777
 C243 C -0.03201 0.09447 0.03201
 C244 C -0.01869 0.06102 -0.00915
 O245 O -0.03968 0.07771 -0.05697
 H246 H -0.08166 0.16666 0.02858
 H247 H -0.02155 0.09030 0.07494
 C248 C -0.18056 0.59817 0.40830
 C249 C -0.18681 0.60398 0.46316
 C250 C -0.14814 0.57258 0.48877
 C251 C -0.12130 0.54962 0.44793
 O252 O -0.14081 0.56487 0.39913
 H253 H -0.21465 0.62950 0.48264
 H254 H -0.14010 0.56757 0.53209
 C255 C 0.41908 0.18239 0.43231
 C256 C 0.42474 0.19388 0.48680
 C257 C 0.45866 0.15513 0.50916
 C258 C 0.47094 0.12267 0.46670
 O259 O 0.44717 0.13942 0.42017
 H260 H 0.40551 0.22577 0.50796
 H261 H 0.47087 0.15011 0.55164
 C262 C 0.39182 0.56654 -0.19822
 C263 C 0.41152 0.52842 -0.23207
 C264 C 0.44141 0.49393 -0.19924
 C265 C 0.43795 0.51333 -0.14752
 O266 O 0.40756 0.55722 -0.14677
 H267 H 0.40465 0.52555 -0.27554
 H268 H 0.46312 0.45898 -0.21200
 C269 C -0.08049 -0.11659 0.16332
 C270 C -0.04813 -0.08135 0.19593
 C271 C -0.01053 -0.05766 0.16301
 C272 C -0.02201 -0.08050 0.11308
 O273 O -0.06421 -0.11607 0.11303
 H274 H -0.05170 -0.07251 0.23821
 H275 H 0.02161 -0.02763 0.17426
 C276 C -0.08540 0.40961 0.65449
 C277 C -0.07128 0.46222 0.67238
 C278 C -0.04860 0.48944 0.62955
 C279 C -0.05018 0.45147 0.58886
 O280 O -0.07242 0.40315 0.60382
 H281 H -0.07810 0.47953 0.71122
 H282 H -0.03331 0.53202 0.62814
 C283 C 0.40852 -0.06813 0.63431
 C284 C 0.43233 -0.02567 0.66475
 C285 C 0.46581 0.00316 0.63088
 C286 C 0.46013 -0.02388 0.58233
 O287 O 0.42537 -0.06696 0.58434
 H288 H 0.42590 -0.01638 0.70645
 H289 H 0.49163 0.03907 0.64094
 C290 C 0.35402 0.43047 0.09678
 C291 C 0.35011 0.48725 0.09633
 C292 C 0.38121 0.50664 0.05521
 C293 C 0.40206 0.46021 0.03407
 O294 O 0.38543 0.41408 0.05912
 H295 H 0.32787 0.51157 0.12313
 H296 H 0.38963 0.54956 0.04391
 C297 C 0.18719 0.05588 0.12631
 C298 C 0.22268 0.01576 0.11415
 C299 C 0.19336 -0.01932 0.08043
 C300 C 0.14210 0.00180 0.07486
 O301 O 0.13832 0.04739 0.10250
 H302 H 0.26507 0.01285 0.12747
 H303 H 0.20754 -0.05615 0.06268
 C304 C 0.10424 0.64026 0.53347
 C305 C 0.10391 0.65663 0.47949
 C306 C 0.07363 0.61652 0.45257
 C307 C 0.05727 0.57935 0.49230
 O308 O 0.07574 0.59343 0.54134
 H309 H 0.12464 0.69253 0.46181
 H310 H 0.06419 0.61467 0.40935
 C311 C 0.67972 0.06955 0.61470
 C312 C 0.70644 0.02499 0.59686
 C313 C 0.67359 0.00372 0.55594
 C314 C 0.62894 0.03666 0.55180
 O315 O 0.63261 0.07675 0.58742
 H316 H 0.74556 0.01013 0.61146
 H317 H 0.68099 -0.03232 0.53285
 C318 C 0.57841 0.64272 0.04599
 C319 C 0.53770 0.66976 0.01649
 C320 C 0.51015 0.62995 -0.01317
 C321 C 0.53613 0.58165 0.00010
 O322 O 0.57747 0.58920 0.03589
 H323 H 0.52790 0.71289 0.01750
 H324 H 0.47519 0.63557 -0.04091
   
