data_POSCAR
  _audit_creation_date              2014-09-24
  _audit_creation_method            'ToBaCCo'
  _symmetry_space_group_name_H-M    'P1'
  _symmetry_Int_Tables_number       1
  _symmetry_cell_setting            triclinic
  loop_
  _symmetry_equiv_pos_as_xyz
 x,y,z
_cell_length_a 10.5833
_cell_length_b 32.8705
_cell_length_c 10.4241
_cell_angle_alpha 90.339900
_cell_angle_beta 89.914500
_cell_angle_gamma 88.985400
loop_
  _atom_site_label
  _atom_site_type_symbol
  _atom_site_fract_x
  _atom_site_fract_y
  _atom_site_fract_z
N1 N 0.18121 0.04835 0.17211
 N2 N 0.23864 0.08374 0.17782
 N3 N 0.07961 -0.03540 0.26243
 N4 N 0.06673 -0.06867 0.33121
 N5 N 0.18630 -0.03709 0.19782
 N6 N 0.24821 -0.07140 0.22188
 N7 N 0.07551 0.04993 0.23836
 N8 N 0.05910 0.08623 0.29070
 C9 C 0.16203 0.10694 0.25367
 C10 C 0.17347 -0.09064 0.30649
 N11 N -0.24987 -0.04011 0.09100
 N12 N -0.30863 -0.07516 0.08698
 N13 N -0.18942 0.04850 0.17347
 N14 N -0.20510 0.08531 0.22350
 N15 N -0.25346 0.04515 0.06623
 N16 N -0.31559 0.08191 0.04030
 N17 N -0.18535 -0.03696 0.19811
 N18 N -0.19896 -0.06977 0.26897
 Mn19 Mn -0.05528 0.00653 0.21958
 C20 C -0.27749 -0.09317 0.19929
 C21 C -0.28247 0.10559 0.14106
 N22 N 0.25134 -0.04592 -0.06992
 N23 N 0.31063 -0.08307 -0.04236
 N24 N 0.18295 0.03606 -0.20299
 N25 N 0.19821 0.06874 -0.27443
 N26 N 0.24649 0.03944 -0.09536
 N27 N 0.30573 0.07437 -0.09117
 N28 N 0.18668 -0.04946 -0.17679
 N29 N 0.19965 -0.08656 -0.22504
 Mn30 Mn 0.21761 0.00122 0.05157
 C31 C 0.27541 -0.10702 -0.14190
 C32 C 0.27637 0.09220 -0.20405
 N33 N -0.18809 0.03685 -0.20164
 N34 N -0.24585 0.07210 -0.22310
 N35 N -0.07913 -0.05165 -0.23978
 N36 N -0.06160 -0.08933 -0.28232
 N37 N -0.18717 -0.04824 -0.17805
 N38 N -0.24795 -0.08551 -0.17994
 N39 N -0.08197 0.03421 -0.26713
 N40 N -0.06551 0.06770 -0.33374
 Mn41 Mn -0.22069 -0.00157 -0.05591
 Mn42 Mn 0.05238 -0.00780 -0.22332
 Cl43 Cl -0.00142 -0.00043 -0.00207
 C44 C -0.16915 0.09087 -0.30705
 C45 C -0.16564 -0.10985 -0.24527
 N46 N 0.75104 0.53782 0.60120
 N47 N 0.81394 0.57207 0.59851
 N48 N 0.67624 0.45059 0.68144
 N49 N 0.68598 0.41425 0.73378
 N50 N 0.74678 0.45245 0.57792
 N51 N 0.80689 0.41737 0.55836
 N52 N 0.68121 0.53618 0.70532
 N53 N 0.69514 0.56948 0.77535
 C54 C 0.77967 0.59139 0.70836
 C55 C 0.76886 0.39399 0.65715
 N56 N 0.30705 0.45460 0.66318
 N57 N 0.24907 0.41939 0.65830
 N58 N 0.41377 0.53739 0.75917
 N59 N 0.42767 0.57069 0.82876
 N60 N 0.31077 0.54027 0.68944
 N61 N 0.25238 0.57552 0.71063
 N62 N 0.40907 0.45167 0.73466
 N63 N 0.42120 0.41444 0.78093
 Mn64 Mn 0.54554 0.49393 0.72159
 C65 C 0.31987 0.39479 0.73378
 C66 C 0.32537 0.59403 0.79903
 N67 N 0.69424 0.46003 0.30798
 N68 N 0.74936 0.42404 0.29254
 N69 N 0.59565 0.54840 0.26082
 N70 N 0.58409 0.58499 0.21059
 N71 N 0.69833 0.54579 0.33120
 N72 N 0.75841 0.58072 0.33040
 N73 N 0.59201 0.46289 0.23689
 N74 N 0.57657 0.42886 0.17092
 Mn75 Mn 0.72392 0.49903 0.45389
 C76 C 0.67640 0.40511 0.20539
 C77 C 0.68687 0.60475 0.25331
 N78 N 0.25924 0.54820 0.41936
 N79 N 0.20053 0.58330 0.44123
 N80 N 0.32510 0.46449 0.29081
 N81 N 0.31327 0.43108 0.22129
 N82 N 0.25355 0.46302 0.39369
 N83 N 0.18985 0.42885 0.39499
 N84 N 0.32855 0.55021 0.31497
 N85 N 0.31818 0.58680 0.26372
 Mn86 Mn 0.28140 0.50155 0.54211
 Mn87 Mn 0.45982 0.50656 0.27448
 Cl88 Cl 0.50271 0.50028 0.49804
 C89 C 0.23681 0.60700 0.34264
 C90 C 0.22699 0.40946 0.28622
 C91 C 0.17124 0.23667 0.26322
 C92 C 0.06678 0.21618 0.31323
 C93 C 0.06801 0.17391 0.31591
 C94 C 0.17130 0.15152 0.26783
 C95 C 0.27609 0.17279 0.22329
 N96 N 0.27326 0.21423 0.22172
 C97 C 0.17608 0.28181 0.25734
 N98 N 0.28570 0.29922 0.21915
 C99 C 0.30089 0.34020 0.21876
 C100 C 0.20337 0.36619 0.26226
 C101 C 0.08831 0.34937 0.29736
 C102 C 0.07344 0.30735 0.29324
 H103 H -0.01364 0.15862 0.35284
 H104 H 0.35913 0.15660 0.18818
 H105 H 0.39131 0.35228 0.19145
 H106 H 0.01081 0.36875 0.33012
 H107 H -0.01609 0.23184 0.34992
 H108 H -0.01704 0.29568 0.32044
 C109 C 0.69974 0.77888 0.24748
 C110 C 0.74706 0.80248 0.34866
 C111 C 0.74742 0.84485 0.33730
 C112 C 0.70183 0.86337 0.22521
 C113 C 0.64856 0.83875 0.13046
 N114 N 0.64922 0.79772 0.14328
 C115 C 0.70243 0.73412 0.25005
 N116 N 0.60644 0.71396 0.19303
 C117 C 0.60290 0.67276 0.18900
 C118 C 0.70021 0.64925 0.24356
 C119 C 0.80303 0.66932 0.29817
 C120 C 0.80399 0.71184 0.30287
 H121 H 0.78568 0.86300 0.41446
 H122 H 0.61109 0.85202 0.04396
 H123 H 0.52255 0.65842 0.14587
 H124 H 0.88170 0.65216 0.33779
 H125 H 0.78320 0.78838 0.43502
 H126 H 0.88378 0.72704 0.34524
 C127 C 0.81942 0.21976 0.65319
 C128 C 0.92927 0.19761 0.61916
 C129 C 0.92968 0.15529 0.62424
 C130 C 0.82240 0.13480 0.66571
 C131 C 0.71343 0.15775 0.69601
 N132 N 0.71488 0.19906 0.68961
 C133 C 0.81431 0.26489 0.65596
 N134 N 0.71493 0.28370 0.71618
 C135 C 0.70155 0.32483 0.72198
 C136 C 0.79075 0.34970 0.66334
 C137 C 0.89463 0.33128 0.60201
 C138 C 0.90694 0.28896 0.59804
 H139 H 1.01582 0.13867 0.60090
 H140 H 0.62844 0.14303 0.72805
 H141 H 0.61901 0.33797 0.76861
 H142 H 0.96516 0.34961 0.55576
 H143 H 1.01582 0.21230 0.59309
 H144 H 0.98670 0.27578 0.54760
 C145 C 0.31142 0.76732 0.85342
 C146 C 0.36260 0.78942 0.95573
 C147 C 0.35571 0.83181 0.95444
 C148 C 0.29734 0.85246 0.85217
 C149 C 0.25393 0.82904 0.74825
 N150 N 0.26001 0.78772 0.75242
 C151 C 0.31126 0.72243 0.85302
 N152 N 0.21315 0.70263 0.79775
 C153 C 0.21103 0.66136 0.78810
 C154 C 0.31391 0.63774 0.83132
 C155 C 0.41353 0.65747 0.89237
 C156 C 0.41250 0.69974 0.90391
 H157 H 0.39103 0.84828 1.03627
 H158 H 0.21396 0.84345 0.66426
 H159 H 0.13089 0.64712 0.74344
 H160 H 0.49419 0.64023 0.92690
 H161 H 0.40328 0.77417 1.03808
 H162 H 0.49240 0.71454 0.94711
 C163 C 0.31067 0.21988 0.73734
 C164 C 0.28185 0.19466 0.63188
 C165 C 0.27568 0.15254 0.64877
 C166 C 0.30008 0.13550 0.76933
 C167 C 0.33637 0.16138 0.86937
 N168 N 0.33923 0.20220 0.85161
 C169 C 0.30871 0.26504 0.73160
 N170 N 0.35387 0.28612 0.83430
 C171 C 0.35460 0.32744 0.83905
 C172 C 0.30734 0.35020 0.73634
 C173 C 0.25680 0.32942 0.63092
 C174 C 0.25775 0.28693 0.62770
 H175 H 0.24931 0.13342 0.56851
 H176 H 0.35720 0.14938 0.96331
 H177 H 0.39207 0.34248 0.92282
 H178 H 0.21979 0.34601 0.54943
 H179 H 0.26232 0.20684 0.53788
 H180 H 0.21846 0.27194 0.54489
 C181 C 0.81479 0.76436 0.74914
 C182 C 0.71202 0.78737 0.79684
 C183 C 0.71522 0.82979 0.79227
 C184 C 0.82212 0.84947 0.74378
 C185 C 0.91954 0.82504 0.69108
 N186 N 0.91370 0.78381 0.69514
 C187 C 0.81528 0.71949 0.74972
 N188 N 0.86845 0.69902 0.64901
 C189 C 0.86524 0.65786 0.63892
 C190 C 0.80463 0.63484 0.73270
 C191 C 0.75666 0.65503 0.84164
 C192 C 0.76135 0.69744 0.85034
 H193 H 0.63434 0.84705 0.82766
 H194 H 1.00184 0.83858 0.64967
 H195 H 0.90535 0.64322 0.55504
 H196 H 0.71324 0.63815 0.91826
 H197 H 0.62941 0.77279 0.83547
 H198 H 0.72297 0.71281 0.93420
 C199 C 0.19859 0.78114 0.35284
 C200 C 0.09381 0.80267 0.40237
 C201 C 0.08920 0.84495 0.39426
 C202 C 0.18871 0.86582 0.33765
 C203 C 0.29526 0.84337 0.29612
 N204 N 0.29666 0.80203 0.30236
 C205 C 0.20173 0.73629 0.34964
 N206 N 0.25505 0.71653 0.24731
 C207 C 0.26120 0.67520 0.23938
 C208 C 0.21473 0.65147 0.33971
 C209 C 0.15736 0.67130 0.44436
 C210 C 0.15038 0.71361 0.44988
 H211 H 0.00587 0.86125 0.42773
 H212 H 0.37538 0.85854 0.25491
 H213 H 0.30385 0.66097 0.15587
 H214 H 0.12150 0.65404 0.52367
 H215 H 0.01395 0.78693 0.44174
 H216 H 0.10877 0.72834 0.53337
 C217 C 0.67055 0.23106 0.15214
 C218 C 0.62230 0.20896 0.04777
 C219 C 0.63204 0.16654 0.04715
 C220 C 0.69123 0.14581 0.14904
 C221 C 0.73017 0.16893 0.25517
 N222 N 0.72024 0.21017 0.25321
 C223 C 0.67297 0.27624 0.15691
 N224 N 0.72547 0.29404 0.26185
 C225 C 0.73257 0.33499 0.27608
 C226 C 0.68339 0.36093 0.18176
 C227 C 0.63073 0.34368 0.07170
 C228 C 0.62557 0.30138 0.05837
 H229 H 0.59837 0.15025 -0.03621
 H230 H 0.77041 0.15447 0.33903
 H231 H 0.77277 0.34720 0.36313
 H232 H 0.59256 0.36305 -0.00293
 H233 H 0.58021 0.22364 -0.03444
 H234 H 0.58400 0.28914 -0.02758
   
