data_POSCAR
  _audit_creation_date              2014-09-24
  _audit_creation_method            'ToBaCCo'
  _symmetry_space_group_name_H-M    'P1'
  _symmetry_Int_Tables_number       1
  _symmetry_cell_setting            triclinic
  loop_
  _symmetry_equiv_pos_as_xyz
 x,y,z
_cell_length_a 30.6822
_cell_length_b 31.3836
_cell_length_c 11.7244
_cell_angle_alpha 88.834700
_cell_angle_beta 89.795700
_cell_angle_gamma 119.655100
loop_
  _atom_site_label
  _atom_site_type_symbol
  _atom_site_fract_x
  _atom_site_fract_y
  _atom_site_fract_z
C1 C 0.10234 0.45543 0.51756
 C2 C 0.12327 0.45799 0.41088
 C3 C 0.17079 0.46267 0.40128
 C4 C 0.19990 0.46743 0.49847
 C5 C 0.17810 0.46524 0.60665
 C6 C 0.12914 0.45798 0.61526
 C7 C 0.25042 0.47076 0.48481
 C8 C 0.27420 0.46037 0.57686
 C9 C 0.31766 0.45708 0.55683
 C10 C 0.33592 0.46184 0.44622
 C11 C 0.31547 0.47537 0.35564
 C12 C 0.27471 0.48232 0.37602
 H13 H 0.06460 0.44987 0.52478
 H14 H 0.18328 0.46039 0.31659
 H15 H 0.19804 0.46837 0.68454
 H16 H 0.25925 0.45368 0.66286
 H17 H 0.36943 0.45917 0.43219
 H18 H 0.26220 0.49598 0.30552
 C19 C 0.52535 -0.36844 0.49412
 C20 C 0.50855 -0.34936 0.40855
 C21 C 0.51430 -0.30263 0.41716
 C22 C 0.53954 -0.27293 0.51017
 C23 C 0.55644 -0.29277 0.59719
 C24 C 0.54882 -0.34062 0.58841
 C25 C 0.54840 -0.22166 0.51306
 C26 C 0.54732 -0.19993 0.61701
 C27 C 0.55106 -0.15344 0.61708
 C28 C 0.55393 -0.12979 0.51146
 C29 C 0.55356 -0.15146 0.40731
 C30 C 0.55386 -0.19564 0.40918
 H31 H 0.52093 -0.40478 0.48645
 H32 H 0.49957 -0.28954 0.34967
 H33 H 0.57600 -0.27119 0.67001
 H34 H 0.54156 -0.21971 0.69741
 H35 H 0.55373 -0.09538 0.50978
 H36 H 0.55527 -0.21089 0.32823
 C37 C 1.36621 0.88247 0.47676
 C38 C 1.33839 0.86539 0.37690
 C39 C 1.29445 0.81972 0.37904
 C40 C 1.27894 0.78960 0.47883
 C41 C 1.30890 0.80636 0.57674
 C42 C 1.35122 0.85312 0.57775
 C43 C 1.23046 0.74212 0.48221
 C44 C 1.20207 0.72439 0.58442
 C45 C 1.15557 0.68112 0.58692
 C46 C 1.13554 0.65640 0.48636
 C47 C 1.16311 0.67355 0.38376
 C48 C 1.21094 0.71501 0.38264
 H49 H 1.39972 0.91824 0.47555
 H50 H 1.27197 0.80849 0.30299
 H51 H 1.29910 0.78373 0.65374
 H52 H 1.21529 0.74445 0.66247
 H53 H 1.09919 0.62332 0.48813
 H54 H 1.23220 0.72620 0.30325
 C55 C 0.88675 0.58360 0.48564
 C56 C 0.86208 0.57569 0.38059
 C57 C 0.81326 0.56889 0.37877
 C58 C 0.78894 0.56929 0.48092
 C59 C 0.81581 0.57947 0.58419
 C60 C 0.86286 0.58315 0.58862
 C61 C 0.73367 0.55128 0.48546
 C62 C 0.70672 0.52631 0.58549
 C63 C 0.65583 0.50983 0.59720
 C64 C 0.63001 0.51648 0.50799
 C65 C 0.65429 0.53709 0.40365
 C66 C 0.70643 0.55504 0.39171
 H67 H 0.92295 0.58555 0.48827
 H68 H 0.79306 0.55895 0.29945
 H69 H 0.79880 0.58053 0.66425
 H70 H 0.72454 0.51764 0.65462
 H71 H 0.58987 0.50205 0.51638
 H72 H 0.72507 0.57165 0.31125
 C73 C 0.43345 0.32338 0.53523
 C74 C 0.44799 0.31051 0.43383
 C75 C 0.45385 0.26887 0.43226
 C76 C 0.44392 0.23883 0.53131
 C77 C 0.42525 0.25086 0.62919
 C78 C 0.42257 0.29389 0.63257
 C79 C 0.45539 0.19723 0.53682
 C80 C 0.45846 0.17790 0.64438
 C81 C 0.46568 0.13774 0.65389
 C82 C 0.47456 0.11822 0.55830
 C83 C 0.47579 0.13831 0.44967
 C84 C 0.46465 0.17681 0.43841
 H85 H 0.43090 0.35656 0.53891
 H86 H 0.46803 0.26178 0.35475
 H87 H 0.41341 0.22796 0.70554
 H88 H 0.45555 0.19338 0.72336
 H89 H 0.48060 0.08716 0.56947
 H90 H 0.46342 0.19014 0.35353
 C91 C 0.67848 0.11720 0.48850
 C92 C 0.70097 0.14132 0.38514
 C93 C 0.73807 0.19069 0.38592
 C94 C 0.75018 0.21785 0.48731
 C95 C 0.72337 0.19321 0.58921
 C96 C 0.68834 0.14285 0.58983
 C97 C 0.78846 0.27182 0.48502
 C98 C 0.81045 0.29612 0.58683
 C99 C 0.84364 0.34679 0.58695
 C100 C 0.85863 0.37349 0.48426
 C101 C 0.83893 0.35010 0.38152
 C102 C 0.80291 0.30022 0.38194
 H103 H 0.64876 0.07926 0.48862
 H104 H 0.75554 0.20756 0.30500
 H105 H 0.72813 0.21256 0.66730
 H106 H 0.80112 0.27653 0.66807
 H107 H 0.88423 0.41271 0.48410
 H108 H 0.78659 0.28475 0.30122
 O109 O 0.97649 0.55166 -0.24863
 O110 O 1.03175 0.57746 0.14706
 O111 O 0.93590 0.54868 0.09871
 O112 O 1.09202 0.59803 -0.07195
 O113 O 0.95815 0.51432 0.22898
 O114 O 1.06263 0.56654 -0.23607
 O115 O 1.09596 0.57518 0.12529
 O116 O 0.91810 0.53999 -0.11969
 C117 C 0.94032 0.55652 -0.21604
 C118 C 1.07593 0.59657 0.16745
 C119 C 0.93743 0.53897 0.20307
 C120 C 1.08720 0.60366 -0.17544
 O121 O 1.02111 0.46536 -0.20575
 O122 O 0.96822 0.44415 0.13499
 O123 O 0.88898 0.44688 -0.09174
 O124 O 1.06333 0.48323 0.07086
 O125 O 1.04115 0.49939 0.23852
 O126 O 0.93761 0.45618 -0.23746
 O127 O 1.08868 0.51685 -0.13162
 O128 O 0.90186 0.45013 0.11096
 Co129 Co 0.99989 0.51076 -0.21401
 Co130 Co 1.00365 0.51104 0.13328
 Co131 Co 0.91897 0.49896 -0.00214
 Co132 Co 1.07500 0.53987 -0.00509
 O133 O 0.99528 0.51571 -0.03092
 C134 C 1.06314 0.47594 -0.17187
 C135 C 0.92233 0.42641 0.14982
 C136 C 0.89651 0.43272 -0.18404
 C137 C 1.06219 0.47879 0.17954
 O138 O 0.46252 0.40575 -0.20811
 O139 O 0.42908 0.46056 0.16967
 O140 O 0.46293 0.40347 0.15188
 O141 O 0.42986 0.52322 -0.14536
 O142 O 0.50355 0.46233 0.25850
 O143 O 0.42038 0.45646 -0.21850
 O144 O 0.41168 0.50717 0.06483
 O145 O 0.44867 0.37666 -0.03501
 C146 C 0.44073 0.37037 -0.13848
 C147 C 0.39923 0.47440 0.14178
 C148 C 0.48006 0.41761 0.24796
 C149 C 0.40613 0.48709 -0.20780
 O150 O 0.51001 0.53731 -0.24885
 O151 O 0.56335 0.53513 0.13657
 O152 O 0.54625 0.43273 -0.09163
 O153 O 0.51022 0.57039 0.09462
 O154 O 0.49449 0.53824 0.26026
 O155 O 0.55032 0.48476 -0.22414
 O156 O 0.52734 0.58063 -0.09787
 O157 O 0.56370 0.46708 0.10226
 Co158 Co 0.48588 0.47218 -0.20591
 Co159 Co 0.49518 0.49873 0.14716
 Co160 Co 0.50427 0.42519 0.02821
 Co161 Co 0.47078 0.54001 -0.02117
 O162 O 0.48821 0.48098 -0.02040
 C163 C 0.53618 0.57697 -0.19879
 C164 C 0.58612 0.51102 0.13669
 C165 C 0.56718 0.45960 -0.17840
 C166 C 0.49600 0.57196 0.19328
 O167 O 0.59580 0.05524 -0.16083
 O168 O 0.49267 -0.05925 0.24303
 O169 O 0.60221 0.08608 0.12750
 O170 O 0.52871 -0.08271 -0.09363
 O171 O 0.57757 0.01254 0.18784
 O172 O 0.54131 -0.02738 -0.22279
 O173 O 0.52180 -0.08323 0.11341
 O174 O 0.59193 0.11093 -0.06977
 C175 C 0.61409 0.09902 -0.14191
 C176 C 0.51069 -0.08477 0.21620
 C177 C 0.61031 0.05660 0.18485
 C178 C 0.54215 -0.06510 -0.19240
 O179 O 0.46427 -0.01592 -0.21853
 O180 O 0.51667 0.02479 0.30926
 O181 O 0.49328 0.07610 -0.01047
 O182 O 0.42783 -0.08860 0.09143
 O183 O 0.44679 -0.01856 0.16966
 O184 O 0.51661 0.07215 -0.17913
 O185 O 0.44180 -0.08685 -0.12855
 O186 O 0.50741 0.06890 0.17811
 Co187 Co 0.52923 0.02015 -0.17731
 Co188 Co 0.51333 -0.00101 0.17192
 Co189 Co 0.54671 0.07746 0.05076
 Co190 Co 0.48292 -0.07778 -0.00147
 O191 O 0.51838 0.00131 0.00134
 C192 C 0.43686 -0.06162 -0.20954
 C193 C 0.51311 0.06311 0.28270
 C194 C 0.48966 0.08053 -0.11323
 C195 C 0.41483 -0.06213 0.14770
 N196 N 1.09705 0.45158 0.31927
 N197 N 1.07389 0.44415 0.23000
 N198 N 0.49273 0.62701 0.31443
 N199 N 0.48020 0.60588 0.22365
 N200 N 0.35250 -0.10769 0.28232
 N201 N 0.36502 -0.08265 0.19303
 N202 N 0.88239 0.56531 0.28066
 N203 N 0.91678 0.55413 0.29237
 N204 N 0.45929 0.34117 0.33380
 N205 N 0.46982 0.38548 0.34347
 N206 N 0.67672 0.12068 0.27985
 N207 N 0.64850 0.07467 0.26896
 N208 N 0.46227 0.11733 -0.24656
 N209 N 0.45790 0.09867 -0.15139
 N210 N 0.63198 0.48469 -0.31118
 N211 N 0.61055 0.46044 -0.22457
 N212 N 0.85366 0.36924 -0.31595
 N213 N 0.85725 0.38655 -0.22097
 N214 N 0.54470 -0.13327 -0.27840
 N215 N 0.55502 -0.08862 -0.27915
 N216 N 0.34719 0.45280 -0.35419
 N217 N 0.36788 0.48571 -0.27999
 N218 N 1.13098 0.66484 -0.31623
 N219 N 1.11025 0.65256 -0.22180
 N220 N 0.87967 0.57312 -0.30460
 N221 N 0.92346 0.57853 -0.29976
 N222 N 0.41424 0.30851 -0.27027
 N223 N 0.40786 0.32199 -0.17687
 N224 N 0.65764 0.11633 -0.31289
 N225 N 0.65114 0.13382 -0.22105
 N226 N 1.10715 0.45183 -0.28569
 N227 N 1.08462 0.44593 -0.19477
 N228 N 0.56288 0.63966 -0.33171
 N229 N 0.57441 0.61915 -0.25735
 N230 N 0.37926 -0.12972 -0.31911
 N231 N 0.40237 -0.08407 -0.29998
 N232 N 0.54587 -0.13216 0.30133
 N233 N 0.52242 -0.10837 0.30663
 N234 N 0.34080 0.48683 0.24720
 N235 N 0.35683 0.45865 0.21475
 N236 N 1.14361 0.64719 0.28166
 N237 N 1.09762 0.62983 0.25783
 N238 N 0.48783 0.11880 0.35229
 N239 N 0.50190 0.08725 0.36953
 N240 N 0.62234 0.53321 0.31131
 N241 N 0.62863 0.52568 0.20791
 N242 N 0.85544 0.37830 0.27758
 N243 N 0.89825 0.38938 0.23660
   
