data_POSCAR
  _audit_creation_date              2014-09-24
  _audit_creation_method            'ToBaCCo'
  _symmetry_space_group_name_H-M    'P1'
  _symmetry_Int_Tables_number       1
  _symmetry_cell_setting            triclinic
  loop_
  _symmetry_equiv_pos_as_xyz
 x,y,z
_cell_length_a 31.3299
_cell_length_b 30.4472
_cell_length_c 30.6727
_cell_angle_alpha 86.401800
_cell_angle_beta 88.249700
_cell_angle_gamma 119.402000
loop_
  _atom_site_label
  _atom_site_type_symbol
  _atom_site_fract_x
  _atom_site_fract_y
  _atom_site_fract_z
C1 C 0.49054 0.05133 0.06619
 H2 H 0.52894 0.06416 0.05804
 C3 C 0.47745 0.07630 0.09585
 H4 H 0.50642 0.10874 0.10949
 C5 C 0.40699 -0.00396 0.05500
 H6 H 0.37968 -0.03459 0.03834
 C7 C 0.39216 0.01916 0.08535
 H8 H 0.35330 0.00496 0.09229
 N9 N 0.45554 0.01283 0.04565
 C10 C 0.49983 -0.09000 -0.00491
 H11 H 0.49568 -0.08515 -0.03948
 C12 C 0.50991 -0.12768 0.01099
 H13 H 0.51289 -0.15205 -0.01168
 C14 C 0.49863 -0.06529 0.06664
 H15 H 0.49399 -0.04096 0.08818
 C16 C 0.50922 -0.10213 0.08389
 H17 H 0.51335 -0.10517 0.11868
 Zn18 Zn 0.47776 -0.01164 -0.00013
 N19 N 0.49421 -0.05993 0.02295
 C20 C 0.57659 0.04452 -0.03745
 N21 N 0.53376 0.04479 -0.02935
 C22 C 0.53034 0.08710 -0.03900
 C23 C 0.57131 0.13186 -0.05646
 C24 C 0.61844 0.08845 -0.05559
 C25 C 0.38901 -0.08856 -0.02758
 C26 C 0.35284 -0.11323 -0.05663
 C27 C 0.39827 -0.04210 -0.11044
 C28 C 0.43365 -0.01922 -0.08044
 N29 N 0.42836 -0.04239 -0.03982
 H30 H 0.57862 0.01062 -0.02909
 H31 H 0.49591 0.08633 -0.03197
 H32 H 0.56815 0.16545 -0.06327
 H33 H 0.65260 0.08817 -0.06113
 H34 H 0.38576 -0.10638 0.00493
 H35 H 0.32152 -0.14890 -0.04421
 H36 H 0.40613 -0.02259 -0.14279
 H37 H 0.46582 0.01689 -0.09010
 C38 C 0.51467 -0.13427 0.05602
 C39 C 0.42762 0.06088 0.10545
 C40 C 0.35651 -0.09041 -0.09938
 C41 C 0.61616 0.13300 -0.06447
 C42 C -0.04482 0.49729 0.59288
 H43 H -0.04481 0.46175 0.59713
 C44 C -0.07244 0.50432 0.56108
 H45 H -0.09260 0.47427 0.54035
 C46 C -0.01853 0.57930 0.61512
 H47 H 0.00134 0.60788 0.63710
 C48 C -0.04628 0.58759 0.58437
 H49 H -0.04728 0.62265 0.58340
 N50 N -0.01819 0.53475 0.61879
 C51 C 0.08698 0.49462 0.67224
 H52 H 0.07963 0.49568 0.70674
 C53 C 0.12659 0.48881 0.65836
 H54 H 0.14901 0.48435 0.68250
 C55 C 0.06838 0.50227 0.59878
 H56 H 0.04710 0.50989 0.57557
 C57 C 0.10762 0.49644 0.58346
 H58 H 0.11579 0.49923 0.54851
 Zn59 Zn 0.01508 0.52222 0.66419
 N60 N 0.05931 0.50200 0.64250
 C61 C -0.03556 0.42828 0.71865
 N62 N -0.03335 0.47290 0.70542
 C63 C -0.06692 0.48489 0.72131
 C64 C -0.10359 0.45237 0.75296
 C65 C -0.07194 0.39437 0.75035
 C66 C 0.09030 0.62189 0.66565
 C67 C 0.12213 0.66652 0.68374
 C68 C 0.07883 0.62878 0.75442
 C69 C 0.04768 0.58487 0.73493
 N70 N 0.05382 0.58232 0.69124
 H71 H -0.00899 0.41912 0.70499
 H72 H -0.06468 0.52030 0.70967
 H73 H -0.12987 0.46280 0.76519
 H74 H -0.07273 0.35946 0.76133
 H75 H 0.09494 0.61843 0.63117
 H76 H 0.15144 0.69726 0.66292
 H77 H 0.07335 0.63022 0.78921
 H78 H 0.01926 0.55263 0.75495
 C79 C 0.13812 0.49103 0.61340
 C80 C -0.07384 0.54987 0.55671
 C81 C 0.11673 0.67030 0.72874
 C82 C -0.10609 0.40672 0.76833
 C83 C 0.56864 0.46092 0.39385
 H84 H 0.53592 0.42752 0.40815
 C85 C 0.61391 0.47494 0.41107
 H86 H 0.61491 0.45262 0.43945
 C87 C 0.60587 0.53101 0.34045
 H88 H 0.60274 0.55258 0.31264
 C89 C 0.65204 0.54547 0.35567
 H90 H 0.68374 0.57775 0.33867
 N91 N 0.56514 0.49001 0.36022
 C92 C 0.41690 0.46965 0.37228
 H93 H 0.40809 0.46614 0.33839
 C94 C 0.38545 0.47351 0.40321
 H95 H 0.35276 0.47332 0.39256
 C96 C 0.47206 0.47773 0.42631
 H97 H 0.50633 0.48082 0.43529
 C98 C 0.44134 0.48081 0.45837
 H99 H 0.45207 0.48454 0.49173
 Zn100 Zn 0.50278 0.47228 0.33930
 N101 N 0.45941 0.47202 0.38417
 C102 C 0.42949 0.37160 0.32585
 N103 N 0.47729 0.40810 0.31740
 C104 C 0.50879 0.40039 0.29181
 C105 C 0.49230 0.35500 0.27259
 C106 C 0.41129 0.32574 0.30685
 C107 C 0.52110 0.56770 0.30532
 C108 C 0.52692 0.60540 0.27347
 C109 C 0.51083 0.54671 0.21846
 C110 C 0.50470 0.50989 0.25145
 N111 N 0.51035 0.52111 0.29386
 H112 H 0.40518 0.37829 0.34662
 H113 H 0.54661 0.43008 0.28564
 H114 H 0.51763 0.35016 0.25131
 H115 H 0.37297 0.29730 0.31324
 H116 H 0.52522 0.57550 0.33933
 H117 H 0.53589 0.64242 0.28309
 H118 H 0.50621 0.53726 0.18484
 H119 H 0.49558 0.47249 0.24306
 C120 C 0.39769 0.47961 0.44698
 C121 C 0.65661 0.51819 0.39228
 C122 C 0.52204 0.59514 0.22937
 C123 C 0.44282 0.31723 0.27956
 C124 C 0.23086 0.47302 0.54606
 C125 C 0.27302 0.50347 0.56586
 C126 C 0.27336 0.52911 0.60186
 C127 C 0.22842 0.52352 0.61792
 C128 C 0.18433 0.49292 0.59778
 C129 C 0.18572 0.46709 0.56137
 O130 O 0.23885 0.45283 0.51174
 C131 C 0.28715 0.47120 0.50975
 C132 C 0.30972 0.50249 0.54205
 C133 C 0.36021 0.52729 0.54518
 C134 C 0.38870 0.51949 0.51377
 C135 C 0.36650 0.48682 0.48022
 C136 C 0.31470 0.46232 0.47846
 H137 H 0.30712 0.55315 0.61667
 H138 H 0.22828 0.54435 0.64522
 H139 H 0.15280 0.44357 0.54523
 H140 H 0.37719 0.55242 0.57050
 H141 H 0.42819 0.53988 0.51521
 H142 H 0.29625 0.43702 0.45364
 C143 C 0.51233 0.76065 0.13093
 C144 C 0.54158 0.74821 0.10627
 C145 C 0.56361 0.77291 0.06539
 C146 C 0.55500 0.81187 0.04926
 C147 C 0.52444 0.82514 0.07385
 C148 C 0.50293 0.79886 0.11542
 O149 O 0.49503 0.73281 0.16899
 C150 C 0.51373 0.70207 0.16834
 C151 C 0.54232 0.70972 0.13063
 C152 C 0.56484 0.68105 0.12298
 C153 C 0.55766 0.64305 0.15558
 C154 C 0.52873 0.63481 0.19498
 C155 C 0.50651 0.66491 0.20129
 H156 H 0.58678 0.76270 0.04666
 H157 H 0.57259 0.83196 0.01780
 H158 H 0.47883 0.80718 0.13492
 H159 H 0.58709 0.68765 0.09302
 H160 H 0.57517 0.62054 0.15047
 H161 H 0.48381 0.65917 0.23076
 C162 C 0.25651 0.80945 0.84423
 C163 C 0.25385 0.83771 0.80892
 C164 C 0.28333 0.88980 0.80267
 C165 C 0.31730 0.91385 0.83386
 C166 C 0.32192 0.88591 0.87111
 C167 C 0.28969 0.83235 0.87587
 O168 O 0.22645 0.76011 0.84332
 C169 C 0.20423 0.75728 0.80662
 C170 C 0.21962 0.80373 0.78433
 C171 C 0.20216 0.80936 0.74441
 C172 C 0.16764 0.76524 0.72665
 C173 C 0.15142 0.71673 0.74885
 C174 C 0.16990 0.71298 0.78966
 H175 H 0.28033 0.91136 0.77467
 H176 H 0.33818 0.95464 0.82910
 H177 H 0.29177 0.80772 0.90159
 H178 H 0.21498 0.84633 0.72736
 H179 H 0.15356 0.76886 0.69564
 H180 H 0.15907 0.67662 0.80708
 C181 C 0.81925 0.52522 0.48797
 C182 C 0.83339 0.57347 0.47054
 C183 C 0.87802 0.61505 0.47809
 C184 C 0.90906 0.60667 0.50522
 C185 C 0.89474 0.55743 0.52498
 C186 C 0.84915 0.51609 0.51555
 O187 O 0.77509 0.49107 0.47722
 C188 C 0.76092 0.51846 0.45272
 C189 C 0.79511 0.56911 0.44788
 C190 C 0.78670 0.60491 0.42552
 C191 C 0.74116 0.58784 0.40744
 C192 C 0.70522 0.53546 0.41113
 C193 C 0.71591 0.50042 0.43408
 H194 H 0.88850 0.65268 0.46377
 H195 H 0.94414 0.63872 0.51091
 H196 H 0.83626 0.47815 0.53045
 H197 H 0.81377 0.64477 0.42297
 H198 H 0.73379 0.61590 0.39156
 H199 H 0.69016 0.46022 0.43758
 C200 C 0.43202 0.14896 0.18955
 C201 C 0.39143 0.15320 0.18051
 C202 C 0.35998 0.12670 0.14900
 C203 C 0.37127 0.09521 0.12539
 C204 C 0.41323 0.09027 0.13382
 C205 C 0.44326 0.11699 0.16730
 O206 O 0.45941 0.18032 0.21808
 C207 C 0.43569 0.20504 0.22717
 C208 C 0.39362 0.18965 0.20534
 C209 C 0.36459 0.21237 0.20846
 C210 C 0.37998 0.25309 0.23461
 C211 C 0.42403 0.27059 0.25646
 C212 C 0.45176 0.24552 0.25310
 H213 H 0.32889 0.13154 0.14169
 H214 H 0.34834 0.07654 0.09933
 H215 H 0.47539 0.11435 0.17515
 H216 H 0.33198 0.20007 0.19053
 H217 H 0.35875 0.27232 0.23634
 H218 H 0.48564 0.25813 0.26916
 C219 C -0.26876 0.23063 0.86876
 C220 C -0.25854 0.27309 0.88961
 C221 C -0.28703 0.27216 0.92566
 C222 C -0.32796 0.22558 0.94072
 C223 C -0.33943 0.18117 0.91982
 C224 C -0.30899 0.18371 0.88357
 O225 O -0.23832 0.24033 0.83384
 C226 C -0.20828 0.28996 0.83268
 C227 C -0.21905 0.31169 0.86619
 C228 C -0.19342 0.36335 0.87052
 C229 C -0.15546 0.39404 0.83869
 C230 C -0.14405 0.37286 0.80320
 C231 C -0.17055 0.31981 0.80063
 H232 H -0.27847 0.30620 0.94124
 H233 H -0.35080 0.22402 0.96866
 H234 H -0.31732 0.15054 0.86664
 H235 H -0.20270 0.37954 0.89715
 H236 H -0.13512 0.43441 0.84155
 H237 H -0.16328 0.30255 0.77367
   
