data_POSCAR
  _audit_creation_date              2014-09-24
  _audit_creation_method            'ToBaCCo'
  _symmetry_space_group_name_H-M    'P1'
  _symmetry_Int_Tables_number       1
  _symmetry_cell_setting            triclinic
  loop_
  _symmetry_equiv_pos_as_xyz
 x,y,z
_cell_length_a 30.3187
_cell_length_b 30.3188
_cell_length_c 37.8175
_cell_angle_alpha 89.999800
_cell_angle_beta 90.000300
_cell_angle_gamma 90.000000
loop_
  _atom_site_label
  _atom_site_type_symbol
  _atom_site_fract_x
  _atom_site_fract_y
  _atom_site_fract_z
C1 C 1.24997 0.24999 0.25008
 C2 C 0.74998 -0.25001 0.24995
 C3 C 0.74999 0.24999 -0.24999
 C4 C 1.24999 -0.25001 -0.24998
 C5 C 0.24998 0.24998 0.75004
 C6 C 0.74998 0.74998 0.74998
 C7 C 0.74999 0.24999 0.25002
 C8 C 0.24999 0.74999 0.25001
 O9 O 1.08425 0.05037 0.02491
 O10 O 0.91678 -0.05147 0.02458
 O11 O 0.94946 0.08331 0.02443
 O12 O 1.05151 -0.08452 0.02509
 O13 O 0.92507 0.02263 0.04409
 O14 O 1.07588 -0.02376 0.04465
 O15 O 0.97740 -0.07577 0.04442
 O16 O 1.02345 0.07502 0.04420
 C17 C 1.06330 0.06937 0.04887
 C18 C 0.93750 -0.07021 0.04880
 C19 C 0.93044 0.06256 0.04851
 C20 C 1.07063 -0.06372 0.04911
 O21 O 1.08440 -0.05178 -0.02369
 O22 O 0.91688 0.05043 -0.02437
 O23 O 1.05173 0.08309 -0.02404
 O24 O 0.94962 -0.08442 -0.02404
 O25 O 0.92549 -0.02367 -0.04379
 O26 O 1.07634 0.02233 -0.04341
 O27 O 1.02372 -0.07612 -0.04339
 O28 O 0.97768 0.07473 -0.04388
 Co29 Co 1.07257 -0.00070 0.00060
 Co30 Co 0.92872 -0.00053 0.00015
 Co31 Co 1.00058 0.07137 0.00019
 Co32 Co 1.00056 -0.07252 0.00051
 O33 O 1.00062 -0.00059 0.00036
 C34 C 1.06361 -0.07059 -0.04784
 C35 C 0.93775 0.06943 -0.04840
 C36 C 1.07079 0.06222 -0.04801
 C37 C 0.93079 -0.06361 -0.04818
 O38 O 1.07610 0.52374 0.54342
 O39 O 0.92524 0.47770 0.54391
 O40 O 0.97764 0.57636 0.54344
 O41 O 1.02364 0.42551 0.54381
 O42 O 0.91688 0.55175 0.52406
 O43 O 1.08440 0.44964 0.52407
 O44 O 0.94954 0.41690 0.52439
 O45 O 1.05176 0.58442 0.52372
 C46 C 1.07056 0.56363 0.54787
 C47 C 0.93055 0.43777 0.54842
 C48 C 0.93776 0.57081 0.54804
 C49 C 1.06358 0.43081 0.54821
 O50 O 1.07574 0.47742 0.45561
 O51 O 0.92496 0.52348 0.45582
 O52 O 1.02373 0.57590 0.45538
 O53 O 0.97735 0.42509 0.45594
 O54 O 0.91666 0.44948 0.47559
 O55 O 1.08449 0.55153 0.47494
 O56 O 1.05145 0.41680 0.47545
 O57 O 0.94961 0.58428 0.47512
 Co58 Co 1.07250 0.50058 0.49952
 Co59 Co 0.92861 0.50060 0.49984
 Co60 Co 1.00067 0.57260 0.49943
 Co61 Co 1.00050 0.42874 0.49987
 O62 O 1.00056 0.50064 0.49966
 C63 C 1.07018 0.43752 0.45123
 C64 C 0.93060 0.56332 0.45115
 C65 C 1.06369 0.57065 0.45092
 C66 C 0.93742 0.43046 0.45152
 O67 O 0.57473 0.02229 0.54391
 O68 O 0.42388 -0.02376 0.54342
 O69 O 0.47634 0.07448 0.54381
 O70 O 0.52233 -0.07638 0.54344
 O71 O 0.41558 0.05034 0.52406
 O72 O 0.58309 -0.05176 0.52406
 O73 O 0.44822 -0.08443 0.52372
 O74 O 0.55043 0.08309 0.52439
 C75 C 0.56943 0.06222 0.54842
 C76 C 0.42941 -0.06364 0.54787
 C77 C 0.43640 0.06917 0.54821
 C78 C 0.56222 -0.07082 0.54804
 O79 O 0.57502 -0.02349 0.45582
 O80 O 0.42423 0.02257 0.45561
 O81 O 0.52263 0.07490 0.45594
 O82 O 0.47624 -0.07591 0.45538
 O83 O 0.41548 -0.05154 0.47494
 O84 O 0.58332 0.05051 0.47559
 O85 O 0.55037 -0.08429 0.47512
 O86 O 0.44853 0.08319 0.47544
 Co87 Co 0.57137 -0.00061 0.49984
 Co88 Co 0.42748 -0.00059 0.49952
 Co89 Co 0.49947 0.07125 0.49987
 Co90 Co 0.49930 -0.07261 0.49943
 O91 O 0.49941 -0.00065 0.49966
 C92 C 0.56937 -0.06333 0.45115
 C93 C 0.42979 0.06247 0.45123
 C94 C 0.56256 0.06953 0.45152
 C95 C 0.43628 -0.07066 0.45092
 O96 O 0.58319 0.55143 0.02458
 O97 O 0.41571 0.44959 0.02491
 O98 O 0.44845 0.58448 0.02508
 O99 O 0.55051 0.41665 0.02444
 O100 O 0.42408 0.52372 0.04465
 O101 O 0.57489 0.47733 0.04409
 O102 O 0.47651 0.42494 0.04420
 O103 O 0.52256 0.57573 0.04442
 C104 C 0.56246 0.57017 0.04880
 C105 C 0.43666 0.43059 0.04887
 C106 C 0.42933 0.56368 0.04911
 C107 C 0.56952 0.43741 0.04851
 O108 O 0.58308 0.44953 -0.02437
 O109 O 0.41556 0.55174 -0.02369
 O110 O 0.55034 0.58438 -0.02404
 O111 O 0.44823 0.41687 -0.02403
 O112 O 0.42362 0.47763 -0.04341
 O113 O 0.57447 0.52363 -0.04379
 O114 O 0.52229 0.42523 -0.04388
 O115 O 0.47624 0.57608 -0.04340
 Co116 Co 0.57124 0.50049 0.00015
 Co117 Co 0.42739 0.50066 0.00059
 Co118 Co 0.49940 0.57248 0.00051
 Co119 Co 0.49938 0.42859 0.00019
 O120 O 0.49935 0.50055 0.00036
 C121 C 0.56222 0.43053 -0.04840
 C122 C 0.43635 0.57055 -0.04784
 C123 C 0.56917 0.56356 -0.04818
 C124 C 0.42917 0.43774 -0.04801
 C125 C 1.15383 0.10242 0.11234
 C126 C 1.13087 0.12968 0.13584
 C127 C 1.08537 0.13567 0.13186
 C128 C 1.06303 0.11520 0.10399
 C129 C 1.22239 0.22204 0.22754
 C130 C 1.13161 0.08199 0.08444
 C131 C 1.15461 0.15353 0.16262
 C132 C 1.17528 0.17438 0.18407
 C133 C 1.20032 0.19969 0.20803
 C134 C 1.08611 0.08872 0.07968
 H135 H 1.18907 0.09766 0.11515
 H136 H 1.06733 0.15682 0.14986
 H137 H 1.02794 0.12084 0.10103
 H138 H 1.15016 0.06155 0.06627
 C139 C 1.13587 0.58585 0.63134
 C140 C 1.13018 0.63143 0.63507
 C141 C 1.10350 0.65444 0.61117
 C142 C 1.08332 0.63218 0.58316
 C143 C 1.22197 0.72252 0.72745
 C144 C 1.11566 0.56348 0.60337
 C145 C 1.15376 0.65512 0.66203
 C146 C 1.17444 0.67569 0.68366
 C147 C 1.19964 0.70057 0.70781
 C148 C 1.08973 0.58659 0.57869
 H149 H 1.15658 0.56777 0.64964
 H150 H 1.09898 0.68974 0.61378
 H151 H 1.06330 0.65075 0.56470
 H152 H 1.12105 0.52832 0.60064
 C153 C 0.60354 0.15314 0.61137
 C154 C 0.63066 0.13023 0.63502
 C155 C 0.63629 0.08463 0.63123
 C156 C 0.61557 0.06218 0.60349
 C157 C 0.72228 0.22211 0.72737
 C158 C 0.58286 0.13081 0.58360
 C159 C 0.65447 0.15403 0.66189
 C160 C 0.67515 0.17476 0.68349
 C161 C 0.70019 0.19990 0.70768
 C162 C 0.58915 0.08520 0.57908
 H163 H 0.59900 0.18844 0.61400
 H164 H 0.65730 0.06657 0.64932
 H165 H 0.62093 0.02703 0.60073
 H166 H 0.56251 0.14937 0.56537
 C167 C 0.65352 0.60306 0.11183
 C168 C 0.63066 0.62994 0.13568
 C169 C 0.58508 0.63570 0.13207
 C170 C 0.56256 0.61539 0.10422
 C171 C 0.72240 0.72204 0.22741
 C172 C 0.63111 0.58280 0.08395
 C173 C 0.65454 0.65366 0.16245
 C174 C 0.67527 0.67443 0.18391
 C175 C 0.70033 0.69970 0.20788
 C176 C 0.58552 0.58931 0.07956
 H177 H 0.68882 0.59849 0.11436
 H178 H 0.56712 0.65656 0.15034
 H179 H 0.52741 0.62086 0.10155
 H180 H 0.64957 0.56266 0.06551
 C181 C 0.91487 -0.13574 0.13206
 C182 C 0.86929 -0.12997 0.13568
 C183 C 0.84644 -0.10309 0.11183
 C184 C 0.86886 -0.08283 0.08396
 C185 C 0.77755 -0.22206 0.22741
 C186 C 0.93740 -0.11544 0.10421
 C187 C 0.84542 -0.15369 0.16245
 C188 C 0.82469 -0.17446 0.18391
 C189 C 0.79963 -0.19973 0.20788
 C190 C 0.91444 -0.08934 0.07956
 H191 H 0.93283 -0.15661 0.15033
 H192 H 0.81114 -0.09850 0.11437
 H193 H 0.85039 -0.06268 0.06551
 H194 H 0.97255 -0.12092 0.10154
 C195 C 0.86370 0.41536 0.63124
 C196 C 0.86932 0.36976 0.63502
 C197 C 0.89644 0.34684 0.61137
 C198 C 0.91711 0.36917 0.58360
 C199 C 0.77770 0.27788 0.72738
 C200 C 0.88441 0.43781 0.60349
 C201 C 0.84551 0.34596 0.66190
 C202 C 0.82483 0.32523 0.68349
 C203 C 0.79979 0.30009 0.70769
 C204 C 0.91083 0.41479 0.57908
 H205 H 0.84269 0.43342 0.64933
 H206 H 0.90097 0.31155 0.61400
 H207 H 0.93746 0.35062 0.56536
 H208 H 0.87906 0.47297 0.60074
 C209 C 0.39648 -0.15445 0.61116
 C210 C 0.36980 -0.13144 0.63507
 C211 C 0.36412 -0.08586 0.63134
 C212 C 0.38433 -0.06349 0.60337
 C213 C 0.27802 -0.22253 0.72745
 C214 C 0.41665 -0.13219 0.58316
 C215 C 0.34622 -0.15514 0.66203
 C216 C 0.32554 -0.17570 0.68366
 C217 C 0.30035 -0.20058 0.70781
 C218 C 0.41025 -0.08660 0.57869
 H219 H 0.40099 -0.18975 0.61377
 H220 H 0.34341 -0.06778 0.64965
 H221 H 0.37894 -0.02833 0.60065
 H222 H 0.43667 -0.15077 0.56470
 C223 C 0.34613 0.39755 0.11234
 C224 C 0.36908 0.37028 0.13584
 C225 C 0.41459 0.36429 0.13186
 C226 C 0.43693 0.38476 0.10399
 C227 C 0.27756 0.27794 0.22754
 C228 C 0.36836 0.41798 0.08444
 C229 C 0.34535 0.34644 0.16262
 C230 C 0.32467 0.32559 0.18407
 C231 C 0.29963 0.30029 0.20802
 C232 C 0.41385 0.41125 0.07968
 H233 H 0.31089 0.40232 0.11516
 H234 H 0.43262 0.34313 0.14986
 H235 H 0.47202 0.37911 0.10103
 H236 H 0.34980 0.43843 0.06627
 C237 C 0.91534 0.13628 -0.13121
 C238 C 0.86974 0.13066 -0.13500
 C239 C 0.84683 0.10354 -0.11134
 C240 C 0.86915 0.08287 -0.08358
 C241 C 0.77787 0.22228 -0.22736
 C242 C 0.93779 0.11556 -0.10347
 C243 C 0.84595 0.15447 -0.16188
 C244 C 0.82522 0.17515 -0.18347
 C245 C 0.80008 0.20019 -0.20767
 C246 C 0.91477 0.08915 -0.07906
 H247 H 0.93341 0.15728 -0.14931
 H248 H 0.81153 0.09901 -0.11397
 H249 H 0.85060 0.06253 -0.06533
 H250 H 0.97295 0.12091 -0.10072
 C251 C 0.86431 0.58539 0.36816
 C252 C 0.87029 0.63090 0.36419
 C253 C 0.89754 0.65385 0.38770
 C254 C 0.91797 0.63163 0.41559
 C255 C 0.77793 0.72241 0.27248
 C256 C 0.88478 0.56305 0.39603
 C257 C 0.84644 0.65463 0.33741
 C258 C 0.82559 0.67530 0.31596
 C259 C 0.80028 0.70034 0.29200
 C260 C 0.91126 0.58613 0.42035
 H261 H 0.84316 0.56735 0.35016
 H262 H 0.90230 0.68910 0.38488
 H263 H 0.93842 0.65019 0.43376
 H264 H 0.87915 0.52796 0.39899
 C265 C 0.36426 0.08509 0.36796
 C266 C 0.37001 0.13067 0.36435
 C267 C 0.39689 0.15353 0.38820
 C268 C 0.41716 0.13111 0.41607
 C269 C 0.27792 0.22241 0.27262
 C270 C 0.38456 0.06257 0.39581
 C271 C 0.34630 0.15454 0.33757
 C272 C 0.32552 0.17527 0.31612
 C273 C 0.30026 0.20034 0.29215
 C274 C 0.41065 0.08553 0.42046
 H275 H 0.34340 0.06713 0.34969
 H276 H 0.40147 0.18883 0.38567
 H277 H 0.43730 0.14958 0.43452
 H278 H 0.37909 0.02741 0.39848
 C279 C 0.41413 0.63585 -0.13131
 C280 C 0.36855 0.63018 -0.13503
 C281 C 0.34554 0.60350 -0.11113
 C282 C 0.36780 0.58332 -0.08313
 C283 C 0.27747 0.72197 -0.22741
 C284 C 0.43650 0.61564 -0.10334
 C285 C 0.34486 0.65376 -0.16200
 C286 C 0.32429 0.67444 -0.18362
 C287 C 0.29942 0.69964 -0.20778
 C288 C 0.41339 0.58972 -0.07866
 H289 H 0.43222 0.65656 -0.14962
 H290 H 0.31024 0.59899 -0.11374
 H291 H 0.34922 0.56331 -0.06467
 H292 H 0.47166 0.62102 -0.10062
 C293 C 1.08584 -0.13589 -0.13131
 C294 C 1.13142 -0.13020 -0.13504
 C295 C 1.15442 -0.10352 -0.11114
 C296 C 1.13216 -0.08334 -0.08313
 C297 C 1.22251 -0.22198 -0.22742
 C298 C 1.06347 -0.11568 -0.10334
 C299 C 1.15511 -0.15378 -0.16200
 C300 C 1.17568 -0.17446 -0.18363
 C301 C 1.20056 -0.19965 -0.20778
 C302 C 1.08657 -0.08975 -0.07866
 H303 H 1.06776 -0.15660 -0.14962
 H304 H 1.18972 -0.09899 -0.11375
 H305 H 1.15073 -0.06332 -0.06467
 H306 H 1.02831 -0.12107 -0.10062
 C307 C 1.10306 0.34647 0.38819
 C308 C 1.12994 0.36932 0.36434
 C309 C 1.13571 0.41489 0.36796
 C310 C 1.11541 0.43742 0.39581
 C311 C 1.22203 0.27756 0.27261
 C312 C 1.08280 0.36888 0.41607
 C313 C 1.15366 0.34544 0.33757
 C314 C 1.17443 0.32471 0.31611
 C315 C 1.19969 0.29964 0.29214
 C316 C 1.08932 0.41446 0.42046
 H317 H 1.09847 0.31116 0.38566
 H318 H 1.15658 0.43285 0.34969
 H319 H 1.12089 0.47257 0.39848
 H320 H 1.06265 0.35042 0.43451
 C321 C 0.60241 -0.15386 0.38769
 C322 C 0.62967 -0.13091 0.36419
 C323 C 0.63566 -0.08540 0.36816
 C324 C 0.61519 -0.06306 0.39603
 C325 C 0.72202 -0.22243 0.27248
 C326 C 0.58198 -0.13164 0.41558
 C327 C 0.65352 -0.15465 0.33741
 C328 C 0.67436 -0.17532 0.31596
 C329 C 0.69967 -0.20036 0.29200
 C330 C 0.58871 -0.08614 0.42035
 H331 H 0.59765 -0.18911 0.38487
 H332 H 0.65682 -0.06737 0.35016
 H333 H 0.62083 -0.02797 0.39899
 H334 H 0.56154 -0.15019 0.43376
 C335 C 0.58462 0.36368 -0.13121
 C336 C 0.63022 0.36931 -0.13500
 C337 C 0.65314 0.39644 -0.11135
 C338 C 0.63081 0.41711 -0.08358
 C339 C 0.72211 0.27770 -0.22736
 C340 C 0.56218 0.38440 -0.10347
 C341 C 0.65402 0.34550 -0.16188
 C342 C 0.67475 0.32483 -0.18347
 C343 C 0.69990 0.29979 -0.20767
 C344 C 0.58520 0.41081 -0.07906
 H345 H 0.56656 0.34268 -0.14931
 H346 H 0.68843 0.40098 -0.11398
 H347 H 0.64936 0.43746 -0.06534
 H348 H 0.52702 0.37904 -0.10071
 C349 C 1.10377 0.15301 -0.11137
 C350 C 1.13102 0.13018 -0.13498
 C351 C 1.13711 0.08467 -0.13103
 C352 C 1.11674 0.06222 -0.10315
 C353 C 1.22216 0.22224 -0.22736
 C354 C 1.08344 0.13067 -0.08347
 C355 C 1.15458 0.15404 -0.16192
 C356 C 1.17511 0.17483 -0.18353
 C357 C 1.20006 0.20003 -0.20770
 C358 C 1.09022 0.08516 -0.07878
 H359 H 1.09890 0.18824 -0.11414
 H360 H 1.15824 0.06671 -0.14910
 H361 H 1.12244 0.02713 -0.10025
 H362 H 1.06298 0.14915 -0.06526
 C363 C 1.08618 0.63762 0.36807
 C364 C 1.13183 0.63220 0.36434
 C365 C 1.15477 0.60523 0.38812
 C366 C 1.13243 0.58450 0.41588
 C367 C 1.22355 0.72367 0.27149
 C368 C 1.06373 0.61685 0.39582
 C369 C 1.15560 0.65595 0.33734
 C370 C 1.17625 0.67656 0.31561
 C371 C 1.20133 0.70155 0.29126
 C372 C 1.08676 0.59055 0.42031
 H373 H 1.06807 0.65849 0.34991
 H374 H 1.19009 0.60083 0.38556
 H375 H 1.15101 0.56427 0.43418
 H376 H 1.02854 0.62205 0.39848
 C377 C 0.65359 0.10339 0.38865
 C378 C 0.63067 0.13035 0.36489
 C379 C 0.58507 0.13596 0.36858
 C380 C 0.56260 0.11538 0.39635
 C381 C 0.72229 0.22213 0.27262
 C382 C 0.63123 0.08285 0.41645
 C383 C 0.65447 0.15410 0.33802
 C384 C 0.67515 0.17481 0.31644
 C385 C 0.70019 0.19993 0.29228
 C386 C 0.58561 0.08913 0.42088
 H387 H 0.68890 0.09889 0.38608
 H388 H 0.56703 0.15685 0.35038
 H389 H 0.52743 0.12071 0.39903
 H390 H 0.64976 0.06261 0.43479
 C391 C 0.60331 0.65443 -0.11111
 C392 C 0.62997 0.63132 -0.13499
 C393 C 0.63523 0.58568 -0.13136
 C394 C 0.61463 0.56334 -0.10353
 C395 C 0.72212 0.72230 -0.22741
 C396 C 0.58275 0.63219 -0.08326
 C397 C 0.65381 0.65495 -0.16190
 C398 C 0.67461 0.67545 -0.18352
 C399 C 0.69985 0.70030 -0.20772
 C400 C 0.58871 0.58652 -0.07889
 H401 H 0.59909 0.68977 -0.11364
 H402 H 0.65589 0.56750 -0.14963
 H403 H 0.61971 0.52812 -0.10089
 H404 H 0.56276 0.65085 -0.06482
 C405 C 0.86472 -0.08572 -0.13135
 C406 C 0.86999 -0.13137 -0.13498
 C407 C 0.89664 -0.15447 -0.11111
 C408 C 0.91721 -0.13223 -0.08326
 C409 C 0.77783 -0.22234 -0.22740
 C410 C 0.88532 -0.06338 -0.10353
 C411 C 0.84615 -0.15499 -0.16190
 C412 C 0.82534 -0.17549 -0.18352
 C413 C 0.80010 -0.20034 -0.20772
 C414 C 0.91125 -0.08656 -0.07889
 H415 H 0.84406 -0.06754 -0.14963
 H416 H 0.90087 -0.18981 -0.11364
 H417 H 0.93720 -0.15089 -0.06482
 H418 H 0.88024 -0.02817 -0.10089
 C419 C 0.84639 0.39659 0.38865
 C420 C 0.86931 0.36964 0.36488
 C421 C 0.91491 0.36404 0.36857
 C422 C 0.93738 0.38462 0.39635
 C423 C 0.77770 0.27784 0.27262
 C424 C 0.86875 0.41713 0.41645
 C425 C 0.84551 0.34588 0.33802
 C426 C 0.82484 0.32518 0.31644
 C427 C 0.79980 0.30005 0.29228
 C428 C 0.91437 0.41086 0.42088
 H429 H 0.81108 0.40108 0.38609
 H430 H 0.93295 0.34315 0.35038
 H431 H 0.97256 0.37930 0.39903
 H432 H 0.85022 0.43736 0.43480
 C433 C 0.41380 -0.13763 0.36807
 C434 C 0.36815 -0.13221 0.36434
 C435 C 0.34521 -0.10526 0.38812
 C436 C 0.36755 -0.08452 0.41588
 C437 C 0.27643 -0.22370 0.27149
 C438 C 0.43625 -0.11686 0.39581
 C439 C 0.34438 -0.15596 0.33733
 C440 C 0.32373 -0.17658 0.31561
 C441 C 0.29865 -0.20157 0.29126
 C442 C 0.41322 -0.09056 0.42031
 H443 H 0.43191 -0.15849 0.34990
 H444 H 0.30989 -0.10086 0.38556
 H445 H 0.34896 -0.06429 0.43418
 H446 H 0.47144 -0.12204 0.39848
 C447 C 0.39618 0.34695 -0.11137
 C448 C 0.36894 0.36977 -0.13498
 C449 C 0.36284 0.41528 -0.13103
 C450 C 0.38322 0.43774 -0.10315
 C451 C 0.27780 0.27772 -0.22736
 C452 C 0.41651 0.36929 -0.08347
 C453 C 0.34538 0.34591 -0.16192
 C454 C 0.32484 0.32512 -0.18353
 C455 C 0.29989 0.29993 -0.20770
 C456 C 0.40974 0.41480 -0.07877
 H457 H 0.40106 0.31171 -0.11414
 H458 H 0.34172 0.43325 -0.14910
 H459 H 0.37752 0.47283 -0.10025
 H460 H 0.43698 0.35081 -0.06526
 C461 C 1.10523 -0.15479 0.11190
 C462 C 1.13219 -0.13185 0.13568
 C463 C 1.13761 -0.08621 0.13195
 C464 C 1.11683 -0.06375 0.10421
 C465 C 1.22368 -0.22357 0.22853
 C466 C 1.08449 -0.13245 0.08414
 C467 C 1.15594 -0.15562 0.16269
 C468 C 1.17656 -0.17628 0.18441
 C469 C 1.20155 -0.20136 0.20876
 C470 C 1.09053 -0.08678 0.07972
 H471 H 1.10083 -0.19011 0.11446
 H472 H 1.15847 -0.06809 0.15012
 H473 H 1.12202 -0.02856 0.10155
 H474 H 1.06426 -0.15104 0.06584
 C475 C 1.15444 0.39665 0.61114
 C476 C 1.13134 0.37000 0.63501
 C477 C 1.08569 0.36474 0.63138
 C478 C 1.06335 0.38534 0.60355
 C479 C 1.22230 0.27784 0.72743
 C480 C 1.13221 0.41723 0.58328
 C481 C 1.15496 0.34616 0.66192
 C482 C 1.17546 0.32535 0.68354
 C483 C 1.20031 0.30011 0.70775
 C484 C 1.08654 0.41127 0.57891
 H485 H 1.18979 0.40088 0.61366
 H486 H 1.06751 0.34408 0.64965
 H487 H 1.02814 0.38027 0.60092
 H488 H 1.15087 0.43721 0.56485
 C489 C 0.58467 -0.13714 0.63106
 C490 C 0.63019 -0.13106 0.63500
 C491 C 0.65301 -0.10382 0.61139
 C492 C 0.63068 -0.08349 0.58349
 C493 C 0.72223 -0.22220 0.72738
 C494 C 0.56222 -0.11676 0.60318
 C495 C 0.65404 -0.15462 0.66194
 C496 C 0.67483 -0.17516 0.68356
 C497 C 0.70003 -0.20010 0.70773
 C498 C 0.58516 -0.09025 0.57880
 H499 H 0.56670 -0.15826 0.64913
 H500 H 0.68825 -0.09895 0.61416
 H501 H 0.64915 -0.06303 0.56528
 H502 H 0.52713 -0.12245 0.60029
 C503 C 0.60340 0.34637 0.11137
 C504 C 0.63035 0.36929 0.13514
 C505 C 0.63594 0.41490 0.13146
 C506 C 0.61536 0.43737 0.10368
 C507 C 0.72214 0.27769 0.22741
 C508 C 0.58286 0.36873 0.08357
 C509 C 0.65410 0.34550 0.16201
 C510 C 0.67481 0.32483 0.18359
 C511 C 0.69994 0.29979 0.20775
 C512 C 0.58913 0.41436 0.07915
 H513 H 0.59891 0.31106 0.11394
 H514 H 0.65683 0.43294 0.14965
 H515 H 0.62068 0.47254 0.10100
 H516 H 0.56263 0.35020 0.06523
 C517 C 0.86403 0.08507 0.13146
 C518 C 0.86963 0.13067 0.13514
 C519 C 0.89658 0.15359 0.11137
 C520 C 0.91712 0.13123 0.08357
 C521 C 0.77785 0.22228 0.22741
 C522 C 0.88461 0.06260 0.10368
 C523 C 0.84588 0.15447 0.16201
 C524 C 0.82518 0.17514 0.18359
 C525 C 0.80005 0.20018 0.20775
 C526 C 0.91084 0.08561 0.07915
 H527 H 0.84314 0.06703 0.14965
 H528 H 0.90107 0.18890 0.11394
 H529 H 0.93734 0.14976 0.06522
 H530 H 0.87929 0.02742 0.10100
 C531 C 0.91529 0.63713 0.63106
 C532 C 0.86978 0.63103 0.63501
 C533 C 0.84696 0.60379 0.61140
 C534 C 0.86930 0.58346 0.58349
 C535 C 0.77772 0.72216 0.72739
 C536 C 0.93775 0.61675 0.60318
 C537 C 0.84592 0.65459 0.66195
 C538 C 0.82513 0.67512 0.68356
 C539 C 0.79993 0.70007 0.70773
 C540 C 0.91481 0.59023 0.57880
 H541 H 0.93326 0.65825 0.64913
 H542 H 0.81173 0.59891 0.61416
 H543 H 0.85082 0.56300 0.56528
 H544 H 0.97284 0.62245 0.60029
 C545 C 0.41428 0.13524 0.63138
 C546 C 0.36863 0.12997 0.63501
 C547 C 0.34554 0.10331 0.61114
 C548 C 0.36777 0.08275 0.58328
 C549 C 0.27766 0.22212 0.72743
 C550 C 0.43662 0.11465 0.60355
 C551 C 0.34501 0.15381 0.66192
 C552 C 0.32451 0.17461 0.68355
 C553 C 0.29966 0.19985 0.70775
 C554 C 0.41344 0.08871 0.57891
 H555 H 0.43246 0.15591 0.64965
 H556 H 0.31019 0.09908 0.61367
 H557 H 0.34911 0.06276 0.56485
 H558 H 0.47183 0.11973 0.60091
 C559 C 0.39475 0.65475 0.11191
 C560 C 0.36779 0.63181 0.13568
 C561 C 0.36236 0.58617 0.13195
 C562 C 0.38313 0.56372 0.10421
 C563 C 0.27631 0.72355 0.22853
 C564 C 0.41548 0.63241 0.08415
 C565 C 0.34404 0.65559 0.16269
 C566 C 0.32342 0.67625 0.18441
 C567 C 0.29843 0.70133 0.20876
 C568 C 0.40944 0.58674 0.07972
 H569 H 0.39916 0.69007 0.11447
 H570 H 0.34150 0.56806 0.15012
 H571 H 0.37794 0.52853 0.10155
 H572 H 0.43572 0.65100 0.06584
   
