data_POSCAR
  _audit_creation_date              2014-09-24
  _audit_creation_method            'ToBaCCo'
  _symmetry_space_group_name_H-M    'P1'
  _symmetry_Int_Tables_number       1
  _symmetry_cell_setting            triclinic
  loop_
  _symmetry_equiv_pos_as_xyz
 x,y,z
_cell_length_a 28.0284
_cell_length_b 27.8961
_cell_length_c 28.0379
_cell_angle_alpha 89.001100
_cell_angle_beta 90.418800
_cell_angle_gamma 91.118200
loop_
  _atom_site_label
  _atom_site_type_symbol
  _atom_site_fract_x
  _atom_site_fract_y
  _atom_site_fract_z
N1 N 0.53784 0.11385 0.00454
 N2 N 0.57214 0.14459 0.01609
 N3 N 0.43709 0.09387 -0.03791
 N4 N 0.39711 0.10992 -0.05664
 N5 N 0.43818 0.10007 0.00826
 N6 N 0.39879 0.12051 0.02242
 N7 N 0.53632 0.10796 -0.04167
 N8 N 0.56948 0.13446 -0.06305
 C9 C 0.59149 0.15716 -0.02654
 C10 C 0.37351 0.12636 -0.01858
 N11 N 0.44923 -0.03213 -0.09431
 N12 N 0.41186 -0.05481 -0.11347
 N13 N 0.54289 0.02841 -0.10285
 N14 N 0.57573 0.04938 -0.12946
 N15 N 0.55016 -0.01769 -0.09781
 N16 N 0.59139 -0.02921 -0.12299
 N17 N 0.44439 0.01442 -0.09902
 N18 N 0.40418 0.02481 -0.12068
 Mn19 Mn 0.49014 0.06124 -0.07064
 C20 C 0.38420 -0.01832 -0.12972
 C21 C 0.60539 0.01426 -0.14188
 N22 N 0.44954 0.03891 0.08977
 N23 N 0.41725 0.05648 0.11794
 N24 N 0.55468 0.00609 0.09298
 N25 N 0.59138 -0.00122 0.12197
 N26 N 0.54815 0.05218 0.08642
 N27 N 0.58123 0.07833 0.11311
 N28 N 0.45418 -0.00734 0.09734
 N29 N 0.42450 -0.02243 0.13133
 Mn30 Mn 0.49345 0.07657 0.04743
 C31 C 0.40145 0.01807 0.14344
 C32 C 0.60742 0.04343 0.13405
 N33 N 0.56036 -0.08229 -0.01520
 N34 N 0.59575 -0.11008 -0.02779
 N35 N 0.46129 -0.08925 0.03455
 N36 N 0.42953 -0.11766 0.05590
 N37 N 0.46045 -0.09578 -0.01184
 N38 N 0.42799 -0.12883 -0.02305
 N39 N 0.56107 -0.07601 0.03122
 N40 N 0.59692 -0.09913 0.05112
 Mn41 Mn 0.50521 -0.05767 -0.05536
 Mn42 Mn 0.50783 -0.04211 0.06452
 Cl43 Cl 0.49923 0.00917 -0.00339
 C44 C 0.61864 -0.11995 0.01399
 C45 C 0.40889 -0.14216 0.01961
 N46 N 0.08817 0.43946 0.03676
 N47 N 0.10809 0.40385 0.06056
 N48 N 0.10685 0.52933 -0.02749
 N49 N 0.13735 0.55852 -0.04972
 N50 N 0.10713 0.53753 0.01847
 N51 N 0.13784 0.57249 0.02870
 N52 N 0.08749 0.43117 -0.00917
 N53 N 0.10695 0.38962 -0.01790
 C54 C 0.11934 0.37285 0.02602
 C55 C 0.15658 0.58524 -0.01424
 N56 N -0.01083 0.53759 -0.10215
 N57 N -0.01981 0.57455 -0.13048
 N58 N 0.01590 0.43106 -0.08402
 N59 N 0.02578 0.39357 -0.11024
 N60 N -0.03008 0.43937 -0.08541
 N61 N -0.05251 0.40762 -0.11236
 N62 N 0.03498 0.52881 -0.10118
 N63 N 0.05925 0.56154 -0.13062
 Mn64 Mn 0.06172 0.47988 -0.05573
 C65 C 0.02335 0.58884 -0.14791
 C66 C -0.01742 0.37877 -0.12717
 N67 N 0.03635 0.56136 0.08736
 N68 N 0.05938 0.59679 0.10860
 N69 N -0.02833 0.47096 0.10415
 N70 N -0.05124 0.44132 0.13373
 N71 N 0.01769 0.46317 0.10564
 N72 N 0.02729 0.42799 0.13618
 N73 N -0.00965 0.56920 0.08586
 N74 N -0.01921 0.61019 0.10601
 Mn75 Mn 0.06274 0.50042 0.06246
 C76 C 0.02426 0.62718 0.11971
 C77 C -0.01607 0.41472 0.15363
 N78 N -0.10043 0.46383 -0.01573
 N79 N -0.13085 0.42892 -0.02618
 N80 N -0.08239 0.56967 0.01251
 N81 N -0.10850 0.60726 0.02215
 N82 N -0.08250 0.56194 -0.03358
 N83 N -0.10865 0.59409 -0.05632
 N84 N -0.10012 0.47162 0.03031
 N85 N -0.13033 0.44228 0.05249
 Mn86 Mn -0.05627 0.50070 -0.05959
 Mn87 Mn -0.05543 0.52052 0.05861
 Cl88 Cl 0.00311 0.50038 0.00136
 C89 C -0.14929 0.41594 0.01674
 C90 C -0.12416 0.62266 -0.02126
 N91 N 0.03246 0.08657 0.45429
 N92 N 0.05311 0.11444 0.42169
 N93 N -0.01386 0.08594 0.55470
 N94 N -0.02567 0.11433 0.58990
 N95 N 0.03256 0.07964 0.55457
 N96 N 0.05329 0.10351 0.58956
 N97 N -0.01397 0.09284 0.45422
 N98 N -0.02588 0.12534 0.42151
 C99 C 0.01640 0.13834 0.40127
 C100 C 0.01663 0.12481 0.61162
 N101 N -0.10129 -0.02589 0.54825
 N102 N -0.12466 -0.04447 0.58469
 N103 N -0.09686 0.02790 0.44985
 N104 N -0.11811 0.04729 0.41175
 N105 N -0.10203 -0.01893 0.44926
 N106 N -0.12626 -0.03270 0.41166
 N107 N -0.09645 0.02082 0.55174
 N108 N -0.11706 0.03521 0.59138
 Mn109 Mn -0.05589 0.05761 0.50262
 C110 C -0.13449 -0.00637 0.61141
 C111 C -0.13628 0.00844 0.38836
 N112 N 0.09471 -0.00265 0.55085
 N113 N 0.12660 0.00656 0.58471
 N114 N 0.08704 -0.04197 0.44790
 N115 N 0.11247 -0.06098 0.41414
 N116 N 0.09491 0.00449 0.44997
 N117 N 0.12647 0.01824 0.41725
 N118 N 0.08791 -0.04916 0.54713
 N119 N 0.11511 -0.07276 0.57754
 Mn120 Mn 0.06415 0.04250 0.50247
 C121 C 0.13861 -0.03773 0.60116
 C122 C 0.13670 -0.02322 0.39492
 N123 N -0.04089 -0.09853 0.44440
 N124 N -0.06096 -0.11656 0.40585
 N125 N 0.00590 -0.11153 0.54423
 N126 N 0.01880 -0.14037 0.57959
 N127 N -0.04032 -0.10567 0.54429
 N128 N -0.06036 -0.13031 0.57953
 N129 N 0.00536 -0.10418 0.44396
 N130 N 0.01824 -0.12615 0.40499
 Mn131 Mn -0.07141 -0.06231 0.49658
 Mn132 Mn 0.04672 -0.07701 0.49581
 Cl133 Cl -0.00398 -0.00945 0.49940
 C134 C -0.02360 -0.13369 0.38160
 C135 C -0.02305 -0.15175 0.60126
 C136 C -0.34877 0.21423 0.00742
 C137 C -0.31153 0.24789 0.00195
 C138 C -0.29337 0.25851 -0.04406
 C139 C -0.31248 0.23486 -0.08374
 C140 C -0.34979 0.20150 -0.07798
 C141 C -0.36836 0.19127 -0.03247
 C142 C -0.25685 0.29296 -0.04974
 C143 C -0.23862 0.31721 -0.01006
 C144 C -0.25646 0.30630 0.03602
 C145 C -0.29268 0.27152 0.04176
 C146 C -0.23811 0.33082 0.07552
 C147 C -0.20287 0.36636 0.06933
 C148 C -0.18547 0.37772 0.02360
 C149 C -0.20317 0.35271 -0.01589
 H150 H -0.36287 0.20637 0.04267
 H151 H -0.29889 0.24247 -0.11921
 H152 H -0.36429 0.18393 -0.10919
 H153 H -0.24307 0.30133 -0.08504
 H154 H -0.30660 0.26329 0.07703
 H155 H -0.25129 0.32283 0.11108
 H156 H -0.18946 0.38515 0.10030
 H157 H -0.18978 0.36120 -0.05129
 C158 C 0.35199 0.79499 -0.01261
 C159 C 0.31649 0.75913 -0.00559
 C160 C 0.29947 0.74891 0.04094
 C161 C 0.31801 0.77477 0.07951
 C162 C 0.35329 0.81019 0.07227
 C163 C 0.37080 0.82062 0.02632
 C164 C 0.26438 0.71290 0.04827
 C165 C 0.24604 0.68675 0.00969
 C166 C 0.26287 0.69705 -0.03688
 C167 C 0.29790 0.73317 -0.04424
 C168 C 0.24445 0.67090 -0.07535
 C169 C 0.20991 0.63474 -0.06784
 C170 C 0.19303 0.62393 -0.02173
 C171 C 0.21124 0.65030 0.01694
 H172 H 0.36515 0.80270 -0.04823
 H173 H 0.30536 0.76748 0.11539
 H174 H 0.36700 0.82938 0.10285
 H175 H 0.25151 0.70512 0.08402
 H176 H 0.31081 0.74091 -0.07998
 H177 H 0.25684 0.67832 -0.11130
 H178 H 0.19643 0.61513 -0.09826
 H179 H 0.19845 0.64242 0.05268
 C180 C 0.30714 0.17031 0.01840
 C181 C 0.26675 0.19884 0.01395
 C182 C 0.24581 0.20664 -0.03153
 C183 C 0.26427 0.18400 -0.07139
 C184 C 0.30491 0.15623 -0.06675
 C185 C 0.32738 0.15039 -0.02214
 C186 C 0.20834 0.23873 -0.03686
 C187 C 0.19268 0.26429 0.00241
 C188 C 0.21220 0.25503 0.04826
 C189 C 0.24863 0.22173 0.05386
 C190 C 0.19664 0.28107 0.08730
 C191 C 0.16441 0.31811 0.08045
 C192 C 0.14704 0.32927 0.03455
 C193 C 0.15979 0.30097 -0.00399
 H194 H 0.32408 0.16556 0.05301
 H195 H 0.24839 0.18923 -0.10641
 H196 H 0.31961 0.14058 -0.09839
 H197 H 0.19313 0.24567 -0.07195
 H198 H 0.26450 0.21552 0.08878
 H199 H 0.21087 0.27415 0.12274
 H200 H 0.15456 0.33921 0.11077
 H201 H 0.14616 0.30911 -0.03945
 C202 C -0.32091 0.82371 -0.01950
 C203 C -0.28363 0.79088 -0.01280
 C204 C -0.26548 0.78179 0.03364
 C205 C -0.28419 0.80618 0.07234
 C206 C -0.32111 0.83856 0.06543
 C207 C -0.34028 0.84740 0.01970
 C208 C -0.22938 0.74807 0.04085
 C209 C -0.21111 0.72298 0.00225
 C210 C -0.22860 0.73258 -0.04432
 C211 C -0.26463 0.76648 -0.05158
 C212 C -0.21016 0.70758 -0.08283
 C213 C -0.17555 0.67272 -0.07526
 C214 C -0.15854 0.66204 -0.02905
 C215 C -0.17616 0.68788 0.00956
 H216 H -0.33525 0.83022 -0.05497
 H217 H -0.27061 0.79983 0.10813
 H218 H -0.33510 0.85633 0.09623
 H219 H -0.21593 0.74094 0.07659
 H220 H -0.27826 0.77341 -0.08729
 H221 H -0.22295 0.71455 -0.11880
 H222 H -0.16257 0.65356 -0.10567
 H223 H -0.16333 0.68011 0.04538
 C224 C -0.00802 -0.30433 0.16390
 C225 C -0.00248 -0.26858 0.19795
 C226 C 0.04350 -0.25726 0.21615
 C227 C 0.08335 -0.28056 0.19844
 C228 C 0.07737 -0.31689 0.16519
 C229 C 0.03155 -0.32992 0.14882
 C230 C 0.04860 -0.22463 0.25328
 C231 C 0.00816 -0.20452 0.27343
 C232 C -0.03765 -0.21463 0.25414
 C233 C -0.04258 -0.24600 0.21595
 C234 C -0.07801 -0.19483 0.27473
 C235 C -0.07327 -0.16723 0.31556
 C236 C -0.02810 -0.15873 0.33606
 C237 C 0.01263 -0.17624 0.31400
 H238 H -0.04348 -0.31399 0.15116
 H239 H 0.11888 -0.27207 0.21172
 H240 H 0.10843 -0.33591 0.15360
 H241 H 0.08373 -0.21670 0.26799
 H242 H -0.07781 -0.25461 0.20184
 H243 H -0.11332 -0.20195 0.26020
 H244 H -0.10510 -0.15359 0.33178
 H245 H 0.04765 -0.16946 0.32943
 C246 C 0.01372 0.31487 0.81925
 C247 C 0.00633 0.28019 0.78378
 C248 C -0.04043 0.26999 0.76701
 C249 C -0.07899 0.29402 0.78651
 C250 C -0.07135 0.32851 0.82150
 C251 C -0.02502 0.33973 0.83794
 C252 C -0.04787 0.23646 0.73063
 C253 C -0.00910 0.21304 0.71051
 C254 C 0.03758 0.22278 0.72778
 C255 C 0.04498 0.25612 0.76429
 C256 C 0.07626 0.19936 0.70784
 C257 C 0.06904 0.16720 0.67068
 C258 C 0.02300 0.15764 0.65253
 C259 C -0.01611 0.18047 0.67301
 H260 H 0.04964 0.32311 0.83158
 H261 H -0.11510 0.28658 0.77425
 H262 H -0.10185 0.34692 0.83530
 H263 H -0.08375 0.22903 0.71763
 H264 H 0.08089 0.26373 0.77713
 H265 H 0.11226 0.20624 0.72070
 H266 H 0.09979 0.15010 0.65579
 H267 H -0.05182 0.17338 0.65947
 C268 C 0.01421 0.34822 0.20664
 C269 C 0.00665 0.31128 0.24075
 C270 C -0.03989 0.30146 0.25798
 C271 C -0.07807 0.32856 0.24047
 C272 C -0.07026 0.36518 0.20649
 C273 C -0.02412 0.37554 0.18937
 C274 C -0.04745 0.26490 0.29248
 C275 C -0.00903 0.23803 0.31010
 C276 C 0.03742 0.24774 0.29251
 C277 C 0.04494 0.28417 0.25801
 C278 C 0.07579 0.22102 0.30996
 C279 C 0.06851 0.18535 0.34485
 C280 C 0.02271 0.17547 0.36309
 C281 C -0.01611 0.20184 0.34525
 H282 H 0.04995 0.35570 0.19361
 H283 H -0.11400 0.32153 0.25314
 H284 H -0.10042 0.38554 0.19372
 H285 H -0.08314 0.25756 0.30577
 H286 H 0.08065 0.29157 0.24477
 H287 H 0.11159 0.22791 0.29682
 H288 H 0.09901 0.16561 0.35778
 H289 H -0.05161 0.19457 0.35899
 C290 C -0.00972 -0.34785 0.80500
 C291 C -0.00391 -0.31107 0.77094
 C292 C 0.04194 -0.30003 0.75268
 C293 C 0.08143 -0.32531 0.76968
 C294 C 0.07541 -0.36211 0.80357
 C295 C 0.02965 -0.37436 0.82108
 C296 C 0.04742 -0.26459 0.71708
 C297 C 0.00749 -0.24058 0.69917
 C298 C -0.03825 -0.25100 0.71819
 C299 C -0.04359 -0.28594 0.75419
 C300 C -0.07810 -0.22704 0.70011
 C301 C -0.07293 -0.19402 0.66255
 C302 C -0.02782 -0.18437 0.64269
 C303 C 0.01240 -0.20711 0.66170
 H304 H -0.04527 -0.35617 0.81822
 H305 H 0.11687 -0.31710 0.75627
 H306 H 0.10669 -0.38133 0.81542
 H307 H 0.08251 -0.25646 0.70261
 H308 H -0.07875 -0.29433 0.76839
 H309 H -0.11334 -0.23443 0.71444
 H310 H -0.10438 -0.17654 0.64859
 H311 H 0.04735 -0.19964 0.64667
 C312 C 0.32917 -0.05479 0.80932
 C313 C 0.28984 -0.04867 0.77834
 C314 C 0.25826 -0.01041 0.78541
 C315 C 0.26484 0.01939 0.82457
 C316 C 0.30427 0.01371 0.85441
 C317 C 0.33753 -0.02223 0.84615
 C318 C 0.22183 -0.00113 0.75221
 C319 C 0.21647 -0.02944 0.71175
 C320 C 0.24648 -0.06911 0.70571
 C321 C 0.28297 -0.07847 0.73900
 C322 C 0.23989 -0.09836 0.66601
 C323 C 0.20440 -0.08806 0.63238
 C324 C 0.17568 -0.04774 0.63722
 C325 C 0.18178 -0.01851 0.67700
 H326 H 0.35504 -0.08220 0.80252
 H327 H 0.24078 0.04854 0.83082
 H328 H 0.31012 0.03909 0.88281
 H329 H 0.19846 0.02889 0.75725
 H330 H 0.30671 -0.10812 0.73362
 H331 H 0.26220 -0.12911 0.66091
 H332 H 0.19995 -0.11120 0.60198
 H333 H 0.15906 0.01214 0.68122
 C334 C -0.32750 0.01488 0.18188
 C335 C -0.29076 0.02390 0.21498
 C336 C -0.28340 0.07051 0.23297
 C337 C -0.31105 0.10808 0.21497
 C338 C -0.34643 0.09928 0.18060
 C339 C -0.35617 0.05230 0.16464
 C340 C -0.24903 0.07854 0.26900
 C341 C -0.22132 0.04055 0.28650
 C342 C -0.22687 -0.00524 0.26580
 C343 C -0.26159 -0.01331 0.23062
 C344 C -0.19851 -0.04295 0.28149
 C345 C -0.16705 -0.03652 0.31936
 C346 C -0.16338 0.00761 0.34289
 C347 C -0.18934 0.04682 0.32522
 H348 H -0.33337 -0.02139 0.16943
 H349 H -0.30555 0.14425 0.22768
 H350 H -0.36726 0.12930 0.16791
 H351 H -0.24443 0.11398 0.28386
 H352 H -0.26649 -0.04886 0.21602
 H353 H -0.20166 -0.07794 0.26541
 H354 H -0.14671 -0.06710 0.33144
 H355 H -0.18651 0.08103 0.34284
 C356 C 0.33979 -0.01702 0.19981
 C357 C 0.30479 -0.01055 0.23484
 C358 C 0.29712 0.03579 0.25284
 C359 C 0.32415 0.07483 0.23547
 C360 C 0.35808 0.06831 0.20028
 C361 C 0.36626 0.02254 0.18203
 C362 C 0.26235 0.04259 0.28767
 C363 C 0.23457 0.00377 0.30460
 C364 C 0.24179 -0.04250 0.28630
 C365 C 0.27693 -0.04942 0.25175
 C366 C 0.21370 -0.08120 0.30291
 C367 C 0.17922 -0.07432 0.33761
 C368 C 0.17211 -0.02864 0.35660
 C369 C 0.19976 0.01043 0.33966
 H370 H 0.34562 -0.05234 0.18568
 H371 H 0.31878 0.11055 0.24878
 H372 H 0.37812 0.09942 0.18734
 H373 H 0.25680 0.07815 0.30144
 H374 H 0.28242 -0.08496 0.23793
 H375 H 0.21852 -0.11687 0.28923
 H376 H 0.15831 -0.10511 0.34990
 H377 H 0.19453 0.04577 0.35398
 C378 C -0.32619 -0.01358 0.81532
 C379 C -0.28894 -0.00331 0.78295
 C380 C -0.28193 0.04397 0.76481
 C381 C -0.31086 0.08053 0.78049
 C382 C -0.34757 0.07031 0.81239
 C383 C -0.35668 0.02301 0.82957
 C384 C -0.24696 0.05393 0.73031
 C385 C -0.21909 0.01707 0.71301
 C386 C -0.22482 -0.02992 0.73239
 C387 C -0.25939 -0.03974 0.76741
 C388 C -0.19703 -0.06680 0.71518
 C389 C -0.16594 -0.05791 0.67738
 C390 C -0.16166 -0.01191 0.65617
 C391 C -0.18708 0.02596 0.67524
 H392 H -0.33194 -0.05006 0.82834
 H393 H -0.30571 0.11703 0.76738
 H394 H -0.36940 0.09995 0.82281
 H395 H -0.24249 0.09006 0.71586
 H396 H -0.26426 -0.07599 0.78141
 H397 H -0.20048 -0.10290 0.72983
 H398 H -0.14618 -0.08766 0.66373
 H399 H -0.18400 0.06147 0.65910
   
