data_POSCAR
  _audit_creation_date              2014-09-24
  _audit_creation_method            'ToBaCCo'
  _symmetry_space_group_name_H-M    'P1'
  _symmetry_Int_Tables_number       1
  _symmetry_cell_setting            triclinic
  loop_
  _symmetry_equiv_pos_as_xyz
 x,y,z
_cell_length_a 21.4242
_cell_length_b 21.5409
_cell_length_c 21.5743
_cell_angle_alpha 85.180000
_cell_angle_beta 97.210500
_cell_angle_gamma 96.812800
loop_
  _atom_site_label
  _atom_site_type_symbol
  _atom_site_fract_x
  _atom_site_fract_y
  _atom_site_fract_z
C1 C 0.61364 0.63441 -0.00173
 C2 C 0.62839 0.57258 0.00222
 C3 C 0.57968 0.52327 0.00560
 C4 C 0.51538 0.53455 -0.00064
 C5 C 0.50190 0.59767 -0.00738
 C6 C 0.55076 0.64738 -0.00572
 C7 C 0.46316 0.48091 -0.00049
 C8 C 0.40111 0.48982 0.01050
 C9 C 0.35266 0.43985 0.00969
 C10 C 0.36629 0.37972 0.00047
 C11 C 0.42716 0.36927 -0.00967
 C12 C 0.47468 0.41967 -0.01150
 H13 H 0.65088 0.67304 -0.00171
 H14 H 0.59324 0.47630 0.01313
 H15 H 0.45373 0.60885 -0.01407
 H16 H 0.38932 0.53507 0.02027
 H17 H 0.32946 0.34095 0.00100
 H18 H 0.52020 0.40988 -0.02228
 C19 C -0.00082 0.61334 0.38659
 C20 C 0.00451 0.62851 0.44888
 C21 C 0.00681 0.58044 0.49701
 C22 C -0.00094 0.51664 0.48353
 C23 C -0.00857 0.50289 0.41981
 C24 C -0.00614 0.55092 0.37163
 C25 C -0.00094 0.46501 0.53541
 C26 C 0.01051 0.40367 0.52463
 C27 C 0.00943 0.35536 0.57237
 C28 C -0.00065 0.36836 0.63252
 C29 C -0.01094 0.42873 0.64512
 C30 C -0.01231 0.47626 0.59655
 H31 H -0.00078 0.65051 0.34936
 H32 H 0.01484 0.59343 0.54473
 H33 H -0.01660 0.45509 0.40696
 H34 H 0.02106 0.39239 0.47954
 H35 H -0.00048 0.33143 0.66960
 H36 H -0.02298 0.52155 0.60747
 C37 C 0.63687 -0.00028 0.62104
 C38 C 0.57585 0.00940 0.63135
 C39 C 0.52797 0.01074 0.58104
 C40 C 0.53920 -0.00044 0.51997
 C41 C 0.60134 -0.01116 0.51107
 C42 C 0.65034 -0.00994 0.56099
 C43 C 0.48653 -0.00068 0.46647
 C44 C 0.49936 0.00576 0.40336
 C45 C 0.45006 0.00409 0.35393
 C46 C 0.38742 0.00026 0.36681
 C47 C 0.37338 -0.00369 0.42856
 C48 C 0.42235 -0.00688 0.47781
 H49 H 0.67383 -0.00008 0.65995
 H50 H 0.48235 0.02126 0.59081
 H51 H 0.61265 -0.02101 0.46578
 H52 H 0.54726 0.01231 0.39173
 H53 H 0.34983 0.00044 0.32832
 H54 H 0.40896 -0.01414 0.52465
 O55 O 0.46310 0.00434 -0.10765
 O56 O 0.43906 -0.00586 0.05937
 O57 O 0.43647 0.08138 -0.03032
 O58 O 0.45923 -0.08527 -0.01939
 O59 O 0.56212 -0.06134 0.00519
 O60 O 0.53902 0.10639 -0.00434
 O61 O 0.54195 0.01743 0.08458
 O62 O 0.56565 0.02898 -0.08131
 Cu63 Cu 0.43910 -0.00387 -0.02706
 Cu64 Cu 0.56254 0.02528 0.00368
 C65 C 0.51888 0.01792 -0.12245
 C66 C 0.48652 0.00483 0.10012
 C67 C 0.48338 0.12199 -0.01848
 C68 C 0.51453 -0.10158 -0.00623
 O69 O -0.08404 0.56368 0.99015
 O70 O 0.08399 0.53938 1.00485
 O71 O -0.00712 0.53741 0.91293
 O72 O 0.00497 0.56019 1.08195
 O73 O -0.01965 0.45841 1.10155
 O74 O -0.03295 0.43597 0.93332
 O75 O 0.05871 0.43766 1.02403
 O76 O -0.11008 0.46223 1.01050
 Cu77 Cu 0.00203 0.56036 0.99534
 Cu78 Cu -0.02854 0.43832 1.01914
 C79 C -0.12528 0.51764 0.99932
 C80 C 0.09983 0.48435 1.01625
 C81 C -0.02133 0.48239 0.89473
 C82 C -0.00627 0.51319 1.12016
 O83 O -0.00658 -0.08126 0.43991
 O84 O 0.00569 0.08766 0.46357
 O85 O 0.08240 0.00998 0.43705
 O86 O -0.08537 -0.00376 0.46125
 O87 O -0.05938 -0.02384 0.56280
 O88 O 0.10905 -0.01071 0.53842
 O89 O 0.03190 0.06666 0.56492
 O90 O 0.01892 -0.10142 0.54155
 Cu91 Cu -0.00361 0.00537 0.44024
 Cu92 Cu 0.02775 -0.01917 0.56217
 C93 C 0.00508 -0.11974 0.48671
 C94 C 0.02008 0.10554 0.51868
 C95 C 0.12390 0.00051 0.48311
 C96 C -0.10079 -0.01556 0.51620
 C97 C -0.24996 0.48194 1.00821
 C98 C -0.27023 0.52353 1.05578
 C99 C -0.30803 0.55915 1.00167
 C100 C -0.28867 0.51768 0.95404
 C101 C -0.24990 0.60713 0.99275
 C102 C -0.21152 0.57136 1.04687
 C103 C -0.19222 0.53006 0.99929
 C104 C -0.22994 0.56549 0.94523
 H105 H -0.24939 0.43032 1.01436
 H106 H -0.28716 0.50660 1.10142
 H107 H -0.32099 0.49571 0.91567
 H108 H -0.24768 0.65895 0.98624
 H109 H -0.17902 0.59315 1.08523
 H110 H -0.21284 0.58234 0.89964
 C111 C 0.20708 0.43967 1.07147
 C112 C 0.22960 0.40052 1.02323
 C113 C 0.28564 0.45134 1.01506
 C114 C 0.26388 0.49033 1.06336
 C115 C 0.24582 0.48565 0.96151
 C116 C 0.18941 0.43495 0.96961
 C117 C 0.16757 0.47379 1.01775
 C118 C 0.22325 0.52475 1.00967
 H119 H 0.19044 0.42095 1.11677
 H120 H 0.23069 0.34899 1.02940
 H121 H 0.29511 0.51299 1.10201
 H122 H 0.26220 0.50446 0.91611
 H123 H 0.15823 0.41229 0.93092
 H124 H 0.22009 0.57602 1.00410
 C125 C -0.00482 -0.21603 0.41328
 C126 C 0.05170 -0.25430 0.43520
 C127 C 0.00582 -0.30747 0.46174
 C128 C -0.05069 -0.26983 0.43974
 C129 C 0.01506 -0.27888 0.52582
 C130 C 0.06091 -0.22493 0.49924
 C131 C 0.00438 -0.18753 0.47717
 C132 C -0.04141 -0.24044 0.50383
 H133 H -0.01312 -0.18973 0.36704
 H134 H 0.09026 -0.26040 0.40709
 H135 H -0.09678 -0.28889 0.41520
 H136 H 0.02361 -0.30360 0.57281
 H137 H 0.10691 -0.20555 0.52368
 H138 H -0.07986 -0.23395 0.53191
 C139 C 0.07479 0.21281 0.56665
 C140 C 0.06348 0.26889 0.51813
 C141 C 0.01569 0.28928 0.55803
 C142 C 0.02705 0.23394 0.60666
 C143 C -0.03875 0.24907 0.52171
 C144 C 0.00891 0.22784 0.48169
 C145 C 0.02022 0.17284 0.53050
 C146 C -0.02742 0.19334 0.57026
 H147 H 0.12164 0.19727 0.58485
 H148 H 0.10105 0.30053 0.49691
 H149 H 0.03510 0.23521 0.65838
 H150 H -0.08566 0.26441 0.50344
 H151 H 0.00150 0.22479 0.43014
 H152 H -0.06500 0.16173 0.59151
 C153 C 0.56861 0.07233 -0.22403
 C154 C 0.60903 0.02469 -0.24498
 C155 C 0.56061 0.01494 -0.30340
 C156 C 0.52031 0.06263 -0.28317
 C157 C 0.52287 -0.03894 -0.26799
 C158 C 0.57121 -0.02922 -0.20917
 C159 C 0.53108 0.01833 -0.18884
 C160 C 0.48245 0.00863 -0.24687
 H161 H 0.58707 0.11822 -0.20523
 H162 H 0.66137 0.03190 -0.24284
 H163 H 0.49969 0.10059 -0.31423
 H164 H 0.50433 -0.08490 -0.28660
 H165 H 0.59180 -0.06722 -0.17810
 H166 H 0.43026 0.00206 -0.24698
 C167 C 0.50395 -0.04209 0.21935
 C168 C 0.52721 0.01327 0.26087
 C169 C 0.46282 0.00522 0.28695
 C170 C 0.43949 -0.05017 0.24617
 C171 C 0.43621 0.05147 0.23480
 C172 C 0.50060 0.05954 0.20799
 C173 C 0.47723 0.00412 0.16746
 C174 C 0.41295 -0.00391 0.19341
 H175 H 0.53168 -0.08075 0.21219
 H176 H 0.57471 0.02061 0.28800
 H177 H 0.41431 -0.09543 0.26258
 H178 H 0.40844 0.09018 0.24172
 H179 H 0.52570 0.10479 0.19141
 H180 H 0.36599 -0.01107 0.16519
 C181 C 0.50001 -0.20960 -0.06114
 C182 C 0.56446 -0.23686 -0.05296
 C183 C 0.53813 -0.28896 -0.00683
 C184 C 0.47363 -0.26248 -0.01506
 C185 C 0.56163 -0.24831 0.04864
 C186 C 0.58789 -0.19560 0.00252
 C187 C 0.52358 -0.16919 -0.00566
 C188 C 0.49711 -0.22103 0.04037
 H189 H 0.47471 -0.19281 -0.10640
 H190 H 0.59205 -0.24376 -0.09162
 H191 H 0.42594 -0.28895 -0.02262
 H192 H 0.58702 -0.26479 0.09398
 H193 H 0.63485 -0.16765 0.00985
 H194 H 0.46956 -0.21373 0.07892
 C195 C 0.52036 0.24615 -0.00772
 C196 C 0.48335 0.28336 -0.06212
 C197 C 0.44251 0.30384 -0.01523
 C198 C 0.47940 0.26752 0.03904
 C199 C 0.39391 0.24599 -0.02626
 C200 C 0.43486 0.22479 -0.07309
 C201 C 0.47153 0.18869 -0.01870
 C202 C 0.43086 0.20928 0.02804
 H203 H 0.57250 0.24556 -0.00014
 H204 H 0.50466 0.31443 -0.09939
 H205 H 0.49745 0.28562 0.08535
 H206 H 0.34161 0.24464 -0.03454
 H207 H 0.41687 0.20652 -0.11934
 H208 H 0.40958 0.17819 0.06535
 C209 C -0.20748 -0.07160 0.55967
 C210 C -0.22966 -0.02449 0.60043
 C211 C -0.28611 -0.01478 0.54999
 C212 C -0.26471 -0.06201 0.50943
 C213 C -0.24675 0.03960 0.51695
 C214 C -0.18990 0.02995 0.56724
 C215 C -0.16839 -0.01707 0.52683
 C216 C -0.22449 -0.00749 0.47630
 H217 H -0.19059 -0.11738 0.57700
 H218 H -0.22990 -0.03229 0.65189
 H219 H -0.29594 -0.10001 0.48580
 H220 H -0.26325 0.08553 0.49949
 H221 H -0.15858 0.06790 0.59086
 H222 H -0.22177 -0.00051 0.42511
 C223 C 0.24856 -0.00877 0.51935
 C224 C 0.26891 -0.05671 0.47824
 C225 C 0.30653 -0.00293 0.44266
 C226 C 0.28703 0.04508 0.48363
 C227 C 0.24833 0.00602 0.39437
 C228 C 0.21013 -0.04780 0.43006
 C229 C 0.19073 0.00019 0.47088
 C230 C 0.22825 0.05396 0.43547
 H231 H 0.24807 -0.01465 0.57090
 H232 H 0.28611 -0.10238 0.49549
 H233 H 0.31938 0.08340 0.50553
 H234 H 0.24668 0.01218 0.34264
 H235 H 0.17772 -0.08616 0.40829
 H236 H 0.21098 0.09961 0.41825
 C237 C 0.04025 0.49567 1.24117
 C238 C 0.04914 0.55979 1.27057
 C239 C -0.00732 0.53787 1.30773
 C240 C -0.01617 0.47377 1.27914
 C241 C -0.05333 0.56453 1.25425
 C242 C 0.00313 0.58638 1.21649
 C243 C -0.00567 0.52246 1.18796
 C244 C -0.06215 0.50046 1.22488
 H245 H 0.07891 0.46750 1.23503
 H246 H 0.09511 0.58427 1.28993
 H247 H -0.02445 0.42677 1.30385
 H248 H -0.09210 0.59273 1.26001
 H249 H 0.01120 0.63266 1.19031
 H250 H -0.10803 0.47609 1.20519
 C251 C -0.00971 0.51966 0.77272
 C252 C 0.03754 0.47881 0.75178
 C253 C -0.01713 0.44337 0.71105
 C254 C -0.06452 0.48411 0.73112
 C255 C -0.02899 0.39472 0.76609
 C256 C 0.02572 0.43023 0.80720
 C257 C -0.02151 0.47081 0.82740
 C258 C -0.07633 0.43557 0.78689
 H259 H -0.00183 0.57121 0.77597
 H260 H 0.08460 0.49639 0.73694
 H261 H -0.10183 0.50608 0.69927
 H262 H -0.03755 0.34302 0.76462
 H263 H 0.06304 0.40822 0.83900
 H264 H -0.12331 0.41805 0.80193
   
