data_POSCAR
  _audit_creation_date              2014-09-24
  _audit_creation_method            'ToBaCCo'
  _symmetry_space_group_name_H-M    'P1'
  _symmetry_Int_Tables_number       1
  _symmetry_cell_setting            triclinic
  loop_
  _symmetry_equiv_pos_as_xyz
 x,y,z
_cell_length_a 28.9708
_cell_length_b 29.1423
_cell_length_c 11.1328
_cell_angle_alpha 90.291400
_cell_angle_beta 89.953000
_cell_angle_gamma 120.058100
loop_
  _atom_site_label
  _atom_site_type_symbol
  _atom_site_fract_x
  _atom_site_fract_y
  _atom_site_fract_z
C1 C 0.11901 0.43733 0.38959
 C2 C 0.09801 0.44002 0.50040
 C3 C 0.11877 0.43628 0.61056
 C4 C 0.15969 0.42329 0.61130
 C5 C 0.18150 0.41881 0.49945
 C6 C 0.16066 0.42522 0.38788
 C7 C 0.18548 0.42458 0.28007
 C8 C 0.23119 0.42029 0.28051
 C9 C 0.25376 0.41627 0.38865
 C10 C 0.22806 0.41399 0.49960
 C11 C 0.18292 0.41994 0.71920
 C12 C 0.22814 0.41497 0.71909
 C13 C 0.25230 0.41338 0.61113
 C14 C 0.30285 0.41684 0.61048
 C15 C 0.32539 0.41606 0.49980
 C16 C 0.30345 0.41835 0.38992
 H17 H 0.17108 0.42949 0.19430
 H18 H 0.24963 0.42173 0.19502
 H19 H 0.16780 0.42316 0.80555
 H20 H 0.24504 0.41435 0.80514
 H21 H 0.06404 0.44629 0.50099
 H22 H 0.36395 0.41821 0.49931
 C23 C 0.56370 -0.31615 0.61736
 C24 C 0.56329 -0.34094 0.50967
 C25 C 0.56522 -0.31902 0.39706
 C26 C 0.57484 -0.26631 0.39225
 C27 C 0.57848 -0.23877 0.50213
 C28 C 0.57282 -0.26397 0.61493
 C29 C 0.57327 -0.23772 0.72121
 C30 C 0.57747 -0.18807 0.71824
 C31 C 0.58104 -0.16275 0.60866
 C32 C 0.58206 -0.18828 0.49903
 C33 C 0.57578 -0.24227 0.28258
 C34 C 0.57848 -0.19332 0.27962
 C35 C 0.58066 -0.16631 0.38602
 C36 C 0.57786 -0.11957 0.38289
 C37 C 0.57958 -0.09394 0.49043
 C38 C 0.57808 -0.11556 0.60335
 H39 H 0.56916 -0.25595 0.80795
 H40 H 0.57607 -0.17079 0.80315
 H41 H 0.57272 -0.26164 0.19765
 H42 H 0.57771 -0.17723 0.19272
 H43 H 0.55795 -0.38055 0.51389
 H44 H 0.57794 -0.05754 0.48547
 C45 C 1.11437 0.69687 0.61339
 C46 C 1.09013 0.67449 0.50304
 C47 C 1.11363 0.69644 0.39288
 C48 C 1.16069 0.74612 0.39097
 C49 C 1.18514 0.77165 0.50151
 C50 C 1.16158 0.74721 0.61345
 C51 C 1.18863 0.77113 0.72058
 C52 C 1.23872 0.81670 0.71911
 C53 C 1.26397 0.84043 0.61032
 C54 C 1.23635 0.81824 0.49971
 C55 C 1.18587 0.76881 0.28189
 C56 C 1.23563 0.81429 0.27987
 C57 C 1.26219 0.83883 0.38692
 C58 C 1.31580 0.88013 0.38570
 C59 C 1.34074 0.90230 0.49469
 C60 C 1.31778 0.88233 0.60654
 H61 H 1.17200 0.75377 0.80684
 H62 H 1.25801 0.83161 0.80471
 H63 H 1.16806 0.75072 0.19663
 H64 H 1.25389 0.82888 0.19323
 H65 H 1.05402 0.63587 0.50272
 H66 H 1.38084 0.93639 0.49159
 C67 C 0.68396 0.57144 0.61038
 C68 C 0.66145 0.57098 0.49870
 C69 C 0.68522 0.57116 0.39000
 C70 C 0.73680 0.57825 0.39028
 C71 C 0.76281 0.58237 0.50195
 C72 C 0.73654 0.57924 0.61309
 C73 C 0.76154 0.57885 0.72106
 C74 C 0.81036 0.58009 0.72091
 C75 C 0.83632 0.58184 0.61283
 C76 C 0.81259 0.58376 0.50184
 C77 C 0.76137 0.57785 0.28215
 C78 C 0.80981 0.57925 0.28207
 C79 C 0.83543 0.58108 0.39013
 C80 C 0.88154 0.57672 0.38982
 C81 C 0.90555 0.57768 0.49878
 C82 C 0.88248 0.57656 0.61016
 H83 H 0.74295 0.57597 0.80696
 H84 H 0.82685 0.57820 0.80660
 H85 H 0.74275 0.57515 0.19624
 H86 H 0.82632 0.57757 0.19613
 H87 H 0.62197 0.56665 0.49560
 H88 H 0.94156 0.57488 0.49642
 C89 C 0.42888 0.11156 0.39830
 C90 C 0.42727 0.08921 0.51019
 C91 C 0.42847 0.11439 0.61841
 C92 C 0.42394 0.16037 0.61555
 C93 C 0.42177 0.18208 0.50267
 C94 C 0.42500 0.15794 0.39348
 C95 C 0.42752 0.18251 0.28360
 C96 C 0.42776 0.23031 0.27993
 C97 C 0.42540 0.25525 0.38593
 C98 C 0.42168 0.23080 0.49908
 C99 C 0.42465 0.18676 0.72176
 C100 C 0.42414 0.23424 0.71851
 C101 C 0.42305 0.25737 0.60870
 C102 C 0.42839 0.30848 0.60334
 C103 C 0.42837 0.32945 0.49053
 C104 C 0.42974 0.30554 0.38282
 H105 H 0.43029 0.16554 0.19924
 H106 H 0.43067 0.24805 0.19305
 H107 H 0.42640 0.17120 0.80866
 H108 H 0.42604 0.25305 0.80350
 H109 H 0.43078 0.05384 0.51339
 H110 H 0.43058 0.36774 0.48605
 C111 C 0.69673 0.12006 0.61599
 C112 C 0.67351 0.09474 0.50736
 C113 C 0.69413 0.11793 0.39588
 C114 C 0.74364 0.16570 0.39212
 C115 C 0.77041 0.19005 0.50186
 C116 C 0.74660 0.16719 0.61421
 C117 C 0.77160 0.19353 0.72111
 C118 C 0.81880 0.24211 0.71907
 C119 C 0.84276 0.26644 0.60986
 C120 C 0.81834 0.23996 0.49952
 C121 C 0.76541 0.19133 0.28289
 C122 C 0.81206 0.24038 0.28045
 C123 C 0.83874 0.26551 0.38708
 C124 C 0.88362 0.31691 0.38547
 C125 C 0.90821 0.34078 0.49383
 C126 C 0.88734 0.31854 0.60603
 H127 H 0.75439 0.17708 0.80764
 H128 H 0.83530 0.26080 0.80450
 H129 H 0.74606 0.17417 0.19819
 H130 H 0.82662 0.25891 0.19406
 H131 H 0.63513 0.05838 0.50997
 H132 H 0.94344 0.38000 0.49056
 N133 N 1.05992 0.48783 -0.20471
 N134 N 1.08475 0.48869 -0.30372
 N135 N 0.94743 0.39571 -0.13321
 N136 N 0.92092 0.34479 -0.18536
 N137 N 0.94837 0.42997 -0.21103
 N138 N 0.92486 0.40609 -0.31157
 N139 N 1.06003 0.45354 -0.12850
 N140 N 1.08642 0.42911 -0.18107
 C141 C 1.10128 0.45329 -0.28948
 C142 C 0.90739 0.35413 -0.29577
 N143 N 0.94415 0.42889 0.20270
 N144 N 0.91569 0.40445 0.29758
 N145 N 1.05800 0.45241 0.13311
 N146 N 1.08365 0.43006 0.18323
 N147 N 1.05778 0.48789 0.20601
 N148 N 1.08583 0.49119 0.30905
 N149 N 0.94679 0.39490 0.12925
 N150 N 0.92189 0.34665 0.17675
 Mn151 Mn 1.00303 0.42368 -0.00039
 C152 C 0.90118 0.35317 0.28076
 C153 C 1.10124 0.45501 0.29129
 N154 N 0.94480 0.52617 -0.20921
 N155 N 0.91754 0.52377 -0.31309
 N156 N 1.05549 0.61898 -0.13190
 N157 N 1.07875 0.66693 -0.18176
 N158 N 1.05810 0.58475 -0.20493
 N159 N 1.08516 0.61052 -0.30811
 N160 N 0.94386 0.56091 -0.13488
 N161 N 0.91786 0.58307 -0.18412
 Mn162 Mn 1.00278 0.50741 -0.20608
 C163 C 0.90114 0.55904 -0.29331
 C164 C 1.09775 0.66116 -0.28945
 N165 N 1.05436 0.58371 0.20783
 N166 N 1.07996 0.60776 0.30653
 N167 N 0.94290 0.56093 0.12953
 N168 N 0.91843 0.58443 0.17965
 N169 N 0.94184 0.52519 0.20304
 N170 N 0.91500 0.52216 0.30050
 N171 N 1.05331 0.61795 0.13291
 N172 N 1.07679 0.66594 0.18259
 Mn173 Mn 0.99948 0.50624 0.20389
 Mn174 Mn 0.99889 0.59004 -0.00116
 Cl175 Cl 1.00101 0.50687 -0.00090
 C176 C 1.09460 0.65894 0.28989
 C177 C 0.89985 0.55844 0.28518
 N178 N 0.44103 0.38187 0.12652
 N179 N 0.41920 0.33368 0.17408
 N180 N 0.41735 0.46925 0.20908
 N181 N 0.39307 0.47203 0.30603
 N182 N 0.38278 0.43407 0.13345
 N183 N 0.33415 0.41077 0.18067
 N184 N 0.47744 0.41667 0.19967
 N185 N 0.48308 0.39295 0.29356
 C186 C 0.44733 0.34126 0.27723
 C187 C 0.34125 0.43630 0.28748
 N188 N 0.54837 0.60487 0.13774
 N189 N 0.57138 0.65260 0.18958
 N190 N 0.57304 0.51563 0.20383
 N191 N 0.59769 0.51333 0.30037
 N192 N 0.60675 0.55278 0.13145
 N193 N 0.65492 0.57804 0.18115
 N194 N 0.51381 0.56887 0.21144
 N195 N 0.51252 0.59309 0.31751
 Mn196 Mn 0.49540 0.49259 0.20492
 C197 C 0.54822 0.64471 0.29981
 C198 C 0.64871 0.55162 0.28536
 N199 N 0.38102 0.43659 -0.12946
 N200 N 0.32988 0.41027 -0.18192
 N201 N 0.47326 0.41986 -0.21456
 N202 N 0.47407 0.39687 -0.31559
 N203 N 0.44131 0.38437 -0.13643
 N204 N 0.41953 0.33363 -0.18833
 N205 N 0.41455 0.47183 -0.20596
 N206 N 0.38994 0.47088 -0.30573
 Mn207 Mn 0.41107 0.40873 -0.00202
 C208 C 0.33826 0.43414 -0.29074
 C209 C 0.44208 0.34427 -0.29924
 N210 N 0.60564 0.55282 -0.13059
 N211 N 0.65715 0.57694 -0.18050
 N212 N 0.51105 0.57249 -0.19907
 N213 N 0.50683 0.59689 -0.29346
 N214 N 0.54814 0.60671 -0.12610
 N215 N 0.57153 0.65485 -0.17383
 N216 N 0.57111 0.52052 -0.21062
 N217 N 0.59545 0.52114 -0.31049
 Mn218 Mn 0.57755 0.57968 0.00275
 Mn219 Mn 0.49263 0.49633 -0.20606
 Cl220 Cl 0.49404 0.49427 -0.00018
 C221 C 0.64794 0.55490 -0.29214
 C222 C 0.54404 0.64819 -0.27724
 N223 N 0.39162 -0.06122 0.12930
 N224 N 0.34364 -0.08511 0.18049
 N225 N 0.47994 0.04890 0.21461
 N226 N 0.48184 0.07443 0.31378
 N227 N 0.44510 0.04904 0.13914
 N228 N 0.42153 0.07366 0.18819
 N229 N 0.42664 -0.06358 0.19996
 N230 N 0.40120 -0.09233 0.30122
 C231 C 0.35015 -0.10476 0.28578
 C232 C 0.44626 0.09067 0.29630
 N233 N 0.61591 0.05284 0.13732
 N234 N 0.66433 0.07935 0.18582
 N235 N 0.52495 -0.06071 0.20013
 N236 N 0.52116 -0.08918 0.29432
 N237 N 0.56214 -0.05728 0.12710
 N238 N 0.58632 -0.08144 0.17485
 N239 N 0.58028 0.05142 0.21301
 N240 N 0.60361 0.07787 0.31153
 Mn241 Mn 0.50301 -0.00572 0.20593
 C242 C 0.65595 0.09606 0.29365
 C243 C 0.55885 -0.10261 0.27798
 N244 N 0.44632 0.05327 -0.12507
 N245 N 0.42080 0.07597 -0.17360
 N246 N 0.42995 -0.05308 -0.21213
 N247 N 0.40653 -0.07673 -0.31280
 N248 N 0.39433 -0.05761 -0.13252
 N249 N 0.34320 -0.08615 -0.18370
 N250 N 0.48466 0.05856 -0.19713
 N251 N 0.48735 0.08650 -0.29173
 Mn252 Mn 0.41901 -0.00407 0.00239
 C253 C 0.44821 0.09802 -0.27637
 C254 C 0.35362 -0.09736 -0.29556
 N255 N 0.56209 -0.05434 -0.13602
 N256 N 0.58505 -0.08241 -0.18743
 N257 N 0.58431 0.06072 -0.19901
 N258 N 0.60894 0.08878 -0.29421
 N259 N 0.61835 0.05700 -0.12729
 N260 N 0.66667 0.08112 -0.17629
 N261 N 0.53079 -0.05042 -0.21586
 N262 N 0.53154 -0.07307 -0.31761
 Mn263 Mn 0.59007 -0.00042 0.00001
 Mn264 Mn 0.50739 0.00399 -0.20475
 Cl265 Cl 0.50505 -0.00136 0.00084
 C266 C 0.56379 -0.09347 -0.29994
 C267 C 0.66025 0.10218 -0.27916
   
