data_POSCAR
  _audit_creation_date              2014-09-24
  _audit_creation_method            'ToBaCCo'
  _symmetry_space_group_name_H-M    'P1'
  _symmetry_Int_Tables_number       1
  _symmetry_cell_setting            triclinic
  loop_
  _symmetry_equiv_pos_as_xyz
 x,y,z
_cell_length_a 66.4161
_cell_length_b 64.7325
_cell_length_c 66.1825
_cell_angle_alpha 89.672100
_cell_angle_beta 89.731000
_cell_angle_gamma 89.664200
loop_
  _atom_site_label
  _atom_site_type_symbol
  _atom_site_fract_x
  _atom_site_fract_y
  _atom_site_fract_z
N1 N 0.60061 0.65489 0.61228
 N2 N 0.59123 0.64459 0.62666
 C3 C 0.57465 0.65521 0.63230
 C4 C 0.57370 0.67300 0.62079
 C5 C 0.59031 0.67240 0.60824
 H6 H 0.56409 0.65037 0.64386
 H7 H 0.59455 0.68382 0.59703
 Cu8 Cu 0.60138 0.61828 0.63662
 Cu9 Cu 0.62536 0.64472 0.59985
 Cu10 Cu 0.64702 0.60126 0.62157
 N11 N 0.61535 0.59619 0.65086
 N12 N 0.63318 0.58956 0.64494
 C13 C 0.63928 0.57420 0.65733
 C14 C 0.62445 0.57121 0.67168
 C15 C 0.60947 0.58533 0.66725
 H16 H 0.65337 0.56585 0.65600
 H17 H 0.59541 0.58752 0.67530
 N18 N 0.65861 0.61538 0.59781
 N19 N 0.65034 0.63197 0.58951
 C20 C 0.66157 0.63787 0.57351
 C21 C 0.67755 0.62435 0.57177
 C22 C 0.67532 0.61028 0.58730
 H23 H 0.65833 0.65092 0.56375
 H24 H 0.68507 0.59726 0.59057
 H25 H 0.62240 0.61363 0.60663
 H26 H 0.63446 0.63018 0.62620
 N27 N 0.89895 0.34600 0.11231
 N28 N 0.90835 0.35629 0.12649
 C29 C 0.92489 0.34563 0.13215
 C30 C 0.92576 0.32782 0.12085
 C31 C 0.90918 0.32844 0.10841
 H32 H 0.93544 0.35046 0.14357
 H33 H 0.90491 0.31703 0.09737
 Cu34 Cu 0.89829 0.38268 0.13618
 Cu35 Cu 0.87427 0.35626 0.09993
 Cu36 Cu 0.85276 0.39988 0.12122
 N37 N 0.88439 0.40487 0.15020
 N38 N 0.86661 0.41158 0.14432
 C39 C 0.86057 0.42700 0.15655
 C40 C 0.87536 0.42997 0.17076
 C41 C 0.89026 0.41576 0.16640
 H42 H 0.84652 0.43542 0.15520
 H43 H 0.90428 0.41352 0.17440
 N44 N 0.84115 0.38575 0.09774
 N45 N 0.84936 0.36909 0.08961
 C46 C 0.83812 0.36320 0.07378
 C47 C 0.82219 0.37679 0.07199
 C48 C 0.82447 0.39089 0.08730
 H49 H 0.84131 0.35010 0.06419
 H50 H 0.81476 0.40395 0.09047
 H51 H 0.87736 0.38735 0.10627
 H52 H 0.86517 0.37091 0.12615
 N53 N 0.39774 0.15732 -0.11296
 N54 N 0.40591 0.14873 -0.12903
 C55 C 0.42236 0.15952 -0.13450
 C56 C 0.42449 0.17560 -0.12114
 C57 C 0.40871 0.17384 -0.10767
 H58 H 0.43204 0.15604 -0.14723
 H59 H 0.40546 0.18384 -0.09501
 Cu60 Cu 0.39419 0.12434 -0.14125
 Cu61 Cu 0.37351 0.14652 -0.10018
 Cu62 Cu 0.35182 0.10358 -0.12212
 N63 N 0.38157 0.10055 -0.15365
 N64 N 0.36500 0.09250 -0.14609
 C65 C 0.35948 0.07632 -0.15746
 C66 C 0.37334 0.07423 -0.17288
 C67 C 0.38715 0.08975 -0.17012
 H68 H 0.34640 0.06681 -0.15474
 H69 H 0.40022 0.09288 -0.17942
 N70 N 0.34072 0.11699 -0.09782
 N71 N 0.34898 0.13335 -0.08945
 C72 C 0.33799 0.13885 -0.07316
 C73 C 0.32218 0.12530 -0.07130
 C74 C 0.32425 0.11165 -0.08706
 H75 H 0.34120 0.15171 -0.06335
 H76 H 0.31449 0.09881 -0.09038
 H77 H 0.37724 0.11628 -0.10940
 H78 H 0.36187 0.13352 -0.12606
 N79 N 0.10533 0.83891 0.38482
 N80 N 0.09935 0.84557 0.36699
 C81 C 0.08320 0.83465 0.36119
 C82 C 0.07899 0.82047 0.37622
 C83 C 0.09321 0.82348 0.39099
 H84 H 0.07517 0.83684 0.34715
 H85 H 0.09466 0.81509 0.40510
 Cu86 Cu 0.11322 0.86775 0.35291
 Cu87 Cu 0.12841 0.85067 0.39855
 Cu88 Cu 0.14947 0.89426 0.37675
 N89 N 0.12281 0.89412 0.34271
 N90 N 0.13698 0.90443 0.35204
 C91 C 0.14079 0.92197 0.34170
 C92 C 0.12831 0.92256 0.32512
 C93 C 0.11708 0.90474 0.32612
 H94 H 0.15181 0.93340 0.34588
 H95 H 0.10565 0.89989 0.31560
 N96 N 0.15990 0.88149 0.40171
 N97 N 0.15187 0.86485 0.41004
 C98 C 0.16239 0.85975 0.42671
 C99 C 0.17765 0.87386 0.42887
 C100 C 0.17575 0.88742 0.41287
 H101 H 0.15931 0.84669 0.43649
 H102 H 0.18529 0.90050 0.40957
 H103 H 0.12340 0.87961 0.38606
 H104 H 0.14316 0.86315 0.37375
 C105 C 0.11430 0.14304 0.11747
 C106 C 0.13166 0.13421 0.10891
 C107 C 0.14024 0.11675 0.11758
 C108 C 0.13158 0.10791 0.13492
 C109 C 0.11443 0.11663 0.14339
 C110 C 0.10574 0.13430 0.13462
 C111 C 0.10275 0.15997 0.11229
 N112 N 0.08752 0.16159 0.12586
 C113 C 0.08911 0.14607 0.13958
 C114 C 0.10939 0.10487 0.16005
 N115 N 0.12306 0.08937 0.16175
 C116 C 0.13669 0.09099 0.14655
 C117 C 0.15688 0.11160 0.10613
 N118 N 0.15846 0.12551 0.09085
 C119 C 0.14320 0.13940 0.09232
 H120 H 0.10521 0.17034 0.09963
 H121 H 0.07894 0.14356 0.15218
 H122 H 0.09676 0.10737 0.17018
 H123 H 0.14935 0.08065 0.14419
 H124 H 0.16707 0.09874 0.10869
 H125 H 0.14074 0.15227 0.08209
 C126 C 0.38361 0.85787 0.61775
 C127 C 0.36621 0.86667 0.60931
 C128 C 0.35751 0.88400 0.61802
 C129 C 0.36611 0.89273 0.63528
 C130 C 0.38331 0.88403 0.64361
 C131 C 0.39211 0.86650 0.63480
 C132 C 0.39526 0.84106 0.61250
 N133 N 0.41049 0.83940 0.62596
 C134 C 0.40879 0.85478 0.63965
 C135 C 0.38828 0.89565 0.66020
 N136 N 0.37451 0.91106 0.66200
 C137 C 0.36090 0.90950 0.64693
 C138 C 0.34086 0.88915 0.60670
 N139 N 0.33938 0.87537 0.59147
 C140 C 0.35472 0.86157 0.59284
 H141 H 0.39287 0.83079 0.59989
 H142 H 0.41894 0.85722 0.65217
 H143 H 0.40091 0.89312 0.67022
 H144 H 0.34819 0.91979 0.64467
 H145 H 0.33058 0.90192 0.60931
 H146 H 0.35727 0.84880 0.58262
 C147 C 0.88614 0.64236 0.38371
 C148 C 0.86868 0.63376 0.39217
 C149 C 0.85985 0.61677 0.38327
 C150 C 0.86837 0.60816 0.36579
 C151 C 0.88562 0.61666 0.35742
 C152 C 0.89456 0.63386 0.36643
 C153 C 0.89794 0.65885 0.38910
 N154 N 0.91317 0.66042 0.37551
 C155 C 0.91133 0.64530 0.36159
 C156 C 0.89050 0.60523 0.34059
 N157 N 0.87662 0.59014 0.33867
 C158 C 0.86302 0.59170 0.35390
 C159 C 0.84316 0.61175 0.39466
 N160 N 0.84178 0.62530 0.41013
 C161 C 0.85722 0.63882 0.40884
 H162 H 0.89565 0.66895 0.40190
 H163 H 0.92145 0.64286 0.34894
 H164 H 0.90314 0.60769 0.33048
 H165 H 0.85023 0.58163 0.35612
 H166 H 0.83278 0.59924 0.39193
 H167 H 0.85986 0.65136 0.41924
 C168 C 0.61467 0.35826 -0.11504
 C169 C 0.63194 0.36703 -0.10662
 C170 C 0.64059 0.38426 -0.11556
 C171 C 0.63206 0.39293 -0.13303
 C172 C 0.61499 0.38426 -0.14135
 C173 C 0.60624 0.36683 -0.13230
 C174 C 0.60309 0.34152 -0.10961
 N175 N 0.58798 0.33987 -0.12317
 C176 C 0.58968 0.35517 -0.13710
 C177 C 0.61007 0.39579 -0.15818
 N178 N 0.62375 0.41111 -0.16015
 C179 C 0.63726 0.40960 -0.14494
 C180 C 0.65713 0.38940 -0.10422
 N181 N 0.65860 0.37571 -0.08874
 C182 C 0.64336 0.36197 -0.08998
 H183 H 0.60544 0.33131 -0.09682
 H184 H 0.57963 0.35759 -0.14974
 H185 H 0.59754 0.39325 -0.16826
 H186 H 0.64989 0.41984 -0.14277
 H187 H 0.66734 0.40210 -0.10698
 H188 H 0.64083 0.34927 -0.07957
 C189 C -0.05985 0.31284 0.12164
 C190 C -0.04705 0.29957 0.12230
 C191 C -0.03174 0.28376 0.12301
 C192 C -0.03627 0.26353 0.11732
 C193 C -0.02137 0.24819 0.11788
 C194 C -0.00171 0.25291 0.12414
 C195 C 0.00268 0.27329 0.12986
 C196 C -0.01225 0.28860 0.12931
 C197 C 0.01417 0.23666 0.12460
 C198 C 0.03390 0.24109 0.11810
 C199 C 0.04882 0.22577 0.11844
 C200 C 0.04425 0.20584 0.12530
 C201 C 0.02469 0.20128 0.13183
 C202 C 0.00974 0.21658 0.13148
 C203 C 0.05961 0.19007 0.12556
 C204 C 0.07251 0.17689 0.12572
 H205 H -0.05129 0.25964 0.11236
 H206 H -0.02515 0.23272 0.11313
 H207 H 0.01759 0.27735 0.13500
 H208 H -0.00860 0.30420 0.13379
 H209 H 0.03772 0.25631 0.11247
 H210 H 0.06389 0.22944 0.11330
 H211 H 0.02101 0.18592 0.13721
 H212 H -0.00522 0.21276 0.13682
 C213 C 0.55845 0.68878 0.62157
 C214 C 0.54561 0.70201 0.62218
 C215 C 0.53026 0.71777 0.62285
 C216 C 0.53375 0.73714 0.61406
 C217 C 0.51880 0.75243 0.61461
 C218 C 0.50012 0.74852 0.62397
 C219 C 0.49677 0.72900 0.63279
 C220 C 0.51175 0.71374 0.63223
 C221 C 0.48418 0.76470 0.62445
 C222 C 0.46390 0.75953 0.62124
 C223 C 0.44891 0.77478 0.62161
 C224 C 0.45397 0.79538 0.62522
 C225 C 0.47409 0.80068 0.62847
 C226 C 0.48911 0.78546 0.62808
 C227 C 0.43853 0.81106 0.62553
 C228 C 0.42557 0.82418 0.62574
 H229 H 0.54800 0.74040 0.60670
 H230 H 0.52174 0.76719 0.60746
 H231 H 0.48266 0.72560 0.64033
 H232 H 0.50891 0.69882 0.63913
 H233 H 0.45966 0.74374 0.61814
 H234 H 0.43339 0.77051 0.61902
 H235 H 0.47816 0.81658 0.63132
 H236 H 0.50454 0.78989 0.63087
 C237 C 1.06401 0.80625 0.37634
 C238 C 1.05076 0.79360 0.37643
 C239 C 1.03499 0.77845 0.37652
 C240 C 1.03903 0.75821 0.38290
 C241 C 1.02375 0.74344 0.38290
 C242 C 1.00420 0.74874 0.37652
 C243 C 1.00029 0.76916 0.37018
 C244 C 1.01559 0.78390 0.37017
 C245 C 0.98798 0.73304 0.37644
 C246 C 0.96832 0.73823 0.38270
 C247 C 0.95307 0.72343 0.38258
 C248 C 0.95725 0.70328 0.37619
 C249 C 0.97674 0.69796 0.36993
 C250 C 0.99202 0.71272 0.37006
 C251 C 0.94153 0.68807 0.37600
 C252 C 0.92840 0.67529 0.37579
 H253 H 1.05398 0.75384 0.38789
 H254 H 1.02718 0.72794 0.38812
 H255 H 0.98547 0.77365 0.36494
 H256 H 1.01232 0.79951 0.36515
 H257 H 0.96480 0.75365 0.38794
 H258 H 0.93804 0.72770 0.38750
 H259 H 0.98012 0.68242 0.36489
 H260 H 1.00693 0.70832 0.36489
 C261 C 0.43993 0.19104 -0.12128
 C262 C 0.45288 0.20400 -0.12140
 C263 C 0.46834 0.21949 -0.12157
 C264 C 0.47889 0.22389 -0.10387
 C265 C 0.49390 0.23895 -0.10401
 C266 C 0.49854 0.24982 -0.12189
 C267 C 0.48784 0.24528 -0.13961
 C268 C 0.47285 0.23021 -0.13943
 C269 C 0.51446 0.26585 -0.12206
 C270 C 0.51173 0.28443 -0.13287
 C271 C 0.52673 0.29949 -0.13303
 C272 C 0.54464 0.29620 -0.12242
 C273 C 0.54751 0.27778 -0.11161
 C274 C 0.53253 0.26270 -0.11142
 C275 C 0.56007 0.31171 -0.12264
 C276 C 0.57299 0.32473 -0.12286
 H277 H 0.47547 0.21573 -0.08994
 H278 H 0.50168 0.24227 -0.09007
 H279 H 0.49124 0.25319 -0.15366
 H280 H 0.46481 0.22688 -0.15323
 H281 H 0.49789 0.28743 -0.14099
 H282 H 0.52433 0.31373 -0.14140
 H283 H 0.56135 0.27505 -0.10339
 H284 H 0.53519 0.24846 -0.10317
 C285 C 0.12738 -0.06164 0.30983
 C286 C 0.12667 -0.04840 0.29697
 C287 C 0.12589 -0.03261 0.28159
 C288 C 0.13179 -0.01243 0.28603
 C289 C 0.13119 0.00288 0.27105
 C290 C 0.12468 -0.00181 0.25141
 C291 C 0.11874 -0.02215 0.24712
 C292 C 0.11934 -0.03743 0.26212
 C293 C 0.12419 0.01440 0.23544
 C294 C 0.13041 0.00987 0.21559
 C295 C 0.13006 0.02516 0.20060
 C296 C 0.12349 0.04517 0.20522
 C297 C 0.11724 0.04983 0.22490
 C298 C 0.11759 0.03457 0.23993
 C299 C 0.12326 0.06092 0.18978
 C300 C 0.12314 0.07409 0.17683
 H301 H 0.13695 -0.00855 0.30103
 H302 H 0.13610 0.01831 0.27476
 H303 H 0.11341 -0.02619 0.23222
 H304 H 0.11469 -0.05300 0.25854
 H305 H 0.13582 -0.00542 0.21173
 H306 H 0.13500 0.02141 0.18542
 H307 H 0.11208 0.06526 0.22863
 H308 H 0.11246 0.03847 0.25499
 C309 C 0.62450 0.55708 -0.31305
 C310 C 0.62451 0.54452 -0.29953
 C311 C 0.62448 0.52948 -0.28344
 C312 C 0.60681 0.52572 -0.27245
 C313 C 0.60673 0.51101 -0.25690
 C314 C 0.62435 0.49987 -0.25212
 C315 C 0.64205 0.50380 -0.26323
 C316 C 0.64209 0.51850 -0.27879
 C317 C 0.62425 0.48416 -0.23567
 C318 C 0.64062 0.48237 -0.22234
 C319 C 0.64051 0.46754 -0.20690
 C320 C 0.62408 0.45429 -0.20459
 C321 C 0.60773 0.45593 -0.21776
 C322 C 0.60779 0.47077 -0.23320
 C323 C 0.62401 0.43897 -0.18875
 C324 C 0.62390 0.42610 -0.17551
 H325 H 0.59311 0.53417 -0.27589
 H326 H 0.59294 0.50853 -0.24845
 H327 H 0.65577 0.49529 -0.26010
 H328 H 0.65583 0.52125 -0.28725
 H329 H 0.65339 0.49262 -0.22369
 H330 H 0.65323 0.46643 -0.19675
 H331 H 0.59495 0.44571 -0.21615
 H332 H 0.59509 0.47157 -0.24338
 C333 C 0.37340 1.05898 0.81145
 C334 C 0.37346 1.04617 0.79831
 C335 C 0.37353 1.03084 0.78264
 C336 C 0.35757 1.01693 0.78112
 C337 C 0.35766 1.00200 0.76594
 C338 C 0.37375 1.00078 0.75207
 C339 C 0.38972 1.01485 0.75373
 C340 C 0.38959 1.02978 0.76891
 C341 C 0.37389 0.98487 0.73598
 C342 C 0.39180 0.97437 0.73090
 C343 C 0.39191 0.95936 0.71579
 C344 C 0.37414 0.95465 0.70557
 C345 C 0.35624 0.96501 0.71049
 C346 C 0.35610 0.98002 0.72560
 C347 C 0.37426 0.93916 0.69006
 C348 C 0.37437 0.92617 0.67708
 H349 H 0.34510 1.01758 0.79171
 H350 H 0.34528 0.99122 0.76523
 H351 H 0.40218 1.01449 0.74313
 H352 H 0.40200 1.04052 0.76992
 H353 H 0.40568 0.97756 0.73879
 H354 H 0.40583 0.95138 0.71214
 H355 H 0.34241 0.96152 0.70263
 H356 H 0.34213 0.98801 0.72898
 C357 C 0.87533 0.44494 0.18670
 C358 C 0.87531 0.45753 0.20004
 C359 C 0.87532 0.47262 0.21593
 C360 C 0.86913 0.49293 0.21194
 C361 C 0.86920 0.50763 0.22734
 C362 C 0.87547 0.50219 0.24695
 C363 C 0.88163 0.48171 0.25081
 C364 C 0.88156 0.46704 0.23538
 C365 C 0.87562 0.51782 0.26330
 C366 C 0.86928 0.51259 0.28298
 C367 C 0.86944 0.52732 0.29835
 C368 C 0.87595 0.54744 0.29427
 C369 C 0.88229 0.55280 0.27475
 C370 C 0.88213 0.53810 0.25935
 C371 C 0.87615 0.56259 0.31010
 C372 C 0.87635 0.57532 0.32332
 H373 H 0.86421 0.49740 0.19695
 H374 H 0.86412 0.52319 0.22395
 H375 H 0.88679 0.47711 0.26567
 H376 H 0.88644 0.45137 0.23862
 H377 H 0.86394 0.49719 0.28643
 H378 H 0.86445 0.52302 0.31340
 H379 H 0.88742 0.56832 0.27144
 H380 H 0.88735 0.54253 0.24443
 C381 C 0.30673 0.12536 -0.05605
 C382 C 0.29377 0.12540 -0.04324
 C383 C 0.27829 0.12543 -0.02795
 C384 C 0.26955 0.10683 -0.02169
 C385 C 0.25453 0.10683 -0.00682
 C386 C 0.24804 0.12547 0.00199
 C387 C 0.25692 0.14409 -0.00442
 C388 C 0.27195 0.14405 -0.01929
 C389 C 0.23209 0.12549 0.01780
 C390 C 0.21704 0.14089 0.01791
 C391 C 0.20203 0.14088 0.03280
 C392 C 0.20187 0.12552 0.04776
 C393 C 0.21676 0.11014 0.04779
 C394 C 0.23178 0.11011 0.03291
 C395 C 0.18642 0.12553 0.06308
 C396 C 0.17348 0.12552 0.07592
 H397 H 0.27430 0.09233 -0.02834
 H398 H 0.24780 0.09228 -0.00240
 H399 H 0.25245 0.15865 0.00225
 H400 H 0.27866 0.15852 -0.02398
 H401 H 0.21672 0.15277 0.00634
 H402 H 0.19053 0.15282 0.03261
 H403 H 0.21681 0.09821 0.05934
 H404 H 0.24330 0.09821 0.03339
 C405 C 0.69314 0.62462 0.55666
 C406 C 0.70618 0.62483 0.54393
 C407 C 0.72172 0.62504 0.52870
 C408 C 0.71724 0.63144 0.50899
 C409 C 0.73229 0.63156 0.49415
 C410 C 0.75205 0.62528 0.49885
 C411 C 0.75640 0.61890 0.51873
 C412 C 0.74132 0.61878 0.53354
 C413 C 0.76803 0.62532 0.48308
 C414 C 0.78763 0.63197 0.48762
 C415 C 0.80266 0.63199 0.47276
 C416 C 0.79832 0.62536 0.45317
 C417 C 0.77889 0.61871 0.44850
 C418 C 0.76384 0.61869 0.46333
 C419 C 0.81380 0.62535 0.43789
 C420 C 0.82675 0.62533 0.42506
 H421 H 0.70213 0.63637 0.50510
 H422 H 0.72853 0.63681 0.47906
 H423 H 0.77139 0.61373 0.52276
 H424 H 0.74494 0.61374 0.54874
 H425 H 0.79126 0.63741 0.50260
 H426 H 0.81764 0.63722 0.47653
 H427 H 0.77539 0.61349 0.43340
 H428 H 0.74899 0.61323 0.45943
 C429 C 0.80662 0.37653 0.05702
 C430 C 0.79357 0.37634 0.04442
 C431 C 0.77803 0.37617 0.02935
 C432 C 0.77789 0.36075 0.01461
 C433 C 0.76286 0.36063 -0.00010
 C434 C 0.74774 0.37596 -0.00027
 C435 C 0.74801 0.39138 0.01463
 C436 C 0.76305 0.39146 0.02934
 C437 C 0.73182 0.37591 -0.01596
 C438 C 0.72531 0.39451 -0.02496
 C439 C 0.71037 0.39444 -0.03977
 C440 C 0.70172 0.37581 -0.04577
 C441 C 0.70807 0.35722 -0.03689
 C442 C 0.72302 0.35725 -0.02209
 C443 C 0.68637 0.37576 -0.06104
 C444 C 0.67352 0.37573 -0.07385
 H445 H 0.78945 0.34887 0.01445
 H446 H 0.76322 0.34871 -0.01152
 H447 H 0.73644 0.40323 0.01506
 H448 H 0.76298 0.40344 0.04071
 H449 H 0.73198 0.40909 -0.02077
 H450 H 0.70561 0.40891 -0.04659
 H451 H 0.70143 0.34271 -0.04139
 H452 H 0.72752 0.34271 -0.01527
 C453 C 0.19270 0.87414 0.44437
 C454 C 0.20537 0.87433 0.45735
 C455 C 0.22053 0.87451 0.47281
 C456 C 0.22900 0.89320 0.47889
 C457 C 0.24381 0.89337 0.49383
 C458 C 0.25035 0.87481 0.50289
 C459 C 0.24171 0.85609 0.49669
 C460 C 0.22690 0.85597 0.48175
 C461 C 0.26616 0.87495 0.51869
 C462 C 0.28134 0.85968 0.51897
 C463 C 0.29623 0.85984 0.53383
 C464 C 0.29615 0.87521 0.54860
 C465 C 0.28113 0.89045 0.54847
 C466 C 0.26623 0.89034 0.53362
 C467 C 0.31150 0.87533 0.56388
 C468 C 0.32438 0.87537 0.57665
 H469 H 0.22422 0.90764 0.47202
 H470 H 0.25034 0.90799 0.49809
 H471 H 0.24624 0.84158 0.50356
 H472 H 0.22040 0.84141 0.47720
 H473 H 0.28186 0.84779 0.50753
 H474 H 0.30783 0.84800 0.53375
 H475 H 0.28090 0.90239 0.55988
 H476 H 0.25461 0.90214 0.53397
   
