data_POSCAR
  _audit_creation_date              2014-09-24
  _audit_creation_method            'ToBaCCo'
  _symmetry_space_group_name_H-M    'P1'
  _symmetry_Int_Tables_number       1
  _symmetry_cell_setting            triclinic
  loop_
  _symmetry_equiv_pos_as_xyz
 x,y,z
_cell_length_a 26.9839
_cell_length_b 26.9449
_cell_length_c 33.8520
_cell_angle_alpha 90.168300
_cell_angle_beta 90.148600
_cell_angle_gamma 90.013200
loop_
  _atom_site_label
  _atom_site_type_symbol
  _atom_site_fract_x
  _atom_site_fract_y
  _atom_site_fract_z
O1 O -0.04734 0.54760 0.96335
 O2 O -0.04733 0.45311 1.04006
 O3 O -0.03753 0.54813 1.03873
 O4 O -0.03549 0.44926 0.96227
 O5 O 0.04617 0.45034 0.96401
 O6 O 0.04409 0.54455 1.04138
 O7 O 0.03426 0.44953 1.03914
 O8 O 0.03435 0.54869 0.96334
 Cu9 Cu -0.04929 0.49864 1.00030
 Cu10 Cu 0.04712 0.49917 1.00134
 C11 C -0.00697 0.56522 0.95057
 C12 C -0.00720 0.43435 1.05263
 C13 C 0.00358 0.56310 1.05318
 C14 C 0.00615 0.43275 0.95027
 O15 O 0.54821 0.04444 0.46042
 O16 O 0.45353 0.04302 0.53741
 O17 O 0.55019 0.03973 0.53707
 O18 O 0.45148 0.04041 0.46067
 O19 O 0.45403 -0.04138 0.45907
 O20 O 0.54829 -0.04210 0.53680
 O21 O 0.45162 -0.03879 0.53583
 O22 O 0.55075 -0.03728 0.46018
 Cu23 Cu 0.50082 0.05003 0.49897
 Cu24 Cu 0.50119 -0.04802 0.49786
 C25 C 0.56655 0.00425 0.44743
 C26 C 0.43572 0.00228 0.54952
 C27 C 0.56605 -0.00171 0.54994
 C28 C 0.43592 -0.00078 0.44689
 C29 C -0.06685 0.01041 0.26633
 C30 C -0.02039 0.02023 0.24955
 C31 C -0.01111 0.06691 0.23285
 C32 C -0.04812 0.10331 0.23255
 C33 C -0.09430 0.09349 0.24971
 C34 C -0.10358 0.04709 0.26679
 C35 C 0.01848 -0.01824 0.24955
 C36 C 0.00898 -0.06515 0.23308
 C37 C 0.04598 -0.10156 0.23277
 C38 C 0.09239 -0.09151 0.24970
 C39 C 0.10189 -0.04488 0.26655
 C40 C 0.06516 -0.00819 0.26609
 H41 H -0.07402 -0.02540 0.27970
 H42 H 0.02454 0.07452 0.21946
 H43 H -0.02686 -0.07294 0.21988
 H44 H 0.07252 0.02780 0.27927
 H45 H -0.12286 0.12181 0.24979
 H46 H 0.12094 -0.11983 0.24977
 C47 C -0.00925 -0.06710 0.76638
 C48 C -0.01822 -0.02064 0.74918
 C49 C -0.06466 -0.01071 0.73224
 C50 C -0.10170 -0.04709 0.73211
 C51 C -0.09276 -0.09327 0.74971
 C52 C -0.04658 -0.10316 0.76705
 C53 C 0.02082 0.01761 0.74913
 C54 C 0.06709 0.00760 0.73207
 C55 C 0.10403 0.04409 0.73173
 C56 C 0.09516 0.09045 0.74925
 C57 C 0.04916 0.10041 0.76670
 C58 C 0.01193 0.06423 0.76625
 H59 H 0.02639 -0.07473 0.77993
 H60 H -0.07160 0.02498 0.71858
 H61 H 0.07396 -0.02821 0.71844
 H62 H -0.02358 0.07193 0.77987
 H63 H -0.12158 -0.12132 0.74995
 H64 H 0.12389 0.11860 0.74930
 C65 C -0.03489 -0.32804 0.11762
 C66 C 0.01066 -0.31457 0.13449
 C67 C 0.05293 -0.34283 0.12656
 C68 C 0.05013 -0.38354 0.10107
 C69 C 0.00490 -0.39664 0.08303
 C70 C -0.03783 -0.36898 0.09210
 C71 C 0.01523 -0.27011 0.15791
 C72 C 0.02090 -0.23231 0.17653
 C73 C 0.02903 -0.18745 0.19719
 C74 C 0.03666 -0.14862 0.21391
 H75 H -0.06782 -0.30626 0.12344
 H76 H 0.08838 -0.33270 0.13936
 H77 H 0.08370 -0.40410 0.09484
 H78 H -0.07312 -0.37806 0.07861
 C79 C 0.03142 0.33136 0.11947
 C80 C -0.01477 0.31458 0.13267
 C81 C -0.05789 0.33910 0.12084
 C82 C -0.05520 0.37942 0.09518
 C83 C -0.00909 0.39602 0.08071
 C84 C 0.03434 0.37193 0.09378
 C85 C -0.01878 0.27063 0.15653
 C86 C -0.02403 0.23318 0.17546
 C87 C -0.03175 0.18866 0.19645
 C88 C -0.03909 0.15009 0.21342
 H89 H 0.06508 0.31251 0.12841
 H90 H -0.09384 0.32640 0.13082
 H91 H -0.08954 0.39690 0.08614
 H92 H 0.07048 0.38354 0.08347
 C93 C 0.34103 0.05137 0.62197
 C94 C 0.31392 0.00860 0.63072
 C95 C 0.32812 -0.03709 0.61444
 C96 C 0.36875 -0.03973 0.58881
 C97 C 0.39535 0.00344 0.57906
 C98 C 0.38139 0.04887 0.59638
 C99 C 0.27003 0.01278 0.65458
 C100 C 0.23277 0.01832 0.67366
 C101 C 0.18860 0.02653 0.69493
 C102 C 0.15036 0.03437 0.71220
 H103 H 0.33032 0.08693 0.63431
 H104 H 0.30724 -0.07042 0.62091
 H105 H 0.37852 -0.07519 0.57589
 H106 H 0.40113 0.08279 0.58964
 C107 C -0.33929 -0.05275 0.62173
 C108 C -0.31224 -0.01022 0.63155
 C109 C -0.32651 0.03591 0.61627
 C110 C -0.36713 0.03923 0.59054
 C111 C -0.39366 -0.00368 0.57967
 C112 C -0.37966 -0.04957 0.59602
 C113 C -0.26830 -0.01499 0.65544
 C114 C -0.23095 -0.02091 0.67447
 C115 C -0.18664 -0.02941 0.69563
 C116 C -0.14825 -0.03738 0.71277
 H117 H -0.32853 -0.08864 0.63328
 H118 H -0.30567 0.06907 0.62358
 H119 H -0.37694 0.07505 0.57838
 H120 H -0.39934 -0.08332 0.58841
 C121 C -0.05703 -0.33832 0.87995
 C122 C -0.01402 -0.31263 0.86957
 C123 C 0.03197 -0.32813 0.88437
 C124 C 0.03472 -0.36873 0.91006
 C125 C -0.00860 -0.39403 0.92134
 C126 C -0.05441 -0.37867 0.90559
 C127 C -0.01800 -0.26897 0.84537
 C128 C -0.02318 -0.23186 0.82600
 C129 C -0.03076 -0.18779 0.80438
 C130 C -0.03789 -0.14957 0.78685
 H131 H -0.09281 -0.32659 0.86876
 H132 H 0.06550 -0.30836 0.87662
 H133 H 0.07050 -0.37960 0.92173
 H134 H -0.08847 -0.39737 0.91355
 C135 C -0.03107 0.32616 0.88275
 C136 C 0.01528 0.31059 0.86888
 C137 C 0.05803 0.33625 0.88026
 C138 C 0.05476 0.37664 0.90602
 C139 C 0.00855 0.39204 0.92085
 C140 C -0.03448 0.36678 0.90855
 C141 C 0.01985 0.26685 0.84465
 C142 C 0.02539 0.22964 0.82531
 C143 C 0.03324 0.18541 0.80379
 C144 C 0.04049 0.14703 0.78636
 H145 H -0.06441 0.30641 0.87422
 H146 H 0.09409 0.32447 0.86980
 H147 H 0.08860 0.39530 0.91478
 H148 H -0.07055 0.37769 0.91950
 C149 C -0.33745 0.05541 0.38019
 C150 C -0.31356 0.01220 0.36763
 C151 C -0.33084 -0.03415 0.38017
 C152 C -0.37136 -0.03717 0.40587
 C153 C -0.39490 0.00630 0.41958
 C154 C -0.37771 0.05260 0.40585
 C155 C -0.26984 0.01630 0.34358
 C156 C -0.23262 0.02175 0.32446
 C157 C -0.18840 0.02983 0.30325
 C158 C -0.15007 0.03755 0.28610
 H159 H -0.32436 0.09148 0.37072
 H160 H -0.31248 -0.06787 0.37067
 H161 H -0.38343 -0.07346 0.41561
 H162 H -0.39472 0.08700 0.41540
 C163 C 0.34135 -0.05062 0.37424
 C164 C 0.31362 -0.00815 0.36574
 C165 C 0.32747 0.03763 0.38211
 C166 C 0.36833 0.04064 0.40765
 C167 C 0.39551 -0.00226 0.41723
 C168 C 0.38195 -0.04776 0.39975
 C169 C 0.26938 -0.01275 0.34215
 C170 C 0.23180 -0.01858 0.32336
 C171 C 0.18723 -0.02705 0.30248
 C172 C 0.14865 -0.03505 0.28559
 H173 H 0.33091 -0.08625 0.36183
 H174 H 0.30611 0.07073 0.37583
 H175 H 0.37777 0.07615 0.42070
 H176 H 0.40213 -0.08147 0.40636
   
