data_POSCAR
  _audit_creation_date              2014-09-24
  _audit_creation_method            'ToBaCCo'
  _symmetry_space_group_name_H-M    'P1'
  _symmetry_Int_Tables_number       1
  _symmetry_cell_setting            triclinic
  loop_
  _symmetry_equiv_pos_as_xyz
 x,y,z
_cell_length_a 39.9644
_cell_length_b 37.9195
_cell_length_c 44.8180
_cell_angle_alpha 89.237200
_cell_angle_beta 90.069100
_cell_angle_gamma 90.012600
loop_
  _atom_site_label
  _atom_site_type_symbol
  _atom_site_fract_x
  _atom_site_fract_y
  _atom_site_fract_z
C1 C 1.24841 0.25182 0.25221
 C2 C 0.74392 -0.24806 0.24799
 C3 C 0.74594 0.24984 -0.25041
 C4 C 1.24669 -0.24807 -0.25082
 C5 C 0.25174 0.25083 0.74780
 C6 C 0.75442 0.75202 0.75084
 C7 C 0.75285 0.25082 0.24902
 C8 C 0.25411 0.74830 0.25008
 O9 O 1.05860 0.02121 0.03764
 O10 O 0.94456 -0.01662 0.03768
 O11 O 0.98498 0.06289 0.03557
 O12 O 1.01989 -0.05799 0.03987
 O13 O 0.93900 0.04243 0.01959
 O14 O 1.06601 -0.03841 0.02328
 O15 O 0.96385 -0.06541 0.02276
 O16 O 1.04137 0.06920 0.01848
 C17 C 1.05547 0.05339 0.03952
 C18 C 0.94885 -0.04845 0.04229
 C19 C 0.95469 0.05827 0.03944
 C20 C 1.05021 -0.05378 0.04363
 O21 O 1.05987 -0.01811 -0.03532
 O22 O 0.94526 0.01903 -0.03750
 O23 O 1.01997 0.06009 -0.03869
 O24 O 0.98550 -0.06056 -0.03474
 O25 O 0.93936 -0.03999 -0.01936
 O26 O 1.06601 0.04134 -0.02123
 O27 O 1.04176 -0.06620 -0.01722
 O28 O 0.96387 0.06788 -0.02220
 Co29 Co 1.05679 0.00150 0.00109
 Co30 Co 0.94782 0.00124 0.00013
 Co31 Co 1.00256 0.05880 -0.00147
 Co32 Co 1.00274 -0.05635 0.00246
 O33 O 1.00245 0.00127 0.00055
 C34 C 1.05600 -0.05013 -0.03805
 C35 C 0.94928 0.05090 -0.04199
 C36 C 1.05030 0.05580 -0.04214
 C37 C 0.95530 -0.05576 -0.03905
 O38 O 1.05624 0.52251 0.53531
 O39 O 0.94212 0.48399 0.53695
 O40 O 0.98149 0.56376 0.53473
 O41 O 1.01766 0.44360 0.53767
 O42 O 0.93549 0.54305 0.51913
 O43 O 1.06330 0.46313 0.52017
 O44 O 0.96148 0.43548 0.52154
 O45 O 1.03751 0.57051 0.51743
 C46 C 1.05207 0.55450 0.53815
 C47 C 0.94655 0.45215 0.54131
 C48 C 0.95133 0.55875 0.53895
 C49 C 1.04795 0.44826 0.54103
 O50 O 1.05583 0.48432 0.46201
 O51 O 0.94099 0.52005 0.46196
 O52 O 1.01572 0.56242 0.46017
 O53 O 0.98196 0.44126 0.46361
 O54 O 0.93586 0.46083 0.47988
 O55 O 1.06212 0.54374 0.47687
 O56 O 1.03843 0.43579 0.47998
 O57 O 0.95969 0.56897 0.47718
 Co58 Co 1.05354 0.50337 0.49865
 Co59 Co 0.94443 0.50205 0.49944
 Co60 Co 0.99867 0.56026 0.49753
 Co61 Co 0.99984 0.44521 0.50054
 O62 O 0.99909 0.50272 0.49903
 C63 C 1.05237 0.45225 0.45917
 C64 C 0.94493 0.55195 0.45750
 C65 C 1.04605 0.55852 0.45635
 C66 C 0.95160 0.44533 0.45991
 O67 O 0.55831 0.01782 0.53619
 O68 O 0.44391 -0.01784 0.53747
 O69 O 0.48166 0.06025 0.53429
 O70 O 0.52085 -0.05942 0.53728
 O71 O 0.43633 0.04067 0.51701
 O72 O 0.56603 -0.04125 0.51858
 O73 O 0.46459 -0.06673 0.52354
 O74 O 0.53808 0.06641 0.51999
 C75 C 0.55323 0.04958 0.54009
 C76 C 0.44947 -0.04935 0.54286
 C77 C 0.45126 0.05638 0.53727
 C78 C 0.55127 -0.05563 0.53989
 O79 O 0.55823 -0.01738 0.46187
 O80 O 0.44296 0.01487 0.46163
 O81 O 0.51921 0.05890 0.46092
 O82 O 0.48266 -0.06164 0.46411
 O83 O 0.43704 -0.04384 0.48199
 O84 O 0.56489 0.04178 0.47948
 O85 O 0.53937 -0.06642 0.47821
 O86 O 0.46275 0.06446 0.47506
 Co87 Co 0.55585 0.00014 0.49905
 Co88 Co 0.44611 -0.00145 0.49951
 Co89 Co 0.50050 0.05660 0.49771
 Co90 Co 0.50182 -0.05768 0.50063
 O91 O 0.50105 -0.00059 0.49923
 C92 C 0.55355 -0.04917 0.45787
 C93 C 0.44760 0.04651 0.45608
 C94 C 0.54971 0.05590 0.45824
 C95 C 0.45206 -0.05907 0.46155
 O96 O 0.56170 0.54197 0.01897
 O97 O 0.43634 0.45849 0.02055
 O98 O 0.45910 0.56673 0.01884
 O99 O 0.53890 0.43371 0.02022
 O100 O 0.44173 0.51804 0.03649
 O101 O 0.55648 0.48267 0.03616
 O102 O 0.48261 0.43909 0.03705
 O103 O 0.51543 0.56052 0.03554
 C104 C 0.54579 0.55668 0.03924
 C105 C 0.45241 0.44382 0.04107
 C106 C 0.44511 0.55013 0.03955
 C107 C 0.55323 0.45063 0.04022
 O108 O 0.56292 0.46047 -0.02132
 O109 O 0.43469 0.53969 -0.02169
 O110 O 0.53643 0.56786 -0.02224
 O111 O 0.46116 0.43228 -0.02048
 O112 O 0.44125 0.48048 -0.03724
 O113 O 0.55521 0.51959 -0.03853
 O114 O 0.51711 0.44008 -0.03746
 O115 O 0.48030 0.56011 -0.03872
 Co116 Co 0.55326 0.50108 -0.00117
 Co117 Co 0.44425 0.49929 -0.00046
 Co118 Co 0.49793 0.55761 -0.00156
 Co119 Co 0.49984 0.44246 -0.00024
 O120 O 0.49880 0.50009 -0.00088
 C121 C 0.54733 0.44484 -0.04133
 C122 C 0.45010 0.55488 -0.04235
 C123 C 0.55126 0.55159 -0.04230
 C124 C 0.44609 0.44867 -0.04074
 C125 C 1.17879 0.19041 0.19726
 C126 C 1.17698 0.22738 0.19863
 C127 C 1.19925 0.24628 0.21622
 C128 C 1.22366 0.22903 0.23393
 C129 C 1.22331 0.19179 0.23457
 C130 C 1.20196 0.17291 0.21592
 C131 C 1.15766 0.17052 0.17565
 C132 C 1.14901 0.13495 0.18084
 C133 C 1.13156 0.11582 0.15936
 C134 C 1.12122 0.13199 0.13244
 C135 C 1.12843 0.16798 0.12796
 C136 C 1.14693 0.18668 0.14885
 C137 C 1.10396 0.11145 0.10872
 C138 C 1.10755 0.12125 0.07844
 C139 C 1.09117 0.10266 0.05615
 C140 C 1.07191 0.07297 0.06340
 C141 C 1.06872 0.06230 0.09329
 C142 C 1.08412 0.08172 0.11582
 H143 H 1.15857 0.24209 0.18589
 H144 H 1.19779 0.27480 0.21567
 H145 H 1.23957 0.17663 0.24903
 H146 H 1.20437 0.14452 0.21582
 H147 H 1.15586 0.12154 0.20140
 H148 H 1.12692 0.08814 0.16375
 H149 H 1.12011 0.18196 0.10812
 H150 H 1.15339 0.21368 0.14338
 H151 H 1.12344 0.14300 0.07167
 H152 H 1.09425 0.11093 0.03308
 H153 H 1.05371 0.03947 0.09920
 H154 H 1.08007 0.07356 0.13875
 C155 C 1.17826 0.69104 0.69309
 C156 C 1.18009 0.72793 0.69083
 C157 C 1.20162 0.74681 0.70917
 C158 C 1.22262 0.72946 0.73004
 C159 C 1.21857 0.69265 0.73383
 C160 C 1.19716 0.67370 0.71527
 C161 C 1.15743 0.67083 0.67181
 C162 C 1.13959 0.64064 0.68110
 C163 C 1.12073 0.62139 0.66063
 C164 C 1.11916 0.63212 0.63054
 C165 C 1.13687 0.66230 0.62130
 C166 C 1.15585 0.68135 0.64165
 C167 C 1.09973 0.61173 0.60849
 C168 C 1.08007 0.62937 0.58701
 C169 C 1.06388 0.61059 0.56467
 C170 C 1.06714 0.57377 0.56323
 C171 C 1.08585 0.55594 0.58530
 C172 C 1.10196 0.57477 0.60778
 H173 H 1.16492 0.74229 0.67474
 H174 H 1.20261 0.77523 0.70657
 H175 H 1.23162 0.67806 0.75110
 H176 H 1.19595 0.64531 0.71794
 H177 H 1.13993 0.63208 0.70424
 H178 H 1.10707 0.59836 0.66836
 H179 H 1.13664 0.67078 0.59813
 H180 H 1.16989 0.70396 0.63358
 H181 H 1.07750 0.65779 0.58734
 H182 H 1.04933 0.62501 0.54816
 H183 H 1.08866 0.52754 0.58481
 H184 H 1.11710 0.56055 0.62399
 C185 C 0.67765 0.18394 0.69749
 C186 C 0.67866 0.22066 0.69345
 C187 C 0.70021 0.24121 0.71050
 C188 C 0.72206 0.22570 0.73173
 C189 C 0.71904 0.18900 0.73709
 C190 C 0.69762 0.16841 0.71982
 C191 C 0.65660 0.16192 0.67779
 C192 C 0.66956 0.13086 0.66559
 C193 C 0.65084 0.11148 0.64517
 C194 C 0.61861 0.12261 0.63661
 C195 C 0.60526 0.15311 0.64958
 C196 C 0.62409 0.17260 0.66986
 C197 C 0.59981 0.10348 0.61315
 C198 C 0.58125 0.12227 0.59151
 C199 C 0.56545 0.10464 0.56823
 C200 C 0.56800 0.06784 0.56592
 C201 C 0.58576 0.04888 0.58794
 C202 C 0.60146 0.06651 0.61133
 H203 H 0.66344 0.23346 0.67648
 H204 H 0.70060 0.26944 0.70653
 H205 H 0.73282 0.17580 0.75470
 H206 H 0.69645 0.14026 0.72411
 H207 H 0.69471 0.12224 0.67099
 H208 H 0.66213 0.08848 0.63528
 H209 H 0.58029 0.16205 0.64393
 H210 H 0.61328 0.19615 0.67927
 H211 H 0.57981 0.15076 0.59197
 H212 H 0.55187 0.11996 0.55163
 H213 H 0.58792 0.02045 0.58689
 H214 H 0.61505 0.05119 0.62791
 C215 C 0.67485 0.68697 0.19593
 C216 C 0.67788 0.72338 0.19053
 C217 C 0.69959 0.74372 0.20759
 C218 C 0.72004 0.72817 0.22985
 C219 C 0.71517 0.69197 0.23641
 C220 C 0.69321 0.67168 0.21948
 C221 C 0.65340 0.66493 0.17649
 C222 C 0.66399 0.63114 0.16808
 C223 C 0.64518 0.61139 0.14802
 C224 C 0.61546 0.62505 0.13569
 C225 C 0.60431 0.65837 0.14481
 C226 C 0.62301 0.67803 0.16504
 C227 C 0.59722 0.60557 0.11215
 C228 C 0.56205 0.60609 0.11072
 C229 C 0.54521 0.58969 0.08731
 C230 C 0.56321 0.57237 0.06493
 C231 C 0.59825 0.57101 0.06680
 C232 C 0.61506 0.58752 0.09006
 H233 H 0.66408 0.73614 0.17261
 H234 H 0.70125 0.77174 0.20282
 H235 H 0.72777 0.67902 0.25485
 H236 H 0.69041 0.64396 0.22502
 H237 H 0.68740 0.62034 0.17625
 H238 H 0.65420 0.58558 0.14184
 H239 H 0.58169 0.66982 0.13557
 H240 H 0.61384 0.70370 0.17144
 H241 H 0.54755 0.61929 0.12763
 H242 H 0.51814 0.59090 0.08655
 H243 H 0.61278 0.55781 0.04990
 H244 H 0.64215 0.58705 0.09019
 C245 C 0.81550 -0.18861 0.19251
 C246 C 0.81282 -0.18266 0.22327
 C247 C 0.78997 -0.20182 0.24063
 C248 C 0.76847 -0.22700 0.22774
 C249 C 0.77290 -0.23424 0.19716
 C250 C 0.79546 -0.21486 0.17979
 C251 C 0.83893 -0.16756 0.17361
 C252 C 0.85564 -0.18322 0.14961
 C253 C 0.87571 -0.16305 0.13050
 C254 C 0.88010 -0.12672 0.13510
 C255 C 0.86429 -0.11125 0.15971
 C256 C 0.84384 -0.13139 0.17866
 C257 C 0.89986 -0.10506 0.11348
 C258 C 0.88983 -0.07052 0.10577
 C259 C 0.90659 -0.05145 0.08343
 C260 C 0.93334 -0.06676 0.06801
 C261 C 0.94415 -0.10069 0.07635
 C262 C 0.92782 -0.11949 0.09901
 H263 H 0.82862 -0.16343 0.23403
 H264 H 0.78872 -0.19670 0.26432
 H265 H 0.75943 -0.25514 0.18627
 H266 H 0.79692 -0.22036 0.15619
 H267 H 0.85301 -0.21112 0.14537
 H268 H 0.88703 -0.17588 0.11159
 H269 H 0.86749 -0.08348 0.16423
 H270 H 0.83116 -0.11838 0.19679
 H271 H 0.86820 -0.05866 0.11613
 H272 H 0.89774 -0.02531 0.07739
 H273 H 0.96501 -0.11290 0.06506
 H274 H 0.93686 -0.14558 0.10488
 C275 C 0.81496 0.31091 0.69263
 C276 C 0.81285 0.31687 0.72343
 C277 C 0.79072 0.29730 0.74125
 C278 C 0.76944 0.27159 0.72883
 C279 C 0.77310 0.26459 0.69811
 C280 C 0.79493 0.28438 0.68030
 C281 C 0.83788 0.33213 0.67330
 C282 C 0.85424 0.31656 0.64905
 C283 C 0.87400 0.33680 0.62970
 C284 C 0.87841 0.37314 0.63426
 C285 C 0.86288 0.38855 0.65905
 C286 C 0.84276 0.36833 0.67825
 C287 C 0.89795 0.39487 0.61247
 C288 C 0.88789 0.42947 0.60497
 C289 C 0.90451 0.44869 0.58263
 C290 C 0.93119 0.43354 0.56700
 C291 C 0.94202 0.39954 0.57509
 C292 C 0.92579 0.38054 0.59773
 H293 H 0.82861 0.33638 0.73389
 H294 H 0.78996 0.30241 0.76496
 H295 H 0.75961 0.24354 0.68746
 H296 H 0.79589 0.27891 0.65667
 H297 H 0.85165 0.28865 0.64484
 H298 H 0.88510 0.32400 0.61067
 H299 H 0.86608 0.41631 0.66355
 H300 H 0.83036 0.38129 0.69656
 H301 H 0.86635 0.44127 0.61552
 H302 H 0.89563 0.47488 0.57679
 H303 H 0.96286 0.38745 0.56367
 H304 H 0.93486 0.35441 0.60342
 C305 C 0.31877 -0.18738 0.69527
 C306 C 0.31597 -0.18217 0.72612
 C307 C 0.29281 -0.20154 0.74302
 C308 C 0.27108 -0.22606 0.72954
 C309 C 0.27538 -0.23223 0.69875
 C310 C 0.29829 -0.21275 0.68189
 C311 C 0.34280 -0.16659 0.67685
 C312 C 0.35972 -0.18246 0.65307
 C313 C 0.37994 -0.16245 0.63398
 C314 C 0.38422 -0.12609 0.63839
 C315 C 0.36841 -0.11045 0.66293
 C316 C 0.34785 -0.13046 0.68190
 C317 C 0.40348 -0.10452 0.61636
 C318 C 0.39266 -0.07043 0.60812
 C319 C 0.40851 -0.05177 0.58503
 C320 C 0.43515 -0.06705 0.56942
 C321 C 0.44687 -0.10042 0.57839
 C322 C 0.43142 -0.11881 0.60177
 H323 H 0.33201 -0.16349 0.73729
 H324 H 0.29166 -0.19725 0.76684
 H325 H 0.26163 -0.25249 0.68729
 H326 H 0.29980 -0.21756 0.65817
 H327 H 0.35696 -0.21036 0.64889
 H328 H 0.39129 -0.17540 0.61515
 H329 H 0.37155 -0.08263 0.66726
 H330 H 0.33508 -0.11738 0.69995
 H331 H 0.37103 -0.05871 0.61858
 H332 H 0.39899 -0.02604 0.57854
 H333 H 0.46771 -0.11256 0.56700
 H334 H 0.44101 -0.14457 0.60804
 C335 C 0.31570 0.31384 0.19460
 C336 C 0.29396 0.28900 0.18213
 C337 C 0.27260 0.26900 0.20012
 C338 C 0.27174 0.27361 0.23136
 C339 C 0.29533 0.29699 0.24384
 C340 C 0.31666 0.31715 0.22573
 C341 C 0.33683 0.33628 0.17486
 C342 C 0.37030 0.34378 0.18213
 C343 C 0.39023 0.36384 0.16262
 C344 C 0.37700 0.37685 0.13554
 C345 C 0.34340 0.36971 0.12860
 C346 C 0.32356 0.34985 0.14805
 C347 C 0.39810 0.39674 0.11386
 C348 C 0.38432 0.42477 0.09710
 C349 C 0.40245 0.44064 0.07403
 C350 C 0.43496 0.42918 0.06742
 C351 C 0.44962 0.40262 0.08522
 C352 C 0.43127 0.38639 0.10817
 H353 H 0.29368 0.28474 0.15828
 H354 H 0.25726 0.24966 0.18911
 H355 H 0.29656 0.30023 0.26779
 H356 H 0.33339 0.33586 0.23606
 H357 H 0.38127 0.33351 0.20257
 H358 H 0.41595 0.36913 0.16869
 H359 H 0.33253 0.37881 0.10774
 H360 H 0.29773 0.34500 0.14202
 H361 H 0.35918 0.43401 0.10144
 H362 H 0.39079 0.46152 0.06098
 H363 H 0.47473 0.39341 0.08062
 H364 H 0.44254 0.36475 0.12056
 C365 C 0.81700 0.19034 -0.19410
 C366 C 0.79680 0.21660 -0.18164
 C367 C 0.77442 0.23595 -0.19928
 C368 C 0.77029 0.22870 -0.22992
 C369 C 0.79195 0.20350 -0.24253
 C370 C 0.81461 0.18434 -0.22489
 C371 C 0.84029 0.16940 -0.17488
 C372 C 0.84536 0.13321 -0.17974
 C373 C 0.86563 0.11319 -0.16046
 C374 C 0.88113 0.12880 -0.13572
 C375 C 0.87660 0.16515 -0.13130
 C376 C 0.85670 0.18519 -0.15072
 C377 C 0.90074 0.10728 -0.11378
 C378 C 0.92847 0.12186 -0.09900
 C379 C 0.94466 0.10315 -0.07615
 C380 C 0.93394 0.06916 -0.06789
 C381 C 0.90741 0.05372 -0.08359
 C382 C 0.89080 0.07268 -0.10614
 H383 H 0.79801 0.22216 -0.15804
 H384 H 0.76087 0.25686 -0.18854
 H385 H 0.79098 0.19838 -0.26623
 H386 H 0.83053 0.16509 -0.23545
 H387 H 0.83294 0.12010 -0.19798
 H388 H 0.86893 0.08541 -0.16486
 H389 H 0.88767 0.17810 -0.11232
 H390 H 0.85397 0.21310 -0.14659
 H391 H 0.93746 0.14799 -0.10479
 H392 H 0.96539 0.11545 -0.06468
 H393 H 0.89862 0.02754 -0.07763
 H394 H 0.86935 0.06069 -0.11673
 C395 C 0.81253 0.69123 0.30556
 C396 C 0.79237 0.71773 0.31771
 C397 C 0.77063 0.73742 0.29971
 C398 C 0.76721 0.73030 0.26899
 C399 C 0.78856 0.70456 0.25677
 C400 C 0.81061 0.68513 0.27477
 C401 C 0.83543 0.67023 0.32504
 C402 C 0.84050 0.63405 0.32019
 C403 C 0.86073 0.61406 0.33948
 C404 C 0.87613 0.62969 0.36426
 C405 C 0.87148 0.66600 0.36875
 C406 C 0.85166 0.68602 0.34928
 C407 C 0.89584 0.60824 0.38610
 C408 C 0.92355 0.62294 0.40082
 C409 C 0.93988 0.60427 0.42358
 C410 C 0.92935 0.57020 0.43177
 C411 C 0.90283 0.55465 0.41614
 C412 C 0.88605 0.57359 0.39370
 H413 H 0.79317 0.72327 0.34133
 H414 H 0.75705 0.75849 0.31020
 H415 H 0.78793 0.69936 0.23308
 H416 H 0.82648 0.66565 0.26446
 H417 H 0.82820 0.62093 0.30188
 H418 H 0.86412 0.58630 0.33506
 H419 H 0.88246 0.67895 0.38778
 H420 H 0.84891 0.71394 0.35340
 H421 H 0.93241 0.64912 0.39504
 H422 H 0.96056 0.61668 0.43504
 H423 H 0.89420 0.52840 0.42207
 H424 H 0.86462 0.56152 0.38315
 C425 C 0.31654 0.18606 0.30592
 C426 C 0.31714 0.18493 0.27472
 C427 C 0.29553 0.20630 0.25789
 C428 C 0.27244 0.22912 0.27179
 C429 C 0.27429 0.23194 0.30320
 C430 C 0.29542 0.21014 0.31995
 C431 C 0.33746 0.16200 0.32414
 C432 C 0.32270 0.14174 0.34700
 C433 C 0.34234 0.12028 0.36546
 C434 C 0.37718 0.11911 0.36169
 C435 C 0.39196 0.13899 0.33853
 C436 C 0.37216 0.16002 0.31966
 C437 C 0.39790 0.09886 0.38320
 C438 C 0.42489 0.11514 0.39761
 C439 C 0.44169 0.09771 0.42083
 C440 C 0.43207 0.06352 0.42972
 C441 C 0.40622 0.04654 0.41422
 C442 C 0.38909 0.06420 0.39133
 H443 H 0.33369 0.16688 0.26342
 H444 H 0.29614 0.20438 0.23381
 H445 H 0.25984 0.25098 0.31534
 H446 H 0.29553 0.21231 0.34403
 H447 H 0.29594 0.14278 0.35071
 H448 H 0.33044 0.10549 0.38336
 H449 H 0.41880 0.13842 0.33524
 H450 H 0.38399 0.17557 0.30218
 H451 H 0.43197 0.14195 0.39183
 H452 H 0.46171 0.11126 0.43228
 H453 H 0.39839 0.02013 0.42054
 H454 H 0.36847 0.05109 0.38035
 C455 C 0.31364 0.68761 -0.19466
 C456 C 0.29506 0.71505 -0.18216
 C457 C 0.27402 0.73588 -0.19982
 C458 C 0.27002 0.72931 -0.23059
 C459 C 0.29094 0.70353 -0.24336
 C460 C 0.31204 0.68258 -0.22559
 C461 C 0.33421 0.66435 -0.17510
 C462 C 0.36660 0.65395 -0.18343
 C463 C 0.38621 0.63337 -0.16400
 C464 C 0.37367 0.62265 -0.13600
 C465 C 0.34105 0.63257 -0.12804
 C466 C 0.32156 0.65305 -0.14736
 C467 C 0.39465 0.60243 -0.11442
 C468 C 0.38023 0.57590 -0.09640
 C469 C 0.39864 0.55980 -0.07355
 C470 C 0.43198 0.56964 -0.06836
 C471 C 0.44706 0.59477 -0.08734
 C472 C 0.42851 0.61112 -0.11012
 H473 H 0.29703 0.72067 -0.15859
 H474 H 0.26138 0.75739 -0.18901
 H475 H 0.29022 0.69900 -0.26715
 H476 H 0.32653 0.66197 -0.23596
 H477 H 0.37705 0.66242 -0.20462
 H478 H 0.41118 0.62591 -0.17083
 H479 H 0.33079 0.62523 -0.10649
 H480 H 0.29652 0.66022 -0.14050
 H481 H 0.35444 0.56804 -0.09960
 H482 H 0.38656 0.54008 -0.05957
 H483 H 0.47280 0.60274 -0.08388
 H484 H 0.44027 0.63161 -0.12350
 C485 C 1.17943 -0.18585 -0.19499
 C486 C 1.19902 -0.16874 -0.21678
 C487 C 1.22001 -0.18808 -0.23541
 C488 C 1.22278 -0.22508 -0.23208
 C489 C 1.20102 -0.24206 -0.21167
 C490 C 1.17996 -0.22280 -0.19328
 C491 C 1.15933 -0.16545 -0.17336
 C492 C 1.15774 -0.17654 -0.14335
 C493 C 1.13923 -0.15757 -0.12269
 C494 C 1.12196 -0.12690 -0.13145
 C495 C 1.12364 -0.11554 -0.16138
 C496 C 1.14209 -0.13469 -0.18218
 C497 C 1.10288 -0.10673 -0.10906
 C498 C 1.10536 -0.06980 -0.10797
 C499 C 1.08954 -0.05121 -0.08524
 C500 C 1.07091 -0.06923 -0.06325
 C501 C 1.06745 -0.10599 -0.06501
 C502 C 1.08331 -0.12454 -0.08765
 H503 H 1.19876 -0.14027 -0.21900
 H504 H 1.23391 -0.17368 -0.25224
 H505 H 1.20115 -0.27053 -0.20937
 H506 H 1.16424 -0.23691 -0.17750
 H507 H 1.17137 -0.19961 -0.13565
 H508 H 1.13897 -0.16653 -0.09964
 H509 H 1.11036 -0.09210 -0.16875
 H510 H 1.14255 -0.12565 -0.20519
 H511 H 1.12045 -0.05544 -0.12409
 H512 H 1.09249 -0.02283 -0.08450
 H513 H 1.05293 -0.12054 -0.04858
 H514 H 1.08052 -0.15293 -0.08826
 C515 C 1.18134 0.31670 0.30629
 C516 C 1.18125 0.27981 0.30884
 C517 C 1.20266 0.25963 0.29139
 C518 C 1.22552 0.27566 0.27135
 C519 C 1.22388 0.31273 0.26774
 C520 C 1.20250 0.33288 0.28526
 C521 C 1.15991 0.33830 0.32588
 C522 C 1.17275 0.36893 0.33895
 C523 C 1.15329 0.38843 0.35862
 C524 C 1.12051 0.37777 0.36562
 C525 C 1.10741 0.34754 0.35204
 C526 C 1.12693 0.32798 0.33240
 C527 C 1.10080 0.39721 0.38810
 C528 C 1.08171 0.37873 0.40948
 C529 C 1.06527 0.39674 0.43213
 C530 C 1.06765 0.43360 0.43392
 C531 C 1.08581 0.45223 0.41201
 C532 C 1.10223 0.43421 0.38933
 H533 H 1.16510 0.26652 0.32478
 H534 H 1.20196 0.23119 0.29395
 H535 H 1.23840 0.32668 0.25109
 H536 H 1.20218 0.36124 0.28207
 H537 H 1.19825 0.37724 0.33468
 H538 H 1.16432 0.41123 0.36911
 H539 H 1.08207 0.33898 0.35665
 H540 H 1.11621 0.30478 0.32228
 H541 H 1.08041 0.35021 0.40934
 H542 H 1.05133 0.38170 0.44864
 H543 H 1.08784 0.48070 0.41271
 H544 H 1.11630 0.44921 0.37289
 C545 C 0.67510 -0.18178 0.29881
 C546 C 0.67617 -0.21843 0.30326
 C547 C 0.69791 -0.23913 0.28662
 C548 C 0.71990 -0.22380 0.26546
 C549 C 0.71678 -0.18721 0.25965
 C550 C 0.69516 -0.16647 0.27649
 C551 C 0.65405 -0.15957 0.31822
 C552 C 0.66715 -0.12855 0.33041
 C553 C 0.64857 -0.10921 0.35088
 C554 C 0.61641 -0.12037 0.35948
 C555 C 0.60285 -0.15071 0.34640
 C556 C 0.62152 -0.17017 0.32607
 C557 C 0.59804 -0.10164 0.38332
 C558 C 0.58016 -0.12085 0.40511
 C559 C 0.56503 -0.10366 0.42891
 C560 C 0.56762 -0.06691 0.43158
 C561 C 0.58463 -0.04752 0.40938
 C562 C 0.59965 -0.06471 0.38548
 H563 H 0.66086 -0.23103 0.32023
 H564 H 0.69835 -0.26731 0.29087
 H565 H 0.73066 -0.17420 0.24203
 H566 H 0.69395 -0.13838 0.27194
 H567 H 0.69232 -0.12002 0.32504
 H568 H 0.65998 -0.08630 0.36085
 H569 H 0.57790 -0.15963 0.35213
 H570 H 0.61064 -0.19370 0.31665
 H571 H 0.57879 -0.14934 0.40437
 H572 H 0.55198 -0.11928 0.44563
 H573 H 0.58674 -0.01910 0.41071
 H574 H 0.61277 -0.04912 0.36880
 C575 C 0.67701 0.31452 -0.19794
 C576 C 0.69556 0.33004 -0.22125
 C577 C 0.71735 0.30985 -0.23841
 C578 C 0.72190 0.27349 -0.23233
 C579 C 0.70120 0.25774 -0.21038
 C580 C 0.67965 0.27797 -0.19310
 C581 C 0.65573 0.33641 -0.17821
 C582 C 0.62527 0.32337 -0.16692
 C583 C 0.60665 0.34289 -0.14656
 C584 C 0.61791 0.37607 -0.13712
 C585 C 0.64778 0.38964 -0.14921
 C586 C 0.66651 0.37001 -0.16940
 C587 C 0.59949 0.39558 -0.11369
 C588 C 0.61712 0.41381 -0.09151
 C589 C 0.60009 0.43047 -0.06845
 C590 C 0.56503 0.42907 -0.06685
 C591 C 0.54726 0.41155 -0.08931
 C592 C 0.56431 0.39504 -0.11251
 H593 H 0.69305 0.35790 -0.22641
 H594 H 0.73014 0.32302 -0.25661
 H595 H 0.70263 0.22963 -0.20595
 H596 H 0.66572 0.26499 -0.17540
 H597 H 0.61592 0.29785 -0.17359
 H598 H 0.58393 0.33146 -0.13753
 H599 H 0.65692 0.41533 -0.14281
 H600 H 0.68998 0.38078 -0.17741
 H601 H 0.64420 0.41434 -0.09142
 H602 H 0.61447 0.44378 -0.05148
 H603 H 0.52020 0.41032 -0.08880
 H604 H 0.54993 0.38176 -0.12949
 C605 C 1.18162 0.18515 -0.20046
 C606 C 1.19913 0.17056 -0.22448
 C607 C 1.22134 0.19111 -0.24142
 C608 C 1.22751 0.22671 -0.23423
 C609 C 1.20793 0.24163 -0.21142
 C610 C 1.18588 0.22111 -0.19449
 C611 C 1.15967 0.16293 -0.18114
 C612 C 1.12969 0.17650 -0.16959
 C613 C 1.11064 0.15677 -0.14927
 C614 C 1.12102 0.12291 -0.14008
 C615 C 1.15031 0.10878 -0.15253
 C616 C 1.16943 0.12858 -0.17278
 C617 C 1.10248 0.10338 -0.11632
 C618 C 1.12000 0.08458 -0.09402
 C619 C 1.10293 0.06841 -0.07037
 C620 C 1.06794 0.07082 -0.06835
 C621 C 1.05025 0.08872 -0.09103
 C622 C 1.06734 0.10482 -0.11478
 H623 H 1.19538 0.14325 -0.23040
 H624 H 1.23311 0.17891 -0.26034
 H625 H 1.21048 0.26930 -0.20617
 H626 H 1.17275 0.23333 -0.17621
 H627 H 1.12116 0.20264 -0.17595
 H628 H 1.08839 0.16859 -0.13995
 H629 H 1.15874 0.08257 -0.14628
 H630 H 1.19249 0.11740 -0.18108
 H631 H 1.14706 0.08334 -0.09427
 H632 H 1.11724 0.05472 -0.05326
 H633 H 1.02324 0.09073 -0.09020
 H634 H 1.05306 0.11861 -0.13184
 C635 C 1.18033 0.68938 0.30109
 C636 C 1.19027 0.67797 0.27282
 C637 C 1.21368 0.69725 0.25609
 C638 C 1.22956 0.72758 0.26782
 C639 C 1.21688 0.74023 0.29526
 C640 C 1.19330 0.72114 0.31177
 C641 C 1.15704 0.66805 0.31980
 C642 C 1.13156 0.68441 0.33619
 C643 C 1.11162 0.66476 0.35590
 C644 C 1.11683 0.62833 0.35979
 C645 C 1.14161 0.61177 0.34270
 C646 C 1.16141 0.63140 0.32283
 C647 C 1.09786 0.60825 0.38291
 C648 C 1.11450 0.58430 0.40197
 C649 C 1.09744 0.56759 0.42541
 C650 C 1.06332 0.57432 0.43023
 C651 C 1.04635 0.59729 0.41055
 C652 C 1.06348 0.61423 0.38722
 H653 H 1.17966 0.65425 0.26350
 H654 H 1.21973 0.68798 0.23402
 H655 H 1.22538 0.76496 0.30435
 H656 H 1.18568 0.73101 0.33328
 H657 H 1.12737 0.71254 0.33408
 H658 H 1.09292 0.67833 0.36891
 H659 H 1.14597 0.58368 0.34501
 H660 H 1.18098 0.61811 0.31063
 H661 H 1.14103 0.57940 0.39942
 H662 H 1.11114 0.54985 0.44010
 H663 H 1.02000 0.60284 0.41360
 H664 H 1.04992 0.63223 0.37267
 C665 C 0.68285 0.18507 0.30081
 C666 C 0.70070 0.17032 0.27705
 C667 C 0.72289 0.19087 0.26007
 C668 C 0.72866 0.22662 0.26696
 C669 C 0.70891 0.24161 0.28961
 C670 C 0.68685 0.22110 0.30656
 C671 C 0.66078 0.16295 0.32011
 C672 C 0.63052 0.17647 0.33112
 C673 C 0.61130 0.15692 0.35145
 C674 C 0.62181 0.12331 0.36119
 C675 C 0.65141 0.10924 0.34929
 C676 C 0.67069 0.12884 0.32902
 C677 C 0.60299 0.10399 0.38489
 C678 C 0.62025 0.08577 0.40769
 C679 C 0.60286 0.06962 0.43117
 C680 C 0.56779 0.07142 0.43248
 C681 C 0.55039 0.08884 0.40936
 C682 C 0.56781 0.10497 0.38581
 H683 H 0.69722 0.14290 0.27136
 H684 H 0.73498 0.17856 0.24135
 H685 H 0.71128 0.26934 0.29471
 H686 H 0.67350 0.23341 0.32466
 H687 H 0.62189 0.20243 0.32434
 H688 H 0.58880 0.16869 0.36032
 H689 H 0.65995 0.08321 0.35599
 H690 H 0.69395 0.11773 0.32112
 H691 H 0.64733 0.08492 0.40793
 H692 H 0.61695 0.05628 0.44862
 H693 H 0.52333 0.09038 0.40966
 H694 H 0.55375 0.11833 0.36837
 C695 C 0.68543 0.68831 -0.19462
 C696 C 0.68837 0.72487 -0.19098
 C697 C 0.71009 0.74462 -0.20882
 C698 C 0.73012 0.72853 -0.23071
 C699 C 0.72492 0.69226 -0.23594
 C700 C 0.70335 0.67235 -0.21778
 C701 C 0.66428 0.66713 -0.17379
 C702 C 0.64525 0.63837 -0.18380
 C703 C 0.62532 0.61890 -0.16384
 C704 C 0.62383 0.62806 -0.13360
 C705 C 0.64304 0.65654 -0.12360
 C706 C 0.66312 0.67571 -0.14338
 C707 C 0.60269 0.60803 -0.11218
 C708 C 0.58319 0.62608 -0.09128
 C709 C 0.56557 0.60758 -0.06924
 C710 C 0.56727 0.57062 -0.06748
 C711 C 0.58575 0.55242 -0.08907
 C712 C 0.60322 0.57098 -0.11131
 H713 H 0.67391 0.73834 -0.17420
 H714 H 0.71193 0.77271 -0.20507
 H715 H 0.73725 0.67892 -0.25400
 H716 H 0.70122 0.64431 -0.22156
 H717 H 0.64531 0.63126 -0.20711
 H718 H 0.61062 0.59711 -0.17211
 H719 H 0.64292 0.66369 -0.10028
 H720 H 0.67811 0.69705 -0.13471
 H721 H 0.58195 0.65461 -0.09176
 H722 H 0.55131 0.62233 -0.05310
 H723 H 0.58738 0.52390 -0.08832
 H724 H 0.61817 0.55646 -0.12710
 C725 C 0.82304 -0.18895 -0.19189
 C726 C 0.80558 -0.21821 -0.18048
 C727 C 0.78420 -0.23749 -0.19863
 C728 C 0.77864 -0.22744 -0.22871
 C729 C 0.79864 -0.19996 -0.24064
 C730 C 0.82013 -0.18059 -0.22239
 C731 C 0.84339 -0.16696 -0.17160
 C732 C 0.87518 -0.15442 -0.17999
 C733 C 0.89427 -0.13439 -0.16017
 C734 C 0.88175 -0.12626 -0.13177
 C735 C 0.84985 -0.13857 -0.12362
 C736 C 0.83092 -0.15861 -0.14328
 C737 C 0.90179 -0.10568 -0.11019
 C738 C 0.88615 -0.08038 -0.09232
 C739 C 0.90389 -0.06355 -0.06980
 C740 C 0.93773 -0.07153 -0.06464
 C741 C 0.95390 -0.09559 -0.08337
 C742 C 0.93606 -0.11256 -0.10593
 H743 H 0.80856 -0.22632 -0.15736
 H744 H 0.77226 -0.26041 -0.18878
 H745 H 0.79680 -0.19278 -0.26405
 H746 H 0.83375 -0.15851 -0.23196
 H747 H 0.88547 -0.16062 -0.20163
 H748 H 0.91871 -0.12508 -0.16711
 H749 H 0.83968 -0.13321 -0.10176
 H750 H 0.80635 -0.16750 -0.13632
 H751 H 0.85998 -0.07396 -0.09549
 H752 H 0.89090 -0.04470 -0.05604
 H753 H 0.98003 -0.10210 -0.07998
 H754 H 0.94873 -0.13205 -0.11926
 C755 C 0.82076 0.30957 0.30724
 C756 C 0.80368 0.27982 0.31822
 C757 C 0.78258 0.26057 0.29976
 C758 C 0.77691 0.27114 0.26982
 C759 C 0.79669 0.29902 0.25828
 C760 C 0.81785 0.31838 0.27683
 C761 C 0.84077 0.33157 0.32785
 C762 C 0.87210 0.34529 0.31942
 C763 C 0.89077 0.36559 0.33936
 C764 C 0.87832 0.37277 0.36798
 C765 C 0.84689 0.35921 0.37621
 C766 C 0.82836 0.33894 0.35641
 C767 C 0.89799 0.39369 0.38963
 C768 C 0.88184 0.41802 0.40812
 C769 C 0.89952 0.43539 0.43041
 C770 C 0.93380 0.42894 0.43470
 C771 C 0.95035 0.40576 0.41545
 C772 C 0.93259 0.38826 0.39313
 H773 H 0.80672 0.27131 0.34123
 H774 H 0.77093 0.23728 0.30924
 H775 H 0.79487 0.30658 0.23495
 H776 H 0.83118 0.34082 0.26754
 H777 H 0.88239 0.33988 0.29762
 H778 H 0.91482 0.37586 0.33232
 H779 H 0.83678 0.36382 0.39823
 H780 H 0.80411 0.32916 0.36343
 H781 H 0.85537 0.42334 0.40556
 H782 H 0.88619 0.45350 0.44461
 H783 H 0.97681 0.40039 0.41818
 H784 H 0.94569 0.36953 0.37935
 C785 C 0.32181 -0.19415 0.30722
 C786 C 0.31213 -0.22876 0.31433
 C787 C 0.29101 -0.24744 0.29541
 C788 C 0.27725 -0.23157 0.26931
 C789 C 0.29013 -0.19798 0.26093
 C790 C 0.31151 -0.17937 0.27986
 C791 C 0.34181 -0.17342 0.32879
 C792 C 0.36890 -0.15241 0.31934
 C793 C 0.38736 -0.13291 0.34001
 C794 C 0.37877 -0.13367 0.37043
 C795 C 0.35166 -0.15463 0.37978
 C796 C 0.33348 -0.17433 0.35924
 C797 C 0.39783 -0.11281 0.39258
 C798 C 0.38081 -0.09419 0.41481
 C799 C 0.39849 -0.07617 0.43677
 C800 C 0.43364 -0.07651 0.43715
 C801 C 0.45076 -0.09441 0.41451
 C802 C 0.43301 -0.11229 0.39237
 H803 H 0.32090 -0.24146 0.33467
 H804 H 0.28463 -0.27426 0.30175
 H805 H 0.28337 -0.18562 0.23988
 H806 H 0.31932 -0.15302 0.27338
 H807 H 0.37600 -0.15137 0.29604
 H808 H 0.40804 -0.11684 0.33217
 H809 H 0.34467 -0.15606 0.40310
 H810 H 0.31253 -0.18996 0.36715
 H811 H 0.35372 -0.09367 0.41527
 H812 H 0.38458 -0.06239 0.45374
 H813 H 0.47786 -0.09503 0.41417
 H814 H 0.44678 -0.12655 0.37559
 C815 C 0.32203 0.30860 -0.19527
 C816 C 0.31873 0.31690 -0.22578
 C817 C 0.29644 0.29818 -0.24373
 C818 C 0.27614 0.27106 -0.23165
 C819 C 0.28152 0.26128 -0.20150
 C820 C 0.30342 0.28024 -0.18352
 C821 C 0.34431 0.32957 -0.17554
 C822 C 0.36124 0.31334 -0.15150
 C823 C 0.37980 0.33335 -0.13145
 C824 C 0.38254 0.37014 -0.13514
 C825 C 0.36672 0.38622 -0.15987
 C826 C 0.34768 0.36624 -0.17969
 C827 C 0.40058 0.39159 -0.11254
 C828 C 0.38911 0.42547 -0.10509
 C829 C 0.40457 0.44454 -0.08240
 C830 C 0.43141 0.42989 -0.06627
 C831 C 0.44344 0.39650 -0.07406
 C832 C 0.42845 0.37773 -0.09713
 H833 H 0.33352 0.33776 -0.23591
 H834 H 0.29460 0.30525 -0.26716
 H835 H 0.26905 0.23883 -0.19142
 H836 H 0.30532 0.27281 -0.16018
 H837 H 0.35990 0.28510 -0.14790
 H838 H 0.39118 0.31994 -0.11255
 H839 H 0.36874 0.41436 -0.16382
 H840 H 0.33484 0.37975 -0.19778
 H841 H 0.36746 0.43689 -0.11605
 H842 H 0.39475 0.47023 -0.07679
 H843 H 0.46443 0.38483 -0.06223
 H844 H 0.43861 0.35220 -0.10270
 C845 C 1.18626 -0.18858 0.19602
 C846 C 1.19578 -0.17750 0.22452
 C847 C 1.21773 -0.19781 0.24199
 C848 C 1.23243 -0.22913 0.23099
 C849 C 1.22073 -0.24089 0.20289
 C850 C 1.19863 -0.22072 0.18561
 C851 C 1.16347 -0.16683 0.17707
 C852 C 1.13778 -0.18276 0.16055
 C853 C 1.11771 -0.16265 0.14124
 C854 C 1.12297 -0.12617 0.13786
 C855 C 1.14812 -0.11008 0.15493
 C856 C 1.16806 -0.13017 0.17442
 C857 C 1.10351 -0.10546 0.11541
 C858 C 1.11973 -0.08094 0.09660
 C859 C 1.10217 -0.06354 0.07380
 C860 C 1.06793 -0.07012 0.06934
 C861 C 1.05138 -0.09367 0.08880
 C862 C 1.06903 -0.11129 0.11151
 H863 H 1.18570 -0.15339 0.23357
 H864 H 1.22322 -0.18881 0.26428
 H865 H 1.22853 -0.26600 0.19405
 H866 H 1.19139 -0.23026 0.16387
 H867 H 1.13337 -0.21088 0.16240
 H868 H 1.09875 -0.17587 0.12822
 H869 H 1.15256 -0.08197 0.15301
 H870 H 1.18775 -0.11720 0.18674
 H871 H 1.14632 -0.07613 0.09884
 H872 H 1.11558 -0.04543 0.05925
 H873 H 1.02498 -0.09916 0.08601
 H874 H 1.05577 -0.12972 0.12588
 C875 C 1.18180 0.31805 0.69725
 C876 C 1.18532 0.28205 0.69112
 C877 C 1.20741 0.26107 0.70763
 C878 C 1.22772 0.27553 0.73018
 C879 C 1.22259 0.31130 0.73738
 C880 C 1.20030 0.33230 0.72088
 C881 C 1.15952 0.34061 0.67848
 C882 C 1.16938 0.37488 0.66997
 C883 C 1.14990 0.39489 0.65012
 C884 C 1.12017 0.38107 0.63820
 C885 C 1.10969 0.34732 0.64759
 C886 C 1.12907 0.32739 0.66755
 C887 C 1.10125 0.40071 0.61469
 C888 C 1.06609 0.39934 0.61355
 C889 C 1.04864 0.41541 0.58995
 C890 C 1.06599 0.43324 0.56706
 C891 C 1.10100 0.43563 0.56871
 C892 C 1.11844 0.41946 0.59218
 H893 H 1.17151 0.27011 0.67308
 H894 H 1.20933 0.23338 0.70229
 H895 H 1.23525 0.32326 0.75600
 H896 H 1.19725 0.35969 0.72686
 H897 H 1.19278 0.38580 0.67782
 H898 H 1.15843 0.42102 0.64372
 H899 H 1.08710 0.33570 0.63869
 H900 H 1.12043 0.30135 0.67406
 H901 H 1.05205 0.38562 0.63078
 H902 H 1.02160 0.41342 0.58941
 H903 H 1.11506 0.44927 0.55143
 H904 H 1.14550 0.42064 0.59210
 C905 C 0.68500 -0.18219 0.69843
 C906 C 0.68823 -0.21846 0.69335
 C907 C 0.71011 -0.23895 0.71051
 C908 C 0.73046 -0.22374 0.73268
 C909 C 0.72547 -0.18769 0.73892
 C910 C 0.70344 -0.16716 0.72173
 C911 C 0.66306 -0.16019 0.67893
 C912 C 0.67347 -0.12656 0.66919
 C913 C 0.65423 -0.10718 0.64871
 C914 C 0.62418 -0.12102 0.63745
 C915 C 0.61322 -0.15412 0.64801
 C916 C 0.63238 -0.17343 0.66854
 C917 C 0.60527 -0.10204 0.61360
 C918 C 0.57008 -0.10250 0.61313
 C919 C 0.55248 -0.08692 0.58943
 C920 C 0.56969 -0.07050 0.56573
 C921 C 0.60478 -0.06909 0.56660
 C922 C 0.62238 -0.08477 0.59022
 H923 H 0.67440 -0.23098 0.67561
 H924 H 0.71190 -0.26686 0.70594
 H925 H 0.73803 -0.17512 0.75729
 H926 H 0.70055 -0.13951 0.72690
 H927 H 0.69707 -0.11570 0.67660
 H928 H 0.66313 -0.08153 0.64137
 H929 H 0.59036 -0.16572 0.63962
 H930 H 0.62338 -0.19901 0.67597
 H931 H 0.55614 -0.11508 0.63103
 H932 H 0.52540 -0.08806 0.58951
 H933 H 0.61871 -0.05652 0.54868
 H934 H 0.64946 -0.08433 0.58966
 C935 C 0.68318 0.31711 0.19736
 C936 C 0.68623 0.28091 0.19207
 C937 C 0.70836 0.26027 0.20887
 C938 C 0.72875 0.27523 0.23115
 C939 C 0.72379 0.31123 0.23765
 C940 C 0.70184 0.33199 0.22056
 C941 C 0.66117 0.33924 0.17815
 C942 C 0.67270 0.37158 0.16650
 C943 C 0.65324 0.39088 0.14611
 C944 C 0.62171 0.37836 0.13710
 C945 C 0.60968 0.34666 0.14974
 C946 C 0.62925 0.32726 0.16992
 C947 C 0.60234 0.39722 0.11342
 C948 C 0.58496 0.37811 0.09163
 C949 C 0.56841 0.39553 0.06828
 C950 C 0.56903 0.43249 0.06601
 C951 C 0.58574 0.45175 0.08809
 C952 C 0.60218 0.43429 0.11157
 H953 H 0.67204 0.26864 0.17442
 H954 H 0.71017 0.23244 0.20403
 H955 H 0.73636 0.32364 0.25609
 H956 H 0.69911 0.35966 0.22572
 H957 H 0.69735 0.38125 0.17223
 H958 H 0.66350 0.41490 0.13654
 H959 H 0.58523 0.33665 0.14380
 H960 H 0.61954 0.30267 0.17894
 H961 H 0.58498 0.34956 0.09206
 H962 H 0.55573 0.37998 0.05162
 H963 H 0.58642 0.48030 0.08703
 H964 H 0.61486 0.44984 0.12822
 C965 C 0.82070 0.19200 0.19095
 C966 C 0.81758 0.18306 0.22131
 C967 C 0.79623 0.20226 0.23975
 C968 C 0.77656 0.23023 0.22818
 C969 C 0.78212 0.24070 0.19821
 C970 C 0.80339 0.22155 0.17985
 C971 C 0.84130 0.17039 0.17054
 C972 C 0.82933 0.16280 0.14186
 C973 C 0.84843 0.14289 0.12225
 C974 C 0.88001 0.12996 0.13081
 C975 C 0.89206 0.13744 0.15953
 C976 C 0.87281 0.15734 0.17928
 C977 C 0.90018 0.10925 0.10941
 C978 C 0.93470 0.11534 0.10601
 C979 C 0.95282 0.09804 0.08383
 C980 C 0.93671 0.07440 0.06465
 C981 C 0.90256 0.06725 0.06892
 C982 C 0.88453 0.08443 0.09104
 H983 H 0.83101 0.16071 0.23066
 H984 H 0.79433 0.19467 0.26306
 H985 H 0.77038 0.26390 0.18866
 H986 H 0.80647 0.23008 0.15686
 H987 H 0.80499 0.17210 0.13459
 H988 H 0.83863 0.13804 0.10015
 H989 H 0.91622 0.12766 0.16680
 H990 H 0.88276 0.16296 0.20118
 H991 H 0.94741 0.13444 0.11974
 H992 H 0.97918 0.10393 0.08114
 H993 H 0.88956 0.04876 0.05479
 H994 H 0.85815 0.07859 0.09354
 C995 C 0.82110 0.69148 0.69306
 C996 C 0.81843 0.68321 0.72358
 C997 C 0.79757 0.70305 0.74199
 C998 C 0.77791 0.73090 0.73019
 C999 C 0.78335 0.74086 0.70009
 C1000 C 0.80411 0.72111 0.68177
 C1001 C 0.84087 0.66914 0.67265
 C1002 C 0.82803 0.66111 0.64435
 C1003 C 0.84654 0.64097 0.62451
 C1004 C 0.87838 0.62824 0.63244
 C1005 C 0.89120 0.63593 0.66086
 C1006 C 0.87254 0.65608 0.68085
 C1007 C 0.89816 0.60787 0.61057
 C1008 C 0.93247 0.61453 0.60644
 C1009 C 0.95015 0.59782 0.58369
 C1010 C 0.93378 0.57424 0.56464
 C1011 C 0.89987 0.56647 0.56960
 C1012 C 0.88229 0.58305 0.59233
 H1013 H 0.83177 0.66087 0.73308
 H1014 H 0.79596 0.69597 0.76543
 H1015 H 0.77186 0.76410 0.69034
 H1016 H 0.80700 0.72918 0.65865
 H1017 H 0.80352 0.67041 0.63755
 H1018 H 0.83614 0.63594 0.60265
 H1019 H 0.91559 0.62628 0.66763
 H1020 H 0.88312 0.66202 0.70246
 H1021 H 0.94533 0.63367 0.62003
 H1022 H 0.97633 0.60417 0.58045
 H1023 H 0.88673 0.54800 0.55557
 H1024 H 0.85606 0.57681 0.59537
 C1025 C 0.31824 0.19118 0.68906
 C1026 C 0.31529 0.18221 0.71944
 C1027 C 0.29450 0.20177 0.73812
 C1028 C 0.27512 0.23008 0.72676
 C1029 C 0.28064 0.24063 0.69680
 C1030 C 0.30139 0.22117 0.67821
 C1031 C 0.33827 0.16928 0.66843
 C1032 C 0.32617 0.16243 0.63963
 C1033 C 0.34486 0.14239 0.61979
 C1034 C 0.37613 0.12856 0.62822
 C1035 C 0.38823 0.13517 0.65710
 C1036 C 0.36943 0.15524 0.67704
 C1037 C 0.39608 0.10797 0.60655
 C1038 C 0.43081 0.11309 0.60388
 C1039 C 0.44900 0.09570 0.58182
 C1040 C 0.43277 0.07293 0.56197
 C1041 C 0.39831 0.06690 0.56531
 C1042 C 0.38019 0.08417 0.58736
 H1043 H 0.32840 0.15956 0.72863
 H1044 H 0.29272 0.19414 0.76143
 H1045 H 0.26923 0.26412 0.68742
 H1046 H 0.30443 0.22979 0.65524
 H1047 H 0.30206 0.17245 0.63244
 H1048 H 0.33501 0.13822 0.59759
 H1049 H 0.41213 0.12465 0.66432
 H1050 H 0.37952 0.16025 0.69902
 H1051 H 0.44375 0.13143 0.61817
 H1052 H 0.47559 0.10076 0.57982
 H1053 H 0.38521 0.04913 0.55061
 H1054 H 0.35360 0.07910 0.58925
 C1055 C 0.32242 0.68573 0.19765
 C1056 C 0.30797 0.67140 0.22360
 C1057 C 0.28654 0.69165 0.24114
 C1058 C 0.27711 0.72634 0.23228
 C1059 C 0.29429 0.74119 0.20742
 C1060 C 0.31605 0.72110 0.19022
 C1061 C 0.34349 0.66379 0.17793
 C1062 C 0.33266 0.63017 0.16936
 C1063 C 0.35092 0.61076 0.14861
 C1064 C 0.38063 0.62439 0.13617
 C1065 C 0.39207 0.65750 0.14574
 C1066 C 0.37360 0.67705 0.16620
 C1067 C 0.39867 0.60506 0.11227
 C1068 C 0.41368 0.62369 0.08846
 C1069 C 0.42928 0.60580 0.06525
 C1070 C 0.42998 0.56878 0.06504
 C1071 C 0.41546 0.55000 0.08896
 C1072 C 0.40007 0.56794 0.11237
 H1073 H 0.31355 0.64456 0.23049
 H1074 H 0.27721 0.67977 0.26157
 H1075 H 0.29027 0.76841 0.20077
 H1076 H 0.32732 0.73308 0.17059
 H1077 H 0.30935 0.61948 0.17784
 H1078 H 0.34103 0.58565 0.14152
 H1079 H 0.41521 0.66851 0.13723
 H1080 H 0.38276 0.70269 0.17276
 H1081 H 0.41261 0.65220 0.08724
 H1082 H 0.44020 0.62103 0.04711
 H1083 H 0.41587 0.52144 0.08953
 H1084 H 0.38929 0.55270 0.13055
   
