data_POSCAR
  _audit_creation_date              2014-09-24
  _audit_creation_method            'ToBaCCo'
  _symmetry_space_group_name_H-M    'P1'
  _symmetry_Int_Tables_number       1
  _symmetry_cell_setting            triclinic
  loop_
  _symmetry_equiv_pos_as_xyz
 x,y,z
_cell_length_a 21.8949
_cell_length_b 21.7166
_cell_length_c 21.8745
_cell_angle_alpha 83.358500
_cell_angle_beta 95.444500
_cell_angle_gamma 96.104100
loop_
  _atom_site_label
  _atom_site_type_symbol
  _atom_site_fract_x
  _atom_site_fract_y
  _atom_site_fract_z
C1 C 0.61740 0.61086 -0.00967
 C2 C 0.62939 0.54916 -0.01254
 C3 C 0.58109 0.50133 -0.00500
 C4 C 0.51955 0.51485 -0.00290
 C5 C 0.50910 0.57812 -0.00400
 C6 C 0.55790 0.62572 -0.00256
 C7 C 0.46649 0.46406 -0.00074
 C8 C 0.40761 0.47612 0.01403
 C9 C 0.35735 0.43044 0.01277
 C10 C 0.36570 0.37074 -0.00092
 C11 C 0.42384 0.35621 -0.01304
 C12 C 0.47351 0.40288 -0.01358
 H13 H 0.65566 0.64692 -0.00916
 H14 H 0.59227 0.45401 -0.00337
 H15 H 0.46298 0.59198 -0.00684
 H16 H 0.39945 0.52056 0.02753
 H17 H 0.32687 0.33533 -0.00170
 H18 H 0.51720 0.39000 -0.02411
 C19 C -0.01624 0.63438 0.37788
 C20 C -0.01135 0.65031 0.43876
 C21 C -0.00160 0.60319 0.48758
 C22 C -0.00430 0.53993 0.47722
 C23 C -0.01468 0.52532 0.41559
 C24 C -0.01900 0.57205 0.36568
 C25 C 0.00396 0.48969 0.53019
 C26 C 0.01946 0.43024 0.52018
 C27 C 0.02492 0.38255 0.56885
 C28 C 0.01753 0.39466 0.62894
 C29 C 0.00252 0.45288 0.64040
 C30 C -0.00499 0.49983 0.59135
 H31 H -0.02254 0.67010 0.33950
 H32 H 0.00946 0.61700 0.53353
 H33 H -0.01765 0.47773 0.40515
 H34 H 0.02678 0.41946 0.47471
 H35 H 0.02198 0.35810 0.66684
 H36 H -0.01950 0.54322 0.60170
 C37 C 0.62985 0.00618 0.61792
 C38 C 0.56826 -0.00230 0.63140
 C39 C 0.52152 -0.00182 0.58323
 C40 C 0.53522 0.01001 0.52097
 C41 C 0.59785 0.02004 0.50842
 C42 C 0.64559 0.01757 0.55652
 C43 C 0.48418 0.01111 0.46994
 C44 C 0.49351 -0.00231 0.40995
 C45 C 0.44479 -0.00323 0.36318
 C46 C 0.38591 0.00778 0.37665
 C47 C 0.37516 0.01820 0.43622
 C48 C 0.42442 0.02308 0.48153
 H49 H 0.66569 0.00571 0.65573
 H50 H 0.47452 -0.01122 0.59546
 H51 H 0.61009 0.02851 0.46126
 H52 H 0.53785 -0.01379 0.39922
 H53 H 0.34781 0.00598 0.34122
 H54 H 0.41467 0.03474 0.52607
 O55 O 0.45629 -0.02076 -0.09867
 O56 O 0.43065 -0.02782 0.06627
 O57 O 0.42706 0.05840 -0.02604
 O58 O 0.45732 -0.10650 -0.00640
 O59 O 0.55693 -0.07898 0.01199
 O60 O 0.52612 0.08597 -0.00406
 O61 O 0.52992 -0.00300 0.08756
 O62 O 0.55499 0.00863 -0.07730
 Cu63 Cu 0.43283 -0.02661 -0.01848
 Cu64 Cu 0.55185 0.00629 0.00694
 C65 C 0.51037 -0.00654 -0.11571
 C66 C 0.47620 -0.01768 0.10539
 C67 C 0.47129 0.10006 -0.01760
 C68 C 0.51233 -0.12071 0.00506
 O69 O -0.07757 0.55621 0.98545
 O70 O 0.08853 0.53638 1.00893
 O71 O 0.00598 0.53984 0.91462
 O72 O 0.00395 0.56138 1.07819
 O73 O -0.01747 0.46037 1.10115
 O74 O -0.01691 0.43867 0.93637
 O75 O 0.06599 0.43528 1.03099
 O76 O -0.09936 0.45502 1.00805
 Cu77 Cu 0.00800 0.55858 0.99486
 Cu78 Cu -0.01840 0.43713 1.02160
 C79 C -0.11680 0.50885 0.99205
 C80 C 0.10554 0.48205 1.02373
 C81 C -0.00703 0.48593 0.89723
 C82 C -0.00950 0.51522 1.11729
 O83 O -0.01006 -0.05210 0.43640
 O84 O 0.01334 0.11380 0.46241
 O85 O 0.08340 0.03212 0.43742
 O86 O -0.08154 0.03130 0.45744
 O87 O -0.06346 0.00476 0.55745
 O88 O 0.10157 0.00570 0.53756
 O89 O 0.03020 0.08648 0.56269
 O90 O 0.00790 -0.07850 0.53654
 Cu91 Cu -0.00061 0.03382 0.43830
 Cu92 Cu 0.02097 0.00171 0.55857
 C93 C -0.00495 -0.09357 0.48214
 C94 C 0.02501 0.12806 0.51729
 C95 C 0.12044 0.01825 0.48396
 C96 C -0.10045 0.01968 0.51104
 C97 C -0.22225 0.47982 1.02344
 C98 C -0.28438 0.48871 1.02193
 C99 C -0.30996 0.53564 0.98084
 C100 C -0.27269 0.56962 0.93580
 C101 C -0.20945 0.55968 0.93682
 C102 C -0.18356 0.51647 0.98316
 C103 C -0.17498 0.59150 0.88959
 N104 N -0.20193 0.63085 0.84499
 N105 N -0.26120 0.63986 0.84366
 C106 C -0.29755 0.61024 0.88690
 H107 H -0.20368 0.44564 1.05838
 H108 H -0.31139 0.46155 1.05642
 H109 H -0.12752 0.58416 0.88609
 H110 H -0.34592 0.61735 0.88131
 C111 C 0.20837 0.50514 0.98427
 C112 C 0.26885 0.49216 0.98113
 C113 C 0.29498 0.44623 1.02271
 C114 C 0.26048 0.41545 1.07090
 C115 C 0.19886 0.42891 1.07440
 C116 C 0.17197 0.47261 1.02911
 C117 C 0.16689 0.39910 1.12422
 N118 N 0.19448 0.35792 1.16654
 N119 N 0.25199 0.34489 1.16283
 C120 C 0.28599 0.37237 1.11669
 H121 H 0.18896 0.53895 0.94949
 H122 H 0.29479 0.51656 0.94436
 H123 H 0.12086 0.40907 1.13097
 H124 H 0.33289 0.36100 1.11687
 C125 C 0.01885 -0.17715 0.42379
 C126 C 0.01757 -0.23920 0.41324
 C127 C -0.01444 -0.28709 0.45015
 C128 C -0.04929 -0.27014 0.49669
 C129 C -0.04721 -0.20654 0.50770
 C130 C -0.01179 -0.16007 0.47152
 C131 C -0.08346 -0.19115 0.55259
 N132 N -0.11983 -0.23613 0.58363
 N133 N -0.12337 -0.29528 0.57217
 C134 C -0.09025 -0.31364 0.52941
 H135 H 0.04582 -0.14219 0.39545
 H136 H 0.04457 -0.24984 0.37747
 H137 H -0.08488 -0.14371 0.56223
 H138 H -0.09824 -0.36170 0.52024
 C139 C -0.01521 0.21052 0.56439
 C140 C -0.01495 0.27169 0.57714
 C141 C 0.03045 0.31777 0.55623
 C142 C 0.07731 0.30105 0.52242
 C143 C 0.07608 0.23873 0.50819
 C144 C 0.02922 0.19355 0.52938
 C145 C 0.12294 0.22340 0.47462
 N146 N 0.16831 0.26760 0.45714
 N147 N 0.17012 0.32581 0.47134
 C148 C 0.12646 0.34397 0.50361
 H149 H -0.05127 0.17625 0.58097
 H150 H -0.05134 0.28341 0.60277
 H151 H 0.12425 0.17664 0.46269
 H152 H 0.13118 0.39145 0.51500
 C153 C 0.55683 0.04299 -0.20965
 C154 C 0.57150 0.04360 -0.27020
 C155 C 0.55265 -0.00730 -0.30368
 C156 C 0.51911 -0.06053 -0.27498
 C157 C 0.50403 -0.06122 -0.21313
 C158 C 0.52241 -0.00835 -0.18071
 C159 C 0.47319 -0.11600 -0.18522
 N160 N 0.45771 -0.16578 -0.21760
 N161 N 0.47147 -0.16486 -0.27570
 C162 C 0.50184 -0.11415 -0.30538
 H163 H 0.57219 0.08325 -0.18525
 H164 H 0.59738 0.08453 -0.29144
 H165 H 0.46201 -0.12043 -0.13781
 H166 H 0.51299 -0.11667 -0.35206
 C167 C 0.50581 0.02184 0.20637
 C168 C 0.49943 0.02492 0.26856
 C169 C 0.45504 -0.01467 0.29948
 C170 C 0.41819 -0.06047 0.26749
 C171 C 0.42288 -0.06230 0.20329
 C172 C 0.46726 -0.02013 0.17227
 C173 C 0.38362 -0.10739 0.17338
 N174 N 0.34446 -0.14839 0.20578
 N175 N 0.34167 -0.14777 0.26617
 C176 C 0.37731 -0.10550 0.29813
 H177 H 0.54005 0.05434 0.18413
 H178 H 0.52815 0.06006 0.29227
 H179 H 0.38327 -0.11139 0.12489
 H180 H 0.37398 -0.10821 0.34737
 C181 C 0.56583 -0.20169 -0.03160
 C182 C 0.57694 -0.26326 -0.03362
 C183 C 0.54738 -0.31222 0.00421
 C184 C 0.50848 -0.29691 0.04807
 C185 C 0.49668 -0.23395 0.04911
 C186 C 0.52485 -0.18646 0.00820
 C187 C 0.45936 -0.21992 0.09346
 N188 N 0.43622 -0.26559 0.13488
 N189 N 0.44878 -0.32426 0.13553
 C190 C 0.48464 -0.34132 0.09438
 H191 H 0.58799 -0.16570 -0.06294
 H192 H 0.60681 -0.27271 -0.06748
 H193 H 0.45001 -0.17281 0.09671
 H194 H 0.49561 -0.38901 0.09998
 C195 C 0.42783 0.18308 0.02657
 C196 C 0.41615 0.24470 0.02742
 C197 C 0.43368 0.29067 -0.01990
 C198 C 0.46210 0.27315 -0.07021
 C199 C 0.47530 0.21048 -0.07018
 C200 C 0.45827 0.16554 -0.02109
 C201 C 0.50405 0.19458 -0.12015
 N202 N 0.51764 0.23846 -0.16748
 N203 N 0.50412 0.29693 -0.16824
 C204 C 0.47658 0.31569 -0.12151
 H205 H 0.41431 0.14898 0.06428
 H206 H 0.39439 0.25690 0.06625
 H207 H 0.51523 0.14759 -0.12229
 H208 H 0.46546 0.36336 -0.12546
 C209 C -0.19338 -0.02218 0.56287
 C210 C -0.25450 -0.02208 0.57488
 C211 C -0.29168 0.02278 0.54408
 C212 C -0.26430 0.07104 0.50247
 C213 C -0.20132 0.07120 0.49072
 C214 C -0.16618 0.02304 0.52030
 C215 C -0.17484 0.12177 0.45242
 N216 N -0.20898 0.16836 0.42754
 N217 N -0.26745 0.16870 0.43918
 C218 C -0.29594 0.12231 0.47624
 H219 H -0.16721 -0.05878 0.58664
 H220 H -0.27358 -0.05940 0.60692
 H221 H -0.12699 0.12621 0.44320
 H222 H -0.34234 0.12737 0.48631
 C223 C 0.21553 0.06628 0.43886
 C224 C 0.27715 0.06682 0.42772
 C225 C 0.31115 0.01749 0.45253
 C226 C 0.28234 -0.03397 0.48867
 C227 C 0.21946 -0.03475 0.49979
 C228 C 0.18617 0.01641 0.47514
 C229 C 0.19148 -0.08822 0.53290
 N230 N 0.22486 -0.13646 0.55450
 N231 N 0.28404 -0.13536 0.54469
 C232 C 0.31380 -0.08607 0.51230
 H233 H 0.19050 0.10523 0.41894
 H234 H 0.29844 0.10584 0.39918
 H235 H 0.14327 -0.09304 0.54098
 H236 H 0.36150 -0.08860 0.50481
 C237 C 0.02296 0.57572 1.20530
 C238 C 0.01934 0.59116 1.26460
 C239 C -0.02218 0.55727 1.30405
 C240 C -0.06410 0.50903 1.28055
 C241 C -0.06106 0.49391 1.21925
 C242 C -0.01566 0.52669 1.18197
 C243 C -0.10602 0.44883 1.19650
 N244 N -0.15012 0.42077 1.23259
 N245 N -0.15336 0.43537 1.28949
 C246 C -0.11257 0.47890 1.31433
 H247 H 0.05712 0.60221 1.17748
 H248 H 0.05174 0.62830 1.28077
 H249 H -0.10830 0.43652 1.14999
 H250 H -0.11990 0.49082 1.35947
 C251 C 0.03682 0.51095 0.79643
 C252 C 0.03877 0.50378 0.73423
 C253 C -0.00575 0.46391 0.70441
 C254 C -0.05490 0.43277 0.73714
 C255 C -0.05735 0.44052 0.80038
 C256 C -0.00974 0.47848 0.83066
 C257 C -0.10855 0.41128 0.83044
 N258 N -0.15286 0.37551 0.79953
 N259 N -0.14989 0.36740 0.74052
 C260 C -0.10260 0.39491 0.70823
 H261 H 0.07307 0.54084 0.81849
 H262 H 0.07645 0.52804 0.70962
 H263 H -0.11470 0.41732 0.87769
 H264 H -0.10327 0.38767 0.66007
   
