data_POSCAR
  _audit_creation_date              2014-09-24
  _audit_creation_method            'ToBaCCo'
  _symmetry_space_group_name_H-M    'P1'
  _symmetry_Int_Tables_number       1
  _symmetry_cell_setting            triclinic
  loop_
  _symmetry_equiv_pos_as_xyz
 x,y,z
_cell_length_a 21.2159
_cell_length_b 21.3304
_cell_length_c 21.2623
_cell_angle_alpha 90.446900
_cell_angle_beta 89.563100
_cell_angle_gamma 90.358500
loop_
  _atom_site_label
  _atom_site_type_symbol
  _atom_site_fract_x
  _atom_site_fract_y
  _atom_site_fract_z
C1 C 0.50102 1.00639 -0.46626
 C2 C 0.49644 0.99880 -0.52978
 C3 C 0.43465 0.99750 -0.56303
 C4 C 0.55291 0.99377 -0.57126
 C5 C 0.56234 1.00240 -0.43282
 C6 C 0.44416 1.01707 -0.42642
 C7 C 0.38438 0.95888 -0.54347
 C8 C 0.32853 0.95602 -0.57807
 C9 C 0.32325 0.98824 -0.63538
 C10 C 0.37365 1.02767 -0.65409
 C11 C 0.42798 1.03259 -0.61804
 C12 C 0.55632 0.94432 -0.61498
 C13 C 0.60171 0.94484 -0.66271
 C14 C 0.64494 0.99459 -0.66762
 C15 C 0.64333 1.04301 -0.62216
 C16 C 0.59752 1.04258 -0.57439
 C17 C 0.57792 1.04807 -0.38755
 C18 C 0.63289 1.04293 -0.35228
 C19 C 0.67345 0.99167 -0.36134
 C20 C 0.65877 0.94680 -0.40767
 C21 C 0.60328 0.95157 -0.44248
 C22 C 0.40321 1.06718 -0.43777
 C23 C 0.34785 1.07395 -0.40222
 C24 C 0.33254 1.03085 -0.35484
 C25 C 0.37529 0.98248 -0.34172
 C26 C 0.43044 0.97573 -0.37722
 H27 H 0.38864 0.92994 -0.50217
 H28 H 0.29082 0.92561 -0.56165
 H29 H 0.37125 1.05671 -0.69543
 H30 H 0.46554 1.06347 -0.63379
 H31 H 0.52194 0.90658 -0.61372
 H32 H 0.60186 0.90707 -0.69708
 H33 H 0.59470 1.08193 -0.54201
 H34 H 0.54721 1.08772 -0.37928
 H35 H 0.64369 1.07934 -0.31823
 H36 H 0.68937 0.90701 -0.41562
 H37 H 0.59169 0.91486 -0.47597
 H38 H 0.41369 1.10037 -0.47474
 H39 H 0.31645 1.11236 -0.41236
 H40 H 0.36684 0.95004 -0.30370
 H41 H 0.46195 0.93741 -0.36707
 H42 H 0.67496 1.08284 -0.62513
 C43 C -0.46340 1.49705 -0.00921
 C44 C -0.52713 1.50237 -0.00716
 C45 C -0.56838 1.44660 -0.00085
 C46 C -0.56001 1.56348 -0.00957
 C47 C -0.42043 1.55207 -0.01426
 C48 C -0.43199 1.43522 -0.00459
 C49 C -0.60473 1.42684 -0.05214
 C50 C -0.64791 1.37765 -0.04553
 C51 C -0.65637 1.34856 0.01304
 C52 C -0.61988 1.36844 0.06433
 C53 C -0.57547 1.41664 0.05724
 C54 C -0.55135 1.60481 -0.06006
 C55 C -0.58708 1.65969 -0.06346
 C56 C -0.63276 1.67327 -0.01724
 C57 C -0.63980 1.63273 0.03416
 C58 C -0.60400 1.57837 0.03773
 C59 C -0.42223 1.60141 0.02974
 C60 C -0.37606 1.64861 0.02867
 C61 C -0.32633 1.64662 -0.01599
 C62 C -0.32583 1.59750 -0.06046
 C63 C -0.37228 1.55107 -0.05973
 C64 C -0.38621 1.42656 0.04175
 C65 C -0.35101 1.37163 0.04309
 C66 C -0.36089 1.32425 -0.00211
 C67 C -0.40835 1.33177 -0.04700
 C68 C -0.44307 1.38726 -0.04886
 H69 H -0.60022 1.45021 -0.09702
 H70 H -0.67654 1.36425 -0.08543
 H71 H -0.62625 1.34705 0.10999
 H72 H -0.54824 1.43209 0.09742
 H73 H -0.51814 1.59388 -0.09742
 H74 H -0.58044 1.69059 -0.10319
 H75 H -0.61101 1.54753 0.07742
 H76 H -0.45798 1.60218 0.06636
 H77 H -0.37868 1.68450 0.06466
 H78 H -0.28867 1.59426 -0.09560
 H79 H -0.36971 1.51316 -0.09384
 H80 H -0.37699 1.46299 0.07632
 H81 H -0.31593 1.36641 0.07936
 H82 H -0.41683 1.29569 -0.08211
 H83 H -0.47708 1.39352 -0.08593
 H84 H -0.67288 1.64292 0.07181
 C85 C -0.00897 0.53142 0.50092
 C86 C -0.01123 0.46802 0.50683
 C87 C -0.01579 0.42480 0.45182
 C88 C -0.00636 0.43690 0.56904
 C89 C -0.00267 0.57303 0.55659
 C90 C -0.01130 0.56341 0.43912
 C91 C -0.06172 0.37729 0.45247
 C92 C -0.06123 0.32981 0.40706
 C93 C -0.01490 0.32846 0.35941
 C94 C 0.03008 0.37770 0.35756
 C95 C 0.02977 0.42502 0.40365
 C96 C -0.04985 0.44854 0.61776
 C97 C -0.04837 0.41338 0.67305
 C98 C -0.00529 0.36396 0.67969
 C99 C 0.03956 0.35396 0.63129
 C100 C 0.03893 0.39010 0.57694
 C101 C 0.05637 0.58423 0.58355
 C102 C 0.06285 0.62857 0.63190
 C103 C 0.01008 0.66099 0.65577
 C104 C -0.04951 0.64810 0.62925
 C105 C -0.05538 0.60541 0.57945
 C106 C 0.03627 0.60664 0.42337
 C107 C 0.03278 0.64136 0.36823
 C108 C -0.01885 0.63409 0.32768
 C109 C -0.06533 0.58914 0.34215
 C110 C -0.06196 0.55445 0.39776
 H111 H -0.09698 0.37589 0.48957
 H112 H -0.09675 0.29319 0.41012
 H113 H 0.06727 0.37921 0.32267
 H114 H 0.06668 0.46032 0.40318
 H115 H -0.08645 0.48308 0.61218
 H116 H -0.08328 0.42280 0.70933
 H117 H 0.07322 0.38058 0.54013
 H118 H 0.09764 0.56005 0.56579
 H119 H 0.10940 0.63741 0.65079
 H120 H -0.09137 0.67292 0.64409
 H121 H -0.10110 0.59789 0.55823
 H122 H 0.07621 0.61385 0.45402
 H123 H 0.07072 0.67378 0.35747
 H124 H -0.10525 0.58226 0.31134
 H125 H -0.09953 0.52179 0.40923
 H126 H 0.07592 0.31896 0.63487
 O127 O -0.09964 0.99473 -0.14791
 O128 O -0.05910 1.03022 0.17234
 O129 O -0.16754 0.94027 0.02808
 O130 O -0.14376 1.10671 0.01407
 O131 O -0.05791 1.17158 -0.00239
 O132 O -0.10265 0.85386 0.02576
 O133 O -0.14435 1.03219 0.10557
 O134 O -0.16550 1.01341 -0.06292
 Zr135 Zr -0.10475 1.01611 0.01519
 O136 O -0.03749 1.07030 0.05924
 O137 O -0.06661 0.94709 -0.04148
 C138 C -0.15469 1.00433 -0.12243
 C139 C -0.11866 1.03592 0.16082
 C140 C -0.15751 0.88045 0.02945
 C141 C -0.11755 1.16136 0.00704
 H142 H -0.07940 0.93809 0.10345
 O143 O -0.05254 0.95834 0.07120
 H144 H -0.07687 1.08637 -0.07982
 O145 O -0.05098 1.05870 -0.05348
 O146 O 0.10771 1.00224 0.15282
 O147 O 0.06969 0.97558 -0.16763
 O148 O -0.00635 0.84945 0.10379
 O149 O 0.03418 1.16861 0.06859
 O150 O 0.01776 1.15117 -0.09928
 O151 O -0.03116 0.83366 -0.06401
 O152 O 0.15231 0.89490 -0.00414
 O153 O 0.17449 1.06115 -0.02904
 O154 O 0.06639 0.83014 0.01283
 O155 O 0.10957 1.14755 -0.02508
 O156 O 0.01501 0.93247 0.17081
 O157 O -0.02664 0.90099 -0.14856
 O158 O 0.00014 1.06786 -0.16698
 O159 O 0.03123 1.10136 0.15314
 O160 O 0.17373 0.98658 0.06753
 O161 O 0.15360 0.96972 -0.09943
 Zr162 Zr 0.01771 1.01163 0.11180
 Zr163 Zr -0.00898 0.98970 -0.10725
 Zr164 Zr -0.01108 0.89188 0.01432
 Zr165 Zr 0.01890 1.10931 -0.00957
 Zr166 Zr 0.11290 0.98526 -0.01022
 O167 O 0.06120 1.04319 -0.06675
 O168 O 0.05946 0.94222 0.05838
 C169 C 0.16277 0.99305 0.12727
 C170 C 0.12901 0.96865 -0.15495
 C171 C 0.00527 0.87345 0.15890
 C172 C 0.03582 1.15671 0.12821
 C173 C 0.01085 1.12666 -0.15492
 C174 C -0.03448 0.84613 -0.12351
 C175 C 0.12632 0.84050 0.00542
 C176 C 0.16407 1.12090 -0.03175
 H177 H 0.06520 0.89836 -0.08037
 O178 O 0.04544 0.93125 -0.05397
 H179 H 0.10762 1.07965 0.06667
 O180 O 0.07452 1.05423 0.04597
 C181 C 0.27088 0.98029 0.32947
 C182 C 0.26810 0.99501 0.26550
 C183 C 0.21268 0.98959 0.23120
 C184 C 0.21549 0.99183 0.16569
 H185 H 0.31081 1.00704 0.24004
 H186 H 0.16801 0.98239 0.25527
 H187 H 0.23029 0.95663 0.34999
 H188 H 0.26143 0.99166 0.14281
 C189 C -0.31292 0.99624 0.27655
 C190 C -0.25896 1.02878 0.27346
 C191 C -0.22019 1.02654 0.21576
 C192 C -0.15999 1.04509 0.21592
 H193 H -0.24189 1.05484 0.31384
 H194 H -0.24014 1.00601 0.17347
 H195 H -0.32639 0.96770 0.23631
 H196 H -0.13908 1.06211 0.25923
 C197 C -0.26890 0.98417 -0.32321
 C198 C -0.26614 1.00257 -0.26297
 C199 C -0.20873 0.99500 -0.22516
 C200 C -0.21026 1.00745 -0.16341
 H201 H -0.30739 1.02270 -0.24046
 H202 H -0.16542 0.97986 -0.24780
 H203 H -0.22894 0.96024 -0.34424
 H204 H -0.25446 1.02133 -0.14162
 C205 C 0.27322 1.03879 -0.31834
 C206 C 0.24425 0.99113 -0.28923
 C207 C 0.18990 1.00124 -0.24699
 C208 C 0.17278 0.95638 -0.20688
 H209 H 0.26236 0.94398 -0.29404
 H210 H 0.16764 1.04685 -0.24453
 H211 H 0.25302 1.08528 -0.31509
 H212 H 0.19854 0.91266 -0.20609
 C213 C 0.29329 1.30153 0.02276
 C214 C 0.27836 1.25843 -0.02066
 C215 C 0.22402 1.21650 -0.01102
 C216 C 0.21895 1.16191 -0.04174
 H217 H 0.30615 1.25409 -0.06345
 H218 H 0.18791 1.23011 0.02276
 H219 H 0.26813 1.30212 0.06735
 H220 H 0.25711 1.14566 -0.07173
 C221 C 0.32742 0.72963 -0.02330
 C222 C 0.26777 0.73094 -0.00237
 C223 C 0.22864 0.78733 -0.00772
 C224 C 0.16750 0.78534 0.00809
 H225 H 0.24680 0.68944 0.01836
 H226 H 0.24996 0.83048 -0.02440
 H227 H 0.34669 0.76991 -0.04778
 H228 H 0.14657 0.74140 0.02321
 C229 C -0.27564 0.68959 -0.01696
 C230 C -0.27100 0.74159 0.01854
 C231 C -0.21385 0.78092 0.01464
 C232 C -0.21346 0.83996 0.03590
 H233 H -0.30880 0.75665 0.04935
 H234 H -0.17205 0.76192 -0.00797
 H235 H -0.23712 0.68001 -0.04951
 H236 H -0.25634 0.86021 0.05501
 C237 C -0.32159 1.26733 -0.00379
 C238 C -0.26015 1.26924 0.00974
 C239 C -0.22116 1.21259 0.00647
 C240 C -0.15836 1.21680 0.00963
 H241 H -0.23773 1.31350 0.02174
 H242 H -0.24400 1.16731 0.00072
 H243 H -0.34267 1.22380 -0.02018
 H244 H -0.13598 1.26254 0.01307
 C245 C -0.01472 1.27672 0.31765
 C246 C 0.02344 1.26976 0.26754
 C247 C 0.01961 1.21253 0.22837
 C248 C 0.04365 1.21126 0.17018
 H249 H 0.05625 1.30606 0.25347
 H250 H -0.00576 1.17200 0.24618
 H251 H -0.04865 1.23943 0.32652
 H252 H 0.06528 1.25323 0.15101
 C253 C -0.00926 1.32593 -0.26644
 C254 C 0.01672 1.26890 -0.26245
 C255 C 0.00890 1.23018 -0.20589
 C256 C 0.01631 1.16806 -0.20966
 H257 H 0.04092 1.24795 -0.30224
 H258 H -0.00400 1.25226 -0.16157
 H259 H -0.03855 1.34175 -0.22744
 H260 H 0.02563 1.14634 -0.25505
 C261 C 0.01940 0.70721 -0.29745
 C262 C -0.02665 0.73236 -0.26197
 C263 C -0.01299 0.78440 -0.21825
 C264 C -0.04743 0.79330 -0.16617
 H265 H -0.07434 0.71420 -0.26329
 H266 H 0.02656 0.81533 -0.22829
 H267 H 0.06738 0.72266 -0.28849
 H268 H -0.08347 0.75953 -0.15302
 C269 C -0.02494 0.67295 0.27048
 C270 C -0.00317 0.73197 0.26807
 C271 C -0.00887 0.77080 0.21134
 C272 C 0.00792 0.83137 0.21341
 H273 H 0.01842 0.75293 0.30926
 H274 H -0.02658 0.74998 0.16825
 H275 H -0.05028 0.65363 0.23064
 H276 H 0.02415 0.85147 0.25746
   
