data_POSCAR
  _audit_creation_date              2014-09-24
  _audit_creation_method            'ToBaCCo'
  _symmetry_space_group_name_H-M    'P1'
  _symmetry_Int_Tables_number       1
  _symmetry_cell_setting            triclinic
  loop_
  _symmetry_equiv_pos_as_xyz
 x,y,z
_cell_length_a 33.7820
_cell_length_b 33.7916
_cell_length_c 33.8056
_cell_angle_alpha 90.016000
_cell_angle_beta 88.134200
_cell_angle_gamma 88.275900
loop_
  _atom_site_label
  _atom_site_type_symbol
  _atom_site_fract_x
  _atom_site_fract_y
  _atom_site_fract_z
C1 C 0.57433 0.39706 0.00373
 C2 C 0.60256 0.42515 0.00626
 C3 C 0.58294 0.46175 0.00409
 N4 N 0.54371 0.45673 0.00046
 C5 C 0.53826 0.41728 0.00027
 C6 C 0.60165 0.49866 0.00367
 C7 C 0.58160 0.53602 0.00092
 C8 C 0.60040 0.57147 -0.00605
 C9 C 0.57139 0.60071 -0.00672
 C10 C 0.53540 0.58260 -0.00016
 N11 N 0.54199 0.54320 0.00508
 C12 C 0.49808 0.60306 0.00123
 C13 C 0.46100 0.58468 0.00111
 C14 C 0.42448 0.60471 0.00174
 C15 C 0.39630 0.57655 -0.00061
 C16 C 0.41637 0.54014 -0.00248
 N17 N 0.45583 0.54530 -0.00150
 C18 C 0.39786 0.50323 -0.00430
 C19 C 0.41784 0.46573 -0.00441
 C20 C 0.39888 0.42989 -0.00187
 C21 C 0.42792 0.40062 -0.00136
 C22 C 0.46404 0.41917 -0.00355
 N23 N 0.45755 0.45881 -0.00616
 C24 C 0.50135 0.39895 -0.00227
 H25 H 0.57981 0.36536 0.00449
 H26 H 0.63401 0.41926 0.00910
 H27 H 0.47888 0.47971 -0.01093
 H28 H 0.63183 0.57586 -0.01056
 H29 H 0.57630 0.63183 -0.01183
 H30 H 0.41873 0.63636 0.00340
 H31 H 0.36462 0.58231 -0.00084
 H32 H 0.42289 0.36922 0.00113
 H33 H 0.52114 0.52306 0.01440
 H34 H 0.36733 0.42521 0.00012
 C35 C 0.01801 0.57250 0.60044
 C36 C 0.01804 0.60127 0.57180
 C37 C 0.00850 0.58293 0.53676
 N38 N 0.00244 0.54408 0.54320
 C39 C 0.00849 0.53754 0.58198
 C40 C 0.00291 0.60249 0.50033
 C41 C -0.00374 0.58259 0.46442
 C42 C -0.01650 0.60080 0.43008
 C43 C -0.01700 0.57189 0.40150
 C44 C -0.00454 0.53676 0.41907
 N45 N 0.00372 0.54362 0.45731
 C46 C 0.00123 0.50026 0.39899
 C47 C 0.00679 0.46346 0.41803
 C48 C 0.01559 0.42782 0.39887
 C49 C 0.01586 0.39907 0.42756
 C50 C 0.00723 0.41813 0.46327
 N51 N 0.00142 0.45739 0.45730
 C52 C 0.00222 0.39900 0.50009
 C53 C -0.00357 0.41924 0.53649
 C54 C -0.01583 0.40178 0.57176
 C55 C -0.01569 0.43067 0.60042
 C56 C -0.00334 0.46502 0.58189
 N57 N 0.00425 0.45769 0.54301
 C58 C 0.00292 0.50112 0.60148
 H59 H 0.02394 0.57691 0.63137
 H60 H 0.02392 0.63223 0.57632
 H61 H 0.01830 0.47650 0.52318
 H62 H -0.02430 0.63180 0.42595
 H63 H -0.02525 0.57633 0.37112
 H64 H 0.02087 0.42296 0.36747
 H65 H 0.02135 0.36770 0.42263
 H66 H -0.02349 0.42671 0.63144
 H67 H 0.01800 0.52389 0.47599
 H68 H -0.02378 0.37130 0.57645
 C69 C 0.39879 -0.01663 0.57413
 C70 C 0.42697 -0.01663 0.60247
 C71 C 0.46249 -0.00750 0.58327
 N72 N 0.45677 -0.00167 0.54429
 C73 C 0.41796 -0.00751 0.53855
 C74 C 0.49869 -0.00207 0.60210
 C75 C 0.53515 0.00412 0.58146
 C76 C 0.56933 0.01665 0.59879
 C77 C 0.59856 0.01666 0.56954
 C78 C 0.58158 0.00412 0.53502
 N79 N 0.54300 -0.00366 0.54265
 C80 C 0.60242 -0.00214 0.49841
 C81 C 0.58380 -0.00761 0.46204
 C82 C 0.60336 -0.01684 0.42631
 C83 C 0.57506 -0.01679 0.39808
 C84 C 0.53915 -0.00757 0.41745
 N85 N 0.54465 -0.00171 0.45642
 C86 C 0.50265 -0.00213 0.39872
 C87 C 0.46590 0.00405 0.41931
 C88 C 0.43100 0.01643 0.40193
 C89 C 0.40173 0.01643 0.43119
 C90 C 0.41952 0.00406 0.46568
 N91 N 0.45856 -0.00365 0.45809
 C92 C 0.39912 -0.00212 0.50221
 H93 H 0.36766 -0.02224 0.57922
 H94 H 0.42182 -0.02221 0.63371
 H95 H 0.47796 -0.01773 0.47706
 H96 H 0.57296 0.02454 0.62946
 H97 H 0.62901 0.02461 0.57337
 H98 H 0.63480 -0.02253 0.42107
 H99 H 0.58037 -0.02246 0.36681
 H100 H 0.37079 0.02429 0.42739
 H101 H 0.52447 -0.01783 0.52368
 H102 H 0.42695 0.02429 0.37126
 O103 O 0.46646 0.00091 -0.05363
 O104 O 0.46818 0.00111 0.05535
 O105 O 0.46763 0.05547 0.00073
 O106 O 0.46695 -0.05343 0.00099
 O107 O 0.53248 -0.05581 -0.00213
 O108 O 0.53316 0.05310 -0.00239
 O109 O 0.53370 -0.00127 0.05221
 O110 O 0.53198 -0.00145 -0.05674
 Cu111 Cu 0.46069 0.00126 0.00118
 Cu112 Cu 0.53944 -0.00160 -0.00258
 C113 C 0.49895 -0.00030 -0.07358
 C114 C 0.50122 -0.00007 0.07217
 C115 C 0.50051 0.07266 -0.00088
 C116 C 0.49960 -0.07299 -0.00052
 O117 O -0.05732 0.53304 1.00148
 O118 O 0.05162 0.53459 0.99915
 O119 O -0.00224 0.53362 0.94588
 O120 O -0.00343 0.53400 1.05474
 O121 O -0.00057 0.46852 1.05484
 O122 O 0.00064 0.46814 0.94598
 O123 O 0.05449 0.46911 0.99925
 O124 O -0.05445 0.46756 1.00157
 Cu125 Cu -0.00315 0.54044 1.00030
 Cu126 Cu 0.00032 0.46170 1.00043
 C127 C -0.07427 0.50005 1.00190
 C128 C 0.07143 0.50211 0.99883
 C129 C -0.00059 0.50082 0.92756
 C130 C -0.00217 0.50132 1.07316
 O131 O 0.00194 -0.05470 0.46744
 O132 O 0.00024 0.05432 0.46796
 O133 O 0.05555 -0.00092 0.46844
 O134 O -0.05346 0.00053 0.46699
 O135 O -0.05644 0.00032 0.53243
 O136 O 0.05257 -0.00113 0.53389
 O137 O -0.00274 0.05412 0.53341
 O138 O -0.00104 -0.05491 0.53289
 Cu139 Cu 0.00135 -0.00016 0.46110
 Cu140 Cu -0.00224 -0.00042 0.53976
 C141 C 0.00073 -0.07321 0.50007
 C142 C -0.00141 0.07262 0.50077
 C143 C 0.07246 -0.00122 0.50140
 C144 C -0.07334 0.00058 0.49947
 C145 C -0.19529 0.49861 1.00373
 C146 C -0.21784 0.52898 1.02363
 C147 C -0.25991 0.52871 1.02387
 C148 C -0.27915 0.49811 1.00415
 C149 C -0.25661 0.46774 0.98425
 C150 C -0.21455 0.46795 0.98410
 C151 C -0.19263 0.43725 0.96407
 C152 C -0.21174 0.40721 0.94471
 C153 C -0.25288 0.40705 0.94478
 C154 C -0.27521 0.43691 0.96424
 C155 C -0.28183 0.55939 1.04394
 C156 C -0.26273 0.58949 1.06320
 C157 C -0.22160 0.58977 1.06296
 C158 C -0.19925 0.55993 1.04346
 C159 C -0.32208 0.49804 1.00413
 C160 C -0.35776 0.49822 1.00399
 C161 C -0.15233 0.49905 1.00322
 C162 C -0.11666 0.49948 1.00268
 H163 H -0.16057 0.43611 0.96314
 H164 H -0.19452 0.38395 0.92954
 H165 H -0.26759 0.38368 0.92966
 H166 H -0.30712 0.43557 0.96336
 H167 H -0.31390 0.56045 1.04499
 H168 H -0.27996 0.61273 1.07839
 H169 H -0.20690 0.61322 1.07796
 H170 H -0.16733 0.56142 1.04412
 C171 C 0.19247 0.50349 0.99679
 C172 C 0.21489 0.47536 0.97369
 C173 C 0.25696 0.47555 0.97330
 C174 C 0.27634 0.50388 0.99601
 C175 C 0.25394 0.53204 1.01907
 C176 C 0.21186 0.53187 1.01944
 C177 C 0.19008 0.56033 1.04271
 C178 C 0.20933 0.58816 1.06498
 C179 C 0.25048 0.58829 1.06465
 C180 C 0.27268 0.56061 1.04205
 C181 C 0.27876 0.44710 0.95004
 C182 C 0.25953 0.41924 0.92779
 C183 C 0.21838 0.41907 0.92815
 C184 C 0.19616 0.44673 0.95077
 C185 C 0.31928 0.50390 0.99580
 C186 C 0.35496 0.50371 0.99569
 C187 C 0.14950 0.50309 0.99743
 C188 C 0.11383 0.50268 0.99803
 H189 H 0.15802 0.56139 1.04395
 H190 H 0.19222 0.60972 1.08260
 H191 H 0.26530 0.60994 1.08203
 H192 H 0.30460 0.56184 1.04284
 H193 H 0.31082 0.44606 0.94877
 H194 H 0.27666 0.39769 0.91018
 H195 H 0.20358 0.39738 0.91081
 H196 H 0.16423 0.44541 0.95008
 C197 C 0.00191 -0.19434 0.49957
 C198 C 0.03593 -0.21608 0.51162
 C199 C 0.03614 -0.25816 0.51169
 C200 C 0.00240 -0.27826 0.49958
 C201 C -0.03157 -0.25653 0.48741
 C202 C -0.03184 -0.21445 0.48747
 C203 C -0.06620 -0.19338 0.47533
 C204 C -0.09933 -0.21331 0.46343
 C205 C -0.09902 -0.25445 0.46329
 C206 C -0.06561 -0.27597 0.47510
 C207 C 0.07044 -0.27924 0.52398
 C208 C 0.10360 -0.25932 0.53579
 C209 C 0.10342 -0.21818 0.53565
 C210 C 0.07005 -0.19666 0.52375
 C211 C 0.00259 -0.32123 0.49977
 C212 C 0.00274 -0.35693 0.50001
 C213 C 0.00159 -0.15134 0.49972
 C214 C 0.00125 -0.11565 0.49987
 H215 H -0.06786 -0.16136 0.47490
 H216 H -0.12536 -0.19672 0.45425
 H217 H -0.12481 -0.26979 0.45399
 H218 H -0.06680 -0.30793 0.47448
 H219 H 0.07200 -0.31127 0.52460
 H220 H 0.12958 -0.27591 0.54509
 H221 H 0.12928 -0.20285 0.54482
 H222 H 0.07134 -0.16470 0.52417
 C223 C -0.00056 0.19367 0.50111
 C224 C -0.03575 0.21615 0.51014
 C225 C -0.03514 0.25821 0.51011
 C226 C 0.00063 0.27753 0.50096
 C227 C 0.03583 0.25504 0.49196
 C228 C 0.03524 0.21299 0.49208
 C229 C 0.07083 0.19115 0.48309
 C230 C 0.10597 0.21030 0.47420
 C231 C 0.10652 0.25141 0.47400
 C232 C 0.07195 0.27368 0.48274
 C233 C -0.07066 0.28004 0.51932
 C234 C -0.10580 0.26088 0.52823
 C235 C -0.10641 0.21977 0.52820
 C236 C -0.07188 0.19751 0.51929
 C237 C 0.00121 0.32048 0.50072
 C238 C 0.00167 0.35615 0.50046
 C239 C -0.00117 0.15071 0.50106
 C240 C -0.00145 0.11504 0.50096
 H241 H 0.07190 0.15912 0.48284
 H242 H 0.13292 0.19313 0.46741
 H243 H 0.13390 0.26615 0.46705
 H244 H 0.07387 0.30558 0.48222
 H245 H -0.07168 0.31208 0.51973
 H246 H -0.13271 0.27804 0.53520
 H247 H -0.13379 0.20503 0.53513
 H248 H -0.07384 0.16561 0.51966
 C249 C 0.49762 -0.00042 -0.19468
 C250 C 0.51685 0.02972 -0.21639
 C251 C 0.51680 0.02953 -0.25845
 C252 C 0.49760 -0.00082 -0.27861
 C253 C 0.47820 -0.03083 -0.25691
 C254 C 0.47821 -0.03063 -0.21484
 C255 C 0.45864 -0.06097 -0.19383
 C256 C 0.43958 -0.09065 -0.21378
 C257 C 0.43956 -0.09084 -0.25490
 C258 C 0.45862 -0.06136 -0.27637
 C259 C 0.53617 0.06000 -0.27947
 C260 C 0.55510 0.08977 -0.25952
 C261 C 0.55517 0.08993 -0.21841
 C262 C 0.53631 0.06033 -0.19694
 C263 C 0.49794 -0.00125 -0.32160
 C264 C 0.49828 -0.00162 -0.35731
 C265 C 0.49795 -0.00039 -0.15168
 C266 C 0.49834 -0.00036 -0.11600
 H267 H 0.45783 -0.06209 -0.16182
 H268 H 0.42474 -0.11362 -0.19724
 H269 H 0.42471 -0.11395 -0.27026
 H270 H 0.45781 -0.06279 -0.30831
 H271 H 0.53684 0.06121 -0.31146
 H272 H 0.56976 0.11284 -0.27607
 H273 H 0.56991 0.11312 -0.20306
 H274 H 0.53715 0.06175 -0.16500
 C275 C 0.50294 -0.00044 0.19325
 C276 C 0.49450 0.03496 0.21475
 C277 C 0.49465 0.03464 0.25682
 C278 C 0.50332 -0.00105 0.27715
 C279 C 0.51199 -0.03640 0.25565
 C280 C 0.51176 -0.03610 0.21359
 C281 C 0.52042 -0.07184 0.19278
 C282 C 0.52909 -0.10685 0.21292
 C283 C 0.52936 -0.10713 0.25402
 C284 C 0.52093 -0.07240 0.27530
 C285 C 0.48601 0.07037 0.27765
 C286 C 0.47757 0.10544 0.25751
 C287 C 0.47749 0.10577 0.21640
 C288 C 0.48582 0.07102 0.19512
 C289 C 0.50320 -0.00143 0.32014
 C290 C 0.50300 -0.00174 0.35583
 C291 C 0.50240 -0.00021 0.15026
 C292 C 0.50188 -0.00010 0.11459
 H293 H 0.52061 -0.07312 0.16079
 H294 H 0.53566 -0.13391 0.19652
 H295 H 0.53613 -0.13441 0.26952
 H296 H 0.52151 -0.07411 0.30724
 H297 H 0.48571 0.07161 0.30964
 H298 H 0.47106 0.13251 0.27391
 H299 H 0.47093 0.13310 0.20090
 H300 H 0.48539 0.07278 0.16317
 C301 C 0.49882 -0.19397 0.00001
 C302 C 0.52639 -0.21575 0.02275
 C303 C 0.52616 -0.25780 0.02291
 C304 C 0.49831 -0.27779 0.00042
 C305 C 0.47077 -0.25603 -0.02235
 C306 C 0.47103 -0.21398 -0.02256
 C307 C 0.44323 -0.19285 -0.04556
 C308 C 0.41598 -0.21271 -0.06775
 C309 C 0.41574 -0.25383 -0.06755
 C310 C 0.44276 -0.27540 -0.04518
 C311 C 0.55408 -0.27896 0.04576
 C312 C 0.58140 -0.25912 0.06787
 C313 C 0.58157 -0.21800 0.06777
 C314 C 0.55446 -0.19641 0.04553
 C315 C 0.49804 -0.32070 0.00069
 C316 C 0.49797 -0.35636 0.00094
 C317 C 0.49910 -0.15103 -0.00021
 C318 C 0.49933 -0.11537 -0.00036
 H319 H 0.44226 -0.16084 -0.04667
 H320 H 0.39494 -0.19608 -0.08519
 H321 H 0.39453 -0.26912 -0.08486
 H322 H 0.44146 -0.30734 -0.04604
 H323 H 0.55512 -0.31098 0.04678
 H324 H 0.60255 -0.27576 0.08517
 H325 H 0.60284 -0.20272 0.08502
 H326 H 0.55577 -0.16446 0.04639
 C327 C 0.50108 0.19364 -0.00123
 C328 C 0.47491 0.21534 -0.02557
 C329 C 0.47503 0.25739 -0.02567
 C330 C 0.50134 0.27748 -0.00146
 C331 C 0.52747 0.25580 0.02293
 C332 C 0.52736 0.21374 0.02303
 C333 C 0.55376 0.19270 0.04764
 C334 C 0.57954 0.21264 0.07146
 C335 C 0.57963 0.25376 0.07138
 C336 C 0.55395 0.27525 0.04747
 C337 C 0.44857 0.27846 -0.05022
 C338 C 0.42274 0.25853 -0.07399
 C339 C 0.42263 0.21741 -0.07391
 C340 C 0.44835 0.19590 -0.05005
 C341 C 0.50152 0.32040 -0.00167
 C342 C 0.50153 0.35606 -0.00191
 C343 C 0.50092 0.15070 -0.00110
 C344 C 0.50075 0.11504 -0.00099
 H345 H 0.55478 0.16068 0.04874
 H346 H 0.59954 0.19607 0.09010
 H347 H 0.59970 0.26912 0.08996
 H348 H 0.55507 0.30720 0.04850
 H349 H 0.44755 0.31048 -0.05131
 H350 H 0.40269 0.27511 -0.09258
 H351 H 0.40252 0.20206 -0.09244
 H352 H 0.44717 0.16395 -0.05101
 C353 C -0.19442 0.00018 0.49805
 C354 C -0.21717 0.03441 0.50951
 C355 C -0.25924 0.03391 0.50942
 C356 C -0.27831 -0.00076 0.49774
 C357 C -0.25556 -0.03492 0.48609
 C358 C -0.21349 -0.03448 0.48631
 C359 C -0.19139 -0.06905 0.47470
 C360 C -0.21030 -0.10307 0.46315
 C361 C -0.25142 -0.10348 0.46287
 C362 C -0.27394 -0.06988 0.47417
 C363 C -0.28134 0.06844 0.52115
 C364 C -0.26243 0.10251 0.53254
 C365 C -0.22130 0.10302 0.53254
 C366 C -0.19878 0.06944 0.52121
 C367 C -0.32128 -0.00131 0.49786
 C368 C -0.35699 -0.00173 0.49806
 C369 C -0.15144 0.00055 0.49849
 C370 C -0.11577 0.00069 0.49892
 H371 H -0.15934 -0.07018 0.47440
 H372 H -0.19294 -0.12926 0.45438
 H373 H -0.26597 -0.12997 0.45385
 H374 H -0.30584 -0.07164 0.47344
 H375 H -0.31340 0.06949 0.52163
 H376 H -0.27979 0.12866 0.54139
 H377 H -0.20675 0.12957 0.54139
 H378 H -0.16688 0.07128 0.52172
 C379 C 0.19356 -0.00156 0.50270
 C380 C 0.21516 -0.03643 0.51297
 C381 C 0.25724 -0.03643 0.51313
 C382 C 0.27750 -0.00161 0.50291
 C383 C 0.25590 0.03328 0.49274
 C384 C 0.21382 0.03333 0.49269
 C385 C 0.19289 0.06860 0.48250
 C386 C 0.21295 0.10283 0.47261
 C387 C 0.25410 0.10276 0.47258
 C388 C 0.27548 0.06847 0.48249
 C389 C 0.27817 -0.07161 0.52358
 C390 C 0.25811 -0.10584 0.53350
 C391 C 0.21698 -0.10587 0.53326
 C392 C 0.19559 -0.07164 0.52315
 C393 C 0.32050 -0.00172 0.50273
 C394 C 0.35621 -0.00187 0.50252
 C395 C 0.15057 -0.00159 0.50234
 C396 C 0.11489 -0.00150 0.50195
 H397 H 0.16086 0.07013 0.48208
 H398 H 0.19647 0.12955 0.46491
 H399 H 0.26955 0.12942 0.46486
 H400 H 0.30746 0.06988 0.48205
 H401 H 0.31019 -0.07306 0.52421
 H402 H 0.27459 -0.13249 0.54140
 H403 H 0.20153 -0.13254 0.54096
 H404 H 0.16363 -0.07312 0.52342
 C405 C -0.00243 0.50149 1.19406
 C406 C 0.01078 0.53496 1.21450
 C407 C 0.01127 0.53478 1.25651
 C408 C -0.00148 0.50115 1.27780
 C409 C -0.01492 0.46778 1.25738
 C410 C -0.01536 0.46794 1.21537
 C411 C -0.02884 0.43421 1.19558
 C412 C -0.04154 0.40128 1.21672
 C413 C -0.04114 0.40115 1.25782
 C414 C -0.02802 0.43393 1.27808
 C415 C 0.02466 0.56853 1.27632
 C416 C 0.03718 0.60154 1.25520
 C417 C 0.03669 0.60172 1.21411
 C418 C 0.02368 0.56890 1.19383
 C419 C -0.00059 0.50080 1.32064
 C420 C 0.00022 0.50052 1.35624
 C421 C -0.00250 0.50150 1.15115
 C422 C -0.00242 0.50144 1.11551
 H423 H -0.02973 0.43292 1.16364
 H424 H -0.05178 0.37575 1.20112
 H425 H -0.05106 0.37551 1.27411
 H426 H -0.02834 0.43245 1.31005
 H427 H 0.02559 0.56980 1.30826
 H428 H 0.04733 0.62710 1.27082
 H429 H 0.04646 0.62743 1.19784
 H430 H 0.02384 0.57046 1.16186
 C431 C 0.00060 0.50069 0.80663
 C432 C -0.01201 0.53510 0.78610
 C433 C -0.01168 0.53511 0.74405
 C434 C 0.00137 0.50076 0.72283
 C435 C 0.01396 0.46635 0.74335
 C436 C 0.01356 0.46631 0.78540
 C437 C 0.02628 0.43156 0.80528
 C438 C 0.03902 0.39782 0.78421
 C439 C 0.03940 0.39787 0.74309
 C440 C 0.02706 0.43166 0.72273
 C441 C -0.02452 0.56981 0.72415
 C442 C -0.03726 0.60355 0.74519
 C443 C -0.03752 0.60356 0.78631
 C444 C -0.02508 0.56981 0.80669
 C445 C 0.00192 0.50086 0.67993
 C446 C 0.00239 0.50096 0.64429
 C447 C 0.00021 0.50066 0.84956
 C448 C -0.00014 0.50070 0.88520
 H449 H 0.02652 0.43007 0.83725
 H450 H 0.04865 0.37150 0.79989
 H451 H 0.04933 0.37160 0.72685
 H452 H 0.02792 0.43026 0.69074
 H453 H -0.02493 0.57123 0.69220
 H454 H -0.04699 0.62983 0.72950
 H455 H -0.04743 0.62985 0.80253
 H456 H -0.02584 0.57127 0.83868
   
