data_POSCAR
  _audit_creation_date              2014-09-24
  _audit_creation_method            'ToBaCCo'
  _symmetry_space_group_name_H-M    'P1'
  _symmetry_Int_Tables_number       1
  _symmetry_cell_setting            triclinic
  loop_
  _symmetry_equiv_pos_as_xyz
 x,y,z
_cell_length_a 29.7322
_cell_length_b 29.7644
_cell_length_c 42.2798
_cell_angle_alpha 89.907600
_cell_angle_beta 89.957800
_cell_angle_gamma 120.151200
loop_
  _atom_site_label
  _atom_site_type_symbol
  _atom_site_fract_x
  _atom_site_fract_y
  _atom_site_fract_z
C1 C 0.02676 0.51415 1.27921
 C2 C -0.02819 0.48663 1.27935
 C3 C -0.05532 0.47307 1.25058
 C4 C -0.02852 0.48646 1.22167
 C5 C 0.02632 0.51393 1.22155
 C6 C 0.05348 0.52756 1.25027
 H7 H 0.09571 0.54867 1.25002
 H8 H -0.09757 0.45185 1.25069
 C9 C 0.51245 0.48618 1.22178
 C10 C 0.48529 0.51362 1.22159
 C11 C 0.47162 0.52723 1.25025
 C12 C 0.48480 0.51384 1.27919
 C13 C 0.51202 0.48637 1.27937
 C14 C 0.52558 0.47273 1.25067
 H15 H 0.54657 0.45165 1.25084
 H16 H 0.45072 0.54843 1.24996
 C17 C 0.51421 1.02767 1.22129
 C18 C 0.48692 0.97289 1.22112
 C19 C 0.47323 0.94550 1.24981
 C20 C 0.48632 0.97200 1.27874
 C21 C 0.51360 1.02679 1.27890
 C22 C 0.52735 1.05416 1.25022
 H23 H 0.54831 1.09635 1.25047
 H24 H 0.45217 0.90332 1.24956
 C25 C 1.02824 0.51311 0.77826
 C26 C 0.97348 0.48569 0.77823
 C27 C 0.94668 0.47223 0.74943
 C28 C 0.97383 0.48586 0.72065
 C29 C 1.02868 0.51333 0.72066
 C30 C 1.05546 0.52671 0.74951
 H31 H 1.09769 0.54792 0.74967
 H32 H 0.90448 0.45116 0.74940
 C33 C 0.51433 0.48706 0.72115
 C34 C 0.48688 0.51424 0.72121
 C35 C 0.47356 0.52764 0.75005
 C36 C 0.48721 0.51421 0.77879
 C37 C 0.51465 0.48702 0.77874
 C38 C 0.52803 0.47368 0.74990
 H39 H 0.54912 0.45268 0.74982
 H40 H 0.45237 0.54854 0.75012
 C41 C 0.48563 -0.02834 0.77928
 C42 C 0.51322 0.02646 0.77921
 C43 C 0.52665 0.05332 0.75035
 C44 C 0.51301 0.02630 0.72161
 C45 C 0.48546 -0.02840 0.72166
 C46 C 0.47194 -0.05533 0.75049
 H47 H 0.45075 -0.09751 0.75047
 H48 H 0.54792 0.09548 0.75025
 O49 O 0.41197 0.65561 0.97303
 O50 O 0.40975 0.74086 0.96338
 C51 C 0.38472 0.76382 0.95725
 O52 O 0.34537 0.75712 0.97294
 O53 O 0.25987 0.66937 0.96364
 C54 C 0.23680 0.62129 0.95760
 O55 O 0.24341 0.58866 0.97329
 O56 O 0.33108 0.59106 0.96374
 C57 C 0.37921 0.61614 0.95754
 O58 O 0.40982 0.66980 1.03602
 O59 O 0.41216 0.75734 1.02637
 C60 C 0.37947 0.76393 1.04202
 O61 O 0.33134 0.74082 1.03598
 O62 O 0.24352 0.65537 1.02669
 C63 C 0.23681 0.61606 1.04239
 O64 O 0.25984 0.59109 1.03630
 O65 O 0.34524 0.58897 1.02674
 C66 C 0.38471 0.62173 1.04225
 Cr67 Cr 0.40806 0.70447 0.99971
 Cr68 Cr 0.29645 0.70425 0.99981
 Cr69 Cr 0.29633 0.59281 1.00001
 O70 O 0.33361 0.66717 0.99984
 O71 O 0.59132 0.33113 0.96447
 O72 O 0.58895 0.24348 0.97375
 C73 C 0.62170 0.23660 0.95836
 O74 O 0.66972 0.25936 0.96476
 O75 O 0.75750 0.34494 0.97391
 C76 C 0.76452 0.38450 0.95836
 O77 O 0.74185 0.40977 0.96464
 O78 O 0.65628 0.41182 0.97362
 C79 C 0.61669 0.37916 0.95813
 O80 O 0.58875 0.34454 1.02759
 O81 O 0.59079 0.25910 1.03688
 C82 C 0.61605 0.23646 1.04332
 O83 O 0.65579 0.24352 1.02792
 O84 O 0.74138 0.33129 1.03708
 C85 C 0.76410 0.37927 1.04339
 O86 O 0.75728 0.41191 1.02784
 O87 O 0.66946 0.40952 1.03680
 C88 C 0.62136 0.38416 1.04305
 Cr89 Cr 0.59288 0.29602 1.00068
 Cr90 Cr 0.70464 0.29624 1.00091
 Cr91 Cr 0.70476 0.40783 1.00073
 O92 O 0.66742 0.33336 1.00078
 O93 O 0.65527 0.41148 0.52664
 O94 O 0.74073 0.40936 0.53585
 C95 C 0.76376 0.38437 0.54191
 O96 O 0.75697 0.34503 0.52631
 O97 O 0.66925 0.25958 0.53613
 C98 C 0.62116 0.23647 0.54242
 O99 O 0.58836 0.24308 0.52693
 O100 O 0.59082 0.33068 0.53641
 C101 C 0.61592 0.37879 0.54240
 O102 O 0.66893 0.40913 0.46360
 O103 O 0.75671 0.41159 0.47278
 C104 C 0.76327 0.37893 0.45715
 O105 O 0.74019 0.33086 0.46336
 O106 O 0.65473 0.24315 0.47318
 C107 C 0.61522 0.23637 0.45771
 O108 O 0.59022 0.25933 0.46392
 O109 O 0.58811 0.34464 0.47342
 C110 C 0.62074 0.38404 0.45770
 Cr111 Cr 0.70398 0.40753 0.49972
 Cr112 Cr 0.70386 0.29609 0.49975
 Cr113 Cr 0.59225 0.29587 0.50016
 O114 O 0.66669 0.33316 0.49988
 O115 O 0.33022 0.59015 0.53549
 O116 O 0.24251 0.58784 0.52640
 C117 C 0.23563 0.62044 0.54188
 O118 O 0.25836 0.66844 0.53550
 O119 O 0.34401 0.75624 0.52633
 C120 C 0.38357 0.76316 0.54182
 O121 O 0.40887 0.74055 0.53547
 O122 O 0.41101 0.65518 0.52633
 C123 C 0.37827 0.61549 0.54181
 O124 O 0.34388 0.58818 0.47233
 O125 O 0.25835 0.59024 0.46322
 C126 C 0.23568 0.61550 0.45687
 O127 O 0.24267 0.65505 0.47233
 O128 O 0.33055 0.74064 0.46317
 C129 C 0.37862 0.76342 0.45682
 O130 O 0.41125 0.75650 0.47230
 O131 O 0.40896 0.66891 0.46318
 C132 C 0.38360 0.62091 0.45686
 Cr133 Cr 0.29520 0.59202 0.49936
 Cr134 Cr 0.29535 0.70363 0.49933
 Cr135 Cr 0.40710 0.70382 0.49932
 O136 O 0.33255 0.66649 0.49933
 C137 C 0.47099 0.52806 0.30664
 C138 C 0.45852 0.54104 0.33057
 C139 C 0.44351 0.55679 0.35820
 C140 C 0.43035 0.57073 0.38143
 C141 C 0.41450 0.58763 0.40820
 C142 C 0.40061 0.60255 0.43066
 C143 C 0.47202 0.94384 0.30621
 C144 C 0.45899 0.91832 0.33018
 C145 C 0.44319 0.88754 0.35787
 C146 C 0.42920 0.86044 0.38117
 C147 C 0.41222 0.82769 0.40803
 C148 C 0.39719 0.79886 0.43056
 C149 C 0.05501 0.52809 0.30664
 C150 C 0.08059 0.54064 0.33054
 C151 C 0.11146 0.55571 0.35816
 C152 C 0.13863 0.56889 0.38139
 C153 C 0.17142 0.58472 0.40817
 C154 C 0.20026 0.59857 0.43065
 C155 C 0.52679 0.47184 0.30847
 C156 C 0.53970 0.45935 0.33238
 C157 C 0.55550 0.44427 0.35990
 C158 C 0.56960 0.43101 0.38299
 C159 C 0.58678 0.41505 0.40952
 C160 C 0.60200 0.40107 0.43176
 C161 C 0.52786 0.05597 0.30802
 C162 C 0.54014 0.08122 0.33197
 C163 C 0.55499 0.11185 0.35957
 C164 C 0.56811 0.13896 0.38274
 C165 C 0.58400 0.17182 0.40937
 C166 C 0.59801 0.20081 0.43169
 C167 C 0.94390 0.47244 0.30690
 C168 C 0.91851 0.45947 0.33089
 C169 C 0.88775 0.44367 0.35854
 C170 C 0.86058 0.42964 0.38178
 C171 C 0.82771 0.41258 0.40853
 C172 C 0.79876 0.39749 0.43096
 C173 C 0.52749 0.47158 1.19279
 C174 C 0.54054 0.45906 1.16892
 C175 C 0.55642 0.44399 1.14136
 C176 C 0.57049 0.43080 1.11821
 C177 C 0.58759 0.41494 1.09153
 C178 C 0.60271 0.40107 1.06916
 C179 C 0.94352 0.47224 1.19417
 C180 C 0.91816 0.45927 1.17018
 C181 C 0.88755 0.44353 1.14246
 C182 C 0.86059 0.42960 1.11914
 C183 C 0.82802 0.41269 1.09225
 C184 C 0.79935 0.39773 1.06970
 C185 C 0.52812 0.05584 1.19383
 C186 C 0.54068 0.08139 1.16987
 C187 C 0.55577 0.11222 1.14220
 C188 C 0.56901 0.13937 1.11892
 C189 C 0.58494 0.17216 1.09208
 C190 C 0.59892 0.20102 1.06958
 C191 C 0.47117 0.52849 1.19241
 C192 C 0.45901 0.54144 1.16838
 C193 C 0.44430 0.55723 1.14070
 C194 C 0.43130 0.57124 1.11746
 C195 C 0.41559 0.58827 1.09074
 C196 C 0.40173 0.60330 1.06835
 C197 C 0.05581 0.52848 1.19244
 C198 C 0.08125 0.54095 1.16849
 C199 C 0.11207 0.55598 1.14086
 C200 C 0.13929 0.56918 1.11764
 C201 C 0.17222 0.58508 1.09093
 C202 C 0.20124 0.59902 1.06852
 C203 C 0.47224 0.94372 1.19200
 C204 C 0.45948 0.91855 1.16801
 C205 C 0.44391 0.88804 1.14036
 C206 C 0.43003 0.86104 1.11714
 C207 C 0.41310 0.82832 1.09044
 C208 C 0.39806 0.79943 1.06808
 C209 C 0.52870 0.47225 0.69206
 C210 C 0.54109 0.45933 0.66812
 C211 C 0.55606 0.44356 0.64055
 C212 C 0.56923 0.42953 0.61740
 C213 C 0.58509 0.41246 0.59078
 C214 C 0.59899 0.39736 0.56846
 C215 C 0.52794 0.05565 0.69250
 C216 C 0.54091 0.08103 0.66853
 C217 C 0.55671 0.11180 0.64089
 C218 C 0.57072 0.13900 0.61767
 C219 C 0.58773 0.17192 0.59096
 C220 C 0.60274 0.20092 0.56856
 C221 C 0.94438 0.47138 0.69162
 C222 C 0.91903 0.45900 0.66770
 C223 C 0.88835 0.44412 0.64010
 C224 C 0.86123 0.43103 0.61691
 C225 C 0.82838 0.41525 0.59025
 C226 C 0.79938 0.40138 0.56792
 C227 C 0.47177 0.52862 0.69213
 C228 C 0.45868 0.54097 0.66818
 C229 C 0.44278 0.55585 0.64053
 C230 C 0.42872 0.56892 0.61729
 C231 C 0.41171 0.58468 0.59050
 C232 C 0.39670 0.59852 0.56803
 C233 C 0.47081 0.94223 0.69257
 C234 C 0.45828 0.91696 0.66857
 C235 C 0.44325 0.88644 0.64084
 C236 C 0.43009 0.85955 0.61752
 C237 C 0.41428 0.82704 0.59063
 C238 C 0.40046 0.79840 0.56809
 C239 C 0.05662 0.52755 0.69311
 C240 C 0.08190 0.54048 0.66905
 C241 C 0.11238 0.55617 0.64123
 C242 C 0.13923 0.57006 0.61782
 C243 C 0.17170 0.58695 0.59084
 C244 C 0.20034 0.60192 0.56822
 C245 C 0.47242 0.52859 0.80789
 C246 C 0.45952 0.54099 0.83184
 C247 C 0.44377 0.55597 0.85942
 C248 C 0.42978 0.56917 0.88257
 C249 C 0.41276 0.58509 0.90919
 C250 C 0.39770 0.59906 0.93151
 C251 C 0.05740 0.52799 0.80736
 C252 C 0.08254 0.54090 0.83136
 C253 C 0.11298 0.55662 0.85906
 C254 C 0.13990 0.57061 0.88233
 C255 C 0.17253 0.58762 0.90909
 C256 C 0.20136 0.60271 0.93150
 C257 C 0.47192 0.94391 0.80685
 C258 C 0.45952 0.91865 0.83088
 C259 C 0.44458 0.88803 0.85858
 C260 C 0.43144 0.86097 0.88185
 C261 C 0.41561 0.82819 0.90863
 C262 C 0.40171 0.79929 0.93108
 C263 C 0.52929 0.47216 0.80781
 C264 C 0.54185 0.45925 0.83175
 C265 C 0.55693 0.44353 0.85940
 C266 C 0.57014 0.42959 0.88263
 C267 C 0.58598 0.41265 0.90942
 C268 C 0.59982 0.39766 0.93189
 C269 C 0.94395 0.47114 0.80734
 C270 C 0.91861 0.45873 0.83137
 C271 C 0.88806 0.44385 0.85916
 C272 C 0.86115 0.43082 0.88254
 C273 C 0.82860 0.41515 0.90948
 C274 C 0.79988 0.40138 0.93206
 C275 C 0.52839 0.05613 0.80823
 C276 C 0.54150 0.08165 0.83212
 C277 C 0.55738 0.11248 0.85973
 C278 C 0.57139 0.13961 0.88294
 C279 C 0.58836 0.17238 0.90971
 C280 C 0.60332 0.20121 0.93216
   
