data_POSCAR
  _audit_creation_date              2014-09-24
  _audit_creation_method            'ToBaCCo'
  _symmetry_space_group_name_H-M    'P1'
  _symmetry_Int_Tables_number       1
  _symmetry_cell_setting            triclinic
  loop_
  _symmetry_equiv_pos_as_xyz
 x,y,z
_cell_length_a 40.1047
_cell_length_b 39.0358
_cell_length_c 47.5197
_cell_angle_alpha 90.356500
_cell_angle_beta 89.718900
_cell_angle_gamma 124.878300
loop_
  _atom_site_label
  _atom_site_type_symbol
  _atom_site_fract_x
  _atom_site_fract_y
  _atom_site_fract_z
C1 C -0.03223 0.47503 1.18855
 C2 C 0.00512 0.49583 1.17405
 C3 C 0.04228 0.51476 1.18809
 C4 C 0.04264 0.51209 1.21770
 C5 C 0.00580 0.49292 1.23310
 C6 C -0.03160 0.47517 1.21857
 C7 C -0.06699 0.46004 1.23460
 C8 C -0.06630 0.45985 1.26377
 C9 C -0.03026 0.47428 1.27868
 C10 C 0.00647 0.49185 1.26315
 C11 C 0.07893 0.52718 1.23223
 C12 C 0.07951 0.52497 1.26131
 C13 C 0.04393 0.50862 1.27747
 C14 C 0.04441 0.50670 1.30732
 C15 C 0.00776 0.48959 1.32209
 C16 C -0.02943 0.47398 1.30861
 H17 H -0.09574 0.44958 1.22508
 H18 H -0.09467 0.44890 1.27417
 H19 H 0.10739 0.53998 1.22125
 H20 H 0.10849 0.53588 1.27058
 H21 H 0.00588 0.49677 1.15135
 H22 H 0.00823 0.48862 1.34478
 C23 C 0.50039 0.52744 1.31247
 C24 C 0.51821 0.51043 1.32672
 C25 C 0.53298 0.48979 1.31258
 C26 C 0.53153 0.48839 1.28255
 C27 C 0.51221 0.50422 1.26785
 C28 C 0.49620 0.52328 1.28290
 C29 C 0.47598 0.53732 1.26798
 C30 C 0.47203 0.53340 1.23887
 C31 C 0.48841 0.51556 1.22334
 C32 C 0.50931 0.50147 1.23792
 C33 C 0.55045 0.47339 1.26660
 C34 C 0.54880 0.47205 1.23739
 C35 C 0.52784 0.48522 1.22261
 C36 C 0.52614 0.48392 1.19288
 C37 C 0.50439 0.49668 1.17895
 C38 C 0.48528 0.51229 1.19359
 H39 H 0.46246 0.55113 1.27866
 H40 H 0.45662 0.54536 1.22871
 H41 H 0.56828 0.46389 1.27618
 H42 H 0.56461 0.46085 1.22654
 H43 H 0.51944 0.51276 1.34936
 H44 H 0.50136 0.49312 1.15628
 C45 C 0.43351 0.94771 1.30979
 C46 C 0.44766 0.98442 1.32494
 C47 C 0.46878 1.02369 1.31200
 C48 C 0.47213 1.02572 1.28206
 C49 C 0.45766 0.98863 1.26628
 C50 C 0.43876 0.94966 1.28027
 C51 C 0.42584 0.91363 1.26439
 C52 C 0.42953 0.91527 1.23529
 C53 C 0.44635 0.95302 1.22078
 C54 C 0.46137 0.99028 1.23636
 C55 C 0.48605 1.06266 1.26719
 C56 C 0.49023 1.06446 1.23806
 C57 C 0.47943 1.02900 1.22210
 C58 C 0.48351 1.03052 1.19222
 C59 C 0.46770 0.99286 1.17744
 C60 C 0.44913 0.95447 1.19112
 H61 H 0.41279 0.88359 1.27421
 H62 H 0.41922 0.88644 1.22437
 H63 H 0.49235 1.09039 1.27765
 H64 H 0.50048 1.09386 1.22830
 H65 H 0.44329 0.98236 1.34758
 H66 H 0.47064 0.99302 1.15480
 C67 C 1.04625 0.53910 0.81425
 C68 C 1.01002 0.52453 0.82906
 C69 C 0.97337 0.51016 0.81539
 C70 C 0.97230 0.50995 0.78563
 C71 C 1.00844 0.52515 0.76996
 C72 C 1.04549 0.53977 0.78422
 C73 C 1.08004 0.55222 0.76789
 C74 C 1.07892 0.55210 0.73868
 C75 C 1.04314 0.53931 0.72398
 C76 C 1.00721 0.52466 0.73988
 C77 C 0.93565 0.49365 0.77111
 C78 C 0.93438 0.49281 0.74191
 C79 C 0.96973 0.50840 0.72584
 C80 C 0.96824 0.50679 0.69611
 C81 C 1.00399 0.52218 0.68083
 C82 C 1.04165 0.53845 0.69394
 H83 H 1.10844 0.56111 0.77717
 H84 H 1.10655 0.56083 0.72805
 H85 H 0.90712 0.48031 0.78208
 H86 H 0.90502 0.47905 0.73215
 H87 H 1.01060 0.52681 0.85178
 H88 H 1.00230 0.52347 0.65818
 C89 C 0.53627 0.49268 0.68676
 C90 C 0.51851 0.50959 0.67225
 C91 C 0.49908 0.52505 0.68652
 C92 C 0.49764 0.52422 0.71627
 C93 C 0.51419 0.50594 0.73127
 C94 C 0.53330 0.48986 0.71649
 C95 C 0.54833 0.47073 0.73183
 C96 C 0.54524 0.46797 0.76099
 C97 C 0.52673 0.48397 0.77612
 C98 C 0.51149 0.50360 0.76114
 C99 C 0.47940 0.54050 0.73142
 C100 C 0.47813 0.53962 0.76064
 C101 C 0.49365 0.52100 0.77596
 C102 C 0.49242 0.51991 0.80570
 C103 C 0.50703 0.49991 0.82011
 C104 C 0.52362 0.48143 0.80582
 H105 H 0.56220 0.45704 0.72154
 H106 H 0.55809 0.45355 0.77147
 H107 H 0.46592 0.55430 0.72097
 H108 H 0.46462 0.55366 0.77097
 H109 H 0.52115 0.51230 0.64954
 H110 H 0.50392 0.49734 0.84281
 C111 C 0.46101 -0.03922 0.81004
 C112 C 0.47812 -0.00044 0.82362
 C113 C 0.49621 0.03701 0.80881
 C114 C 0.49695 0.03635 0.77910
 C115 C 0.48046 -0.00206 0.76460
 C116 C 0.46262 -0.03989 0.78001
 C117 C 0.44824 -0.07696 0.76482
 C118 C 0.45029 -0.07729 0.73565
 C119 C 0.46768 -0.04042 0.71984
 C120 C 0.48213 -0.00247 0.73457
 C121 C 0.51312 0.07313 0.76351
 C122 C 0.51367 0.07253 0.73430
 C123 C 0.49828 0.03517 0.71938
 C124 C 0.49943 0.03475 0.68969
 C125 C 0.48539 -0.00272 0.67560
 C126 C 0.46990 -0.04053 0.68984
 H127 H 0.43566 -0.10659 0.77496
 H128 H 0.43716 -0.10746 0.72596
 H129 H 0.52513 0.10288 0.77367
 H130 H 0.52687 0.10199 0.72360
 H131 H 0.47677 0.00115 0.84626
 H132 H 0.48802 -0.00149 0.65297
 O133 O 0.40519 0.66158 0.96331
 O134 O 0.40770 0.72883 0.97317
 C135 C 0.38239 0.73336 0.96114
 O136 O 0.34495 0.71194 0.96730
 O137 O 0.27703 0.63922 0.97524
 C138 C 0.26944 0.60692 0.96222
 O139 O 0.28690 0.58900 0.96762
 O140 O 0.35513 0.59534 0.97278
 C141 C 0.38552 0.62274 0.95832
 O142 O 0.41061 0.65261 1.01873
 O143 O 0.40908 0.71744 1.02862
 C144 C 0.38939 0.73247 1.03572
 O145 O 0.35684 0.72290 1.02363
 O146 O 0.28932 0.64930 1.03142
 C147 C 0.27216 0.61101 1.03705
 O148 O 0.27940 0.58766 1.02383
 O149 O 0.34883 0.59696 1.02942
 C150 C 0.38696 0.62016 1.03313
 Cr151 Cr 0.40571 0.68868 0.99602
 Cr152 Cr 0.31825 0.67979 0.99935
 Cr153 Cr 0.31877 0.59471 0.99839
 O154 O 0.34747 0.65438 0.99791
 O155 O 0.61486 0.34651 0.96469
 O156 O 0.60034 0.27367 0.97456
 C157 C 0.62346 0.26366 0.96538
 O158 O 0.65855 0.27854 0.97520
 O159 O 0.73060 0.34544 0.98573
 C160 C 0.74408 0.37837 0.97147
 O161 O 0.73117 0.40129 0.97422
 O162 O 0.67056 0.40885 0.97541
 C163 C 0.63983 0.38515 0.96012
 O164 O 0.60606 0.35604 1.02001
 O165 O 0.59341 0.28408 1.02980
 C166 C 0.60743 0.26462 1.03950
 O167 O 0.64005 0.26991 1.03070
 O168 O 0.71174 0.33797 1.04098
 C169 C 0.73388 0.37691 1.04570
 O170 O 0.73325 0.40315 1.03067
 O171 O 0.67010 0.40628 1.03193
 C172 C 0.63196 0.38741 1.03479
 Cr173 Cr 0.60611 0.31620 0.99748
 Cr174 Cr 0.68430 0.30932 1.00795
 Cr175 Cr 0.69974 0.40239 1.00304
 O176 O 0.66333 0.34253 1.00285
 O177 O 0.66981 0.38611 0.53684
 O178 O 0.73842 0.39332 0.52995
 C179 C 0.74157 0.36471 0.53906
 O180 O 0.72344 0.32877 0.52796
 O181 O 0.65678 0.26086 0.51000
 C182 C 0.62475 0.25023 0.52336
 O183 O 0.60687 0.26828 0.52042
 O184 O 0.60854 0.33601 0.52051
 C185 C 0.63136 0.36420 0.53828
 O186 O 0.67001 0.40389 0.48210
 O187 O 0.73702 0.40878 0.47477
 C188 C 0.75404 0.39165 0.46603
 O189 O 0.74457 0.35643 0.47466
 O190 O 0.67690 0.29017 0.45692
 C191 C 0.64020 0.27112 0.44935
 O192 O 0.61366 0.27166 0.46365
 O193 O 0.61961 0.34222 0.46446
 C194 C 0.64106 0.38190 0.46485
 Cr195 Cr 0.70262 0.39568 0.50559
 Cr196 Cr 0.69933 0.31016 0.49258
 Cr197 Cr 0.61444 0.30573 0.49241
 O198 O 0.67221 0.33728 0.49686
 O199 O 0.33535 0.59631 0.54061
 O200 O 0.26502 0.58221 0.52815
 C201 C 0.25662 0.60653 0.53837
 O202 O 0.27367 0.64389 0.53033
 O203 O 0.33916 0.71725 0.51938
 C204 C 0.37028 0.72995 0.53441
 O205 O 0.39183 0.71572 0.53227
 O206 O 0.39741 0.65204 0.53026
 C207 C 0.37318 0.62052 0.54536
 O208 O 0.34796 0.58833 0.48614
 O209 O 0.27934 0.57740 0.47337
 C210 C 0.26046 0.59231 0.46443
 O211 O 0.26452 0.62449 0.47497
 O212 O 0.33134 0.69710 0.46444
 C213 C 0.36933 0.72019 0.46014
 O214 O 0.39475 0.71973 0.47561
 O215 O 0.39654 0.65372 0.47354
 C216 C 0.37863 0.61449 0.47141
 Cr217 Cr 0.30797 0.58845 0.50691
 Cr218 Cr 0.30339 0.66974 0.49748
 Cr219 Cr 0.39284 0.68386 0.50291
 O220 O 0.33471 0.64736 0.50244
 C221 C 0.48772 0.55074 0.32897
 C222 C 0.46875 0.53673 0.35519
 C223 C 0.45880 0.55996 0.37425
 C224 C 0.44594 0.54474 0.40166
 C225 C 0.43548 0.56463 0.42055
 C226 C 0.43710 0.60011 0.41238
 C227 C 0.45098 0.61617 0.38525
 C228 C 0.46153 0.59621 0.36624
 C229 C 0.42402 0.62025 0.43175
 C230 C 0.39350 0.59697 0.45164
 H231 H 0.46131 0.50690 0.36255
 H232 H 0.44403 0.51727 0.40858
 H233 H 0.42638 0.55220 0.44162
 H234 H 0.45275 0.64364 0.37854
 H235 H 0.47109 0.60905 0.34535
 H236 H 0.43664 0.65309 0.42917
 H237 H 0.49454 0.57965 0.32042
 H238 H 0.37830 0.56346 0.45227
 C239 C 0.41332 0.90778 0.32550
 C240 C 0.43010 0.90496 0.35031
 C241 C 0.41217 0.86658 0.36738
 C242 C 0.43657 0.86554 0.38791
 C243 C 0.42098 0.83090 0.40532
 C244 C 0.38039 0.79618 0.40256
 C245 C 0.35579 0.79727 0.38219
 C246 C 0.37145 0.83204 0.36469
 C247 C 0.36236 0.75990 0.42178
 C248 C 0.38582 0.75042 0.43695
 H249 H 0.45909 0.93230 0.35711
 H250 H 0.46784 0.89193 0.39073
 H251 H 0.44062 0.83221 0.42143
 H252 H 0.32423 0.77127 0.37997
 H253 H 0.35126 0.83196 0.34967
 H254 H 0.32968 0.74075 0.42462
 H255 H 0.38622 0.88038 0.31677
 H256 H 0.41814 0.76755 0.43305
 C257 C 0.08070 0.52316 0.32276
 C258 C 0.08165 0.50835 0.34930
 C259 C 0.11830 0.52902 0.36713
 C260 C 0.12216 0.50528 0.38717
 C261 C 0.15474 0.52440 0.40596
 C262 C 0.18386 0.56784 0.40520
 C263 C 0.18006 0.59157 0.38510
 C264 C 0.14770 0.57238 0.36611
 C265 C 0.21636 0.58965 0.42646
 C266 C 0.23158 0.57062 0.44121
 H267 H 0.05514 0.47919 0.35688
 H268 H 0.09951 0.47191 0.38859
 H269 H 0.15605 0.50531 0.42171
 H270 H 0.20182 0.62516 0.38441
 H271 H 0.14496 0.59176 0.35147
 H272 H 0.22895 0.62224 0.43059
 H273 H 0.10950 0.54763 0.31389
 H274 H 0.22262 0.53955 0.43552
 C275 C 0.54673 0.46919 0.32824
 C276 C 0.55847 0.47739 0.35662
 C277 C 0.56941 0.45331 0.37351
 C278 C 0.59147 0.47131 0.39842
 C279 C 0.60159 0.44965 0.41558
 C280 C 0.59000 0.40928 0.40817
 C281 C 0.56716 0.39081 0.38355
 C282 C 0.55694 0.41253 0.36635
 C283 C 0.59996 0.38534 0.42619
 C284 C 0.63239 0.40473 0.44509
 H285 H 0.56290 0.50455 0.36678
 H286 H 0.60076 0.50229 0.40479
 H287 H 0.61769 0.46446 0.43493
 H288 H 0.55716 0.35946 0.37763
 H289 H 0.53863 0.39685 0.34789
 H290 H 0.58168 0.35163 0.42418
 H291 H 0.54856 0.44562 0.31802
 H292 H 0.65255 0.43845 0.44585
 C293 C 0.48516 0.05839 0.33030
 C294 C 0.52189 0.09729 0.32605
 C295 C 0.53866 0.13113 0.34737
 C296 C 0.58088 0.16025 0.34949
 C297 C 0.59753 0.19106 0.37049
 C298 C 0.57206 0.19340 0.38975
 C299 C 0.52980 0.16547 0.38668
 C300 C 0.51323 0.13473 0.36575
 C301 C 0.58780 0.22368 0.41347
 C302 C 0.62782 0.24610 0.42327
 H303 H 0.54115 0.10144 0.30847
 H304 H 0.60109 0.15862 0.33522
 H305 H 0.63020 0.21270 0.37142
 H306 H 0.50941 0.16695 0.40086
 H307 H 0.48049 0.11385 0.36406
 H308 H 0.56598 0.22625 0.42507
 H309 H 0.47199 0.05272 0.35117
 H310 H 0.65039 0.24382 0.41269
 C311 C 0.93512 0.45733 0.32527
 C312 C 0.93584 0.47089 0.35278
 C313 C 0.89960 0.45123 0.37111
 C314 C 0.89799 0.47518 0.39251
 C315 C 0.86532 0.45702 0.41131
 C316 C 0.83381 0.41433 0.40918
 C317 C 0.83556 0.39032 0.38790
 C318 C 0.86803 0.40858 0.36892
 C319 C 0.80020 0.39337 0.42979
 C320 C 0.78677 0.41393 0.44511
 H321 H 0.96331 0.49890 0.36071
 H322 H 0.92231 0.50797 0.39486
 H323 H 0.86556 0.47619 0.42796
 H324 H 0.81191 0.35723 0.38612
 H325 H 0.86895 0.38896 0.35320
 H326 H 0.78450 0.35994 0.43234
 H327 H 0.90568 0.43419 0.31654
 H328 H 0.79920 0.44638 0.44099
 C329 C 0.54590 0.46851 1.17562
 C330 C 0.57048 0.49144 1.15272
 C331 C 0.58905 0.47670 1.13362
 C332 C 0.57141 0.43396 1.12917
 C333 C 0.58821 0.42104 1.10958
 C334 C 0.62291 0.45056 1.09400
 C335 C 0.64114 0.49318 1.09901
 C336 C 0.62405 0.50613 1.11838
 C337 C 0.64032 0.43759 1.07239
 C338 C 0.61585 0.40159 1.05626
 H339 H 0.57724 0.52221 1.14908
 H340 H 0.54403 0.41039 1.14017
 H341 H 0.57399 0.38791 1.10669
 H342 H 0.66802 0.51648 1.08738
 H343 H 0.63811 0.53923 1.12139
 H344 H 0.67256 0.45808 1.06789
 H345 H 0.54200 0.43970 1.18151
 H346 H 0.58318 0.38311 1.05906
 C347 C 0.93076 0.45313 1.17327
 C348 C 0.92712 0.46110 1.14516
 C349 C 0.88825 0.43757 1.12956
 C350 C 0.88323 0.45743 1.10720
 C351 C 0.84732 0.43662 1.09172
 C352 C 0.81546 0.39522 1.09821
 C353 C 0.82085 0.37475 1.12000
 C354 C 0.85687 0.39577 1.13569
 C355 C 0.77756 0.37274 1.08147
 C356 C 0.76332 0.39413 1.06881
 H357 H 0.95236 0.48835 1.13480
 H358 H 0.90722 0.48930 1.10170
 H359 H 0.84503 0.45284 1.07426
 H360 H 0.79710 0.34257 1.12494
 H361 H 0.86029 0.37899 1.15215
 H362 H 0.76172 0.33941 1.07817
 H363 H 0.90310 0.42928 1.18369
 H364 H 0.77779 0.42685 1.07376
 C365 C 0.50466 0.06870 1.17723
 C366 C 0.49807 0.07164 1.14868
 C367 C 0.52359 0.11014 1.13196
 C368 C 0.50636 0.11622 1.10859
 C369 C 0.53012 0.15054 1.09099
 C370 C 0.57187 0.17930 1.09623
 C371 C 0.58925 0.17310 1.11950
 C372 C 0.56528 0.13900 1.13739
 C373 C 0.59804 0.21427 1.07676
 C374 C 0.58342 0.23339 1.06141
 H375 H 0.47159 0.04549 1.13831
 H376 H 0.47445 0.09402 1.10372
 H377 H 0.51598 0.15364 1.07276
 H378 H 0.62146 0.19453 1.12370
 H379 H 0.57969 0.13451 1.15480
 H380 H 0.62970 0.22558 1.07475
 H381 H 0.52668 0.09744 1.18804
 H382 H 0.55306 0.22513 1.06549
 C383 C 0.46093 0.52315 1.17729
 C384 C 0.47365 0.54191 1.15083
 C385 C 0.44970 0.54982 1.13158
 C386 C 0.46753 0.56922 1.10581
 C387 C 0.44670 0.57722 1.08653
 C388 C 0.40745 0.56642 1.09263
 C389 C 0.38904 0.54607 1.11807
 C390 C 0.40994 0.53793 1.13747
 C391 C 0.38543 0.57583 1.07263
 C392 C 0.40631 0.60986 1.05447
 H393 H 0.50344 0.55142 1.14357
 H394 H 0.49776 0.57809 1.10042
 H395 H 0.46136 0.59136 1.06668
 H396 H 0.35862 0.53694 1.12311
 H397 H 0.39465 0.52235 1.15681
 H398 H 0.35250 0.55681 1.07295
 H399 H 0.43263 0.51553 1.18615
 H400 H 0.43907 0.63090 1.05600
 C401 C 0.08048 0.53852 1.17140
 C402 C 0.08463 0.52371 1.14575
 C403 C 0.12157 0.54685 1.12794
 C404 C 0.12697 0.52468 1.10725
 C405 C 0.16077 0.54512 1.08948
 C406 C 0.19012 0.58843 1.09203
 C407 C 0.18434 0.61083 1.11233
 C408 C 0.15048 0.59031 1.13020
 C409 C 0.22569 0.61105 1.07292
 C410 C 0.24133 0.59129 1.05939
 H411 H 0.06012 0.49270 1.13891
 H412 H 0.10481 0.49135 1.10470
 H413 H 0.16311 0.52693 1.07335
 H414 H 0.20608 0.64432 1.11434
 H415 H 0.14677 0.60880 1.14522
 H416 H 0.23976 0.64401 1.06933
 H417 H 0.10592 0.56758 1.17997
 H418 H 0.22926 0.55916 1.06433
 C419 C 0.43146 0.91614 1.17368
 C420 C 0.45227 0.91452 1.15065
 C421 C 0.43453 0.87852 1.13111
 C422 C 0.46077 0.87397 1.11447
 C423 C 0.44530 0.84162 1.09475
 C424 C 0.40308 0.81319 1.09116
 C425 C 0.37683 0.81800 1.10759
 C426 C 0.39231 0.85022 1.12744
 C427 C 0.38559 0.77984 1.06951
 C428 C 0.40608 0.76337 1.05872
 H429 H 0.48348 0.94065 1.14713
 H430 H 0.49341 0.89578 1.11656
 H431 H 0.46656 0.83985 1.08185
 H432 H 0.34421 0.79691 1.10490
 H433 H 0.37111 0.85348 1.13920
 H434 H 0.35508 0.76726 1.06217
 H435 H 0.40189 0.88886 1.17934
 H436 H 0.43516 0.77306 1.06737
 C437 C 0.55965 0.48034 0.67063
 C438 C 0.54629 0.45976 0.64476
 C439 C 0.56858 0.44676 0.62803
 C440 C 0.54756 0.41677 0.60680
 C441 C 0.56724 0.40387 0.59014
 C442 C 0.60863 0.42066 0.59441
 C443 C 0.62991 0.45123 0.61531
 C444 C 0.61018 0.46420 0.63200
 C445 C 0.63082 0.40885 0.57634
 C446 C 0.61112 0.37192 0.56071
 H447 H 0.51694 0.45082 0.63705
 H448 H 0.51573 0.40337 0.60296
 H449 H 0.55001 0.38159 0.57351
 H450 H 0.66197 0.46530 0.61863
 H451 H 0.62794 0.48842 0.64746
 H452 H 0.66354 0.43051 0.57466
 H453 H 0.58720 0.48661 0.67982
 H454 H 0.57878 0.34899 0.56322
 C455 C 0.51401 0.07265 0.67252
 C456 C 0.53774 0.08127 0.64846
 C457 C 0.54715 0.11324 0.62720
 C458 C 0.55989 0.10963 0.60047
 C459 C 0.56948 0.13880 0.57953
 C460 C 0.56728 0.17291 0.58498
 C461 C 0.55375 0.17617 0.61153
 C462 C 0.54391 0.14674 0.63254
 C463 C 0.57955 0.20562 0.56358
 C464 C 0.60842 0.21504 0.54289
 H465 H 0.54809 0.06152 0.64397
 H466 H 0.56215 0.08386 0.59566
 H467 H 0.57829 0.13422 0.55906
 H468 H 0.55165 0.20208 0.61621
 H469 H 0.53465 0.15093 0.65294
 H470 H 0.56837 0.22505 0.56561
 H471 H 0.50389 0.09217 0.67815
 H472 H 0.62262 0.19838 0.54240
 C473 C 0.93012 0.49055 0.68011
 C474 C 0.92008 0.46441 0.65676
 C475 C 0.88492 0.44990 0.63798
 C476 C 0.87288 0.41648 0.61958
 C477 C 0.84174 0.40333 0.60011
 C478 C 0.82182 0.42345 0.59855
 C479 C 0.83383 0.45692 0.61694
 C480 C 0.86495 0.47000 0.63653
 C481 C 0.79056 0.41219 0.57686
 C482 C 0.76851 0.37355 0.56309
 H483 H 0.93911 0.45358 0.65210
 H484 H 0.88813 0.40084 0.61995
 H485 H 0.83447 0.37837 0.58577
 H486 H 0.81941 0.47336 0.61590
 H487 H 0.87399 0.49658 0.64979
 H488 H 0.78488 0.43535 0.57145
 H489 H 0.90996 0.49898 0.68693
 H490 H 0.77147 0.34892 0.56964
 C491 C 0.48130 0.54274 0.66986
 C492 C 0.45443 0.52022 0.64783
 C493 C 0.43304 0.53472 0.63195
 C494 C 0.44711 0.57700 0.63107
 C495 C 0.42646 0.58944 0.61534
 C496 C 0.39166 0.55999 0.59981
 C497 C 0.37720 0.51775 0.60115
 C498 C 0.39786 0.50529 0.61688
 C499 C 0.37069 0.57235 0.58129
 C500 C 0.39098 0.61150 0.56861
 H501 H 0.44679 0.48927 0.64325
 H502 H 0.47445 0.60083 0.64195
 H503 H 0.43795 0.62215 0.61541
 H504 H 0.35040 0.49443 0.58945
 H505 H 0.38635 0.47253 0.61721
 H506 H 0.33993 0.54841 0.57472
 H507 H 0.48711 0.57221 0.67648
 H508 H 0.42274 0.63469 0.57317
 C509 C 0.45881 0.92328 0.67412
 C510 C 0.44894 0.91807 0.64540
 C511 C 0.44072 0.88261 0.62769
 C512 C 0.42356 0.87777 0.60107
 C513 C 0.41542 0.84545 0.58318
 C514 C 0.42390 0.81671 0.59155
 C515 C 0.44236 0.82219 0.61776
 C516 C 0.45070 0.85482 0.63576
 C517 C 0.41385 0.78127 0.57307
 C518 C 0.38108 0.76345 0.55454
 H519 H 0.44401 0.93957 0.63533
 H520 H 0.41640 0.89919 0.59398
 H521 H 0.40289 0.84347 0.56264
 H522 H 0.44988 0.80090 0.62445
 H523 H 0.46523 0.85821 0.65567
 H524 H 0.43130 0.76811 0.57482
 H525 H 0.45722 0.89793 0.68442
 H526 H 0.36156 0.77431 0.55480
 C527 C 0.07691 0.55493 0.67703
 C528 C 0.07588 0.54270 0.64905
 C529 C 0.11236 0.56110 0.63093
 C530 C 0.11187 0.53705 0.60868
 C531 C 0.14500 0.55355 0.59044
 C532 C 0.17936 0.59475 0.59394
 C533 C 0.17959 0.61916 0.61585
 C534 C 0.14651 0.60248 0.63432
 C535 C 0.21425 0.61335 0.57426
 C536 C 0.22457 0.58931 0.55996
 H537 H 0.04787 0.51598 0.64057
 H538 H 0.08565 0.50534 0.60533
 H539 H 0.14308 0.53426 0.57320
 H540 H 0.20543 0.65121 0.61867
 H541 H 0.14737 0.62235 0.65070
 H542 H 0.23275 0.64690 0.57141
 H543 H 0.10652 0.57710 0.68591
 H544 H 0.20854 0.55638 0.56462
 C545 C 0.47490 0.53821 0.82235
 C546 C 0.49558 0.56417 0.84537
 C547 C 0.47921 0.58249 0.86323
 C548 C 0.43727 0.56431 0.86541
 C549 C 0.42277 0.58118 0.88366
 C550 C 0.44986 0.61631 0.90030
 C551 C 0.49174 0.63511 0.89755
 C552 C 0.50625 0.61810 0.87940
 C553 C 0.43529 0.63321 0.92115
 C554 C 0.39829 0.60766 0.93513
 H555 H 0.52587 0.57257 0.84992
 H556 H 0.41539 0.53643 0.85370
 H557 H 0.39034 0.56653 0.88473
 H558 H 0.51320 0.66232 0.91006
 H559 H 0.53869 0.63265 0.87811
 H560 H 0.45582 0.66552 0.92766
 H561 H 0.44636 0.53242 0.81569
 H562 H 0.37918 0.57455 0.93050
 C563 C 0.08245 0.55432 0.82964
 C564 C 0.08285 0.54071 0.85681
 C565 C 0.12043 0.55839 0.87348
 C566 C 0.12267 0.53283 0.89290
 C567 C 0.15671 0.54914 0.91021
 C568 C 0.18895 0.59163 0.90874
 C569 C 0.18662 0.61726 0.88942
 C570 C 0.15286 0.60078 0.87176
 C571 C 0.22365 0.61057 0.92849
 C572 C 0.23788 0.58850 0.94025
 H573 H 0.05516 0.51384 0.86550
 H574 H 0.09780 0.50020 0.89486
 H575 H 0.15700 0.52877 0.92539
 H576 H 0.21083 0.65023 0.88820
 H577 H 0.15158 0.62154 0.85752
 H578 H 0.23892 0.64336 0.93367
 H579 H 0.11163 0.57638 0.82012
 H580 H 0.22586 0.55709 0.93310
 C581 C 0.44189 0.92383 0.82644
 C582 C 0.45087 0.92323 0.85485
 C583 C 0.43068 0.88493 0.87218
 C584 C 0.45146 0.88461 0.89571
 C585 C 0.43373 0.84962 0.91300
 C586 C 0.39459 0.81398 0.90719
 C587 C 0.37318 0.81461 0.88416
 C588 C 0.39109 0.84970 0.86667
 C589 C 0.37544 0.77670 0.92549
 C590 C 0.39874 0.76626 0.93977
 H591 H 0.47663 0.95111 0.86438
 H592 H 0.48164 0.91160 0.90076
 H593 H 0.45054 0.85097 0.93121
 H594 H 0.34268 0.78783 0.87959
 H595 H 0.37361 0.84937 0.84928
 H596 H 0.34264 0.75702 0.92749
 H597 H 0.42019 0.89401 0.81685
 H598 H 0.43112 0.78392 0.93578
 C599 C 0.53547 0.45784 0.82231
 C600 C 0.55502 0.47236 0.84822
 C601 C 0.56592 0.44928 0.86609
 C602 C 0.59487 0.47129 0.88731
 C603 C 0.60539 0.45082 0.90529
 C604 C 0.58716 0.40766 0.90239
 C605 C 0.55765 0.38543 0.88149
 C606 C 0.54712 0.40597 0.86343
 C607 C 0.59663 0.38491 0.92188
 C608 C 0.63309 0.40481 0.93671
 H609 H 0.56420 0.50304 0.85530
 H610 H 0.60923 0.50449 0.89015
 H611 H 0.62697 0.46885 0.92187
 H612 H 0.54259 0.35204 0.87921
 H613 H 0.52365 0.38757 0.84798
 H614 H 0.57397 0.35184 0.92505
 H615 H 0.52923 0.42910 0.81361
 H616 H 0.65695 0.43714 0.93236
 C617 C 0.93714 0.49761 0.83283
 C618 C 0.92835 0.47513 0.85778
 C619 C 0.89378 0.46289 0.87683
 C620 C 0.88571 0.43565 0.89907
 C621 C 0.85399 0.42344 0.91794
 C622 C 0.82922 0.43802 0.91492
 C623 C 0.83769 0.46588 0.89302
 C624 C 0.86956 0.47822 0.87412
 C625 C 0.79533 0.42582 0.93463
 C626 C 0.77671 0.38991 0.95116
 H627 H 0.94752 0.46492 0.86339
 H628 H 0.90421 0.42387 0.90199
 H629 H 0.84969 0.40324 0.93511
 H630 H 0.81950 0.47810 0.89046
 H631 H 0.87512 0.50005 0.85781
 H632 H 0.78394 0.44516 0.93558
 H633 H 0.91724 0.50598 0.82561
 H634 H 0.78589 0.36880 0.94917
 C635 C 0.51569 0.07655 0.82518
 C636 C 0.49703 0.07990 0.84891
 C637 C 0.51711 0.11618 0.86832
 C638 C 0.55966 0.14362 0.87058
 C639 C 0.57735 0.17577 0.89063
 C640 C 0.55282 0.18095 0.90891
 C641 C 0.51043 0.15407 0.90620
 C642 C 0.49279 0.12183 0.88632
 C643 C 0.56998 0.21388 0.93088
 C644 C 0.60880 0.23284 0.94235
 H645 H 0.46583 0.05453 0.85343
 H646 H 0.57946 0.13982 0.85747
 H647 H 0.61014 0.19644 0.89161
 H648 H 0.49084 0.15751 0.91989
 H649 H 0.45995 0.10102 0.88512
 H650 H 0.55013 0.22175 0.93961
 H651 H 0.54514 0.10304 0.81849
 H652 H 0.62855 0.22406 0.93511
   
