data_POSCAR
  _audit_creation_date              2014-09-24
  _audit_creation_method            'ToBaCCo'
  _symmetry_space_group_name_H-M    'P1'
  _symmetry_Int_Tables_number       1
  _symmetry_cell_setting            triclinic
  loop_
  _symmetry_equiv_pos_as_xyz
 x,y,z
_cell_length_a 41.5531
_cell_length_b 42.9531
_cell_length_c 42.6052
_cell_angle_alpha 90.044300
_cell_angle_beta 89.561400
_cell_angle_gamma 89.359700
loop_
  _atom_site_label
  _atom_site_type_symbol
  _atom_site_fract_x
  _atom_site_fract_y
  _atom_site_fract_z
C1 C 0.18661 0.14366 0.18810
 C2 C 0.17773 0.13668 0.21904
 C3 C 0.15413 0.15446 0.23501
 C4 C 0.14000 0.18025 0.21955
 C5 C 0.14908 0.18780 0.18865
 C6 C 0.17238 0.16934 0.17285
 C7 C 0.20951 0.12521 0.17219
 C8 C 0.21904 0.13228 0.14127
 C9 C 0.20449 0.15799 0.12612
 C10 C 0.18134 0.17645 0.14172
 C11 C 0.16694 0.20191 0.12657
 C12 C 0.14405 0.22069 0.14215
 C13 C 0.13507 0.21342 0.17321
 H14 H 0.18892 0.11686 0.23058
 H15 H 0.12244 0.19498 0.23132
 H16 H 0.22031 0.10546 0.18418
 H17 H 0.21032 0.16360 0.10203
 H18 H 0.17375 0.20734 0.10258
 H19 H 0.11674 0.22715 0.18520
 C20 C -0.16635 0.86418 0.19033
 C21 C -0.15065 0.87678 0.21645
 C22 C -0.12131 0.86380 0.22714
 C23 C -0.10766 0.83845 0.21060
 C24 C -0.12335 0.82537 0.18482
 C25 C -0.15295 0.83809 0.17478
 C26 C -0.19520 0.87745 0.17943
 C27 C -0.21141 0.86473 0.15356
 C28 C -0.19795 0.83823 0.13852
 C29 C -0.16890 0.82496 0.14892
 C30 C -0.15532 0.79895 0.13355
 C31 C -0.12586 0.78608 0.14358
 C32 C -0.10988 0.79968 0.16895
 H33 H -0.16119 0.89708 0.22766
 H34 H -0.08495 0.82839 0.21821
 H35 H -0.20518 0.89776 0.19131
 H36 H -0.20911 0.82821 0.11810
 H37 H -0.16738 0.78922 0.11340
 H38 H -0.08705 0.78995 0.17658
 C39 C -0.18833 0.14413 -0.18212
 C40 C -0.16981 0.12800 -0.20464
 C41 C -0.14103 0.14049 -0.21627
 C42 C -0.13065 0.16943 -0.20489
 C43 C -0.14888 0.18576 -0.18226
 C44 C -0.17771 0.17297 -0.17058
 C45 C -0.21737 0.13185 -0.17113
 C46 C -0.23593 0.14744 -0.14813
 C47 C -0.22488 0.17618 -0.13631
 C48 C -0.19598 0.18907 -0.14753
 C49 C -0.18519 0.21798 -0.13639
 C50 C -0.15657 0.23096 -0.14825
 C51 C -0.13873 0.21474 -0.17121
 H52 H -0.17795 0.10573 -0.21339
 H53 H -0.10816 0.17909 -0.21311
 H54 H -0.22542 0.10976 -0.18043
 H55 H -0.23882 0.18916 -0.11912
 H56 H -0.19946 0.23063 -0.11912
 H57 H -0.11672 0.22470 -0.18040
 C58 C 0.17424 0.85299 -0.17596
 C59 C 0.16383 0.86763 -0.20364
 C60 C 0.13546 0.85799 -0.21871
 C61 C 0.11780 0.83340 -0.20555
 C62 C 0.12815 0.81832 -0.17824
 C63 C 0.15642 0.82815 -0.16331
 C64 C 0.20186 0.86323 -0.16039
 C65 C 0.21188 0.84891 -0.13233
 C66 C 0.19405 0.82411 -0.12003
 C67 C 0.16655 0.81347 -0.13540
 C68 C 0.14881 0.78861 -0.12311
 C69 C 0.12091 0.77834 -0.13832
 C70 C 0.11051 0.79364 -0.16555
 H71 H 0.17753 0.88702 -0.21252
 H72 H 0.09586 0.82577 -0.21672
 H73 H 0.21485 0.88293 -0.16970
 H74 H 0.20163 0.81310 -0.09837
 H75 H 0.15645 0.77774 -0.10144
 H76 H 0.08878 0.78603 -0.17708
 C77 C 0.14954 1.18858 0.82437
 C78 C 0.13512 1.17445 0.79845
 C79 C 0.15209 1.15258 0.77988
 C80 C 0.18393 1.14446 0.78827
 C81 C 0.19849 1.15814 0.81446
 C82 C 0.18134 1.18049 0.83240
 C83 C 0.13257 1.21078 0.84228
 C84 C 0.14697 1.22561 0.86799
 C85 C 0.17878 1.21705 0.87608
 C86 C 0.19590 1.19459 0.85851
 C87 C 0.22729 1.18576 0.86690
 C88 C 0.24421 1.16283 0.84980
 C89 C 0.22986 1.14954 0.82319
 H90 H 0.11057 1.18084 0.79251
 H91 H 0.19744 1.12705 0.77525
 H92 H 0.10809 1.21688 0.83580
 H93 H 0.19041 1.22709 0.89623
 H94 H 0.23837 1.19625 0.88724
 H95 H 0.24303 1.13263 0.80912
 C96 C 0.85202 0.80165 0.79583
 C97 C 0.86512 0.81795 0.77024
 C98 C 0.84776 0.84260 0.75597
 C99 C 0.81711 0.85059 0.76797
 C100 C 0.80400 0.83483 0.79375
 C101 C 0.82134 0.81008 0.80756
 C102 C 0.86906 0.77688 0.80976
 C103 C 0.85571 0.75994 0.83491
 C104 C 0.82510 0.76897 0.84662
 C105 C 0.80797 0.79379 0.83313
 C106 C 0.77770 0.80273 0.84508
 C107 C 0.76074 0.82793 0.83205
 C108 C 0.77380 0.84359 0.80602
 H109 H 0.88842 0.81063 0.76134
 H110 H 0.80344 0.86947 0.75740
 H111 H 0.89266 0.77045 0.80061
 H112 H 0.81455 0.75761 0.86677
 H113 H 0.76752 0.79044 0.86498
 H114 H 0.76045 0.86244 0.79511
 C115 C 0.11351 0.83030 1.16805
 C116 C 0.10115 0.84542 1.19474
 C117 C 0.11747 0.87043 1.20827
 C118 C 0.14632 0.88080 1.19444
 C119 C 0.15880 0.86618 1.16735
 C120 C 0.14236 0.84072 1.15423
 C121 C 0.09745 0.80487 1.15504
 C122 C 0.10998 0.78912 1.12859
 C123 C 0.13841 0.80033 1.11440
 C124 C 0.15451 0.82593 1.12703
 C125 C 0.18251 0.83708 1.11265
 C126 C 0.19900 0.86242 1.12532
 C127 C 0.18712 0.87685 1.15283
 H128 H 0.07885 0.83750 1.20527
 H129 H 0.15866 0.90062 1.20421
 H130 H 0.07538 0.79690 1.16602
 H131 H 0.14804 0.78989 1.09319
 H132 H 0.19163 0.82595 1.09147
 H133 H 0.19925 0.89686 1.16246
 C134 C 0.86063 1.17412 1.17782
 C135 C 0.87346 1.16276 1.20587
 C136 C 0.86192 1.13246 1.22085
 C137 C 0.83517 1.11766 1.20272
 C138 C 0.82290 1.13051 1.17516
 C139 C 0.83567 1.15816 1.16255
 C140 C 0.87308 1.20138 1.16439
 C141 C 0.86112 1.21276 1.13579
 C142 C 0.83646 1.19679 1.12071
 C143 C 0.82348 1.16985 1.13391
 C144 C 0.79854 1.15438 1.11868
 C145 C 0.78517 1.12753 1.13172
 C146 C 0.79777 1.11546 1.15970
 H147 H 0.89272 1.17524 1.21714
 H148 H 0.82529 1.09616 1.21173
 H149 H 0.89275 1.21312 1.17579
 H150 H 0.82729 1.20548 1.09857
 H151 H 0.78915 1.16347 1.09679
 H152 H 0.78840 1.09400 1.16928
 O153 O 0.45152 1.04314 1.05503
 O154 O 0.41805 1.01318 1.02530
 C155 C 0.42326 1.03512 1.04548
 O156 O 0.54767 1.04317 0.94914
 O157 O 0.58147 1.01409 0.98015
 C158 C 0.57610 1.03523 0.95911
 O159 O 0.45676 1.04445 0.94694
 O160 O 0.42062 1.01331 0.97278
 C161 C 0.42765 1.03544 0.95339
 O162 O 0.54085 1.03890 1.06374
 O163 O 0.57800 1.01182 1.03421
 C164 C 0.57018 1.03098 1.05653
 Zr165 Zr 0.49732 1.02462 1.04291
 O166 O 0.50072 1.07369 1.04535
 O167 O 0.49021 1.02235 1.09213
 Zr168 Zr 0.50167 1.02697 0.96365
 O169 O 0.50400 1.07617 0.96521
 O170 O 0.50127 1.02771 0.91397
 O171 O 0.47075 1.03179 1.00211
 O172 O 0.52726 1.03152 1.00481
 O173 O 0.54297 0.93054 1.05958
 O174 O 0.57952 0.96001 1.03232
 C175 C 0.57215 0.93909 1.05303
 O176 O 0.45927 0.93077 0.94376
 O177 O 0.42188 0.95951 0.97150
 C178 C 0.42984 0.93851 0.95089
 O179 O 0.54951 0.93495 0.94498
 O180 O 0.58266 0.96215 0.97775
 C181 C 0.57777 0.94316 0.95470
 O182 O 0.45276 0.92850 1.05388
 O183 O 0.41866 0.95894 1.02456
 C184 C 0.42424 0.93720 1.04498
 Zr185 Zr 0.49845 0.94597 1.04062
 O186 O 0.50233 0.89682 1.03867
 O187 O 0.49261 0.94460 1.09001
 Zr188 Zr 0.50301 0.94830 0.96150
 O189 O 0.50769 0.89918 0.96076
 O190 O 0.50208 0.94931 0.91184
 Zr191 Zr 0.45214 0.98632 0.99999
 Zr192 Zr 0.54793 0.98655 1.00438
 O193 O 0.52880 0.94148 1.00213
 O194 O 0.47204 0.94096 0.99955
 O195 O 0.52621 0.98514 1.04922
 O196 O 0.47473 0.98766 0.95561
 O197 O 0.46959 0.98520 1.04622
 O198 O 0.53136 0.98793 0.95774
 H199 H 0.54132 1.04993 1.00631
 H200 H 0.46134 0.98797 0.93646
 H201 H 0.54377 0.92336 1.00208
 H202 H 0.45400 0.98505 1.06393
 H203 H 0.52095 1.01676 0.90647
 H204 H 0.51920 0.96354 0.90476
 H205 H 0.48911 0.89064 0.97241
 H206 H 0.48421 0.88920 1.02597
 H207 H 0.51028 0.95670 1.09931
 H208 H 0.50810 1.00982 1.10091
 H209 H 0.48569 1.08246 1.02972
 H210 H 0.48459 1.08385 0.97649
 O211 O 0.04757 0.53795 -0.05486
 O212 O 0.01533 0.57305 -0.02843
 C213 C 0.03736 0.56605 -0.04903
 O214 O -0.06289 0.44495 -0.04445
 O215 O -0.03004 0.41511 -0.01316
 C216 C -0.05288 0.41831 -0.03346
 O217 O -0.06499 0.53183 -0.05602
 O218 O -0.03836 0.56998 -0.02923
 C219 C -0.05833 0.56075 -0.05046
 O220 O 0.05646 0.45179 -0.04400
 O221 O 0.02652 0.41839 -0.01396
 C222 C 0.04953 0.42423 -0.03377
 Zr223 Zr 0.03386 0.49509 -0.03425
 O224 O 0.03221 0.48698 -0.08325
 O225 O 0.08430 0.50071 -0.03691
 Zr226 Zr -0.04706 0.49085 -0.03436
 O227 O -0.04502 0.48268 -0.08336
 O228 O -0.09797 0.49189 -0.03549
 O229 O -0.00825 0.52022 -0.04282
 O230 O -0.00475 0.46534 -0.03758
 O231 O 0.05320 0.46029 0.06383
 O232 O 0.02508 0.42252 0.03806
 C233 C 0.04654 0.43140 0.05795
 O234 O -0.06629 0.54260 0.05859
 O235 O -0.03889 0.57534 0.02555
 C236 C -0.05940 0.57009 0.04796
 O237 O -0.06383 0.45524 0.06396
 O238 O -0.03052 0.42034 0.03855
 C239 C -0.05337 0.42718 0.05832
 O240 O 0.04579 0.54734 0.05846
 O241 O 0.01472 0.57749 0.02584
 C242 C 0.03585 0.57403 0.04783
 Zr243 Zr 0.03280 0.50176 0.04494
 O244 O 0.03164 0.50278 0.09463
 O245 O 0.08336 0.50739 0.04481
 Zr246 Zr -0.04841 0.49815 0.04464
 O247 O -0.04956 0.49922 0.09430
 O248 O -0.09935 0.49910 0.04327
 Zr249 Zr -0.01001 0.54269 0.00123
 Zr250 Zr -0.00428 0.45036 0.00939
 O251 O -0.00626 0.47358 0.05288
 O252 O -0.00954 0.52815 0.04849
 O253 O 0.04140 0.47121 0.00779
 O254 O -0.05527 0.52120 0.00270
 O255 O 0.03759 0.52552 0.00304
 O256 O -0.05232 0.46660 0.00768
 H257 H -0.00356 0.44936 -0.05436
 H258 H -0.07493 0.53439 0.00143
 H259 H -0.00562 0.46129 0.07254
 H260 H 0.05576 0.54022 0.00189
 H261 H -0.10569 0.47681 -0.01969
 H262 H -0.10638 0.47931 0.03377
 H263 H -0.03629 0.51695 0.10104
 H264 H 0.01839 0.52098 0.10109
 H265 H 0.09308 0.48888 0.03448
 H266 H 0.09358 0.48983 -0.01861
 H267 H 0.02183 0.50534 -0.09308
 H268 H -0.03356 0.50034 -0.09306
 O269 O 1.06717 -0.04755 0.45757
 O270 O 1.03522 -0.01837 0.42491
 C271 C 1.05694 -0.03963 0.42993
 O272 O 0.95846 -0.04454 0.55398
 O273 O 0.99126 -0.01549 0.58543
 C274 C 0.96912 -0.03604 0.58126
 O275 O 0.95487 -0.04852 0.46562
 O276 O 0.98175 -0.01959 0.42872
 C277 C 0.96157 -0.04100 0.43677
 O278 O 1.07594 -0.04282 0.54548
 O279 O 1.04637 -0.01451 0.58144
 C280 C 1.06889 -0.03436 0.57403
 Zr281 Zr 1.05418 -0.02957 0.50243
 O282 O 1.05484 -0.07867 0.50691
 O283 O 1.10465 -0.02983 0.49531
 Zr284 Zr 0.97289 -0.03024 0.50833
 O285 O 0.97425 -0.07935 0.51247
 O286 O 0.92195 -0.03038 0.50880
 O287 O 1.01179 -0.03664 0.47761
 O288 O 1.01555 -0.03502 0.53263
 O289 O 1.07365 0.06443 0.54344
 O290 O 1.04538 0.03696 0.58051
 C291 C 1.06716 0.05680 0.57229
 O292 O 0.95398 0.06654 0.46395
 O293 O 0.97986 0.03481 0.42838
 C294 C 0.96026 0.05741 0.43553
 O295 O 0.95635 0.06489 0.55143
 O296 O 0.98966 0.03743 0.58421
 C297 C 0.96683 0.05756 0.57904
 O298 O 1.06320 0.06649 0.45524
 O299 O 1.03245 0.03538 0.42379
 C300 C 1.05244 0.05785 0.42802
 Zr301 Zr 1.05270 0.04903 0.50089
 O302 O 1.05296 0.09822 0.50388
 O303 O 1.10309 0.04856 0.49307
 Zr304 Zr 0.97132 0.04839 0.50688
 O305 O 0.96865 0.09753 0.50964
 O306 O 0.92044 0.04584 0.50672
 Zr307 Zr 1.00960 0.00843 0.45817
 Zr308 Zr 1.01592 0.01042 0.55120
 O309 O 1.01379 0.05503 0.53086
 O310 O 1.00998 0.05423 0.47607
 O311 O 1.06156 0.01034 0.52913
 O312 O 0.96440 0.00853 0.48075
 O313 O 1.05743 0.00928 0.47401
 O314 O 0.96773 0.00962 0.53611
 H315 H 1.01707 -0.05302 0.54708
 H316 H 0.94475 0.00826 0.46773
 H317 H 1.01454 0.07365 0.54455
 H318 H 1.07518 0.00941 0.45836
 H319 H 0.91467 -0.01738 0.52672
 H320 H 0.91358 0.03640 0.52682
 H321 H 0.98419 0.10577 0.49415
 H322 H 1.03798 0.10633 0.48785
 H323 H 1.11315 0.03759 0.51095
 H324 H 1.11393 -0.01558 0.51097
 H325 H 1.04141 -0.08718 0.48994
 H326 H 0.98623 -0.08763 0.49408
 C327 C 1.14578 0.14550 0.26575
 C328 C 1.11937 0.15696 0.28291
 C329 C 1.11101 0.14383 0.31390
 C330 C 1.07863 0.13856 0.32138
 C331 C 1.07028 0.12384 0.34946
 C332 C 1.09423 0.11468 0.37081
 C333 C 1.12646 0.12158 0.36417
 C334 C 1.13487 0.13577 0.33578
 C335 C 1.08598 0.09761 0.39978
 C336 C 1.06241 0.07483 0.39976
 H337 H 1.10208 0.17259 0.27227
 H338 H 1.05985 0.14496 0.30502
 H339 H 1.04512 0.11957 0.35444
 H340 H 1.14520 0.11512 0.38054
 H341 H 1.15998 0.14033 0.33090
 H342 H 1.10003 0.10151 0.42070
 H343 H 1.15969 0.12680 0.27634
 H344 H 1.05062 0.06905 0.37796
 C345 C 0.89523 -0.12466 0.25340
 C346 C 0.88235 -0.10354 0.27533
 C347 C 0.90105 -0.09208 0.30234
 C348 C 0.88490 -0.08455 0.33042
 C349 C 0.90179 -0.07306 0.35614
 C350 C 0.93519 -0.06844 0.35407
 C351 C 0.95125 -0.07545 0.32580
 C352 C 0.93443 -0.08735 0.30021
 C353 C 0.95348 -0.05458 0.38017
 C354 C 0.94443 -0.05738 0.41168
 H355 H 0.85718 -0.09700 0.27459
 H356 H 0.85913 -0.08759 0.33245
 H357 H 0.88849 -0.06702 0.37725
 H358 H 0.97688 -0.07162 0.32348
 H359 H 0.94744 -0.09206 0.27859
 H360 H 0.97534 -0.04227 0.37432
 H361 H 0.91910 -0.13398 0.25793
 H362 H 0.92445 -0.07203 0.41823
 C363 C 0.87775 0.12245 0.76011
 C364 C 0.89818 0.13630 0.73814
 C365 C 0.91481 0.11846 0.71297
 C366 C 0.92203 0.13354 0.68464
 C367 C 0.93667 0.11726 0.65990
 C368 C 0.94469 0.08553 0.66313
 C369 C 0.93886 0.07078 0.69194
 C370 C 0.92385 0.08701 0.71663
 C371 C 0.95936 0.06762 0.63691
 C372 C 0.95205 0.07420 0.60570
 H373 H 0.89969 0.16143 0.73735
 H374 H 0.91584 0.15790 0.68146
 H375 H 0.94191 0.12964 0.63839
 H376 H 0.94541 0.04651 0.69515
 H377 H 0.91964 0.07496 0.73854
 H378 H 0.97481 0.04789 0.64233
 H379 H 0.87323 0.09773 0.75836
 H380 H 0.93442 0.09215 0.60041
 C381 C 1.12331 -0.12753 0.75415
 C382 C 1.13955 -0.10551 0.73593
 C383 C 1.12384 -0.08998 0.70904
 C384 C 1.14212 -0.08204 0.68246
 C385 C 1.12749 -0.06766 0.65668
 C386 C 1.09437 -0.06053 0.65738
 C387 C 1.07640 -0.06753 0.68440
 C388 C 1.09089 -0.08225 0.70992
 C389 C 1.07793 -0.04505 0.63094
 C390 C 1.08749 -0.04859 0.59964
 H391 H 1.16474 -0.10091 0.73969
 H392 H 1.16767 -0.08730 0.68151
 H393 H 1.14221 -0.06170 0.63655
 H394 H 1.05095 -0.06182 0.68566
 H395 H 1.07638 -0.08713 0.73050
 H396 H 1.05595 -0.03219 0.63620
 H397 H 1.09974 -0.13452 0.74619
 H398 H 1.10787 -0.06338 0.59362
 C399 C 0.24269 1.11327 1.12684
 C400 C 0.25873 1.12037 1.09880
 C401 C 0.28492 1.10033 1.08635
 C402 C 0.31192 1.11424 1.07262
 C403 C 0.33774 1.09595 1.06195
 C404 C 0.33666 1.06334 1.06427
 C405 C 0.30901 1.04932 1.07661
 C406 C 0.28343 1.06768 1.08791
 C407 C 0.36396 1.04376 1.05351
 C408 C 0.39567 1.05289 1.05795
 H409 H 0.25520 1.14267 1.08755
 H410 H 0.31332 1.13935 1.07078
 H411 H 0.35842 1.10731 1.05166
 H412 H 0.30753 1.02420 1.07810
 H413 H 0.26244 1.05636 1.09762
 H414 H 0.35906 1.02120 1.04332
 H415 H 0.25050 1.09252 1.13923
 H416 H 0.40052 1.07394 1.07103
 C417 C 0.23980 0.86027 0.88560
 C418 C 0.26548 0.87609 0.87186
 C419 C 0.29265 0.88839 0.89023
 C420 C 0.32251 0.89253 0.87533
 C421 C 0.34849 0.90474 0.89177
 C422 C 0.34500 0.91330 0.92350
 C423 C 0.31496 0.90973 0.93824
 C424 C 0.28905 0.89729 0.92186
 C425 C 0.37158 0.92739 0.94136
 C426 C 0.40405 0.92273 0.93383
 H427 H 0.26671 0.87816 0.84656
 H428 H 0.32573 0.88632 0.85084
 H429 H 0.37095 0.90811 0.87929
 H430 H 0.31151 0.91665 0.96251
 H431 H 0.26610 0.89541 0.93384
 H432 H 0.36529 0.94135 0.96175
 H433 H 0.24080 0.85461 0.91034
 H434 H 0.41097 0.90688 0.91515
 C435 C 0.76012 0.87958 1.14327
 C436 C 0.73909 0.86744 1.12092
 C437 C 0.71074 0.88496 1.10921
 C438 C 0.68390 0.86845 1.09880
 C439 C 0.65726 0.88416 1.08637
 C440 C 0.65712 0.91679 1.08372
 C441 C 0.68414 0.93331 1.09370
 C442 C 0.71064 0.91761 1.10653
 C443 C 0.63002 0.93390 1.06903
 C444 C 0.59842 0.92320 1.06983
 H445 H 0.74190 0.84369 1.11291
 H446 H 0.68362 0.84327 1.10016
 H447 H 0.63726 0.87061 1.07801
 H448 H 0.68480 0.95842 1.09143
 H449 H 0.73133 0.93098 1.11346
 H450 H 0.63501 0.95605 1.05795
 H451 H 0.75346 0.90161 1.15404
 H452 H 0.59254 0.90278 1.08349
 C453 C 0.73504 1.13362 0.86159
 C454 C 0.71617 1.14298 0.88732
 C455 C 0.68666 1.12600 0.89615
 C456 C 0.67980 1.12065 0.92795
 C457 C 0.65283 1.10346 0.93679
 C458 C 0.63181 1.09188 0.91395
 C459 C 0.63788 1.09840 0.88222
 C460 C 0.66526 1.11502 0.87333
 C461 C 0.60328 1.07350 0.92292
 C462 C 0.60445 1.05199 0.94738
 H463 H 0.72458 1.16053 0.90339
 H464 H 0.69571 1.12926 0.94593
 H465 H 0.64824 1.09953 0.96152
 H466 H 0.62174 1.09009 0.86429
 H467 H 0.66955 1.11951 0.84865
 H468 H 0.58155 1.07593 0.90921
 H469 H 0.72734 1.11305 0.84905
 H470 H 0.62719 1.04755 0.95892
 C471 C 0.12928 0.24692 0.12474
 C472 C 0.11609 0.27337 0.13920
 C473 C 0.10181 0.29947 0.12116
 C474 C 0.10092 0.32937 0.13445
 C475 C 0.08751 0.35450 0.11803
 C476 C 0.07450 0.35007 0.08798
 C477 C 0.07482 0.32003 0.07501
 C478 C 0.08831 0.29499 0.09135
 C479 C 0.05898 0.37558 0.07008
 C480 C 0.06412 0.40721 0.07555
 H481 H 0.11815 0.27607 0.16436
 H482 H 0.11069 0.33332 0.15760
 H483 H 0.08682 0.37706 0.12928
 H484 H 0.06447 0.31589 0.05213
 H485 H 0.08748 0.27211 0.08079
 H486 H 0.04311 0.36898 0.05118
 H487 H 0.13086 0.24617 0.09937
 H488 H 0.08131 0.41459 0.09290
 C489 C -0.14505 0.26187 -0.13814
 C490 C -0.15004 0.27392 -0.10802
 C491 C -0.13582 0.30374 -0.09783
 C492 C -0.12699 0.30750 -0.06635
 C493 C -0.11249 0.33497 -0.05630
 C494 C -0.10691 0.35945 -0.07753
 C495 C -0.11695 0.35618 -0.10871
 C496 C -0.13107 0.32854 -0.11886
 C497 C -0.09130 0.38871 -0.06768
 C498 C -0.06837 0.38948 -0.04394
 H499 H -0.16198 0.25976 -0.09053
 H500 H -0.13087 0.28893 -0.04960
 H501 H -0.10606 0.33711 -0.03183
 H502 H -0.11344 0.37490 -0.12537
 H503 H -0.13853 0.32679 -0.14308
 H504 H -0.09667 0.40982 -0.08061
 H505 H -0.12955 0.27436 -0.15422
 H506 H -0.06091 0.36798 -0.03277
 C507 C 0.10166 0.75222 -0.12600
 C508 C 0.11516 0.72762 -0.10902
 C509 C 0.09625 0.70084 -0.09767
 C510 C 0.11215 0.67238 -0.09236
 C511 C 0.09525 0.64665 -0.08126
 C512 C 0.06202 0.64897 -0.07502
 C513 C 0.04622 0.67760 -0.07972
 C514 C 0.06309 0.70329 -0.09105
 C515 C 0.04377 0.62263 -0.06178
 C516 C 0.05296 0.59156 -0.06612
 H517 H 0.14098 0.72675 -0.10582
 H518 H 0.13777 0.67005 -0.09680
 H519 H 0.10849 0.62530 -0.07681
 H520 H 0.02076 0.68011 -0.07450
 H521 H 0.05023 0.72514 -0.09389
 H522 H 0.02227 0.62797 -0.04816
 H523 H 0.07663 0.75115 -0.13274
 H524 H 0.07278 0.58568 -0.08174
 C525 C -0.11065 0.75907 0.12751
 C526 C -0.12829 0.73588 0.11270
 C527 C -0.11285 0.70837 0.09770
 C528 C -0.12969 0.68028 0.09643
 C529 C -0.11562 0.65379 0.08271
 C530 C -0.08445 0.65503 0.06965
 C531 C -0.06811 0.68344 0.06995
 C532 C -0.08201 0.70982 0.08400
 C533 C -0.06862 0.62758 0.05486
 C534 C -0.07625 0.59688 0.06244
 H535 H -0.15431 0.73658 0.11421
 H536 H -0.15370 0.67874 0.10636
 H537 H -0.12944 0.63262 0.08195
 H538 H -0.04441 0.68520 0.05941
 H539 H -0.06879 0.73138 0.08363
 H540 H -0.04899 0.63177 0.03857
 H541 H -0.08483 0.75617 0.12955
 H542 H -0.09418 0.59214 0.08029
 C543 C 1.13616 0.13942 0.75407
 C544 C 1.15060 0.12042 0.73112
 C545 C 1.13199 0.10694 0.70504
 C546 C 1.14724 0.10160 0.67601
 C547 C 1.13023 0.08896 0.65093
 C548 C 1.09764 0.08110 0.65459
 C549 C 1.08269 0.08560 0.68390
 C550 C 1.09960 0.09851 0.70886
 C551 C 1.07897 0.06705 0.62890
 C552 C 1.08595 0.07170 0.59715
 H553 H 1.17639 0.11702 0.73044
 H554 H 1.17234 0.10742 0.67268
 H555 H 1.14284 0.08484 0.62899
 H556 H 1.05777 0.07921 0.68745
 H557 H 1.08741 0.10132 0.73124
 H558 H 1.05807 0.05352 0.63532
 H559 H 1.11096 0.14539 0.75106
 H560 H 1.10520 0.08704 0.59019
 C561 C 0.85936 -0.14063 0.72989
 C562 C 0.89057 -0.14290 0.71746
 C563 C 0.90073 -0.12484 0.68960
 C564 C 0.93275 -0.11514 0.68712
 C565 C 0.94306 -0.09802 0.66111
 C566 C 0.92154 -0.09061 0.63683
 C567 C 0.88977 -0.10115 0.63884
 C568 C 0.87934 -0.11793 0.66506
 C569 C 0.93198 -0.07317 0.60868
 C570 C 0.95646 -0.05126 0.60960
 H571 H 0.90902 -0.15608 0.72948
 H572 H 0.94978 -0.12064 0.70548
 H573 H 0.96803 -0.09122 0.65979
 H574 H 0.87294 -0.09622 0.62014
 H575 H 0.85475 -0.12596 0.66577
 H576 H 0.91948 -0.07715 0.58684
 H577 H 0.84320 -0.12380 0.71921
 H578 H 0.96718 -0.04524 0.63184
 C579 C 1.10295 -0.11430 0.23619
 C580 C 1.12090 -0.09966 0.25938
 C581 C 1.10575 -0.08637 0.28805
 C582 C 1.12334 -0.08558 0.31600
 C583 C 1.10941 -0.07371 0.34358
 C584 C 1.07761 -0.06209 0.34359
 C585 C 1.06040 -0.06203 0.31539
 C586 C 1.07422 -0.07412 0.28791
 C587 C 1.06213 -0.04854 0.37196
 C588 C 1.07175 -0.05530 0.40259
 H589 H 1.14692 -0.10031 0.25787
 H590 H 1.14784 -0.09443 0.31656
 H591 H 1.12385 -0.07316 0.36458
 H592 H 1.03612 -0.05262 0.31462
 H593 H 1.06034 -0.07335 0.26654
 H594 H 1.04171 -0.03303 0.36852
 H595 H 1.07733 -0.11707 0.23989
 H596 H 1.09064 -0.07228 0.40681
 C597 C 0.87533 0.11627 0.25171
 C598 C 0.89744 0.12965 0.27171
 C599 C 0.90943 0.11250 0.29930
 C600 C 0.92245 0.12899 0.32454
 C601 C 0.93379 0.11314 0.35095
 C602 C 0.93275 0.08046 0.35224
 C603 C 0.92045 0.06395 0.32672
 C604 C 0.90854 0.07980 0.30061
 C605 C 0.94584 0.06298 0.37909
 C606 C 0.94460 0.07425 0.40976
 H607 H 0.90520 0.15336 0.26784
 H608 H 0.92368 0.15416 0.32387
 H609 H 0.94404 0.12640 0.36996
 H610 H 0.91988 0.03874 0.32708
 H611 H 0.89911 0.06640 0.28127
 H612 H 0.95577 0.03994 0.37464
 H613 H 0.86990 0.12608 0.23625
 H614 H 0.93197 0.09585 0.41500
 C615 C 0.12881 0.24831 -0.11555
 C616 C 0.14079 0.26803 -0.09231
 C617 C 0.12067 0.29267 -0.07752
 C618 C 0.13510 0.32061 -0.06850
 C619 C 0.11655 0.34488 -0.05576
 C620 C 0.08318 0.34150 -0.05148
 C621 C 0.06899 0.31302 -0.05904
 C622 C 0.08750 0.28884 -0.07215
 C623 C 0.06283 0.36722 -0.03910
 C624 C 0.06960 0.39831 -0.04551
 H625 H 0.16613 0.26804 -0.08688
 H626 H 0.16070 0.32388 -0.07191
 H627 H 0.12840 0.36618 -0.04913
 H628 H 0.04343 0.30971 -0.05540
 H629 H 0.07585 0.26718 -0.07788
 H630 H 0.04092 0.36149 -0.02653
 H631 H 0.10402 0.25194 -0.12253
 H632 H 0.08992 0.40400 -0.06041
 C633 C -0.12515 0.24028 0.12011
 C634 C -0.11031 0.26449 0.13609
 C635 C -0.09691 0.29157 0.11933
 C636 C -0.09673 0.32074 0.13414
 C637 C -0.08479 0.34681 0.11843
 C638 C -0.07247 0.34395 0.08770
 C639 C -0.07169 0.31457 0.07336
 C640 C -0.08386 0.28864 0.08892
 C641 C -0.05910 0.37063 0.07033
 C642 C -0.06800 0.40156 0.07605
 H643 H -0.11052 0.26478 0.16150
 H644 H -0.10617 0.32341 0.15778
 H645 H -0.08474 0.36891 0.13060
 H646 H -0.06177 0.31170 0.04993
 H647 H -0.08260 0.26626 0.07725
 H648 H -0.04244 0.36549 0.05128
 H649 H -0.12862 0.24238 0.09502
 H650 H -0.08621 0.40721 0.09349
 C651 C -0.12637 0.73501 -0.15222
 C652 C -0.13891 0.71312 -0.13117
 C653 C -0.11945 0.68791 -0.11680
 C654 C -0.13508 0.66090 -0.10669
 C655 C -0.11802 0.63711 -0.09167
 C656 C -0.08487 0.63995 -0.08622
 C657 C -0.06923 0.66713 -0.09593
 C658 C -0.08629 0.69088 -0.11126
 C659 C -0.06656 0.61568 -0.06910
 C660 C -0.07526 0.58438 -0.06923
 H661 H -0.16446 0.71265 -0.12639
 H662 H -0.16070 0.65827 -0.11024
 H663 H -0.13110 0.61697 -0.08360
 H664 H -0.04379 0.67003 -0.09155
 H665 H -0.07366 0.71178 -0.11791
 H666 H -0.04510 0.62256 -0.05669
 H667 H -0.10173 0.73173 -0.16015
 H668 H -0.09474 0.57670 -0.08396
 C669 C 0.09354 0.76289 0.11741
 C670 C 0.10591 0.74190 0.09513
 C671 C 0.08825 0.71396 0.08516
 C672 C 0.10582 0.68718 0.07663
 C673 C 0.09002 0.66030 0.06713
 C674 C 0.05626 0.65987 0.06557
 C675 C 0.03868 0.68693 0.07320
 C676 C 0.05448 0.71373 0.08316
 C677 C 0.03917 0.63190 0.05486
 C678 C 0.05066 0.60193 0.06107
 H679 H 0.13043 0.74378 0.08684
 H680 H 0.13187 0.68698 0.07754
 H681 H 0.10430 0.64011 0.06042
 H682 H 0.01269 0.68722 0.07170
 H683 H 0.04031 0.73433 0.08871
 H684 H 0.01662 0.63497 0.04258
 H685 H 0.07054 0.75749 0.12814
 H686 H 0.07139 0.59873 0.07603
 C687 C 0.27662 1.15309 0.86059
 C688 C 0.28918 1.12321 0.85537
 C689 C 0.31922 1.11158 0.86993
 C690 C 0.32269 1.07949 0.87510
 C691 C 0.34993 1.06753 0.88999
 C692 C 0.37450 1.08745 0.89988
 C693 C 0.37184 1.11938 0.89339
 C694 C 0.34434 1.13145 0.87871
 C695 C 0.40290 1.07518 0.91682
 C696 C 0.40024 1.05006 0.93734
 H697 H 0.27472 1.10643 0.84302
 H698 H 0.30395 1.06364 0.86809
 H699 H 0.35178 1.04263 0.89357
 H700 H 0.39076 1.13508 0.90026
 H701 H 0.34295 1.15619 0.87414
 H702 H 0.42572 1.08690 0.91426
 H703 H 0.28928 1.16875 0.87599
 H704 H 0.37673 1.04037 0.94198
 C705 C 0.22760 0.87389 1.10818
 C706 C 0.25291 0.88942 1.12245
 C707 C 0.28146 0.89977 1.10444
 C708 C 0.31137 0.90118 1.11937
 C709 C 0.33878 0.91060 1.10282
 C710 C 0.33667 0.91914 1.07101
 C711 C 0.30659 0.91853 1.05633
 C712 C 0.27926 0.90884 1.07279
 C713 C 0.36485 0.93050 1.05312
 C714 C 0.39655 0.92228 1.06033
 H715 H 0.25306 0.89195 1.14773
 H716 H 0.31356 0.89479 1.14386
 H717 H 0.36135 0.91182 1.11522
 H718 H 0.30424 0.92554 1.03203
 H719 H 0.25636 0.90905 1.06085
 H720 H 0.36036 0.94579 1.03336
 H721 H 0.22978 0.86787 1.08356
 H722 H 0.40135 0.90527 1.07847
 C723 C 0.75861 1.11214 1.11522
 C724 C 0.73500 1.09525 1.13099
 C725 C 0.70801 1.08049 1.11457
 C726 C 0.67887 1.07616 1.13073
 C727 C 0.65272 1.06270 1.11568
 C728 C 0.65545 1.05307 1.08422
 C729 C 0.68495 1.05638 1.06845
 C730 C 0.71099 1.07006 1.08340
 C731 C 0.62845 1.03886 1.06736
 C732 C 0.59620 1.04484 1.07477
 H733 H 0.73488 1.09474 1.15640
 H734 H 0.67625 1.08351 1.15495
 H735 H 0.63067 1.05948 1.12888
 H736 H 0.68776 1.04861 1.04437
 H737 H 0.73348 1.07202 1.07063
 H738 H 0.63428 1.02451 1.04712
 H739 H 0.75626 1.11627 1.09027
 H740 H 0.58976 1.06068 1.09361
 C741 C 0.72946 0.83727 0.84611
 C742 C 0.71839 0.86807 0.84614
 C743 C 0.68885 0.87818 0.86298
 C744 C 0.68692 0.90872 0.87452
 C745 C 0.65978 0.91893 0.89124
 C746 C 0.63384 0.89880 0.89649
 C747 C 0.63520 0.86863 0.88390
 C748 C 0.66255 0.85828 0.86744
 C749 C 0.60492 0.90910 0.91421
 C750 C 0.60648 0.93090 0.93840
 H751 H 0.73349 0.88597 0.83618
 H752 H 0.70666 0.92462 0.87092
 H753 H 0.65900 0.94272 0.89961
 H754 H 0.61522 0.85294 0.88713
 H755 H 0.66286 0.83490 0.85796
 H756 H 0.58209 0.89847 0.90881
 H757 H 0.71647 0.82003 0.85955
 H758 H 0.62963 0.93957 0.94567
   
