data_POSCAR
  _audit_creation_date              2014-09-24
  _audit_creation_method            'ToBaCCo'
  _symmetry_space_group_name_H-M    'P1'
  _symmetry_Int_Tables_number       1
  _symmetry_cell_setting            triclinic
  loop_
  _symmetry_equiv_pos_as_xyz
 x,y,z
_cell_length_a 36.4616
_cell_length_b 35.6949
_cell_length_c 52.2142
_cell_angle_alpha 89.879400
_cell_angle_beta 90.193600
_cell_angle_gamma 119.535300
loop_
  _atom_site_label
  _atom_site_type_symbol
  _atom_site_fract_x
  _atom_site_fract_y
  _atom_site_fract_z
C1 C 0.01840 0.52444 1.27401
 C2 C -0.02580 0.51004 1.27382
 C3 C -0.04653 0.50333 1.25000
 C4 C -0.02596 0.50777 1.22646
 C5 C 0.01775 0.52118 1.22689
 C6 C 0.03877 0.52834 1.25046
 H7 H 0.07262 0.54121 1.25014
 H8 H -0.08043 0.48997 1.24982
 C9 C 0.49129 0.51173 1.27557
 C10 C 0.51617 0.49102 1.27571
 C11 C 0.52897 0.48160 1.25243
 C12 C 0.51701 0.49110 1.22888
 C13 C 0.49066 0.50970 1.22847
 C14 C 0.47831 0.51984 1.25168
 H15 H 0.45948 0.53566 1.25087
 H16 H 0.54810 0.46605 1.25264
 C17 C 0.47906 0.97410 1.27239
 C18 C 0.50278 1.02019 1.27273
 C19 C 0.51324 1.04244 1.24915
 C20 C 0.49970 1.02098 1.22566
 C21 C 0.47515 0.97571 1.22539
 C22 C 0.46509 0.95304 1.24858
 H23 H 0.44766 0.91817 1.24778
 H24 H 0.53052 1.07733 1.24889
 C25 C 0.98050 0.48819 0.72835
 C26 C 1.02487 0.50728 0.72885
 C27 C 1.04604 0.51778 0.75247
 C28 C 1.02417 0.50975 0.77587
 C29 C 0.97932 0.48857 0.77519
 C30 C 0.95839 0.47871 0.75150
 H31 H 0.92424 0.46286 0.75107
 H32 H 1.08018 0.53387 0.75239
 C33 C 0.49728 0.51921 0.77210
 C34 C 0.52021 0.49676 0.77253
 C35 C 0.53423 0.48834 0.74941
 C36 C 0.52503 0.50063 0.72575
 C37 C 0.50073 0.52169 0.72523
 C38 C 0.48725 0.53069 0.74844
 H39 H 0.46993 0.54815 0.74810
 H40 H 0.55160 0.47092 0.74978
 C41 C 0.51186 0.01630 0.72640
 C42 C 0.48184 -0.02841 0.72706
 C43 C 0.46999 -0.04888 0.75116
 C44 C 0.48858 -0.02723 0.77425
 C45 C 0.51902 0.01730 0.77309
 C46 C 0.53018 0.03806 0.74928
 H47 H 0.55187 0.07247 0.74869
 H48 H 0.44897 -0.08336 0.75177
 O49 O 0.39211 0.65058 0.97726
 O50 O 0.38609 0.71910 0.96904
 C51 C 0.36486 0.73779 0.96480
 O52 O 0.33424 0.73234 0.97892
 O53 O 0.26635 0.65799 0.97321
 C54 C 0.24861 0.61791 0.96879
 O55 O 0.25569 0.59220 0.98211
 O56 O 0.32703 0.59539 0.97253
 C57 C 0.36523 0.61669 0.96570
 O58 O 0.39507 0.66578 1.02815
 O59 O 0.39261 0.73639 1.01982
 C60 C 0.36677 0.74144 1.03376
 O61 O 0.32724 0.72064 1.03019
 O62 O 0.25668 0.64842 1.02449
 C63 C 0.25350 0.61712 1.03785
 O64 O 0.27392 0.59789 1.03280
 O65 O 0.34380 0.59781 1.02326
 C66 C 0.37665 0.62646 1.03459
 Cr67 Cr 0.38920 0.69174 0.99867
 Cr68 Cr 0.29732 0.68873 1.00169
 Cr69 Cr 0.30118 0.59815 1.00262
 O70 O 0.32926 0.65950 1.00103
 O71 O 0.60813 0.33506 0.97067
 O72 O 0.60578 0.26151 0.97687
 C73 C 0.63214 0.25657 0.96351
 O74 O 0.67121 0.27573 0.96858
 O75 O 0.74185 0.34588 0.97771
 C76 C 0.74713 0.37957 0.96607
 O77 O 0.72820 0.39988 0.97240
 O78 O 0.65855 0.40104 0.98123
 C79 C 0.62808 0.37540 0.96700
 O80 O 0.60465 0.34329 1.02196
 O81 O 0.60678 0.27179 1.02795
 C82 C 0.62701 0.25195 1.03230
 O83 O 0.65928 0.25849 1.01945
 O84 O 0.72860 0.33021 1.02862
 C85 C 0.74741 0.36968 1.03476
 O86 O 0.74137 0.39744 1.02304
 O87 O 0.66972 0.39440 1.03193
 C88 C 0.63043 0.37393 1.03619
 Cr89 Cr 0.60861 0.30410 0.99940
 Cr90 Cr 0.69909 0.30374 0.99865
 Cr91 Cr 0.69833 0.39586 1.00208
 O92 O 0.66874 0.33452 1.00009
 O93 O 0.67342 0.39131 0.53169
 O94 O 0.74468 0.39241 0.52454
 C95 C 0.74962 0.36397 0.53636
 O96 O 0.73059 0.32461 0.53001
 O97 O 0.66133 0.25352 0.51997
 C98 C 0.62966 0.24807 0.53303
 O99 O 0.60988 0.26824 0.52840
 O100 O 0.60840 0.33982 0.52186
 C101 C 0.63403 0.37137 0.53561
 O102 O 0.66446 0.39734 0.48070
 O103 O 0.73398 0.39522 0.47337
 C104 C 0.75274 0.37450 0.46768
 O105 O 0.74636 0.34068 0.47955
 O106 O 0.67547 0.27175 0.46950
 C107 C 0.63661 0.25285 0.46397
 O108 O 0.60980 0.25755 0.47707
 O109 O 0.61282 0.33146 0.47076
 C110 C 0.63339 0.37172 0.46681
 Cr111 Cr 0.70300 0.39173 0.50251
 Cr112 Cr 0.70228 0.29883 0.49980
 Cr113 Cr 0.61249 0.30038 0.49957
 O114 O 0.67264 0.33037 0.50066
 O115 O 0.33522 0.59731 0.52116
 O116 O 0.26759 0.60239 0.53010
 C117 C 0.24946 0.62401 0.53507
 O118 O 0.25481 0.65604 0.52161
 O119 O 0.32731 0.72542 0.52864
 C120 C 0.36664 0.74391 0.53294
 O121 O 0.39182 0.73710 0.51947
 O122 O 0.38863 0.66359 0.52780
 C123 C 0.36804 0.62391 0.53341
 O124 O 0.32093 0.59789 0.47037
 O125 O 0.25142 0.59921 0.47921
 C126 C 0.24700 0.62654 0.46577
 O127 O 0.26691 0.66657 0.47046
 O128 O 0.33717 0.73807 0.47755
 C129 C 0.36745 0.74169 0.46380
 O130 O 0.38694 0.72128 0.46850
 O131 O 0.38731 0.64955 0.47680
 C132 C 0.35964 0.61709 0.46450
 Cr133 Cr 0.29496 0.60151 0.50019
 Cr134 Cr 0.29761 0.69529 0.49957
 Cr135 Cr 0.38643 0.69181 0.49820
 O136 O 0.32636 0.66285 0.49935
 C137 C 0.50895 0.54363 0.31881
 C138 C 0.49790 0.55728 0.34108
 C139 C 0.45795 0.55349 0.34356
 C140 C 0.42951 0.53669 0.32292
 C141 C 0.44047 0.52291 0.30067
 C142 C 0.48018 0.52548 0.29832
 C143 C 0.44788 0.56902 0.36744
 C144 C 0.40837 0.55595 0.37527
 C145 C 0.39773 0.57176 0.39883
 C146 C 0.35657 0.54831 0.40844
 C147 C 0.34438 0.56265 0.42994
 C148 C 0.37313 0.60097 0.44236
 C149 C 0.41443 0.62445 0.43284
 C150 C 0.42658 0.61019 0.41124
 H151 H 0.54074 0.54891 0.31738
 H152 H 0.52084 0.57112 0.35641
 H153 H 0.39892 0.53459 0.32360
 H154 H 0.41707 0.50900 0.28561
 H155 H 0.47422 0.59062 0.37931
 H156 H 0.38219 0.53139 0.36448
 H157 H 0.33360 0.51880 0.39919
 H158 H 0.31228 0.54381 0.43671
 H159 H 0.43720 0.65438 0.44176
 H160 H 0.45820 0.63007 0.40410
 C161 C 0.50352 0.95885 0.31318
 C162 C 0.49583 0.93351 0.33511
 C163 C 0.45628 0.89711 0.33908
 C164 C 0.42502 0.88542 0.32015
 C165 C 0.43273 0.91050 0.29816
 C166 C 0.47178 0.94827 0.29455
 C167 C 0.44878 0.87142 0.36277
 C168 C 0.41059 0.84959 0.37359
 C169 C 0.40193 0.82371 0.39729
 C170 C 0.36655 0.81557 0.41189
 C171 C 0.35594 0.78974 0.43375
 C172 C 0.38025 0.77094 0.44137
 C173 C 0.41578 0.77910 0.42675
 C174 C 0.42655 0.80522 0.40494
 H175 H 0.53468 0.98634 0.31061
 H176 H 0.52074 0.94263 0.34915
 H177 H 0.39461 0.85670 0.32214
 H178 H 0.40734 0.90106 0.28443
 H179 H 0.47585 0.87265 0.37217
 H180 H 0.38458 0.85218 0.36542
 H181 H 0.34688 0.82913 0.40631
 H182 H 0.32820 0.78392 0.44442
 H183 H 0.43499 0.76486 0.43198
 H184 H 0.45338 0.80978 0.39378
 C185 C 0.03684 0.56440 0.31482
 C186 C 0.06162 0.57900 0.33694
 C187 C 0.09385 0.56917 0.34145
 C188 C 0.10182 0.54560 0.32289
 C189 C 0.07724 0.53121 0.30066
 C190 C 0.04368 0.53953 0.29647
 C191 C 0.11949 0.58540 0.36513
 C192 C 0.13901 0.56599 0.37619
 C193 C 0.16500 0.58211 0.39977
 C194 C 0.17168 0.55323 0.41467
 C195 C 0.19745 0.56739 0.43641
 C196 C 0.21754 0.61099 0.44364
 C197 C 0.21077 0.63993 0.42876
 C198 C 0.18488 0.62572 0.40705
 H199 H 0.01288 0.57352 0.31184
 H200 H 0.05545 0.59795 0.35064
 H201 H 0.12735 0.53864 0.32526
 H202 H 0.08374 0.51224 0.28716
 H203 H 0.12040 0.61299 0.37433
 H204 H 0.13456 0.53599 0.36831
 H205 H 0.15705 0.51956 0.40938
 H206 H 0.20218 0.54425 0.44730
 H207 H 0.22607 0.67380 0.43361
 H208 H 0.18162 0.64928 0.39569
 C209 C 0.49327 0.44681 0.31588
 C210 C 0.50241 0.43089 0.33802
 C211 C 0.54419 0.44244 0.34416
 C212 C 0.57667 0.46963 0.32737
 C213 C 0.56750 0.48551 0.30524
 C214 C 0.52580 0.47453 0.29943
 C215 C 0.55244 0.42400 0.36748
 C216 C 0.58965 0.44261 0.37973
 C217 C 0.59869 0.42371 0.40255
 C218 C 0.63215 0.45081 0.41870
 C219 C 0.64299 0.43410 0.43980
 C220 C 0.62073 0.38973 0.44511
 C221 C 0.58717 0.36255 0.42895
 C222 C 0.57634 0.37927 0.40785
 H223 H 0.46079 0.43735 0.31148
 H224 H 0.47678 0.40953 0.35042
 H225 H 0.60908 0.47804 0.33090
 H226 H 0.59298 0.50648 0.29263
 H227 H 0.52632 0.39497 0.37519
 H228 H 0.61439 0.47379 0.37343
 H229 H 0.65012 0.48507 0.41492
 H230 H 0.66914 0.45595 0.45176
 H231 H 0.56964 0.32815 0.43232
 H232 H 0.55125 0.35705 0.39544
 C233 C 0.48432 0.03298 0.31605
 C234 C 0.49488 0.05748 0.33848
 C235 C 0.53435 0.09461 0.34111
 C236 C 0.56260 0.10762 0.32042
 C237 C 0.55216 0.08314 0.29804
 C238 C 0.51315 0.04489 0.29559
 C239 C 0.54447 0.11961 0.36528
 C240 C 0.58414 0.14547 0.37332
 C241 C 0.59557 0.17128 0.39722
 C242 C 0.63701 0.18872 0.40638
 C243 C 0.65011 0.21469 0.42817
 C244 C 0.62203 0.22398 0.44139
 C245 C 0.58042 0.20642 0.43234
 C246 C 0.56733 0.18052 0.41042
 H247 H 0.45310 0.00521 0.31456
 H248 H 0.47212 0.04729 0.35388
 H249 H 0.59270 0.13695 0.32121
 H250 H 0.57544 0.09364 0.28293
 H251 H 0.51826 0.11477 0.37716
 H252 H 0.60997 0.14695 0.36237
 H253 H 0.65953 0.18241 0.39654
 H254 H 0.68242 0.22770 0.43456
 H255 H 0.55813 0.21334 0.44192
 H256 H 0.53546 0.16884 0.40370
 C257 C 0.91522 0.50598 0.29887
 C258 C 0.89031 0.49366 0.32088
 C259 C 0.89804 0.47235 0.34099
 C260 C 0.93180 0.46401 0.33869
 C261 C 0.95663 0.47613 0.31661
 C262 C 0.94918 0.49786 0.29640
 C263 C 0.87054 0.46023 0.36397
 C264 C 0.86783 0.43157 0.38164
 C265 C 0.83904 0.41855 0.40401
 C266 C 0.82839 0.37952 0.41634
 C267 C 0.80085 0.36548 0.43718
 C268 C 0.78336 0.39028 0.44627
 C269 C 0.79473 0.42984 0.43432
 C270 C 0.82244 0.44399 0.41354
 H271 H 0.90861 0.52323 0.28412
 H272 H 0.86478 0.50087 0.32217
 H273 H 0.93961 0.44843 0.35381
 H274 H 0.98117 0.46752 0.31522
 H275 H 0.85020 0.47420 0.36550
 H276 H 0.88548 0.41484 0.37910
 H277 H 0.84099 0.35947 0.40959
 H278 H 0.79283 0.33486 0.44594
 H279 H 0.78223 0.44999 0.44102
 H280 H 0.83096 0.47502 0.40530
 C281 C 0.55630 0.51447 1.18737
 C282 C 0.57172 0.50547 1.16511
 C283 C 0.56394 0.46354 1.16012
 C284 C 0.54112 0.43086 1.17816
 C285 C 0.52582 0.43991 1.20042
 C286 C 0.53302 0.48168 1.20511
 C287 C 0.58146 0.45538 1.13658
 C288 C 0.56434 0.41670 1.12524
 C289 C 0.58197 0.40782 1.10199
 C290 C 0.55522 0.37272 1.08654
 C291 C 0.57080 0.36214 1.06498
 C292 C 0.61372 0.38623 1.05853
 C293 C 0.64059 0.42135 1.07406
 C294 C 0.62494 0.43203 1.09559
 H295 H 0.56278 0.54707 1.19086
 H296 H 0.58966 0.53129 1.15170
 H297 H 0.53574 0.39850 1.17545
 H298 H 0.50826 0.41428 1.21401
 H299 H 0.60818 0.48266 1.12784
 H300 H 0.53516 0.39057 1.13260
 H301 H 0.52210 0.35332 1.09119
 H302 H 0.54925 0.33471 1.05356
 H303 H 0.67388 0.44036 1.06977
 H304 H 0.64684 0.45849 1.10746
 C305 C 0.91701 0.50630 1.20039
 C306 C 0.89226 0.49429 1.17823
 C307 C 0.89885 0.47138 1.15871
 C308 C 0.93161 0.46165 1.16152
 C309 C 0.95661 0.47389 1.18363
 C310 C 0.94985 0.49655 1.20350
 C311 C 0.87141 0.45903 1.13568
 C312 C 0.86354 0.42534 1.12069
 C313 C 0.83443 0.41211 1.09841
 C314 C 0.81455 0.36900 1.09036
 C315 C 0.78642 0.35516 1.06968
 C316 C 0.77788 0.38432 1.05637
 C317 C 0.79854 0.42771 1.06409
 C318 C 0.82656 0.44149 1.08479
 H319 H 0.91106 0.52442 1.21481
 H320 H 0.86755 0.50265 1.17644
 H321 H 0.93825 0.44476 1.14667
 H322 H 0.98012 0.46394 1.18550
 H323 H 0.85502 0.47685 1.13203
 H324 H 0.87662 0.40489 1.12576
 H325 H 0.82037 0.34579 1.10035
 H326 H 0.77124 0.32155 1.06420
 H327 H 0.79304 0.45115 1.05415
 H328 H 0.84234 0.47528 1.08980
 C329 C 0.50087 0.07990 1.19918
 C330 C 0.51198 0.10514 1.17707
 C331 C 0.53386 0.09837 1.15716
 C332 C 0.54377 0.06501 1.15973
 C333 C 0.53280 0.03989 1.18198
 C334 C 0.51117 0.04708 1.20185
 C335 C 0.54501 0.12657 1.13422
 C336 C 0.57334 0.13045 1.11653
 C337 C 0.58552 0.16061 1.09448
 C338 C 0.62416 0.17327 1.08229
 C339 C 0.63745 0.20249 1.06191
 C340 C 0.61228 0.21968 1.05321
 C341 C 0.57313 0.20622 1.06498
 C342 C 0.55971 0.17679 1.08523
 H343 H 0.48400 0.08586 1.21422
 H344 H 0.50364 0.13030 1.17560
 H345 H 0.55958 0.05776 1.14470
 H346 H 0.54128 0.01487 1.18371
 H347 H 0.53063 0.14672 1.13282
 H348 H 0.59039 0.11304 1.11887
 H349 H 0.64448 0.16102 1.08882
 H350 H 0.66776 0.21210 1.05324
 H351 H 0.55268 0.21834 1.05850
 H352 H 0.52896 0.16668 1.09329
 C353 C 0.45348 0.48571 1.18615
 C354 C 0.43880 0.49425 1.16334
 C355 C 0.44545 0.53574 1.15809
 C356 C 0.46642 0.56841 1.17647
 C357 C 0.48124 0.55987 1.19920
 C358 C 0.47516 0.51857 1.20416
 C359 C 0.42855 0.54320 1.13388
 C360 C 0.44335 0.58230 1.12329
 C361 C 0.42608 0.59115 1.09968
 C362 C 0.44927 0.63181 1.08821
 C363 C 0.43358 0.64294 1.06684
 C364 C 0.39419 0.61358 1.05634
 C365 C 0.37111 0.57261 1.06754
 C366 C 0.38670 0.56154 1.08906
 H367 H 0.44769 0.45337 1.18983
 H368 H 0.42222 0.46837 1.14973
 H369 H 0.47080 0.60038 1.17373
 H370 H 0.49754 0.58558 1.21295
 H371 H 0.40411 0.51512 1.12429
 H372 H 0.47023 0.60956 1.13195
 H373 H 0.47954 0.65536 1.09599
 H374 H 0.45223 0.67478 1.05870
 H375 H 0.34044 0.54942 1.06008
 H376 H 0.36713 0.53026 1.09754
 C377 C 0.04367 0.56522 1.18673
 C378 C 0.06949 0.57883 1.16510
 C379 C 0.09623 0.56203 1.15960
 C380 C 0.09703 0.53162 1.17651
 C381 C 0.07121 0.51805 1.19817
 C382 C 0.04411 0.53450 1.20338
 C383 C 0.12400 0.57853 1.13681
 C384 C 0.14040 0.55678 1.12498
 C385 C 0.16902 0.57336 1.10252
 C386 C 0.19349 0.55414 1.09654
 C387 C 0.22088 0.56835 1.07563
 C388 C 0.22432 0.60208 1.06003
 C389 C 0.19953 0.62109 1.06581
 C390 C 0.17206 0.60683 1.08673
 H391 H 0.02363 0.57899 1.19065
 H392 H 0.06862 0.60266 1.15261
 H393 H 0.11820 0.51897 1.17355
 H394 H 0.07243 0.49476 1.21097
 H395 H 0.13067 0.60970 1.12967
 H396 H 0.13325 0.52545 1.13214
 H397 H 0.19164 0.52814 1.10822
 H398 H 0.23942 0.55287 1.07175
 H399 H 0.20111 0.64689 1.05406
 H400 H 0.15294 0.62176 1.09004
 C401 C 0.43404 0.95799 1.18429
 C402 C 0.41956 0.93400 1.16171
 C403 C 0.43090 0.90275 1.15565
 C404 C 0.45642 0.89536 1.17291
 C405 C 0.47080 0.91928 1.19545
 C406 C 0.45994 0.95091 1.20126
 C407 C 0.41392 0.87696 1.13196
 C408 C 0.43301 0.85811 1.11992
 C409 C 0.41535 0.83016 1.09708
 C410 C 0.44260 0.82321 1.08141
 C411 C 0.42700 0.79512 1.06056
 C412 C 0.38361 0.77297 1.05504
 C413 C 0.35629 0.78010 1.07066
 C414 C 0.37192 0.80827 1.09149
 H415 H 0.42482 0.98184 1.18863
 H416 H 0.39948 0.93989 1.14893
 H417 H 0.46460 0.87053 1.16942
 H418 H 0.49046 0.91311 1.20843
 H419 H 0.38550 0.87471 1.12394
 H420 H 0.46356 0.86404 1.12660
 H421 H 0.47611 0.83934 1.08542
 H422 H 0.44893 0.79026 1.04902
 H423 H 0.32265 0.76332 1.06709
 H424 H 0.34966 0.81166 1.10353
 C425 C 0.58365 0.50287 0.70000
 C426 C 0.59873 0.49186 0.67840
 C427 C 0.57130 0.46762 0.65851
 C428 C 0.52827 0.45547 0.66049
 C429 C 0.51315 0.46634 0.68222
 C430 C 0.54074 0.49013 0.70216
 C431 C 0.58926 0.45628 0.63626
 C432 C 0.56625 0.42556 0.61906
 C433 C 0.58473 0.41301 0.59761
 C434 C 0.55925 0.37371 0.58509
 C435 C 0.57514 0.36022 0.56496
 C436 C 0.61705 0.38577 0.55683
 C437 C 0.64249 0.42533 0.56912
 C438 C 0.62650 0.43901 0.58911
 H439 H 0.60553 0.52136 0.71511
 H440 H 0.63201 0.50199 0.67738
 H441 H 0.50608 0.43783 0.64540
 H442 H 0.47984 0.45587 0.68357
 H443 H 0.62325 0.47267 0.63508
 H444 H 0.53245 0.40692 0.62132
 H445 H 0.52691 0.35314 0.59104
 H446 H 0.55465 0.32957 0.55590
 H447 H 0.67475 0.44606 0.56309
 H448 H 0.64701 0.47019 0.59744
 C449 C 0.48848 0.04189 0.68815
 C450 C 0.49743 0.06675 0.66593
 C451 C 0.53925 0.09289 0.65790
 C452 C 0.57211 0.09445 0.67296
 C453 C 0.56312 0.06954 0.69515
 C454 C 0.52124 0.04271 0.70278
 C455 C 0.54739 0.11930 0.63443
 C456 C 0.58273 0.13386 0.62054
 C457 C 0.59204 0.16144 0.59748
 C458 C 0.62371 0.16511 0.58077
 C459 C 0.63529 0.19247 0.55955
 C460 C 0.61552 0.21702 0.55458
 C461 C 0.58350 0.21309 0.57116
 C462 C 0.57200 0.18580 0.59244
 H463 H 0.45597 0.02202 0.69397
 H464 H 0.47159 0.06545 0.65492
 H465 H 0.60480 0.11538 0.66802
 H466 H 0.58886 0.07102 0.70634
 H467 H 0.52252 0.12532 0.62803
 H468 H 0.60570 0.12429 0.62573
 H469 H 0.63989 0.14699 0.58427
 H470 H 0.66017 0.19478 0.54725
 H471 H 0.56794 0.23190 0.56807
 H472 H 0.54835 0.18505 0.60518
 C473 C 0.96582 0.51011 0.68549
 C474 C 0.94223 0.50051 0.66290
 C475 C 0.90856 0.45885 0.65845
 C476 C 0.89856 0.42705 0.67736
 C477 C 0.92233 0.43661 0.69984
 C478 C 0.95625 0.47811 0.70406
 C479 C 0.88359 0.45035 0.63453
 C480 C 0.85966 0.41072 0.62484
 C481 C 0.83312 0.40094 0.60151
 C482 C 0.81638 0.35970 0.59077
 C483 C 0.78968 0.34792 0.56953
 C484 C 0.77901 0.37718 0.55842
 C485 C 0.79590 0.41861 0.56900
 C486 C 0.82247 0.43035 0.59040
 H487 H 0.99130 0.54261 0.68861
 H488 H 0.95024 0.52576 0.64887
 H489 H 0.87193 0.39500 0.67528
 H490 H 0.91413 0.41157 0.71404
 H491 H 0.88637 0.47804 0.62437
 H492 H 0.86003 0.38370 0.63400
 H493 H 0.82376 0.33629 0.59897
 H494 H 0.77727 0.31573 0.56187
 H495 H 0.78795 0.44176 0.56104
 H496 H 0.83358 0.46206 0.59836
 C497 C 0.52119 0.56294 0.68380
 C498 C 0.51044 0.57673 0.66133
 C499 C 0.46812 0.56362 0.65562
 C500 C 0.43674 0.53686 0.67314
 C501 C 0.44752 0.52308 0.69556
 C502 C 0.48976 0.53578 0.70103
 C503 C 0.45814 0.58017 0.63202
 C504 C 0.42017 0.56044 0.62059
 C505 C 0.40910 0.57748 0.59763
 C506 C 0.37385 0.54917 0.58304
 C507 C 0.36090 0.56405 0.56200
 C508 C 0.38281 0.60781 0.55511
 C509 C 0.41821 0.63622 0.56968
 C510 C 0.43116 0.62131 0.59074
 H511 H 0.55406 0.57381 0.68788
 H512 H 0.53527 0.59780 0.64838
 H513 H 0.40395 0.52726 0.67001
 H514 H 0.42283 0.50252 0.70874
 H515 H 0.48354 0.60884 0.62348
 H516 H 0.39609 0.52963 0.62782
 H517 H 0.35604 0.51534 0.58803
 H518 H 0.33341 0.54127 0.55130
 H519 H 0.43560 0.67020 0.56508
 H520 H 0.45768 0.64451 0.60189
 C521 C 0.42295 0.91261 0.70370
 C522 C 0.40664 0.88720 0.68180
 C523 C 0.43191 0.89426 0.66015
 C524 C 0.47390 0.92806 0.66075
 C525 C 0.49031 0.95336 0.68268
 C526 C 0.46507 0.94645 0.70453
 C527 C 0.41303 0.86598 0.63748
 C528 C 0.43573 0.86137 0.61879
 C529 C 0.41695 0.83177 0.59666
 C530 C 0.44261 0.82003 0.58274
 C531 C 0.42644 0.79191 0.56194
 C532 C 0.38411 0.77488 0.55448
 C533 C 0.35854 0.78718 0.56809
 C534 C 0.37478 0.81550 0.58883
 H535 H 0.40195 0.90641 0.71974
 H536 H 0.37405 0.86169 0.68184
 H537 H 0.49442 0.93541 0.64440
 H538 H 0.52339 0.97736 0.68270
 H539 H 0.37905 0.84658 0.63712
 H540 H 0.46972 0.87805 0.62025
 H541 H 0.47527 0.83231 0.58816
 H542 H 0.44705 0.78315 0.55190
 H543 H 0.32591 0.77502 0.56267
 H544 H 0.35420 0.82476 0.59836
 C545 C 0.04193 0.48338 0.68762
 C546 C 0.06577 0.49225 0.66525
 C547 C 0.09793 0.53428 0.65986
 C548 C 0.10647 0.56720 0.67767
 C549 C 0.08268 0.55829 0.70004
 C550 C 0.05002 0.51642 0.70509
 C551 C 0.12293 0.54232 0.63613
 C552 C 0.14273 0.58086 0.62455
 C553 C 0.16859 0.58970 0.60112
 C554 C 0.17600 0.62517 0.58590
 C555 C 0.20163 0.63586 0.56424
 C556 C 0.22081 0.61148 0.55742
 C557 C 0.21341 0.57591 0.57266
 C558 C 0.18768 0.56517 0.59431
 H559 H 0.01728 0.45071 0.69137
 H560 H 0.05893 0.46624 0.65203
 H561 H 0.13195 0.59968 0.67469
 H562 H 0.08964 0.58414 0.71340
 H563 H 0.12335 0.51501 0.62747
 H564 H 0.13875 0.60697 0.63190
 H565 H 0.16200 0.64483 0.59083
 H566 H 0.20681 0.66361 0.55304
 H567 H 0.22800 0.55667 0.56810
 H568 H 0.18386 0.53840 0.60596
 C569 C 0.51584 0.55628 0.81476
 C570 C 0.50469 0.56930 0.83724
 C571 C 0.46288 0.55949 0.84147
 C572 C 0.43249 0.53696 0.82236
 C573 C 0.44366 0.52377 0.79991
 C574 C 0.48534 0.53297 0.79601
 C575 C 0.45289 0.57478 0.86551
 C576 C 0.41378 0.55837 0.87502
 C577 C 0.40337 0.57376 0.89889
 C578 C 0.36366 0.54792 0.91000
 C579 C 0.35156 0.56151 0.93187
 C580 C 0.37895 0.60143 0.94323
 C581 C 0.41883 0.62730 0.93225
 C582 C 0.43086 0.61380 0.91025
 H583 H 0.54841 0.56463 0.81192
 H584 H 0.52888 0.58712 0.85140
 H585 H 0.40024 0.53003 0.82432
 H586 H 0.41972 0.50625 0.78557
 H587 H 0.47930 0.59936 0.87609
 H588 H 0.38795 0.53133 0.86548
 H589 H 0.34171 0.51709 0.90162
 H590 H 0.32055 0.54079 0.93977
 H591 H 0.44047 0.65849 0.94031
 H592 H 0.46124 0.63547 0.90202
 C593 C 0.03548 0.54316 0.81849
 C594 C 0.05848 0.55717 0.84126
 C595 C 0.09397 0.55243 0.84529
 C596 C 0.10691 0.53458 0.82571
 C597 C 0.08412 0.52083 0.80284
 C598 C 0.04748 0.52408 0.79901
 C599 C 0.11791 0.56835 0.86951
 C600 C 0.14087 0.55204 0.87967
 C601 C 0.16617 0.56891 0.90338
 C602 C 0.17647 0.54195 0.91757
 C603 C 0.20223 0.55742 0.93926
 C604 C 0.21867 0.60046 0.94704
 C605 C 0.20811 0.62738 0.93290
 C606 C 0.18223 0.61186 0.91129
 H607 H 0.00907 0.54869 0.81586
 H608 H 0.04849 0.57183 0.85580
 H609 H 0.13498 0.53176 0.82780
 H610 H 0.09456 0.50629 0.78851
 H611 H 0.11496 0.59310 0.87971
 H612 H 0.14028 0.52436 0.87078
 H613 H 0.16480 0.50886 0.91174
 H614 H 0.21001 0.53590 0.94958
 H615 H 0.22051 0.66080 0.93821
 H616 H 0.17613 0.63404 0.90043
 C617 C 0.50857 0.95546 0.81598
 C618 C 0.49783 0.93085 0.83837
 C619 C 0.45607 0.89894 0.84295
 C620 C 0.42520 0.89161 0.82441
 C621 C 0.43590 0.91610 0.80197
 C622 C 0.47773 0.94883 0.79743
 C623 C 0.44652 0.87233 0.86643
 C624 C 0.40798 0.85087 0.87688
 C625 C 0.39841 0.82290 0.89975
 C626 C 0.36353 0.81468 0.91493
 C627 C 0.35281 0.78745 0.93622
 C628 C 0.37657 0.76747 0.94262
 C629 C 0.41129 0.77543 0.92726
 C630 C 0.42203 0.80270 0.90605
 H631 H 0.54149 0.97833 0.81277
 H632 H 0.52242 0.93648 0.85206
 H633 H 0.39288 0.86639 0.82681
 H634 H 0.41101 0.90991 0.78841
 H635 H 0.47272 0.87168 0.87580
 H636 H 0.38260 0.85486 0.86906
 H637 H 0.34453 0.82944 0.91033
 H638 H 0.32570 0.78181 0.94752
 H639 H 0.43004 0.76025 0.93146
 H640 H 0.44823 0.80695 0.89434
 C641 C 0.49517 0.45342 0.81295
 C642 C 0.50296 0.43724 0.83546
 C643 C 0.54420 0.44760 0.84221
 C644 C 0.57753 0.47394 0.82566
 C645 C 0.56969 0.49002 0.80312
 C646 C 0.52850 0.48014 0.79666
 C647 C 0.55101 0.42883 0.86590
 C648 C 0.58766 0.44695 0.87877
 C649 C 0.59537 0.42788 0.90203
 C650 C 0.62839 0.45477 0.91850
 C651 C 0.63834 0.43792 0.93990
 C652 C 0.61565 0.39356 0.94524
 C653 C 0.58235 0.36659 0.92884
 C654 C 0.57236 0.38349 0.90744
 H655 H 0.46305 0.44477 0.80809
 H656 H 0.47669 0.41659 0.84768
 H657 H 0.60956 0.48145 0.82970
 H658 H 0.59579 0.51024 0.79069
 H659 H 0.52427 0.40006 0.87338
 H660 H 0.61299 0.47790 0.87260
 H661 H 0.64683 0.48899 0.91469
 H662 H 0.66433 0.45963 0.95201
 H663 H 0.56449 0.33222 0.93223
 H664 H 0.54750 0.36143 0.89484
 C665 C 0.95944 0.44616 0.81611
 C666 C 0.93488 0.43119 0.83821
 C667 C 0.90329 0.44180 0.84320
 C668 C 0.89604 0.46691 0.82518
 C669 C 0.92078 0.48207 0.80316
 C670 C 0.95299 0.47225 0.79858
 C671 C 0.87781 0.42490 0.86684
 C672 C 0.85618 0.44233 0.87741
 C673 C 0.82983 0.42566 0.90079
 C674 C 0.81471 0.45106 0.91208
 C675 C 0.78840 0.43640 0.93345
 C676 C 0.77659 0.39587 0.94414
 C677 C 0.79194 0.37048 0.93305
 C678 C 0.81804 0.38501 0.91153
 H679 H 0.98356 0.43745 0.81268
 H680 H 0.94073 0.41139 0.85152
 H681 H 0.87098 0.47446 0.82767
 H682 H 0.91495 0.50171 0.78973
 H683 H 0.87856 0.39822 0.87615
 H684 H 0.85849 0.47115 0.86903
 H685 H 0.82302 0.48236 0.90421
 H686 H 0.77712 0.45679 0.94150
 H687 H 0.78301 0.33887 0.94065
 H688 H 0.82787 0.36370 0.90324
 C689 C 0.57986 0.07041 0.79961
 C690 C 0.59610 0.09653 0.82125
 C691 C 0.56901 0.09805 0.83975
 C692 C 0.52514 0.07197 0.83644
 C693 C 0.50893 0.04581 0.81480
 C694 C 0.53615 0.04468 0.79626
 C695 C 0.58769 0.12638 0.86238
 C696 C 0.56744 0.14268 0.87577
 C697 C 0.58544 0.17141 0.89835
 C698 C 0.55779 0.17712 0.91440
 C699 C 0.57291 0.20440 0.93560
 C700 C 0.61625 0.22693 0.94127
 C701 C 0.64408 0.22143 0.92518
 C702 C 0.62893 0.19410 0.90391
 H703 H 0.60139 0.06995 0.78554
 H704 H 0.62996 0.11599 0.82343
 H705 H 0.50318 0.07108 0.85062
 H706 H 0.47510 0.02633 0.81253
 H707 H 0.61949 0.13451 0.86755
 H708 H 0.53584 0.13472 0.87013
 H709 H 0.52422 0.16033 0.91053
 H710 H 0.55053 0.20794 0.94749
 H711 H 0.67770 0.23863 0.92884
 H712 H 0.65162 0.19178 0.89174
   
