data_POSCAR
  _audit_creation_date              2014-09-24
  _audit_creation_method            'ToBaCCo'
  _symmetry_space_group_name_H-M    'P1'
  _symmetry_Int_Tables_number       1
  _symmetry_cell_setting            triclinic
  loop_
  _symmetry_equiv_pos_as_xyz
 x,y,z
_cell_length_a 50.7585
_cell_length_b 50.8320
_cell_length_c 50.8027
_cell_angle_alpha 89.967400
_cell_angle_beta 90.000800
_cell_angle_gamma 89.918700
loop_
  _atom_site_label
  _atom_site_type_symbol
  _atom_site_fract_x
  _atom_site_fract_y
  _atom_site_fract_z
C1 C 0.16903 0.17037 0.20021
 N2 N 0.19083 0.15912 0.18956
 C3 C 0.20169 0.16938 0.16741
 N4 N 0.19072 0.19084 0.15588
 C5 C 0.16893 0.20209 0.16653
 N6 N 0.15807 0.19184 0.18867
 C7 C -0.16532 0.83285 0.20319
 N8 N -0.18734 0.84374 0.19264
 C9 C -0.19866 0.83279 0.17108
 N10 N -0.18792 0.81096 0.16004
 C11 C -0.16590 0.80006 0.17059
 N12 N -0.15458 0.81102 0.19215
 C13 C -0.17034 0.16568 -0.20096
 N14 N -0.19196 0.15421 -0.19025
 C15 C -0.20331 0.16474 -0.16848
 N16 N -0.19301 0.18672 -0.15739
 C17 C -0.17139 0.19820 -0.16809
 N18 N -0.16004 0.18767 -0.18986
 C19 C 0.16987 0.83218 -0.20060
 N20 N 0.15831 0.81037 -0.19043
 C21 C 0.16842 0.79886 -0.16853
 N22 N 0.19007 0.80920 -0.15677
 C23 C 0.20163 0.83101 -0.16694
 N24 N 0.19151 0.84252 -0.18884
 C25 C 0.17024 1.16901 0.80008
 N26 N 0.15902 1.19074 0.81085
 C27 C 0.16937 1.20148 0.83300
 N28 N 0.19089 1.19045 0.84442
 C29 C 0.20210 1.16873 0.83366
 N30 N 0.19175 1.15799 0.81151
 C31 C 0.83265 0.83366 0.79651
 N32 N 0.84359 0.81162 0.80696
 C33 C 0.83275 0.80030 0.82858
 N34 N 0.81097 0.81104 0.83979
 C35 C 0.80003 0.83307 0.82935
 N36 N 0.81088 0.84438 0.80773
 C37 C 0.16584 0.83010 1.20159
 N38 N 0.15434 0.80854 1.19086
 C39 C 0.16496 0.79715 1.16915
 N40 N 0.18706 0.80736 1.15814
 C41 C 0.19857 0.82892 1.16887
 N42 N 0.18794 0.84030 1.19057
 C43 C 0.83367 1.16928 1.20093
 N44 N 0.84364 1.19104 1.18910
 C45 C 0.83186 1.20098 1.16726
 N46 N 0.81013 1.18912 1.15723
 C47 C 0.80016 1.16736 1.16906
 N48 N 0.81194 1.15743 1.19089
 O49 O 0.46314 1.04525 1.04860
 O50 O 0.43421 1.01956 1.02518
 C51 C 0.43956 1.03805 1.04186
 O52 O 0.53691 1.04237 0.95468
 O53 O 0.56597 1.01870 0.98007
 C54 C 0.56053 1.03548 0.96166
 O55 O 0.46289 1.04504 0.95758
 O56 O 0.43410 1.01955 0.98140
 C57 C 0.43935 1.03789 0.96450
 O58 O 0.53719 1.04268 1.05112
 O59 O 0.56608 1.01875 1.02582
 C60 C 0.56076 1.03570 1.04408
 Zr61 Zr 0.50015 1.03011 1.03643
 O62 O 0.50253 1.07167 1.03640
 O63 O 0.49725 1.02976 1.07800
 Zr64 Zr 0.49995 1.03021 0.96995
 O65 O 0.50123 1.07167 0.97271
 O66 O 0.49717 1.03157 0.92840
 O67 O 0.47654 1.03517 1.00322
 O68 O 0.52301 1.03496 1.00309
 O69 O 0.53747 0.95126 1.05128
 O70 O 0.56623 0.97510 1.02579
 C71 C 0.56100 0.95823 1.04416
 O72 O 0.46312 0.94874 0.95738
 O73 O 0.43424 0.97395 0.98141
 C74 C 0.43956 0.95576 0.96439
 O75 O 0.53717 0.95132 0.95480
 O76 O 0.56608 0.97514 0.98011
 C77 C 0.56074 0.95830 0.96176
 O78 O 0.46339 0.94855 1.04895
 O79 O 0.43435 0.97386 1.02516
 C80 C 0.43978 0.95555 1.04205
 Zr81 Zr 0.50033 0.96354 1.03647
 O82 O 0.50348 0.92201 1.03637
 O83 O 0.49741 0.96366 1.07804
 Zr84 Zr 0.50014 0.96356 0.96986
 O85 O 0.50326 0.92202 0.97020
 O86 O 0.49704 0.96350 0.92830
 Zr87 Zr 0.46100 0.99677 1.00325
 Zr88 Zr 0.53928 0.99689 1.00304
 O89 O 0.52313 0.95878 1.00309
 O90 O 0.47677 0.95837 1.00322
 O91 O 0.52372 0.99686 1.04153
 O92 O 0.47720 0.99687 0.96513
 O93 O 0.47736 0.99680 1.04131
 O94 O 0.52344 0.99691 0.96467
 H95 H 0.53497 1.05035 1.00302
 H96 H 0.46528 0.99691 0.94969
 H97 H 0.53516 0.94342 1.00306
 H98 H 0.46540 0.99682 1.05672
 H99 H 0.51029 1.01902 0.92136
 H100 H 0.51165 0.97432 0.92133
 H101 H 0.48827 0.91512 0.98054
 H102 H 0.48884 0.91510 1.02555
 H103 H 0.51209 0.97445 1.08488
 H104 H 0.51229 1.01943 1.08484
 H105 H 0.49048 1.07809 1.02249
 H106 H 0.50114 1.07831 0.95437
 O107 O -0.05192 0.46288 0.04262
 O108 O -0.02635 0.43389 0.01907
 C109 C -0.04479 0.43930 0.03584
 O110 O -0.04896 0.53678 -0.05122
 O111 O -0.02510 0.56556 -0.02580
 C112 C -0.04196 0.56029 -0.04419
 O113 O -0.05196 0.46284 -0.04836
 O114 O -0.02646 0.43388 -0.02468
 C115 C -0.04489 0.43927 -0.04147
 O116 O -0.04902 0.53680 0.04531
 O117 O -0.02502 0.56556 0.01997
 C118 C -0.04193 0.56031 0.03832
 Zr119 Zr -0.03669 0.49977 0.03043
 O120 O -0.07830 0.50245 0.03038
 O121 O -0.03641 0.49676 0.07200
 Zr122 Zr -0.03690 0.49974 -0.03604
 O123 O -0.07841 0.50131 -0.03320
 O124 O -0.03831 0.49705 -0.07759
 O125 O -0.04189 0.47631 -0.00280
 O126 O -0.04151 0.52273 -0.00284
 O127 O 0.04245 0.53646 0.04518
 O128 O 0.01864 0.56541 0.01981
 C129 C 0.03555 0.56002 0.03813
 O130 O 0.04467 0.46247 -0.04868
 O131 O 0.01927 0.43371 -0.02476
 C132 C 0.03760 0.43896 -0.04169
 O133 O 0.04237 0.53642 -0.05118
 O134 O 0.01858 0.56537 -0.02585
 C135 C 0.03549 0.55998 -0.04415
 O136 O 0.04489 0.46251 0.04270
 O137 O 0.01941 0.43373 0.01892
 C138 C 0.03779 0.43900 0.03577
 Zr139 Zr 0.02998 0.49951 0.03033
 O140 O 0.07159 0.50239 0.03020
 O141 O 0.02988 0.49648 0.07189
 Zr142 Zr 0.02982 0.49949 -0.03631
 O143 O 0.07143 0.50231 -0.03648
 O144 O 0.02937 0.49647 -0.07788
 Zr145 Zr -0.00349 0.46055 -0.00289
 Zr146 Zr -0.00331 0.53871 -0.00294
 O147 O 0.03478 0.52230 -0.00302
 O148 O 0.03502 0.47606 -0.00299
 O149 O -0.00329 0.52307 0.03551
 O150 O -0.00361 0.47679 -0.04098
 O151 O -0.00341 0.47679 0.03520
 O152 O -0.00349 0.52301 -0.04135
 H153 H -0.05687 0.53479 -0.00283
 H154 H -0.00371 0.46486 -0.05640
 H155 H 0.05023 0.53419 -0.00304
 H156 H -0.00343 0.46482 0.05060
 H157 H -0.02566 0.51004 -0.08462
 H158 H 0.01919 0.51158 -0.08476
 H159 H 0.07834 0.48777 -0.02553
 H160 H 0.07845 0.48774 0.01938
 H161 H 0.01923 0.51125 0.07880
 H162 H -0.02580 0.51155 0.07886
 H163 H -0.08479 0.49032 0.01660
 H164 H -0.08508 0.50132 -0.05153
 O165 O 1.05156 -0.04238 0.53665
 O166 O 1.02597 -0.01900 0.56573
 C167 C 1.04444 -0.03573 0.56025
 O168 O 1.04860 0.05199 0.46359
 O169 O 1.02504 0.02671 0.43452
 C170 C 1.04181 0.04507 0.43999
 O171 O 1.05122 0.04900 0.53707
 O172 O 1.02575 0.02534 0.56593
 C173 C 1.04411 0.04218 0.56061
 O174 O 1.04872 -0.04448 0.46282
 O175 O 1.02475 -0.01914 0.43394
 C176 C 1.04173 -0.03743 0.43927
 Zr177 Zr 1.03619 -0.02988 0.49993
 O178 O 1.07781 -0.02979 0.49743
 O179 O 1.03581 -0.07144 0.50274
 Zr180 Zr 1.03620 0.03644 0.50027
 O181 O 1.07771 0.03338 0.49899
 O182 O 1.03755 0.07795 0.50306
 O183 O 1.04121 0.00320 0.52368
 O184 O 1.04099 0.00342 0.47709
 O185 O 0.95698 -0.04475 0.46320
 O186 O 0.98068 -0.01934 0.43433
 C187 C 0.96382 -0.03766 0.43966
 O188 O 0.95474 0.04896 0.53729
 O189 O 0.98005 0.02505 0.56627
 C190 C 0.96175 0.04199 0.56088
 O191 O 0.95717 0.05166 0.46315
 O192 O 0.98102 0.02645 0.43410
 C193 C 0.96410 0.04473 0.43955
 O194 O 0.95455 -0.04260 0.53671
 O195 O 0.97984 -0.01903 0.56578
 C196 C 0.96155 -0.03588 0.56031
 Zr197 Zr 0.96963 -0.02978 0.50000
 O198 O 0.92802 -0.02947 0.49700
 O199 O 0.96986 -0.07133 0.50284
 Zr200 Zr 0.96958 0.03669 0.50017
 O201 O 0.92798 0.03672 0.49718
 O202 O 0.96971 0.07822 0.50328
 Zr203 Zr 1.00280 0.00325 0.53942
 Zr204 Zr 1.00288 0.00355 0.46082
 O205 O 0.96479 0.00354 0.47719
 O206 O 0.96439 0.00338 0.52359
 O207 O 1.00291 -0.03490 0.47644
 O208 O 1.00287 0.04131 0.52311
 O209 O 1.00292 -0.03471 0.52288
 O210 O 1.00291 0.04184 0.47678
 H211 H 1.05643 0.00349 0.46516
 H212 H 1.00290 0.05677 0.53497
 H213 H 0.94932 0.00360 0.46529
 H214 H 1.00296 -0.05020 0.53472
 H215 H 1.02468 0.08502 0.49026
 H216 H 0.97997 0.08520 0.48828
 H217 H 0.92105 0.02611 0.51195
 H218 H 0.92114 -0.01880 0.51175
 H219 H 0.98077 -0.07815 0.48823
 H220 H 1.02573 -0.07825 0.48754
 H221 H 1.08425 -0.01614 0.50972
 H222 H 1.08448 0.05166 0.49904
 C223 C 1.15801 0.15996 0.22222
 C224 C 1.14816 0.15064 0.24170
 C225 C 1.13633 0.13939 0.26485
 C226 C 1.11642 0.15297 0.27823
 C227 C 1.10474 0.14191 0.30057
 C228 C 1.11285 0.11709 0.30983
 C229 C 1.13294 0.10363 0.29625
 C230 C 1.14457 0.11472 0.27392
 C231 C 1.10032 0.10517 0.33340
 C232 C 1.11560 0.09150 0.35206
 C233 C 1.10374 0.07989 0.37400
 C234 C 1.07647 0.08180 0.37762
 C235 C 1.06111 0.09548 0.35928
 C236 C 1.07293 0.10712 0.33732
 C237 C 1.06423 0.06924 0.39986
 C238 C 1.05399 0.05839 0.41831
 H239 H 1.10993 0.17211 0.27141
 H240 H 1.08957 0.15290 0.31076
 H241 H 1.13936 0.08434 0.30266
 H242 H 1.15990 0.10399 0.26365
 H243 H 1.13676 0.08995 0.34979
 H244 H 1.11582 0.06936 0.38810
 H245 H 1.03996 0.09696 0.36182
 H246 H 1.06060 0.11722 0.32315
 C247 C 0.84609 -0.15609 0.22467
 C248 C 0.85624 -0.14620 0.24369
 C249 C 0.86836 -0.13428 0.26634
 C250 C 0.86160 -0.10860 0.27363
 C251 C 0.87343 -0.09694 0.29555
 C252 C 0.89222 -0.11082 0.31048
 C253 C 0.89887 -0.13664 0.30299
 C254 C 0.88700 -0.14828 0.28107
 C255 C 0.90487 -0.09837 0.33370
 C256 C 0.93194 -0.10188 0.33859
 C257 C 0.94388 -0.08989 0.36028
 C258 C 0.92894 -0.07428 0.37739
 C259 C 0.90199 -0.07076 0.37276
 C260 C 0.89001 -0.08271 0.35107
 C261 C 0.94129 -0.06162 0.39949
 C262 C 0.95159 -0.05080 0.41791
 H263 H 0.84726 -0.09756 0.26231
 H264 H 0.86815 -0.07691 0.30059
 H265 H 0.91301 -0.14794 0.31427
 H266 H 0.89233 -0.16819 0.27563
 H267 H 0.94398 -0.11353 0.32540
 H268 H 0.96478 -0.09265 0.36363
 H269 H 0.89023 -0.05875 0.38590
 H270 H 0.86908 -0.07991 0.34804
 C271 C 0.84115 0.15501 0.77739
 C272 C 0.85140 0.14548 0.75823
 C273 C 0.86374 0.13401 0.73544
 C274 C 0.89017 0.12624 0.73649
 C275 C 0.90219 0.11502 0.71442
 C276 C 0.88788 0.11140 0.69097
 C277 C 0.86131 0.11929 0.69012
 C278 C 0.84934 0.13053 0.71222
 C279 C 0.90064 0.09941 0.66755
 C280 C 0.88696 0.08110 0.65191
 C281 C 0.89910 0.06963 0.63003
 C282 C 0.92501 0.07633 0.62345
 C283 C 0.93874 0.09458 0.63881
 C284 C 0.92666 0.10605 0.66071
 C285 C 0.93766 0.06428 0.60115
 C286 C 0.94851 0.05413 0.58264
 H287 H 0.90148 0.12876 0.75440
 H288 H 0.92256 0.10882 0.71582
 H289 H 0.84987 0.11706 0.67227
 H290 H 0.82888 0.13653 0.71117
 H291 H 0.86704 0.07533 0.65686
 H292 H 0.88833 0.05544 0.61833
 H293 H 0.95880 0.09993 0.63388
 H294 H 0.93758 0.12033 0.67214
 C295 C 1.15902 -0.15553 0.77639
 C296 C 1.14976 -0.14520 0.75712
 C297 C 1.13852 -0.13289 0.73420
 C298 C 1.11401 -0.14116 0.72473
 C299 C 1.10293 -0.12911 0.70260
 C300 C 1.11624 -0.10858 0.68964
 C301 C 1.14090 -0.10042 0.69930
 C302 C 1.15195 -0.11252 0.72144
 C303 C 1.10434 -0.09564 0.66626
 C304 C 1.10588 -0.06818 0.66302
 C305 C 1.09425 -0.05600 0.64124
 C306 C 1.08099 -0.07107 0.62240
 C307 C 1.07951 -0.09839 0.62534
 C308 C 1.09110 -0.11062 0.64711
 C309 C 1.06847 -0.05849 0.60030
 C310 C 1.05768 -0.04805 0.58192
 H311 H 1.10340 -0.15685 0.73453
 H312 H 1.08377 -0.13558 0.69588
 H313 H 1.15176 -0.08489 0.68957
 H314 H 1.17096 -0.10600 0.72858
 H315 H 1.11564 -0.05608 0.67758
 H316 H 1.09541 -0.03481 0.63920
 H317 H 1.06931 -0.11025 0.61085
 H318 H 1.08988 -0.13181 0.64886
 C319 C 0.22333 1.15797 1.15658
 C320 C 0.24245 1.14780 1.14683
 C321 C 0.26516 1.13558 1.13505
 C322 C 0.26299 1.11064 1.12361
 C323 C 0.28495 1.09880 1.11196
 C324 C 0.30942 1.11177 1.11160
 C325 C 0.31142 1.13682 1.12321
 C326 C 0.28941 1.14863 1.13484
 C327 C 0.33273 1.09922 1.09914
 C328 C 0.35775 1.10095 1.11096
 C329 C 0.37961 1.08889 1.09932
 C330 C 0.37678 1.07500 1.07571
 C331 C 0.35202 1.07327 1.06374
 C332 C 0.33013 1.08528 1.07535
 C333 C 0.39917 1.06226 1.06389
 C334 C 0.41774 1.05135 1.05389
 H335 H 0.24432 1.10034 1.12371
 H336 H 0.28286 1.07937 1.10351
 H337 H 0.32990 1.14744 1.12297
 H338 H 0.29129 1.16799 1.14357
 H339 H 0.36033 1.11125 1.12943
 H340 H 0.39868 1.09027 1.10880
 H341 H 0.34962 1.06261 1.04543
 H342 H 0.31123 1.08391 1.06558
 C343 C 0.22314 0.84150 0.84495
 C344 C 0.24217 0.85094 0.85553
 C345 C 0.26479 0.86239 0.86816
 C346 C 0.28942 0.85010 0.86642
 C347 C 0.31141 0.86136 0.87854
 C348 C 0.30905 0.88512 0.89256
 C349 C 0.28418 0.89727 0.89427
 C350 C 0.26222 0.88596 0.88215
 C351 C 0.33242 0.89727 0.90523
 C352 C 0.33620 0.92467 0.90426
 C353 C 0.35815 0.93614 0.91622
 C354 C 0.37663 0.92042 0.92931
 C355 C 0.37310 0.89314 0.93038
 C356 C 0.35115 0.88162 0.91840
 C357 C 0.39910 0.93240 0.94172
 C358 C 0.41771 0.94282 0.95208
 H359 H 0.29164 0.83188 0.85558
 H360 H 0.33034 0.85170 0.87660
 H361 H 0.28164 0.91536 0.90522
 H362 H 0.24323 0.89561 0.88369
 H363 H 0.32234 0.93721 0.89397
 H364 H 0.36073 0.95728 0.91523
 H365 H 0.38724 0.88080 0.94054
 H366 H 0.34863 0.86051 0.91977
 C367 C 0.77940 0.84379 1.16042
 C368 C 0.75997 0.85359 1.15089
 C369 C 0.73683 0.86532 1.13941
 C370 C 0.72487 0.88703 1.15144
 C371 C 0.70253 0.89856 1.14017
 C372 C 0.69184 0.88849 1.11669
 C373 C 0.70399 0.86661 1.10479
 C374 C 0.72633 0.85513 1.11609
 C375 C 0.66824 0.90083 1.10455
 C376 C 0.64835 0.88517 1.09331
 C377 C 0.62634 0.89682 1.08154
 C378 C 0.62388 0.92423 1.08084
 C379 C 0.64347 0.93998 1.09208
 C380 C 0.66550 0.92838 1.10388
 C381 C 0.60149 0.93619 1.06820
 C382 C 0.58289 0.94622 1.05736
 H383 H 0.73281 0.89504 1.16953
 H384 H 0.69345 0.91516 1.14997
 H385 H 0.69646 0.85863 1.08653
 H386 H 0.73549 0.83839 1.10656
 H387 H 0.64971 0.86392 1.09382
 H388 H 0.61127 0.88444 1.07292
 H389 H 0.64181 0.96123 1.09154
 H390 H 0.68061 0.94097 1.11205
 C391 C 0.77518 1.15316 0.84237
 C392 C 0.75613 1.14287 0.85210
 C393 C 0.73346 1.13064 0.86388
 C394 C 0.72021 1.14313 0.88455
 C395 C 0.69831 1.13120 0.89618
 C396 C 0.68937 1.10657 0.88728
 C397 C 0.70282 1.09418 0.86646
 C398 C 0.72471 1.10616 0.85485
 C399 C 0.66623 1.09381 0.89978
 C400 C 0.66619 1.06657 0.90480
 C401 C 0.64455 1.05467 0.91695
 C402 C 0.62267 1.06979 0.92421
 C403 C 0.62244 1.09685 0.91916
 C404 C 0.64406 1.10880 0.90704
 C405 C 0.60062 1.05763 0.93717
 C406 C 0.58224 1.04751 0.94824
 H407 H 0.72688 1.16204 0.89176
 H408 H 0.68861 1.14107 0.91240
 H409 H 0.69623 1.07537 0.85896
 H410 H 0.73480 1.09634 0.83882
 H411 H 0.68308 1.05456 0.89977
 H412 H 0.64497 1.03371 0.92086
 H413 H 0.60557 1.10873 0.92465
 H414 H 0.64334 1.12973 0.90312
 C415 C 0.15717 0.22462 0.15417
 C416 C 0.14722 0.24347 0.14373
 C417 C 0.13522 0.26588 0.13120
 C418 C 0.11107 0.26318 0.11823
 C419 C 0.09935 0.28492 0.10606
 C420 C 0.11166 0.30969 0.10674
 C421 C 0.13596 0.31221 0.11984
 C422 C 0.14766 0.29043 0.13197
 C423 C 0.09913 0.33282 0.09395
 C424 C 0.09944 0.35760 0.10629
 C425 C 0.08733 0.37928 0.09438
 C426 C 0.07482 0.37650 0.07000
 C427 C 0.07452 0.35198 0.05750
 C428 C 0.08659 0.33027 0.06938
 C429 C 0.06200 0.39870 0.05794
 C430 C 0.05106 0.41719 0.04783
 H431 H 0.10124 0.24428 0.11758
 H432 H 0.08048 0.28242 0.09646
 H433 H 0.14608 0.33094 0.12042
 H434 H 0.16640 0.29272 0.14190
 H435 H 0.10864 0.36012 0.12535
 H436 H 0.08759 0.39816 0.10426
 H437 H 0.06494 0.34962 0.03859
 H438 H 0.08633 0.31154 0.05923
 C439 C -0.16038 0.22131 -0.15621
 C440 C -0.15105 0.24065 -0.14616
 C441 C -0.13981 0.26366 -0.13410
 C442 C -0.14470 0.28861 -0.14469
 C443 C -0.13362 0.31094 -0.13307
 C444 C -0.11750 0.30859 -0.11065
 C445 C -0.11278 0.28341 -0.10011
 C446 C -0.12386 0.26112 -0.11177
 C447 C -0.10548 0.33224 -0.09843
 C448 C -0.10405 0.33467 -0.07087
 C449 C -0.09231 0.35673 -0.05939
 C450 C -0.08183 0.37663 -0.07528
 C451 C -0.08328 0.37448 -0.10270
 C452 C -0.09504 0.35246 -0.11422
 C453 C -0.06914 0.39899 -0.06345
 C454 C -0.05823 0.41752 -0.05347
 H455 H -0.15708 0.29082 -0.16193
 H456 H -0.13789 0.33007 -0.14145
 H457 H -0.10017 0.28091 -0.08309
 H458 H -0.11988 0.24189 -0.10345
 H459 H -0.11221 0.31962 -0.05818
 H460 H -0.09131 0.35821 -0.03814
 H461 H -0.07512 0.38972 -0.11518
 H462 H -0.09552 0.35100 -0.13548
 C463 C 0.15606 0.77593 -0.15767
 C464 C 0.14562 0.75672 -0.14849
 C465 C 0.13311 0.73385 -0.13744
 C466 C 0.14508 0.72026 -0.11666
 C467 C 0.13286 0.69817 -0.10575
 C468 C 0.10845 0.68937 -0.11549
 C469 C 0.09660 0.70315 -0.13642
 C470 C 0.10887 0.72523 -0.14731
 C471 C 0.09535 0.66606 -0.10371
 C472 C 0.06794 0.66595 -0.09946
 C473 C 0.05571 0.64418 -0.08792
 C474 C 0.07066 0.62224 -0.08052
 C475 C 0.09788 0.62207 -0.08483
 C476 C 0.11016 0.64382 -0.09635
 C477 C 0.05816 0.60011 -0.06804
 C478 C 0.04778 0.58170 -0.05730
 H479 H 0.16379 0.72682 -0.10880
 H480 H 0.14230 0.68822 -0.08943
 H481 H 0.07799 0.69668 -0.14456
 H482 H 0.09946 0.73558 -0.16343
 H483 H 0.05605 0.68289 -0.10460
 H484 H 0.03463 0.64456 -0.08456
 H485 H 0.10964 0.60517 -0.07921
 H486 H 0.13122 0.64316 -0.09969
 C487 C -0.15445 0.77709 0.15880
 C488 C -0.14479 0.75784 0.14884
 C489 C -0.13324 0.73492 0.13684
 C490 C -0.14539 0.72316 0.11512
 C491 C -0.13409 0.70102 0.10331
 C492 C -0.11043 0.69035 0.11308
 C493 C -0.09839 0.70230 0.13497
 C494 C -0.10974 0.72444 0.14676
 C495 C -0.09829 0.66697 0.10039
 C496 C -0.07083 0.66548 0.09683
 C497 C -0.05946 0.64362 0.08457
 C498 C -0.07535 0.62295 0.07575
 C499 C -0.10266 0.62416 0.07931
 C500 C -0.11408 0.64601 0.09155
 C501 C -0.06366 0.60066 0.06276
 C502 C -0.05380 0.58214 0.05169
 H503 H -0.16354 0.73117 0.10722
 H504 H -0.14364 0.69250 0.08628
 H505 H -0.08035 0.69437 0.14316
 H506 H -0.10020 0.73336 0.16360
 H507 H -0.05818 0.68143 0.10310
 H508 H -0.03830 0.64292 0.08183
 H509 H -0.11514 0.60825 0.07260
 H510 H -0.13523 0.64641 0.09432
 C511 C 1.15972 0.15810 0.77807
 C512 C 1.15028 0.14834 0.75862
 C513 C 1.13888 0.13663 0.73550
 C514 C 1.14701 0.11164 0.72726
 C515 C 1.13566 0.10008 0.70502
 C516 C 1.11596 0.11338 0.69074
 C517 C 1.10802 0.13856 0.69912
 C518 C 1.11941 0.15008 0.72135
 C519 C 1.10357 0.10095 0.66737
 C520 C 1.07628 0.10323 0.66306
 C521 C 1.06456 0.09137 0.64119
 C522 C 1.07993 0.07710 0.62332
 C523 C 1.10710 0.07474 0.62738
 C524 C 1.11887 0.08657 0.64927
 C525 C 1.06771 0.06476 0.60096
 C526 C 1.05714 0.05444 0.58241
 H527 H 1.16201 0.10101 0.73812
 H528 H 1.14196 0.08055 0.69928
 H529 H 1.09317 0.14944 0.68834
 H530 H 1.11301 0.16946 0.72752
 H531 H 1.06392 0.11383 0.67682
 H532 H 1.04349 0.09323 0.63828
 H533 H 1.11919 0.06377 0.61365
 H534 H 1.13996 0.08473 0.65187
 C535 C 0.84360 -0.15489 0.77499
 C536 C 0.85334 -0.14463 0.75594
 C537 C 0.86503 -0.13230 0.73327
 C538 C 0.86900 -0.10507 0.73292
 C539 C 0.88054 -0.09307 0.71101
 C540 C 0.88830 -0.10819 0.68914
 C541 C 0.88415 -0.13556 0.68966
 C542 C 0.87259 -0.14751 0.71159
 C543 C 0.90085 -0.09550 0.66598
 C544 C 0.92227 -0.10759 0.65319
 C545 C 0.93424 -0.09552 0.63155
 C546 C 0.92498 -0.07124 0.62239
 C547 C 0.90365 -0.05908 0.63492
 C548 C 0.89165 -0.07110 0.65657
 C549 C 0.93759 -0.05872 0.60034
 C550 C 0.94838 -0.04827 0.58197
 H551 H 0.86328 -0.09312 0.74963
 H552 H 0.88378 -0.07202 0.71135
 H553 H 0.88959 -0.14768 0.67300
 H554 H 0.86954 -0.16860 0.71163
 H555 H 0.93004 -0.12617 0.66017
 H556 H 0.95082 -0.10505 0.62207
 H557 H 0.89631 -0.04029 0.62796
 H558 H 0.87501 -0.06146 0.66578
 C559 C 1.15508 -0.15838 0.22317
 C560 C 1.14546 -0.14807 0.24226
 C561 C 1.13391 -0.13567 0.26496
 C562 C 1.13326 -0.14888 0.28912
 C563 C 1.12195 -0.13684 0.31115
 C564 C 1.11117 -0.11138 0.30927
 C565 C 1.11194 -0.09827 0.28487
 C566 C 1.12323 -0.11036 0.26288
 C567 C 1.09915 -0.09854 0.33263
 C568 C 1.10333 -0.07163 0.33756
 C569 C 1.09185 -0.05950 0.35942
 C570 C 1.07605 -0.07406 0.37664
 C571 C 1.07181 -0.10085 0.37196
 C572 C 1.08330 -0.11304 0.35012
 C573 C 1.06401 -0.06142 0.39894
 C574 C 1.05387 -0.05060 0.41747
 H575 H 1.14153 -0.16845 0.29096
 H576 H 1.12196 -0.14729 0.32972
 H577 H 1.10349 -0.07882 0.28271
 H578 H 1.12355 -0.09999 0.24424
 H579 H 1.11571 -0.06002 0.32466
 H580 H 1.09529 -0.03875 0.36289
 H581 H 1.05953 -0.11229 0.38512
 H582 H 1.07944 -0.13370 0.34667
 C583 C 0.84554 0.15923 0.22268
 C584 C 0.85608 0.15021 0.24195
 C585 C 0.86864 0.13928 0.26489
 C586 C 0.89329 0.12712 0.26270
 C587 C 0.90535 0.11616 0.28489
 C588 C 0.89287 0.11720 0.30961
 C589 C 0.86814 0.12959 0.31162
 C590 C 0.85612 0.14055 0.28940
 C591 C 0.90546 0.10514 0.33310
 C592 C 0.89029 0.09090 0.35139
 C593 C 0.90219 0.07916 0.37326
 C594 C 0.92937 0.08151 0.37718
 C595 C 0.94462 0.09575 0.35920
 C596 C 0.93276 0.10749 0.33729
 C597 C 0.94165 0.06888 0.39938
 C598 C 0.95190 0.05802 0.41783
 H599 H 0.90311 0.12595 0.24380
 H600 H 0.92422 0.10646 0.28263
 H601 H 0.85819 0.13100 0.33042
 H602 H 0.83706 0.14997 0.29133
 H603 H 0.86930 0.08842 0.34852
 H604 H 0.89023 0.06807 0.38699
 H605 H 0.96568 0.09770 0.36206
 H606 H 0.94491 0.11860 0.32375
 C607 C 0.15799 0.22305 -0.15606
 C608 C 0.14781 0.24212 -0.14625
 C609 C 0.13556 0.26476 -0.13441
 C610 C 0.14800 0.28929 -0.13539
 C611 C 0.13612 0.31125 -0.12380
 C612 C 0.11162 0.30893 -0.11103
 C613 C 0.09928 0.28417 -0.11018
 C614 C 0.11119 0.26225 -0.12180
 C615 C 0.09897 0.33221 -0.09866
 C616 C 0.08614 0.32992 -0.07422
 C617 C 0.07403 0.35178 -0.06268
 C618 C 0.07457 0.37619 -0.07541
 C619 C 0.08735 0.37871 -0.09968
 C620 C 0.09950 0.35688 -0.11124
 C621 C 0.06177 0.39856 -0.06364
 C622 C 0.05085 0.41712 -0.05368
 H623 H 0.16692 0.29143 -0.14504
 H624 H 0.14626 0.32997 -0.12451
 H625 H 0.08026 0.28182 -0.10083
 H626 H 0.10135 0.24336 -0.12099
 H627 H 0.08570 0.31129 -0.06388
 H628 H 0.06424 0.34963 -0.04385
 H629 H 0.08780 0.39751 -0.10974
 H630 H 0.10893 0.35920 -0.13022
 C631 C -0.15807 0.22266 0.15533
 C632 C -0.14906 0.24186 0.14472
 C633 C -0.13820 0.26473 0.13205
 C634 C -0.12495 0.26223 0.10803
 C635 C -0.11413 0.28438 0.09583
 C636 C -0.11640 0.30937 0.10755
 C637 C -0.12986 0.31168 0.13166
 C638 C -0.14068 0.28950 0.14381
 C639 C -0.10453 0.33284 0.09482
 C640 C -0.09145 0.35192 0.11003
 C641 C -0.07988 0.37379 0.09801
 C642 C -0.08124 0.37691 0.07068
 C643 C -0.09431 0.35813 0.05538
 C644 C -0.10589 0.33623 0.06735
 C645 C -0.06876 0.39912 0.05833
 C646 C -0.05800 0.41758 0.04804
 H647 H -0.12285 0.24313 0.09879
 H648 H -0.10359 0.28190 0.07747
 H649 H -0.13223 0.33068 0.14100
 H650 H -0.15096 0.29167 0.16237
 H651 H -0.08975 0.34969 0.13115
 H652 H -0.06969 0.38815 0.11003
 H653 H -0.09549 0.36037 0.03420
 H654 H -0.11609 0.32207 0.05515
 C655 C -0.15621 0.77835 -0.16086
 C656 C -0.14638 0.75892 -0.15139
 C657 C -0.13464 0.73579 -0.13997
 C658 C -0.14688 0.72316 -0.11878
 C659 C -0.13539 0.70083 -0.10750
 C660 C -0.11144 0.69084 -0.11728
 C661 C -0.09932 0.70365 -0.13864
 C662 C -0.11086 0.72597 -0.14990
 C663 C -0.09907 0.66729 -0.10509
 C664 C -0.07165 0.66619 -0.10114
 C665 C -0.06008 0.64420 -0.08927
 C666 C -0.07573 0.62303 -0.08122
 C667 C -0.10300 0.62386 -0.08520
 C668 C -0.11461 0.64583 -0.09705
 C669 C -0.06387 0.60068 -0.06846
 C670 C -0.05390 0.58212 -0.05752
 H671 H -0.16524 0.73065 -0.11088
 H672 H -0.14501 0.69164 -0.09085
 H673 H -0.08106 0.69625 -0.14682
 H674 H -0.10125 0.73556 -0.16634
 H675 H -0.05920 0.68252 -0.10679
 H676 H -0.03896 0.64381 -0.08618
 H677 H -0.11529 0.60756 -0.07907
 H678 H -0.13572 0.64594 -0.10013
 C679 C 0.15268 0.77450 0.15768
 C680 C 0.14233 0.75552 0.14794
 C681 C 0.12998 0.73293 0.13618
 C682 C 0.10526 0.73538 0.12423
 C683 C 0.09336 0.71353 0.11254
 C684 C 0.10607 0.68890 0.11264
 C685 C 0.13089 0.68663 0.12480
 C686 C 0.14274 0.70851 0.13649
 C687 C 0.09360 0.66576 0.09991
 C688 C 0.10883 0.64805 0.08499
 C689 C 0.09705 0.62643 0.07276
 C690 C 0.06993 0.62220 0.07529
 C691 C 0.05462 0.63963 0.09014
 C692 C 0.06636 0.66128 0.10238
 C693 C 0.05781 0.60013 0.06239
 C694 C 0.04766 0.58174 0.05141
 H695 H 0.09525 0.75422 0.12381
 H696 H 0.07442 0.71599 0.10305
 H697 H 0.14101 0.66788 0.12550
 H698 H 0.16186 0.70639 0.14575
 H699 H 0.12977 0.65116 0.08241
 H700 H 0.10906 0.61312 0.06121
 H701 H 0.03361 0.63651 0.09225
 H702 H 0.05417 0.67436 0.11400
 C703 C 0.22467 1.15691 0.84590
 C704 C 0.24354 1.14689 0.85627
 C705 C 0.26598 1.13483 0.86874
 C706 C 0.26231 1.11700 0.88941
 C707 C 0.28405 1.10515 0.90148
 C708 C 0.30979 1.11100 0.89301
 C709 C 0.31326 1.12900 0.87225
 C710 C 0.29148 1.14082 0.86020
 C711 C 0.33288 1.09827 0.90571
 C712 C 0.35587 1.11278 0.91100
 C713 C 0.37758 1.10075 0.92297
 C714 C 0.37661 1.07409 0.92977
 C715 C 0.35385 1.05949 0.92457
 C716 C 0.33212 1.07148 0.91264
 C717 C 0.39893 1.06164 0.94203
 C718 C 0.41749 1.05095 0.95230
 H719 H 0.24265 1.11229 0.89623
 H720 H 0.28074 1.09166 0.91763
 H721 H 0.33279 1.13366 0.86507
 H722 H 0.29454 1.15453 0.84416
 H723 H 0.35694 1.13351 0.90621
 H724 H 0.39509 1.11224 0.92696
 H725 H 0.35292 1.03881 0.92967
 H726 H 0.31485 1.05969 0.90850
 C727 C 0.22178 0.83986 1.15707
 C728 C 0.24121 0.84915 1.14710
 C729 C 0.26431 0.86038 1.13513
 C730 C 0.26326 0.86969 1.10923
 C731 C 0.28559 0.88085 1.09765
 C732 C 0.30930 0.88286 1.11186
 C733 C 0.31017 0.87335 1.13787
 C734 C 0.28781 0.86219 1.14941
 C735 C 0.33292 0.89504 1.09968
 C736 C 0.34912 0.91203 1.11436
 C737 C 0.37111 0.92383 1.10277
 C738 C 0.37723 0.91881 1.07639
 C739 C 0.36134 0.90184 1.06165
 C740 C 0.33933 0.89003 1.07319
 C741 C 0.39953 0.93145 1.06433
 C742 C 0.41803 0.94230 1.05419
 H743 H 0.24513 0.86846 1.09803
 H744 H 0.28418 0.88830 1.07773
 H745 H 0.32821 0.87432 1.14920
 H746 H 0.28886 0.85498 1.16946
 H747 H 0.34452 0.91657 1.13467
 H748 H 0.38321 0.93704 1.11432
 H749 H 0.36592 0.89781 1.04121
 H750 H 0.32744 0.87679 1.06147
 C751 C 0.77728 1.15474 1.15834
 C752 C 0.75810 1.14414 1.14924
 C753 C 0.73526 1.13152 1.13824
 C754 C 0.73764 1.10694 1.12607
 C755 C 0.71552 1.09481 1.11507
 C756 C 0.69071 1.10715 1.11607
 C757 C 0.68851 1.13182 1.12846
 C758 C 0.71065 1.14390 1.13946
 C759 C 0.66729 1.09450 1.10398
 C760 C 0.64890 1.10959 1.08974
 C761 C 0.62706 1.09763 1.07803
 C762 C 0.62329 1.07047 1.08040
 C763 C 0.64139 1.05529 1.09461
 C764 C 0.66326 1.06720 1.10633
 C765 C 0.60106 1.05816 1.06790
 C766 C 0.58257 1.04789 1.05717
 H767 H 0.75662 1.09722 1.12494
 H768 H 0.71793 1.07600 1.10537
 H769 H 0.66963 1.14166 1.12985
 H770 H 0.70857 1.16290 1.14889
 H771 H 0.65164 1.13056 1.08726
 H772 H 0.61323 1.10954 1.06696
 H773 H 0.63864 1.03425 1.09659
 H774 H 0.67688 1.05511 1.11743
 C775 C 0.77712 0.84453 0.84130
 C776 C 0.75793 0.85426 0.85135
 C777 C 0.73507 0.86595 0.86338
 C778 C 0.72471 0.88947 0.85343
 C779 C 0.70263 0.90096 0.86521
 C780 C 0.69060 0.88904 0.88714
 C781 C 0.70114 0.86536 0.89695
 C782 C 0.72323 0.85392 0.88514
 C783 C 0.66726 0.90133 0.89982
 C784 C 0.64616 0.88572 0.90866
 C785 C 0.62433 0.89728 0.92084
 C786 C 0.62330 0.92456 0.92436
 C787 C 0.64413 0.94027 0.91556
 C788 C 0.66597 0.92876 0.90335
 C789 C 0.60105 0.93640 0.93732
 C790 C 0.58254 0.94636 0.94837
 H791 H 0.73370 0.89891 0.83655
 H792 H 0.69479 0.91900 0.85700
 H793 H 0.69254 0.85590 0.91400
 H794 H 0.73114 0.83576 0.89305
 H795 H 0.64641 0.86460 0.90592
 H796 H 0.60829 0.88494 0.92755
 H797 H 0.64358 0.96141 0.91829
 H798 H 0.68204 0.94127 0.89708
   
