data_POSCAR
  _audit_creation_date              2014-09-24
  _audit_creation_method            'ToBaCCo'
  _symmetry_space_group_name_H-M    'P1'
  _symmetry_Int_Tables_number       1
  _symmetry_cell_setting            triclinic
  loop_
  _symmetry_equiv_pos_as_xyz
 x,y,z
_cell_length_a 44.5147
_cell_length_b 44.3907
_cell_length_c 44.3484
_cell_angle_alpha 90.059500
_cell_angle_beta 90.008900
_cell_angle_gamma 89.952200
loop_
  _atom_site_label
  _atom_site_type_symbol
  _atom_site_fract_x
  _atom_site_fract_y
  _atom_site_fract_z
C1 C 0.19149 1.22944 0.19138
 N2 N 0.17846 1.21739 0.21632
 C3 C 0.19029 1.19247 0.22958
 N4 N 0.21534 1.17958 0.21770
 C5 C 0.22856 1.19148 0.19282
 N6 N 0.21653 1.21635 0.17970
 C7 C 0.81121 0.76913 0.19155
 N8 N 0.82348 0.78207 0.21646
 C9 C 0.81075 0.80691 0.22906
 N10 N 0.78554 0.81884 0.21652
 C11 C 0.77308 0.80605 0.19166
 N12 N 0.78601 0.78126 0.17922
 C13 C 0.80750 1.22902 -0.18996
 N14 N 0.81957 1.21632 -0.21510
 C15 C 0.80692 1.19141 -0.22763
 N16 N 0.78202 1.17920 -0.21480
 C17 C 0.76977 1.19175 -0.18971
 N18 N 0.78261 1.21660 -0.17734
 C19 C 0.19134 0.77236 -0.19460
 N20 N 0.21626 0.78470 -0.18196
 C21 C 0.22882 0.80982 -0.19403
 N22 N 0.21621 0.82270 -0.21875
 C23 C 0.19124 0.81056 -0.23153
 N24 N 0.17888 0.78539 -0.21932
 C25 C 0.54584 1.03985 -0.00596
 H26 H 0.54645 1.03925 0.01842
 C27 C 0.56633 1.05763 -0.02174
 H28 H 0.58257 1.07077 -0.00920
 C29 C 0.52429 1.02265 -0.05169
 H30 H 0.50828 1.00852 -0.06329
 C31 C 0.54440 1.04009 -0.06839
 H32 H 0.54335 1.03936 -0.09277
 N33 N 0.52528 1.02294 -0.02103
 C34 C 0.45434 1.00636 0.04462
 H35 H 0.45376 0.98199 0.04411
 C36 C 0.43384 1.02221 0.06241
 H37 H 0.41765 1.00975 0.07566
 C38 C 0.47573 1.05196 0.02713
 H39 H 0.49165 1.06349 0.01286
 C40 C 0.45561 1.06873 0.04457
 H41 H 0.45659 1.09308 0.04370
 Zn42 Zn 0.49995 0.99794 0.00231
 N43 N 0.47479 1.02134 0.02753
 C44 C 0.52459 0.97311 0.05614
 N45 N 0.52528 0.97273 0.02548
 C46 C 0.54561 0.95567 0.01024
 C47 C 0.56623 0.93786 0.02586
 C48 C 0.54486 0.95565 0.07269
 C49 C 0.45401 0.99008 -0.03966
 C50 C 0.43339 0.97453 -0.05753
 C51 C 0.45494 0.92770 -0.04011
 C52 C 0.47519 0.94419 -0.02258
 N53 N 0.47445 0.97482 -0.02277
 H54 H 0.50875 0.98736 0.06786
 H55 H 0.54598 0.95621 -0.01415
 H56 H 0.58232 0.92463 0.01320
 H57 H 0.54409 0.95648 0.09707
 H58 H 0.45359 1.01444 -0.03898
 H59 H 0.41726 0.98721 -0.07066
 H60 H 0.45579 0.90333 -0.03947
 H61 H 0.49112 0.93244 -0.00846
 C62 C 0.43417 1.05386 0.06241
 C63 C 0.56590 1.05780 -0.05341
 C64 C 0.43356 0.94288 -0.05781
 C65 C 0.56618 0.93783 0.05754
 C66 C -0.00617 0.54570 1.03992
 H67 H 0.01812 0.54630 1.03934
 C68 C -0.02192 0.56630 1.05772
 H69 H -0.00945 0.58260 1.07088
 C70 C -0.05171 0.52410 1.02269
 H71 H -0.06325 0.50803 1.00854
 C72 C -0.06837 0.54431 1.04014
 H73 H -0.09266 0.54327 1.03940
 N74 N -0.02117 0.52507 1.02299
 C75 C 0.04426 0.45382 1.00647
 H76 H 0.04379 0.45318 0.98209
 C77 C 0.06197 0.43330 1.02236
 H78 H 0.07520 0.41702 1.00991
 C79 C 0.02677 0.47540 1.05209
 H80 H 0.01253 0.49141 1.06361
 C81 C 0.04413 0.45526 1.06890
 H82 H 0.04323 0.45630 1.09328
 Zn83 Zn 0.00214 0.49959 0.99800
 N84 N 0.02722 0.47438 1.02144
 C85 C 0.05581 0.52418 0.97317
 N86 N 0.02526 0.52491 0.97278
 C87 C 0.01012 0.54529 0.95569
 C88 C 0.02571 0.56590 0.93785
 C89 C 0.07233 0.54442 0.95568
 C90 C -0.03967 0.45355 0.99008
 C91 C -0.05745 0.43287 0.97449
 C92 C -0.04001 0.45438 0.92764
 C93 C -0.02257 0.47470 0.94416
 N94 N -0.02282 0.47400 0.97483
 H95 H 0.06746 0.50831 0.98744
 H96 H -0.01418 0.54570 0.95621
 H97 H 0.01313 0.58202 0.92459
 H98 H 0.09662 0.54361 0.95652
 H99 H -0.03905 0.45317 1.01447
 H100 H -0.07056 0.41673 0.98717
 H101 H -0.03932 0.45520 0.90325
 H102 H -0.00848 0.49063 0.93242
 C103 C 0.06193 0.43371 1.05404
 C104 C -0.05348 0.56589 1.05788
 C105 C -0.05768 0.43299 0.94281
 C106 C 0.05728 0.56579 0.93782
 C107 C 1.03966 -0.00587 0.54585
 H108 H 1.03906 0.01849 0.54651
 C109 C 1.05742 -0.02168 0.56639
 H110 H 1.07054 -0.00920 0.58271
 C111 C 1.02251 -0.05151 0.52412
 H112 H 1.00841 -0.06306 0.50802
 C113 C 1.03993 -0.06824 0.54427
 H114 H 1.03921 -0.09259 0.54316
 N115 N 1.02279 -0.02088 0.52518
 C116 C 1.00623 0.04478 0.45405
 H117 H 0.98194 0.04431 0.45345
 C118 C 1.02203 0.06255 0.43353
 H119 H 1.00961 0.07583 0.41729
 C120 C 1.05171 0.02722 0.47554
 H121 H 1.06321 0.01293 0.49151
 C122 C 1.06843 0.04464 0.45541
 H123 H 1.09272 0.04374 0.45642
 Zn124 Zn 0.99785 0.00251 0.49977
 N125 N 1.02117 0.02767 0.47457
 C126 C 0.97309 0.05632 0.52456
 N127 N 0.97273 0.02569 0.52522
 C128 C 0.95572 0.01049 0.54560
 C129 C 0.93796 0.02613 0.56630
 C130 C 0.95568 0.07288 0.54490
 C131 C 0.98999 -0.03938 0.45359
 C132 C 0.97446 -0.05722 0.43288
 C133 C 0.92778 -0.03977 0.45454
 C134 C 0.94423 -0.02227 0.47488
 N135 N 0.97478 -0.02250 0.47413
 H136 H 0.98729 0.06801 0.50868
 H137 H 0.95626 -0.01387 0.54595
 H138 H 0.92477 0.01350 0.58243
 H139 H 0.95650 0.09724 0.54414
 H140 H 1.01428 -0.03874 0.45317
 H141 H 0.98711 -0.07035 0.41668
 H142 H 0.90348 -0.03910 0.45541
 H143 H 0.93253 -0.00816 0.49089
 C144 C 1.05360 0.06251 0.43390
 C145 C 1.05761 -0.05333 0.56588
 C146 C 0.94290 -0.05747 0.43307
 C147 C 0.93792 0.05778 0.56627
 N148 N 0.17829 0.28933 1.13787
 C149 C 0.15273 0.30179 1.14887
 N150 N 0.14038 0.29036 1.17434
 N151 N 0.15315 0.26710 1.18834
 C152 C 0.17870 0.25441 1.17732
 N153 N 0.19107 0.26606 1.15186
 C154 C 0.13824 0.32596 1.13307
 C155 C 0.12570 0.34584 1.11947
 C156 C 0.11036 0.36895 1.10292
 N157 N 0.09380 0.39005 1.11751
 N158 N 0.07869 0.41084 1.10201
 C159 C 0.07955 0.41125 1.07136
 N160 N 0.09630 0.39008 1.05690
 N161 N 0.11140 0.36930 1.07239
 N162 N -0.17291 0.70860 1.13939
 C163 C -0.14718 0.69714 1.15106
 N164 N -0.13563 0.70944 1.17653
 N165 N -0.14933 0.73258 1.18988
 C166 C -0.17504 0.74427 1.17818
 N167 N -0.18662 0.73175 1.15273
 C168 C -0.13169 0.67312 1.13596
 C169 C -0.11829 0.65338 1.12298
 C170 C -0.10190 0.63042 1.10719
 N171 N -0.07147 0.63010 1.10795
 N172 N -0.05613 0.60942 1.09253
 C173 C -0.07064 0.58832 1.07574
 N174 N -0.10118 0.58871 1.07517
 N175 N -0.11654 0.60940 1.09059
 N176 N -0.13990 0.28922 0.82481
 C177 C -0.15134 0.30125 0.85046
 N178 N -0.17679 0.28944 0.86233
 N179 N -0.19035 0.26622 0.84901
 C180 C -0.17889 0.25396 0.82337
 N181 N -0.15345 0.26599 0.81147
 C182 C -0.13604 0.32536 0.86559
 C183 C -0.12293 0.34517 0.87874
 C184 C -0.10705 0.36819 0.89492
 N185 N -0.09048 0.38898 0.87999
 N186 N -0.07502 0.40975 0.89517
 C187 C -0.07555 0.41047 0.92582
 N188 N -0.09231 0.38960 0.94062
 N189 N -0.10776 0.36884 0.92546
 N190 N 0.17535 0.70994 0.85762
 C191 C 0.14982 0.69827 0.84574
 N192 N 0.13820 0.71063 0.82034
 N193 N 0.15166 0.73401 0.80725
 C194 C 0.17718 0.74583 0.81915
 N195 N 0.18882 0.73332 0.84454
 C196 C 0.13456 0.67398 0.86057
 C197 C 0.12135 0.65403 0.87334
 C198 C 0.10517 0.63083 0.88891
 N199 N 0.07476 0.63012 0.88792
 N200 N 0.05960 0.60926 0.90319
 C201 C 0.07427 0.58835 0.92005
 N202 N 0.10479 0.58911 0.92086
 N203 N 0.11998 0.60999 0.90559
 N204 N 1.17351 0.14143 0.29069
 C205 C 1.14794 0.15363 0.30196
 N206 N 1.13677 0.17907 0.28932
 N207 N 1.15071 0.19189 0.26604
 C208 C 1.17627 0.17966 0.25456
 N209 N 1.18746 0.15423 0.26742
 C210 C 1.13221 0.13909 0.32614
 C211 C 1.11868 0.12651 0.34602
 C212 C 1.10221 0.11111 0.36914
 N213 N 1.07180 0.11216 0.36953
 N214 N 1.05639 0.09700 0.39031
 C215 C 1.07083 0.08019 0.41144
 N216 N 1.10136 0.07934 0.41099
 N217 N 1.11678 0.09450 0.39020
 N218 N 1.17621 -0.13610 0.70886
 C219 C 1.15070 -0.14753 0.69673
 N220 N 1.13899 -0.17323 0.70827
 N221 N 1.15234 -0.18704 0.73133
 C222 C 1.17784 -0.17559 0.74369
 N223 N 1.18957 -0.14990 0.73192
 C224 C 1.13560 -0.13193 0.67278
 C225 C 1.12263 -0.11845 0.65311
 C226 C 1.10684 -0.10198 0.63022
 N227 N 1.09031 -0.11663 0.60916
 N228 N 1.07490 -0.10120 0.58853
 C229 C 1.07544 -0.07057 0.58824
 N230 N 1.09217 -0.05606 0.60939
 N231 N 1.10757 -0.07146 0.63000
 N232 N 0.86297 -0.17706 0.28931
 C233 C 0.85098 -0.15165 0.30130
 N234 N 0.82527 -0.14035 0.28943
 N235 N 0.81200 -0.15399 0.26620
 C236 C 0.82402 -0.17938 0.25400
 N237 N 0.84971 -0.19071 0.26609
 C238 C 0.86603 -0.13624 0.32541
 C239 C 0.87912 -0.12305 0.34521
 C240 C 0.89523 -0.10708 0.36824
 N241 N 0.88034 -0.09046 0.38910
 N242 N 0.89545 -0.07493 0.40988
 C243 C 0.92599 -0.07542 0.41053
 N244 N 0.94075 -0.09222 0.38959
 N245 N 0.92565 -0.10775 0.36882
 N246 N 0.82092 0.13903 0.71157
 C247 C 0.84635 0.15052 0.69935
 N248 N 0.85834 0.17596 0.71125
 N249 N 0.84535 0.18944 0.73473
 C250 C 0.81993 0.17792 0.74717
 N251 N 0.80791 0.15250 0.73505
 C252 C 0.86108 0.13524 0.67495
 C253 C 0.87377 0.12200 0.65491
 C254 C 0.88925 0.10578 0.63161
 N255 N 0.90583 0.12063 0.61075
 N256 N 0.92102 0.10542 0.58978
 C257 C 0.92023 0.07481 0.58894
 N258 N 0.90346 0.06009 0.60986
 N259 N 0.88827 0.07528 0.63082
 N260 N 0.28973 1.13731 0.17897
 C261 C 0.30229 1.14842 0.15345
 N262 N 0.29093 1.17395 0.14114
 N263 N 0.26766 1.18791 0.15392
 C264 C 0.25495 1.17677 0.17942
 N265 N 0.26647 1.15126 0.19175
 C266 C 0.32646 1.13267 0.13894
 C267 C 0.34633 1.11911 0.12639
 C268 C 0.36945 1.10261 0.11100
 N269 N 0.39045 1.11721 0.09442
 N270 N 0.41122 1.10175 0.07927
 C271 C 0.41173 1.07114 0.08010
 N272 N 0.39066 1.05666 0.09687
 N273 N 0.36989 1.07211 0.11203
 N274 N 0.70880 1.17628 -0.13582
 C275 C 0.69666 1.15075 -0.14734
 N276 N 0.70821 1.13895 -0.17306
 N277 N 0.73128 1.15225 -0.18680
 C278 C 0.74357 1.17777 -0.17526
 N279 N 0.73186 1.18958 -0.14956
 C280 C 0.67271 1.13570 -0.13181
 C281 C 0.65305 1.12276 -0.11837
 C282 C 0.63018 1.10701 -0.10194
 N283 N 0.60922 1.09044 -0.11666
 N284 N 0.58861 1.07505 -0.10127
 C285 C 0.58823 1.07563 -0.07061
 N286 N 0.60927 1.09238 -0.05603
 N287 N 0.62987 1.10777 -0.07140
 N288 N 0.29028 0.86275 -0.17742
 C289 C 0.30221 0.85078 -0.15198
 N290 N 0.29034 0.82507 -0.14061
 N291 N 0.26718 0.81177 -0.15424
 C292 C 0.25510 0.82377 -0.17967
 N293 N 0.26713 0.84946 -0.19105
 C294 C 0.32625 0.86585 -0.13659
 C295 C 0.34600 0.87897 -0.12341
 C296 C 0.36895 0.89511 -0.10745
 N297 N 0.38972 0.88017 -0.09084
 N298 N 0.41044 0.89531 -0.07530
 C299 C 0.41110 0.92593 -0.07578
 N300 N 0.39025 0.94074 -0.09257
 N301 N 0.36956 0.92562 -0.10810
 N302 N 0.71113 0.82065 0.13860
 C303 C 0.69886 0.84612 0.15019
 N304 N 0.71066 0.85815 0.17568
 N305 N 0.73408 0.84515 0.18914
 C306 C 0.74651 0.81970 0.17753
 N307 N 0.73455 0.80765 0.15206
 C308 C 0.67453 0.86086 0.13493
 C309 C 0.65454 0.87357 0.12170
 C310 C 0.63130 0.88907 0.10550
 N311 N 0.61050 0.90570 0.12040
 N312 N 0.58960 0.92092 0.10520
 C313 C 0.58877 0.92010 0.07456
 N314 N 0.60964 0.90327 0.05979
 N315 N 0.63053 0.88806 0.07498
   
