data_POSCAR
  _audit_creation_date              2014-09-24
  _audit_creation_method            'ToBaCCo'
  _symmetry_space_group_name_H-M    'P1'
  _symmetry_Int_Tables_number       1
  _symmetry_cell_setting            triclinic
  loop_
  _symmetry_equiv_pos_as_xyz
 x,y,z
_cell_length_a 20.4437
_cell_length_b 20.2743
_cell_length_c 46.6433
_cell_angle_alpha 89.980300
_cell_angle_beta 86.004100
_cell_angle_gamma 119.868000
loop_
  _atom_site_label
  _atom_site_type_symbol
  _atom_site_fract_x
  _atom_site_fract_y
  _atom_site_fract_z
C1 C -0.05451 0.03326 0.55034
 H2 H -0.04245 -0.00621 0.56108
 C3 C -0.05475 0.09224 0.56567
 H4 H -0.04495 0.09661 0.58829
 C5 C -0.07514 0.08051 0.50739
 H6 H -0.07974 0.07731 0.48441
 C7 C -0.07573 0.14048 0.52194
 H8 H -0.08201 0.18289 0.51024
 N9 N -0.06344 0.02914 0.52162
 C10 C 0.03810 -0.10620 0.52211
 H11 H 0.08510 -0.07031 0.50684
 C12 C 0.04291 -0.15865 0.54008
 H13 H 0.09412 -0.16217 0.53837
 C14 C -0.08729 -0.14844 0.54147
 H15 H -0.13813 -0.14441 0.54164
 C16 C -0.08476 -0.20102 0.55991
 H17 H -0.13368 -0.23624 0.57459
 Zn18 Zn -0.03974 -0.03510 0.49931
 N19 N -0.02605 -0.10142 0.52345
 C20 C 0.11370 0.07586 0.48867
 N21 N 0.04837 0.03193 0.47601
 C22 C 0.04073 0.04653 0.44834
 C23 C 0.09938 0.10909 0.43261
 C24 C 0.17454 0.13789 0.47343
 C25 C -0.18474 -0.10150 0.47585
 C26 C -0.24089 -0.15481 0.45943
 C27 C -0.15594 -0.20029 0.44358
 C28 C -0.10171 -0.14598 0.46009
 N29 N -0.11697 -0.09853 0.47594
 H30 H 0.11713 0.06514 0.51108
 H31 H -0.01264 0.01277 0.43908
 H32 H 0.09155 0.12197 0.41100
 H33 H 0.22546 0.17385 0.48398
 H34 H -0.19610 -0.06400 0.48908
 H35 H -0.29498 -0.15710 0.46099
 H36 H -0.13900 -0.23438 0.43075
 H37 H -0.04698 -0.14194 0.46052
 C38 C -0.01891 -0.20657 0.55957
 C39 C -0.06352 0.14750 0.55121
 C40 C -0.22820 -0.20708 0.44314
 C41 C 0.16657 0.15628 0.44540
 C42 C 1.12507 0.07416 0.12779
 H43 H 1.12269 0.12584 0.13084
 C44 C 1.18540 0.07669 0.11114
 H45 H 1.22931 0.13119 0.10194
 C46 C 1.07206 -0.05785 0.13802
 H47 H 1.02860 -0.10972 0.14909
 C48 C 1.13089 -0.05833 0.12082
 H49 H 1.13013 -0.11170 0.11834
 N50 N 1.07037 0.00800 0.14106
 C51 C 0.89751 0.07228 0.15412
 H52 H 0.90142 0.08683 0.17648
 C53 C 0.84241 0.07443 0.13862
 H54 H 0.80488 0.09213 0.14897
 C55 C 0.93697 0.02493 0.11407
 H56 H 0.97186 0.00275 0.10498
 C57 C 0.88161 0.02447 0.09808
 H58 H 0.87547 0.00372 0.07648
 Zn59 Zn 0.99984 0.02182 0.16485
 N60 N 0.94296 0.04724 0.14172
 C61 C 1.07058 0.17139 0.18824
 N62 N 1.05934 0.09941 0.18948
 C63 C 1.09718 0.07964 0.20725
 C64 C 1.14858 0.13287 0.22486
 C65 C 1.12232 0.22696 0.20542
 C66 C 0.88588 -0.13255 0.17417
 C67 C 0.82353 -0.19327 0.18942
 C68 C 0.84794 -0.11473 0.23071
 C69 C 0.91053 -0.05623 0.21492
 N70 N 0.92802 -0.06575 0.18711
 H71 H 1.04147 0.18639 0.17332
 H72 H 1.08770 0.02216 0.20750
 H73 H 1.17657 0.11501 0.23922
 H74 H 1.13217 0.28450 0.20371
 H75 H 0.89868 -0.13761 0.15167
 H76 H 0.78948 -0.24565 0.17875
 H77 H 0.83380 -0.10558 0.25260
 H78 H 0.94259 -0.00180 0.22448
 C79 C 0.83257 0.04787 0.11061
 C80 C 1.18949 0.01001 0.10732
 C81 C 0.80301 -0.18379 0.21781
 C82 C 1.16277 0.20802 0.22380
 C83 C 0.11487 0.96549 0.87334
 H84 H 0.05829 0.91695 0.87651
 C85 C 0.17231 0.96858 0.88864
 H86 H 0.15892 0.92284 0.90407
 C87 C 0.20030 1.08335 0.84894
 H88 H 0.21122 1.12654 0.83276
 C89 C 0.25979 1.08880 0.86389
 H90 H 0.31619 1.13693 0.85931
 N91 N 0.12968 1.02190 0.85382
 C92 C -0.10579 0.95738 0.84708
 H93 H -0.11555 0.93487 0.82582
 C94 C -0.16371 0.96095 0.86352
 H95 H -0.21785 0.93944 0.85460
 C96 C -0.02079 1.01985 0.88272
 H97 H 0.03569 1.04491 0.88975
 C98 C -0.07609 1.02696 0.89939
 H99 H -0.06144 1.05419 0.91973
 Zn100 Zn 0.04732 1.00052 0.83205
 N101 N -0.03604 0.98640 0.85693
 C102 C -0.03448 0.84608 0.81203
 N103 N 0.03086 0.91420 0.81132
 C104 C 0.09447 0.92521 0.79583
 C105 C 0.09464 0.86664 0.78041
 C106 C -0.03745 0.78609 0.79615
 C107 C 0.09288 1.15187 0.81539
 C108 C 0.09063 1.20733 0.79837
 C109 C 0.03318 1.11403 0.76236
 C110 C 0.03821 1.06094 0.77972
 N111 N 0.06643 1.08021 0.80591
 H112 H -0.08412 0.83781 0.82494
 H113 H 0.14593 0.97968 0.79596
 H114 H 0.14718 0.87697 0.76918
 H115 H -0.09065 0.73324 0.79648
 H116 H 0.11198 1.16483 0.83679
 H117 H 0.10956 1.26350 0.80651
 H118 H 0.00777 1.09712 0.74208
 H119 H 0.01495 1.00296 0.77307
 C120 C -0.14878 0.99874 0.88971
 C121 C 0.24630 1.03001 0.88362
 C122 C 0.05818 1.18768 0.77195
 C123 C 0.02806 0.79566 0.78013
 O124 O 0.63521 0.08657 -0.02915
 O125 O 0.48950 0.08447 0.02259
 O126 O 0.61939 0.09126 0.02645
 O127 O 0.51117 0.09233 -0.03299
 O128 O 0.44562 -0.03323 -0.03029
 O129 O 0.56267 -0.03407 0.02623
 O130 O 0.43153 -0.04107 0.02598
 O131 O 0.56934 -0.03887 -0.02957
 Cu132 Cu 0.57000 0.10123 -0.00340
 Cu133 Cu 0.49596 -0.04941 -0.00169
 C134 C 0.62644 0.02392 -0.03845
 C135 C 0.43606 0.02121 0.03332
 C136 C 0.61090 0.02875 0.03609
 C137 C 0.45917 0.02995 -0.04154
 O138 O 0.04611 0.43949 0.63116
 O139 O 0.07170 0.57165 0.68921
 O140 O 0.07414 0.44479 0.68541
 O141 O 0.05828 0.57388 0.63508
 O142 O -0.06497 0.51656 0.64637
 O143 O -0.04976 0.38182 0.69507
 O144 O -0.05155 0.50853 0.70096
 O145 O -0.07750 0.38201 0.64126
 Cu146 Cu 0.07491 0.51283 0.65909
 Cu147 Cu -0.07332 0.44089 0.67184
 C148 C -0.02047 0.38831 0.62620
 C149 C 0.01413 0.56276 0.70484
 C150 C 0.01544 0.39163 0.69896
 C151 C -0.00526 0.56935 0.63290
 O152 O 0.43629 0.41068 0.30531
 O153 O 0.56712 0.53245 0.35793
 O154 O 0.44221 0.40210 0.36062
 O155 O 0.56792 0.53427 0.30190
 O156 O 0.50970 0.60099 0.30694
 O157 O 0.37810 0.46325 0.36400
 O158 O 0.50372 0.59409 0.36291
 O159 O 0.37730 0.47693 0.30891
 Cu160 Cu 0.50963 0.46365 0.33097
 Cu161 Cu 0.43632 0.54043 0.33611
 C162 C 0.38412 0.42292 0.29827
 C163 C 0.55713 0.58379 0.36962
 C164 C 0.38789 0.40899 0.37201
 C165 C 0.56110 0.59059 0.29453
 C166 C 0.01891 0.27578 0.57003
 C167 C -0.05347 0.21554 0.56602
 C168 C -0.11592 0.22120 0.57744
 C169 C -0.10525 0.28045 0.59582
 C170 C -0.03186 0.33499 0.60295
 C171 C 0.02948 0.33419 0.58797
 C172 C 0.09940 0.33985 0.59846
 C173 C 0.08787 0.27588 0.57869
 H174 H -0.17285 0.17716 0.57382
 H175 H -0.15461 0.28049 0.60586
 H176 H 0.09253 0.32333 0.62169
 H177 H 0.15073 0.39505 0.59177
 H178 H 0.07482 0.22259 0.59053
 H179 H 0.13245 0.29439 0.56059
 C180 C 0.71628 0.68003 0.23411
 C181 C 0.73318 0.75585 0.23351
 C182 C 0.68228 0.77304 0.24916
 C183 C 0.62265 0.71768 0.26775
 C184 C 0.61375 0.64452 0.27143
 C185 C 0.65869 0.62600 0.25288
 C186 C 0.70341 0.58823 0.25883
 C187 C 0.76638 0.64739 0.23817
 H188 H 0.69095 0.83025 0.24819
 H189 H 0.58738 0.73397 0.28073
 H190 H 0.67745 0.52962 0.25075
 H191 H 0.71884 0.59352 0.28145
 H192 H 0.77647 0.62286 0.21817
 H193 H 0.81818 0.68685 0.24880
 C194 C 0.36903 0.09917 -0.09292
 C195 C 0.30897 0.03119 -0.10169
 C196 C 0.30933 -0.03674 -0.09522
 C197 C 0.36103 -0.03689 -0.07684
 C198 C 0.41387 0.03095 -0.06467
 C199 C 0.42012 0.09907 -0.07485
 C200 C 0.42462 0.16481 -0.05885
 C201 C 0.36856 0.16480 -0.07864
 H202 H 0.26720 -0.09045 -0.10307
 H203 H 0.35655 -0.09071 -0.07088
 H204 H 0.48166 0.21629 -0.06210
 H205 H 0.40135 0.14925 -0.03607
 H206 H 0.39338 0.21630 -0.09324
 H207 H 0.31269 0.14904 -0.06734
 C208 C -0.08078 0.67275 0.59068
 C209 C -0.01505 0.73891 0.57984
 C210 C 0.05399 0.75298 0.59009
 C211 C 0.05710 0.69816 0.60760
 C212 C -0.00879 0.62821 0.61557
 C213 C -0.07782 0.61907 0.60819
 C214 C -0.14059 0.55423 0.59437
 C215 C -0.14387 0.61295 0.57518
 H216 H 0.10600 0.80544 0.58419
 H217 H 0.11141 0.70999 0.61435
 H218 H -0.19186 0.52250 0.60950
 H219 H -0.12173 0.51828 0.58250
 H220 H -0.19714 0.61481 0.57926
 H221 H -0.12689 0.61119 0.55214
 C222 C 0.28606 0.26571 0.24714
 C223 C 0.21982 0.26583 0.24165
 C224 C 0.20992 0.32367 0.25482
 C225 C 0.26399 0.37625 0.27286
 C226 C 0.32969 0.37271 0.27814
 C227 C 0.33793 0.31644 0.26420
 C228 C 0.38882 0.28383 0.26039
 C229 C 0.33052 0.22640 0.24094
 H230 H 0.15967 0.32721 0.25191
 H231 H 0.25343 0.41841 0.28303
 H232 H 0.39232 0.25758 0.28073
 H233 H 0.44398 0.32413 0.24864
 H234 H 0.30177 0.16713 0.25012
 H235 H 0.35205 0.23351 0.21794
 C236 C 0.71831 -0.03721 -0.09774
 C237 C 0.79599 0.01074 -0.09496
 C238 C 0.81594 0.07283 -0.07666
 C239 C 0.76032 0.07992 -0.05959
 C240 C 0.68347 0.02414 -0.05962
 C241 C 0.66382 -0.03160 -0.08013
 C242 C 0.61291 -0.11574 -0.07742
 C243 C 0.67232 -0.12227 -0.09670
 H244 H 0.87440 0.11607 -0.07518
 H245 H 0.77802 0.12627 -0.04499
 H246 H 0.55929 -0.13439 -0.08770
 H247 H 0.60618 -0.13916 -0.05517
 H248 H 0.65258 -0.14499 -0.11803
 H249 H 0.69983 -0.14950 -0.08564
 C250 C 0.30174 0.07567 0.07079
 C251 C 0.25584 0.01377 0.09008
 C252 C 0.27822 -0.04146 0.09331
 C253 C 0.33823 -0.03854 0.07537
 C254 C 0.37852 0.02063 0.05430
 C255 C 0.36169 0.07933 0.05361
 C256 C 0.34596 0.11344 0.02852
 C257 C 0.28020 0.10946 0.04724
 H258 H 0.24877 -0.08803 0.10910
 H259 H 0.35176 -0.08351 0.07750
 H260 H 0.32790 0.07510 0.01010
 H261 H 0.39211 0.17266 0.02300
 H262 H 0.22397 0.06889 0.03969
 H263 H 0.28860 0.16660 0.05231
 C264 C 0.65112 0.74068 0.42201
 C265 C 0.71634 0.73775 0.42807
 C266 C 0.71963 0.67295 0.41803
 C267 C 0.66628 0.62112 0.40007
 C268 C 0.60765 0.63175 0.39134
 C269 C 0.59896 0.68960 0.40407
 C270 C 0.58689 0.74879 0.39049
 C271 C 0.64394 0.80508 0.40986
 H272 H 0.76280 0.66067 0.42381
 H273 H 0.67298 0.57446 0.39213
 H274 H 0.52856 0.73842 0.39574
 H275 H 0.60691 0.76000 0.36728
 H276 H 0.61811 0.82756 0.42596
 H277 H 0.69709 0.84906 0.39790
 C278 C 0.10226 0.31692 0.74975
 C279 C 0.04477 0.24174 0.75568
 C280 C -0.02722 0.21983 0.74634
 C281 C -0.03802 0.26972 0.72882
 C282 C 0.02341 0.34180 0.71979
 C283 C 0.09214 0.36532 0.73190
 C284 C 0.17098 0.40004 0.71817
 C285 C 0.18206 0.34709 0.73780
 H286 H -0.07443 0.16332 0.75179
 H287 H -0.09320 0.25016 0.72105
 H288 H 0.20586 0.46105 0.72309
 H289 H 0.17283 0.38732 0.69503
 H290 H 0.22315 0.37760 0.75407
 H291 H 0.19041 0.30377 0.72606
 C292 C 0.75286 0.09862 0.09255
 C293 C 0.76795 0.03895 0.09532
 C294 C 0.71964 -0.03023 0.08272
 C295 C 0.66467 -0.03533 0.06484
 C296 C 0.65802 0.02915 0.05877
 C297 C 0.69996 0.09421 0.07439
 C298 C 0.74784 0.17595 0.06471
 C299 C 0.80562 0.18072 0.08469
 H300 H 0.72687 -0.07918 0.08555
 H301 H 0.63146 -0.08800 0.05420
 H302 H 0.72129 0.21029 0.07163
 H303 H 0.76837 0.18346 0.04157
 H304 H 0.81212 0.21758 0.10315
 H305 H 0.85956 0.19103 0.07315
 C306 C 0.30120 0.24505 0.42728
 C307 C 0.22568 0.22744 0.43039
 C308 C 0.20767 0.27988 0.41855
 C309 C 0.26218 0.34255 0.40103
 C310 C 0.33518 0.35285 0.39452
 C311 C 0.35434 0.30554 0.40940
 C312 C 0.39209 0.26214 0.39896
 C313 C 0.33394 0.19600 0.41864
 H314 H 0.15057 0.27035 0.42168
 H315 H 0.24535 0.37927 0.39092
 H316 H 0.45059 0.28730 0.40573
 H317 H 0.38631 0.24994 0.37574
 H318 H 0.35895 0.18330 0.43679
 H319 H 0.29462 0.14561 0.40684
 C320 C 0.08483 0.74896 0.74111
 C321 C 0.02857 0.73297 0.76344
 C322 C -0.02552 0.65529 0.76951
 C323 C -0.02851 0.59848 0.75128
 C324 C 0.02372 0.61771 0.72706
 C325 C 0.08282 0.69285 0.72359
 C326 C 0.11135 0.74461 0.69737
 C327 C 0.11339 0.80615 0.71646
 H328 H -0.06745 0.63811 0.78758
 H329 H -0.07354 0.54019 0.75543
 H330 H 0.06889 0.72680 0.68112
 H331 H 0.16847 0.75643 0.68885
 H332 H 0.07202 0.82403 0.71137
 H333 H 0.17183 0.85356 0.71867
   
