data_POSCAR
  _audit_creation_date              2014-09-24
  _audit_creation_method            'ToBaCCo'
  _symmetry_space_group_name_H-M    'P1'
  _symmetry_Int_Tables_number       1
  _symmetry_cell_setting            triclinic
  loop_
  _symmetry_equiv_pos_as_xyz
 x,y,z
_cell_length_a 47.8188
_cell_length_b 26.5247
_cell_length_c 16.7287
_cell_angle_alpha 88.886700
_cell_angle_beta 90.390700
_cell_angle_gamma 90.988000
loop_
  _atom_site_label
  _atom_site_type_symbol
  _atom_site_fract_x
  _atom_site_fract_y
  _atom_site_fract_z
C1 C 0.72051 0.25341 0.52678
 C2 C 0.72757 0.26076 0.44514
 C3 C 0.75287 0.24265 0.41650
 C4 C 0.77135 0.21489 0.46591
 C5 C 0.76393 0.20621 0.54772
 C6 C 0.73810 0.22330 0.57496
 H7 H 0.73239 0.21416 0.63599
 H8 H 0.75686 0.24780 0.35332
 C9 C 0.22884 0.77001 0.54133
 C10 C 0.22590 0.76395 0.45167
 C11 C 0.24860 0.74815 0.40647
 C12 C 0.27411 0.73447 0.44166
 C13 C 0.27788 0.73523 0.52596
 C14 C 0.25618 0.75323 0.57363
 H15 H 0.25918 0.75829 0.63702
 H16 H 0.24617 0.74464 0.34235
 C17 C 0.26645 0.28954 -0.54915
 C18 C 0.27243 0.28136 -0.46729
 C19 C 0.25531 0.24807 -0.42284
 C20 C 0.23149 0.22466 -0.45637
 C21 C 0.22560 0.23214 -0.53981
 C22 C 0.24314 0.26568 -0.58395
 H23 H 0.24030 0.27115 -0.64761
 H24 H 0.25933 0.24339 -0.35926
 C25 C -0.22653 0.76098 -0.54316
 C26 C -0.23049 0.77589 -0.46325
 C27 C -0.25572 0.76385 -0.42462
 C28 C -0.27724 0.73631 -0.46295
 C29 C -0.27431 0.72583 -0.54579
 C30 C -0.24833 0.73553 -0.58266
 H31 H -0.24552 0.72593 -0.64484
 H32 H -0.25719 0.77246 -0.36183
 O33 O -0.03911 0.90798 0.13839
 O34 O -0.06957 0.95827 0.06806
 C35 C -0.06410 0.92413 0.12189
 O36 O 0.04417 1.08116 0.13573
 O37 O 0.07201 1.03570 0.05328
 C38 C 0.06844 1.06796 0.10930
 O39 O -0.03432 1.08125 0.15262
 O40 O -0.06833 1.04109 0.07108
 C41 C -0.06195 1.07211 0.13201
 O42 O 0.03960 0.89884 0.11716
 O43 O 0.06979 0.94812 0.04169
 C44 C 0.06452 0.91162 0.09198
 Zr45 Zr -0.00008 0.92999 0.08598
 O46 O 0.00522 0.91936 0.21074
 O47 O -0.00575 0.85125 0.07243
 Zr48 Zr 0.00348 1.05685 0.10000
 O49 O 0.00847 1.04983 0.22560
 O50 O 0.00449 1.13649 0.10273
 O51 O -0.02299 0.99414 0.11154
 O52 O 0.02628 0.99137 0.10372
 O53 O 0.03337 0.91436 -0.16436
 O54 O 0.06711 0.95564 -0.09102
 C55 C 0.05920 0.92505 -0.14683
 O56 O -0.03852 1.09888 -0.13671
 O57 O -0.06968 1.04897 -0.06622
 C58 C -0.06363 1.08517 -0.11686
 O59 O 0.03870 1.09895 -0.13751
 O60 O 0.06957 1.04315 -0.08105
 C61 C 0.06367 1.08249 -0.12490
 O62 O -0.04429 0.92267 -0.15811
 O63 O -0.07251 0.96480 -0.07249
 C64 C -0.06865 0.93552 -0.13245
 Zr65 Zr -0.00389 0.94134 -0.11495
 O66 O -0.00359 0.94608 -0.24137
 O67 O -0.00901 0.86195 -0.11860
 Zr68 Zr -0.00006 1.06836 -0.10069
 O69 O 0.00092 1.07374 -0.22716
 O70 O -0.00036 1.14787 -0.09276
 Zr71 Zr -0.04175 1.00149 -0.00267
 Zr72 Zr 0.04151 0.99690 -0.01413
 O73 O 0.02191 1.00452 -0.12644
 O74 O -0.02706 1.00722 -0.12081
 O75 O 0.02274 0.92447 -0.01929
 O76 O -0.02240 1.07302 0.00403
 O77 O -0.02668 0.92783 -0.01200
 O78 O 0.02694 1.07087 -0.00272
 H79 H 0.03969 0.98821 0.14888
 H80 H -0.03411 1.10324 0.00900
 H81 H 0.03357 1.00702 -0.17514
 H82 H -0.04042 0.89944 -0.01279
 H83 H 0.00608 1.14541 0.15986
 H84 H 0.01173 1.15698 -0.04686
 H85 H -0.01662 1.05831 -0.24775
 H86 H -0.01692 0.97248 -0.25777
 H87 H 0.00786 0.84684 -0.09420
 H88 H 0.01088 0.83869 0.04472
 H89 H -0.00562 0.94575 0.23683
 H90 H -0.00788 1.03057 0.24657
 O91 O 0.46852 0.40273 0.14227
 O92 O 0.43476 0.44366 0.06919
 C93 C 0.44269 0.41170 0.12412
 O94 O 0.53627 0.59583 0.14455
 O95 O 0.56888 0.55822 0.06609
 C96 C 0.56185 0.58876 0.12161
 O97 O 0.45777 0.57473 0.15067
 O98 O 0.42946 0.52550 0.07124
 C99 C 0.43342 0.55664 0.12909
 O100 O 0.54607 0.41388 0.13101
 O101 O 0.57364 0.47121 0.06236
 C102 C 0.57024 0.43301 0.11107
 Zr103 Zr 0.50551 0.43564 0.09516
 O104 O 0.50903 0.43180 0.22130
 O105 O 0.50653 0.35602 0.08868
 Zr106 Zr 0.49824 0.56225 0.10285
 O107 O 0.49778 0.56342 0.22937
 O108 O 0.49316 0.64117 0.09613
 O109 O 0.47733 0.49305 0.11498
 O110 O 0.52613 0.50355 0.11342
 O111 O 0.54430 0.42300 -0.14720
 O112 O 0.57351 0.47619 -0.06953
 C113 C 0.57048 0.43981 -0.12576
 O114 O 0.45631 0.58593 -0.14089
 O115 O 0.42874 0.53089 -0.06705
 C116 C 0.43219 0.56645 -0.12041
 O117 O 0.53424 0.60807 -0.13388
 O118 O 0.56811 0.56277 -0.06792
 C119 C 0.56015 0.59874 -0.11614
 O120 O 0.46693 0.41137 -0.15257
 O121 O 0.43395 0.44767 -0.07423
 C122 C 0.44131 0.41844 -0.13150
 Zr123 Zr 0.50435 0.44276 -0.10627
 O124 O 0.50675 0.44912 -0.23243
 O125 O 0.50560 0.36308 -0.11031
 Zr126 Zr 0.49714 0.56903 -0.09857
 O127 O 0.49975 0.57306 -0.22486
 O128 O 0.48985 0.64741 -0.09492
 Zr129 Zr 0.45981 0.49333 -0.00104
 Zr130 Zr 0.54277 0.51134 -0.00224
 O131 O 0.52498 0.51155 -0.11742
 O132 O 0.47581 0.50107 -0.11783
 O133 O 0.53040 0.43483 -0.00669
 O134 O 0.47284 0.56942 0.00317
 O135 O 0.48110 0.42479 -0.00554
 O136 O 0.52205 0.58073 0.00247
 H137 H 0.53915 0.50410 0.15967
 H138 H 0.45851 0.59590 0.00531
 H139 H 0.53753 0.51565 -0.16406
 H140 H 0.47003 0.39289 -0.00655
 H141 H 0.49201 0.65241 0.15213
 H142 H 0.50223 0.66132 -0.05283
 H143 H 0.48435 0.55198 -0.24666
 H144 H 0.48975 0.46642 -0.25164
 H145 H 0.52189 0.35207 -0.07813
 H146 H 0.52320 0.34729 0.05748
 H147 H 0.49468 0.45419 0.24290
 H148 H 0.51123 0.53826 0.24954
 C149 C 0.28507 0.31979 0.39766
 C150 C 0.31380 0.31155 0.39662
 C151 C 0.33351 0.33598 0.33948
 C152 C 0.36219 0.33392 0.35692
 C153 C 0.38184 0.35451 0.30384
 C154 C 0.37323 0.37705 0.23114
 C155 C 0.34453 0.37996 0.21415
 C156 C 0.32481 0.35936 0.26744
 C157 C 0.39360 0.39918 0.17360
 C158 C 0.42141 0.38429 0.17130
 H159 H 0.32241 0.28509 0.43998
 H160 H 0.36945 0.31645 0.41218
 H161 H 0.40367 0.35326 0.32089
 H162 H 0.33738 0.39752 0.15886
 H163 H 0.30297 0.36100 0.25081
 H164 H 0.38651 0.42832 0.13230
 H165 H 0.27546 0.34442 0.35363
 H166 H 0.42848 0.35356 0.20932
 C167 C -0.20045 0.77168 0.41146
 C168 C -0.18753 0.81929 0.40919
 C169 C -0.16152 0.83089 0.36421
 C170 C -0.15624 0.88073 0.33849
 C171 C -0.13215 0.89326 0.29513
 C172 C -0.11258 0.85618 0.27714
 C173 C -0.11719 0.80670 0.30588
 C174 C -0.14155 0.79400 0.34858
 C175 C -0.08735 0.86893 0.22913
 C176 C -0.08843 0.90484 0.16726
 H177 H -0.19768 0.85001 0.43860
 H178 H -0.17098 0.91005 0.35120
 H179 H -0.12876 0.93217 0.27642
 H180 H -0.10218 0.77770 0.29409
 H181 H -0.14449 0.75554 0.37003
 H182 H -0.06817 0.84884 0.24076
 H183 H -0.19280 0.74249 0.37335
 H184 H -0.10842 0.92121 0.15200
 C185 C 0.70361 0.70803 0.40511
 C186 C 0.67534 0.71808 0.41852
 C187 C 0.65211 0.69850 0.36830
 C188 C 0.65509 0.65612 0.32017
 C189 C 0.63250 0.63785 0.27529
 C190 C 0.60639 0.66153 0.27746
 C191 C 0.60324 0.70304 0.32701
 C192 C 0.62588 0.72141 0.37185
 C193 C 0.58199 0.64223 0.23158
 C194 C 0.58508 0.61511 0.16178
 H195 H 0.66993 0.74393 0.46505
 H196 H 0.67456 0.63606 0.31844
 H197 H 0.63544 0.60430 0.24082
 H198 H 0.58325 0.72144 0.33076
 H199 H 0.62290 0.75364 0.40948
 H200 H 0.56118 0.64954 0.25330
 H201 H 0.70896 0.69159 0.34858
 H202 H 0.60572 0.61060 0.13704
 C203 C 0.20446 1.20354 0.42090
 C204 C 0.19266 1.21542 0.34603
 C205 C 0.16802 1.18782 0.31362
 C206 C 0.16458 1.18475 0.23052
 C207 C 0.14086 1.16112 0.19795
 C208 C 0.11985 1.14078 0.24806
 C209 C 0.12301 1.14474 0.33115
 C210 C 0.14694 1.16768 0.36378
 C211 C 0.09408 1.11716 0.21507
 C212 C 0.09393 1.09091 0.14365
 H213 H 0.20048 1.24678 0.31014
 H214 H 0.18027 1.20084 0.19068
 H215 H 0.13870 1.16003 0.13356
 H216 H 0.10691 1.13001 0.37089
 H217 H 0.14845 1.17093 0.42806
 H218 H 0.07508 1.11822 0.24992
 H219 H 0.19630 1.16995 0.45059
 H220 H 0.11344 1.08529 0.11282
 C221 C 0.69705 0.27733 -0.44055
 C222 C 0.69195 0.28178 -0.35866
 C223 C 0.66754 0.30854 -0.32820
 C224 C 0.67004 0.33374 -0.25557
 C225 C 0.64730 0.35894 -0.22446
 C226 C 0.62143 0.35865 -0.26498
 C227 C 0.61882 0.33291 -0.33718
 C228 C 0.64169 0.30816 -0.36878
 C229 C 0.59677 0.38333 -0.23184
 C230 C 0.59905 0.41544 -0.16762
 H231 H 0.70737 0.27041 -0.31474
 H232 H 0.68970 0.33415 -0.22302
 H233 H 0.64993 0.37799 -0.16817
 H234 H 0.59902 0.33177 -0.36899
 H235 H 0.63893 0.28791 -0.42391
 H236 H 0.57634 0.37575 -0.25793
 H237 H 0.68309 0.29769 -0.47996
 H238 H 0.58481 0.42728 -0.14725
 C239 C 0.20574 0.79344 -0.39467
 C240 C 0.18568 0.82883 -0.41471
 C241 C 0.16663 0.84913 -0.35458
 C242 C 0.14250 0.87394 -0.38076
 C243 C 0.12377 0.89285 -0.32564
 C244 C 0.12901 0.88785 -0.24308
 C245 C 0.15360 0.86459 -0.21673
 C246 C 0.17214 0.84480 -0.27195
 C247 C 0.10900 0.90695 -0.18443
 C248 C 0.08030 0.90222 -0.19747
 H249 H 0.18366 0.84202 -0.47614
 H250 H 0.13796 0.87820 -0.44405
 H251 H 0.10531 0.91184 -0.34768
 H252 H 0.15815 0.86082 -0.15339
 H253 H 0.19081 0.82646 -0.24999
 H254 H 0.11687 0.92308 -0.12950
 H255 H 0.21556 0.78246 -0.43285
 H256 H 0.07278 0.88154 -0.24879
 C257 C 0.30344 0.72002 -0.43840
 C258 C 0.30667 0.70715 -0.35717
 C259 C 0.33290 0.68770 -0.32154
 C260 C 0.33128 0.66109 -0.24839
 C261 C 0.35519 0.64118 -0.21261
 C262 C 0.38140 0.64724 -0.24955
 C263 C 0.38323 0.67525 -0.32141
 C264 C 0.35925 0.69536 -0.35722
 C265 C 0.40716 0.62613 -0.21363
 C266 C 0.40675 0.58588 -0.15866
 H267 H 0.28862 0.70573 -0.31864
 H268 H 0.31136 0.65543 -0.21880
 H269 H 0.35296 0.62179 -0.15553
 H270 H 0.40326 0.68134 -0.35021
 H271 H 0.36164 0.71723 -0.41201
 H272 H 0.42712 0.64196 -0.23274
 H273 H 0.32126 0.71481 -0.47623
 H274 H 0.38718 0.56744 -0.14267
 C275 C -0.21864 1.18318 -0.39406
 C276 C -0.18950 1.18851 -0.39329
 C277 C -0.17066 1.16363 -0.33459
 C278 C -0.14205 1.17555 -0.33876
 C279 C -0.12307 1.15287 -0.28644
 C280 C -0.13230 1.11800 -0.22740
 C281 C -0.16083 1.10508 -0.22414
 C282 C -0.17990 1.12755 -0.27720
 C283 C -0.11242 1.09298 -0.17169
 C284 C -0.08606 1.11363 -0.15554
 H285 H -0.17980 1.21427 -0.43623
 H286 H -0.13420 1.20221 -0.38350
 H287 H -0.10115 1.16211 -0.29423
 H288 H -0.16840 1.07751 -0.18043
 H289 H -0.20160 1.11594 -0.27313
 H290 H -0.11828 1.05680 -0.14501
 H291 H -0.22847 1.16697 -0.34128
 H292 H -0.08040 1.15066 -0.17898
 C293 C 0.70109 0.71325 -0.41735
 C294 C 0.69252 0.72875 -0.34201
 C295 C 0.67129 0.69970 -0.29567
 C296 C 0.65147 0.72517 -0.25087
 C297 C 0.63102 0.69815 -0.20757
 C298 C 0.63050 0.64512 -0.20706
 C299 C 0.65094 0.61972 -0.24959
 C300 C 0.67099 0.64670 -0.29417
 C301 C 0.60925 0.61540 -0.16189
 C302 C 0.58169 0.63096 -0.15465
 H303 H 0.69942 0.76483 -0.31930
 H304 H 0.65157 0.76601 -0.25034
 H305 H 0.61592 0.71872 -0.17366
 H306 H 0.65114 0.57888 -0.24922
 H307 H 0.68650 0.62609 -0.32651
 H308 H 0.61477 0.57807 -0.14024
 H309 H 0.69002 0.68120 -0.44227
 H310 H 0.57520 0.66577 -0.18353
 C311 C 0.21424 1.19712 -0.40239
 C312 C 0.18511 1.19464 -0.40845
 C313 C 0.16690 1.16640 -0.35156
 C314 C 0.13816 1.17557 -0.35444
 C315 C 0.11997 1.15047 -0.30199
 C316 C 0.13017 1.11582 -0.24456
 C317 C 0.15875 1.10499 -0.24358
 C318 C 0.17703 1.13001 -0.29661
 C319 C 0.11113 1.08958 -0.18753
 C320 C 0.08607 1.11096 -0.16512
 H321 H 0.17483 1.21769 -0.45358
 H322 H 0.12967 1.20232 -0.39755
 H323 H 0.09787 1.15789 -0.30777
 H324 H 0.16697 1.07746 -0.20132
 H325 H 0.19888 1.12026 -0.29457
 H326 H 0.11658 1.05253 -0.16448
 H327 H 0.22359 1.18378 -0.34697
 H328 H 0.08127 1.14896 -0.18481
 C329 C 0.29460 0.31102 -0.42578
 C330 C 0.31021 0.29095 -0.36228
 C331 C 0.33104 0.32064 -0.31634
 C332 C 0.35301 0.29535 -0.27787
 C333 C 0.37276 0.32187 -0.23250
 C334 C 0.37071 0.37429 -0.22383
 C335 C 0.34828 0.39945 -0.26025
 C336 C 0.32870 0.37299 -0.30669
 C337 C 0.39160 0.40304 -0.17663
 C338 C 0.41972 0.39013 -0.17552
 H339 H 0.30795 0.25112 -0.34770
 H340 H 0.35496 0.25492 -0.28322
 H341 H 0.38937 0.30114 -0.20323
 H342 H 0.34610 0.43973 -0.25351
 H343 H 0.31151 0.39339 -0.33348
 H344 H 0.38518 0.43697 -0.14727
 H345 H 0.29923 0.34896 -0.44738
 H346 H 0.42660 0.35960 -0.21227
 C347 C -0.20861 0.80168 -0.41560
 C348 C -0.18128 0.78441 -0.41068
 C349 C -0.15902 0.81032 -0.36474
 C350 C -0.16480 0.83867 -0.29683
 C351 C -0.14313 0.86242 -0.25460
 C352 C -0.11522 0.85826 -0.27952
 C353 C -0.10957 0.82946 -0.34692
 C354 C -0.13121 0.80560 -0.38887
 C355 C -0.09130 0.88184 -0.23661
 C356 C -0.09361 0.91517 -0.17333
 H357 H -0.17559 0.75208 -0.44527
 H358 H -0.18591 0.84173 -0.27491
 H359 H -0.14853 0.88312 -0.20213
 H360 H -0.08829 0.82530 -0.36726
 H361 H -0.12623 0.78375 -0.44080
 H362 H -0.07055 0.87233 -0.25639
 H363 H -0.21489 0.83328 -0.38040
 H364 H -0.11379 0.92681 -0.15259
 C365 C 0.29666 0.71949 0.38693
 C366 C 0.30808 0.67141 0.39040
 C367 C 0.33306 0.65728 0.34447
 C368 C 0.33752 0.60623 0.32922
 C369 C 0.36151 0.59136 0.28912
 C370 C 0.38178 0.62734 0.26435
 C371 C 0.37764 0.67827 0.28118
 C372 C 0.35345 0.69322 0.32034
 C373 C 0.40763 0.61260 0.22293
 C374 C 0.40824 0.57143 0.17239
 H375 H 0.29855 0.64322 0.42983
 H376 H 0.32241 0.57772 0.34858
 H377 H 0.36442 0.55159 0.27928
 H378 H 0.39312 0.70660 0.26367
 H379 H 0.35116 0.73272 0.33344
 H380 H 0.42609 0.63659 0.22821
 H381 H 0.30334 0.74632 0.34107
 H382 H 0.38909 0.55038 0.16066
 C383 C -0.20504 1.19190 0.43262
 C384 C -0.19182 1.20761 0.36182
 C385 C -0.16563 1.18484 0.33468
 C386 C -0.16071 1.18192 0.25252
 C387 C -0.13609 1.16107 0.22476
 C388 C -0.11557 1.14363 0.27885
 C389 C -0.12008 1.14798 0.36113
 C390 C -0.14499 1.16809 0.38898
 C391 C -0.08959 1.12088 0.24995
 C392 C -0.08940 1.09898 0.17550
 H393 H -0.20003 1.23794 0.32512
 H394 H -0.17611 1.19531 0.20969
 H395 H -0.13304 1.15904 0.16082
 H396 H -0.10447 1.13527 0.40385
 H397 H -0.14780 1.17136 0.45281
 H398 H -0.07121 1.11936 0.28819
 H399 H -0.19600 1.16016 0.46421
 H400 H -0.07424 1.08765 0.15916
 C401 C 0.70897 0.28663 0.38691
 C402 C 0.68180 0.26864 0.37339
 C403 C 0.66094 0.29407 0.32140
 C404 C 0.66428 0.34433 0.29397
 C405 C 0.64295 0.36786 0.25011
 C406 C 0.61787 0.34160 0.23296
 C407 C 0.61474 0.29141 0.25986
 C408 C 0.63601 0.26794 0.30346
 C409 C 0.59383 0.36560 0.19191
 C410 C 0.59545 0.41039 0.14670
 H411 H 0.67523 0.23433 0.40478
 H412 H 0.68283 0.36630 0.30833
 H413 H 0.64591 0.40699 0.23240
 H414 H 0.59559 0.27037 0.24795
 H415 H 0.63276 0.22937 0.32433
 H416 H 0.57372 0.34637 0.19688
 H417 H 0.71774 0.31684 0.35012
 H418 H 0.61542 0.42888 0.13564
 C419 C 0.19839 0.77342 0.41342
 C420 C 0.19563 0.79556 0.33749
 C421 C 0.16841 0.81044 0.30183
 C422 C 0.16850 0.84718 0.24050
 C423 C 0.14351 0.86336 0.20578
 C424 C 0.11763 0.84235 0.23043
 C425 C 0.11749 0.80552 0.29184
 C426 C 0.14259 0.78944 0.32699
 C427 C 0.09066 0.85972 0.19558
 C428 C 0.08916 0.88443 0.12135
 H429 H 0.21444 0.80661 0.30547
 H430 H 0.18802 0.86425 0.22030
 H431 H 0.14476 0.89327 0.16111
 H432 H 0.09790 0.78892 0.31240
 H433 H 0.14159 0.76028 0.37298
 H434 H 0.07172 0.85417 0.23007
 H435 H 0.17999 0.76631 0.44929
 H436 H 0.10769 0.88816 0.08490
   
