data_POSCAR
  _audit_creation_date              2014-09-24
  _audit_creation_method            'ToBaCCo'
  _symmetry_space_group_name_H-M    'P1'
  _symmetry_Int_Tables_number       1
  _symmetry_cell_setting            triclinic
  loop_
  _symmetry_equiv_pos_as_xyz
 x,y,z
_cell_length_a 51.0680
_cell_length_b 53.5369
_cell_length_c 47.0962
_cell_angle_alpha 90.426400
_cell_angle_beta 90.143100
_cell_angle_gamma 92.909100
loop_
  _atom_site_label
  _atom_site_type_symbol
  _atom_site_fract_x
  _atom_site_fract_y
  _atom_site_fract_z
C1 C 0.20325 0.18135 0.20136
 C2 C 0.19050 0.17237 0.22590
 C3 C 0.16907 0.18460 0.23689
 C4 C 0.16040 0.20600 0.22361
 C5 C 0.17291 0.21519 0.19908
 C6 C 0.19441 0.20284 0.18782
 C7 C 0.22437 0.16899 0.18984
 C8 C 0.23661 0.17780 0.16499
 C9 C 0.22792 0.19917 0.15155
 C10 C 0.20681 0.21178 0.16280
 C11 C 0.19755 0.23290 0.14925
 C12 C 0.17614 0.24499 0.16047
 C13 C 0.16397 0.23624 0.18532
 H14 H 0.19704 0.15571 0.23620
 H15 H 0.14370 0.21530 0.23213
 H16 H 0.23111 0.15237 0.20005
 H17 H 0.23739 0.20582 0.13224
 H18 H 0.20674 0.23975 0.12988
 H19 H 0.14731 0.24566 0.19371
 C20 C -0.22838 0.80768 0.20840
 C21 C -0.22000 0.81513 0.23571
 C22 C -0.19997 0.80276 0.24928
 C23 C -0.18855 0.78258 0.23588
 C24 C -0.19669 0.77495 0.20858
 C25 C -0.21662 0.78757 0.19466
 C26 C -0.24770 0.82051 0.19422
 C27 C -0.25522 0.81359 0.16650
 C28 C -0.24366 0.79357 0.15284
 C29 C -0.22430 0.78049 0.16675
 C30 C -0.21192 0.76093 0.15301
 C31 C -0.19205 0.74860 0.16688
 C32 C -0.18462 0.75546 0.19459
 H33 H -0.22856 0.83093 0.24609
 H34 H -0.17284 0.77327 0.24636
 H35 H -0.25656 0.83616 0.20457
 H36 H -0.24942 0.78844 0.13129
 H37 H -0.21737 0.75561 0.13145
 H38 H -0.16904 0.74594 0.20501
 C39 C -0.22422 0.20184 -0.24516
 C40 C -0.21054 0.19211 -0.26820
 C41 C -0.18828 0.20517 -0.27890
 C42 C -0.17979 0.22821 -0.26700
 C43 C -0.19322 0.23817 -0.24397
 C44 C -0.21550 0.22495 -0.23287
 C45 C -0.24598 0.18852 -0.23367
 C46 C -0.25894 0.19792 -0.20999
 C47 C -0.25039 0.22091 -0.19779
 C48 C -0.22864 0.23453 -0.20907
 C49 C -0.21930 0.25718 -0.19654
 C50 C -0.19708 0.27012 -0.20755
 C51 C -0.18424 0.26074 -0.23127
 H52 H -0.21681 0.17415 -0.27741
 H53 H -0.16237 0.23804 -0.27526
 H54 H -0.25253 0.17061 -0.24284
 H55 H -0.26035 0.22799 -0.17930
 H56 H -0.22895 0.26449 -0.17798
 H57 H -0.16690 0.27078 -0.23943
 C58 C 0.23052 0.79668 -0.25695
 C59 C 0.21763 0.80606 -0.28065
 C60 C 0.19545 0.79305 -0.29201
 C61 C 0.18631 0.77036 -0.28010
 C62 C 0.19896 0.76075 -0.25641
 C63 C 0.22111 0.77396 -0.24467
 C64 C 0.25205 0.81006 -0.24470
 C65 C 0.26408 0.80111 -0.22030
 C66 C 0.25490 0.77850 -0.20816
 C67 C 0.23338 0.76484 -0.22016
 C68 C 0.22334 0.74267 -0.20758
 C69 C 0.20123 0.72974 -0.21919
 C70 C 0.18924 0.73864 -0.24362
 H71 H 0.22444 0.82377 -0.28978
 H72 H 0.16895 0.76053 -0.28879
 H73 H 0.25910 0.82772 -0.25373
 H74 H 0.26415 0.77188 -0.18908
 H75 H 0.23230 0.73577 -0.18847
 H76 H 0.17195 0.72864 -0.25223
 C77 C 0.18715 1.22700 0.80991
 C78 C 0.17393 1.21312 0.78833
 C79 C 0.18367 1.19058 0.77857
 C80 C 0.20675 1.18187 0.79022
 C81 C 0.22016 1.19548 0.81178
 C82 C 0.21037 1.21813 0.82173
 C83 C 0.17742 1.24940 0.82015
 C84 C 0.19059 1.26289 0.84199
 C85 C 0.21366 1.25413 0.85366
 C86 C 0.22366 1.23178 0.84369
 C87 C 0.24653 1.22264 0.85552
 C88 C 0.25611 1.20011 0.84564
 C89 C 0.24302 1.18665 0.82381
 H90 H 0.15600 1.21975 0.77931
 H91 H 0.21416 1.16438 0.78266
 H92 H 0.15951 1.25621 0.81129
 H93 H 0.22369 1.26459 0.87065
 H94 H 0.25675 1.23288 0.87253
 H95 H 0.25055 1.16917 0.81639
 C96 C 0.81193 0.77786 0.81447
 C97 C 0.82522 0.79082 0.79256
 C98 C 0.81516 0.81258 0.78136
 C99 C 0.79168 0.82141 0.79190
 C100 C 0.77818 0.80869 0.81377
 C101 C 0.78831 0.78682 0.82516
 C102 C 0.82197 0.75625 0.82608
 C103 C 0.80873 0.74362 0.84821
 C104 C 0.78526 0.75247 0.85880
 C105 C 0.77493 0.77405 0.84742
 C106 C 0.75162 0.78328 0.85811
 C107 C 0.74170 0.80503 0.84680
 C108 C 0.75488 0.81762 0.82468
 H109 H 0.84345 0.78410 0.78439
 H110 H 0.78402 0.83830 0.78322
 H111 H 0.84018 0.74936 0.81805
 H112 H 0.77515 0.74268 0.87599
 H113 H 0.74133 0.77373 0.87532
 H114 H 0.74709 0.83450 0.81616
 C115 C 0.20728 0.76606 1.24856
 C116 C 0.19510 0.77931 1.27028
 C117 C 0.20641 0.80216 1.28023
 C118 C 0.23007 0.81178 1.26875
 C119 C 0.24248 0.79884 1.24703
 C120 C 0.23108 0.77587 1.23687
 C121 C 0.19575 0.74356 1.23772
 C122 C 0.20775 0.73096 1.21540
 C123 C 0.23146 0.74060 1.20403
 C124 C 0.24318 0.76304 1.21453
 C125 C 0.26635 0.77327 1.20245
 C126 C 0.27742 0.79617 1.21233
 C127 C 0.26567 0.80883 1.23469
 H128 H 0.17664 0.77213 1.27911
 H129 H 0.23852 0.82959 1.27638
 H130 H 0.17727 0.73612 1.24626
 H131 H 0.24051 0.73089 1.18659
 H132 H 0.27546 0.76374 1.18493
 H133 H 0.27426 0.82668 1.24200
 C134 C 0.81221 1.22818 1.22493
 C135 C 0.82614 1.21417 1.24444
 C136 C 0.81557 1.19103 1.25399
 C137 C 0.79095 1.18183 1.24420
 C138 C 0.77679 1.19557 1.22471
 C139 C 0.78742 1.21885 1.21503
 C140 C 0.82281 1.25110 1.21469
 C141 C 0.80891 1.26460 1.19475
 C142 C 0.78428 1.25544 1.18512
 C143 C 0.77343 1.23260 1.19506
 C144 C 0.74912 1.22298 1.18486
 C145 C 0.73874 1.19982 1.19429
 C146 C 0.75243 1.18620 1.21426
 H147 H 0.84526 1.22114 1.25198
 H148 H 0.78292 1.16387 1.25154
 H149 H 0.84196 1.25827 1.22186
 H150 H 0.77379 1.26592 1.16951
 H151 H 0.73847 1.23328 1.16922
 H152 H 0.74431 1.16818 1.22127
 O153 O 0.51257 0.97344 0.95228
 O154 O 0.47333 0.97740 1.05236
 O155 O 0.55173 0.99904 1.02294
 O156 O 0.46462 0.96755 0.96472
 O157 O 0.52218 0.97815 1.04780
 O158 O 0.47219 0.99331 0.93270
 O159 O 0.46055 0.96063 1.01284
 O160 O 0.54792 0.98751 0.97283
 C161 C 0.53581 0.97070 0.95877
 C162 C 0.46274 0.95955 1.03891
 C163 C 0.54521 0.98133 1.03934
 C164 C 0.46073 0.97356 0.93988
 O165 O 0.48508 1.03467 0.95597
 O166 O 0.52349 1.02721 1.05094
 O167 O 0.53236 1.03460 0.96141
 O168 O 0.44387 1.00728 1.02249
 O169 O 0.47396 1.02557 1.05026
 O170 O 0.51807 1.01393 0.92454
 O171 O 0.44875 1.01645 0.97161
 O172 O 0.53286 1.04419 1.01075
 Co173 Co 0.49959 1.00422 0.95565
 Co174 Co 0.49829 1.00206 1.04540
 Co175 Co 0.53746 1.01497 0.99241
 Co176 Co 0.45778 0.98917 0.99308
 O177 O 0.49716 1.00170 0.99862
 C178 C 0.46101 1.03527 0.96088
 C179 C 0.53215 1.04555 1.03698
 C180 C 0.53535 1.02969 0.93535
 C181 C 0.45074 1.02307 1.04157
 O182 O 0.02910 0.48225 0.05440
 O183 O 0.01351 0.52984 -0.06029
 O184 O 0.01737 0.45733 -0.02157
 O185 O 0.04844 0.53990 0.02014
 O186 O 0.03303 0.49066 -0.04150
 O187 O 0.03029 0.52912 0.05938
 O188 O 0.04100 0.53632 -0.02812
 O189 O 0.00674 0.45434 0.02874
 C190 C 0.02530 0.46029 0.04561
 C191 C 0.03471 0.53999 -0.05302
 C192 C 0.03507 0.46829 -0.03572
 C193 C 0.04919 0.53884 0.04627
 O194 O -0.02003 0.52887 0.05670
 O195 O -0.01005 0.48661 -0.06894
 O196 O -0.04067 0.47308 0.01750
 O197 O -0.00963 0.55296 -0.02147
 O198 O -0.03012 0.51889 -0.03730
 O199 O -0.02203 0.48154 0.05754
 O200 O -0.00014 0.55720 0.02946
 O201 O -0.03161 0.47365 -0.03197
 Co202 Co 0.00436 0.50541 0.05202
 Co203 Co 0.00126 0.50401 -0.03780
 Co204 Co -0.01052 0.46815 -0.00134
 Co205 Co 0.01861 0.54346 0.00015
 O206 O 0.00445 0.50628 0.00516
 C207 C -0.01716 0.55091 0.04793
 C208 C -0.02710 0.47077 -0.05816
 C209 C -0.04144 0.47314 0.04373
 C210 C -0.02981 0.54194 -0.03235
 O211 O 1.03227 0.03402 0.48683
 O212 O 0.95032 0.01808 0.53133
 O213 O 0.97254 0.00484 0.44387
 O214 O 1.01930 0.00585 0.57448
 O215 O 0.94599 0.01682 0.47803
 O216 O 1.03555 0.02616 0.53795
 O217 O 0.98990 0.02966 0.54342
 O218 O 1.02041 0.01304 0.44850
 C219 C 1.02884 0.03309 0.46054
 C220 C 0.96634 0.03420 0.54166
 C221 C 0.95382 0.01755 0.45266
 C222 C 1.03735 0.02139 0.56428
 O223 O 1.04631 -0.02207 0.52570
 O224 O 0.94382 -0.03130 0.47869
 O225 O 1.02323 -0.03703 0.46478
 O226 O 0.97147 -0.01255 0.56331
 O227 O 0.95155 -0.03276 0.52994
 O228 O 1.05172 -0.00910 0.47547
 O229 O 1.01041 -0.03439 0.54623
 O230 O 0.97804 -0.04321 0.45650
 Co231 Co 1.03688 0.00573 0.50624
 Co232 Co 0.95230 -0.00704 0.50470
 Co233 Co 0.99874 -0.01463 0.45740
 Co234 Co 1.00048 -0.00260 0.54306
 O235 O 0.99488 -0.00568 0.50099
 C236 C 1.03331 -0.03839 0.53942
 C237 C 0.95448 -0.04605 0.46238
 C238 C 1.04643 -0.03036 0.46616
 C239 C 0.95563 -0.02970 0.55571
 C240 C 1.15598 0.17520 0.25991
 C241 C 1.14401 0.16669 0.27995
 C242 C 1.12941 0.15613 0.30340
 C243 C 1.10236 0.15891 0.30520
 C244 C 1.08787 0.14738 0.32704
 C245 C 1.10029 0.13289 0.34738
 C246 C 1.12759 0.13063 0.34570
 C247 C 1.14202 0.14217 0.32383
 C248 C 1.08478 0.11903 0.36933
 C249 C 1.09459 0.11695 0.39711
 C250 C 1.08125 0.10175 0.41691
 C251 C 1.05792 0.08855 0.40926
 C252 C 1.04750 0.09122 0.38201
 C253 C 1.06080 0.10641 0.36217
 C254 C 1.04632 0.07023 0.42821
 C255 C 1.03768 0.05382 0.44340
 H256 H 1.09241 0.16970 0.28947
 H257 H 1.06693 0.14965 0.32794
 H258 H 1.13766 0.11929 0.36074
 H259 H 1.16293 0.13978 0.32255
 H260 H 1.11282 0.12669 0.40335
 H261 H 1.08957 0.09969 0.43790
 H262 H 1.02961 0.08085 0.37577
 H263 H 1.05291 0.10736 0.34087
 C264 C 0.80988 -0.18844 0.27452
 C265 C 0.81949 -0.18015 0.29622
 C266 C 0.83203 -0.16948 0.32117
 C267 C 0.85327 -0.18100 0.33339
 C268 C 0.86751 -0.16911 0.35547
 C269 C 0.86070 -0.14550 0.36552
 C270 C 0.83872 -0.13451 0.35375
 C271 C 0.82453 -0.14642 0.33169
 C272 C 0.87753 -0.13143 0.38651
 C273 C 0.86637 -0.11674 0.40774
 C274 C 0.88232 -0.10130 0.42538
 C275 C 0.90958 -0.10042 0.42207
 C276 C 0.92090 -0.11564 0.40172
 C277 C 0.90501 -0.13108 0.38407
 C278 C 0.92570 -0.08224 0.43760
 C279 C 0.93902 -0.06615 0.44950
 H280 H 0.85930 -0.19881 0.32531
 H281 H 0.88415 -0.17815 0.36431
 H282 H 0.83321 -0.11619 0.36071
 H283 H 0.80826 -0.13725 0.32220
 H284 H 0.84531 -0.11683 0.41033
 H285 H 0.87335 -0.08951 0.44100
 H286 H 0.94197 -0.11490 0.39880
 H287 H 0.91419 -0.14187 0.36767
 C288 C 0.82696 0.19415 0.69914
 C289 C 0.84026 0.18454 0.68146
 C290 C 0.85654 0.17246 0.66124
 C291 C 0.88375 0.17712 0.66190
 C292 C 0.89984 0.16376 0.64398
 C293 C 0.88888 0.14553 0.62519
 C294 C 0.86144 0.14149 0.62414
 C295 C 0.84540 0.15486 0.64209
 C296 C 0.90591 0.12957 0.60812
 C297 C 0.89892 0.12249 0.58018
 C298 C 0.91340 0.10524 0.56531
 C299 C 0.93509 0.09493 0.57812
 C300 C 0.94279 0.10257 0.60549
 C301 C 0.92834 0.11982 0.62040
 C302 C 0.94759 0.07463 0.56447
 C303 C 0.95688 0.05664 0.55370
 H304 H 0.89257 0.19069 0.67670
 H305 H 0.92087 0.16744 0.64506
 H306 H 0.85242 0.12731 0.61024
 H307 H 0.82437 0.15098 0.64157
 H308 H 0.88193 0.12990 0.57006
 H309 H 0.90719 0.09934 0.54418
 H310 H 0.95937 0.09448 0.61572
 H311 H 0.93402 0.12463 0.64200
 C312 C 1.18160 -0.19662 0.68671
 C313 C 1.16878 -0.18705 0.66865
 C314 C 1.15291 -0.17493 0.64816
 C315 C 1.16311 -0.15387 0.63376
 C316 C 1.14693 -0.14050 0.61609
 C317 C 1.12029 -0.14800 0.61267
 C318 C 1.11043 -0.16966 0.62656
 C319 C 1.12665 -0.18301 0.64421
 C320 C 1.10256 -0.13222 0.59639
 C321 C 1.07762 -0.12733 0.60711
 C322 C 1.06203 -0.11030 0.59356
 C323 C 1.07108 -0.09803 0.56908
 C324 C 1.09544 -0.10347 0.55765
 C325 C 1.11108 -0.12049 0.57118
 C326 C 1.05668 -0.07809 0.55747
 C327 C 1.04546 -0.06043 0.54872
 H328 H 1.18335 -0.14733 0.63686
 H329 H 1.15502 -0.12370 0.60605
 H330 H 1.09008 -0.17603 0.62411
 H331 H 1.11855 -0.19927 0.65533
 H332 H 1.07066 -0.13577 0.62668
 H333 H 1.04333 -0.10602 0.60275
 H334 H 1.10269 -0.09398 0.53878
 H335 H 1.13005 -0.12409 0.56226
 C336 C 0.25658 1.16514 1.15357
 C337 C 0.27401 1.15352 1.14362
 C338 C 0.29454 1.13914 1.13198
 C339 C 0.31554 1.15099 1.11752
 C340 C 0.33545 1.13690 1.10629
 C341 C 0.33459 1.11075 1.10946
 C342 C 0.31335 1.09904 1.12401
 C343 C 0.29348 1.11315 1.13517
 C344 C 0.35571 1.09569 1.09768
 C345 C 0.36520 1.07568 1.11320
 C346 C 0.38478 1.06123 1.10196
 C347 C 0.39513 1.06658 1.07508
 C348 C 0.38593 1.08652 1.05951
 C349 C 0.36637 1.10102 1.07074
 C350 C 0.41494 1.05138 1.06337
 C351 C 0.43138 1.03849 1.05351
 H352 H 0.31657 1.17112 1.11499
 H353 H 0.35169 1.14647 1.09548
 H354 H 0.31193 1.07892 1.12643
 H355 H 0.27726 1.10378 1.14625
 H356 H 0.35764 1.07132 1.13414
 H357 H 0.39180 1.04587 1.11420
 H358 H 0.39375 1.09075 1.03863
 H359 H 0.35924 1.11611 1.05814
 C360 C 0.28485 0.81604 0.79325
 C361 C 0.30166 0.82910 0.80483
 C362 C 0.32102 0.84526 0.81900
 C363 C 0.31539 0.85546 0.84560
 C364 C 0.33362 0.87190 0.85909
 C365 C 0.35779 0.87843 0.84615
 C366 C 0.36342 0.86788 0.81953
 C367 C 0.34510 0.85144 0.80602
 C368 C 0.37690 0.89626 0.86043
 C369 C 0.40387 0.89201 0.86045
 C370 C 0.42162 0.90833 0.87496
 C371 C 0.41264 0.92914 0.88948
 C372 C 0.38592 0.93374 0.88912
 C373 C 0.36817 0.91746 0.87469
 C374 C 0.43046 0.94507 0.90606
 C375 C 0.44469 0.95823 0.92093
 H376 H 0.29683 0.85080 0.85585
 H377 H 0.32888 0.87938 0.87977
 H378 H 0.38175 0.87272 0.80893
 H379 H 0.34961 0.84375 0.78537
 H380 H 0.41115 0.87573 0.84990
 H381 H 0.44224 0.90449 0.87527
 H382 H 0.37875 0.94976 0.90033
 H383 H 0.34760 0.92145 0.87470
 C384 C 0.72696 0.82713 1.15258
 C385 C 0.71148 0.83981 1.14076
 C386 C 0.69334 0.85573 1.12736
 C387 C 0.67073 0.84549 1.11395
 C388 C 0.65275 0.86120 1.10186
 C389 C 0.65716 0.88736 1.10315
 C390 C 0.68012 0.89741 1.11637
 C391 C 0.69805 0.88169 1.12839
 C392 C 0.63768 0.90414 1.09134
 C393 C 0.63135 0.92589 1.10625
 C394 C 0.61284 0.94164 1.09537
 C395 C 0.60043 0.93590 1.06946
 C396 C 0.60662 0.91436 1.05439
 C397 C 0.62511 0.89854 1.06527
 C398 C 0.58110 0.95199 1.05861
 C399 C 0.56478 0.96546 1.04976
 H400 H 0.66686 0.82541 1.11313
 H401 H 0.63513 0.85293 1.09210
 H402 H 0.68424 0.91744 1.11734
 H403 H 0.71552 0.88980 1.13867
 H404 H 0.64040 0.93052 1.12656
 H405 H 0.60810 0.95821 1.10726
 H406 H 0.59714 0.90977 1.03428
 H407 H 0.62979 0.88208 1.05317
 C408 C 0.72087 1.18402 0.80183
 C409 C 0.70343 1.17110 0.81220
 C410 C 0.68317 1.15500 0.82455
 C411 C 0.68945 1.13187 0.83562
 C412 C 0.66995 1.11604 0.84758
 C413 C 0.64380 1.12312 0.84862
 C414 C 0.63765 1.14641 0.83738
 C415 C 0.65722 1.16223 0.82541
 C416 C 0.62321 1.10642 0.86185
 C417 C 0.60396 1.11636 0.87936
 C418 C 0.58533 1.10054 0.89284
 C419 C 0.58562 1.07461 0.88898
 C420 C 0.60440 1.06455 0.87124
 C421 C 0.62306 1.08033 0.85773
 C422 C 0.56744 1.05835 0.90431
 C423 C 0.55257 1.04503 0.91798
 H424 H 0.70948 1.12610 0.83510
 H425 H 0.67541 1.09843 0.85643
 H426 H 0.61767 1.15228 0.83760
 H427 H 0.65212 1.18005 0.81679
 H428 H 0.60374 1.13630 0.88326
 H429 H 0.57098 1.10851 0.90669
 H430 H 0.60483 1.04451 0.86812
 H431 H 0.63739 1.07213 0.84408
 C432 C 0.16573 0.26594 0.14613
 C433 C 0.15584 0.28324 0.13480
 C434 C 0.14272 0.30351 0.12211
 C435 C 0.11754 0.29913 0.11080
 C436 C 0.10371 0.31897 0.10043
 C437 C 0.11489 0.34353 0.10128
 C438 C 0.14046 0.34770 0.11208
 C439 C 0.15427 0.32779 0.12252
 C440 C 0.09954 0.36471 0.09173
 C441 C 0.11132 0.38421 0.07560
 C442 C 0.09664 0.40405 0.06659
 C443 C 0.07008 0.40468 0.07374
 C444 C 0.05826 0.38545 0.08991
 C445 C 0.07286 0.36560 0.09886
 C446 C 0.05473 0.42473 0.06409
 C447 C 0.04145 0.44118 0.05584
 H448 H 0.10841 0.28041 0.11044
 H449 H 0.08422 0.31514 0.09185
 H450 H 0.14946 0.36644 0.11324
 H451 H 0.17369 0.33140 0.13142
 H452 H 0.13176 0.38389 0.06958
 H453 H 0.10593 0.41880 0.05395
 H454 H 0.03772 0.38578 0.09557
 H455 H 0.06335 0.35107 0.11163
 C456 C -0.18617 0.29237 -0.19378
 C457 C -0.17568 0.31062 -0.18269
 C458 C -0.16177 0.33187 -0.16988
 C459 C -0.16115 0.33468 -0.14032
 C460 C -0.14562 0.35402 -0.12780
 C461 C -0.13042 0.37075 -0.14471
 C462 C -0.13165 0.36809 -0.17443
 C463 C -0.14721 0.34876 -0.18690
 C464 C -0.11254 0.39017 -0.13132
 C465 C -0.08706 0.39495 -0.14199
 C466 C -0.06968 0.41223 -0.12844
 C467 C -0.07756 0.42499 -0.10415
 C468 C -0.10301 0.42070 -0.09368
 C469 C -0.12040 0.40342 -0.10716
 C470 C -0.05929 0.44161 -0.08909
 C471 C -0.04430 0.45514 -0.07555
 H472 H -0.17214 0.32156 -0.12694
 H473 H -0.14482 0.35537 -0.10486
 H474 H -0.12042 0.38085 -0.18800
 H475 H -0.14747 0.34668 -0.20981
 H476 H -0.08030 0.38480 -0.16030
 H477 H -0.04997 0.41529 -0.13661
 H478 H -0.10930 0.43048 -0.07486
 H479 H -0.13997 0.40036 -0.09865
 C480 C 0.18956 0.70817 -0.20512
 C481 C 0.17876 0.69057 -0.19342
 C482 C 0.16477 0.67015 -0.17947
 C483 C 0.14634 0.65506 -0.19461
 C484 C 0.13114 0.63652 -0.18063
 C485 C 0.13416 0.63288 -0.15127
 C486 C 0.15317 0.64780 -0.13637
 C487 C 0.16833 0.66633 -0.15039
 C488 C 0.11682 0.61441 -0.13597
 C489 C 0.12682 0.59980 -0.11414
 C490 C 0.11013 0.58354 -0.09864
 C491 C 0.08327 0.58164 -0.10475
 C492 C 0.07320 0.59573 -0.12677
 C493 C 0.08985 0.61198 -0.14232
 C494 C 0.06589 0.56628 -0.08741
 C495 C 0.05149 0.55397 -0.07215
 H496 H 0.14337 0.65791 -0.21712
 H497 H 0.11690 0.62515 -0.19274
 H498 H 0.15572 0.64570 -0.11370
 H499 H 0.18239 0.67805 -0.13843
 H500 H 0.14752 0.60103 -0.10898
 H501 H 0.11812 0.57274 -0.08159
 H502 H 0.05241 0.59453 -0.13154
 H503 H 0.08149 0.62323 -0.15871
 C504 C -0.17803 0.72968 0.15244
 C505 C -0.16516 0.71415 0.14126
 C506 C -0.14863 0.69600 0.12902
 C507 C -0.12143 0.69913 0.13231
 C508 C -0.10512 0.68115 0.12168
 C509 C -0.11582 0.65972 0.10760
 C510 C -0.14318 0.65688 0.10401
 C511 C -0.15950 0.67491 0.11473
 C512 C -0.09845 0.64028 0.09716
 C513 C -0.10285 0.62876 0.07052
 C514 C -0.08627 0.61058 0.06073
 C515 C -0.06518 0.60366 0.07748
 C516 C -0.06072 0.61494 0.10405
 C517 C -0.07722 0.63313 0.11384
 C518 C -0.04809 0.58503 0.06740
 C519 C -0.03383 0.56945 0.05875
 H520 H -0.11283 0.71540 0.14333
 H521 H -0.08412 0.68404 0.12439
 H522 H -0.15199 0.64045 0.09350
 H523 H -0.18055 0.67226 0.11219
 H524 H -0.11886 0.63407 0.05709
 H525 H -0.08984 0.60199 0.04008
 H526 H -0.04449 0.60965 0.11720
 H527 H -0.07356 0.64141 0.13461
 C528 C 1.17054 0.17672 0.75817
 C529 C 1.15922 0.16391 0.74037
 C530 C 1.14602 0.14802 0.71944
 C531 C 1.14797 0.12208 0.72073
 C532 C 1.13517 0.10649 0.70058
 C533 C 1.12018 0.11665 0.67880
 C534 C 1.11838 0.14278 0.67764
 C535 C 1.13123 0.15835 0.69783
 C536 C 1.10625 0.10001 0.65765
 C537 C 1.08072 0.10488 0.64866
 C538 C 1.06738 0.08891 0.62927
 C539 C 1.07934 0.06787 0.61854
 C540 C 1.10480 0.06295 0.62717
 C541 C 1.11818 0.07890 0.64658
 C542 C 1.06523 0.05120 0.59909
 C543 C 1.05286 0.03742 0.58305
 H544 H 1.15931 0.11387 0.73741
 H545 H 1.13664 0.08646 0.70233
 H546 H 1.10726 0.15120 0.66095
 H547 H 1.12965 0.17841 0.69656
 H548 H 1.07085 0.12076 0.65705
 H549 H 1.04763 0.09285 0.62283
 H550 H 1.11427 0.04675 0.61897
 H551 H 1.13793 0.07481 0.65278
 C552 C 0.82836 -0.17450 0.76056
 C553 C 0.83980 -0.16263 0.74231
 C554 C 0.85315 -0.14795 0.72076
 C555 C 0.86728 -0.15957 0.69940
 C556 C 0.88008 -0.14520 0.67842
 C557 C 0.87885 -0.11898 0.67852
 C558 C 0.86463 -0.10751 0.70014
 C559 C 0.85189 -0.12191 0.72108
 C560 C 0.89231 -0.10362 0.65622
 C561 C 0.88021 -0.08300 0.64449
 C562 C 0.89301 -0.06832 0.62383
 C563 C 0.91804 -0.07400 0.61458
 C564 C 0.93020 -0.09454 0.62597
 C565 C 0.91743 -0.10928 0.64664
 C566 C 0.93133 -0.05856 0.59364
 C567 C 0.94243 -0.04546 0.57624
 H568 H 0.86833 -0.17973 0.69889
 H569 H 0.89060 -0.15461 0.66189
 H570 H 0.86363 -0.08737 0.70106
 H571 H 0.84108 -0.11270 0.73756
 H572 H 0.86075 -0.07836 0.65111
 H573 H 0.88338 -0.05250 0.61511
 H574 H 0.94962 -0.09907 0.61903
 H575 H 0.92739 -0.12483 0.65548
 C576 C 1.19316 -0.18342 0.30122
 C577 C 1.18219 -0.17062 0.31820
 C578 C 1.16915 -0.15458 0.33773
 C579 C 1.16176 -0.13109 0.32876
 C580 C 1.14890 -0.11541 0.34738
 C581 C 1.14323 -0.12299 0.37534
 C582 C 1.15086 -0.14660 0.38425
 C583 C 1.16376 -0.16228 0.36555
 C584 C 1.12873 -0.10656 0.39472
 C585 C 1.10880 -0.11670 0.41243
 C586 C 1.09382 -0.10106 0.42903
 C587 C 1.09858 -0.07509 0.42826
 C588 C 1.11883 -0.06485 0.41133
 C589 C 1.13384 -0.08046 0.39472
 C590 C 1.08132 -0.05894 0.44297
 C591 C 1.06594 -0.04566 0.45421
 H592 H 1.16576 -0.12495 0.30726
 H593 H 1.14291 -0.09756 0.33968
 H594 H 1.14701 -0.15288 0.40571
 H595 H 1.16947 -0.18039 0.37277
 H596 H 1.10415 -0.13666 0.41267
 H597 H 1.07804 -0.10918 0.44185
 H598 H 1.12264 -0.04478 0.41048
 H599 H 1.14928 -0.07209 0.38164
 C600 C 0.82936 0.17709 0.27236
 C601 C 0.84122 0.16431 0.28845
 C602 C 0.85495 0.14855 0.30750
 C603 C 0.87922 0.13958 0.29978
 C604 C 0.89205 0.12350 0.31783
 C605 C 0.88071 0.11611 0.34386
 C606 C 0.85641 0.12544 0.35153
 C607 C 0.84364 0.14153 0.33346
 C608 C 0.89394 0.09850 0.36275
 C609 C 0.87927 0.07947 0.37696
 C610 C 0.89165 0.06291 0.39478
 C611 C 0.91885 0.06509 0.39867
 C612 C 0.93365 0.08389 0.38458
 C613 C 0.92131 0.10047 0.36672
 C614 C 0.93144 0.04821 0.41740
 C615 C 0.94175 0.03414 0.43334
 H616 H 0.88810 0.14478 0.27966
 H617 H 0.91056 0.11642 0.31115
 H618 H 0.84734 0.12041 0.37158
 H619 H 0.82487 0.14835 0.33967
 H620 H 0.85825 0.07720 0.37404
 H621 H 0.88000 0.04841 0.40553
 H622 H 0.95471 0.08581 0.38751
 H623 H 0.93312 0.11507 0.35635
 C624 C 0.18059 0.28425 -0.14761
 C625 C 0.17150 0.30296 -0.13821
 C626 C 0.16021 0.32500 -0.12681
 C627 C 0.16847 0.33470 -0.10040
 C628 C 0.15656 0.35536 -0.08870
 C629 C 0.13619 0.36659 -0.10329
 C630 C 0.12835 0.35693 -0.13004
 C631 C 0.14027 0.33628 -0.14168
 C632 C 0.12227 0.38750 -0.09019
 C633 C 0.11405 0.40738 -0.10687
 C634 C 0.09885 0.42579 -0.09503
 C635 C 0.09176 0.42467 -0.06636
 C636 C 0.10057 0.40544 -0.04938
 C637 C 0.11576 0.38701 -0.06116
 C638 C 0.07327 0.44158 -0.05514
 C639 C 0.05653 0.45456 -0.04606
 H640 H 0.18390 0.32613 -0.08870
 H641 H 0.16322 0.36251 -0.06822
 H642 H 0.11246 0.36486 -0.14161
 H643 H 0.13362 0.32885 -0.16206
 H644 H 0.11902 0.40847 -0.12917
 H645 H 0.09201 0.44049 -0.10843
 H646 H 0.09494 0.40421 -0.02724
 H647 H 0.12147 0.37181 -0.04783
 C648 C -0.17970 0.28734 0.18289
 C649 C -0.17046 0.30606 0.17195
 C650 C -0.15954 0.32793 0.15781
 C651 C -0.15703 0.35099 0.17202
 C652 C -0.14614 0.37206 0.15811
 C653 C -0.13768 0.37030 0.12977
 C654 C -0.14054 0.34706 0.11564
 C655 C -0.15140 0.32607 0.12957
 C656 C -0.12479 0.39219 0.11527
 C657 C -0.12944 0.39648 0.08627
 C658 C -0.11516 0.41543 0.07191
 C659 C -0.09619 0.43044 0.08637
 C660 C -0.09217 0.42697 0.11546
 C661 C -0.10640 0.40803 0.12985
 C662 C -0.07865 0.44720 0.07088
 C663 C -0.06249 0.45991 0.05819
 H664 H -0.16338 0.35267 0.19385
 H665 H -0.14440 0.38972 0.16947
 H666 H -0.13380 0.34495 0.09402
 H667 H -0.15323 0.30831 0.11838
 H668 H -0.14372 0.38483 0.07455
 H669 H -0.11830 0.41782 0.04935
 H670 H -0.07729 0.43827 0.12678
 H671 H -0.10212 0.40504 0.15205
 C672 C -0.18098 0.72299 -0.14025
 C673 C -0.17148 0.70489 -0.13011
 C674 C -0.15951 0.68355 -0.11818
 C675 C -0.16413 0.67689 -0.08987
 C676 C -0.15144 0.65688 -0.07798
 C677 C -0.13393 0.64327 -0.09429
 C678 C -0.12975 0.64991 -0.12285
 C679 C -0.14244 0.66990 -0.13467
 C680 C -0.11914 0.62298 -0.08138
 C681 C -0.11428 0.60120 -0.09702
 C682 C -0.09835 0.58318 -0.08583
 C683 C -0.08716 0.58661 -0.05884
 C684 C -0.09259 0.60779 -0.04273
 C685 C -0.10851 0.62585 -0.05388
 C686 C -0.06822 0.56968 -0.04881
 C687 C -0.05127 0.55642 -0.04099
 H688 H -0.17732 0.68734 -0.07691
 H689 H -0.15528 0.65209 -0.05604
 H690 H -0.11607 0.64011 -0.13585
 H691 H -0.13860 0.67497 -0.15655
 H692 H -0.12248 0.59827 -0.11808
 H693 H -0.09419 0.56690 -0.09854
 H694 H -0.08384 0.61075 -0.02191
 H695 H -0.11159 0.64252 -0.04143
 C696 C 0.19586 0.71002 0.20353
 C697 C 0.18563 0.69185 0.19197
 C698 C 0.17359 0.67068 0.17702
 C699 C 0.18625 0.66053 0.15361
 C700 C 0.17388 0.64114 0.13773
 C701 C 0.14862 0.63165 0.14506
 C702 C 0.13629 0.64163 0.16902
 C703 C 0.14869 0.66104 0.18484
 C704 C 0.13461 0.61234 0.12706
 C705 C 0.11892 0.59301 0.13945
 C706 C 0.10398 0.57616 0.12243
 C707 C 0.10455 0.57834 0.09283
 C708 C 0.12070 0.59703 0.08028
 C709 C 0.13569 0.61388 0.09726
 C710 C 0.08657 0.56313 0.07564
 C711 C 0.07024 0.55140 0.06179
 H712 H 0.20552 0.66787 0.14734
 H713 H 0.18398 0.63368 0.11961
 H714 H 0.11670 0.63500 0.17497
 H715 H 0.13864 0.66888 0.20281
 H716 H 0.11793 0.59116 0.16230
 H717 H 0.09141 0.56187 0.13238
 H718 H 0.12105 0.59909 0.05741
 H719 H 0.14728 0.62874 0.08707
 C720 C 0.27907 1.19024 0.85827
 C721 C 0.29800 1.18110 0.86846
 C722 C 0.32018 1.16913 0.88012
 C723 C 0.33512 1.15419 0.86261
 C724 C 0.35543 1.14092 0.87410
 C725 C 0.36109 1.14237 0.90335
 C726 C 0.34635 1.15789 0.92069
 C727 C 0.32600 1.17117 0.90914
 C728 C 0.38127 1.12660 0.91578
 C729 C 0.37654 1.11418 0.94164
 C730 C 0.39432 1.09743 0.95199
 C731 C 0.41709 1.09290 0.93671
 C732 C 0.42241 1.10577 0.91145
 C733 C 0.40466 1.12255 0.90107
 C734 C 0.43375 1.07355 0.94571
 C735 C 0.44676 1.05650 0.95282
 H736 H 0.33066 1.15233 0.84017
 H737 H 0.36610 1.12884 0.86024
 H738 H 0.35040 1.15961 0.94322
 H739 H 0.31453 1.18265 0.92290
 H740 H 0.35858 1.11661 0.95328
 H741 H 0.38991 1.08742 0.97145
 H742 H 0.43994 1.10235 0.89941
 H743 H 0.40903 1.13208 0.88131
 C744 C 0.29989 0.80749 1.19815
 C745 C 0.31811 0.81732 1.18557
 C746 C 0.33911 0.82958 1.16983
 C747 C 0.34653 0.81991 1.14353
 C748 C 0.36528 0.83299 1.12702
 C749 C 0.37681 0.85596 1.13663
 C750 C 0.36971 0.86516 1.16346
 C751 C 0.35095 0.85206 1.17990
 C752 C 0.39491 0.87105 1.11814
 C753 C 0.41686 0.88449 1.12970
 C754 C 0.43239 0.90058 1.11271
 C755 C 0.42624 0.90337 1.08397
 C756 C 0.40495 0.88949 1.07207
 C757 C 0.38941 0.87339 1.08901
 C758 C 0.44021 0.92213 1.06740
 C759 C 0.45101 0.93874 1.05403
 H760 H 0.33743 0.80254 1.13550
 H761 H 0.37054 0.82530 1.10661
 H762 H 0.37791 0.88296 1.17127
 H763 H 0.34519 0.85981 1.20014
 H764 H 0.42176 0.88286 1.15197
 H765 H 0.44876 0.91133 1.12217
 H766 H 0.39986 0.89171 1.04992
 H767 H 0.37244 0.86359 1.07955
 C768 C 0.71462 1.18943 1.18224
 C769 C 0.69482 1.18054 1.17143
 C770 C 0.67175 1.16951 1.15779
 C771 C 0.66166 1.18049 1.13347
 C772 C 0.64056 1.16870 1.11883
 C773 C 0.62930 1.14574 1.12833
 C774 C 0.63916 1.13520 1.15323
 C775 C 0.66026 1.14701 1.16781
 C776 C 0.60855 1.13195 1.11147
 C777 C 0.58773 1.11862 1.12504
 C778 C 0.56987 1.10345 1.10927
 C779 C 0.57252 1.10148 1.07978
 C780 C 0.59256 1.11539 1.06599
 C781 C 0.61042 1.13058 1.08170
 C782 C 0.55668 1.08309 1.06416
 C783 C 0.54470 1.06656 1.05145
 H784 H 0.67044 1.19790 1.12551
 H785 H 0.63324 1.17739 1.09992
 H786 H 0.63122 1.11736 1.16085
 H787 H 0.66803 1.13827 1.18650
 H788 H 0.58559 1.11953 1.14788
 H789 H 0.55454 1.09262 1.12019
 H790 H 0.59499 1.11376 1.04321
 H791 H 0.62642 1.14032 1.07066
 C792 C 0.71830 0.81504 0.85830
 C793 C 0.69901 0.82425 0.86761
 C794 C 0.67642 0.83627 0.87832
 C795 C 0.66363 0.85303 0.86111
 C796 C 0.64290 0.86621 0.87194
 C797 C 0.63465 0.86283 0.90020
 C798 C 0.64726 0.84551 0.91717
 C799 C 0.66803 0.83233 0.90628
 C800 C 0.61408 0.87845 0.91225
 C801 C 0.61694 0.88874 0.93974
 C802 C 0.59904 0.90550 0.95002
 C803 C 0.57800 0.91214 0.93305
 C804 C 0.57444 0.90135 0.90608
 C805 C 0.59231 0.88456 0.89575
 C806 C 0.56163 0.93172 0.94230
 C807 C 0.54911 0.94904 0.94987
 H808 H 0.67008 0.85636 0.83951
 H809 H 0.63394 0.87970 0.85846
 H810 H 0.64120 0.84230 0.93891
 H811 H 0.67782 0.81941 0.91980
 H812 H 0.63364 0.88471 0.95283
 H813 H 0.60211 0.91391 0.97084
 H814 H 0.55827 0.90643 0.89272
 H815 H 0.58936 0.87669 0.87467
   
