data_POSCAR
  _audit_creation_date              2014-09-24
  _audit_creation_method            'ToBaCCo'
  _symmetry_space_group_name_H-M    'P1'
  _symmetry_Int_Tables_number       1
  _symmetry_cell_setting            triclinic
  loop_
  _symmetry_equiv_pos_as_xyz
 x,y,z
_cell_length_a 43.0161
_cell_length_b 43.0649
_cell_length_c 24.4051
_cell_angle_alpha 90.002600
_cell_angle_beta 90.048900
_cell_angle_gamma 119.973400
loop_
  _atom_site_label
  _atom_site_type_symbol
  _atom_site_fract_x
  _atom_site_fract_y
  _atom_site_fract_z
C1 C 0.53521 1.10745 0.52837
 C2 C 0.53504 1.10775 0.47219
 C3 C 0.53216 1.07564 0.45517
 N4 N 0.52985 1.05550 0.49915
 C5 C 0.53181 1.07497 0.54379
 C6 C 0.53276 1.06555 0.40004
 C7 C 0.52131 1.02939 0.38614
 C8 C 0.53023 1.01821 0.33825
 C9 C 0.51180 0.98138 0.33878
 C10 C 0.49260 0.97105 0.38732
 N11 N 0.49875 1.00038 0.41626
 C12 C 0.46781 0.93534 0.40178
 C13 C 0.45663 0.92499 0.45626
 C14 C 0.42767 0.89249 0.47189
 C15 C 0.42755 0.89219 0.52808
 C16 C 0.45687 0.92432 0.54487
 N17 N 0.47441 0.94448 0.50077
 C18 C 0.46790 0.93442 0.59991
 C19 C 0.49267 0.97060 0.61371
 C20 C 0.51307 0.98181 0.66135
 C21 C 0.53142 1.01863 0.66082
 C22 C 0.52222 1.02894 0.61252
 N23 N 0.49887 0.99959 0.58373
 C24 C 0.53303 1.06464 0.59816
 H25 H 0.53738 1.12861 0.55484
 H26 H 0.53663 1.12912 0.44687
 H27 H 0.48487 0.99951 0.54883
 H28 H 0.54805 1.03483 0.30603
 H29 H 0.51233 0.96415 0.30694
 H30 H 0.40852 0.87132 0.44556
 H31 H 0.40795 0.87080 0.55354
 H32 H 0.54938 1.03588 0.69249
 H33 H 0.48503 1.00043 0.45139
 H34 H 0.51450 0.96520 0.69341
 C35 C -0.10977 0.46171 0.47073
 C36 C -0.10970 0.46279 0.52682
 C37 C -0.07665 0.46802 0.54386
 N38 N -0.05626 0.47104 0.49979
 C39 C -0.07633 0.46743 0.45490
 C40 C -0.06616 0.46856 0.59920
 C41 C -0.02979 0.48111 0.61371
 C42 C -0.01850 0.47326 0.66249
 C43 C 0.01834 0.49210 0.66228
 C44 C 0.02865 0.51050 0.61305
 N45 N -0.00079 0.50356 0.58345
 C46 C 0.06454 0.53463 0.59814
 C47 C 0.07512 0.54465 0.54337
 C48 C 0.10877 0.57135 0.52676
 C49 C 0.10877 0.57040 0.47054
 C50 C 0.07511 0.54313 0.45487
 N51 N 0.05463 0.52739 0.49944
 C52 C 0.06444 0.53165 0.40047
 C53 C 0.02860 0.50688 0.38572
 C54 C 0.01811 0.48987 0.33539
 C55 C -0.01875 0.47102 0.33522
 C56 C -0.02996 0.47659 0.38586
 N57 N -0.00079 0.49861 0.41623
 C58 C -0.06597 0.46561 0.40035
 H59 H -0.13221 0.45686 0.44495
 H60 H -0.13168 0.45985 0.55204
 H61 H -0.00100 0.51116 0.45248
 H62 H -0.03507 0.45574 0.69502
 H63 H 0.03559 0.49214 0.69463
 H64 H 0.13107 0.58943 0.55242
 H65 H 0.13106 0.58763 0.44428
 H66 H -0.03514 0.45608 0.30066
 H67 H -0.00104 0.51652 0.54758
 H68 H 0.03520 0.49166 0.30158
 C69 C 0.53536 0.42757 0.47169
 C70 C 0.53436 0.42652 0.52786
 C71 C 0.53141 0.45568 0.54503
 N72 N 0.52981 0.47401 0.50120
 C73 C 0.53231 0.45689 0.45643
 C74 C 0.53171 0.46614 0.60017
 C75 C 0.52028 0.49089 0.61396
 C76 C 0.53064 0.51207 0.66071
 C77 C 0.51225 0.53049 0.66064
 C78 C 0.49107 0.52014 0.61385
 N79 N 0.49664 0.49649 0.58495
 C80 C 0.46633 0.53160 0.59992
 C81 C 0.45591 0.53130 0.54474
 C82 C 0.42676 0.53429 0.52744
 C83 C 0.42784 0.53527 0.47128
 C84 C 0.45717 0.53216 0.45615
 N85 N 0.47426 0.52965 0.50099
 C86 C 0.46903 0.53369 0.40185
 C87 C 0.49396 0.52285 0.38756
 C88 C 0.51220 0.53033 0.33814
 C89 C 0.53064 0.51185 0.33821
 C90 C 0.52310 0.49365 0.38767
 N91 N 0.50094 0.50069 0.41764
 C92 C 0.53388 0.46870 0.40210
 H93 H 0.53775 0.40875 0.44512
 H94 H 0.53553 0.40646 0.55305
 H95 H 0.48770 0.48750 0.45334
 H96 H 0.54967 0.51419 0.69161
 H97 H 0.51439 0.54953 0.69148
 H98 H 0.40668 0.53551 0.55255
 H99 H 0.40904 0.53768 0.44462
 H100 H 0.54713 0.51131 0.30517
 H101 H 0.48230 0.48216 0.55050
 H102 H 0.51171 0.54680 0.30503
 O103 O 0.38769 0.65866 -0.04645
 O104 O 0.38628 0.71778 -0.06285
 C105 C 0.36921 0.73399 -0.07307
 O106 O 0.34178 0.72906 -0.04640
 O107 O 0.28259 0.66860 -0.06295
 C108 C 0.26639 0.63537 -0.07329
 O109 O 0.27135 0.61287 -0.04670
 O110 O 0.33192 0.61421 -0.06298
 C111 C 0.36519 0.63123 -0.07314
 O112 O 0.38618 0.66829 0.06264
 O113 O 0.38781 0.72892 0.04627
 C114 C 0.36538 0.73395 0.07296
 O115 O 0.33211 0.71787 0.06269
 O116 O 0.27142 0.65892 0.04611
 C117 C 0.26635 0.63143 0.07270
 O118 O 0.28245 0.61428 0.06244
 O119 O 0.34152 0.61266 0.04616
 C120 C 0.36900 0.63506 0.07288
 Cr121 Cr 0.38497 0.69241 -0.00010
 Cr122 Cr 0.30798 0.69260 -0.00014
 Cr123 Cr 0.30782 0.61552 -0.00027
 O124 O 0.33359 0.66684 -0.00017
 O125 O 0.61407 0.33160 -0.06244
 O126 O 0.61266 0.27105 -0.04636
 C127 C 0.63513 0.26610 -0.07310
 O128 O 0.66841 0.28224 -0.06286
 O129 O 0.72900 0.34130 -0.04634
 C130 C 0.73393 0.36876 -0.07287
 O131 O 0.71777 0.38583 -0.06245
 O132 O 0.65863 0.38727 -0.04585
 C133 C 0.63114 0.36485 -0.07254
 O134 O 0.61264 0.34109 0.04673
 O135 O 0.61424 0.28205 0.06280
 C136 C 0.63140 0.26593 0.07294
 O137 O 0.65886 0.27097 0.04623
 O138 O 0.71794 0.33152 0.06277
 C139 C 0.73404 0.36473 0.07320
 O140 O 0.72901 0.38720 0.04665
 O141 O 0.66837 0.38563 0.06322
 C142 C 0.63511 0.36849 0.07348
 Cr143 Cr 0.61542 0.30745 0.00018
 Cr144 Cr 0.69255 0.30751 -0.00004
 Cr145 Cr 0.69244 0.38447 0.00038
 O146 O 0.66680 0.33314 0.00018
 C147 C 0.44004 0.84880 -0.32444
 C148 C 0.42891 0.85581 -0.27443
 C149 C 0.43058 0.88873 -0.26604
 C150 C 0.44335 0.91459 -0.30744
 C151 C 0.45467 0.90797 -0.35820
 C152 C 0.45281 0.87459 -0.36597
 C153 C 0.41596 0.82933 -0.23156
 C154 C 0.40517 0.80728 -0.19547
 C155 C 0.39260 0.78161 -0.15302
 C156 C 0.38190 0.75980 -0.11660
 H157 H 0.43908 0.82347 -0.33123
 H158 H 0.42191 0.89439 -0.22751
 H159 H 0.44364 0.93955 -0.30015
 H160 H 0.46217 0.86877 -0.40367
 C161 C 0.11634 0.58217 -0.27376
 C162 C 0.14436 0.57448 -0.27482
 C163 C 0.14639 0.55387 -0.31756
 C164 C 0.12050 0.54096 -0.35906
 C165 C 0.09238 0.54866 -0.35824
 C166 C 0.09045 0.56930 -0.31525
 C167 C 0.17086 0.58758 -0.23189
 C168 C 0.19295 0.59854 -0.19577
 C169 C 0.21867 0.61137 -0.15329
 C170 C 0.24053 0.62232 -0.11685
 H171 H 0.11449 0.59805 -0.24085
 H172 H 0.16790 0.54769 -0.31871
 H173 H 0.12223 0.52485 -0.39170
 H174 H 0.06891 0.57542 -0.31394
 C175 C 0.43767 0.58875 -0.32419
 C176 C 0.42676 0.57062 -0.27418
 C177 C 0.42895 0.53965 -0.26580
 C178 C 0.44195 0.52680 -0.30726
 C179 C 0.45292 0.54465 -0.35812
 C180 C 0.45066 0.57597 -0.36578
 C181 C 0.41348 0.58385 -0.23132
 C182 C 0.40237 0.59485 -0.19529
 C183 C 0.38939 0.60764 -0.15293
 C184 C 0.37833 0.61847 -0.11659
 H185 H 0.43636 0.61294 -0.33094
 H186 H 0.42050 0.52534 -0.22725
 H187 H 0.44265 0.50234 -0.29994
 H188 H 0.45991 0.59123 -0.40341
 C189 C 0.59481 0.14787 -0.31977
 C190 C 0.57308 0.14440 -0.27482
 C191 C 0.53824 0.11497 -0.27154
 C192 C 0.52518 0.08909 -0.31297
 C193 C 0.54686 0.09240 -0.35812
 C194 C 0.58178 0.12199 -0.36123
 C195 C 0.58657 0.17086 -0.23190
 C196 C 0.59779 0.19290 -0.19575
 C197 C 0.61086 0.21855 -0.15322
 C198 C 0.62197 0.24032 -0.11673
 H199 H 0.62182 0.17050 -0.32267
 H200 H 0.52121 0.11201 -0.23693
 H201 H 0.49817 0.06647 -0.30994
 H202 H 0.59894 0.12487 -0.39560
 C203 C 0.84920 0.40990 -0.32338
 C204 C 0.85540 0.42941 -0.27484
 C205 C 0.88745 0.46185 -0.26805
 C206 C 0.91324 0.47478 -0.30957
 C207 C 0.90740 0.45549 -0.35887
 C208 C 0.87493 0.42276 -0.36503
 C209 C 0.82900 0.41609 -0.23184
 C210 C 0.80702 0.40506 -0.19564
 C211 C 0.78143 0.39229 -0.15304
 C212 C 0.75969 0.38149 -0.11651
 H213 H 0.82457 0.38461 -0.32891
 H214 H 0.89249 0.47723 -0.23066
 H215 H 0.93754 0.50030 -0.30356
 H216 H 0.86982 0.40659 -0.40154
 C217 C 0.58880 0.43743 -0.32365
 C218 C 0.57062 0.42658 -0.27366
 C219 C 0.53965 0.42883 -0.26539
 C220 C 0.52683 0.44182 -0.30693
 C221 C 0.54473 0.45274 -0.35778
 C222 C 0.57605 0.45042 -0.36532
 C223 C 0.58381 0.41327 -0.23074
 C224 C 0.59479 0.40214 -0.19467
 C225 C 0.60755 0.38913 -0.15229
 C226 C 0.61837 0.37803 -0.11596
 H227 H 0.61300 0.43608 -0.33032
 H228 H 0.52531 0.42041 -0.22686
 H229 H 0.50237 0.44257 -0.29970
 H230 H 0.59134 0.45962 -0.40294
 C231 C 0.86537 0.45889 0.30068
 C232 C 0.85542 0.42596 0.27567
 C233 C 0.87138 0.40607 0.29241
 C234 C 0.89730 0.41909 0.33386
 C235 C 0.90758 0.45223 0.35904
 C236 C 0.89129 0.47198 0.34214
 C237 C 0.82907 0.41273 0.23251
 C238 C 0.80713 0.40169 0.19619
 C239 C 0.78156 0.38879 0.15348
 C240 C 0.75982 0.37780 0.11688
 H241 H 0.85324 0.47453 0.28796
 H242 H 0.86383 0.38053 0.27337
 H243 H 0.90925 0.40325 0.34651
 H244 H 0.89897 0.49770 0.36063
 C245 C 0.58984 0.15118 0.32403
 C246 C 0.57134 0.14411 0.27430
 C247 C 0.54008 0.11114 0.26622
 C248 C 0.52733 0.08530 0.30764
 C249 C 0.54563 0.09198 0.35813
 C250 C 0.57716 0.12541 0.36559
 C251 C 0.58449 0.17057 0.23141
 C252 C 0.59541 0.19261 0.19532
 C253 C 0.60807 0.21828 0.15286
 C254 C 0.61878 0.24009 0.11644
 H255 H 0.61422 0.17655 0.33059
 H256 H 0.52547 0.10543 0.22791
 H257 H 0.50264 0.06030 0.30059
 H258 H 0.59262 0.13128 0.40306
 C259 C 0.59542 0.44709 0.31981
 C260 C 0.57338 0.42832 0.27536
 C261 C 0.53837 0.42255 0.27253
 C262 C 0.52546 0.43557 0.31390
 C263 C 0.54748 0.45452 0.35847
 C264 C 0.58255 0.46014 0.36120
 C265 C 0.58675 0.41524 0.23242
 C266 C 0.59790 0.40438 0.19625
 C267 C 0.61090 0.39177 0.15368
 C268 C 0.62197 0.38109 0.11714
 H269 H 0.62257 0.45173 0.32236
 H270 H 0.52109 0.40807 0.23833
 H271 H 0.49832 0.43092 0.31124
 H272 H 0.59993 0.47480 0.39520
 C273 C 0.11663 0.57971 0.27310
 C274 C 0.14426 0.57144 0.27376
 C275 C 0.14588 0.55027 0.31599
 C276 C 0.11995 0.53736 0.35736
 C277 C 0.09219 0.54557 0.35685
 C278 C 0.09071 0.56683 0.31446
 C279 C 0.17077 0.58449 0.23093
 C280 C 0.19287 0.59537 0.19490
 C281 C 0.21861 0.60802 0.15252
 C282 C 0.24047 0.61875 0.11616
 H283 H 0.11512 0.59604 0.24061
 H284 H 0.16710 0.54367 0.31685
 H285 H 0.12137 0.52087 0.38967
 H286 H 0.06947 0.57340 0.31351
 C287 C 0.42177 0.88507 0.27184
 C288 C 0.42720 0.85565 0.27469
 C289 C 0.44579 0.85216 0.31922
 C290 C 0.45895 0.87802 0.36070
 C291 C 0.45358 0.90760 0.35804
 C292 C 0.43489 0.91093 0.31330
 C293 C 0.41386 0.82918 0.23176
 C294 C 0.40271 0.80715 0.19561
 C295 C 0.38968 0.78151 0.15307
 C296 C 0.37857 0.75973 0.11658
 H297 H 0.40744 0.88803 0.23756
 H298 H 0.45019 0.82953 0.32177
 H299 H 0.47347 0.87513 0.39475
 H300 H 0.43047 0.93354 0.31061
 C301 C 0.44758 0.59524 0.31930
 C302 C 0.42879 0.57323 0.27485
 C303 C 0.42296 0.53824 0.27210
 C304 C 0.43593 0.52531 0.31355
 C305 C 0.45490 0.54731 0.35813
 C306 C 0.46059 0.58236 0.36076
 C307 C 0.41573 0.58661 0.23184
 C308 C 0.40489 0.59777 0.19563
 C309 C 0.39229 0.61079 0.15304
 C310 C 0.38161 0.62189 0.11651
 H311 H 0.45227 0.62237 0.32179
 H312 H 0.40846 0.52099 0.23790
 H313 H 0.43122 0.49819 0.31096
 H314 H 0.47526 0.59971 0.39476
   
