data_POSCAR
  _audit_creation_date              2014-09-24
  _audit_creation_method            'ToBaCCo'
  _symmetry_space_group_name_H-M    'P1'
  _symmetry_Int_Tables_number       1
  _symmetry_cell_setting            triclinic
  loop_
  _symmetry_equiv_pos_as_xyz
 x,y,z
_cell_length_a 49.3681
_cell_length_b 57.0677
_cell_length_c 52.5107
_cell_angle_alpha 90.659100
_cell_angle_beta 89.629300
_cell_angle_gamma 90.452000
loop_
  _atom_site_label
  _atom_site_type_symbol
  _atom_site_fract_x
  _atom_site_fract_y
  _atom_site_fract_z
C1 C 0.33091 0.40636 -0.00375
 C2 C 0.33665 0.40017 0.02145
 C3 C 0.34864 0.37841 0.02606
 C4 C 0.35166 0.36140 0.00641
 C5 C 0.34205 0.36720 -0.01807
 C6 C 0.33301 0.38984 -0.02369
 C7 C 0.36368 0.33752 0.01135
 C8 C 0.37174 0.32271 -0.00915
 C9 C 0.38038 0.29963 -0.00523
 C10 C 0.38385 0.29206 0.01990
 C11 C 0.37780 0.30675 0.04069
 C12 C 0.36727 0.32909 0.03639
 H13 H 0.32321 0.42360 -0.00747
 H14 H 0.35467 0.37492 0.04533
 H15 H 0.34154 0.35430 -0.03325
 H16 H 0.37120 0.32873 -0.02854
 H17 H 0.39299 0.27531 0.02358
 H18 H 0.36181 0.33942 0.05293
 C19 C 0.67622 0.58972 -0.00714
 C20 C 0.66448 0.59592 0.01638
 C21 C 0.64800 0.61578 0.01807
 C22 C 0.64567 0.63108 -0.00275
 C23 C 0.65926 0.62524 -0.02566
 C24 C 0.67367 0.60433 -0.02820
 C25 C 0.63118 0.65395 -0.00017
 C26 C 0.62034 0.66492 -0.02179
 C27 C 0.61016 0.68782 -0.02039
 C28 C 0.60841 0.69888 0.00365
 C29 C 0.61798 0.68796 0.02557
 C30 C 0.62954 0.66573 0.02356
 H31 H 0.68868 0.57421 -0.00862
 H32 H 0.63827 0.61978 0.03610
 H33 H 0.65928 0.63709 -0.04160
 H34 H 0.62049 0.65594 -0.04006
 H35 H 0.59843 0.71556 0.00586
 H36 H 0.63797 0.65816 0.04052
 C37 C 0.72463 0.37204 0.99035
 C38 C 0.71849 0.35913 0.96825
 C39 C 0.70128 0.33961 0.96995
 C40 C 0.68924 0.33316 0.99335
 C41 C 0.69552 0.34671 1.01529
 C42 C 0.71395 0.36553 1.01408
 C43 C 0.67087 0.31208 0.99478
 C44 C 0.66758 0.29962 1.01774
 C45 C 0.65135 0.27930 1.01891
 C46 C 0.63865 0.27123 0.99655
 C47 C 0.64186 0.28299 0.97348
 C48 C 0.65703 0.30379 0.97293
 H49 H 0.73697 0.38772 0.98896
 H50 H 0.69783 0.32935 0.95283
 H51 H 0.68632 0.34276 1.03349
 H52 H 0.67819 0.30517 1.03475
 H53 H 0.62466 0.25661 0.99714
 H54 H 0.65795 0.31328 0.95524
 C55 C 0.26097 0.64391 1.00232
 C56 C 0.27755 0.64823 0.98107
 C57 C 0.29702 0.66622 0.98251
 C58 C 0.29910 0.68066 1.00444
 C59 C 0.28216 0.67590 1.02555
 C60 C 0.26324 0.65750 1.02448
 C61 C 0.31741 0.70161 1.00465
 C62 C 0.32933 0.70972 1.02753
 C63 C 0.34360 0.73114 1.02852
 C64 C 0.34722 0.74370 1.00581
 C65 C 0.33703 0.73522 0.98272
 C66 C 0.32184 0.71443 0.98217
 H67 H 0.24661 0.62948 1.00214
 H68 H 0.31022 0.66915 0.96629
 H69 H 0.28274 0.68699 1.04240
 H70 H 0.32692 0.69966 1.04478
 H71 H 0.35946 0.75949 1.00535
 H72 H 0.31277 0.70886 0.96437
 C73 C 0.00274 0.30029 0.38236
 C74 C 0.02824 0.30983 0.37656
 C75 C 0.03011 0.32828 0.35922
 C76 C 0.00702 0.33593 0.34587
 C77 C -0.01834 0.32552 0.35175
 C78 C -0.02055 0.30795 0.37004
 C79 C 0.00955 0.35356 0.32490
 C80 C -0.01305 0.36676 0.31715
 C81 C -0.01169 0.38131 0.29573
 C82 C 0.01354 0.38437 0.28352
 C83 C 0.03642 0.37206 0.29123
 C84 C 0.03427 0.35653 0.31157
 H85 H 0.00093 0.28703 0.39689
 H86 H 0.04980 0.33612 0.35591
 H87 H -0.03644 0.33018 0.34158
 H88 H -0.03206 0.36552 0.32740
 H89 H 0.01612 0.39722 0.26877
 H90 H 0.05196 0.34648 0.31633
 C91 C -0.00166 0.69988 0.61837
 C92 C 0.02319 0.68898 0.62266
 C93 C 0.02403 0.66940 0.63852
 C94 C 0.00070 0.66181 0.65199
 C95 C -0.02388 0.67377 0.64795
 C96 C -0.02526 0.69247 0.63096
 C97 C 0.00218 0.64222 0.67086
 C98 C -0.02132 0.62943 0.67794
 C99 C -0.02052 0.61270 0.69742
 C100 C 0.00450 0.60744 0.70838
 C101 C 0.02827 0.61928 0.70123
 C102 C 0.02690 0.63678 0.68281
 H103 H -0.00273 0.71378 0.60457
 H104 H 0.04312 0.66047 0.64042
 H105 H -0.04208 0.66918 0.65835
 H106 H -0.04025 0.63280 0.66864
 H107 H 0.00539 0.59371 0.72240
 H108 H 0.04524 0.64648 0.67854
 C109 C 0.98997 0.71708 0.36454
 C110 C 0.96465 0.70726 0.35912
 C111 C 0.96281 0.68377 0.35110
 C112 C 0.98613 0.66948 0.35004
 C113 C 1.01108 0.67940 0.35801
 C114 C 1.01351 0.70337 0.36405
 C115 C 0.98477 0.64465 0.34007
 C116 C 1.00801 0.63380 0.32946
 C117 C 1.00716 0.61080 0.31947
 C118 C 0.98229 0.59854 0.32014
 C119 C 0.95876 0.60928 0.32929
 C120 C 0.96013 0.63195 0.33978
 H121 H 0.99068 0.73514 0.37099
 H122 H 0.94324 0.67715 0.34525
 H123 H 1.02901 0.66868 0.35904
 H124 H 1.02682 0.64354 0.32787
 H125 H 0.98040 0.58083 0.31289
 H126 H 0.94179 0.63935 0.34768
 C127 C 1.00269 0.27999 0.64654
 C128 C 0.98180 0.29646 0.64510
 C129 C 0.98667 0.31952 0.65368
 C130 C 1.01168 0.32585 0.66492
 C131 C 1.03196 0.30870 0.66665
 C132 C 1.02786 0.28613 0.65666
 C133 C 1.01693 0.35023 0.67458
 C134 C 1.04347 0.35957 0.67494
 C135 C 1.04896 0.38202 0.68490
 C136 C 1.02720 0.39566 0.69389
 C137 C 1.00072 0.38646 0.69448
 C138 C 0.99571 0.36396 0.68451
 H139 H 1.00008 0.26262 0.63833
 H140 H 0.97099 0.33245 0.65134
 H141 H 1.05106 0.31267 0.67574
 H142 H 1.06015 0.34948 0.66720
 H143 H 1.03084 0.41300 0.70161
 H144 H 0.97535 0.35684 0.68561
 C145 C 0.38554 0.00617 0.29511
 C146 C 0.36961 0.02544 0.30173
 C147 C 0.34749 0.02250 0.31803
 C148 C 0.34233 0.00076 0.32968
 C149 C 0.35843 -0.01863 0.32257
 C150 C 0.37916 -0.01642 0.30414
 C151 C 0.31973 -0.00138 0.34862
 C152 C 0.30478 -0.02240 0.35124
 C153 C 0.28236 -0.02344 0.36781
 C154 C 0.27427 -0.00327 0.38116
 C155 C 0.28901 0.01772 0.37902
 C156 C 0.31218 0.01823 0.36355
 H157 H 0.40261 0.00920 0.28260
 H158 H 0.33458 0.03741 0.32177
 H159 H 0.35449 -0.03561 0.33087
 H160 H 0.30977 -0.03769 0.33983
 H161 H 0.25691 -0.00426 0.39382
 H162 H 0.32395 0.03429 0.36281
 C163 C 0.62080 -0.00049 0.71797
 C164 C 0.63020 0.02135 0.70961
 C165 C 0.64845 0.02225 0.68918
 C166 C 0.65665 0.00171 0.67614
 C167 C 0.64651 -0.02010 0.68468
 C168 C 0.62955 -0.02150 0.70630
 C169 C 0.67629 0.00324 0.65425
 C170 C 0.69413 -0.01535 0.64837
 C171 C 0.71376 -0.01304 0.62902
 C172 C 0.71622 0.00820 0.61615
 C173 C 0.69838 0.02675 0.62114
 C174 C 0.67824 0.02392 0.63978
 H175 H 0.60543 -0.00091 0.73267
 H176 H 0.65641 0.03922 0.68384
 H177 H 0.65208 -0.03612 0.67483
 H178 H 0.69374 -0.03118 0.65946
 H179 H 0.73251 0.01017 0.60245
 H180 H 0.66425 0.03816 0.64297
 C181 C 0.37346 0.98712 0.71692
 C182 C 0.37128 0.96921 0.69860
 C183 C 0.35617 0.97286 0.67658
 C184 C 0.34089 0.99349 0.67380
 C185 C 0.34346 1.01136 0.69259
 C186 C 0.36023 1.00842 0.71378
 C187 C 0.32055 0.99546 0.65286
 C188 C 0.31168 1.01760 0.64469
 C189 C 0.28911 1.01955 0.62876
 C190 C 0.27766 0.99901 0.61822
 C191 C 0.28791 0.97685 0.62389
 C192 C 0.30831 0.97517 0.64215
 H193 H 0.38573 0.98450 0.73369
 H194 H 0.35550 0.95903 0.66235
 H195 H 0.33150 1.02710 0.69166
 H196 H 0.32129 1.03347 0.65177
 H197 H 0.26097 1.00027 0.60516
 H198 H 0.31420 0.95786 0.64805
 C199 C 0.64416 1.00814 0.27675
 C200 C 0.64665 0.98581 0.28718
 C201 C 0.65783 0.98348 0.31134
 C202 C 0.66872 1.00295 0.32462
 C203 C 0.66595 1.02539 0.31376
 C204 C 0.65334 1.02827 0.29001
 C205 C 0.68295 0.99948 0.34949
 C206 C 0.68543 1.01779 0.36769
 C207 C 0.69907 1.01425 0.39077
 C208 C 0.70792 0.99173 0.39676
 C209 C 0.70573 0.97335 0.37905
 C210 C 0.69451 0.97757 0.35518
 H211 H 0.63326 1.00964 0.25909
 H212 H 0.65796 0.96620 0.31956
 H213 H 0.67407 1.04075 0.32335
 H214 H 0.67667 1.03470 0.36419
 H215 H 0.71804 0.98879 0.41470
 H216 H 0.69477 0.96346 0.34127
 O217 O 0.83745 0.80778 0.47774
 O218 O 0.80962 0.84664 0.52813
 O219 O 0.84775 0.81539 0.52583
 O220 O 0.80164 0.84087 0.47968
 O221 O 0.77000 0.81501 0.48995
 O222 O 0.81769 0.78784 0.53503
 O223 O 0.77961 0.81930 0.53816
 O224 O 0.80622 0.78123 0.48690
 Cu225 Cu 0.82723 0.83027 0.50191
 Cu226 Cu 0.79035 0.79805 0.51334
 C227 C 0.82646 0.78785 0.47375
 C228 C 0.78973 0.83957 0.54163
 C229 C 0.84085 0.79734 0.53817
 C230 C 0.77779 0.83276 0.47734
 O231 O 0.13516 0.18116 0.49245
 O232 O 0.17546 0.14891 0.53821
 O233 O 0.14589 0.18557 0.54080
 O234 O 0.16461 0.14384 0.49044
 O235 O 0.20071 0.16531 0.48116
 O236 O 0.18136 0.20782 0.53163
 O237 O 0.21153 0.17047 0.52919
 O238 O 0.17053 0.20343 0.48296
 Cu239 Cu 0.15163 0.16279 0.51632
 Cu240 Cu 0.19458 0.18908 0.50514
 C241 C 0.14579 0.19775 0.47993
 C242 C 0.20025 0.15403 0.54157
 C243 C 0.16049 0.20356 0.54512
 C244 C 0.18609 0.14712 0.47760
 O245 O 0.18673 0.84113 0.46121
 O246 O 0.14508 0.81475 0.51135
 O247 O 0.18224 0.84724 0.50964
 O248 O 0.15039 0.80870 0.46243
 O249 O 0.18166 0.78188 0.46831
 O250 O 0.21357 0.82078 0.51682
 O251 O 0.17597 0.78761 0.51735
 O252 O 0.21883 0.81517 0.46762
 Cu253 Cu 0.16289 0.83053 0.48565
 Cu254 Cu 0.20070 0.79865 0.49323
 C255 C 0.20993 0.83291 0.45595
 C256 C 0.15310 0.79658 0.52263
 C257 C 0.20355 0.84093 0.52097
 C258 C 0.16055 0.78888 0.45708
 O259 O 0.86686 0.17637 0.52263
 O260 O 0.82372 0.14542 0.47633
 O261 O 0.86354 0.17567 0.47285
 O262 O 0.82982 0.14458 0.52441
 O263 O 0.79802 0.17161 0.52655
 O264 O 0.83460 0.20487 0.47622
 O265 O 0.79446 0.17451 0.47759
 O266 O 0.83641 0.20437 0.52630
 Cu267 Cu 0.84922 0.15791 0.49857
 Cu268 Cu 0.81299 0.19188 0.50204
 C269 C 0.85876 0.19538 0.53275
 C270 C 0.80145 0.15439 0.46955
 C271 C 0.85521 0.19547 0.46577
 C272 C 0.80774 0.15211 0.53358
 O273 O 0.46829 0.85420 0.82898
 O274 O 0.51972 0.82424 0.86574
 O275 O 0.52014 0.85897 0.83436
 O276 O 0.46783 0.81943 0.85932
 O277 O 0.47435 0.79496 0.82701
 O278 O 0.52770 0.83477 0.80200
 O279 O 0.52643 0.79909 0.83406
 O280 O 0.47557 0.83058 0.79602
 Cu281 Cu 0.49345 0.84161 0.85034
 Cu282 Cu 0.50191 0.81234 0.81150
 C283 C 0.46314 0.84768 0.80638
 C284 C 0.53145 0.80637 0.85654
 C285 C 0.53254 0.85389 0.81383
 C286 C 0.46185 0.80065 0.84737
 O287 O 0.52336 0.16728 0.13860
 O288 O 0.47732 0.14385 0.18740
 O289 O 0.47262 0.17321 0.15055
 O290 O 0.52747 0.13702 0.17435
 O291 O 0.53987 0.16502 0.20137
 O292 O 0.48496 0.20240 0.17603
 O293 O 0.48959 0.17231 0.21388
 O294 O 0.53619 0.19561 0.16501
 Cu295 Cu 0.49889 0.15256 0.16011
 Cu296 Cu 0.51372 0.18682 0.19174
 C297 C 0.53786 0.18520 0.14356
 C298 C 0.47588 0.15390 0.20906
 C299 C 0.46949 0.19393 0.15886
 C300 C 0.54295 0.14461 0.19180
 O301 O 0.45293 0.16879 0.86782
 O302 O 0.50089 0.12806 0.83843
 O303 O 0.50445 0.16148 0.87164
 O304 O 0.44980 0.13613 0.83249
 O305 O 0.45846 0.16209 0.80261
 O306 O 0.51328 0.18745 0.84176
 O307 O 0.51012 0.15352 0.80814
 O308 O 0.46185 0.19511 0.83840
 Cu309 Cu 0.47592 0.14608 0.85555
 Cu310 Cu 0.48661 0.17711 0.81959
 C311 C 0.44970 0.18907 0.85875
 C312 C 0.51381 0.13375 0.81849
 C313 C 0.51814 0.17877 0.86340
 C314 C 0.44516 0.14452 0.81065
 O315 O 0.48663 0.84298 0.13010
 O316 O 0.54324 0.86892 0.16525
 O317 O 0.53873 0.83650 0.13087
 O318 O 0.49173 0.87538 0.16437
 O319 O 0.48590 0.84936 0.19481
 O320 O 0.53334 0.80975 0.16060
 O321 O 0.53783 0.84290 0.19571
 O322 O 0.48078 0.81630 0.15984
 Cu323 Cu 0.51563 0.85847 0.14457
 Cu324 Cu 0.50893 0.82677 0.18073
 C325 C 0.47396 0.82541 0.13888
 C326 C 0.54995 0.86069 0.18662
 C327 C 0.54413 0.81660 0.13990
 C328 C 0.48110 0.86930 0.18533
 O329 O 0.83561 0.52978 0.79647
 O330 O 0.82347 0.48189 0.84073
 O331 O 0.85551 0.48848 0.80227
 O332 O 0.80233 0.52286 0.83428
 O333 O 0.77190 0.50775 0.80804
 O334 O 0.82509 0.47296 0.77628
 O335 O 0.79264 0.46661 0.81499
 O336 O 0.80597 0.51467 0.76948
 Cu337 Cu 0.83219 0.50735 0.82105
 Cu338 Cu 0.79571 0.48911 0.78953
 C339 C 0.82358 0.53020 0.77521
 C340 C 0.80603 0.46616 0.83560
 C341 C 0.84937 0.47487 0.78384
 C342 C 0.77798 0.52085 0.82686
 O343 O 0.13392 0.52603 0.17424
 O344 O 0.18239 0.49908 0.13039
 O345 O 0.14501 0.48359 0.16100
 O346 O 0.17276 0.54164 0.14524
 O347 O 0.20325 0.53842 0.17556
 O348 O 0.17367 0.48117 0.19298
 O349 O 0.21205 0.49504 0.16132
 O350 O 0.16347 0.52460 0.20560
 Cu351 Cu 0.15566 0.51290 0.14960
 Cu352 Cu 0.19113 0.50953 0.18702
 C353 C 0.14013 0.52984 0.19728
 C354 C 0.20527 0.49237 0.13810
 C355 C 0.15417 0.47274 0.18004
 C356 C 0.19298 0.54977 0.15742
 O357 O 0.81707 0.53467 0.14538
 O358 O 0.86401 0.49388 0.17415
 O359 O 0.83027 0.49151 0.13672
 O360 O 0.84957 0.53684 0.18359
 O361 O 0.81741 0.52438 0.20970
 O362 O 0.79782 0.47891 0.16243
 O363 O 0.83208 0.48129 0.20043
 O364 O 0.78388 0.52215 0.17031
 Cu365 Cu 0.84348 0.51545 0.15746
 Cu366 Cu 0.80449 0.50053 0.18843
 C367 C 0.79251 0.53513 0.15239
 C368 C 0.85632 0.48071 0.19209
 C369 C 0.81068 0.47764 0.14143
 C370 C 0.83699 0.53820 0.20469
 O371 O 0.19746 0.50853 0.85046
 O372 O 0.18443 0.46754 0.79734
 O373 O 0.21800 0.46877 0.83589
 O374 O 0.16368 0.50672 0.81329
 O375 O 0.19292 0.52632 0.78945
 O376 O 0.24769 0.48824 0.81248
 O377 O 0.21340 0.48716 0.77329
 O378 O 0.22704 0.52785 0.82674
 Cu379 Cu 0.18808 0.48576 0.82655
 Cu380 Cu 0.22342 0.50906 0.79795
 C381 C 0.21429 0.52524 0.84760
 C382 C 0.19596 0.47091 0.77600
 C383 C 0.24223 0.47253 0.82873
 C384 C 0.16895 0.52303 0.79775
 C385 C 0.32827 0.41529 0.04340
 C386 C 0.30621 0.43041 0.04174
 C387 C 0.29302 0.44210 0.06358
 N388 N 0.27072 0.45509 0.05920
 N389 N 0.25703 0.46483 0.07838
 C390 C 0.26498 0.46200 0.10283
 N391 N 0.28757 0.44923 0.10731
 N392 N 0.30134 0.43938 0.08801
 C393 C 0.24878 0.47215 0.12397
 C394 C 0.22347 0.48178 0.11902
 H395 H 0.29611 0.43247 0.02372
 H396 H 0.25630 0.47153 0.14327
 H397 H 0.33714 0.41227 0.06188
 H398 H 0.21604 0.48147 0.09964
 C399 C 0.67237 0.58372 0.03987
 C400 C 0.69960 0.57867 0.04378
 C401 C 0.71083 0.57074 0.06797
 N402 N 0.73780 0.57319 0.07173
 N403 N 0.74909 0.56576 0.09302
 C404 C 0.73391 0.55543 0.11144
 N405 N 0.70681 0.55285 0.10771
 N406 N 0.69541 0.56053 0.08638
 C407 C 0.74725 0.54558 0.13396
 C408 C 0.77451 0.55061 0.13840
 H409 H 0.71417 0.58288 0.02897
 H410 H 0.73675 0.53243 0.14508
 H411 H 0.65802 0.58224 0.05547
 H412 H 0.78441 0.56404 0.12718
 C413 C 0.72870 0.36655 0.94301
 C414 C 0.75311 0.37868 0.94009
 C415 C 0.76082 0.39058 0.91643
 N416 N 0.78430 0.40301 0.91561
 N417 N 0.79072 0.41564 0.89528
 C418 C 0.77389 0.41636 0.87495
 N419 N 0.75055 0.40363 0.87558
 N420 N 0.74410 0.39098 0.89598
 C421 C 0.77990 0.43187 0.85336
 C422 C 0.80153 0.44768 0.85439
 H423 H 0.76657 0.38069 0.95617
 H424 H 0.76609 0.43207 0.83742
 H425 H 0.71641 0.36274 0.92643
 H426 H 0.81483 0.44771 0.87072
 C427 C 0.27494 0.63399 0.95740
 C428 C 0.25082 0.62249 0.95098
 C429 C 0.24817 0.60635 0.92918
 N430 N 0.22524 0.59330 0.92685
 N431 N 0.22239 0.57808 0.90766
 C432 C 0.24233 0.57540 0.88999
 N433 N 0.26521 0.58862 0.89215
 N434 N 0.26815 0.60377 0.91148
 C435 C 0.23920 0.55856 0.86880
 C436 C 0.21855 0.54175 0.86884
 H437 H 0.23293 0.62486 0.96268
 H438 H 0.25361 0.55913 0.85316
 H439 H 0.29220 0.63282 0.94462
 H440 H 0.20508 0.54045 0.88514
 C441 C 0.05293 0.30010 0.38821
 C442 C 0.05469 0.27613 0.39287
 C443 C 0.07677 0.26503 0.40680
 N444 N 0.07489 0.24180 0.41159
 N445 N 0.09356 0.23123 0.42538
 C446 C 0.11496 0.24344 0.43494
 N447 N 0.11715 0.26668 0.42984
 N448 N 0.09833 0.27733 0.41605
 C449 C 0.13468 0.23179 0.45147
 C450 C 0.12857 0.20993 0.46175
 H451 H 0.03840 0.26466 0.38660
 H452 H 0.15315 0.24092 0.45678
 H453 H 0.06999 0.31157 0.39225
 H454 H 0.10924 0.20173 0.45748
 C455 C 0.04836 0.69805 0.61064
 C456 C 0.05199 0.72201 0.60662
 C457 C 0.07530 0.73226 0.59311
 N458 N 0.07597 0.75572 0.58939
 N459 N 0.09600 0.76554 0.57612
 C460 C 0.11621 0.75230 0.56605
 N461 N 0.11577 0.72881 0.57003
 N462 N 0.09564 0.71894 0.58331
 C463 C 0.13742 0.76305 0.54999
 C464 C 0.13501 0.78607 0.54171
 H465 H 0.03667 0.73411 0.61336
 H466 H 0.15395 0.75229 0.54309
 H467 H 0.06452 0.68599 0.60598
 H468 H 0.11769 0.79631 0.54774
 C469 C 0.94061 0.72216 0.36305
 C470 C 0.91811 0.71454 0.37696
 C471 C 0.90043 0.73136 0.39057
 N472 N 0.88075 0.72349 0.40658
 N473 N 0.86661 0.73846 0.42102
 C474 C 0.87171 0.76188 0.42007
 N475 N 0.89113 0.76976 0.40383
 N476 N 0.90521 0.75481 0.38938
 C477 C 0.85798 0.77858 0.43735
 C478 C 0.83749 0.77179 0.45418
 H479 H 0.91566 0.69607 0.38098
 H480 H 0.86498 0.79662 0.43749
 H481 H 0.94326 0.74079 0.36001
 H482 H 0.82975 0.75398 0.45349
 C483 C 0.95579 0.29006 0.63273
 C484 C 0.94602 0.26702 0.63283
 C485 C 0.92524 0.25800 0.61528
 N486 N 0.92171 0.23449 0.61298
 N487 N 0.90465 0.22550 0.59592
 C488 C 0.89032 0.23967 0.58050
 N489 N 0.89343 0.26326 0.58308
 N490 N 0.91072 0.27229 0.60007
 C491 C 0.87238 0.22958 0.56086
 C492 C 0.87570 0.20651 0.55241
 H493 H 0.95576 0.25427 0.64474
 H494 H 0.85741 0.24062 0.55211
 H495 H 0.94494 0.30337 0.62248
 H496 H 0.89210 0.19622 0.55996
 C497 C 0.37530 0.04847 0.29041
 C498 C 0.40137 0.05791 0.29049
 C499 C 0.40914 0.07795 0.27472
 N500 N 0.43256 0.08973 0.27951
 N501 N 0.44132 0.10637 0.26383
 C502 C 0.42713 0.11163 0.24261
 N503 N 0.40366 0.09990 0.23785
 N504 N 0.39472 0.08345 0.25371
 C505 C 0.43844 0.12760 0.22350
 C506 C 0.45918 0.14342 0.22922
 H507 H 0.41694 0.04963 0.30163
 H508 H 0.43155 0.12570 0.20403
 H509 H 0.35886 0.05794 0.28179
 H510 H 0.46442 0.14705 0.24888
 C511 C 0.61997 0.04350 0.72100
 C512 C 0.61040 0.04494 0.74602
 C513 C 0.59552 0.06525 0.75619
 N514 N 0.58542 0.06443 0.78022
 N515 N 0.57034 0.08182 0.78944
 C516 C 0.56471 0.10074 0.77500
 N517 N 0.57508 0.10173 0.75101
 N518 N 0.59017 0.08427 0.74174
 C519 C 0.54687 0.11942 0.78487
 C520 C 0.53309 0.11671 0.80792
 H521 H 0.61282 0.03018 0.75855
 H522 H 0.54372 0.13489 0.77354
 H523 H 0.61959 0.05896 0.70923
 H524 H 0.53590 0.10084 0.81868
 C525 C 0.38342 0.94617 0.70340
 C526 C 0.37983 0.93593 0.72713
 C527 C 0.39400 0.91495 0.73547
 N528 N 0.38907 0.90701 0.75926
 N529 N 0.40348 0.88959 0.76864
 C530 C 0.42342 0.87937 0.75461
 N531 N 0.42796 0.88690 0.73049
 N532 N 0.41352 0.90444 0.72107
 C533 C 0.44139 0.86213 0.76631
 C534 C 0.44235 0.86054 0.79274
 H535 H 0.36679 0.94451 0.74101
 H536 H 0.45585 0.85273 0.75453
 H537 H 0.39412 0.93702 0.68827
 H538 H 0.42905 0.87136 0.80430
 C539 C 0.63667 0.96470 0.27348
 C540 C 0.63761 0.96289 0.24700
 C541 C 0.62601 0.94289 0.23290
 N542 N 0.61306 0.92506 0.24499
 N543 N 0.60115 0.90787 0.23168
 C544 C 0.60186 0.90789 0.20582
 N545 N 0.61506 0.92556 0.19380
 N546 N 0.62696 0.94272 0.20709
 C547 C 0.58648 0.89069 0.19066
 C548 C 0.57119 0.87267 0.20145
 H549 H 0.64676 0.97685 0.23602
 H550 H 0.58521 0.89368 0.17036
 H551 H 0.62949 0.94995 0.28451
 H552 H 0.57319 0.86869 0.22146
 C553 C 0.38578 0.28499 0.97350
 C554 C 0.38796 0.26061 0.97497
 C555 C 0.39450 0.24538 0.95303
 N556 N 0.40383 0.25406 0.93058
 N557 N 0.41113 0.23960 0.91163
 C558 C 0.40918 0.21598 0.91445
 N559 N 0.39959 0.20744 0.93676
 N560 N 0.39242 0.22184 0.95568
 C561 C 0.41928 0.19940 0.89505
 C562 C 0.43287 0.20610 0.87289
 H563 H 0.38358 0.25173 0.99261
 H564 H 0.41830 0.18098 0.89982
 H565 H 0.38669 0.29276 0.95477
 H566 H 0.43345 0.22432 0.86738
 C567 C 0.60207 0.69895 0.95709
 C568 C 0.59828 0.72316 0.95541
 C569 C 0.58894 0.73487 0.93235
 N570 N 0.58795 0.75859 0.93229
 N571 N 0.57821 0.76984 0.91235
 C572 C 0.56907 0.75785 0.89161
 N573 N 0.57035 0.73407 0.89149
 N574 N 0.58014 0.72276 0.91150
 C575 C 0.55600 0.77033 0.87061
 C576 C 0.55054 0.79419 0.87294
 H577 H 0.60318 0.73461 0.97128
 H578 H 0.54813 0.76035 0.85459
 H579 H 0.60028 0.68855 0.93976
 H580 H 0.55753 0.80377 0.88961
 C581 C 0.35477 0.73913 0.05172
 C582 C 0.36290 0.76241 0.05571
 C583 C 0.38030 0.77045 0.07665
 N584 N 0.38738 0.79341 0.07779
 N585 N 0.40530 0.80113 0.09475
 C586 C 0.41694 0.78619 0.11127
 N587 N 0.40947 0.76322 0.11055
 N588 N 0.39151 0.75544 0.09345
 C589 C 0.43845 0.79464 0.12849
 C590 C 0.45107 0.81618 0.12411
 H591 H 0.35701 0.77576 0.04243
 H592 H 0.44555 0.78339 0.14348
 H593 H 0.35669 0.72696 0.06729
 H594 H 0.44471 0.82659 0.10812
 C595 C 0.64685 0.26827 0.04246
 C596 C 0.63601 0.24564 0.04438
 C597 C 0.62236 0.23678 0.06727
 N598 N 0.61055 0.21528 0.06626
 N599 N 0.59539 0.20764 0.08551
 C600 C 0.59137 0.22124 0.10653
 N601 N 0.60357 0.24263 0.10780
 N602 N 0.61872 0.25034 0.08844
 C603 C 0.57321 0.21333 0.12711
 C604 C 0.55680 0.19352 0.12394
 H605 H 0.63570 0.23409 0.02790
 H606 H 0.57200 0.22366 0.14451
 H607 H 0.65156 0.27781 0.05987
 H608 H 0.55763 0.18364 0.10622
 C609 C 0.27832 0.04176 0.62372
 C610 C 0.25128 0.04467 0.61682
 C611 C 0.23976 0.06693 0.60877
 N612 N 0.25536 0.08436 0.59884
 N613 N 0.24387 0.10324 0.58891
 C614 C 0.21645 0.10533 0.58871
 N615 N 0.20105 0.08810 0.59907
 N616 N 0.21247 0.06923 0.60879
 C617 C 0.20284 0.12444 0.57564
 C618 C 0.21605 0.14013 0.55955
 H619 H 0.23716 0.03013 0.61826
 H620 H 0.18090 0.12444 0.57656
 H621 H 0.29058 0.05730 0.62721
 H622 H 0.23796 0.14101 0.55886
 C623 C 0.70624 0.03368 0.40843
 C624 C 0.71081 0.05667 0.40052
 C625 C 0.72799 0.07283 0.41553
 N626 N 0.73064 0.09567 0.40884
 N627 N 0.74785 0.10986 0.42116
 C628 C 0.76327 0.10159 0.44038
 N629 N 0.76061 0.07881 0.44702
 N630 N 0.74329 0.06472 0.43487
 C631 C 0.78317 0.11643 0.45370
 C632 C 0.78296 0.14082 0.45314
 H633 H 0.70447 0.06224 0.38188
 H634 H 0.79754 0.10773 0.46585
 H635 H 0.71268 0.02896 0.42738
 H636 H 0.76726 0.14985 0.44291
 C637 C 0.73275 0.96798 0.62196
 C638 C 0.72592 0.94422 0.62253
 C639 C 0.74278 0.92652 0.60936
 N640 N 0.73399 0.90399 0.60728
 N641 N 0.74809 0.88829 0.59377
 C642 C 0.77152 0.89455 0.58182
 N643 N 0.78047 0.91699 0.58417
 N644 N 0.76638 0.93266 0.59766
 C645 C 0.78641 0.87794 0.56533
 C646 C 0.77746 0.85501 0.56109
 H647 H 0.70667 0.93869 0.63052
 H648 H 0.80409 0.88437 0.55518
 H649 H 0.75156 0.97309 0.61276
 H650 H 0.75991 0.84851 0.57138
 C651 C 0.26634 0.95490 0.37123
 C652 C 0.27816 0.93297 0.37419
 C653 C 0.26213 0.91315 0.38411
 N654 N 0.27459 0.89458 0.39482
 N655 N 0.26010 0.87780 0.40618
 C656 C 0.23262 0.87896 0.40707
 N657 N 0.22021 0.89722 0.39585
 N658 N 0.23466 0.91399 0.38462
 C659 C 0.21611 0.86230 0.42175
 C660 C 0.22692 0.84469 0.43673
 H661 H 0.29990 0.93113 0.37227
 H662 H 0.19451 0.86549 0.42255
 H663 H 0.24496 0.95687 0.37545
 H664 H 0.24828 0.84061 0.43555
 C665 C 0.07612 0.38917 0.68795
 C666 C 0.08423 0.41209 0.69375
 C667 C 0.10994 0.41726 0.70666
 N668 N 0.12049 0.43926 0.70618
 N669 N 0.14150 0.44509 0.72080
 C670 C 0.15251 0.42920 0.73670
 N671 N 0.14208 0.40714 0.73704
 N672 N 0.12130 0.40122 0.72215
 C673 C 0.17218 0.43667 0.75609
 C674 C 0.18734 0.45718 0.75361
 H675 H 0.07092 0.42666 0.69025
 H676 H 0.17210 0.42750 0.77404
 H677 H 0.09175 0.37594 0.68672
 H678 H 0.18965 0.46508 0.73504
 C679 C 0.03094 0.60135 0.30835
 C680 C 0.03183 0.58042 0.29418
 C681 C 0.05621 0.57222 0.28057
 N682 N 0.05341 0.55561 0.26211
 N683 N 0.07479 0.54816 0.24889
 C684 C 0.09993 0.55685 0.25372
 N685 N 0.10291 0.57320 0.27254
 N686 N 0.08139 0.58085 0.28567
 C687 C 0.12329 0.54890 0.23831
 C688 C 0.11899 0.53958 0.21401
 H689 H 0.01372 0.57025 0.29066
 H690 H 0.14365 0.55102 0.24558
 H691 H 0.04952 0.61155 0.30960
 H692 H 0.09862 0.53955 0.20642
 C693 C 0.96462 0.39240 0.28715
 C694 C 0.96264 0.40264 0.26313
 C695 C 0.93859 0.41481 0.25385
 N696 N 0.93925 0.42352 0.22998
 N697 N 0.91836 0.43530 0.22097
 C698 C 0.89586 0.43886 0.23544
 N699 N 0.89501 0.42995 0.25933
 N700 N 0.91603 0.41813 0.26842
 C701 C 0.87332 0.45286 0.22553
 C702 C 0.87644 0.46483 0.20268
 H703 H 0.97904 0.40123 0.24951
 H704 H 0.85490 0.45466 0.23667
 H705 H 0.94659 0.39186 0.29903
 H706 H 0.89545 0.46358 0.19235
 C707 C 0.95623 0.60189 0.70774
 C708 C 0.92961 0.60403 0.69913
 C709 C 0.90731 0.59561 0.71543
 N710 N 0.88482 0.58530 0.70539
 N711 N 0.86570 0.57631 0.72063
 C712 C 0.86828 0.57776 0.74637
 N713 N 0.89038 0.58863 0.75626
 N714 N 0.90954 0.59732 0.74111
 C715 C 0.84948 0.56600 0.76394
 C716 C 0.83168 0.54812 0.75659
 H717 H 0.92497 0.61121 0.68073
 H718 H 0.85323 0.56883 0.78406
 H719 H 0.95898 0.59139 0.72463
 H720 H 0.82685 0.54534 0.73669
 C721 C 0.68832 0.59915 0.94784
 C722 C 0.69005 0.57649 0.93790
 C723 C 0.70745 0.57080 0.91593
 N724 N 0.70359 0.55044 0.90283
 N725 N 0.72033 0.54434 0.88393
 C726 C 0.74170 0.55829 0.87762
 N727 N 0.74558 0.57864 0.89075
 N728 N 0.72866 0.58487 0.90946
 C729 C 0.76184 0.55059 0.85866
 C730 C 0.75628 0.53281 0.84102
 H731 H 0.67844 0.56247 0.94658
 H732 H 0.78196 0.55826 0.85948
 H733 H 0.69739 0.61358 0.93751
 H734 H 0.73569 0.52650 0.83868
 C735 C 0.32454 0.39477 0.95133
 C736 C 0.32120 0.41742 0.94199
 C737 C 0.30752 0.42202 0.91775
 N738 N 0.31102 0.44301 0.90627
 N739 N 0.29669 0.44842 0.88576
 C740 C 0.27812 0.43311 0.87611
 N741 N 0.27470 0.41206 0.88754
 N742 N 0.28925 0.40654 0.90788
 C743 C 0.25942 0.44028 0.85597
 C744 C 0.26443 0.45978 0.84084
 H745 H 0.32898 0.43245 0.95241
 H746 H 0.23999 0.43139 0.85481
 H747 H 0.32104 0.38023 0.93825
 H748 H 0.28455 0.46748 0.84026
 C749 C 0.24473 0.65227 0.04578
 C750 C 0.25397 0.64849 0.07040
 C751 C 0.23739 0.63485 0.08846
 N752 N 0.24912 0.62451 0.10872
 N753 N 0.23504 0.60959 0.12314
 C754 C 0.20870 0.60455 0.11784
 N755 N 0.19682 0.61538 0.09803
 N756 N 0.21088 0.63021 0.08361
 C757 C 0.19375 0.58595 0.13118
 C758 C 0.20546 0.57212 0.14975
 H759 H 0.27492 0.65226 0.07502
 H760 H 0.17368 0.58152 0.12430
 H761 H 0.22439 0.64669 0.04084
 H762 H 0.22511 0.57682 0.15742
 C763 C 0.72162 0.37850 0.03764
 C764 C 0.74698 0.38929 0.04013
 C765 C 0.75516 0.40351 0.06235
 N766 N 0.77989 0.41402 0.06227
 N767 N 0.78767 0.42761 0.08168
 C768 C 0.77103 0.43121 0.10201
 N769 N 0.74632 0.42056 0.10222
 N770 N 0.73848 0.40697 0.08272
 C771 C 0.77924 0.44689 0.12314
 C772 C 0.80302 0.46024 0.12186
 H773 H 0.76181 0.38742 0.02498
 H774 H 0.76582 0.44874 0.13943
 H775 H 0.70758 0.37874 0.05358
 H776 H 0.81595 0.45883 0.10518
 C777 C 0.94835 0.70353 0.62567
 C778 C 0.94656 0.72701 0.61883
 C779 C 0.92219 0.73728 0.60771
 N780 N 0.92305 0.75990 0.60016
 N781 N 0.90223 0.76919 0.58800
 C782 C 0.87971 0.75622 0.58285
 N783 N 0.87864 0.73364 0.59074
 N784 N 0.89954 0.72431 0.60291
 C785 C 0.85753 0.76604 0.56773
 C786 C 0.86056 0.78770 0.55598
 H787 H 0.96435 0.73817 0.62021
 H788 H 0.83946 0.75557 0.56449
 H789 H 0.93015 0.69284 0.62659
 H790 H 0.87908 0.79768 0.55877
 C791 C 0.95280 0.29755 0.37648
 C792 C 0.95030 0.27360 0.38089
 C793 C 0.92682 0.26275 0.39352
 N794 N 0.92649 0.23922 0.39656
 N795 N 0.90716 0.22898 0.41034
 C796 C 0.88742 0.24185 0.42176
 N797 N 0.88743 0.26542 0.41838
 N798 N 0.90683 0.27571 0.40452
 C799 C 0.86769 0.23062 0.43907
 C800 C 0.87049 0.20711 0.44540
 H801 H 0.96730 0.26234 0.37644
 H802 H 0.85240 0.24123 0.44842
 H803 H 0.93533 0.30882 0.37831
 H804 H 0.88631 0.19689 0.43630
 C805 C 0.05007 0.26912 0.65456
 C806 C 0.07577 0.27589 0.64608
 C807 C 0.09359 0.25909 0.63293
 N808 N 0.11403 0.26700 0.61781
 N809 N 0.12788 0.25219 0.60295
 C810 C 0.12176 0.22894 0.60276
 N811 N 0.10182 0.22099 0.61836
 N812 N 0.08796 0.23578 0.63314
 C813 C 0.13428 0.21266 0.58446
 C814 C 0.15285 0.21969 0.56590
 H815 H 0.08089 0.29433 0.64484
 H816 H 0.12701 0.19469 0.58445
 H817 H 0.04460 0.25069 0.65414
 H818 H 0.16134 0.23724 0.56627
 C819 C 0.03903 0.71291 0.37040
 C820 C 0.04458 0.73697 0.36985
 C821 C 0.06887 0.74789 0.38090
 N822 N 0.08607 0.73586 0.39598
 N823 N 0.10622 0.74699 0.40802
 C824 C 0.10982 0.77048 0.40535
 N825 N 0.09288 0.78230 0.38998
 N826 N 0.07280 0.77123 0.37801
 C827 C 0.12945 0.78387 0.42061
 C828 C 0.14708 0.77389 0.43796
 H829 H 0.03043 0.74877 0.36113
 H830 H 0.12840 0.80280 0.41958
 H831 H 0.05539 0.70117 0.37504
 H832 H 0.15000 0.75511 0.43827
 C833 C 0.62132 0.95638 0.71548
 C834 C 0.61101 0.95320 0.74013
 C835 C 0.60017 0.93093 0.74983
 N836 N 0.59338 0.92965 0.77482
 N837 N 0.58182 0.91042 0.78413
 C838 C 0.57648 0.89165 0.76882
 N839 N 0.58351 0.89279 0.74378
 N840 N 0.59518 0.91210 0.73442
 C841 C 0.56169 0.87112 0.77889
 C842 C 0.55215 0.87109 0.80398
 H843 H 0.61147 0.96752 0.75378
 H844 H 0.55643 0.85685 0.76603
 H845 H 0.62452 0.94097 0.70361
 H846 H 0.55711 0.88571 0.81648
 C847 C 0.39217 0.96329 0.29464
 C848 C 0.40754 0.96310 0.27212
 C849 C 0.41912 0.94203 0.26019
 N850 N 0.42960 0.94382 0.23640
 N851 N 0.44048 0.92536 0.22474
 C852 C 0.44139 0.90429 0.23638
 N853 N 0.43095 0.90241 0.26031
 N854 N 0.41989 0.92097 0.27201
 C855 C 0.45446 0.88422 0.22346
 C856 C 0.46365 0.88634 0.19840
 H857 H 0.40968 0.97873 0.26090
 H858 H 0.45804 0.86832 0.23393
 H859 H 0.38819 0.94668 0.30380
 H860 H 0.45961 0.90231 0.18818
 C861 C 0.64867 0.05103 0.28081
 C862 C 0.64132 0.05546 0.25563
 C863 C 0.62795 0.07699 0.24735
 N864 N 0.62060 0.07866 0.22263
 N865 N 0.60563 0.09644 0.21486
 C866 C 0.59731 0.11331 0.23151
 N867 N 0.60515 0.11198 0.25621
 N868 N 0.62013 0.09408 0.26404
 C869 C 0.57851 0.13169 0.22320
 C870 C 0.56454 0.12901 0.20032
 H871 H 0.64400 0.04207 0.24111
 H872 H 0.57398 0.14624 0.23590
 H873 H 0.65043 0.06580 0.29389
 H874 H 0.56816 0.11358 0.18861
 C875 C 0.36361 0.02669 0.73369
 C876 C 0.36498 0.05058 0.72843
 C877 C 0.37475 0.06757 0.74771
 N878 N 0.38282 0.08937 0.74071
 N879 N 0.39396 0.10409 0.75763
 C880 C 0.39731 0.09755 0.78221
 N881 N 0.38874 0.07595 0.78930
 N882 N 0.37771 0.06123 0.77239
 C883 C 0.41190 0.11249 0.80068
 C884 C 0.42506 0.13321 0.79384
 H885 H 0.36184 0.05657 0.70919
 H886 H 0.41452 0.10573 0.81970
 H887 H 0.36881 0.02091 0.75261
 H888 H 0.42254 0.14008 0.77487
 C889 C 0.61498 0.69955 0.05075
 C890 C 0.61785 0.72376 0.05338
 C891 C 0.60721 0.73716 0.07523
 N892 N 0.60929 0.76084 0.07507
 N893 N 0.59709 0.77373 0.09293
 C894 C 0.58223 0.76348 0.11165
 N895 N 0.58059 0.73972 0.11216
 N896 N 0.59281 0.72677 0.09422
 C897 C 0.56642 0.77791 0.12975
 C898 C 0.56306 0.80177 0.12549
 H899 H 0.62600 0.73369 0.03757
 H900 H 0.55548 0.76944 0.14509
 H901 H 0.60934 0.68906 0.06703
 H902 H 0.57328 0.80980 0.10945
 C903 C 0.38441 0.29928 0.06688
 C904 C 0.38201 0.27588 0.07401
 C905 C 0.39653 0.26574 0.09561
 N906 N 0.39343 0.24257 0.10031
 N907 N 0.40872 0.23210 0.11750
 C908 C 0.42785 0.24433 0.13067
 N909 N 0.43063 0.26767 0.12637
 N910 N 0.41528 0.27819 0.10911
 C911 C 0.44683 0.23208 0.14755
 C912 C 0.44756 0.20764 0.14769
 H913 H 0.37101 0.26381 0.06172
 H914 H 0.46203 0.24215 0.15777
 H915 H 0.39289 0.31207 0.08004
 H916 H 0.43292 0.19786 0.13646
 C917 C 0.62845 0.27395 0.95015
 C918 C 0.62433 0.24993 0.94631
 C919 C 0.60674 0.23993 0.92649
 N920 N 0.60070 0.21673 0.92705
 N921 N 0.58344 0.20729 0.91044
 C922 C 0.57160 0.22069 0.89253
 N923 N 0.57795 0.24388 0.89167
 N924 N 0.59514 0.25338 0.90843
 C925 C 0.55154 0.21049 0.87493
 C926 C 0.53969 0.18866 0.87947
 H927 H 0.63310 0.23771 0.95949
 H928 H 0.54485 0.22087 0.85905
 H929 H 0.62167 0.28624 0.93602
 H930 H 0.54531 0.17896 0.89621
 C931 C 0.34284 0.74874 0.95957
 C932 C 0.35421 0.73847 0.93781
 C933 C 0.36947 0.75281 0.91937
 N934 N 0.38594 0.74249 0.90177
 N935 N 0.40215 0.75545 0.88704
 C936 C 0.40245 0.77919 0.88942
 N937 N 0.38563 0.78947 0.90664
 N938 N 0.36948 0.77655 0.92131
 C939 C 0.42193 0.79391 0.87550
 C940 C 0.44031 0.78531 0.85748
 H941 H 0.35534 0.71956 0.93624
 H942 H 0.42261 0.81236 0.88061
 H943 H 0.34347 0.76765 0.96168
 H944 H 0.43904 0.76727 0.85096
 C945 C 0.71656 0.94998 0.38478
 C946 C 0.71201 0.93948 0.40828
 C947 C 0.72500 0.91743 0.41539
 N948 N 0.71595 0.90548 0.43601
 N949 N 0.72889 0.88652 0.44391
 C950 C 0.75147 0.87890 0.43155
 N951 N 0.76043 0.89079 0.41087
 N952 N 0.74735 0.90961 0.40283
 C953 C 0.76812 0.86016 0.44209
 C954 C 0.75869 0.84500 0.46086
 H955 H 0.69870 0.94787 0.42204
 H956 H 0.78927 0.85965 0.43649
 H957 H 0.72734 0.94050 0.36993
 H958 H 0.73721 0.84372 0.46502
 C959 C 0.27684 0.95530 0.61152
 C960 C 0.26484 0.95587 0.58753
 C961 C 0.25111 0.93583 0.57536
 N962 N 0.25454 0.91340 0.58313
 N963 N 0.24172 0.89572 0.57130
 C964 C 0.22490 0.89997 0.55149
 N965 N 0.22147 0.92237 0.54395
 N966 N 0.23443 0.93992 0.55555
 C967 C 0.21014 0.88126 0.53799
 C968 C 0.21717 0.85765 0.53834
 H969 H 0.26454 0.97209 0.57708
 H970 H 0.19417 0.88681 0.52539
 H971 H 0.27861 0.93871 0.62117
 H972 H 0.23409 0.85189 0.54965
 C973 C 0.28072 0.03942 0.39257
 C974 C 0.25378 0.04419 0.39872
 C975 C 0.24536 0.06613 0.41127
 N976 N 0.21883 0.06944 0.41695
 N977 N 0.21076 0.08895 0.42874
 C978 C 0.22890 0.10598 0.43524
 N979 N 0.25544 0.10277 0.42937
 N980 N 0.26354 0.08321 0.41758
 C981 C 0.22031 0.12699 0.44957
 C982 C 0.19398 0.12901 0.45901
 H983 H 0.23802 0.03171 0.39371
 H984 H 0.23540 0.14013 0.45449
 H985 H 0.29603 0.05274 0.39621
 H986 H 0.17923 0.11538 0.45478
 C987 C 0.70186 0.04985 0.60874
 C988 C 0.71611 0.05253 0.58594
 C989 C 0.72724 0.07510 0.57751
 N990 N 0.74860 0.07499 0.56122
 N991 N 0.76055 0.09492 0.55444
 C992 C 0.75152 0.11582 0.56352
 N993 N 0.72968 0.11608 0.57939
 N994 N 0.71788 0.09601 0.58648
 C995 C 0.76557 0.13753 0.55599
 C996 C 0.79333 0.13668 0.55128
 H997 H 0.72211 0.03722 0.57503
 H998 H 0.75403 0.15308 0.55188
 H999 H 0.69456 0.06531 0.61872
 H1000 H 0.80418 0.12120 0.55711
 C1001 C 0.93261 0.59706 0.32552
 C1002 C 0.91179 0.60792 0.31240
 C1003 C 0.89159 0.59414 0.29803
 N1004 N 0.88076 0.60321 0.27664
 N1005 N 0.86506 0.59008 0.26155
 C1006 C 0.85940 0.56745 0.26742
 N1007 N 0.86955 0.55857 0.28921
 N1008 N 0.88551 0.57163 0.30417
 C1009 C 0.84454 0.55210 0.24953
 C1010 C 0.84593 0.55591 0.22339
 H1011 H 0.91348 0.62646 0.30843
 H1012 H 0.83573 0.53595 0.25654
 H1013 H 0.93225 0.57816 0.32719
 H1014 H 0.85734 0.57081 0.21635
 C1015 C 0.97814 0.39959 0.70643
 C1016 C 0.98214 0.41520 0.72675
 C1017 C 0.95980 0.42748 0.73963
 N1018 N 0.93372 0.42472 0.73200
 N1019 N 0.91380 0.43601 0.74406
 C1020 C 0.91925 0.45044 0.76417
 N1021 N 0.94530 0.45318 0.77175
 N1022 N 0.96520 0.44190 0.75970
 C1023 C 0.89766 0.46320 0.77765
 C1024 C 0.87053 0.46126 0.77077
 H1025 H 1.00225 0.41803 0.73430
 H1026 H 0.90343 0.47468 0.79331
 H1027 H 0.95768 0.39554 0.70037
 H1028 H 0.86465 0.44981 0.75513
 C1029 C 0.05482 0.61298 0.71225
 C1030 C 0.05703 0.60305 0.73632
 C1031 C 0.08180 0.59185 0.74547
 N1032 N 0.08089 0.57993 0.76764
 N1033 N 0.10238 0.56824 0.77564
 C1034 C 0.12569 0.56804 0.76179
 N1035 N 0.12678 0.58024 0.73974
 N1036 N 0.10518 0.59187 0.73166
 C1037 C 0.14911 0.55426 0.77006
 C1038 C 0.14662 0.53802 0.78961
 H1039 H 0.03941 0.60216 0.74866
 H1040 H 0.16817 0.55614 0.75993
 H1041 H 0.07291 0.61564 0.70083
 H1042 H 0.12717 0.53553 0.79890
 C1043 C 0.06295 0.37647 0.27884
 C1044 C 0.06480 0.38144 0.25293
 C1045 C 0.08791 0.39396 0.24154
 N1046 N 0.08682 0.40004 0.21668
 N1047 N 0.10564 0.41403 0.20662
 C1048 C 0.12630 0.42253 0.22106
 N1049 N 0.12775 0.41605 0.24581
 N1050 N 0.10887 0.40204 0.25590
 C1051 C 0.14517 0.44033 0.21098
 C1052 C 0.14091 0.45067 0.18742
 H1053 H 0.04728 0.37838 0.24098
 H1054 H 0.16071 0.44728 0.22350
 H1055 H 0.08090 0.37731 0.29058
 H1056 H 0.12502 0.44396 0.17515
   
