data_POSCAR
  _audit_creation_date              2014-09-24
  _audit_creation_method            'ToBaCCo'
  _symmetry_space_group_name_H-M    'P1'
  _symmetry_Int_Tables_number       1
  _symmetry_cell_setting            triclinic
  loop_
  _symmetry_equiv_pos_as_xyz
 x,y,z
_cell_length_a 65.6348
_cell_length_b 68.2348
_cell_length_c 66.1795
_cell_angle_alpha 89.532500
_cell_angle_beta 88.653000
_cell_angle_gamma 90.358200
loop_
  _atom_site_label
  _atom_site_type_symbol
  _atom_site_fract_x
  _atom_site_fract_y
  _atom_site_fract_z
N1 N 0.25032 0.22202 0.20576
 N2 N 0.24259 0.23772 0.19732
 C3 C 0.25416 0.24279 0.18099
 C4 C 0.26994 0.22949 0.17906
 C5 C 0.26695 0.21650 0.19505
 H6 H 0.25137 0.25525 0.17128
 H7 H 0.27651 0.20427 0.19900
 Cu8 Cu 0.21852 0.25016 0.20901
 Cu9 Cu 0.23902 0.21046 0.23063
 Cu10 Cu 0.19645 0.23294 0.25187
 N11 N 0.19431 0.26241 0.22068
 N12 N 0.18589 0.25563 0.23756
 C13 C 0.16988 0.26689 0.24273
 C14 C 0.16809 0.28157 0.22832
 C15 C 0.18388 0.27822 0.21452
 H16 H 0.16030 0.26452 0.25604
 H17 H 0.18776 0.28691 0.20124
 N18 N 0.20937 0.20981 0.26399
 N19 N 0.22539 0.20108 0.25579
 C20 C 0.23064 0.18589 0.26767
 C21 C 0.21733 0.18505 0.28421
 C22 C 0.20405 0.20045 0.28132
 H23 H 0.24348 0.17642 0.26476
 H24 H 0.19140 0.20452 0.29111
 H25 H 0.20952 0.21983 0.22679
 H26 H 0.22641 0.23597 0.24181
 N27 N 0.74419 -0.21334 0.19899
 N28 N 0.74916 -0.23115 0.19350
 C29 C 0.73704 -0.23687 0.17851
 C30 C 0.72356 -0.22181 0.17431
 C31 C 0.72870 -0.20708 0.18771
 H32 H 0.73805 -0.25101 0.17136
 H33 H 0.72166 -0.19290 0.18940
 Cu34 Cu 0.77074 -0.24549 0.20652
 Cu35 Cu 0.75775 -0.19991 0.22078
 Cu36 Cu 0.80112 -0.22187 0.23881
 N37 N 0.79689 -0.25599 0.21421
 N38 N 0.80898 -0.24656 0.22636
 C39 C 0.82580 -0.25732 0.22925
 C40 C 0.82414 -0.27462 0.21841
 C41 C 0.80550 -0.27310 0.20900
 H42 H 0.83795 -0.25306 0.23907
 H43 H 0.79852 -0.28359 0.19913
 N44 N 0.79039 -0.19700 0.24950
 N45 N 0.77368 -0.18879 0.24279
 C46 C 0.76933 -0.17297 0.25406
 C47 C 0.78400 -0.17108 0.26861
 C48 C 0.79716 -0.18655 0.26519
 H49 H 0.75619 -0.16375 0.25208
 H50 H 0.81015 -0.19046 0.27409
 H51 H 0.78506 -0.21352 0.21367
 H52 H 0.76987 -0.22390 0.23565
 N53 N 0.73760 0.22439 0.78018
 N54 N 0.74202 0.24281 0.78381
 C55 C 0.73041 0.24903 0.79949
 C56 C 0.71803 0.23363 0.80612
 C57 C 0.72305 0.21823 0.79345
 H58 H 0.73116 0.26360 0.80574
 H59 H 0.71649 0.20366 0.79369
 Cu60 Cu 0.76262 0.25698 0.76795
 Cu61 Cu 0.75091 0.20990 0.75844
 Cu62 Cu 0.79288 0.23220 0.73535
 N63 N 0.78823 0.26785 0.75762
 N64 N 0.80019 0.25807 0.74520
 C65 C 0.81688 0.26897 0.74072
 C66 C 0.81535 0.28668 0.75089
 C67 C 0.79683 0.28532 0.76148
 H68 H 0.82906 0.26429 0.73065
 H69 H 0.79005 0.29604 0.77145
 N70 N 0.78277 0.20615 0.72754
 N71 N 0.76654 0.19781 0.73612
 C72 C 0.76274 0.18077 0.72679
 C73 C 0.77732 0.17820 0.71161
 C74 C 0.78981 0.19457 0.71259
 H75 H 0.75016 0.17103 0.73063
 H76 H 0.80261 0.19813 0.70263
 H77 H 0.77788 0.22519 0.76226
 H78 H 0.76172 0.23318 0.74075
 N79 N 0.25788 -0.21901 0.79517
 N80 N 0.25055 -0.23532 0.80320
 C81 C 0.26217 -0.24063 0.81880
 C82 C 0.27761 -0.22687 0.82071
 C83 C 0.27435 -0.21334 0.80541
 H84 H 0.25953 -0.25351 0.82812
 H85 H 0.28343 -0.20047 0.80177
 Cu86 Cu 0.22667 -0.24822 0.79244
 Cu87 Cu 0.24576 -0.20649 0.77188
 Cu88 Cu 0.20350 -0.22925 0.75192
 N89 N 0.20360 -0.26126 0.78029
 N90 N 0.19440 -0.25364 0.76470
 C91 C 0.17922 -0.26568 0.75924
 C92 C 0.17887 -0.28195 0.77203
 C93 C 0.19465 -0.27850 0.78522
 H94 H 0.16955 -0.26289 0.74658
 H95 H 0.19945 -0.28784 0.79745
 N96 N 0.21504 -0.20453 0.74103
 N97 N 0.23136 -0.19605 0.74839
 C98 C 0.23602 -0.18002 0.73717
 C99 C 0.22193 -0.17828 0.72205
 C100 C 0.20883 -0.19406 0.72501
 H101 H 0.24875 -0.17033 0.73979
 H102 H 0.19607 -0.19794 0.71579
 H103 H 0.21661 -0.21723 0.77709
 H104 H 0.23362 -0.23192 0.76007
 N105 N 0.75032 -0.22179 0.79531
 N106 N 0.75702 -0.23841 0.80272
 C107 C 0.74488 -0.24396 0.81848
 C108 C 0.72979 -0.23005 0.82111
 C109 C 0.73380 -0.21615 0.80615
 H110 H 0.74685 -0.25714 0.82738
 H111 H 0.72504 -0.20316 0.80301
 Cu112 Cu 0.78077 -0.25125 0.79085
 Cu113 Cu 0.76292 -0.20913 0.77163
 Cu114 Cu 0.80539 -0.23167 0.75035
 N115 N 0.80501 -0.26343 0.77914
 N116 N 0.81444 -0.25578 0.76320
 C117 C 0.83034 -0.26715 0.75797
 C118 C 0.83105 -0.28293 0.77136
 C119 C 0.81467 -0.27991 0.78466
 H120 H 0.84055 -0.26404 0.74529
 H121 H 0.80988 -0.28911 0.79728
 N122 N 0.79394 -0.20720 0.73953
 N123 N 0.77775 -0.19864 0.74760
 C124 C 0.77337 -0.18263 0.73652
 C125 C 0.78749 -0.18097 0.72071
 C126 C 0.80031 -0.19681 0.72316
 H127 H 0.76077 -0.17293 0.73969
 H128 H 0.81305 -0.20076 0.71343
 H129 H 0.77498 -0.23420 0.75899
 H130 H 0.79178 -0.22002 0.77601
 N131 N 0.25199 0.20934 0.80319
 N132 N 0.24744 0.22741 0.80817
 C133 C 0.26005 0.23343 0.82265
 C134 C 0.27334 0.21833 0.82700
 C135 C 0.26769 0.20325 0.81432
 H136 H 0.25957 0.24778 0.82941
 H137 H 0.27473 0.18903 0.81292
 Cu138 Cu 0.22601 0.24182 0.79493
 Cu139 Cu 0.23784 0.19554 0.78197
 Cu140 Cu 0.19542 0.21830 0.76276
 N141 N 0.20039 0.25296 0.78644
 N142 N 0.18831 0.24365 0.77416
 C143 C 0.17203 0.25493 0.77045
 C144 C 0.17407 0.27233 0.78091
 C145 C 0.19228 0.27050 0.79092
 H146 H 0.15998 0.25104 0.76035
 H147 H 0.19919 0.28116 0.80066
 N148 N 0.20523 0.19270 0.75315
 N149 N 0.22147 0.18408 0.76040
 C150 C 0.22513 0.16760 0.74990
 C151 C 0.21050 0.16573 0.73525
 C152 C 0.19811 0.18192 0.73786
 H153 H 0.23782 0.15794 0.75242
 H154 H 0.18539 0.18604 0.72870
 H155 H 0.22665 0.21946 0.76637
 H156 H 0.21085 0.21004 0.78835
 N157 N 0.25913 -0.22130 0.21795
 N158 N 0.25507 -0.23985 0.21464
 C159 C 0.26720 -0.24626 0.19943
 C160 C 0.27955 -0.23085 0.19278
 C161 C 0.27396 -0.21523 0.20492
 H162 H 0.26686 -0.26098 0.19353
 H163 H 0.28040 -0.20061 0.20455
 Cu164 Cu 0.23428 -0.25398 0.23033
 Cu165 Cu 0.24526 -0.20663 0.23927
 Cu166 Cu 0.20350 -0.22922 0.26247
 N167 N 0.20869 -0.26503 0.24054
 N168 N 0.19655 -0.25530 0.25287
 C169 C 0.18001 -0.26640 0.25740
 C170 C 0.18188 -0.28410 0.24738
 C171 C 0.20031 -0.28264 0.23681
 H172 H 0.16770 -0.26200 0.26746
 H173 H 0.20710 -0.29346 0.22694
 N174 N 0.21320 -0.20292 0.27001
 N175 N 0.22920 -0.19436 0.26123
 C176 C 0.23264 -0.17709 0.27027
 C177 C 0.21810 -0.17459 0.28553
 C178 C 0.20600 -0.19128 0.28485
 H179 H 0.24502 -0.16721 0.26621
 H180 H 0.19332 -0.19502 0.29489
 H181 H 0.23471 -0.22979 0.25721
 H182 H 0.21854 -0.22231 0.23553
 N183 N 0.74139 0.21637 0.20639
 N184 N 0.74583 0.23459 0.20135
 C185 C 0.73366 0.24035 0.18637
 C186 C 0.72075 0.22494 0.18174
 C187 C 0.72618 0.20993 0.19480
 H188 H 0.73422 0.25473 0.17940
 H189 H 0.71939 0.19549 0.19605
 Cu190 Cu 0.76671 0.24939 0.21503
 Cu191 Cu 0.75535 0.20267 0.22794
 Cu192 Cu 0.79690 0.22645 0.24804
 N193 N 0.79184 0.26125 0.22409
 N194 N 0.80370 0.25224 0.23685
 C195 C 0.81968 0.26394 0.24082
 C196 C 0.81774 0.28129 0.22999
 C197 C 0.79986 0.27898 0.21950
 H198 H 0.83156 0.26025 0.25121
 H199 H 0.79312 0.28940 0.20929
 N200 N 0.78747 0.20035 0.25738
 N201 N 0.77152 0.19136 0.24986
 C202 C 0.76826 0.17442 0.26004
 C203 C 0.78287 0.17260 0.27471
 C204 C 0.79481 0.18933 0.27250
 H205 H 0.75597 0.16429 0.25716
 H206 H 0.80745 0.19353 0.28172
 H207 H 0.76577 0.22666 0.24370
 H208 H 0.78221 0.21792 0.22215
 C209 C 0.21521 0.01367 0.50443
 C210 C 0.21612 -0.00620 0.50299
 C211 C 0.21710 -0.01902 0.52118
 C212 C 0.21590 -0.01622 0.48316
 C213 C 0.21578 0.02652 0.48623
 C214 C 0.21379 0.02367 0.52426
 C215 C 0.23235 -0.01644 0.53547
 C216 C 0.23291 -0.02853 0.55260
 C217 C 0.21837 -0.04357 0.55563
 C218 C 0.20340 -0.04633 0.54105
 C219 C 0.20281 -0.03420 0.52400
 C220 C 0.23169 -0.02906 0.47786
 C221 C 0.23132 -0.03924 0.45965
 C222 C 0.21499 -0.03694 0.44649
 C223 C 0.19916 -0.02403 0.45182
 C224 C 0.19961 -0.01376 0.47001
 C225 C 0.20011 0.04003 0.48331
 C226 C 0.20065 0.05259 0.46657
 C227 C 0.21703 0.05206 0.45250
 C228 C 0.23276 0.03850 0.45549
 C229 C 0.23217 0.02588 0.47224
 C230 C 0.19780 0.01947 0.53814
 C231 C 0.19669 0.02909 0.55672
 C232 C 0.21153 0.04308 0.56171
 C233 C 0.22736 0.04738 0.54766
 C234 C 0.22841 0.03784 0.52909
 H235 H 0.24377 -0.00504 0.53338
 H236 H 0.24456 -0.02594 0.56359
 H237 H 0.19224 -0.05803 0.54272
 H238 H 0.19105 -0.03656 0.51304
 H239 H 0.24430 -0.03126 0.48790
 H240 H 0.24356 -0.04929 0.45610
 H241 H 0.18713 -0.00411 0.47399
 H242 H 0.18736 0.04074 0.49398
 H243 H 0.18815 0.06264 0.46455
 H244 H 0.24575 0.03794 0.44511
 H245 H 0.24461 0.01579 0.47446
 H246 H 0.18620 0.00878 0.53455
 H247 H 0.18437 0.02544 0.56728
 H248 H 0.23881 0.05833 0.55094
 H249 H 0.24075 0.04140 0.51851
 H250 H 0.18644 -0.02191 0.44193
 C251 C 0.78721 0.00541 0.49702
 C252 C 0.78703 -0.01456 0.49699
 C253 C 0.78627 -0.02581 0.47790
 C254 C 0.78773 -0.02624 0.51600
 C255 C 0.78654 0.01679 0.51607
 C256 C 0.78799 0.01701 0.47793
 C257 C 0.77080 -0.02264 0.46395
 C258 C 0.77050 -0.03319 0.44594
 C259 C 0.78549 -0.04731 0.44167
 C260 C 0.80067 -0.05073 0.45592
 C261 C 0.80102 -0.04010 0.47383
 C262 C 0.77252 -0.04029 0.52026
 C263 C 0.77298 -0.05152 0.53797
 C264 C 0.78880 -0.04906 0.55169
 C265 C 0.80419 -0.03514 0.54728
 C266 C 0.80368 -0.02384 0.52956
 C267 C 0.80122 0.03141 0.51917
 C268 C 0.80061 0.04258 0.53674
 C269 C 0.78525 0.03940 0.55159
 C270 C 0.77047 0.02479 0.54841
 C271 C 0.77104 0.01368 0.53075
 C272 C 0.80418 0.01499 0.46387
 C273 C 0.80466 0.02606 0.44598
 C274 C 0.78894 0.03932 0.44186
 C275 C 0.77289 0.04143 0.45610
 C276 C 0.77249 0.03047 0.47401
 H277 H 0.75901 -0.01196 0.46698
 H278 H 0.75868 -0.03012 0.43525
 H279 H 0.81217 -0.06179 0.45332
 H280 H 0.81294 -0.04293 0.48450
 H281 H 0.76019 -0.04247 0.50989
 H282 H 0.76110 -0.06235 0.54079
 H283 H 0.81573 -0.01328 0.52639
 H284 H 0.81319 0.03418 0.50793
 H285 H 0.81197 0.05397 0.53851
 H286 H 0.75852 0.02190 0.55960
 H287 H 0.75931 0.00273 0.52848
 H288 H 0.81642 0.00485 0.46678
 H289 H 0.81717 0.02409 0.43525
 H290 H 0.76075 0.05176 0.45349
 H291 H 0.75997 0.03233 0.48476
 H292 H 0.81651 -0.03286 0.55761
 C293 C 0.50030 0.22898 0.01033
 C294 C 0.50045 0.22855 -0.01026
 C295 C 0.48134 0.22719 -0.02179
 C296 C 0.51975 0.22935 -0.02242
 C297 C 0.51944 0.22848 0.02189
 C298 C 0.48096 0.22966 0.02243
 C299 C 0.46741 0.21174 -0.01838
 C300 C 0.44960 0.21060 -0.02951
 C301 C 0.44546 0.22482 -0.04434
 C302 C 0.45958 0.24012 -0.04785
 C303 C 0.47737 0.24124 -0.03674
 C304 C 0.52380 0.21478 -0.03674
 C305 C 0.54164 0.21547 -0.04861
 C306 C 0.55576 0.23086 -0.04650
 C307 C 0.55160 0.24556 -0.03223
 C308 C 0.53372 0.24484 -0.02033
 C309 C 0.52316 0.24300 0.03624
 C310 C 0.54075 0.24246 0.04768
 C311 C 0.55494 0.22727 0.04512
 C312 C 0.55113 0.21266 0.03079
 C313 C 0.53351 0.21323 0.01932
 C314 C 0.46640 0.24425 0.01906
 C315 C 0.44821 0.24452 0.03048
 C316 C 0.44436 0.23034 0.04567
 C317 C 0.45919 0.21602 0.04926
 C318 C 0.47729 0.21571 0.03778
 H319 H 0.47037 0.20056 -0.00714
 H320 H 0.43896 0.19870 -0.02639
 H321 H 0.45701 0.25110 -0.05940
 H322 H 0.48803 0.25315 -0.03974
 H323 H 0.51312 0.20281 -0.03870
 H324 H 0.54422 0.20414 -0.05972
 H325 H 0.53070 0.25641 -0.00959
 H326 H 0.51239 0.25478 0.03859
 H327 H 0.54306 0.25373 0.05883
 H328 H 0.56183 0.20084 0.02839
 H329 H 0.53075 0.20169 0.00857
 H330 H 0.46910 0.25540 0.00754
 H331 H 0.43707 0.25568 0.02726
 H332 H 0.45690 0.20514 0.06111
 H333 H 0.48841 0.20445 0.04077
 H334 H 0.56223 0.25754 -0.03020
 C335 C 0.49925 0.76972 0.01057
 C336 C 0.49929 0.76909 -0.01000
 C337 C 0.48012 0.76967 -0.02145
 C338 C 0.51857 0.76835 -0.02225
 C339 C 0.51850 0.77107 0.02181
 C340 C 0.48006 0.76935 0.02300
 C341 C 0.47607 0.75492 -0.03544
 C342 C 0.45837 0.75547 -0.04670
 C343 C 0.44446 0.77091 -0.04433
 C344 C 0.44864 0.78578 -0.03040
 C345 C 0.46635 0.78519 -0.01909
 C346 C 0.53319 0.75381 -0.01890
 C347 C 0.55135 0.75357 -0.03037
 C348 C 0.55513 0.76774 -0.04559
 C349 C 0.54022 0.78199 -0.04919
 C350 C 0.52215 0.78227 -0.03766
 C351 C 0.53220 0.78670 0.01841
 C352 C 0.55020 0.78783 0.02923
 C353 C 0.55474 0.77339 0.04368
 C354 C 0.54087 0.75788 0.04717
 C355 C 0.52287 0.75680 0.03641
 C356 C 0.47693 0.78360 0.03790
 C357 C 0.45925 0.78334 0.05003
 C358 C 0.44428 0.76878 0.04757
 C359 C 0.44751 0.75439 0.03274
 C360 C 0.46529 0.75461 0.02066
 H361 H 0.48663 0.74294 -0.03761
 H362 H 0.45573 0.74399 -0.05755
 H363 H 0.43815 0.79780 -0.02819
 H364 H 0.46939 0.79689 -0.00860
 H365 H 0.53056 0.74269 -0.00734
 H366 H 0.56256 0.74247 -0.02716
 H367 H 0.51099 0.79349 -0.04064
 H368 H 0.52892 0.79801 0.00740
 H369 H 0.56066 0.79989 0.02617
 H370 H 0.54380 0.74674 0.05846
 H371 H 0.51237 0.74475 0.03937
 H372 H 0.48821 0.79498 0.04013
 H373 H 0.45746 0.79438 0.06158
 H374 H 0.43624 0.74304 0.03039
 H375 H 0.46757 0.74321 0.00955
 H376 H 0.54243 0.79284 -0.06107
 C377 C -0.01596 0.50359 0.23467
 C378 C 0.00471 0.50261 0.23584
 C379 C 0.01556 0.48359 0.23486
 C380 C 0.01769 0.52036 0.23799
 C381 C -0.02688 0.52259 0.23327
 C382 C -0.02880 0.48554 0.23452
 C383 C 0.02878 0.47831 0.25030
 C384 C 0.03944 0.46069 0.24937
 C385 C 0.03722 0.44807 0.23287
 C386 C 0.02406 0.45345 0.21733
 C387 C 0.01338 0.47109 0.21829
 C388 C 0.01442 0.53355 0.25390
 C389 C 0.02740 0.54971 0.25613
 C390 C 0.04396 0.55285 0.24258
 C391 C 0.04707 0.53964 0.22663
 C392 C 0.03413 0.52354 0.22442
 C393 C -0.02108 0.53690 0.21880
 C394 C -0.03207 0.55432 0.21719
 C395 C -0.04932 0.55751 0.22966
 C396 C -0.05513 0.54318 0.24404
 C397 C -0.04400 0.52592 0.24585
 C398 C -0.02791 0.47161 0.25021
 C399 C -0.04018 0.45479 0.24996
 C400 C -0.05372 0.45167 0.23412
 C401 C -0.05467 0.46575 0.21853
 C402 C -0.04239 0.48254 0.21879
 H403 H 0.03081 0.48786 0.26310
 H404 H 0.04972 0.45710 0.26139
 H405 H 0.02196 0.44398 0.20449
 H406 H 0.00351 0.47507 0.20605
 H407 H 0.00203 0.53116 0.26475
 H408 H 0.02476 0.55948 0.26872
 H409 H 0.03692 0.51354 0.21205
 H410 H -0.00829 0.53445 0.20853
 H411 H -0.02746 0.56505 0.20580
 H412 H -0.06830 0.54536 0.25392
 H413 H -0.04882 0.51507 0.25704
 H414 H -0.01781 0.47384 0.26270
 H415 H -0.03934 0.44440 0.26236
 H416 H -0.06473 0.46368 0.20599
 H417 H -0.04334 0.49314 0.20658
 H418 H 0.05946 0.54181 0.21574
 C419 C -0.00560 0.49719 0.76049
 C420 C 0.01506 0.49607 0.76141
 C421 C 0.02599 0.47707 0.76243
 C422 C 0.02785 0.51407 0.76185
 C423 C -0.01628 0.51628 0.76171
 C424 C -0.01873 0.47955 0.75855
 C425 C 0.02056 0.46270 0.77695
 C426 C 0.03170 0.44535 0.77832
 C427 C 0.04872 0.44224 0.76549
 C428 C 0.05412 0.45663 0.75100
 C429 C 0.04287 0.47386 0.74950
 C430 C 0.02754 0.52782 0.74599
 C431 C 0.03965 0.54471 0.74660
 C432 C 0.05232 0.54813 0.76309
 C433 C 0.05261 0.53422 0.77889
 C434 C 0.04059 0.51730 0.77820
 C435 C -0.02902 0.52211 0.74608
 C436 C -0.03961 0.53976 0.74730
 C437 C -0.03786 0.55180 0.76432
 C438 C -0.02514 0.54588 0.78002
 C439 C -0.01445 0.52827 0.77872
 C440 C -0.01577 0.46628 0.74265
 C441 C -0.02887 0.45019 0.74069
 C442 C -0.04524 0.44719 0.75451
 C443 C -0.04800 0.46046 0.77047
 C444 C -0.03496 0.47650 0.77239
 H445 H 0.00795 0.46507 0.78747
 H446 H 0.02740 0.43462 0.78981
 H447 H 0.06706 0.45454 0.74081
 H448 H 0.04740 0.48476 0.73826
 H449 H 0.01801 0.52539 0.73309
 H450 H 0.03933 0.55495 0.73403
 H451 H 0.04099 0.50684 0.79058
 H452 H -0.03076 0.51295 0.73293
 H453 H -0.04953 0.54381 0.73512
 H454 H -0.02344 0.55492 0.79325
 H455 H -0.00491 0.52386 0.79107
 H456 H -0.00352 0.46857 0.73162
 H457 H -0.02649 0.44036 0.72811
 H458 H -0.06022 0.45838 0.78157
 H459 H -0.03748 0.48655 0.78478
 H460 H 0.06194 0.53653 0.79195
 C461 C 0.31994 0.22979 0.13565
 C462 C 0.31467 0.21264 0.14651
 C463 C 0.29838 0.21254 0.16048
 C464 C 0.28686 0.22954 0.16382
 C465 C 0.29191 0.24662 0.15275
 C466 C 0.30832 0.24677 0.13887
 C467 C 0.33763 0.22998 0.12131
 N468 N 0.34482 0.24706 0.11310
 N469 N 0.36104 0.24722 0.10061
 C470 C 0.37073 0.23030 0.09575
 N471 N 0.36346 0.21323 0.10387
 N472 N 0.34729 0.21308 0.11639
 C473 C 0.38910 0.23044 0.08227
 C474 C 0.39760 0.21274 0.07552
 C475 C 0.41531 0.21276 0.06341
 C476 C 0.42505 0.23046 0.05785
 C477 C 0.41639 0.24819 0.06434
 C478 C 0.39859 0.24818 0.07639
 H479 H 0.32328 0.19930 0.14442
 H480 H 0.29480 0.19906 0.16857
 H481 H 0.28345 0.26001 0.15504
 H482 H 0.31193 0.26022 0.13073
 H483 H 0.39060 0.19881 0.07961
 H484 H 0.42135 0.19886 0.05834
 H485 H 0.42363 0.26207 0.06052
 H486 H 0.39249 0.26208 0.08137
 C487 C 0.67591 0.77824 0.13192
 C488 C 0.67968 0.79482 0.14371
 C489 C 0.69543 0.79488 0.15756
 C490 C 0.70793 0.77833 0.16001
 C491 C 0.70422 0.76183 0.14790
 C492 C 0.68843 0.76179 0.13411
 C493 C 0.65879 0.77794 0.11771
 N494 N 0.65400 0.76132 0.10767
 N495 N 0.63829 0.76088 0.09530
 C496 C 0.62673 0.77705 0.09240
 N497 N 0.63160 0.79371 0.10233
 N498 N 0.64729 0.79415 0.11473
 C499 C 0.60885 0.77634 0.07915
 C500 C 0.59756 0.79334 0.07520
 C501 C 0.58021 0.79247 0.06338
 C502 C 0.57371 0.77455 0.05535
 C503 C 0.58517 0.75763 0.05900
 C504 C 0.60256 0.75851 0.07072
 H505 H 0.67033 0.80777 0.14242
 H506 H 0.69757 0.80799 0.16633
 H507 H 0.71331 0.74873 0.14903
 H508 H 0.68601 0.74876 0.12523
 H509 H 0.60199 0.80733 0.08141
 H510 H 0.57158 0.80572 0.06095
 H511 H 0.58066 0.74367 0.05276
 H512 H 0.61091 0.74514 0.07338
 C513 C 0.67272 0.23357 -0.14564
 C514 C 0.68013 0.21586 -0.15354
 C515 C 0.69489 0.21589 -0.16910
 C516 C 0.70266 0.23363 -0.17709
 C517 C 0.69546 0.25135 -0.16901
 C518 C 0.68063 0.25132 -0.15350
 C519 C 0.65654 0.23348 -0.12962
 N520 N 0.64782 0.25045 -0.12336
 N521 N 0.63283 0.25028 -0.10942
 C522 C 0.62596 0.23313 -0.10112
 N523 N 0.63479 0.21618 -0.10729
 N524 N 0.64974 0.21635 -0.12124
 C525 C 0.60873 0.23280 -0.08622
 C526 C 0.60223 0.21505 -0.07718
 C527 C 0.58531 0.21452 -0.06398
 C528 C 0.57447 0.23170 -0.05952
 C529 C 0.58125 0.24953 -0.06815
 C530 C 0.59820 0.25008 -0.08135
 H531 H 0.67441 0.20191 -0.14784
 H532 H 0.70022 0.20196 -0.17476
 H533 H 0.70100 0.26529 -0.17486
 H534 H 0.67529 0.26523 -0.14776
 H535 H 0.61007 0.20149 -0.08044
 H536 H 0.58067 0.20061 -0.05729
 H537 H 0.57309 0.26298 -0.06517
 H538 H 0.60277 0.26400 -0.08805
 C539 C 0.32585 0.77333 -0.13614
 C540 C 0.31397 0.75641 -0.13896
 C541 C 0.29828 0.75637 -0.15287
 C542 C 0.29412 0.77324 -0.16435
 C543 C 0.30595 0.79019 -0.16147
 C544 C 0.32160 0.79024 -0.14751
 C545 C 0.34272 0.77327 -0.12162
 N546 N 0.35380 0.78977 -0.11834
 N547 N 0.36918 0.78962 -0.10557
 C548 C 0.37415 0.77295 -0.09552
 N549 N 0.36301 0.75646 -0.09873
 N550 N 0.34762 0.75663 -0.11149
 C551 C 0.39163 0.77261 -0.08173
 C552 C 0.39762 0.75499 -0.07252
 C553 C 0.41459 0.75451 -0.06018
 C554 C 0.42592 0.77163 -0.05670
 C555 C 0.41973 0.78933 -0.06557
 C556 C 0.40280 0.78981 -0.07798
 H557 H 0.31682 0.74311 -0.13048
 H558 H 0.28963 0.74300 -0.15476
 H559 H 0.30309 0.80351 -0.16987
 H560 H 0.33043 0.80355 -0.14573
 H561 H 0.38935 0.74148 -0.07500
 H562 H 0.41884 0.74071 -0.05332
 H563 H 0.42829 0.80272 -0.06332
 H564 H 0.39862 0.80364 -0.08481
 C565 C 0.12511 0.32914 0.22822
 C566 C 0.12768 0.31765 0.24568
 C567 C 0.14146 0.30213 0.24564
 C568 C 0.15307 0.29773 0.22816
 C569 C 0.15034 0.30909 0.21063
 C570 C 0.13651 0.32459 0.21064
 C571 C 0.11095 0.34600 0.22849
 N572 N 0.10828 0.35709 0.21163
 N573 N 0.09598 0.37255 0.21205
 C574 C 0.08583 0.37758 0.22935
 N575 N 0.08842 0.36641 0.24617
 N576 N 0.10070 0.35096 0.24575
 C577 C 0.07267 0.39516 0.23003
 C578 C 0.06305 0.40086 0.24824
 C579 C 0.05134 0.41787 0.24909
 C580 C 0.04893 0.42956 0.23175
 C581 C 0.05823 0.42370 0.21345
 C582 C 0.06998 0.40670 0.21260
 H583 H 0.11917 0.32072 0.25949
 H584 H 0.14322 0.29384 0.25948
 H585 H 0.15883 0.30602 0.19682
 H586 H 0.13489 0.33309 0.19690
 H587 H 0.06471 0.39229 0.26194
 H588 H 0.04413 0.42188 0.26333
 H589 H 0.05682 0.43252 0.19989
 H590 H 0.07716 0.40276 0.19832
 C591 C 0.14001 0.66810 0.76982
 C592 C 0.13723 0.68406 0.75668
 C593 C 0.14997 0.70052 0.75741
 C594 C 0.16579 0.70156 0.77144
 C595 C 0.16830 0.68556 0.78476
 C596 C 0.15566 0.66907 0.78388
 C597 C 0.12683 0.65045 0.76879
 N598 N 0.13185 0.63371 0.77868
 N599 N 0.12015 0.61776 0.77764
 C600 C 0.10288 0.61788 0.76673
 N601 N 0.09781 0.63463 0.75688
 N602 N 0.10957 0.65057 0.75785
 C603 C 0.08995 0.60007 0.76559
 C604 C 0.07029 0.60100 0.75768
 C605 C 0.05807 0.58417 0.75685
 C606 C 0.06529 0.56602 0.76379
 C607 C 0.08503 0.56510 0.77153
 C608 C 0.09717 0.58193 0.77251
 H609 H 0.12533 0.68377 0.74563
 H610 H 0.14722 0.71236 0.74689
 H611 H 0.18012 0.68548 0.79584
 H612 H 0.15816 0.65706 0.79431
 H613 H 0.06422 0.61477 0.75234
 H614 H 0.04284 0.58545 0.75107
 H615 H 0.09121 0.55131 0.77666
 H616 H 0.11230 0.58065 0.77853
 C617 C -0.13558 0.67686 0.21794
 C618 C -0.13008 0.69442 0.22734
 C619 C -0.14324 0.71047 0.22738
 C620 C -0.16219 0.70947 0.21780
 C621 C -0.16731 0.69196 0.20791
 C622 C -0.15427 0.67588 0.20811
 C623 C -0.12226 0.65944 0.21881
 N624 N -0.12971 0.64142 0.21436
 N625 N -0.11803 0.62561 0.21565
 C626 C -0.09835 0.62714 0.22136
 N627 N -0.09082 0.64518 0.22567
 N628 N -0.10256 0.66101 0.22449
 C629 C -0.08561 0.60940 0.22322
 C630 C -0.06428 0.61088 0.22427
 C631 C -0.05241 0.59402 0.22613
 C632 C -0.06168 0.57542 0.22730
 C633 C -0.08297 0.57396 0.22627
 C634 C -0.09479 0.59074 0.22413
 H635 H -0.11576 0.69566 0.23504
 H636 H -0.13839 0.72360 0.23499
 H637 H -0.18159 0.69028 0.20029
 H638 H -0.15892 0.66260 0.20059
 H639 H -0.05676 0.62504 0.22355
 H640 H -0.03601 0.59551 0.22698
 H641 H -0.09046 0.55977 0.22694
 H642 H -0.11118 0.58908 0.22342
 C643 C -0.14269 0.33439 0.74979
 C644 C -0.16130 0.33563 0.76058
 C645 C -0.17504 0.31993 0.76101
 C646 C -0.17066 0.30249 0.75052
 C647 C -0.15195 0.30135 0.73967
 C648 C -0.13814 0.31705 0.73938
 C649 C -0.12818 0.35112 0.74948
 N650 N -0.10887 0.34917 0.74193
 N651 N -0.09584 0.36424 0.74193
 C652 C -0.10163 0.38190 0.74939
 N653 N -0.12095 0.38384 0.75685
 N654 N -0.13393 0.36878 0.75692
 C655 C -0.08717 0.39866 0.74977
 C656 C -0.09417 0.41742 0.75495
 C657 C -0.08059 0.43316 0.75612
 C658 C -0.05965 0.43053 0.75227
 C659 C -0.05265 0.41186 0.74669
 C660 C -0.06629 0.39609 0.74543
 H661 H -0.16528 0.34875 0.76884
 H662 H -0.18913 0.32173 0.76955
 H663 H -0.14772 0.28835 0.73139
 H664 H -0.12394 0.31562 0.73088
 H665 H -0.11017 0.42000 0.75817
 H666 H -0.08653 0.44744 0.76001
 H667 H -0.03658 0.40934 0.74379
 H668 H -0.06040 0.38181 0.74143
 C669 C 0.21806 0.14465 0.33460
 C670 C 0.22843 0.14024 0.31638
 C671 C 0.22822 0.15335 0.30003
 C672 C 0.21755 0.17109 0.30149
 C673 C 0.20714 0.17545 0.31967
 C674 C 0.20743 0.16242 0.33604
 C675 C 0.21830 0.13087 0.35202
 N676 N 0.20997 0.13603 0.37017
 N677 N 0.21011 0.12370 0.38586
 C678 C 0.21854 0.10566 0.38408
 N679 N 0.22687 0.10047 0.36593
 N680 N 0.22678 0.11283 0.35023
 C681 C 0.21851 0.09195 0.40158
 C682 C 0.22514 0.07251 0.39933
 C683 C 0.22474 0.05957 0.41583
 C684 C 0.21776 0.06579 0.43496
 C685 C 0.21135 0.08528 0.43723
 C686 C 0.21167 0.09818 0.42075
 H687 H 0.23677 0.12669 0.31475
 H688 H 0.23628 0.14944 0.28621
 H689 H 0.19893 0.18905 0.32144
 H690 H 0.19927 0.16630 0.34982
 H691 H 0.23044 0.06721 0.38477
 H692 H 0.22956 0.04459 0.41354
 H693 H 0.20625 0.09065 0.45183
 H694 H 0.20660 0.11307 0.42308
 C695 C 0.78046 0.13240 0.66727
 C696 C 0.76217 0.13609 0.67800
 C697 C 0.76125 0.15073 0.69263
 C698 C 0.77854 0.16212 0.69674
 C699 C 0.79689 0.15830 0.68619
 C700 C 0.79787 0.14354 0.67168
 C701 C 0.78123 0.11737 0.65123
 N702 N 0.79926 0.11216 0.64239
 N703 N 0.79987 0.09909 0.62756
 C704 C 0.78248 0.09070 0.62090
 N705 N 0.76446 0.09583 0.62980
 N706 N 0.76385 0.10886 0.64467
 C707 C 0.78310 0.07674 0.60385
 C708 C 0.76503 0.07067 0.59471
 C709 C 0.76569 0.05832 0.57797
 C710 C 0.78444 0.05167 0.57004
 C711 C 0.80248 0.05736 0.57950
 C712 C 0.80182 0.06979 0.59617
 H713 H 0.74848 0.12777 0.67502
 H714 H 0.74683 0.15339 0.70036
 H715 H 0.81054 0.16667 0.68916
 H716 H 0.81221 0.14107 0.66372
 H717 H 0.75035 0.07580 0.60019
 H718 H 0.75154 0.05442 0.57089
 H719 H 0.81714 0.05220 0.57400
 H720 H 0.81602 0.07403 0.60295
 C721 C 0.22064 -0.13540 0.67396
 C722 C 0.20299 -0.14608 0.67958
 C723 C 0.20340 -0.15993 0.69524
 C724 C 0.22141 -0.16330 0.70574
 C725 C 0.23899 -0.15244 0.70031
 C726 C 0.23863 -0.13870 0.68455
 C727 C 0.22033 -0.12111 0.65699
 N728 N 0.23788 -0.11285 0.64957
 N729 N 0.23762 -0.10029 0.63407
 C730 C 0.21980 -0.09541 0.62536
 N731 N 0.20225 -0.10359 0.63284
 N732 N 0.20251 -0.11619 0.64830
 C733 C 0.21951 -0.08172 0.60787
 C734 C 0.20092 -0.07495 0.60043
 C735 C 0.20059 -0.06242 0.58365
 C736 C 0.21882 -0.05643 0.57383
 C737 C 0.23743 -0.06304 0.58137
 C738 C 0.23777 -0.07550 0.59822
 H739 H 0.18887 -0.14391 0.67177
 H740 H 0.18954 -0.16789 0.69917
 H741 H 0.25317 -0.15478 0.70797
 H742 H 0.25249 -0.13071 0.68064
 H743 H 0.18657 -0.07931 0.60758
 H744 H 0.18602 -0.05732 0.57844
 H745 H 0.25173 -0.05890 0.57400
 H746 H 0.25236 -0.08050 0.60350
 C747 C 0.78505 -0.13048 0.31811
 C748 C 0.80280 -0.14051 0.31209
 C749 C 0.80251 -0.15354 0.29590
 C750 C 0.78452 -0.15673 0.28529
 C751 C 0.76687 -0.14644 0.29109
 C752 C 0.76712 -0.13352 0.30735
 C753 C 0.78513 -0.11723 0.33575
 N754 N 0.76744 -0.10987 0.34348
 N755 N 0.76744 -0.09834 0.35962
 C756 C 0.78515 -0.09362 0.36868
 N757 N 0.80285 -0.10089 0.36087
 N758 N 0.80284 -0.11247 0.34477
 C759 C 0.78514 -0.08117 0.38693
 C760 C 0.80358 -0.07439 0.39478
 C761 C 0.80364 -0.06318 0.41234
 C762 C 0.78529 -0.05858 0.42256
 C763 C 0.76683 -0.06514 0.41456
 C764 C 0.76675 -0.07627 0.39692
 H765 H 0.81688 -0.13851 0.32003
 H766 H 0.81642 -0.16107 0.29172
 H767 H 0.75269 -0.14863 0.28338
 H768 H 0.75318 -0.12601 0.31155
 H769 H 0.81801 -0.07774 0.38738
 H770 H 0.81810 -0.05804 0.41788
 H771 H 0.75245 -0.06206 0.42219
 H772 H 0.75228 -0.08130 0.39132
 C773 C 0.67949 0.76915 -0.13579
 C774 C 0.69008 0.75185 -0.14041
 C775 C 0.70655 0.75215 -0.15420
 C776 C 0.71271 0.76972 -0.16382
 C777 C 0.70221 0.78704 -0.15912
 C778 C 0.68584 0.78677 -0.14523
 C779 C 0.66176 0.76881 -0.12147
 N780 N 0.65257 0.78574 -0.11577
 N781 N 0.63641 0.78546 -0.10322
 C782 C 0.62870 0.76825 -0.09585
 N783 N 0.63792 0.75131 -0.10150
 N784 N 0.65412 0.75160 -0.11403
 C785 C 0.61036 0.76799 -0.08231
 C786 C 0.60098 0.75019 -0.07641
 C787 C 0.58321 0.75006 -0.06431
 C788 C 0.57445 0.76773 -0.05779
 C789 C 0.58407 0.78549 -0.06335
 C790 C 0.60177 0.78563 -0.07549
 H791 H 0.68563 0.73803 -0.13344
 H792 H 0.71419 0.73852 -0.15759
 H793 H 0.70668 0.80087 -0.16607
 H794 H 0.67806 0.80038 -0.14202
 H795 H 0.60716 0.73632 -0.08141
 H796 H 0.57608 0.73613 -0.06046
 H797 H 0.57795 0.79935 -0.05826
 H798 H 0.60865 0.79961 -0.07958
 C799 C 0.32337 0.21933 -0.13177
 C800 C 0.31703 0.20164 -0.14045
 C801 C 0.30074 0.20128 -0.15370
 C802 C 0.29037 0.21859 -0.15859
 C803 C 0.29663 0.23624 -0.14977
 C804 C 0.31291 0.23661 -0.13655
 C805 C 0.34091 0.21986 -0.11803
 N806 N 0.34722 0.23706 -0.11000
 N807 N 0.36316 0.23765 -0.09792
 C808 C 0.37349 0.22107 -0.09333
 N809 N 0.36714 0.20385 -0.10131
 N810 N 0.35119 0.20326 -0.11339
 C811 C 0.39152 0.22186 -0.08024
 C812 C 0.40230 0.20474 -0.07549
 C813 C 0.41963 0.20565 -0.06363
 C814 C 0.42662 0.22369 -0.05629
 C815 C 0.41569 0.24076 -0.06079
 C816 C 0.39835 0.23986 -0.07261
 H817 H 0.32470 0.18804 -0.13708
 H818 H 0.29630 0.18737 -0.16003
 H819 H 0.28919 0.24992 -0.15322
 H820 H 0.31736 0.25051 -0.13018
 H821 H 0.39748 0.19064 -0.08110
 H822 H 0.42785 0.19227 -0.06058
 H823 H 0.42051 0.25484 -0.05510
 H824 H 0.39039 0.25333 -0.07586
 C825 C 0.32630 0.76853 0.14587
 C826 C 0.31879 0.75091 0.15443
 C827 C 0.30353 0.75110 0.16952
 C828 C 0.29546 0.76891 0.17648
 C829 C 0.30285 0.78652 0.16783
 C830 C 0.31806 0.78633 0.15269
 C831 C 0.34285 0.76838 0.13020
 N832 N 0.35013 0.78540 0.12197
 N833 N 0.36532 0.78532 0.10826
 C834 C 0.37389 0.76823 0.10218
 N835 N 0.36654 0.75119 0.11033
 N836 N 0.35134 0.75126 0.12403
 C837 C 0.39128 0.76823 0.08743
 C838 C 0.40058 0.75059 0.08157
 C839 C 0.41755 0.75072 0.06839
 C840 C 0.42561 0.76849 0.06074
 C841 C 0.41603 0.78609 0.06624
 C842 C 0.39909 0.78597 0.07943
 H843 H 0.32481 0.73693 0.14959
 H844 H 0.29833 0.73727 0.17595
 H845 H 0.29683 0.80049 0.17264
 H846 H 0.32340 0.80018 0.14640
 H847 H 0.39497 0.73665 0.08741
 H848 H 0.42469 0.73692 0.06461
 H849 H 0.42164 0.80001 0.06035
 H850 H 0.39227 0.79983 0.08350
 C851 C 0.67285 0.22467 0.13807
 C852 C 0.68281 0.24221 0.14307
 C853 C 0.69837 0.24226 0.15711
 C854 C 0.70441 0.22477 0.16656
 C855 C 0.69453 0.20720 0.16148
 C856 C 0.67895 0.20715 0.14741
 C857 C 0.65606 0.22476 0.12342
 N858 N 0.64612 0.20794 0.11873
 N859 N 0.63082 0.20813 0.10583
 C860 C 0.62482 0.22516 0.09707
 N861 N 0.63482 0.24196 0.10171
 N862 N 0.65010 0.24176 0.11460
 C863 C 0.60745 0.22552 0.08311
 C864 C 0.60102 0.24329 0.07452
 C865 C 0.58420 0.24379 0.06198
 C866 C 0.57339 0.22654 0.05769
 C867 C 0.58001 0.20871 0.06595
 C868 C 0.59683 0.20820 0.07853
 H869 H 0.67852 0.25600 0.13622
 H870 H 0.70545 0.25612 0.16067
 H871 H 0.69881 0.19341 0.16828
 H872 H 0.67165 0.19336 0.14390
 H873 H 0.60888 0.25690 0.07761
 H874 H 0.57966 0.25772 0.05560
 H875 H 0.57187 0.19520 0.06309
 H876 H 0.60134 0.19425 0.08486
 C877 C -0.12713 0.66971 0.77091
 C878 C -0.12602 0.68431 0.75584
 C879 C -0.13961 0.70000 0.75610
 C880 C -0.15491 0.70145 0.77134
 C881 C -0.15586 0.68678 0.78648
 C882 C -0.14217 0.67117 0.78626
 C883 C -0.11293 0.65288 0.77042
 N884 N -0.11263 0.63975 0.78595
 N885 N -0.10014 0.62445 0.78534
 C886 C -0.08743 0.62157 0.76915
 N887 N -0.08769 0.63473 0.75364
 N888 N -0.10014 0.65006 0.75428
 C889 C -0.07399 0.60419 0.76820
 C890 C -0.06313 0.59968 0.75028
 C891 C -0.05121 0.58280 0.74910
 C892 C -0.04972 0.57017 0.76586
 C893 C -0.06018 0.57489 0.78391
 C894 C -0.07223 0.59168 0.78505
 H895 H -0.11459 0.68367 0.74380
 H896 H -0.13809 0.71077 0.74409
 H897 H -0.16715 0.68714 0.79861
 H898 H -0.14349 0.66017 0.79811
 H899 H -0.06409 0.60900 0.73702
 H900 H -0.04312 0.57963 0.73507
 H901 H -0.05945 0.56533 0.79700
 H902 H -0.08033 0.59474 0.79911
 C903 C -0.14298 0.33226 0.23097
 C904 C -0.16255 0.33338 0.22286
 C905 C -0.17519 0.31685 0.22244
 C906 C -0.16864 0.29876 0.23016
 C907 C -0.14904 0.29761 0.23821
 C908 C -0.13636 0.31415 0.23859
 C909 C -0.12965 0.34990 0.23152
 N910 N -0.11042 0.34881 0.23862
 N911 N -0.09851 0.36468 0.23913
 C912 C -0.10532 0.38234 0.23259
 N913 N -0.12454 0.38342 0.22550
 N914 N -0.13643 0.36756 0.22497
 C915 C -0.09210 0.40006 0.23312
 C916 C -0.09962 0.41844 0.22722
 C917 C -0.08720 0.43513 0.22762
 C918 C -0.06694 0.43389 0.23389
 C919 C -0.05942 0.41554 0.23985
 C920 C -0.07185 0.39882 0.23949
 H921 H -0.16818 0.34708 0.21687
 H922 H -0.19022 0.31840 0.21627
 H923 H -0.14339 0.28392 0.24414
 H924 H -0.12137 0.31272 0.24491
 H925 H -0.11516 0.41998 0.22233
 H926 H -0.09358 0.44909 0.22323
 H927 H -0.04380 0.41403 0.24452
 H928 H -0.06553 0.38491 0.24408
 C929 C 0.13498 0.32280 0.77850
 C930 C 0.12762 0.30418 0.77323
 C931 C 0.14026 0.28777 0.77412
 C932 C 0.16046 0.28958 0.78046
 C933 C 0.16770 0.30814 0.78602
 C934 C 0.15515 0.32456 0.78497
 C935 C 0.12190 0.34036 0.77695
 N936 N 0.13005 0.35861 0.77855
 N937 N 0.11845 0.37445 0.77687
 C938 C 0.09818 0.37274 0.77359
 N939 N 0.08998 0.35449 0.77207
 N940 N 0.10161 0.33863 0.77367
 C941 C 0.08539 0.39046 0.77156
 C942 C 0.06400 0.38901 0.77170
 C943 C 0.05205 0.40581 0.76984
 C944 C 0.06125 0.42437 0.76758
 C945 C 0.08260 0.42581 0.76738
 C946 C 0.09453 0.40907 0.76943
 H947 H 0.11217 0.30229 0.76818
 H948 H 0.13413 0.27366 0.76990
 H949 H 0.18322 0.31014 0.79082
 H950 H 0.16131 0.33866 0.78921
 H951 H 0.05647 0.37490 0.77333
 H952 H 0.03561 0.40429 0.76991
 H953 H 0.09009 0.43995 0.76590
 H954 H 0.11095 0.41074 0.76924
 C955 C 0.14013 0.66675 0.24884
 C956 C 0.13384 0.68523 0.25576
 C957 C 0.14737 0.70117 0.25536
 C958 C 0.16748 0.69902 0.24795
 C959 C 0.17375 0.68053 0.24106
 C960 C 0.16027 0.66461 0.24154
 C961 C 0.12583 0.64981 0.24907
 N962 N 0.13240 0.63175 0.24357
 N963 N 0.11959 0.61655 0.24346
 C964 C 0.09964 0.61872 0.24882
 N965 N 0.09305 0.63677 0.25437
 N966 N 0.10588 0.65200 0.25452
 C967 C 0.08537 0.60179 0.24813
 C968 C 0.06436 0.60417 0.25199
 C969 C 0.05092 0.58826 0.25049
 C970 C 0.05819 0.56964 0.24509
 C971 C 0.07923 0.56721 0.24167
 C972 C 0.09263 0.58306 0.24314
 H973 H 0.11844 0.68742 0.26148
 H974 H 0.14195 0.71520 0.26066
 H975 H 0.18915 0.67823 0.23544
 H976 H 0.16567 0.65061 0.23609
 H977 H 0.05823 0.61838 0.25588
 H978 H 0.03477 0.59064 0.25308
 H979 H 0.08537 0.55297 0.23788
 H980 H 0.10872 0.58062 0.24024
 C981 C 0.78931 -0.13823 0.67229
 C982 C 0.77168 -0.14068 0.68455
 C983 C 0.77117 -0.15438 0.70038
 C984 C 0.78825 -0.16602 0.70429
 C985 C 0.80595 -0.16343 0.69217
 C986 C 0.80649 -0.14967 0.67638
 C987 C 0.78962 -0.12409 0.65512
 N988 N 0.80689 -0.12097 0.64378
 N989 N 0.80701 -0.10861 0.62809
 C990 C 0.78986 -0.09885 0.62303
 N991 N 0.77263 -0.10191 0.63441
 N992 N 0.77252 -0.11424 0.65012
 C993 C 0.78979 -0.08552 0.60519
 C994 C 0.77154 -0.07693 0.59894
 C995 C 0.77129 -0.06495 0.58173
 C996 C 0.78928 -0.06119 0.57040
 C997 C 0.80760 -0.06948 0.57682
 C998 C 0.80785 -0.08155 0.59399
 H999 H 0.75817 -0.13212 0.68185
 H1000 H 0.75723 -0.15605 0.70927
 H1001 H 0.81946 -0.17197 0.69486
 H1002 H 0.82035 -0.14814 0.66729
 H1003 H 0.75736 -0.07961 0.60721
 H1004 H 0.75699 -0.05856 0.57731
 H1005 H 0.82167 -0.06699 0.56828
 H1006 H 0.82218 -0.08790 0.59838
 C1007 C 0.21457 -0.12825 0.32947
 C1008 C 0.23202 -0.13040 0.31699
 C1009 C 0.23303 -0.14521 0.30254
 C1010 C 0.21663 -0.15829 0.30023
 C1011 C 0.19903 -0.15592 0.31246
 C1012 C 0.19799 -0.14107 0.32687
 C1013 C 0.21393 -0.11316 0.34549
 N1014 N 0.19688 -0.11058 0.35718
 N1015 N 0.19661 -0.09757 0.37209
 C1016 C 0.21339 -0.08659 0.37598
 N1017 N 0.23039 -0.08907 0.36419
 N1018 N 0.23065 -0.10205 0.34926
 C1019 C 0.21344 -0.07283 0.39323
 C1020 C 0.23151 -0.06318 0.39858
 C1021 C 0.23190 -0.05122 0.41561
 C1022 C 0.21423 -0.04853 0.42763
 C1023 C 0.19603 -0.05770 0.42198
 C1024 C 0.19564 -0.06975 0.40500
 H1025 H 0.24507 -0.12079 0.31853
 H1026 H 0.24689 -0.14659 0.29351
 H1027 H 0.18600 -0.16555 0.31097
 H1028 H 0.18427 -0.13982 0.33617
 H1029 H 0.24548 -0.06514 0.38983
 H1030 H 0.24608 -0.04413 0.41945
 H1031 H 0.18221 -0.05605 0.43105
 H1032 H 0.18146 -0.07691 0.40131
 C1033 C 0.78701 0.12823 0.32126
 C1034 C 0.80358 0.14080 0.31678
 C1035 C 0.80234 0.15500 0.30150
 C1036 C 0.78453 0.15694 0.29029
 C1037 C 0.76812 0.14408 0.29448
 C1038 C 0.76933 0.12994 0.30979
 C1039 C 0.78790 0.11382 0.33813
 N1040 N 0.77128 0.10287 0.34357
 N1041 N 0.77181 0.09044 0.35916
 C1042 C 0.78900 0.08837 0.36999
 N1043 N 0.80569 0.09920 0.36447
 N1044 N 0.80514 0.11167 0.34889
 C1045 C 0.78930 0.07506 0.38783
 C1046 C 0.80733 0.07216 0.39851
 C1047 C 0.80732 0.06027 0.41583
 C1048 C 0.78927 0.05112 0.42292
 C1049 C 0.77134 0.05373 0.41207
 C1050 C 0.77136 0.06552 0.39471
 H1051 H 0.81747 0.13987 0.32524
 H1052 H 0.81538 0.16446 0.29855
 H1053 H 0.75412 0.14516 0.28626
 H1054 H 0.75628 0.12048 0.31278
 H1055 H 0.82143 0.07925 0.39364
 H1056 H 0.82133 0.05863 0.42399
 H1057 H 0.75727 0.04663 0.41702
 H1058 H 0.75721 0.06734 0.38684
 C1059 C 0.20826 0.12365 0.68701
 C1060 C 0.19135 0.13551 0.69156
 C1061 C 0.19195 0.14891 0.70741
 C1062 C 0.20943 0.15075 0.71914
 C1063 C 0.22614 0.13854 0.71489
 C1064 C 0.22558 0.12520 0.69900
 C1065 C 0.20813 0.11023 0.66948
 N1066 N 0.22525 0.10048 0.66373
 N1067 N 0.22543 0.08904 0.64752
 C1068 C 0.20848 0.08681 0.63636
 N1069 N 0.19129 0.09643 0.64220
 N1070 N 0.19112 0.10791 0.65840
 C1071 C 0.20899 0.07474 0.61781
 C1072 C 0.19114 0.07125 0.60700
 C1073 C 0.19188 0.06064 0.58900
 C1074 C 0.21048 0.05340 0.58135
 C1075 C 0.22824 0.05657 0.59233
 C1076 C 0.22751 0.06706 0.61037
 H1077 H 0.17773 0.13468 0.68268
 H1078 H 0.17869 0.15788 0.71037
 H1079 H 0.23992 0.13954 0.72348
 H1080 H 0.23886 0.11626 0.69599
 H1081 H 0.17662 0.07690 0.61231
 H1082 H 0.17797 0.05854 0.58078
 H1083 H 0.24275 0.05093 0.58695
 H1084 H 0.24154 0.06941 0.61830
   
