data_POSCAR
  _audit_creation_date              2014-09-24
  _audit_creation_method            'ToBaCCo'
  _symmetry_space_group_name_H-M    'P1'
  _symmetry_Int_Tables_number       1
  _symmetry_cell_setting            triclinic
  loop_
  _symmetry_equiv_pos_as_xyz
 x,y,z
_cell_length_a 29.5307
_cell_length_b 41.5617
_cell_length_c 29.3953
_cell_angle_alpha 89.999800
_cell_angle_beta 90.000100
_cell_angle_gamma 90.210700
loop_
  _atom_site_label
  _atom_site_type_symbol
  _atom_site_fract_x
  _atom_site_fract_y
  _atom_site_fract_z
O1 O 0.24495 0.28078 0.19107
 O2 O 0.30711 0.21820 0.25377
 O3 O 0.24484 0.21810 0.19100
 O4 O 0.30715 0.28086 0.25388
 O5 O 0.25407 0.28071 0.30696
 O6 O 0.19178 0.21796 0.24408
 O7 O 0.25404 0.21805 0.30686
 O8 O 0.19188 0.28064 0.24415
 Cu9 Cu 0.28136 0.24950 0.21707
 Cu10 Cu 0.21758 0.24932 0.28086
 C11 C 0.20794 0.29129 0.20704
 C12 C 0.29108 0.20757 0.29090
 C13 C 0.20779 0.20743 0.20693
 C14 C 0.29112 0.29138 0.29104
 O15 O 0.75415 0.21823 0.19253
 O16 O 0.69200 0.28082 0.25525
 O17 O 0.75420 0.28090 0.19244
 O18 O 0.69192 0.21815 0.25533
 O19 O 0.74499 0.21830 0.30840
 O20 O 0.80728 0.28105 0.24551
 O21 O 0.74508 0.28097 0.30832
 O22 O 0.80723 0.21838 0.24561
 Cu23 Cu 0.71771 0.24951 0.21853
 Cu24 Cu 0.78150 0.24969 0.28232
 C25 C 0.79118 0.20775 0.20848
 C26 C 0.70806 0.29146 0.29236
 C27 C 0.79125 0.29157 0.20836
 C28 C 0.70793 0.20763 0.29249
 O29 O 0.74591 0.78207 0.69267
 O30 O 0.80809 0.71950 0.75538
 O31 O 0.74586 0.71940 0.69260
 O32 O 0.80813 0.78217 0.75547
 O33 O 0.75507 0.78202 0.80855
 O34 O 0.69279 0.71925 0.74569
 O35 O 0.75503 0.71935 0.80847
 O36 O 0.69284 0.78192 0.74576
 Cu37 Cu 0.78235 0.75080 0.71867
 Cu38 Cu 0.71858 0.75062 0.78247
 C39 C 0.70888 0.79255 0.70863
 C40 C 0.79205 0.70886 0.79250
 C41 C 0.70882 0.70872 0.70855
 C42 C 0.79212 0.79269 0.79263
 O43 O 0.25425 0.71822 0.69265
 O44 O 0.19211 0.78082 0.75535
 O45 O 0.25432 0.78089 0.69254
 O46 O 0.19203 0.71815 0.75546
 O47 O 0.24511 0.71830 0.80853
 O48 O 0.30740 0.78104 0.74561
 O49 O 0.24519 0.78098 0.80842
 O50 O 0.30733 0.71838 0.74572
 Cu51 Cu 0.21782 0.74950 0.71865
 Cu52 Cu 0.28161 0.74969 0.78243
 C53 C 0.29128 0.70774 0.70860
 C54 C 0.20817 0.79147 0.79246
 C55 C 0.29137 0.79155 0.70846
 C56 C 0.20805 0.70763 0.79262
 C57 C 1.02381 0.02385 0.02399
 C58 C 0.97610 0.02378 0.02396
 C59 C 0.95251 -0.00016 0.00008
 C60 C 0.97602 -0.02403 -0.02375
 C61 C 1.02373 -0.02398 -0.02369
 C62 C 1.04732 -0.00003 0.00017
 H63 H 1.08406 0.00001 0.00020
 H64 H 0.91577 -0.00021 0.00005
 C65 C 0.52380 0.52379 0.52411
 C66 C 0.47609 0.52372 0.52405
 C67 C 0.45251 0.49980 0.50013
 C68 C 0.47604 0.47594 0.47629
 C69 C 0.52375 0.47600 0.47637
 C70 C 0.54733 0.49993 0.50028
 H71 H 0.58406 0.49998 0.50034
 H72 H 0.41577 0.49975 0.50007
 C73 C -0.02364 0.47632 0.02368
 C74 C 0.02407 0.47628 0.02350
 C75 C 0.04770 0.50021 -0.00036
 C76 C 0.02422 0.52417 -0.02405
 C77 C -0.02349 0.52421 -0.02388
 C78 C -0.04711 0.50028 -0.00001
 H79 H -0.08385 0.50031 0.00012
 H80 H 0.08444 0.50018 -0.00050
 C81 C 0.47644 0.97627 0.52366
 C82 C 0.52415 0.97643 0.52371
 C83 C 0.54770 1.00038 0.49981
 C84 C 0.52414 1.02416 0.47585
 C85 C 0.47643 1.02400 0.47579
 C86 C 0.45289 1.00006 0.49969
 H87 H 0.41615 0.99993 0.49965
 H88 H 0.58444 1.00050 0.49986
 C89 C 1.14010 0.13928 0.13886
 N90 N 1.16275 0.11599 0.11602
 N91 N 1.14015 0.09325 0.09339
 C92 C 1.09422 0.09313 0.09292
 N93 N 1.07158 0.11642 0.11575
 N94 N 1.09417 0.13915 0.13838
 C95 C 1.16443 0.16375 0.16326
 C96 C 1.18484 0.18430 0.18379
 C97 C 1.06986 0.06866 0.06858
 C98 C 1.04912 0.04820 0.04823
 C99 C 0.63991 0.63923 0.63914
 N100 N 0.59399 0.63920 0.63837
 N101 N 0.57143 0.61646 0.61571
 C102 C 0.59412 0.59306 0.59314
 N103 N 0.64004 0.59308 0.59391
 N104 N 0.66260 0.61582 0.61658
 C105 C 0.66419 0.66370 0.66356
 C106 C 0.68458 0.68426 0.68409
 C107 C 0.56980 0.56860 0.56877
 C108 C 0.54908 0.54813 0.54838
 C109 C -0.13983 0.36101 0.13886
 N110 N -0.16251 0.38433 0.11612
 N111 N -0.13995 0.40705 0.09341
 C112 C -0.09403 0.40712 0.09277
 N113 N -0.07135 0.38381 0.11552
 N114 N -0.09391 0.36109 0.13822
 C115 C -0.16412 0.33656 0.16332
 C116 C -0.18451 0.31601 0.18388
 C117 C -0.06970 0.43156 0.06836
 C118 C -0.04897 0.45201 0.04795
 C119 C 0.36032 0.86097 0.63893
 N120 N 0.40624 0.86090 0.63802
 N121 N 0.42881 0.88361 0.61530
 C122 C 0.40614 0.90706 0.59282
 N123 N 0.36022 0.90713 0.59373
 N124 N 0.33765 0.88442 0.61645
 C125 C 0.33602 0.83652 0.66340
 C126 C 0.31562 0.81599 0.68396
 C127 C 0.43047 0.93149 0.56839
 C128 C 0.45118 0.95194 0.54796
 C129 C -0.13920 0.63955 -0.13828
 N130 N -0.09330 0.63995 -0.13697
 N131 N -0.07081 0.61725 -0.11440
 C132 C -0.09356 0.59346 -0.09246
 N133 N -0.13946 0.59306 -0.09377
 N134 N -0.16195 0.61577 -0.11634
 C135 C -0.16341 0.66397 -0.16262
 C136 C -0.18375 0.68448 -0.18310
 C137 C -0.06931 0.56902 -0.06823
 C138 C -0.04868 0.54856 -0.04797
 C139 C 0.36011 1.13853 0.36037
 N140 N 0.40603 1.13868 0.36087
 N141 N 0.42865 1.11612 0.38361
 C142 C 0.40602 1.09274 0.40651
 N143 N 0.36010 1.09258 0.40601
 N144 N 0.33748 1.11514 0.38327
 C145 C 0.33576 1.16282 0.33590
 C146 C 0.31534 1.18325 0.31535
 C147 C 0.43041 1.06847 0.43097
 C148 C 0.45115 1.04817 0.45143
 C149 C 1.13947 -0.13919 -0.13835
 N150 N 1.16224 -0.11584 -0.11551
 N151 N 1.13976 -0.09314 -0.09292
 C152 C 1.09383 -0.09310 -0.09250
 N153 N 1.07106 -0.11645 -0.11533
 N154 N 1.09354 -0.13915 -0.13792
 C155 C 1.16367 -0.16361 -0.16269
 C156 C 1.18399 -0.18413 -0.18316
 C157 C 1.06960 -0.06868 -0.06820
 C158 C 1.04895 -0.04826 -0.04788
 C159 C 0.63940 0.36081 0.36160
 N160 N 0.59348 0.36088 0.36201
 N161 N 0.57103 0.38358 0.38462
 C162 C 0.59383 0.40689 0.40750
 N163 N 0.63975 0.40682 0.40710
 N164 N 0.66220 0.38412 0.38449
 C165 C 0.66357 0.33637 0.33724
 C166 C 0.68388 0.31586 0.31675
 C167 C 0.56962 0.43131 0.43183
 C168 C 0.54898 0.45173 0.45217
 C169 C 0.85980 -0.13924 -0.13913
 N170 N 0.83714 -0.11583 -0.11655
 N171 N 0.85973 -0.09314 -0.09380
 C172 C 0.90564 -0.09319 -0.09295
 N173 N 0.92830 -0.11660 -0.11553
 N174 N 0.90572 -0.13929 -0.13827
 C175 C 0.83548 -0.16366 -0.16362
 C176 C 0.81508 -0.18419 -0.18420
 C177 C 0.92999 -0.06878 -0.06850
 C178 C 0.95072 -0.04835 -0.04806
 C179 C 0.36000 0.36076 0.36067
 N180 N 0.33730 0.38400 0.38356
 N181 N 0.35983 0.40669 0.40636
 C182 C 0.40576 0.40681 0.40695
 N183 N 0.42847 0.38358 0.38406
 N184 N 0.40593 0.36089 0.36127
 C185 C 0.33574 0.33634 0.33613
 C186 C 0.31537 0.31581 0.31553
 C187 C 0.43006 0.43122 0.43145
 C188 C 0.45076 0.45164 0.45193
 C189 C 0.14043 0.63951 -0.13918
 N190 N 0.16304 0.61536 -0.11817
 N191 N 0.14047 0.59264 -0.09547
 C192 C 0.09462 0.59339 -0.09310
 N193 N 0.07201 0.61754 -0.11411
 N194 N 0.09458 0.64026 -0.13681
 C195 C 0.16472 0.66397 -0.16364
 C196 C 0.18510 0.68451 -0.18421
 C197 C 0.07029 0.56894 -0.06871
 C198 C 0.04955 0.54849 -0.04832
 C199 C 0.64027 1.13952 0.36067
 N200 N 0.66295 1.11632 0.38367
 N201 N 0.64037 1.09361 0.40637
 C202 C 0.59445 1.09340 0.40675
 N203 N 0.57177 1.11660 0.38375
 N204 N 0.59434 1.13932 0.36105
 C205 C 0.66457 1.16397 0.33622
 C206 C 0.68497 1.18451 0.31566
 C207 C 0.57011 1.06896 0.43115
 C208 C 0.54940 1.04851 0.45156
 C209 C 0.13942 0.36074 0.13787
 N210 N 0.09350 0.36087 0.13745
 N211 N 0.07111 0.38363 0.11489
 C212 C 0.09397 0.40694 0.09208
 N213 N 0.13989 0.40681 0.09250
 N214 N 0.16228 0.38406 0.11506
 C215 C 0.16353 0.33626 0.16221
 C216 C 0.18379 0.31571 0.18267
 C217 C 0.06983 0.43143 0.06784
 C218 C 0.04924 0.45192 0.04758
 C219 C 0.64007 0.86171 0.63917
 N220 N 0.66281 0.88505 0.61628
 N221 N 0.64029 0.90766 0.59354
 C222 C 0.59437 0.90760 0.59300
 N223 N 0.57163 0.88427 0.61590
 N224 N 0.59414 0.86166 0.63864
 C225 C 0.66430 0.83737 0.66365
 C226 C 0.68465 0.81691 0.68420
 C227 C 0.57010 0.93192 0.56854
 C228 C 0.54941 0.95225 0.54807
 C229 C 0.86007 0.13861 0.13907
 N230 N 0.90599 0.13879 0.13837
 N231 N 0.92855 0.11618 0.11568
 C232 C 0.90586 0.09272 0.09300
 N233 N 0.85994 0.09253 0.09370
 N234 N 0.83738 0.11514 0.11639
 C235 C 0.83579 0.16295 0.16351
 C236 C 0.81541 0.18340 0.18405
 C237 C 0.93018 0.06839 0.06861
 C238 C 0.95087 0.04802 0.04822
 C239 C 0.36011 0.63856 0.63920
 N240 N 0.40604 0.63866 0.63862
 N241 N 0.42857 0.61605 0.61592
 C242 C 0.40586 0.59266 0.59311
 N243 N 0.35994 0.59256 0.59368
 N244 N 0.33740 0.61517 0.61639
 C245 C 0.33585 0.66291 0.66364
 C246 C 0.31549 0.68338 0.68418
 C247 C 0.43016 0.56832 0.56871
 C248 C 0.45084 0.54796 0.54831
   
