data_POSCAR
  _audit_creation_date              2014-09-24
  _audit_creation_method            'ToBaCCo'
  _symmetry_space_group_name_H-M    'P1'
  _symmetry_Int_Tables_number       1
  _symmetry_cell_setting            triclinic
  loop_
  _symmetry_equiv_pos_as_xyz
 x,y,z
_cell_length_a 48.4372
_cell_length_b 49.0463
_cell_length_c 46.9323
_cell_angle_alpha 90.987700
_cell_angle_beta 91.202500
_cell_angle_gamma 91.840300
loop_
  _atom_site_label
  _atom_site_type_symbol
  _atom_site_fract_x
  _atom_site_fract_y
  _atom_site_fract_z
N1 N 0.58613 0.66535 0.61172
 N2 N 0.56967 0.64775 0.62445
 C3 C 0.54449 0.65831 0.62669
 C4 C 0.54536 0.68405 0.61506
 C5 C 0.57213 0.68793 0.60593
 H6 H 0.52721 0.64851 0.63710
 H7 H 0.58077 0.70583 0.59581
 Cu8 Cu 0.58325 0.61400 0.63965
 Cu9 Cu 0.62444 0.65772 0.60363
 Cu10 Cu 0.64469 0.59272 0.61917
 N11 N 0.60300 0.58677 0.66109
 N12 N 0.62768 0.57937 0.65359
 C13 C 0.63730 0.56145 0.67242
 C14 C 0.61742 0.55715 0.69285
 C15 C 0.59580 0.57343 0.68480
 H16 H 0.65710 0.55202 0.67086
 H17 H 0.57657 0.57589 0.69574
 N18 N 0.66497 0.61642 0.59327
 N19 N 0.65798 0.64164 0.58798
 C20 C 0.67555 0.65228 0.56887
 C21 C 0.69433 0.63264 0.56186
 C22 C 0.68697 0.61023 0.57777
 H23 H 0.67394 0.67229 0.55979
 H24 H 0.69660 0.59064 0.57763
 H25 H 0.61453 0.61721 0.59973
 H26 H 0.63146 0.62860 0.63431
 N27 N 0.92630 0.33968 0.08713
 N28 N 0.93773 0.34647 0.11201
 C29 C 0.95757 0.32878 0.11823
 C30 C 0.95905 0.31022 0.09580
 C31 C 0.93896 0.31788 0.07631
 H32 H 0.97015 0.32935 0.13756
 H33 H 0.93311 0.30775 0.05635
 Cu34 Cu 0.92577 0.37796 0.13368
 Cu35 Cu 0.89411 0.35791 0.07198
 Cu36 Cu 0.87109 0.41282 0.11144
 N37 N 0.91341 0.40955 0.15497
 N38 N 0.89125 0.42232 0.14671
 C39 C 0.88613 0.44215 0.16585
 C40 C 0.90642 0.44214 0.18694
 C41 C 0.92348 0.42124 0.17940
 H42 H 0.86904 0.45577 0.16447
 H43 H 0.94136 0.41463 0.19127
 N44 N 0.85348 0.40021 0.07517
 N45 N 0.86182 0.37896 0.06041
 C46 C 0.84466 0.37463 0.03767
 C47 C 0.82493 0.39436 0.03795
 C48 C 0.83115 0.41023 0.06197
 H49 H 0.84624 0.35830 0.02207
 H50 H 0.81969 0.42729 0.06971
 H51 H 0.90368 0.39541 0.09085
 H52 H 0.88031 0.37185 0.11073
 N53 N 0.41414 0.16387 -0.11186
 N54 N 0.43295 0.14702 -0.12047
 C55 C 0.45752 0.16052 -0.12144
 C56 C 0.45385 0.18738 -0.11319
 C57 C 0.42603 0.18881 -0.10741
 H58 H 0.47638 0.15165 -0.12855
 H59 H 0.41525 0.20664 -0.10050
 Cu60 Cu 0.42329 0.10969 -0.13200
 Cu61 Cu 0.37565 0.15220 -0.10739
 Cu62 Cu 0.36186 0.08276 -0.11444
 N63 N 0.40798 0.07684 -0.15095
 N64 N 0.38348 0.06670 -0.14457
 C65 C 0.37718 0.04511 -0.16183
 C66 C 0.39902 0.04144 -0.17985
 C67 C 0.41828 0.06189 -0.17233
 H68 H 0.35800 0.03320 -0.16152
 H69 H 0.43779 0.06627 -0.18237
 N70 N 0.33715 0.10738 -0.09485
 N71 N 0.34167 0.13405 -0.09328
 C72 C 0.32142 0.14522 -0.07814
 C73 C 0.30348 0.12447 -0.06971
 C74 C 0.31412 0.10079 -0.08068
 H75 H 0.32073 0.16660 -0.07232
 H76 H 0.30604 0.08020 -0.07798
 H77 H 0.38779 0.11442 -0.09632
 H78 H 0.37377 0.11750 -0.13349
 N79 N 0.07585 0.84048 0.38984
 N80 N 0.05713 0.85655 0.37927
 C81 C 0.03277 0.84266 0.37672
 C82 C 0.03656 0.81620 0.38570
 C83 C 0.06422 0.81557 0.39370
 H84 H 0.01410 0.85098 0.36793
 H85 H 0.07503 0.79839 0.40213
 Cu86 Cu 0.06679 0.89324 0.36713
 Cu87 Cu 0.11367 0.85328 0.39851
 Cu88 Cu 0.12698 0.92211 0.38939
 N89 N 0.08287 0.92478 0.34811
 N90 N 0.10706 0.93541 0.35632
 C91 C 0.11422 0.95573 0.33881
 C92 C 0.09327 0.95815 0.31869
 C93 C 0.07359 0.93826 0.32523
 H94 H 0.13330 0.96779 0.34055
 H95 H 0.05449 0.93332 0.31364
 N96 N 0.15056 0.89965 0.41302
 N97 N 0.14621 0.87316 0.41587
 C98 C 0.16544 0.86382 0.43413
 C99 C 0.18249 0.88561 0.44326
 C100 C 0.17249 0.90795 0.42926
 H101 H 0.16621 0.84301 0.44130
 H102 H 0.18020 0.92885 0.43101
 H103 H 0.10033 0.89152 0.40638
 H104 H 0.11628 0.88580 0.37089
 N105 N 0.09120 0.16273 0.10215
 N106 N 0.08234 0.15516 0.12721
 C107 C 0.06335 0.17269 0.13609
 C108 C 0.05984 0.19191 0.11527
 C109 C 0.07763 0.18492 0.09393
 H110 H 0.05275 0.17159 0.15611
 H111 H 0.08118 0.19581 0.07443
 Cu112 Cu 0.09638 0.12305 0.14562
 Cu113 Cu 0.12153 0.14488 0.08346
 Cu114 Cu 0.14792 0.08850 0.11698
 N115 N 0.11021 0.09049 0.16337
 N116 N 0.13129 0.07786 0.15269
 C117 C 0.13794 0.05720 0.16976
 C118 C 0.11979 0.05662 0.19208
 C119 C 0.10233 0.07787 0.18730
 H120 H 0.15449 0.04338 0.16602
 H121 H 0.08564 0.08400 0.20069
 N122 N 0.16192 0.10232 0.08069
 N123 N 0.15230 0.12407 0.06815
 C124 C 0.16715 0.12911 0.04473
 C125 C 0.18669 0.10934 0.04223
 C126 C 0.18277 0.09269 0.06534
 H127 H 0.16418 0.14599 0.03058
 H128 H 0.19485 0.07538 0.07102
 H129 H 0.11352 0.10685 0.10013
 H130 H 0.13927 0.12954 0.11993
 N131 N 0.40683 0.82707 0.61091
 N132 N 0.42368 0.84451 0.62471
 C133 C 0.44868 0.83357 0.62754
 C134 C 0.44729 0.80774 0.61519
 C135 C 0.42039 0.80418 0.60503
 H136 H 0.46624 0.84324 0.63871
 H137 H 0.41141 0.78636 0.59403
 Cu138 Cu 0.41090 0.87873 0.64013
 Cu139 Cu 0.36868 0.83553 0.60147
 Cu140 Cu 0.35079 0.90187 0.61631
 N141 N 0.39203 0.90717 0.66077
 N142 N 0.36797 0.91563 0.65173
 C143 C 0.35909 0.93468 0.67000
 C144 C 0.37872 0.93842 0.69166
 C145 C 0.39948 0.92078 0.68504
 H146 H 0.33995 0.94525 0.66746
 H147 H 0.41832 0.91778 0.69720
 N148 N 0.32974 0.87799 0.58942
 N149 N 0.33574 0.85232 0.58442
 C150 C 0.31769 0.84164 0.56464
 C151 C 0.29964 0.86174 0.55689
 C152 C 0.30793 0.88443 0.57306
 H153 H 0.31843 0.82123 0.55568
 H154 H 0.29898 0.90435 0.57261
 H155 H 0.38003 0.87564 0.59840
 H156 H 0.36225 0.86587 0.63188
 N157 N 0.91201 0.65552 0.39557
 N158 N 0.93015 0.63976 0.38367
 C159 C 0.95409 0.65406 0.38084
 C160 C 0.95054 0.68029 0.39109
 C161 C 0.92356 0.68059 0.40006
 H162 H 0.97234 0.64630 0.37104
 H163 H 0.91320 0.69767 0.40943
 Cu164 Cu 0.92004 0.60302 0.37028
 Cu165 Cu 0.87496 0.64223 0.40482
 Cu166 Cu 0.86218 0.57316 0.39388
 N167 N 0.90285 0.57135 0.35057
 N168 N 0.87955 0.56029 0.35941
 C169 C 0.87109 0.54011 0.34120
 C170 C 0.89023 0.53833 0.31987
 C171 C 0.91027 0.55829 0.32655
 H172 H 0.85235 0.52777 0.34330
 H173 H 0.92826 0.56361 0.31429
 N174 N 0.83997 0.59531 0.41906
 N175 N 0.84398 0.62191 0.42248
 C176 C 0.82561 0.63111 0.44128
 C177 C 0.80952 0.60914 0.45018
 C178 C 0.81917 0.58680 0.43551
 H179 H 0.82474 0.65202 0.44883
 H180 H 0.81181 0.56582 0.43675
 H181 H 0.88956 0.60433 0.41089
 H182 H 0.87076 0.60955 0.37629
 N183 N 0.58404 0.34581 -0.10901
 N184 N 0.56507 0.36299 -0.11666
 C185 C 0.54023 0.34986 -0.11778
 C186 C 0.54392 0.32291 -0.11065
 C187 C 0.57199 0.32107 -0.10534
 H188 H 0.52116 0.35900 -0.12436
 H189 H 0.58286 0.30303 -0.09941
 Cu190 Cu 0.57488 0.40012 -0.12713
 Cu191 Cu 0.62300 0.35663 -0.10497
 Cu192 Cu 0.63801 0.42566 -0.11005
 N193 N 0.59003 0.43232 -0.14567
 N194 N 0.61524 0.44173 -0.13963
 C195 C 0.62152 0.46235 -0.15713
 C196 C 0.59891 0.46624 -0.17487
 C197 C 0.57921 0.44692 -0.16697
 H198 H 0.64126 0.47330 -0.15734
 H199 H 0.55915 0.44282 -0.17698
 N200 N 0.66323 0.40064 -0.09167
 N201 N 0.65822 0.37406 -0.09101
 C202 C 0.67924 0.36243 -0.07700
 C203 C 0.69821 0.38279 -0.06833
 C204 C 0.68735 0.40674 -0.07797
 H205 H 0.67994 0.34098 -0.07217
 H206 H 0.69616 0.42715 -0.07488
 H207 H 0.61237 0.39464 -0.09239
 H208 H 0.62402 0.39108 -0.12995
 C209 C 0.00810 0.25951 0.11766
 C210 C 0.01121 0.24452 0.09226
 N211 N -0.00322 0.25139 0.06849
 C212 C -0.02065 0.27260 0.06892
 C213 C -0.02342 0.28811 0.09423
 N214 N -0.00875 0.28107 0.11794
 N215 N 0.02158 0.25198 0.14176
 C216 C 0.03810 0.23009 0.14162
 C217 C 0.04177 0.21540 0.11609
 N218 N 0.02825 0.22306 0.09193
 H219 H -0.03175 0.27746 0.04954
 H220 H 0.04864 0.22450 0.16113
 C221 C 0.51021 0.75005 0.61371
 C222 C 0.48225 0.74158 0.61347
 N223 N 0.47539 0.71453 0.61373
 C224 C 0.49524 0.69554 0.61430
 C225 C 0.52326 0.70395 0.61422
 N226 N 0.53002 0.73110 0.61381
 N227 N 0.51711 0.77710 0.61436
 C228 C 0.49730 0.79611 0.61487
 C229 C 0.46926 0.78771 0.61433
 N230 N 0.46244 0.76055 0.61351
 H231 H 0.48918 0.67411 0.61451
 H232 H 0.50339 0.81753 0.61539
 C233 C 1.00795 0.74696 0.39139
 C234 C 0.97963 0.75090 0.38706
 N235 N 0.97066 0.77634 0.38211
 C236 C 0.98872 0.79811 0.38127
 C237 C 1.01718 0.79440 0.38615
 N238 N 1.02594 0.76875 0.39120
 N239 N 1.01705 0.72136 0.39524
 C240 C 0.99906 0.69948 0.39498
 C241 C 0.97061 0.70343 0.39123
 N242 N 0.96159 0.72915 0.38744
 H243 H 0.98073 0.81805 0.37733
 H244 H 1.00683 0.67928 0.39811
 C245 C 0.48463 0.25767 -0.11070
 C246 C 0.51300 0.25276 -0.11073
 N247 N 0.52159 0.22670 -0.11140
 C248 C 0.50307 0.20526 -0.11215
 C249 C 0.47459 0.21006 -0.11205
 N250 N 0.46612 0.23628 -0.11121
 N251 N 0.47606 0.28375 -0.11052
 C252 C 0.49459 0.30519 -0.11045
 C253 C 0.52307 0.30035 -0.11040
 N254 N 0.53151 0.27413 -0.11043
 H255 H 0.51059 0.18473 -0.11260
 H256 H 0.48712 0.32573 -0.11025
 C257 C 0.11857 0.00252 0.26111
 C258 C 0.09389 0.01258 0.24987
 N259 N 0.06940 0.00433 0.26097
 C260 C 0.06847 -0.01348 0.28288
 C261 C 0.09320 -0.02308 0.29458
 N262 N 0.11768 -0.01475 0.28335
 N263 N 0.14300 0.00996 0.24942
 C264 C 0.14392 0.02708 0.22697
 C265 C 0.11933 0.03767 0.21602
 N266 N 0.09484 0.03018 0.22784
 H267 H 0.04870 -0.01969 0.29140
 H268 H 0.16369 0.03274 0.21810
 C269 C 0.59581 0.51879 -0.24515
 C270 C 0.62059 0.50699 -0.23666
 N271 N 0.64374 0.51175 -0.25177
 C272 C 0.64333 0.52780 -0.27507
 C273 C 0.61864 0.54019 -0.28347
 N274 N 0.59547 0.53534 -0.26806
 N275 N 0.57240 0.51312 -0.23064
 C276 C 0.57269 0.49616 -0.20799
 C277 C 0.59763 0.48476 -0.19912
 N278 N 0.62102 0.49057 -0.21371
 H279 H 0.66229 0.53114 -0.28643
 H280 H 0.55376 0.49189 -0.19681
 C281 C 0.37642 0.99305 0.76213
 C282 C 0.40174 0.98467 0.75154
 N283 N 0.42571 0.99488 0.76357
 C284 C 0.42553 1.01318 0.78568
 C285 C 0.40020 1.02140 0.79652
 N286 N 0.37623 1.01098 0.78446
 N287 N 0.35245 0.98350 0.74962
 C288 C 0.35260 0.96597 0.72687
 C289 C 0.37789 0.95730 0.71634
 N290 N 0.40191 0.96682 0.72909
 H291 H 0.44494 1.02101 0.79485
 H292 H 0.33315 0.95866 0.71736
 C293 C 0.88586 0.48645 0.24703
 C294 C 0.91150 0.49415 0.25973
 N295 N 0.93501 0.48435 0.24873
 C296 C 0.93403 0.46725 0.22556
 C297 C 0.90841 0.46002 0.21244
 N298 N 0.88493 0.46990 0.22356
 N299 N 0.86228 0.49544 0.25852
 C300 C 0.86314 0.51186 0.28217
 C301 C 0.88877 0.52010 0.29462
 N302 N 0.91242 0.51106 0.28299
 H303 H 0.95306 0.45980 0.21716
 H304 H 0.84401 0.51882 0.29082
 C305 C 0.24982 0.10435 -0.01831
 C306 C 0.23708 0.12915 -0.01289
 N307 N 0.24594 0.15196 -0.02641
 C308 C 0.26711 0.15114 -0.04500
 C309 C 0.27992 0.12631 -0.05047
 N310 N 0.27076 0.10348 -0.03701
 N311 N 0.24148 0.08166 -0.00433
 C312 C 0.22106 0.08264 0.01505
 C313 C 0.20822 0.10743 0.02062
 N314 N 0.21648 0.13011 0.00629
 H315 H 0.27377 0.16965 -0.05541
 H316 H 0.21488 0.06420 0.02587
 C317 C 0.74758 0.60939 0.51238
 C318 C 0.75675 0.63382 0.50007
 N319 N 0.74537 0.65764 0.50815
 C320 C 0.72521 0.65810 0.52795
 C321 C 0.71613 0.63360 0.54042
 N322 N 0.72771 0.60987 0.53224
 N323 N 0.75857 0.58550 0.50419
 C324 C 0.77836 0.58485 0.48415
 C325 C 0.78780 0.60927 0.47177
 N326 N 0.77674 0.63326 0.48018
 H327 H 0.71656 0.67736 0.53398
 H328 H 0.78678 0.56544 0.47831
 C329 C 0.76930 0.37625 -0.01531
 C330 C 0.75633 0.40124 -0.01834
 N331 N 0.76612 0.42349 -0.00332
 C332 C 0.78825 0.42190 0.01479
 C333 C 0.80138 0.39692 0.01789
 N334 N 0.79161 0.37468 0.00256
 N335 N 0.75902 0.35385 -0.02983
 C336 C 0.73625 0.35527 -0.04717
 C337 C 0.72326 0.38032 -0.05032
 N338 N 0.73380 0.40273 -0.03584
 H339 H 0.79557 0.44000 0.02649
 H340 H 0.72851 0.33709 -0.05845
 C341 C 0.23602 0.86069 0.49362
 C342 C 0.24647 0.88523 0.50600
 N343 N 0.23623 0.90925 0.49758
 C344 C 0.21591 0.90994 0.47727
 C345 C 0.20509 0.88542 0.46487
 N346 N 0.21546 0.86130 0.47346
 N347 N 0.24663 0.83671 0.50198
 C348 C 0.26722 0.83620 0.52219
 C349 C 0.27752 0.86081 0.53479
 N350 N 0.26675 0.88469 0.52627
 H351 H 0.20811 0.92948 0.47130
 H352 H 0.27521 0.81681 0.52848
   
