data_POSCAR
  _audit_creation_date              2014-09-24
  _audit_creation_method            'ToBaCCo'
  _symmetry_space_group_name_H-M    'P1'
  _symmetry_Int_Tables_number       1
  _symmetry_cell_setting            triclinic
  loop_
  _symmetry_equiv_pos_as_xyz
 x,y,z
_cell_length_a 40.5593
_cell_length_b 39.7159
_cell_length_c 39.7310
_cell_angle_alpha 89.956100
_cell_angle_beta 89.926000
_cell_angle_gamma 89.989700
loop_
  _atom_site_label
  _atom_site_type_symbol
  _atom_site_fract_x
  _atom_site_fract_y
  _atom_site_fract_z
C1 C 0.27774 0.41950 -0.01558
 C2 C 0.27776 0.41942 0.01887
 C3 C 0.28927 0.38810 0.02868
 N4 N 0.29622 0.36893 0.00143
 C5 C 0.28877 0.38799 -0.02571
 C6 C 0.29051 0.37662 0.06227
 C7 C 0.30953 0.34855 0.07189
 C8 C 0.30738 0.33190 0.10249
 C9 C 0.33178 0.30773 0.10245
 C10 C 0.34800 0.31046 0.07183
 N11 N 0.33435 0.33540 0.05344
 C12 C 0.37609 0.29195 0.06216
 C13 C 0.38741 0.29110 0.02858
 C14 C 0.41845 0.28039 0.01878
 C15 C 0.41859 0.28044 -0.01567
 C16 C 0.38742 0.29067 -0.02583
 N17 N 0.36846 0.29761 0.00132
 C18 C 0.37607 0.29114 -0.05957
 C19 C 0.34815 0.31046 -0.06905
 C20 C 0.32962 0.30549 -0.09796
 C21 C 0.30520 0.32950 -0.09791
 C22 C 0.30941 0.34857 -0.06899
 N23 N 0.33553 0.33665 -0.05142
 C24 C 0.28950 0.37635 -0.05943
 H25 H 0.27017 0.44030 -0.03140
 H26 H 0.27007 0.44001 0.03491
 H27 H 0.34577 0.34748 -0.02996
 H28 H 0.29028 0.33685 0.12282
 H29 H 0.33715 0.29040 0.12275
 H30 H 0.43883 0.27321 0.03483
 H31 H 0.43924 0.27344 -0.03148
 H32 H 0.28611 0.33210 -0.11673
 H33 H 0.34378 0.34535 0.03117
 H34 H 0.33286 0.28612 -0.11681
 C35 C 0.76187 0.62671 -0.01500
 C36 C 0.76179 0.62655 0.01949
 C37 C 0.73002 0.63467 0.02932
 N38 N 0.71059 0.63960 0.00214
 C39 C 0.72991 0.63416 -0.02505
 C40 C 0.71823 0.63328 0.06267
 C41 C 0.68992 0.65136 0.07270
 C42 C 0.67343 0.64770 0.10306
 C43 C 0.64897 0.67176 0.10356
 C44 C 0.65080 0.68893 0.07317
 N45 N 0.67605 0.67657 0.05476
 C46 C 0.63101 0.71665 0.06376
 C47 C 0.62860 0.72798 0.03006
 C48 C 0.61256 0.75707 0.01980
 C49 C 0.61273 0.75690 -0.01468
 C50 C 0.62823 0.72739 -0.02448
 N51 N 0.63810 0.70984 0.00289
 C52 C 0.62948 0.71509 -0.05786
 C53 C 0.64937 0.68741 -0.06717
 C54 C 0.64480 0.66788 -0.09566
 C55 C 0.66959 0.64420 -0.09583
 C56 C 0.68910 0.65038 -0.06779
 N57 N 0.67635 0.67665 -0.05034
 C58 C 0.71788 0.63223 -0.05849
 H59 H 0.78282 0.62103 -0.03093
 H60 H 0.78252 0.62062 0.03557
 H61 H 0.68700 0.68840 -0.02956
 H62 H 0.67861 0.62990 0.12298
 H63 H 0.63199 0.67607 0.12411
 H64 H 0.60115 0.77616 0.03531
 H65 H 0.60176 0.77589 -0.03068
 H66 H 0.67237 0.62435 -0.11423
 H67 H 0.68545 0.68702 0.03270
 H68 H 0.62524 0.67001 -0.11403
 C69 C 0.60147 0.25007 0.98405
 C70 C 0.60252 0.24992 1.01848
 C71 C 0.62300 0.27620 1.02801
 N72 N 0.63423 0.29259 1.00040
 C73 C 0.62135 0.27642 0.97342
 C74 C 0.62814 0.28663 1.06167
 C75 C 0.64943 0.31335 1.07065
 C76 C 0.64800 0.33104 1.10068
 C77 C 0.67300 0.35438 1.09981
 C78 C 0.69003 0.34948 1.06987
 N79 N 0.67523 0.32454 1.05214
 C80 C 0.71863 0.36744 1.05939
 C81 C 0.72929 0.36602 1.02541
 C82 C 0.76093 0.37337 1.01423
 C83 C 0.75971 0.37371 0.97978
 C84 C 0.72760 0.36584 0.97108
 N85 N 0.70903 0.36092 0.99893
 C86 C 0.71490 0.36729 0.93811
 C87 C 0.68601 0.34981 0.92882
 C88 C 0.66955 0.35330 0.89848
 C89 C 0.64445 0.33000 0.89861
 C90 C 0.64576 0.31349 0.92939
 N91 N 0.67143 0.32546 0.94742
 C92 C 0.62482 0.28687 0.93948
 H93 H 0.58677 0.23328 0.96879
 H94 H 0.58873 0.23300 1.03454
 H95 H 0.68060 0.31519 0.96960
 H96 H 0.63048 0.32807 1.12099
 H97 H 0.67762 0.37300 1.11907
 H98 H 0.78245 0.37874 1.02939
 H99 H 0.77997 0.37951 0.96299
 H100 H 0.62731 0.32585 0.87821
 H101 H 0.68400 0.31360 1.03006
 H102 H 0.67519 0.37046 0.87812
 C103 C 0.27793 0.58074 0.98051
 C104 C 0.27835 0.58073 1.01496
 C105 C 0.28976 0.61216 1.02486
 N106 N 0.29700 0.63111 0.99756
 C107 C 0.28955 0.61194 0.97046
 C108 C 0.29097 0.62387 1.05854
 C109 C 0.31123 0.65149 1.06774
 C110 C 0.30749 0.67067 1.09667
 C111 C 0.33207 0.69449 1.09629
 C112 C 0.35026 0.68929 1.06715
 N113 N 0.33724 0.66316 1.04976
 C114 C 0.37822 0.70839 1.05721
 C115 C 0.38910 0.70879 1.02327
 C116 C 0.42014 0.71899 1.01256
 C117 C 0.41950 0.71904 0.97811
 C118 C 0.38833 0.70828 0.96887
 N119 N 0.36978 0.70181 0.99647
 C120 C 0.37656 0.70741 0.93548
 C121 C 0.34833 0.68900 0.92624
 C122 C 0.33183 0.69173 0.89581
 C123 C 0.30726 0.66777 0.89620
 C124 C 0.30961 0.65121 0.92684
 N125 N 0.33471 0.66423 0.94490
 C126 C 0.29048 0.62333 0.93683
 H127 H 0.26988 0.56018 0.96465
 H128 H 0.27082 0.56003 1.03095
 H129 H 0.34430 0.65431 0.96708
 H130 H 0.28858 0.66827 1.11576
 H131 H 0.33563 0.71390 1.11503
 H132 H 0.44101 0.72600 1.02798
 H133 H 0.43962 0.72625 0.96169
 H134 H 0.28991 0.66288 0.87612
 H135 H 0.34715 0.65219 1.02818
 H136 H 0.33714 0.70893 0.87537
 C137 C -0.01514 0.27651 0.41690
 C138 C 0.01862 0.27623 0.41680
 C139 C 0.02834 0.28740 0.38530
 N140 N 0.00171 0.29439 0.36603
 C141 C -0.02497 0.28734 0.38522
 C142 C 0.06130 0.28847 0.37390
 C143 C 0.07088 0.30746 0.34555
 C144 C 0.10100 0.30507 0.32916
 C145 C 0.10124 0.32975 0.30476
 C146 C 0.07125 0.34637 0.30705
 N147 N 0.05297 0.33266 0.33195
 C148 C 0.06208 0.37494 0.28822
 C149 C 0.02922 0.38654 0.28688
 C150 C 0.01982 0.41815 0.27573
 C151 C -0.01393 0.41840 0.27559
 C152 C -0.02407 0.38671 0.28614
 N153 N 0.00239 0.36736 0.29345
 C154 C -0.05719 0.37530 0.28679
 C155 C -0.06661 0.34703 0.30646
 C156 C -0.09504 0.32819 0.30176
 C157 C -0.09530 0.30374 0.32627
 C158 C -0.06700 0.30821 0.34534
 N159 N -0.04950 0.33449 0.33292
 C160 C -0.05802 0.28844 0.37365
 H161 H -0.03069 0.26936 0.43787
 H162 H 0.03424 0.26868 0.43754
 H163 H -0.02847 0.34504 0.34365
 H164 H 0.12086 0.28767 0.33449
 H165 H 0.12131 0.33509 0.28760
 H166 H 0.03567 0.43885 0.26845
 H167 H -0.02927 0.43949 0.26834
 H168 H -0.11393 0.28447 0.32925
 H169 H 0.03111 0.34244 0.34162
 H170 H -0.11345 0.33129 0.28231
 C171 C 0.01596 0.72578 0.58370
 C172 C -0.01784 0.72550 0.58400
 C173 C -0.02728 0.71221 0.61481
 N174 N -0.00043 0.70427 0.63329
 C175 C 0.02604 0.71262 0.61433
 C176 C -0.06005 0.71051 0.62673
 C177 C -0.06906 0.69154 0.65538
 C178 C -0.09832 0.69524 0.67302
 C179 C -0.09821 0.67123 0.69800
 C180 C -0.06905 0.65319 0.69466
 N181 N -0.05135 0.66591 0.66869
 C182 C -0.05961 0.62525 0.71478
 C183 C -0.02638 0.61411 0.71592
 C184 C -0.01614 0.58262 0.72697
 C185 C 0.01761 0.58286 0.72650
 C186 C 0.02694 0.61426 0.71469
 N187 N 0.00007 0.63334 0.70806
 C188 C 0.05983 0.62570 0.71263
 C189 C 0.06900 0.65385 0.69313
 C190 C 0.09908 0.67031 0.69488
 C191 C 0.09887 0.69453 0.67004
 C192 C 0.06867 0.69207 0.65389
 N193 N 0.05068 0.66719 0.66808
 C194 C 0.05907 0.71103 0.62547
 H195 H 0.03135 0.73493 0.56338
 H196 H -0.03365 0.73444 0.56397
 H197 H 0.02873 0.65731 0.65883
 H198 H -0.11764 0.71349 0.66851
 H199 H -0.11738 0.66768 0.71663
 H200 H -0.03139 0.56158 0.73456
 H201 H 0.03349 0.56225 0.73389
 H202 H 0.11878 0.71176 0.66436
 H203 H -0.02994 0.65558 0.65854
 H204 H 0.11919 0.66520 0.71202
 C205 C 0.98144 0.58302 0.27549
 C206 C 1.01519 0.58269 0.27598
 C207 C 1.02518 0.61423 0.28703
 N208 N 0.99861 0.63357 0.29401
 C209 C 0.97188 0.61452 0.28675
 C210 C 1.05830 0.62557 0.28837
 C211 C 1.06739 0.65364 0.30837
 C212 C 1.09590 0.67250 0.30421
 C213 C 1.09574 0.69676 0.32885
 C214 C 1.06714 0.69214 0.34749
 N215 N 1.04984 0.66597 0.33464
 C216 C 1.05772 0.71165 0.37582
 C217 C 1.02448 0.71269 0.38690
 C218 C 1.01412 0.72325 0.41849
 C219 C 0.98037 0.72350 0.41791
 C220 C 0.97117 0.71259 0.38620
 N221 N 0.99812 0.70577 0.36727
 C222 C 0.93840 0.71161 0.37431
 C223 C 0.92928 0.69295 0.34563
 C224 C 0.89942 0.69553 0.32885
 C225 C 0.89959 0.67117 0.30416
 C226 C 0.92954 0.65452 0.30668
 N227 N 0.94741 0.66792 0.33199
 C228 C 0.93901 0.62617 0.28767
 H229 H 0.96571 0.56243 0.26774
 H230 H 1.03063 0.56165 0.26881
 H231 H 0.96912 0.65804 0.34187
 H232 H 1.11464 0.66954 0.28502
 H233 H 1.11432 0.71601 0.33222
 H234 H 1.02933 0.73024 0.43974
 H235 H 0.96441 0.73088 0.43848
 H236 H 0.87980 0.66604 0.28666
 H237 H 1.02863 0.65533 0.34499
 H238 H 0.87947 0.71285 0.33410
 C239 C 0.98104 0.27474 0.58204
 C240 C 1.01484 0.27472 0.58245
 C241 C 1.02420 0.28775 0.61335
 N242 N 0.99732 0.29581 0.63178
 C243 C 0.97090 0.28780 0.61270
 C244 C 1.05690 0.28907 0.62539
 C245 C 1.06588 0.30784 0.65413
 C246 C 1.09505 0.30389 0.67181
 C247 C 1.09498 0.32779 0.69684
 C248 C 1.06592 0.34598 0.69351
 N249 N 1.04825 0.33349 0.66749
 C250 C 1.05655 0.37386 0.71371
 C251 C 1.02333 0.38502 0.71510
 C252 C 1.01313 0.41639 0.72649
 C253 C 0.97939 0.41616 0.72621
 C254 C 0.97001 0.38492 0.71413
 N255 N 0.99686 0.36589 0.70718
 C256 C 0.93710 0.37354 0.71207
 C257 C 0.92786 0.34575 0.69213
 C258 C 0.89770 0.32939 0.69363
 C259 C 0.89789 0.30556 0.66846
 C260 C 0.92815 0.30813 0.65237
 N261 N 0.94619 0.33273 0.66690
 C262 C 0.93783 0.28943 0.62381
 H263 H 0.96569 0.26581 0.56165
 H264 H 1.03070 0.26574 0.56245
 H265 H 0.96823 0.34261 0.65780
 H266 H 1.11430 0.28555 0.66728
 H267 H 1.11411 0.33118 0.71550
 H268 H 1.02841 0.43733 0.73421
 H269 H 0.96353 0.43671 0.73387
 H270 H 0.87793 0.28848 0.66254
 H271 H 1.02694 0.34402 0.65736
 H272 H 0.87757 0.33430 0.71085
 C273 C 0.41543 -0.01564 0.27506
 C274 C 0.41513 0.01881 0.27547
 C275 C 0.38425 0.02831 0.28692
 N276 N 0.36553 0.00084 0.29342
 C277 C 0.38450 -0.02613 0.28580
 C278 C 0.37296 0.06188 0.28871
 C279 C 0.34532 0.07126 0.30813
 C280 C 0.32914 0.10196 0.30627
 C281 C 0.30529 0.10169 0.33100
 C282 C 0.30769 0.07084 0.34722
 N283 N 0.33219 0.05255 0.33317
 C284 C 0.28890 0.06088 0.37545
 C285 C 0.28759 0.02715 0.38671
 C286 C 0.27463 0.01681 0.41731
 C287 C 0.27496 -0.01770 0.41704
 C288 C 0.28809 -0.02728 0.38627
 N289 N 0.29590 0.00016 0.36779
 C290 C 0.28960 -0.06070 0.37430
 C291 C 0.30845 -0.06996 0.34587
 C292 C 0.30499 -0.09984 0.32825
 C293 C 0.32867 -0.09969 0.30341
 C294 C 0.34625 -0.06988 0.30682
 N295 N 0.33363 -0.05186 0.33271
 C296 C 0.37362 -0.06008 0.28678
 H297 H 0.43611 -0.03120 0.26768
 H298 H 0.43538 0.03505 0.26825
 H299 H 0.34363 -0.02997 0.34287
 H300 H 0.33417 0.12250 0.28909
 H301 H 0.28832 0.12197 0.33657
 H302 H 0.26553 0.03248 0.43757
 H303 H 0.26610 -0.03390 0.43702
 H304 H 0.33230 -0.11923 0.28481
 H305 H 0.34186 0.03013 0.34249
 H306 H 0.28710 -0.11958 0.33265
 C307 C 0.72333 -0.01572 0.58165
 C308 C 0.72334 0.01880 0.58111
 C309 C 0.71003 0.02921 0.61153
 N310 N 0.70184 0.00226 0.63058
 C311 C 0.71006 -0.02523 0.61238
 C312 C 0.70836 0.06300 0.62251
 C313 C 0.68934 0.07302 0.65056
 C314 C 0.69143 0.10401 0.66650
 C315 C 0.66758 0.10424 0.69122
 C316 C 0.65170 0.07337 0.68964
 N317 N 0.66500 0.05459 0.66475
 C318 C 0.62429 0.06382 0.70932
 C319 C 0.61340 0.03012 0.71159
 C320 C 0.58280 0.02038 0.72362
 C321 C 0.58289 -0.01408 0.72439
 C322 C 0.61378 -0.02433 0.71331
 N323 N 0.63232 0.00280 0.70512
 C324 C 0.62499 -0.05819 0.71239
 C325 C 0.65247 -0.06774 0.69240
 C326 C 0.67043 -0.09730 0.69607
 C327 C 0.69399 -0.09741 0.67115
 C328 C 0.69011 -0.06774 0.65322
 N329 N 0.66479 -0.04979 0.66629
 C330 C 0.70873 -0.05860 0.62460
 H331 H 0.73250 -0.03195 0.56187
 H332 H 0.73247 0.03444 0.56082
 H333 H 0.65447 -0.02814 0.65592
 H334 H 0.70823 0.12440 0.66079
 H335 H 0.66239 0.12484 0.70824
 H336 H 0.56249 0.03646 0.73098
 H337 H 0.56247 -0.02979 0.73222
 H338 H 0.71209 -0.11698 0.66689
 H339 H 0.65560 0.03197 0.65570
 H340 H 0.66710 -0.11672 0.71489
 C341 C 0.27606 0.97989 0.58233
 C342 C 0.27553 1.01435 0.58214
 C343 C 0.28717 1.02477 0.61329
 N344 N 0.29547 0.99775 0.63224
 C345 C 0.28849 0.97033 0.61334
 C346 C 0.28831 1.05869 0.62449
 C347 C 0.30871 1.06846 0.65178
 C348 C 0.30565 1.09811 0.67003
 C349 C 0.33064 1.09825 0.69343
 C350 C 0.34802 1.06852 0.68914
 N351 N 0.33457 1.05053 0.66372
 C352 C 0.37644 1.05932 0.70748
 C353 C 0.38848 1.02598 0.70839
 C354 C 0.41900 1.01653 0.72091
 C355 C 0.41957 0.98202 0.72093
 C356 C 0.38937 0.97155 0.70842
 N357 N 0.37043 0.99847 0.70066
 C358 C 0.37856 0.93776 0.70727
 C359 C 0.35042 0.92769 0.68897
 C360 C 0.33475 0.89679 0.69195
 C361 C 0.30969 0.89651 0.66856
 C362 C 0.31083 0.92725 0.65205
 N363 N 0.33577 0.94600 0.66452
 C364 C 0.29068 0.93672 0.62473
 H365 H 0.26824 0.96369 0.56196
 H366 H 0.26742 1.02995 0.56140
 H367 H 0.34442 0.96851 0.65443
 H368 H 0.28718 1.11754 0.66707
 H369 H 0.33528 1.11787 0.71171
 H370 H 0.43862 1.03280 0.72959
 H371 H 0.43972 0.96642 0.72961
 H372 H 0.29274 0.87596 0.66408
 H373 H 0.34436 1.02877 0.65305
 H374 H 0.34083 0.87649 0.70905
 C375 C 0.57801 1.01522 0.28253
 C376 C 0.57845 0.98075 0.28219
 C377 C 0.60963 0.97116 0.29262
 N378 N 0.62837 0.99857 0.29922
 C379 C 0.60915 1.02560 0.29263
 C380 C 0.62126 0.93766 0.29302
 C381 C 0.64964 0.92805 0.31105
 C382 C 0.66603 0.89757 0.30785
 C383 C 0.69086 0.89759 0.33151
 C384 C 0.68882 0.92808 0.34836
 N385 N 0.66362 0.94639 0.33582
 C386 C 0.70830 0.93768 0.37608
 C387 C 0.70947 0.97122 0.38772
 C388 C 0.72130 0.98092 0.41891
 C389 C 0.72107 1.01538 0.41919
 C390 C 0.70955 1.02564 0.38793
 N391 N 0.70205 0.99856 0.36882
 C392 C 0.70836 1.05945 0.37653
 C393 C 0.68788 1.06902 0.34922
 C394 C 0.69156 1.09810 0.33021
 C395 C 0.66668 1.09814 0.30676
 C396 C 0.64840 1.06907 0.31199
 N397 N 0.66163 1.05134 0.33780
 C398 C 0.62024 1.05946 0.29315
 H399 H 0.55723 1.03089 0.27573
 H400 H 0.55820 0.96456 0.27495
 H401 H 0.65174 1.02971 0.34873
 H402 H 0.66049 0.87734 0.29052
 H403 H 0.70821 0.87737 0.33598
 H404 H 0.72934 0.96481 0.43931
 H405 H 0.72876 1.03112 0.43997
 H406 H 0.66298 1.11709 0.28755
 H407 H 0.65425 0.96854 0.34605
 H408 H 0.71061 1.11703 0.33247
 O409 O 0.81436 0.86163 0.53417
 O410 O 0.86020 0.81586 0.46911
 O411 O 0.81394 0.86094 0.46902
 O412 O 0.86028 0.81587 0.53431
 O413 O 0.82276 0.77566 0.53474
 O414 O 0.77588 0.82125 0.46938
 O415 O 0.82275 0.77557 0.46940
 O416 O 0.77618 0.82206 0.53459
 Cu417 Cu 0.84095 0.84253 0.50166
 Cu418 Cu 0.79559 0.79457 0.50214
 C419 C 0.78718 0.85013 0.54509
 C420 C 0.84964 0.78779 0.45833
 C421 C 0.78682 0.84912 0.45830
 C422 C 0.84981 0.78782 0.54534
 O423 O 0.13794 0.18337 0.46890
 O424 O 0.18291 0.13703 0.53408
 O425 O 0.13708 0.18299 0.53405
 O426 O 0.18368 0.13782 0.46898
 O427 O 0.22220 0.17703 0.46999
 O428 O 0.17474 0.22306 0.53470
 O429 O 0.22110 0.17653 0.53534
 O430 O 0.17579 0.22326 0.46944
 Cu431 Cu 0.15663 0.15636 0.50150
 Cu432 Cu 0.20231 0.20398 0.50250
 C433 C 0.14887 0.21134 0.45820
 C434 C 0.20992 0.14839 0.54551
 C435 C 0.14750 0.21104 0.54505
 C436 C 0.21106 0.14937 0.45862
 O437 O 0.18439 0.86130 0.46672
 O438 O 0.13846 0.81604 0.53220
 O439 O 0.18514 0.86063 0.53201
 O440 O 0.13759 0.81649 0.46726
 O441 O 0.17472 0.77594 0.46580
 O442 O 0.22266 0.82040 0.53131
 O443 O 0.17523 0.77510 0.53111
 O444 O 0.22211 0.82127 0.46598
 Cu445 Cu 0.15775 0.84268 0.49959
 Cu446 Cu 0.20246 0.79409 0.49845
 C447 C 0.21131 0.84943 0.45549
 C448 C 0.14859 0.78759 0.54248
 C449 C 0.21211 0.84836 0.54258
 C450 C 0.14756 0.78844 0.45582
 O451 O 0.81518 0.13807 0.46476
 O452 O 0.86035 0.18443 0.52969
 O453 O 0.81431 0.13933 0.52975
 O454 O 0.86171 0.18337 0.46465
 O455 O 0.82437 0.22369 0.46280
 O456 O 0.77625 0.17902 0.52823
 O457 O 0.82311 0.22491 0.52820
 O458 O 0.77734 0.17792 0.46297
 Cu459 Cu 0.84163 0.15733 0.49725
 Cu460 Cu 0.79648 0.20547 0.49537
 C461 C 0.78825 0.14954 0.45321
 C462 C 0.84975 0.21273 0.53985
 C463 C 0.78702 0.15128 0.53987
 C464 C 0.85164 0.21130 0.45298
 O465 O 0.47094 0.85995 0.81354
 O466 O 0.53186 0.81209 0.86215
 O467 O 0.53477 0.86025 0.81685
 O468 O 0.46870 0.81365 0.85900
 O469 O 0.47121 0.77411 0.82009
 O470 O 0.53608 0.82267 0.77604
 O471 O 0.53539 0.77442 0.82137
 O472 O 0.47211 0.82134 0.77364
 Cu473 Cu 0.50162 0.84040 0.84181
 Cu474 Cu 0.50393 0.79424 0.79373
 C475 C 0.46100 0.84889 0.78534
 C476 C 0.54354 0.78490 0.85037
 C477 C 0.54616 0.85012 0.78886
 C478 C 0.45900 0.78568 0.84724
 O479 O 0.46784 0.14072 0.18558
 O480 O 0.53361 0.18645 0.14133
 O481 O 0.53152 0.13932 0.18660
 O482 O 0.46958 0.18710 0.13981
 O483 O 0.46842 0.22576 0.17966
 O484 O 0.53234 0.17818 0.22620
 O485 O 0.53217 0.22629 0.18010
 O486 O 0.46817 0.17873 0.22606
 Cu487 Cu 0.50072 0.15958 0.15935
 Cu488 Cu 0.50035 0.20614 0.20707
 C489 C 0.45707 0.15155 0.21359
 C490 C 0.54354 0.21451 0.15274
 C491 C 0.54231 0.15014 0.21452
 C492 C 0.45839 0.21455 0.15150
 O493 O 0.53022 0.14059 0.81375
 O494 O 0.46636 0.18540 0.86110
 O495 O 0.46634 0.13942 0.81430
 O496 O 0.53022 0.18618 0.86003
 O497 O 0.52786 0.22685 0.82211
 O498 O 0.46568 0.17838 0.77470
 O499 O 0.46411 0.22474 0.82196
 O500 O 0.52973 0.18025 0.77483
 Cu501 Cu 0.49828 0.15895 0.84116
 Cu502 Cu 0.49673 0.20653 0.79442
 C503 C 0.54089 0.15256 0.78619
 C504 C 0.45459 0.21291 0.85008
 C505 C 0.45556 0.15043 0.78638
 C506 C 0.53951 0.21472 0.84921
 O507 O 0.46842 0.81445 0.13659
 O508 O 0.52989 0.86069 0.18574
 O509 O 0.53236 0.81472 0.14004
 O510 O 0.46623 0.86102 0.18281
 O511 O 0.46427 0.82240 0.22268
 O512 O 0.52914 0.77444 0.17831
 O513 O 0.52838 0.82147 0.22508
 O514 O 0.46529 0.77549 0.17605
 Cu515 Cu 0.49929 0.84159 0.15735
 Cu516 Cu 0.49655 0.79450 0.20453
 C517 C 0.45655 0.78696 0.14754
 C518 C 0.53964 0.84918 0.21382
 C519 C 0.54172 0.78653 0.15162
 C520 C 0.45440 0.85017 0.21037
 O521 O 0.86093 0.53229 0.81896
 O522 O 0.81299 0.46773 0.86314
 O523 O 0.85923 0.46693 0.81771
 O524 O 0.81428 0.53177 0.86447
 O525 O 0.77680 0.53456 0.82423
 O526 O 0.82236 0.46905 0.77698
 O527 O 0.77556 0.46872 0.82273
 O528 O 0.82372 0.53440 0.77858
 Cu529 Cu 0.84076 0.49957 0.84492
 Cu530 Cu 0.79581 0.50188 0.79655
 C531 C 0.85090 0.54418 0.79110
 C532 C 0.78590 0.45770 0.85084
 C533 C 0.84879 0.45703 0.78927
 C534 C 0.78754 0.54358 0.85288
 O535 O 0.13830 0.53501 0.18301
 O536 O 0.18542 0.47009 0.13865
 O537 O 0.13954 0.46997 0.18383
 O538 O 0.18468 0.53512 0.13757
 O539 O 0.22266 0.53668 0.17722
 O540 O 0.17686 0.47115 0.22416
 O541 O 0.22355 0.47130 0.17819
 O542 O 0.17572 0.53660 0.22319
 Cu543 Cu 0.15824 0.50255 0.15680
 Cu544 Cu 0.20351 0.50412 0.20475
 C545 C 0.14845 0.54652 0.21093
 C546 C 0.21264 0.45975 0.15051
 C547 C 0.15019 0.45956 0.21200
 C548 C 0.21165 0.54663 0.14896
 O549 O 0.86379 0.46673 0.18093
 O550 O 0.81606 0.53115 0.13629
 O551 O 0.86222 0.53206 0.18172
 O552 O 0.81746 0.46699 0.13509
 O553 O 0.77983 0.46449 0.17530
 O554 O 0.82516 0.53016 0.22238
 O555 O 0.77853 0.53042 0.17671
 O556 O 0.82638 0.46485 0.22121
 Cu557 Cu 0.84378 0.49931 0.15464
 Cu558 Cu 0.79863 0.49728 0.20294
 C559 C 0.85365 0.45506 0.20886
 C560 C 0.78900 0.54138 0.14860
 C561 C 0.85167 0.54208 0.21010
 C562 C 0.79070 0.45525 0.14674
 O563 O 0.18395 0.53081 0.86154
 O564 O 0.13638 0.46590 0.81773
 O565 O 0.18301 0.46581 0.86273
 O566 O 0.13779 0.53100 0.81669
 O567 O 0.17488 0.52958 0.77604
 O568 O 0.22075 0.46405 0.82275
 O569 O 0.17361 0.46412 0.77726
 O570 O 0.22183 0.52936 0.82165
 Cu571 Cu 0.15654 0.49843 0.84366
 Cu572 Cu 0.20154 0.49660 0.79532
 C573 C 0.21116 0.54096 0.84943
 C574 C 0.14642 0.45424 0.78980
 C575 C 0.20988 0.45419 0.85112
 C576 C 0.14831 0.54129 0.78840
 C577 C 0.23606 0.39743 0.08291
 C578 C 0.27017 0.39438 0.08780
 C579 C 0.28488 0.41039 0.11546
 C580 C 0.26591 0.43048 0.13701
 C581 C 0.23204 0.43503 0.13098
 C582 C 0.21721 0.41767 0.10417
 H583 H 0.22426 0.38506 0.06183
 H584 H 0.31120 0.40834 0.11957
 H585 H 0.27800 0.44361 0.15745
 H586 H 0.19113 0.42043 0.09904
 C587 C 0.74024 0.57619 0.07647
 C588 C 0.73474 0.60966 0.08648
 C589 C 0.74590 0.62021 0.11830
 C590 C 0.76260 0.59766 0.13948
 C591 C 0.76895 0.56468 0.12863
 C592 C 0.75759 0.55411 0.09712
 H593 H 0.73160 0.56734 0.05225
 H594 H 0.74217 0.64594 0.12644
 H595 H 0.77150 0.60620 0.16369
 H596 H 0.76230 0.52871 0.08845
 C597 C 0.73658 0.42415 0.92322
 C598 C 0.73125 0.39050 0.91380
 C599 C 0.74257 0.37939 0.88221
 C600 C 0.75936 0.40158 0.86068
 C601 C 0.76557 0.43475 0.87096
 C602 C 0.75396 0.44589 0.90221
 H603 H 0.72786 0.43337 0.94729
 H604 H 0.73894 0.35349 0.87455
 H605 H 0.76848 0.39260 0.83668
 H606 H 0.75858 0.47146 0.91044
 C607 C 0.28406 0.58965 0.88371
 C608 C 0.26975 0.60567 0.91162
 C609 C 0.23568 0.60283 0.91698
 C610 C 0.21647 0.58282 0.89590
 C611 C 0.23090 0.56548 0.86881
 C612 C 0.26473 0.56979 0.86234
 H613 H 0.31034 0.59153 0.87923
 H614 H 0.22418 0.61522 0.93826
 H615 H 0.19043 0.58021 0.90137
 H616 H 0.27652 0.55667 0.84169
 C617 C 0.11346 0.28379 0.40769
 C618 C 0.08633 0.26824 0.39226
 C619 C 0.08169 0.23347 0.39625
 C620 C 0.10280 0.21481 0.41672
 C621 C 0.12919 0.23050 0.43340
 C622 C 0.13484 0.26502 0.42802
 H623 H 0.11737 0.31063 0.40495
 H624 H 0.06102 0.22100 0.38433
 H625 H 0.09794 0.18821 0.42015
 H626 H 0.15493 0.27779 0.44060
 C627 C 0.11107 0.71511 0.59132
 C628 C 0.08430 0.73103 0.60710
 C629 C 0.08054 0.76600 0.60386
 C630 C 0.10218 0.78453 0.58378
 C631 C 0.12827 0.76852 0.56684
 C632 C 0.13300 0.73374 0.57145
 H633 H 0.11436 0.68814 0.59357
 H634 H 0.06019 0.77875 0.61610
 H635 H 0.09802 0.81132 0.58091
 H636 H 0.15282 0.72071 0.55864
 C637 C 0.88582 0.71587 0.40761
 C638 C 0.91307 0.73163 0.39252
 C639 C 0.91758 0.76637 0.39682
 C640 C 0.89622 0.78479 0.41727
 C641 C 0.86969 0.76889 0.43361
 C642 C 0.86419 0.73440 0.42791
 H643 H 0.88201 0.68905 0.40462
 H644 H 0.93836 0.77899 0.38519
 H645 H 0.90097 0.81137 0.42094
 H646 H 0.84399 0.72146 0.44021
 C647 C 0.91651 0.23447 0.60236
 C648 C 0.91272 0.26944 0.60537
 C649 C 0.88623 0.28535 0.58914
 C650 C 0.86469 0.26669 0.56894
 C651 C 0.86953 0.23191 0.56450
 C652 C 0.89525 0.21591 0.58199
 H653 H 0.93664 0.22174 0.61496
 H654 H 0.88295 0.31233 0.59122
 H655 H 0.84511 0.27969 0.55573
 H656 H 0.89946 0.18912 0.57930
 C657 C 0.40632 0.11507 0.28498
 C658 C 0.39089 0.08785 0.26890
 C659 C 0.39494 0.08366 0.23407
 C660 C 0.41556 0.10514 0.21591
 C661 C 0.43227 0.13151 0.23216
 C662 C 0.42674 0.13685 0.26671
 H663 H 0.40356 0.11862 0.31186
 H664 H 0.38308 0.06291 0.22121
 H665 H 0.41908 0.10056 0.18928
 H666 H 0.43931 0.15694 0.27989
 C667 C 0.59036 0.11670 0.71355
 C668 C 0.60648 0.08970 0.72936
 C669 C 0.60345 0.08567 0.76430
 C670 C 0.58312 0.10702 0.78289
 C671 C 0.56565 0.13311 0.76697
 C672 C 0.57019 0.13838 0.73227
 H673 H 0.59238 0.12016 0.68659
 H674 H 0.61590 0.06512 0.77696
 H675 H 0.58038 0.10251 0.80963
 H676 H 0.55698 0.15825 0.71936
 C677 C 0.41264 0.88512 0.71216
 C678 C 0.39674 0.91243 0.72762
 C679 C 0.39991 0.91697 0.76247
 C680 C 0.42001 0.89564 0.78133
 C681 C 0.43706 0.86904 0.76578
 C682 C 0.43256 0.86346 0.73113
 H683 H 0.41046 0.88125 0.68527
 H684 H 0.38760 0.93777 0.77487
 H685 H 0.42275 0.90041 0.80802
 H686 H 0.44542 0.84319 0.71848
 C687 C 0.58830 0.88428 0.28738
 C688 C 0.60348 0.91231 0.27239
 C689 C 0.59981 0.91766 0.23771
 C690 C 0.57997 0.89637 0.21857
 C691 C 0.56354 0.86909 0.23367
 C692 C 0.56853 0.86273 0.26813
 H693 H 0.59083 0.87982 0.31415
 H694 H 0.61152 0.93903 0.22567
 H695 H 0.57688 0.90180 0.19205
 H696 H 0.55616 0.84192 0.28044
 C697 C 0.40175 0.23754 0.92437
 C698 C 0.39239 0.27073 0.91624
 C699 C 0.40083 0.28336 0.88419
 C700 C 0.41999 0.26414 0.86198
 C701 C 0.43079 0.23178 0.87116
 C702 C 0.42067 0.21841 0.90221
 H703 H 0.39464 0.22640 0.94820
 H704 H 0.39427 0.30881 0.87703
 H705 H 0.42736 0.27513 0.83818
 H706 H 0.42813 0.19338 0.90992
 C707 C 0.61969 0.74373 0.88641
 C708 C 0.60711 0.73038 0.91661
 C709 C 0.57316 0.73296 0.92323
 C710 C 0.55257 0.75044 0.90124
 C711 C 0.56532 0.76462 0.87168
 C712 C 0.59881 0.76055 0.86389
 H713 H 0.64575 0.74190 0.88076
 H714 H 0.56283 0.72235 0.94605
 H715 H 0.52668 0.75319 0.90741
 H716 H 0.60893 0.77141 0.84110
 C717 C 0.40448 0.76184 0.07288
 C718 C 0.39494 0.72873 0.08116
 C719 C 0.40342 0.71616 0.11321
 C720 C 0.42253 0.73542 0.13536
 C721 C 0.43334 0.76776 0.12612
 C722 C 0.42343 0.78099 0.09496
 H723 H 0.39738 0.77297 0.04907
 H724 H 0.39678 0.69076 0.12048
 H725 H 0.42974 0.72453 0.15923
 H726 H 0.43091 0.80601 0.08722
 C727 C 0.61594 0.23612 0.09717
 C728 C 0.60876 0.26961 0.08851
 C729 C 0.58134 0.28553 0.10308
 C730 C 0.56120 0.26807 0.12574
 C731 C 0.56750 0.23411 0.13307
 C732 C 0.59511 0.21830 0.11883
 H733 H 0.63683 0.22339 0.08590
 H734 H 0.57510 0.31115 0.09623
 H735 H 0.53969 0.28050 0.13611
 H736 H 0.60021 0.19204 0.12409
 C737 C 0.28045 0.11451 0.59833
 C738 C 0.26796 0.08290 0.60832
 C739 C 0.23497 0.07514 0.60045
 C740 C 0.21581 0.09713 0.58137
 C741 C 0.22896 0.12767 0.56965
 C742 C 0.26119 0.13657 0.57907
 H743 H 0.30576 0.12135 0.60364
 H744 H 0.22403 0.05166 0.60874
 H745 H 0.19090 0.08968 0.57500
 H746 H 0.27202 0.15996 0.57043
 C747 C 0.76201 0.07559 0.40002
 C748 C 0.72907 0.08366 0.39216
 C749 C 0.71707 0.11565 0.40146
 C750 C 0.73673 0.13783 0.42009
 C751 C 0.76889 0.12866 0.42954
 C752 C 0.78157 0.09770 0.41847
 H753 H 0.77262 0.05181 0.39217
 H754 H 0.69183 0.12276 0.39609
 H755 H 0.72626 0.16155 0.42824
 H756 H 0.80640 0.09003 0.42488
 C757 C 0.76347 0.92016 0.60470
 C758 C 0.72929 0.91547 0.60758
 C759 C 0.71470 0.88718 0.59258
 C760 C 0.73380 0.86481 0.57355
 C761 C 0.76774 0.87058 0.56907
 C762 C 0.78247 0.89808 0.58546
 H763 H 0.77522 0.94164 0.61642
 H764 H 0.68836 0.88314 0.59461
 H765 H 0.72177 0.84389 0.56115
 H766 H 0.80858 0.90305 0.58270
 C767 C 0.28363 0.88541 0.40693
 C768 C 0.26903 0.91347 0.39147
 C769 C 0.23487 0.91829 0.39441
 C770 C 0.21591 0.89665 0.41422
 C771 C 0.23067 0.86945 0.43109
 C772 C 0.26456 0.86345 0.42649
 H773 H 0.30996 0.88128 0.40490
 H774 H 0.22311 0.93962 0.38238
 H775 H 0.18982 0.90175 0.41704
 H776 H 0.27660 0.84271 0.43923
 C777 C 0.11128 0.40020 0.71980
 C778 C 0.08057 0.39069 0.73350
 C779 C 0.07362 0.39956 0.76709
 C780 C 0.09564 0.41900 0.78567
 C781 C 0.12537 0.43008 0.77132
 C782 C 0.13336 0.41980 0.73847
 H783 H 0.11747 0.39414 0.69397
 H784 H 0.05082 0.39168 0.77896
 H785 H 0.08890 0.42606 0.81109
 H786 H 0.15611 0.42793 0.72672
 C787 C 0.07516 0.60008 0.23479
 C788 C 0.08236 0.60907 0.26827
 C789 C 0.11342 0.60015 0.28148
 C790 C 0.13559 0.58089 0.26247
 C791 C 0.12736 0.57046 0.22974
 C792 C 0.09728 0.58105 0.21586
 H793 H 0.05212 0.60759 0.22323
 H794 H 0.11984 0.60640 0.30718
 H795 H 0.15862 0.57315 0.27385
 H796 H 0.09033 0.57388 0.19055
 C797 C 0.92688 0.40156 0.23321
 C798 C 0.91908 0.39200 0.26646
 C799 C 0.88777 0.40064 0.27924
 C800 C 0.86589 0.42008 0.26012
 C801 C 0.87466 0.43104 0.22766
 C802 C 0.90505 0.42082 0.21416
 H803 H 0.95017 0.39432 0.22195
 H804 H 0.88088 0.39402 0.30475
 H805 H 0.84261 0.42752 0.27122
 H806 H 0.91242 0.42843 0.18908
 C807 C 0.92361 0.59910 0.76816
 C808 C 0.91647 0.60827 0.73468
 C809 C 0.88571 0.59879 0.72117
 C810 C 0.86375 0.57902 0.73990
 C811 C 0.87191 0.56847 0.77263
 C812 C 0.90171 0.57945 0.78680
 H813 H 0.94646 0.60690 0.77990
 H814 H 0.87938 0.60502 0.69543
 H815 H 0.84095 0.57097 0.72827
 H816 H 0.90859 0.57217 0.81211
 C817 C 0.74603 0.57875 0.92959
 C818 C 0.73372 0.61006 0.91836
 C819 C 0.73807 0.61842 0.88403
 C820 C 0.75476 0.59652 0.86213
 C821 C 0.76817 0.56636 0.87433
 C822 C 0.76352 0.55765 0.90811
 H823 H 0.74196 0.57028 0.95518
 H824 H 0.72973 0.64243 0.87433
 H825 H 0.75824 0.60366 0.83605
 H826 H 0.77314 0.53414 0.91785
 C827 C 0.23603 0.40055 0.92483
 C828 C 0.26880 0.39221 0.91649
 C829 C 0.28069 0.40133 0.88439
 C830 C 0.26112 0.42031 0.86238
 C831 C 0.22915 0.43025 0.87184
 C832 C 0.21656 0.41931 0.90290
 H833 H 0.22551 0.39285 0.94871
 H834 H 0.30579 0.39555 0.87706
 H835 H 0.27150 0.42832 0.83857
 H836 H 0.19186 0.42607 0.91079
 C837 C 0.28250 0.59905 0.11488
 C838 C 0.27037 0.60828 0.08293
 C839 C 0.23745 0.60024 0.07503
 C840 C 0.21805 0.58162 0.09721
 C841 C 0.23088 0.57051 0.12808
 C842 C 0.26301 0.58020 0.13713
 H843 H 0.30773 0.60460 0.12187
 H844 H 0.22674 0.60804 0.05130
 H845 H 0.19323 0.57508 0.08963
 H846 H 0.27357 0.57206 0.16079
 C847 C 0.74213 0.37979 0.11587
 C848 C 0.73577 0.38903 0.08211
 C849 C 0.74718 0.42073 0.07099
 C850 C 0.76520 0.44169 0.09213
 C851 C 0.77135 0.43236 0.12547
 C852 C 0.75928 0.40154 0.13749
 H853 H 0.73479 0.35535 0.12533
 H854 H 0.74183 0.42970 0.04583
 H855 H 0.77394 0.46563 0.08254
 H856 H 0.76406 0.39386 0.16319
 C857 C 0.88707 0.71524 0.59421
 C858 C 0.91441 0.73085 0.60917
 C859 C 0.91853 0.76576 0.60564
 C860 C 0.89678 0.78447 0.58587
 C861 C 0.87019 0.76871 0.56960
 C862 C 0.86503 0.73405 0.57467
 H863 H 0.88347 0.68833 0.59671
 H864 H 0.93929 0.77831 0.61730
 H865 H 0.90126 0.81116 0.58267
 H866 H 0.84480 0.72121 0.56240
 C867 C 0.92519 0.23497 0.39959
 C868 C 0.91789 0.26836 0.39018
 C869 C 0.88668 0.28150 0.39875
 C870 C 0.86449 0.26258 0.41810
 C871 C 0.87282 0.22998 0.42897
 C872 C 0.90305 0.21612 0.41871
 H873 H 0.94835 0.22344 0.39237
 H874 H 0.88016 0.30712 0.39217
 H875 H 0.84134 0.27395 0.42556
 H876 H 0.91009 0.19091 0.42621
 C877 C 0.11007 0.28392 0.59329
 C878 C 0.08239 0.26855 0.60792
 C879 C 0.07800 0.23369 0.60433
 C880 C 0.09989 0.21479 0.58488
 C881 C 0.12688 0.23032 0.56898
 C882 C 0.13224 0.26493 0.57406
 H883 H 0.11389 0.31079 0.59584
 H884 H 0.05696 0.22132 0.61575
 H885 H 0.09522 0.18815 0.58164
 H886 H 0.15277 0.27760 0.56206
 C887 C 0.07419 0.76488 0.40233
 C888 C 0.08158 0.73155 0.39281
 C889 C 0.11268 0.71833 0.40157
 C890 C 0.13476 0.73717 0.42105
 C891 C 0.12641 0.76976 0.43188
 C892 C 0.09623 0.78365 0.42157
 H893 H 0.05110 0.77647 0.39500
 H894 H 0.11925 0.69274 0.39495
 H895 H 0.15786 0.72577 0.42856
 H896 H 0.08916 0.80884 0.42908
 C897 C 0.59957 0.92460 0.76584
 C898 C 0.60855 0.91731 0.73236
 C899 C 0.59956 0.88577 0.71894
 C900 C 0.58041 0.86322 0.73773
 C901 C 0.57006 0.87152 0.77047
 C902 C 0.58060 0.90208 0.78457
 H903 H 0.60700 0.94805 0.77751
 H904 H 0.60569 0.87930 0.69320
 H905 H 0.57268 0.83985 0.72614
 H906 H 0.57341 0.90912 0.80987
 C907 C 0.39933 0.92332 0.23335
 C908 C 0.39033 0.91569 0.26677
 C909 C 0.39984 0.88426 0.28012
 C910 C 0.41959 0.86223 0.26136
 C911 C 0.43004 0.87099 0.22876
 C912 C 0.41893 0.90136 0.21469
 H913 H 0.39151 0.94668 0.22173
 H914 H 0.39369 0.87753 0.30580
 H915 H 0.42773 0.83896 0.27290
 H916 H 0.42611 0.90869 0.18946
 C917 C 0.59510 0.11561 0.28559
 C918 C 0.60367 0.08361 0.27292
 C919 C 0.59447 0.07557 0.23972
 C920 C 0.57575 0.09781 0.22053
 C921 C 0.56559 0.12887 0.23384
 C922 C 0.57606 0.13791 0.26632
 H923 H 0.60158 0.12270 0.31106
 H924 H 0.60167 0.05179 0.22855
 H925 H 0.56855 0.09018 0.19543
 H926 H 0.56867 0.16171 0.27726
 C927 C 0.40791 0.11351 0.71319
 C928 C 0.39352 0.08511 0.72824
 C929 C 0.39716 0.08010 0.76301
 C930 C 0.41641 0.10203 0.78211
 C931 C 0.43206 0.12971 0.76689
 C932 C 0.42694 0.13574 0.73239
 H933 H 0.40533 0.11779 0.68639
 H934 H 0.38596 0.05849 0.77513
 H935 H 0.41967 0.09686 0.80866
 H936 H 0.43873 0.15682 0.71996
 C937 C 0.61712 0.76628 0.09995
 C938 C 0.61019 0.73324 0.08965
 C939 C 0.58200 0.71695 0.10218
 C940 C 0.56067 0.73373 0.12416
 C941 C 0.56669 0.76736 0.13292
 C942 C 0.59516 0.78346 0.12092
 H943 H 0.63875 0.77920 0.09049
 H944 H 0.57615 0.69156 0.09426
 H945 H 0.53858 0.72109 0.13287
 H946 H 0.60009 0.80947 0.12739
 C947 C 0.40891 0.28710 0.11559
 C948 C 0.39406 0.27168 0.08767
 C949 C 0.39821 0.23699 0.08265
 C950 C 0.41826 0.21829 0.10414
 C951 C 0.43429 0.23383 0.13134
 C952 C 0.42879 0.26826 0.13739
 H953 H 0.40601 0.31387 0.11980
 H954 H 0.38674 0.22464 0.06137
 H955 H 0.42178 0.19175 0.09899
 H956 H 0.44090 0.28089 0.15812
 C957 C 0.57734 0.28561 0.89896
 C958 C 0.60468 0.26955 0.91352
 C959 C 0.61162 0.23599 0.90504
 C960 C 0.59072 0.21826 0.88347
 C961 C 0.56325 0.23423 0.86915
 C962 C 0.55709 0.26822 0.87642
 H963 H 0.57139 0.31136 0.90556
 H964 H 0.63252 0.22319 0.91618
 H965 H 0.59575 0.19200 0.87823
 H966 H 0.53573 0.28079 0.86595
 C967 C 0.40984 0.71246 0.88230
 C968 C 0.39410 0.72782 0.90978
 C969 C 0.39716 0.76266 0.91440
 C970 C 0.41712 0.78163 0.89304
 C971 C 0.43431 0.76616 0.86647
 C972 C 0.42977 0.73154 0.86070
 H973 H 0.40774 0.68556 0.87843
 H974 H 0.38499 0.77493 0.93536
 H975 H 0.41989 0.80829 0.89799
 H976 H 0.44276 0.71896 0.84047
 C977 C 0.76302 0.91738 0.39668
 C978 C 0.72895 0.91213 0.39350
 C979 C 0.71449 0.88409 0.40917
 C980 C 0.73361 0.86250 0.42903
 C981 C 0.76741 0.86887 0.43375
 C982 C 0.78203 0.89609 0.41676
 H983 H 0.77465 0.93876 0.38458
 H984 H 0.68822 0.87970 0.40707
 H985 H 0.72168 0.84176 0.44188
 H986 H 0.80804 0.90149 0.41968
 C987 C 0.28484 0.88346 0.59099
 C988 C 0.27019 0.91090 0.60751
 C989 C 0.23596 0.91548 0.60522
 C990 C 0.21695 0.89426 0.58514
 C991 C 0.23171 0.86773 0.56724
 C992 C 0.26570 0.86190 0.57112
 H993 H 0.31124 0.87959 0.59240
 H994 H 0.22419 0.93638 0.61798
 H995 H 0.19078 0.89921 0.58290
 H996 H 0.27773 0.84169 0.55756
 C997 C 0.28337 0.11372 0.40976
 C998 C 0.26855 0.08629 0.39345
 C999 C 0.23436 0.08167 0.39622
 C1000 C 0.21553 0.10295 0.41649
 C1001 C 0.23046 0.12958 0.43407
 C1002 C 0.26443 0.13532 0.42981
 H1003 H 0.30973 0.11765 0.40791
 H1004 H 0.22247 0.06079 0.38358
 H1005 H 0.18938 0.09805 0.41904
 H1006 H 0.27660 0.15561 0.44310
 C1007 C 0.71410 0.11569 0.58785
 C1008 C 0.72880 0.08843 0.60461
 C1009 C 0.76305 0.08402 0.60252
 C1010 C 0.78210 0.10532 0.58246
 C1011 C 0.76732 0.13175 0.56440
 C1012 C 0.73325 0.13732 0.56799
 H1013 H 0.68768 0.11946 0.58920
 H1014 H 0.77486 0.06330 0.61552
 H1015 H 0.80832 0.10056 0.58042
 H1016 H 0.72121 0.15743 0.55430
 C1017 C 0.91876 0.60415 0.23252
 C1018 C 0.91397 0.60802 0.26728
 C1019 C 0.88678 0.59248 0.28270
 C1020 C 0.86552 0.57215 0.26384
 C1021 C 0.87130 0.56687 0.22933
 C1022 C 0.89774 0.58368 0.21376
 H1023 H 0.93950 0.61612 0.22016
 H1024 H 0.88276 0.59512 0.30953
 H1025 H 0.84538 0.55949 0.27654
 H1026 H 0.90272 0.58034 0.18718
 C1027 C 0.88503 0.40761 0.71651
 C1028 C 0.91167 0.39145 0.73224
 C1029 C 0.91559 0.39450 0.76718
 C1030 C 0.89434 0.41484 0.78586
 C1031 C 0.86850 0.43230 0.77003
 C1032 C 0.86350 0.42779 0.73529
 H1033 H 0.88168 0.40560 0.68955
 H1034 H 0.93589 0.38204 0.77978
 H1035 H 0.89869 0.41758 0.81261
 H1036 H 0.84385 0.44097 0.72241
 C1037 C 0.08152 0.60409 0.76734
 C1038 C 0.08531 0.60753 0.73242
 C1039 C 0.11187 0.59154 0.71634
 C1040 C 0.13345 0.57111 0.73477
 C1041 C 0.12857 0.56622 0.76948
 C1042 C 0.10281 0.58352 0.78567
 H1043 H 0.06128 0.61643 0.78020
 H1044 H 0.11512 0.59387 0.68938
 H1045 H 0.15305 0.55805 0.72163
 H1046 H 0.09857 0.58050 0.81242
 C1047 C 0.11427 0.40883 0.28411
 C1048 C 0.08739 0.39323 0.26827
 C1049 C 0.08316 0.39713 0.23347
 C1050 C 0.10437 0.41772 0.21503
 C1051 C 0.13047 0.43463 0.23099
 C1052 C 0.13575 0.42931 0.26557
 H1053 H 0.11786 0.40614 0.31099
 H1054 H 0.06267 0.38509 0.22079
 H1055 H 0.09981 0.42108 0.18839
 H1056 H 0.15562 0.44205 0.27854
   
