data_POSCAR
  _audit_creation_date              2014-09-24
  _audit_creation_method            'ToBaCCo'
  _symmetry_space_group_name_H-M    'P1'
  _symmetry_Int_Tables_number       1
  _symmetry_cell_setting            triclinic
  loop_
  _symmetry_equiv_pos_as_xyz
 x,y,z
_cell_length_a 25.1583
_cell_length_b 29.7481
_cell_length_c 18.2042
_cell_angle_alpha 89.909200
_cell_angle_beta 90.247100
_cell_angle_gamma 90.158700
loop_
  _atom_site_label
  _atom_site_type_symbol
  _atom_site_fract_x
  _atom_site_fract_y
  _atom_site_fract_z
C1 C 0.16744 0.25333 0.08849
 C2 C 0.17750 0.21285 0.12587
 C3 C 0.20885 0.21411 0.19011
 C4 C 0.23316 0.25435 0.21468
 C5 C 0.22100 0.29446 0.17641
 C6 C 0.18642 0.29436 0.11572
 C7 C 0.26947 0.25427 0.28098
 C8 C 0.28164 0.29426 0.31953
 C9 C 0.31585 0.29397 0.38062
 C10 C 0.33437 0.25285 0.40792
 C11 C 0.32435 0.21250 0.37023
 C12 C 0.29350 0.21397 0.30555
 H13 H 0.14112 0.25352 0.04123
 H14 H 0.21363 0.18343 0.22109
 H15 H 0.23757 0.32634 0.19311
 H16 H 0.26532 0.32618 0.30283
 H17 H 0.36035 0.25289 0.45554
 H18 H 0.28874 0.18338 0.27441
 C19 C 0.83435 0.24675 0.09424
 C20 C 0.81581 0.28775 0.12140
 C21 C 0.78056 0.28782 0.18089
 C22 C 0.76688 0.24761 0.21810
 C23 C 0.78965 0.20710 0.19247
 C24 C 0.82190 0.20629 0.12968
 C25 C 0.73075 0.24799 0.28431
 C26 C 0.70663 0.20796 0.31025
 C27 C 0.67543 0.20742 0.37441
 C28 C 0.66560 0.24829 0.41044
 C29 C 0.68465 0.28895 0.38209
 C30 C 0.71888 0.28841 0.32158
 H31 H 0.86170 0.24662 0.04843
 H32 H 0.76463 0.31985 0.19724
 H33 H 0.78345 0.17581 0.22123
 H34 H 0.71142 0.17690 0.28059
 H35 H 0.63946 0.24908 0.45755
 H36 H 0.73550 0.32016 0.30456
 C37 C 0.66731 0.75037 0.59256
 C38 C 0.68748 0.70979 0.61958
 C39 C 0.72267 0.71045 0.67939
 C40 C 0.73415 0.75068 0.71769
 C41 C 0.71037 0.79081 0.69186
 C42 C 0.67826 0.79104 0.62839
 C43 C 0.76904 0.75032 0.78533
 C44 C 0.79398 0.78998 0.81127
 C45 C 0.82523 0.78992 0.87590
 C46 C 0.83385 0.74885 0.91240
 C47 C 0.81324 0.70861 0.88446
 C48 C 0.77892 0.70990 0.82383
 H49 H 0.63995 0.74992 0.54645
 H50 H 0.74027 0.67889 0.69545
 H51 H 0.71576 0.82204 0.72113
 H52 H 0.78975 0.82105 0.78109
 H53 H 0.86014 0.74748 0.95963
 H54 H 0.76072 0.67862 0.80732
 C55 C 0.33192 0.74951 0.58930
 C56 C 0.31140 0.79022 0.61497
 C57 C 0.27603 0.78984 0.67428
 C58 C 0.26441 0.74972 0.71285
 C59 C 0.28869 0.70959 0.68857
 C60 C 0.32117 0.70907 0.62595
 C61 C 0.22898 0.74999 0.77945
 C62 C 0.20381 0.71021 0.80427
 C63 C 0.17292 0.70969 0.86876
 C64 C 0.16479 0.75038 0.90625
 C65 C 0.18537 0.79087 0.87921
 C66 C 0.21915 0.79018 0.81830
 H67 H 0.35945 0.74972 0.54370
 H68 H 0.25837 0.82142 0.68979
 H69 H 0.28341 0.67855 0.71852
 H70 H 0.20776 0.67945 0.77340
 H71 H 0.13893 0.75128 0.95364
 H72 H 0.23720 0.82157 0.80205
 O73 O 1.05843 -0.05394 0.03978
 O74 O 0.95269 0.02613 0.08648
 O75 O 0.95619 -0.05671 0.03562
 O76 O 1.05554 0.02969 0.08491
 O77 O 1.05373 0.05457 -0.02954
 O78 O 0.95441 -0.03121 -0.07842
 O79 O 0.95216 0.05123 -0.02783
 O80 O 1.05788 -0.02917 -0.07472
 Cu81 Cu 1.00570 -0.01619 0.07318
 Cu82 Cu 1.00451 0.01363 -0.06423
 C83 C 1.07530 -0.05589 -0.02569
 C84 C 0.93567 0.05325 0.03793
 C85 C 0.93926 -0.05918 -0.03014
 C86 C 1.07026 0.05767 0.03619
 O87 O 0.55546 0.44499 0.53884
 O88 O 0.45513 0.52965 0.58692
 O89 O 0.45269 0.44653 0.53886
 O90 O 0.55823 0.52906 0.58127
 O91 O 0.55621 0.55283 0.46622
 O92 O 0.45087 0.47082 0.42414
 O93 O 0.45419 0.55374 0.47204
 O94 O 0.55459 0.46883 0.42384
 Cu95 Cu 0.50551 0.48519 0.57301
 Cu96 Cu 0.50377 0.51372 0.43492
 C97 C 0.57156 0.44206 0.47308
 C98 C 0.43850 0.55675 0.53810
 C99 C 0.43439 0.44428 0.47379
 C100 C 0.57424 0.55564 0.53123
 O101 O -0.05591 0.55123 0.03537
 O102 O 0.05128 0.47087 0.07493
 O103 O 0.04565 0.55412 0.02702
 O104 O -0.05249 0.46734 0.07731
 O105 O -0.05441 0.44388 -0.03777
 O106 O 0.04486 0.52974 -0.08758
 O107 O 0.04831 0.44657 -0.03962
 O108 O -0.05825 0.52810 -0.07992
 Cu109 Cu -0.00246 0.51296 0.06534
 Cu110 Cu -0.00508 0.48473 -0.07276
 C111 C -0.07433 0.55417 -0.02942
 C112 C 0.06736 0.44450 0.02504
 C113 C 0.06095 0.55734 -0.03920
 C114 C -0.06979 0.44058 0.02831
 O115 O 0.44472 1.05409 0.52882
 O116 O 0.54426 0.96974 0.58118
 O117 O 0.54598 1.05261 0.53068
 O118 O 0.44084 0.97035 0.57354
 O119 O 0.44326 0.94570 0.45918
 O120 O 0.54866 1.02758 0.41650
 O121 O 0.54578 0.94485 0.46693
 O122 O 0.44577 1.02968 0.41421
 Cu123 Cu 0.49380 1.01387 0.56521
 Cu124 Cu 0.49606 0.98443 0.42777
 C125 C 0.42967 1.05728 0.46244
 C126 C 0.56128 0.94241 0.53335
 C127 C 0.56388 1.05503 0.46563
 C128 C 0.42488 0.94347 0.52388
 N129 N 1.12837 0.17071 0.03558
 C130 C 1.15409 0.17242 0.10135
 N131 N 1.15486 0.13463 0.14363
 N132 N 1.12961 0.09740 0.12217
 C133 C 1.10353 0.09619 0.05679
 N134 N 1.10377 0.13339 0.01369
 N135 N 0.64392 0.66404 0.52369
 C136 C 0.66609 0.66665 0.59171
 N137 N 0.66136 0.63079 0.63760
 N138 N 0.63421 0.59434 0.61716
 C139 C 0.61113 0.59223 0.54975
 N140 N 0.61717 0.62746 0.50301
 N141 N -0.14067 0.33250 0.02451
 C142 C -0.16157 0.33033 0.09311
 N143 N -0.15491 0.36608 0.13866
 N144 N -0.12735 0.40205 0.11714
 C145 C -0.10572 0.40377 0.04901
 N146 N -0.11352 0.36861 0.00276
 N147 N 0.33739 0.86942 0.63108
 C148 C 0.33262 0.83318 0.58614
 N149 N 0.35478 0.83522 0.51830
 N150 N 0.38160 0.87157 0.49692
 C151 C 0.38773 0.90717 0.54276
 N152 N 0.36461 0.90565 0.60994
 N153 N -0.14450 0.66187 -0.01982
 C154 C -0.16627 0.66511 -0.08801
 N155 N -0.16138 0.62971 -0.13460
 N156 N -0.13437 0.59317 -0.11471
 C157 C -0.11157 0.59050 -0.04717
 N158 N -0.11788 0.62520 0.00030
 N159 N 0.34703 1.13438 0.35257
 C160 C 0.34722 1.17200 0.39511
 N161 N 0.37181 1.17006 0.46165
 N162 N 0.39588 1.13271 0.48411
 C163 C 0.39675 1.09570 0.44083
 N164 N 0.37182 1.09711 0.37460
 N165 N 1.15951 -0.12997 -0.13664
 C166 C 1.16567 -0.16596 -0.09132
 N167 N 1.14582 -0.16359 -0.02218
 N168 N 1.11978 -0.12720 0.00012
 C169 C 1.11216 -0.09190 -0.04602
 N170 N 1.13307 -0.09370 -0.11455
 N171 N 0.65634 0.36735 0.36374
 C172 C 0.66313 0.33190 0.41001
 N173 N 0.64273 0.33453 0.47883
 N174 N 0.61581 0.37071 0.50004
 C175 C 0.60777 0.40551 0.45304
 N176 N 0.62904 0.40341 0.38474
 N177 N 0.87621 -0.17046 -0.03260
 C178 C 0.85026 -0.17061 -0.09832
 N179 N 0.85111 -0.13236 -0.13941
 N180 N 0.87811 -0.09625 -0.11684
 C181 C 0.90447 -0.09663 -0.05159
 N182 N 0.90260 -0.13425 -0.00962
 N183 N 0.36026 0.33780 0.47832
 C184 C 0.33822 0.33644 0.41005
 N185 N 0.34461 0.37257 0.36517
 N186 N 0.37319 0.40797 0.38681
 C187 C 0.39623 0.40875 0.45437
 N188 N 0.38851 0.37332 0.50018
 N189 N 0.14690 0.63213 -0.14831
 C190 C 0.14811 0.66995 -0.10631
 N191 N 0.12294 0.66902 -0.04035
 N192 N 0.09708 0.63246 -0.01790
 C193 C 0.09493 0.59525 -0.06068
 N194 N 0.12040 0.59567 -0.12628
 N195 N 0.65172 1.12926 0.35883
 C196 C 0.65164 1.16740 0.40003
 N197 N 0.62580 1.16659 0.46549
 N198 N 0.60021 1.12989 0.48794
 C199 C 0.59913 1.09241 0.44574
 N200 N 0.62551 1.09265 0.38085
 N201 N 0.15795 0.37282 0.13205
 C202 C 0.16405 0.33692 0.08683
 N203 N 0.14165 0.33852 0.01880
 N204 N 0.11329 0.37402 -0.00246
 C205 C 0.10583 0.40919 0.04372
 N206 N 0.12927 0.40820 0.11101
 N207 N 0.64318 0.86762 0.64841
 C208 C 0.65245 0.83280 0.60201
 N209 N 0.63426 0.83573 0.53178
 N210 N 0.60708 0.87153 0.50915
 C211 C 0.59686 0.90584 0.55593
 N212 N 0.61568 0.90337 0.62588
 N213 N 0.85447 0.12896 0.15061
 C214 C 0.84622 0.16392 0.10380
 N215 N 0.86419 0.16048 0.03378
 N216 N 0.89037 0.12411 0.01186
 C217 C 0.89970 0.08969 0.05910
 N218 N 0.88099 0.09264 0.12879
 N219 N 0.35621 0.63274 0.64904
 C220 C 0.34740 0.66720 0.60147
 N221 N 0.36616 0.66369 0.53185
 N222 N 0.39339 0.62763 0.51094
 C223 C 0.40308 0.59367 0.55890
 N224 N 0.38376 0.59674 0.62826
   
