data_POSCAR
  _audit_creation_date              2014-09-24
  _audit_creation_method            'ToBaCCo'
  _symmetry_space_group_name_H-M    'P1'
  _symmetry_Int_Tables_number       1
  _symmetry_cell_setting            triclinic
  loop_
  _symmetry_equiv_pos_as_xyz
 x,y,z
_cell_length_a 35.4132
_cell_length_b 35.2142
_cell_length_c 8.8469
_cell_angle_alpha 90.472500
_cell_angle_beta 90.293400
_cell_angle_gamma 90.022200
loop_
  _atom_site_label
  _atom_site_type_symbol
  _atom_site_fract_x
  _atom_site_fract_y
  _atom_site_fract_z
O1 O 0.29106 0.21293 0.13902
 O2 O 0.21895 0.28736 0.10026
 O3 O 0.29154 0.28706 0.15225
 O4 O 0.21829 0.21368 0.09550
 O5 O 0.20992 0.21196 0.34218
 O6 O 0.28202 0.28604 0.39847
 O7 O 0.20931 0.28620 0.34642
 O8 O 0.28257 0.21232 0.38595
 Cu9 Cu 0.25602 0.25044 0.09771
 Cu10 Cu 0.24489 0.24906 0.39234
 C11 C 0.29917 0.19991 0.26852
 C12 C 0.20160 0.29932 0.21644
 C13 C 0.29931 0.29903 0.28474
 C14 C 0.20168 0.20010 0.21010
 O15 O 0.79471 0.28767 0.32724
 O16 O 0.72740 0.21353 0.41436
 O17 O 0.79550 0.21386 0.30029
 O18 O 0.72320 0.28717 0.39342
 O19 O 0.70525 0.28605 0.15420
 O20 O 0.77513 0.21419 0.06419
 O21 O 0.70720 0.21209 0.17827
 O22 O 0.77694 0.28785 0.08779
 Cu23 Cu 0.76204 0.25052 0.38190
 Cu24 Cu 0.73921 0.24994 0.09809
 C25 C 0.79761 0.30072 0.19502
 C26 C 0.70547 0.20014 0.31398
 C27 C 0.79760 0.20194 0.16396
 C28 C 0.70208 0.29924 0.28697
 O29 O 0.71558 0.78736 0.72158
 O30 O 0.78766 0.71441 0.78991
 O31 O 0.71516 0.71360 0.73739
 O32 O 0.78712 0.78860 0.79087
 O33 O 0.77573 0.78930 1.03578
 O34 O 0.70313 0.71592 0.98182
 O35 O 0.77553 0.71575 1.03441
 O36 O 0.70408 0.79014 0.96642
 Cu37 Cu 0.75266 0.75077 0.73578
 Cu38 Cu 0.73822 0.75299 1.02870
 C39 C 0.69767 0.80141 0.83244
 C40 C 0.79395 0.70256 0.92271
 C41 C 0.69689 0.70197 0.85138
 C42 C 0.79392 0.80156 0.92295
 O43 O 0.29153 0.78603 0.75833
 O44 O 0.21888 0.71148 0.81354
 O45 O 0.29047 0.71203 0.75008
 O46 O 0.22118 0.78490 0.84391
 O47 O 0.20475 0.78960 0.60402
 O48 O 0.27515 0.71516 0.50824
 O49 O 0.20351 0.71563 0.57213
 O50 O 0.27499 0.78878 0.51780
 Cu51 Cu 0.25711 0.74828 0.81543
 Cu52 Cu 0.23789 0.75272 0.52665
 C53 C 0.29567 0.79983 0.62689
 C54 C 0.19899 0.70078 0.70074
 C55 C 0.29482 0.70099 0.61464
 C56 C 0.20103 0.79985 0.74160
 O57 O 1.04099 -0.04148 -0.01323
 O58 O 0.97135 0.02769 0.12380
 O59 O 0.96785 -0.04197 0.02458
 O60 O 1.04328 0.02946 0.07408
 O61 O 1.03479 0.04768 -0.16190
 O62 O 0.95968 -0.02345 -0.21122
 O63 O 0.96207 0.04649 -0.11097
 O64 O 1.03206 -0.02313 -0.24882
 Cu65 Cu 1.00686 -0.00861 0.07563
 Cu66 Cu 0.99619 0.01396 -0.20662
 C67 C 1.04840 -0.04432 -0.15314
 C68 C 0.95483 0.04901 0.02953
 C69 C 0.95106 -0.04497 -0.10234
 C70 C 1.05183 0.05078 -0.03581
 O71 O 0.53901 0.45521 0.68191
 O72 O 0.46453 0.52664 0.73330
 O73 O 0.46515 0.45409 0.67518
 O74 O 0.53778 0.52840 0.72766
 O75 O 0.53711 0.53840 0.48171
 O76 O 0.46460 0.46467 0.42964
 O77 O 0.46347 0.53724 0.48779
 O78 O 0.53811 0.46530 0.43603
 Cu79 Cu 0.50168 0.48992 0.72863
 Cu80 Cu 0.50079 0.50247 0.43463
 C81 C 0.55136 0.44809 0.55041
 C82 C 0.45133 0.54422 0.62001
 C83 C 0.45237 0.44686 0.54348
 C84 C 0.54980 0.54610 0.61282
 O85 O 0.03832 0.52930 -0.20280
 O86 O -0.03593 0.45628 -0.17514
 O87 O -0.03494 0.52932 -0.21695
 O88 O 0.03784 0.45625 -0.15878
 O89 O 0.03548 0.46546 0.08800
 O90 O -0.03727 0.53892 0.02967
 O91 O -0.03800 0.46598 0.07147
 O92 O 0.03633 0.53844 0.04415
 Cu93 Cu 0.00164 0.49171 -0.21262
 Cu94 Cu -0.00115 0.50318 0.08255
 C95 C 0.04996 0.54632 -0.08425
 C96 C -0.04978 0.44887 -0.04662
 C97 C -0.04855 0.54663 -0.10306
 C98 C 0.04920 0.44842 -0.02626
 O99 O 0.53399 1.02659 0.32723
 O100 O 0.46294 0.95767 0.44578
 O101 O 0.46179 1.02911 0.37362
 O102 O 0.53622 0.95627 0.42026
 O103 O 0.54299 0.97381 0.65907
 O104 O 0.46954 1.04605 0.61261
 O105 O 0.47015 0.97459 0.68512
 O106 O 0.54234 1.04405 0.56534
 Cu107 Cu 0.49801 0.99058 0.36800
 Cu108 Cu 0.50715 1.01152 0.65420
 C109 C 0.55017 1.04732 0.42571
 C110 C 0.45424 0.95422 0.58390
 C111 C 0.45296 1.04991 0.48625
 C112 C 0.55196 0.95247 0.54897
 C113 C 1.13657 0.13422 0.02497
 C114 C 1.11977 0.11664 0.14954
 N115 N 1.13026 0.12712 0.29152
 C116 C 1.15684 0.15443 0.31499
 C117 C 1.17413 0.17199 0.19037
 N118 N 1.16343 0.16121 0.04806
 N119 N 1.12546 0.12428 -0.11702
 C120 C 1.09824 0.09756 -0.14016
 C121 C 1.08157 0.07963 -0.01556
 N122 N 1.09292 0.08966 0.12657
 H123 H 1.16447 0.16209 0.42993
 H124 H 1.08991 0.09024 -0.25463
 C125 C 0.63225 0.63210 0.66922
 C126 C 0.61495 0.61548 0.79490
 N127 N 0.62453 0.62744 0.93615
 C128 C 0.65066 0.65530 0.95763
 C129 C 0.66824 0.67192 0.83202
 N130 N 0.65851 0.65976 0.69051
 N131 N 0.62239 0.62040 0.52792
 C132 C 0.59596 0.59282 0.50641
 C133 C 0.57865 0.57595 0.63207
 N134 N 0.58872 0.58778 0.77363
 H135 H 0.65773 0.66419 1.07170
 H136 H 0.58868 0.58411 0.39232
 C137 C -0.13583 0.36665 0.00484
 C138 C -0.11975 0.38549 0.13007
 N139 N -0.13141 0.37704 0.27130
 C140 C -0.15830 0.35032 0.29379
 C141 C -0.17448 0.33101 0.16929
 N142 N -0.16293 0.33983 0.02693
 N143 N -0.12356 0.37511 -0.13627
 C144 C -0.09592 0.40146 -0.15750
 C145 C -0.07980 0.42025 -0.03169
 N146 N -0.09236 0.41170 0.10889
 H147 H -0.16685 0.34416 0.40831
 H148 H -0.08667 0.40762 -0.27108
 C149 C 0.37088 0.87247 0.68675
 C150 C 0.37915 0.88224 0.53704
 N151 N 0.36022 0.86535 0.42142
 C152 C 0.33324 0.83896 0.44820
 C153 C 0.32484 0.82870 0.59779
 N154 N 0.34401 0.84576 0.71410
 N155 N 0.38986 0.88995 0.80185
 C156 C 0.41675 0.91668 0.77367
 C157 C 0.42519 0.92616 0.62335
 N158 N 0.40601 0.90855 0.50921
 H159 H 0.31871 0.82596 0.35308
 H160 H 0.43150 0.93010 0.86728
 C161 C -0.13267 0.63050 -0.16164
 C162 C -0.12203 0.61863 -0.01656
 N163 N -0.13912 0.63415 0.10636
 C164 C -0.16638 0.66109 0.09080
 C165 C -0.17698 0.67321 -0.05450
 N166 N -0.15971 0.65748 -0.17719
 N167 N -0.11583 0.61485 -0.28467
 C168 C -0.08874 0.58778 -0.26938
 C169 C -0.07782 0.57587 -0.12415
 N170 N -0.09485 0.59173 -0.00107
 H171 H -0.17946 0.67300 0.19080
 H172 H -0.07581 0.57582 -0.36961
 C173 C 0.36809 1.13355 0.44059
 C174 C 0.38285 1.11498 0.31288
 N175 N 0.37009 1.12444 0.17325
 C176 C 0.34324 1.15168 0.15542
 C177 C 0.32823 1.17022 0.28323
 N178 N 0.34110 1.16053 0.42301
 N179 N 0.38118 1.12452 0.58007
 C180 C 0.40845 1.09775 0.59789
 C181 C 0.42325 1.07891 0.47034
 N182 N 0.40991 1.08803 0.33054
 H183 H 0.33364 1.15862 0.04265
 H184 H 0.41833 1.09118 0.71066
 C185 C 1.12818 -0.12717 -0.28756
 C186 C 1.12278 -0.11783 -0.13467
 N187 N 1.14337 -0.13555 -0.02694
 C188 C 1.16921 -0.16237 -0.06462
 C189 C 1.17469 -0.17233 -0.21785
 N190 N 1.15384 -0.15430 -0.32584
 N191 N 1.10770 -0.10887 -0.39493
 C192 C 1.08200 -0.08174 -0.35606
 C193 C 1.07632 -0.07270 -0.20256
 N194 N 1.09700 -0.09112 -0.09599
 H195 H 1.18509 -0.17589 0.02494
 H196 H 1.06598 -0.06770 -0.44383
 C197 C 0.63689 0.36584 0.48427
 C198 C 0.61875 0.38317 0.36123
 N199 N 0.62832 0.37316 0.21838
 C200 C 0.65514 0.34644 0.19238
 C201 C 0.67348 0.32885 0.31493
 N202 N 0.66393 0.33914 0.45862
 N203 N 0.62682 0.37574 0.62717
 C204 C 0.59941 0.40212 0.65245
 C205 C 0.58127 0.41953 0.52909
 N206 N 0.59159 0.40954 0.38638
 H207 H 0.66206 0.33909 0.07677
 H208 H 0.59195 0.40943 0.76755
 C209 C 0.86627 -0.12836 -0.16248
 C210 C 0.87711 -0.11622 -0.01711
 N211 N 0.85987 -0.13115 0.10541
 C212 C 0.83229 -0.15778 0.08944
 C213 C 0.82168 -0.17059 -0.05624
 N214 N 0.83914 -0.15537 -0.17866
 N215 N 0.88290 -0.11280 -0.28516
 C216 C 0.90999 -0.08566 -0.26912
 C217 C 0.92136 -0.07382 -0.12354
 N218 N 0.90456 -0.08954 -0.00083
 H219 H 0.81919 -0.16908 0.18982
 H220 H 0.92283 -0.07382 -0.36901
 C221 C 0.36731 0.36394 0.47611
 C222 C 0.38435 0.38190 0.35300
 N223 N 0.37341 0.37259 0.21018
 C224 C 0.34615 0.34605 0.18464
 C225 C 0.32883 0.32806 0.30769
 N226 N 0.33995 0.33758 0.45080
 N227 N 0.37847 0.37307 0.61889
 C228 C 0.40593 0.39944 0.64432
 C229 C 0.42295 0.41770 0.52123
 N230 N 0.41160 0.40836 0.37827
 H231 H 0.33804 0.33920 0.06948
 H232 H 0.41418 0.40619 0.75941
 C233 C 0.13393 0.63100 -0.12506
 C234 C 0.11651 0.61490 -0.25336
 N235 N 0.12628 0.62698 -0.39286
 C236 C 0.15268 0.65454 -0.41030
 C237 C 0.17038 0.67075 -0.28229
 N238 N 0.16055 0.65843 -0.14224
 N239 N 0.12368 0.61913 0.01449
 C240 C 0.09677 0.59192 0.03154
 C241 C 0.07939 0.57564 -0.09701
 N242 N 0.08987 0.58762 -0.23648
 H243 H 0.15985 0.66355 -0.52325
 H244 H 0.08913 0.58304 0.14417
 C245 C 0.63037 1.12917 0.28971
 C246 C 0.62701 1.11875 0.44202
 N247 N 0.64987 1.13495 0.54733
 C248 C 0.67595 1.16125 0.50788
 C249 C 0.67925 1.17238 0.35542
 N250 N 0.65618 1.15587 0.24985
 N251 N 0.60776 1.11236 0.18437
 C252 C 0.58194 1.08569 0.22452
 C253 C 0.57823 1.07557 0.37747
 N254 N 0.60098 1.09250 0.48239
 H255 H 0.69361 1.17356 0.59571
 H256 H 0.56424 1.07284 0.13807
 C257 C 0.13439 0.36567 0.03445
 C258 C 0.11656 0.38246 0.15953
 N259 N 0.12680 0.37189 0.30124
 C260 C 0.15407 0.34525 0.32358
 C261 C 0.17209 0.32846 0.19836
 N262 N 0.16168 0.33924 0.05665
 N263 N 0.12406 0.37593 -0.10728
 C264 C 0.09665 0.40232 -0.12997
 C265 C 0.07875 0.41942 -0.00509
 N266 N 0.08927 0.40897 0.13711
 H267 H 0.16161 0.33736 0.43780
 H268 H 0.08909 0.40994 -0.24446
 C269 C 0.63309 0.86673 0.62906
 C270 C 0.61703 0.88735 0.74877
 N271 N 0.62719 0.87941 0.89323
 C272 C 0.65282 0.85174 0.92375
 C273 C 0.66930 0.83117 0.80417
 N274 N 0.65894 0.83930 0.65929
 N275 N 0.62244 0.87438 0.48470
 C276 C 0.59640 0.90178 0.45457
 C277 C 0.58047 0.92271 0.57436
 N278 N 0.59133 0.91485 0.71872
 H279 H 0.66044 0.84611 1.04007
 H280 H 0.58839 0.90725 0.33855
 C281 C 0.87403 0.12936 0.17833
 C282 C 0.87969 0.12208 0.02368
 N283 N 0.85876 0.14074 -0.08039
 C284 C 0.83229 0.16639 -0.03730
 C285 C 0.82643 0.17402 0.11746
 N286 N 0.84764 0.15527 0.22203
 N287 N 0.89487 0.11020 0.28193
 C288 C 0.92106 0.08411 0.23785
 C289 C 0.92685 0.07694 0.08278
 N290 N 0.90592 0.09629 -0.02024
 H291 H 0.81611 0.18081 -0.12362
 H292 H 0.93725 0.06926 0.32296
 C293 C 0.36716 0.62762 0.68599
 C294 C 0.37757 0.61648 0.53948
 N295 N 0.36039 0.63283 0.41861
 C296 C 0.33331 0.65993 0.43787
 C297 C 0.32316 0.67134 0.58487
 N298 N 0.34047 0.65471 0.70499
 N299 N 0.38395 0.61131 0.80721
 C300 C 0.41088 0.58427 0.78893
 C301 C 0.42177 0.57310 0.64246
 N302 N 0.40473 0.58958 0.52083
 H303 H 0.32016 0.67259 0.33978
 H304 H 0.42382 0.57185 0.88800
   
