data_POSCAR
  _audit_creation_date              2014-09-24
  _audit_creation_method            'ToBaCCo'
  _symmetry_space_group_name_H-M    'P1'
  _symmetry_Int_Tables_number       1
  _symmetry_cell_setting            triclinic
  loop_
  _symmetry_equiv_pos_as_xyz
 x,y,z
_cell_length_a 27.8379
_cell_length_b 28.9423
_cell_length_c 32.8237
_cell_angle_alpha 89.795800
_cell_angle_beta 90.271800
_cell_angle_gamma 119.665600
loop_
  _atom_site_label
  _atom_site_type_symbol
  _atom_site_fract_x
  _atom_site_fract_y
  _atom_site_fract_z
C1 C 0.04769 0.51052 1.33673
 C2 C -0.00284 0.48259 1.35720
 C3 C -0.05334 0.45318 1.33666
 C4 C -0.05384 0.45308 1.29340
 C5 C -0.00308 0.48054 1.27189
 C6 C 0.04786 0.50752 1.29354
 C7 C 0.09755 0.52814 1.27153
 C8 C 0.09753 0.52754 1.22924
 C9 C 0.04775 0.50488 1.20717
 C10 C -0.00305 0.47960 1.22854
 C11 C -0.10298 0.42309 1.27106
 C12 C -0.10292 0.42306 1.22867
 C13 C -0.05370 0.45277 1.20665
 C14 C -0.05331 0.45421 1.16329
 C15 C -0.00242 0.47994 1.14299
 C16 C 0.04762 0.50594 1.16417
 H17 H 0.13717 0.54502 1.28681
 H18 H 0.13706 0.54483 1.21395
 H19 H -0.14208 0.39860 1.28607
 H20 H -0.14196 0.39894 1.21325
 H21 H -0.00320 0.48509 1.39020
 H22 H -0.00169 0.48193 1.10994
 C23 C 0.54462 0.49447 1.16263
 C24 C 0.52483 0.52363 1.14141
 C25 C 0.50620 0.55391 1.16196
 C26 C 0.51026 0.55776 1.20485
 C27 C 0.52805 0.52670 1.22691
 C28 C 0.54533 0.49491 1.20574
 C29 C 0.56129 0.46328 1.22816
 C30 C 0.55777 0.46090 1.27045
 C31 C 0.54131 0.49250 1.29237
 C32 C 0.52634 0.52581 1.27015
 C33 C 0.49542 0.59074 1.22619
 C34 C 0.49411 0.59025 1.26847
 C35 C 0.50694 0.55629 1.29087
 C36 C 0.49961 0.55117 1.33343
 C37 C 0.51584 0.51961 1.35506
 C38 C 0.53590 0.48939 1.33557
 H39 H 0.57487 0.43855 1.21313
 H40 H 0.56686 0.43285 1.28551
 H41 H 0.48376 0.61658 1.21030
 H42 H 0.48159 0.61584 1.28346
 H43 H 0.52200 0.52113 1.10843
 H44 H 0.51208 0.51818 1.38800
 C45 C 0.45186 0.95020 1.33429
 C46 C 0.47674 0.99886 1.35515
 C47 C 0.50103 1.04803 1.33488
 C48 C 0.50270 1.04857 1.29154
 C49 C 0.47565 0.99986 1.26974
 C50 C 0.44837 0.95074 1.29111
 C51 C 0.41704 0.90363 1.26877
 C52 C 0.41759 0.90391 1.22645
 C53 C 0.44837 0.95149 1.20470
 C54 C 0.47641 1.00013 1.22636
 C55 C 0.53216 1.09623 1.26941
 C56 C 0.53186 1.09656 1.22706
 C57 C 0.50539 1.04892 1.20474
 C58 C 0.50587 1.04864 1.16138
 C59 C 0.47816 0.99990 1.14078
 C60 C 0.45150 0.95158 1.16175
 H61 H 0.39217 0.86587 1.28390
 H62 H 0.39367 0.86635 1.21084
 H63 H 0.55586 1.13408 1.28457
 H64 H 0.55318 1.13481 1.21205
 H65 H 0.47773 0.99849 1.38822
 H66 H 0.47976 0.99936 1.10775
 C67 C 1.04959 0.51333 0.83455
 C68 C 0.99824 0.48891 0.85445
 C69 C 0.94835 0.46474 0.83296
 C70 C 0.94895 0.46602 0.78994
 C71 C 1.00008 0.48755 0.76909
 C72 C 1.05040 0.50942 0.79139
 C73 C 1.09976 0.52452 0.77006
 C74 C 1.10052 0.52388 0.72769
 C75 C 1.05187 0.50759 0.70486
 C76 C 1.00083 0.48671 0.72582
 C77 C 0.89973 0.44609 0.76731
 C78 C 0.90050 0.44560 0.72497
 C79 C 0.95050 0.46476 0.70366
 C80 C 0.95142 0.46230 0.66070
 C81 C 1.00205 0.48481 0.64036
 C82 C 1.05259 0.50957 0.66156
 H83 H 1.13839 0.53719 0.78600
 H84 H 1.13974 0.53633 0.71292
 H85 H 0.86008 0.43060 0.78219
 H86 H 0.86136 0.42981 0.70909
 H87 H 0.99677 0.49001 0.88745
 H88 H 1.00191 0.48467 0.60729
 C89 C 0.48339 0.53707 0.83372
 C90 C 0.49964 0.50495 0.85479
 C91 C 0.52456 0.47950 0.83500
 C92 C 0.53241 0.48530 0.79222
 C93 C 0.51443 0.51634 0.77019
 C94 C 0.49171 0.54385 0.79112
 C95 C 0.47818 0.57755 0.76895
 C96 C 0.48284 0.58103 0.72670
 C97 C 0.50175 0.55135 0.70509
 C98 C 0.51934 0.52003 0.72710
 C99 C 0.55809 0.46138 0.77084
 C100 C 0.56071 0.46310 0.72849
 C101 C 0.54071 0.49145 0.70604
 C102 C 0.54109 0.49170 0.66304
 C103 C 0.52306 0.52222 0.64174
 C104 C 0.50400 0.55243 0.66203
 H105 H 0.46321 0.60113 0.78403
 H106 H 0.47118 0.60703 0.71110
 H107 H 0.57545 0.44009 0.78650
 H108 H 0.57882 0.44214 0.71349
 H109 H 0.49329 0.50012 0.88747
 H110 H 0.52268 0.52149 0.60868
 C111 C 0.46264 -0.05101 0.83619
 C112 C 0.48835 -0.00209 0.85677
 C113 C 0.51282 0.04622 0.83586
 C114 C 0.51298 0.04678 0.79292
 C115 C 0.48539 -0.00192 0.77139
 C116 C 0.45856 -0.05091 0.79295
 C117 C 0.42642 -0.09805 0.77078
 C118 C 0.42571 -0.09780 0.72842
 C119 C 0.45561 -0.05017 0.70655
 C120 C 0.48396 -0.00158 0.72816
 C121 C 0.53943 0.09482 0.77105
 C122 C 0.53894 0.09504 0.72865
 C123 C 0.51108 0.04729 0.70661
 C124 C 0.50955 0.04704 0.66352
 C125 C 0.48386 -0.00138 0.64266
 C126 C 0.45771 -0.04983 0.66353
 H127 H 0.40170 -0.13576 0.78598
 H128 H 0.40137 -0.13537 0.71291
 H129 H 0.56113 0.13270 0.78657
 H130 H 0.56059 0.13308 0.71330
 H131 H 0.49046 -0.00130 0.88981
 H132 H 0.48450 -0.00135 0.60962
 O133 O 0.42413 0.67056 0.96356
 O134 O 0.41059 0.75223 0.95302
 C135 C 0.37890 0.77047 0.94425
 O136 O 0.33482 0.75788 0.96376
 O137 O 0.25065 0.66331 0.95357
 C138 C 0.23185 0.61457 0.94564
 O139 O 0.24483 0.58508 0.96619
 O140 O 0.34249 0.59732 0.95495
 C141 C 0.39226 0.62765 0.94477
 O142 O 0.42299 0.68328 1.04512
 O143 O 0.41215 0.76702 1.03424
 C144 C 0.37496 0.77143 1.05336
 O145 O 0.32391 0.74402 1.04502
 O146 O 0.23643 0.65066 1.03485
 C147 C 0.23326 0.61179 1.05513
 O148 O 0.26239 0.59049 1.04734
 O149 O 0.35860 0.59858 1.03581
 C150 C 0.40058 0.63450 1.05429
 Cr151 Cr 0.41422 0.71644 0.99908
 Cr152 Cr 0.28837 0.70267 0.99937
 Cr153 Cr 0.30341 0.59600 1.00107
 O154 O 0.33543 0.67175 1.00001
 O155 O 0.57901 0.32766 0.95375
 O156 O 0.57260 0.23501 0.96815
 C157 C 0.60410 0.22640 0.94548
 O158 O 0.65602 0.25001 0.95096
 O159 O 0.75290 0.33390 0.96278
 C160 C 0.76199 0.37510 0.94281
 O161 O 0.73885 0.40206 0.95126
 O162 O 0.65067 0.40850 0.96497
 C163 C 0.60712 0.37688 0.94533
 O164 O 0.58067 0.34497 1.03421
 O165 O 0.57999 0.25529 1.04820
 C166 C 0.60360 0.22795 1.05416
 O167 O 0.64345 0.23258 1.03234
 O168 O 0.73810 0.31963 1.04373
 C169 C 0.76432 0.36883 1.05211
 O170 O 0.75799 0.40344 1.03246
 O171 O 0.66785 0.40660 1.04582
 C172 C 0.61691 0.38444 1.05416
 Cr173 Cr 0.58116 0.29210 1.00099
 Cr174 Cr 0.69617 0.28551 0.99751
 Cr175 Cr 0.70226 0.40228 0.99864
 O176 O 0.66002 0.32678 0.99920
 O177 O 0.64872 0.40853 0.53241
 O178 O 0.73816 0.40199 0.54525
 C179 C 0.76159 0.37493 0.55310
 O180 O 0.75160 0.33345 0.53332
 O181 O 0.65650 0.24846 0.54550
 C182 C 0.60536 0.22617 0.55324
 O183 O 0.57214 0.23502 0.53257
 O184 O 0.57915 0.32737 0.54542
 C185 C 0.60511 0.37704 0.55185
 O186 O 0.66296 0.40647 0.45196
 O187 O 0.75533 0.40372 0.46430
 C188 C 0.76349 0.36944 0.44611
 O189 O 0.73482 0.31991 0.45256
 O190 O 0.64143 0.23259 0.46404
 C191 C 0.59966 0.22668 0.44378
 O192 O 0.57503 0.25233 0.45194
 O193 O 0.57714 0.34211 0.46462
 C194 C 0.61110 0.38462 0.44649
 Cr195 Cr 0.69971 0.40209 0.49841
 Cr196 Cr 0.69449 0.28510 0.49884
 Cr197 Cr 0.57902 0.29057 0.49855
 O198 O 0.65783 0.32602 0.49837
 O199 O 0.36491 0.60185 0.53188
 O200 O 0.26658 0.58960 0.54484
 C201 C 0.23734 0.61032 0.55429
 O202 O 0.24006 0.65026 0.53596
 O203 O 0.32533 0.74462 0.54524
 C204 C 0.37637 0.77226 0.55337
 O205 O 0.41363 0.76923 0.53338
 O206 O 0.42758 0.68704 0.54167
 C207 C 0.40796 0.63805 0.54922
 O208 O 0.34797 0.60224 0.45132
 O209 O 0.24891 0.58657 0.46372
 C210 C 0.23305 0.61531 0.44520
 O211 O 0.25002 0.66334 0.45454
 O212 O 0.33290 0.75882 0.46364
 C213 C 0.37695 0.77313 0.44356
 O214 O 0.41059 0.75698 0.45187
 O215 O 0.42785 0.67726 0.46012
 C216 C 0.39755 0.63401 0.44139
 Cr217 Cr 0.30833 0.59829 0.49802
 Cr218 Cr 0.28915 0.70303 0.49983
 Cr219 Cr 0.41656 0.72073 0.49686
 O220 O 0.33804 0.67399 0.49843
 C221 C 0.41577 0.56063 0.35108
 C222 C 0.47233 0.57581 0.35664
 C223 C 0.50336 0.61318 0.38655
 C224 C 0.47896 0.63369 0.41218
 C225 C 0.42276 0.61827 0.40834
 C226 C 0.39156 0.58405 0.37581
 C227 C 0.38248 0.52220 0.32182
 C228 C 0.32815 0.51038 0.31479
 C229 C 0.30586 0.53626 0.33677
 C230 C 0.33705 0.57275 0.36697
 H231 H 0.39804 0.50117 0.30395
 H232 H 0.30346 0.48149 0.29180
 H233 H 0.26408 0.52788 0.33050
 H234 H 0.31833 0.59277 0.38242
 H235 H 0.54654 0.62508 0.39110
 H236 H 0.50385 0.66009 0.43646
 C237 C 0.44679 0.86326 0.35118
 C238 C 0.43137 0.90291 0.35783
 C239 C 0.39614 0.89629 0.39057
 C240 C 0.37693 0.85275 0.41648
 C241 C 0.39151 0.81338 0.41072
 C242 C 0.42409 0.81685 0.37636
 C243 C 0.48640 0.86966 0.32155
 C244 C 0.49802 0.82895 0.31352
 C245 C 0.47134 0.78149 0.33519
 C246 C 0.43489 0.77537 0.36640
 H247 H 0.50883 0.90605 0.30431
 H248 H 0.52751 0.83409 0.29008
 H249 H 0.47950 0.74950 0.32818
 H250 H 0.41473 0.73752 0.38202
 H251 H 0.38342 0.92551 0.39641
 H252 H 0.35183 0.85091 0.44223
 C253 C 0.13554 0.59378 0.35487
 C254 C 0.09622 0.53891 0.36076
 C255 C 0.10475 0.51149 0.39285
 C256 C 0.15026 0.53655 0.41847
 C257 C 0.18987 0.59015 0.41312
 C258 C 0.18414 0.61860 0.37973
 C259 C 0.12666 0.62535 0.32612
 C260 C 0.16722 0.67779 0.31866
 C261 C 0.21698 0.70014 0.33996
 C262 C 0.22553 0.67109 0.37025
 H263 H 0.08846 0.60986 0.30910
 H264 H 0.16022 0.70101 0.29591
 H265 H 0.24892 0.74045 0.33331
 H266 H 0.26521 0.69003 0.38544
 H267 H 0.07574 0.46976 0.39820
 H268 H 0.15363 0.51384 0.44354
 C269 C 0.51440 0.42448 0.39187
 C270 C 0.55005 0.45759 0.36041
 C271 C 0.60370 0.46477 0.35805
 C272 C 0.62210 0.44024 0.38566
 C273 C 0.58884 0.40986 0.41819
 C274 C 0.53518 0.40410 0.42263
 C275 C 0.45799 0.41062 0.39311
 C276 C 0.42503 0.38353 0.42634
 C277 C 0.44745 0.36985 0.45895
 C278 C 0.50189 0.38016 0.45737
 H279 H 0.43899 0.42084 0.36845
 H280 H 0.38230 0.37425 0.42720
 H281 H 0.42246 0.35084 0.48555
 H282 H 0.51744 0.37054 0.48428
 H283 H 0.63255 0.49109 0.33539
 H284 H 0.66340 0.44607 0.38197
 C285 C 0.51226 0.13637 0.35515
 C286 C 0.52534 0.09476 0.35915
 C287 C 0.56324 0.09925 0.38938
 C288 C 0.58792 0.14299 0.41499
 C289 C 0.57680 0.18508 0.41137
 C290 C 0.54073 0.18322 0.37958
 C291 C 0.46997 0.13171 0.32856
 C292 C 0.46044 0.17416 0.32252
 C293 C 0.49242 0.22187 0.34292
 C294 C 0.53219 0.22659 0.37112
 H295 H 0.44409 0.09535 0.31206
 H296 H 0.42867 0.17030 0.30140
 H297 H 0.48605 0.25531 0.33714
 H298 H 0.55671 0.26500 0.38517
 H299 H 0.57419 0.06839 0.39327
 H300 H 0.61527 0.14307 0.43862
 C301 C 0.89485 0.39095 0.39267
 C302 C 0.89850 0.42605 0.36079
 C303 C 0.85694 0.44001 0.35726
 C304 C 0.81345 0.42120 0.38501
 C305 C 0.81020 0.38814 0.41736
 C306 C 0.85160 0.37341 0.42183
 C307 C 0.93293 0.37206 0.39570
 C308 C 0.93107 0.34029 0.42831
 C309 C 0.89131 0.32645 0.45841
 C310 C 0.85198 0.34276 0.45535
 H311 H 0.96428 0.38143 0.37280
 H312 H 0.96093 0.32673 0.43040
 H313 H 0.89068 0.30267 0.48414
 H314 H 0.82260 0.33167 0.47983
 H315 H 0.85942 0.46765 0.33389
 H316 H 0.78236 0.43308 0.38149
 C317 C 0.53091 0.40680 1.13489
 C318 C 0.56273 0.46285 1.13828
 C319 C 0.61239 0.49046 1.11699
 C320 C 0.63011 0.46383 1.09140
 C321 C 0.59897 0.40847 1.08640
 C322 C 0.55013 0.37907 1.10994
 C323 C 0.48036 0.37774 1.15582
 C324 C 0.45088 0.32240 1.15411
 C325 C 0.47121 0.29506 1.13178
 C326 C 0.52035 0.32287 1.11002
 H327 H 0.46347 0.39745 1.17395
 H328 H 0.41248 0.30059 1.17067
 H329 H 0.44882 0.25202 1.13137
 H330 H 0.53511 0.29965 1.09437
 H331 H 0.63700 0.53334 1.11944
 H332 H 0.66769 0.48722 1.07418
 C333 C 0.85702 0.44709 1.14199
 C334 C 0.89814 0.43156 1.13908
 C335 C 0.89229 0.39454 1.10909
 C336 C 0.84720 0.37270 1.08271
 C337 C 0.80648 0.38745 1.08487
 C338 C 0.81001 0.42335 1.11564
 C339 C 0.86274 0.48763 1.16889
 C340 C 0.82104 0.50077 1.17240
 C341 C 0.77325 0.47447 1.14895
 C342 C 0.76773 0.43625 1.12077
 H343 H 0.89942 0.50975 1.18731
 H344 H 0.82572 0.53131 1.19358
 H345 H 0.74053 0.48412 1.15229
 H346 H 0.72982 0.41639 1.10353
 H347 H 0.92319 0.38236 1.10600
 H348 H 0.84515 0.34538 1.05936
 C349 C 0.59103 0.13019 1.13834
 C350 C 0.53278 0.09538 1.13753
 C351 C 0.50036 0.10627 1.11055
 C352 C 0.52395 0.15086 1.08548
 C353 C 0.58104 0.18584 1.08575
 C354 C 0.61501 0.17649 1.11311
 C355 C 0.62634 0.11900 1.16238
 C356 C 0.68306 0.15440 1.16389
 C357 C 0.70584 0.20123 1.14132
 C358 C 0.67234 0.21226 1.11610
 H359 H 0.61052 0.08290 1.18018
 H360 H 0.70942 0.14558 1.18287
 H361 H 0.74978 0.22899 1.14311
 H362 H 0.69168 0.24928 1.09947
 H363 H 0.45600 0.08000 1.10902
 H364 H 0.49743 0.15710 1.06457
 C365 C 0.41973 0.55645 1.14080
 C366 C 0.47758 0.57658 1.13781
 C367 C 0.50874 0.61781 1.11046
 C368 C 0.48336 0.63814 1.08516
 C369 C 0.42608 0.61790 1.08656
 C370 C 0.39413 0.57851 1.11588
 C371 C 0.38658 0.51442 1.16769
 C372 C 0.33030 0.49689 1.17169
 C373 C 0.30593 0.52052 1.14898
 C374 C 0.33736 0.56091 1.12134
 H375 H 0.40365 0.49482 1.18594
 H376 H 0.30560 0.46514 1.19280
 H377 H 0.26243 0.50744 1.15272
 H378 H 0.31706 0.57890 1.10504
 H379 H 0.55292 0.63343 1.10799
 H380 H 0.50839 0.66838 1.06306
 C381 C 0.12966 0.59212 1.13925
 C382 C 0.09889 0.53576 1.13988
 C383 C 0.11554 0.50660 1.11565
 C384 C 0.16078 0.53218 1.08988
 C385 C 0.19100 0.58784 1.08755
 C386 C 0.17710 0.61838 1.11380
 C387 C 0.11405 0.62301 1.16315
 C388 C 0.14613 0.67827 1.16372
 C389 C 0.19411 0.70378 1.14059
 C390 C 0.20962 0.67431 1.11589
 H391 H 0.07723 0.60486 1.18173
 H392 H 0.13402 0.70139 1.18255
 H393 H 0.21947 0.74664 1.14177
 H394 H 0.24786 0.69578 1.09934
 H395 H 0.09234 0.46353 1.11596
 H396 H 0.17088 0.50810 1.07036
 C397 C 0.45538 0.86938 1.13930
 C398 C 0.43045 0.90189 1.13753
 C399 C 0.38618 0.88855 1.11082
 C400 C 0.36739 0.84476 1.08515
 C401 C 0.39221 0.81278 1.08532
 C402 C 0.43507 0.82363 1.11383
 C403 C 0.50049 0.88163 1.16556
 C404 C 0.52291 0.84804 1.16839
 C405 C 0.50116 0.80191 1.14513
 C406 C 0.45770 0.78967 1.11811
 H407 H 0.51871 0.91699 1.18426
 H408 H 0.55702 0.85761 1.18903
 H409 H 0.51808 0.77547 1.14798
 H410 H 0.44142 0.75289 1.10141
 H411 H 0.36687 0.91309 1.10918
 H412 H 0.33440 0.83697 1.06382
 C413 C 0.51324 0.40969 0.62037
 C414 C 0.55496 0.45677 0.63877
 C415 C 0.61042 0.47395 0.63061
 C416 C 0.62512 0.44613 0.60363
 C417 C 0.58491 0.40059 0.58317
 C418 C 0.52786 0.38180 0.59165
 C419 C 0.45692 0.39059 0.62941
 C420 C 0.41557 0.34589 0.60985
 C421 C 0.42936 0.31983 0.58068
 C422 C 0.48461 0.33760 0.57141
 H423 H 0.44438 0.41003 0.65166
 H424 H 0.37259 0.33181 0.61698
 H425 H 0.39701 0.28573 0.56492
 H426 H 0.49197 0.31650 0.54775
 H427 H 0.64258 0.51002 0.64451
 H428 H 0.66870 0.46125 0.59797
 C429 C 0.51208 0.13059 0.63637
 C430 C 0.53500 0.09651 0.63883
 C431 C 0.58206 0.10817 0.61614
 C432 C 0.60556 0.15175 0.59007
 C433 C 0.58289 0.18534 0.58589
 C434 C 0.53717 0.17630 0.61066
 C435 C 0.46452 0.12002 0.65879
 C436 C 0.44378 0.15505 0.65757
 C437 C 0.46995 0.20116 0.63422
 C438 C 0.51624 0.21190 0.61110
 H439 H 0.44319 0.08488 0.67762
 H440 H 0.40761 0.14672 0.67522
 H441 H 0.45438 0.22883 0.63404
 H442 H 0.53591 0.24890 0.59453
 H443 H 0.59994 0.08239 0.61788
 H444 H 0.64061 0.15804 0.57180
 C445 C 0.86339 0.38173 0.63534
 C446 C 0.90011 0.43737 0.63570
 C447 C 0.88849 0.47058 0.61157
 C448 C 0.84207 0.44960 0.58647
 C449 C 0.80547 0.39465 0.58478
 C450 C 0.81481 0.36029 0.61064
 C451 C 0.87400 0.34689 0.65902
 C452 C 0.83633 0.29254 0.65996
 C453 C 0.78752 0.27193 0.63754
 C454 C 0.77663 0.30529 0.61321
 H455 H 0.91124 0.36132 0.67714
 H456 H 0.84475 0.26638 0.67855
 H457 H 0.75785 0.22985 0.63904
 H458 H 0.73752 0.28762 0.59737
 H459 H 0.91623 0.51319 0.61169
 H460 H 0.83579 0.47656 0.56710
 C461 C 0.51788 0.62288 0.60986
 C462 C 0.48296 0.58121 0.63655
 C463 C 0.42585 0.56157 0.63525
 C464 C 0.40286 0.58164 0.60749
 C465 C 0.43608 0.62152 0.57964
 C466 C 0.49434 0.64233 0.58042
 C467 C 0.57583 0.64484 0.61137
 C468 C 0.60981 0.68358 0.58349
 C469 C 0.58680 0.70068 0.55342
 C470 C 0.52974 0.68015 0.55159
 H471 H 0.59529 0.63225 0.63408
 H472 H 0.65415 0.69988 0.58487
 H473 H 0.61330 0.72989 0.53124
 H474 H 0.51413 0.69358 0.52685
 H475 H 0.39866 0.52926 0.65516
 H476 H 0.35840 0.56506 0.60722
 C477 C 0.45921 0.86749 0.63962
 C478 C 0.43508 0.90068 0.63910
 C479 C 0.38987 0.88811 0.61356
 C480 C 0.36958 0.84458 0.58754
 C481 C 0.39383 0.81218 0.58631
 C482 C 0.43730 0.82197 0.61390
 C483 C 0.50506 0.87886 0.66481
 C484 C 0.52674 0.84457 0.66632
 C485 C 0.50342 0.79858 0.64283
 C486 C 0.45913 0.78722 0.61690
 H487 H 0.52443 0.91406 0.68365
 H488 H 0.56146 0.85348 0.68612
 H489 H 0.51974 0.77156 0.64466
 H490 H 0.44151 0.75048 0.60003
 H491 H 0.37111 0.91317 0.61301
 H492 H 0.33614 0.83752 0.56690
 C493 C 0.14164 0.59095 0.64378
 C494 C 0.10193 0.53602 0.63851
 C495 C 0.11038 0.50737 0.60755
 C496 C 0.15641 0.53142 0.58235
 C497 C 0.19549 0.58524 0.58669
 C498 C 0.18948 0.61503 0.61846
 C499 C 0.13359 0.62351 0.67186
 C500 C 0.17378 0.67659 0.67747
 C501 C 0.22218 0.69880 0.65475
 C502 C 0.22997 0.66857 0.62533
 H503 H 0.09619 0.60864 0.68954
 H504 H 0.16731 0.70060 0.69960
 H505 H 0.25353 0.73986 0.65955
 H506 H 0.26814 0.68733 0.60833
 H507 H 0.08085 0.46567 0.60274
 H508 H 0.16030 0.50824 0.55804
 C509 C 0.40298 0.55130 0.85337
 C510 C 0.45874 0.56344 0.85795
 C511 C 0.49200 0.60006 0.88768
 C512 C 0.47048 0.62266 0.91404
 C513 C 0.41510 0.61024 0.91112
 C514 C 0.38185 0.57698 0.87876
 C515 C 0.36756 0.51385 0.82435
 C516 C 0.31408 0.50502 0.81824
 C517 C 0.29488 0.53316 0.84079
 C518 C 0.32827 0.56887 0.87070
 H519 H 0.38093 0.49141 0.80594
 H520 H 0.28767 0.47677 0.79547
 H521 H 0.25383 0.52719 0.83518
 H522 H 0.31201 0.59081 0.88654
 H523 H 0.53469 0.60978 0.89145
 H524 H 0.49689 0.64833 0.93810
 C525 C 0.14028 0.59384 0.85183
 C526 C 0.09798 0.54019 0.85888
 C527 C 0.10312 0.51296 0.89264
 C528 C 0.14779 0.53718 0.91907
 C529 C 0.18990 0.58962 0.91284
 C530 C 0.18795 0.61746 0.87766
 C531 C 0.13531 0.62565 0.82110
 C532 C 0.17874 0.67652 0.81273
 C533 C 0.22749 0.69721 0.83517
 C534 C 0.23219 0.66827 0.86744
 H535 H 0.09797 0.61173 0.80325
 H536 H 0.17469 0.69979 0.78845
 H537 H 0.26160 0.73624 0.82793
 H538 H 0.27113 0.68587 0.88365
 H539 H 0.07198 0.47211 0.89879
 H540 H 0.14846 0.51490 0.94546
 C541 C 0.45405 0.86074 0.85325
 C542 C 0.44084 0.90189 0.85990
 C543 C 0.40569 0.89654 0.89233
 C544 C 0.38403 0.85247 0.91777
 C545 C 0.39607 0.81142 0.91182
 C546 C 0.42893 0.81394 0.87793
 C547 C 0.49359 0.86589 0.82401
 C548 C 0.50306 0.82382 0.81594
 C549 C 0.47418 0.77619 0.83715
 C550 C 0.43758 0.77115 0.86794
 H551 H 0.51752 0.90232 0.80709
 H552 H 0.53257 0.82805 0.79281
 H553 H 0.48069 0.74319 0.83010
 H554 H 0.41565 0.73313 0.88320
 H555 H 0.39470 0.92699 0.89816
 H556 H 0.35896 0.85145 0.94327
 C557 C 0.52604 0.39492 0.85672
 C558 C 0.54456 0.45000 0.86096
 C559 C 0.58370 0.47899 0.89101
 C560 C 0.60372 0.45457 0.91711
 C561 C 0.58721 0.40036 0.91335
 C562 C 0.55044 0.37085 0.88105
 C563 C 0.48438 0.36337 0.82839
 C564 C 0.47139 0.31110 0.82085
 C565 C 0.49955 0.28948 0.84129
 C566 C 0.53856 0.31881 0.87121
 H567 H 0.46244 0.37919 0.81125
 H568 H 0.44039 0.28775 0.79825
 H569 H 0.49117 0.24978 0.83385
 H570 H 0.56071 0.30103 0.88511
 H571 H 0.59827 0.52107 0.89482
 H572 H 0.63202 0.47859 0.94098
 C573 C 0.86130 0.38315 0.85854
 C574 C 0.89645 0.43908 0.85709
 C575 C 0.88410 0.47180 0.88088
 C576 C 0.83902 0.45017 0.90702
 C577 C 0.80439 0.39496 0.91018
 C578 C 0.81393 0.36095 0.88434
 C579 C 0.87249 0.34872 0.83514
 C580 C 0.83631 0.29402 0.83536
 C581 C 0.78851 0.27261 0.85876
 C582 C 0.77721 0.30555 0.88297
 H583 H 0.90897 0.36368 0.81631
 H584 H 0.84510 0.26818 0.81692
 H585 H 0.75997 0.23021 0.85816
 H586 H 0.73892 0.28715 0.89969
 H587 H 0.91066 0.51459 0.88004
 H588 H 0.83247 0.47696 0.92617
 C589 C 0.50245 0.11814 0.87128
 C590 C 0.53537 0.09549 0.86037
 C591 C 0.58967 0.11812 0.87442
 C592 C 0.61130 0.16169 0.90038
 C593 C 0.57938 0.18430 0.91343
 C594 C 0.52454 0.16347 0.89744
 C595 C 0.44768 0.09625 0.85661
 C596 C 0.41535 0.11883 0.86673
 C597 C 0.43697 0.16379 0.89117
 C598 C 0.49090 0.18626 0.90604
 H599 H 0.42946 0.06168 0.83701
 H600 H 0.37353 0.10175 0.85514
 H601 H 0.41207 0.18193 0.89820
 H602 H 0.50538 0.22237 0.92309
 H603 H 0.61509 0.10095 0.86604
 H604 H 0.65308 0.17655 0.91152
   
