data_POSCAR
  _audit_creation_date              2014-09-24
  _audit_creation_method            'ToBaCCo'
  _symmetry_space_group_name_H-M    'P1'
  _symmetry_Int_Tables_number       1
  _symmetry_cell_setting            triclinic
  loop_
  _symmetry_equiv_pos_as_xyz
 x,y,z
_cell_length_a 38.2839
_cell_length_b 38.3645
_cell_length_c 47.4709
_cell_angle_alpha 87.513000
_cell_angle_beta 89.816900
_cell_angle_gamma 89.953100
loop_
  _atom_site_label
  _atom_site_type_symbol
  _atom_site_fract_x
  _atom_site_fract_y
  _atom_site_fract_z
C1 C 1.18044 0.26110 0.28998
 H2 H 1.17961 0.23295 0.29246
 C3 C 1.16033 0.28131 0.30763
 H4 H 1.14402 0.26847 0.32359
 C5 C 1.20481 0.31193 0.26764
 H6 H 1.22269 0.32385 0.25247
 C7 C 1.18518 0.33312 0.28483
 H8 H 1.18776 0.36119 0.28233
 N9 N 1.20235 0.27659 0.27060
 C10 C 1.22453 0.20629 0.20362
 H11 H 1.25208 0.21173 0.20098
 C12 C 1.20729 0.18674 0.18389
 H13 H 1.22186 0.17662 0.16644
 C14 C 1.17178 0.21407 0.22885
 H15 H 1.15777 0.22543 0.24592
 C16 C 1.15355 0.19424 0.20975
 H17 H 1.12568 0.19046 0.21239
 Zn18 Zn 1.23243 0.24834 0.24939
 N19 N 1.20671 0.21955 0.22556
 C20 C 1.28096 0.19500 0.26417
 N21 N 1.26068 0.22071 0.27427
 C22 C 1.26121 0.22792 0.30198
 C23 C 1.28191 0.20841 0.32089
 C24 C 1.30243 0.17495 0.28225
 C25 C 1.24620 0.29483 0.20403
 C26 C 1.26651 0.31521 0.18533
 C27 C 1.31767 0.29858 0.21247
 C28 C 1.29632 0.27860 0.23075
 N29 N 1.26135 0.27697 0.22611
 H30 H 1.28047 0.18987 0.24200
 H31 H 1.24617 0.24946 0.30951
 H32 H 1.28232 0.21669 0.34234
 H33 H 1.31666 0.15389 0.27310
 H34 H 1.21830 0.29297 0.20090
 H35 H 1.25391 0.32943 0.16797
 H36 H 1.34558 0.29893 0.21607
 H37 H 1.30776 0.26414 0.24846
 C38 C 1.17133 0.18066 0.18679
 C39 C 1.16297 0.31783 0.30543
 C40 C 1.30281 0.31698 0.18925
 C41 C 1.30318 0.18093 0.31150
 C42 C 0.67736 -0.23489 0.29340
 H43 H 0.67577 -0.26295 0.29652
 C44 C 0.65718 -0.21356 0.31020
 H45 H 0.64005 -0.22549 0.32604
 C46 C 0.70322 -0.18539 0.27028
 H47 H 0.72150 -0.17442 0.25496
 C48 C 0.68373 -0.16309 0.28679
 H49 H 0.68691 -0.13515 0.28369
 N50 N 0.69990 -0.22064 0.27389
 C51 C 0.71932 -0.29544 0.20851
 H52 H 0.74675 -0.29025 0.20491
 C53 C 0.70135 -0.31690 0.19045
 H54 H 0.71538 -0.32783 0.17308
 C55 C 0.66754 -0.28530 0.23423
 H56 H 0.65414 -0.27261 0.25096
 C57 C 0.64863 -0.30695 0.21688
 H58 H 0.62111 -0.31108 0.22108
 Zn59 Zn 0.72926 -0.25038 0.25278
 N60 N 0.70238 -0.28018 0.23000
 C61 C 0.77952 -0.30237 0.26732
 N62 N 0.75790 -0.27795 0.27793
 C63 C 0.75724 -0.27238 0.30604
 C64 C 0.77844 -0.29197 0.32464
 C65 C 0.80140 -0.32237 0.28517
 C66 C 0.74388 -0.20688 0.20502
 C67 C 0.76453 -0.18708 0.18602
 C68 C 0.81455 -0.19962 0.21565
 C69 C 0.79296 -0.21927 0.23405
 N70 N 0.75835 -0.22264 0.22839
 H71 H 0.78023 -0.30602 0.24490
 H72 H 0.74057 -0.25246 0.31418
 H73 H 0.77690 -0.28738 0.34695
 H74 H 0.81886 -0.34111 0.27613
 H75 H 0.71630 -0.21008 0.20099
 H76 H 0.75259 -0.17545 0.16723
 H77 H 0.84195 -0.19698 0.22070
 H78 H 0.80387 -0.23173 0.25289
 C79 C 0.66545 -0.32306 0.19449
 C80 C 0.66046 -0.17713 0.30719
 C81 C 0.80045 -0.18332 0.19114
 C82 C 0.80110 -0.31732 0.31431
 C83 C 0.68186 0.26466 -0.20787
 H84 H 0.68057 0.23653 -0.20526
 C85 C 0.66218 0.28541 -0.19025
 H86 H 0.64581 0.27299 -0.17411
 C87 C 0.70611 0.31488 -0.23116
 H88 H 0.72371 0.32635 -0.24677
 C89 C 0.68711 0.33661 -0.21383
 H90 H 0.68985 0.36463 -0.21669
 N91 N 0.70306 0.27957 -0.22804
 C92 C 0.71938 0.20314 -0.29270
 H93 H 0.74740 0.20553 -0.29509
 C94 C 0.70059 0.18199 -0.31047
 H95 H 0.71452 0.16877 -0.32676
 C96 C 0.66743 0.21908 -0.26934
 H97 H 0.65447 0.23384 -0.25352
 C98 C 0.64766 0.19777 -0.28636
 H99 H 0.61976 0.19600 -0.28287
 Zn100 Zn 0.73085 0.24976 -0.25008
 N101 N 0.70269 0.22116 -0.27260
 C102 C 0.75698 0.18604 -0.22507
 N103 N 0.75805 0.22148 -0.22475
 C104 C 0.77794 0.23789 -0.20571
 C105 C 0.79835 0.21861 -0.18632
 C106 C 0.77691 0.16571 -0.20596
 C107 C 0.74559 0.29718 -0.29540
 C108 C 0.76620 0.31714 -0.31433
 C109 C 0.81750 0.29386 -0.29093
 C110 C 0.79580 0.27445 -0.27248
 N111 N 0.76053 0.27665 -0.27480
 H112 H 0.74051 0.17345 -0.24001
 H113 H 0.77808 0.26610 -0.20575
 H114 H 0.81450 0.23232 -0.17176
 H115 H 0.77534 0.13756 -0.20632
 H116 H 0.71743 0.29783 -0.29727
 H117 H 0.75250 0.33163 -0.33087
 H118 H 0.84517 0.29209 -0.28684
 H119 H 0.80736 0.25765 -0.25623
 C120 C 0.66414 0.17890 -0.30744
 C121 C 0.66478 0.32192 -0.19302
 C122 C 0.80322 0.31609 -0.31264
 C123 C 0.79801 0.18196 -0.18621
 C124 C 1.18545 -0.24228 -0.20586
 H125 H 1.18592 -0.27046 -0.20362
 C126 C 1.16568 -0.22305 -0.18727
 H127 H 1.15100 -0.23663 -0.17063
 C128 C 1.20566 -0.19031 -0.22934
 H129 H 1.22181 -0.17756 -0.24534
 C130 C 1.18635 -0.17009 -0.21120
 H131 H 1.18733 -0.14193 -0.21384
 N132 N 1.20485 -0.22572 -0.22641
 C133 C 1.22415 -0.29823 -0.29253
 H134 H 1.25212 -0.29508 -0.29467
 C135 C 1.20607 -0.31886 -0.31102
 H136 H 1.22038 -0.33125 -0.32757
 C137 C 1.17151 -0.28426 -0.26914
 H138 H 1.15809 -0.27032 -0.25305
 C139 C 1.15238 -0.30483 -0.28710
 H140 H 1.12439 -0.30700 -0.28425
 Zn141 Zn 1.23360 -0.25293 -0.24921
 N142 N 1.20677 -0.28159 -0.27204
 C143 C 1.26717 -0.31491 -0.22831
 N144 N 1.26285 -0.28009 -0.22519
 C145 C 1.27935 -0.26329 -0.20442
 C146 C 1.30141 -0.28157 -0.18574
 C147 C 1.28936 -0.33415 -0.21028
 C148 C 1.24453 -0.20456 -0.29392
 C149 C 1.26371 -0.18340 -0.31290
 C150 C 1.31665 -0.20291 -0.28946
 C151 C 1.29644 -0.22365 -0.27090
 N152 N 1.26107 -0.22392 -0.27335
 H153 H 1.25346 -0.32786 -0.24472
 H154 H 1.27531 -0.23559 -0.20242
 H155 H 1.31444 -0.26782 -0.16932
 H156 H 1.29244 -0.36190 -0.21282
 H157 H 1.21637 -0.20564 -0.29554
 H158 H 1.25007 -0.16783 -0.32894
 H159 H 1.34482 -0.20349 -0.28752
 H160 H 1.30913 -0.23983 -0.25480
 C161 C 1.16967 -0.32240 -0.30845
 C162 C 1.16626 -0.18645 -0.18968
 C163 C 1.30029 -0.18251 -0.31084
 C164 C 1.30663 -0.31742 -0.18863
 C165 C 0.27040 0.21198 0.70435
 H166 H 0.24258 0.21666 0.70288
 C167 C 0.28760 0.19459 0.68314
 H168 H 0.27272 0.18613 0.66533
 C169 C 0.32356 0.21882 0.72892
 H170 H 0.33742 0.22844 0.74680
 C171 C 0.34185 0.20139 0.70818
 H172 H 0.36968 0.19732 0.71054
 N173 N 0.28849 0.22379 0.72660
 C174 C 0.21152 0.23540 0.79354
 H175 H 0.21337 0.26321 0.79619
 C176 C 0.18834 0.21548 0.81020
 H177 H 0.17374 0.22879 0.82602
 C178 C 0.23086 0.18531 0.77074
 H179 H 0.24747 0.17370 0.75525
 C180 C 0.20805 0.16422 0.78705
 H181 H 0.20715 0.13677 0.78287
 Zn182 Zn 0.26314 0.24981 0.75276
 N183 N 0.23218 0.22024 0.77424
 C184 C 0.20069 0.28209 0.73229
 N185 N 0.23624 0.28333 0.73121
 C186 C 0.25286 0.30556 0.71252
 C187 C 0.23376 0.32766 0.69415
 C188 C 0.18060 0.30364 0.71427
 C189 C 0.29332 0.26205 0.80589
 C190 C 0.31481 0.27813 0.82514
 C191 C 0.34035 0.31237 0.78658
 C192 C 0.31814 0.29576 0.76804
 N193 N 0.29459 0.27160 0.77794
 H194 H 0.18759 0.26333 0.74616
 H195 H 0.28096 0.30517 0.71090
 H196 H 0.24761 0.34493 0.67935
 H197 H 0.15244 0.30118 0.71489
 H198 H 0.27558 0.24195 0.81351
 H199 H 0.31221 0.27089 0.84734
 H200 H 0.35881 0.33151 0.77818
 H201 H 0.31999 0.30213 0.74575
 C202 C 0.18607 0.17904 0.80736
 C203 C 0.32386 0.18910 0.68481
 C204 C 0.33850 0.30401 0.81567
 C205 C 0.19708 0.32653 0.69459
 C206 C 0.77242 0.70116 0.70837
 H207 H 0.74423 0.70317 0.70847
 C208 C 0.78899 0.67941 0.68974
 H209 H 0.77327 0.66422 0.67587
 C210 C 0.82698 0.71905 0.72628
 H211 H 0.84161 0.73519 0.74013
 C212 C 0.84468 0.69773 0.70784
 H213 H 0.87296 0.69776 0.70763
 N214 N 0.79149 0.72044 0.72608
 C215 C 0.71905 0.74617 0.79287
 H216 H 0.71997 0.77437 0.79121
 C217 C 0.70126 0.72939 0.81534
 H218 H 0.68920 0.74567 0.83063
 C219 C 0.73731 0.69199 0.77603
 H220 H 0.75211 0.67744 0.76112
 C221 C 0.71986 0.67409 0.79809
 H222 H 0.72035 0.64591 0.79835
 Zn223 Zn 0.76648 0.75191 0.74788
 N224 N 0.73686 0.72740 0.77393
 C225 C 0.70610 0.78451 0.72313
 N226 N 0.74145 0.78135 0.72211
 C227 C 0.76049 0.79754 0.70115
 C228 C 0.74409 0.81808 0.68012
 C229 C 0.68860 0.80488 0.70250
 C230 C 0.81340 0.76061 0.79127
 C231 C 0.83248 0.77866 0.81090
 C232 C 0.81884 0.83255 0.78497
 C233 C 0.79957 0.81350 0.76600
 N234 N 0.79700 0.77821 0.76964
 H235 H 0.69141 0.77079 0.73962
 H236 H 0.78854 0.79416 0.70067
 H237 H 0.75980 0.83093 0.66377
 H238 H 0.66039 0.80659 0.70333
 H239 H 0.81050 0.73261 0.79382
 H240 H 0.84469 0.76438 0.82842
 H241 H 0.81984 0.86072 0.78237
 H242 H 0.78570 0.82707 0.74906
 C243 C 0.70185 0.69257 0.81879
 C244 C 0.82563 0.67788 0.68899
 C245 C 0.83487 0.81511 0.80808
 C246 C 0.70763 0.82187 0.68053
 C247 C 0.77325 0.20031 0.21052
 H248 H 0.74510 0.20276 0.21046
 C249 C 0.78961 0.17823 0.19205
 H250 H 0.77374 0.16319 0.17818
 C251 C 0.82796 0.21752 0.22858
 H252 H 0.84275 0.23356 0.24240
 C253 C 0.84547 0.19592 0.21024
 H254 H 0.87375 0.19564 0.21010
 N255 N 0.79250 0.21940 0.22824
 C256 C 0.72127 0.24747 0.29508
 H257 H 0.72367 0.27559 0.29369
 C258 C 0.70305 0.23128 0.31759
 H259 H 0.69143 0.24728 0.33335
 C260 C 0.73603 0.19260 0.27734
 H261 H 0.74983 0.17750 0.26220
 C262 C 0.71780 0.17535 0.29931
 H263 H 0.71686 0.14713 0.30011
 Zn264 Zn 0.76792 0.25155 0.24964
 N265 N 0.73761 0.22804 0.27571
 C266 C 0.70841 0.28516 0.22456
 N267 N 0.74366 0.28113 0.22358
 C268 C 0.76308 0.29655 0.20250
 C269 C 0.74717 0.31716 0.18127
 C270 C 0.69139 0.30560 0.20372
 C271 C 0.81486 0.26005 0.29306
 C272 C 0.83405 0.27812 0.31260
 C273 C 0.82104 0.33188 0.28625
 C274 C 0.80168 0.31281 0.26737
 N275 N 0.79874 0.27759 0.27127
 H276 H 0.69342 0.27207 0.24120
 H277 H 0.79105 0.29251 0.20209
 H278 H 0.76318 0.32939 0.16480
 H279 H 0.66322 0.30799 0.20452
 H280 H 0.81163 0.23209 0.29582
 H281 H 0.84604 0.26390 0.33026
 H282 H 0.82230 0.36002 0.28346
 H283 H 0.78801 0.32634 0.25030
 C284 C 0.70155 0.19466 0.32017
 C285 C 0.82624 0.17627 0.19138
 C286 C 0.83679 0.31454 0.30953
 C287 C 0.71082 0.32180 0.18161
 C288 C 0.27343 0.71122 0.20342
 H289 H 0.24528 0.71366 0.20279
 C290 C 0.29086 0.69353 0.18249
 H291 H 0.27581 0.68257 0.16576
 C292 C 0.32708 0.72420 0.22535
 H293 H 0.34112 0.73663 0.24186
 C294 C 0.34560 0.70653 0.20490
 H295 H 0.37377 0.70491 0.20634
 N296 N 0.29160 0.72597 0.22436
 C297 C 0.21984 0.73681 0.29487
 H298 H 0.22329 0.76434 0.29811
 C299 C 0.19786 0.71696 0.31270
 H300 H 0.18493 0.72940 0.32992
 C301 C 0.23359 0.68723 0.26890
 H302 H 0.24769 0.67576 0.25186
 C303 C 0.21171 0.66637 0.28620
 H304 H 0.20888 0.63901 0.28201
 Zn305 Zn 0.26553 0.75164 0.25037
 N306 N 0.23693 0.72185 0.27336
 C307 C 0.20148 0.78085 0.23082
 N308 N 0.23689 0.78308 0.22886
 C309 C 0.25246 0.80545 0.20971
 C310 C 0.23225 0.82670 0.19153
 C311 C 0.18029 0.80147 0.21294
 C312 C 0.31460 0.75636 0.29371
 C313 C 0.33549 0.77255 0.31338
 C314 C 0.31719 0.82837 0.29318
 C315 C 0.29644 0.81100 0.27414
 N316 N 0.29557 0.77564 0.27464
 H317 H 0.18952 0.76226 0.24559
 H318 H 0.28065 0.80627 0.20823
 H319 H 0.24523 0.84436 0.17649
 H320 H 0.15222 0.79837 0.21424
 H321 H 0.31336 0.72818 0.29374
 H322 H 0.35091 0.75567 0.32724
 H323 H 0.31512 0.85646 0.29251
 H324 H 0.28031 0.82597 0.25944
 C325 C 0.19336 0.68124 0.30841
 C326 C 0.32748 0.69088 0.18304
 C327 C 0.33725 0.80945 0.31379
 C328 C 0.19561 0.82452 0.19270
 O329 O 1.05746 0.01790 0.03333
 O330 O 0.93876 -0.02142 0.03632
 O331 O 0.98021 0.05810 0.03215
 O332 O 1.01760 -0.06073 0.03860
 O333 O 0.93198 0.03703 0.01886
 O334 O 1.06498 -0.04076 0.02122
 O335 O 0.95865 -0.06943 0.02287
 O336 O 1.03837 0.06513 0.01476
 C337 C 1.05313 0.04955 0.03498
 C338 C 0.94251 -0.05304 0.04095
 C339 C 0.94893 0.05262 0.03691
 C340 C 1.04920 -0.05539 0.04149
 O341 O 1.05720 -0.02100 -0.03451
 O342 O 0.93752 0.01511 -0.03520
 O343 O 1.01471 0.05639 -0.03866
 O344 O 0.98124 -0.06362 -0.03138
 O345 O 0.93265 -0.04385 -0.01741
 O346 O 1.06328 0.03793 -0.02271
 O347 O 1.03982 -0.06874 -0.01551
 O348 O 0.95626 0.06341 -0.02155
 Co349 Co 1.05478 -0.00155 -0.00059
 Co350 Co 0.94120 -0.00321 0.00056
 Co351 Co 0.99750 0.05459 -0.00303
 Co352 Co 0.99923 -0.05946 0.00336
 O353 O 0.99813 -0.00242 0.00008
 C354 C 1.05338 -0.05273 -0.03616
 C355 C 0.94040 0.04691 -0.03959
 C356 C 1.04632 0.05208 -0.04249
 C357 C 0.94976 -0.05917 -0.03561
 O358 O 1.06074 0.51681 0.53413
 O359 O 0.94154 0.47983 0.53625
 O360 O 0.98236 0.55852 0.53189
 O361 O 1.02170 0.43993 0.53807
 O362 O 0.93456 0.53836 0.51734
 O363 O 1.06885 0.45861 0.51996
 O364 O 0.96272 0.43172 0.52360
 O365 O 1.04094 0.56473 0.51690
 C366 C 1.05548 0.54819 0.53684
 C367 C 0.94586 0.44828 0.54124
 C368 C 0.95087 0.55371 0.53581
 C369 C 1.05342 0.44449 0.54054
 O370 O 1.06085 0.48097 0.46521
 O371 O 0.94074 0.51499 0.46442
 O372 O 1.01988 0.55700 0.46202
 O373 O 0.98393 0.43743 0.46856
 O374 O 0.93555 0.45616 0.48337
 O375 O 1.06776 0.53949 0.47936
 O376 O 1.04251 0.43268 0.48291
 O377 O 0.96097 0.56352 0.47699
 Co378 Co 1.05844 0.49889 0.49969
 Co379 Co 0.94426 0.49741 0.50032
 Co380 Co 1.00114 0.55496 0.49720
 Co381 Co 1.00265 0.44141 0.50306
 O382 O 1.00155 0.49817 0.50007
 C383 C 1.05609 0.44947 0.46259
 C384 C 0.94476 0.54658 0.45932
 C385 C 1.05170 0.55361 0.45917
 C386 C 0.95234 0.44127 0.46483
 O387 O 0.55149 0.01852 0.53465
 O388 O 0.42893 -0.03936 0.52063
 O389 O 0.46297 0.06946 0.51352
 O390 O 0.53443 -0.04640 0.53565
 O391 O 0.43316 0.02451 0.53080
 O392 O 0.57604 -0.03229 0.50933
 O393 O 0.47587 -0.05361 0.54129
 O394 O 0.52551 0.06609 0.52281
 C395 C 0.54368 0.04884 0.54024
 C396 C 0.44378 -0.05204 0.54175
 C397 C 0.44235 0.05579 0.53201
 C398 C 0.56591 -0.04941 0.53053
 O399 O 0.54983 -0.01027 0.46260
 O400 O 0.43004 0.03914 0.47746
 O401 O 0.53832 0.05246 0.46769
 O402 O 0.46735 -0.06846 0.48482
 O403 O 0.43456 -0.02516 0.46801
 O404 O 0.58514 0.03294 0.48878
 O405 O 0.53058 -0.06061 0.47875
 O406 O 0.47788 0.05415 0.45798
 Co407 Co 0.54831 0.00525 0.49848
 Co408 Co 0.43772 -0.00004 0.49939
 Co409 Co 0.50069 0.05554 0.49144
 Co410 Co 0.50175 -0.05297 0.50926
 O411 O 0.49525 0.00031 0.50050
 C412 C 0.54494 -0.04215 0.45919
 C413 C 0.44581 0.05147 0.45645
 C414 C 0.57078 0.05636 0.47194
 C415 C 0.44556 -0.05596 0.46674
 O416 O 0.55616 0.51714 0.03456
 O417 O 0.43318 0.45964 0.02139
 O418 O 0.46762 0.56831 0.01389
 O419 O 0.53875 0.45233 0.03581
 O420 O 0.43781 0.52354 0.03152
 O421 O 0.58020 0.46616 0.00924
 O422 O 0.48023 0.44526 0.04180
 O423 O 0.53016 0.56475 0.02292
 C424 C 0.54838 0.54741 0.04026
 C425 C 0.44814 0.44675 0.04238
 C426 C 0.44713 0.55481 0.03254
 C427 C 0.57017 0.44919 0.03055
 O428 O 0.55365 0.48820 -0.03741
 O429 O 0.43416 0.53809 -0.02184
 O430 O 0.54254 0.55109 -0.03230
 O431 O 0.47125 0.43039 -0.01463
 O432 O 0.43835 0.47372 -0.03127
 O433 O 0.58947 0.53123 -0.01154
 O434 O 0.53445 0.43796 -0.02102
 O435 O 0.48194 0.55284 -0.04162
 Co436 Co 0.55257 0.50380 -0.00156
 Co437 Co 0.44195 0.49891 0.00008
 Co438 Co 0.50509 0.55424 -0.00833
 Co439 Co 0.50587 0.44578 0.00963
 O440 O 0.49951 0.49905 0.00081
 C441 C 0.54873 0.45630 -0.04069
 C442 C 0.44979 0.55085 -0.04276
 C443 C 0.57508 0.55475 -0.02828
 C444 C 0.44929 0.44289 -0.03256
 C445 C 1.11678 0.12476 0.12399
 C446 C 1.14030 0.15152 0.11608
 C447 C 1.15804 0.16954 0.13653
 C448 C 1.15236 0.16140 0.16530
 C449 C 1.12857 0.13488 0.17327
 C450 C 1.11112 0.11650 0.15276
 C451 C 1.09866 0.10539 0.10210
 C452 C 1.09778 0.06876 0.10360
 C453 C 1.08266 0.05052 0.08190
 C454 C 1.06787 0.06864 0.05849
 C455 C 1.06784 0.10527 0.05745
 C456 C 1.08327 0.12347 0.07897
 H457 H 1.17601 0.19010 0.12987
 H458 H 1.12389 0.12808 0.19534
 H459 H 1.08287 0.02225 0.08328
 H460 H 1.05642 0.11990 0.03975
 H461 H 1.09297 0.09607 0.15933
 H462 H 1.10966 0.05427 0.12116
 H463 H 1.14532 0.15815 0.09403
 H464 H 1.08330 0.15172 0.07752
 C465 C 1.11462 0.61889 0.63044
 C466 C 1.09983 0.64931 0.64090
 C467 C 1.11733 0.66799 0.66113
 C468 C 1.14994 0.65657 0.67148
 C469 C 1.16418 0.62556 0.66167
 C470 C 1.14680 0.60701 0.64132
 C471 C 1.09747 0.60051 0.60735
 C472 C 1.09848 0.56391 0.60674
 C473 C 1.08446 0.54685 0.58398
 C474 C 1.06899 0.56604 0.56144
 C475 C 1.06705 0.60251 0.56239
 C476 C 1.08127 0.61957 0.58505
 H477 H 1.10577 0.69193 0.66806
 H478 H 1.18899 0.61576 0.66954
 H479 H 1.08597 0.51865 0.58393
 H480 H 1.05518 0.61794 0.54533
 H481 H 1.15911 0.58390 0.63352
 H482 H 1.11022 0.54844 0.62383
 H483 H 1.07483 0.65887 0.63325
 H484 H 1.08048 0.64780 0.58466
 C485 C 0.60588 0.11763 0.63418
 C486 C 0.59090 0.14724 0.64592
 C487 C 0.60953 0.16676 0.66502
 C488 C 0.64351 0.15695 0.67336
 C489 C 0.65793 0.12653 0.66249
 C490 C 0.63950 0.10730 0.64305
 C491 C 0.58742 0.09893 0.61161
 C492 C 0.59149 0.06271 0.60884
 C493 C 0.57645 0.04603 0.58615
 C494 C 0.55671 0.06512 0.56591
 C495 C 0.55150 0.10095 0.56928
 C496 C 0.56682 0.11766 0.59167
 H497 H 0.59752 0.19013 0.67260
 H498 H 0.68368 0.11761 0.66881
 H499 H 0.58081 0.01833 0.58417
 H500 H 0.53655 0.11647 0.55399
 H501 H 0.65214 0.08492 0.63435
 H502 H 0.60659 0.04726 0.62404
 H503 H 0.56482 0.15568 0.64011
 H504 H 0.56352 0.14560 0.59264
 C505 C 0.60930 0.61549 0.13505
 C506 C 0.59293 0.64346 0.14809
 C507 C 0.61089 0.66298 0.16759
 C508 C 0.64562 0.65485 0.17492
 C509 C 0.66156 0.62608 0.16267
 C510 C 0.64372 0.60679 0.14291
 C511 C 0.59134 0.59689 0.11222
 C512 C 0.59693 0.56106 0.10855
 C513 C 0.58217 0.54454 0.08567
 C514 C 0.56131 0.56344 0.06608
 C515 C 0.55468 0.59886 0.07031
 C516 C 0.56962 0.61539 0.09296
 H517 H 0.59776 0.68510 0.17628
 H518 H 0.68800 0.61854 0.16815
 H519 H 0.58764 0.51717 0.08302
 H520 H 0.53879 0.61421 0.05557
 H521 H 0.65737 0.58570 0.13318
 H522 H 0.61298 0.54581 0.12322
 H523 H 0.56625 0.65059 0.14300
 H524 H 0.56512 0.64307 0.09471
 C525 C 0.86538 -0.12558 0.13085
 C526 C 0.83154 -0.11389 0.13720
 C527 C 0.81070 -0.13233 0.15696
 C528 C 0.82309 -0.16300 0.17083
 C529 C 0.85710 -0.17445 0.16475
 C530 C 0.87798 -0.15596 0.14504
 C531 C 0.88692 -0.10676 0.10889
 C532 C 0.90733 -0.12539 0.08996
 C533 C 0.92608 -0.10788 0.06835
 C534 C 0.92478 -0.07133 0.06509
 C535 C 0.90512 -0.05259 0.08440
 C536 C 0.88643 -0.07010 0.10606
 H537 H 0.78483 -0.12251 0.16139
 H538 H 0.86738 -0.19814 0.17481
 H539 H 0.94099 -0.12304 0.05380
 H540 H 0.90378 -0.02437 0.08254
 H541 H 0.90405 -0.16548 0.14090
 H542 H 0.90799 -0.15362 0.09129
 H543 H 0.82083 -0.09084 0.12646
 H544 H 0.87149 -0.05492 0.12057
 C545 C 0.86716 0.37447 0.62950
 C546 C 0.83196 0.38324 0.63319
 C547 C 0.81085 0.36417 0.65237
 C548 C 0.82411 0.33534 0.66882
 C549 C 0.86001 0.32727 0.66502
 C550 C 0.88094 0.34642 0.64575
 C551 C 0.88908 0.39386 0.60814
 C552 C 0.91240 0.37589 0.59099
 C553 C 0.93154 0.39374 0.56980
 C554 C 0.92782 0.42998 0.56522
 C555 C 0.90529 0.44815 0.58286
 C556 C 0.88610 0.43028 0.60406
 H557 H 0.78446 0.37356 0.65469
 H558 H 0.87233 0.30504 0.67555
 H559 H 0.94871 0.37900 0.55657
 H560 H 0.90197 0.47612 0.57995
 H561 H 0.90809 0.33905 0.64350
 H562 H 0.91506 0.34782 0.59337
 H563 H 0.82044 0.40472 0.62091
 H564 H 0.86880 0.44496 0.61720
 C565 C 0.36184 -0.12187 0.62912
 C566 C 0.33228 -0.14015 0.62043
 C567 C 0.31225 -0.15963 0.63996
 C568 C 0.32131 -0.16122 0.66862
 C569 C 0.35085 -0.14286 0.67736
 C570 C 0.37097 -0.12340 0.65777
 C571 C 0.38322 -0.10179 0.60811
 C572 C 0.41987 -0.10370 0.60874
 C573 C 0.43980 -0.08681 0.58754
 C574 C 0.42335 -0.06775 0.56540
 C575 C 0.38678 -0.06485 0.56537
 C576 C 0.36693 -0.08170 0.58650
 H577 H 0.29006 -0.17405 0.63251
 H578 H 0.35819 -0.14327 0.69938
 H579 H 0.46797 -0.08939 0.58810
 H580 H 0.37340 -0.05000 0.54874
 H581 H 0.39344 -0.10926 0.66505
 H582 H 0.43306 -0.11920 0.62509
 H583 H 0.32504 -0.13997 0.59839
 H584 H 0.33876 -0.07926 0.58581
 C585 C 0.36661 0.37561 0.12940
 C586 C 0.33824 0.35585 0.12036
 C587 C 0.31773 0.33678 0.13979
 C588 C 0.32501 0.33714 0.16876
 C589 C 0.35361 0.35667 0.17783
 C590 C 0.37430 0.37567 0.15830
 C591 C 0.38788 0.39599 0.10850
 C592 C 0.42455 0.39536 0.10968
 C593 C 0.44438 0.41254 0.08854
 C594 C 0.42779 0.43070 0.06597
 C595 C 0.39115 0.43235 0.06545
 C596 C 0.37142 0.41515 0.08646
 H597 H 0.29642 0.32134 0.13207
 H598 H 0.35965 0.35773 0.20004
 H599 H 0.47260 0.41095 0.08950
 H600 H 0.37763 0.44645 0.04849
 H601 H 0.39589 0.39091 0.16580
 H602 H 0.43784 0.38063 0.12642
 H603 H 0.33219 0.35478 0.09814
 H604 H 0.34320 0.41657 0.08534
 C605 C 0.86078 0.12212 -0.12604
 C606 C 0.84364 0.15268 -0.11830
 C607 C 0.82312 0.17182 -0.13771
 C608 C 0.81930 0.16098 -0.16545
 C609 C 0.83616 0.13017 -0.17313
 C610 C 0.85660 0.11090 -0.15361
 C611 C 0.88295 0.10229 -0.10527
 C612 C 0.88143 0.06566 -0.10262
 C613 C 0.90076 0.04741 -0.08175
 C614 C 0.92205 0.06546 -0.06321
 C615 C 0.92446 0.10195 -0.06655
 C616 C 0.90511 0.12013 -0.08729
 H617 H 0.80991 0.19494 -0.13086
 H618 H 0.83413 0.12130 -0.19441
 H619 H 0.89843 0.01927 -0.07971
 H620 H 0.94088 0.11660 -0.05278
 H621 H 0.86973 0.08762 -0.16025
 H622 H 0.86447 0.05122 -0.11611
 H623 H 0.84577 0.16161 -0.09704
 H624 H 0.90735 0.14828 -0.08916
 C625 C 0.86770 0.62276 0.37180
 C626 C 0.86059 0.65814 0.37600
 C627 C 0.83944 0.67754 0.35721
 C628 C 0.82444 0.66206 0.33383
 C629 C 0.83171 0.62673 0.32947
 C630 C 0.85313 0.60735 0.34819
 C631 C 0.88943 0.60203 0.39247
 C632 C 0.88120 0.56703 0.39980
 C633 C 0.90002 0.54849 0.42079
 C634 C 0.92721 0.56467 0.43512
 C635 C 0.93625 0.59917 0.42717
 C636 C 0.91774 0.61756 0.40600
 H637 H 0.83496 0.70480 0.36102
 H638 H 0.82036 0.61383 0.31185
 H639 H 0.89245 0.52191 0.42651
 H640 H 0.95741 0.61214 0.43760
 H641 H 0.85833 0.58030 0.34409
 H642 H 0.85939 0.55430 0.39008
 H643 H 0.87085 0.67081 0.39415
 H644 H 0.92543 0.64412 0.40042
 C645 C 0.36519 0.12063 0.36850
 C646 C 0.33637 0.13929 0.37801
 C647 C 0.31593 0.15924 0.35921
 C648 C 0.32342 0.16123 0.32991
 C649 C 0.35264 0.14191 0.32066
 C650 C 0.37329 0.12224 0.33971
 C651 C 0.38658 0.09983 0.38895
 C652 C 0.42320 0.10244 0.38880
 C653 C 0.44286 0.08574 0.41023
 C654 C 0.42613 0.06612 0.43202
 C655 C 0.38968 0.06214 0.43125
 C656 C 0.37014 0.07885 0.40998
 H657 H 0.29322 0.17145 0.36807
 H658 H 0.36121 0.14303 0.29894
 H659 H 0.47094 0.08912 0.41027
 H660 H 0.37609 0.04680 0.44754
 H661 H 0.39557 0.10811 0.33190
 H662 H 0.43644 0.11857 0.37282
 H663 H 0.32961 0.13856 0.40020
 H664 H 0.34200 0.07592 0.41026
 C665 C 0.37043 0.62358 -0.12970
 C666 C 0.34561 0.64740 -0.12024
 C667 C 0.32525 0.66683 -0.13946
 C668 C 0.32906 0.66255 -0.16851
 C669 C 0.35399 0.63884 -0.17804
 C670 C 0.37477 0.61969 -0.15876
 C671 C 0.39103 0.60251 -0.10898
 C672 C 0.42757 0.60050 -0.11114
 C673 C 0.44695 0.58295 -0.08996
 C674 C 0.42993 0.56688 -0.06654
 C675 C 0.39327 0.56771 -0.06517
 C676 C 0.37406 0.58547 -0.08609
 H677 H 0.30603 0.68476 -0.13161
 H678 H 0.35750 0.63532 -0.20039
 H679 H 0.47517 0.58260 -0.09156
 H680 H 0.37937 0.55536 -0.04752
 H681 H 0.39370 0.60137 -0.16646
 H682 H 0.44115 0.61354 -0.12865
 H683 H 0.34205 0.65102 -0.09791
 H684 H 0.34587 0.58628 -0.08424
 C685 C 1.11289 -0.12672 -0.12812
 C686 C 1.09663 -0.15578 -0.13947
 C687 C 1.11373 -0.17497 -0.15973
 C688 C 1.14737 -0.16541 -0.16908
 C689 C 1.16338 -0.13605 -0.15804
 C690 C 1.14634 -0.11693 -0.13778
 C691 C 1.09577 -0.10744 -0.10547
 C692 C 1.09834 -0.07091 -0.10501
 C693 C 1.08415 -0.05303 -0.08267
 C694 C 1.06714 -0.07134 -0.06035
 C695 C 1.06377 -0.10772 -0.06115
 C696 C 1.07798 -0.12560 -0.08346
 H697 H 1.10061 -0.19722 -0.16816
 H698 H 1.18953 -0.12842 -0.16449
 H699 H 1.08683 -0.02491 -0.08273
 H700 H 1.05062 -0.12247 -0.04428
 H701 H 1.15981 -0.09507 -0.12907
 H702 H 1.11143 -0.05618 -0.12191
 H703 H 1.07066 -0.16363 -0.13271
 H704 H 1.07591 -0.15376 -0.08306
 C705 C 1.11135 0.37852 0.36733
 C706 C 1.09376 0.35090 0.35499
 C707 C 1.11017 0.33165 0.33441
 C708 C 1.14445 0.33968 0.32571
 C709 C 1.16167 0.36785 0.33754
 C710 C 1.14531 0.38704 0.35812
 C711 C 1.09521 0.39723 0.39075
 C712 C 1.09956 0.43344 0.39264
 C713 C 1.08646 0.45057 0.41581
 C714 C 1.06881 0.43178 0.43755
 C715 C 1.06367 0.39577 0.43533
 C716 C 1.07675 0.37867 0.41218
 H717 H 1.09611 0.31037 0.32537
 H718 H 1.18831 0.37429 0.33164
 H719 H 1.09049 0.47843 0.41685
 H720 H 1.04996 0.38068 0.45169
 H721 H 1.15976 0.40777 0.36756
 H722 H 1.11324 0.44850 0.37625
 H723 H 1.06738 0.34407 0.36137
 H724 H 1.07332 0.35071 0.41149
 C725 C 0.60491 -0.11318 0.36517
 C726 C 0.58799 -0.14087 0.35230
 C727 C 0.60576 -0.16115 0.33308
 C728 C 0.64080 -0.15409 0.32606
 C729 C 0.65738 -0.12569 0.33814
 C730 C 0.63969 -0.10554 0.35751
 C731 C 0.58718 -0.09386 0.38777
 C732 C 0.59286 -0.05793 0.39067
 C733 C 0.57829 -0.04068 0.41336
 C734 C 0.55777 -0.05903 0.43362
 C735 C 0.55115 -0.09462 0.43016
 C736 C 0.56569 -0.11180 0.40760
 H737 H 0.59211 -0.18250 0.32377
 H738 H 0.68449 -0.11984 0.33342
 H739 H 0.58376 -0.01321 0.41539
 H740 H 0.53539 -0.10953 0.44535
 H741 H 0.65374 -0.08481 0.36729
 H742 H 0.60884 -0.04319 0.37555
 H743 H 0.56102 -0.14708 0.35725
 H744 H 0.56110 -0.13953 0.40633
 C745 C 0.60918 0.38489 -0.13434
 C746 C 0.59259 0.35676 -0.14687
 C747 C 0.61042 0.33670 -0.16620
 C748 C 0.64519 0.34441 -0.17368
 C749 C 0.66146 0.37316 -0.16185
 C750 C 0.64371 0.39310 -0.14236
 C751 C 0.59133 0.40422 -0.11180
 C752 C 0.59640 0.44032 -0.10927
 C753 C 0.58168 0.45766 -0.08670
 C754 C 0.56160 0.43926 -0.06617
 C755 C 0.55560 0.40349 -0.06924
 C756 C 0.57030 0.38620 -0.09169
 H757 H 0.59699 0.31508 -0.17531
 H758 H 0.68837 0.37952 -0.16694
 H759 H 0.58670 0.48527 -0.08497
 H760 H 0.54025 0.38851 -0.05381
 H761 H 0.65752 0.41418 -0.13284
 H762 H 0.61201 0.45512 -0.12462
 H763 H 0.56581 0.35010 -0.14162
 H764 H 0.56619 0.35837 -0.09266
 C765 C 1.12052 0.11829 -0.13661
 C766 C 1.14884 0.10284 -0.15020
 C767 C 1.16979 0.12239 -0.16920
 C768 C 1.16321 0.15824 -0.17513
 C769 C 1.13361 0.17300 -0.16226
 C770 C 1.11276 0.15338 -0.14332
 C771 C 1.10058 0.09872 -0.11412
 C772 C 1.06428 0.10323 -0.11117
 C773 C 1.04630 0.08732 -0.08833
 C774 C 1.06431 0.06669 -0.06796
 C775 C 1.10032 0.06117 -0.07148
 C776 C 1.11824 0.07701 -0.09426
 H777 H 1.19226 0.10943 -0.17777
 H778 H 1.12582 0.19970 -0.16693
 H779 H 1.01849 0.09181 -0.08627
 H780 H 1.11488 0.04523 -0.05622
 H781 H 1.09110 0.16613 -0.13324
 H782 H 1.04985 0.11939 -0.12634
 H783 H 1.15527 0.07568 -0.14571
 H784 H 1.14622 0.07330 -0.09569
 C785 C 1.12835 0.62059 0.36656
 C786 C 1.15894 0.60617 0.35539
 C787 C 1.17964 0.62551 0.33610
 C788 C 1.17018 0.65972 0.32742
 C789 C 1.13895 0.67367 0.33783
 C790 C 1.11834 0.65439 0.35721
 C791 C 1.10814 0.60139 0.38910
 C792 C 1.07145 0.60348 0.39021
 C793 C 1.05288 0.58740 0.41266
 C794 C 1.07065 0.56891 0.43443
 C795 C 1.10717 0.56599 0.43289
 C796 C 1.12569 0.58210 0.41056
 H797 H 1.20361 0.61402 0.32866
 H798 H 1.13056 0.69970 0.33120
 H799 H 1.02470 0.58987 0.41320
 H800 H 1.12161 0.55184 0.44931
 H801 H 1.09515 0.66644 0.36554
 H802 H 1.05710 0.61771 0.37380
 H803 H 1.16713 0.58001 0.36182
 H804 H 1.15391 0.58035 0.41064
 C805 C 0.64953 0.14136 0.39055
 C806 C 0.68042 0.12781 0.37927
 C807 C 0.69747 0.14530 0.35674
 C808 C 0.68394 0.17666 0.34475
 C809 C 0.65346 0.19058 0.35644
 C810 C 0.63658 0.17325 0.37912
 C811 C 0.62976 0.12135 0.41295
 C812 C 0.59310 0.12057 0.41215
 C813 C 0.57424 0.10029 0.43191
 C814 C 0.59147 0.07992 0.45290
 C815 C 0.62807 0.08114 0.45426
 C816 C 0.64706 0.10171 0.43447
 H817 H 0.72131 0.13417 0.34871
 H818 H 0.64214 0.21453 0.34769
 H819 H 0.54603 0.09987 0.43023
 H820 H 0.64200 0.06580 0.47028
 H821 H 0.61316 0.18476 0.38757
 H822 H 0.57888 0.13476 0.39565
 H823 H 0.69097 0.10317 0.38733
 H824 H 0.67526 0.10210 0.43593
 C825 C 0.65248 0.63891 -0.11100
 C826 C 0.68009 0.62342 -0.12536
 C827 C 0.69637 0.64100 -0.14823
 C828 C 0.68557 0.67484 -0.15761
 C829 C 0.65817 0.69042 -0.14254
 C830 C 0.64199 0.67275 -0.11968
 C831 C 0.63334 0.61912 -0.08817
 C832 C 0.59676 0.62104 -0.08679
 C833 C 0.57822 0.60088 -0.06671
 C834 C 0.59572 0.57818 -0.04748
 C835 C 0.63237 0.57683 -0.04822
 C836 C 0.65102 0.59708 -0.06844
 H837 H 0.71814 0.62799 -0.15782
 H838 H 0.64775 0.71572 -0.14889
 H839 H 0.54997 0.60245 -0.06677
 H840 H 0.64654 0.55961 -0.03364
 H841 H 0.62090 0.68556 -0.10893
 H842 H 0.58226 0.63727 -0.10188
 H843 H 0.68873 0.59728 -0.11929
 H844 H 0.67925 0.59534 -0.06877
 C845 C 0.88344 -0.12697 -0.12731
 C846 C 0.85917 -0.15336 -0.12030
 C847 C 0.84377 -0.17237 -0.14134
 C848 C 0.85201 -0.16506 -0.16982
 C849 C 0.87603 -0.13844 -0.17692
 C850 C 0.89190 -0.11975 -0.15579
 C851 C 0.90026 -0.10762 -0.10479
 C852 C 0.93670 -0.10382 -0.10424
 C853 C 0.95277 -0.08772 -0.08187
 C854 C 0.93261 -0.07473 -0.05984
 C855 C 0.89608 -0.07752 -0.06088
 C856 C 0.88006 -0.09408 -0.08305
 H857 H 0.82503 -0.19253 -0.13539
 H858 H 0.88278 -0.13241 -0.19877
 H859 H 0.98100 -0.08572 -0.08166
 H860 H 0.87993 -0.06760 -0.04425
 H861 H 0.91049 -0.09942 -0.16166
 H862 H 0.95279 -0.11424 -0.12070
 H863 H 0.85249 -0.15958 -0.09847
 H864 H 0.85188 -0.09647 -0.08320
 C865 C 0.88537 0.37293 0.37379
 C866 C 0.86117 0.34654 0.38097
 C867 C 0.84577 0.32735 0.36004
 C868 C 0.85397 0.33447 0.33152
 C869 C 0.87794 0.36108 0.32427
 C870 C 0.89377 0.37997 0.34528
 C871 C 0.90228 0.39241 0.39618
 C872 C 0.93869 0.39651 0.39640
 C873 C 0.95491 0.41277 0.41860
 C874 C 0.93495 0.42558 0.44080
 C875 C 0.89843 0.42248 0.44012
 C876 C 0.88225 0.40579 0.41808
 H877 H 0.82704 0.30723 0.36610
 H878 H 0.88466 0.36696 0.30240
 H879 H 0.98312 0.41502 0.41854
 H880 H 0.88244 0.43227 0.45690
 H881 H 0.91231 0.40030 0.33929
 H882 H 0.95466 0.38621 0.37982
 H883 H 0.85455 0.34044 0.40283
 H884 H 0.85408 0.40318 0.41818
 C885 C 0.39155 -0.13724 0.37636
 C886 C 0.38392 -0.17282 0.38034
 C887 C 0.36691 -0.19089 0.35936
 C888 C 0.35650 -0.17383 0.33356
 C889 C 0.36617 -0.13828 0.32947
 C890 C 0.38331 -0.12050 0.35040
 C891 C 0.40607 -0.11692 0.39961
 C892 C 0.39327 -0.08327 0.40398
 C893 C 0.40616 -0.06383 0.42576
 C894 C 0.43215 -0.07749 0.44396
 C895 C 0.44499 -0.11124 0.43979
 C896 C 0.43202 -0.13081 0.41782
 H897 H 0.35992 -0.21760 0.36480
 H898 H 0.36180 -0.12381 0.30977
 H899 H 0.39551 -0.03799 0.42837
 H900 H 0.46513 -0.12241 0.45337
 H901 H 0.39005 -0.09335 0.34624
 H902 H 0.37279 -0.07206 0.39076
 H903 H 0.38964 -0.18642 0.40026
 H904 H 0.44257 -0.15659 0.41487
 C905 C 0.39462 0.36092 -0.12232
 C906 C 0.38982 0.32470 -0.11858
 C907 C 0.37273 0.30598 -0.13911
 C908 C 0.35990 0.32306 -0.16382
 C909 C 0.36599 0.35903 -0.16801
 C910 C 0.38324 0.37767 -0.14760
 C911 C 0.40938 0.38162 -0.09936
 C912 C 0.39507 0.41438 -0.09391
 C913 C 0.40810 0.43396 -0.07224
 C914 C 0.43567 0.42127 -0.05520
 C915 C 0.45000 0.38842 -0.06043
 C916 C 0.43699 0.36878 -0.08233
 H917 H 0.36910 0.27818 -0.13540
 H918 H 0.35630 0.37315 -0.18663
 H919 H 0.39628 0.45908 -0.06874
 H920 H 0.47139 0.37804 -0.04777
 H921 H 0.38711 0.40543 -0.15142
 H922 H 0.37329 0.42475 -0.10612
 H923 H 0.39813 0.31100 -0.09934
 H924 H 0.44878 0.34375 -0.08611
 C925 C 1.13110 -0.11900 0.13185
 C926 C 1.16360 -0.13266 0.12401
 C927 C 1.18453 -0.15063 0.14380
 C928 C 1.17359 -0.15529 0.17200
 C929 C 1.14107 -0.14151 0.17989
 C930 C 1.11999 -0.12366 0.15999
 C931 C 1.10900 -0.10036 0.11042
 C932 C 1.07294 -0.10702 0.10875
 C933 C 1.05300 -0.09165 0.08683
 C934 C 1.06882 -0.06936 0.06627
 C935 C 1.10452 -0.06158 0.06874
 C936 C 1.12435 -0.07692 0.09052
 H937 H 1.20896 -0.16159 0.13679
 H938 H 1.13202 -0.14430 0.20150
 H939 H 1.02551 -0.09799 0.08549
 H940 H 1.11736 -0.04411 0.05347
 H941 H 1.09519 -0.11313 0.16665
 H942 H 1.06046 -0.12509 0.12376
 H943 H 1.17256 -0.13009 0.10236
 H944 H 1.15190 -0.07074 0.09161
 C945 C 1.13488 0.38300 0.63219
 C946 C 1.16739 0.36877 0.62502
 C947 C 1.18773 0.35105 0.64535
 C948 C 1.17615 0.34716 0.67343
 C949 C 1.14376 0.36173 0.68070
 C950 C 1.12331 0.37939 0.66027
 C951 C 1.11310 0.40090 0.61013
 C952 C 1.07692 0.39478 0.60872
 C953 C 1.05712 0.40956 0.58649
 C954 C 1.07319 0.43071 0.56530
 C955 C 1.10907 0.43783 0.56735
 C956 C 1.12877 0.42311 0.58948
 H957 H 1.21211 0.33950 0.63886
 H958 H 1.13426 0.35954 0.70221
 H959 H 1.02948 0.40375 0.58548
 H960 H 1.12210 0.45442 0.55156
 H961 H 1.09855 0.39042 0.66647
 H962 H 1.06417 0.37761 0.62426
 H963 H 1.17673 0.37055 0.60345
 H964 H 1.15642 0.42888 0.59031
 C965 C 0.65271 -0.11984 0.61472
 C966 C 0.68196 -0.14010 0.60819
 C967 C 0.70014 -0.15863 0.62957
 C968 C 0.68950 -0.15717 0.65791
 C969 C 0.66091 -0.13601 0.66445
 C970 C 0.64277 -0.11756 0.64313
 C971 C 0.63126 -0.10262 0.59211
 C972 C 0.59473 -0.10412 0.59406
 C973 C 0.57396 -0.08740 0.57362
 C974 C 0.58909 -0.06869 0.55059
 C975 C 0.62565 -0.06774 0.54807
 C976 C 0.64661 -0.08470 0.56868
 H977 H 0.72187 -0.17496 0.62380
 H978 H 0.65252 -0.13371 0.68610
 H979 H 0.54585 -0.08889 0.57606
 H980 H 0.63794 -0.05345 0.53055
 H981 H 0.62075 -0.10159 0.64888
 H982 H 0.58210 -0.11837 0.61145
 H983 H 0.69002 -0.14260 0.58649
 H984 H 0.67475 -0.08312 0.56668
 C985 C 0.65698 0.37986 0.11516
 C986 C 0.68587 0.35899 0.10887
 C987 C 0.70376 0.34057 0.13047
 C988 C 0.69317 0.34279 0.15877
 C989 C 0.66503 0.36464 0.16505
 C990 C 0.64717 0.38296 0.14352
 C991 C 0.63558 0.39670 0.09238
 C992 C 0.59907 0.39519 0.09436
 C993 C 0.57829 0.41160 0.07380
 C994 C 0.59340 0.43005 0.05063
 C995 C 0.62995 0.43095 0.04806
 C996 C 0.65094 0.41426 0.06879
 H997 H 0.72515 0.32370 0.12491
 H998 H 0.65673 0.36753 0.18665
 H999 H 0.55018 0.41015 0.07628
 H1000 H 0.64222 0.44503 0.03042
 H1001 H 0.62541 0.39940 0.14903
 H1002 H 0.58647 0.38119 0.11190
 H1003 H 0.69380 0.35589 0.08721
 H1004 H 0.67908 0.41578 0.06677
 C1005 C 0.87874 0.11725 0.12878
 C1006 C 0.89218 0.11805 0.15625
 C1007 C 0.87498 0.13683 0.17675
 C1008 C 0.84415 0.15531 0.17010
 C1009 C 0.83081 0.15440 0.14259
 C1010 C 0.84784 0.13550 0.12221
 C1011 C 0.89723 0.09841 0.10663
 C1012 C 0.87838 0.07847 0.08776
 C1013 C 0.89534 0.06296 0.06546
 C1014 C 0.93147 0.06722 0.06151
 C1015 C 0.95054 0.08624 0.08088
 C1016 C 0.93357 0.10166 0.10328
 H1017 H 0.88569 0.13670 0.19784
 H1018 H 0.80760 0.16900 0.13656
 H1019 H 0.88005 0.04810 0.05103
 H1020 H 0.97848 0.08978 0.07844
 H1021 H 0.83729 0.13590 0.10106
 H1022 H 0.85042 0.07514 0.09013
 H1023 H 0.91583 0.10394 0.16189
 H1024 H 0.94867 0.11708 0.11742
 C1025 C 0.87874 0.61906 0.62654
 C1026 C 0.89194 0.61987 0.65409
 C1027 C 0.87457 0.63863 0.67451
 C1028 C 0.84374 0.65703 0.66774
 C1029 C 0.83056 0.65606 0.64018
 C1030 C 0.84781 0.63723 0.61985
 C1031 C 0.89756 0.60030 0.60446
 C1032 C 0.87903 0.58066 0.58518
 C1033 C 0.89645 0.56496 0.56317
 C1034 C 0.93273 0.56872 0.55994
 C1035 C 0.95143 0.58756 0.57966
 C1036 C 0.93400 0.60318 0.60173
 H1037 H 0.88513 0.63853 0.69565
 H1038 H 0.80732 0.67056 0.63408
 H1039 H 0.88143 0.55027 0.54845
 H1040 H 0.97947 0.59075 0.57777
 H1041 H 0.83741 0.63764 0.59865
 H1042 H 0.85099 0.57759 0.58705
 H1043 H 0.91557 0.60581 0.65987
 H1044 H 0.94891 0.61840 0.61615
 C1045 C 0.37752 0.13469 0.61958
 C1046 C 0.39338 0.16325 0.63201
 C1047 C 0.37609 0.18092 0.65321
 C1048 C 0.34254 0.17047 0.66237
 C1049 C 0.32670 0.14206 0.64976
 C1050 C 0.34387 0.12453 0.62860
 C1051 C 0.39591 0.11491 0.59767
 C1052 C 0.39277 0.07845 0.59774
 C1053 C 0.40820 0.05958 0.57658
 C1054 C 0.42746 0.07656 0.55477
 C1055 C 0.43167 0.11293 0.55506
 C1056 C 0.41597 0.13196 0.57630
 H1057 H 0.38887 0.20297 0.66223
 H1058 H 0.30109 0.13302 0.65648
 H1059 H 0.40486 0.03151 0.57731
 H1060 H 0.44651 0.12671 0.53862
 H1061 H 0.33064 0.10300 0.61919
 H1062 H 0.37832 0.06436 0.61424
 H1063 H 0.41936 0.17158 0.62568
 H1064 H 0.41879 0.16006 0.57561
 C1065 C 0.38205 0.63494 0.11916
 C1066 C 0.39648 0.66543 0.12967
 C1067 C 0.37888 0.68364 0.15038
 C1068 C 0.34645 0.67175 0.16103
 C1069 C 0.33205 0.64134 0.15039
 C1070 C 0.34950 0.62331 0.12966
 C1071 C 0.40073 0.61486 0.09757
 C1072 C 0.39951 0.57823 0.09896
 C1073 C 0.41500 0.55904 0.07802
 C1074 C 0.43247 0.57587 0.05517
 C1075 C 0.43492 0.61245 0.05418
 C1076 C 0.41907 0.63179 0.07515
 H1077 H 0.39052 0.70722 0.15784
 H1078 H 0.30738 0.63115 0.15831
 H1079 H 0.41312 0.53085 0.07970
 H1080 H 0.44832 0.62612 0.03688
 H1081 H 0.33730 0.60027 0.12173
 H1082 H 0.38647 0.56428 0.11629
 H1083 H 0.42161 0.67496 0.12219
 H1084 H 0.42037 0.65999 0.07338
   
