data_POSCAR
  _audit_creation_date              2014-09-24
  _audit_creation_method            'ToBaCCo'
  _symmetry_space_group_name_H-M    'P1'
  _symmetry_Int_Tables_number       1
  _symmetry_cell_setting            triclinic
  loop_
  _symmetry_equiv_pos_as_xyz
 x,y,z
_cell_length_a 29.7036
_cell_length_b 29.7015
_cell_length_c 77.7344
_cell_angle_alpha 86.255100
_cell_angle_beta 91.679100
_cell_angle_gamma 121.278500
loop_
  _atom_site_label
  _atom_site_type_symbol
  _atom_site_fract_x
  _atom_site_fract_y
  _atom_site_fract_z
C1 C -0.02324 0.11197 0.52040
 H2 H 0.01519 0.11629 0.51992
 C3 C -0.03144 0.14370 0.53074
 H4 H 0.00102 0.17220 0.53826
 C5 C -0.11287 0.06681 0.51198
 H6 H -0.14456 0.03606 0.50486
 C7 C -0.12287 0.09775 0.52221
 H8 H -0.16229 0.09106 0.52268
 N9 N -0.06387 0.07387 0.51154
 C10 C -0.04224 -0.06050 0.51161
 H11 H -0.03918 -0.06453 0.49803
 C12 C -0.04303 -0.09775 0.52378
 H13 H -0.04045 -0.13026 0.51944
 C14 C -0.05247 -0.01508 0.53367
 H15 H -0.05694 0.01660 0.53756
 C16 C -0.05329 -0.05121 0.54621
 H17 H -0.05732 -0.04605 0.55963
 Zn18 Zn -0.05087 0.02764 0.50004
 N19 N -0.04719 -0.02026 0.51671
 C20 C 0.04986 0.05380 0.48726
 N21 N 0.01365 0.06871 0.48768
 C22 C 0.02192 0.11358 0.47894
 C23 C 0.06682 0.14420 0.46872
 C24 C 0.09530 0.08320 0.47712
 C25 C -0.14065 -0.06320 0.48766
 C26 C -0.17662 -0.09366 0.47517
 C27 C -0.14278 -0.01524 0.45623
 C28 C -0.10779 0.01357 0.46914
 N29 N -0.10588 -0.01096 0.48425
 H30 H 0.04339 0.01874 0.49454
 H31 H -0.00680 0.12533 0.47975
 H32 H 0.07163 0.17876 0.46142
 H33 H 0.12333 0.07035 0.47674
 H34 H -0.13951 -0.08193 0.49991
 H35 H -0.20036 -0.13553 0.47838
 H36 H -0.14292 0.00687 0.44465
 H37 H -0.08120 0.05549 0.46686
 C38 C -0.04925 -0.09366 0.54134
 C39 C -0.08199 0.13624 0.53199
 C40 C -0.17705 -0.07066 0.45863
 C41 C 0.10386 0.12868 0.46749
 C42 C 1.12073 0.01711 0.14150
 H43 H 1.12509 0.05555 0.14178
 C44 C 1.15230 0.00965 0.13055
 H45 H 1.18049 0.04259 0.12226
 C46 C 1.07706 -0.07276 0.15163
 H47 H 1.04787 -0.10462 0.15996
 C48 C 1.10794 -0.08201 0.14084
 H49 H 1.10229 -0.12110 0.14100
 N50 N 1.08347 -0.02394 0.15155
 C51 C 0.96999 0.02553 0.15738
 H52 H 0.97040 0.02955 0.17113
 C53 C 0.93659 0.03511 0.14678
 H54 H 0.91166 0.04704 0.15235
 C55 C 0.99971 0.00236 0.13341
 H56 H 1.02322 -0.01173 0.12826
 C57 C 0.96627 0.01044 0.12246
 H58 H 0.96509 0.00348 0.10890
 Zn59 Zn 1.04192 -0.00854 0.16514
 N60 N 1.00106 0.00994 0.15054
 C61 C 1.08883 0.09243 0.18013
 N62 N 1.08887 0.04688 0.17909
 C63 C 1.12226 0.03735 0.18874
 C64 C 1.15478 0.07251 0.20086
 C65 C 1.12088 0.12886 0.19214
 C66 C 0.95614 -0.11206 0.17207
 C67 C 0.91849 -0.15516 0.18233
 C68 C 0.96024 -0.10658 0.20755
 C69 C 0.99679 -0.06450 0.19685
 N70 N 0.99441 -0.06795 0.17945
 H71 H 1.06300 0.09997 0.17204
 H72 H 1.12207 0.00121 0.18744
 H73 H 1.18010 0.06345 0.20871
 H74 H 1.11870 0.16378 0.19339
 H75 H 0.95449 -0.11344 0.15818
 H76 H 0.88828 -0.18997 0.17626
 H77 H 0.96224 -0.10239 0.22133
 H78 H 1.02619 -0.02863 0.20251
 C79 C 0.93410 0.02678 0.12914
 C80 C 1.14594 -0.04051 0.13001
 C81 C 0.92028 -0.15264 0.20034
 C82 C 1.15330 0.11826 0.20303
 C83 C 0.07841 0.97787 0.85662
 H84 H 0.04268 0.93941 0.85702
 C85 C 0.12079 0.98645 0.86704
 H86 H 0.11692 0.95445 0.87565
 C87 C 0.12583 1.06638 0.84511
 H88 H 0.12772 1.09719 0.83641
 C89 C 0.16935 1.07674 0.85536
 H90 H 0.20453 1.11564 0.85443
 N91 N 0.08130 1.01769 0.84611
 C92 C -0.08170 0.97745 0.83989
 H93 H -0.08617 0.97595 0.82604
 C94 C -0.12292 0.97054 0.85019
 H95 H -0.15925 0.96208 0.84391
 C96 C -0.02864 0.98937 0.86446
 H97 H 0.00869 0.99847 0.87000
 C98 C -0.06882 0.98209 0.87525
 H99 H -0.06025 0.98690 0.88885
 Zn100 Zn 0.02075 1.00009 0.83269
 N101 N -0.03572 0.98662 0.84714
 C102 C -0.04307 0.89413 0.82201
 N103 N 0.00493 0.93949 0.82113
 C104 C 0.04545 0.94333 0.81215
 C105 C 0.03836 0.90100 0.80321
 C106 C -0.05195 0.85061 0.81320
 C107 C 0.04250 1.10219 0.82206
 C108 C 0.04842 1.14264 0.81029
 C109 C 0.03487 1.08663 0.78709
 C110 C 0.02902 1.04732 0.79927
 N111 N 0.03310 1.05570 0.81638
 H112 H -0.07446 0.89162 0.82949
 H113 H 0.08330 0.97977 0.81181
 H114 H 0.07088 0.90563 0.79576
 H115 H -0.09034 0.81476 0.81398
 H116 H 0.04469 1.10755 0.83575
 H117 H 0.05588 1.17939 0.81501
 H118 H 0.03026 1.07858 0.77356
 H119 H 0.02000 1.00970 0.79497
 C120 C -0.11720 0.97272 0.86828
 C121 C 0.16706 1.03644 0.86655
 C122 C 0.04449 1.13500 0.79253
 C123 C -0.01087 0.85382 0.80361
 C124 C 0.41391 -0.00226 -0.00258
 C125 C 0.44352 0.01018 -0.01778
 C126 C 0.49050 0.00952 -0.01723
 C127 C 0.50726 -0.00491 -0.00183
 C128 C 0.47615 -0.01840 0.01312
 C129 C 0.43011 -0.01613 0.01297
 C130 C 0.55717 -0.00564 -0.00127
 C131 C 0.58760 0.00644 0.01387
 C132 C 0.63379 0.00458 0.01471
 C133 C 0.65054 -0.00824 0.00014
 C134 C 0.62105 -0.02042 -0.01510
 C135 C 0.57439 -0.01917 -0.01571
 H136 H 0.37807 -0.00111 -0.00285
 H137 H 0.51445 0.02132 -0.02878
 H138 H 0.48719 -0.03152 0.02494
 H139 H 0.57596 0.01795 0.02506
 H140 H 0.68637 -0.00951 0.00078
 H141 H 0.55080 -0.03040 -0.02729
 C142 C -0.06033 0.60737 0.67067
 C143 C -0.06319 0.57832 0.68595
 C144 C -0.06261 0.53158 0.68517
 C145 C -0.05553 0.51549 0.66928
 C146 C -0.05112 0.54646 0.65410
 C147 C -0.05513 0.59135 0.65469
 C148 C -0.05163 0.46737 0.66851
 C149 C -0.06676 0.43843 0.65357
 C150 C -0.06033 0.39514 0.65232
 C151 C -0.04103 0.37890 0.66657
 C152 C -0.02727 0.40591 0.68180
 C153 C -0.03169 0.45057 0.68255
 H154 H -0.06167 0.64303 0.67126
 H155 H -0.06670 0.50865 0.69705
 H156 H -0.04473 0.53595 0.64174
 H157 H -0.08414 0.44900 0.64284
 H158 H -0.03645 0.34522 0.66580
 H159 H -0.01817 0.47276 0.69401
 C160 C 0.63262 0.62794 0.33272
 C161 C 0.61901 0.59395 0.31928
 C162 C 0.57101 0.54563 0.32010
 C163 C 0.53604 0.53126 0.33408
 C164 C 0.55051 0.56632 0.34740
 C165 C 0.59918 0.61425 0.34699
 C166 C 0.48544 0.47916 0.33498
 C167 C 0.46415 0.45194 0.35100
 C168 C 0.41731 0.40248 0.35191
 C169 C 0.39223 0.37938 0.33662
 C170 C 0.41284 0.40528 0.32050
 C171 C 0.45872 0.45557 0.31979
 H172 H 0.66928 0.66569 0.33190
 H173 H 0.56197 0.51873 0.31001
 H174 H 0.52431 0.55614 0.35825
 H175 H 0.48451 0.46829 0.36285
 H176 H 0.35574 0.34144 0.33726
 H177 H 0.47383 0.47581 0.30733
 C178 C -0.13790 0.14049 0.55468
 C179 C -0.14461 0.16680 0.56772
 C180 C -0.10612 0.21928 0.57069
 C181 C -0.06118 0.24543 0.55996
 C182 C -0.05457 0.21916 0.54690
 C183 C -0.09227 0.16607 0.54434
 C184 C -0.11199 0.24331 0.58600
 C185 C -0.08381 0.29521 0.58846
 C186 C -0.08380 0.31852 0.60480
 C187 C -0.06194 0.37330 0.60472
 C188 C -0.05596 0.39789 0.62005
 C189 C -0.07153 0.36824 0.63590
 C190 C -0.09476 0.31322 0.63597
 C191 C -0.10061 0.28861 0.62064
 H192 H -0.16735 0.09938 0.55322
 H193 H -0.17937 0.14551 0.57585
 H194 H -0.02980 0.28536 0.56195
 H195 H -0.01920 0.24010 0.53904
 H196 H -0.14041 0.21659 0.59566
 H197 H -0.05894 0.32242 0.57817
 H198 H -0.04818 0.39742 0.59277
 H199 H -0.03723 0.44044 0.61957
 H200 H -0.10761 0.28921 0.64794
 H201 H -0.11647 0.24654 0.62146
 C202 C 0.82607 0.77829 0.20721
 C203 C 0.78743 0.74148 0.21883
 C204 C 0.80138 0.72886 0.23507
 C205 C 0.85521 0.75297 0.23924
 C206 C 0.89374 0.78969 0.22763
 C207 C 0.87960 0.80364 0.21166
 C208 C 0.75888 0.69484 0.24778
 C209 C 0.76612 0.67246 0.26232
 C210 C 0.72661 0.64758 0.27643
 C211 C 0.74469 0.64958 0.29340
 C212 C 0.70958 0.63107 0.30728
 C213 C 0.65543 0.60937 0.30447
 C214 C 0.63684 0.60475 0.28746
 C215 C 0.67210 0.62379 0.27354
 H216 H 0.81389 0.78863 0.19508
 H217 H 0.74635 0.72391 0.21531
 H218 H 0.86815 0.74574 0.25168
 H219 H 0.93473 0.80823 0.23134
 H220 H 0.72096 0.69096 0.24542
 H221 H 0.80383 0.67612 0.26482
 H222 H 0.78639 0.66719 0.29596
 H223 H 0.72481 0.63427 0.32026
 H224 H 0.59522 0.58795 0.28496
 H225 H 0.65657 0.62007 0.26061
 C226 C 0.23983 0.09322 -0.11335
 C227 C 0.27848 0.10005 -0.10129
 C228 C 0.29025 0.06031 -0.09766
 C229 C 0.26317 0.01388 -0.10671
 C230 C 0.22473 0.00718 -0.11878
 C231 C 0.21182 0.04625 -0.12199
 C232 C 0.32697 0.06668 -0.08333
 C233 C 0.34856 0.03673 -0.08069
 C234 C 0.37796 0.03640 -0.06491
 C235 C 0.40406 0.00821 -0.06470
 C236 C 0.42701 0.00131 -0.04959
 C237 C 0.42432 0.02242 -0.03427
 C238 C 0.40004 0.05237 -0.03460
 C239 C 0.37685 0.05908 -0.04968
 H240 H 0.23043 0.12384 -0.11538
 H241 H 0.29830 0.13599 -0.09444
 H242 H 0.26969 -0.01846 -0.10411
 H243 H 0.20430 -0.02921 -0.12538
 H244 H 0.33534 0.09676 -0.07453
 H245 H 0.34374 0.00991 -0.09032
 H246 H 0.40532 -0.01000 -0.07617
 H247 H 0.44494 -0.02244 -0.04973
 H248 H 0.39799 0.06981 -0.02306
 H249 H 0.35660 0.08036 -0.04899
 C250 C -0.08920 0.84917 0.56827
 C251 C -0.09205 0.81274 0.58110
 C252 C -0.05948 0.79163 0.58051
 C253 C -0.02380 0.80778 0.56666
 C254 C -0.02085 0.84452 0.55378
 C255 C -0.05321 0.86596 0.55455
 C256 C -0.06295 0.75497 0.59501
 C257 C -0.04556 0.72142 0.59451
 C258 C -0.05028 0.68564 0.60953
 C259 C -0.01407 0.66871 0.61139
 C260 C -0.01604 0.63708 0.62587
 C261 C -0.05442 0.62179 0.63872
 C262 C -0.09194 0.63685 0.63650
 C263 C -0.09023 0.66801 0.62203
 H264 H -0.11542 0.86411 0.56907
 H265 H -0.11994 0.80099 0.59159
 H266 H 0.00291 0.79349 0.56591
 H267 H 0.00772 0.85719 0.54348
 H268 H -0.08116 0.75601 0.60671
 H269 H -0.02614 0.72069 0.58308
 H270 H 0.01661 0.68109 0.60183
 H271 H 0.01328 0.62585 0.62728
 H272 H -0.12278 0.62437 0.64600
 H273 H -0.12054 0.67783 0.62069
 C274 C 0.18392 0.12967 0.23357
 C275 C 0.21137 0.16112 0.24716
 C276 C 0.23893 0.21634 0.24487
 C277 C 0.23764 0.23958 0.22861
 C278 C 0.20981 0.20791 0.21496
 C279 C 0.18301 0.15261 0.21729
 C280 C 0.26740 0.24707 0.25995
 C281 C 0.30455 0.29860 0.25924
 C282 C 0.33343 0.32587 0.27481
 C283 C 0.35285 0.38001 0.27569
 C284 C 0.37914 0.40624 0.29043
 C285 C 0.38674 0.37875 0.30452
 C286 C 0.36890 0.32504 0.30336
 C287 C 0.34283 0.29896 0.28867
 H288 H 0.16272 0.08719 0.23589
 H289 H 0.21123 0.14206 0.25955
 H290 H 0.25735 0.28191 0.22634
 H291 H 0.20969 0.22664 0.20255
 H292 H 0.25757 0.22522 0.27234
 H293 H 0.31406 0.32193 0.24716
 H294 H 0.34676 0.40178 0.26509
 H295 H 0.39249 0.44767 0.29097
 H296 H 0.37558 0.30322 0.31380
 H297 H 0.33078 0.25788 0.28818
 C298 C 0.80530 -0.01914 -0.12701
 C299 C 0.76825 -0.02067 -0.11589
 C300 C 0.76603 -0.03695 -0.09845
 C301 C 0.80158 -0.05195 -0.09232
 C302 C 0.83887 -0.05004 -0.10333
 C303 C 0.84230 -0.03269 -0.12087
 C304 C 0.72970 -0.03352 -0.08665
 C305 C 0.71120 -0.06395 -0.07200
 C306 C 0.68297 -0.05559 -0.05827
 C307 C 0.68018 -0.07929 -0.04179
 C308 C 0.65873 -0.06902 -0.02793
 C309 C 0.63916 -0.03501 -0.03021
 C310 C 0.63933 -0.01332 -0.04684
 C311 C 0.66104 -0.02345 -0.06076
 H312 H 0.80655 -0.00419 -0.14016
 H313 H 0.74176 -0.00816 -0.12088
 H314 H 0.80208 -0.06359 -0.07887
 H315 H 0.86438 -0.06318 -0.09793
 H316 H 0.72013 -0.00357 -0.08998
 H317 H 0.72015 -0.09469 -0.06928
 H318 H 0.69616 -0.10466 -0.03950
 H319 H 0.65809 -0.08720 -0.01532
 H320 H 0.62428 0.01287 -0.04897
 H321 H 0.66090 -0.00552 -0.07329
 C322 C 0.15464 -0.09518 0.10850
 C323 C 0.18346 -0.10115 0.09587
 C324 C 0.23607 -0.06170 0.09231
 C325 C 0.25955 -0.01635 0.10193
 C326 C 0.23081 -0.01051 0.11457
 C327 C 0.17777 -0.04937 0.11780
 C328 C 0.26335 -0.06731 0.07762
 C329 C 0.31575 -0.03855 0.07517
 C330 C 0.34304 -0.03838 0.05942
 C331 C 0.39825 -0.01264 0.05958
 C332 C 0.42634 -0.00674 0.04466
 C333 C 0.39986 -0.02646 0.02914
 C334 C 0.34454 -0.05354 0.02905
 C335 C 0.31640 -0.05922 0.04395
 H336 H 0.11366 -0.12554 0.11050
 H337 H 0.16418 -0.13623 0.08858
 H338 H 0.29940 0.01580 0.09940
 H339 H 0.24994 0.02501 0.12164
 H340 H 0.23872 -0.09615 0.06852
 H341 H 0.34050 -0.01311 0.08506
 H342 H 0.41992 0.00419 0.07122
 H343 H 0.46896 0.01497 0.04513
 H344 H 0.32292 -0.06976 0.01735
 H345 H 0.27408 -0.07845 0.04300
 C346 C 0.80568 0.91797 0.42791
 C347 C 0.77912 0.88536 0.41444
 C348 C 0.73809 0.83328 0.41773
 C349 C 0.72285 0.81463 0.43488
 C350 C 0.74963 0.84693 0.44846
 C351 C 0.79292 0.89921 0.44541
 C352 C 0.71605 0.79846 0.40313
 C353 C 0.66835 0.75428 0.40322
 C354 C 0.65070 0.71849 0.38887
 C355 C 0.59742 0.69088 0.38417
 C356 C 0.58038 0.65708 0.37055
 C357 C 0.61628 0.64959 0.36160
 C358 C 0.66932 0.67611 0.36675
 C359 C 0.68634 0.71021 0.38016
 H360 H 0.83895 0.95640 0.42420
 H361 H 0.79194 0.90056 0.40131
 H362 H 0.69149 0.77445 0.43794
 H363 H 0.73496 0.83025 0.46128
 H364 H 0.74055 0.81008 0.39170
 H365 H 0.64110 0.74463 0.41373
 H366 H 0.56915 0.69621 0.39084
 H367 H 0.53932 0.63752 0.36688
 H368 H 0.69774 0.66999 0.36055
 H369 H 0.72732 0.72933 0.38391
 C370 C 0.07393 0.18526 0.76384
 C371 C 0.07293 0.21998 0.75104
 C372 C 0.04631 0.24653 0.75375
 C373 C 0.02152 0.23837 0.76979
 C374 C 0.02256 0.20360 0.78262
 C375 C 0.04798 0.17596 0.77966
 C376 C 0.04189 0.27853 0.73905
 C377 C 0.02813 0.31461 0.74056
 C378 C 0.01821 0.34166 0.72549
 C379 C -0.01520 0.36123 0.72762
 C380 C -0.02883 0.38343 0.71353
 C381 C -0.00908 0.38676 0.69699
 C382 C 0.02630 0.36946 0.69498
 C383 C 0.04007 0.34743 0.70907
 H384 H 0.09443 0.16508 0.76126
 H385 H 0.09230 0.22540 0.73883
 H386 H -0.00068 0.25676 0.77233
 H387 H 0.00149 0.19661 0.79457
 H388 H 0.04874 0.27021 0.72637
 H389 H 0.02088 0.32287 0.75319
 H390 H -0.03219 0.35780 0.74013
 H391 H -0.05629 0.39631 0.71546
 H392 H 0.04319 0.37280 0.68247
 H393 H 0.06780 0.33509 0.70697
 C394 C 0.89687 0.08010 0.11624
 C395 C 0.86381 0.08635 0.10439
 C396 C 0.82895 0.04469 0.09426
 C397 C 0.82795 -0.00323 0.09610
 C398 C 0.86163 -0.00907 0.10766
 C399 C 0.89657 0.03259 0.11774
 C400 C 0.79714 0.05300 0.08088
 C401 C 0.74920 0.01406 0.07648
 C402 C 0.72010 0.01831 0.06132
 C403 C 0.66497 -0.01351 0.06121
 C404 C 0.63667 -0.01577 0.04627
 C405 C 0.66318 0.01287 0.03106
 C406 C 0.71825 0.04582 0.03126
 C407 C 0.74649 0.04875 0.04627
 H408 H 0.92386 0.11283 0.12383
 H409 H 0.86564 0.12380 0.10303
 H410 H 0.80256 -0.03561 0.08816
 H411 H 0.86085 -0.04602 0.10862
 H412 H 0.81389 0.09187 0.07445
 H413 H 0.73065 -0.02307 0.08412
 H414 H 0.64386 -0.03772 0.07259
 H415 H 0.59427 -0.04189 0.04637
 H416 H 0.73948 0.06822 0.01965
 H417 H 0.78906 0.07270 0.04579
 C418 C 0.16416 0.13132 0.44504
 C419 C 0.20386 0.15890 0.43263
 C420 C 0.23028 0.21415 0.43056
 C421 C 0.21665 0.24144 0.44142
 C422 C 0.17678 0.21379 0.45379
 C423 C 0.14957 0.15839 0.45556
 C424 C 0.26799 0.24101 0.41600
 C425 C 0.30529 0.29253 0.41507
 C426 C 0.33822 0.32021 0.39946
 C427 C 0.36112 0.37514 0.39712
 C428 C 0.38849 0.40228 0.38193
 C429 C 0.39357 0.37496 0.36877
 C430 C 0.37308 0.32049 0.37146
 C431 C 0.34603 0.29341 0.38667
 H432 H 0.14345 0.08862 0.44591
 H433 H 0.21319 0.13687 0.42435
 H434 H 0.23494 0.28384 0.44000
 H435 H 0.16659 0.23575 0.46179
 H436 H 0.26302 0.21698 0.40542
 H437 H 0.31018 0.31641 0.42570
 H438 H 0.35626 0.39690 0.40681
 H439 H 0.40386 0.44427 0.38018
 H440 H 0.37760 0.29873 0.36169
 H441 H 0.33126 0.25159 0.38822
 C442 C 0.02118 0.79812 0.79233
 C443 C 0.01668 0.76132 0.78106
 C444 C -0.02839 0.73434 0.77089
 C445 C -0.06999 0.74343 0.77271
 C446 C -0.06537 0.78054 0.78396
 C447 C -0.01910 0.80933 0.79353
 C448 C -0.02747 0.70268 0.75711
 C449 C -0.07051 0.66525 0.74939
 C450 C -0.06676 0.64176 0.73368
 C451 C -0.10469 0.58928 0.73046
 C452 C -0.10295 0.56773 0.71515
 C453 C -0.06402 0.59893 0.70267
 C454 C -0.02620 0.65135 0.70591
 C455 C -0.02745 0.67254 0.72123
 H456 H 0.05690 0.81889 0.79978
 H457 H 0.04929 0.75510 0.77988
 H458 H -0.10484 0.72433 0.76480
 H459 H -0.09682 0.78871 0.78445
 H460 H 0.01094 0.71184 0.75282
 H461 H -0.10930 0.65172 0.75450
 H462 H -0.13570 0.56506 0.73978
 H463 H -0.13273 0.52730 0.71283
 H464 H 0.00421 0.67610 0.69647
 H465 H 0.00145 0.71358 0.72305
   
