data_POSCAR
  _audit_creation_date              2014-09-24
  _audit_creation_method            'ToBaCCo'
  _symmetry_space_group_name_H-M    'P1'
  _symmetry_Int_Tables_number       1
  _symmetry_cell_setting            triclinic
  loop_
  _symmetry_equiv_pos_as_xyz
 x,y,z
_cell_length_a 44.5593
_cell_length_b 43.8749
_cell_length_c 45.1625
_cell_angle_alpha 89.893700
_cell_angle_beta 90.360600
_cell_angle_gamma 90.346100
loop_
  _atom_site_label
  _atom_site_type_symbol
  _atom_site_fract_x
  _atom_site_fract_y
  _atom_site_fract_z
C1 C 0.16010 0.15821 0.19532
 N2 N 0.18371 0.14496 0.18170
 C3 C 0.19562 0.15672 0.15661
 N4 N 0.18338 0.18233 0.14483
 C5 C 0.15955 0.19602 0.15789
 N6 N 0.14806 0.18389 0.18325
 C7 C -0.16832 0.84449 0.20679
 N8 N -0.15429 0.81967 0.19541
 C9 C -0.16495 0.80561 0.17071
 N10 N -0.19000 0.81658 0.15732
 C11 C -0.20452 0.84128 0.16815
 N12 N -0.19349 0.85513 0.19297
 C13 C -0.15297 0.14713 -0.19649
 N14 N -0.14103 0.17310 -0.18480
 C15 C -0.15317 0.18604 -0.16032
 N16 N -0.17756 0.17283 -0.14764
 C17 C -0.18980 0.14690 -0.15896
 N18 N -0.17729 0.13428 -0.18333
 C19 C 0.16950 0.82938 -0.20541
 N20 N 0.15715 0.80436 -0.19229
 C21 C 0.16946 0.79238 -0.16733
 N22 N 0.19429 0.80563 -0.15559
 C23 C 0.20713 0.83054 -0.16816
 N24 N 0.19457 0.84240 -0.19324
 C25 C 0.14963 1.15438 0.81069
 N26 N 0.13834 1.17848 0.82573
 C27 C 0.15203 1.18912 0.85070
 N28 N 0.17743 1.17524 0.86055
 C29 C 0.18898 1.15104 0.84584
 N30 N 0.17496 1.14084 0.82100
 C31 C 0.83857 0.84064 0.79257
 N32 N 0.84839 0.81536 0.80705
 C33 C 0.83421 0.80480 0.83153
 N34 N 0.80983 0.81982 0.84161
 C35 C 0.79951 0.84513 0.82761
 N36 N 0.81398 0.85546 0.80303
 C37 C 0.16439 0.83534 1.20392
 N38 N 0.18929 0.84829 1.19187
 C39 C 0.20179 0.83664 1.16690
 N40 N 0.18906 0.81160 1.15393
 C41 C 0.16407 0.79838 1.16572
 N42 N 0.15213 0.81054 1.19058
 C43 C 0.83915 1.15875 1.20404
 N44 N 0.85082 1.18487 1.19263
 C45 C 0.83785 1.19886 1.16892
 N46 N 0.81265 1.18630 1.15661
 C47 C 0.80073 1.16008 1.16779
 N48 N 0.81416 1.14662 1.19139
 N49 N 0.53066 0.95151 1.03084
 N50 N 0.55439 0.93410 1.03549
 N51 N 0.46587 0.97149 1.04771
 N52 N 0.44209 0.96707 1.06457
 N53 N 0.46729 0.95042 1.02714
 N54 N 0.44451 0.93119 1.02944
 N55 N 0.52896 0.97256 1.05140
 N56 N 0.55133 0.97008 1.07046
 C57 C 0.56701 0.94595 1.06042
 C58 C 0.42894 0.94180 1.05291
 N59 N 0.46682 1.05864 1.02733
 N60 N 0.44311 1.07639 1.02856
 N61 N 0.52890 1.03818 1.05143
 N62 N 0.55195 1.04162 1.06977
 N63 N 0.52955 1.05926 1.03080
 N64 N 0.55272 1.07761 1.03452
 N65 N 0.46550 1.03735 1.04774
 N66 N 0.44075 1.04006 1.06343
 Mn67 Mn 0.49725 1.00489 1.04998
 C68 C 0.42708 1.06463 1.05124
 C69 C 0.56649 1.06650 1.05893
 N70 N 0.47037 0.95111 0.96324
 N71 N 0.44700 0.93300 0.95845
 N72 N 0.53436 0.97327 0.94629
 N73 N 0.55806 0.97005 0.92921
 N74 N 0.53372 0.95198 0.96677
 N75 N 0.55700 0.93371 0.96413
 N76 N 0.47147 0.97262 0.94301
 N77 N 0.44913 0.96975 0.92398
 Mn78 Mn 0.50054 0.95079 0.99700
 C79 C 0.43405 0.94493 0.93375
 C80 C 0.57200 0.94526 0.94056
 N81 N 0.53302 1.05958 0.96748
 N82 N 0.55718 1.07709 0.96656
 N83 N 0.47059 1.03813 0.94356
 N84 N 0.44666 1.04044 0.92622
 N85 N 0.47016 1.05916 0.96416
 N86 N 0.44621 1.07633 0.96141
 N87 N 0.53393 1.03870 0.94677
 N88 N 0.55876 1.04135 0.93123
 Mn89 Mn 0.49993 1.05945 0.99744
 Mn90 Mn 0.50258 1.00569 0.94454
 Cl91 Cl 0.50007 1.00511 0.99727
 C92 C 0.57295 1.06552 0.94370
 C93 C 0.43181 1.06463 0.93759
 N94 N 0.02234 0.46967 0.05337
 N95 N 0.02448 0.44692 0.07243
 N96 N 0.04645 0.53127 0.02878
 N97 N 0.06613 0.55379 0.03053
 N98 N 0.02603 0.53379 0.04947
 N99 N 0.03134 0.55818 0.06586
 N100 N 0.04284 0.46733 0.03274
 N101 N 0.05945 0.44292 0.03723
 C102 C 0.04781 0.43043 0.06213
 C103 C 0.05650 0.57041 0.05378
 N104 N 0.02415 0.52701 -0.05516
 N105 N 0.02777 0.54944 -0.07422
 N106 N 0.04185 0.46335 -0.03092
 N107 N 0.05832 0.43852 -0.03292
 N108 N 0.02066 0.46330 -0.05123
 N109 N 0.02212 0.43852 -0.06759
 N110 N 0.04537 0.52749 -0.03488
 N111 N 0.06405 0.55048 -0.03964
 Mn112 Mn 0.04453 0.49734 -0.00106
 C113 C 0.05278 0.56387 -0.06439
 C114 C 0.04575 0.42327 -0.05599
 N115 N -0.03876 0.53708 0.04981
 N116 N -0.04141 0.56128 0.06695
 N117 N -0.06338 0.47304 0.03299
 N118 N -0.08202 0.44992 0.03661
 N119 N -0.04235 0.47290 0.05350
 N120 N -0.04617 0.44949 0.07161
 N121 N -0.05977 0.53687 0.02929
 N122 N -0.07724 0.56088 0.03189
 Mn123 Mn -0.00818 0.50340 0.05197
 C124 C -0.06553 0.57595 0.05546
 C125 C -0.07117 0.43549 0.06086
 N126 N -0.04353 0.46677 -0.05103
 N127 N -0.04733 0.44182 -0.06680
 N128 N -0.06058 0.53303 -0.03436
 N129 N -0.07692 0.55764 -0.03885
 N130 N -0.04003 0.53054 -0.05487
 N131 N -0.04180 0.55332 -0.07387
 N132 N -0.06417 0.46884 -0.03056
 N133 N -0.08262 0.44515 -0.03186
 Mn134 Mn -0.00969 0.49689 -0.05336
 Mn135 Mn -0.06236 0.50299 -0.00065
 Cl136 Cl -0.00892 0.50017 -0.00072
 C137 C -0.07186 0.42859 -0.05475
 C138 C -0.06498 0.57001 -0.06368
 N139 N 0.97675 0.05990 0.46999
 N140 N 0.97434 0.07815 0.44691
 N141 N 0.95604 0.03733 0.53154
 N142 N 0.93898 0.03948 0.55528
 N143 N 0.97710 0.05836 0.53203
 N144 N 0.97490 0.07543 0.55588
 N145 N 0.95612 0.03844 0.46903
 N146 N 0.93907 0.04155 0.44523
 C147 C 0.95066 0.06655 0.43174
 C148 C 0.95097 0.06352 0.57015
 N149 N 0.97665 -0.04902 0.53102
 N150 N 0.97294 -0.06692 0.55440
 N151 N 0.95595 -0.02739 0.46806
 N152 N 0.93781 -0.03087 0.44503
 N153 N 0.97658 -0.04866 0.46835
 N154 N 0.97308 -0.06705 0.44547
 N155 N 0.95581 -0.02798 0.53027
 N156 N 0.93756 -0.03088 0.55289
 Mn157 Mn 0.95560 0.00510 0.49963
 C158 C 0.94830 -0.05525 0.56778
 C159 C 0.94876 -0.05575 0.43112
 N160 N 1.04154 0.05876 0.53215
 N161 N 1.04386 0.07497 0.55665
 N162 N 1.06147 0.03935 0.46871
 N163 N 1.07787 0.04286 0.44462
 N164 N 1.04081 0.06047 0.46999
 N165 N 1.04253 0.07886 0.44699
 N166 N 1.06258 0.03800 0.53121
 N167 N 1.07975 0.03949 0.55505
 Mn168 Mn 1.00905 0.05969 0.50113
 C169 C 1.06796 0.06280 0.57062
 C170 C 1.06581 0.06780 0.43140
 N171 N 1.04134 -0.04810 0.46819
 N172 N 1.04476 -0.06599 0.44492
 N173 N 1.06278 -0.02730 0.53035
 N174 N 1.08128 -0.03036 0.55305
 N175 N 1.04190 -0.04855 0.53085
 N176 N 1.04574 -0.06669 0.55397
 N177 N 1.06178 -0.02640 0.46822
 N178 N 1.07963 -0.02897 0.44523
 Mn179 Mn 1.00912 -0.04908 0.49969
 Mn180 Mn 1.06252 0.00592 0.49953
 Cl181 Cl 1.00906 0.00532 0.49999
 C182 C 1.06886 -0.05376 0.43086
 C183 C 1.07050 -0.05505 0.56760
 C184 C 1.16227 0.11893 0.23368
 C185 C 1.15244 0.10663 0.26039
 C186 C 1.12936 0.12043 0.27604
 C187 C 1.11571 0.14674 0.26445
 C188 C 1.12548 0.15918 0.23755
 C189 C 1.14914 0.14557 0.22186
 N190 N 1.12070 0.10739 0.30379
 N191 N 1.10017 0.11865 0.31975
 C192 C 1.09211 0.10541 0.34761
 C193 C 1.06896 0.11858 0.36380
 C194 C 1.06058 0.10635 0.39110
 C195 C 1.07533 0.08068 0.40272
 C196 C 1.09861 0.06743 0.38649
 C197 C 1.10696 0.07969 0.35910
 H198 H 1.18042 0.10747 0.22250
 H199 H 1.16306 0.08633 0.26910
 H200 H 1.09772 0.15777 0.27623
 H201 H 1.11470 0.17959 0.22931
 H202 H 1.05736 0.13836 0.35521
 H203 H 1.04246 0.11701 0.40306
 H204 H 1.11026 0.04759 0.39488
 H205 H 1.12498 0.06910 0.34697
 C206 C 0.82894 -0.11557 0.24487
 C207 C 0.84039 -0.10173 0.27055
 C208 C 0.86612 -0.11313 0.28453
 C209 C 0.88041 -0.13863 0.27242
 C210 C 0.86908 -0.15250 0.24681
 C211 C 0.84309 -0.14126 0.23257
 N212 N 0.87723 -0.09862 0.31094
 N213 N 0.90043 -0.10829 0.32455
 C214 C 0.91204 -0.09442 0.35104
 C215 C 0.93750 -0.10701 0.36448
 C216 C 0.94943 -0.09442 0.39045
 C217 C 0.93606 -0.06886 0.40350
 C218 C 0.91055 -0.05609 0.38992
 C219 C 0.89859 -0.06877 0.36390
 H220 H 0.80896 -0.10607 0.23478
 H221 H 0.82913 -0.08208 0.27962
 H222 H 0.90035 -0.14793 0.28274
 H223 H 0.88082 -0.17214 0.23829
 H224 H 0.94810 -0.12675 0.35479
 H225 H 0.96913 -0.10473 0.40031
 H226 H 0.89981 -0.03635 0.39944
 H227 H 0.87891 -0.05859 0.35390
 C228 C 0.84590 0.10757 0.76535
 C229 C 0.85674 0.09535 0.73902
 C230 C 0.88071 0.10922 0.72437
 C231 C 0.89422 0.13537 0.73662
 C232 C 0.88345 0.14769 0.76301
 C233 C 0.85888 0.13415 0.77764
 N234 N 0.89041 0.09670 0.69682
 N235 N 0.91185 0.10847 0.68218
 C236 C 0.92130 0.09642 0.65436
 C237 C 0.94534 0.11045 0.63990
 C238 C 0.95491 0.09971 0.61250
 C239 C 0.94047 0.07470 0.59905
 C240 C 0.91638 0.06050 0.61361
 C241 C 0.90683 0.07128 0.64111
 H242 H 0.82706 0.09624 0.77580
 H243 H 0.84619 0.07516 0.72979
 H244 H 0.91288 0.14647 0.72569
 H245 H 0.89421 0.16804 0.77164
 H246 H 0.95663 0.12982 0.64989
 H247 H 0.97363 0.11103 0.60185
 H248 H 0.90496 0.04111 0.60379
 H249 H 0.88815 0.06007 0.65191
 C250 C 1.12998 -0.17199 0.75475
 C251 C 1.11681 -0.16042 0.72896
 C252 C 1.12886 -0.13471 0.71500
 C253 C 1.15445 -0.12051 0.72726
 C254 C 1.16771 -0.13207 0.75313
 C255 C 1.15563 -0.15800 0.76720
 N256 N 1.11474 -0.12370 0.68847
 N257 N 1.12430 -0.10036 0.67457
 C258 C 1.11020 -0.08949 0.64796
 C259 C 1.12205 -0.06363 0.63403
 C260 C 1.10908 -0.05248 0.60795
 C261 C 1.08394 -0.06708 0.59527
 C262 C 1.07194 -0.09298 0.60932
 C263 C 1.08496 -0.10414 0.63547
 H264 H 1.11999 -0.19197 0.76489
 H265 H 1.09713 -0.17158 0.71975
 H266 H 1.16421 -0.10057 0.71686
 H267 H 1.18741 -0.12072 0.76206
 H268 H 1.14144 -0.05211 0.64342
 H269 H 1.11879 -0.03241 0.59772
 H270 H 1.05254 -0.10463 0.60009
 H271 H 1.07536 -0.12417 0.64584
 C272 C 0.23317 1.11634 1.15647
 C273 C 0.25890 1.10323 1.14475
 C274 C 0.27291 1.11617 1.12018
 C275 C 0.26054 1.14223 1.10686
 C276 C 0.23465 1.15544 1.11849
 C277 C 0.22078 1.14289 1.14375
 N278 N 0.30013 1.10285 1.10990
 N279 N 0.31481 1.11371 1.08823
 C280 C 0.34245 1.10049 1.07885
 C281 C 0.35769 1.11357 1.05500
 C282 C 0.38519 1.10181 1.04593
 C283 C 0.39787 1.07671 1.06070
 C284 C 0.38242 1.06338 1.08446
 C285 C 0.35490 1.07518 1.09350
 H286 H 0.22329 1.10570 1.17578
 H287 H 0.26825 1.08311 1.15513
 H288 H 0.27103 1.15259 1.08774
 H289 H 0.22589 1.17572 1.10792
 H290 H 0.34832 1.13306 1.04355
 H291 H 0.39656 1.11244 1.02744
 H292 H 0.39164 1.04397 1.09614
 H293 H 0.34353 1.06465 1.11204
 C294 C 0.24534 0.83017 0.87084
 C295 C 0.27118 0.84213 0.88399
 C296 C 0.28558 0.86741 0.87176
 C297 C 0.27373 0.88093 0.84598
 C298 C 0.24770 0.86897 0.83264
 C299 C 0.23313 0.84329 0.84488
 N300 N 0.31221 0.87853 0.88604
 N301 N 0.32697 0.90144 0.87667
 C302 C 0.35366 0.91186 0.89146
 C303 C 0.36879 0.93733 0.88029
 C304 C 0.39493 0.94799 0.89409
 C305 C 0.40643 0.93327 0.91939
 C306 C 0.39121 0.90771 0.93067
 C307 C 0.36501 0.89705 0.91683
 H308 H 0.23508 0.81046 0.88122
 H309 H 0.28011 0.83156 0.90384
 H310 H 0.28458 0.90059 0.83614
 H311 H 0.23914 0.87980 0.81277
 H312 H 0.36029 0.94893 0.86081
 H313 H 0.40613 0.96781 0.88492
 H314 H 0.39953 0.89599 0.95016
 H315 H 0.35368 0.87728 0.92592
 C316 C 0.75822 0.83733 1.12814
 C317 C 0.73227 0.84763 1.11388
 C318 C 0.71673 0.87277 1.12470
 C319 C 0.72756 0.88772 1.15016
 C320 C 0.75360 0.87748 1.16455
 C321 C 0.76935 0.85203 1.15379
 N322 N 0.69006 0.88242 1.10948
 N323 N 0.67467 0.90506 1.11806
 C324 C 0.64792 0.91470 1.10297
 C325 C 0.63238 0.93978 1.11399
 C326 C 0.60614 0.94982 1.10010
 C327 C 0.59487 0.93490 1.07480
 C328 C 0.61051 0.90974 1.06361
 C329 C 0.63686 0.89967 1.07760
 H330 H 0.76944 0.81772 1.11893
 H331 H 0.72418 0.83591 1.09429
 H332 H 0.71592 0.90726 1.15898
 H333 H 0.76125 0.88952 1.18413
 H334 H 0.64064 0.95157 1.13348
 H335 H 0.59467 0.96933 1.10922
 H336 H 0.60240 0.89786 1.04412
 H337 H 0.64850 0.88021 1.06863
 C338 C 0.77127 1.10735 0.84146
 C339 C 0.74471 1.09537 0.85295
 C340 C 0.73062 1.10953 0.87673
 C341 C 0.74373 1.13557 0.88952
 C342 C 0.77035 1.14761 0.87814
 C343 C 0.78433 1.13392 0.85363
 N344 N 0.70256 1.09757 0.88675
 N345 N 0.68791 1.10981 0.90763
 C346 C 0.65944 1.09803 0.91678
 C347 C 0.64435 1.11233 0.93994
 C348 C 0.61614 1.10179 0.94880
 C349 C 0.60265 1.07678 0.93447
 C350 C 0.61792 1.06235 0.91135
 C351 C 0.64609 1.07286 0.90255
 H352 H 0.78124 1.09591 0.82273
 H353 H 0.73477 1.07525 0.84298
 H354 H 0.73321 1.14685 0.90803
 H355 H 0.77962 1.16796 0.88832
 H356 H 0.65442 1.13175 0.95102
 H357 H 0.60488 1.11324 0.96678
 H358 H 0.60809 1.04294 0.90002
 H359 H 0.65731 1.06143 0.88456
 C360 C 0.15889 0.23637 0.11849
 C361 C 0.14719 0.26292 0.10598
 C362 C 0.12313 0.27784 0.11921
 C363 C 0.11068 0.26577 0.14528
 C364 C 0.12238 0.23912 0.15788
 C365 C 0.14670 0.22412 0.14465
 N366 N 0.11208 0.30518 0.10571
 N367 N 0.09029 0.32029 0.11616
 C368 C 0.07986 0.34769 0.10222
 C369 C 0.05575 0.36338 0.11464
 C370 C 0.04525 0.39030 0.10164
 C371 C 0.05879 0.40197 0.07594
 C372 C 0.08291 0.38615 0.06344
 C373 C 0.09337 0.35926 0.07644
 H374 H 0.17758 0.22551 0.10762
 H375 H 0.15697 0.27199 0.08589
 H376 H 0.09203 0.27693 0.15592
 H377 H 0.11243 0.23035 0.17801
 H378 H 0.04511 0.35473 0.13447
 H379 H 0.02657 0.40196 0.11171
 H380 H 0.09373 0.39455 0.04360
 H381 H 0.11203 0.34758 0.06636
 C382 C -0.11551 0.22885 -0.16099
 C383 C -0.10438 0.25641 -0.14984
 C384 C -0.11814 0.27042 -0.12570
 C385 C -0.14310 0.25638 -0.11250
 C386 C -0.15424 0.22881 -0.12357
 C387 C -0.14069 0.21479 -0.14807
 N388 N -0.10655 0.29899 -0.11536
 N389 N -0.11823 0.31346 -0.09396
 C390 C -0.10638 0.34219 -0.08422
 C391 C -0.12009 0.35732 -0.06064
 C392 C -0.10904 0.38556 -0.05091
 C393 C -0.08409 0.39899 -0.06476
 C394 C -0.07038 0.38369 -0.08835
 C395 C -0.08139 0.35559 -0.09800
 H396 H -0.10450 0.21871 -0.17983
 H397 H -0.08510 0.26703 -0.16017
 H398 H -0.15409 0.26678 -0.09377
 H399 H -0.17365 0.21866 -0.11304
 H400 H -0.13936 0.34722 -0.04983
 H401 H -0.11995 0.39682 -0.03261
 H402 H -0.05104 0.39343 -0.09938
 H403 H -0.07036 0.34439 -0.11625
 C404 C 0.16969 0.75323 -0.12698
 C405 C 0.15793 0.72727 -0.11339
 C406 C 0.13280 0.71254 -0.12534
 C407 C 0.11929 0.72417 -0.15120
 C408 C 0.13104 0.75023 -0.16489
 C409 C 0.15645 0.76501 -0.15295
 N410 N 0.12165 0.68580 -0.11086
 N411 N 0.09888 0.67117 -0.12043
 C412 C 0.08792 0.64436 -0.10592
 C413 C 0.06258 0.62967 -0.11753
 C414 C 0.05125 0.60345 -0.10401
 C415 C 0.06520 0.59144 -0.07857
 C416 C 0.09068 0.60618 -0.06687
 C417 C 0.10199 0.63248 -0.08044
 H418 H 0.18925 0.76399 -0.11711
 H419 H 0.16849 0.71851 -0.09348
 H420 H 0.09978 0.71312 -0.16084
 H421 H 0.12032 0.75869 -0.18482
 H422 H 0.05156 0.63862 -0.13712
 H423 H 0.03152 0.59261 -0.11348
 H424 H 0.10178 0.59744 -0.04725
 H425 H 0.12165 0.64349 -0.07105
 C426 C -0.12414 0.76618 0.17253
 C427 C -0.11017 0.74028 0.16108
 C428 C -0.12141 0.72614 0.13553
 C429 C -0.14682 0.73834 0.12137
 C430 C -0.16080 0.76417 0.13275
 C431 C -0.14971 0.77840 0.15853
 N432 N -0.10696 0.69933 0.12456
 N433 N -0.11643 0.68562 0.10147
 C434 C -0.10273 0.65860 0.09018
 C435 C -0.11504 0.64499 0.06486
 C436 C -0.10281 0.61824 0.05348
 C437 C -0.07792 0.60462 0.06730
 C438 C -0.06534 0.61845 0.09259
 C439 C -0.07766 0.64525 0.10399
 H440 H -0.11497 0.77652 0.19239
 H441 H -0.09061 0.73111 0.17223
 H442 H -0.15599 0.72786 0.10158
 H443 H -0.18039 0.77291 0.12134
 H444 H -0.13433 0.65507 0.05402
 H445 H -0.11294 0.60817 0.03393
 H446 H -0.04613 0.60847 0.10365
 H447 H -0.06773 0.65539 0.12359
 C448 C 1.11043 0.15883 0.77258
 C449 C 1.09807 0.14963 0.74547
 C450 C 1.11095 0.12582 0.72954
 C451 C 1.13605 0.11073 0.74129
 C452 C 1.14844 0.11981 0.76831
 C453 C 1.13608 0.14428 0.78424
 N454 N 1.09874 0.11782 0.70120
 N455 N 1.11043 0.09703 0.68552
 C456 C 1.09914 0.08889 0.65691
 C457 C 1.11346 0.06568 0.64136
 C458 C 1.10340 0.05731 0.61320
 C459 C 1.07879 0.07214 0.60015
 C460 C 1.06436 0.09545 0.61579
 C461 C 1.07447 0.10380 0.64401
 H462 H 1.10008 0.17764 0.78408
 H463 H 1.07867 0.16138 0.73665
 H464 H 1.14635 0.09214 0.72944
 H465 H 1.16801 0.10779 0.77641
 H466 H 1.13250 0.05408 0.65111
 H467 H 1.11485 0.03918 0.60169
 H468 H 1.04525 0.10714 0.60627
 H469 H 1.06307 0.12185 0.65567
 C470 C 0.87900 -0.16476 0.75639
 C471 C 0.89394 -0.15487 0.73098
 C472 C 0.88413 -0.12915 0.71555
 C473 C 0.85904 -0.11318 0.72596
 C474 C 0.84399 -0.12301 0.75141
 C475 C 0.85369 -0.14904 0.76704
 N476 N 0.89985 -0.11989 0.68937
 N477 N 0.89198 -0.09661 0.67446
 C478 C 0.90705 -0.08693 0.64810
 C479 C 0.89645 -0.06108 0.63343
 C480 C 0.91003 -0.05095 0.60746
 C481 C 0.93465 -0.06654 0.59555
 C482 C 0.94555 -0.09245 0.61036
 C483 C 0.93181 -0.10264 0.63650
 H484 H 0.88740 -0.18486 0.76757
 H485 H 0.91322 -0.16738 0.72322
 H486 H 0.85099 -0.09317 0.71440
 H487 H 0.82471 -0.11017 0.75871
 H488 H 0.87745 -0.04878 0.64214
 H489 H 0.90114 -0.03083 0.59669
 H490 H 0.96452 -0.10483 0.60171
 H491 H 0.94043 -0.12272 0.64753
 C492 C 1.12564 -0.16694 0.24208
 C493 C 1.11274 -0.15577 0.26793
 C494 C 1.12506 -0.13045 0.28230
 C495 C 1.15062 -0.11616 0.27040
 C496 C 1.16366 -0.12729 0.24445
 C497 C 1.15139 -0.15295 0.22989
 N498 N 1.11124 -0.11996 0.30896
 N499 N 1.12105 -0.09697 0.32324
 C500 C 1.10730 -0.08666 0.34999
 C501 C 1.11932 -0.06108 0.36424
 C502 C 1.10673 -0.05045 0.39048
 C503 C 1.08180 -0.06532 0.40301
 C504 C 1.06961 -0.09098 0.38865
 C505 C 1.08226 -0.10161 0.36232
 H506 H 1.11530 -0.18668 0.23178
 H507 H 1.09305 -0.16698 0.27688
 H508 H 1.16056 -0.09648 0.28115
 H509 H 1.18338 -0.11578 0.23594
 H510 H 1.13856 -0.04936 0.35499
 H511 H 1.11659 -0.03057 0.40097
 H512 H 1.05037 -0.10282 0.39777
 H513 H 1.07254 -0.12146 0.35168
 C514 C 0.83960 0.11791 0.24095
 C515 C 0.85169 0.10472 0.26645
 C516 C 0.87645 0.11797 0.28057
 C517 C 0.88955 0.14443 0.26863
 C518 C 0.87756 0.15771 0.24307
 C519 C 0.85216 0.14483 0.22901
 N520 N 0.88730 0.10457 0.30740
 N521 N 0.90930 0.11584 0.32181
 C522 C 0.91957 0.10274 0.34901
 C523 C 0.94392 0.11624 0.36370
 C524 C 0.95406 0.10444 0.39065
 C525 C 0.93986 0.07891 0.40331
 C526 C 0.91553 0.06524 0.38846
 C527 C 0.90542 0.07706 0.36148
 H528 H 0.82018 0.10707 0.23088
 H529 H 0.84147 0.08430 0.27549
 H530 H 0.90881 0.15503 0.27920
 H531 H 0.88803 0.17828 0.23465
 H532 H 0.95496 0.13602 0.35428
 H533 H 0.97297 0.11534 0.40159
 H534 H 0.90429 0.04548 0.39769
 H535 H 0.88652 0.06624 0.35050
 C536 C 0.15507 0.22673 -0.10921
 C537 C 0.14421 0.25292 -0.09540
 C538 C 0.11869 0.26758 -0.10641
 C539 C 0.10373 0.25546 -0.13122
 C540 C 0.11449 0.22935 -0.14509
 C541 C 0.14054 0.21471 -0.13451
 N542 N 0.10883 0.29512 -0.09263
 N543 N 0.08597 0.30942 -0.10218
 C544 C 0.07597 0.33738 -0.08945
 C545 C 0.05074 0.35149 -0.10170
 C546 C 0.04082 0.37933 -0.09065
 C547 C 0.05609 0.39354 -0.06708
 C548 C 0.08124 0.37919 -0.05449
 C549 C 0.09117 0.35128 -0.06562
 H550 H 0.17509 0.21623 -0.10020
 H551 H 0.15593 0.26204 -0.07626
 H552 H 0.08389 0.26634 -0.14015
 H553 H 0.10245 0.22095 -0.16435
 H554 H 0.03887 0.34098 -0.12006
 H555 H 0.02129 0.38978 -0.10071
 H556 H 0.09335 0.38962 -0.03624
 H557 H 0.11076 0.34075 -0.05580
 C558 C -0.12373 0.23898 0.17083
 C559 C -0.11147 0.26616 0.16011
 C560 C -0.12471 0.28121 0.13615
 C561 C -0.15052 0.26865 0.12278
 C562 C -0.16290 0.24140 0.13345
 C563 C -0.14973 0.22614 0.15774
 N564 N -0.11150 0.30914 0.12597
 N565 N -0.12238 0.32416 0.10434
 C566 C -0.10917 0.35210 0.09418
 C567 C -0.12227 0.36705 0.07004
 C568 C -0.10997 0.39424 0.05938
 C569 C -0.08427 0.40702 0.07278
 C570 C -0.07113 0.39207 0.09709
 C571 C -0.08348 0.36478 0.10775
 H572 H -0.11272 0.22817 0.18951
 H573 H -0.09156 0.27560 0.17057
 H574 H -0.16116 0.27990 0.10416
 H575 H -0.18285 0.23243 0.12266
 H576 H -0.14204 0.35751 0.05940
 H577 H -0.12055 0.40520 0.04055
 H578 H -0.05126 0.40136 0.10776
 H579 H -0.07293 0.35362 0.12647
 C580 C -0.16970 0.76601 -0.12772
 C581 C -0.15980 0.73953 -0.11355
 C582 C -0.13518 0.72356 -0.12446
 C583 C -0.12032 0.73448 -0.14974
 C584 C -0.13016 0.76095 -0.16393
 C585 C -0.15504 0.77699 -0.15314
 N586 N -0.12589 0.69625 -0.10969
 N587 N -0.10388 0.68058 -0.11882
 C588 C -0.09452 0.65313 -0.10440
 C589 C -0.07026 0.63713 -0.11602
 C590 C -0.06065 0.61009 -0.10276
 C591 C -0.07525 0.59861 -0.07757
 C592 C -0.09955 0.61476 -0.06580
 C593 C -0.10915 0.64183 -0.07913
 H594 H -0.18891 0.77777 -0.11877
 H595 H -0.17143 0.73134 -0.09409
 H596 H -0.10119 0.72253 -0.15860
 H597 H -0.11832 0.76873 -0.18342
 H598 H -0.05881 0.64563 -0.13547
 H599 H -0.04180 0.59818 -0.11225
 H600 H -0.11114 0.60645 -0.04636
 H601 H -0.12797 0.65384 -0.06973
 C602 C 0.12446 0.75958 0.16573
 C603 C 0.11078 0.73379 0.15363
 C604 C 0.12249 0.71997 0.12849
 C605 C 0.14829 0.73242 0.11524
 C606 C 0.16215 0.75845 0.12731
 C607 C 0.15046 0.77240 0.15287
 N608 N 0.10764 0.69327 0.11732
 N609 N 0.11653 0.67858 0.09479
 C610 C 0.10094 0.65180 0.08465
 C611 C 0.11180 0.63612 0.06003
 C612 C 0.09730 0.60971 0.04994
 C613 C 0.07159 0.59852 0.06436
 C614 C 0.06058 0.61437 0.08895
 C615 C 0.07511 0.64077 0.09904
 H616 H 0.11447 0.76934 0.18532
 H617 H 0.09091 0.72440 0.16402
 H618 H 0.15774 0.72204 0.09570
 H619 H 0.18203 0.76748 0.11667
 H620 H 0.13163 0.64434 0.04872
 H621 H 0.10626 0.59802 0.03087
 H622 H 0.04080 0.60633 0.10046
 H623 H 0.06620 0.65246 0.11812
 C624 C 0.22893 1.11139 0.84072
 C625 C 0.25631 1.09866 0.84933
 C626 C 0.27251 1.11090 0.87312
 C627 C 0.26075 1.13583 0.88868
 C628 C 0.23337 1.14855 0.88016
 C629 C 0.21726 1.13666 0.85590
 N630 N 0.30102 1.09811 0.88076
 N631 N 0.31699 1.10926 0.90155
 C632 C 0.34569 1.09743 0.90969
 C633 C 0.36124 1.11139 0.93295
 C634 C 0.38931 1.10077 0.94171
 C635 C 0.40242 1.07587 0.92726
 C636 C 0.38687 1.06180 0.90377
 C637 C 0.35862 1.07253 0.89500
 H638 H 0.21711 1.10158 0.82198
 H639 H 0.26510 1.07944 0.83721
 H640 H 0.27283 1.14567 0.90725
 H641 H 0.22506 1.16795 0.89235
 H642 H 0.35148 1.13058 0.94439
 H643 H 0.40068 1.11203 0.95995
 H644 H 0.39644 1.04250 0.89237
 H645 H 0.34692 1.06140 0.87689
 C646 C 0.24178 0.87729 1.16759
 C647 C 0.26749 0.89108 1.15593
 C648 C 0.28119 0.87926 1.13069
 C649 C 0.26871 0.85326 1.11708
 C650 C 0.24290 0.83939 1.12872
 C651 C 0.22911 0.85122 1.15419
 N652 N 0.30770 0.89405 1.11962
 N653 N 0.32169 0.88466 1.09691
 C654 C 0.34827 0.89960 1.08617
 C655 C 0.36272 0.88774 1.06132
 C656 C 0.38886 0.90150 1.05046
 C657 C 0.40107 0.92748 1.06431
 C658 C 0.38645 0.93951 1.08915
 C659 C 0.36030 0.92569 1.10002
 H660 H 0.23187 0.88712 1.18718
 H661 H 0.27685 0.91108 1.16665
 H662 H 0.27888 0.84366 1.09752
 H663 H 0.23381 0.81939 1.11780
 H664 H 0.35373 0.86769 1.05040
 H665 H 0.39955 0.89174 1.03124
 H666 H 0.39527 0.95953 1.10025
 H667 H 0.34957 0.93537 1.11925
 C668 C 0.76156 1.11899 1.16718
 C669 C 0.73502 1.10619 1.15625
 C670 C 0.71934 1.12030 1.13322
 C671 C 0.73068 1.14747 1.12089
 C672 C 0.75733 1.16038 1.13183
 C673 C 0.77299 1.14635 1.15523
 N674 N 0.69189 1.10668 1.12306
 N675 N 0.67644 1.11820 1.10216
 C676 C 0.64890 1.10472 1.09210
 C677 C 0.63380 1.11828 1.06837
 C678 C 0.60695 1.10583 1.05780
 C679 C 0.59463 1.07954 1.07092
 C680 C 0.60971 1.06592 1.09487
 C681 C 0.63672 1.07841 1.10541
 H682 H 0.77298 1.10745 1.18517
 H683 H 0.72652 1.08525 1.16588
 H684 H 0.71890 1.15879 1.10299
 H685 H 0.76548 1.18142 1.12213
 H686 H 0.64296 1.13853 1.05796
 H687 H 0.59589 1.11682 1.03926
 H688 H 0.60074 1.04559 1.10529
 H689 H 0.64803 1.06753 1.12385
 C690 C 0.76057 0.88662 0.82494
 C691 C 0.73480 0.90074 0.83598
 C692 C 0.72057 0.88935 0.86131
 C693 C 0.73254 0.86368 0.87563
 C694 C 0.75818 0.84960 0.86469
 C695 C 0.77251 0.86078 0.83915
 N696 N 0.69395 0.90386 0.87196
 N697 N 0.68016 0.89390 0.89467
 C698 C 0.65339 0.90755 0.90586
 C699 C 0.63966 0.89453 0.93068
 C700 C 0.61327 0.90683 0.94206
 C701 C 0.60013 0.93248 0.92872
 C702 C 0.61405 0.94570 0.90391
 C703 C 0.64047 0.93333 0.89252
 H704 H 0.77100 0.89586 0.80526
 H705 H 0.72583 0.92052 0.82470
 H706 H 0.72205 0.85438 0.89525
 H707 H 0.76667 0.82980 0.87631
 H708 H 0.64942 0.87468 0.94117
 H709 H 0.60312 0.89620 0.96123
 H710 H 0.60446 0.96554 0.89322
 H711 H 0.65069 0.94383 0.87333
   
