data_POSCAR
  _audit_creation_date              2014-09-24
  _audit_creation_method            'ToBaCCo'
  _symmetry_space_group_name_H-M    'P1'
  _symmetry_Int_Tables_number       1
  _symmetry_cell_setting            triclinic
  loop_
  _symmetry_equiv_pos_as_xyz
 x,y,z
_cell_length_a 23.4577
_cell_length_b 23.2892
_cell_length_c 18.2653
_cell_angle_alpha 86.924200
_cell_angle_beta 90.113300
_cell_angle_gamma 88.892600
loop_
  _atom_site_label
  _atom_site_type_symbol
  _atom_site_fract_x
  _atom_site_fract_y
  _atom_site_fract_z
C1 C 1.29351 0.18925 0.27751
 C2 C 1.24500 0.21566 0.24554
 C3 C 1.20200 0.18223 0.21821
 C4 C 1.20870 0.12195 0.21922
 C5 C 1.25862 0.09574 0.24995
 C6 C 1.30113 0.12995 0.27886
 C7 C 1.24396 0.27833 0.23341
 C8 C 1.28990 0.30393 0.19694
 C9 C 1.29901 0.36255 0.19912
 C10 C 1.25905 0.39715 0.23593
 C11 C 1.21021 0.37185 0.26965
 C12 C 1.20325 0.31215 0.26742
 H13 H 1.32731 0.21542 0.29773
 H14 H 1.16511 0.20350 0.19237
 H15 H 1.32184 0.27698 0.17187
 H16 H 1.16840 0.29131 0.29640
 H17 H 1.26534 0.04968 0.24816
 H18 H 1.26684 0.44245 0.24101
 C19 C 0.78268 -0.31713 0.28632
 C20 C 0.73427 -0.28727 0.25861
 C21 C 0.69532 -0.31502 0.21478
 C22 C 0.70529 -0.37261 0.19794
 C23 C 0.75428 -0.40202 0.22606
 C24 C 0.79343 -0.37391 0.26935
 C25 C 0.73240 -0.22447 0.26211
 C26 C 0.77350 -0.19302 0.22285
 C27 C 0.77616 -0.13332 0.22717
 C28 C 0.73707 -0.10506 0.27070
 C29 C 0.69628 -0.13609 0.31120
 C30 C 0.69351 -0.19615 0.30658
 H31 H 0.81430 -0.29466 0.31676
 H32 H 0.65924 -0.29100 0.19090
 H33 H 0.80355 -0.21547 0.18900
 H34 H 0.66248 -0.22068 0.33822
 H35 H 0.76336 -0.44559 0.21084
 H36 H 0.73914 -0.05886 0.27439
 C37 C 0.79255 0.18957 -0.22063
 C38 C 0.75053 0.22208 -0.25981
 C39 C 0.70489 0.19394 -0.29123
 C40 C 0.70212 0.13359 -0.28413
 C41 C 0.74400 0.10195 -0.24491
 C42 C 0.78883 0.12942 -0.21257
 C43 C 0.75338 0.28543 -0.26425
 C44 C 0.80335 0.31257 -0.28842
 C45 C 0.80856 0.37209 -0.28490
 C46 C 0.76364 0.40484 -0.25676
 C47 C 0.71386 0.37809 -0.23113
 C48 C 0.70852 0.31840 -0.23654
 H49 H 0.82703 0.21129 -0.19473
 H50 H 0.67245 0.21880 -0.32184
 H51 H 0.83885 0.28712 -0.30790
 H52 H 0.67093 0.29702 -0.21531
 H53 H 0.74145 0.05550 -0.23911
 H54 H 0.76864 0.45053 -0.25088
 C55 C 1.27144 -0.29485 -0.22015
 C56 C 1.22929 -0.26990 -0.26599
 C57 C 1.19382 -0.30437 -0.30544
 C58 C 1.20039 -0.36458 -0.29894
 C59 C 1.24200 -0.38962 -0.25104
 C60 C 1.27730 -0.35438 -0.21136
 C61 C 1.22146 -0.20756 -0.26912
 C62 C 1.26199 -0.17340 -0.30470
 C63 C 1.26066 -0.11357 -0.29847
 C64 C 1.21761 -0.08815 -0.25848
 C65 C 1.17836 -0.12256 -0.22039
 C66 C 1.17949 -0.18233 -0.22668
 H67 H 1.29748 -0.26778 -0.18758
 H68 H 1.16145 -0.28414 -0.34107
 H69 H 1.29552 -0.19381 -0.33539
 H70 H 1.15012 -0.20934 -0.19552
 H71 H 1.24563 -0.43600 -0.24325
 H72 H 1.21741 -0.04215 -0.25212
 C73 C 0.18725 0.28739 0.72999
 C74 C 0.21889 0.24333 0.76718
 C75 C 0.19148 0.19487 0.79727
 C76 C 0.13243 0.18991 0.79045
 C77 C 0.10059 0.23403 0.75180
 C78 C 0.12821 0.28299 0.72065
 C79 C 0.28133 0.24635 0.76771
 C80 C 0.30728 0.29335 0.79726
 C81 C 0.36517 0.30318 0.78647
 C82 C 0.39794 0.26468 0.74549
 C83 C 0.37215 0.21643 0.71596
 C84 C 0.31383 0.20743 0.72855
 H85 H 0.20933 0.32400 0.70537
 H86 H 0.21642 0.16015 0.82423
 H87 H 0.28142 0.32443 0.82525
 H88 H 0.29277 0.17206 0.70426
 H89 H 0.05522 0.22935 0.74350
 H90 H 0.44232 0.27339 0.73400
 C91 C 0.70074 0.80628 0.73833
 C92 C 0.73109 0.75396 0.74986
 C93 C 0.70090 0.70297 0.76464
 C94 C 0.64116 0.70450 0.76858
 C95 C 0.61138 0.75697 0.75644
 C96 C 0.64114 0.80780 0.74101
 C97 C 0.79422 0.75298 0.74653
 C98 C 0.82552 0.79160 0.78630
 C99 C 0.88551 0.79096 0.78439
 C100 C 0.91398 0.75170 0.74068
 C101 C 0.88316 0.71355 0.69923
 C102 C 0.82324 0.71402 0.70323
 H103 H 0.72346 0.84576 0.72624
 H104 H 0.72382 0.66234 0.77366
 H105 H 0.80299 0.82102 0.82055
 H106 H 0.79898 0.68486 0.67165
 H107 H 0.56517 0.75817 0.75851
 H108 H 0.96014 0.75090 0.73880
 C109 C 0.69098 0.29335 0.21848
 C110 C 0.72022 0.24717 0.25548
 C111 C 0.68936 0.20113 0.28689
 C112 C 0.62954 0.20159 0.28234
 C113 C 0.60108 0.24727 0.24498
 C114 C 0.63116 0.29290 0.21258
 C115 C 0.78300 0.24622 0.26060
 C116 C 0.81142 0.28861 0.29744
 C117 C 0.87130 0.28707 0.30213
 C118 C 0.90242 0.24428 0.26846
 C119 C 0.87468 0.20193 0.23183
 C120 C 0.81472 0.20247 0.22873
 H121 H 0.71476 0.32838 0.19286
 H122 H 0.71187 0.16604 0.31650
 H123 H 0.78699 0.32198 0.32300
 H124 H 0.79268 0.17025 0.19944
 H125 H 0.55496 0.24741 0.24122
 H126 H 0.94859 0.24398 0.27076
 C127 C 0.20833 0.79994 0.23551
 C128 C 0.24103 0.74999 0.25396
 C129 C 0.21339 0.69843 0.27271
 C130 C 0.15393 0.69635 0.27337
 C131 C 0.12133 0.74613 0.25399
 C132 C 0.14856 0.79804 0.23470
 C133 C 0.30406 0.75082 0.25341
 C134 C 0.33352 0.79061 0.29318
 C135 C 0.39360 0.78925 0.29591
 C136 C 0.42395 0.74875 0.25629
 C137 C 0.39486 0.70911 0.21554
 C138 C 0.33490 0.71006 0.21511
 H139 H 0.22934 0.84002 0.22112
 H140 H 0.23828 0.65974 0.28723
 H141 H 0.30945 0.82120 0.32406
 H142 H 0.31192 0.67994 0.18347
 H143 H 0.07517 0.74451 0.25401
 H144 H 0.47013 0.74795 0.25737
 O145 O 1.08878 0.02919 0.10466
 O146 O 0.89526 -0.04212 0.10252
 O147 O 0.96861 0.09366 0.10285
 O148 O 1.01821 -0.10482 0.12017
 O149 O 0.88942 0.05571 0.07137
 O150 O 1.09839 -0.06840 0.08791
 O151 O 0.92602 -0.11969 0.06232
 O152 O 1.06394 0.10621 0.04822
 C153 C 1.09077 0.08169 0.09959
 C154 C 0.89571 -0.09476 0.10630
 C155 C 0.91668 0.08641 0.11318
 C156 C 1.06795 -0.09345 0.13591
 O157 O 1.09037 -0.04287 -0.06400
 O158 O 0.89899 0.03232 -0.07590
 O159 O 1.01841 0.09148 -0.08317
 O160 O 0.97289 -0.10861 -0.06846
 O161 O 0.89248 -0.06706 -0.04483
 O162 O 1.09860 0.05361 -0.04830
 O163 O 1.06670 -0.12012 -0.00958
 O164 O 0.92576 0.10834 -0.03030
 Co165 Co 1.08539 -0.00709 0.01995
 Co166 Co 0.90313 -0.00541 0.01354
 Co167 Co 0.99457 0.08833 0.01044
 Co168 Co 0.99612 -0.10206 0.02540
 O169 O 0.99472 -0.00663 0.01741
 C170 C 1.08971 -0.09531 -0.06271
 C171 C 0.89946 0.08513 -0.07877
 C172 C 1.06840 0.07914 -0.09746
 C173 C 0.92159 -0.09990 -0.08337
 O174 O 1.10292 0.53508 0.56960
 O175 O 0.90860 0.48639 0.59092
 O176 O 0.96867 0.60476 0.55801
 O177 O 1.03929 0.40723 0.58969
 O178 O 0.89034 0.57622 0.51990
 O179 O 1.11569 0.43422 0.53913
 O180 O 0.94260 0.40217 0.57131
 O181 O 1.06346 0.61193 0.52073
 C182 C 1.09462 0.58767 0.56957
 C183 C 0.91984 0.43649 0.61402
 C184 C 0.91657 0.60523 0.56340
 C185 C 1.09137 0.40553 0.58916
 O186 O 1.10099 0.46754 0.39781
 O187 O 0.90090 0.51816 0.39666
 O188 O 1.02996 0.59101 0.37860
 O189 O 0.96279 0.39990 0.41983
 O190 O 0.88827 0.43044 0.46975
 O191 O 1.10957 0.56671 0.42571
 O192 O 1.06292 0.39041 0.44320
 O193 O 0.93483 0.60141 0.40993
 Co194 Co 1.09638 0.50107 0.48390
 Co195 Co 0.90807 0.50285 0.49361
 Co196 Co 0.99927 0.59332 0.46894
 Co197 Co 1.00163 0.40914 0.50376
 O198 O 1.00167 0.50151 0.48760
 C199 C 1.09505 0.41515 0.39636
 C200 C 0.91044 0.56683 0.37045
 C201 C 1.08165 0.58540 0.37121
 C202 C 0.91050 0.40068 0.42303
 O203 O 0.58609 0.04009 0.60743
 O204 O 0.39288 -0.02282 0.60034
 O205 O 0.46317 0.10960 0.57824
 O206 O 0.51588 -0.08805 0.63146
 O207 O 0.38583 0.07218 0.54399
 O208 O 0.59812 -0.06058 0.59806
 O209 O 0.42664 -0.10478 0.57666
 O210 O 0.56025 0.11452 0.54298
 C211 C 0.58528 0.09288 0.59796
 C212 C 0.39427 -0.07521 0.61329
 C213 C 0.41124 0.10492 0.58520
 C214 C 0.56590 -0.07983 0.64747
 O215 O 0.59776 -0.04196 0.44699
 O216 O 0.40383 0.02333 0.41020
 O217 O 0.53219 0.08807 0.40593
 O218 O 0.47471 -0.10653 0.44390
 O219 O 0.39302 -0.06774 0.46396
 O220 O 0.60764 0.05641 0.46093
 O221 O 0.56666 -0.11579 0.50398
 O222 O 0.43286 0.10503 0.43537
 Co223 Co 0.58768 -0.00159 0.52722
 Co224 Co 0.40355 0.00142 0.50601
 Co225 Co 0.49689 0.09385 0.49292
 Co226 Co 0.49623 -0.09310 0.53666
 O227 O 0.49607 0.00026 0.51574
 C228 C 0.59461 -0.09453 0.45216
 C229 C 0.41315 0.07299 0.38964
 C230 C 0.58470 0.08292 0.40719
 C231 C 0.42360 -0.10022 0.42746
 O232 O 0.60096 0.54191 0.05894
 O233 O 0.40963 0.47027 0.08213
 O234 O 0.47884 0.60442 0.06980
 O235 O 0.53662 0.40596 0.08087
 O236 O 0.39877 0.56506 0.04916
 O237 O 0.61265 0.44452 0.03667
 O238 O 0.43811 0.39201 0.04189
 O239 O 0.56896 0.61913 0.00815
 C240 C 0.59821 0.59453 0.05790
 C241 C 0.41561 0.41838 0.09226
 C242 C 0.42846 0.59656 0.08707
 C243 C 0.58878 0.41310 0.08489
 O244 O 0.59545 0.47057 -0.11105
 O245 O 0.40150 0.53831 -0.09886
 O246 O 0.51601 0.60189 -0.12107
 O247 O 0.47422 0.40256 -0.09862
 O248 O 0.39562 0.43971 -0.06304
 O249 O 0.59974 0.56957 -0.09204
 O250 O 0.57106 0.39252 -0.05646
 O251 O 0.42479 0.61613 -0.05844
 Co252 Co 0.59292 0.50668 -0.02582
 Co253 Co 0.41011 0.50318 -0.00905
 Co254 Co 0.49783 0.59922 -0.02518
 Co255 Co 0.50436 0.40911 -0.00875
 O256 O 0.50131 0.50433 -0.01675
 C257 C 0.59666 0.41770 -0.10796
 C258 C 0.39083 0.58962 -0.09571
 C259 C 0.56620 0.59308 -0.13879
 C260 C 0.42356 0.41450 -0.11086
 N261 N 1.16852 0.08823 0.18162
 N262 N 1.12925 0.11274 0.14230
 N263 N 1.16575 0.59969 0.65851
 N264 N 1.12672 0.62157 0.61664
 N265 N 0.65974 0.10249 0.67979
 N266 N 0.62191 0.12698 0.63876
 N267 N 0.66906 0.59913 0.14822
 N268 N 0.63208 0.62568 0.10702
 N269 N 0.81778 -0.10090 0.18672
 N270 N 0.85630 -0.12608 0.15079
 N271 N 0.85742 0.39590 0.69933
 N272 N 0.90406 0.41761 0.68650
 N273 N 0.30444 -0.07914 0.66961
 N274 N 0.35142 -0.10342 0.65448
 N275 N 0.34950 0.38049 0.17779
 N276 N 0.39945 0.39028 0.16044
 N277 N 0.82753 0.09554 -0.16734
 N278 N 0.86427 0.11880 -0.12816
 N279 N 0.84359 0.60300 0.28509
 N280 N 0.89203 0.58356 0.29785
 N281 N 0.35108 0.10884 0.29903
 N282 N 0.39981 0.09302 0.31660
 N283 N 0.30783 0.62466 -0.15620
 N284 N 0.33302 0.60911 -0.09937
 N285 N 1.14373 -0.09652 -0.16756
 N286 N 1.11923 -0.12556 -0.11643
 N287 N 1.17174 0.40533 0.31283
 N288 N 1.13046 0.38254 0.34903
 N289 N 0.66026 -0.10522 0.35879
 N290 N 0.62719 -0.12943 0.40545
 N291 N 0.67287 0.41072 -0.19150
 N292 N 0.63416 0.38618 -0.15314
 N293 N 1.10931 0.14111 -0.18730
 N294 N 1.09090 0.09318 -0.16881
 N295 N 1.12953 0.64717 0.28935
 N296 N 1.10802 0.59991 0.30259
 N297 N 0.59623 0.15975 0.32172
 N298 N 0.61881 0.11797 0.35950
 N299 N 0.61304 0.65687 -0.21921
 N300 N 0.58590 0.61229 -0.20967
 N301 N 0.91764 -0.17277 -0.16995
 N302 N 0.89307 -0.13304 -0.13558
 N303 N 0.90196 0.32724 0.34244
 N304 N 0.87731 0.36368 0.38148
 N305 N 0.42385 -0.17363 0.34205
 N306 N 0.39712 -0.13528 0.37613
 N307 N 0.38479 0.35274 -0.19465
 N308 N 0.39808 0.40169 -0.17914
 N309 N 1.11845 -0.15481 0.21912
 N310 N 1.09038 -0.10996 0.20692
 N311 N 1.09716 0.32545 0.67509
 N312 N 1.12229 0.36526 0.63726
 N313 N 0.61339 -0.14328 0.72916
 N314 N 0.58716 -0.09726 0.71854
 N315 N 0.59965 0.33524 0.16910
 N316 N 0.62263 0.37727 0.13413
 N317 N 0.90823 0.16233 0.19219
 N318 N 0.88541 0.12092 0.16144
 N319 N 0.91322 0.67565 0.65231
 N320 N 0.88703 0.64178 0.61183
 N321 N 0.40400 0.17971 0.66885
 N322 N 0.38010 0.14061 0.63362
 N323 N 0.42621 0.67081 0.17080
 N324 N 0.40107 0.63075 0.13957
   
