data_POSCAR
  _audit_creation_date              2014-09-24
  _audit_creation_method            'ToBaCCo'
  _symmetry_space_group_name_H-M    'P1'
  _symmetry_Int_Tables_number       1
  _symmetry_cell_setting            triclinic
  loop_
  _symmetry_equiv_pos_as_xyz
 x,y,z
_cell_length_a 45.2826
_cell_length_b 26.2189
_cell_length_c 19.3350
_cell_angle_alpha 90.052800
_cell_angle_beta 89.880300
_cell_angle_gamma 90.053700
loop_
  _atom_site_label
  _atom_site_type_symbol
  _atom_site_fract_x
  _atom_site_fract_y
  _atom_site_fract_z
C1 C 0.69585 0.30268 0.56361
 C2 C 0.68297 0.31583 0.50048
 C3 C 0.69611 0.30246 0.43768
 C4 C 0.72300 0.27520 0.43721
 C5 C 0.73637 0.26155 0.50094
 C6 C 0.72278 0.27535 0.56452
 C7 C 0.73644 0.26142 0.62700
 C8 C 0.76290 0.23442 0.62714
 C9 C 0.77674 0.22029 0.56480
 C10 C 0.76336 0.23398 0.50106
 C11 C 0.73680 0.26119 0.37487
 C12 C 0.76327 0.23421 0.37496
 C13 C 0.77693 0.22021 0.43742
 C14 C 0.80381 0.19281 0.43825
 C15 C 0.81670 0.17952 0.50125
 C16 C 0.80362 0.19285 0.56418
 H17 H 0.72674 0.27133 0.67643
 H18 H 0.77247 0.22463 0.67667
 H19 H 0.72723 0.27103 0.32539
 H20 H 0.77299 0.22436 0.32550
 H21 H 0.66225 0.33671 0.50008
 H22 H 0.83740 0.15851 0.50130
 C23 C 0.30278 0.69387 0.43760
 C24 C 0.31578 0.68062 0.50041
 C25 C 0.30280 0.69392 0.56339
 C26 C 0.27595 0.72125 0.56433
 C27 C 0.26245 0.73495 0.50080
 C28 C 0.27593 0.72121 0.43705
 C29 C 0.26224 0.73518 0.37473
 C30 C 0.23574 0.76212 0.37490
 C31 C 0.22200 0.77607 0.43740
 C32 C 0.23547 0.76244 0.50099
 C33 C 0.26227 0.73523 0.62684
 C34 C 0.23577 0.76217 0.62706
 C35 C 0.22196 0.77614 0.56474
 C36 C 0.19500 0.80338 0.56411
 C37 C 0.18203 0.81656 0.50109
 C38 C 0.19511 0.80327 0.43817
 H39 H 0.27192 0.72532 0.32525
 H40 H 0.22609 0.77195 0.32550
 H41 H 0.27198 0.72540 0.67619
 H42 H 0.22615 0.77201 0.67661
 H43 H 0.33647 0.65969 0.50029
 H44 H 0.16129 0.83737 0.50086
 C45 C 0.19533 0.19768 -0.44030
 C46 C 0.18225 0.18451 -0.50315
 C47 C 0.19528 0.19775 -0.56623
 C48 C 0.22229 0.22494 -0.56699
 C49 C 0.23580 0.23852 -0.50332
 C50 C 0.22228 0.22481 -0.43967
 C51 C 0.23601 0.23860 -0.37723
 C52 C 0.26255 0.26548 -0.37715
 C53 C 0.27630 0.27953 -0.43951
 C54 C 0.26285 0.26595 -0.50324
 C55 C 0.23614 0.23897 -0.62937
 C56 C 0.26269 0.26584 -0.62930
 C57 C 0.27642 0.27975 -0.56684
 C58 C 0.30337 0.30706 -0.56590
 C59 C 0.31630 0.32017 -0.50282
 C60 C 0.30321 0.30678 -0.44005
 H61 H 0.22632 0.22870 -0.32779
 H62 H 0.27222 0.27521 -0.32769
 H63 H 0.22651 0.22922 -0.67887
 H64 H 0.27240 0.27571 -0.67874
 H65 H 0.16148 0.16373 -0.50282
 H66 H 0.33704 0.34107 -0.50243
 C67 C -0.30503 0.69656 -0.43873
 C68 C -0.31802 0.68328 -0.50172
 C69 C -0.30499 0.69665 -0.56474
 C70 C -0.27808 0.72410 -0.56547
 C71 C -0.26462 0.73780 -0.50181
 C72 C -0.27810 0.72397 -0.43810
 C73 C -0.26433 0.73797 -0.37571
 C74 C -0.23788 0.76508 -0.37578
 C75 C -0.22420 0.77921 -0.43819
 C76 C -0.23765 0.76549 -0.50184
 C77 C -0.26429 0.73824 -0.62789
 C78 C -0.23783 0.76535 -0.62790
 C79 C -0.22413 0.77940 -0.56550
 C80 C -0.19726 0.80697 -0.56467
 C81 C -0.18435 0.82020 -0.50163
 C82 C -0.19739 0.80670 -0.43883
 H83 H -0.27393 0.72803 -0.32618
 H84 H -0.22821 0.77494 -0.32636
 H85 H -0.27389 0.72841 -0.67738
 H86 H -0.22817 0.77529 -0.67736
 H87 H -0.33874 0.66229 -0.50168
 H88 H -0.16367 0.84129 -0.50128
 O89 O -0.04144 0.91395 0.12815
 O90 O -0.07414 0.95857 0.06050
 C91 C -0.06795 0.92706 0.10999
 O92 O 0.04147 1.09255 0.12203
 O93 O 0.07415 1.04446 0.05856
 C94 C 0.06797 1.07880 0.10460
 O95 O -0.04093 1.08836 0.12839
 O96 O -0.07351 1.04282 0.06173
 C97 C -0.06736 1.07474 0.11079
 O98 O 0.04127 0.90844 0.12181
 O99 O 0.07405 0.95636 0.05817
 C100 C 0.06778 0.92213 0.10431
 Zr101 Zr -0.00001 0.93548 0.08618
 O102 O 0.00048 0.92710 0.19495
 O103 O -0.00109 0.85546 0.07360
 Zr104 Zr 0.00013 1.06498 0.08707
 O105 O 0.00282 1.06657 0.19632
 O106 O -0.00304 1.14553 0.08341
 O107 O -0.02601 1.00021 0.10046
 O108 O 0.02556 1.00025 0.09950
 O109 O 0.04149 0.90825 -0.12212
 O110 O 0.07417 0.95688 -0.05945
 C111 C 0.06798 0.92231 -0.10519
 O112 O -0.04142 1.08766 -0.12738
 O113 O -0.07412 1.04218 -0.06035
 C114 C -0.06792 1.07412 -0.10940
 O115 O 0.04144 1.09273 -0.12211
 O116 O 0.07413 1.04456 -0.05914
 C117 C 0.06793 1.07892 -0.10500
 O118 O -0.04137 0.91316 -0.12757
 O119 O -0.07411 0.95856 -0.06054
 C120 C -0.06788 0.92664 -0.10964
 Zr121 Zr 0.00012 0.93589 -0.08724
 O122 O 0.00322 0.93325 -0.19642
 O123 O -0.00283 0.85533 -0.08360
 Zr124 Zr 0.00006 1.06527 -0.08692
 O125 O 0.00312 1.06869 -0.19602
 O126 O -0.00331 1.14576 -0.08199
 Zr127 Zr -0.04392 1.00036 -0.00013
 Zr128 Zr 0.04424 1.00059 -0.00028
 O129 O 0.02557 1.00064 -0.09999
 O130 O -0.02602 1.00052 -0.10090
 O131 O 0.02673 0.92600 -0.00053
 O132 O -0.02582 1.07427 0.00021
 O133 O -0.02597 0.92641 -0.00041
 O134 O 0.02670 1.07511 -0.00001
 H135 H 0.03866 1.00034 0.14044
 H136 H -0.03946 1.10380 0.00033
 H137 H 0.03852 1.00064 -0.14134
 H138 H -0.03969 0.89693 -0.00034
 H139 H 0.01489 1.15855 0.06003
 H140 H 0.01493 1.15884 -0.06019
 H141 H -0.01099 1.04345 -0.21477
 H142 H -0.01149 0.95746 -0.21495
 H143 H 0.01398 0.84286 -0.05570
 H144 H -0.00199 0.84105 0.12090
 H145 H 0.00588 0.96060 0.21459
 H146 H -0.01186 1.04188 0.21424
 O147 O 0.45952 0.41308 0.12744
 O148 O 0.42687 0.45774 0.05973
 C149 C 0.43303 0.42621 0.10921
 O150 O 0.54221 0.59182 0.12146
 O151 O 0.57494 0.54382 0.05796
 C152 C 0.56871 0.57811 0.10404
 O153 O 0.45940 0.58708 0.12664
 O154 O 0.42684 0.54133 0.05987
 C155 C 0.43295 0.57338 0.10885
 O156 O 0.54219 0.40761 0.12104
 O157 O 0.57495 0.45569 0.05761
 C158 C 0.56870 0.42140 0.10369
 Zr159 Zr 0.50092 0.43466 0.08539
 O160 O 0.50179 0.42628 0.19410
 O161 O 0.49978 0.35464 0.07275
 Zr162 Zr 0.50091 0.56419 0.08645
 O163 O 0.50359 0.56590 0.19572
 O164 O 0.49771 0.64474 0.08336
 O165 O 0.47487 0.49937 0.09986
 O166 O 0.52640 0.49946 0.09882
 O167 O 0.54239 0.40753 -0.12284
 O168 O 0.57506 0.45620 -0.06016
 C169 C 0.56888 0.42162 -0.10587
 O170 O 0.45953 0.58709 -0.12794
 O171 O 0.42689 0.54151 -0.06094
 C172 C 0.43305 0.57354 -0.10988
 O173 O 0.54236 0.59204 -0.12279
 O174 O 0.57502 0.54390 -0.05975
 C175 C 0.56884 0.57823 -0.10567
 O176 O 0.45955 0.41241 -0.12867
 O177 O 0.42690 0.45786 -0.06152
 C178 C 0.43307 0.42596 -0.11071
 Zr179 Zr 0.50099 0.43511 -0.08814
 O180 O 0.50410 0.43254 -0.19731
 O181 O 0.49800 0.35455 -0.08448
 Zr182 Zr 0.50099 0.56455 -0.08761
 O183 O 0.50406 0.56787 -0.19673
 O184 O 0.49767 0.64505 -0.08277
 Zr185 Zr 0.45707 0.49961 -0.00082
 Zr186 Zr 0.54512 0.49982 -0.00094
 O187 O 0.52646 0.49989 -0.10072
 O188 O 0.47489 0.49982 -0.10165
 O189 O 0.52762 0.42521 -0.00137
 O190 O 0.47510 0.57357 -0.00049
 O191 O 0.47493 0.42562 -0.00123
 O192 O 0.52755 0.57433 -0.00059
 H193 H 0.53942 0.49951 0.13991
 H194 H 0.46144 0.60307 -0.00037
 H195 H 0.53944 0.49994 -0.14203
 H196 H 0.46119 0.39618 -0.00123
 H197 H 0.51550 0.65781 0.05944
 H198 H 0.51586 0.65809 -0.06069
 H199 H 0.48975 0.54297 -0.21551
 H200 H 0.48953 0.45700 -0.21583
 H201 H 0.51484 0.34207 -0.05668
 H202 H 0.49895 0.34020 0.12004
 H203 H 0.50462 0.46073 0.21366
 H204 H 0.48825 0.54252 0.21379
 C205 C 0.31801 0.32136 0.37531
 C206 C 0.33241 0.33519 0.32630
 C207 C 0.35100 0.35270 0.27270
 C208 C 0.36819 0.36858 0.23022
 C209 C 0.38967 0.38804 0.18434
 C210 C 0.40901 0.40522 0.14834
 C211 C -0.18268 0.82143 0.37649
 C212 C -0.16832 0.83541 0.32746
 C213 C -0.14979 0.85312 0.27384
 C214 C -0.13265 0.86915 0.23131
 C215 C -0.11123 0.88876 0.18532
 C216 C -0.09194 0.90602 0.14922
 C217 C 0.68057 0.68262 0.37611
 C218 C 0.66664 0.66934 0.32614
 C219 C 0.64882 0.65259 0.27078
 C220 C 0.63231 0.63721 0.22661
 C221 C 0.61152 0.61792 0.17900
 C222 C 0.59257 0.60036 0.14230
 C223 C 0.18074 1.18382 0.37470
 C224 C 0.16665 1.17049 0.32497
 C225 C 0.14859 1.15363 0.27003
 C226 C 0.13190 1.13814 0.22627
 C227 C 0.11092 1.11876 0.17908
 C228 C 0.09188 1.10113 0.14268
 C229 C 0.68127 0.31678 -0.37736
 C230 C 0.66723 0.33015 -0.32750
 C231 C 0.64928 0.34701 -0.27228
 C232 C 0.63268 0.36245 -0.22822
 C233 C 0.61179 0.38179 -0.18072
 C234 C 0.59278 0.39938 -0.14411
 C235 C 0.18047 0.81740 -0.37672
 C236 C 0.16643 0.83075 -0.32683
 C237 C 0.14845 0.84762 -0.27164
 C238 C 0.13181 0.86309 -0.22763
 C239 C 0.11090 0.88245 -0.18015
 C240 C 0.09189 0.90005 -0.14350
 C241 C 0.31819 0.67885 -0.37456
 C242 C 0.33261 0.66498 -0.32579
 C243 C 0.35117 0.64743 -0.27238
 C244 C 0.36831 0.63151 -0.23004
 C245 C 0.38974 0.61198 -0.18434
 C246 C 0.40905 0.59470 -0.14858
 C247 C -0.18194 1.17864 -0.37683
 C248 C -0.16773 1.16490 -0.32760
 C249 C -0.14939 1.14749 -0.27365
 C250 C -0.13240 1.13169 -0.23085
 C251 C -0.11111 1.11229 -0.18462
 C252 C -0.09189 1.09514 -0.14845
 C253 C 0.68052 0.68246 -0.37950
 C254 C 0.66660 0.66913 -0.32940
 C255 C 0.64882 0.65236 -0.27377
 C256 C 0.63237 0.63704 -0.22928
 C257 C 0.61164 0.61786 -0.18122
 C258 C 0.59272 0.60038 -0.14420
 C259 C 0.18001 1.18292 -0.37778
 C260 C 0.16598 1.16966 -0.32787
 C261 C 0.14810 1.15299 -0.27245
 C262 C 0.13157 1.13771 -0.22814
 C263 C 0.11076 1.11857 -0.18030
 C264 C 0.09180 1.10111 -0.14343
 C265 C 0.31855 0.32170 -0.37775
 C266 C 0.33291 0.33544 -0.32873
 C267 C 0.35140 0.35281 -0.27496
 C268 C 0.36847 0.36856 -0.23223
 C269 C 0.38982 0.38788 -0.18603
 C270 C 0.40908 0.40498 -0.14983
 C271 C -0.18208 0.82173 -0.37659
 C272 C -0.16777 0.83554 -0.32755
 C273 C -0.14936 0.85299 -0.27374
 C274 C -0.13234 0.86883 -0.23100
 C275 C -0.11104 0.88828 -0.18483
 C276 C -0.09181 0.90550 -0.14869
 C277 C 0.31816 0.67874 0.37532
 C278 C 0.33256 0.66480 0.32635
 C279 C 0.35109 0.64719 0.27265
 C280 C 0.36821 0.63125 0.23003
 C281 C 0.38962 0.61171 0.18396
 C282 C 0.40891 0.59447 0.14787
 C283 C -0.18159 1.17861 0.37934
 C284 C -0.16730 1.16494 0.33004
 C285 C -0.14891 1.14767 0.27593
 C286 C -0.13189 1.13200 0.23292
 C287 C -0.11058 1.11275 0.18644
 C288 C -0.09134 1.09569 0.15007
 C289 C 0.68089 0.31718 0.37512
 C290 C 0.66686 0.33049 0.32537
 C291 C 0.64894 0.34726 0.27022
 C292 C 0.63237 0.36261 0.22619
 C293 C 0.61152 0.38181 0.17867
 C294 C 0.59256 0.39928 0.14201
 C295 C 0.17983 0.81799 0.37574
 C296 C 0.16582 0.83125 0.32597
 C297 C 0.14793 0.84795 0.27078
 C298 C 0.13139 0.86326 0.22670
 C299 C 0.11058 0.88245 0.17916
 C300 C 0.09163 0.89995 0.14252
   
