data_POSCAR
  _audit_creation_date              2014-09-24
  _audit_creation_method            'ToBaCCo'
  _symmetry_space_group_name_H-M    'P1'
  _symmetry_Int_Tables_number       1
  _symmetry_cell_setting            triclinic
  loop_
  _symmetry_equiv_pos_as_xyz
 x,y,z
_cell_length_a 29.5426
_cell_length_b 29.6144
_cell_length_c 29.7595
_cell_angle_alpha 92.817600
_cell_angle_beta 90.786400
_cell_angle_gamma 88.975100
loop_
  _atom_site_label
  _atom_site_type_symbol
  _atom_site_fract_x
  _atom_site_fract_y
  _atom_site_fract_z
C1 C 0.04283 0.43427 0.20702
 H2 H 0.07156 0.44811 0.22539
 C3 C 0.04715 0.39172 0.18494
 H4 H 0.07981 0.37471 0.18625
 C5 C -0.03301 0.44132 0.18190
 H6 H -0.06463 0.46013 0.18163
 C7 C -0.03009 0.39903 0.15881
 H8 H -0.06039 0.38651 0.14209
 N9 N 0.00271 0.45752 0.20664
 C10 C -0.01704 0.60191 0.24379
 H11 H -0.02047 0.59864 0.27962
 C12 C -0.01890 0.64462 0.22609
 H13 H -0.02405 0.67418 0.24845
 C14 C -0.00559 0.56710 0.17130
 H15 H 0.00007 0.53671 0.15033
 C16 C -0.00798 0.60937 0.15198
 H17 H -0.00391 0.61139 0.11604
 Zn18 Zn -0.00432 0.50954 0.24698
 N19 N -0.00949 0.56434 0.21659
 C20 C 0.07742 0.54718 0.28048
 N21 N 0.04830 0.51267 0.28534
 C22 C 0.05938 0.47808 0.31219
 C23 C 0.10152 0.47681 0.33432
 C24 C 0.11965 0.54730 0.30204
 C25 C -0.09774 0.51417 0.25569
 C26 C -0.14010 0.51242 0.27562
 C27 C -0.10301 0.49202 0.34463
 C28 C -0.06112 0.49443 0.32335
 N29 N -0.05926 0.50483 0.27937
 H30 H 0.06902 0.57383 0.25822
 H31 H 0.03658 0.45013 0.31442
 H32 H 0.11035 0.44807 0.35399
 H33 H 0.14225 0.57497 0.29718
 H34 H -0.09550 0.52384 0.22124
 H35 H -0.16997 0.52086 0.25607
 H36 H -0.10375 0.48283 0.37936
 H37 H -0.03032 0.48796 0.34206
 C38 C -0.01389 0.64881 0.17973
 C39 C 0.01000 0.37233 0.16130
 C40 C -0.14336 0.50096 0.32066
 C41 C 0.13270 0.51133 0.32861
 C42 C 0.05092 0.55079 0.80788
 H43 H 0.08074 0.53240 0.79601
 C44 C 0.05549 0.59272 0.83091
 H45 H 0.08895 0.60612 0.83739
 C46 C -0.02909 0.55721 0.81117
 H47 H -0.06196 0.54398 0.80181
 C48 C -0.02607 0.59894 0.83481
 H49 H -0.05685 0.61752 0.84364
 N50 N 0.00908 0.53473 0.79718
 C51 C 0.00426 0.39293 0.74922
 H52 H 0.00189 0.39740 0.71340
 C53 C 0.00264 0.34967 0.76524
 H54 H -0.00043 0.32092 0.74153
 C55 C 0.00854 0.42541 0.82356
 H56 H 0.01027 0.45521 0.84599
 C57 C 0.00649 0.38253 0.84114
 H58 H 0.00740 0.37938 0.87724
 Zn59 Zn 0.00428 0.48724 0.75284
 N60 N 0.00718 0.42976 0.77827
 C61 C 0.08245 0.45785 0.70426
 N62 N 0.05308 0.49311 0.71264
 C63 C 0.06108 0.53470 0.69706
 C64 C 0.10035 0.54222 0.67304
 C65 C 0.12126 0.46355 0.67933
 C66 C -0.08295 0.45948 0.72697
 C67 C -0.12538 0.46175 0.70650
 C68 C -0.10673 0.53477 0.68012
 C69 C -0.06388 0.53035 0.70025
 N70 N -0.05263 0.49288 0.72282
 H71 H 0.07721 0.42560 0.71832
 H72 H 0.03834 0.56272 0.70548
 H73 H 0.10732 0.57577 0.66228
 H74 H 0.14480 0.43541 0.67385
 H75 H -0.07513 0.43129 0.74740
 H76 H -0.14838 0.43487 0.71286
 H77 H -0.11334 0.56458 0.66135
 H78 H -0.03982 0.55716 0.69817
 C79 C 0.00343 0.34408 0.81170
 C80 C 0.01661 0.61786 0.84348
 C81 C -0.13858 0.49974 0.68220
 C82 C 0.13087 0.50627 0.66424
 C83 C 0.17958 0.03205 0.43745
 H84 H 0.17149 0.05806 0.46303
 C85 C 0.15784 0.03205 0.39534
 H86 H 0.13224 0.05769 0.38914
 C87 C 0.22380 -0.03211 0.41394
 H88 H 0.25078 -0.05606 0.42040
 C89 C 0.20315 -0.03326 0.37159
 H90 H 0.21453 -0.05835 0.34636
 N91 N 0.21205 0.00033 0.44584
 C92 C 0.23908 0.00945 0.59082
 H93 H 0.27533 0.01317 0.58863
 C94 C 0.21893 0.00890 0.63275
 H95 H 0.23968 0.01233 0.66299
 C96 C 0.16804 -0.00053 0.55383
 H97 H 0.14867 -0.00472 0.52286
 C98 C 0.14654 -0.00246 0.59537
 H99 H 0.11040 -0.00774 0.59646
 Zn100 Zn 0.24771 0.00469 0.49921
 N101 N 0.21356 0.00546 0.55249
 C102 C 0.26829 0.09361 0.52754
 N103 N 0.28067 0.05904 0.49822
 C104 C 0.31226 0.06488 0.46625
 C105 C 0.33338 0.10664 0.46363
 C106 C 0.28825 0.13571 0.52598
 C107 C 0.25921 -0.08548 0.50668
 C108 C 0.27956 -0.12813 0.50591
 C109 C 0.35177 -0.09353 0.49475
 C110 C 0.32985 -0.05110 0.49594
 N111 N 0.28418 -0.04816 0.50100
 H112 H 0.24181 0.08920 0.55147
 H113 H 0.32038 0.03745 0.44222
 H114 H 0.35810 0.11099 0.43774
 H115 H 0.27795 0.16257 0.54987
 H116 H 0.22299 -0.08205 0.51092
 H117 H 0.25879 -0.15723 0.51066
 H118 H 0.38795 -0.09569 0.48949
 H119 H 0.34912 -0.02092 0.49198
 C120 C 0.17226 0.00263 0.63527
 C121 C 0.17007 -0.00061 0.36150
 C122 C 0.32629 -0.13278 0.49906
 C123 C 0.32102 0.14281 0.49358
 C124 C 0.82596 0.01349 0.55019
 H125 H 0.84370 0.02441 0.52132
 C126 C 0.84810 0.01353 0.59206
 H127 H 0.88274 0.02478 0.59524
 C128 C 0.75978 -0.01529 0.58177
 H129 H 0.72537 -0.02675 0.57752
 C130 C 0.78093 -0.01682 0.62381
 H131 H 0.76257 -0.02900 0.65192
 N132 N 0.78244 -0.00064 0.54589
 C133 C 0.78745 -0.04157 0.41012
 H134 H 0.76616 -0.06973 0.41646
 C135 C 0.81013 -0.04134 0.36943
 H136 H 0.80467 -0.06955 0.34567
 C137 C 0.81542 0.03061 0.43206
 H138 H 0.81616 0.05921 0.45608
 C139 C 0.83845 0.03252 0.39150
 H140 H 0.85856 0.06196 0.38653
 Zn141 Zn 0.75034 -0.00411 0.49021
 N142 N 0.78975 -0.00567 0.44020
 C143 C 0.71155 0.07147 0.44938
 N144 N 0.71100 0.04705 0.48694
 C145 C 0.68660 0.06149 0.52352
 C146 C 0.66393 0.10340 0.52424
 C147 C 0.69012 0.11375 0.44897
 C148 C 0.74223 -0.09548 0.50117
 C149 C 0.72184 -0.13740 0.50193
 C150 C 0.65217 -0.10322 0.47529
 C151 C 0.67380 -0.06150 0.47579
 N152 N 0.71806 -0.05857 0.48864
 H153 H 0.72982 0.05895 0.42005
 H154 H 0.68631 0.04151 0.55291
 H155 H 0.64617 0.11542 0.55422
 H156 H 0.69234 0.13356 0.41946
 H157 H 0.77750 -0.09215 0.51082
 H158 H 0.74152 -0.16640 0.51226
 H159 H 0.61687 -0.10540 0.46526
 H160 H 0.65545 -0.03161 0.46581
 C161 C 0.83548 -0.00345 0.35866
 C162 C 0.82555 -0.00227 0.62922
 C163 C 0.67631 -0.14159 0.48896
 C164 C 0.66697 0.13059 0.48715
 C165 C 0.56039 0.19005 0.96016
 H166 H 0.53535 0.18342 0.93393
 C167 C 0.60299 0.16828 0.95779
 H168 H 0.61036 0.14466 0.92982
 C169 C 0.58268 0.23072 1.02708
 H170 H 0.57585 0.25608 1.05342
 C171 C 0.62521 0.21000 1.02599
 H172 H 0.64953 0.21873 1.05243
 N173 N 0.55097 0.22052 0.99469
 C174 C 0.40657 0.24511 1.01449
 H175 H 0.41079 0.27991 1.02629
 C176 C 0.36414 0.22590 1.01625
 H177 H 0.33774 0.24660 1.03181
 C178 C 0.43838 0.17709 0.98317
 H179 H 0.46745 0.15840 0.97005
 C180 C 0.39595 0.15660 0.98319
 H181 H 0.39400 0.12258 0.96864
 Zn182 Zn 0.49604 0.25528 0.99795
 N183 N 0.44268 0.22079 0.99835
 C184 C 0.45738 0.28551 0.91834
 N185 N 0.49237 0.29244 0.94796
 C186 C 0.52581 0.32179 0.93963
 C187 C 0.52515 0.34490 0.89965
 C188 C 0.45560 0.30753 0.87808
 C189 C 0.49325 0.26052 1.08897
 C190 C 0.49392 0.27831 1.13296
 C191 C 0.50004 0.35306 1.10458
 C192 C 0.49938 0.33362 1.06066
 N193 N 0.49635 0.28801 1.05396
 H194 H 0.43139 0.26169 0.92503
 H195 H 0.55365 0.32615 0.96334
 H196 H 0.55259 0.36722 0.89279
 H197 H 0.42778 0.30098 0.85472
 H198 H 0.49100 0.22436 1.08249
 H199 H 0.49258 0.25545 1.16019
 H200 H 0.50221 0.38940 1.10974
 H201 H 0.50143 0.35477 1.03219
 C202 C 0.35732 0.18095 0.99981
 C203 C 0.63618 0.17877 0.99084
 C204 C 0.49722 0.32511 1.14135
 C205 C 0.49011 0.33706 0.86793
 C206 C 0.43616 0.79205 0.97111
 H207 H 0.45911 0.78798 0.94312
 C208 C 0.39187 0.80793 0.96397
 H209 H 0.38222 0.81520 0.92992
 C210 C 0.42111 0.78233 1.04774
 H211 H 0.43202 0.77156 1.08028
 C212 C 0.37688 0.79850 1.04237
 H213 H 0.35634 0.80178 1.07214
 N214 N 0.44974 0.77904 1.01236
 C215 C 0.59480 0.76922 1.03718
 H216 H 0.59396 0.73751 1.05365
 C217 C 0.63594 0.79043 1.03240
 H218 H 0.66637 0.77546 1.04644
 C219 C 0.55639 0.82577 0.99686
 H220 H 0.52543 0.83839 0.98184
 C221 C 0.59712 0.84831 0.99137
 H222 H 0.59725 0.87855 0.97234
 Zn223 Zn 0.50607 0.74785 1.01848
 N224 N 0.55624 0.78658 1.01889
 C225 C 0.54951 0.70910 0.94190
 N226 N 0.51205 0.70666 0.96777
 C227 C 0.47641 0.68082 0.95396
 C228 C 0.47672 0.65804 0.91162
 C229 C 0.55127 0.68688 0.89954
 C230 C 0.51264 0.74663 1.11145
 C231 C 0.51104 0.72939 1.15413
 C232 C 0.49877 0.65521 1.11907
 C233 C 0.50063 0.67395 1.07688
 N234 N 0.50682 0.71907 1.07396
 H235 H 0.57734 0.73020 0.95286
 H236 H 0.44672 0.67994 0.97476
 H237 H 0.44750 0.63870 0.90063
 H238 H 0.58047 0.69140 0.87874
 H239 H 0.51746 0.78243 1.10811
 H240 H 0.51437 0.75227 1.18345
 H241 H 0.49366 0.61924 1.12088
 H242 H 0.49640 0.65266 1.04660
 C243 C 0.63769 0.82980 1.00825
 C244 C 0.36063 0.81085 0.99974
 C245 C 0.50354 0.68319 1.15843
 C246 C 0.51404 0.66200 0.88325
 B247 B 1.00158 1.04591 0.02457
 B248 B 1.00152 1.04289 -0.03414
 B249 B 1.04888 1.02558 -0.00336
 B250 B 1.03060 0.99868 0.04261
 B251 B 0.97242 0.99990 0.04231
 B252 B 0.95388 1.02730 -0.00499
 B253 B 1.00175 0.94821 -0.03428
 B254 B 1.00088 0.95098 0.02439
 B255 B 0.95367 0.96865 -0.00647
 B256 B 0.97300 0.99523 -0.05303
 B257 B 1.03124 0.99414 -0.05114
 B258 B 1.04879 0.96650 -0.00438
 B259 B 0.54599 0.49994 0.47831
 B260 B 0.54684 0.50219 0.53632
 B261 B 0.52733 0.54858 0.50776
 B262 B 0.49782 0.52896 0.46089
 B263 B 0.49865 0.47052 0.46032
 B264 B 0.52875 0.45351 0.50654
 B265 B 0.45191 0.50277 0.53679
 B266 B 0.45098 0.50148 0.47854
 B267 B 0.47006 0.45455 0.50684
 B268 B 0.49967 0.47384 0.55456
 B269 B 0.49968 0.53177 0.55528
 B270 B 0.46928 0.54877 0.50848
 C271 C 1.01248 1.23521 0.10871
 C272 C 1.04227 1.24932 0.14354
 C273 C 1.04237 1.29448 0.15995
 C274 C 1.01226 1.32714 0.14237
 C275 C 0.98339 1.31275 0.10645
 C276 C 0.98373 1.26776 0.08985
 C277 C 1.01004 1.18674 0.09264
 C278 C 0.96837 1.16803 0.08043
 C279 C 0.96572 1.12365 0.06278
 C280 C 1.00407 1.09596 0.05380
 C281 C 1.04484 1.11338 0.07315
 C282 C 1.04826 1.15809 0.09068
 H283 H 1.06443 1.30265 0.18836
 H284 H 0.96110 1.33625 0.08991
 H285 H 0.93262 1.11219 0.05803
 H286 H 1.07492 1.09276 0.07568
 H287 H 0.96134 1.25847 0.06192
 H288 H 0.93727 1.18751 0.08519
 H289 H 1.06444 1.22516 0.15940
 H290 H 1.08103 1.17011 0.10213
 C291 C 0.98852 0.78149 0.12658
 C292 C 0.96060 0.74800 0.10657
 C293 C 0.96007 0.70464 0.12341
 C294 C 0.98674 0.69438 0.16113
 C295 C 1.01403 0.72817 0.18153
 C296 C 1.01521 0.77115 0.16420
 C297 C 0.99165 0.82621 0.10666
 C298 C 1.03372 0.84424 0.09785
 C299 C 1.03645 0.88437 0.07531
 C300 C 0.99815 0.90620 0.05684
 C301 C 0.95691 0.89266 0.07551
 C302 C 0.95300 0.85205 0.09729
 H303 H 0.93856 0.67925 0.10728
 H304 H 1.03508 0.72105 0.21050
 H305 H 1.06936 0.89699 0.07269
 H306 H 0.92704 0.91394 0.07413
 H307 H 1.03696 0.79640 0.18023
 H308 H 1.06466 0.82705 0.10782
 H309 H 0.94004 0.75512 0.07725
 H310 H 0.92001 0.84148 0.10771
 C311 C 0.99562 1.21055 -0.13902
 C312 C 0.96849 1.24587 -0.12032
 C313 C 0.97122 1.28946 -0.13602
 C314 C 1.00067 1.29821 -0.17110
 C315 C 1.02698 1.26257 -0.19045
 C316 C 1.02463 1.21921 -0.17444
 C317 C 0.99657 1.16589 -0.11898
 C318 C 1.03782 1.14500 -0.10890
 C319 C 1.03890 1.10543 -0.08550
 C320 C 0.99990 1.08708 -0.06723
 C321 C 0.95916 1.10320 -0.08699
 C322 C 0.95687 1.14341 -0.10985
 H323 H 0.95020 1.31628 -0.12095
 H324 H 1.05003 1.26847 -0.21746
 H325 H 1.07127 1.09082 -0.08151
 H326 H 0.92866 1.08392 -0.08634
 H327 H 1.04579 1.19246 -0.18947
 H328 H 1.06947 1.15966 -0.11823
 H329 H 0.94623 1.24001 -0.09265
 H330 H 0.92435 1.15622 -0.12126
 C331 C 1.01822 0.75779 -0.11086
 C332 C 0.99202 0.72664 -0.08876
 C333 C 0.99267 0.68092 -0.10252
 C334 C 1.02000 0.66515 -0.13832
 C335 C 1.04785 0.69577 -0.15910
 C336 C 1.04690 0.74169 -0.14559
 C337 C 1.01389 0.80688 -0.09843
 C338 C 1.05089 0.83571 -0.09808
 C339 C 1.04597 0.88093 -0.08244
 C340 C 1.00498 0.89851 -0.06357
 C341 C 0.96748 0.87064 -0.07189
 C342 C 0.97161 0.82574 -0.08761
 H343 H 0.97132 0.65792 -0.08560
 H344 H 1.06884 0.68453 -0.18718
 H345 H 1.07551 0.90132 -0.08446
 H346 H 0.93404 0.88225 -0.06807
 H347 H 1.06723 0.76477 -0.16352
 H348 H 1.08394 0.82326 -0.10861
 H349 H 0.97045 0.73776 -0.06108
 H350 H 0.94129 0.80581 -0.09162
 C351 C 1.11813 1.00230 0.22550
 C352 C 1.12613 1.04274 0.25082
 C353 C 1.14230 1.04183 0.29513
 C354 C 1.15057 1.00044 0.31520
 C355 C 1.14214 0.95999 0.28986
 C356 C 1.12630 0.96092 0.24545
 C357 C 1.09929 1.00331 0.17915
 C358 C 1.11580 0.97423 0.14440
 C359 C 1.09593 0.97399 0.10140
 C360 C 1.05830 1.00203 0.09147
 C361 C 1.04332 1.03184 0.12717
 C362 C 1.06333 1.03265 0.16979
 H363 H 1.14926 1.07357 0.31330
 H364 H 1.14747 0.92753 0.30448
 H365 H 1.11137 0.95195 0.07614
 H366 H 1.01376 1.05313 0.12397
 H367 H 1.11957 0.92929 0.22696
 H368 H 1.14433 0.95175 0.15041
 H369 H 1.12039 1.07511 0.23611
 H370 H 1.04915 1.05498 0.19608
 C371 C 1.11845 0.99319 -0.23227
 C372 C 1.13681 1.03389 -0.24572
 C373 C 1.15361 1.03712 -0.28908
 C374 C 1.15141 1.00016 -0.32025
 C375 C 1.13248 0.95978 -0.30751
 C376 C 1.11659 0.95614 -0.26383
 C377 C 1.10022 0.98991 -0.18607
 C378 C 1.06290 0.96301 -0.17867
 C379 C 1.04368 0.96251 -0.13623
 C380 C 1.05950 0.98995 -0.09912
 C381 C 1.09878 1.01474 -0.10682
 C382 C 1.11879 1.01472 -0.14915
 H383 H 1.16829 1.06852 -0.29841
 H384 H 1.13130 0.93067 -0.33098
 H385 H 1.01400 0.94228 -0.13419
 H386 H 1.11464 1.03538 -0.08073
 H387 H 1.10360 0.92396 -0.25467
 H388 H 1.04690 0.94364 -0.20608
 H389 H 1.13787 1.06350 -0.22295
 H390 H 1.14871 1.03470 -0.15288
 C391 C 0.89194 1.00281 0.22813
 C392 C 0.88142 1.04266 0.25350
 C393 C 0.86374 1.04077 0.29674
 C394 C 0.85558 0.99882 0.31569
 C395 C 0.86676 0.95903 0.28976
 C396 C 0.88449 0.96108 0.24678
 C397 C 0.91192 1.00414 0.18282
 C398 C 0.94762 0.97494 0.17097
 C399 C 0.96603 0.97492 0.12828
 C400 C 0.94875 1.00214 0.09365
 C401 C 0.91557 1.03436 0.10852
 C402 C 0.89672 1.03479 0.15152
 H403 H 0.85477 1.07252 0.31410
 H404 H 0.86338 0.92584 0.30278
 H405 H 0.99616 0.95461 0.12453
 H406 H 0.90346 1.06044 0.08851
 H407 H 0.89233 0.92973 0.22798
 H408 H 0.96255 0.95287 0.19532
 H409 H 0.88722 1.07536 0.24007
 H410 H 0.87011 1.05920 0.16014
 C411 C 0.88874 0.99331 -0.24004
 C412 C 0.88586 1.03406 -0.26259
 C413 C 0.86631 1.03526 -0.30554
 C414 C 0.84827 0.99605 -0.32643
 C415 C 0.85075 0.95541 -0.30417
 C416 C 0.87121 0.95390 -0.26165
 C417 C 0.91008 0.99219 -0.19440
 C418 C 0.89622 0.96200 -0.16280
 C419 C 0.91671 0.96159 -0.12014
 C420 C 0.94914 0.99353 -0.10492
 C421 C 0.96535 1.02024 -0.13953
 C422 C 0.94606 1.02036 -0.18249
 H423 H 0.86421 1.06706 -0.32202
 H424 H 0.83724 0.92470 -0.31998
 H425 H 0.90632 0.93518 -0.10040
 H426 H 0.99559 1.03947 -0.13563
 H427 H 0.87368 0.92168 -0.24608
 H428 H 0.86951 0.93828 -0.17079
 H429 H 0.89804 1.06531 -0.24681
 H430 H 0.96075 1.04157 -0.20686
 C431 C 1.22582 1.12268 0.00484
 C432 C 1.23095 1.16966 0.00842
 C433 C 1.27367 1.18868 0.00562
 C434 C 1.31340 1.16141 0.00039
 C435 C 1.30762 1.11411 -0.00381
 C436 C 1.26470 1.09528 -0.00210
 C437 C 1.18043 1.10191 0.00803
 C438 C 1.17636 1.05972 0.02644
 C439 C 1.13506 1.03778 0.02503
 C440 C 1.09631 1.05516 0.00321
 C441 C 1.09918 1.10139 -0.00608
 C442 C 1.14058 1.12368 -0.00623
 H443 H 1.27442 1.22512 0.00655
 H444 H 1.33593 1.09068 -0.00692
 H445 H 1.13548 1.00557 0.03878
 H446 H 1.06913 1.12158 -0.01118
 H447 H 1.26218 1.05889 -0.00623
 H448 H 1.20523 1.04307 0.04167
 H449 H 1.20204 1.19210 0.01385
 H450 H 1.14093 1.15780 -0.01757
 C451 C 0.77057 1.11990 -0.00648
 C452 C 0.76359 1.16652 0.00217
 C453 C 0.72016 1.18559 -0.00019
 C454 C 0.68251 1.15855 -0.01100
 C455 C 0.68949 1.11211 -0.02088
 C456 C 0.73310 1.09295 -0.01851
 C457 C 0.81662 1.09937 -0.00246
 C458 C 0.82308 1.05807 0.01763
 C459 C 0.86620 1.03812 0.01985
 C460 C 0.90433 1.05615 -0.00103
 C461 C 0.89779 1.10134 -0.01337
 C462 C 0.85495 1.12187 -0.01607
 H463 H 0.71594 1.22161 0.00699
 H464 H 0.66111 1.09045 -0.02912
 H465 H 0.86905 1.00730 0.03765
 H466 H 0.92607 1.12296 -0.01731
 H467 H 0.73753 1.05698 -0.02595
 H468 H 0.79490 1.04127 0.03214
 H469 H 0.79152 1.18820 0.01194
 H470 H 0.85217 1.15561 -0.02838
 C471 C 1.22460 0.86022 -0.01559
 C472 C 1.23641 0.83260 0.01975
 C473 C 1.28056 0.81539 0.02410
 C474 C 1.31477 0.82562 -0.00658
 C475 C 1.30167 0.85159 -0.04336
 C476 C 1.25741 0.86830 -0.04782
 C477 C 1.17978 0.88393 -0.01653
 C478 C 1.17673 0.92839 -0.02976
 C479 C 1.13581 0.95220 -0.02770
 C480 C 1.09640 0.93512 -0.00911
 C481 C 1.09892 0.88815 -0.00190
 C482 C 1.13989 0.86337 -0.00382
 H483 H 1.28706 0.79354 0.05155
 H484 H 1.32569 0.86157 -0.06787
 H485 H 1.13684 0.98503 -0.03954
 H486 H 1.06871 0.86909 0.00193
 H487 H 1.24923 0.88869 -0.07613
 H488 H 1.20628 0.94561 -0.04088
 H489 H 1.21189 0.82545 0.04506
 H490 H 1.13999 0.82787 0.00330
 C491 C 0.76904 0.88498 -0.01293
 C492 C 0.73217 0.91383 -0.00137
 C493 C 0.68908 0.89625 0.00445
 C494 C 0.68218 0.84951 -0.00094
 C495 C 0.71868 0.82097 -0.01403
 C496 C 0.76155 0.83848 -0.02003
 C497 C 0.81540 0.90308 -0.01573
 C498 C 0.85297 0.87900 0.00018
 C499 C 0.89606 0.89756 -0.00010
 C500 C 0.90369 0.94224 -0.01247
 C501 C 0.86625 0.96211 -0.03514
 C502 C 0.82288 0.94408 -0.03533
 H503 H 0.66153 0.91895 0.01461
 H504 H 0.71404 0.78491 -0.01949
 H505 H 0.92373 0.87450 0.00536
 H506 H 0.86988 0.99282 -0.05269
 H507 H 0.78888 0.81550 -0.03013
 H508 H 0.84940 0.84552 0.01261
 H509 H 0.73697 0.94981 0.00463
 H510 H 0.79529 0.96223 -0.05115
 C511 C 0.72525 0.49733 0.38301
 C512 C 0.73069 0.48285 0.33773
 C513 C 0.77328 0.48355 0.31772
 C514 C 0.81146 0.49916 0.34236
 C515 C 0.80585 0.51379 0.38765
 C516 C 0.76335 0.51279 0.40771
 C517 C 0.68031 0.49588 0.40486
 C518 C 0.67695 0.48084 0.44832
 C519 C 0.63531 0.48109 0.46986
 C520 C 0.59489 0.49772 0.45038
 C521 C 0.59890 0.51000 0.40514
 C522 C 0.64052 0.50953 0.38297
 H523 H 0.77638 0.47128 0.28301
 H524 H 0.83415 0.52684 0.40746
 H525 H 0.63648 0.46847 0.50231
 H526 H 0.57065 0.52126 0.38635
 H527 H 0.76012 0.52481 0.44250
 H528 H 0.70668 0.46842 0.46585
 H529 H 0.70214 0.47016 0.31802
 H530 H 0.64160 0.52094 0.34899
 C531 C 0.26758 0.50713 0.38677
 C532 C 0.23022 0.49270 0.41084
 C533 C 0.18657 0.49369 0.39198
 C534 C 0.17918 0.50921 0.34858
 C535 C 0.21666 0.52291 0.32423
 C536 C 0.26028 0.52192 0.34308
 C537 C 0.31357 0.50798 0.40790
 C538 C 0.35266 0.49748 0.38315
 C539 C 0.39546 0.49803 0.40417
 C540 C 0.40128 0.50606 0.45109
 C541 C 0.36179 0.52240 0.47328
 C542 C 0.31898 0.52196 0.45304
 H543 H 0.15851 0.48309 0.41172
 H544 H 0.21232 0.53430 0.29040
 H545 H 0.42318 0.49134 0.38256
 H546 H 0.36324 0.54011 0.50490
 H547 H 0.28813 0.53368 0.32375
 H548 H 0.35034 0.48841 0.34751
 H549 H 0.23474 0.48062 0.44440
 H550 H 0.29026 0.53460 0.47242
 C551 C 0.73002 0.50669 0.62569
 C552 C 0.75409 0.54637 0.63607
 C553 C 0.79824 0.54432 0.65359
 C554 C 0.81938 0.50233 0.66255
 C555 C 0.79487 0.46270 0.65085
 C556 C 0.75139 0.46492 0.63247
 C557 C 0.68321 0.50830 0.60682
 C558 C 0.65210 0.47510 0.61634
 C559 C 0.61008 0.47347 0.59462
 C560 C 0.59563 0.50594 0.56427
 C561 C 0.62755 0.53958 0.55579
 C562 C 0.67019 0.54085 0.57654
 H563 H 0.81403 0.57617 0.66273
 H564 H 0.80970 0.42927 0.65341
 H565 H 0.59031 0.44407 0.59977
 H566 H 0.62220 0.56334 0.53059
 H567 H 0.73489 0.43352 0.62275
 H568 H 0.66065 0.44916 0.63955
 H569 H 0.73846 0.57923 0.63168
 H570 H 0.69377 0.56610 0.56688
 C571 C 0.26381 0.51477 0.61100
 C572 C 0.25080 0.54265 0.64842
 C573 C 0.20643 0.54210 0.66407
 C574 C 0.17463 0.51330 0.64291
 C575 C 0.18686 0.48701 0.60445
 C576 C 0.23086 0.48818 0.58827
 C577 C 0.31181 0.51139 0.59686
 C578 C 0.33014 0.46992 0.58116
 C579 C 0.37429 0.46663 0.56543
 C580 C 0.40300 0.50418 0.56453
 C581 C 0.38441 0.54501 0.58395
 C582 C 0.33996 0.54883 0.59935
 H583 H 0.19759 0.56221 0.69417
 H584 H 0.16261 0.46470 0.58768
 H585 H 0.38392 0.43375 0.55412
 H586 H 0.40358 0.57467 0.58762
 H587 H 0.23935 0.46738 0.55854
 H588 H 0.31024 0.43954 0.58076
 H589 H 0.27532 0.56326 0.66691
 H590 H 0.32746 0.58152 0.61206
 C591 C 0.49313 0.62804 0.28928
 C592 C 0.52471 0.66170 0.28200
 C593 C 0.52803 0.67977 0.23961
 C594 C 0.49971 0.66465 0.20372
 C595 C 0.46727 0.63194 0.21151
 C596 C 0.46401 0.61388 0.25377
 C597 C 0.49292 0.60483 0.33231
 C598 C 0.49063 0.55786 0.33137
 C599 C 0.49212 0.53491 0.37096
 C600 C 0.49562 0.55722 0.41392
 C601 C 0.49743 0.60507 0.41402
 C602 C 0.49649 0.62842 0.37411
 H603 H 0.55360 0.70471 0.23462
 H604 H 0.44423 0.62039 0.18495
 H605 H 0.49324 0.49922 0.36603
 H606 H 0.49865 0.62550 0.44489
 H607 H 0.43890 0.58843 0.25862
 H608 H 0.48930 0.53836 0.29961
 H609 H 0.54794 0.67279 0.30860
 H610 H 0.49796 0.66498 0.37604
 C611 C 0.51112 0.61307 0.74417
 C612 C 0.55128 0.61018 0.76976
 C613 C 0.55214 0.62524 0.81512
 C614 C 0.51289 0.64362 0.83579
 C615 C 0.47288 0.64670 0.80997
 C616 C 0.47201 0.63161 0.76478
 C617 C 0.50883 0.59460 0.69690
 C618 C 0.47218 0.56827 0.68282
 C619 C 0.46990 0.54918 0.63926
 C620 C 0.50231 0.55748 0.60619
 C621 C 0.54081 0.58149 0.62230
 C622 C 0.54371 0.60044 0.66639
 H623 H 0.58343 0.62205 0.83415
 H624 H 0.44237 0.66169 0.82442
 H625 H 0.44549 0.52320 0.63445
 H626 H 0.56940 0.58587 0.60129
 H627 H 0.44068 0.63471 0.74576
 H628 H 0.44647 0.55986 0.70650
 H629 H 0.58171 0.59534 0.75500
 H630 H 0.57339 0.61947 0.67662
 C631 C 0.50146 0.37526 0.27950
 C632 C 0.52924 0.39406 0.24753
 C633 C 0.52736 0.37852 0.20239
 C634 C 0.49773 0.34384 0.18847
 C635 C 0.46976 0.32540 0.22045
 C636 C 0.47178 0.34072 0.26542
 C637 C 0.50191 0.39299 0.32693
 C638 C 0.46156 0.39829 0.35070
 C639 C 0.46142 0.41877 0.39381
 C640 C 0.50054 0.43772 0.41386
 C641 C 0.54168 0.42512 0.39240
 C642 C 0.54240 0.40465 0.34908
 H643 H 0.54961 0.39305 0.17858
 H644 H 0.44616 0.29902 0.21069
 H645 H 0.42952 0.42165 0.40949
 H646 H 0.57372 0.42838 0.40931
 H647 H 0.45025 0.32524 0.28925
 H648 H 0.42957 0.38821 0.33549
 H649 H 0.55198 0.42119 0.25733
 H650 H 0.57467 0.39736 0.33323
 C651 C 0.49010 0.39612 0.73844
 C652 C 0.48081 0.35010 0.74213
 C653 C 0.48077 0.33115 0.78418
 C654 C 0.49027 0.35766 0.82353
 C655 C 0.49961 0.40363 0.82003
 C656 C 0.49922 0.42275 0.77796
 C657 C 0.49146 0.41580 0.69343
 C658 C 0.52281 0.44872 0.68459
 C659 C 0.52442 0.46664 0.64226
 C660 C 0.49730 0.45105 0.60513
 C661 C 0.46338 0.42075 0.61656
 C662 C 0.46104 0.40262 0.65904
 H663 H 0.47408 0.29544 0.78586
 H664 H 0.50650 0.42490 0.84990
 H665 H 0.54650 0.49461 0.64036
 H666 H 0.43710 0.41103 0.59394
 H667 H 0.50564 0.45852 0.77650
 H668 H 0.54619 0.46117 0.71045
 H669 H 0.47447 0.32845 0.71242
 H670 H 0.43443 0.37910 0.66520
 C671 C 0.61569 0.72825 0.49449
 C672 C 0.61199 0.75228 0.45503
 C673 C 0.63083 0.79520 0.45338
 C674 C 0.65435 0.81414 0.49085
 C675 C 0.65822 0.78988 0.53011
 C676 C 0.63875 0.74749 0.53203
 C677 C 0.59437 0.68381 0.49738
 C678 C 0.60232 0.64882 0.46520
 C679 C 0.58220 0.60681 0.46910
 C680 C 0.55292 0.59788 0.50479
 C681 C 0.54509 0.63457 0.53585
 C682 C 0.56561 0.67624 0.53280
 H683 H 0.62775 0.81328 0.42269
 H684 H 0.67609 0.80395 0.55944
 H685 H 0.58802 0.58284 0.44226
 H686 H 0.52328 0.63254 0.56333
 H687 H 0.64200 0.72947 0.56276
 H688 H 0.62408 0.65394 0.43695
 H689 H 0.59397 0.73812 0.42585
 H690 H 0.55828 0.70300 0.55793
 C691 C 0.61416 0.26669 0.49226
 C692 C 0.65942 0.25769 0.48077
 C693 C 0.67632 0.21330 0.47873
 C694 C 0.64850 0.17732 0.48900
 C695 C 0.60344 0.18638 0.50124
 C696 C 0.58625 0.23071 0.50236
 C697 C 0.59579 0.31343 0.49327
 C698 C 0.55614 0.32335 0.46991
 C699 C 0.53751 0.36691 0.47256
 C700 C 0.55602 0.40293 0.50017
 C701 C 0.59790 0.39182 0.52084
 C702 C 0.61733 0.34834 0.51772
 H703 H 0.71132 0.20703 0.46959
 H704 H 0.58146 0.15910 0.50925
 H705 H 0.50599 0.36988 0.45482
 H706 H 0.61785 0.41528 0.53907
 H707 H 0.55125 0.23704 0.51153
 H708 H 0.53901 0.29713 0.44988
 H709 H 0.68141 0.28494 0.47269
 H710 H 0.64897 0.34183 0.53529
 C711 C 0.38363 0.73250 0.49859
 C712 C 0.40743 0.76921 0.51857
 C713 C 0.38956 0.81319 0.51771
 C714 C 0.34758 0.82139 0.49672
 C715 C 0.32469 0.78489 0.47524
 C716 C 0.34241 0.74096 0.47630
 C717 C 0.40131 0.68553 0.50200
 C718 C 0.39722 0.65350 0.46604
 C719 C 0.41595 0.61006 0.46908
 C720 C 0.44048 0.59706 0.50769
 C721 C 0.44116 0.62906 0.54439
 C722 C 0.42234 0.67230 0.54168
 H723 H 0.40794 0.84053 0.53464
 H724 H 0.29267 0.79022 0.45799
 H725 H 0.41345 0.58820 0.43927
 H726 H 0.45571 0.62138 0.57634
 H727 H 0.32315 0.71349 0.46074
 H728 H 0.38107 0.66242 0.43475
 H729 H 0.43978 0.76389 0.53522
 H730 H 0.42423 0.69540 0.57097
 C731 C 0.38060 0.27442 0.49338
 C732 C 0.40768 0.23513 0.48692
 C733 C 0.38827 0.19234 0.48568
 C734 C 0.34144 0.18802 0.49118
 C735 C 0.31427 0.22736 0.49637
 C736 C 0.33361 0.27008 0.49741
 C737 C 0.40151 0.31962 0.49757
 C738 C 0.38159 0.35694 0.47735
 C739 C 0.40187 0.39928 0.48133
 C740 C 0.44336 0.40593 0.50480
 C741 C 0.46099 0.36830 0.52728
 C742 C 0.44101 0.32602 0.52329
 H743 H 0.41004 0.16263 0.48179
 H744 H 0.27797 0.22507 0.50005
 H745 H 0.38364 0.42681 0.46697
 H746 H 0.49142 0.37093 0.54767
 H747 H 0.31193 0.29968 0.50270
 H748 H 0.35033 0.35342 0.45817
 H749 H 0.44397 0.23751 0.48316
 H750 H 0.45644 0.29832 0.54075
   
