data_POSCAR
  _audit_creation_date              2014-09-24
  _audit_creation_method            'ToBaCCo'
  _symmetry_space_group_name_H-M    'P1'
  _symmetry_Int_Tables_number       1
  _symmetry_cell_setting            triclinic
  loop_
  _symmetry_equiv_pos_as_xyz
 x,y,z
_cell_length_a 39.5387
_cell_length_b 39.3973
_cell_length_c 49.0363
_cell_angle_alpha 89.934700
_cell_angle_beta 89.987500
_cell_angle_gamma 90.006500
loop_
  _atom_site_label
  _atom_site_type_symbol
  _atom_site_fract_x
  _atom_site_fract_y
  _atom_site_fract_z
C1 C 1.24853 0.25067 0.25012
 C2 C 0.75041 -0.25005 0.24999
 C3 C 0.74872 0.24957 -0.24998
 C4 C 1.25099 -0.24978 -0.24989
 C5 C 0.25117 0.25015 0.74999
 C6 C 0.74934 0.75087 0.75010
 C7 C 0.75202 0.24997 0.25024
 C8 C 0.24936 0.74965 0.24999
 O9 O 1.05845 0.01693 0.03395
 O10 O 0.94240 -0.01776 0.03364
 O11 O 0.98309 0.05777 0.03363
 O12 O 1.01801 -0.05868 0.03393
 O13 O 0.93635 0.03930 0.01841
 O14 O 1.06484 -0.04014 0.01888
 O15 O 0.96111 -0.06477 0.01881
 O16 O 1.04000 0.06390 0.01878
 C17 C 1.05440 0.04763 0.03722
 C18 C 0.94648 -0.04844 0.03707
 C19 C 0.95248 0.05382 0.03684
 C20 C 1.04865 -0.05487 0.03720
 O21 O 1.05859 -0.01847 -0.03383
 O22 O 0.94293 0.01764 -0.03424
 O23 O 1.01884 0.05747 -0.03405
 O24 O 0.98266 -0.05856 -0.03393
 O25 O 0.93604 -0.03938 -0.01899
 O26 O 1.06537 0.03850 -0.01875
 O27 O 1.03944 -0.06525 -0.01883
 O28 O 0.96197 0.06442 -0.01922
 Co29 Co 1.05586 -0.00076 0.00005
 Co30 Co 0.94536 -0.00009 -0.00028
 Co31 Co 1.00094 0.05495 -0.00021
 Co32 Co 1.00034 -0.05588 -0.00001
 O33 O 1.00062 -0.00045 -0.00011
 C34 C 1.05421 -0.04911 -0.03716
 C35 C 0.94718 0.04833 -0.03755
 C36 C 1.04943 0.05326 -0.03719
 C37 C 0.95212 -0.05418 -0.03729
 O38 O 1.06488 0.54013 0.51894
 O39 O 0.93572 0.46180 0.51981
 O40 O 0.96147 0.56566 0.51955
 O41 O 1.03920 0.43624 0.51965
 O42 O 0.94263 0.51887 0.53481
 O43 O 1.05838 0.48315 0.53434
 O44 O 0.98241 0.44291 0.53483
 O45 O 1.01837 0.55904 0.53425
 C46 C 1.04894 0.55481 0.53739
 C47 C 0.95183 0.44703 0.53815
 C48 C 0.94689 0.54955 0.53801
 C49 C 1.05410 0.45250 0.53782
 O50 O 1.06438 0.46133 0.48177
 O51 O 0.93583 0.54034 0.48211
 O52 O 1.03940 0.56538 0.48132
 O53 O 0.96078 0.43634 0.48211
 O54 O 0.94200 0.48326 0.46707
 O55 O 1.05798 0.51838 0.46637
 O56 O 1.01758 0.44253 0.46692
 O57 O 0.98246 0.55886 0.46667
 Co58 Co 1.05548 0.50076 0.50038
 Co59 Co 0.94498 0.50105 0.50092
 Co60 Co 1.00040 0.55629 0.50047
 Co61 Co 1.00002 0.44544 0.50086
 O62 O 1.00022 0.50088 0.50066
 C63 C 1.04813 0.44668 0.46350
 C64 C 0.95185 0.55479 0.46357
 C65 C 1.05404 0.54910 0.46301
 C66 C 0.94607 0.45256 0.46378
 O67 O 0.55715 0.01691 0.53313
 O68 O 0.44123 -0.01827 0.53265
 O69 O 0.48143 0.05734 0.53311
 O70 O 0.51700 -0.05890 0.53241
 O71 O 0.43478 0.03889 0.51771
 O72 O 0.56369 -0.03997 0.51744
 O73 O 0.46013 -0.06503 0.51745
 O74 O 0.53834 0.06400 0.51844
 C75 C 0.55305 0.04757 0.53664
 C76 C 0.44556 -0.04895 0.53590
 C77 C 0.45081 0.05334 0.53622
 C78 C 0.54757 -0.05480 0.53573
 O79 O 0.55736 -0.01759 0.46501
 O80 O 0.44150 0.01768 0.46498
 O81 O 0.51731 0.05810 0.46547
 O82 O 0.48140 -0.05808 0.46464
 O83 O 0.43473 -0.03949 0.47990
 O84 O 0.56389 0.03923 0.48068
 O85 O 0.53829 -0.06467 0.47955
 O86 O 0.46040 0.06440 0.48026
 Co87 Co 0.55457 -0.00035 0.49906
 Co88 Co 0.44402 -0.00030 0.49882
 Co89 Co 0.49936 0.05503 0.49928
 Co90 Co 0.49921 -0.05576 0.49855
 O91 O 0.49929 -0.00035 0.49892
 C92 C 0.55304 -0.04820 0.46139
 C93 C 0.44583 0.04837 0.46179
 C94 C 0.54792 0.05409 0.46233
 C95 C 0.45077 -0.05413 0.46147
 O96 O 0.56416 0.53874 0.01991
 O97 O 0.43522 0.46145 0.01980
 O98 O 0.46080 0.56521 0.01996
 O99 O 0.53859 0.43501 0.01860
 O100 O 0.44202 0.51836 0.03499
 O101 O 0.55757 0.48147 0.03419
 O102 O 0.48193 0.44178 0.03428
 O103 O 0.51759 0.55786 0.03510
 C104 C 0.54812 0.55332 0.03837
 C105 C 0.45146 0.44638 0.03791
 C106 C 0.44605 0.54906 0.03829
 C107 C 0.55360 0.45069 0.03701
 O108 O 0.56352 0.46108 -0.01894
 O109 O 0.43554 0.54016 -0.01779
 O110 O 0.53923 0.56512 -0.01744
 O111 O 0.45976 0.43610 -0.01818
 O112 O 0.44134 0.48321 -0.03298
 O113 O 0.55734 0.51841 -0.03318
 O114 O 0.51657 0.44248 -0.03379
 O115 O 0.48236 0.55903 -0.03270
 Co116 Co 0.55475 0.49997 0.00052
 Co117 Co 0.44440 0.50075 0.00099
 Co118 Co 0.49996 0.55580 0.00118
 Co119 Co 0.49925 0.44484 0.00028
 O120 O 0.49958 0.50034 0.00074
 C121 C 0.54715 0.44655 -0.03725
 C122 C 0.45180 0.55490 -0.03608
 C123 C 0.55361 0.54920 -0.03605
 C124 C 0.44519 0.45252 -0.03643
 C125 C 1.22717 0.22948 0.23268
 C126 C 1.20980 0.21240 0.21786
 C127 C 1.18941 0.19246 0.19964
 C128 C 1.19084 0.15699 0.20054
 C129 C 1.17213 0.13771 0.18198
 C130 C 1.15176 0.15371 0.16225
 C131 C 1.15016 0.18938 0.16177
 C132 C 1.16890 0.20860 0.18034
 C133 C 1.13314 0.13341 0.14165
 C134 C 1.10030 0.14275 0.13350
 C135 C 1.08351 0.12457 0.11312
 C136 C 1.09928 0.09684 0.10066
 C137 C 1.13171 0.08702 0.10891
 C138 C 1.14854 0.10514 0.12929
 C139 C 1.08281 0.07922 0.07870
 C140 C 1.06955 0.06468 0.05993
 H141 H 1.20664 0.14426 0.21542
 H142 H 1.17357 0.11029 0.18306
 H143 H 1.13513 0.20246 0.14659
 H144 H 1.16776 0.23606 0.17938
 H145 H 1.08762 0.16412 0.14288
 H146 H 1.05839 0.13236 0.10688
 H147 H 1.14421 0.06569 0.09929
 H148 H 1.17396 0.09760 0.13483
 C149 C 1.23018 0.72867 0.73253
 C150 C 1.21337 0.71115 0.71764
 C151 C 1.19366 0.69062 0.69937
 C152 C 1.20986 0.67085 0.67961
 C153 C 1.19081 0.65197 0.66104
 C154 C 1.15525 0.65268 0.66197
 C155 C 1.13920 0.67230 0.68215
 C156 C 1.15832 0.69115 0.70072
 C157 C 1.13507 0.63394 0.64138
 C158 C 1.10632 0.64898 0.62954
 C159 C 1.08824 0.63206 0.60921
 C160 C 1.09858 0.59990 0.60048
 C161 C 1.12682 0.58448 0.61240
 C162 C 1.14497 0.60137 0.63274
 C163 C 1.08088 0.58334 0.57861
 C164 C 1.06622 0.57002 0.55994
 H165 H 1.23722 0.67041 0.67832
 H166 H 1.20390 0.63752 0.64551
 H167 H 1.11188 0.67303 0.68358
 H168 H 1.14555 0.70637 0.71597
 H169 H 1.09835 0.67421 0.63548
 H170 H 1.06650 0.64428 0.60000
 H171 H 1.13501 0.55957 0.60579
 H172 H 1.16673 0.58897 0.64171
 C173 C 0.72744 0.22827 0.73252
 C174 C 0.71016 0.21119 0.71760
 C175 C 0.68986 0.19130 0.69922
 C176 C 0.66800 0.20748 0.68091
 C177 C 0.64929 0.18841 0.66221
 C178 C 0.65222 0.15282 0.66153
 C179 C 0.67397 0.13675 0.68026
 C180 C 0.69266 0.15589 0.69896
 C181 C 0.63345 0.13272 0.64083
 C182 C 0.64921 0.10544 0.62737
 C183 C 0.63212 0.08747 0.60703
 C184 C 0.59904 0.09644 0.59988
 C185 C 0.58294 0.12321 0.61340
 C186 C 0.60000 0.14124 0.63375
 C187 C 0.58216 0.07892 0.57801
 C188 C 0.56857 0.06449 0.55932
 H189 H 0.66578 0.23489 0.68083
 H190 H 0.63318 0.20159 0.64783
 H191 H 0.67648 0.10938 0.68047
 H192 H 0.70950 0.14309 0.71304
 H193 H 0.67507 0.09854 0.63206
 H194 H 0.64489 0.06690 0.59661
 H195 H 0.55733 0.13037 0.60803
 H196 H 0.58702 0.16182 0.64396
 C197 C 0.72959 0.72831 0.23250
 C198 C 0.71278 0.71067 0.21771
 C199 C 0.69313 0.68991 0.19957
 C200 C 0.70919 0.67185 0.17872
 C201 C 0.69012 0.65268 0.16036
 C202 C 0.65467 0.65137 0.16261
 C203 C 0.63878 0.66930 0.18386
 C204 C 0.65792 0.68845 0.20222
 C205 C 0.63438 0.63230 0.14230
 C206 C 0.60424 0.64616 0.13187
 C207 C 0.58605 0.62909 0.11167
 C208 C 0.59768 0.59795 0.10169
 C209 C 0.62729 0.58365 0.11226
 C210 C 0.64554 0.60069 0.13246
 C211 C 0.57995 0.58146 0.07981
 C212 C 0.56532 0.56827 0.06107
 H213 H 0.73643 0.67295 0.17643
 H214 H 0.70305 0.63958 0.14400
 H215 H 0.61157 0.66847 0.18629
 H216 H 0.64526 0.70233 0.21832
 H217 H 0.59523 0.67065 0.13875
 H218 H 0.56324 0.64046 0.10351
 H219 H 0.63650 0.55954 0.10466
 H220 H 0.66842 0.58918 0.14034
 C221 C 0.77211 -0.22877 0.23285
 C222 C 0.78973 -0.21168 0.21819
 C223 C 0.81037 -0.19180 0.20007
 C224 C 0.83203 -0.20801 0.18167
 C225 C 0.85089 -0.18892 0.16306
 C226 C 0.84828 -0.15330 0.16259
 C227 C 0.82679 -0.13721 0.18146
 C228 C 0.80795 -0.15637 0.20007
 C229 C 0.86697 -0.13322 0.14186
 C230 C 0.85117 -0.10589 0.12847
 C231 C 0.86811 -0.08802 0.10797
 C232 C 0.90106 -0.09717 0.10061
 C233 C 0.91722 -0.12396 0.11408
 C234 C 0.90031 -0.14189 0.13459
 C235 C 0.91773 -0.07979 0.07858
 C236 C 0.93115 -0.06540 0.05978
 H237 H 0.83393 -0.23544 0.18140
 H238 H 0.86681 -0.20209 0.14855
 H239 H 0.82454 -0.10982 0.18181
 H240 H 0.79124 -0.14358 0.21424
 H241 H 0.82538 -0.09890 0.13331
 H242 H 0.85532 -0.06742 0.09757
 H243 H 0.94274 -0.13123 0.10854
 H244 H 0.91329 -0.16253 0.14475
 C245 C 0.76990 0.27133 0.73276
 C246 C 0.78694 0.28893 0.71801
 C247 C 0.80681 0.30956 0.69982
 C248 C 0.84217 0.30834 0.70079
 C249 C 0.86139 0.32726 0.68225
 C250 C 0.84545 0.34765 0.66247
 C251 C 0.80989 0.34902 0.66192
 C252 C 0.79074 0.33008 0.68045
 C253 C 0.86571 0.36659 0.64194
 C254 C 0.85617 0.39947 0.63372
 C255 C 0.87437 0.41658 0.61347
 C256 C 0.90235 0.40111 0.60119
 C257 C 0.91234 0.36863 0.60950
 C258 C 0.89420 0.35148 0.62974
 C259 C 0.92008 0.41795 0.57938
 C260 C 0.93470 0.43153 0.56074
 H261 H 0.85487 0.29254 0.71570
 H262 H 0.88870 0.32597 0.68340
 H263 H 0.79684 0.36405 0.64671
 H264 H 0.76338 0.33107 0.67942
 H265 H 0.83463 0.41195 0.64295
 H266 H 0.86642 0.44173 0.60721
 H267 H 0.93386 0.35634 0.60003
 H268 H 0.90192 0.32604 0.63532
 C269 C 0.27233 -0.22805 0.73304
 C270 C 0.28957 -0.21053 0.71841
 C271 C 0.30967 -0.19007 0.70030
 C272 C 0.34347 -0.19855 0.69530
 C273 C 0.36244 -0.17981 0.67650
 C274 C 0.34777 -0.15235 0.66243
 C275 C 0.31392 -0.14371 0.66796
 C276 C 0.29502 -0.16249 0.68675
 C277 C 0.36722 -0.13354 0.64138
 C278 C 0.36412 -0.09808 0.63888
 C279 C 0.38116 -0.08068 0.61816
 C280 C 0.40152 -0.09845 0.59970
 C281 C 0.40519 -0.13363 0.60227
 C282 C 0.38819 -0.15108 0.62297
 C283 C 0.41765 -0.08081 0.57754
 C284 C 0.43066 -0.06620 0.55866
 H285 H 0.35505 -0.21988 0.70568
 H286 H 0.38854 -0.18681 0.67293
 H287 H 0.30176 -0.12304 0.65720
 H288 H 0.26880 -0.15586 0.69035
 H289 H 0.34850 -0.08383 0.65293
 H290 H 0.37817 -0.05343 0.61635
 H291 H 0.42076 -0.14764 0.58800
 H292 H 0.39073 -0.17841 0.62412
 C293 C 0.26968 0.27241 0.23291
 C294 C 0.28676 0.29005 0.21826
 C295 C 0.30675 0.31070 0.20022
 C296 C 0.34208 0.30894 0.20102
 C297 C 0.36141 0.32781 0.18256
 C298 C 0.34560 0.34865 0.16303
 C299 C 0.31006 0.35061 0.16269
 C300 C 0.29080 0.33172 0.18116
 C301 C 0.36593 0.36734 0.14247
 C302 C 0.35695 0.40049 0.13456
 C303 C 0.37513 0.41734 0.11417
 C304 C 0.40248 0.40131 0.10146
 C305 C 0.41194 0.36857 0.10948
 C306 C 0.39383 0.35168 0.12986
 C307 C 0.42005 0.41783 0.07947
 C308 C 0.43452 0.43114 0.06067
 H309 H 0.35467 0.29273 0.21572
 H310 H 0.38872 0.32608 0.18353
 H311 H 0.29713 0.36603 0.14767
 H312 H 0.26345 0.33311 0.18028
 H313 H 0.33587 0.41336 0.14412
 H314 H 0.36761 0.44270 0.10811
 H315 H 0.43297 0.35587 0.09966
 H316 H 0.40107 0.32603 0.13522
 C317 C 0.77020 0.22809 -0.23275
 C318 C 0.78753 0.21074 -0.21803
 C319 C 0.80778 0.19042 -0.19987
 C320 C 0.84173 0.19871 -0.19529
 C321 C 0.86092 0.17996 -0.17663
 C322 C 0.84636 0.15266 -0.16227
 C323 C 0.81233 0.14427 -0.16732
 C324 C 0.79320 0.16305 -0.18598
 C325 C 0.86619 0.13366 -0.14150
 C326 C 0.86277 0.09824 -0.13888
 C327 C 0.88033 0.08065 -0.11853
 C328 C 0.90156 0.09817 -0.10056
 C329 C 0.90549 0.13332 -0.10324
 C330 C 0.88797 0.15096 -0.12357
 C331 C 0.91830 0.08034 -0.07875
 C332 C 0.93179 0.06562 -0.06012
 H333 H 0.85328 0.21986 -0.20593
 H334 H 0.88714 0.18680 -0.17344
 H335 H 0.80023 0.12373 -0.15634
 H336 H 0.76689 0.15654 -0.18925
 H337 H 0.84654 0.08414 -0.15257
 H338 H 0.87710 0.05344 -0.11665
 H339 H 0.92170 0.14718 -0.08934
 H340 H 0.89080 0.17826 -0.12479
 C341 C 0.77132 0.72868 0.26774
 C342 C 0.78813 0.71131 0.28277
 C343 C 0.80771 0.69085 0.30121
 C344 C 0.84299 0.69004 0.29913
 C345 C 0.86201 0.67113 0.31777
 C346 C 0.84592 0.65282 0.33874
 C347 C 0.81040 0.65350 0.34043
 C348 C 0.79146 0.67242 0.32179
 C349 C 0.86604 0.63394 0.35931
 C350 C 0.85516 0.60206 0.36888
 C351 C 0.87326 0.58511 0.38924
 C352 C 0.90244 0.59977 0.40025
 C353 C 0.91377 0.63120 0.39057
 C354 C 0.89572 0.64818 0.37021
 C355 C 0.92008 0.58325 0.42219
 C356 C 0.93467 0.56996 0.44093
 H357 H 0.85580 0.70421 0.28324
 H358 H 0.88928 0.67078 0.31577
 H359 H 0.79730 0.64010 0.35657
 H360 H 0.76415 0.67303 0.32365
 H361 H 0.83264 0.59026 0.36064
 H362 H 0.86430 0.56077 0.39659
 H363 H 0.93625 0.64283 0.39907
 H364 H 0.90449 0.67287 0.36354
 C365 C 0.27002 0.22909 0.26720
 C366 C 0.28740 0.21161 0.28173
 C367 C 0.30774 0.19113 0.29964
 C368 C 0.34155 0.19972 0.30448
 C369 C 0.36080 0.18082 0.32297
 C370 C 0.34643 0.15308 0.33688
 C371 C 0.31255 0.14436 0.33154
 C372 C 0.29336 0.16330 0.31306
 C373 C 0.36623 0.13401 0.35756
 C374 C 0.36336 0.09850 0.35967
 C375 C 0.38075 0.08083 0.38004
 C376 C 0.40122 0.09839 0.39854
 C377 C 0.40467 0.13363 0.39635
 C378 C 0.38733 0.15135 0.37598
 C379 C 0.41761 0.08049 0.42043
 C380 C 0.43078 0.06572 0.43915
 H381 H 0.35292 0.22123 0.29419
 H382 H 0.38691 0.18790 0.32641
 H383 H 0.30061 0.12346 0.34219
 H384 H 0.26714 0.15656 0.30957
 H385 H 0.34764 0.08441 0.34558
 H386 H 0.37791 0.05354 0.38157
 H387 H 0.42031 0.14749 0.41066
 H388 H 0.38970 0.17871 0.37514
 C389 C 0.27222 0.72889 -0.23242
 C390 C 0.28923 0.71150 -0.21755
 C391 C 0.30898 0.69104 -0.19922
 C392 C 0.29275 0.66990 -0.18038
 C393 C 0.31173 0.65108 -0.16169
 C394 C 0.34725 0.65323 -0.16158
 C395 C 0.36336 0.67422 -0.18085
 C396 C 0.34431 0.69302 -0.19955
 C397 C 0.36725 0.63451 -0.14083
 C398 C 0.39486 0.65019 -0.12784
 C399 C 0.41268 0.63322 -0.10734
 C400 C 0.40319 0.60039 -0.09958
 C401 C 0.37612 0.58435 -0.11265
 C402 C 0.35824 0.60127 -0.13316
 C403 C 0.42053 0.58372 -0.07756
 C404 C 0.43488 0.57028 -0.05876
 H405 H 0.26540 0.66833 -0.17988
 H406 H 0.29857 0.63555 -0.14687
 H407 H 0.39067 0.67609 -0.18147
 H408 H 0.35711 0.70931 -0.21407
 H409 H 0.40212 0.67590 -0.13301
 H410 H 0.43351 0.64592 -0.09726
 H411 H 0.36860 0.55892 -0.10680
 H412 H 0.33738 0.58839 -0.14302
 C413 C 1.22913 -0.22881 -0.23267
 C414 C 1.21139 -0.21198 -0.21794
 C415 C 1.19060 -0.19242 -0.19974
 C416 C 1.17116 -0.20891 -0.17991
 C417 C 1.15212 -0.19002 -0.16132
 C418 C 1.15234 -0.15432 -0.16231
 C419 C 1.17161 -0.13799 -0.18259
 C420 C 1.19063 -0.15695 -0.20117
 C421 C 1.13346 -0.13431 -0.14168
 C422 C 1.14807 -0.10522 -0.12995
 C423 C 1.13108 -0.08734 -0.10952
 C424 C 1.09926 -0.09822 -0.10058
 C425 C 1.08424 -0.12679 -0.11242
 C426 C 1.10121 -0.14473 -0.13286
 C427 C 1.08267 -0.08075 -0.07860
 C428 C 1.06936 -0.06626 -0.05983
 H429 H 1.17111 -0.23636 -0.17854
 H430 H 1.13796 -0.20333 -0.14573
 H431 H 1.17198 -0.11057 -0.18406
 H432 H 1.20561 -0.14395 -0.21646
 H433 H 1.17304 -0.09682 -0.13602
 H434 H 1.14299 -0.06534 -0.10040
 H435 H 1.05960 -0.13540 -0.10566
 H436 H 1.08913 -0.16677 -0.14173
 C437 C 1.22720 0.27175 0.26767
 C438 C 1.20986 0.28882 0.28251
 C439 C 1.18947 0.30879 0.30070
 C440 C 1.16359 0.29335 0.31570
 C441 C 1.14469 0.31232 0.33431
 C442 C 1.15149 0.34705 0.33820
 C443 C 1.17728 0.36244 0.32274
 C444 C 1.19615 0.34340 0.30412
 C445 C 1.13247 0.36676 0.35892
 C446 C 1.14938 0.38994 0.37595
 C447 C 1.13182 0.40726 0.39638
 C448 C 1.09716 0.40171 0.40003
 C449 C 1.07998 0.37914 0.38292
 C450 C 1.09750 0.36177 0.36247
 C451 C 1.07956 0.41816 0.42200
 C452 C 1.06508 0.43144 0.44078
 H453 H 1.15835 0.26652 0.31330
 H454 H 1.12535 0.29963 0.34618
 H455 H 1.18284 0.38920 0.32505
 H456 H 1.21613 0.35559 0.29259
 H457 H 1.17636 0.39399 0.37397
 H458 H 1.14538 0.42455 0.40962
 H459 H 1.05314 0.37467 0.38557
 H460 H 1.08371 0.34441 0.34947
 C461 C 0.72858 -0.22865 0.26690
 C462 C 0.71083 -0.21150 0.28136
 C463 C 0.68998 -0.19159 0.29927
 C464 C 0.66892 -0.20779 0.31816
 C465 C 0.64984 -0.18865 0.33654
 C466 C 0.65163 -0.15298 0.33629
 C467 C 0.67252 -0.13690 0.31694
 C468 C 0.69158 -0.15612 0.29856
 C469 C 0.63272 -0.13278 0.35679
 C470 C 0.64807 -0.10478 0.36957
 C471 C 0.63101 -0.08686 0.38994
 C472 C 0.59841 -0.09663 0.39778
 C473 C 0.58267 -0.12408 0.38489
 C474 C 0.59969 -0.14205 0.36450
 C475 C 0.58172 -0.07929 0.41979
 C476 C 0.56832 -0.06500 0.43861
 H477 H 0.66765 -0.23525 0.31897
 H478 H 0.63440 -0.20178 0.35143
 H479 H 0.67412 -0.10949 0.31605
 H480 H 0.70782 -0.14334 0.28401
 H481 H 0.67363 -0.09731 0.36437
 H482 H 0.64348 -0.06575 0.39990
 H483 H 0.55742 -0.13183 0.39080
 H484 H 0.58706 -0.16323 0.35481
 C485 C 0.72725 0.27069 -0.23249
 C486 C 0.70982 0.28773 -0.21765
 C487 C 0.68933 0.30765 -0.19943
 C488 C 0.69513 0.34252 -0.19667
 C489 C 0.67616 0.36155 -0.17808
 C490 C 0.65111 0.34590 -0.16199
 C491 C 0.64521 0.31090 -0.16519
 C492 C 0.66422 0.29193 -0.18376
 C493 C 0.63189 0.36570 -0.14138
 C494 C 0.59717 0.35975 -0.13720
 C495 C 0.57951 0.37729 -0.11692
 C496 C 0.59627 0.40103 -0.10056
 C497 C 0.63067 0.40752 -0.10483
 C498 C 0.64837 0.39002 -0.12510
 C499 C 0.57857 0.41772 -0.07870
 C500 C 0.56405 0.43117 -0.05998
 H501 H 0.71450 0.35494 -0.20871
 H502 H 0.68103 0.38850 -0.17633
 H503 H 0.62648 0.29800 -0.15284
 H504 H 0.65965 0.26492 -0.18563
 H505 H 0.58368 0.34152 -0.14962
 H506 H 0.55288 0.37208 -0.11380
 H507 H 0.64394 0.42570 -0.09219
 H508 H 0.67516 0.39487 -0.12755
 C509 C 1.23025 0.22865 -0.23240
 C510 C 1.21341 0.21115 -0.21745
 C511 C 1.19373 0.19059 -0.19911
 C512 C 1.15838 0.19159 -0.20004
 C513 C 1.13933 0.17265 -0.18142
 C514 C 1.15545 0.15247 -0.16161
 C515 C 1.19102 0.15132 -0.16109
 C516 C 1.21000 0.17028 -0.17971
 C517 C 1.13537 0.13354 -0.14100
 C518 C 1.14505 0.10071 -0.13277
 C519 C 1.12698 0.08359 -0.11246
 C520 C 1.09901 0.09903 -0.10015
 C521 C 1.08890 0.13147 -0.10845
 C522 C 1.10691 0.14862 -0.12876
 C523 C 1.08136 0.08219 -0.07834
 C524 C 1.06672 0.06866 -0.05971
 H525 H 1.14554 0.20721 -0.21500
 H526 H 1.11200 0.17374 -0.18255
 H527 H 1.20419 0.13644 -0.14585
 H528 H 1.23736 0.16947 -0.17873
 H529 H 1.16659 0.08827 -0.14205
 H530 H 1.13500 0.05848 -0.10619
 H531 H 1.06738 0.14371 -0.09895
 H532 H 1.09910 0.17402 -0.13436
 C533 C 1.22887 0.72959 0.26650
 C534 C 1.21138 0.71257 0.28140
 C535 C 1.19096 0.69277 0.29984
 C536 C 1.19394 0.65738 0.30045
 C537 C 1.17528 0.63835 0.31930
 C538 C 1.15337 0.65450 0.33784
 C539 C 1.15023 0.69007 0.33679
 C540 C 1.16892 0.70903 0.31795
 C541 C 1.13463 0.63451 0.35871
 C542 C 1.10113 0.64293 0.36570
 C543 C 1.08407 0.62495 0.38613
 C544 C 1.10022 0.59831 0.39984
 C545 C 1.13337 0.58947 0.39280
 C546 C 1.15046 0.60739 0.37238
 C547 C 1.08327 0.58073 0.42172
 C548 C 1.06962 0.56620 0.44039
 H549 H 1.21093 0.64451 0.28654
 H550 H 1.17796 0.61100 0.31935
 H551 H 1.13399 0.70333 0.35101
 H552 H 1.16656 0.73643 0.31778
 H553 H 1.08808 0.66338 0.35534
 H554 H 1.05840 0.63201 0.39139
 H555 H 1.14619 0.56901 0.40336
 H556 H 1.17636 0.60057 0.36778
 C557 C 0.73081 0.22874 0.26786
 C558 C 0.71370 0.21148 0.28277
 C559 C 0.69366 0.19119 0.30106
 C560 C 0.70955 0.16940 0.31961
 C561 C 0.69028 0.15066 0.33818
 C562 C 0.65480 0.15351 0.33846
 C563 C 0.63904 0.17519 0.31949
 C564 C 0.65838 0.19391 0.30093
 C565 C 0.63448 0.13474 0.35901
 C566 C 0.60713 0.15062 0.37220
 C567 C 0.58891 0.13351 0.39241
 C568 C 0.59771 0.10032 0.39968
 C569 C 0.62457 0.08411 0.38643
 C570 C 0.64284 0.10118 0.36622
 C571 C 0.57990 0.08341 0.42137
 C572 C 0.56519 0.06975 0.43990
 H573 H 0.73686 0.16725 0.31998
 H574 H 0.70319 0.13459 0.35277
 H575 H 0.61177 0.17762 0.31899
 H576 H 0.64584 0.21069 0.28663
 H577 H 0.60036 0.17658 0.36739
 H578 H 0.56826 0.14636 0.40263
 H579 H 0.63157 0.05840 0.39190
 H580 H 0.66349 0.08813 0.35620
 C581 C 0.72800 0.72982 -0.23224
 C582 C 0.71066 0.71295 -0.21720
 C583 C 0.69028 0.69334 -0.19866
 C584 C 0.67015 0.70983 -0.17931
 C585 C 0.65137 0.69095 -0.16050
 C586 C 0.65253 0.65525 -0.16077
 C587 C 0.67254 0.63890 -0.18054
 C588 C 0.69130 0.65785 -0.19935
 C589 C 0.63373 0.63527 -0.14000
 C590 C 0.64874 0.60675 -0.12765
 C591 C 0.63169 0.58880 -0.10725
 C592 C 0.59941 0.59904 -0.09893
 C593 C 0.58405 0.62708 -0.11133
 C594 C 0.60107 0.64509 -0.13174
 C595 C 0.58260 0.58136 -0.07710
 C596 C 0.56906 0.56664 -0.05850
 H597 H 0.66932 0.73730 -0.17851
 H598 H 0.63662 0.70430 -0.14531
 H599 H 0.67364 0.61146 -0.18148
 H600 H 0.70679 0.64484 -0.21426
 H601 H 0.67402 0.59883 -0.13326
 H602 H 0.64388 0.56722 -0.09769
 H603 H 0.55905 0.63520 -0.10507
 H604 H 0.58867 0.66667 -0.14109
 C605 C 0.77046 -0.22719 -0.23284
 C606 C 0.78751 -0.20951 -0.21822
 C607 C 0.80746 -0.18892 -0.20012
 C608 C 0.84277 -0.19116 -0.20049
 C609 C 0.86203 -0.17247 -0.18189
 C610 C 0.84616 -0.15131 -0.16264
 C611 C 0.81066 -0.14885 -0.16273
 C612 C 0.79146 -0.16757 -0.18134
 C613 C 0.86640 -0.13280 -0.14191
 C614 C 0.85770 -0.09952 -0.13420
 C615 C 0.87582 -0.08280 -0.11373
 C616 C 0.90284 -0.09909 -0.10073
 C617 C 0.91199 -0.13198 -0.10854
 C618 C 0.89394 -0.14873 -0.12900
 C619 C 0.92045 -0.08262 -0.07875
 C620 C 0.93500 -0.06936 -0.05998
 H621 H 0.85540 -0.20763 -0.21495
 H622 H 0.88932 -0.17458 -0.18254
 H623 H 0.79766 -0.13319 -0.14794
 H624 H 0.76412 -0.16581 -0.18077
 H625 H 0.83690 -0.08643 -0.14398
 H626 H 0.86854 -0.05733 -0.10785
 H627 H 0.93276 -0.14489 -0.09852
 H628 H 0.90096 -0.17449 -0.13419
 C629 C 0.77336 0.27168 0.26732
 C630 C 0.79068 0.28901 0.28202
 C631 C 0.81097 0.30908 0.30026
 C632 C 0.80646 0.34426 0.30166
 C633 C 0.82496 0.36345 0.32044
 C634 C 0.84820 0.34765 0.33811
 C635 C 0.85290 0.31232 0.33623
 C636 C 0.83438 0.29320 0.31745
 C637 C 0.86663 0.36765 0.35904
 C638 C 0.90072 0.36062 0.36510
 C639 C 0.91750 0.37849 0.38569
 C640 C 0.90047 0.40360 0.40046
 C641 C 0.86672 0.41110 0.39434
 C642 C 0.84990 0.39329 0.37377
 C643 C 0.91719 0.42101 0.42244
 C644 C 0.93067 0.43546 0.44117
 H645 H 0.78839 0.35681 0.28845
 H646 H 0.82107 0.39064 0.32116
 H647 H 0.87022 0.29932 0.34978
 H648 H 0.83791 0.26594 0.31665
 H649 H 0.91440 0.34133 0.35391
 H650 H 0.94365 0.37251 0.39023
 H651 H 0.85326 0.43039 0.40573
 H652 H 0.82355 0.39898 0.36988
 C653 C 0.26950 -0.22994 0.26645
 C654 C 0.28653 -0.21245 0.28131
 C655 C 0.30628 -0.19193 0.29967
 C656 C 0.29005 -0.17166 0.31910
 C657 C 0.30903 -0.15278 0.33775
 C658 C 0.34461 -0.15394 0.33727
 C659 C 0.36071 -0.17411 0.31745
 C660 C 0.34165 -0.19298 0.29880
 C661 C 0.36472 -0.13496 0.35787
 C662 C 0.39337 -0.14987 0.36999
 C663 C 0.41143 -0.13266 0.39023
 C664 C 0.40119 -0.10031 0.39862
 C665 C 0.37302 -0.08504 0.38643
 C666 C 0.35491 -0.10221 0.36618
 C667 C 0.41891 -0.08337 0.42038
 C668 C 0.43355 -0.06971 0.43896
 H669 H 0.26268 -0.17081 0.32007
 H670 H 0.29585 -0.13793 0.35297
 H671 H 0.38803 -0.17525 0.31633
 H672 H 0.35449 -0.20859 0.28385
 H673 H 0.40132 -0.17520 0.36435
 H674 H 0.43309 -0.14481 0.39962
 H675 H 0.36488 -0.05999 0.39274
 H676 H 0.33325 -0.08986 0.35701
 C677 C 0.27279 0.27157 -0.23292
 C678 C 0.29023 0.28880 -0.21825
 C679 C 0.31057 0.30889 -0.20006
 C680 C 0.30653 0.34416 -0.19910
 C681 C 0.32501 0.36342 -0.18036
 C682 C 0.34777 0.34762 -0.16230
 C683 C 0.35202 0.31220 -0.16374
 C684 C 0.33351 0.29300 -0.18248
 C685 C 0.36612 0.36774 -0.14140
 C686 C 0.40003 0.36038 -0.13493
 C687 C 0.41672 0.37834 -0.11435
 C688 C 0.39977 0.40388 -0.09999
 C689 C 0.36623 0.41171 -0.10653
 C690 C 0.34950 0.39381 -0.12709
 C691 C 0.41635 0.42131 -0.07795
 C692 C 0.42977 0.43567 -0.05915
 H693 H 0.28882 0.35672 -0.21262
 H694 H 0.32148 0.39067 -0.17998
 H695 H 0.36896 0.29921 -0.14987
 H696 H 0.33668 0.26569 -0.18294
 H697 H 0.41364 0.34075 -0.14580
 H698 H 0.44271 0.37209 -0.10948
 H699 H 0.35282 0.43133 -0.09545
 H700 H 0.32328 0.39977 -0.13130
 C701 C 1.22936 -0.23009 0.23327
 C702 C 1.21234 -0.21275 0.21826
 C703 C 1.19248 -0.19246 0.19978
 C704 C 1.15728 -0.19604 0.19895
 C705 C 1.13820 -0.17739 0.18014
 C706 C 1.15412 -0.15490 0.16186
 C707 C 1.18950 -0.15118 0.16312
 C708 C 1.20850 -0.16986 0.18192
 C709 C 1.13411 -0.13612 0.14106
 C710 C 1.14201 -0.10225 0.13442
 C711 C 1.12399 -0.08511 0.11407
 C712 C 1.09785 -0.10154 0.10008
 C713 C 1.08953 -0.13507 0.10676
 C714 C 1.10748 -0.15224 0.12710
 C715 C 1.08024 -0.08447 0.07831
 C716 C 1.06571 -0.07067 0.05972
 H717 H 1.14460 -0.21345 0.21268
 H718 H 1.11100 -0.18052 0.17993
 H719 H 1.20258 -0.13448 0.14910
 H720 H 1.23576 -0.16702 0.18228
 H721 H 1.16206 -0.08899 0.14501
 H722 H 1.13065 -0.05916 0.10909
 H723 H 1.06945 -0.14810 0.09598
 H724 H 1.10107 -0.17842 0.13143
 C725 C 1.22941 0.27145 0.73287
 C726 C 1.21178 0.28851 0.71819
 C727 C 1.19111 0.30834 0.70004
 C728 C 1.19244 0.34383 0.70076
 C729 C 1.17352 0.36298 0.68220
 C730 C 1.15303 0.34685 0.66264
 C731 C 1.15154 0.31116 0.66235
 C732 C 1.17047 0.29208 0.68091
 C733 C 1.13417 0.36701 0.64204
 C734 C 1.10132 0.35748 0.63405
 C735 C 1.08428 0.37554 0.61368
 C736 C 1.09981 0.40335 0.60107
 C737 C 1.13225 0.41335 0.60916
 C738 C 1.14932 0.39534 0.62951
 C739 C 1.08305 0.42092 0.57917
 C740 C 1.06954 0.43543 0.56046
 H741 H 1.20835 0.35667 0.71549
 H742 H 1.17490 0.39040 0.68315
 H743 H 1.13642 0.29796 0.64732
 H744 H 1.16941 0.26461 0.68007
 H745 H 1.08881 0.33606 0.64354
 H746 H 1.05916 0.36761 0.60759
 H747 H 1.14457 0.43474 0.59943
 H748 H 1.17474 0.40304 0.63492
 C749 C 0.72794 -0.22829 0.73235
 C750 C 0.71051 -0.21157 0.71727
 C751 C 0.68997 -0.19218 0.69872
 C752 C 0.66765 -0.20885 0.68112
 C753 C 0.64857 -0.19030 0.66231
 C754 C 0.65162 -0.15475 0.66083
 C755 C 0.67389 -0.13818 0.67882
 C756 C 0.69294 -0.15681 0.69764
 C757 C 0.63231 -0.13526 0.64009
 C758 C 0.64777 -0.10856 0.62563
 C759 C 0.63010 -0.09126 0.60520
 C760 C 0.59676 -0.10035 0.59900
 C761 C 0.58098 -0.12650 0.61355
 C762 C 0.59860 -0.14384 0.63397
 C763 C 0.57919 -0.08370 0.57705
 C764 C 0.56465 -0.07025 0.55834
 H765 H 0.66530 -0.23624 0.68169
 H766 H 0.63205 -0.20385 0.64849
 H767 H 0.67649 -0.11083 0.67838
 H768 H 0.71015 -0.14365 0.71119
 H769 H 0.67380 -0.10164 0.62960
 H770 H 0.64261 -0.07117 0.59396
 H771 H 0.55517 -0.13372 0.60892
 H772 H 0.58587 -0.16397 0.64499
 C773 C 0.73053 0.27086 0.23258
 C774 C 0.71311 0.28729 0.21729
 C775 C 0.69270 0.30601 0.19820
 C776 C 0.67893 0.28936 0.17560
 C777 C 0.66024 0.30750 0.15630
 C778 C 0.65510 0.34263 0.15931
 C779 C 0.66862 0.35909 0.18232
 C780 C 0.68737 0.34087 0.20162
 C781 C 0.63640 0.36205 0.13816
 C782 C 0.61340 0.38775 0.14549
 C783 C 0.59597 0.40597 0.12541
 C784 C 0.60136 0.39878 0.09779
 C785 C 0.62421 0.37333 0.09033
 C786 C 0.64161 0.35509 0.11034
 C787 C 0.58381 0.41754 0.07696
 C788 C 0.56968 0.43287 0.05898
 H789 H 0.68287 0.26237 0.17277
 H790 H 0.64974 0.29401 0.13903
 H791 H 0.66541 0.38616 0.18506
 H792 H 0.69805 0.35402 0.21899
 H793 H 0.60860 0.39346 0.16674
 H794 H 0.57831 0.42562 0.13140
 H795 H 0.62871 0.36767 0.06902
 H796 H 0.65953 0.33586 0.10401
 C797 C 0.77328 0.22827 0.23309
 C798 C 0.79023 0.21066 0.21835
 C799 C 0.80984 0.19000 0.20007
 C800 C 0.79345 0.16958 0.18085
 C801 C 0.81230 0.15070 0.16213
 C802 C 0.84787 0.15204 0.16237
 C803 C 0.86412 0.17229 0.18204
 C804 C 0.84520 0.19115 0.20076
 C805 C 0.86777 0.13329 0.14158
 C806 C 0.89599 0.14855 0.12909
 C807 C 0.91376 0.13161 0.10857
 C808 C 0.90363 0.09919 0.10028
 C809 C 0.87593 0.08355 0.11285
 C810 C 0.85811 0.10046 0.13338
 C811 C 0.92101 0.08255 0.07826
 C812 C 0.93542 0.06914 0.05949
 H813 H 0.76608 0.16867 0.18004
 H814 H 0.79902 0.13578 0.14701
 H815 H 0.89146 0.17353 0.18294
 H816 H 0.85813 0.20689 0.21556
 H817 H 0.90378 0.17396 0.13466
 H818 H 0.93508 0.14400 0.09888
 H819 H 0.86791 0.05844 0.10661
 H820 H 0.83676 0.08787 0.14284
 C821 C 0.77086 0.72918 0.73314
 C822 C 0.78824 0.71168 0.71862
 C823 C 0.80853 0.69122 0.70066
 C824 C 0.79389 0.66394 0.68674
 C825 C 0.81303 0.64512 0.66817
 C826 C 0.84712 0.65339 0.66321
 C827 C 0.86174 0.68057 0.67762
 C828 C 0.84255 0.69935 0.69621
 C829 C 0.86691 0.63447 0.64244
 C830 C 0.88867 0.65183 0.62449
 C831 C 0.90604 0.63428 0.60407
 C832 C 0.90198 0.59917 0.60133
 C833 C 0.88081 0.58157 0.61933
 C834 C 0.86340 0.59907 0.63977
 C835 C 0.91848 0.58146 0.57939
 C836 C 0.93175 0.56681 0.56067
 H837 H 0.76753 0.65757 0.68991
 H838 H 0.80090 0.62468 0.65713
 H839 H 0.88801 0.68730 0.67450
 H840 H 0.85412 0.72044 0.70687
 H841 H 0.89155 0.67911 0.62576
 H842 H 0.92221 0.64818 0.59014
 H843 H 0.87749 0.55438 0.61739
 H844 H 0.84717 0.58494 0.65348
 C845 C 0.27212 0.22872 0.73238
 C846 C 0.28887 0.21124 0.71739
 C847 C 0.30829 0.19065 0.69893
 C848 C 0.29176 0.17104 0.67924
 C849 C 0.31048 0.15204 0.66052
 C850 C 0.34606 0.15244 0.66122
 C851 C 0.36245 0.17192 0.68131
 C852 C 0.34365 0.19091 0.70004
 C853 C 0.36589 0.13346 0.64052
 C854 C 0.39475 0.14814 0.62855
 C855 C 0.41252 0.13098 0.60814
 C856 C 0.40175 0.09894 0.59945
 C857 C 0.37339 0.08388 0.61150
 C858 C 0.35556 0.10100 0.63192
 C859 C 0.41916 0.08214 0.57752
 C860 C 0.43364 0.06866 0.55882
 H861 H 0.26439 0.17081 0.67812
 H862 H 0.29713 0.13772 0.64507
 H863 H 0.38978 0.17244 0.68257
 H864 H 0.35669 0.20599 0.71521
 H865 H 0.40308 0.17326 0.63444
 H866 H 0.43435 0.14294 0.59884
 H867 H 0.36485 0.05906 0.60493
 H868 H 0.33370 0.08886 0.64098
 C869 C 0.26968 0.72911 0.23376
 C870 C 0.28696 0.71160 0.21909
 C871 C 0.30708 0.69116 0.20092
 C872 C 0.29224 0.66408 0.18687
 C873 C 0.31121 0.64526 0.16815
 C874 C 0.34534 0.65332 0.16315
 C875 C 0.36016 0.68032 0.17766
 C876 C 0.34113 0.69910 0.19640
 C877 C 0.36503 0.63429 0.14231
 C878 C 0.38714 0.65149 0.12453
 C879 C 0.40457 0.63385 0.10416
 C880 C 0.40023 0.59877 0.10128
 C881 C 0.37866 0.58134 0.11909
 C882 C 0.36119 0.59894 0.13947
 C883 C 0.41698 0.58094 0.07947
 C884 C 0.43052 0.56626 0.06086
 H885 H 0.26585 0.65784 0.19007
 H886 H 0.29890 0.62498 0.15705
 H887 H 0.38646 0.68691 0.17454
 H888 H 0.35289 0.72002 0.20714
 H889 H 0.39032 0.67873 0.12590
 H890 H 0.42105 0.64765 0.09041
 H891 H 0.37510 0.55419 0.11707
 H892 H 0.34470 0.58489 0.15303
   
