data_POSCAR
  _audit_creation_date              2014-09-24
  _audit_creation_method            'ToBaCCo'
  _symmetry_space_group_name_H-M    'P1'
  _symmetry_Int_Tables_number       1
  _symmetry_cell_setting            triclinic
  loop_
  _symmetry_equiv_pos_as_xyz
 x,y,z
_cell_length_a 33.4696
_cell_length_b 46.7503
_cell_length_c 37.0093
_cell_angle_alpha 89.845300
_cell_angle_beta 90.200400
_cell_angle_gamma 90.100400
loop_
  _atom_site_label
  _atom_site_type_symbol
  _atom_site_fract_x
  _atom_site_fract_y
  _atom_site_fract_z
O1 O 0.24758 0.27624 0.29356
 O2 O 0.20455 0.22044 0.23525
 O3 O 0.24798 0.22047 0.29381
 O4 O 0.20447 0.27588 0.23485
 O5 O 0.25933 0.27609 0.20198
 O6 O 0.30271 0.22056 0.26089
 O7 O 0.25939 0.22042 0.20235
 O8 O 0.30238 0.27645 0.26064
 Cu9 Cu 0.22072 0.24823 0.26774
 Cu10 Cu 0.28649 0.24839 0.22822
 C11 C 0.28224 0.28602 0.28701
 C12 C 0.22450 0.21095 0.20873
 C13 C 0.28277 0.21088 0.28743
 C14 C 0.22440 0.28541 0.20825
 O15 O 0.79800 0.27874 0.24226
 O16 O 0.75008 0.22290 0.29811
 O17 O 0.80084 0.22291 0.24492
 O18 O 0.74820 0.27854 0.29612
 O19 O 0.69781 0.27640 0.25762
 O20 O 0.75066 0.22069 0.20623
 O21 O 0.69984 0.22117 0.25951
 O22 O 0.74765 0.27645 0.20377
 Cu23 Cu 0.77939 0.25096 0.27415
 Cu24 Cu 0.71907 0.24845 0.22782
 C25 C 0.78081 0.28724 0.21350
 C26 C 0.71644 0.21265 0.28853
 C27 C 0.78479 0.21219 0.21691
 C28 C 0.71390 0.28687 0.28580
 O29 O 0.74526 0.77652 0.79495
 O30 O 0.70269 0.72043 0.73672
 O31 O 0.74577 0.72080 0.79561
 O32 O 0.70237 0.77593 0.73617
 O33 O 0.75742 0.77620 0.70356
 O34 O 0.80061 0.72083 0.76284
 O35 O 0.75768 0.72045 0.70403
 O36 O 0.80023 0.77665 0.76225
 Cu37 Cu 0.71856 0.74837 0.76918
 Cu38 Cu 0.78451 0.74851 0.72992
 C39 C 0.77996 0.78629 0.78849
 C40 C 0.72281 0.71091 0.71032
 C41 C 0.78065 0.71129 0.78946
 C42 C 0.72248 0.78553 0.70971
 O43 O 0.24645 0.72162 0.70693
 O44 O 0.20161 0.77701 0.76429
 O45 O 0.24617 0.77730 0.70666
 O46 O 0.20231 0.72138 0.76452
 O47 O 0.25579 0.72245 0.79940
 O48 O 0.30059 0.77728 0.74044
 O49 O 0.25616 0.77798 0.79789
 O50 O 0.30022 0.72140 0.74155
 Cu51 Cu 0.21874 0.74931 0.73215
 Cu52 Cu 0.28367 0.74977 0.77319
 C53 C 0.28088 0.71188 0.71451
 C54 C 0.22121 0.78703 0.79086
 C55 C 0.28091 0.78685 0.71360
 C56 C 0.22135 0.71245 0.79211
 C57 C 0.97809 -0.00007 0.00045
 C58 C 1.01886 -0.00003 -0.00113
 C59 C 1.04313 0.02205 0.01781
 C60 C 1.04130 -0.02216 -0.02149
 C61 C 0.95357 -0.01984 -0.02192
 C62 C 0.95622 0.01959 0.02489
 C63 C 1.03560 0.05133 0.01266
 C64 C 1.05760 0.07181 0.03169
 C65 C 1.08809 0.06339 0.05564
 C66 C 1.09644 0.03413 0.05985
 C67 C 1.07416 0.01366 0.04111
 C68 C 1.07080 -0.01382 -0.04625
 C69 C 1.09218 -0.03434 -0.06552
 C70 C 1.08446 -0.06362 -0.06039
 C71 C 1.05525 -0.07197 -0.03527
 C72 C 1.03417 -0.05144 -0.01572
 C73 C 0.92466 -0.03725 -0.00546
 C74 C 0.90284 -0.05696 -0.02590
 C75 C 0.90944 -0.05956 -0.06324
 C76 C 0.93756 -0.04149 -0.07986
 C77 C 0.95917 -0.02165 -0.05944
 C78 C 0.96527 0.02061 0.06194
 C79 C 0.94664 0.04057 0.08423
 C80 C 0.91816 0.05964 0.07001
 C81 C 0.90793 0.05775 0.03320
 C82 C 0.92674 0.03785 0.01088
 H83 H 1.01248 0.05831 -0.00589
 H84 H 1.05100 0.09424 0.02749
 H85 H 1.11958 0.02704 0.07832
 H86 H 1.08059 -0.00881 0.04532
 H87 H 1.07695 0.00864 -0.05096
 H88 H 1.11431 -0.02730 -0.08489
 H89 H 1.01230 -0.05839 0.00395
 H90 H 0.91975 -0.03610 0.02341
 H91 H 0.88158 -0.07072 -0.01231
 H92 H 0.94273 -0.04265 -0.10868
 H93 H 0.98065 -0.00793 -0.07283
 H94 H 0.98727 0.00624 0.07345
 H95 H 0.95455 0.04114 0.11261
 H96 H 0.88629 0.07225 0.02143
 H97 H 0.91920 0.03729 -0.01760
 H98 H 1.04917 -0.09441 -0.03038
 C99 C 0.47809 0.50033 0.49978
 C100 C 0.51889 0.49960 0.49962
 C101 C 0.54330 0.52161 0.51852
 C102 C 0.54100 0.47677 0.48023
 C103 C 0.45395 0.48045 0.47719
 C104 C 0.45557 0.52083 0.52259
 C105 C 0.53662 0.55092 0.51264
 C106 C 0.55858 0.57137 0.53176
 C107 C 0.58822 0.56290 0.55653
 C108 C 0.59585 0.53359 0.56140
 C109 C 0.57359 0.51315 0.54256
 C110 C 0.57017 0.48415 0.45469
 C111 C 0.58916 0.46295 0.43453
 C112 C 0.57926 0.43399 0.43956
 C113 C 0.55110 0.42657 0.46605
 C114 C 0.53247 0.44774 0.48649
 C115 C 0.42456 0.46327 0.49333
 C116 C 0.40316 0.44342 0.47277
 C117 C 0.41068 0.44043 0.43562
 C118 C 0.43931 0.45825 0.41929
 C119 C 0.46049 0.47826 0.43983
 C120 C 0.46318 0.52310 0.55984
 C121 C 0.44241 0.54296 0.58074
 C122 C 0.41316 0.56058 0.56491
 C123 C 0.40495 0.55776 0.52781
 C124 C 0.42591 0.53806 0.50690
 H125 H 0.51414 0.55795 0.49348
 H126 H 0.55257 0.59382 0.52703
 H127 H 0.61834 0.52646 0.58049
 H128 H 0.57941 0.49066 0.54732
 H129 H 0.57736 0.50640 0.44962
 H130 H 0.61066 0.46925 0.41420
 H131 H 0.51080 0.44154 0.50672
 H132 H 0.41895 0.46473 0.52207
 H133 H 0.38149 0.42985 0.48613
 H134 H 0.44520 0.45679 0.39061
 H135 H 0.48240 0.49178 0.42669
 H136 H 0.48528 0.50953 0.57268
 H137 H 0.44889 0.54432 0.60937
 H138 H 0.38283 0.57121 0.51480
 H139 H 0.41946 0.53657 0.47826
 H140 H 0.54348 0.40437 0.47092
 C141 C 0.02222 0.50033 0.00158
 C142 C -0.01848 0.50106 0.00293
 C143 C -0.04165 0.48080 0.02575
 C144 C -0.04180 0.52208 -0.01874
 C145 C 0.04512 0.52263 -0.01804
 C146 C 0.04588 0.47758 0.01981
 C147 C -0.07228 0.46442 0.01016
 C148 C -0.09348 0.44460 0.03093
 C149 C -0.08460 0.44089 0.06780
 C150 C -0.05445 0.45776 0.08357
 C151 C -0.03337 0.47770 0.06279
 C152 C -0.03661 0.52423 -0.05629
 C153 C -0.05803 0.54446 -0.07630
 C154 C -0.08557 0.56258 -0.05925
 C155 C -0.09147 0.55987 -0.02180
 C156 C -0.06981 0.53977 -0.00176
 C157 C 0.04280 0.55142 -0.00766
 C158 C 0.06391 0.57236 -0.02673
 C159 C 0.08732 0.56483 -0.05666
 C160 C 0.08987 0.53594 -0.06675
 C161 C 0.06926 0.51497 -0.04733
 C162 C 0.07740 0.48513 0.04301
 C163 C 0.09922 0.46406 0.06113
 C164 C 0.08996 0.43498 0.05637
 C165 C 0.05896 0.42739 0.03251
 C166 C 0.03740 0.44849 0.01410
 H167 H -0.07921 0.46654 -0.01833
 H168 H -0.11625 0.43173 0.01792
 H169 H -0.04741 0.45573 0.11204
 H170 H -0.01042 0.49059 0.07553
 H171 H -0.01597 0.51024 -0.07010
 H172 H -0.05343 0.54568 -0.10521
 H173 H -0.07443 0.53831 0.02714
 H174 H 0.02454 0.55763 0.01511
 H175 H 0.06136 0.59451 -0.01856
 H176 H 0.10804 0.52961 -0.08952
 H177 H 0.07149 0.49281 -0.05554
 H178 H 0.08459 0.50742 0.04767
 H179 H 0.12274 0.47053 0.07956
 H180 H 0.05164 0.40513 0.02790
 H181 H 0.01390 0.44214 -0.00441
 H182 H -0.11230 0.57367 -0.00790
 C183 C 0.52197 1.00110 0.50265
 C184 C 0.48116 1.00030 0.50192
 C185 C 0.45811 0.97936 0.52391
 C186 C 0.45750 1.02040 0.47916
 C187 C 0.54475 1.02435 0.48440
 C188 C 0.54575 0.97861 0.52136
 C189 C 0.42895 0.96221 0.50733
 C190 C 0.40757 0.94210 0.52751
 C191 C 0.41485 0.93882 0.56472
 C192 C 0.44357 0.95639 0.58142
 C193 C 0.46477 0.97664 0.56125
 C194 C 0.46517 1.02335 0.44204
 C195 C 0.44387 1.04319 0.42129
 C196 C 0.41400 1.06008 0.43714
 C197 C 0.40553 1.05643 0.47404
 C198 C 0.42705 1.03674 0.49482
 C199 C 0.53557 1.05325 0.49054
 C200 C 0.55504 1.07478 0.47115
 C201 C 0.58481 1.06786 0.44600
 C202 C 0.59546 1.03906 0.44128
 C203 C 0.57554 1.01750 0.46028
 C204 C 0.57551 0.98645 0.54625
 C205 C 0.59731 0.96552 0.56472
 C206 C 0.58973 0.93635 0.55861
 C207 C 0.56057 0.92853 0.53307
 C208 C 0.53909 0.94947 0.51432
 H209 H 0.42323 0.96405 0.47860
 H210 H 0.38587 0.92870 0.51385
 H211 H 0.44932 0.95470 0.61015
 H212 H 0.48647 0.99014 0.57475
 H213 H 0.48791 1.01046 0.42923
 H214 H 0.45054 1.04519 0.39279
 H215 H 0.42053 1.03470 0.52336
 H216 H 0.51272 1.05908 0.50980
 H217 H 0.54676 1.09686 0.47567
 H218 H 0.61821 1.03318 0.42195
 H219 H 0.58334 0.99537 0.45537
 H220 H 0.58131 1.00879 0.55191
 H221 H 0.61945 0.97213 0.58441
 H222 H 0.55462 0.90621 0.52741
 H223 H 0.51704 0.94294 0.49450
 H224 H 0.38290 1.06928 0.48704
 C225 C 1.17212 0.14723 0.14063
 C226 C 1.21244 0.15473 0.13594
 C227 C 1.22962 0.17551 0.15816
 C228 C 1.20682 0.18881 0.18506
 C229 C 1.16659 0.18080 0.18870
 N230 N 1.15048 0.16064 0.16662
 C231 C 1.15202 0.12561 0.11776
 N232 N 1.11166 0.12708 0.11346
 C233 C 1.09084 0.10779 0.09343
 C234 C 1.11069 0.08503 0.07663
 C235 C 1.15225 0.08292 0.08092
 C236 C 1.17302 0.10314 0.10137
 H237 H 1.26069 0.18119 0.15424
 H238 H 1.14781 0.19065 0.20888
 H239 H 1.05872 0.10993 0.09125
 H240 H 1.16866 0.06568 0.06835
 H241 H 1.23041 0.14518 0.11497
 H242 H 1.20494 0.10073 0.10487
 C243 C 0.67121 0.64684 0.64221
 C244 C 0.71167 0.65416 0.63806
 C245 C 0.72858 0.67505 0.66028
 C246 C 0.70538 0.68864 0.68666
 C247 C 0.66503 0.68080 0.68979
 N248 N 0.64918 0.66054 0.66771
 C249 C 0.65139 0.62516 0.61924
 N250 N 0.61118 0.62690 0.61400
 C251 C 0.59064 0.60760 0.59377
 C252 C 0.61059 0.58453 0.57775
 C253 C 0.65198 0.58212 0.58302
 C254 C 0.67249 0.60238 0.60365
 H255 H 0.75976 0.68058 0.65677
 H256 H 0.64596 0.69088 0.70956
 H257 H 0.55862 0.60997 0.59082
 H258 H 0.66846 0.56464 0.57109
 H259 H 0.72995 0.64436 0.61750
 H260 H 0.70427 0.59976 0.60791
 C261 C -0.16636 0.35378 0.14981
 C262 C -0.20229 0.34102 0.13844
 C263 C -0.21938 0.31931 0.15918
 C264 C -0.20078 0.31000 0.19114
 C265 C -0.16458 0.32296 0.20131
 N266 N -0.14852 0.34415 0.18067
 C267 C -0.14671 0.37684 0.12877
 N268 N -0.10680 0.38139 0.13334
 C269 C -0.08654 0.40186 0.11469
 C270 C -0.10654 0.41925 0.08950
 C271 C -0.14780 0.41532 0.08488
 C272 C -0.16799 0.39432 0.10449
 H273 H -0.24713 0.30975 0.15008
 H274 H -0.14909 0.31637 0.22565
 H275 H -0.05469 0.40407 0.11899
 H276 H -0.16456 0.42872 0.06636
 H277 H -0.21689 0.34721 0.11353
 H278 H -0.19993 0.39225 0.10089
 C279 C 0.33234 0.85230 0.64722
 C280 C 0.29523 0.84033 0.63764
 C281 C 0.27843 0.81902 0.65930
 C282 C 0.29853 0.80934 0.69033
 C283 C 0.33575 0.82155 0.69871
 N284 N 0.35143 0.84236 0.67728
 C285 C 0.35207 0.87493 0.62541
 N286 N 0.39179 0.87986 0.63064
 C287 C 0.41227 0.90015 0.61192
 C288 C 0.39270 0.91701 0.58592
 C289 C 0.35169 0.91257 0.58031
 C290 C 0.33124 0.89174 0.60004
 H291 H 0.24982 0.81001 0.65161
 H292 H 0.35239 0.81469 0.72230
 H293 H 0.44395 0.90273 0.61693
 H294 H 0.33529 0.92552 0.56104
 H295 H 0.27939 0.84678 0.61348
 H296 H 0.29947 0.88939 0.59568
 C297 C -0.16904 0.64792 -0.14326
 C298 C -0.20713 0.65886 -0.13539
 C299 C -0.22388 0.67977 -0.15775
 C300 C -0.20283 0.69018 -0.18788
 C301 C -0.16464 0.67887 -0.19452
 N302 N -0.14910 0.65843 -0.17244
 C303 C -0.14914 0.62573 -0.12073
 N304 N -0.10960 0.62056 -0.12630
 C305 C -0.08887 0.60059 -0.10722
 C306 C -0.10795 0.58431 -0.08044
 C307 C -0.14871 0.58908 -0.07427
 C308 C -0.16945 0.60958 -0.09440
 H309 H -0.25327 0.68788 -0.15117
 H310 H -0.14704 0.68614 -0.21726
 H311 H -0.05737 0.59776 -0.11265
 H312 H -0.16473 0.57660 -0.05431
 H313 H -0.22392 0.65192 -0.11209
 H314 H -0.20102 0.61213 -0.08948
 C315 C 0.33235 1.14626 0.35318
 C316 C 0.29440 1.15730 0.36132
 C317 C 0.27793 1.17868 0.33952
 C318 C 0.29915 1.18945 0.30969
 C319 C 0.33726 1.17807 0.30283
 N320 N 0.35254 1.15717 0.32438
 C321 C 0.35180 1.12362 0.37524
 N322 N 0.39183 1.11943 0.37147
 C323 C 0.41213 1.09923 0.39056
 C324 C 0.39203 1.08170 0.41542
 C325 C 0.35071 1.08536 0.41951
 C326 C 0.33046 1.10611 0.39941
 H327 H 0.24863 1.18684 0.34628
 H328 H 0.35499 1.18563 0.28032
 H329 H 0.44405 1.09726 0.38675
 H330 H 0.33395 1.07190 0.43789
 H331 H 0.27760 1.15007 0.38449
 H332 H 0.29849 1.10786 0.40259
 C333 C 1.16809 -0.14841 -0.14333
 C334 C 1.20852 -0.15544 -0.13826
 C335 C 1.22587 -0.17653 -0.15969
 C336 C 1.20316 -0.19062 -0.18619
 C337 C 1.16279 -0.18310 -0.19018
 N338 N 1.14649 -0.16261 -0.16886
 C339 C 1.14795 -0.12641 -0.12127
 N340 N 1.10773 -0.12831 -0.11634
 C341 C 1.08702 -0.10878 -0.09679
 C342 C 1.10681 -0.08535 -0.08121
 C343 C 1.14818 -0.08278 -0.08626
 C344 C 1.16886 -0.10323 -0.10618
 H345 H 1.25705 -0.18179 -0.15551
 H346 H 1.14408 -0.19358 -0.21007
 H347 H 1.05503 -0.11130 -0.09397
 H348 H 1.16456 -0.06504 -0.07461
 H349 H 1.22645 -0.14524 -0.11760
 H350 H 1.20062 -0.10050 -0.11026
 C351 C 0.65206 0.34902 0.34897
 C352 C 0.63183 0.33493 0.32084
 C353 C 0.65209 0.31486 0.29995
 C354 C 0.69240 0.30872 0.30702
 C355 C 0.71165 0.32355 0.33507
 N356 N 0.69135 0.34312 0.35491
 C357 C 0.63215 0.37048 0.37198
 N358 N 0.65460 0.39154 0.38735
 C359 C 0.63848 0.41194 0.40894
 C360 C 0.59744 0.41166 0.41655
 C361 C 0.57382 0.38992 0.40146
 C362 C 0.59099 0.36934 0.37916
 H363 H 0.63614 0.30403 0.27845
 H364 H 0.74280 0.31965 0.34126
 H365 H 0.65778 0.42816 0.42042
 H366 H 0.54199 0.38905 0.40655
 H367 H 0.60092 0.33959 0.31458
 H368 H 0.57229 0.35253 0.36825
 C369 C 0.82905 -0.14710 -0.14564
 C370 C 0.79217 -0.15951 -0.13634
 C371 C 0.77614 -0.18120 -0.15784
 C372 C 0.79678 -0.19084 -0.18840
 C373 C 0.83373 -0.17817 -0.19651
 N374 N 0.84865 -0.15700 -0.17526
 C375 C 0.84809 -0.12411 -0.12396
 N376 N 0.88756 -0.11842 -0.12930
 C377 C 0.90752 -0.09784 -0.11065
 C378 C 0.88766 -0.08147 -0.08457
 C379 C 0.84689 -0.08666 -0.07884
 C380 C 0.82695 -0.10777 -0.09854
 H381 H 0.74771 -0.19054 -0.15037
 H382 H 0.85075 -0.18497 -0.21976
 H383 H 0.93905 -0.09469 -0.11573
 H384 H 0.83029 -0.07413 -0.05945
 H385 H 0.77591 -0.15311 -0.11254
 H386 H 0.79534 -0.11073 -0.09403
 C387 C 0.33131 0.35258 0.35296
 C388 C 0.29443 0.34017 0.36221
 C389 C 0.27845 0.31847 0.34071
 C390 C 0.29913 0.30883 0.31017
 C391 C 0.33613 0.32148 0.30213
 N392 N 0.35101 0.34266 0.32340
 C393 C 0.35016 0.37564 0.37465
 N394 N 0.38981 0.38107 0.36998
 C395 C 0.40953 0.40171 0.38873
 C396 C 0.38923 0.41842 0.41418
 C397 C 0.34828 0.41349 0.41919
 C398 C 0.32860 0.39231 0.39942
 H399 H 0.24999 0.30914 0.34814
 H400 H 0.35319 0.31466 0.27892
 H401 H 0.44121 0.40466 0.38422
 H402 H 0.33135 0.42629 0.43805
 H403 H 0.27815 0.34657 0.38600
 H404 H 0.29685 0.38957 0.40331
 C405 C 0.16854 0.65055 -0.14050
 C406 C 0.20551 0.66248 -0.13076
 C407 C 0.22329 0.68282 -0.15325
 C408 C 0.20418 0.69160 -0.18534
 C409 C 0.16721 0.67892 -0.19407
 N410 N 0.15079 0.65891 -0.17191
 C411 C 0.14866 0.62868 -0.11797
 N412 N 0.12573 0.60840 -0.13436
 C413 C 0.10628 0.58775 -0.11538
 C414 C 0.10875 0.58705 -0.07754
 C415 C 0.13171 0.60798 -0.06002
 C416 C 0.15188 0.62874 -0.08012
 H417 H 0.25188 0.69175 -0.14530
 H418 H 0.15135 0.68471 -0.21855
 H419 H 0.08841 0.57216 -0.12980
 H420 H 0.13427 0.60811 -0.03084
 H421 H 0.22093 0.65584 -0.10640
 H422 H 0.16910 0.64493 -0.06613
 C423 C 0.65816 1.15237 0.35453
 C424 C 0.63919 1.16246 0.32317
 C425 C 0.65873 1.18214 0.30106
 C426 C 0.69717 1.19210 0.31013
 C427 C 0.71527 1.18111 0.34163
 N428 N 0.69569 1.16170 0.36257
 C429 C 0.63855 1.13139 0.37859
 N430 N 0.66122 1.11157 0.39617
 C431 C 0.64486 1.09129 0.41804
 C432 C 0.60340 1.09046 0.42353
 C433 C 0.57961 1.11110 0.40634
 C434 C 0.59701 1.13152 0.38381
 H435 H 0.64345 1.18968 0.27702
 H436 H 0.74494 1.18787 0.34970
 H437 H 0.66421 1.07590 0.43119
 H438 H 0.54749 1.11107 0.40979
 H439 H 0.60980 1.15493 0.31543
 H440 H 0.57816 1.14736 0.37092
 C441 C 0.17246 0.34932 0.13990
 C442 C 0.21263 0.34159 0.13505
 C443 C 0.22961 0.32071 0.15731
 C444 C 0.20677 0.30751 0.18439
 C445 C 0.16664 0.31566 0.18809
 N446 N 0.15073 0.33596 0.16601
 C447 C 0.15272 0.37127 0.11719
 N448 N 0.11231 0.37021 0.11303
 C449 C 0.09185 0.38993 0.09329
 C450 C 0.11214 0.41273 0.07674
 C451 C 0.15377 0.41437 0.08083
 C452 C 0.17417 0.39371 0.10095
 H453 H 0.26059 0.31492 0.15331
 H454 H 0.14783 0.30588 0.20841
 H455 H 0.05968 0.38814 0.09124
 H456 H 0.17053 0.43160 0.06843
 H457 H 0.23065 0.35110 0.11399
 H458 H 0.20614 0.39581 0.10437
 C459 C 0.67130 0.85022 0.64209
 C460 C 0.71175 0.84298 0.63798
 C461 C 0.72845 0.82177 0.65991
 C462 C 0.70507 0.80780 0.68597
 C463 C 0.66469 0.81548 0.68895
 N464 N 0.64904 0.83608 0.66716
 C465 C 0.65184 0.87244 0.61963
 N466 N 0.61169 0.87082 0.61394
 C467 C 0.59147 0.89066 0.59421
 C468 C 0.61172 0.91417 0.57927
 C469 C 0.65305 0.91644 0.58504
 C470 C 0.67322 0.89564 0.60510
 H471 H 0.75967 0.81639 0.65653
 H472 H 0.64547 0.80509 0.70847
 H473 H 0.55949 0.88836 0.59084
 H474 H 0.66974 0.93425 0.57393
 H475 H 0.73020 0.85316 0.61772
 H476 H 0.70496 0.89814 0.60979
 C477 C 0.84606 0.14705 0.15791
 C478 C 0.86255 0.15750 0.19028
 C479 C 0.84262 0.17879 0.20939
 C480 C 0.80609 0.18961 0.19669
 C481 C 0.79029 0.17833 0.16455
 N482 N 0.81035 0.15766 0.14630
 C483 C 0.86580 0.12450 0.13623
 N484 N 0.84358 0.10964 0.11171
 C485 C 0.85943 0.08887 0.09051
 C486 C 0.90012 0.08194 0.09327
 C487 C 0.92368 0.09711 0.11813
 C488 C 0.90679 0.11842 0.13947
 H489 H 0.85571 0.18662 0.23428
 H490 H 0.76210 0.18593 0.15384
 H491 H 0.84014 0.07762 0.07178
 H492 H 0.95541 0.09294 0.12049
 H493 H 0.89011 0.14916 0.20131
 H494 H 0.92605 0.13026 0.15755
 C495 C 0.33187 0.64617 0.64892
 C496 C 0.29505 0.65838 0.63904
 C497 C 0.27844 0.67973 0.66049
 C498 C 0.29842 0.68926 0.69162
 C499 C 0.33538 0.67681 0.70032
 N500 N 0.35091 0.65595 0.67906
 C501 C 0.35132 0.62357 0.62711
 N502 N 0.39117 0.61885 0.63166
 C503 C 0.41136 0.59875 0.61256
 C504 C 0.39133 0.58194 0.58685
 C505 C 0.35016 0.58607 0.58210
 C506 C 0.33002 0.60667 0.60223
 H507 H 0.25006 0.68893 0.65252
 H508 H 0.35191 0.68357 0.72399
 H509 H 0.44316 0.59635 0.61696
 H510 H 0.33341 0.57311 0.56312
 H511 H 0.27934 0.65210 0.61476
 H512 H 0.29813 0.60882 0.59851
   
