data_POSCAR
  _audit_creation_date              2014-09-24
  _audit_creation_method            'ToBaCCo'
  _symmetry_space_group_name_H-M    'P1'
  _symmetry_Int_Tables_number       1
  _symmetry_cell_setting            triclinic
  loop_
  _symmetry_equiv_pos_as_xyz
 x,y,z
_cell_length_a 31.5712
_cell_length_b 32.2417
_cell_length_c 37.2675
_cell_angle_alpha 88.975300
_cell_angle_beta 90.029600
_cell_angle_gamma 89.742200
loop_
  _atom_site_label
  _atom_site_type_symbol
  _atom_site_fract_x
  _atom_site_fract_y
  _atom_site_fract_z
Si1 Si 1.24706 0.24982 0.24969
 Si2 Si 0.73330 -0.24907 0.24856
 Si3 Si 0.75243 0.24924 -0.24986
 Si4 Si 1.23974 -0.24938 -0.25132
 Si5 Si 0.23800 0.25067 0.75005
 Si6 Si 0.76409 0.75044 0.75130
 Si7 Si 0.75875 0.24915 0.25008
 Si8 Si 0.27378 0.74911 0.25144
 O9 O 1.07665 0.03077 0.04267
 O10 O 0.91186 -0.04256 0.01809
 O11 O 0.97965 0.05881 0.05092
 O12 O 1.03229 -0.07260 0.05748
 O13 O 0.92110 0.03074 0.03587
 O14 O 1.08770 -0.04417 0.03476
 O15 O 0.95999 -0.06040 0.05392
 O16 O 1.04333 0.08252 0.01900
 C17 C 1.06857 0.06849 0.04201
 C18 C 0.92217 -0.05790 0.04747
 C19 C 0.94232 0.05058 0.05814
 C20 C 1.07084 -0.06683 0.05782
 O21 O 1.08007 -0.03815 -0.03339
 O22 O 0.93931 0.04901 -0.03406
 O23 O 1.01302 0.05865 -0.04272
 O24 O 0.96067 -0.08192 -0.01830
 O25 O 0.94139 -0.02494 -0.04621
 O26 O 1.07652 0.03988 -0.02928
 O27 O 1.03848 -0.08886 -0.01330
 O28 O 0.96542 0.10226 -0.00590
 Co29 Co 1.07293 -0.00251 0.00391
 Co30 Co 0.93558 0.00252 -0.00489
 Co31 Co 0.99558 0.05572 0.00444
 Co32 Co 0.99769 -0.07017 0.01870
 O33 O 1.00375 -0.00617 0.00692
 C34 C 1.06698 -0.07500 -0.03442
 C35 C 0.93665 0.08751 -0.02753
 C36 C 1.05118 0.05717 -0.05054
 C37 C 0.94604 -0.06338 -0.04578
 O38 O 1.07828 0.53676 0.53250
 O39 O 0.93617 0.45230 0.53412
 O40 O 0.95904 0.58278 0.51869
 O41 O 1.00980 0.44141 0.54273
 O42 O 0.93919 0.52604 0.54642
 O43 O 1.07340 0.45892 0.52892
 O44 O 0.96150 0.39856 0.50601
 O45 O 1.03695 0.58831 0.51301
 C46 C 1.06579 0.57391 0.53365
 C47 C 0.93285 0.41391 0.52750
 C48 C 0.94426 0.56438 0.54612
 C49 C 1.04802 0.44235 0.55043
 O50 O 1.07274 0.46750 0.45682
 O51 O 0.90932 0.54455 0.48238
 O52 O 1.02970 0.57244 0.44239
 O53 O 0.97601 0.44167 0.44917
 O54 O 0.91786 0.47110 0.46422
 O55 O 1.08495 0.54211 0.46416
 O56 O 1.03950 0.41646 0.48107
 O57 O 0.95734 0.56157 0.44639
 Co58 Co 1.07006 0.50107 0.49544
 Co59 Co 0.93282 0.49890 0.50505
 Co60 Co 0.99552 0.57047 0.48138
 Co61 Co 0.99220 0.44450 0.49561
 O62 O 1.00099 0.50627 0.49300
 C63 C 1.06485 0.42984 0.45799
 C64 C 0.91957 0.55998 0.45307
 C65 C 1.06809 0.56545 0.44147
 C66 C 0.93876 0.45072 0.44197
 O67 O 0.58121 0.05000 0.52927
 O68 O 0.41959 -0.04035 0.53245
 O69 O 0.45215 0.08576 0.52581
 O70 O 0.54883 -0.07620 0.53048
 O71 O 0.42863 0.02966 0.54826
 O72 O 0.57288 -0.01944 0.54932
 O73 O 0.47793 -0.06528 0.55225
 O74 O 0.52305 0.07578 0.54768
 C75 C 0.56104 0.06878 0.55277
 C76 C 0.43967 -0.05919 0.55661
 C77 C 0.43277 0.06744 0.55041
 C78 C 0.56866 -0.05706 0.55371
 O79 O 0.57932 -0.04515 0.47960
 O80 O 0.42152 0.05268 0.47723
 O81 O 0.55167 0.08258 0.47911
 O82 O 0.44909 -0.07451 0.48435
 O83 O 0.42773 -0.01788 0.46113
 O84 O 0.57295 0.02489 0.45952
 O85 O 0.51982 -0.06851 0.46236
 O86 O 0.48067 0.07510 0.45777
 Co87 Co 0.56933 0.00274 0.50446
 Co88 Co 0.43162 0.00585 0.50475
 Co89 Co 0.50172 0.07227 0.50283
 Co90 Co 0.49909 -0.06362 0.50716
 O91 O 0.50045 0.00430 0.50482
 C92 C 0.55800 -0.06401 0.45695
 C93 C 0.44245 0.07000 0.45293
 C94 C 0.56972 0.06270 0.45519
 C95 C 0.43211 -0.05567 0.45876
 O96 O 0.57799 0.54506 0.02057
 O97 O 0.42061 0.44928 0.02362
 O98 O 0.44774 0.57605 0.01543
 O99 O 0.55077 0.41764 0.02047
 O100 O 0.42686 0.51980 0.03910
 O101 O 0.57201 0.47506 0.04014
 O102 O 0.47995 0.42603 0.04263
 O103 O 0.51855 0.56931 0.03772
 C104 C 0.55670 0.56417 0.04321
 C105 C 0.44180 0.43166 0.04775
 C106 C 0.43120 0.55756 0.04129
 C107 C 0.56915 0.43724 0.04429
 O108 O 0.57949 0.45038 -0.02994
 O109 O 0.41842 0.54172 -0.03254
 O110 O 0.54766 0.57687 -0.03017
 O111 O 0.45044 0.41537 -0.02499
 O112 O 0.42711 0.47155 -0.04775
 O113 O 0.57121 0.51999 -0.04946
 O114 O 0.52109 0.42474 -0.04765
 O115 O 0.47676 0.56634 -0.05223
 Co116 Co 0.56797 0.49753 -0.00468
 Co117 Co 0.43043 0.49571 -0.00440
 Co118 Co 0.49784 0.56459 -0.00710
 Co119 Co 0.50040 0.42855 -0.00263
 O120 O 0.49918 0.49660 -0.00472
 C121 C 0.55898 0.43155 -0.05315
 C122 C 0.43855 0.56030 -0.05671
 C123 C 0.56735 0.55772 -0.05354
 C124 C 0.43096 0.43369 -0.04963
 C125 C 1.15317 0.21743 0.17846
 C126 C 1.16416 0.17679 0.16955
 C127 C 1.19832 0.15702 0.18680
 C128 C 1.22215 0.17817 0.21216
 C129 C 1.21189 0.21924 0.22046
 C130 C 1.17697 0.23860 0.20385
 C131 C 1.14175 0.15587 0.14164
 C132 C 1.12395 0.13774 0.11808
 C133 C 1.10403 0.11537 0.09070
 C134 C 1.08761 0.09489 0.06791
 H135 H 1.12687 0.23304 0.16520
 H136 H 1.20716 0.12562 0.18000
 H137 H 1.24931 0.16287 0.22429
 H138 H 1.16895 0.27046 0.20972
 C139 C 1.20731 0.68021 0.66138
 C140 C 1.16299 0.68200 0.66093
 C141 C 1.14142 0.70389 0.68748
 C142 C 1.16411 0.72403 0.71428
 C143 C 1.20852 0.72216 0.71484
 C144 C 1.22996 0.70032 0.68813
 C145 C 1.13992 0.66113 0.63326
 C146 C 1.12143 0.64296 0.61002
 C147 C 1.10083 0.62054 0.58293
 C148 C 1.08424 0.60011 0.56012
 H149 H 1.22436 0.66343 0.64097
 H150 H 1.10714 0.70557 0.68734
 H151 H 1.14690 0.74133 0.73419
 H152 H 1.26425 0.69903 0.68787
 C153 C 0.65090 0.18963 0.70373
 C154 C 0.67073 0.16062 0.68182
 C155 C 0.71488 0.15627 0.68256
 C156 C 0.73916 0.18165 0.70448
 C157 C 0.71945 0.21143 0.72584
 C158 C 0.67513 0.21501 0.72559
 C159 C 0.64609 0.13811 0.65635
 C160 C 0.62558 0.12071 0.63399
 C161 C 0.60208 0.10174 0.60672
 C162 C 0.58277 0.08639 0.58252
 H163 H 0.61680 0.19359 0.70301
 H164 H 0.73057 0.13421 0.66540
 H165 H 0.77336 0.17892 0.70395
 H166 H 0.65914 0.23834 0.74112
 C167 C 0.70022 0.66803 0.17068
 C168 C 0.65593 0.66878 0.17103
 C169 C 0.63438 0.69400 0.19529
 C170 C 0.65716 0.71851 0.21908
 C171 C 0.70157 0.71773 0.21876
 C172 C 0.72293 0.69250 0.19437
 C173 C 0.63296 0.64483 0.14544
 C174 C 0.61466 0.62517 0.12314
 C175 C 0.59408 0.60286 0.09612
 C176 C 0.57692 0.58463 0.07230
 H177 H 0.71719 0.64888 0.15185
 H178 H 0.60008 0.69506 0.19551
 H179 H 0.64005 0.73829 0.23723
 H180 H 0.75723 0.69189 0.19355
 C181 C 0.76250 -0.16550 0.16731
 C182 C 0.80678 -0.16452 0.16727
 C183 C 0.82954 -0.18886 0.19228
 C184 C 0.80804 -0.21415 0.21717
 C185 C 0.76367 -0.21505 0.21721
 C186 C 0.74109 -0.19070 0.19209
 C187 C 0.82870 -0.13926 0.14101
 C188 C 0.84735 -0.11864 0.11885
 C189 C 0.87057 -0.09553 0.09305
 C190 C 0.89254 -0.07723 0.07162
 H191 H 0.74454 -0.14701 0.14804
 H192 H 0.86385 -0.18853 0.19235
 H193 H 0.82603 -0.23310 0.23602
 H194 H 0.70679 -0.19130 0.19157
 C195 C 0.78180 0.31564 0.65784
 C196 C 0.82601 0.31289 0.65607
 C197 C 0.84848 0.29264 0.68374
 C198 C 0.82678 0.27470 0.71279
 C199 C 0.78247 0.27713 0.71445
 C200 C 0.76012 0.29772 0.68685
 C201 C 0.84828 0.33125 0.62609
 C202 C 0.86701 0.34747 0.60143
 C203 C 0.88930 0.36809 0.57360
 C204 C 0.90885 0.38768 0.55135
 H205 H 0.76408 0.33129 0.63666
 H206 H 0.88270 0.29038 0.68267
 H207 H 0.84461 0.25828 0.73341
 H208 H 0.72585 0.29933 0.68746
 C209 C 0.28071 -0.15748 0.67817
 C210 C 0.32489 -0.16134 0.67949
 C211 C 0.34360 -0.19080 0.70258
 C212 C 0.31829 -0.21661 0.72399
 C213 C 0.27399 -0.21302 0.72265
 C214 C 0.25535 -0.18330 0.69961
 C215 C 0.35093 -0.13700 0.65557
 C216 C 0.37259 -0.11766 0.63464
 C217 C 0.39730 -0.09618 0.60893
 C218 C 0.41742 -0.07877 0.58576
 H219 H 0.26587 -0.13507 0.66010
 H220 H 0.37773 -0.19441 0.70348
 H221 H 0.33354 -0.23986 0.74084
 H222 H 0.22121 -0.18051 0.69786
 C223 C 0.30025 0.30803 0.16051
 C224 C 0.33085 0.33392 0.17521
 C225 C 0.33576 0.33550 0.21250
 C226 C 0.31021 0.31093 0.23495
 C227 C 0.27959 0.28467 0.22025
 C228 C 0.27485 0.28350 0.18284
 C229 C 0.35753 0.35774 0.15145
 C230 C 0.37880 0.37639 0.12981
 C231 C 0.40229 0.39681 0.10269
 C232 C 0.42108 0.41321 0.07821
 H233 H 0.29632 0.30642 0.13168
 H234 H 0.35955 0.35528 0.22416
 H235 H 0.31490 0.31181 0.26371
 H236 H 0.25206 0.26332 0.17051
 C237 C 0.83612 0.23150 -0.16585
 C238 C 0.83296 0.18901 -0.15806
 C239 C 0.80768 0.16392 -0.17959
 C240 C 0.78489 0.18139 -0.20832
 C241 C 0.78742 0.22407 -0.21581
 C242 C 0.81334 0.24897 -0.19458
 C243 C 0.85497 0.17107 -0.12768
 C244 C 0.87320 0.15494 -0.10262
 C245 C 0.89467 0.13417 -0.07432
 C246 C 0.91348 0.11426 -0.05170
 H247 H 0.85555 0.25121 -0.14939
 H248 H 0.80497 0.13100 -0.17376
 H249 H 0.76447 0.16173 -0.22386
 H250 H 0.81513 0.28210 -0.19969
 C251 C 0.81375 0.71203 0.33038
 C252 C 0.80768 0.66899 0.33180
 C253 C 0.78132 0.65036 0.30663
 C254 C 0.76048 0.67465 0.28062
 C255 C 0.76601 0.71785 0.27934
 C256 C 0.79289 0.73637 0.30432
 C257 C 0.82819 0.64393 0.35917
 C258 C 0.84595 0.62309 0.38185
 C259 C 0.86845 0.59937 0.40785
 C260 C 0.89007 0.58033 0.42922
 H261 H 0.83407 0.72682 0.34973
 H262 H 0.77631 0.61714 0.30748
 H263 H 0.73917 0.65957 0.26234
 H264 H 0.79693 0.76972 0.30417
 C265 C 0.35165 0.19126 0.29621
 C266 C 0.33313 0.16469 0.32175
 C267 C 0.28901 0.16172 0.32384
 C268 C 0.26349 0.18623 0.30131
 C269 C 0.28177 0.21426 0.27669
 C270 C 0.32608 0.21576 0.27360
 C271 C 0.35902 0.14237 0.34733
 C272 C 0.37977 0.12455 0.36997
 C273 C 0.40287 0.10468 0.39775
 C274 C 0.42155 0.08846 0.42247
 H275 H 0.38579 0.19363 0.29424
 H276 H 0.27433 0.14109 0.34339
 H277 H 0.22952 0.18352 0.30358
 H278 H 0.34117 0.23608 0.25418
 C279 C 0.29980 0.64713 -0.20617
 C280 C 0.32453 0.66471 -0.17921
 C281 C 0.32328 0.70757 -0.17407
 C282 C 0.29763 0.73281 -0.19583
 C283 C 0.27318 0.71551 -0.22312
 C284 C 0.27408 0.67247 -0.22805
 C285 C 0.35038 0.63913 -0.15591
 C286 C 0.37186 0.61912 -0.13517
 C287 C 0.39638 0.59725 -0.10941
 C288 C 0.41637 0.57977 -0.08608
 H289 H 0.30024 0.61393 -0.21013
 H290 H 0.34201 0.72147 -0.15312
 H291 H 0.29701 0.76594 -0.19146
 H292 H 0.25495 0.65838 -0.24854
 C293 C 1.18455 -0.15899 -0.18853
 C294 C 1.15838 -0.18217 -0.16550
 C295 C 1.15522 -0.22513 -0.16956
 C296 C 1.17866 -0.24486 -0.19618
 C297 C 1.20528 -0.22178 -0.21904
 C298 C 1.20800 -0.17870 -0.21514
 C299 C 1.13631 -0.16193 -0.13685
 C300 C 1.11886 -0.14409 -0.11280
 C301 C 1.09960 -0.12186 -0.08484
 C302 C 1.08416 -0.10141 -0.06141
 H303 H 1.18747 -0.12577 -0.18547
 H304 H 1.13528 -0.24343 -0.15177
 H305 H 1.17665 -0.27823 -0.19851
 H306 H 1.22891 -0.16032 -0.23192
 C307 C 1.19623 0.34184 0.31368
 C308 C 1.16461 0.32066 0.33281
 C309 C 1.15622 0.27914 0.32535
 C310 C 1.18016 0.25858 0.29957
 C311 C 1.21301 0.27918 0.28128
 C312 C 1.22017 0.32127 0.28790
 C313 C 1.14142 0.34146 0.36045
 C314 C 1.12274 0.35958 0.38364
 C315 C 1.10173 0.38208 0.41047
 C316 C 1.08449 0.40286 0.43274
 H317 H 1.20270 0.37413 0.31899
 H318 H 1.13147 0.26258 0.33965
 H319 H 1.17294 0.22657 0.29401
 H320 H 1.24445 0.33831 0.27368
 C321 C 0.67996 -0.15021 0.30218
 C322 C 0.65382 -0.16994 0.32746
 C323 C 0.65029 -0.21322 0.32793
 C324 C 0.67329 -0.23672 0.30347
 C325 C 0.69978 -0.21710 0.27828
 C326 C 0.70296 -0.17369 0.27774
 C327 C 0.63226 -0.14594 0.35400
 C328 C 0.61484 -0.12610 0.37678
 C329 C 0.59495 -0.10347 0.40407
 C330 C 0.57811 -0.08490 0.42794
 H331 H 0.68321 -0.11677 0.30183
 H332 H 0.63039 -0.22880 0.34757
 H333 H 0.67097 -0.27023 0.30460
 H334 H 0.72386 -0.15782 0.25914
 C335 C 0.66871 0.29035 -0.17378
 C336 C 0.66745 0.33332 -0.17942
 C337 C 0.69141 0.35158 -0.20709
 C338 C 0.71674 0.32675 -0.22896
 C339 C 0.71801 0.28366 -0.22319
 C340 C 0.69396 0.26568 -0.19547
 C341 C 0.64285 0.35818 -0.15548
 C342 C 0.62249 0.37711 -0.13387
 C343 C 0.59930 0.39736 -0.10703
 C344 C 0.58031 0.41344 -0.08295
 H345 H 0.65056 0.27595 -0.15230
 H346 H 0.69093 0.38489 -0.21143
 H347 H 0.73559 0.34125 -0.24987
 H348 H 0.69490 0.23248 -0.19046
 C349 C 1.13434 0.19474 -0.20060
 C350 C 1.15324 0.16643 -0.17656
 C351 C 1.19748 0.16340 -0.17478
 C352 C 1.22267 0.18853 -0.19697
 C353 C 1.20387 0.21669 -0.22133
 C354 C 1.15951 0.21985 -0.22280
 C355 C 1.12746 0.14177 -0.15260
 C356 C 1.10679 0.12154 -0.13153
 C357 C 1.08439 0.09836 -0.10531
 C358 C 1.06755 0.07913 -0.08128
 H359 H 1.10017 0.19774 -0.20189
 H360 H 1.21249 0.14190 -0.15600
 H361 H 1.25683 0.18608 -0.19508
 H362 H 1.14409 0.24195 -0.24065
 C363 C 1.17094 0.69695 0.29976
 C364 C 1.18960 0.67002 0.32506
 C365 C 1.23372 0.66766 0.32791
 C366 C 1.25914 0.69194 0.30529
 C367 C 1.24067 0.71847 0.27930
 C368 C 1.19629 0.72124 0.27711
 C369 C 1.16340 0.64576 0.34879
 C370 C 1.14134 0.62603 0.36905
 C371 C 1.11557 0.60380 0.39338
 C372 C 1.09371 0.58571 0.41489
 H373 H 1.13678 0.69942 0.29775
 H374 H 1.24845 0.64722 0.34770
 H375 H 1.29327 0.68979 0.30801
 H376 H 1.18080 0.74232 0.25840
 C377 C 0.65629 0.19409 0.30248
 C378 C 0.67615 0.16748 0.32749
 C379 C 0.72041 0.16478 0.32830
 C380 C 0.74468 0.18897 0.30466
 C381 C 0.72500 0.21638 0.28013
 C382 C 0.68061 0.21833 0.27877
 C383 C 0.65147 0.14385 0.35313
 C384 C 0.63162 0.12442 0.37537
 C385 C 0.60925 0.10217 0.40229
 C386 C 0.59084 0.08376 0.42602
 H387 H 0.62206 0.19636 0.30151
 H388 H 0.73619 0.14431 0.34748
 H389 H 0.77890 0.18675 0.30587
 H390 H 0.66465 0.23862 0.25969
 C391 C 0.70720 0.64900 -0.19824
 C392 C 0.68058 0.66769 -0.17313
 C393 C 0.67939 0.71097 -0.17079
 C394 C 0.70452 0.73544 -0.19354
 C395 C 0.73085 0.71690 -0.21902
 C396 C 0.73235 0.67350 -0.22104
 C397 C 0.65520 0.64260 -0.14917
 C398 C 0.63419 0.62211 -0.12853
 C399 C 0.61007 0.59881 -0.10350
 C400 C 0.59011 0.57960 -0.08125
 H401 H 0.70869 0.61553 -0.20007
 H402 H 0.65917 0.72579 -0.15130
 H403 H 0.70334 0.76888 -0.19133
 H404 H 0.75300 0.65839 -0.23994
 C405 C 0.82125 -0.15230 -0.19572
 C406 C 0.84809 -0.17290 -0.17128
 C407 C 0.84961 -0.21631 -0.17032
 C408 C 0.82445 -0.23899 -0.19372
 C409 C 0.79775 -0.21847 -0.21841
 C410 C 0.79609 -0.17498 -0.21914
 C411 C 0.87255 -0.14955 -0.14613
 C412 C 0.89198 -0.12990 -0.12443
 C413 C 0.91311 -0.10679 -0.09813
 C414 C 0.92935 -0.08697 -0.07476
 H415 H 0.81944 -0.11873 -0.19640
 H416 H 0.86993 -0.23260 -0.15128
 H417 H 0.82576 -0.27256 -0.19252
 H418 H 0.77518 -0.15842 -0.23741
 C419 C 0.84194 0.34159 0.28135
 C420 C 0.83623 0.34270 0.31863
 C421 C 0.80734 0.31566 0.33513
 C422 C 0.78444 0.28758 0.31471
 C423 C 0.79035 0.28588 0.27744
 C424 C 0.81891 0.31342 0.26082
 C425 C 0.86007 0.37078 0.34057
 C426 C 0.87922 0.39271 0.36086
 C427 C 0.90083 0.41614 0.38687
 C428 C 0.91857 0.43365 0.41097
 H429 H 0.86412 0.36240 0.26820
 H430 H 0.80246 0.31628 0.36390
 H431 H 0.76195 0.26758 0.32824
 H432 H 0.82339 0.31307 0.23202
 C433 C 0.36778 -0.19411 0.30699
 C434 C 0.34456 -0.16906 0.33029
 C435 C 0.30032 -0.16949 0.32930
 C436 C 0.27928 -0.19462 0.30508
 C437 C 0.30222 -0.21943 0.28123
 C438 C 0.34670 -0.21936 0.28260
 C439 C 0.36561 -0.14357 0.35601
 C440 C 0.38185 -0.12230 0.37837
 C441 C 0.39973 -0.09792 0.40547
 C442 C 0.41453 -0.07796 0.42940
 H443 H 0.40208 -0.19432 0.30784
 H444 H 0.28204 -0.15051 0.34739
 H445 H 0.24495 -0.19447 0.30492
 H446 H 0.36530 -0.23879 0.26521
 C447 C 0.33974 0.30228 -0.19584
 C448 C 0.31988 0.32711 -0.17033
 C449 C 0.27557 0.32891 -0.16894
 C450 C 0.25130 0.30611 -0.19298
 C451 C 0.27106 0.28153 -0.21881
 C452 C 0.31547 0.27948 -0.21989
 C453 C 0.34489 0.35024 -0.14526
 C454 C 0.36553 0.36950 -0.12402
 C455 C 0.38921 0.39197 -0.09871
 C456 C 0.40875 0.41106 -0.07663
 H457 H 0.37398 0.30036 -0.19701
 H458 H 0.25979 0.34780 -0.14920
 H459 H 0.21707 0.30764 -0.19141
 H460 H 0.33156 0.26012 -0.23899
 C461 C 1.22012 -0.15310 0.19758
 C462 C 1.19375 -0.17286 0.17312
 C463 C 1.19310 -0.21618 0.17190
 C464 C 1.21814 -0.23972 0.19556
 C465 C 1.24367 -0.22015 0.22105
 C466 C 1.24519 -0.17658 0.22130
 C467 C 1.16725 -0.14874 0.14931
 C468 C 1.14489 -0.12891 0.12920
 C469 C 1.11875 -0.10634 0.10521
 C470 C 1.09663 -0.08779 0.08403
 H471 H 1.22121 -0.11954 0.19840
 H472 H 1.17305 -0.23176 0.15281
 H473 H 1.21698 -0.27326 0.19433
 H474 H 1.26552 -0.16031 0.23960
 C475 C 1.17717 0.35206 0.70199
 C476 C 1.15111 0.33334 0.67656
 C477 C 1.15198 0.29020 0.67298
 C478 C 1.17846 0.26587 0.69489
 C479 C 1.20414 0.28439 0.72076
 C480 C 1.20368 0.32768 0.72397
 C481 C 1.12496 0.35829 0.65290
 C482 C 1.10404 0.37856 0.63189
 C483 C 1.08139 0.40160 0.60558
 C484 C 1.06442 0.42065 0.58140
 H485 H 1.17720 0.38547 0.70465
 H486 H 1.13235 0.27540 0.65313
 H487 H 1.17868 0.23253 0.69183
 H488 H 1.22370 0.34277 0.74327
 C489 C 0.72523 -0.16387 0.67396
 C490 C 0.68097 -0.16596 0.67543
 C491 C 0.66148 -0.19304 0.70006
 C492 C 0.68612 -0.21792 0.72312
 C493 C 0.73049 -0.21573 0.72188
 C494 C 0.74987 -0.18875 0.69700
 C495 C 0.65565 -0.14131 0.65089
 C496 C 0.63477 -0.12111 0.62980
 C497 C 0.61087 -0.09804 0.60431
 C498 C 0.59112 -0.07894 0.58172
 H499 H 0.74068 -0.14328 0.65482
 H500 H 0.62727 -0.19522 0.70120
 H501 H 0.67035 -0.23907 0.74148
 H502 H 0.78407 -0.18706 0.69533
 C503 C 0.70671 0.30076 0.15691
 C504 C 0.67815 0.33027 0.16986
 C505 C 0.67410 0.33557 0.20694
 C506 C 0.69831 0.31126 0.23089
 C507 C 0.72649 0.28122 0.21798
 C508 C 0.73085 0.27650 0.18080
 C509 C 0.65331 0.35490 0.14483
 C510 C 0.63308 0.37481 0.12301
 C511 C 0.61005 0.39736 0.09649
 C512 C 0.59102 0.41594 0.07308
 H513 H 0.71039 0.29654 0.12830
 H514 H 0.65228 0.35844 0.21733
 H515 H 0.69494 0.31577 0.25948
 H516 H 0.75297 0.25431 0.16999
 C517 C 0.79612 0.15294 0.18515
 C518 C 0.84035 0.15572 0.18454
 C519 C 0.86059 0.18597 0.20492
 C520 C 0.83663 0.21372 0.22525
 C521 C 0.79224 0.21168 0.22504
 C522 C 0.77224 0.18063 0.20538
 C523 C 0.86441 0.12933 0.16112
 C524 C 0.88355 0.10826 0.14005
 C525 C 0.90498 0.08530 0.11355
 C526 C 0.92248 0.06786 0.08924
 H527 H 0.78003 0.12984 0.16944
 H528 H 0.89479 0.18852 0.20462
 H529 H 0.85282 0.23692 0.24065
 H530 H 0.73802 0.17833 0.20514
 C531 C 0.80190 0.67120 0.67130
 C532 C 0.84618 0.67329 0.67235
 C533 C 0.86605 0.69846 0.69747
 C534 C 0.84173 0.72143 0.72146
 C535 C 0.79734 0.71916 0.72065
 C536 C 0.77760 0.69416 0.69525
 C537 C 0.87092 0.65023 0.64707
 C538 C 0.89049 0.63080 0.62522
 C539 C 0.91168 0.60786 0.59873
 C540 C 0.92784 0.58809 0.57522
 H541 H 0.78617 0.65204 0.65182
 H542 H 0.90027 0.70059 0.69831
 H543 H 0.85775 0.74115 0.74022
 H544 H 0.74338 0.69248 0.69391
 C545 C 0.29509 0.15375 0.69557
 C546 C 0.32196 0.17448 0.67139
 C547 C 0.32348 0.21789 0.67105
 C548 C 0.29836 0.24041 0.69478
 C549 C 0.27171 0.21976 0.71928
 C550 C 0.26998 0.17627 0.71932
 C551 C 0.34720 0.15128 0.64643
 C552 C 0.36789 0.13192 0.62519
 C553 C 0.39147 0.10932 0.59982
 C554 C 0.41085 0.09013 0.57762
 H555 H 0.29334 0.12019 0.69588
 H556 H 0.34389 0.23433 0.65232
 H557 H 0.29972 0.27398 0.69405
 H558 H 0.24909 0.15958 0.73738
 C559 C 0.32289 0.65027 0.19940
 C560 C 0.35011 0.66911 0.17451
 C561 C 0.35613 0.71210 0.17495
 C562 C 0.33421 0.73624 0.19970
 C563 C 0.30622 0.71759 0.22439
 C564 C 0.30093 0.67429 0.22408
 C565 C 0.36937 0.64458 0.14704
 C566 C 0.38427 0.62390 0.12354
 C567 C 0.40078 0.59993 0.09547
 C568 C 0.41458 0.58006 0.07100
 H569 H 0.31762 0.61709 0.19901
 H570 H 0.37683 0.72707 0.15555
 H571 H 0.33823 0.76961 0.19882
 H572 H 0.27878 0.65876 0.24178
   
