data_POSCAR
  _audit_creation_date              2014-09-24
  _audit_creation_method            'ToBaCCo'
  _symmetry_space_group_name_H-M    'P1'
  _symmetry_Int_Tables_number       1
  _symmetry_cell_setting            triclinic
  loop_
  _symmetry_equiv_pos_as_xyz
 x,y,z
_cell_length_a 54.1575
_cell_length_b 54.1807
_cell_length_c 54.1579
_cell_angle_alpha 90.015500
_cell_angle_beta 90.016800
_cell_angle_gamma 90.016700
loop_
  _atom_site_label
  _atom_site_type_symbol
  _atom_site_fract_x
  _atom_site_fract_y
  _atom_site_fract_z
O1 O 0.32210 0.35634 0.02367
 O2 O 0.35599 0.32253 -0.02448
 O3 O 0.32196 0.35659 -0.02425
 O4 O 0.35622 0.32240 0.02344
 O5 O 0.32741 0.29346 0.02347
 O6 O 0.29306 0.32775 -0.02432
 O7 O 0.32717 0.29360 -0.02455
 O8 O 0.29321 0.32748 0.02369
 Cu9 Cu 0.34197 0.34237 -0.00041
 Cu10 Cu 0.30729 0.30765 -0.00043
 C11 C 0.30186 0.34772 0.03169
 C12 C 0.34741 0.30228 -0.03251
 C13 C 0.30165 0.34806 -0.03221
 C14 C 0.34771 0.30209 0.03139
 O15 O 0.67789 0.64370 0.02354
 O16 O 0.64403 0.67757 -0.02459
 O17 O 0.67798 0.64343 -0.02438
 O18 O 0.64386 0.67773 0.02333
 O19 O 0.67275 0.70659 0.02335
 O20 O 0.70695 0.67220 -0.02446
 O21 O 0.67293 0.70643 -0.02467
 O22 O 0.70686 0.67248 0.02355
 Cu23 Cu 0.65803 0.65771 -0.00052
 Cu24 Cu 0.69280 0.69234 -0.00057
 C25 C 0.69816 0.65227 0.03156
 C26 C 0.65265 0.69780 -0.03262
 C27 C 0.69830 0.65190 -0.03235
 C28 C 0.65244 0.69802 0.03128
 O29 O 0.67795 0.35643 0.97645
 O30 O 0.64407 0.32251 1.02453
 O31 O 0.67803 0.35664 1.02436
 O32 O 0.64389 0.32242 0.97661
 O33 O 0.67275 0.29354 0.97657
 O34 O 0.70698 0.32787 1.02443
 O35 O 0.67294 0.29365 1.02458
 O36 O 0.70689 0.32764 0.97642
 Cu37 Cu 0.65807 0.34240 1.00049
 Cu38 Cu 0.69281 0.30776 1.00051
 C39 C 0.69820 0.34786 0.96843
 C40 C 0.65268 0.30227 1.03255
 C41 C 0.69835 0.34815 1.03234
 C42 C 0.65245 0.30214 0.96863
 O43 O 0.32229 0.64333 0.97663
 O44 O 0.35624 0.67731 1.02468
 O45 O 0.32227 0.64316 1.02455
 O46 O 0.35635 0.67736 0.97676
 O47 O 0.32749 0.70623 0.97674
 O48 O 0.29332 0.67193 1.02463
 O49 O 0.32737 0.70616 1.02475
 O50 O 0.29335 0.67213 0.97662
 Cu51 Cu 0.34220 0.65739 1.00066
 Cu52 Cu 0.30746 0.69203 1.00069
 C53 C 0.30201 0.65189 0.96863
 C54 C 0.34765 0.69755 1.03269
 C55 C 0.30196 0.65165 1.03254
 C56 C 0.34779 0.69764 0.96879
 O57 O 0.02371 0.32220 0.35615
 O58 O -0.02445 0.35596 0.32222
 O59 O -0.02421 0.32195 0.35628
 O60 O 0.02347 0.35630 0.32217
 O61 O 0.02363 0.32749 0.29323
 O62 O -0.02415 0.29306 0.32743
 O63 O -0.02439 0.32714 0.29329
 O64 O 0.02386 0.29332 0.32729
 Cu65 Cu -0.00038 0.34201 0.34211
 Cu66 Cu -0.00025 0.30734 0.30739
 C67 C 0.03179 0.30198 0.34756
 C68 C -0.03243 0.34736 0.30195
 C69 C -0.03211 0.30163 0.34774
 C70 C 0.03148 0.34781 0.30187
 O71 O 0.02398 0.67749 0.64373
 O72 O -0.02423 0.64383 0.67769
 O73 O -0.02393 0.67775 0.64354
 O74 O 0.02369 0.64347 0.67780
 O75 O 0.02386 0.67235 0.70667
 O76 O -0.02387 0.70671 0.67231
 O77 O -0.02416 0.67272 0.70655
 O78 O 0.02414 0.70645 0.67252
 Cu79 Cu -0.00013 0.65772 0.65779
 Cu80 Cu 0.00001 0.69248 0.69243
 C81 C 0.03207 0.69773 0.65228
 C82 C -0.03222 0.65249 0.69793
 C83 C -0.03183 0.69809 0.65202
 C84 C 0.03170 0.65201 0.69809
 O85 O 1.02430 0.64399 0.32218
 O86 O 0.97623 0.67779 0.35619
 O87 O 0.97638 0.64374 0.32214
 O88 O 1.02414 0.67793 0.35632
 O89 O 1.02413 0.70687 0.32753
 O90 O 0.97626 0.67259 0.29326
 O91 O 0.97612 0.70672 0.32738
 O92 O 1.02428 0.67285 0.29331
 Cu93 Cu 1.00027 0.65795 0.34211
 Cu94 Cu 1.00019 0.69268 0.30745
 C95 C 1.03229 0.65261 0.30193
 C96 C 0.96818 0.69804 0.34764
 C97 C 0.96837 0.65228 0.30186
 C98 C 1.03208 0.69825 0.34781
 O99 O 0.97584 0.32242 0.64335
 O100 O 1.02395 0.35617 0.67745
 O101 O 1.02376 0.32223 0.64328
 O102 O 0.97603 0.35646 0.67743
 O103 O 0.97585 0.32760 0.70629
 O104 O 1.02368 0.29328 0.67205
 O105 O 1.02386 0.32729 0.70630
 O106 O 0.97567 0.29348 0.67214
 Cu107 Cu 0.99991 0.34223 0.65748
 Cu108 Cu 0.99975 0.30749 0.69211
 C109 C 0.96777 0.30217 0.65188
 C110 C 1.03191 0.34753 0.69770
 C111 C 1.03166 0.30190 0.65178
 C112 C 0.96800 0.34793 0.69770
 O113 O 0.35594 0.02435 0.32246
 O114 O 0.32202 -0.02383 0.35621
 O115 O 0.35618 -0.02355 0.32229
 O116 O 0.32190 0.02407 0.35652
 O117 O 0.29302 0.02414 0.32765
 O118 O 0.32740 -0.02358 0.29332
 O119 O 0.29316 -0.02385 0.32732
 O120 O 0.32714 0.02441 0.29351
 Cu121 Cu 0.34191 0.00026 0.34228
 Cu122 Cu 0.30726 0.00028 0.30752
 C123 C 0.34738 0.03239 0.30221
 C124 C 0.30179 -0.03186 0.34756
 C125 C 0.34769 -0.03149 0.30196
 C126 C 0.30160 0.03203 0.34798
 O127 O 0.64404 0.02421 0.67754
 O128 O 0.67802 -0.02398 0.64385
 O129 O 0.64384 -0.02369 0.67776
 O130 O 0.67808 0.02392 0.64348
 O131 O 0.70695 0.02409 0.67236
 O132 O 0.67261 -0.02363 0.70674
 O133 O 0.70687 -0.02391 0.67276
 O134 O 0.67284 0.02437 0.70650
 Cu135 Cu 0.65809 0.00010 0.65775
 Cu136 Cu 0.69274 0.00024 0.69252
 C137 C 0.65260 0.03229 0.69778
 C138 C 0.69825 -0.03196 0.65252
 C139 C 0.65233 -0.03159 0.69810
 C140 C 0.69837 0.03192 0.65201
 O141 O 0.35565 0.97585 0.67787
 O142 O 0.32165 1.02390 0.64402
 O143 O 0.35581 1.02375 0.67795
 O144 O 0.32162 0.97600 0.64379
 O145 O 0.29274 0.97591 0.67264
 O146 O 0.32703 1.02376 0.70691
 O147 O 0.29278 1.02390 0.67290
 O148 O 0.32684 0.97577 0.70681
 Cu149 Cu 0.34159 0.99988 0.65800
 Cu150 Cu 0.30693 0.99983 0.69274
 C151 C 0.34709 0.96782 0.69813
 C152 C 0.30141 1.03190 0.65265
 C153 C 0.34730 1.03171 0.69826
 C154 C 0.30134 0.96801 0.65233
 O155 O 0.64428 0.97616 0.32268
 O156 O 0.67830 1.02420 0.35661
 O157 O 0.64413 1.02406 0.32265
 O158 O 0.67831 0.97629 0.35678
 O159 O 0.70721 0.97623 0.32793
 O160 O 0.67292 1.02410 0.29370
 O161 O 0.70717 1.02423 0.32774
 O162 O 0.67310 0.97610 0.29375
 Cu163 Cu 0.65836 1.00018 0.34259
 Cu164 Cu 0.69302 1.00016 0.30786
 C165 C 0.65284 0.96815 0.30241
 C166 C 0.69855 1.03221 0.34800
 C167 C 0.65264 1.03202 0.30234
 C168 C 0.69860 0.96832 0.34823
 O169 O 0.85670 0.82202 0.47660
 O170 O 0.82285 0.85588 0.52475
 O171 O 0.85694 0.82187 0.52452
 O172 O 0.82275 0.85613 0.47684
 O173 O 0.79380 0.82733 0.47676
 O174 O 0.82809 0.79298 0.52454
 O175 O 0.79392 0.82706 0.52476
 O176 O 0.82783 0.79314 0.47652
 Cu177 Cu 0.84272 0.84188 0.50069
 Cu178 Cu 0.80799 0.80721 0.50065
 C179 C 0.84808 0.80179 0.46855
 C180 C 0.80259 0.84730 0.53275
 C181 C 0.84841 0.80157 0.53246
 C182 C 0.80244 0.84762 0.46886
 O183 O 0.14329 0.17800 0.47645
 O184 O 0.17707 0.14408 0.52461
 O185 O 0.14299 0.17811 0.52437
 O186 O 0.17724 0.14389 0.47670
 O187 O 0.20619 0.17268 0.47671
 O188 O 0.17185 0.20699 0.52448
 O189 O 0.20601 0.17289 0.52472
 O190 O 0.17216 0.20687 0.47647
 Cu191 Cu 0.15723 0.15812 0.50053
 Cu192 Cu 0.19198 0.19278 0.50061
 C193 C 0.15192 0.19823 0.46844
 C194 C 0.19732 0.15265 0.53267
 C195 C 0.15153 0.19840 0.53235
 C196 C 0.19756 0.15240 0.46877
 O197 O 0.14361 0.82173 0.52344
 O198 O 0.17747 0.85575 0.47542
 O199 O 0.14342 0.82170 0.47552
 O200 O 0.17753 0.85588 0.52333
 O201 O 0.20650 0.82712 0.52336
 O202 O 0.17229 0.79284 0.47544
 O203 O 0.20643 0.82698 0.47534
 O204 O 0.17250 0.79289 0.52346
 Cu205 Cu 0.15759 0.84166 0.49943
 Cu206 Cu 0.19236 0.80704 0.49939
 C207 C 0.15224 0.80150 0.53145
 C208 C 0.19774 0.84722 0.46740
 C209 C 0.15198 0.80143 0.46753
 C210 C 0.19784 0.84738 0.53131
 O211 O 0.82253 0.14368 0.47498
 O212 O 0.85640 0.17777 0.52301
 O213 O 0.82247 0.14361 0.52290
 O214 O 0.85660 0.17774 0.47509
 O215 O 0.82773 0.20660 0.47497
 O216 O 0.79350 0.17238 0.52289
 O217 O 0.82751 0.20661 0.52299
 O218 O 0.79358 0.17246 0.47487
 Cu219 Cu 0.84241 0.15780 0.49899
 Cu220 Cu 0.80766 0.19242 0.49891
 C221 C 0.80225 0.15220 0.46695
 C222 C 0.84778 0.19801 0.53099
 C223 C 0.80216 0.15212 0.53086
 C224 C 0.84805 0.19801 0.46709
 O225 O 0.47567 0.85604 0.82233
 O226 O 0.52386 0.82214 0.85609
 O227 O 0.52359 0.85628 0.82217
 O228 O 0.47594 0.82201 0.85639
 O229 O 0.47585 0.79314 0.82751
 O230 O 0.52360 0.82751 0.79320
 O231 O 0.52386 0.79329 0.82719
 O232 O 0.47558 0.82725 0.79337
 Cu233 Cu 0.49976 0.84202 0.84216
 Cu234 Cu 0.49971 0.80738 0.80739
 C235 C 0.46762 0.84748 0.80207
 C236 C 0.53188 0.80192 0.84744
 C237 C 0.53153 0.84779 0.80184
 C238 C 0.46797 0.80172 0.84785
 O239 O 0.52409 0.17798 0.14416
 O240 O 0.47594 0.14412 0.17802
 O241 O 0.47617 0.17806 0.14387
 O242 O 0.52386 0.14393 0.17818
 O243 O 0.52387 0.17278 0.20707
 O244 O 0.47608 0.20700 0.17267
 O245 O 0.47585 0.17299 0.20690
 O246 O 0.52409 0.20691 0.17298
 Cu247 Cu 0.50001 0.15811 0.15815
 Cu248 Cu 0.49997 0.19284 0.19282
 C249 C 0.53210 0.19824 0.15275
 C250 C 0.46789 0.15273 0.19825
 C251 C 0.46819 0.19836 0.15236
 C252 C 0.53180 0.15248 0.19848
 O253 O 0.52417 0.14415 0.82201
 O254 O 0.47611 0.17808 0.85592
 O255 O 0.47625 0.14397 0.82196
 O256 O 0.52403 0.17813 0.85612
 O257 O 0.52408 0.20703 0.82729
 O258 O 0.47620 0.17276 0.79303
 O259 O 0.47607 0.20696 0.82707
 O260 O 0.52421 0.17297 0.79309
 Cu261 Cu 0.50014 0.15818 0.84191
 Cu262 Cu 0.50014 0.19285 0.80720
 C263 C 0.53218 0.15273 0.80175
 C264 C 0.46809 0.19832 0.84732
 C265 C 0.46827 0.15249 0.80166
 C266 C 0.53200 0.19842 0.84759
 O267 O 0.47632 0.82234 0.14394
 O268 O 0.52442 0.85635 0.17781
 O269 O 0.52424 0.82234 0.14370
 O270 O 0.47650 0.85649 0.17790
 O271 O 0.47650 0.82771 0.20685
 O272 O 0.52435 0.79346 0.17255
 O273 O 0.52452 0.82755 0.20673
 O274 O 0.47633 0.79348 0.17282
 Cu275 Cu 0.50037 0.84228 0.15793
 Cu276 Cu 0.50043 0.80763 0.19266
 C277 C 0.46833 0.80210 0.15256
 C278 C 0.53246 0.84780 0.19807
 C279 C 0.53223 0.80205 0.15224
 C280 C 0.46855 0.84797 0.19821
 O281 O 0.85582 0.52441 0.82227
 O282 O 0.82207 0.47628 0.85621
 O283 O 0.85609 0.47652 0.82215
 O284 O 0.82188 0.52417 0.85642
 O285 O 0.79291 0.52417 0.82764
 O286 O 0.82721 0.47641 0.79328
 O287 O 0.79310 0.47618 0.82742
 O288 O 0.82693 0.52441 0.79340
 Cu289 Cu 0.84188 0.50035 0.84216
 Cu290 Cu 0.80711 0.50029 0.80752
 C291 C 0.84718 0.53241 0.80203
 C292 C 0.80181 0.46822 0.84766
 C293 C 0.84754 0.46854 0.80186
 C294 C 0.80155 0.53210 0.84793
 O295 O 0.14411 0.52430 0.17763
 O296 O 0.17789 0.47613 0.14375
 O297 O 0.14376 0.47641 0.17772
 O298 O 0.17813 0.52403 0.14357
 O299 O 0.20704 0.52400 0.17242
 O300 O 0.17257 0.47628 0.20667
 O301 O 0.20678 0.47601 0.17262
 O302 O 0.17293 0.52427 0.20657
 Cu303 Cu 0.15807 0.50023 0.15776
 Cu304 Cu 0.19275 0.50013 0.19249
 C305 C 0.15271 0.53230 0.19790
 C306 C 0.19811 0.46806 0.15236
 C307 C 0.15225 0.46842 0.19803
 C308 C 0.19846 0.53194 0.15211
 O309 O 0.82204 0.52384 0.14373
 O310 O 0.85583 0.47574 0.17770
 O311 O 0.82185 0.47594 0.14357
 O312 O 0.85611 0.52364 0.17776
 O313 O 0.82727 0.52377 0.20665
 O314 O 0.79291 0.47597 0.17238
 O315 O 0.82697 0.47577 0.20658
 O316 O 0.79311 0.52396 0.17254
 Cu317 Cu 0.84187 0.49979 0.15778
 Cu318 Cu 0.80714 0.49988 0.19246
 C319 C 0.80180 0.53190 0.15229
 C320 C 0.84721 0.46776 0.19794
 C321 C 0.80153 0.46802 0.15209
 C322 C 0.84759 0.53164 0.19804
 O323 O 0.14381 0.47548 0.82254
 O324 O 0.17769 0.52353 0.85657
 O325 O 0.14361 0.52338 0.82253
 O326 O 0.17780 0.47563 0.85668
 O327 O 0.20674 0.47564 0.82788
 O328 O 0.17245 0.52348 0.79363
 O329 O 0.20662 0.52363 0.82775
 O330 O 0.17268 0.47549 0.79366
 Cu331 Cu 0.15782 0.49950 0.84248
 Cu332 Cu 0.19254 0.49956 0.80781
 C333 C 0.15242 0.46750 0.80228
 C334 C 0.19795 0.53157 0.84801
 C335 C 0.15214 0.53137 0.80224
 C336 C 0.19812 0.46770 0.84817
 C337 C 0.22718 0.40727 0.08658
 C338 C 0.25150 0.41432 0.07334
 C339 C 0.26261 0.38944 0.08116
 C340 C 0.23849 0.38212 0.09417
 C341 C 0.23731 0.41868 0.11050
 C342 C 0.24839 0.39380 0.11838
 C343 C 0.26143 0.42596 0.09747
 C344 C 0.27276 0.40084 0.10507
 C345 C 0.27668 0.37378 0.06421
 C346 C 0.28822 0.36154 0.04966
 C347 C 0.22324 0.43559 0.12621
 C348 C 0.21172 0.45011 0.13849
 H349 H 0.20829 0.41010 0.07914
 H350 H 0.25292 0.42260 0.05465
 H351 H 0.22923 0.36391 0.09261
 H352 H 0.24694 0.38557 0.13709
 H353 H 0.27071 0.44417 0.09900
 H354 H 0.29166 0.39801 0.11249
 C355 C 0.74406 0.60074 0.11931
 C356 C 0.75546 0.61951 0.10093
 C357 C 0.73735 0.61050 0.08102
 C358 C 0.72573 0.59202 0.09912
 C359 C 0.76263 0.58125 0.11038
 C360 C 0.74452 0.57230 0.09046
 C361 C 0.77425 0.59974 0.09229
 C362 C 0.75593 0.59100 0.07215
 C363 C 0.72330 0.62617 0.06407
 C364 C 0.71179 0.63843 0.04952
 C365 C 0.77668 0.56435 0.12610
 C366 C 0.78819 0.54984 0.13840
 H367 H 0.73936 0.60454 0.13889
 H368 H 0.75978 0.63912 0.10503
 H369 H 0.70563 0.58902 0.10174
 H370 H 0.74017 0.55270 0.08632
 H371 H 0.79436 0.60272 0.08966
 H372 H 0.76066 0.58716 0.05258
 C373 C 0.74413 0.39932 0.88067
 C374 C 0.75554 0.38062 0.89911
 C375 C 0.73739 0.38963 0.91896
 C376 C 0.72576 0.40805 0.90080
 C377 C 0.76266 0.41887 0.88959
 C378 C 0.74450 0.42783 0.90945
 C379 C 0.77428 0.40046 0.90775
 C380 C 0.75592 0.40920 0.92783
 C381 C 0.72334 0.37397 0.93592
 C382 C 0.71183 0.36171 0.95047
 C383 C 0.77670 0.43577 0.87385
 C384 C 0.78821 0.45028 0.86155
 H385 H 0.73946 0.39546 0.86108
 H386 H 0.75990 0.36101 0.89507
 H387 H 0.70565 0.41099 0.89814
 H388 H 0.74011 0.44742 0.91353
 H389 H 0.79439 0.39752 0.91042
 H390 H 0.76062 0.41309 0.94740
 C391 C 0.25708 0.57202 0.90823
 C392 C 0.27415 0.59324 0.89954
 C393 C 0.26267 0.61008 0.91926
 C394 C 0.24581 0.58908 0.92817
 C395 C 0.23727 0.58085 0.88994
 C396 C 0.22580 0.59769 0.90967
 C397 C 0.25412 0.60183 0.88098
 C398 C 0.24287 0.61896 0.90099
 C399 C 0.27678 0.62574 0.93619
 C400 C 0.28834 0.63801 0.95070
 C401 C 0.22316 0.56397 0.87423
 C402 C 0.21160 0.54948 0.86192
 H403 H 0.26277 0.55254 0.91105
 H404 H 0.29418 0.59158 0.89557
 H405 H 0.24254 0.58400 0.94776
 H406 H 0.20576 0.59934 0.91365
 H407 H 0.25736 0.60687 0.86138
 H408 H 0.23720 0.63845 0.89821
 C409 C 0.11895 0.25846 0.40192
 C410 C 0.10320 0.24735 0.38071
 C411 C 0.08109 0.26278 0.38951
 C412 C 0.09656 0.27411 0.41042
 C413 C 0.11028 0.23747 0.41891
 C414 C 0.08815 0.25291 0.42764
 C415 C 0.09481 0.22613 0.39800
 C416 C 0.07247 0.24179 0.40651
 C417 C 0.06422 0.27685 0.37376
 C418 C 0.04972 0.28837 0.36145
 C419 C 0.12590 0.22340 0.43589
 C420 C 0.13812 0.21187 0.45045
 H421 H 0.13826 0.26514 0.40023
 H422 H 0.10919 0.24524 0.36123
 H423 H 0.09709 0.29399 0.41536
 H424 H 0.08212 0.25505 0.44711
 H425 H 0.09428 0.20625 0.39308
 H426 H 0.05317 0.23508 0.40823
 C427 C 0.08978 0.74505 0.57203
 C428 C 0.09846 0.72534 0.59081
 C429 C 0.08139 0.73688 0.61030
 C430 C 0.07249 0.75639 0.59174
 C431 C 0.11057 0.76219 0.58091
 C432 C 0.09350 0.77373 0.60039
 C433 C 0.11953 0.74269 0.59944
 C434 C 0.10217 0.75400 0.61922
 C435 C 0.06451 0.72282 0.62605
 C436 C 0.05001 0.71131 0.63837
 C437 C 0.12620 0.77628 0.56394
 C438 C 0.13843 0.78783 0.54940
 H439 H 0.08484 0.74153 0.55245
 H440 H 0.10031 0.70528 0.58705
 H441 H 0.05297 0.76187 0.58874
 H442 H 0.09165 0.79379 0.60414
 H443 H 0.13906 0.73723 0.60241
 H444 H 0.10707 0.75750 0.63882
 C445 C 0.90408 0.77366 0.39720
 C446 C 0.92729 0.75920 0.40554
 C447 C 0.91893 0.73726 0.38962
 C448 C 0.89596 0.75149 0.38101
 C449 C 0.88976 0.76257 0.41902
 C450 C 0.88136 0.74063 0.40313
 C451 C 0.91274 0.74832 0.42758
 C452 C 0.90461 0.72618 0.41145
 C453 C 0.93580 0.72319 0.37387
 C454 C 0.95028 0.71166 0.36155
 C455 C 0.87413 0.77664 0.43600
 C456 C 0.86190 0.78817 0.45057
 H457 H 0.90367 0.79335 0.39154
 H458 H 0.94635 0.76669 0.40636
 H459 H 0.88926 0.75261 0.36167
 H460 H 0.86229 0.73316 0.40233
 H461 H 0.91948 0.74717 0.44690
 H462 H 0.90501 0.70650 0.41713
 C463 C 0.90753 0.25749 0.57171
 C464 C 0.89871 0.27431 0.59308
 C465 C 0.91856 0.26288 0.60981
 C466 C 0.92759 0.24628 0.58867
 C467 C 0.88943 0.23746 0.58042
 C468 C 0.90929 0.22604 0.59715
 C469 C 0.88034 0.25405 0.60155
 C470 C 0.90049 0.24286 0.61857
 C471 C 0.93540 0.27700 0.62557
 C472 C 0.94987 0.28855 0.63792
 C473 C 0.87382 0.22331 0.56346
 C474 C 0.86160 0.21172 0.54893
 H475 H 0.91026 0.26335 0.55227
 H476 H 0.89455 0.29431 0.59159
 H477 H 0.94720 0.24323 0.58353
 H478 H 0.91346 0.20604 0.59864
 H479 H 0.86073 0.25707 0.60665
 H480 H 0.89779 0.23702 0.63803
 C481 C 0.42738 0.09211 0.25680
 C482 C 0.40671 0.10087 0.27448
 C483 C 0.38922 0.08174 0.26295
 C484 C 0.40968 0.07276 0.24548
 C485 C 0.41851 0.11097 0.23757
 C486 C 0.40103 0.09183 0.22604
 C487 C 0.39806 0.12000 0.25503
 C488 C 0.38029 0.10058 0.24373
 C489 C 0.37353 0.06484 0.27705
 C490 C 0.36125 0.05033 0.28859
 C491 C 0.43543 0.12663 0.22346
 C492 C 0.44994 0.13888 0.21190
 H493 H 0.44693 0.08880 0.26202
 H494 H 0.40886 0.10440 0.29456
 H495 H 0.41430 0.05316 0.24170
 H496 H 0.39888 0.08829 0.20596
 H497 H 0.39349 0.13962 0.25878
 H498 H 0.36074 0.10386 0.23853
 C499 C 0.57253 0.09125 0.74402
 C500 C 0.59243 0.09998 0.72545
 C501 C 0.61074 0.08167 0.73700
 C502 C 0.59106 0.07272 0.75536
 C503 C 0.58149 0.11092 0.76240
 C504 C 0.59980 0.09261 0.77395
 C505 C 0.60116 0.11992 0.74405
 C506 C 0.61976 0.10132 0.75537
 C507 C 0.62642 0.06476 0.72290
 C508 C 0.63871 0.05025 0.71138
 C509 C 0.56460 0.12659 0.77652
 C510 C 0.55010 0.13886 0.78808
 H511 H 0.55293 0.08728 0.73951
 H512 H 0.58958 0.10282 0.70536
 H513 H 0.58707 0.05313 0.75987
 H514 H 0.60265 0.08975 0.79404
 H515 H 0.60511 0.13952 0.73957
 H516 H 0.63937 0.10526 0.75986
 C517 C 0.39904 0.90669 0.77434
 C518 C 0.40778 0.92741 0.75671
 C519 C 0.38896 0.91853 0.73743
 C520 C 0.37994 0.89804 0.75484
 C521 C 0.41823 0.88928 0.76281
 C522 C 0.39942 0.88034 0.74354
 C523 C 0.42719 0.90979 0.74539
 C524 C 0.40815 0.90112 0.72590
 C525 C 0.37327 0.93542 0.72332
 C526 C 0.36098 0.94991 0.71177
 C527 C 0.43514 0.87361 0.77691
 C528 C 0.44966 0.86134 0.78845
 H529 H 0.39549 0.90880 0.79442
 H530 H 0.41106 0.94694 0.76197
 H531 H 0.36032 0.89341 0.75855
 H532 H 0.39618 0.86080 0.73830
 H533 H 0.44679 0.91445 0.74165
 H534 H 0.41171 0.89902 0.70583
 C535 C 0.60773 0.89751 0.22923
 C536 C 0.60161 0.92441 0.23677
 C537 C 0.61098 0.91889 0.26297
 C538 C 0.61738 0.89224 0.25568
 C539 C 0.58175 0.88966 0.23748
 C540 C 0.59110 0.88412 0.26368
 C541 C 0.57541 0.91631 0.24479
 C542 C 0.58500 0.91102 0.27118
 C543 C 0.62666 0.93577 0.27714
 C544 C 0.63894 0.95025 0.28873
 C545 C 0.56486 0.87399 0.22331
 C546 C 0.55038 0.86170 0.21173
 H547 H 0.61688 0.89177 0.21181
 H548 H 0.60610 0.94116 0.22585
 H549 H 0.63482 0.88255 0.26033
 H550 H 0.58659 0.86737 0.27458
 H551 H 0.55798 0.92605 0.24017
 H552 H 0.57582 0.91676 0.28859
 C553 C 0.42752 0.25663 0.90813
 C554 C 0.40705 0.27453 0.89933
 C555 C 0.38931 0.26299 0.91821
 C556 C 0.40956 0.24530 0.92723
 C557 C 0.41866 0.23762 0.88903
 C558 C 0.40092 0.22608 0.90791
 C559 C 0.39843 0.25530 0.87995
 C560 C 0.38040 0.24399 0.89912
 C561 C 0.37359 0.27709 0.93507
 C562 C 0.36129 0.28864 0.94956
 C563 C 0.43561 0.22352 0.87340
 C564 C 0.45014 0.21197 0.86116
 H565 H 0.44707 0.26168 0.91168
 H566 H 0.40939 0.29461 0.89598
 H567 H 0.41397 0.24134 0.94685
 H568 H 0.39859 0.20601 0.91126
 H569 H 0.39406 0.25924 0.86031
 H570 H 0.36084 0.23897 0.89561
 C571 C 0.60173 0.74506 0.87991
 C572 C 0.61964 0.75633 0.89924
 C573 C 0.61075 0.73717 0.91816
 C574 C 0.59314 0.72566 0.89912
 C575 C 0.58138 0.76258 0.88903
 C576 C 0.57256 0.74341 0.90797
 C577 C 0.59900 0.77408 0.90807
 C578 C 0.59039 0.75470 0.92722
 C579 C 0.62648 0.72304 0.93500
 C580 C 0.63878 0.71147 0.94947
 C581 C 0.56442 0.77670 0.87344
 C582 C 0.54986 0.78826 0.86123
 H583 H 0.60619 0.74127 0.86027
 H584 H 0.63918 0.76147 0.89585
 H585 H 0.59091 0.70559 0.89563
 H586 H 0.55302 0.73824 0.91140
 H587 H 0.60122 0.79415 0.91157
 H588 H 0.58589 0.75851 0.94685
 C589 C 0.42784 0.74484 0.09069
 C590 C 0.40860 0.72563 0.09950
 C591 C 0.38959 0.73707 0.08182
 C592 C 0.40862 0.75607 0.07280
 C593 C 0.41892 0.76261 0.11092
 C594 C 0.39992 0.77405 0.09324
 C595 C 0.39991 0.74362 0.12000
 C596 C 0.38061 0.75483 0.10204
 C597 C 0.37386 0.72288 0.06501
 C598 C 0.36156 0.71126 0.05057
 C599 C 0.43586 0.77679 0.12652
 C600 C 0.45038 0.78840 0.13874
 H601 H 0.44744 0.74088 0.08618
 H602 H 0.41199 0.70557 0.10189
 H603 H 0.41204 0.76104 0.05321
 H604 H 0.39653 0.79411 0.09085
 H605 H 0.39653 0.73867 0.13960
 H606 H 0.36100 0.75876 0.10651
 C607 C 0.59888 0.25819 0.11978
 C608 C 0.61974 0.24707 0.10360
 C609 C 0.61084 0.26292 0.08182
 C610 C 0.59027 0.27426 0.09772
 C611 C 0.58153 0.23753 0.11103
 C612 C 0.57268 0.25339 0.08924
 C613 C 0.60208 0.22618 0.09513
 C614 C 0.59346 0.24225 0.07312
 C615 C 0.62653 0.27704 0.06495
 C616 C 0.63881 0.28860 0.05046
 C617 C 0.56459 0.22343 0.12667
 C618 C 0.55006 0.21188 0.13892
 H619 H 0.60091 0.26457 0.13915
 H620 H 0.63928 0.24465 0.10930
 H621 H 0.58559 0.29419 0.09860
 H622 H 0.55316 0.25584 0.08350
 H623 H 0.60675 0.20625 0.09425
 H624 H 0.59139 0.23585 0.05376
 C625 C 0.25608 0.11955 0.60057
 C626 C 0.24481 0.10194 0.62014
 C627 C 0.26203 0.08134 0.61102
 C628 C 0.27353 0.09866 0.59174
 C629 C 0.23663 0.11071 0.58190
 C630 C 0.25386 0.09010 0.57284
 C631 C 0.22512 0.09339 0.60118
 C632 C 0.24257 0.07256 0.59234
 C633 C 0.27616 0.06438 0.62662
 C634 C 0.28773 0.04985 0.63884
 C635 C 0.22251 0.12645 0.56506
 C636 C 0.21096 0.13876 0.55058
 H637 H 0.26146 0.13906 0.60375
 H638 H 0.24126 0.10661 0.63978
 H639 H 0.29359 0.10064 0.58803
 H640 H 0.25744 0.08539 0.55321
 H641 H 0.20506 0.09140 0.60488
 H642 H 0.23717 0.05305 0.58912
 C643 C 0.74264 0.11883 0.39994
 C644 C 0.75378 0.10189 0.37971
 C645 C 0.73730 0.08070 0.38886
 C646 C 0.72594 0.09735 0.40880
 C647 C 0.76281 0.11011 0.41789
 C648 C 0.74631 0.08891 0.42698
 C649 C 0.77418 0.09346 0.39795
 C650 C 0.75747 0.07203 0.40682
 C651 C 0.72313 0.06372 0.37330
 C652 C 0.71152 0.04916 0.36111
 C653 C 0.77698 0.12589 0.43468
 C654 C 0.78857 0.13824 0.44910
 H655 H 0.73672 0.13826 0.39731
 H656 H 0.75668 0.10703 0.36008
 H657 H 0.70595 0.09877 0.41309
 H658 H 0.74339 0.08373 0.44659
 H659 H 0.79417 0.09204 0.39367
 H660 H 0.76342 0.05261 0.40949
 C661 C 0.74626 0.91007 0.57285
 C662 C 0.72627 0.90153 0.59140
 C663 C 0.73769 0.91856 0.61101
 C664 C 0.75748 0.92731 0.59268
 C665 C 0.76317 0.88920 0.58193
 C666 C 0.77460 0.90622 0.60154
 C667 C 0.74339 0.88039 0.60025
 C668 C 0.75459 0.89769 0.62015
 C669 C 0.72353 0.93551 0.62658
 C670 C 0.71194 0.95006 0.63876
 C671 C 0.77733 0.87347 0.56512
 C672 C 0.78892 0.86118 0.55066
 H673 H 0.74299 0.91500 0.55323
 H674 H 0.70624 0.89980 0.58740
 H675 H 0.76313 0.94679 0.58972
 H676 H 0.79463 0.90796 0.60553
 H677 H 0.73777 0.86090 0.60317
 H678 H 0.75783 0.89281 0.63979
 C679 C 0.26540 0.89037 0.41735
 C680 C 0.26418 0.89032 0.38875
 C681 C 0.26246 0.91862 0.38913
 C682 C 0.26390 0.91890 0.41746
 C683 C 0.23707 0.88922 0.41824
 C684 C 0.23539 0.91752 0.41858
 C685 C 0.23559 0.88889 0.38991
 C686 C 0.23413 0.91747 0.39003
 C687 C 0.27658 0.93560 0.37355
 C688 C 0.28814 0.95016 0.36135
 C689 C 0.22296 0.87346 0.43507
 C690 C 0.21140 0.86114 0.44952
 H691 H 0.27810 0.87905 0.42878
 H692 H 0.27619 0.87934 0.37629
 H693 H 0.27569 0.93142 0.42863
 H694 H 0.22340 0.92854 0.43103
 H695 H 0.22379 0.87636 0.37879
 H696 H 0.22143 0.92880 0.37861
 C697 C 0.09075 0.42733 0.74459
 C698 C 0.09946 0.40766 0.72578
 C699 C 0.08128 0.38915 0.73724
 C700 C 0.07236 0.40860 0.75585
 C701 C 0.11058 0.41829 0.76277
 C702 C 0.09240 0.39979 0.77423
 C703 C 0.11956 0.39886 0.74416
 C704 C 0.10109 0.38006 0.75540
 C705 C 0.06436 0.37354 0.72305
 C706 C 0.04985 0.36133 0.71144
 C707 C 0.12627 0.43514 0.77695
 C708 C 0.13855 0.44960 0.78856
 H709 H 0.08666 0.44694 0.74030
 H710 H 0.10218 0.41071 0.70569
 H711 H 0.05277 0.41245 0.76051
 H712 H 0.08967 0.39674 0.79432
 H713 H 0.13915 0.39504 0.73953
 H714 H 0.10514 0.36044 0.75967
 C715 C 0.09056 0.57270 0.25475
 C716 C 0.09922 0.59185 0.27411
 C717 C 0.08167 0.61091 0.26258
 C718 C 0.07279 0.59196 0.24342
 C719 C 0.11095 0.58167 0.23720
 C720 C 0.09340 0.60072 0.22566
 C721 C 0.11989 0.60059 0.25635
 C722 C 0.10205 0.61994 0.24504
 C723 C 0.06475 0.62656 0.27668
 C724 C 0.05023 0.63879 0.28825
 C725 C 0.12663 0.56477 0.22310
 C726 C 0.13889 0.55025 0.21155
 H727 H 0.08599 0.55309 0.25859
 H728 H 0.10142 0.58839 0.29420
 H729 H 0.05324 0.58858 0.23824
 H730 H 0.09120 0.60417 0.20558
 H731 H 0.13945 0.60394 0.26150
 H732 H 0.10658 0.63955 0.24123
 C733 C 0.90915 0.40210 0.22585
 C734 C 0.92710 0.41058 0.24642
 C735 C 0.91818 0.38909 0.26263
 C736 C 0.90046 0.38034 0.24228
 C737 C 0.88893 0.41837 0.23727
 C738 C 0.87995 0.39690 0.25348
 C739 C 0.90667 0.42708 0.25763
 C740 C 0.89797 0.40537 0.27406
 C741 C 0.93509 0.37342 0.27673
 C742 C 0.94962 0.36117 0.28829
 C743 C 0.87327 0.43529 0.22317
 C744 C 0.86102 0.44981 0.21162
 H745 H 0.91357 0.40094 0.20587
 H746 H 0.94666 0.41604 0.24366
 H747 H 0.89811 0.36093 0.23614
 H748 H 0.86037 0.39148 0.25620
 H749 H 0.90905 0.44647 0.26380
 H750 H 0.89356 0.40653 0.29405
 C751 C 0.91729 0.58115 0.76400
 C752 C 0.91832 0.58261 0.73549
 C753 C 0.91830 0.61091 0.73728
 C754 C 0.91750 0.60967 0.76561
 C755 C 0.88896 0.58172 0.76266
 C756 C 0.88889 0.61002 0.76450
 C757 C 0.88976 0.58296 0.73434
 C758 C 0.88997 0.61153 0.73591
 C759 C 0.93525 0.62652 0.72317
 C760 C 0.94980 0.63873 0.71160
 C761 C 0.87327 0.56485 0.77678
 C762 C 0.86101 0.55035 0.78835
 H763 H 0.92837 0.56848 0.77569
 H764 H 0.93060 0.57150 0.72341
 H765 H 0.92909 0.62083 0.77831
 H766 H 0.87660 0.62108 0.77660
 H767 H 0.87818 0.57178 0.72164
 H768 H 0.87894 0.62421 0.72419
 C769 C 0.74563 0.60246 0.88113
 C770 C 0.72538 0.59396 0.89949
 C771 C 0.73691 0.61054 0.91942
 C772 C 0.75693 0.61933 0.90135
 C773 C 0.76218 0.58123 0.89007
 C774 C 0.77370 0.59782 0.91000
 C775 C 0.74215 0.57249 0.90816
 C776 C 0.75347 0.58930 0.92830
 C777 C 0.72284 0.62629 0.93634
 C778 C 0.71128 0.63863 0.95081
 C779 C 0.77626 0.56434 0.87430
 C780 C 0.78782 0.54990 0.86193
 H781 H 0.74258 0.60768 0.86155
 H782 H 0.70535 0.59254 0.89535
 H783 H 0.76285 0.63877 0.89874
 H784 H 0.79373 0.59923 0.91416
 H785 H 0.73621 0.55306 0.91080
 H786 H 0.75655 0.58404 0.94787
 C787 C 0.25554 0.42753 0.91029
 C788 C 0.24417 0.40866 0.92847
 C789 C 0.26291 0.38931 0.91958
 C790 C 0.27448 0.40797 0.90162
 C791 C 0.23755 0.41857 0.89025
 C792 C 0.25628 0.39924 0.88131
 C793 C 0.22598 0.39992 0.90821
 C794 C 0.24493 0.38030 0.89955
 C795 C 0.27702 0.37360 0.93649
 C796 C 0.28862 0.36129 0.95095
 C797 C 0.22344 0.43545 0.87449
 C798 C 0.21186 0.44988 0.86214
 H799 H 0.25976 0.44713 0.91455
 H800 H 0.23933 0.41238 0.94804
 H801 H 0.29457 0.41110 0.89909
 H802 H 0.26109 0.39555 0.86173
 H803 H 0.20588 0.39679 0.91075
 H804 H 0.24073 0.36069 0.89533
 C805 C 0.26630 0.58185 0.10876
 C806 C 0.26461 0.58202 0.08022
 C807 C 0.26331 0.61034 0.08077
 C808 C 0.26521 0.61044 0.10908
 C809 C 0.23797 0.58105 0.11008
 C810 C 0.23663 0.60937 0.11067
 C811 C 0.23611 0.58099 0.08177
 C812 C 0.23498 0.60954 0.08209
 C813 C 0.27741 0.62608 0.06387
 C814 C 0.28897 0.63841 0.04939
 C815 C 0.22385 0.56417 0.12582
 C816 C 0.21225 0.54974 0.13816
 H817 H 0.27903 0.57028 0.11990
 H818 H 0.27626 0.57093 0.06752
 H819 H 0.27734 0.62274 0.12012
 H820 H 0.22496 0.62043 0.12338
 H821 H 0.22399 0.56870 0.07070
 H822 H 0.22225 0.62110 0.07095
 C823 C 0.75351 0.39273 0.11700
 C824 C 0.72779 0.39864 0.10588
 C825 C 0.73693 0.38947 0.08063
 C826 C 0.76241 0.38329 0.09147
 C827 C 0.76217 0.41882 0.11000
 C828 C 0.77129 0.40964 0.08476
 C829 C 0.73669 0.42497 0.09915
 C830 C 0.74562 0.41557 0.07370
 C831 C 0.72288 0.37373 0.06370
 C832 C 0.71133 0.36139 0.04921
 C833 C 0.77623 0.43573 0.12577
 C834 C 0.78779 0.45019 0.13813
 H835 H 0.75692 0.38354 0.13499
 H836 H 0.70974 0.39393 0.11437
 H837 H 0.77283 0.36597 0.08812
 H838 H 0.78933 0.41434 0.07624
 H839 H 0.72625 0.44229 0.10248
 H840 H 0.74223 0.42480 0.05572
 C841 C 0.91073 0.74432 0.57254
 C842 C 0.92878 0.75569 0.59155
 C843 C 0.91994 0.73680 0.61077
 C844 C 0.90210 0.72523 0.59197
 C845 C 0.89055 0.76212 0.58153
 C846 C 0.88166 0.74324 0.60073
 C847 C 0.90839 0.77369 0.60032
 C848 C 0.89978 0.75458 0.61981
 C849 C 0.93687 0.72269 0.62647
 C850 C 0.95134 0.71111 0.63879
 C851 C 0.87477 0.77623 0.56467
 C852 C 0.86240 0.78781 0.55025
 H853 H 0.91507 0.74024 0.55293
 H854 H 0.94833 0.76067 0.58793
 H855 H 0.89969 0.70514 0.58871
 H856 H 0.86210 0.73828 0.60432
 H857 H 0.91081 0.79378 0.60357
 H858 H 0.89547 0.75864 0.63943
 C859 C 0.90882 0.25692 0.42695
 C860 C 0.92847 0.24562 0.40957
 C861 C 0.91960 0.26283 0.38885
 C862 C 0.90017 0.27434 0.40601
 C863 C 0.89020 0.23746 0.41803
 C864 C 0.88128 0.25467 0.39732
 C865 C 0.90964 0.22595 0.40086
 C866 C 0.90100 0.24338 0.37988
 C867 C 0.93655 0.27697 0.37319
 C868 C 0.95103 0.28858 0.36092
 C869 C 0.87441 0.22334 0.43486
 C870 C 0.86203 0.21175 0.44927
 H871 H 0.91189 0.26234 0.44648
 H872 H 0.94806 0.24203 0.41446
 H873 H 0.89646 0.29440 0.40796
 H874 H 0.86168 0.25822 0.39247
 H875 H 0.91336 0.20590 0.39892
 H876 H 0.89797 0.23798 0.36034
 C877 C 0.09038 0.22629 0.59903
 C878 C 0.09903 0.24423 0.61960
 C879 C 0.07995 0.26319 0.61060
 C880 C 0.07107 0.24547 0.59030
 C881 C 0.10935 0.23785 0.58139
 C882 C 0.09025 0.25682 0.57244
 C883 C 0.11828 0.25556 0.60168
 C884 C 0.09892 0.27475 0.59296
 C885 C 0.06301 0.27730 0.62629
 C886 C 0.04852 0.28889 0.63858
 C887 C 0.12514 0.22374 0.56455
 C888 C 0.13752 0.21215 0.55014
 H889 H 0.08703 0.20621 0.60136
 H890 H 0.10245 0.23922 0.63918
 H891 H 0.05148 0.24146 0.58578
 H892 H 0.08680 0.26186 0.55288
 H893 H 0.13788 0.25955 0.60616
 H894 H 0.10225 0.29483 0.59063
 C895 C 0.11878 0.74505 0.39748
 C896 C 0.09996 0.72526 0.40607
 C897 C 0.08045 0.73684 0.38904
 C898 C 0.09898 0.75640 0.38017
 C899 C 0.10987 0.76209 0.41833
 C900 C 0.09035 0.77366 0.40130
 C901 C 0.09132 0.74252 0.42716
 C902 C 0.07159 0.75390 0.40991
 C903 C 0.06348 0.72279 0.37332
 C904 C 0.04897 0.71123 0.36102
 C905 C 0.12566 0.77615 0.43523
 C906 C 0.13802 0.78770 0.44969
 H907 H 0.13837 0.74157 0.39256
 H908 H 0.10372 0.70520 0.40785
 H909 H 0.10193 0.76195 0.36066
 H910 H 0.08657 0.79372 0.39952
 H911 H 0.08833 0.73696 0.44665
 H912 H 0.05201 0.75739 0.41486
 C913 C 0.60910 0.88877 0.76340
 C914 C 0.60968 0.89102 0.73485
 C915 C 0.61017 0.91926 0.73742
 C916 C 0.60986 0.91729 0.76572
 C917 C 0.58076 0.88992 0.76258
 C918 C 0.58129 0.91816 0.76511
 C919 C 0.58107 0.89190 0.73428
 C920 C 0.58183 0.92037 0.73664
 C921 C 0.62596 0.93617 0.72339
 C922 C 0.63834 0.95061 0.71184
 C923 C 0.56382 0.87415 0.77660
 C924 C 0.54936 0.86178 0.78813
 H925 H 0.62012 0.87559 0.77456
 H926 H 0.62154 0.88006 0.72224
 H927 H 0.62187 0.92791 0.77849
 H928 H 0.56943 0.92916 0.77770
 H929 H 0.56906 0.88129 0.72150
 H930 H 0.57077 0.93354 0.72549
 C931 C 0.42811 0.90939 0.25625
 C932 C 0.41001 0.92827 0.24479
 C933 C 0.38987 0.91936 0.26267
 C934 C 0.40775 0.90069 0.27434
 C935 C 0.41928 0.89003 0.23748
 C936 C 0.39915 0.88107 0.25536
 C937 C 0.40140 0.90870 0.22581
 C938 C 0.38099 0.90002 0.24391
 C939 C 0.37408 0.93626 0.27670
 C940 C 0.36169 0.95070 0.28824
 C941 C 0.43622 0.87428 0.22346
 C942 C 0.45070 0.86193 0.21192
 H943 H 0.44766 0.91309 0.26119
 H944 H 0.41432 0.94786 0.24058
 H945 H 0.41020 0.89758 0.29445
 H946 H 0.39488 0.86147 0.25954
 H947 H 0.39896 0.91182 0.20570
 H948 H 0.36143 0.89636 0.23899
 C949 C 0.59865 0.09152 0.22621
 C950 C 0.61933 0.10023 0.24399
 C951 C 0.61048 0.08119 0.26306
 C952 C 0.59007 0.07225 0.24549
 C953 C 0.58106 0.11048 0.23784
 C954 C 0.57226 0.09143 0.25692
 C955 C 0.60146 0.11948 0.25541
 C956 C 0.59289 0.10015 0.27470
 C957 C 0.62628 0.06430 0.27710
 C958 C 0.63865 0.04985 0.28864
 C959 C 0.56412 0.12621 0.22379
 C960 C 0.54964 0.13854 0.21223
 H961 H 0.60084 0.08814 0.20611
 H962 H 0.63887 0.10366 0.23884
 H963 H 0.58555 0.05265 0.24154
 H964 H 0.55273 0.08796 0.26210
 H965 H 0.60595 0.13908 0.25933
 H966 H 0.59069 0.10352 0.29480
 C967 C 0.42757 0.09212 0.74262
 C968 C 0.41065 0.07215 0.75407
 C969 C 0.38945 0.08100 0.73743
 C970 C 0.40614 0.10075 0.72577
 C971 C 0.41890 0.11040 0.76251
 C972 C 0.39771 0.11930 0.74588
 C973 C 0.40221 0.09064 0.77416
 C974 C 0.38074 0.09926 0.75731
 C975 C 0.37365 0.06406 0.72346
 C976 C 0.36127 0.04957 0.71195
 C977 C 0.43588 0.12617 0.77648
 C978 C 0.45039 0.13853 0.78798
 H979 H 0.44700 0.08934 0.73672
 H980 H 0.41582 0.05259 0.75731
 H981 H 0.40758 0.10472 0.70572
 H982 H 0.39259 0.13887 0.74267
 H983 H 0.40078 0.08666 0.79422
 H984 H 0.36130 0.10201 0.76319
 C985 C 0.59992 0.74317 0.11882
 C986 C 0.59114 0.72585 0.09778
 C987 C 0.61052 0.73741 0.08059
 C988 C 0.61958 0.75451 0.10134
 C989 C 0.58131 0.76269 0.11003
 C990 C 0.60068 0.77426 0.09284
 C991 C 0.57230 0.74558 0.08926
 C992 C 0.59189 0.75694 0.07185
 C993 C 0.62621 0.72333 0.06363
 C994 C 0.63851 0.71176 0.04914
 C995 C 0.56446 0.77677 0.12584
 C996 C 0.55004 0.78833 0.13824
 H997 H 0.60303 0.73768 0.13831
 H998 H 0.58739 0.70580 0.09963
 H999 H 0.63920 0.75802 0.10611
 H1000 H 0.60442 0.79431 0.09098
 H1001 H 0.55269 0.74205 0.08445
 H1002 H 0.58875 0.76246 0.05236
 C1003 C 0.39835 0.25483 0.11901
 C1004 C 0.40696 0.27445 0.10004
 C1005 C 0.38978 0.26282 0.08067
 C1006 C 0.38089 0.24343 0.09936
 C1007 C 0.41907 0.23763 0.11011
 C1008 C 0.40190 0.22601 0.09074
 C1009 C 0.42791 0.25703 0.09141
 C1010 C 0.41052 0.24562 0.07182
 C1011 C 0.37404 0.27686 0.06372
 C1012 C 0.36169 0.28839 0.04924
 C1013 C 0.43596 0.22360 0.12593
 C1014 C 0.45039 0.21207 0.13833
 H1015 H 0.39354 0.25845 0.13860
 H1016 H 0.40887 0.29452 0.10368
 H1017 H 0.36137 0.23799 0.10244
 H1018 H 0.39999 0.20594 0.08709
 H1019 H 0.44743 0.26249 0.08829
 H1020 H 0.41536 0.24197 0.05224
 C1021 C 0.59989 0.25714 0.88101
 C1022 C 0.59117 0.27450 0.90202
 C1023 C 0.61048 0.26288 0.91925
 C1024 C 0.61948 0.24573 0.89852
 C1025 C 0.58119 0.23770 0.88977
 C1026 C 0.60049 0.22607 0.90700
 C1027 C 0.57223 0.25485 0.91052
 C1028 C 0.59175 0.24343 0.92797
 C1029 C 0.62620 0.27690 0.93624
 C1030 C 0.63852 0.28843 0.95075
 C1031 C 0.56429 0.22367 0.87395
 C1032 C 0.54984 0.21214 0.86157
 H1033 H 0.60305 0.26261 0.86151
 H1034 H 0.58751 0.29457 0.90016
 H1035 H 0.63909 0.24215 0.89379
 H1036 H 0.60414 0.20600 0.90888
 H1037 H 0.55263 0.25846 0.91529
 H1038 H 0.58857 0.23793 0.94745
 C1039 C 0.39843 0.74481 0.88113
 C1040 C 0.40712 0.72542 0.90030
 C1041 C 0.38971 0.73700 0.91947
 C1042 C 0.38074 0.75617 0.90059
 C1043 C 0.41893 0.76229 0.89004
 C1044 C 0.40153 0.77387 0.90921
 C1045 C 0.42785 0.74311 0.90894
 C1046 C 0.41023 0.75448 0.92833
 C1047 C 0.37402 0.72292 0.93643
 C1048 C 0.36171 0.71136 0.95092
 C1049 C 0.43578 0.77638 0.87423
 C1050 C 0.45019 0.78796 0.86185
 H1051 H 0.39377 0.74100 0.86153
 H1052 H 0.40925 0.70534 0.89681
 H1053 H 0.36119 0.76138 0.89735
 H1054 H 0.39941 0.79394 0.91271
 H1055 H 0.44740 0.73788 0.91221
 H1056 H 0.41493 0.75832 0.94791
 C1057 C 0.74552 0.88080 0.39930
 C1058 C 0.72628 0.90015 0.40791
 C1059 C 0.73792 0.91910 0.39031
 C1060 C 0.75694 0.90003 0.38141
 C1061 C 0.76314 0.88975 0.41966
 C1062 C 0.77478 0.90870 0.40206
 C1063 C 0.74411 0.90883 0.42851
 C1064 C 0.75555 0.92800 0.41068
 C1065 C 0.72387 0.93602 0.37454
 C1066 C 0.71232 0.95048 0.36219
 C1067 C 0.77718 0.87398 0.43658
 C1068 C 0.78873 0.86161 0.45103
 H1069 H 0.74155 0.86120 0.39481
 H1070 H 0.70618 0.89682 0.41015
 H1071 H 0.76205 0.89660 0.36186
 H1072 H 0.79488 0.91205 0.39983
 H1073 H 0.73898 0.91230 0.44805
 H1074 H 0.75954 0.94759 0.41521
 C1075 C 0.25684 0.88066 0.59898
 C1076 C 0.27375 0.90209 0.59040
 C1077 C 0.26211 0.91878 0.61017
 C1078 C 0.24542 0.89763 0.61903
 C1079 C 0.23699 0.88943 0.58070
 C1080 C 0.22535 0.90612 0.60047
 C1081 C 0.25369 0.91060 0.57189
 C1082 C 0.24226 0.92750 0.59187
 C1083 C 0.27611 0.93570 0.62598
 C1084 C 0.28763 0.95016 0.63836
 C1085 C 0.22301 0.87368 0.56372
 C1086 C 0.21151 0.86133 0.54920
 H1087 H 0.26267 0.86121 0.60171
 H1088 H 0.29380 0.90062 0.58643
 H1089 H 0.24219 0.89249 0.63861
 H1090 H 0.20530 0.90760 0.60442
 H1091 H 0.25696 0.91578 0.55233
 H1092 H 0.23641 0.94694 0.58911
 C1093 C 0.25621 0.09152 0.42833
 C1094 C 0.24482 0.07214 0.41070
 C1095 C 0.26219 0.08109 0.39014
 C1096 C 0.27379 0.10026 0.40756
 C1097 C 0.23692 0.11036 0.41954
 C1098 C 0.25428 0.11937 0.39899
 C1099 C 0.22533 0.09120 0.40213
 C1100 C 0.24291 0.09992 0.38130
 C1101 C 0.27627 0.06423 0.37435
 C1102 C 0.28785 0.04981 0.36197
 C1103 C 0.22285 0.12609 0.43647
 C1104 C 0.21129 0.13843 0.45094
 H1105 H 0.26154 0.08822 0.44785
 H1106 H 0.24106 0.05254 0.41536
 H1107 H 0.29387 0.10381 0.40962
 H1108 H 0.25801 0.13898 0.39437
 H1109 H 0.20524 0.08764 0.40007
 H1110 H 0.23760 0.10319 0.36177
 C1111 C 0.77456 0.09285 0.59946
 C1112 C 0.75513 0.10151 0.61861
 C1113 C 0.73771 0.08095 0.60974
 C1114 C 0.75693 0.07205 0.59086
 C1115 C 0.76292 0.11017 0.58025
 C1116 C 0.74550 0.08959 0.57143
 C1117 C 0.74371 0.11912 0.59911
 C1118 C 0.72608 0.09827 0.59053
 C1119 C 0.72367 0.06410 0.62558
 C1120 C 0.71211 0.04970 0.63799
 C1121 C 0.77695 0.12587 0.56326
 C1122 C 0.78848 0.13819 0.54875
 H1123 H 0.79466 0.09080 0.60295
 H1124 H 0.75893 0.10623 0.63819
 H1125 H 0.76223 0.05252 0.58763
 H1126 H 0.74168 0.08484 0.55186
 H1127 H 0.73844 0.13865 0.60231
 H1128 H 0.70599 0.10031 0.58702
 C1129 C 0.91663 0.58653 0.23036
 C1130 C 0.91179 0.61424 0.23545
 C1131 C 0.91911 0.61020 0.26256
 C1132 C 0.92418 0.58273 0.25766
 C1133 C 0.88973 0.58085 0.23734
 C1134 C 0.89706 0.57683 0.26445
 C1135 C 0.88460 0.60831 0.24222
 C1136 C 0.89220 0.60454 0.26958
 C1137 C 0.93604 0.62596 0.27661
 C1138 C 0.95052 0.63831 0.28815
 C1139 C 0.87395 0.56393 0.22330
 C1140 C 0.86158 0.54947 0.21175
 H1141 H 0.92652 0.57894 0.21409
 H1142 H 0.91804 0.62981 0.22368
 H1143 H 0.94062 0.57237 0.26415
 H1144 H 0.89083 0.56126 0.27624
 H1145 H 0.86814 0.61864 0.23570
 H1146 H 0.88235 0.61214 0.28586
 C1147 C 0.90825 0.40145 0.77400
 C1148 C 0.89953 0.38113 0.75582
 C1149 C 0.91887 0.39005 0.73709
 C1150 C 0.92783 0.41010 0.75505
 C1151 C 0.88959 0.41939 0.76241
 C1152 C 0.90895 0.42826 0.74367
 C1153 C 0.88058 0.39935 0.74446
 C1154 C 0.90021 0.40799 0.72550
 C1155 C 0.93575 0.37429 0.72299
 C1156 C 0.95018 0.36192 0.71142
 C1157 C 0.87385 0.43629 0.77652
 C1158 C 0.86151 0.45073 0.78810
 H1159 H 0.91139 0.39893 0.79410
 H1160 H 0.89584 0.36156 0.76065
 H1161 H 0.94743 0.41437 0.75927
 H1162 H 0.91266 0.44782 0.73881
 H1163 H 0.86096 0.39512 0.74026
 H1164 H 0.89707 0.41051 0.70540
 C1165 C 0.09084 0.59789 0.77441
 C1166 C 0.09956 0.61875 0.75687
 C1167 C 0.08079 0.60988 0.73753
 C1168 C 0.07183 0.58929 0.75486
 C1169 C 0.11007 0.58055 0.76285
 C1170 C 0.09128 0.57173 0.74351
 C1171 C 0.11908 0.60112 0.74553
 C1172 C 0.10002 0.59253 0.72597
 C1173 C 0.06391 0.62564 0.72343
 C1174 C 0.04949 0.63801 0.71184
 C1175 C 0.12582 0.56365 0.77695
 C1176 C 0.13817 0.54920 0.78852
 H1177 H 0.08723 0.59992 0.79449
 H1178 H 0.10278 0.63827 0.76221
 H1179 H 0.05223 0.58458 0.75856
 H1180 H 0.08803 0.55221 0.73815
 H1181 H 0.13870 0.60580 0.74186
 H1182 H 0.10362 0.59050 0.70589
 C1183 C 0.09051 0.40229 0.22575
 C1184 C 0.09917 0.38114 0.24298
 C1185 C 0.08067 0.38998 0.26258
 C1186 C 0.07177 0.41086 0.24557
 C1187 C 0.11003 0.41931 0.23734
 C1188 C 0.09152 0.42809 0.25695
 C1189 C 0.11898 0.39844 0.25434
 C1190 C 0.10019 0.40699 0.27417
 C1191 C 0.06375 0.37421 0.27663
 C1192 C 0.04930 0.36183 0.28817
 C1193 C 0.12582 0.43619 0.22329
 C1194 C 0.13822 0.45063 0.21174
 H1195 H 0.08669 0.40053 0.20569
 H1196 H 0.10213 0.36165 0.23739
 H1197 H 0.05219 0.41581 0.24210
 H1198 H 0.08853 0.44757 0.26256
 H1199 H 0.13858 0.39353 0.25779
 H1200 H 0.10399 0.40876 0.29424
   
