data_POSCAR
  _audit_creation_date              2014-09-24
  _audit_creation_method            'ToBaCCo'
  _symmetry_space_group_name_H-M    'P1'
  _symmetry_Int_Tables_number       1
  _symmetry_cell_setting            triclinic
  loop_
  _symmetry_equiv_pos_as_xyz
 x,y,z
_cell_length_a 29.1856
_cell_length_b 29.1769
_cell_length_c 85.5959
_cell_angle_alpha 90.051200
_cell_angle_beta 89.949400
_cell_angle_gamma 120.158400
loop_
  _atom_site_label
  _atom_site_type_symbol
  _atom_site_fract_x
  _atom_site_fract_y
  _atom_site_fract_z
C1 C -0.04618 -0.05813 0.48747
 C2 C -0.01430 -0.03042 0.50024
 C3 C -0.01029 -0.05836 0.51294
 C4 C -0.03731 -0.11424 0.51307
 C5 C -0.06987 -0.14131 0.50012
 C6 C -0.07519 -0.11401 0.48722
 C7 C 0.01507 0.02822 0.50030
 C8 C 0.01117 0.05606 0.51312
 C9 C 0.03878 0.11173 0.51328
 C10 C 0.07125 0.13937 0.50050
 C11 C 0.07598 0.11206 0.48763
 C12 C 0.04728 0.05639 0.48759
 H13 H -0.05034 -0.03531 0.47819
 H14 H 0.01669 -0.03571 0.52226
 H15 H -0.01354 0.03423 0.52297
 H16 H 0.05114 0.03477 0.47786
 H17 H -0.09128 -0.18403 0.50007
 H18 H 0.09185 0.18229 0.50039
 C19 C 1.05749 0.01112 0.15369
 C20 C 1.02929 0.01508 0.16639
 C21 C 1.05689 0.04646 0.17926
 C22 C 1.11241 0.07437 0.17949
 C23 C 1.14025 0.06977 0.16675
 C24 C 1.11349 0.03786 0.15366
 C25 C 0.97067 -0.01430 0.16630
 C26 C 0.94238 -0.04655 0.17899
 C27 C 0.88673 -0.07520 0.17892
 C28 C 0.85955 -0.07046 0.16605
 C29 C 0.88731 -0.03798 0.15329
 C30 C 0.94296 -0.01038 0.15347
 H31 H 1.03494 -0.01553 0.14430
 H32 H 1.03497 0.04922 0.18909
 H33 H 0.96388 -0.05047 0.18873
 H34 H 0.96489 0.01434 0.14364
 H35 H 1.18301 0.09366 0.16683
 H36 H 0.81664 -0.09105 0.16614
 C37 C 0.04610 0.98990 0.84630
 C38 C 0.01425 0.98583 0.83351
 C39 C 0.01004 0.95370 0.82081
 C40 C 0.03697 0.92524 0.82081
 C41 C 0.06902 0.92984 0.83365
 C42 C 0.07448 0.96240 0.84660
 C43 C -0.01504 1.01505 0.83346
 C44 C -0.01094 1.04679 0.82069
 C45 C -0.03865 1.07448 0.82049
 C46 C -0.07145 1.06936 0.83319
 C47 C -0.07689 1.03713 0.84620
 C48 C -0.04761 1.01053 0.84612
 H49 H 0.04718 1.01370 0.85614
 H50 H -0.01444 0.95077 0.81092
 H51 H 0.01403 1.04996 0.81089
 H52 H -0.05197 0.98362 0.85544
 H53 H 0.09070 0.90883 0.83318
 H54 H -0.09034 1.09313 0.83315
 O55 O 0.52133 -0.04463 0.01493
 O56 O 0.43210 -0.04450 -0.01526
 O57 O 0.52175 -0.04350 -0.01551
 O58 O 0.43294 -0.04316 0.01518
 O59 O 0.47711 0.04426 0.01503
 O60 O 0.56573 0.04392 -0.01539
 O61 O 0.47607 0.04292 -0.01541
 O62 O 0.56551 0.04279 0.01505
 Cu63 Cu 0.47262 -0.05270 -0.00016
 Cu64 Cu 0.52552 0.05222 -0.00018
 C65 C 0.55857 -0.00111 0.02022
 C66 C 0.43876 -0.00094 -0.02056
 C67 C 0.55896 0.00031 -0.02071
 C68 C 0.43997 0.00077 0.02037
 O69 O 0.04542 0.47854 0.65166
 O70 O 0.04517 0.56761 0.68195
 O71 O 0.04393 0.47783 0.68210
 O72 O 0.04421 0.56711 0.65151
 O73 O -0.04318 0.52311 0.65159
 O74 O -0.04346 0.43402 0.68191
 O75 O -0.04223 0.52380 0.68204
 O76 O -0.04197 0.43454 0.65148
 Cu77 Cu 0.05343 0.52717 0.66681
 Cu78 Cu -0.05146 0.47447 0.66675
 C79 C 0.00193 0.44140 0.64633
 C80 C 0.00159 0.56099 0.68724
 C81 C 0.00002 0.44063 0.68725
 C82 C 0.00040 0.56024 0.64631
 O83 O 0.52233 0.56737 0.31825
 O84 O 0.43347 0.47815 0.34864
 O85 O 0.52332 0.56709 0.34869
 O86 O 0.43375 0.47724 0.31820
 O87 O 0.47765 0.43394 0.31830
 O88 O 0.56703 0.52360 0.34852
 O89 O 0.47719 0.43467 0.34874
 O90 O 0.56622 0.52406 0.31808
 Cu91 Cu 0.47384 0.52681 0.33345
 Cu92 Cu 0.52641 0.47473 0.33341
 C93 C 0.55935 0.56101 0.31290
 C94 C 0.44007 0.44125 0.35394
 C95 C 0.56052 0.56057 0.35383
 C96 C 0.44053 0.44021 0.31301
 C97 C 0.07234 0.21474 0.54503
 C98 C 0.02257 0.19735 0.55177
 C99 C -0.02183 0.15173 0.54605
 C100 C -0.01655 0.12369 0.53359
 C101 C 0.03328 0.14101 0.52668
 C102 C 0.07771 0.18680 0.53256
 C103 C 0.01711 0.22670 0.56445
 C104 C 0.01305 0.25180 0.57501
 C105 C 0.00911 0.28192 0.58730
 C106 C 0.00665 0.30836 0.59774
 C107 C 0.00501 0.34090 0.61013
 C108 C -0.04356 0.33293 0.61572
 C109 C -0.04476 0.36537 0.62758
 C110 C 0.00271 0.40624 0.63397
 C111 C 0.05128 0.41368 0.62831
 C112 C 0.05235 0.38124 0.61648
 H113 H 0.10700 0.24995 0.54939
 H114 H -0.06057 0.13802 0.55114
 H115 H -0.05159 0.08900 0.52918
 H116 H 0.11668 0.20073 0.52762
 H117 H -0.08047 0.30183 0.61087
 H118 H -0.08277 0.35863 0.63167
 H119 H 0.08854 0.44474 0.63297
 H120 H 0.09016 0.38779 0.61223
 C121 C 0.78440 0.80629 0.20201
 C122 C 0.80103 0.82255 0.21737
 C123 C 0.84558 0.87227 0.22020
 C124 C 0.87346 0.90562 0.20771
 C125 C 0.85704 0.88964 0.19222
 C126 C 0.81218 0.83956 0.18951
 C127 C 0.77198 0.78838 0.23021
 C128 C 0.74715 0.75972 0.24090
 C129 C 0.71739 0.72619 0.25334
 C130 C 0.69126 0.69768 0.26390
 C131 C 0.65910 0.66388 0.27642
 C132 C 0.66709 0.62341 0.28206
 C133 C 0.63493 0.59005 0.29402
 C134 C 0.59433 0.59680 0.30047
 C135 C 0.58690 0.63784 0.29477
 C136 C 0.61907 0.67108 0.28283
 H137 H 0.75000 0.76785 0.19969
 H138 H 0.85866 0.88535 0.23205
 H139 H 0.90745 0.94417 0.21018
 H140 H 0.79900 0.82584 0.17772
 H141 H 0.69796 0.61746 0.27716
 H142 H 0.64165 0.55883 0.29815
 H143 H 0.55604 0.64415 0.29946
 H144 H 0.61251 0.70226 0.27854
 C145 C 0.15223 -0.06743 -0.12431
 C146 C 0.17497 -0.02145 -0.11522
 C147 C 0.16419 0.01898 -0.11861
 C148 C 0.13095 0.01367 -0.13107
 C149 C 0.10769 -0.03243 -0.14053
 C150 C 0.11903 -0.07298 -0.13680
 C151 C 0.20963 -0.01579 -0.10249
 C152 C 0.23866 -0.01164 -0.09189
 C153 C 0.27258 -0.00766 -0.07957
 C154 C 0.30137 -0.00521 -0.06911
 C155 C 0.33541 -0.00366 -0.05671
 C156 C 0.37632 0.04487 -0.05113
 C157 C 0.40987 0.04595 -0.03928
 C158 C 0.40287 -0.00159 -0.03289
 C159 C 0.36140 -0.05011 -0.03854
 C160 C 0.32798 -0.05107 -0.05036
 H161 H 0.15992 -0.09927 -0.12168
 H162 H 0.18197 0.05501 -0.11170
 H163 H 0.12578 0.04709 -0.13358
 H164 H 0.10091 -0.11020 -0.14306
 H165 H 0.38245 0.08182 -0.05598
 H166 H 0.44140 0.08393 -0.03519
 H167 H 0.35489 -0.08742 -0.03389
 H168 H 0.29647 -0.08885 -0.05461
 C169 C -0.01293 0.85221 0.55343
 C170 C -0.01935 0.80196 0.55105
 C171 C -0.03169 0.77932 0.53617
 C172 C -0.03770 0.80666 0.52368
 C173 C -0.03144 0.85765 0.52578
 C174 C -0.01879 0.87983 0.54098
 C175 C -0.01383 0.77326 0.56389
 C176 C -0.00979 0.74860 0.57456
 C177 C -0.00592 0.71891 0.58697
 C178 C -0.00356 0.69275 0.59750
 C179 C -0.00209 0.66046 0.60997
 C180 C -0.04954 0.62027 0.61632
 C181 C -0.04865 0.58795 0.62821
 C182 C -0.00018 0.59536 0.63392
 C183 C 0.04739 0.63611 0.62753
 C184 C 0.04639 0.66843 0.61562
 H185 H -0.00385 0.86993 0.56496
 H186 H -0.03634 0.74052 0.53417
 H187 H -0.04499 0.78822 0.51230
 H188 H -0.01545 0.91767 0.54358
 H189 H -0.08728 0.61371 0.61203
 H190 H -0.08598 0.55698 0.63286
 H191 H 0.08534 0.64283 0.63167
 H192 H 0.08336 0.69941 0.61077
 C193 C 0.21457 0.14338 0.21148
 C194 C 0.19739 0.17597 0.21814
 C195 C 0.15220 0.17508 0.21228
 C196 C 0.12438 0.14186 0.19977
 C197 C 0.14148 0.10911 0.19294
 C198 C 0.18684 0.11016 0.19896
 C199 C 0.22651 0.21068 0.23088
 C200 C 0.25144 0.23974 0.24149
 C201 C 0.28136 0.27369 0.25384
 C202 C 0.30767 0.30251 0.26432
 C203 C 0.34008 0.33661 0.27676
 C204 C 0.33219 0.37720 0.28239
 C205 C 0.36459 0.41081 0.29428
 C206 C 0.40533 0.40420 0.30066
 C207 C 0.41266 0.36306 0.29496
 C208 C 0.38027 0.32957 0.28310
 H209 H 0.24945 0.14369 0.21595
 H210 H 0.13866 0.20028 0.21732
 H211 H 0.09002 0.14244 0.19526
 H212 H 0.20059 0.08496 0.19407
 H213 H 0.30121 0.38302 0.27754
 H214 H 0.35793 0.44209 0.29840
 H215 H 0.44362 0.35686 0.29961
 H216 H 0.38675 0.29832 0.27883
 C217 C 0.81146 0.03280 -0.13078
 C218 C 0.82096 0.01968 -0.11592
 C219 C 0.86419 0.01238 -0.11352
 C220 C 0.89786 0.01811 -0.12593
 C221 C 0.88909 0.03146 -0.14110
 C222 C 0.84500 0.03868 -0.14322
 C223 C 0.78656 0.01427 -0.10312
 C224 C 0.75773 0.01029 -0.09247
 C225 C 0.72405 0.00649 -0.08008
 C226 C 0.69545 0.00417 -0.06957
 C227 C 0.66163 0.00273 -0.05710
 C228 C 0.66917 0.05020 -0.05074
 C229 C 0.63596 0.04934 -0.03884
 C230 C 0.59462 0.00087 -0.03312
 C231 C 0.58750 -0.04673 -0.03953
 C232 C 0.62083 -0.04575 -0.05145
 H233 H 0.77781 0.03819 -0.13279
 H234 H 0.87223 0.00272 -0.10200
 H235 H 0.93188 0.01407 -0.12330
 H236 H 0.83457 0.04675 -0.15460
 H237 H 0.70059 0.08795 -0.05503
 H238 H 0.64256 0.08669 -0.03418
 H239 H 0.55605 -0.08467 -0.03539
 H240 H 0.61462 -0.08275 -0.05631
 C241 C 0.22106 0.03425 0.13057
 C242 C 0.19846 0.02134 0.11570
 C243 C 0.14792 0.01409 0.11330
 C244 C 0.11991 0.01957 0.12573
 C245 C 0.14198 0.03262 0.14093
 C246 C 0.19334 0.03988 0.14304
 C247 C 0.22742 0.01600 0.10289
 C248 C 0.25221 0.01201 0.09223
 C249 C 0.28195 0.00810 0.07982
 C250 C 0.30808 0.00563 0.06929
 C251 C 0.34027 0.00396 0.05680
 C252 C 0.33210 -0.04464 0.05116
 C253 C 0.36426 -0.04587 0.03922
 C254 C 0.40505 0.00160 0.03279
 C255 C 0.41266 0.05020 0.03850
 C256 C 0.38050 0.05130 0.05042
 H257 H 0.26012 0.03961 0.13258
 H258 H 0.13023 0.00460 0.10177
 H259 H 0.08184 0.01555 0.12310
 H260 H 0.21182 0.04777 0.15443
 H261 H 0.30109 -0.08154 0.05604
 H262 H 0.35739 -0.08390 0.03509
 H263 H 0.44366 0.08745 0.03382
 H264 H 0.38720 0.08914 0.05470
 C265 C 0.86702 0.85312 0.44681
 C266 C 0.82302 0.80277 0.44909
 C267 C 0.81256 0.77986 0.46393
 C268 C 0.84592 0.80701 0.47647
 C269 C 0.89082 0.85809 0.47446
 C270 C 0.90052 0.88056 0.45931
 C271 C 0.78879 0.77423 0.43621
 C272 C 0.76004 0.74963 0.42551
 C273 C 0.72639 0.71994 0.41308
 C274 C 0.69776 0.69374 0.40255
 C275 C 0.66386 0.66135 0.39008
 C276 C 0.67123 0.62140 0.38367
 C277 C 0.63783 0.58891 0.37182
 C278 C 0.59645 0.59591 0.36618
 C279 C 0.58954 0.63644 0.37262
 C280 C 0.62305 0.66892 0.38451
 H281 H 0.87578 0.87106 0.43531
 H282 H 0.77828 0.74099 0.46586
 H283 H 0.83464 0.78835 0.48781
 H284 H 0.93515 0.91849 0.45678
 H285 H 0.70264 0.61515 0.38791
 H286 H 0.64428 0.55813 0.36712
 H287 H 0.55807 0.64283 0.36855
 H288 H 0.61696 0.69971 0.38941
 C289 C 0.02288 0.17598 0.78793
 C290 C -0.02145 0.17669 0.78203
 C291 C -0.07144 0.14376 0.78860
 C292 C -0.07710 0.11036 0.80106
 C293 C -0.03276 0.10946 0.80712
 C294 C 0.01731 0.14258 0.80039
 C295 C -0.01572 0.21151 0.76933
 C296 C -0.01149 0.24064 0.75876
 C297 C -0.00740 0.27461 0.74644
 C298 C -0.00485 0.30342 0.73597
 C299 C -0.00315 0.33745 0.72355
 C300 C -0.05048 0.33011 0.71716
 C301 C -0.04937 0.36349 0.70530
 C302 C -0.00079 0.40480 0.69964
 C303 C 0.04666 0.41173 0.70606
 C304 C 0.04544 0.37823 0.71795
 H305 H 0.06179 0.20145 0.78297
 H306 H -0.10604 0.14392 0.78410
 H307 H -0.11622 0.08487 0.80587
 H308 H 0.05228 0.14328 0.80493
 H309 H -0.08830 0.29870 0.72141
 H310 H -0.08662 0.35703 0.70062
 H311 H 0.08468 0.44315 0.70196
 H312 H 0.08232 0.38429 0.72283
 C313 C 0.84768 0.02271 0.12051
 C314 C 0.80212 -0.02168 0.11475
 C315 C 0.78465 -0.07148 0.12148
 C316 C 0.81245 -0.07687 0.13396
 C317 C 0.85818 -0.03245 0.13988
 C318 C 0.87558 0.01741 0.13298
 C319 C 0.77291 -0.01619 0.10206
 C320 C 0.74791 -0.01211 0.09150
 C321 C 0.71791 -0.00816 0.07920
 C322 C 0.69154 -0.00570 0.06876
 C323 C 0.65906 -0.00408 0.05637
 C324 C 0.61867 -0.05146 0.05005
 C325 C 0.58625 -0.05042 0.03822
 C326 C 0.59375 -0.00185 0.03255
 C327 C 0.63469 0.04565 0.03891
 C328 C 0.66711 0.04449 0.05076
 H329 H 0.86145 0.06148 0.11542
 H330 H 0.74948 -0.10613 0.11710
 H331 H 0.79846 -0.11586 0.13889
 H332 H 0.91023 0.05245 0.13741
 H333 H 0.61205 -0.08928 0.05431
 H334 H 0.55514 -0.08771 0.03359
 H335 H 0.64149 0.08366 0.03480
 H336 H 0.69826 0.08142 0.05559
 C337 C 0.19454 0.21432 0.46455
 C338 C 0.17834 0.19767 0.44919
 C339 C 0.12866 0.15305 0.44636
 C340 C 0.09529 0.12517 0.45884
 C341 C 0.11120 0.14165 0.47433
 C342 C 0.16124 0.18654 0.47705
 C343 C 0.21250 0.22682 0.43635
 C344 C 0.24119 0.25180 0.42569
 C345 C 0.27478 0.28181 0.41328
 C346 C 0.30334 0.30819 0.40277
 C347 C 0.33719 0.34067 0.39030
 C348 C 0.32982 0.38067 0.38396
 C349 C 0.36310 0.41312 0.37208
 C350 C 0.40434 0.40603 0.36634
 C351 C 0.41128 0.36548 0.37272
 C352 C 0.37789 0.33302 0.38463
 H353 H 0.23294 0.24877 0.46688
 H354 H 0.11564 0.13996 0.43451
 H355 H 0.05677 0.09115 0.45637
 H356 H 0.17491 0.19977 0.48884
 H357 H 0.29849 0.38697 0.38827
 H358 H 0.35663 0.44393 0.36743
 H359 H 0.44264 0.35901 0.36857
 H360 H 0.38397 0.30219 0.38947
 C361 C 0.07085 0.85700 0.78880
 C362 C 0.02098 0.82390 0.78219
 C363 C -0.02357 0.82423 0.78810
 C364 C -0.01834 0.85738 0.80061
 C365 C 0.03158 0.89059 0.80739
 C366 C 0.07616 0.89015 0.80132
 C367 C 0.01560 0.78931 0.76945
 C368 C 0.01165 0.76036 0.75884
 C369 C 0.00785 0.72656 0.74649
 C370 C 0.00553 0.69788 0.73599
 C371 C 0.00408 0.66396 0.72355
 C372 C -0.04440 0.62320 0.71789
 C373 C -0.04540 0.58979 0.70599
 C374 C 0.00217 0.59677 0.69962
 C375 C 0.05064 0.63808 0.70534
 C376 C 0.05152 0.67138 0.71722
 H377 H 0.10563 0.85716 0.78429
 H378 H -0.06238 0.79866 0.78310
 H379 H -0.05346 0.85643 0.80515
 H380 H 0.11520 0.91580 0.80614
 H381 H -0.08138 0.61709 0.72273
 H382 H -0.08335 0.55837 0.70185
 H383 H 0.08798 0.64458 0.70071
 H384 H 0.08927 0.70277 0.72152
   
