data_POSCAR
  _audit_creation_date              2014-09-24
  _audit_creation_method            'ToBaCCo'
  _symmetry_space_group_name_H-M    'P1'
  _symmetry_Int_Tables_number       1
  _symmetry_cell_setting            triclinic
  loop_
  _symmetry_equiv_pos_as_xyz
 x,y,z
_cell_length_a 53.7386
_cell_length_b 52.5121
_cell_length_c 52.8831
_cell_angle_alpha 90.029500
_cell_angle_beta 90.053400
_cell_angle_gamma 121.469200
loop_
  _atom_site_label
  _atom_site_type_symbol
  _atom_site_fract_x
  _atom_site_fract_y
  _atom_site_fract_z
C1 C 0.00144 0.49436 1.32067
 C2 C 0.02702 0.50029 1.30800
 C3 C 0.02623 0.49847 1.28139
 C4 C 0.00186 0.49373 1.26738
 C5 C -0.02276 0.48926 1.28077
 C6 C -0.02394 0.48812 1.30741
 C7 C 0.00216 0.49343 1.23889
 C8 C -0.02409 0.47884 1.22485
 C9 C -0.02397 0.47905 1.19826
 C10 C 0.00286 0.49239 1.18556
 C11 C 0.02930 0.50659 1.19891
 C12 C 0.02875 0.50781 1.22541
 H13 H 0.00129 0.49460 1.34103
 H14 H 0.04438 0.49952 1.27166
 H15 H -0.04078 0.48791 1.27052
 H16 H -0.04484 0.46747 1.23443
 H17 H 0.00323 0.49193 1.16510
 H18 H 0.04930 0.51987 1.23535
 C19 C 0.50282 0.50244 1.31787
 C20 C 0.48440 0.50967 1.30474
 C21 C 0.48458 0.50888 1.27807
 C22 C 0.50415 0.50370 1.26468
 C23 C 0.52306 0.49796 1.27855
 C24 C 0.52188 0.49584 1.30513
 C25 C 0.50509 0.50443 1.23628
 C26 C 0.51494 0.48816 1.22280
 C27 C 0.51756 0.48992 1.19635
 C28 C 0.50865 0.50696 1.18313
 C29 C 0.49673 0.52163 1.19579
 C30 C 0.49603 0.52115 1.22238
 H31 H 0.50234 0.50197 1.33819
 H32 H 0.46854 0.51111 1.26767
 H33 H 0.53970 0.49634 1.26857
 H34 H 0.52014 0.47352 1.23273
 H35 H 0.51115 0.50899 1.16279
 H36 H 0.48800 0.53353 1.23208
 C37 C 0.49152 0.99584 1.31667
 C38 C 0.47351 0.96971 1.30286
 C39 C 0.47215 0.97137 1.27652
 C40 C 0.49013 0.99832 1.26352
 C41 C 0.50839 1.02423 1.27792
 C42 C 0.50841 1.02379 1.30468
 C43 C 0.48992 0.99936 1.23507
 C44 C 0.49879 1.02630 1.22211
 C45 C 0.50020 1.02772 1.19561
 C46 C 0.49074 1.00146 1.18176
 C47 C 0.48036 0.97407 1.19399
 C48 C 0.48103 0.97340 1.22053
 H49 H 0.49324 0.99383 1.33685
 H50 H 0.45669 0.95139 1.26639
 H51 H 0.52190 1.04495 1.26816
 H52 H 0.50432 1.04640 1.23234
 H53 H 0.49202 1.00240 1.16131
 H54 H 0.47428 0.95237 1.22962
 C55 C 1.00086 0.49472 0.68214
 C56 C 0.97421 0.48068 0.69514
 C57 C 0.97439 0.48025 0.72164
 C58 C 1.00072 0.49537 0.73538
 C59 C 1.02717 0.51041 0.72174
 C60 C 1.02783 0.50949 0.69505
 C61 C 1.00064 0.49560 0.76384
 C62 C 1.02507 0.50017 0.77775
 C63 C 1.02590 0.50225 0.80427
 C64 C 1.00082 0.49689 0.81719
 C65 C 0.97558 0.49059 0.80397
 C66 C 0.97615 0.49130 0.77743
 H67 H 1.00026 0.49480 0.66173
 H68 H 0.95377 0.46836 0.73142
 H69 H 1.04735 0.52209 0.73210
 H70 H 1.04362 0.50184 0.76819
 H71 H 1.00085 0.49751 0.83764
 H72 H 0.95733 0.48876 0.76763
 C73 C 0.50529 0.50221 0.68306
 C74 C 0.51449 0.48544 0.69633
 C75 C 0.51242 0.48419 0.72282
 C76 C 0.50285 0.50074 0.73626
 C77 C 0.49391 0.51752 0.72235
 C78 C 0.49406 0.51747 0.69580
 C79 C 0.50190 0.50011 0.76462
 C80 C 0.48228 0.50532 0.77795
 C81 C 0.48204 0.50578 0.80450
 C82 C 0.50008 0.49853 0.81790
 C83 C 0.51922 0.49229 0.80514
 C84 C 0.52076 0.49435 0.77863
 H85 H 0.50709 0.50370 0.66265
 H86 H 0.51776 0.46970 0.73282
 H87 H 0.48632 0.53034 0.73199
 H88 H 0.46679 0.50877 0.76785
 H89 H 0.49929 0.49787 0.83834
 H90 H 0.53708 0.49179 0.76904
 C91 C 0.49791 0.00260 0.68237
 C92 C 0.50631 0.02855 0.69629
 C93 C 0.50487 0.02703 0.72271
 C94 C 0.49706 0.00035 0.73559
 C95 C 0.48891 -0.02546 0.72099
 C96 C 0.48779 -0.02516 0.69424
 C97 C 0.49758 -0.00048 0.76409
 C98 C 0.48059 -0.02753 0.77743
 C99 C 0.48197 -0.02900 0.80404
 C100 C 0.49952 -0.00204 0.81730
 C101 C 0.51510 0.02547 0.80476
 C102 C 0.51492 0.02584 0.77823
 H103 H 0.50068 0.00467 0.66208
 H104 H 0.50966 0.04689 0.73296
 H105 H 0.48261 -0.04600 0.73058
 H106 H 0.46507 -0.04733 0.76720
 H107 H 0.50229 -0.00216 0.83753
 H108 H 0.52814 0.04696 0.76879
 O109 O 0.37533 0.65308 0.97762
 O110 O 0.37271 0.70042 0.96764
 C111 C 0.35864 0.71318 0.96315
 O112 O 0.33697 0.70865 0.97638
 O113 O 0.28899 0.65663 0.97145
 C114 C 0.27571 0.62859 0.96821
 O115 O 0.28101 0.61161 0.98130
 O116 O 0.33006 0.61403 0.97321
 C117 C 0.35681 0.62849 0.96721
 O118 O 0.37738 0.66506 1.02727
 O119 O 0.37683 0.71355 1.01737
 C120 C 0.35922 0.71754 1.03036
 O121 O 0.33182 0.70236 1.02704
 O122 O 0.28231 0.65189 1.02181
 C123 C 0.27873 0.63030 1.03537
 O124 O 0.29258 0.61719 1.03155
 O125 O 0.34065 0.61775 1.02345
 C126 C 0.36406 0.63789 1.03394
 Cr127 Cr 0.37389 0.68212 0.99754
 Cr128 Cr 0.31090 0.67913 0.99918
 Cr129 Cr 0.31188 0.61682 1.00227
 O130 O 0.33223 0.65930 0.99962
 O131 O 0.63089 0.34154 0.97049
 O132 O 0.62731 0.29039 0.97640
 C133 C 0.64536 0.28559 0.96509
 O134 O 0.67211 0.29874 0.97096
 O135 O 0.72187 0.34752 0.98068
 C136 C 0.72791 0.37144 0.96930
 O137 O 0.71526 0.38556 0.97419
 O138 O 0.66791 0.38710 0.98019
 C139 C 0.64560 0.36952 0.96702
 O140 O 0.62730 0.34650 1.02089
 O141 O 0.62607 0.29683 1.02695
 C142 C 0.63872 0.28279 1.03213
 O143 O 0.66164 0.28756 1.02079
 O144 O 0.71050 0.33728 1.03045
 C145 C 0.72454 0.36472 1.03621
 O146 O 0.72117 0.38400 1.02476
 O147 O 0.67246 0.38311 1.03061
 C148 C 0.64514 0.36882 1.03424
 Cr149 Cr 0.62958 0.31964 0.99873
 Cr150 Cr 0.69073 0.31868 1.00071
 Cr151 Cr 0.69332 0.38322 1.00237
 O152 O 0.67121 0.34051 1.00058
 O153 O 0.67012 0.38132 0.52889
 O154 O 0.71867 0.38209 0.52294
 C155 C 0.72209 0.36268 0.53408
 O156 O 0.70827 0.33536 0.52793
 O157 O 0.65920 0.28587 0.51831
 C158 C 0.63635 0.28111 0.52981
 O159 O 0.62364 0.29512 0.52475
 O160 O 0.62496 0.34492 0.51900
 C161 C 0.64281 0.36701 0.53251
 O162 O 0.66577 0.38578 0.47849
 O163 O 0.71313 0.38431 0.47242
 C164 C 0.72554 0.37004 0.46713
 O165 O 0.71927 0.34584 0.47812
 O166 O 0.66941 0.29728 0.46843
 C167 C 0.64263 0.28420 0.46270
 O168 O 0.62474 0.28904 0.47420
 O169 O 0.62858 0.34041 0.46852
 C170 C 0.64356 0.36842 0.46513
 Cr171 Cr 0.69103 0.38164 0.50060
 Cr172 Cr 0.68823 0.31700 0.49820
 Cr173 Cr 0.62717 0.31821 0.49665
 O174 O 0.66883 0.33895 0.49846
 O175 O 0.33539 0.61995 0.53155
 O176 O 0.28511 0.61550 0.52556
 C177 C 0.28080 0.63422 0.53684
 O178 O 0.29362 0.66148 0.53064
 O179 O 0.34098 0.71194 0.52006
 C180 C 0.36445 0.71813 0.53133
 O181 O 0.37835 0.70531 0.52626
 O182 O 0.37965 0.65660 0.51999
 C183 C 0.36285 0.63483 0.53427
 O184 O 0.33947 0.61460 0.48111
 O185 O 0.29042 0.61282 0.47513
 C186 C 0.27657 0.62567 0.46999
 O187 O 0.28161 0.64947 0.48101
 O188 O 0.32981 0.69913 0.47025
 C189 C 0.35656 0.71377 0.46435
 O190 O 0.37562 0.71083 0.47597
 O191 O 0.37419 0.66060 0.46976
 C192 C 0.36051 0.63249 0.46691
 Cr193 Cr 0.31342 0.61739 0.50324
 Cr194 Cr 0.31238 0.67974 0.50048
 Cr195 Cr 0.37530 0.68243 0.49808
 O196 O 0.33365 0.65986 0.50061
 C197 C 0.43616 0.53989 0.34584
 C198 C 0.44312 0.52009 0.35693
 C199 C 0.45790 0.50927 0.34325
 C200 C 0.46674 0.51821 0.31799
 C201 C 0.45859 0.53724 0.30670
 C202 C 0.44357 0.54783 0.32041
 C203 C 0.42237 0.55307 0.36114
 C204 C 0.43061 0.58306 0.35782
 C205 C 0.41919 0.59605 0.37335
 C206 C 0.39943 0.57949 0.39278
 C207 C 0.39072 0.54932 0.39573
 C208 C 0.40189 0.53625 0.38003
 C209 C 0.38878 0.59379 0.41052
 C210 C 0.36034 0.57751 0.42042
 C211 C 0.35106 0.59025 0.43843
 C212 C 0.36984 0.61972 0.44674
 C213 C 0.39792 0.63638 0.43627
 C214 C 0.40735 0.62351 0.41850
 H215 H 0.43780 0.51344 0.37650
 H216 H 0.46175 0.49341 0.35273
 H217 H 0.46515 0.54561 0.28768
 H218 H 0.43815 0.56268 0.31111
 H219 H 0.44656 0.59682 0.34367
 H220 H 0.42604 0.61918 0.37024
 H221 H 0.37584 0.53591 0.41065
 H222 H 0.39465 0.51297 0.38288
 H223 H 0.34521 0.55483 0.41432
 H224 H 0.32915 0.57695 0.44592
 H225 H 0.41294 0.65909 0.44241
 H226 H 0.42954 0.63661 0.41163
 C227 C 0.42910 0.88586 0.34283
 C228 C 0.42997 0.91114 0.35279
 C229 C 0.44364 0.93810 0.33953
 C230 C 0.45687 0.94046 0.31603
 C231 C 0.45532 0.91497 0.30574
 C232 C 0.44156 0.88798 0.31897
 C233 C 0.41645 0.85786 0.35782
 C234 C 0.43012 0.84121 0.35831
 C235 C 0.41944 0.81603 0.37373
 C236 C 0.39489 0.80695 0.38912
 C237 C 0.38077 0.82316 0.38814
 C238 C 0.39139 0.84828 0.37265
 C239 C 0.38488 0.78162 0.40701
 C240 C 0.35499 0.76177 0.41153
 C241 C 0.34574 0.73926 0.42968
 C242 C 0.36618 0.73603 0.44370
 C243 C 0.39604 0.75532 0.43864
 C244 C 0.40527 0.77787 0.42056
 H245 H 0.42087 0.91039 0.37122
 H246 H 0.44414 0.95722 0.34781
 H247 H 0.46550 0.91611 0.28777
 H248 H 0.44092 0.86882 0.31062
 H249 H 0.44963 0.84812 0.34733
 H250 H 0.43060 0.80382 0.37379
 H251 H 0.36198 0.81697 0.39993
 H252 H 0.38013 0.86039 0.37246
 H253 H 0.33872 0.76376 0.40112
 H254 H 0.32256 0.72468 0.43298
 H255 H 0.41238 0.75353 0.44913
 H256 H 0.42846 0.79300 0.41781
 C257 C 0.10536 0.53031 0.34998
 C258 C 0.10643 0.53821 0.32450
 C259 C 0.08079 0.52750 0.31048
 C260 C 0.05312 0.50867 0.32159
 C261 C 0.05245 0.49987 0.34698
 C262 C 0.07814 0.51055 0.36089
 C263 C 0.13235 0.54381 0.36553
 C264 C 0.13666 0.52667 0.38340
 C265 C 0.16117 0.53996 0.39917
 C266 C 0.18183 0.57071 0.39748
 C267 C 0.17784 0.58770 0.37922
 C268 C 0.15340 0.57440 0.36341
 C269 C 0.20684 0.58522 0.41531
 C270 C 0.21509 0.61292 0.42629
 C271 C 0.23790 0.62617 0.44380
 C272 C 0.25306 0.61206 0.45073
 C273 C 0.24508 0.58454 0.43946
 C274 C 0.22217 0.57124 0.42199
 H275 H 0.12715 0.55318 0.31548
 H276 H 0.08295 0.53570 0.29136
 H277 H 0.03219 0.48428 0.35628
 H278 H 0.07659 0.50395 0.38050
 H279 H 0.12095 0.50300 0.38531
 H280 H 0.16352 0.52633 0.41319
 H281 H 0.19356 0.61137 0.37727
 H282 H 0.15056 0.58828 0.35002
 H283 H 0.20345 0.62406 0.42177
 H284 H 0.24345 0.64737 0.45209
 H285 H 0.25633 0.57308 0.44431
 H286 H 0.21651 0.55004 0.41363
 C287 C 0.56867 0.46407 0.34652
 C288 C 0.56226 0.45721 0.32079
 C289 C 0.54765 0.46826 0.30707
 C290 C 0.53892 0.48668 0.31862
 C291 C 0.54662 0.49443 0.34429
 C292 C 0.56104 0.48318 0.35797
 C293 C 0.58219 0.45050 0.36166
 C294 C 0.60225 0.46677 0.38103
 C295 C 0.61337 0.45334 0.39638
 C296 C 0.60493 0.42335 0.39263
 C297 C 0.58550 0.40733 0.37280
 C298 C 0.57419 0.42069 0.35758
 C299 C 0.61552 0.40862 0.40992
 C300 C 0.59687 0.37876 0.41740
 C301 C 0.60623 0.36543 0.43477
 C302 C 0.63436 0.38173 0.44528
 C303 C 0.65323 0.41136 0.43743
 C304 C 0.64398 0.42459 0.41987
 H305 H 0.56820 0.44288 0.31125
 H306 H 0.54191 0.46072 0.28773
 H307 H 0.54219 0.50971 0.35406
 H308 H 0.56560 0.48897 0.37778
 H309 H 0.60924 0.48989 0.38448
 H310 H 0.62801 0.46630 0.41163
 H311 H 0.57885 0.38434 0.36911
 H312 H 0.55854 0.40735 0.34305
 H313 H 0.57467 0.36591 0.41045
 H314 H 0.59111 0.34261 0.44053
 H315 H 0.67516 0.42444 0.44497
 H316 H 0.65912 0.44741 0.41416
 C317 C 0.55290 0.10485 0.34744
 C318 C 0.56218 0.10361 0.32292
 C319 C 0.54825 0.07697 0.30906
 C320 C 0.52424 0.05060 0.31918
 C321 C 0.51559 0.05211 0.34413
 C322 C 0.52976 0.07863 0.35797
 C323 C 0.56689 0.13334 0.36197
 C324 C 0.55005 0.14000 0.37783
 C325 C 0.56311 0.16609 0.39228
 C326 C 0.59335 0.18652 0.39103
 C327 C 0.61014 0.18026 0.37468
 C328 C 0.59709 0.15393 0.36041
 C329 C 0.60728 0.21351 0.40752
 C330 C 0.63482 0.22378 0.41843
 C331 C 0.64683 0.24755 0.43557
 C332 C 0.63140 0.26136 0.44247
 C333 C 0.60431 0.25178 0.43102
 C334 C 0.59251 0.22830 0.41360
 H335 H 0.57999 0.12338 0.31417
 H336 H 0.55711 0.07738 0.29065
 H337 H 0.49685 0.03333 0.35294
 H338 H 0.52232 0.07855 0.37700
 H339 H 0.52666 0.12501 0.37914
 H340 H 0.54948 0.16984 0.40490
 H341 H 0.63342 0.19565 0.37295
 H342 H 0.61080 0.14946 0.34855
 H343 H 0.64668 0.21272 0.41452
 H344 H 0.66767 0.25431 0.44419
 H345 H 0.59206 0.26222 0.43576
 H346 H 0.57160 0.22152 0.40512
 C347 C 0.89725 0.45954 0.34804
 C348 C 0.92436 0.47953 0.35908
 C349 C 0.95020 0.48971 0.34558
 C350 C 0.94981 0.48017 0.32049
 C351 C 0.92225 0.46110 0.30920
 C352 C 0.89645 0.45087 0.32282
 C353 C 0.87008 0.44671 0.36323
 C354 C 0.84879 0.41614 0.36152
 C355 C 0.82419 0.40352 0.37709
 C356 C 0.82028 0.42119 0.39469
 C357 C 0.84119 0.45191 0.39596
 C358 C 0.86583 0.46452 0.38042
 C359 C 0.79508 0.40747 0.41233
 C360 C 0.78026 0.42216 0.41836
 C361 C 0.75739 0.40980 0.43582
 C362 C 0.74886 0.38247 0.44771
 C363 C 0.76341 0.36756 0.44135
 C364 C 0.78623 0.37991 0.42387
 H365 H 0.92572 0.48671 0.37850
 H366 H 0.97036 0.50554 0.35495
 H367 H 0.92031 0.45235 0.29030
 H368 H 0.87582 0.43572 0.31369
 H369 H 0.85157 0.40176 0.34866
 H370 H 0.80829 0.37986 0.37546
 H371 H 0.83893 0.46607 0.40948
 H372 H 0.88170 0.48819 0.38200
 H373 H 0.78633 0.44324 0.40954
 H374 H 0.74659 0.42185 0.44018
 H375 H 0.75746 0.34650 0.45015
 H376 H 0.79746 0.36822 0.41986
 C377 C 0.55421 0.44632 1.15471
 C378 C 0.53082 0.44799 1.14477
 C379 C 0.51852 0.46141 1.15852
 C380 C 0.52957 0.47401 1.18243
 C381 C 0.55271 0.47202 1.19255
 C382 C 0.56478 0.45821 1.17892
 C383 C 0.56794 0.43299 1.13950
 C384 C 0.59822 0.44491 1.14051
 C385 C 0.61126 0.43341 1.12519
 C386 C 0.59444 0.40994 1.10818
 C387 C 0.56409 0.39770 1.10751
 C388 C 0.55101 0.40889 1.12309
 C389 C 0.60844 0.39894 1.09056
 C390 C 0.59379 0.36876 1.08318
 C391 C 0.60591 0.35893 1.06515
 C392 C 0.63323 0.37890 1.05443
 C393 C 0.64845 0.40879 1.06244
 C394 C 0.63609 0.41877 1.08013
 H395 H 0.52232 0.43952 1.12607
 H396 H 0.50036 0.46199 1.15031
 H397 H 0.56197 0.48170 1.21081
 H398 H 0.58244 0.45693 1.18738
 H399 H 0.61205 0.46368 1.15268
 H400 H 0.63461 0.44309 1.12659
 H401 H 0.55039 0.37991 1.09446
 H402 H 0.52758 0.39871 1.12211
 H403 H 0.57283 0.35266 1.09123
 H404 H 0.59386 0.33565 1.05956
 H405 H 0.66947 0.42471 1.05435
 H406 H 0.64786 0.44225 1.08498
 C407 C 0.89552 0.44321 1.15598
 C408 C 0.89646 0.42933 1.17842
 C409 C 0.92254 0.44057 1.19197
 C410 C 0.94826 0.46626 1.18364
 C411 C 0.94722 0.48021 1.16131
 C412 C 0.92135 0.46869 1.14756
 C413 C 0.86798 0.43112 1.14114
 C414 C 0.86201 0.45040 1.12760
 C415 C 0.83725 0.43906 1.11228
 C416 C 0.81738 0.40812 1.11044
 C417 C 0.82274 0.38889 1.12478
 C418 C 0.84781 0.40021 1.13974
 C419 C 0.79203 0.39600 1.09276
 C420 C 0.78232 0.36892 1.07990
 C421 C 0.75975 0.35835 1.06221
 C422 C 0.74666 0.37484 1.05652
 C423 C 0.75591 0.40164 1.06956
 C424 C 0.77812 0.41194 1.08767
 H425 H 0.87700 0.40989 1.18571
 H426 H 0.92251 0.42896 1.20888
 H427 H 0.96637 0.50034 1.15450
 H428 H 0.92178 0.47971 1.13014
 H429 H 0.87659 0.47436 1.12863
 H430 H 0.83421 0.45465 1.10136
 H431 H 0.80769 0.36497 1.12432
 H432 H 0.85168 0.38458 1.14968
 H433 H 0.79277 0.35626 1.08282
 H434 H 0.75327 0.33775 1.05227
 H435 H 0.74600 0.41467 1.06571
 H436 H 0.78446 0.43251 1.09756
 C437 C 0.53950 0.11048 1.15430
 C438 C 0.51364 0.08523 1.14556
 C439 C 0.50031 0.05870 1.15940
 C440 C 0.51257 0.05673 1.18225
 C441 C 0.53788 0.08225 1.19142
 C442 C 0.55119 0.10883 1.17761
 C443 C 0.55485 0.13788 1.13855
 C444 C 0.58543 0.15385 1.13647
 C445 C 0.59979 0.17854 1.12044
 C446 C 0.58391 0.18779 1.10605
 C447 C 0.55337 0.17216 1.10850
 C448 C 0.53903 0.14754 1.12459
 C449 C 0.59896 0.21306 1.08800
 C450 C 0.58948 0.23323 1.08480
 C451 C 0.60265 0.25606 1.06691
 C452 C 0.62572 0.25937 1.05186
 C453 C 0.63566 0.23963 1.05545
 C454 C 0.62238 0.21668 1.07327
 H455 H 0.50420 0.08564 1.12759
 H456 H 0.48061 0.03955 1.15201
 H457 H 0.54799 0.08138 1.20887
 H458 H 0.57085 0.12801 1.18503
 H459 H 0.59825 0.14681 1.14674
 H460 H 0.62335 0.19032 1.11923
 H461 H 0.54045 0.17848 1.09749
 H462 H 0.51549 0.13594 1.12598
 H463 H 0.57186 0.23139 1.09615
 H464 H 0.59462 0.27106 1.06481
 H465 H 0.65332 0.24150 1.04412
 H466 H 0.62996 0.20128 1.07502
 C467 C 0.45643 0.56104 1.15325
 C468 C 0.45532 0.53512 1.14470
 C469 C 0.46845 0.52263 1.15849
 C470 C 0.48364 0.53597 1.18102
 C471 C 0.48526 0.56223 1.18942
 C472 C 0.47171 0.57455 1.17574
 C473 C 0.44158 0.57361 1.13861
 C474 C 0.45384 0.60463 1.13659
 C475 C 0.44049 0.61619 1.12166
 C476 C 0.41472 0.59702 1.10816
 C477 C 0.40222 0.56602 1.11065
 C478 C 0.41529 0.55451 1.12583
 C479 C 0.40148 0.60906 1.09072
 C480 C 0.37108 0.59363 1.08692
 C481 C 0.35890 0.60326 1.06876
 C482 C 0.37673 0.62893 1.05436
 C483 C 0.40693 0.64519 1.05887
 C484 C 0.41920 0.63523 1.07668
 H485 H 0.44435 0.52440 1.12722
 H486 H 0.46621 0.50211 1.15160
 H487 H 0.49704 0.57334 1.20651
 H488 H 0.47284 0.59440 1.18302
 H489 H 0.47415 0.62005 1.14602
 H490 H 0.45051 0.64017 1.12060
 H491 H 0.38267 0.55047 1.10033
 H492 H 0.40480 0.53050 1.12736
 H493 H 0.35662 0.57388 1.09781
 H494 H 0.33549 0.59054 1.06591
 H495 H 0.42121 0.66498 1.04791
 H496 H 0.44270 0.64749 1.07873
 C497 C 0.11063 0.54512 1.15803
 C498 C 0.10806 0.55985 1.17918
 C499 C 0.08177 0.54742 1.19250
 C500 C 0.05747 0.51990 1.18504
 C501 C 0.06018 0.50502 1.16411
 C502 C 0.08635 0.51752 1.15072
 C503 C 0.13811 0.55879 1.14309
 C504 C 0.14763 0.54088 1.13223
 C505 C 0.17216 0.55342 1.11657
 C506 C 0.18793 0.58423 1.11152
 C507 C 0.17906 0.60229 1.12316
 C508 C 0.15440 0.58972 1.13867
 C509 C 0.21247 0.59717 1.09312
 C510 C 0.21614 0.61956 1.07625
 C511 C 0.23804 0.63069 1.05797
 C512 C 0.25675 0.61958 1.05589
 C513 C 0.25347 0.59754 1.07299
 C514 C 0.23161 0.58652 1.09145
 H515 H 0.12640 0.58098 1.18551
 H516 H 0.08035 0.55962 1.20838
 H517 H 0.04205 0.48358 1.15809
 H518 H 0.08735 0.50574 1.13432
 H519 H 0.13592 0.51705 1.13560
 H520 H 0.17819 0.53878 1.10778
 H521 H 0.19097 0.62618 1.12004
 H522 H 0.14761 0.60418 1.14653
 H523 H 0.20150 0.62791 1.07664
 H524 H 0.23983 0.64756 1.04504
 H525 H 0.26763 0.58863 1.07201
 H526 H 0.22967 0.56960 1.10437
 C527 C 0.44323 0.89286 1.15022
 C528 C 0.43834 0.91578 1.14351
 C529 C 0.45045 0.94198 1.15771
 C530 C 0.46803 0.94614 1.17888
 C531 C 0.47313 0.92333 1.18555
 C532 C 0.46083 0.89695 1.17138
 C533 C 0.43015 0.86501 1.13493
 C534 C 0.44595 0.85112 1.12976
 C535 C 0.43413 0.82587 1.11422
 C536 C 0.40629 0.81400 1.10340
 C537 C 0.39026 0.82754 1.10904
 C538 C 0.40198 0.85263 1.12469
 C539 C 0.39438 0.78835 1.08556
 C540 C 0.36440 0.76658 1.08525
 C541 C 0.35300 0.74346 1.06748
 C542 C 0.37135 0.74143 1.04974
 C543 C 0.40140 0.76278 1.05041
 C544 C 0.41275 0.78603 1.06803
 H545 H 0.42533 0.91362 1.12709
 H546 H 0.44573 0.95890 1.15225
 H547 H 0.48680 0.92594 1.20160
 H548 H 0.46485 0.87964 1.17718
 H549 H 0.46777 0.86019 1.13718
 H550 H 0.44689 0.81573 1.11057
 H551 H 0.36891 0.81925 1.10084
 H552 H 0.38900 0.86245 1.12865
 H553 H 0.34971 0.76737 1.09877
 H554 H 0.32979 0.72720 1.06763
 H555 H 0.41612 0.76194 1.03694
 H556 H 0.43584 0.80265 1.06744
 C557 C 0.55112 0.44197 0.65454
 C558 C 0.52737 0.44317 0.64484
 C559 C 0.51501 0.45646 0.65868
 C560 C 0.52636 0.46940 0.68242
 C561 C 0.54980 0.46781 0.69234
 C562 C 0.56192 0.45411 0.67864
 C563 C 0.56503 0.42897 0.63916
 C564 C 0.59541 0.44139 0.63988
 C565 C 0.60861 0.43025 0.62435
 C566 C 0.59185 0.40667 0.60742
 C567 C 0.56143 0.39393 0.60705
 C568 C 0.54819 0.40475 0.62285
 C569 C 0.60600 0.39609 0.58956
 C570 C 0.59167 0.36592 0.58216
 C571 C 0.60384 0.35645 0.56388
 C572 C 0.63091 0.37677 0.55293
 C573 C 0.64585 0.40664 0.56096
 C574 C 0.63342 0.41626 0.57890
 H575 H 0.51867 0.43448 0.62623
 H576 H 0.49662 0.45673 0.65063
 H577 H 0.55928 0.47776 0.71047
 H578 H 0.57985 0.45318 0.68692
 H579 H 0.60917 0.46028 0.65196
 H580 H 0.63202 0.44031 0.62552
 H581 H 0.54777 0.37604 0.59407
 H582 H 0.52470 0.39420 0.62210
 H583 H 0.57092 0.34957 0.59037
 H584 H 0.59204 0.33318 0.55827
 H585 H 0.66667 0.42281 0.55270
 H586 H 0.64492 0.43973 0.58377
 C587 C 0.54246 0.11095 0.65469
 C588 C 0.55478 0.11001 0.67789
 C589 C 0.54247 0.08355 0.69186
 C590 C 0.51757 0.05744 0.68293
 C591 C 0.50462 0.05870 0.66024
 C592 C 0.51695 0.08510 0.64626
 C593 C 0.55686 0.13820 0.63866
 C594 C 0.54017 0.14678 0.62467
 C595 C 0.55363 0.17106 0.60813
 C596 C 0.58413 0.18743 0.60525
 C597 C 0.60087 0.17933 0.61974
 C598 C 0.58740 0.15499 0.63622
 C599 C 0.59827 0.21222 0.58662
 C600 C 0.62176 0.21617 0.57181
 C601 C 0.63437 0.23874 0.55361
 C602 C 0.62368 0.25780 0.54968
 C603 C 0.60042 0.25409 0.56470
 C604 C 0.58792 0.23161 0.58297
 H605 H 0.57419 0.12966 0.68509
 H606 H 0.55305 0.08325 0.70920
 H607 H 0.48521 0.03906 0.65303
 H608 H 0.50703 0.08492 0.62838
 H609 H 0.51663 0.13456 0.62633
 H610 H 0.54005 0.17650 0.59709
 H611 H 0.62442 0.19172 0.61824
 H612 H 0.60089 0.14880 0.64650
 H613 H 0.62999 0.20135 0.57386
 H614 H 0.65218 0.24091 0.54233
 H615 H 0.59181 0.26854 0.56233
 H616 H 0.57017 0.22949 0.59433
 C617 C 0.89299 0.44315 0.65379
 C618 C 0.89485 0.42899 0.67569
 C619 C 0.92116 0.44086 0.68897
 C620 C 0.94619 0.46741 0.68089
 C621 C 0.94420 0.48167 0.65915
 C622 C 0.91812 0.46955 0.64566
 C623 C 0.86524 0.43040 0.63918
 C624 C 0.85805 0.44925 0.62650
 C625 C 0.83322 0.43744 0.61125
 C626 C 0.81445 0.40638 0.60865
 C627 C 0.82098 0.38749 0.62218
 C628 C 0.84616 0.39933 0.63705
 C629 C 0.78907 0.39389 0.59100
 C630 C 0.78050 0.36756 0.57730
 C631 C 0.75802 0.35690 0.55949
 C632 C 0.74396 0.37260 0.55455
 C633 C 0.75201 0.39856 0.56846
 C634 C 0.77407 0.40890 0.58669
 H635 H 0.87592 0.40884 0.68275
 H636 H 0.92191 0.42907 0.70545
 H637 H 0.96278 0.50246 0.65261
 H638 H 0.91784 0.48084 0.62865
 H639 H 0.87177 0.47328 0.62812
 H640 H 0.82927 0.45280 0.60096
 H641 H 0.80680 0.36347 0.62111
 H642 H 0.85100 0.38404 0.64633
 H643 H 0.79179 0.35566 0.57963
 H644 H 0.75243 0.33695 0.54886
 H645 H 0.74128 0.41091 0.56520
 H646 H 0.77948 0.42880 0.59726
 C647 C 0.45431 0.55754 0.65381
 C648 C 0.47172 0.57216 0.67510
 C649 C 0.48496 0.55946 0.68867
 C650 C 0.48109 0.53191 0.68119
 C651 C 0.46382 0.51747 0.65983
 C652 C 0.45072 0.53015 0.64627
 C653 C 0.43997 0.57061 0.63928
 C654 C 0.41176 0.55209 0.62939
 C655 C 0.39895 0.56386 0.61417
 C656 C 0.41392 0.59452 0.60861
 C657 C 0.44176 0.61324 0.61918
 C658 C 0.45465 0.60141 0.63433
 C659 C 0.40104 0.60650 0.59084
 C660 C 0.41868 0.62833 0.57295
 C661 C 0.40635 0.63802 0.55500
 C662 C 0.37605 0.62595 0.55437
 C663 C 0.35847 0.60466 0.57263
 C664 C 0.37084 0.59513 0.59071
 H665 H 0.47476 0.59320 0.68147
 H666 H 0.49833 0.57127 0.70491
 H667 H 0.46001 0.49601 0.65376
 H668 H 0.43789 0.51854 0.62973
 H669 H 0.39964 0.52834 0.63320
 H670 H 0.37764 0.54872 0.60615
 H671 H 0.45371 0.63703 0.61556
 H672 H 0.47646 0.61627 0.64156
 H673 H 0.44194 0.63725 0.57226
 H674 H 0.42052 0.65441 0.54117
 H675 H 0.33509 0.59514 0.57284
 H676 H 0.35670 0.57868 0.60451
 C677 C 0.45098 0.89465 0.65031
 C678 C 0.45275 0.92043 0.64073
 C679 C 0.46488 0.94652 0.65505
 C680 C 0.47632 0.94817 0.67953
 C681 C 0.47495 0.92219 0.68884
 C682 C 0.46242 0.89590 0.67448
 C683 C 0.43705 0.86670 0.63502
 C684 C 0.44810 0.84762 0.63514
 C685 C 0.43560 0.82211 0.61983
 C686 C 0.41189 0.81518 0.60387
 C687 C 0.40061 0.83405 0.60409
 C688 C 0.41284 0.85927 0.61959
 C689 C 0.39944 0.78901 0.58645
 C690 C 0.36946 0.77293 0.58064
 C691 C 0.35810 0.74981 0.56289
 C692 C 0.37633 0.74182 0.55084
 C693 C 0.40609 0.75714 0.55720
 C694 C 0.41756 0.78061 0.57466
 H695 H 0.44460 0.92052 0.62202
 H696 H 0.46385 0.96484 0.64696
 H697 H 0.48417 0.92191 0.70691
 H698 H 0.46141 0.87642 0.68250
 H699 H 0.46683 0.85272 0.64664
 H700 H 0.44459 0.80786 0.62047
 H701 H 0.38268 0.82979 0.59185
 H702 H 0.40332 0.87304 0.61937
 H703 H 0.35468 0.77822 0.58976
 H704 H 0.33499 0.73812 0.55862
 H705 H 0.42070 0.75156 0.54813
 H706 H 0.44079 0.79271 0.57832
 C707 C 0.10833 0.54825 0.65441
 C708 C 0.08236 0.52497 0.64389
 C709 C 0.05614 0.51234 0.65718
 C710 C 0.05472 0.52276 0.68149
 C711 C 0.08102 0.54643 0.69182
 C712 C 0.10732 0.55883 0.67853
 C713 C 0.13618 0.56146 0.64005
 C714 C 0.15678 0.59229 0.64106
 C715 C 0.18222 0.60479 0.62652
 C716 C 0.18756 0.58683 0.61042
 C717 C 0.16722 0.55592 0.60985
 C718 C 0.14201 0.54339 0.62459
 C719 C 0.21338 0.60027 0.59335
 C720 C 0.22733 0.58467 0.58722
 C721 C 0.24972 0.59601 0.56931
 C722 C 0.25899 0.62345 0.55741
 C723 C 0.24599 0.63970 0.56431
 C724 C 0.22331 0.62816 0.58193
 H725 H 0.08217 0.51645 0.62520
 H726 H 0.03734 0.49350 0.64844
 H727 H 0.08158 0.55648 0.70981
 H728 H 0.12694 0.57669 0.68729
 H729 H 0.15294 0.60694 0.65259
 H730 H 0.19759 0.62860 0.62777
 H731 H 0.17032 0.54138 0.59747
 H732 H 0.12696 0.51949 0.62371
 H733 H 0.22076 0.56348 0.59605
 H734 H 0.25957 0.58314 0.56459
 H735 H 0.25254 0.66084 0.55535
 H736 H 0.21286 0.64063 0.58584
 C737 C 0.43442 0.53733 0.84634
 C738 C 0.44698 0.54984 0.82281
 C739 C 0.46167 0.53901 0.80898
 C740 C 0.46398 0.51522 0.81821
 C741 C 0.45042 0.50192 0.84128
 C742 C 0.43590 0.51290 0.85521
 C743 C 0.42119 0.55068 0.86213
 C744 C 0.39635 0.53261 0.87695
 C745 C 0.38506 0.54545 0.89285
 C746 C 0.39830 0.57665 0.89424
 C747 C 0.42271 0.59464 0.87897
 C748 C 0.43407 0.58184 0.86319
 C749 C 0.38741 0.59045 0.91220
 C750 C 0.40716 0.61646 0.92558
 C751 C 0.39718 0.62905 0.94304
 C752 C 0.36717 0.61586 0.94772
 C753 C 0.34735 0.59002 0.93416
 C754 C 0.35736 0.57748 0.91657
 H755 H 0.44582 0.56833 0.81520
 H756 H 0.47207 0.55000 0.79142
 H757 H 0.45137 0.48325 0.84876
 H758 H 0.42667 0.50286 0.87334
 H759 H 0.38569 0.50853 0.87636
 H760 H 0.36639 0.53094 0.90453
 H761 H 0.43318 0.61871 0.87929
 H762 H 0.45344 0.59647 0.85231
 H763 H 0.43046 0.62674 0.92302
 H764 H 0.41307 0.64886 0.95324
 H765 H 0.32408 0.57936 0.93720
 H766 H 0.34155 0.55769 0.90633
 C767 C 0.10520 0.53316 0.84699
 C768 C 0.10610 0.54351 0.82229
 C769 C 0.08051 0.53289 0.80826
 C770 C 0.05333 0.51127 0.81837
 C771 C 0.05259 0.49987 0.84260
 C772 C 0.07815 0.51083 0.85680
 C773 C 0.13204 0.54667 0.86290
 C774 C 0.13636 0.52944 0.88071
 C775 C 0.16060 0.54270 0.89678
 C776 C 0.18136 0.57346 0.89526
 C777 C 0.17750 0.59048 0.87692
 C778 C 0.15308 0.57733 0.86111
 C779 C 0.20636 0.58795 0.91326
 C780 C 0.21646 0.61692 0.92240
 C781 C 0.23935 0.63031 0.93981
 C782 C 0.25245 0.61490 0.94882
 C783 C 0.24256 0.58603 0.93963
 C784 C 0.21991 0.57278 0.92193
 H785 H 0.12657 0.56021 0.81387
 H786 H 0.08198 0.54244 0.78977
 H787 H 0.03218 0.48277 0.85083
 H788 H 0.07648 0.50245 0.87580
 H789 H 0.12089 0.50570 0.88238
 H790 H 0.16264 0.52891 0.91083
 H791 H 0.19327 0.61410 0.87485
 H792 H 0.15038 0.59146 0.84792
 H793 H 0.20622 0.62908 0.91660
 H794 H 0.24631 0.65249 0.94670
 H795 H 0.25242 0.57370 0.94607
 H796 H 0.21311 0.55068 0.91498
 C797 C 0.43755 0.88827 0.84420
 C798 C 0.44445 0.91508 0.85607
 C799 C 0.45841 0.94201 0.84283
 C800 C 0.46631 0.94324 0.81716
 C801 C 0.45873 0.91598 0.80523
 C802 C 0.44464 0.88900 0.81856
 C803 C 0.42359 0.85988 0.85881
 C804 C 0.43199 0.83887 0.85514
 C805 C 0.42015 0.81312 0.87007
 C806 C 0.39969 0.80782 0.88907
 C807 C 0.39087 0.82855 0.89233
 C808 C 0.40254 0.85413 0.87733
 C809 C 0.38837 0.78152 0.90616
 C810 C 0.35949 0.76701 0.91506
 C811 C 0.34966 0.74428 0.93303
 C812 C 0.36833 0.73521 0.94234
 C813 C 0.39679 0.74870 0.93263
 C814 C 0.40675 0.77171 0.91484
 H815 H 0.43946 0.91543 0.87585
 H816 H 0.46216 0.96164 0.85288
 H817 H 0.46478 0.91528 0.78586
 H818 H 0.43940 0.86868 0.80877
 H819 H 0.44833 0.84270 0.84120
 H820 H 0.42716 0.79746 0.86681
 H821 H 0.37548 0.82548 0.90697
 H822 H 0.39521 0.86957 0.88041
 H823 H 0.34451 0.77345 0.90836
 H824 H 0.32748 0.73406 0.93989
 H825 H 0.41173 0.74228 0.93951
 H826 H 0.42921 0.78257 0.90864
 C827 C 0.56682 0.46094 0.84762
 C828 C 0.55676 0.45039 0.82302
 C829 C 0.54181 0.46092 0.80918
 C830 C 0.53693 0.48270 0.81936
 C831 C 0.54797 0.49410 0.84359
 C832 C 0.56252 0.48320 0.85760
 C833 C 0.58062 0.44791 0.86316
 C834 C 0.60282 0.46551 0.88065
 C835 C 0.61444 0.45276 0.89626
 C836 C 0.60445 0.42214 0.89456
 C837 C 0.58290 0.40476 0.87653
 C838 C 0.57098 0.41740 0.86121
 C839 C 0.61561 0.40817 0.91212
 C840 C 0.59686 0.37905 0.92127
 C841 C 0.60687 0.36624 0.93851
 C842 C 0.63576 0.38239 0.94736
 C843 C 0.65467 0.41134 0.93807
 C844 C 0.64477 0.42401 0.92051
 H845 H 0.56016 0.43372 0.81446
 H846 H 0.53337 0.45132 0.79073
 H847 H 0.54517 0.51129 0.85189
 H848 H 0.56965 0.49169 0.87656
 H849 H 0.61116 0.48916 0.88243
 H850 H 0.63075 0.46682 0.91009
 H851 H 0.57502 0.38125 0.87432
 H852 H 0.55366 0.40297 0.84826
 H853 H 0.57414 0.36635 0.91570
 H854 H 0.59169 0.34399 0.94549
 H855 H 0.67713 0.42424 0.94440
 H856 H 0.65999 0.44623 0.91354
 C857 C 0.89678 0.46029 0.84679
 C858 C 0.92342 0.48473 0.85529
 C859 C 0.94883 0.49539 0.84098
 C860 C 0.94821 0.48179 0.81789
 C861 C 0.92136 0.45809 0.80896
 C862 C 0.89595 0.44752 0.82321
 C863 C 0.87037 0.44719 0.86304
 C864 C 0.85166 0.41604 0.86466
 C865 C 0.82765 0.40351 0.88088
 C866 C 0.82180 0.42180 0.89598
 C867 C 0.84020 0.45297 0.89407
 C868 C 0.86420 0.46552 0.87777
 C869 C 0.79710 0.40838 0.91416
 C870 C 0.78006 0.42119 0.91804
 C871 C 0.75741 0.40902 0.93571
 C872 C 0.75123 0.38372 0.94989
 C873 C 0.76803 0.37069 0.94576
 C874 C 0.79072 0.38291 0.92816
 H875 H 0.92488 0.49496 0.87345
 H876 H 0.96906 0.51398 0.84822
 H877 H 0.92014 0.44694 0.79136
 H878 H 0.87571 0.42900 0.81592
 H879 H 0.85598 0.40125 0.85384
 H880 H 0.81370 0.37944 0.88166
 H881 H 0.83646 0.46769 0.90561
 H882 H 0.87799 0.48960 0.87677
 H883 H 0.78414 0.44055 0.90731
 H884 H 0.74481 0.41953 0.93831
 H885 H 0.76396 0.35128 0.95642
 H886 H 0.80370 0.37277 0.92592
 C887 C 0.55774 0.10812 0.84731
 C888 C 0.57017 0.10559 0.82475
 C889 C 0.55685 0.07873 0.81116
 C890 C 0.53053 0.05382 0.81962
 C891 C 0.51824 0.05641 0.84222
 C892 C 0.53177 0.08300 0.85597
 C893 C 0.57159 0.13665 0.86190
 C894 C 0.55429 0.14497 0.87527
 C895 C 0.56708 0.17067 0.89024
 C896 C 0.59760 0.18923 0.89190
 C897 C 0.61493 0.18152 0.87779
 C898 C 0.60211 0.15547 0.86315
 C899 C 0.61112 0.21568 0.90911
 C900 C 0.63724 0.22411 0.92204
 C901 C 0.64888 0.24755 0.93950
 C902 C 0.63443 0.26280 0.94484
 C903 C 0.60871 0.25491 0.93164
 C904 C 0.59737 0.23186 0.91378
 H905 H 0.59000 0.12448 0.81732
 H906 H 0.56725 0.07754 0.79407
 H907 H 0.49777 0.03797 0.84917
 H908 H 0.52181 0.08373 0.87352
 H909 H 0.53072 0.13151 0.87435
 H910 H 0.55290 0.17548 0.90102
 H911 H 0.63849 0.19548 0.87815
 H912 H 0.61621 0.14978 0.85331
 H913 H 0.64824 0.21195 0.91941
 H914 H 0.66862 0.25297 0.94956
 H915 H 0.59729 0.26651 0.93520
 H916 H 0.57766 0.22661 0.90379
   
