data_POSCAR
  _audit_creation_date              2014-09-24
  _audit_creation_method            'ToBaCCo'
  _symmetry_space_group_name_H-M    'P1'
  _symmetry_Int_Tables_number       1
  _symmetry_cell_setting            triclinic
  loop_
  _symmetry_equiv_pos_as_xyz
 x,y,z
_cell_length_a 36.1891
_cell_length_b 36.1883
_cell_length_c 36.2003
_cell_angle_alpha 75.687800
_cell_angle_beta 104.250400
_cell_angle_gamma 76.151300
loop_
  _atom_site_label
  _atom_site_type_symbol
  _atom_site_fract_x
  _atom_site_fract_y
  _atom_site_fract_z
O1 O 0.56490 0.48704 0.03459
 O2 O 0.46044 0.49909 0.03237
 O3 O 0.51975 0.44056 0.03438
 O4 O 0.50566 0.54549 0.03197
 O5 O 0.48529 0.56559 -0.03449
 O6 O 0.49971 0.46084 -0.03206
 O7 O 0.44016 0.51909 -0.03400
 O8 O 0.54476 0.50738 -0.03186
 Cu9 Cu 0.51465 0.49099 0.03998
 Cu10 Cu 0.49042 0.51519 -0.03976
 C11 C 0.57269 0.49562 0.00175
 C12 C 0.43232 0.51094 -0.00112
 C13 C 0.51199 0.43277 0.00149
 C14 C 0.49349 0.57345 -0.00169
 O15 O -0.02515 0.54988 0.49714
 O16 O -0.02268 0.44521 0.50975
 O17 O -0.02213 0.49008 0.55606
 O18 O -0.02471 0.50461 0.45098
 O19 O 0.04162 0.48509 0.47107
 O20 O 0.04420 0.47027 0.57604
 O21 O 0.04365 0.42538 0.52962
 O22 O 0.04111 0.53035 0.51731
 Cu23 Cu -0.03030 0.49943 0.50145
 Cu24 Cu 0.04928 0.47584 0.52547
 C25 C 0.00751 0.55815 0.50549
 C26 C 0.01081 0.41739 0.52156
 C27 C 0.01149 0.47793 0.58402
 C28 C 0.00809 0.49696 0.44309
 O29 O 0.48353 0.04185 0.52912
 O30 O 0.47099 0.04421 0.42445
 O31 O 0.42484 0.04385 0.46966
 O32 O 0.53006 0.04119 0.48411
 O33 O 0.54955 -0.02515 0.50446
 O34 O 0.44464 -0.02249 0.48966
 O35 O 0.49078 -0.02214 0.44459
 O36 O 0.50296 -0.02443 0.54935
 Cu37 Cu 0.47542 0.04942 0.47486
 Cu38 Cu 0.49897 -0.03018 0.49906
 C39 C 0.49495 0.00838 0.55721
 C40 C 0.47902 0.01144 0.41661
 C41 C 0.41680 0.01103 0.47743
 C42 C 0.55777 0.00752 0.49640
 C43 C 0.49441 -0.00649 0.00392
 C44 C 0.49951 0.02215 -0.02501
 C45 C 0.49999 0.01744 -0.06456
 C46 C 0.50456 0.05995 -0.01884
 C47 C 0.49060 -0.00045 0.04214
 C48 C 0.49269 -0.04573 -0.00073
 C49 C 0.53234 0.02179 -0.07819
 C50 C 0.53275 0.01859 -0.11578
 C51 C 0.50071 0.01128 -0.14031
 C52 C 0.46823 0.00710 -0.12703
 C53 C 0.46777 0.01031 -0.08940
 C54 C 0.53527 0.05914 0.01417
 C55 C 0.53968 0.09510 0.01929
 C56 C 0.51368 0.13210 -0.00870
 C57 C 0.48338 0.13302 -0.04185
 C58 C 0.47892 0.09717 -0.04698
 C59 C 0.46053 0.03248 0.04198
 C60 C 0.45657 0.03678 0.07832
 C61 C 0.48242 0.00807 0.11507
 C62 C 0.51230 -0.02481 0.11534
 C63 C 0.51629 -0.02913 0.07911
 C64 C 0.46004 -0.05866 0.00413
 C65 C 0.45880 -0.09627 0.00169
 C66 C 0.49029 -0.12147 -0.00539
 C67 C 0.52296 -0.10880 -0.01030
 C68 C 0.52425 -0.07114 -0.00784
 H69 H 0.55731 0.02757 -0.05963
 H70 H 0.55793 0.02207 -0.12582
 H71 H 0.44313 0.00173 -0.14589
 H72 H 0.44215 0.00769 -0.07984
 H73 H 0.55584 0.03073 0.03578
 H74 H 0.56336 0.09406 0.04494
 H75 H 0.45524 0.09841 -0.07273
 H76 H 0.43992 0.05451 0.01376
 H77 H 0.43321 0.06223 0.07777
 H78 H 0.53238 -0.04726 0.14358
 H79 H 0.53948 -0.05485 0.07987
 H80 H 0.43558 -0.03960 0.00991
 H81 H 0.43348 -0.10585 0.00571
 H82 H 0.54762 -0.12822 -0.01550
 H83 H 0.55007 -0.06206 -0.01087
 H84 H 0.46317 0.16148 -0.06374
 C85 C -0.00667 0.49513 0.99550
 C86 C 0.02220 0.50015 1.02422
 C87 C 0.06031 0.50433 1.01807
 C88 C 0.01749 0.50127 1.06359
 C89 C -0.04612 0.49415 1.00018
 C90 C -0.00061 0.49049 0.95758
 C91 C 0.09729 0.47857 1.04656
 C92 C 0.13342 0.48232 1.04157
 C93 C 0.13305 0.51203 1.00820
 C94 C 0.09629 0.53811 0.97981
 C95 C 0.06006 0.53441 0.98479
 C96 C 0.00999 0.46948 1.08869
 C97 C 0.00667 0.47054 1.12612
 C98 C 0.01112 0.50319 1.13893
 C99 C 0.01882 0.53479 1.11416
 C100 C 0.02212 0.53378 1.07675
 C101 C -0.07122 0.52618 1.00697
 C102 C -0.10906 0.52555 1.00941
 C103 C -0.12224 0.49307 1.00481
 C104 C -0.09735 0.46112 0.99806
 C105 C -0.05957 0.46170 0.99563
 C106 C -0.02893 0.51613 0.92040
 C107 C -0.02453 0.51142 0.88444
 C108 C 0.00806 0.48088 0.88521
 C109 C 0.03639 0.45506 0.92217
 C110 C 0.03201 0.45973 0.95825
 H111 H 0.09812 0.45536 1.07253
 H112 H 0.16166 0.46205 1.06378
 H113 H 0.09566 0.56135 0.95398
 H114 H 0.03186 0.55508 0.96288
 H115 H 0.00714 0.44374 1.07946
 H116 H 0.00101 0.44578 1.14520
 H117 H 0.02819 0.55842 1.05796
 H118 H -0.06175 0.55186 1.00975
 H119 H -0.12821 0.55057 1.01438
 H120 H -0.10731 0.43593 0.99429
 H121 H -0.04079 0.43687 0.99010
 H122 H -0.05441 0.53983 0.91928
 H123 H -0.04668 0.53149 0.85602
 H124 H 0.06161 0.43120 0.92309
 H125 H 0.05373 0.43917 0.98665
 H126 H 0.02252 0.56009 1.12386
 C127 C 0.00945 -0.01988 0.49750
 C128 C -0.01873 0.00849 0.50345
 C129 C -0.05815 0.00388 0.50471
 C130 C -0.01195 0.04621 0.50829
 C131 C 0.04684 -0.01302 0.49180
 C132 C 0.00486 -0.05950 0.49688
 C133 C -0.08362 -0.00305 0.47279
 C134 C -0.12164 -0.00497 0.47335
 C135 C -0.13465 0.00028 0.50564
 C136 C -0.10936 0.00706 0.53755
 C137 C -0.07139 0.00897 0.53703
 C138 C -0.04022 0.08357 0.48324
 C139 C -0.03462 0.11928 0.48773
 C140 C -0.00086 0.11810 0.51748
 C141 C 0.02733 0.08096 0.54283
 C142 C 0.02174 0.04515 0.53839
 C143 C 0.08439 -0.04093 0.51675
 C144 C 0.11981 -0.03516 0.51155
 C145 C 0.11810 -0.00157 0.48119
 C146 C 0.08075 0.02622 0.45590
 C147 C 0.04524 0.02045 0.46105
 C148 C -0.00180 -0.08474 0.52920
 C149 C -0.00372 -0.12290 0.52918
 C150 C 0.00124 -0.13630 0.49702
 C151 C 0.00776 -0.11124 0.46473
 C152 C 0.00968 -0.07313 0.46470
 H153 H -0.07436 -0.00620 0.44716
 H154 H -0.14108 -0.00995 0.44837
 H155 H -0.11919 0.01133 0.56259
 H156 H -0.05234 0.01464 0.56176
 H157 H -0.06649 0.08503 0.46002
 H158 H -0.05668 0.14783 0.46802
 H159 H 0.04350 0.01663 0.55851
 H160 H 0.08624 -0.06703 0.54045
 H161 H 0.14855 -0.05690 0.53121
 H162 H 0.07909 0.05221 0.43218
 H163 H 0.01654 0.04192 0.44101
 H164 H -0.00474 -0.07519 0.55472
 H165 H -0.00851 -0.14215 0.55447
 H166 H 0.01181 -0.12134 0.43977
 H167 H 0.01512 -0.05428 0.43965
 H168 H 0.05346 0.07968 0.56610
 C169 C -0.33745 0.50247 0.96759
 C170 C -0.30693 0.49103 1.00451
 C171 C -0.31549 0.47995 1.04054
 C172 C -0.35452 0.48078 1.03968
 C173 C -0.38555 0.49275 1.00269
 C174 C -0.37651 0.50332 0.96664
 C175 C -0.26702 0.49130 1.00539
 C176 C -0.23371 0.49177 1.00590
 C177 C -0.19483 0.49243 1.00612
 C178 C -0.16170 0.49287 1.00584
 H179 H -0.33114 0.51109 0.93951
 H180 H -0.29209 0.47103 1.06929
 H181 H -0.36047 0.47250 1.06797
 H182 H -0.39970 0.51272 0.93768
 C183 C 0.32177 0.52894 0.96129
 C184 C 0.31349 0.51899 0.99759
 C185 C 0.34446 0.50731 1.03419
 C186 C 0.38365 0.50510 1.03464
 C187 C 0.39260 0.51453 0.99833
 C188 C 0.36097 0.52681 0.96158
 C189 C 0.27357 0.51959 0.99758
 C190 C 0.24058 0.51921 0.99849
 C191 C 0.20251 0.51775 1.00068
 C192 C 0.17054 0.51563 1.00354
 H193 H 0.29801 0.53798 0.93277
 H194 H 0.33838 0.49949 1.06248
 H195 H 0.40694 0.49560 1.06356
 H196 H 0.36646 0.53437 0.93298
 C197 C -0.03171 -0.33182 0.48845
 C198 C 0.00409 -0.32273 0.49900
 C199 C 0.04105 -0.35298 0.51070
 C200 C 0.04227 -0.39229 0.51231
 C201 C 0.00641 -0.40203 0.50230
 C202 C -0.03065 -0.37107 0.49002
 C203 C 0.00290 -0.28250 0.49840
 C204 C 0.00199 -0.24889 0.49810
 C205 C 0.00119 -0.20961 0.49785
 C206 C 0.00091 -0.17615 0.49757
 H207 H -0.06050 -0.30862 0.47931
 H208 H 0.06896 -0.34625 0.51889
 H209 H 0.07139 -0.41507 0.52185
 H210 H -0.05894 -0.37713 0.48201
 C211 C 0.04815 0.30537 0.53777
 C212 C 0.01186 0.29686 0.52849
 C213 C -0.02458 0.32746 0.51812
 C214 C -0.02485 0.36651 0.51649
 C215 C 0.01140 0.37555 0.52521
 C216 C 0.04796 0.34446 0.53619
 C217 C 0.01162 0.25718 0.52828
 C218 C 0.01037 0.22446 0.52716
 C219 C 0.00770 0.18678 0.52480
 C220 C 0.00438 0.15515 0.52193
 H221 H 0.07653 0.28192 0.54576
 H222 H -0.05285 0.32124 0.51082
 H223 H -0.05351 0.38970 0.50794
 H224 H 0.07637 0.35042 0.54303
 C225 C 0.51117 -0.02942 -0.33252
 C226 C 0.50110 0.00675 -0.32420
 C227 C 0.49002 0.04336 -0.35502
 C228 C 0.48852 0.04394 -0.39411
 C229 C 0.49806 0.00774 -0.40311
 C230 C 0.50973 -0.02901 -0.37160
 C231 C 0.50147 0.00646 -0.28426
 C232 C 0.50142 0.00676 -0.25103
 C233 C 0.50112 0.00772 -0.21234
 C234 C 0.50085 0.00905 -0.17945
 H235 H 0.51983 -0.05796 -0.30886
 H236 H 0.48219 0.07155 -0.34890
 H237 H 0.47946 0.07285 -0.41732
 H238 H 0.51735 -0.05752 -0.37712
 C239 C 0.46208 0.05007 0.30437
 C240 C 0.47214 0.01406 0.29576
 C241 C 0.48329 -0.02275 0.32638
 C242 C 0.48489 -0.02363 0.36558
 C243 C 0.47540 0.01239 0.37470
 C244 C 0.46365 0.04929 0.34356
 C245 C 0.47234 0.01469 0.25589
 C246 C 0.47336 0.01458 0.22288
 C247 C 0.47552 0.01353 0.18473
 C248 C 0.47820 0.01166 0.15266
 H249 H 0.45349 0.07874 0.28092
 H250 H 0.49121 -0.05082 0.32006
 H251 H 0.49405 -0.05252 0.38882
 H252 H 0.45618 0.07755 0.34956
 C253 C 0.47615 -0.31444 -0.04074
 C254 C 0.48708 -0.30581 -0.00476
 C255 C 0.49876 -0.33634 0.03222
 C256 C 0.50010 -0.37552 0.03327
 C257 C 0.48979 -0.38465 -0.00273
 C258 C 0.47746 -0.35359 -0.03978
 C259 C 0.48723 -0.26588 -0.00574
 C260 C 0.48777 -0.23259 -0.00633
 C261 C 0.48867 -0.19378 -0.00661
 C262 C 0.48948 -0.16075 -0.00638
 H263 H 0.46707 -0.29101 -0.06953
 H264 H 0.50728 -0.32996 0.06025
 H265 H 0.50975 -0.39874 0.06227
 H266 H 0.46937 -0.35961 -0.06803
 C267 C 0.53091 0.32015 0.03913
 C268 C 0.52190 0.31178 0.00282
 C269 C 0.51079 0.34270 -0.03376
 C270 C 0.50817 0.38194 -0.03415
 C271 C 0.51660 0.39083 0.00214
 C272 C 0.52833 0.35942 0.03884
 C273 C 0.52257 0.27189 0.00274
 C274 C 0.52210 0.23899 0.00168
 C275 C 0.52035 0.20109 -0.00072
 C276 C 0.51786 0.16930 -0.00379
 H277 H 0.53944 0.29644 0.06762
 H278 H 0.50367 0.33656 -0.06205
 H279 H 0.49908 0.40539 -0.06290
 H280 H 0.53499 0.36527 0.06727
 C281 C -0.35113 0.04075 0.49226
 C282 C -0.32086 0.00369 0.50449
 C283 C -0.33002 -0.03209 0.51525
 C284 C -0.36937 -0.03085 0.51330
 C285 C -0.40016 0.00626 0.50050
 C286 C -0.39053 0.04208 0.49028
 C287 C -0.28061 0.00236 0.50521
 C288 C -0.24700 0.00133 0.50547
 C289 C -0.20777 0.00040 0.50555
 C290 C -0.17438 0.00003 0.50556
 H291 H -0.34436 0.06864 0.48385
 H292 H -0.30682 -0.06094 0.52476
 H293 H -0.37576 -0.05897 0.52134
 H294 H -0.41352 0.07112 0.48027
 C295 C 0.30459 0.04839 0.45997
 C296 C 0.29605 0.01209 0.46885
 C297 C 0.32664 -0.02433 0.47917
 C298 C 0.36576 -0.02460 0.48125
 C299 C 0.37486 0.01165 0.47303
 C300 C 0.34375 0.04822 0.46198
 C301 C 0.25640 0.01178 0.46899
 C302 C 0.22377 0.01040 0.47021
 C303 C 0.18626 0.00750 0.47288
 C304 C 0.15484 0.00395 0.47615
 H305 H 0.28114 0.07676 0.45204
 H306 H 0.32037 -0.05261 0.48619
 H307 H 0.38896 -0.05326 0.48982
 H308 H 0.34978 0.07662 0.45552
 C309 C -0.02988 0.51426 1.33078
 C310 C 0.00628 0.50477 1.32231
 C311 C 0.04291 0.49394 1.35302
 C312 C 0.04347 0.49208 1.39219
 C313 C 0.00732 0.50101 1.40117
 C314 C -0.02940 0.51244 1.36995
 C315 C 0.00600 0.50521 1.28238
 C316 C 0.00633 0.50507 1.24921
 C317 C 0.00736 0.50452 1.21063
 C318 C 0.00878 0.50390 1.17787
 H319 H -0.05841 0.52267 1.30721
 H320 H 0.07107 0.48652 1.34680
 H321 H 0.07225 0.48316 1.41550
 H322 H -0.05774 0.51945 1.37587
 C323 C 0.05031 0.45949 0.69644
 C324 C 0.01433 0.46927 0.70517
 C325 C -0.02250 0.48051 0.67462
 C326 C -0.02345 0.48260 0.63531
 C327 C 0.01253 0.47350 0.62605
 C328 C 0.04945 0.46153 0.65715
 C329 C 0.01501 0.46937 0.74504
 C330 C 0.01488 0.47049 0.77800
 C331 C 0.01376 0.47295 0.81600
 C332 C 0.01179 0.47604 0.84790
 H333 H 0.07898 0.45084 0.71986
 H334 H -0.05053 0.48824 0.68105
 H335 H -0.05235 0.49191 0.61209
 H336 H 0.07767 0.45435 0.65102
   
