data_POSCAR
  _audit_creation_date              2014-09-24
  _audit_creation_method            'ToBaCCo'
  _symmetry_space_group_name_H-M    'P1'
  _symmetry_Int_Tables_number       1
  _symmetry_cell_setting            triclinic
  loop_
  _symmetry_equiv_pos_as_xyz
 x,y,z
_cell_length_a 38.5322
_cell_length_b 38.4336
_cell_length_c 38.5210
_cell_angle_alpha 89.885200
_cell_angle_beta 90.001900
_cell_angle_gamma 90.121900
loop_
  _atom_site_label
  _atom_site_type_symbol
  _atom_site_fract_x
  _atom_site_fract_y
  _atom_site_fract_z
N1 N 0.58363 0.67926 0.61027
 N2 N 0.56996 0.66470 0.63804
 C3 C 0.54189 0.68308 0.64785
 C4 C 0.53788 0.71045 0.62498
 C5 C 0.56465 0.70730 0.60142
 H6 H 0.52563 0.67713 0.66997
 H7 H 0.57011 0.72442 0.57977
 Cu8 Cu 0.59060 0.62345 0.65874
 Cu9 Cu 0.62544 0.66125 0.58811
 Cu10 Cu 0.66225 0.58763 0.62488
 N11 N 0.61118 0.58192 0.67904
 N12 N 0.63952 0.56836 0.66576
 C13 C 0.64906 0.54063 0.68484
 C14 C 0.62537 0.53662 0.71140
 C15 C 0.60157 0.56308 0.70701
 H16 H 0.67166 0.52477 0.67988
 H17 H 0.57926 0.56833 0.72320
 N18 N 0.68149 0.61080 0.58351
 N19 N 0.66773 0.63903 0.56960
 C20 C 0.68677 0.64843 0.54174
 C21 C 0.71349 0.62490 0.53800
 C22 C 0.70946 0.60144 0.56480
 H23 H 0.68150 0.67048 0.52510
 H24 H 0.72568 0.57914 0.57011
 H25 H 0.61857 0.61038 0.60370
 H26 H 0.64607 0.63845 0.63209
 N27 N 0.91640 0.31878 0.11039
 N28 N 0.93034 0.33300 0.13814
 C29 C 0.95836 0.31430 0.14764
 C30 C 0.96202 0.28716 0.12449
 C31 C 0.93505 0.29071 0.10120
 H32 H 0.97499 0.31997 0.16954
 H33 H 0.92938 0.27414 0.07927
 Cu34 Cu 0.90995 0.37438 0.15876
 Cu35 Cu 0.87513 0.33754 0.08810
 Cu36 Cu 0.83853 0.41119 0.12492
 N37 N 0.88957 0.41574 0.17935
 N38 N 0.86123 0.42963 0.16631
 C39 C 0.85212 0.45729 0.18565
 C40 C 0.87608 0.46091 0.21200
 C41 C 0.89953 0.43425 0.20732
 H42 H 0.82987 0.47373 0.18085
 H43 H 0.92203 0.42878 0.22317
 N44 N 0.81963 0.38849 0.08302
 N45 N 0.83345 0.36027 0.06928
 C46 C 0.81470 0.35084 0.04133
 C47 C 0.78801 0.37429 0.03729
 C48 C 0.79180 0.39784 0.06400
 H49 H 0.82004 0.32864 0.02502
 H50 H 0.77534 0.41998 0.06916
 H51 H 0.88200 0.38857 0.10387
 H52 H 0.85427 0.36048 0.13207
 N53 N 0.41580 0.18059 -0.11047
 N54 N 0.42884 0.16679 -0.13883
 C55 C 0.45687 0.18530 -0.14871
 C56 C 0.46161 0.21194 -0.12524
 C57 C 0.43523 0.20826 -0.10127
 H58 H 0.47268 0.17995 -0.17126
 H59 H 0.43044 0.22466 -0.07901
 Cu60 Cu 0.40798 0.12576 -0.15964
 Cu61 Cu 0.37425 0.16198 -0.08807
 Cu62 Cu 0.33716 0.08847 -0.12526
 N63 N 0.38724 0.08467 -0.18043
 N64 N 0.35943 0.07016 -0.16679
 C65 C 0.35056 0.04212 -0.18576
 C66 C 0.37415 0.03893 -0.21249
 C67 C 0.39706 0.06625 -0.20845
 H68 H 0.32884 0.02510 -0.18038
 H69 H 0.41922 0.07210 -0.22468
 N70 N 0.31845 0.11095 -0.08335
 N71 N 0.33224 0.13918 -0.06945
 C72 C 0.31323 0.14844 -0.04160
 C73 C 0.28649 0.12484 -0.03786
 C74 C 0.29048 0.10144 -0.06461
 H75 H 0.31843 0.17055 -0.02507
 H76 H 0.27412 0.07921 -0.07000
 H77 H 0.38108 0.11123 -0.10417
 H78 H 0.35300 0.13945 -0.13178
 N79 N 0.08247 0.81962 0.39035
 N80 N 0.06882 0.83422 0.36263
 C81 C 0.04077 0.81580 0.35270
 C82 C 0.03674 0.78833 0.37547
 C83 C 0.06350 0.79147 0.39909
 H84 H 0.02457 0.82179 0.33057
 H85 H 0.06889 0.77437 0.42075
 Cu86 Cu 0.08957 0.87545 0.34201
 Cu87 Cu 0.12409 0.83793 0.41267
 Cu88 Cu 0.16122 0.91171 0.37580
 N89 N 0.11031 0.91667 0.32139
 N90 N 0.13872 0.93049 0.33442
 C91 C 0.14792 0.95824 0.31506
 C92 C 0.12390 0.96195 0.28874
 C93 C 0.10039 0.93527 0.29345
 H94 H 0.17023 0.97467 0.31984
 H95 H 0.07783 0.92988 0.27764
 N96 N 0.18001 0.88879 0.41766
 N97 N 0.16611 0.86048 0.43140
 C98 C 0.18492 0.85096 0.45931
 C99 C 0.21170 0.87445 0.46333
 C100 C 0.20790 0.89809 0.43664
 H101 H 0.17955 0.82867 0.47563
 H102 H 0.22443 0.92027 0.43145
 H103 H 0.11753 0.88884 0.39709
 H104 H 0.14502 0.86084 0.36881
 C105 C 0.11012 0.15599 0.11117
 C106 C 0.13974 0.14069 0.09665
 C107 C 0.15392 0.11122 0.11167
 C108 C 0.13872 0.09671 0.14143
 C109 C 0.10946 0.11180 0.15576
 C110 C 0.09513 0.14170 0.14059
 C111 C 0.09058 0.18444 0.10187
 N112 N 0.06428 0.18772 0.12502
 C113 C 0.06681 0.16182 0.14882
 C114 C 0.10015 0.09202 0.18411
 N115 N 0.12311 0.06549 0.18723
 C116 C 0.14682 0.06812 0.16136
 C117 C 0.18218 0.10187 0.09201
 N118 N 0.18543 0.12500 0.06557
 C119 C 0.15970 0.14885 0.06814
 H120 H 0.09512 0.20140 0.07988
 H121 H 0.04915 0.15786 0.17033
 H122 H 0.07833 0.09661 0.20116
 H123 H 0.16824 0.05040 0.15736
 H124 H 0.19909 0.07991 0.09662
 H125 H 0.15579 0.17039 0.05043
 C126 C 0.39124 0.84549 0.61064
 C127 C 0.36155 0.86024 0.59561
 C128 C 0.34664 0.88953 0.61021
 C129 C 0.36121 0.90437 0.64013
 C130 C 0.39053 0.88977 0.65489
 C131 C 0.40557 0.86015 0.64012
 C132 C 0.41120 0.81705 0.60219
 N133 N 0.43701 0.81418 0.62595
 C134 C 0.43385 0.84038 0.64924
 C135 C 0.39914 0.90946 0.68337
 N136 N 0.37573 0.93556 0.68627
 C137 C 0.35236 0.93270 0.66009
 C138 C 0.31821 0.89800 0.59026
 N139 N 0.31554 0.87449 0.56419
 C140 C 0.34188 0.85132 0.56718
 H141 H 0.40722 0.79959 0.58053
 H142 H 0.45083 0.84475 0.67118
 H143 H 0.42081 0.90508 0.70068
 H144 H 0.33069 0.95009 0.65588
 H145 H 0.30058 0.91947 0.59446
 H146 H 0.34639 0.82956 0.54999
 C147 C 0.89079 0.65470 0.38894
 C148 C 0.86086 0.63974 0.40354
 C149 C 0.84633 0.61030 0.38872
 C150 C 0.86141 0.59550 0.35912
 C151 C 0.89087 0.61027 0.34476
 C152 C 0.90558 0.64004 0.35969
 C153 C 0.91072 0.68318 0.39767
 N154 N 0.93690 0.68607 0.37429
 C155 C 0.93403 0.65984 0.35100
 C156 C 0.90000 0.59047 0.31653
 N157 N 0.87675 0.56414 0.31344
 C158 C 0.85300 0.56695 0.33925
 C159 C 0.81785 0.60131 0.40832
 N160 N 0.81474 0.62458 0.43454
 C161 C 0.84080 0.64822 0.43187
 H162 H 0.90650 0.70066 0.41926
 H163 H 0.95136 0.65545 0.32935
 H164 H 0.92191 0.59493 0.29952
 H165 H 0.83134 0.54941 0.34324
 H166 H 0.80069 0.57946 0.40382
 H167 H 0.84489 0.66981 0.44942
 C168 C 0.60924 0.34635 -0.11101
 C169 C 0.63900 0.36080 -0.09583
 C170 C 0.65401 0.39033 -0.11000
 C171 C 0.63946 0.40579 -0.13960
 C172 C 0.61005 0.39153 -0.15459
 C173 C 0.59490 0.36155 -0.14027
 C174 C 0.58926 0.31779 -0.10283
 N175 N 0.56336 0.31527 -0.12650
 C176 C 0.56651 0.34185 -0.14952
 C177 C 0.60177 0.41179 -0.18288
 N178 N 0.62550 0.43776 -0.18539
 C179 C 0.64868 0.43439 -0.15912
 C180 C 0.68248 0.39843 -0.09000
 N181 N 0.68503 0.37448 -0.06425
 C182 C 0.65862 0.35135 -0.06753
 H183 H 0.59323 0.30002 -0.08136
 H184 H 0.54943 0.34655 -0.17131
 H185 H 0.58028 0.40788 -0.20056
 H186 H 0.67065 0.45138 -0.15461
 H187 H 0.70016 0.42002 -0.09387
 H188 H 0.65398 0.32933 -0.05059
 C189 C 0.03260 0.24155 0.09573
 C190 C -0.00689 0.23367 0.09599
 C191 C -0.01172 0.26142 0.12438
 C192 C 0.02740 0.26959 0.12417
 C193 C -0.00670 0.23394 0.15305
 C194 C -0.00153 0.20583 0.12467
 C195 C 0.03732 0.21430 0.12445
 C196 C 0.03282 0.24173 0.15288
 H197 H 0.04884 0.24461 0.07214
 H198 H -0.02330 0.23031 0.07255
 H199 H 0.03890 0.29609 0.12402
 H200 H -0.02313 0.23106 0.17656
 H201 H -0.01278 0.17922 0.12485
 H202 H 0.04964 0.24451 0.17610
 C203 C 0.49084 0.78229 0.65484
 C204 C 0.48317 0.74267 0.65438
 C205 C 0.51074 0.73815 0.62580
 C206 C 0.51870 0.77742 0.62623
 C207 C 0.48318 0.74337 0.59736
 C208 C 0.45524 0.74817 0.62592
 C209 C 0.46353 0.78716 0.62630
 C210 C 0.49081 0.78299 0.59771
 H211 H 0.49385 0.79843 0.67850
 H212 H 0.48015 0.72595 0.67772
 H213 H 0.54507 0.78910 0.62638
 H214 H 0.48035 0.72702 0.57381
 H215 H 0.42875 0.73678 0.62584
 H216 H 0.49346 0.80003 0.57457
 C217 C 0.95537 0.75210 0.37453
 C218 C 0.98333 0.75692 0.40313
 C219 C 1.01090 0.76209 0.37468
 C220 C 0.98334 0.75761 0.34607
 C221 C 1.01875 0.72285 0.37427
 C222 C 0.99080 0.71728 0.40277
 C223 C 0.96352 0.71311 0.37416
 C224 C 0.99088 0.71800 0.34564
 H225 H 0.92895 0.76353 0.37460
 H226 H 0.98057 0.77327 0.42668
 H227 H 0.98032 0.77424 0.32268
 H228 H 1.04507 0.71117 0.37411
 H229 H 0.99338 0.70024 0.42592
 H230 H 0.99388 0.70190 0.32195
 C231 C 0.50893 0.28386 -0.15492
 C232 C 0.51632 0.24421 -0.15486
 C233 C 0.48909 0.23944 -0.12594
 C234 C 0.48145 0.27873 -0.12595
 C235 C 0.51710 0.24422 -0.09784
 C236 C 0.54468 0.24930 -0.12675
 C237 C 0.53665 0.28831 -0.12675
 C238 C 0.50976 0.28386 -0.09779
 H239 H 0.50572 0.30026 -0.17844
 H240 H 0.51894 0.22770 -0.17831
 H241 H 0.45515 0.29046 -0.12558
 H242 H 0.52018 0.22760 -0.07445
 H243 H 0.57109 0.23781 -0.12712
 H244 H 0.50760 0.30063 -0.07448
 C245 C 0.12257 -0.00055 0.20571
 C246 C 0.15141 -0.00569 0.23334
 C247 C 0.12326 -0.01053 0.26130
 C248 C 0.09441 -0.00571 0.23403
 C249 C 0.12339 0.02874 0.26904
 C250 C 0.15161 0.03394 0.24078
 C251 C 0.12272 0.03845 0.21385
 C252 C 0.09449 0.03392 0.24152
 H253 H 0.12220 -0.01198 0.17927
 H254 H 0.17471 -0.02233 0.23027
 H255 H 0.07090 -0.02222 0.23134
 H256 H 0.12374 0.04038 0.29538
 H257 H 0.17499 0.05068 0.24304
 H258 H 0.07104 0.05030 0.24473
 C259 C 0.59723 0.49135 -0.21742
 C260 C 0.62558 0.51960 -0.22289
 C261 C 0.62578 0.51119 -0.26194
 C262 C 0.59748 0.48334 -0.25687
 C263 C 0.65453 0.48391 -0.25662
 C264 C 0.65436 0.49199 -0.21718
 C265 C 0.62601 0.46435 -0.21245
 C266 C 0.62622 0.45570 -0.25124
 H267 H 0.57388 0.49388 -0.20076
 H268 H 0.62527 0.54616 -0.21162
 H269 H 0.57413 0.48006 -0.27343
 H270 H 0.67815 0.48084 -0.27281
 H271 H 0.67776 0.49545 -0.20075
 H272 H 0.62652 0.42904 -0.26224
 C273 C 0.37528 1.00151 0.70474
 C274 C 0.34660 1.00613 0.73260
 C275 C 0.37493 1.01131 0.76030
 C276 C 0.40360 1.00697 0.73281
 C277 C 0.37540 0.97202 0.76811
 C278 C 0.34702 0.96648 0.74008
 C279 C 0.37572 0.96249 0.71290
 C280 C 0.40413 0.96734 0.74035
 H281 H 0.37526 1.01305 0.67831
 H282 H 0.32303 1.02244 0.72979
 H283 H 0.42690 1.02376 0.72996
 H284 H 0.37548 0.96026 0.79446
 H285 H 0.32391 0.94937 0.74257
 H286 H 0.42784 0.95130 0.74344
 C287 C 0.84825 0.53265 0.25986
 C288 C 0.87655 0.52764 0.23168
 C289 C 0.87665 0.48834 0.23945
 C290 C 0.84840 0.49300 0.26732
 C291 C 0.90541 0.49317 0.26680
 C292 C 0.90537 0.53281 0.25928
 C293 C 0.87705 0.53715 0.28688
 C294 C 0.87716 0.49814 0.29504
 H295 H 0.82491 0.54937 0.25756
 H296 H 0.87628 0.53942 0.20536
 H297 H 0.82506 0.47630 0.27034
 H298 H 0.92891 0.47675 0.26955
 H299 H 0.92884 0.54928 0.25607
 H300 H 0.87744 0.48665 0.32149
 C301 C 0.20371 0.12449 -0.00028
 C302 C 0.23169 0.15310 -0.00550
 C303 C 0.25923 0.12455 -0.01031
 C304 C 0.23161 0.09594 -0.00540
 C305 C 0.26713 0.12454 0.02886
 C306 C 0.23927 0.15314 0.03403
 C307 C 0.21197 0.12448 0.03861
 C308 C 0.23925 0.09587 0.03412
 H309 H 0.17723 0.12447 -0.01162
 H310 H 0.22891 0.17656 -0.02210
 H311 H 0.22855 0.07242 -0.02178
 H312 H 0.29350 0.12459 0.04045
 H313 H 0.24188 0.17651 0.05071
 H314 H 0.24223 0.07230 0.05052
 C315 C 0.76064 0.59568 0.46610
 C316 C 0.76819 0.59586 0.50564
 C317 C 0.74069 0.62452 0.51031
 C318 C 0.73288 0.62438 0.47113
 C319 C 0.76841 0.65301 0.50534
 C320 C 0.79625 0.62435 0.50038
 C321 C 0.78809 0.62425 0.46146
 C322 C 0.76091 0.65294 0.46579
 H323 H 0.75755 0.57205 0.44989
 H324 H 0.77109 0.57234 0.52213
 H325 H 0.70654 0.62437 0.45946
 H326 H 0.77128 0.67650 0.52180
 H327 H 0.82269 0.62431 0.51180
 H328 H 0.75842 0.67626 0.44895
 C329 C 0.75078 0.37399 -0.04565
 C330 C 0.75584 0.40259 -0.01773
 C331 C 0.76052 0.37404 0.00995
 C332 C 0.75577 0.34544 -0.01761
 C333 C 0.72133 0.37398 0.01765
 C334 C 0.71629 0.40259 -0.01035
 C335 C 0.71186 0.37395 -0.03758
 C336 C 0.71623 0.34533 -0.01017
 H337 H 0.76224 0.37397 -0.07208
 H338 H 0.77244 0.42606 -0.02053
 H339 H 0.77215 0.32191 -0.02052
 H340 H 0.70959 0.37399 0.04396
 H341 H 0.69958 0.42594 -0.00793
 H342 H 0.69984 0.32173 -0.00721
 C343 C 0.28381 0.84558 0.51032
 C344 C 0.24433 0.84554 0.51810
 C345 C 0.23936 0.87421 0.49055
 C346 C 0.27850 0.87432 0.48253
 C347 C 0.24433 0.90270 0.51817
 C348 C 0.24961 0.87402 0.54607
 C349 C 0.28847 0.87412 0.53769
 C350 C 0.28383 0.90285 0.51048
 H351 H 0.30012 0.82205 0.50717
 H352 H 0.22793 0.82197 0.52116
 H353 H 0.29000 0.87446 0.45612
 H354 H 0.22778 0.92611 0.52109
 H355 H 0.23834 0.87391 0.57259
 H356 H 0.30051 0.92628 0.50783
   
