data_POSCAR
  _audit_creation_date              2014-09-24
  _audit_creation_method            'ToBaCCo'
  _symmetry_space_group_name_H-M    'P1'
  _symmetry_Int_Tables_number       1
  _symmetry_cell_setting            triclinic
  loop_
  _symmetry_equiv_pos_as_xyz
 x,y,z
_cell_length_a 64.4824
_cell_length_b 66.4295
_cell_length_c 66.6303
_cell_angle_alpha 90.647700
_cell_angle_beta 90.476200
_cell_angle_gamma 90.330100
loop_
  _atom_site_label
  _atom_site_type_symbol
  _atom_site_fract_x
  _atom_site_fract_y
  _atom_site_fract_z
C1 C 0.21960 0.52071 1.02723
 H2 H 0.21959 0.53323 1.01706
 C3 C 0.20706 0.52145 1.04419
 H4 H 0.19735 0.53451 1.04649
 C5 C 0.23275 0.48903 1.03675
 H6 H 0.24301 0.47654 1.03409
 C7 C 0.22017 0.48894 1.05372
 H8 H 0.22094 0.47618 1.06367
 N9 N 0.23200 0.50459 1.02365
 C10 C 0.27423 0.53150 0.98074
 H11 H 0.27201 0.52126 0.96815
 C12 C 0.28758 0.54799 0.97904
 H13 H 0.29552 0.55041 0.96500
 C14 C 0.26693 0.54039 1.01449
 H15 H 0.25929 0.53707 1.02845
 C16 C 0.27987 0.55727 1.01333
 H17 H 0.28195 0.56689 1.02644
 Zn18 Zn 0.24813 0.50414 0.99974
 N19 N 0.26448 0.52785 0.99835
 C20 C 0.21817 0.52002 0.97361
 N21 N 0.23015 0.50358 0.97692
 C22 C 0.22956 0.48752 0.96405
 C23 C 0.21593 0.48728 0.94762
 C24 C 0.20434 0.52042 0.95740
 C25 C 0.28690 0.48462 0.99892
 C26 C 0.30062 0.46849 0.99823
 C27 C 0.27140 0.44566 0.99939
 C28 C 0.25818 0.46228 0.99979
 N29 N 0.26606 0.48135 0.99946
 H30 H 0.21948 0.53301 0.98341
 H31 H 0.23961 0.47484 0.96640
 H32 H 0.21556 0.47423 0.93774
 H33 H 0.19487 0.53363 0.95525
 H34 H 0.29303 0.49977 0.99904
 H35 H 0.31712 0.47154 0.99772
 H36 H 0.26482 0.43064 0.99956
 H37 H 0.24157 0.45998 1.00033
 C38 C 0.29064 0.56105 0.99552
 C39 C 0.20693 0.50527 1.05764
 C40 C 0.29294 0.44869 0.99842
 C41 C 0.20292 0.50380 0.94424
 C42 C 0.78274 0.50968 -0.02078
 H43 H 0.78452 0.52093 -0.00901
 C44 C 0.79606 0.50974 -0.03717
 H45 H 0.80811 0.52112 -0.03791
 C46 C 0.76492 0.48106 -0.03390
 H47 H 0.75268 0.46999 -0.03257
 C48 C 0.77814 0.48035 -0.05040
 H49 H 0.77592 0.46868 -0.06171
 N50 N 0.76742 0.49562 -0.01954
 C51 C 0.72020 0.52323 0.01813
 H52 H 0.71859 0.51185 0.02951
 C53 C 0.70711 0.53988 0.01824
 H54 H 0.69551 0.54129 0.02982
 C55 C 0.73681 0.53485 -0.01118
 H56 H 0.74800 0.53261 -0.02295
 C57 C 0.72440 0.55203 -0.01131
 H58 H 0.72622 0.56291 -0.02317
 Zn59 Zn 0.75010 0.49655 0.00318
 N60 N 0.73447 0.52081 0.00337
 C61 C 0.76689 0.51101 0.04028
 N62 N 0.76756 0.49591 0.02632
 C63 C 0.78172 0.48088 0.02785
 C64 C 0.79543 0.48029 0.04416
 C65 C 0.78049 0.51116 0.05669
 C66 C 0.71078 0.47791 -0.00086
 C67 C 0.69619 0.46236 -0.00042
 C68 C 0.72392 0.43895 0.00581
 C69 C 0.73799 0.45506 0.00554
 N70 N 0.73123 0.47420 0.00262
 H71 H 0.75610 0.52324 0.03858
 H72 H 0.78285 0.46964 0.01609
 H73 H 0.80664 0.46825 0.04498
 H74 H 0.77972 0.52337 0.06756
 H75 H 0.70562 0.49295 -0.00410
 H76 H 0.67999 0.46579 -0.00299
 H77 H 0.72958 0.42389 0.00844
 H78 H 0.75427 0.45216 0.00772
 C79 C 0.70909 0.55446 0.00333
 C80 C 0.79388 0.49490 -0.05223
 C81 C 0.70266 0.44259 0.00314
 C82 C 0.79498 0.49562 0.05881
 C83 C -0.01137 0.28026 0.47126
 H84 H -0.02408 0.27907 0.48159
 C85 C -0.01246 0.29423 0.45579
 H86 H -0.02627 0.30332 0.45440
 C87 C 0.02224 0.27051 0.46123
 H88 H 0.03607 0.26180 0.46373
 C89 C 0.02184 0.28426 0.44554
 H90 H 0.03533 0.28546 0.43604
 N91 N 0.00568 0.26855 0.47360
 C92 C -0.01374 0.21281 0.49169
 H93 H 0.00166 0.20696 0.48971
 C94 C -0.03053 0.19953 0.49066
 H95 H -0.02772 0.18371 0.48775
 C96 C -0.03611 0.24015 0.49839
 H97 H -0.03824 0.25592 0.50179
 C98 C -0.05337 0.22728 0.49788
 H99 H -0.06865 0.23339 0.50049
 Zn100 Zn 0.00683 0.25050 0.49560
 N101 N -0.01672 0.23282 0.49515
 C102 C -0.00574 0.26287 0.53490
 N103 N 0.00731 0.26632 0.51936
 C104 C 0.02111 0.28185 0.51993
 C105 C 0.02189 0.29497 0.53641
 C106 C -0.00556 0.27571 0.55168
 C107 C 0.03553 0.22428 0.47723
 C108 C 0.05275 0.21171 0.47622
 C109 C 0.06168 0.22152 0.51024
 C110 C 0.04428 0.23396 0.51058
 N111 N 0.03149 0.23496 0.49428
 H112 H -0.01636 0.25023 0.53430
 H113 H 0.03135 0.28418 0.50738
 H114 H 0.03284 0.30738 0.53636
 H115 H -0.01623 0.27286 0.56380
 H116 H 0.02505 0.22521 0.46451
 H117 H 0.05539 0.20312 0.46259
 H118 H 0.07143 0.22068 0.52351
 H119 H 0.04074 0.24242 0.52405
 C120 C -0.05067 0.20671 0.49373
 C121 C 0.00432 0.29645 0.44259
 C122 C 0.06597 0.21000 0.49297
 C123 C 0.00827 0.29214 0.55249
 C124 C 0.97672 0.71640 0.52952
 H125 H 0.96594 0.71561 0.51700
 C126 C 0.97495 0.70282 0.54526
 H127 H 0.96262 0.69169 0.54475
 C128 C 1.00627 0.73153 0.54489
 H129 H 1.01870 0.74248 0.54450
 C130 C 1.00510 0.71822 0.56092
 H131 H 1.01661 0.71927 0.57282
 N132 N 0.99219 0.73040 0.52961
 C133 C 0.97307 0.77874 0.49004
 H134 H 0.98654 0.77933 0.48048
 C135 C 0.95740 0.79296 0.48793
 H136 H 0.95891 0.80440 0.47658
 C137 C 0.95517 0.76330 0.51676
 H138 H 0.95457 0.75197 0.52824
 C139 C 0.93902 0.77715 0.51505
 H140 H 0.92606 0.77622 0.52523
 Zn141 Zn 0.99477 0.74697 0.50684
 N142 N 0.97174 0.76431 0.50428
 C143 C 0.98281 0.73108 0.46865
 N144 N 0.99663 0.72977 0.48411
 C145 C 1.01155 0.71540 0.48424
 C146 C 1.01323 0.70179 0.46823
 C147 C 0.98387 0.71773 0.45235
 C148 C 1.01823 0.77849 0.52338
 C149 C 1.03463 0.79222 0.52515
 C150 C 1.05184 0.77485 0.49799
 C151 C 1.03499 0.76157 0.49660
 N152 N 1.01865 0.76358 0.50924
 H153 H 0.97078 0.74232 0.46902
 H154 H 1.02211 0.71447 0.49690
 H155 H 1.02523 0.69047 0.46869
 H156 H 0.97269 0.71902 0.44024
 H157 H 1.00493 0.77989 0.53307
 H158 H 1.03385 0.80409 0.53638
 H159 H 1.06458 0.77313 0.48765
 H160 H 1.03488 0.74991 0.48518
 C161 C 0.94012 0.79236 0.50060
 C162 C 0.98937 0.70350 0.56118
 C163 C 1.05169 0.79057 0.51228
 C164 C 0.99923 0.70281 0.45200
 C165 C 0.47077 -0.02050 0.27504
 H166 H 0.48272 -0.03188 0.27504
 C167 C 0.45415 -0.02197 0.28825
 H168 H 0.45341 -0.03461 0.29834
 C169 C 0.45775 0.01012 0.26227
 H170 H 0.45941 0.02281 0.25241
 C171 C 0.44098 0.00936 0.27537
 H172 H 0.42975 0.02141 0.27522
 N173 N 0.47218 -0.00473 0.26228
 C174 C 0.51369 -0.02584 0.21525
 H175 H 0.52484 -0.01360 0.21546
 C176 C 0.51567 -0.04158 0.20137
 H177 H 0.52855 -0.04123 0.19105
 C178 C 0.48322 -0.04058 0.22834
 H179 H 0.47035 -0.03993 0.23859
 C180 C 0.48459 -0.05666 0.21473
 H181 H 0.47275 -0.06829 0.21498
 Zn182 Zn 0.49594 -0.00305 0.24587
 N183 N 0.49775 -0.02566 0.22846
 C184 C 0.53419 -0.01602 0.26290
 N185 N 0.51925 -0.00165 0.26330
 C186 C 0.51982 0.01359 0.27707
 C187 C 0.53605 0.01500 0.29102
 C188 C 0.55067 -0.01524 0.27663
 C189 C 0.47891 0.02054 0.21569
 C190 C 0.47726 0.03665 0.20252
 C191 C 0.50810 0.05126 0.21767
 C192 C 0.50915 0.03484 0.23057
 N193 N 0.49458 0.01998 0.22944
 H194 H 0.53320 -0.02830 0.25217
 H195 H 0.50753 0.02461 0.27728
 H196 H 0.53612 0.02725 0.30188
 H197 H 0.56234 -0.02689 0.27611
 H198 H 0.46772 0.00835 0.21492
 H199 H 0.46465 0.03673 0.19169
 H200 H 0.51990 0.06289 0.21878
 H201 H 0.52177 0.03390 0.24127
 C202 C 0.50097 -0.05734 0.20088
 C203 C 0.43905 -0.00682 0.28864
 C204 C 0.49201 0.05230 0.20336
 C205 C 0.55173 0.00040 0.29099
 C206 C 0.53024 -0.01496 0.72275
 H207 H 0.51891 -0.02704 0.72251
 C208 C 0.54697 -0.01551 0.70959
 H209 H 0.54844 -0.02815 0.69931
 C210 C 0.54157 0.01651 0.73602
 H211 H 0.53919 0.02914 0.74607
 C212 C 0.55836 0.01672 0.72290
 H213 H 0.56892 0.02946 0.72323
 N214 N 0.52796 0.00078 0.73574
 C215 C 0.48707 -0.02276 0.78189
 H216 H 0.47543 -0.01110 0.78197
 C217 C 0.48564 -0.03871 0.79527
 H218 H 0.47274 -0.03921 0.80554
 C219 C 0.51824 -0.03584 0.76859
 H220 H 0.53117 -0.03445 0.75851
 C221 C 0.51741 -0.05209 0.78170
 H222 H 0.52968 -0.06314 0.78133
 Zn223 Zn 0.50408 0.00114 0.75206
 N224 N 0.50308 -0.02169 0.76879
 C225 C 0.46620 -0.01323 0.73465
 N226 N 0.48085 0.00159 0.73457
 C227 C 0.48001 0.01676 0.72107
 C228 C 0.46386 0.01757 0.70704
 C229 C 0.44975 -0.01300 0.72088
 C230 C 0.51992 0.02521 0.78311
 C231 C 0.52061 0.04106 0.79702
 C232 C 0.48923 0.05419 0.78218
 C233 C 0.48915 0.03806 0.76854
 N234 N 0.50440 0.02402 0.76921
 H235 H 0.46740 -0.02543 0.74516
 H236 H 0.49205 0.02817 0.72114
 H237 H 0.46358 0.02978 0.69641
 H238 H 0.43833 -0.02501 0.72113
 H239 H 0.53168 0.01366 0.78348
 H240 H 0.53307 0.04161 0.80800
 H241 H 0.47686 0.06511 0.78148
 H242 H 0.47669 0.03661 0.75767
 C243 C 0.50097 -0.05366 0.79532
 C244 C 0.56121 0.00057 0.70945
 C245 C 0.50506 0.05579 0.79675
 C246 C 0.44846 0.00251 0.70676
 C247 C 0.27522 0.01114 0.46900
 H248 H 0.27262 0.02513 0.47701
 C249 C 0.28752 0.01109 0.45188
 H250 H 0.29447 0.02507 0.44705
 C251 C 0.26909 -0.02390 0.46550
 H252 H 0.26175 -0.03749 0.47061
 C253 C 0.28150 -0.02469 0.44841
 H254 H 0.28360 -0.03896 0.44071
 N255 N 0.26648 -0.00621 0.47565
 C256 C 0.23494 0.03266 0.51465
 H257 H 0.24354 0.02918 0.52816
 C258 C 0.22306 0.05016 0.51390
 H259 H 0.22274 0.06007 0.52690
 C260 C 0.22462 0.02372 0.48149
 H261 H 0.22525 0.01322 0.46899
 C262 C 0.21259 0.04105 0.48007
 H263 H 0.20400 0.04373 0.46634
 Zn264 Zn 0.25076 -0.00431 0.49964
 N265 N 0.23539 0.01982 0.49862
 C266 C 0.28446 0.01097 0.52215
 N267 N 0.26916 -0.00321 0.52202
 C268 C 0.26702 -0.01620 0.53753
 C269 C 0.28085 -0.01545 0.55379
 C270 C 0.29856 0.01229 0.53811
 C271 C 0.21137 -0.02245 0.50333
 C272 C 0.19703 -0.03805 0.50547
 C273 C 0.22526 -0.06176 0.50516
 C274 C 0.23913 -0.04563 0.50330
 N275 N 0.23200 -0.02642 0.50212
 H276 H 0.28572 0.02134 0.50986
 H277 H 0.25455 -0.02711 0.53739
 H278 H 0.27891 -0.02600 0.56591
 H279 H 0.31065 0.02365 0.53778
 H280 H 0.20592 -0.00713 0.50280
 H281 H 0.18069 -0.03447 0.50631
 H282 H 0.23123 -0.07693 0.50601
 H283 H 0.25563 -0.04844 0.50302
 C284 C 0.21158 0.05449 0.49646
 C285 C 0.29102 -0.00705 0.44147
 C286 C 0.20389 -0.05803 0.50628
 C287 C 0.29695 -0.00111 0.55418
 C288 C 0.72083 0.01983 0.52600
 H289 H 0.72030 0.03224 0.51573
 C290 C 0.70843 0.02031 0.54307
 H291 H 0.69822 0.03297 0.54548
 C292 C 0.73505 -0.01141 0.53563
 H293 H 0.74567 -0.02362 0.53298
 C294 C 0.72267 -0.01170 0.55274
 H295 H 0.72383 -0.02426 0.56291
 N296 N 0.73365 0.00401 0.52240
 C297 C 0.77499 0.03143 0.47906
 H298 H 0.77252 0.02135 0.46639
 C299 C 0.78816 0.04804 0.47727
 H300 H 0.79572 0.05068 0.46309
 C301 C 0.76842 0.03984 0.51308
 H302 H 0.76105 0.03632 0.52712
 C303 C 0.78128 0.05678 0.51188
 H304 H 0.78358 0.06622 0.52507
 Zn305 Zn 0.74944 0.00374 0.49828
 N306 N 0.76566 0.02750 0.49683
 C307 C 0.71939 0.01979 0.47237
 N308 N 0.73118 0.00322 0.47567
 C309 C 0.73028 -0.01290 0.46288
 C310 C 0.71655 -0.01305 0.44654
 C311 C 0.70545 0.02027 0.45625
 C312 C 0.78826 -0.01568 0.49682
 C313 C 0.80201 -0.03180 0.49619
 C314 C 0.77286 -0.05465 0.49800
 C315 C 0.75960 -0.03806 0.49833
 N316 N 0.76744 -0.01899 0.49771
 H317 H 0.72096 0.03281 0.48209
 H318 H 0.74018 -0.02569 0.46523
 H319 H 0.71595 -0.02614 0.43671
 H320 H 0.69614 0.03360 0.45409
 H321 H 0.79434 -0.00052 0.49667
 H322 H 0.81849 -0.02872 0.49547
 H323 H 0.76631 -0.06968 0.49849
 H324 H 0.74301 -0.04038 0.49915
 C325 C 0.79158 0.06088 0.49387
 C326 C 0.70903 0.00425 0.55656
 C327 C 0.79438 -0.05160 0.49680
 C328 C 0.70374 0.00362 0.44316
 C329 C 0.47588 0.21668 1.02691
 H330 H 0.46513 0.21564 1.01438
 C331 C 0.47430 0.20319 1.04274
 H332 H 0.46215 0.19187 1.04229
 C333 C 0.50516 0.23237 1.04223
 H334 H 0.51739 0.24353 1.04178
 C335 C 0.50417 0.21916 1.05836
 H336 H 0.51564 0.22047 1.07027
 N337 N 0.49112 0.23090 1.02693
 C338 C 0.47133 0.27894 0.98732
 H339 H 0.48471 0.27966 0.97766
 C340 C 0.45556 0.29310 0.98541
 H341 H 0.45690 0.30460 0.97410
 C342 C 0.45378 0.26332 1.01414
 H343 H 0.45336 0.25196 1.02560
 C344 C 0.43753 0.27708 1.01263
 H345 H 0.42469 0.27605 1.02294
 Zn346 Zn 0.49344 0.24734 1.00405
 N347 N 0.47023 0.26448 1.00154
 C348 C 0.48171 0.23132 0.96582
 N349 N 0.49536 0.23002 0.98142
 C350 C 0.51024 0.21561 0.98174
 C351 C 0.51204 0.20194 0.96580
 C352 C 0.48292 0.21792 0.94957
 C353 C 0.51657 0.27940 1.01997
 C354 C 0.53284 0.29330 1.02148
 C355 C 0.55042 0.27529 0.99497
 C356 C 0.53367 0.26188 0.99379
 N357 N 0.51720 0.26413 1.00624
 H358 H 0.46973 0.24262 0.96602
 H359 H 0.52066 0.21470 0.99450
 H360 H 0.52400 0.19059 0.96642
 H361 H 0.47188 0.21921 0.93733
 H362 H 0.50317 0.28097 1.02953
 H363 H 0.53189 0.30547 1.03236
 H364 H 0.56328 0.27338 0.98478
 H365 H 0.53374 0.24991 0.98269
 C366 C 0.43841 0.29236 0.99825
 C367 C 0.48868 0.20420 1.05869
 C368 C 0.55002 0.29140 1.00879
 C369 C 0.49823 0.20295 0.94942
 C370 C 0.48835 0.78325 -0.02679
 H371 H 0.47860 0.78493 -0.01378
 C372 C 0.48663 0.79693 -0.04246
 H373 H 0.47517 0.80875 -0.04147
 C374 C 0.51598 0.76668 -0.04317
 H375 H 0.52775 0.75521 -0.04327
 C376 C 0.51482 0.78006 -0.05915
 H377 H 0.52561 0.77846 -0.07143
 N378 N 0.50274 0.76837 -0.02745
 C379 C 0.48500 0.71371 -0.00075
 H380 H 0.50051 0.70808 0.00130
 C381 C 0.46843 0.70015 -0.00077
 H382 H 0.47150 0.68424 0.00089
 C383 C 0.46205 0.74111 -0.00460
 H384 H 0.45958 0.75706 -0.00606
 C385 C 0.44493 0.72806 -0.00428
 H386 H 0.42945 0.73414 -0.00571
 Zn387 Zn 0.50517 0.75130 -0.00487
 N388 N 0.48168 0.73375 -0.00324
 C389 C 0.49355 0.76513 0.03381
 N390 N 0.50668 0.76799 0.01823
 C391 C 0.52060 0.78343 0.01834
 C392 C 0.52162 0.79688 0.03456
 C393 C 0.49400 0.77827 0.05033
 C394 C 0.53025 0.72137 -0.02199
 C395 C 0.54661 0.70778 -0.02300
 C396 C 0.56223 0.72431 0.00591
 C397 C 0.54527 0.73730 0.00667
 N398 N 0.52957 0.73546 -0.00703
 H399 H 0.48260 0.75275 0.03338
 H400 H 0.53074 0.78541 0.00565
 H401 H 0.53270 0.80918 0.03422
 H402 H 0.48329 0.77583 0.06251
 H403 H 0.51756 0.72016 -0.03267
 H404 H 0.54652 0.69623 -0.03460
 H405 H 0.57435 0.72562 0.01721
 H406 H 0.54442 0.74847 0.01854
 C407 C 0.44810 0.70726 -0.00276
 C408 C 0.50003 0.79550 -0.05891
 C409 C 0.56273 0.70902 -0.00878
 C410 C 0.50808 0.79450 0.05079
 C411 C 1.03107 0.48563 0.22513
 H412 H 1.02050 0.47294 0.22559
 C413 C 1.04767 0.48541 0.21183
 H414 H 1.04981 0.47243 0.20211
 C415 C 1.04061 0.51823 0.23685
 H416 H 1.03756 0.53113 0.24637
 C417 C 1.05719 0.51880 0.22351
 H418 H 1.06698 0.53209 0.22311
 N419 N 1.02800 0.50176 0.23746
 C420 C 0.98810 0.47647 0.28342
 H421 H 0.97565 0.48730 0.28298
 C422 C 0.98727 0.46050 0.29682
 H423 H 0.97402 0.45917 0.30660
 C424 C 1.02067 0.46550 0.27140
 H425 H 1.03387 0.46775 0.26181
 C426 C 1.02050 0.44931 0.28462
 H427 H 1.03354 0.43912 0.28480
 Zn428 Zn 1.00440 0.50135 0.25414
 N429 N 1.00451 0.47857 0.27093
 C430 C 0.96828 0.48433 0.23590
 N431 N 0.98089 0.50080 0.23695
 C432 C 0.97785 0.51680 0.22475
 C433 C 0.96126 0.51689 0.21116
 C434 C 0.95168 0.48364 0.22230
 C435 C 1.02041 0.52615 0.28441
 C436 C 1.02103 0.54196 0.29837
 C437 C 0.98813 0.55346 0.28535
 C438 C 0.98814 0.53739 0.27164
 N439 N 1.00420 0.52420 0.27135
 H440 H 0.97131 0.47150 0.24528
 H441 H 0.98843 0.52949 0.22555
 H442 H 0.95914 0.52978 0.20158
 H443 H 0.94188 0.47036 0.22161
 H444 H 1.03280 0.51525 0.28407
 H445 H 1.03407 0.54313 0.30865
 H446 H 0.97513 0.56370 0.28543
 H447 H 0.97510 0.53527 0.26154
 C448 C 1.00364 0.44666 0.29758
 C449 C 1.06090 0.50222 0.21080
 C450 C 1.00470 0.55586 0.29903
 C451 C 0.94799 0.50009 0.20973
 C452 C -0.03125 0.47829 0.77673
 H453 H -0.01987 0.46639 0.77625
 C454 C -0.04763 0.47728 0.79026
 H455 H -0.04881 0.46446 0.80010
 C456 C -0.04295 0.50984 0.76503
 H457 H -0.04081 0.52271 0.75549
 C458 C -0.05937 0.50960 0.77856
 H459 H -0.06992 0.52222 0.77905
 N460 N -0.02930 0.49431 0.76435
 C461 C 0.01199 0.47248 0.71741
 H462 H 0.02333 0.48455 0.71773
 C463 C 0.01395 0.45664 0.70365
 H464 H 0.02695 0.45664 0.69347
 C465 C -0.01893 0.45823 0.73012
 H466 H -0.03196 0.45912 0.74016
 C467 C -0.01757 0.44207 0.71659
 H468 H -0.02953 0.43056 0.71658
 Zn469 Zn -0.00565 0.49561 0.74778
 N470 N -0.00414 0.47292 0.73041
 C471 C 0.03254 0.48235 0.76485
 N472 N 0.01772 0.49685 0.76513
 C473 C 0.01847 0.51225 0.77872
 C474 C 0.03476 0.51370 0.79259
 C475 C 0.04909 0.48318 0.77852
 C476 C -0.02269 0.51953 0.71783
 C477 C -0.02419 0.53567 0.70468
 C478 C 0.00724 0.54958 0.71931
 C479 C 0.00813 0.53315 0.73219
 N480 N -0.00680 0.51862 0.73132
 H481 H 0.03140 0.46994 0.75429
 H482 H 0.00628 0.52336 0.77884
 H483 H 0.03498 0.52609 0.80328
 H484 H 0.06066 0.47144 0.77810
 H485 H -0.03419 0.50760 0.71727
 H486 H -0.03698 0.53604 0.69407
 H487 H 0.01933 0.56094 0.72021
 H488 H 0.02092 0.53193 0.74267
 C489 C -0.00096 0.44113 0.70309
 C490 C -0.06182 0.49319 0.79145
 C491 C -0.00907 0.55098 0.70527
 C492 C 0.05034 0.49900 0.79267
 C493 C 0.11434 0.16795 0.49254
 N494 N 0.11062 0.17927 0.50920
 N495 N 0.09551 0.19287 0.50925
 C496 C 0.08351 0.19567 0.49265
 N497 N 0.08741 0.18442 0.47596
 N498 N 0.10252 0.17084 0.47590
 C499 C 0.13026 0.15223 0.49273
 N500 N 0.13330 0.14047 0.47623
 N501 N 0.14705 0.12560 0.47659
 C502 C 0.15828 0.12193 0.49347
 N503 N 0.15535 0.13378 0.50994
 N504 N 0.14158 0.14866 0.50957
 C505 C 0.17274 0.10495 0.49406
 N506 N 0.18367 0.10086 0.51102
 N507 N 0.19618 0.08498 0.51172
 C508 C 0.19825 0.07257 0.49551
 N509 N 0.18737 0.07680 0.47853
 N510 N 0.17488 0.09266 0.47782
 C511 C 0.66719 0.60227 0.00006
 N512 N 0.66120 0.58414 0.00725
 N513 N 0.67465 0.56908 0.00858
 C514 C 0.69455 0.57149 0.00252
 N515 N 0.70054 0.58963 -0.00476
 N516 N 0.68714 0.60479 -0.00584
 C517 C 0.65211 0.61860 -0.00171
 N518 N 0.65838 0.63812 -0.00270
 N519 N 0.64449 0.65285 -0.00416
 C520 C 0.62389 0.64852 -0.00497
 N521 N 0.61767 0.62900 -0.00413
 N522 N 0.63152 0.61433 -0.00240
 C523 C 0.60842 0.66453 -0.00661
 N524 N 0.58904 0.66017 -0.01349
 N525 N 0.57470 0.67445 -0.01454
 C526 C 0.57910 0.69361 -0.00853
 N527 N 0.59851 0.69798 -0.00160
 N528 N 0.61296 0.68373 -0.00079
 C529 C 0.89440 -0.16303 0.49708
 N530 N 0.89102 -0.17997 0.50782
 N531 N 0.90545 -0.19422 0.50885
 C532 C 0.92377 -0.19212 0.49911
 N533 N 0.92702 -0.17521 0.48828
 N534 N 0.91265 -0.16093 0.48733
 C535 C 0.87889 -0.14693 0.49638
 N536 N 0.88365 -0.12902 0.48793
 N537 N 0.86989 -0.11416 0.48765
 C538 C 0.85080 -0.11668 0.49571
 N539 N 0.84596 -0.13465 0.50406
 N540 N 0.85979 -0.14950 0.50444
 C541 C 0.83592 -0.10002 0.49571
 N542 N 0.81603 -0.10282 0.50165
 N543 N 0.80274 -0.08751 0.50185
 C544 C 0.80888 -0.06880 0.49625
 N545 N 0.82880 -0.06608 0.49031
 N546 N 0.84203 -0.08138 0.49000
 C547 C 0.33436 0.40020 0.99624
 N548 N 0.34051 0.41895 0.99094
 N549 N 0.32732 0.43428 0.99163
 C550 C 0.30742 0.43148 0.99755
 N551 N 0.30123 0.41266 1.00275
 N552 N 0.31448 0.39732 1.00217
 C553 C 0.34918 0.38350 0.99576
 N554 N 0.34437 0.36537 1.00377
 N555 N 0.35815 0.35047 1.00371
 C556 C 0.37718 0.35315 0.99553
 N557 N 0.38191 0.37124 0.98742
 N558 N 0.36820 0.38614 0.98758
 C559 C 0.39266 0.33701 0.99578
 N560 N 0.41081 0.33924 0.98586
 N561 N 0.42517 0.32494 0.98646
 C562 C 0.42203 0.30787 0.99707
 N563 N 0.40382 0.30564 1.00696
 N564 N 0.38938 0.31991 1.00629
 C565 C 0.89910 0.16634 0.49115
 N566 N 0.89743 0.18415 0.50122
 N567 N 0.91328 0.19712 0.50187
 C568 C 0.93145 0.19269 0.49265
 N569 N 0.93303 0.17488 0.48259
 N570 N 0.91715 0.16200 0.48180
 C571 C 0.88194 0.15171 0.49069
 N572 N 0.88266 0.13548 0.47816
 N573 N 0.86752 0.12177 0.47809
 C574 C 0.85117 0.12368 0.49064
 N575 N 0.85041 0.13994 0.50316
 N576 N 0.86549 0.15375 0.50313
 C577 C 0.83505 0.10800 0.49106
 N578 N 0.82083 0.10759 0.50597
 N579 N 0.80685 0.09277 0.50676
 C580 C 0.80648 0.07786 0.49262
 N581 N 0.82059 0.07844 0.47761
 N582 N 0.83464 0.09317 0.47689
 C583 C 0.33452 0.60779 -0.00671
 N584 N 0.31896 0.60843 0.00687
 N585 N 0.30485 0.59370 0.00747
 C586 C 0.30569 0.57787 -0.00560
 N587 N 0.32115 0.57740 -0.01931
 N588 N 0.33533 0.59202 -0.01980
 C589 C 0.35075 0.62337 -0.00680
 N590 N 0.36863 0.62014 -0.01690
 N591 N 0.38377 0.63385 -0.01649
 C592 C 0.38153 0.65138 -0.00611
 N593 N 0.36357 0.65473 0.00386
 N594 N 0.34848 0.64092 0.00360
 C595 C 0.39858 0.66611 -0.00533
 N596 N 0.39548 0.68529 0.00120
 N597 N 0.41115 0.69848 0.00193
 C598 C 0.43054 0.69288 -0.00363
 N599 N 0.43357 0.67368 -0.01009
 N600 N 0.41790 0.66058 -0.01101
 C601 C 0.09950 -0.16627 0.51409
 N602 N 0.08147 -0.16303 0.52395
 N603 N 0.06645 -0.17686 0.52360
 C604 C 0.06878 -0.19445 0.51329
 N605 N 0.08688 -0.19769 0.50347
 N606 N 0.10197 -0.18389 0.50390
 C607 C 0.11571 -0.15064 0.51394
 N608 N 0.13454 -0.15435 0.50575
 N609 N 0.14897 -0.13992 0.50517
 C610 C 0.14504 -0.12124 0.51267
 N611 N 0.12623 -0.11758 0.52089
 N612 N 0.11185 -0.13202 0.52157
 C613 C 0.16056 -0.10505 0.51144
 N614 N 0.15530 -0.08580 0.51603
 N615 N 0.16911 -0.07094 0.51446
 C616 C 0.18876 -0.07472 0.50834
 N617 N 0.19406 -0.09403 0.50389
 N618 N 0.18020 -0.10890 0.50535
 C619 C 0.65860 0.39605 1.00655
 N620 N 0.65291 0.41557 1.00875
 N621 N 0.66693 0.43029 1.00758
 C622 C 0.68721 0.42609 1.00427
 N623 N 0.69291 0.40652 1.00215
 N624 N 0.67885 0.39177 1.00319
 C625 C 0.64296 0.37995 1.00769
 N626 N 0.64750 0.36075 1.00216
 N627 N 0.63305 0.34634 1.00285
 C628 C 0.61360 0.35060 1.00924
 N629 N 0.60912 0.36977 1.01488
 N630 N 0.62351 0.38418 1.01406
 C631 C 0.59746 0.33493 1.00967
 N632 N 0.57895 0.33870 1.01846
 N633 N 0.56403 0.32476 1.01842
 C634 C 0.56696 0.30653 1.00948
 N635 N 0.58552 0.30276 1.00072
 N636 N 0.60051 0.31667 1.00086
 C637 C 0.48900 0.10000 1.16260
 N638 N 0.47456 0.08506 1.16209
 N639 N 0.47545 0.07002 1.17511
 C640 C 0.49081 0.06930 1.18917
 N641 N 0.50521 0.08432 1.18969
 N642 N 0.50433 0.09938 1.17666
 C643 C 0.48829 0.11629 1.14788
 N644 N 0.50289 0.13109 1.14811
 N645 N 0.50250 0.14557 1.13443
 C646 C 0.48748 0.14576 1.12002
 N647 N 0.47284 0.13100 1.11985
 N648 N 0.47322 0.11654 1.13353
 C649 C 0.48740 0.16134 1.10454
 N650 N 0.47278 0.16107 1.08977
 N651 N 0.47306 0.17481 1.07536
 C652 C 0.48794 0.18937 1.07515
 N653 N 0.50248 0.18966 1.09004
 N654 N 0.50222 0.17592 1.10445
 C655 C -0.01247 0.66037 0.60677
 N656 N 0.00257 0.67474 0.60673
 N657 N 0.00301 0.68857 0.59240
 C658 C -0.01156 0.68857 0.57754
 N659 N -0.02667 0.67422 0.57770
 N660 N -0.02712 0.66040 0.59203
 C661 C -0.01257 0.64472 0.62217
 N662 N -0.02745 0.63017 0.62200
 N663 N -0.02723 0.61565 0.63563
 C664 C -0.01211 0.61512 0.64991
 N665 N 0.00272 0.62971 0.65014
 N666 N 0.00250 0.64425 0.63651
 C667 C -0.01157 0.59878 0.66458
 N668 N 0.00385 0.59788 0.67853
 N669 N 0.00457 0.58280 0.69152
 C670 C -0.01009 0.56801 0.69109
 N671 N -0.02555 0.56901 0.67716
 N672 N -0.02628 0.58408 0.66416
 C673 C 0.49865 0.89915 -0.16333
 N674 N 0.51388 0.89989 -0.17725
 N675 N 0.51454 0.91479 -0.19045
 C676 C 0.50001 0.92953 -0.19027
 N677 N 0.48474 0.92868 -0.17636
 N678 N 0.48408 0.91380 -0.16314
 C679 C 0.49819 0.88302 -0.14844
 N680 N 0.48345 0.88281 -0.13401
 N681 N 0.48331 0.86847 -0.12020
 C682 C 0.49787 0.85380 -0.12033
 N683 N 0.51256 0.85395 -0.13482
 N684 N 0.51272 0.86831 -0.14862
 C685 C 0.49805 0.83832 -0.10476
 N686 N 0.51259 0.82363 -0.10488
 N687 N 0.51308 0.80992 -0.09045
 C688 C 0.49907 0.81037 -0.07532
 N689 N 0.48448 0.82505 -0.07530
 N690 N 0.48397 0.83875 -0.08974
 C691 C 1.00302 0.33883 0.39777
 N692 N 0.98664 0.33657 0.41020
 N693 N 0.98701 0.32281 0.42458
 C694 C 1.00378 0.31074 0.42715
 N695 N 1.02012 0.31303 0.41458
 N696 N 1.01975 0.32678 0.40019
 C697 C 1.00280 0.35432 0.38221
 N698 N 1.01924 0.35670 0.36984
 N699 N 1.01920 0.37102 0.35600
 C700 C 1.00271 0.38349 0.35404
 N701 N 0.98624 0.38106 0.36636
 N702 N 0.98629 0.36673 0.38019
 C703 C 1.00281 0.39957 0.33910
 N704 N 0.98656 0.41237 0.33761
 N705 N 0.98679 0.42722 0.32435
 C706 C 1.00327 0.42987 0.31205
 N707 N 1.01949 0.41698 0.31354
 N708 N 1.01927 0.40213 0.32681
 C709 C 0.50494 0.89673 0.15884
 N710 N 0.48943 0.89690 0.17247
 N711 N 0.48821 0.91166 0.18611
 C712 C 0.50245 0.92685 0.18671
 N713 N 0.51802 0.92652 0.17307
 N714 N 0.51924 0.91179 0.15941
 C715 C 0.50603 0.88079 0.14344
 N716 N 0.52106 0.88121 0.12929
 N717 N 0.52179 0.86705 0.11500
 C718 C 0.50754 0.85193 0.11435
 N719 N 0.49256 0.85145 0.12855
 N720 N 0.49182 0.86563 0.14283
 C721 C 0.50804 0.83666 0.09824
 N722 N 0.49390 0.82145 0.09756
 N723 N 0.49405 0.80794 0.08262
 C724 C 0.50831 0.80913 0.06777
 N725 N 0.52249 0.82433 0.06856
 N726 N 0.52237 0.83782 0.08350
 C727 C 0.00737 0.33389 0.60028
 N728 N 0.02198 0.33512 0.58581
 N729 N 0.02238 0.32174 0.57080
 C730 C 0.00821 0.30654 0.56966
 N731 N -0.00634 0.30525 0.58425
 N732 N -0.00676 0.31867 0.59927
 C733 C 0.00660 0.34913 0.61640
 N734 N -0.00863 0.34871 0.63035
 N735 N -0.00959 0.36294 0.64458
 C736 C 0.00464 0.37809 0.64536
 N737 N 0.01990 0.37843 0.63146
 N738 N 0.02086 0.36423 0.61724
 C739 C 0.00336 0.39412 0.66066
 N740 N 0.01765 0.40919 0.66125
 N741 N 0.01633 0.42401 0.67479
 C742 C 0.00065 0.42438 0.68829
 N743 N -0.01361 0.40923 0.68771
 N744 N -0.01228 0.39439 0.67416
 C745 C 0.50463 0.10198 0.84032
 N746 N 0.51974 0.08785 0.84038
 N747 N 0.51997 0.07333 0.82644
 C748 C 0.50509 0.07232 0.81190
 N749 N 0.49002 0.08655 0.81183
 N750 N 0.48979 0.10109 0.82576
 C751 C 0.50413 0.11765 0.85603
 N752 N 0.48897 0.13176 0.85615
 N753 N 0.48830 0.14569 0.87068
 C754 C 0.50275 0.14600 0.88563
 N755 N 0.51793 0.13193 0.88547
 N756 N 0.51861 0.11802 0.87093
 C757 C 0.50178 0.16103 0.90192
 N758 N 0.51583 0.16082 0.91719
 N759 N 0.51476 0.17419 0.93218
 C760 C 0.49960 0.18831 0.93252
 N761 N 0.48560 0.18853 0.91717
 N762 N 0.48665 0.17515 0.90217
 C763 C 1.00222 0.66094 0.40440
 N764 N 0.98685 0.67480 0.40506
 N765 N 0.98597 0.68817 0.42008
 C766 C 1.00041 0.68820 0.43506
 N767 N 1.01581 0.67434 0.43432
 N768 N 1.01671 0.66099 0.41929
 C769 C 1.00300 0.64592 0.38809
 N770 N 1.01854 0.63225 0.38740
 N771 N 1.01907 0.61835 0.37285
 C772 C 1.00406 0.61760 0.35845
 N773 N 0.98853 0.63131 0.35910
 N774 N 0.98802 0.64523 0.37365
 C775 C 1.00443 0.60195 0.34272
 N776 N 0.98900 0.60055 0.32878
 N777 N 0.98915 0.58603 0.31481
 C778 C 1.00474 0.57235 0.31423
 N779 N 1.02020 0.57387 0.32815
 N780 N 1.02005 0.58836 0.34212
 C781 C 1.16742 0.50514 0.10606
 N782 N 1.17922 0.48882 0.10182
 N783 N 1.19218 0.48896 0.08635
 C784 C 1.19373 0.50534 0.07437
 N785 N 1.18189 0.52166 0.07874
 N786 N 1.16905 0.52160 0.09430
 C787 C 1.15267 0.50483 0.12273
 N788 N 1.14320 0.52201 0.12886
 N789 N 1.12935 0.52165 0.14358
 C790 C 1.12434 0.50407 0.15259
 N791 N 1.13382 0.48690 0.14648
 N792 N 1.14779 0.48728 0.13186
 C793 C 1.10844 0.50357 0.16823
 N794 N 1.10033 0.48577 0.17429
 N795 N 1.08534 0.48534 0.18792
 C796 C 1.07799 0.50267 0.19613
 N797 N 1.08627 0.52046 0.19017
 N798 N 1.10115 0.52091 0.17643
 C799 C 0.60921 0.00140 0.66733
 N800 N 0.59939 -0.01610 0.67178
 N801 N 0.58426 -0.01639 0.68527
 C802 C 0.57846 0.00077 0.69493
 N803 N 0.58845 0.01823 0.69058
 N804 N 0.60348 0.01855 0.67699
 C805 C 0.62529 0.00186 0.65185
 N806 N 0.63246 0.01969 0.64485
 N807 N 0.64647 0.02013 0.63028
 C808 C 0.65393 0.00277 0.62227
 N809 N 0.64689 -0.01506 0.62939
 N810 N 0.63277 -0.01550 0.64388
 C811 C 0.66882 0.00326 0.60573
 N812 N 0.67818 -0.01386 0.59929
 N813 N 0.69119 -0.01349 0.58387
 C814 C 0.69525 0.00398 0.57421
 N815 N 0.68590 0.02110 0.58072
 N816 N 0.67300 0.02076 0.59622
 C817 C -0.16570 0.49412 0.89875
 N818 N -0.17639 0.47728 0.90381
 N819 N -0.18936 0.47756 0.91928
 C820 C -0.19201 0.49462 0.93038
 N821 N -0.18127 0.51143 0.92529
 N822 N -0.16842 0.51121 0.90974
 C823 C -0.15116 0.49383 0.88191
 N824 N -0.14305 0.51127 0.87492
 N825 N -0.12954 0.51105 0.85991
 C826 C -0.12352 0.49337 0.85143
 N827 N -0.13163 0.47592 0.85842
 N828 N -0.14527 0.47615 0.87334
 C829 C -0.10808 0.49317 0.83536
 N830 N -0.09896 0.47571 0.82955
 N831 N -0.08440 0.47567 0.81548
 C832 C -0.07851 0.49307 0.80657
 N833 N -0.08780 0.51049 0.81229
 N834 N -0.10225 0.51055 0.82646
 C835 C 0.39106 -0.00840 0.33081
 N836 N 0.39479 0.00849 0.32013
 N837 N 0.40984 0.00889 0.30656
 C838 C 0.42182 -0.00755 0.30319
 N839 N 0.41799 -0.02446 0.31386
 N840 N 0.40289 -0.02490 0.32738
 C841 C 0.37496 -0.00858 0.34627
 N842 N 0.37014 -0.02582 0.35598
 N843 N 0.35600 -0.02580 0.37046
 C844 C 0.34624 -0.00852 0.37580
 N845 N 0.35102 0.00870 0.36604
 N846 N 0.36508 0.00866 0.35150
 C847 C 0.33130 -0.00827 0.39232
 N848 N 0.32381 0.00944 0.39944
 N849 N 0.31086 0.00979 0.41490
 C850 C 0.30482 -0.00755 0.42382
 N851 N 0.31221 -0.02529 0.41655
 N852 N 0.32524 -0.02564 0.40113
 C853 C 0.15964 0.50330 0.89677
 N854 N 0.16091 0.51921 0.90967
 N855 N 0.17475 0.51941 0.92462
 C856 C 0.18787 0.50371 0.92728
 N857 N 0.18660 0.48782 0.91429
 N858 N 0.17276 0.48761 0.89932
 C859 C 0.14402 0.50294 0.88059
 N860 N 0.14264 0.48710 0.86758
 N861 N 0.12815 0.48666 0.85319
 C862 C 0.11453 0.50205 0.85130
 N863 N 0.11596 0.51791 0.86427
 N864 N 0.13044 0.51835 0.87864
 C865 C 0.09822 0.50142 0.83578
 N866 N 0.08411 0.51644 0.83456
 N867 N 0.06902 0.51571 0.82080
 C868 C 0.06744 0.49996 0.80768
 N869 N 0.08166 0.48499 0.80887
 N870 N 0.09674 0.48569 0.82265
 C871 C 0.59931 0.00240 0.33443
 N872 N 0.59796 -0.01317 0.32111
 N873 N 0.58297 -0.01372 0.30721
 C874 C 0.56873 0.00124 0.30612
 N875 N 0.57018 0.01683 0.31944
 N876 N 0.58517 0.01741 0.33331
 C877 C 0.61551 0.00285 0.35006
 N878 N 0.61690 0.01857 0.36320
 N879 N 0.63131 0.01885 0.37764
 C880 C 0.64486 0.00340 0.37949
 N881 N 0.64352 -0.01231 0.36632
 N882 N 0.62911 -0.01257 0.35185
 C883 C 0.66043 0.00357 0.39571
 N884 N 0.67348 -0.01219 0.39818
 N885 N 0.68731 -0.01214 0.41316
 C886 C 0.68865 0.00368 0.42624
 N887 N 0.67560 0.01945 0.42367
 N888 N 0.66176 0.01939 0.40872
 C889 C 0.83816 0.49639 0.10628
 N890 N 0.83436 0.47918 0.09568
 N891 N 0.82057 0.47891 0.08067
 C892 C 0.80996 0.49579 0.07577
 N893 N 0.81369 0.51295 0.08651
 N894 N 0.82757 0.51327 0.10144
 C895 C 0.85380 0.49687 0.12243
 N896 N 0.86011 0.51467 0.13070
 N897 N 0.87469 0.51517 0.14498
 C898 C 0.88339 0.49789 0.15161
 N899 N 0.87698 0.48008 0.14344
 N900 N 0.86249 0.47958 0.12906
 C901 C 0.89978 0.49849 0.16704
 N902 N 0.90660 0.48127 0.17558
 N903 N 0.92175 0.48181 0.18930
 C904 C 0.93076 0.49956 0.19491
 N905 N 0.92389 0.51677 0.18634
 N906 N 0.90865 0.51626 0.17272
 C907 C 0.40108 0.00277 0.66313
 N908 N 0.41596 0.01730 0.66345
 N909 N 0.43088 0.01729 0.67739
 C910 C 0.43154 0.00275 0.69156
 N911 N 0.41656 -0.01174 0.69125
 N912 N 0.40162 -0.01173 0.67731
 C913 C 0.38495 0.00257 0.64744
 N914 N 0.37002 -0.01194 0.64698
 N915 N 0.35566 -0.01231 0.63248
 C916 C 0.35572 0.00181 0.61790
 N917 N 0.37061 0.01634 0.61840
 N918 N 0.38495 0.01672 0.63290
 C919 C 0.34021 0.00122 0.60164
 N920 N 0.34087 0.01493 0.58672
 N921 N 0.32708 0.01423 0.57174
 C922 C 0.31205 -0.00019 0.57107
 N923 N 0.31138 -0.01387 0.58608
 N924 N 0.32520 -0.01319 0.60106
   
