data_POSCAR
  _audit_creation_date              2014-09-24
  _audit_creation_method            'ToBaCCo'
  _symmetry_space_group_name_H-M    'P1'
  _symmetry_Int_Tables_number       1
  _symmetry_cell_setting            triclinic
  loop_
  _symmetry_equiv_pos_as_xyz
 x,y,z
_cell_length_a 30.5994
_cell_length_b 30.7395
_cell_length_c 52.9938
_cell_angle_alpha 89.517600
_cell_angle_beta 93.382900
_cell_angle_gamma 85.943900
loop_
  _atom_site_label
  _atom_site_type_symbol
  _atom_site_fract_x
  _atom_site_fract_y
  _atom_site_fract_z
C1 C 0.02368 0.36229 0.98800
 C2 C 0.02594 0.36114 1.01388
 C3 C 0.01703 0.40369 1.02183
 N4 N 0.00873 0.43046 1.00146
 C5 C 0.01309 0.40530 0.98081
 C6 C 0.01105 0.41628 1.04721
 C7 C 0.00198 0.46050 1.05419
 C8 C -0.01322 0.47414 1.07724
 C9 C -0.01467 0.51879 1.07718
 C10 C 0.00130 0.53173 1.05456
 N11 N 0.01105 0.49601 1.04056
 C12 C 0.00796 0.57560 1.04783
 C13 C 0.01370 0.58826 1.02249
 C14 C 0.02938 0.62744 1.01510
 C15 C 0.02713 0.62820 0.98922
 C16 C 0.01111 0.58911 0.98160
 N17 N 0.00288 0.56468 1.00191
 C18 C 0.00193 0.57780 0.95621
 C19 C -0.00522 0.53489 0.94861
 C20 C -0.02136 0.52347 0.92477
 C21 C -0.02055 0.47867 0.92457
 C22 C -0.00405 0.46405 0.94832
 N23 N 0.00551 0.49852 0.96278
 C24 C 0.00397 0.41976 0.95555
 H25 H 0.02803 0.33435 0.97587
 H26 H 0.03172 0.33178 1.02530
 H27 H 0.02281 0.49721 0.98027
 H28 H -0.02192 0.45450 1.09291
 H29 H -0.02581 0.53926 1.09236
 H30 H 0.04130 0.65291 1.02708
 H31 H 0.03657 0.65435 0.97734
 H32 H -0.03063 0.45909 0.90867
 H33 H 0.02778 0.49568 1.02404
 H34 H -0.03213 0.54511 0.90906
 C35 C 0.36813 -0.02677 0.51098
 C36 C 0.36751 -0.02983 0.48516
 C37 C 0.40704 -0.01574 0.47795
 N38 N 0.43187 -0.00449 0.49845
 C39 C 0.40815 -0.01126 0.51866
 C40 C 0.41797 -0.00948 0.45273
 C41 C 0.46038 0.00028 0.44625
 C42 C 0.46983 0.01817 0.42330
 C43 C 0.51443 0.02141 0.42410
 C44 C 0.53123 0.00481 0.44743
 N45 N 0.49793 -0.00783 0.46088
 C46 C 0.57645 0.00095 0.45553
 C47 C 0.59068 -0.00544 0.48134
 C48 C 0.63288 -0.02008 0.49003
 C49 C 0.63365 -0.01982 0.51590
 C50 C 0.59188 -0.00525 0.52221
 N51 N 0.56555 0.00341 0.50107
 C52 C 0.57940 0.00240 0.54712
 C53 C 0.53519 0.01007 0.55306
 C54 C 0.52138 0.02748 0.57554
 C55 C 0.47642 0.02665 0.57456
 C56 C 0.46411 0.00863 0.55154
 N57 N 0.50015 -0.00144 0.53858
 C58 C 0.42081 -0.00047 0.54372
 H59 H 0.34198 -0.03466 0.52275
 H60 H 0.34069 -0.04049 0.47306
 H61 H 0.50140 -0.01965 0.52216
 H62 H 0.44690 0.02834 0.40767
 H63 H 0.53233 0.03484 0.40921
 H64 H 0.66024 -0.03020 0.47889
 H65 H 0.66175 -0.02937 0.52859
 H66 H 0.45529 0.03763 0.58925
 H67 H 0.50107 -0.02487 0.47802
 H68 H 0.54161 0.03928 0.59111
 C69 C 0.06014 -0.00035 0.26362
 H70 H 0.06395 0.00086 0.24346
 C71 C 0.09681 0.00145 0.28049
 H72 H 0.12887 0.00401 0.27321
 C73 C 0.01340 -0.00318 0.29761
 H74 H -0.01920 -0.00427 0.30425
 C75 C 0.04905 -0.00108 0.31511
 H76 H 0.04358 -0.00139 0.33512
 N77 N 0.01949 -0.00287 0.27240
 C78 C -0.06287 -0.05574 0.21188
 H79 H -0.09112 -0.03262 0.21251
 C80 C -0.06317 -0.08963 0.19457
 H81 H -0.09218 -0.09270 0.18218
 C82 C 0.00892 -0.07978 0.22765
 H83 H 0.03692 -0.07584 0.24059
 C84 C 0.01018 -0.11403 0.21045
 H85 H 0.03964 -0.13564 0.21011
 Zn86 Zn -0.02955 -0.00173 0.24885
 N87 N -0.02693 -0.05097 0.22765
 C88 C -0.02343 0.04599 0.20361
 N89 N -0.02884 0.04960 0.22883
 C90 C -0.03130 0.08926 0.24010
 C91 C -0.03043 0.12743 0.22566
 C92 C -0.02137 0.08319 0.18860
 C93 C -0.08878 -0.04057 0.27837
 C94 C -0.12546 -0.04349 0.29260
 C95 C -0.14784 0.03148 0.28139
 C96 C -0.11117 0.03271 0.26697
 N97 N -0.08192 -0.00267 0.26626
 H98 H -0.02012 0.01426 0.19507
 H99 H -0.03408 0.09123 0.26032
 H100 H -0.03296 0.15886 0.23475
 H101 H -0.01721 0.07985 0.16854
 H102 H -0.06521 -0.06834 0.27731
 H103 H -0.12998 -0.07355 0.30261
 H104 H -0.17035 0.06016 0.28232
 H105 H -0.10597 0.06217 0.25672
 C106 C -0.02600 -0.11894 0.19335
 C107 C 0.09139 0.00146 0.30662
 C108 C -0.15501 -0.00688 0.29456
 C109 C -0.02530 0.12445 0.19961
 C110 C -0.00524 0.08237 0.76998
 H111 H -0.03096 0.08127 0.75521
 C112 C -0.00428 0.11884 0.78549
 H113 H -0.02949 0.14523 0.78254
 C114 C 0.05984 0.05070 0.79104
 H115 H 0.08515 0.02444 0.79295
 C116 C 0.06218 0.08663 0.80688
 H117 H 0.08887 0.08710 0.82121
 N118 N 0.02625 0.04889 0.77316
 C119 C 0.08848 -0.04326 0.72295
 H120 H 0.07030 -0.07152 0.72616
 C121 C 0.12454 -0.04664 0.70795
 H122 H 0.13388 -0.07765 0.69954
 C123 C 0.09721 0.03199 0.72924
 H124 H 0.08601 0.06263 0.73737
 C125 C 0.13327 0.03014 0.71422
 H126 H 0.15007 0.05941 0.71118
 Zn127 Zn 0.02482 -0.00070 0.75188
 N128 N 0.07555 -0.00437 0.73317
 C129 C -0.01972 0.00627 0.70368
 N130 N -0.02558 0.00523 0.72893
 C131 C -0.06654 0.00917 0.73777
 C132 C -0.10358 0.01376 0.72098
 C133 C -0.05579 0.01115 0.68626
 C134 C 0.06230 -0.06613 0.78560
 C135 C 0.06409 -0.10374 0.80070
 C136 C -0.01097 -0.11383 0.78672
 C137 C -0.01122 -0.07622 0.77173
 N138 N 0.02480 -0.05262 0.77180
 H139 H 0.01297 0.00343 0.69694
 H140 H -0.07042 0.00900 0.75793
 H141 H -0.13590 0.01708 0.72834
 H142 H -0.05043 0.01144 0.66624
 H143 H 0.09116 -0.04804 0.78465
 H144 H 0.09402 -0.11350 0.81186
 H145 H -0.04001 -0.13206 0.78648
 H146 H -0.04028 -0.06619 0.76008
 C147 C 0.14717 -0.00951 0.70324
 C148 C 0.02970 0.12123 0.80429
 C149 C 0.02694 -0.12784 0.80160
 C150 C -0.09838 0.01487 0.69485
 C151 C 0.02996 -0.36731 0.10888
 C152 C 0.00470 -0.32712 0.10507
 C153 C -0.01867 -0.31989 0.08134
 C154 C -0.01768 -0.35209 0.06275
 C155 C 0.00719 -0.39200 0.06682
 C156 C 0.03110 -0.39895 0.09012
 C157 C -0.04315 -0.28056 0.07619
 C158 C -0.04452 -0.24764 0.09390
 C159 C -0.02181 -0.25295 0.11783
 C160 C 0.00210 -0.29384 0.12381
 C161 C 0.02194 -0.30030 0.14843
 C162 C 0.01924 -0.26782 0.16645
 C163 C -0.00252 -0.22729 0.16062
 C164 C -0.02288 -0.21898 0.13615
 C165 C -0.04305 -0.17671 0.13099
 C166 C -0.04382 -0.14475 0.14949
 C167 C -0.02473 -0.15348 0.17385
 C168 C -0.00395 -0.19494 0.17922
 H169 H 0.04993 -0.37512 0.12595
 H170 H -0.03716 -0.34635 0.04511
 H171 H 0.05164 -0.42881 0.09369
 H172 H -0.06134 -0.27499 0.05813
 H173 H -0.06461 -0.21859 0.08835
 H174 H 0.03918 -0.33060 0.15464
 H175 H 0.03473 -0.27445 0.18515
 H176 H -0.05776 -0.16681 0.11270
 H177 H -0.05889 -0.11266 0.14449
 H178 H 0.01086 -0.20227 0.19799
 C179 C 0.05263 0.32281 0.08909
 C180 C 0.01476 0.31315 0.10159
 C181 C -0.02395 0.34076 0.09659
 C182 C -0.02515 0.37456 0.07852
 C183 C 0.01245 0.38315 0.06595
 C184 C 0.05136 0.35723 0.07166
 C185 C -0.06141 0.33434 0.10948
 C186 C -0.06137 0.30127 0.12750
 C187 C -0.02409 0.27215 0.13272
 C188 C 0.01402 0.27720 0.11885
 C189 C 0.04950 0.24528 0.12200
 C190 C 0.04797 0.20977 0.13819
 C191 C 0.01178 0.20530 0.15251
 C192 C -0.02423 0.23709 0.15065
 C193 C -0.05881 0.23238 0.16691
 C194 C -0.05844 0.19645 0.18326
 C195 C -0.02399 0.16403 0.18378
 C196 C 0.01125 0.16884 0.16859
 H197 H 0.08398 0.30495 0.09268
 H198 H -0.05566 0.39394 0.07394
 H199 H 0.08102 0.36364 0.06248
 H200 H -0.09111 0.35534 0.10573
 H201 H -0.09183 0.29833 0.13636
 H202 H 0.07844 0.24584 0.11141
 H203 H 0.07558 0.18557 0.13955
 H204 H -0.08631 0.25614 0.16769
 H205 H -0.08572 0.19345 0.19514
 H206 H 0.03842 0.14410 0.16939
 C207 C 0.32054 0.04101 0.57706
 C208 C 0.32023 0.01135 0.59769
 C209 C 0.35406 -0.02277 0.59994
 C210 C 0.38696 -0.02619 0.58251
 C211 C 0.38653 0.00355 0.56239
 C212 C 0.35319 0.03700 0.55977
 C213 C 0.35480 -0.05349 0.61946
 C214 C 0.32227 -0.05180 0.63668
 C215 C 0.28768 -0.01874 0.63527
 C216 C 0.28733 0.01404 0.61587
 C217 C 0.25430 0.04859 0.61539
 C218 C 0.22206 0.05056 0.63275
 C219 C 0.22097 0.01812 0.65115
 C220 C 0.25354 -0.01717 0.65271
 C221 C 0.25003 -0.04969 0.67147
 C222 C 0.21583 -0.04697 0.68785
 C223 C 0.18409 -0.01181 0.68626
 C224 C 0.18705 0.02071 0.66791
 H225 H 0.29577 0.06730 0.57344
 H226 H 0.41277 -0.05229 0.58436
 H227 H 0.35244 0.06012 0.54417
 H228 H 0.38069 -0.07948 0.62134
 H229 H 0.32558 -0.07681 0.65114
 H230 H 0.25261 0.07519 0.60196
 H231 H 0.19740 0.07775 0.63159
 H232 H 0.27269 -0.07804 0.67382
 H233 H 0.21433 -0.07246 0.70194
 H234 H 0.16214 0.04766 0.66624
 C235 C -0.35133 -0.02747 0.60720
 C236 C -0.31738 0.00156 0.60665
 C237 C -0.31876 0.03147 0.58602
 C238 C -0.35294 0.03229 0.56711
 C239 C -0.38575 0.00294 0.56788
 C240 C -0.38479 -0.02672 0.58808
 C241 C -0.28579 0.06011 0.58414
 C242 C -0.25053 0.05910 0.60188
 C243 C -0.24702 0.02954 0.62257
 C244 C -0.28178 0.00136 0.62548
 C245 C -0.27981 -0.02595 0.64714
 C246 C -0.24453 -0.02693 0.66490
 C247 C -0.20947 -0.00125 0.66172
 C248 C -0.20999 0.02729 0.64051
 C249 C -0.17289 0.05171 0.63793
 C250 C -0.13717 0.04783 0.65563
 C251 C -0.13707 0.01975 0.67656
 C252 C -0.17355 -0.00443 0.67958
 H253 H -0.35258 -0.05188 0.62178
 H254 H -0.35375 0.05535 0.55145
 H255 H -0.40982 -0.04985 0.58885
 H256 H -0.28692 0.08329 0.56854
 H257 H -0.22669 0.08247 0.59892
 H258 H -0.30540 -0.04682 0.65118
 H259 H -0.24448 -0.04852 0.68118
 H260 H -0.16988 0.07353 0.62223
 H261 H -0.10945 0.06707 0.65295
 H262 H -0.17344 -0.02676 0.69555
 C263 C -0.03883 -0.32040 0.91907
 C264 C -0.00640 -0.31683 0.90127
 C265 C 0.02886 -0.34950 0.90188
 C266 C 0.03079 -0.38437 0.91933
 C267 C -0.00147 -0.38691 0.93678
 C268 C -0.03617 -0.35485 0.93652
 C269 C 0.06235 -0.34694 0.88534
 C270 C 0.06249 -0.31203 0.86856
 C271 C 0.02855 -0.27832 0.86735
 C272 C -0.00726 -0.28160 0.88334
 C273 C -0.04281 -0.24967 0.88079
 C274 C -0.04285 -0.21495 0.86390
 C275 C -0.00737 -0.21017 0.84906
 C276 C 0.02902 -0.24155 0.85058
 C277 C 0.06466 -0.23422 0.83554
 C278 C 0.06381 -0.19758 0.81970
 C279 C 0.02752 -0.16709 0.81814
 C280 C -0.00804 -0.17376 0.83283
 H281 H -0.06615 -0.29667 0.92049
 H282 H 0.05792 -0.40912 0.91978
 H283 H -0.06115 -0.35633 0.95011
 H284 H 0.08917 -0.37198 0.88559
 H285 H 0.08961 -0.31278 0.85649
 H286 H -0.07169 -0.25081 0.89136
 H287 H -0.07091 -0.19126 0.86265
 H288 H 0.09406 -0.25568 0.83585
 H289 H 0.09166 -0.19322 0.80846
 H290 H -0.03596 -0.14990 0.83208
 C291 C -0.04128 0.33403 0.91268
 C292 C -0.00404 0.31873 0.89972
 C293 C 0.03586 0.33854 0.90535
 C294 C 0.03791 0.37223 0.92303
 C295 C 0.00085 0.38632 0.93569
 C296 C -0.03864 0.36720 0.93042
 C297 C 0.07372 0.32430 0.89360
 C298 C 0.07343 0.28999 0.87675
 C299 C 0.03488 0.26859 0.87072
 C300 C -0.00480 0.28403 0.88183
 C301 C -0.04388 0.26431 0.87467
 C302 C -0.04413 0.22993 0.85788
 C303 C -0.00554 0.21343 0.84765
 C304 C 0.03461 0.23232 0.85391
 C305 C 0.07290 0.21352 0.84331
 C306 C 0.07111 0.17782 0.82726
 C307 C 0.03129 0.15957 0.82109
 C308 C -0.00696 0.17775 0.83131
 H309 H -0.07273 0.32057 0.91003
 H310 H 0.06857 0.38699 0.92740
 H311 H -0.06744 0.37771 0.94033
 H312 H 0.10418 0.33956 0.89769
 H313 H 0.10418 0.28129 0.86859
 H314 H -0.07524 0.27491 0.88154
 H315 H -0.07496 0.21582 0.85301
 H316 H 0.10495 0.22511 0.84725
 H317 H 0.10112 0.16460 0.81947
 H318 H -0.03786 0.16342 0.82696
 C319 C -0.32631 0.03730 0.42399
 C320 C -0.32726 0.01330 0.40132
 C321 C -0.36065 -0.01607 0.39747
 C322 C -0.39289 -0.01930 0.41509
 C323 C -0.39165 0.00493 0.43745
 C324 C -0.35771 0.03291 0.44169
 C325 C -0.36142 -0.04251 0.37621
 C326 C -0.32898 -0.04147 0.35899
 C327 C -0.29509 -0.01271 0.36192
 C328 C -0.29563 0.01670 0.38271
 C329 C -0.26503 0.04903 0.38396
 C330 C -0.23379 0.05144 0.36616
 C331 C -0.23090 0.02112 0.34683
 C332 C -0.26102 -0.01186 0.34457
 C333 C -0.25496 -0.04327 0.32543
 C334 C -0.22075 -0.04148 0.30919
 C335 C -0.19203 -0.00810 0.31119
 C336 C -0.19748 0.02328 0.32992
 H337 H -0.30106 0.05893 0.42897
 H338 H -0.41815 -0.04202 0.41185
 H339 H -0.35592 0.05230 0.45866
 H340 H -0.38700 -0.06487 0.37306
 H341 H -0.33205 -0.06288 0.34309
 H342 H -0.26513 0.07387 0.39818
 H343 H -0.21110 0.07696 0.36783
 H344 H -0.27521 -0.07039 0.32300
 H345 H -0.21671 -0.06630 0.29495
 H346 H -0.17464 0.04865 0.33184
 C347 C 0.35158 -0.04168 0.39403
 C348 C 0.31342 -0.01268 0.39420
 C349 C 0.31102 0.01788 0.41408
 C350 C 0.34553 0.01934 0.43262
 C351 C 0.38252 -0.01004 0.43231
 C352 C 0.38543 -0.04029 0.41283
 C353 C 0.27403 0.04663 0.41559
 C354 C 0.23853 0.04518 0.39818
 C355 C 0.23874 0.01502 0.37823
 C356 C 0.27738 -0.01339 0.37569
 C357 C 0.27873 -0.04134 0.35469
 C358 C 0.24327 -0.04247 0.33716
 C359 C 0.20476 -0.01640 0.33996
 C360 C 0.20169 0.01252 0.36061
 C361 C 0.16127 0.03720 0.36295
 C362 C 0.12591 0.03348 0.34544
 C363 C 0.12940 0.00528 0.32496
 C364 C 0.16906 -0.01942 0.32226
 H365 H 0.35602 -0.06646 0.37999
 H366 H 0.34343 0.04297 0.44767
 H367 H 0.41386 -0.06331 0.41237
 H368 H 0.27225 0.07029 0.43062
 H369 H 0.21151 0.06875 0.40078
 H370 H 0.30709 -0.06255 0.35100
 H371 H 0.24591 -0.06445 0.32134
 H372 H 0.15544 0.05918 0.37829
 H373 H 0.09567 0.05312 0.34786
 H374 H 0.17180 -0.04182 0.30664
   
