data_POSCAR
  _audit_creation_date              2014-09-24
  _audit_creation_method            'ToBaCCo'
  _symmetry_space_group_name_H-M    'P1'
  _symmetry_Int_Tables_number       1
  _symmetry_cell_setting            triclinic
  loop_
  _symmetry_equiv_pos_as_xyz
 x,y,z
_cell_length_a 30.1564
_cell_length_b 30.1285
_cell_length_c 30.1423
_cell_angle_alpha 90.025100
_cell_angle_beta 89.942600
_cell_angle_gamma 89.982700
loop_
  _atom_site_label
  _atom_site_type_symbol
  _atom_site_fract_x
  _atom_site_fract_y
  _atom_site_fract_z
C1 C 0.12540 0.00066 0.24905
 C2 C 0.37534 0.00081 0.74992
 C3 C 0.87497 0.50049 0.24988
 C4 C 0.62500 0.50051 0.74940
 C5 C 0.24908 0.12572 0.99994
 C6 C 0.75060 0.37490 0.99950
 C7 C 0.25161 0.87501 0.49991
 C8 C 0.74986 0.62501 0.49984
 C9 C 0.00043 0.25086 0.12458
 C10 C -0.00079 0.74884 0.37364
 C11 C 0.49951 0.25053 0.87373
 C12 C 0.50047 0.75085 0.62538
 C13 C 0.87566 1.00069 0.74912
 C14 C 0.37558 0.50038 0.24943
 C15 C 0.62528 1.00048 0.24960
 C16 C 0.12505 0.50065 0.74958
 C17 C 0.74895 0.87618 -0.00020
 C18 C 0.24991 0.37553 0.49993
 C19 C 0.25036 0.62490 -0.00057
 C20 C 0.75139 0.12482 0.49943
 C21 C 1.00005 0.75079 0.87440
 C22 C 0.50016 0.25066 0.37480
 C23 C 0.99936 0.24888 0.62444
 C24 C 0.49931 0.75056 0.12448
 O25 O -0.02314 0.97575 0.87336
 O26 O 0.05118 0.99854 0.87392
 O27 O -0.02274 0.87420 0.97804
 O28 O -0.01262 0.87037 1.05002
 O29 O -0.12747 0.97842 0.97435
 O30 O -0.12796 1.05077 0.99780
 O31 O 0.08578 0.99141 1.09693
 O32 O 0.09242 0.92441 1.06445
 O33 O 0.09702 1.08583 0.99089
 O34 O 0.06293 1.09405 0.92312
 O35 O -0.00819 1.09872 1.08454
 O36 O -0.07596 1.06156 1.09895
 O37 O 0.02428 1.02550 1.12477
 O38 O -0.05589 1.00520 1.12460
 O39 O 0.02475 1.12664 1.02258
 O40 O 0.00109 1.12752 0.94979
 O41 O 0.12461 1.02478 1.02584
 O42 O 0.12317 0.94960 0.99607
 O43 O -0.08421 1.01078 0.90087
 O44 O -0.09268 1.08099 0.94081
 O45 O -0.09990 0.91726 1.00908
 O46 O -0.05975 0.90937 1.08012
 O47 O 0.00728 0.90211 0.91455
 O48 O 0.08004 0.93851 0.91422
 Zr49 Zr 0.01831 0.96939 0.92914
 O50 O 0.05982 1.01011 0.96738
 Zr51 Zr -0.03202 0.93016 1.01898
 O52 O 0.00896 0.96820 1.06057
 Zr53 Zr -0.07166 1.01991 0.96904
 O54 O -0.03305 1.06164 1.00932
 Zr55 Zr 0.07003 0.98135 1.02987
 O56 O 0.03112 0.93824 0.99044
 Zr57 Zr 0.02959 1.07122 0.98052
 O58 O -0.01055 1.03259 0.93777
 Zr59 Zr -0.01943 1.03114 1.07044
 O60 O -0.06280 0.99131 1.03210
 O61 O -0.04400 0.95770 0.95700
 O62 O 0.04285 1.04398 1.04292
 C63 C -0.06104 0.99458 0.86897
 C64 C -0.00650 0.87001 0.93886
 C65 C -0.13180 0.94039 0.99300
 C66 C 0.06285 1.00791 1.12885
 C67 C 0.12884 1.06311 1.00781
 C68 C 0.00775 1.13073 1.06138
 H69 H 0.08801 1.01402 0.95100
 H70 H -0.04912 1.09004 1.01279
 H71 H -0.06294 0.93867 0.93806
 H72 H 0.01304 0.95172 1.08862
 H73 H 0.08525 0.89846 1.04561
 H74 H 0.01661 0.87607 1.06367
 H75 H -0.01854 1.11628 0.92603
 H76 H -0.12025 1.07604 0.92350
 H77 H 0.14980 0.95042 1.01537
 H78 H 0.07721 0.92037 0.88690
 H79 H -0.08851 1.08202 1.07658
 H80 H -0.13031 1.03979 1.02866
 H81 H 0.05042 0.97771 0.84841
 H82 H 0.04902 1.07879 0.89762
 H83 H -0.08371 0.93059 1.08755
 H84 H -0.04079 0.97785 1.13467
 O85 O 0.47486 0.37431 0.47723
 O86 O 0.49756 0.37486 0.55163
 O87 O 0.37340 0.47905 0.47783
 O88 O 0.36960 0.55112 0.48818
 O89 O 0.47753 0.47523 0.37304
 O90 O 0.54978 0.49880 0.37252
 O91 O 0.49052 0.59811 0.58642
 O92 O 0.42367 0.56562 0.59319
 O93 O 0.58490 0.49172 0.59745
 O94 O 0.59297 0.42393 0.56333
 O95 O 0.59784 0.58533 0.49234
 O96 O 0.56058 0.59981 0.42452
 O97 O 0.52464 0.62582 0.52489
 O98 O 0.50448 0.62571 0.44482
 O99 O 0.62569 0.52329 0.52516
 O100 O 0.62643 0.45051 0.50141
 O101 O 0.52397 0.52682 0.62519
 O102 O 0.44880 0.49721 0.62383
 O103 O 0.50982 0.40185 0.41614
 O104 O 0.57996 0.44166 0.40767
 O105 O 0.41644 0.51007 0.40068
 O106 O 0.40849 0.58116 0.44090
 O107 O 0.40128 0.41552 0.50776
 O108 O 0.43761 0.41527 0.58057
 Zr109 Zr 0.46848 0.43012 0.51881
 O110 O 0.50918 0.46837 0.56034
 Zr111 Zr 0.42930 0.52002 0.46860
 O112 O 0.46737 0.56161 0.50959
 Zr113 Zr 0.51897 0.47000 0.42881
 O114 O 0.56069 0.51022 0.46743
 Zr115 Zr 0.48052 0.53095 0.57066
 O116 O 0.43741 0.49150 0.53174
 Zr117 Zr 0.57024 0.48138 0.53004
 O118 O 0.53162 0.43866 0.48988
 Zr119 Zr 0.53027 0.57141 0.48116
 O120 O 0.49040 0.53311 0.43778
 O121 O 0.45682 0.45801 0.45652
 O122 O 0.54310 0.54388 0.54342
 C123 C 0.49365 0.36995 0.43926
 C124 C 0.36921 0.43983 0.49399
 C125 C 0.43954 0.49389 0.36876
 C126 C 0.50702 0.63000 0.56347
 C127 C 0.56224 0.50868 0.62933
 C128 C 0.62982 0.56208 0.50817
 H129 H 0.51309 0.45198 0.58851
 H130 H 0.58906 0.51363 0.45132
 H131 H 0.43781 0.43906 0.43757
 H132 H 0.45092 0.58970 0.51370
 H133 H 0.39772 0.54682 0.58599
 H134 H 0.37537 0.56490 0.51737
 H135 H 0.61515 0.42671 0.48181
 H136 H 0.57500 0.42443 0.38002
 H137 H 0.44970 0.51651 0.65050
 H138 H 0.41948 0.38796 0.57774
 H139 H 0.58112 0.57745 0.41202
 H140 H 0.53871 0.52964 0.37017
 H141 H 0.47676 0.34936 0.55081
 H142 H 0.57774 0.39843 0.54938
 H143 H 0.42975 0.58861 0.41698
 H144 H 0.47701 0.63564 0.45980
 O145 O 0.40289 -0.08435 0.49020
 O146 O 0.43919 -0.09327 0.42245
 O147 O 0.51318 -0.09811 0.58322
 O148 O 0.57407 -0.06199 0.60148
 O149 O 0.41646 0.01112 0.59854
 O150 O 0.40465 0.07802 0.56015
 O151 O 0.62746 0.02242 0.47381
 O152 O 0.62870 -0.04811 0.49743
 O153 O 0.52399 0.02559 0.37419
 O154 O 0.45165 0.00675 0.37132
 O155 O 0.52641 0.12639 0.47646
 O156 O 0.51006 0.12897 0.55233
 O157 O 0.59971 0.08432 0.50731
 O158 O 0.55892 0.09550 0.57914
 O159 O 0.49246 0.09874 0.41504
 O160 O 0.42089 0.05749 0.40611
 O161 O 0.58635 -0.00656 0.40204
 O162 O 0.58847 -0.07939 0.43714
 O163 O 0.37514 -0.02255 0.52380
 O164 O 0.37512 0.05401 0.50434
 O165 O 0.47746 -0.02353 0.62614
 O166 O 0.55540 0.00012 0.62383
 O167 O 0.47511 -0.12539 0.52398
 O168 O 0.50661 -0.12174 0.44852
 Zr169 Zr 0.47068 -0.07046 0.48128
 O170 O 0.50997 -0.03137 0.43909
 Zr171 Zr 0.51989 -0.02962 0.57103
 O172 O 0.56218 0.00966 0.53196
 Zr173 Zr 0.43033 0.01970 0.53069
 O174 O 0.46890 0.06198 0.49089
 Zr175 Zr 0.57147 -0.01884 0.46910
 O176 O 0.53359 -0.06124 0.51034
 Zr177 Zr 0.48174 0.03137 0.42959
 O178 O 0.43930 -0.00940 0.46782
 Zr179 Zr 0.53197 0.07114 0.51903
 O180 O 0.49106 0.03341 0.56209
 O181 O 0.45809 -0.04224 0.54332
 O182 O 0.54446 0.04397 0.45642
 C183 C 0.37092 -0.06091 0.50577
 C184 C 0.49532 -0.12986 0.56110
 C185 C 0.43948 -0.00496 0.63049
 C186 C 0.63165 0.06112 0.49115
 C187 C 0.56294 0.00889 0.37007
 C188 C 0.50870 0.13065 0.43800
 H189 H 0.51329 -0.04741 0.41063
 H190 H 0.45266 0.09028 0.48763
 H191 H 0.43914 -0.06117 0.56239
 H192 H 0.59066 0.01277 0.54788
 H193 H 0.61897 -0.07609 0.51165
 H194 H 0.59970 -0.05826 0.58138
 H195 H 0.41349 0.08389 0.42419
 H196 H 0.37001 0.04194 0.47423
 H197 H 0.61811 -0.07593 0.42325
 H198 H 0.49144 -0.15062 0.45274
 H199 H 0.47872 0.13377 0.54397
 H200 H 0.42824 0.08987 0.57965
 H201 H 0.42721 -0.12353 0.42750
 H202 H 0.43914 -0.02254 0.37921
 H203 H 0.54000 0.02820 0.63119
 H204 H 0.58488 0.07693 0.58677
 O205 O -0.09817 0.41582 0.98997
 O206 O -0.06189 0.40679 0.92224
 O207 O 0.01248 0.40213 1.08288
 O208 O 0.07319 0.43836 1.10115
 O209 O -0.08442 0.51127 1.09831
 O210 O -0.09628 0.57822 1.05980
 O211 O 0.12645 0.52263 0.97353
 O212 O 0.12766 0.45202 0.99715
 O213 O 0.02304 0.52566 0.87383
 O214 O -0.04936 0.50672 0.87100
 O215 O 0.02547 0.62649 0.97601
 O216 O 0.00893 0.62918 1.05185
 O217 O 0.09863 0.58453 1.00698
 O218 O 0.05780 0.59575 1.07876
 O219 O -0.00850 0.59881 0.91461
 O220 O -0.08007 0.55761 0.90567
 O221 O 0.08544 0.49365 0.90176
 O222 O 0.08749 0.42081 0.93677
 O223 O -0.12591 0.47763 1.02354
 O224 O -0.12597 0.55409 1.00414
 O225 O -0.02341 0.47654 1.12580
 O226 O 0.05442 0.50045 1.12345
 O227 O -0.02572 0.37479 1.02375
 O228 O 0.00554 0.37841 0.94818
 Zr229 Zr -0.03034 0.42968 0.98100
 O230 O 0.00897 0.46874 0.93878
 Zr231 Zr 0.01896 0.47061 1.07068
 O232 O 0.06120 0.50989 1.03161
 Zr233 Zr -0.07068 0.51984 1.03040
 O234 O -0.03214 0.56210 0.99051
 Zr235 Zr 0.07048 0.48133 0.96877
 O236 O 0.03260 0.43894 1.01001
 Zr237 Zr -0.01926 0.53146 0.92922
 O238 O -0.06170 0.49073 0.96752
 Zr239 Zr 0.03092 0.57132 1.01865
 O240 O -0.00994 0.53360 1.06175
 O241 O -0.04288 0.45792 1.04304
 O242 O 0.04343 0.54411 0.95606
 C243 C -0.13016 0.43927 1.00552
 C244 C -0.00537 0.37036 1.06080
 C245 C -0.06136 0.49513 1.13021
 C246 C 0.13059 0.56134 0.99087
 C247 C 0.06205 0.50905 0.86975
 C248 C 0.00780 0.63071 0.93753
 H249 H 0.01231 0.45270 0.91032
 H250 H -0.04838 0.59040 0.98721
 H251 H -0.06180 0.43898 1.06212
 H252 H 0.08967 0.51302 1.04753
 H253 H 0.11791 0.42403 1.01133
 H254 H 0.09883 0.44212 1.08106
 H255 H -0.08751 0.58399 0.92377
 H256 H -0.13094 0.54219 0.97394
 H257 H 0.11716 0.42426 0.92294
 H258 H -0.00957 0.34951 0.95250
 H259 H -0.02239 0.63398 1.04342
 H260 H -0.07270 0.59002 1.07935
 H261 H -0.07387 0.37653 0.92734
 H262 H -0.06198 0.47750 0.87898
 H263 H 0.03893 0.52848 1.13086
 H264 H 0.08377 0.57721 1.08642
 O265 O 0.02437 0.37297 0.52261
 O266 O 0.00159 0.37347 0.44829
 O267 O 0.12577 0.47788 0.52190
 O268 O 0.12955 0.54985 0.51175
 O269 O 0.02172 0.47415 0.62687
 O270 O -0.05058 0.49750 0.62740
 O271 O 0.00869 0.59660 0.41335
 O272 O 0.07567 0.56406 0.40679
 O273 O -0.08569 0.49067 0.40232
 O274 O -0.09387 0.42277 0.43644
 O275 O -0.09856 0.58424 0.50755
 O276 O -0.06147 0.59879 0.57519
 O277 O -0.02544 0.62447 0.47485
 O278 O -0.00507 0.62433 0.55513
 O279 O -0.12651 0.52222 0.47476
 O280 O -0.12730 0.44936 0.49833
 O281 O -0.02467 0.52563 0.37468
 O282 O 0.05033 0.49569 0.37601
 O283 O -0.01063 0.40053 0.58370
 O284 O -0.08079 0.44049 0.59217
 O285 O 0.08279 0.50886 0.59910
 O286 O 0.09058 0.57993 0.55892
 O287 O 0.09798 0.41430 0.49197
 O288 O 0.06146 0.41381 0.41925
 Zr289 Zr 0.03069 0.42877 0.48105
 O290 O -0.01002 0.46702 0.43951
 Zr291 Zr 0.06984 0.51875 0.53124
 O292 O 0.03183 0.56032 0.49024
 Zr293 Zr -0.01976 0.46874 0.57107
 O294 O -0.06147 0.50900 0.53243
 Zr295 Zr 0.01871 0.52954 0.42921
 O296 O 0.06178 0.49011 0.46813
 Zr297 Zr -0.07108 0.48018 0.46978
 O298 O -0.03246 0.43743 0.50996
 Zr299 Zr -0.03104 0.57017 0.51870
 O300 O 0.00876 0.53185 0.56209
 O301 O 0.04238 0.45671 0.54334
 O302 O -0.04387 0.54261 0.45644
 C303 C 0.00555 0.36860 0.56056
 C304 C 0.13002 0.43870 0.50568
 C305 C 0.05973 0.49282 0.63108
 C306 C -0.00786 0.62853 0.43624
 C307 C -0.06299 0.50765 0.37048
 C308 C -0.13057 0.56105 0.49173
 H309 H -0.01396 0.45064 0.41132
 H310 H -0.08984 0.51248 0.54854
 H311 H 0.06142 0.43778 0.56228
 H312 H 0.04829 0.58839 0.48612
 H313 H 0.10156 0.54513 0.41389
 H314 H 0.12384 0.56351 0.48251
 H315 H -0.11604 0.42562 0.51800
 H316 H -0.07584 0.42317 0.61975
 H317 H 0.04959 0.51504 0.34939
 H318 H 0.07965 0.38653 0.42209
 H319 H -0.08176 0.57635 0.58791
 H320 H -0.03965 0.52840 0.62969
 H321 H 0.02242 0.34797 0.44905
 H322 H -0.07857 0.39726 0.45030
 H323 H 0.06939 0.58735 0.58292
 H324 H 0.02215 0.63452 0.53988
 O325 O 0.52392 0.87474 0.02305
 O326 O 0.50113 0.87521 -0.05140
 O327 O 0.62535 0.97944 0.02224
 O328 O 0.62914 1.05155 0.01218
 O329 O 0.52128 0.97557 0.12714
 O330 O 0.44892 0.99955 0.12753
 O331 O 0.50849 1.09836 -0.08629
 O332 O 0.57536 1.06583 -0.09286
 O333 O 0.41416 0.99207 -0.09754
 O334 O 0.40601 0.92424 -0.06329
 O335 O 0.40090 1.08569 0.00770
 O336 O 0.43797 1.10041 0.07537
 O337 O 0.47426 1.12622 -0.02485
 O338 O 0.49426 1.12608 0.05536
 O339 O 0.37313 1.02365 -0.02520
 O340 O 0.37230 0.95102 -0.00162
 O341 O 0.47516 1.02713 -0.12511
 O342 O 0.55025 0.99740 -0.12357
 O343 O 0.48883 0.90234 0.08407
 O344 O 0.41877 0.94222 0.09252
 O345 O 0.58241 1.01024 0.09945
 O346 O 0.59016 1.08149 0.05949
 O347 O 0.59746 0.91582 -0.00752
 O348 O 0.56124 0.91538 -0.08029
 Zr349 Zr 0.53029 0.93045 -0.01860
 O350 O 0.48972 0.96869 -0.06022
 Zr351 Zr 0.56945 1.02039 0.03161
 O352 O 0.53145 1.06198 -0.00940
 Zr353 Zr 0.47976 0.97049 0.07135
 O354 O 0.43810 1.01066 0.03260
 Zr355 Zr 0.51843 1.03124 -0.07048
 O356 O 0.56143 0.99178 -0.03151
 Zr357 Zr 0.42862 0.98178 -0.03004
 O358 O 0.46714 0.93910 0.01026
 Zr359 Zr 0.46850 1.07184 0.01891
 O360 O 0.50832 1.03357 0.06238
 O361 O 0.54192 0.95841 0.04367
 O362 O 0.45578 1.04426 -0.04338
 C363 C 0.50509 0.87042 0.06099
 C364 C 0.62953 0.94018 0.00615
 C365 C 0.55937 0.99403 0.13138
 C366 C 0.49198 1.13032 -0.06340
 C367 C 0.43693 1.00898 -0.12937
 C368 C 0.36894 1.06242 -0.00815
 H369 H 0.48587 0.95228 -0.08840
 H370 H 0.40971 1.01409 0.04868
 H371 H 0.56092 0.93944 0.06261
 H372 H 0.54791 1.09005 -0.01348
 H373 H 0.60127 1.04700 -0.08561
 H374 H 0.62340 1.06539 -0.01697
 H375 H 0.38351 0.92749 0.01833
 H376 H 0.42372 0.92516 0.12027
 H377 H 0.54948 1.01669 -0.15023
 H378 H 0.57925 0.88799 -0.07741
 H379 H 0.41778 1.07790 0.08812
 H380 H 0.46033 1.03025 0.13006
 H381 H 0.52186 0.84963 -0.05049
 H382 H 0.42099 0.89874 -0.04907
 H383 H 0.56892 1.08886 0.08346
 H384 H 0.52175 1.13601 0.04042
 O385 O 0.37412 0.52278 0.02450
 O386 O 0.37475 0.44833 0.00158
 O387 O 0.47875 0.52237 0.12578
 O388 O 0.55077 0.51227 0.12956
 O389 O 0.47469 0.62710 0.02170
 O390 O 0.49843 0.62758 -0.05057
 O391 O 0.59777 0.41359 0.00875
 O392 O 0.56522 0.40682 0.07545
 O393 O 0.49144 0.40244 -0.08579
 O394 O 0.42382 0.43657 -0.09386
 O395 O 0.58502 0.50769 -0.09874
 O396 O 0.59983 0.57510 -0.06182
 O397 O 0.62552 0.47515 -0.02530
 O398 O 0.62496 0.55562 -0.00511
 O399 O 0.52304 0.47487 -0.12661
 O400 O 0.45039 0.49847 -0.12730
 O401 O 0.52641 0.37471 -0.02485
 O402 O 0.49686 0.37627 0.05044
 O403 O 0.40156 0.58383 -0.01059
 O404 O 0.44148 0.59226 -0.08083
 O405 O 0.50953 0.59955 0.08276
 O406 O 0.58074 0.55938 0.09056
 O407 O 0.41529 0.49236 0.09794
 O408 O 0.41502 0.41951 0.06164
 Zr409 Zr 0.42990 0.48123 0.03071
 O410 O 0.46814 0.43965 -0.01003
 Zr411 Zr 0.51967 0.53160 0.06984
 O412 O 0.56124 0.49050 0.03179
 Zr413 Zr 0.46969 0.57125 -0.01979
 O414 O 0.50997 0.53257 -0.06150
 Zr415 Zr 0.53063 0.42935 0.01862
 O416 O 0.49121 0.46839 0.06176
 Zr417 Zr 0.48118 0.46992 -0.07110
 O418 O 0.43843 0.51011 -0.03245
 Zr419 Zr 0.57110 0.51886 -0.03112
 O420 O 0.53276 0.56237 0.00871
 O421 O 0.45771 0.54358 0.04237
 O422 O 0.54363 0.45653 -0.04400
 C423 C 0.36972 0.56072 0.00570
 C424 C 0.43958 0.50619 0.12999
 C425 C 0.49324 0.63145 0.05973
 C426 C 0.62969 0.43659 -0.00762
 C427 C 0.50825 0.37053 -0.06311
 C428 C 0.56177 0.49192 -0.13074
 H429 H 0.45175 0.41147 -0.01392
 H430 H 0.51341 0.54868 -0.08986
 H431 H 0.43874 0.56254 0.06142
 H432 H 0.58927 0.48644 0.04828
 H433 H 0.54650 0.41420 0.10144
 H434 H 0.56426 0.48291 0.12392
 H435 H 0.42658 0.51807 -0.11601
 H436 H 0.42416 0.61987 -0.07586
 H437 H 0.51607 0.34954 0.04946
 H438 H 0.38767 0.42236 0.07972
 H439 H 0.57716 0.58821 -0.08158
 H440 H 0.52921 0.63003 -0.03944
 H441 H 0.34923 0.44916 0.02238
 H442 H 0.39831 0.45054 -0.07862
 H443 H 0.58802 0.58350 0.06948
 H444 H 0.63520 0.54043 0.02211
 O445 O 0.08565 0.00866 0.40080
 O446 O 0.09485 0.07624 0.43713
 O447 O 0.09952 -0.08455 0.51147
 O448 O 0.06326 -0.10287 0.57220
 O449 O -0.00959 -0.09971 0.41453
 O450 O -0.07647 -0.06132 0.40289
 O451 O -0.02118 0.02503 0.62554
 O452 O 0.04935 0.00148 0.62685
 O453 O -0.02430 0.12474 0.52195
 O454 O -0.00525 0.12750 0.44957
 O455 O -0.12482 0.02236 0.52470
 O456 O -0.12711 -0.05383 0.50792
 O457 O -0.08294 -0.00853 0.59778
 O458 O -0.09412 -0.08021 0.55732
 O459 O -0.09723 0.08381 0.49066
 O460 O -0.05602 0.09275 0.41891
 O461 O 0.00779 0.09690 0.58434
 O462 O 0.08062 0.06172 0.58654
 O463 O 0.02391 -0.02489 0.37313
 O464 O -0.05247 -0.00556 0.37318
 O465 O 0.02497 -0.12739 0.47554
 O466 O 0.00127 -0.12504 0.55359
 O467 O 0.12679 -0.02532 0.47329
 O468 O 0.12301 0.05033 0.50461
 Zr469 Zr 0.07188 0.01748 0.46870
 O470 O 0.03276 0.05973 0.50799
 Zr471 Zr 0.03106 -0.07228 0.51800
 O472 O -0.00822 -0.03316 0.56030
 Zr473 Zr -0.01819 -0.03187 0.42843
 O474 O -0.06048 0.00797 0.46699
 Zr475 Zr 0.02017 0.02975 0.56955
 O476 O 0.06259 -0.01156 0.53167
 Zr477 Zr -0.02991 0.06927 0.47978
 O478 O 0.01088 0.03099 0.43737
 Zr479 Zr -0.06963 -0.02025 0.53008
 O480 O -0.03187 -0.06332 0.48919
 O481 O 0.04372 -0.04458 0.45614
 O482 O -0.04255 0.04241 0.54252
 C483 C 0.06217 -0.00679 0.36883
 C484 C 0.13128 -0.06241 0.49365
 C485 C 0.00640 -0.13169 0.43757
 C486 C -0.05985 0.00768 0.62971
 C487 C -0.00771 0.12889 0.56093
 C488 C -0.12908 0.06087 0.50703
 H489 H 0.04875 0.08822 0.51129
 H490 H -0.08875 0.01126 0.45076
 H491 H 0.06266 -0.06364 0.43717
 H492 H -0.01134 -0.04907 0.58880
 H493 H 0.07729 -0.01283 0.61713
 H494 H 0.05979 -0.08261 0.59777
 H495 H -0.08250 0.07480 0.41164
 H496 H -0.04060 0.02464 0.36816
 H497 H 0.07708 0.07571 0.61614
 H498 H 0.15194 0.04592 0.48957
 H499 H -0.13234 -0.04479 0.47682
 H500 H -0.08829 -0.08083 0.42653
 H501 H 0.12511 0.07110 0.42517
 H502 H 0.02403 0.11956 0.43708
 H503 H -0.02674 -0.13242 0.53816
 H504 H -0.07533 -0.08804 0.58305
 O505 O 0.72767 0.12391 0.27442
 O506 O 0.80200 0.12441 0.25143
 O507 O 0.72835 0.22847 0.37606
 O508 O 0.73840 0.30056 0.37993
 O509 O 0.62345 0.22486 0.27194
 O510 O 0.62310 0.24855 0.19965
 O511 O 0.83668 0.34763 0.25887
 O512 O 0.84357 0.31507 0.32561
 O513 O 0.84795 0.24134 0.16421
 O514 O 0.81378 0.17360 0.15608
 O515 O 0.74271 0.33505 0.15163
 O516 O 0.67484 0.34937 0.18908
 O517 O 0.77515 0.37539 0.22490
 O518 O 0.69521 0.37531 0.24510
 O519 O 0.77561 0.27308 0.12360
 O520 O 0.75195 0.20028 0.12274
 O521 O 0.87557 0.27637 0.22519
 O522 O 0.87415 0.24665 0.30039
 O523 O 0.66661 0.15152 0.23958
 O524 O 0.65817 0.19126 0.16947
 O525 O 0.65106 0.25951 0.33311
 O526 O 0.69128 0.33060 0.34114
 O527 O 0.75834 0.16499 0.34801
 O528 O 0.83100 0.16467 0.31142
 Zr529 Zr 0.76925 0.17965 0.28074
 O530 O 0.81076 0.21793 0.24000
 Zr531 Zr 0.71898 0.26948 0.32018
 O532 O 0.75994 0.31109 0.28207
 Zr533 Zr 0.67928 0.21963 0.23045
 O534 O 0.71789 0.25986 0.18869
 Zr535 Zr 0.82103 0.28046 0.26875
 O536 O 0.78212 0.24098 0.31190
 Zr537 Zr 0.78051 0.23105 0.17898
 O538 O 0.74035 0.18831 0.21763
 Zr539 Zr 0.73153 0.32099 0.21921
 O540 O 0.68818 0.28267 0.25913
 O541 O 0.70696 0.20752 0.29258
 O542 O 0.79381 0.29351 0.20621
 C543 C 0.68972 0.11961 0.25570
 C544 C 0.74462 0.18927 0.38018
 C545 C 0.61913 0.24345 0.30999
 C546 C 0.81367 0.37954 0.24251
 C547 C 0.87979 0.25826 0.18687
 C548 C 0.75857 0.31187 0.11956
 H549 H 0.83893 0.20154 0.23602
 H550 H 0.70180 0.26330 0.16033
 H551 H 0.68802 0.18856 0.31163
 H552 H 0.76402 0.33914 0.29859
 H553 H 0.83631 0.29629 0.35157
 H554 H 0.76770 0.31410 0.37423
 H555 H 0.73228 0.17654 0.13401
 H556 H 0.63047 0.17415 0.17447
 H557 H 0.90082 0.26590 0.29943
 H558 H 0.82819 0.13730 0.32947
 H559 H 0.66249 0.32711 0.16837
 H560 H 0.62065 0.27933 0.21088
 H561 H 0.80118 0.09886 0.27219
 H562 H 0.79981 0.14808 0.17128
 H563 H 0.66734 0.33807 0.31996
 H564 H 0.71006 0.38509 0.27268
 O565 O 0.65204 0.76029 0.66514
 O566 O 0.68837 0.82792 0.65580
 O567 O 0.76257 0.66695 0.65138
 O568 O 0.82330 0.64875 0.68761
 O569 O 0.66553 0.65229 0.76057
 O570 O 0.65407 0.69094 0.82760
 O571 O 0.87654 0.77661 0.77185
 O572 O 0.87797 0.75282 0.70135
 O573 O 0.77332 0.87664 0.77457
 O574 O 0.70093 0.87955 0.75586
 O575 O 0.77550 0.77432 0.87563
 O576 O 0.75854 0.69802 0.87780
 O577 O 0.84861 0.74335 0.83376
 O578 O 0.80837 0.67190 0.84522
 O579 O 0.74173 0.83585 0.84792
 O580 O 0.67016 0.84501 0.80653
 O581 O 0.83564 0.84851 0.74246
 O582 O 0.83779 0.81304 0.66982
 O583 O 0.62433 0.72695 0.72705
 O584 O 0.62422 0.74658 0.80326
 O585 O 0.72652 0.62447 0.72592
 O586 O 0.80443 0.62662 0.74974
 O587 O 0.72454 0.72619 0.62396
 O588 O 0.75580 0.80185 0.62750
 Zr589 Zr 0.71991 0.76917 0.67881
 O590 O 0.75921 0.81144 0.71782
 Zr591 Zr 0.76907 0.67944 0.71980
 O592 O 0.81130 0.71855 0.75902
 Zr593 Zr 0.67954 0.72013 0.76909
 O594 O 0.71804 0.76006 0.81125
 Zr595 Zr 0.82069 0.78136 0.73044
 O596 O 0.78283 0.74005 0.68811
 Zr597 Zr 0.73101 0.82127 0.78053
 O598 O 0.68859 0.78292 0.73986
 Zr599 Zr 0.78101 0.73169 0.82044
 O600 O 0.74020 0.68857 0.78278
 O601 O 0.70729 0.70723 0.70716
 O602 O 0.79364 0.79426 0.79320
 C603 C 0.62007 0.74486 0.68870
 C604 C 0.74478 0.68901 0.61956
 C605 C 0.68851 0.62027 0.74447
 C606 C 0.88059 0.75936 0.81059
 C607 C 0.81229 0.88064 0.75781
 C608 C 0.75786 0.81285 0.87986
 H609 H 0.76259 0.83986 0.70172
 H610 H 0.70175 0.76345 0.83951
 H611 H 0.68834 0.68816 0.68827
 H612 H 0.83977 0.70259 0.76218
 H613 H 0.86828 0.73846 0.67344
 H614 H 0.84895 0.66879 0.69137
 H615 H 0.66275 0.82711 0.83303
 H616 H 0.61935 0.77682 0.79141
 H617 H 0.86745 0.82688 0.67323
 H618 H 0.74073 0.79741 0.59862
 H619 H 0.72759 0.70745 0.88325
 H620 H 0.67754 0.67113 0.83921
 H621 H 0.67637 0.82272 0.62559
 H622 H 0.68887 0.87173 0.72639
 H623 H 0.78896 0.61941 0.77781
 H624 H 0.83386 0.66379 0.82617
 O625 O 0.33423 0.15199 0.73989
 O626 O 0.34326 0.18820 0.67215
 O627 O 0.34773 0.26279 0.83287
 O628 O 0.31135 0.32351 0.85117
 O629 O 0.23871 0.16563 0.84807
 O630 O 0.17190 0.15374 0.80958
 O631 O 0.22717 0.37663 0.72365
 O632 O 0.29765 0.37799 0.74707
 O633 O 0.22436 0.27299 0.62372
 O634 O 0.24331 0.20059 0.62086
 O635 O 0.12352 0.27544 0.72595
 O636 O 0.12100 0.25881 0.80197
 O637 O 0.16534 0.34875 0.75706
 O638 O 0.15402 0.30804 0.82862
 O639 O 0.15126 0.24141 0.66454
 O640 O 0.19266 0.16978 0.65558
 O641 O 0.25619 0.33550 0.65171
 O642 O 0.32897 0.33772 0.68677
 O643 O 0.27247 0.12419 0.77339
 O644 O 0.19614 0.12402 0.75386
 O645 O 0.27331 0.22671 0.87566
 O646 O 0.24938 0.30463 0.87344
 O647 O 0.37514 0.22463 0.77366
 O648 O 0.37147 0.25576 0.69805
 Zr649 Zr 0.32030 0.21984 0.73090
 O650 O 0.28120 0.25908 0.68871
 Zr651 Zr 0.27929 0.26916 0.82062
 O652 O 0.23998 0.31135 0.78158
 Zr653 Zr 0.23022 0.17941 0.78022
 O654 O 0.18795 0.21788 0.74038
 Zr655 Zr 0.26850 0.32065 0.71874
 O656 O 0.31091 0.28284 0.75996
 Zr657 Zr 0.21859 0.23075 0.67911
 O658 O 0.25936 0.18838 0.71738
 Zr659 Zr 0.17863 0.28100 0.76859
 O660 O 0.21639 0.24019 0.81165
 O661 O 0.29206 0.20728 0.79292
 O662 O 0.20582 0.29351 0.70600
 C663 C 0.31082 0.11998 0.75542
 C664 C 0.37954 0.24500 0.81074
 C665 C 0.25476 0.18872 0.88000
 C666 C 0.18850 0.38076 0.74104
 C667 C 0.24091 0.31203 0.61968
 C668 C 0.11933 0.25768 0.68748
 H669 H 0.29725 0.26243 0.66025
 H670 H 0.15971 0.20158 0.73707
 H671 H 0.31100 0.18838 0.81199
 H672 H 0.23681 0.33985 0.79754
 H673 H 0.32559 0.36828 0.76132
 H674 H 0.30765 0.34912 0.83104
 H675 H 0.16623 0.16238 0.67358
 H676 H 0.20814 0.11899 0.72370
 H677 H 0.32545 0.36736 0.67287
 H678 H 0.40037 0.24068 0.70239
 H679 H 0.11601 0.22758 0.79317
 H680 H 0.16004 0.17735 0.82912
 H681 H 0.37350 0.17624 0.67726
 H682 H 0.27266 0.18828 0.62871
 H683 H 0.22138 0.28914 0.88079
 H684 H 0.17272 0.33385 0.83649
 O685 O 0.15143 0.74030 0.33465
 O686 O 0.18773 0.67272 0.34389
 O687 O 0.26222 0.83348 0.34831
 O688 O 0.32280 0.85181 0.31192
 O689 O 0.16514 0.84855 0.23925
 O690 O 0.15350 0.81002 0.17232
 O691 O 0.37610 0.72402 0.22774
 O692 O 0.37731 0.74756 0.29833
 O693 O 0.27267 0.62410 0.22467
 O694 O 0.20028 0.62129 0.24383
 O695 O 0.27531 0.72627 0.12403
 O696 O 0.25840 0.80237 0.12155
 O697 O 0.34825 0.75740 0.16590
 O698 O 0.30765 0.82900 0.15458
 O699 O 0.24127 0.66485 0.15166
 O700 O 0.16959 0.65591 0.19295
 O701 O 0.33505 0.65212 0.25661
 O702 O 0.33711 0.68718 0.32952
 O703 O 0.12377 0.77373 0.27282
 O704 O 0.12375 0.75433 0.19648
 O705 O 0.22612 0.87620 0.27388
 O706 O 0.30403 0.87392 0.24993
 O707 O 0.22406 0.77432 0.37575
 O708 O 0.25520 0.69859 0.37199
 Zr709 Zr 0.21931 0.73144 0.32084
 O710 O 0.25860 0.68916 0.28171
 Zr711 Zr 0.26857 0.82115 0.27985
 O712 O 0.31082 0.78203 0.24056
 Zr713 Zr 0.17902 0.78067 0.23068
 O714 O 0.21754 0.74076 0.18839
 Zr715 Zr 0.32011 0.71918 0.26906
 O716 O 0.28225 0.76049 0.31148
 Zr717 Zr 0.23041 0.67950 0.21902
 O718 O 0.18801 0.71783 0.25981
 Zr719 Zr 0.28058 0.76901 0.17917
 O720 O 0.23973 0.81212 0.21691
 O721 O 0.20674 0.79345 0.29260
 O722 O 0.29309 0.70641 0.20634
 C723 C 0.11946 0.75571 0.31113
 C724 C 0.24447 0.81140 0.38015
 C725 C 0.18817 0.88052 0.25531
 C726 C 0.38021 0.74135 0.18904
 C727 C 0.31168 0.62007 0.24119
 C728 C 0.25768 0.68775 0.11978
 H729 H 0.26195 0.66069 0.29772
 H730 H 0.20132 0.73741 0.16012
 H731 H 0.18781 0.81253 0.31155
 H732 H 0.33929 0.79799 0.23742
 H733 H 0.36754 0.76181 0.32629
 H734 H 0.34836 0.83157 0.30842
 H735 H 0.16227 0.67385 0.16647
 H736 H 0.11883 0.72409 0.20831
 H737 H 0.36674 0.67329 0.32599
 H738 H 0.24021 0.70307 0.40094
 H739 H 0.22729 0.79338 0.11642
 H740 H 0.17710 0.82956 0.16051
 H741 H 0.17580 0.67790 0.37416
 H742 H 0.18776 0.62930 0.27309
 H743 H 0.28853 0.88129 0.22195
 H744 H 0.33339 0.83688 0.17332
 O745 O 0.22747 0.62418 0.77467
 O746 O 0.30199 0.62462 0.75213
 O747 O 0.22784 0.72895 0.87628
 O748 O 0.23804 0.80099 0.88010
 O749 O 0.12347 0.72516 0.77183
 O750 O 0.12334 0.74889 0.69950
 O751 O 0.33676 0.84791 0.75952
 O752 O 0.34324 0.81528 0.82640
 O753 O 0.34831 0.74162 0.66500
 O754 O 0.31425 0.67375 0.65685
 O755 O 0.24330 0.83520 0.65184
 O756 O 0.17532 0.84971 0.68889
 O757 O 0.27543 0.87565 0.72518
 O758 O 0.19532 0.87558 0.74510
 O759 O 0.27623 0.77315 0.62403
 O760 O 0.25257 0.70041 0.62314
 O761 O 0.37570 0.77673 0.72605
 O762 O 0.37403 0.74693 0.80118
 O763 O 0.16659 0.65182 0.73956
 O764 O 0.15853 0.69160 0.66941
 O765 O 0.15088 0.75986 0.83306
 O766 O 0.19094 0.83100 0.84107
 O767 O 0.25779 0.66537 0.84841
 O768 O 0.33068 0.66490 0.81219
 Zr769 Zr 0.26910 0.67992 0.78119
 O770 O 0.31084 0.71817 0.74064
 Zr771 Zr 0.21878 0.76987 0.82032
 O772 O 0.25990 0.81145 0.78238
 Zr773 Zr 0.17939 0.71993 0.73049
 O774 O 0.21822 0.76011 0.68887
 Zr775 Zr 0.32101 0.78074 0.76939
 O776 O 0.28190 0.74127 0.81235
 Zr777 Zr 0.28085 0.73123 0.67949
 O778 O 0.24048 0.68853 0.71796
 Zr779 Zr 0.23177 0.82127 0.71939
 O780 O 0.18823 0.78301 0.75914
 O781 O 0.20681 0.70787 0.79273
 O782 O 0.29407 0.79371 0.70671
 C783 C 0.18958 0.61988 0.75579
 C784 C 0.24397 0.68972 0.88048
 C785 C 0.11906 0.74374 0.80988
 C786 C 0.31389 0.87982 0.74295
 C787 C 0.38004 0.75863 0.68775
 C788 C 0.25927 0.81195 0.61989
 H789 H 0.33902 0.70178 0.73679
 H790 H 0.20225 0.76353 0.66044
 H791 H 0.18779 0.68893 0.81170
 H792 H 0.26392 0.83952 0.79887
 H793 H 0.33593 0.79644 0.85229
 H794 H 0.26724 0.81474 0.87442
 H795 H 0.23282 0.67670 0.63434
 H796 H 0.13079 0.67451 0.67428
 H797 H 0.40068 0.76622 0.80039
 H798 H 0.32773 0.63759 0.83031
 H799 H 0.16292 0.82736 0.66831
 H800 H 0.12086 0.77967 0.71074
 H801 H 0.30099 0.59909 0.77290
 H802 H 0.30014 0.64825 0.67195
 H803 H 0.16708 0.83842 0.81977
 H804 H 0.21012 0.88547 0.77265
 O805 O 0.25994 0.16580 0.15162
 O806 O 0.32775 0.15695 0.18776
 O807 O 0.16698 0.15194 0.26209
 O808 O 0.14876 0.18793 0.32311
 O809 O 0.15171 0.26118 0.16554
 O810 O 0.19016 0.32822 0.15386
 O811 O 0.27629 0.27244 0.37643
 O812 O 0.25270 0.20185 0.37764
 O813 O 0.37597 0.27566 0.27287
 O814 O 0.37887 0.25696 0.20041
 O815 O 0.27354 0.37640 0.27564
 O816 O 0.19766 0.37883 0.25912
 O817 O 0.24279 0.33431 0.34873
 O818 O 0.17102 0.34545 0.30824
 O819 O 0.33502 0.34884 0.24162
 O820 O 0.34411 0.30772 0.16984
 O821 O 0.34807 0.24345 0.33524
 O822 O 0.31297 0.17059 0.33724
 O823 O 0.22634 0.22763 0.12405
 O824 O 0.24587 0.30410 0.12405
 O825 O 0.12412 0.22641 0.22654
 O826 O 0.12640 0.25011 0.30455
 O827 O 0.22624 0.12472 0.22390
 O828 O 0.30171 0.12831 0.25518
 Zr829 Zr 0.26894 0.17965 0.21945
 O830 O 0.31108 0.21869 0.25879
 Zr831 Zr 0.17919 0.22039 0.26891
 O832 O 0.21819 0.25963 0.31123
 Zr833 Zr 0.21954 0.26982 0.17933
 O834 O 0.25931 0.31206 0.21792
 Zr835 Zr 0.28104 0.23116 0.32039
 O836 O 0.23986 0.18878 0.28246
 Zr837 Zr 0.32059 0.28147 0.23067
 O838 O 0.28239 0.24075 0.18817
 Zr839 Zr 0.23108 0.32112 0.28104
 O840 O 0.18807 0.28343 0.24013
 O841 O 0.20693 0.20785 0.20702
 O842 O 0.29368 0.29400 0.29344
 C843 C 0.24431 0.18926 0.11972
 C844 C 0.18911 0.12023 0.24413
 C845 C 0.11979 0.24500 0.18857
 C846 C 0.25895 0.31115 0.38063
 C847 C 0.38007 0.25894 0.31183
 C848 C 0.31202 0.38069 0.25797
 H849 H 0.33954 0.20267 0.26206
 H850 H 0.26258 0.34038 0.20173
 H851 H 0.18788 0.18893 0.18807
 H852 H 0.20227 0.26271 0.33974
 H853 H 0.23848 0.17388 0.36788
 H854 H 0.16879 0.19173 0.34875
 H855 H 0.32605 0.33413 0.16253
 H856 H 0.27602 0.29214 0.11898
 H857 H 0.32685 0.17402 0.36687
 H858 H 0.29749 0.09946 0.23992
 H859 H 0.20631 0.38385 0.22787
 H860 H 0.17050 0.33993 0.17745
 H861 H 0.32272 0.12671 0.17568
 H862 H 0.37104 0.22764 0.18793
 H863 H 0.11899 0.27816 0.28914
 H864 H 0.16336 0.32680 0.33414
 O865 O 0.83378 0.65148 0.23950
 O866 O 0.84257 0.68761 0.17157
 O867 O 0.84791 0.76187 0.33242
 O868 O 0.81193 0.82286 0.35086
 O869 O 0.73857 0.66525 0.34783
 O870 O 0.67151 0.65383 0.30940
 O871 O 0.72743 0.87645 0.22346
 O872 O 0.79801 0.87761 0.24683
 O873 O 0.72403 0.77306 0.12352
 O874 O 0.74270 0.70054 0.12056
 O875 O 0.62356 0.77588 0.22614
 O876 O 0.62126 0.75888 0.30223
 O877 O 0.66564 0.84875 0.25710
 O878 O 0.65442 0.80822 0.32868
 O879 O 0.65098 0.74188 0.16456
 O880 O 0.69192 0.66996 0.15538
 O881 O 0.75625 0.83539 0.15149
 O882 O 0.82914 0.83724 0.18649
 O883 O 0.77201 0.62387 0.27316
 O884 O 0.69566 0.62395 0.25361
 O885 O 0.77350 0.72617 0.37539
 O886 O 0.74987 0.80426 0.37329
 O887 O 0.87500 0.72377 0.27302
 O888 O 0.87131 0.75503 0.19753
 Zr889 Zr 0.82002 0.71934 0.23044
 O890 O 0.78102 0.75881 0.18837
 Zr891 Zr 0.77948 0.76870 0.32037
 O892 O 0.74027 0.81112 0.28144
 Zr893 Zr 0.72993 0.67921 0.27999
 O894 O 0.68774 0.71791 0.24026
 Zr895 Zr 0.76864 0.82039 0.21851
 O896 O 0.81099 0.78234 0.25961
 Zr897 Zr 0.71826 0.73075 0.17892
 O898 O 0.75893 0.68813 0.21705
 Zr899 Zr 0.67879 0.78100 0.26863
 O900 O 0.71646 0.74000 0.31156
 O901 O 0.79190 0.70683 0.29252
 O902 O 0.70583 0.79349 0.20596
 C903 C 0.81035 0.61956 0.25519
 C904 C 0.87956 0.74395 0.31018
 C905 C 0.75487 0.68820 0.37975
 C906 C 0.68880 0.88067 0.24092
 C907 C 0.74071 0.81206 0.11945
 C908 C 0.61921 0.75832 0.18760
 H909 H 0.79700 0.76212 0.15987
 H910 H 0.65941 0.70176 0.23699
 H911 H 0.81081 0.68785 0.31154
 H912 H 0.73724 0.83962 0.29742
 H913 H 0.82593 0.86781 0.26105
 H914 H 0.80824 0.84852 0.33079
 H915 H 0.66551 0.66268 0.17346
 H916 H 0.70757 0.61897 0.22340
 H917 H 0.82571 0.86689 0.17258
 H918 H 0.90011 0.73971 0.20166
 H919 H 0.61594 0.72780 0.29311
 H920 H 0.65990 0.67742 0.32912
 H921 H 0.87275 0.67546 0.17656
 H922 H 0.77193 0.68792 0.12838
 H923 H 0.72184 0.78884 0.38072
 H924 H 0.67331 0.83389 0.33654
 O925 O 0.65119 0.24056 0.83410
 O926 O 0.68723 0.17277 0.84318
 O927 O 0.76209 0.33336 0.84809
 O928 O 0.82265 0.35189 0.81184
 O929 O 0.66522 0.34871 0.73874
 O930 O 0.65367 0.31029 0.67181
 O931 O 0.87603 0.22378 0.72779
 O932 O 0.87714 0.24734 0.79835
 O933 O 0.77242 0.12417 0.72430
 O934 O 0.70000 0.12144 0.74309
 O935 O 0.77562 0.22655 0.62379
 O936 O 0.75900 0.30250 0.62123
 O937 O 0.84847 0.25736 0.66593
 O938 O 0.80794 0.32923 0.65471
 O939 O 0.74142 0.16513 0.65124
 O940 O 0.66952 0.15626 0.69228
 O941 O 0.83473 0.15204 0.75651
 O942 O 0.83668 0.18711 0.82946
 O943 O 0.62371 0.27402 0.77220
 O944 O 0.62390 0.25454 0.69578
 O945 O 0.72612 0.37627 0.77359
 O946 O 0.80421 0.37387 0.74984
 O947 O 0.72377 0.27423 0.87536
 O948 O 0.75465 0.19848 0.87163
 Zr949 Zr 0.71903 0.23147 0.82039
 O950 O 0.75835 0.18918 0.78135
 Zr951 Zr 0.76853 0.32117 0.77963
 O952 O 0.81088 0.28203 0.74048
 Zr953 Zr 0.67906 0.28085 0.73018
 O954 O 0.71767 0.24098 0.68796
 Zr955 Zr 0.81994 0.21912 0.76894
 O956 O 0.78203 0.26046 0.81125
 Zr957 Zr 0.73032 0.17967 0.71857
 O958 O 0.68785 0.21799 0.75928
 Zr959 Zr 0.78079 0.26915 0.67900
 O960 O 0.73984 0.31227 0.71662
 O961 O 0.70664 0.29354 0.79218
 O962 O 0.79309 0.20649 0.70612
 C963 C 0.61932 0.25606 0.81053
 C964 C 0.74425 0.31125 0.87985
 C965 C 0.68822 0.38064 0.75491
 C966 C 0.88030 0.24113 0.68912
 C967 C 0.81136 0.12005 0.74096
 C968 C 0.75796 0.18806 0.61946
 H969 H 0.76159 0.16069 0.79735
 H970 H 0.70154 0.23771 0.65963
 H971 H 0.68771 0.31263 0.81111
 H972 H 0.83939 0.29792 0.73745
 H973 H 0.86733 0.26165 0.82627
 H974 H 0.84812 0.33148 0.80875
 H975 H 0.66237 0.17421 0.66576
 H976 H 0.61880 0.22437 0.70772
 H977 H 0.86626 0.17309 0.82600
 H978 H 0.73951 0.20287 0.90052
 H979 H 0.72778 0.29384 0.61615
 H980 H 0.67733 0.32978 0.66003
 H981 H 0.67518 0.17790 0.87341
 H982 H 0.68753 0.12934 0.77241
 H983 H 0.78871 0.38142 0.72191
 H984 H 0.83384 0.33686 0.67334
 C985 C 0.09904 1.00215 1.20829
 C986 C 0.08136 1.00506 1.17254
 C987 C 0.59849 0.50231 0.70874
 C988 C 0.58075 0.50557 0.67303
 C989 C 0.40269 0.00041 0.70975
 C990 C 0.42091 -0.00200 0.67419
 C991 C -0.09782 0.50028 1.20962
 C992 C -0.07980 0.49801 1.17396
 C993 C -0.09891 0.50200 0.29083
 C994 C -0.08145 0.50489 0.32671
 C995 C 0.40135 1.00257 -0.20909
 C996 C 0.41869 1.00582 -0.17318
 C997 C 0.59812 0.49866 -0.21013
 C998 C 0.58022 0.49524 -0.17449
 C999 C 0.09836 -0.00051 0.28940
 C1000 C 0.08042 -0.00342 0.32504
 C1001 C 0.20835 1.09926 1.00169
 C1002 C 0.17257 1.08160 1.00483
 C1003 C 0.70921 0.59842 0.50175
 C1004 C 0.67353 0.58058 0.50504
 C1005 C 0.70947 0.40086 -0.00156
 C1006 C 0.67352 0.41824 -0.00450
 C1007 C 0.21078 -0.09861 0.49939
 C1008 C 0.17501 -0.08086 0.49686
 C1009 C 0.29177 -0.09770 0.50033
 C1010 C 0.32726 -0.07945 0.50278
 C1011 C -0.20936 0.40244 1.00002
 C1012 C -0.17387 0.42074 1.00252
 C1013 C -0.20974 0.59798 0.49806
 C1014 C -0.17422 0.57980 0.49482
 C1015 C 0.28953 1.09879 -0.00177
 C1016 C 0.32519 1.08089 -0.00500
 C1017 C 0.00183 1.21011 1.09803
 C1018 C 0.00483 1.17443 1.08008
 C1019 C 0.50148 0.70976 0.59936
 C1020 C 0.50420 0.67381 0.58191
 C1021 C -0.00220 0.70799 0.39992
 C1022 C -0.00506 0.67222 0.41764
 C1023 C 0.49800 1.20984 -0.09968
 C1024 C 0.49498 1.17407 -0.08193
 C1025 C 0.50144 0.29108 -0.09945
 C1026 C 0.50492 0.32678 -0.08161
 C1027 C 0.00031 -0.21094 0.40089
 C1028 C 0.00316 -0.17540 0.41906
 C1029 C 0.50027 -0.20906 0.59797
 C1030 C 0.49811 -0.17352 0.57973
 C1031 C 0.00009 0.29115 1.09750
 C1032 C -0.00230 0.32672 1.07937
 C1033 C 0.75225 0.34834 0.04019
 C1034 C 0.75545 0.33046 0.07587
 C1035 C 0.25326 0.84835 0.54051
 C1036 C 0.25635 0.83047 0.57617
 C1037 C 0.74993 0.65201 0.54030
 C1038 C 0.74774 0.67021 0.57591
 C1039 C 0.24914 0.15266 0.04037
 C1040 C 0.24703 0.17075 0.07600
 C1041 C 0.24937 0.15243 0.95940
 C1042 C 0.25175 0.17030 0.92371
 C1043 C 0.74996 0.65169 0.45920
 C1044 C 0.75211 0.66963 0.42348
 C1045 C 0.25069 0.84808 0.45943
 C1046 C 0.24787 0.82999 0.42383
 C1047 C 0.75016 0.34784 0.95914
 C1048 C 0.74755 0.32974 0.92354
 C1049 C 0.84919 0.45933 0.24855
 C1050 C 0.83193 0.42336 0.24558
 C1051 C 0.34952 0.95963 0.74875
 C1052 C 0.33222 0.92364 0.74591
 C1053 C 0.15197 0.96000 0.24967
 C1054 C 0.16977 0.92426 0.25222
 C1055 C 0.65181 0.46002 0.74955
 C1056 C 0.66978 0.42435 0.75191
 C1057 C 0.65180 0.54100 0.74949
 C1058 C 0.66987 0.57663 0.74732
 C1059 C 0.15237 0.04101 0.24895
 C1060 C 0.17049 0.07660 0.24686
 C1061 C 0.34773 0.04079 0.75017
 C1062 C 0.32939 0.07628 0.75251
 C1063 C 0.84733 0.54042 0.25028
 C1064 C 0.82893 0.57587 0.25250
 C1065 C 0.95942 0.25219 0.15074
 C1066 C 0.92356 0.25523 0.16833
 C1067 C 0.45963 0.75257 0.65171
 C1068 C 0.42382 0.75568 0.66932
 C1069 C 0.45889 0.25048 0.84714
 C1070 C 0.42320 0.24815 0.82926
 C1071 C 0.95884 0.74877 0.34672
 C1072 C 0.92323 0.74668 0.32869
 C1073 C 0.03988 0.74968 0.34706
 C1074 C 0.07566 0.75241 0.32935
 C1075 C 0.53988 0.25072 0.84675
 C1076 C 0.57555 0.25307 0.82880
 C1077 C 0.54072 0.75031 0.65246
 C1078 C 0.57635 0.74787 0.67041
 C1079 C 0.04057 0.25028 0.15188
 C1080 C 0.07611 0.24788 0.17004
 C1081 C -0.09759 1.00048 0.78967
 C1082 C -0.07949 0.99786 0.82525
 C1083 C 0.40253 0.49991 0.28979
 C1084 C 0.42088 0.49712 0.32518
 C1085 C 0.59928 0.00199 0.29067
 C1086 C 0.58148 0.00548 0.32637
 C1087 C 0.09877 0.50223 0.79050
 C1088 C 0.08075 0.50571 0.82609
 C1089 C 0.09733 0.49956 0.70974
 C1090 C 0.07853 0.49633 0.67459
 C1091 C 0.59735 0.99971 0.20991
 C1092 C 0.57837 0.99696 0.17483
 C1093 C 0.40264 0.50062 0.20909
 C1094 C 0.42104 0.50314 0.17366
 C1095 C -0.09719 0.00159 0.70875
 C1096 C -0.07872 0.00464 0.67334
 C1097 C -0.21073 0.90326 0.99928
 C1098 C -0.17537 0.92170 0.99636
 C1099 C 0.29015 0.40277 0.49967
 C1100 C 0.32554 0.42126 0.49711
 C1101 C 0.29063 0.59771 -0.00008
 C1102 C 0.32607 0.57933 0.00257
 C1103 C -0.20820 0.09781 0.50063
 C1104 C -0.17272 0.07955 0.50383
 C1105 C 0.71084 0.09797 0.49775
 C1106 C 0.67533 0.07979 0.49437
 C1107 C 0.20975 0.59818 0.99767
 C1108 C 0.17425 0.58001 0.99419
 C1109 C 0.20936 0.40227 0.49993
 C1110 C 0.17377 0.42036 0.50245
 C1111 C 0.70860 0.90322 0.00025
 C1112 C 0.67319 0.92163 0.00293
 C1113 C -0.00051 0.79092 0.90183
 C1114 C -0.00325 0.82631 0.92033
 C1115 C 0.49967 0.29087 0.40212
 C1116 C 0.49693 0.32628 0.42061
 C1117 C -0.00039 0.28931 0.59737
 C1118 C 0.00226 0.32485 0.57910
 C1119 C 0.49939 0.79121 0.09783
 C1120 C 0.50191 0.82675 0.07962
 C1121 C 0.49881 0.71039 0.09713
 C1122 C 0.49618 0.67504 0.07855
 C1123 C -0.00164 0.20823 0.59769
 C1124 C -0.00469 0.17262 0.57960
 C1125 C 0.50166 0.20994 0.40138
 C1126 C 0.50518 0.17436 0.41943
 C1127 C 0.00124 0.70999 0.90085
 C1128 C 0.00450 0.67439 0.91889
 C1129 C 0.24974 0.65257 0.95948
 C1130 C 0.24705 0.67118 0.92417
 C1131 C 0.75082 0.15219 0.45925
 C1132 C 0.74799 0.17071 0.42387
 C1133 C 0.25203 0.34834 0.45964
 C1134 C 0.25564 0.32991 0.42427
 C1135 C 0.75070 0.84940 0.95920
 C1136 C 0.75429 0.83139 0.92359
 C1137 C 0.74728 0.84919 0.04029
 C1138 C 0.74389 0.83088 0.07578
 C1139 C 0.24801 0.34881 0.54052
 C1140 C 0.24437 0.33068 0.57603
 C1141 C 0.75216 0.15139 0.54015
 C1142 C 0.75504 0.16943 0.57577
 C1143 C 0.25150 0.65115 0.04039
 C1144 C 0.25459 0.66908 0.07608
 C1145 C 0.15231 0.54089 0.74985
 C1146 C 0.17084 0.57626 0.75252
 C1147 C 0.65255 0.04065 0.24984
 C1148 C 0.67106 0.07601 0.25248
 C1149 C 0.84842 0.04096 0.74748
 C1150 C 0.83007 0.07639 0.74411
 C1151 C 0.34872 0.54091 0.24771
 C1152 C 0.33047 0.57641 0.24433
 C1153 C 0.34869 0.45991 0.25115
 C1154 C 0.33055 0.42439 0.25463
 C1155 C 0.84907 0.95993 0.75073
 C1156 C 0.83098 0.92434 0.75430
 C1157 C 0.65193 0.95983 0.24783
 C1158 C 0.67014 0.92433 0.24430
 C1159 C 0.15171 0.45998 0.74805
 C1160 C 0.16985 0.42444 0.74453
 C1161 C 0.04018 0.74993 0.84709
 C1162 C 0.07549 0.74698 0.82854
 C1163 C 0.54021 0.24980 0.34728
 C1164 C 0.57553 0.24679 0.32871
 C1165 C 0.53997 0.75206 0.15103
 C1166 C 0.57554 0.75527 0.16905
 C1167 C 0.04010 0.25057 0.65092
 C1168 C 0.07567 0.25414 0.66891
 C1169 C 0.95924 0.24749 0.65186
 C1170 C 0.92391 0.24424 0.67038
 C1171 C 0.45912 0.74850 0.15178
 C1172 C 0.42380 0.74480 0.17026
 C1173 C 0.45934 0.25218 0.34842
 C1174 C 0.42374 0.25561 0.33044
 C1175 C 0.95951 0.75248 0.84768
 C1176 C 0.92413 0.75600 0.82938
   
