data_POSCAR
  _audit_creation_date              2014-09-24
  _audit_creation_method            'ToBaCCo'
  _symmetry_space_group_name_H-M    'P1'
  _symmetry_Int_Tables_number       1
  _symmetry_cell_setting            triclinic
  loop_
  _symmetry_equiv_pos_as_xyz
 x,y,z
_cell_length_a 17.2538
_cell_length_b 19.0476
_cell_length_c 20.1461
_cell_angle_alpha 90.811200
_cell_angle_beta 72.630700
_cell_angle_gamma 88.394900
loop_
  _atom_site_label
  _atom_site_type_symbol
  _atom_site_fract_x
  _atom_site_fract_y
  _atom_site_fract_z
O1 O -0.12130 0.59814 1.02271
 O2 O -0.02471 0.46283 1.09935
 O3 O -0.00650 0.59462 1.08294
 O4 O -0.10898 0.45574 1.01291
 O5 O -0.00720 0.45327 0.91587
 O6 O 0.09997 0.57853 0.99058
 O7 O 0.07202 0.44559 0.99991
 O8 O -0.01677 0.59486 0.92753
 Cu9 Cu -0.07596 0.52896 1.06181
 Cu10 Cu 0.04618 0.52011 0.94825
 C11 C -0.08471 0.62237 0.96400
 C12 C 0.03652 0.42740 1.06225
 C13 C 0.06652 0.60803 1.04923
 C14 C -0.07146 0.42717 0.95404
 O15 O 0.54604 -0.08924 0.54436
 O16 O 0.44731 -0.07473 0.41089
 O17 O 0.59981 -0.06712 0.41019
 O18 O 0.39649 -0.05103 0.54460
 O19 O 0.41122 0.06365 0.54660
 O20 O 0.60588 0.04844 0.41602
 O21 O 0.45505 0.04087 0.41147
 O22 O 0.55784 0.02511 0.54993
 Cu23 Cu 0.49678 -0.08081 0.47763
 Cu24 Cu 0.50834 0.05472 0.48130
 C25 C 0.57226 -0.03673 0.56860
 C26 C 0.43260 -0.01579 0.38882
 C27 C 0.63710 -0.01032 0.39079
 C28 C 0.36853 0.01085 0.56618
 C29 C 0.01001 0.00462 0.17729
 C30 C 0.08831 0.02651 0.14255
 C31 C 0.10052 0.09718 0.12556
 C32 C 0.03503 0.14618 0.14425
 C33 C -0.04313 0.12376 0.18055
 C34 C -0.05511 0.05322 0.19877
 C35 C 0.15732 -0.02281 0.13647
 C36 C 0.15365 -0.09175 0.11330
 C37 C 0.20222 -0.14547 0.12831
 C38 C 0.25811 -0.12936 0.16429
 C39 C 0.26395 -0.05952 0.18578
 C40 C 0.21471 -0.00640 0.17037
 H41 H 0.00095 -0.04921 0.19402
 H42 H 0.16137 0.11447 0.10025
 H43 H 0.10737 -0.10480 0.08910
 H44 H 0.21426 0.04598 0.19235
 H45 H -0.09352 0.16166 0.19752
 H46 H 0.29228 -0.17130 0.17981
 C47 C -0.14706 -0.07764 0.85068
 C48 C -0.14999 -0.01754 0.81274
 C49 C -0.20266 -0.01312 0.77207
 C50 C -0.25265 -0.06904 0.76865
 C51 C -0.25212 -0.12849 0.80970
 C52 C -0.19802 -0.13337 0.84985
 C53 C -0.08931 0.03585 0.80741
 C54 C -0.00927 0.02093 0.76679
 C55 C 0.04937 0.07187 0.75798
 C56 C 0.02815 0.13738 0.79265
 C57 C -0.05207 0.15227 0.83446
 C58 C -0.11105 0.10161 0.84062
 H59 H -0.10271 -0.08209 0.87900
 H60 H -0.20095 0.03214 0.73967
 H61 H 0.00660 -0.02949 0.73970
 H62 H -0.17334 0.11311 0.87163
 H63 H -0.29036 -0.17211 0.80756
 H64 H 0.07352 0.17703 0.78607
 C65 C 0.20222 -0.23992 0.04403
 C66 C 0.16711 -0.29872 0.02503
 C67 C 0.11190 -0.33808 0.07511
 C68 C 0.09830 -0.32104 0.14667
 C69 C 0.13313 -0.26013 0.16592
 C70 C 0.18373 -0.21841 0.11376
 C71 C 0.11410 -0.24190 0.23700
 N72 N 0.06671 -0.28371 0.28543
 N73 N 0.03682 -0.34230 0.26759
 C74 C 0.05114 -0.36252 0.20008
 H75 H 0.23990 -0.20811 0.00354
 H76 H 0.17952 -0.31080 -0.02995
 H77 H 0.13708 -0.19538 0.25467
 H78 H 0.02682 -0.41148 0.18929
 C79 C 0.08523 0.23869 0.05824
 C80 C 0.09071 0.30854 0.03834
 C81 C 0.05759 0.36314 0.08721
 C82 C 0.03184 0.34677 0.15916
 C83 C 0.02729 0.27554 0.17931
 C84 C 0.04927 0.22124 0.12774
 C85 C 0.00240 0.26105 0.25077
 N86 N -0.01625 0.31448 0.29859
 N87 N -0.01084 0.38132 0.27987
 C88 C 0.01303 0.39929 0.21207
 H89 H 0.10479 0.19775 0.01831
 H90 H 0.11269 0.31879 -0.01679
 H91 H -0.00053 0.20789 0.26921
 H92 H 0.01992 0.45435 0.20042
 C93 C 0.18154 0.00511 0.72158
 C94 C 0.25746 -0.01175 0.67420
 C95 C 0.28433 0.02372 0.61151
 C96 C 0.23201 0.07518 0.59488
 C97 C 0.15500 0.09214 0.64304
 C98 C 0.13057 0.05780 0.70747
 C99 C 0.10375 0.14184 0.62418
 N100 N 0.12857 0.17261 0.56147
 N101 N 0.20076 0.15673 0.51612
 C102 C 0.25306 0.10914 0.53046
 H103 H 0.16256 -0.02272 0.77001
 H104 H 0.29640 -0.05127 0.68744
 H105 H 0.04382 0.15603 0.65814
 H106 H 0.30954 0.09735 0.49046
 C107 C -0.34825 -0.00584 0.71784
 C108 C -0.38729 0.00399 0.66719
 C109 C -0.38204 -0.04752 0.61543
 C110 C -0.33022 -0.10863 0.61224
 C111 C -0.28813 -0.11703 0.66284
 C112 C -0.29926 -0.06602 0.71723
 C113 C -0.23224 -0.17437 0.65483
 N114 N -0.22069 -0.22095 0.60120
 N115 N -0.25949 -0.21338 0.55376
 C116 C -0.31258 -0.15888 0.55674
 H117 H -0.35568 0.03462 0.75782
 H118 H -0.42480 0.05129 0.67046
 H119 H -0.19551 -0.18211 0.68914
 H120 H -0.33663 -0.15468 0.51342
 C121 C -0.15395 -0.25877 0.84291
 C122 C -0.12219 -0.31626 0.86963
 C123 C -0.12082 -0.31573 0.93887
 C124 C -0.15401 -0.25608 0.98257
 C125 C -0.18829 -0.19860 0.95567
 C126 C -0.18542 -0.19899 0.88465
 C127 C -0.22300 -0.14126 1.00053
 N128 N -0.22006 -0.14022 1.06698
 N129 N -0.18460 -0.19253 1.09148
 C130 C -0.15110 -0.25001 1.05166
 H131 H -0.15009 -0.25953 0.78823
 H132 H -0.09722 -0.36116 0.83558
 H133 H -0.25251 -0.09730 0.98330
 H134 H -0.12141 -0.28933 1.07445
 C135 C -0.07027 0.28089 0.82953
 C136 C -0.08038 0.34808 0.85948
 C137 C -0.09448 0.35844 0.93130
 C138 C -0.10597 0.29863 0.97460
 C139 C -0.09468 0.23000 0.94362
 C140 C -0.07422 0.22160 0.87035
 C141 C -0.10040 0.17182 0.98694
 N142 N -0.11852 0.18163 1.05666
 N143 N -0.13022 0.24561 1.08595
 C144 C -0.12406 0.30421 1.04757
 H145 H -0.05541 0.27514 0.77349
 H146 H -0.07092 0.39263 0.82542
 H147 H -0.09032 0.11859 0.96624
 H148 H -0.13456 0.35388 1.07532
 C149 C -0.20010 0.02529 0.22676
 C150 C -0.27368 0.00518 0.27197
 C151 C -0.28049 -0.01022 0.34106
 C152 C -0.21121 -0.00708 0.36512
 C153 C -0.13541 0.01486 0.31947
 C154 C -0.13155 0.03145 0.24963
 C155 C -0.06511 0.02347 0.34165
 N156 N -0.06106 0.00569 0.40508
 C157 C -0.21884 -0.02300 0.43421
 H158 H -0.19689 0.03761 0.17367
 H159 H -0.32680 0.00479 0.25380
 H160 H -0.01098 0.04545 0.30757
 H161 H -0.27448 -0.03909 0.47084
 C162 C 0.38531 -0.02322 0.21859
 C163 C 0.42498 -0.00875 0.26824
 C164 C 0.38476 -0.01526 0.33931
 C165 C 0.30235 -0.03458 0.36090
 C166 C 0.26179 -0.04799 0.31075
 C167 C 0.30456 -0.04420 0.23907
 C168 C 0.17944 -0.06570 0.33416
 N169 N 0.14132 -0.07065 0.40320
 N170 N 0.17989 -0.05927 0.45034
 C171 C 0.25898 -0.04175 0.43156
 H172 H 0.41811 -0.01918 0.16388
 H173 H 0.48846 0.00444 0.25101
 H174 H 0.14489 -0.07548 0.29839
 H175 H 0.28703 -0.03325 0.47202
   
