data_POSCAR
  _audit_creation_date              2014-09-24
  _audit_creation_method            'ToBaCCo'
  _symmetry_space_group_name_H-M    'P1'
  _symmetry_Int_Tables_number       1
  _symmetry_cell_setting            triclinic
  loop_
  _symmetry_equiv_pos_as_xyz
 x,y,z
_cell_length_a 27.1103
_cell_length_b 27.1102
_cell_length_c 27.1583
_cell_angle_alpha 90.106600
_cell_angle_beta 90.106700
_cell_angle_gamma 90.000000
loop_
  _atom_site_label
  _atom_site_type_symbol
  _atom_site_fract_x
  _atom_site_fract_y
  _atom_site_fract_z
O1 O 0.45291 0.95958 -0.54741
 O2 O 0.54914 0.95958 -0.45131
 O3 O 0.45308 0.95883 -0.45153
 O4 O 0.54894 0.95888 -0.54723
 O5 O 0.54902 1.04038 -0.54716
 O6 O 0.45295 1.04032 -0.45124
 O7 O 0.54902 1.04104 -0.45123
 O8 O 0.45299 1.04108 -0.54712
 Cu9 Cu 0.50103 0.95104 -0.49938
 Cu10 Cu 0.50101 1.04889 -0.49916
 C11 C 0.43661 1.00040 -0.56360
 C12 C 0.56548 1.00037 -0.43487
 C13 C 0.43668 0.99950 -0.43511
 C14 C 0.56527 0.99958 -0.56352
 O15 O -0.54992 1.45168 -0.04040
 O16 O -0.45375 1.54785 -0.04056
 O17 O -0.45386 1.45183 -0.04120
 O18 O -0.54982 1.54778 -0.04121
 O19 O -0.54973 1.54812 0.04010
 O20 O -0.45356 1.45195 0.04015
 O21 O -0.45367 1.54797 0.04079
 O22 O -0.54962 1.45201 0.04091
 Cu23 Cu -0.50188 1.49976 -0.04900
 Cu24 Cu -0.50164 1.50003 0.04865
 C25 C -0.56614 1.43542 0.00034
 C26 C -0.43735 1.56422 0.00016
 C27 C -0.43735 1.43557 -0.00058
 C28 C -0.56615 1.56438 -0.00063
 O29 O -0.04024 0.45272 0.45259
 O30 O -0.04024 0.54895 0.54870
 O31 O -0.04094 0.54875 0.45278
 O32 O -0.04099 0.45288 0.54847
 O33 O 0.04050 0.45276 0.54875
 O34 O 0.04056 0.54884 0.45285
 O35 O 0.04122 0.54883 0.54877
 O36 O 0.04126 0.45281 0.45288
 Cu37 Cu -0.04878 0.50083 0.50062
 Cu38 Cu 0.04906 0.50082 0.50084
 C39 C 0.00058 0.43642 0.43640
 C40 C 0.00055 0.56529 0.56513
 C41 C -0.00025 0.56508 0.43649
 C42 C -0.00032 0.43648 0.56489
 O43 O -0.12692 1.00145 -0.06694
 O44 O 0.12699 0.99823 -0.06669
 O45 O -0.00163 1.06653 -0.12686
 O46 O 0.00159 0.93304 -0.12697
 O47 O 0.00163 0.87288 -0.06693
 O48 O -0.00159 1.12679 -0.06670
 O49 O 0.06673 0.99817 -0.12685
 O50 O -0.06676 1.00140 -0.12697
 Zr51 Zr 0.00002 0.99982 -0.08683
 O52 O 0.04483 0.95508 -0.04488
 O53 O -0.04473 1.04464 -0.04489
 C54 C -0.11234 1.00212 -0.11243
 C55 C 0.11233 0.99748 -0.11221
 C56 C -0.00233 1.11213 -0.11222
 C57 C 0.00231 0.88746 -0.11242
 H58 H 0.06561 1.06542 -0.06553
 O59 O 0.04458 1.04439 -0.04455
 H60 H -0.06556 0.93425 -0.06577
 O61 O -0.04449 0.95532 -0.04472
 O62 O 0.12712 1.00157 0.06656
 O63 O -0.12679 0.99835 0.06635
 O64 O 0.06682 1.12686 0.00159
 O65 O 0.06681 0.87294 -0.00184
 O66 O -0.06668 0.87295 0.00125
 O67 O -0.06668 1.12685 -0.00174
 O68 O 0.00183 1.06677 0.12659
 O69 O -0.00140 0.93332 0.12647
 O70 O 0.00175 1.12693 0.06655
 O71 O -0.00147 0.87301 0.06635
 O72 O 0.12705 1.06667 0.00159
 O73 O -0.12687 1.06663 -0.00185
 O74 O -0.12687 0.93317 0.00125
 O75 O 0.12704 0.93313 -0.00174
 O76 O 0.06695 1.00164 0.12659
 O77 O -0.06650 0.99841 0.12647
 Zr78 Zr 0.08691 0.99990 -0.00011
 Zr79 Zr -0.08672 0.99990 -0.00026
 Zr80 Zr 0.00008 1.08671 -0.00011
 Zr81 Zr 0.00008 0.91309 -0.00026
 Zr82 Zr 0.00018 1.00000 0.08644
 O83 O -0.04465 0.95517 0.04443
 O84 O 0.04492 1.04473 0.04458
 C85 C 0.11253 1.00233 0.11205
 C86 C -0.11211 0.99768 0.11186
 C87 C 0.11241 1.11226 0.00231
 C88 C 0.11241 0.88754 -0.00249
 C89 C -0.11226 0.88758 0.00194
 C90 C -0.11227 1.11222 -0.00250
 C91 C 0.00251 1.11234 0.11205
 C92 C -0.00213 0.88771 0.11187
 H93 H -0.06544 1.06555 0.06528
 O94 O -0.04441 1.04448 0.04426
 H95 H 0.06574 0.93438 0.06528
 O96 O 0.04467 0.95541 0.04426
 N97 N 0.34541 0.95811 0.34497
 C98 C 0.32775 1.00144 0.32737
 N99 N 0.34584 1.04438 0.34561
 N100 N 0.38055 1.04400 0.38040
 C101 C 0.39834 1.00068 0.39811
 N102 N 0.38014 0.95773 0.37977
 C103 C 0.29037 1.00191 0.28991
 C104 C 0.25895 1.00237 0.25845
 C105 C 0.22153 1.00287 0.22103
 N106 N 0.17314 1.00302 0.23352
 N107 N 0.13838 1.00310 0.19877
 C108 C 0.15085 1.00308 0.15035
 N109 N 0.19938 1.00302 0.13798
 N110 N 0.23413 1.00293 0.17274
 N111 N -0.34402 1.04193 0.34509
 C112 C -0.32646 0.99861 0.32727
 N113 N -0.34443 0.95566 0.34537
 N114 N -0.37894 0.95601 0.38023
 C115 C -0.39663 0.99932 0.39817
 N116 N -0.37854 1.04229 0.37997
 C117 C -0.28928 0.99817 0.28973
 C118 C -0.25802 0.99772 0.25823
 C119 C -0.22075 0.99722 0.22079
 N120 N -0.23352 0.99711 0.17250
 N121 N -0.19889 0.99700 0.13774
 C122 C -0.15032 0.99698 0.15013
 N123 N -0.13768 0.99701 0.19855
 N124 N -0.17232 0.99712 0.23329
 N125 N -0.34566 1.04422 -0.34579
 C126 C -0.32758 1.00127 -0.32776
 N127 N -0.34525 0.95797 -0.34557
 N128 N -0.37998 0.95763 -0.38037
 C129 C -0.39822 1.00060 -0.39855
 N130 N -0.38038 1.04390 -0.38057
 C131 C -0.29019 1.00168 -0.29030
 C132 C -0.25877 1.00212 -0.25883
 C133 C -0.22135 1.00260 -0.22140
 N134 N -0.23395 1.00273 -0.17311
 N135 N -0.19919 1.00282 -0.13835
 C136 C -0.15066 1.00283 -0.15073
 N137 N -0.13820 1.00278 -0.19915
 N138 N -0.17296 1.00269 -0.23390
 N139 N 0.34532 1.04176 -0.34416
 C140 C 0.32763 0.99842 -0.32667
 N141 N 0.34578 0.95549 -0.34479
 N142 N 0.38058 0.95588 -0.37937
 C143 C 0.39838 0.99921 -0.39699
 N144 N 0.38012 1.04215 -0.37875
 C145 C 0.29017 0.99794 -0.28942
 C146 C 0.25871 0.99746 -0.25812
 C147 C 0.22128 0.99695 -0.22083
 N148 N 0.23390 0.99687 -0.17251
 N149 N 0.19915 0.99677 -0.13787
 C150 C 0.15062 0.99673 -0.15040
 N151 N 0.13813 0.99674 -0.19887
 N152 N 0.17289 0.99683 -0.23350
 N153 N 0.34534 1.34632 0.04426
 C154 C 0.32721 1.32803 0.00141
 N155 N 0.34473 1.34568 -0.04184
 N156 N 0.37935 1.38057 -0.04224
 C157 C 0.39764 1.39902 0.00063
 N158 N 0.37995 1.38121 0.04388
 C159 C 0.28994 1.29046 0.00188
 C160 C 0.25860 1.25891 0.00236
 C161 C 0.22125 1.22141 0.00286
 N162 N 0.17284 1.23393 0.00298
 N163 N 0.13813 1.19912 0.00307
 C164 C 0.15069 1.15061 0.00307
 N165 N 0.19924 1.13822 0.00303
 N166 N 0.23393 1.17304 0.00295
 N167 N 0.34493 0.65413 0.04165
 C168 C 0.32721 0.67178 -0.00159
 N169 N 0.34513 0.65348 -0.04445
 N170 N 0.37974 0.61859 -0.04411
 C171 C 0.39764 0.60078 -0.00088
 N172 N 0.37956 0.61923 0.04201
 C173 C 0.28993 0.70935 -0.00203
 C174 C 0.25859 0.74089 -0.00248
 C175 C 0.22124 0.77839 -0.00298
 N176 N 0.23393 0.82677 -0.00301
 N177 N 0.19923 0.86159 -0.00311
 C178 C 0.15068 0.84919 -0.00321
 N179 N 0.13813 0.80068 -0.00326
 N180 N 0.17283 0.76587 -0.00316
 N181 N -0.34586 0.65507 -0.04220
 C182 C -0.32801 0.67278 0.00103
 N183 N -0.34612 0.65486 0.04392
 N184 N -0.38101 0.62025 0.04360
 C185 C -0.39897 0.60241 0.00038
 N186 N -0.38076 0.62044 -0.04253
 C187 C -0.29044 0.71006 0.00144
 C188 C -0.25890 0.74140 0.00188
 C189 C -0.22140 0.77875 0.00237
 N190 N -0.23393 0.82716 0.00250
 N191 N -0.19912 0.86186 0.00261
 C192 C -0.15061 0.84931 0.00262
 N193 N -0.13821 0.80076 0.00257
 N194 N -0.17303 0.76607 0.00246
 N195 N -0.34632 1.34494 -0.04444
 C196 C -0.32801 1.32702 -0.00158
 N197 N -0.34565 1.34474 0.04167
 N198 N -0.38056 1.37936 0.04204
 C199 C -0.39897 1.39739 -0.00084
 N200 N -0.38121 1.37955 -0.04408
 C201 C -0.29044 1.28974 -0.00203
 C202 C -0.25890 1.25840 -0.00249
 C203 C -0.22141 1.22105 -0.00299
 N204 N -0.23393 1.17264 -0.00317
 N205 N -0.19913 1.13794 -0.00327
 C206 C -0.15062 1.15049 -0.00323
 N207 N -0.13821 1.19904 -0.00313
 N208 N -0.17303 1.23373 -0.00302
 N209 N -0.04171 1.34523 0.34496
 C210 C 0.00162 1.32757 0.32736
 N211 N 0.04455 1.34566 0.34560
 N212 N 0.04418 1.38037 0.38039
 C213 C 0.00086 1.39816 0.39811
 N214 N -0.04210 1.37996 0.37976
 C215 C 0.00209 1.29019 0.28990
 C216 C 0.00255 1.25877 0.25844
 C217 C 0.00306 1.22135 0.22101
 N218 N 0.00320 1.17296 0.23351
 N219 N 0.00329 1.13820 0.19876
 C220 C 0.00326 1.15067 0.15034
 N221 N 0.00320 1.19919 0.13797
 N222 N 0.00311 1.23395 0.17273
 N223 N -0.04433 1.34558 -0.34480
 C224 C -0.00140 1.32743 -0.32667
 N225 N 0.04194 1.34512 -0.34416
 N226 N 0.04234 1.37992 -0.37876
 C227 C -0.00061 1.39818 -0.39699
 N228 N -0.04394 1.38038 -0.37938
 C229 C -0.00187 1.28997 -0.28943
 C230 C -0.00235 1.25851 -0.25813
 C231 C -0.00286 1.22108 -0.22084
 N232 N -0.00298 1.17269 -0.23350
 N233 N -0.00307 1.13793 -0.19887
 C234 C -0.00308 1.15042 -0.15041
 N235 N -0.00304 1.19895 -0.13787
 N236 N -0.00295 1.23370 -0.17251
 N237 N -0.04185 0.65455 -0.34556
 C238 C 0.00145 0.67222 -0.32775
 N239 N 0.04440 0.65414 -0.34578
 N240 N 0.04408 0.61942 -0.38057
 C241 C 0.00078 0.60158 -0.39855
 N242 N -0.04219 0.61983 -0.38036
 C243 C 0.00187 0.70961 -0.29029
 C244 C 0.00231 0.74103 -0.25882
 C245 C 0.00279 0.77845 -0.22140
 N246 N 0.00291 0.76585 -0.17311
 N247 N 0.00300 0.80061 -0.13835
 C248 C 0.00302 0.84914 -0.15072
 N249 N 0.00298 0.86160 -0.19914
 N250 N 0.00288 0.82684 -0.23389
 N251 N 0.04211 0.65580 0.34510
 C252 C -0.00121 0.67336 0.32728
 N253 N -0.04416 0.65539 0.34538
 N254 N -0.04381 0.62087 0.38024
 C255 C -0.00050 0.60319 0.39817
 N256 N 0.04247 0.62128 0.37998
 C257 C -0.00165 0.71054 0.28974
 C258 C -0.00210 0.74180 0.25824
 C259 C -0.00260 0.77907 0.22080
 N260 N -0.00270 0.82750 0.23330
 N261 N -0.00280 0.86214 0.19856
 C262 C -0.00284 0.84950 0.15014
 N263 N -0.00282 0.80093 0.13775
 N264 N -0.00271 0.76629 0.17251
   
