data_POSCAR
  _audit_creation_date              2014-09-24
  _audit_creation_method            'ToBaCCo'
  _symmetry_space_group_name_H-M    'P1'
  _symmetry_Int_Tables_number       1
  _symmetry_cell_setting            triclinic
  loop_
  _symmetry_equiv_pos_as_xyz
 x,y,z
_cell_length_a 30.2749
_cell_length_b 30.0787
_cell_length_c 30.3799
_cell_angle_alpha 89.901600
_cell_angle_beta 90.019600
_cell_angle_gamma 90.015600
loop_
  _atom_site_label
  _atom_site_type_symbol
  _atom_site_fract_x
  _atom_site_fract_y
  _atom_site_fract_z
C1 C 0.51855 1.00678 -0.50510
 C2 C 0.47376 1.00926 -0.50436
 C3 C 0.44665 1.01203 -0.54489
 C4 C 0.44813 1.00892 -0.46282
 C5 C 0.54521 1.00603 -0.46397
 C6 C 0.54394 1.00478 -0.54697
 C7 C 0.41935 1.04894 -0.55099
 C8 C 0.38782 1.04951 -0.58440
 C9 C 0.38166 1.01255 -0.61273
 C10 C 0.41162 0.97645 -0.60755
 C11 C 0.44337 0.97622 -0.57397
 C12 C 0.44922 1.04506 -0.43371
 C13 C 0.41980 1.04681 -0.39814
 C14 C 0.38910 1.01234 -0.39117
 C15 C 0.38927 0.97563 -0.41970
 C16 C 0.41831 0.97409 -0.45525
 C17 C 0.53982 0.97256 -0.43210
 C18 C 0.56780 0.97076 -0.39538
 C19 C 0.60198 1.00204 -0.39025
 C20 C 0.60675 1.03581 -0.42192
 C21 C 0.57877 1.03768 -0.45838
 C22 C 0.57427 0.97010 -0.55313
 C23 C 0.60186 0.96952 -0.58989
 C24 C 0.59995 1.00379 -0.62133
 C25 C 0.56873 1.03800 -0.61580
 C26 C 0.54112 1.03863 -0.57877
 H27 H 0.42187 1.07722 -0.52909
 H28 H 0.36919 1.07992 -0.58790
 H29 H 0.40906 0.94636 -0.62667
 H30 H 0.46380 0.94704 -0.56923
 H31 H 0.47164 1.07251 -0.43947
 H32 H 0.42055 1.07537 -0.37651
 H33 H 0.41670 0.94621 -0.47773
 H34 H 0.51480 0.94718 -0.43624
 H35 H 0.56366 0.94405 -0.37180
 H36 H 0.63234 1.06075 -0.41859
 H37 H 0.58357 1.06369 -0.48262
 H38 H 0.57705 0.94372 -0.52897
 H39 H 0.62506 0.94238 -0.59355
 H40 H 0.56683 1.06510 -0.63922
 H41 H 0.51864 1.06623 -0.57422
 H42 H 0.36563 0.94891 -0.41564
 C43 C -0.50118 1.52228 0.01524
 C44 C -0.50139 1.47742 0.01912
 C45 C -0.54279 1.45143 0.02122
 C46 C -0.46018 1.45086 0.01921
 C47 C -0.45948 1.54780 0.01338
 C48 C -0.54246 1.54835 0.01182
 C49 C -0.55069 1.42463 0.05813
 C50 C -0.58510 1.39385 0.05791
 C51 C -0.61186 1.38883 0.02044
 C52 C -0.60515 1.41725 -0.01581
 C53 C -0.57079 1.44834 -0.01542
 C54 C -0.42791 1.45612 0.05202
 C55 C -0.39114 1.42792 0.05319
 C56 C -0.38661 1.39379 0.02194
 C57 C -0.41849 1.38941 -0.01132
 C58 C -0.45490 1.41761 -0.01262
 C59 C -0.43029 1.54331 -0.02219
 C60 C -0.39162 1.56868 -0.02382
 C61 C -0.38157 1.59861 0.01024
 C62 C -0.41085 1.60277 0.04585
 C63 C -0.44965 1.57781 0.04720
 C64 C -0.54996 1.57401 -0.02582
 C65 C -0.58735 1.60082 -0.02906
 C66 C -0.61823 1.60345 0.00579
 C67 C -0.61058 1.57650 0.04334
 C68 C -0.57313 1.54941 0.04625
 H69 H -0.52918 1.42654 0.08658
 H70 H -0.59000 1.37310 0.08666
 H71 H -0.62493 1.41389 -0.04531
 H72 H -0.56458 1.46828 -0.04448
 H73 H -0.43181 1.48117 0.07727
 H74 H -0.36712 1.43173 0.07932
 H75 H -0.47938 1.41312 -0.03824
 H76 H -0.43771 1.52052 -0.04874
 H77 H -0.36948 1.56486 -0.05155
 H78 H -0.40417 1.62607 0.07216
 H79 H -0.47206 1.58179 0.07471
 H80 H -0.52678 1.57311 -0.05298
 H81 H -0.59211 1.61842 -0.05972
 H82 H -0.63192 1.57773 0.07180
 H83 H -0.56742 1.53020 0.07591
 H84 H -0.41541 1.36383 -0.03619
 C85 C 0.01674 0.51902 0.49737
 C86 C 0.01534 0.47405 0.49839
 C87 C 0.01338 0.44698 0.45770
 C88 C 0.01506 0.44942 0.54059
 C89 C 0.01626 0.54602 0.53798
 C90 C 0.01700 0.54473 0.45586
 C91 C -0.02184 0.41756 0.45160
 C92 C -0.02348 0.39003 0.41474
 C93 C 0.01058 0.39053 0.38285
 C94 C 0.04567 0.42106 0.38916
 C95 C 0.04703 0.44874 0.42614
 C96 C -0.02263 0.44867 0.56722
 C97 C -0.02368 0.42241 0.60525
 C98 C 0.01330 0.39658 0.61790
 C99 C 0.05146 0.39879 0.59112
 C100 C 0.05203 0.42447 0.55279
 C101 C 0.05407 0.55018 0.56413
 C102 C 0.05536 0.58143 0.59820
 C103 C 0.01863 0.60917 0.60703
 C104 C -0.01986 0.60295 0.58137
 C105 C -0.02077 0.57211 0.54720
 C106 C 0.05314 0.57229 0.44662
 C107 C 0.05113 0.60286 0.41216
 C108 C 0.01259 0.60700 0.38665
 C109 C -0.02288 0.57779 0.39466
 C110 C -0.02068 0.54686 0.42908
 H111 H -0.04844 0.41608 0.47542
 H112 H -0.05249 0.36942 0.41113
 H113 H 0.07357 0.42238 0.36703
 H114 H 0.07499 0.47073 0.43072
 H115 H -0.05150 0.46787 0.55812
 H116 H -0.05327 0.42353 0.62514
 H117 H 0.08124 0.42440 0.53219
 H118 H 0.08306 0.53028 0.55720
 H119 H 0.08516 0.58319 0.61774
 H120 H -0.04862 0.62388 0.58514
 H121 H -0.05002 0.56968 0.52677
 H122 H 0.08241 0.57110 0.46712
 H123 H 0.07936 0.62414 0.40622
 H124 H -0.05314 0.58038 0.37584
 H125 H -0.04913 0.52626 0.43629
 H126 H 0.08032 0.37877 0.59797
 O127 O -0.11649 0.99922 -0.06478
 O128 O 0.11075 0.99982 -0.06272
 O129 O -0.00573 1.06115 -0.11620
 O130 O 0.00021 0.94034 -0.11922
 O131 O 0.00016 0.88544 -0.06614
 O132 O -0.00689 1.11373 -0.06102
 O133 O 0.05793 1.00070 -0.11740
 O134 O -0.06222 1.00168 -0.11801
 Zr135 Zr -0.00252 0.99999 -0.08211
 O136 O 0.03796 0.95962 -0.04511
 O137 O -0.04373 1.03841 -0.04365
 C138 C -0.10324 1.00155 -0.10542
 C139 C 0.09862 0.99971 -0.10365
 C140 C -0.00754 1.10186 -0.10211
 C141 C 0.00076 0.89898 -0.10666
 H142 H 0.05467 1.05993 -0.06125
 O143 O 0.03607 1.04008 -0.04305
 H144 H -0.06044 0.93961 -0.06484
 O145 O -0.04201 0.95837 -0.04546
 O146 O 0.11000 1.00005 0.05545
 O147 O -0.11716 0.99280 0.05457
 O148 O 0.05360 1.11342 0.00045
 O149 O 0.05874 0.88524 -0.00838
 O150 O -0.06060 0.88272 -0.00617
 O151 O -0.06508 1.11105 -0.00277
 O152 O -0.00268 1.05487 0.11041
 O153 O -0.00461 0.93423 0.10733
 O154 O -0.00380 1.11052 0.05815
 O155 O -0.00307 0.88212 0.05187
 O156 O 0.10889 1.06083 -0.00086
 O157 O -0.11787 1.05594 -0.00493
 O158 O -0.11560 0.93567 -0.00573
 O159 O 0.11139 0.94052 -0.00654
 O160 O 0.05656 0.99687 0.10937
 O161 O -0.06349 0.99207 0.10849
 Zr162 Zr 0.07425 0.99976 -0.00389
 Zr163 Zr -0.08089 0.99650 -0.00487
 Zr164 Zr -0.00488 1.07592 -0.00237
 Zr165 Zr -0.00170 0.92020 -0.00628
 Zr166 Zr -0.00345 0.99567 0.07328
 O167 O -0.04274 0.95587 0.03439
 O168 O 0.03577 1.03800 0.03695
 C169 C 0.09743 0.99877 0.09624
 C170 C -0.10434 0.99110 0.09539
 C171 C 0.09475 1.10159 0.00098
 C172 C 0.09935 0.89913 -0.00836
 C173 C -0.10175 0.89482 -0.00602
 C174 C -0.10567 1.09731 -0.00407
 C175 C -0.00245 1.09639 0.09858
 C176 C -0.00465 0.89355 0.09297
 H177 H -0.06320 1.05421 0.05554
 O178 O -0.04403 1.03606 0.03632
 H179 H 0.05632 0.93835 0.05306
 O180 O 0.03730 0.95761 0.03469
 C181 C 0.31017 1.03968 0.36170
 C182 C 0.27498 1.03801 0.33206
 C183 C 0.27544 1.00861 0.29653
 C184 C 0.31178 0.98002 0.29164
 C185 C 0.34714 0.98143 0.32131
 C186 C 0.34755 1.01146 0.35731
 C187 C 0.23702 1.00824 0.26612
 C188 C 0.23942 0.99418 0.22434
 C189 C 0.20191 0.99608 0.19291
 C190 C 0.21143 0.99600 0.14779
 C191 C 0.17756 0.99735 0.11670
 C192 C 0.13301 0.99840 0.12991
 C193 C 0.12330 0.99814 0.17517
 C194 C 0.15737 0.99690 0.20640
 H195 H 0.30593 1.06178 0.38934
 H196 H 0.24700 1.05987 0.33713
 H197 H 0.31304 0.95604 0.26519
 H198 H 0.37463 0.95977 0.31419
 H199 H 0.20662 1.02284 0.27798
 H200 H 0.27092 0.98340 0.21136
 H201 H 0.24535 0.99509 0.13644
 H202 H 0.18648 0.99726 0.08219
 H203 H 0.08939 0.99857 0.18651
 H204 H 0.14856 0.99573 0.24087
 C205 C -0.38157 1.01615 0.29868
 C206 C -0.35117 1.01619 0.26391
 C207 C -0.30678 1.00455 0.27107
 C208 C -0.29323 0.99395 0.31419
 C209 C -0.32359 0.99373 0.34879
 C210 C -0.36815 1.00452 0.34146
 C211 C -0.27545 1.00538 0.23331
 C212 C -0.23676 0.98347 0.23315
 C213 C -0.20409 0.98565 0.19676
 C214 C -0.15975 0.97607 0.20638
 C215 C -0.12753 0.97778 0.17353
 C216 C -0.13893 0.98858 0.12994
 C217 C -0.18350 0.99729 0.12001
 C218 C -0.21577 0.99591 0.15304
 H219 H -0.41569 1.02458 0.29200
 H220 H -0.36246 1.02499 0.23120
 H221 H -0.25913 0.98671 0.32184
 H222 H -0.31197 0.98585 0.38160
 H223 H -0.28492 1.02490 0.20489
 H224 H -0.22746 0.96370 0.26142
 H225 H -0.14987 0.96766 0.23965
 H226 H -0.09363 0.97046 0.18235
 H227 H -0.19348 1.00550 0.08674
 H228 H -0.24973 1.00222 0.14397
 C229 C -0.38071 0.98891 -0.31014
 C230 C -0.35049 0.98679 -0.27526
 C231 C -0.30530 0.99466 -0.28240
 C232 C -0.29082 1.00342 -0.32561
 C233 C -0.32098 1.00571 -0.36033
 C234 C -0.36629 0.99884 -0.35301
 C235 C -0.27425 0.99208 -0.24450
 C236 C -0.23440 1.01177 -0.24433
 C237 C -0.20205 1.00836 -0.20771
 C238 C -0.15740 1.01665 -0.21702
 C239 C -0.12547 1.01423 -0.18393
 C240 C -0.13744 1.00394 -0.14038
 C241 C -0.18228 0.99626 -0.13079
 C242 C -0.21427 0.99840 -0.16407
 H243 H -0.41544 0.98351 -0.30347
 H244 H -0.36254 0.97945 -0.24247
 H245 H -0.25619 1.00769 -0.33317
 H246 H -0.30868 1.01218 -0.39320
 H247 H -0.28503 0.97343 -0.21599
 H248 H -0.22400 1.03078 -0.27273
 H249 H -0.14707 1.02476 -0.25022
 H250 H -0.09137 1.02076 -0.19254
 H251 H -0.19271 0.98850 -0.09756
 H252 H -0.24844 0.99303 -0.15519
 C253 C 0.33181 1.05514 -0.34914
 C254 C 0.29697 1.05676 -0.31893
 C255 C 0.28510 1.01890 -0.29456
 C256 C 0.30887 0.97923 -0.30107
 C257 C 0.34355 0.97759 -0.33136
 C258 C 0.35515 1.01538 -0.35603
 C259 C 0.24678 1.02135 -0.26419
 C260 C 0.24236 0.99462 -0.22910
 C261 C 0.20468 0.99695 -0.19809
 C262 C 0.21133 0.98276 -0.15464
 C263 C 0.17687 0.98380 -0.12423
 C264 C 0.13454 0.99842 -0.13671
 C265 C 0.12746 1.01176 -0.18052
 C266 C 0.16227 1.01120 -0.21094
 H267 H 0.33950 1.08459 -0.36820
 H268 H 0.27899 1.08761 -0.31482
 H269 H 0.30004 0.94899 -0.28390
 H270 H 0.36097 0.94650 -0.33592
 H271 H 0.22269 1.04733 -0.26990
 H272 H 0.26865 0.97166 -0.22094
 H273 H 0.24351 0.97114 -0.14404
 H274 H 0.18338 0.97274 -0.09090
 H275 H 0.09518 1.02297 -0.19116
 H276 H 0.15567 1.02118 -0.24454
 C277 C 0.36627 1.30997 0.03532
 C278 C 0.33629 1.27486 0.03267
 C279 C 0.29481 1.28093 0.01306
 C280 C 0.28420 1.32291 -0.00471
 C281 C 0.31423 1.35812 -0.00196
 C282 C 0.35552 1.35207 0.01825
 C283 C 0.26435 1.24240 0.01095
 C284 C 0.22055 1.24637 0.00586
 C285 C 0.18973 1.20807 0.00520
 C286 C 0.14486 1.21618 0.01316
 C287 C 0.11426 1.18156 0.01224
 C288 C 0.12779 1.13780 0.00312
 C289 C 0.17273 1.12952 -0.00491
 C290 C 0.20339 1.16430 -0.00418
 H291 H 0.39826 1.30387 0.05010
 H292 H 0.34556 1.24280 0.04609
 H293 H 0.25319 1.32870 -0.02142
 H294 H 0.30506 1.39014 -0.01550
 H295 H 0.27863 1.20988 0.01633
 H296 H 0.20593 1.27914 0.00441
 H297 H 0.13336 1.24953 0.02023
 H298 H 0.07991 1.18920 0.01868
 H299 H 0.18414 1.09629 -0.01255
 H300 H 0.23740 1.15669 -0.01189
 C301 C 0.30653 0.62593 0.02889
 C302 C 0.27116 0.65580 0.02723
 C303 C 0.27311 0.69376 0.00053
 C304 C 0.31063 0.70050 -0.02577
 C305 C 0.34603 0.67089 -0.02412
 C306 C 0.34504 0.63296 0.00346
 C307 C 0.23533 0.72515 0.00038
 C308 C 0.23950 0.76820 -0.01058
 C309 C 0.20261 0.80059 -0.01007
 C310 C 0.21286 0.84606 -0.00877
 C311 C 0.17943 0.87799 -0.00843
 C312 C 0.13478 0.86517 -0.00964
 C313 C 0.12446 0.81962 -0.01169
 C314 C 0.15797 0.78765 -0.01207
 H315 H 0.30256 0.59670 0.04924
 H316 H 0.24221 0.64932 0.04719
 H317 H 0.31298 0.72857 -0.04793
 H318 H 0.37477 0.67942 -0.04344
 H319 H 0.20392 0.71270 0.01206
 H320 H 0.27190 0.78132 -0.01817
 H321 H 0.24695 0.85698 -0.00766
 H322 H 0.18869 0.91273 -0.00705
 H323 H 0.09045 0.80856 -0.01309
 H324 H 0.14861 0.75307 -0.01459
 C325 C -0.31482 0.63224 0.04562
 C326 C -0.27883 0.66128 0.04466
 C327 C -0.26940 0.68594 0.00660
 C328 C -0.29519 0.67930 -0.03136
 C329 C -0.33089 0.64987 -0.03054
 C330 C -0.34152 0.62673 0.00821
 C331 C -0.23287 0.71853 0.00765
 C332 C -0.23421 0.75668 -0.01516
 C333 C -0.19966 0.79129 -0.01193
 C334 C -0.21134 0.83570 -0.01985
 C335 C -0.17972 0.86939 -0.01729
 C336 C -0.13549 0.85925 -0.00739
 C337 C -0.12367 0.81465 0.00003
 C338 C -0.15541 0.78099 -0.00220
 H339 H -0.32203 0.61429 0.07571
 H340 H -0.25907 0.66546 0.07410
 H341 H -0.28794 0.69686 -0.06163
 H342 H -0.35099 0.64619 -0.05981
 H343 H -0.20623 0.71263 0.03072
 H344 H -0.26322 0.76444 -0.03459
 H345 H -0.24515 0.84440 -0.02776
 H346 H -0.18989 0.90332 -0.02363
 H347 H -0.08984 0.80566 0.00748
 H348 H -0.14499 0.74696 0.00289
 C349 C -0.30624 1.37553 0.03154
 C350 C -0.27167 1.34464 0.03143
 C351 C -0.28017 1.29932 0.02422
 C352 C -0.32417 1.28518 0.01918
 C353 C -0.35854 1.31596 0.01907
 C354 C -0.34989 1.36147 0.02454
 C355 C -0.24272 1.26767 0.02278
 C356 C -0.24461 1.22901 0.00086
 C357 C -0.20813 1.19635 -0.00036
 C358 C -0.21839 1.15169 -0.00882
 C359 C -0.18519 1.11954 -0.01017
 C360 C -0.14081 1.13150 -0.00359
 C361 C -0.13040 1.17643 0.00397
 C362 C -0.16368 1.20855 0.00554
 H363 H -0.29876 1.41045 0.03594
 H364 H -0.23812 1.35627 0.03605
 H365 H -0.33243 1.25038 0.01574
 H366 H -0.39208 1.30414 0.01489
 H367 H -0.21278 1.27710 0.03983
 H368 H -0.27450 1.21998 -0.01649
 H369 H -0.25234 1.14153 -0.01392
 H370 H -0.19438 1.08533 -0.01639
 H371 H -0.09652 1.18687 0.00891
 H372 H -0.15427 1.24283 0.01069
 C373 C 0.03315 1.37020 0.30702
 C374 C 0.03263 1.34053 0.27157
 C375 C 0.00929 1.30038 0.27418
 C376 C -0.01467 1.29105 0.31268
 C377 C -0.01419 1.32050 0.34813
 C378 C 0.00983 1.36082 0.34631
 C379 C 0.00969 1.26964 0.23595
 C380 C 0.00226 1.22578 0.23981
 C381 C 0.00212 1.19401 0.20244
 C382 C 0.00525 1.14845 0.21192
 C383 C 0.00392 1.11691 0.17829
 C384 C -0.00080 1.13014 0.13413
 C385 C -0.00401 1.17580 0.12450
 C386 C -0.00277 1.20741 0.15825
 H387 H 0.05073 1.40114 0.30247
 H388 H 0.05071 1.34898 0.24195
 H389 H -0.03425 1.26112 0.31569
 H390 H -0.03158 1.31017 0.37746
 H391 H 0.01837 1.28357 0.20428
 H392 H -0.00238 1.21165 0.27226
 H393 H 0.00874 1.13710 0.24561
 H394 H 0.00658 1.08210 0.18704
 H395 H -0.00796 1.18719 0.09090
 H396 H -0.00654 1.24203 0.14947
 C397 C 0.05088 1.35678 -0.32154
 C398 C 0.04976 1.32730 -0.28596
 C399 C 0.01001 1.30761 -0.27277
 C400 C -0.02916 1.31960 -0.29448
 C401 C -0.02831 1.34968 -0.32964
 C402 C 0.01191 1.36827 -0.34456
 C403 C 0.01051 1.27502 -0.23618
 C404 C -0.01693 1.24005 -0.23461
 C405 C -0.01437 1.20543 -0.19996
 C406 C -0.02675 1.16175 -0.21034
 C407 C -0.02426 1.12807 -0.17868
 C408 C -0.01013 1.13759 -0.13563
 C409 C 0.00129 1.18159 -0.12493
 C410 C -0.00066 1.21516 -0.15679
 H411 H 0.08242 1.37142 -0.32990
 H412 H 0.08029 1.31923 -0.26913
 H413 H -0.06058 1.30576 -0.28438
 H414 H -0.05920 1.35627 -0.34630
 H415 H 0.03661 1.27796 -0.21196
 H416 H -0.03991 1.23462 -0.26141
 H417 H -0.03783 1.15353 -0.24325
 H418 H -0.03378 1.09462 -0.18785
 H419 H 0.01212 1.19004 -0.09201
 H420 H 0.00798 1.24874 -0.14737
 C421 C 0.06124 0.66364 -0.34923
 C422 C 0.06267 0.69924 -0.31968
 C423 C 0.02397 0.71514 -0.30001
 C424 C -0.01645 0.69504 -0.31080
 C425 C -0.01808 0.65973 -0.34049
 C426 C 0.02067 0.64341 -0.36076
 C427 C 0.02648 0.75325 -0.26923
 C428 C -0.00210 0.75836 -0.23597
 C429 C 0.00020 0.79516 -0.20385
 C430 C -0.01611 0.78761 -0.16137
 C431 C -0.01552 0.82134 -0.13002
 C432 C 0.00066 0.86384 -0.14065
 C433 C 0.01633 0.87184 -0.18347
 C434 C 0.01635 0.83768 -0.21482
 H435 H 0.09196 0.65387 -0.36455
 H436 H 0.09421 0.71452 -0.31224
 H437 H -0.04717 0.70693 -0.29694
 H438 H -0.05000 0.64476 -0.34641
 H439 H 0.05397 0.77605 -0.27261
 H440 H -0.02673 0.73292 -0.23003
 H441 H -0.02914 0.75532 -0.15227
 H442 H -0.02836 0.81421 -0.09748
 H443 H 0.02886 0.90431 -0.19258
 H444 H 0.02814 0.84484 -0.24770
 C445 C 0.02551 0.68598 0.36383
 C446 C 0.02170 0.72081 0.33370
 C447 C 0.00103 0.71429 0.29291
 C448 C -0.01674 0.67208 0.28327
 C449 C -0.01282 0.63710 0.31348
 C450 C 0.00862 0.64360 0.35399
 C451 C -0.00166 0.75258 0.26213
 C452 C -0.00880 0.74856 0.21875
 C453 C -0.00848 0.78670 0.18768
 C454 C -0.00152 0.77805 0.14288
 C455 C -0.00028 0.81268 0.11230
 C456 C -0.00616 0.85702 0.12575
 C457 C -0.01387 0.86576 0.17053
 C458 C -0.01527 0.83099 0.20117
 H459 H 0.04118 0.69248 0.39521
 H460 H 0.03518 0.75302 0.34229
 H461 H -0.03416 0.66584 0.25285
 H462 H -0.02629 0.60489 0.30499
 H463 H 0.00542 0.78503 0.27571
 H464 H -0.01217 0.71580 0.20451
 H465 H 0.00345 0.74430 0.13148
 H466 H 0.00558 0.80459 0.07807
 H467 H -0.01922 0.89943 0.18191
 H468 H -0.02230 0.83910 0.23509
   
