data_POSCAR
  _audit_creation_date              2014-09-24
  _audit_creation_method            'ToBaCCo'
  _symmetry_space_group_name_H-M    'P1'
  _symmetry_Int_Tables_number       1
  _symmetry_cell_setting            triclinic
  loop_
  _symmetry_equiv_pos_as_xyz
 x,y,z
_cell_length_a 37.7504
_cell_length_b 41.8753
_cell_length_c 42.6507
_cell_angle_alpha 90.262700
_cell_angle_beta 90.749800
_cell_angle_gamma 90.196300
loop_
  _atom_site_label
  _atom_site_type_symbol
  _atom_site_fract_x
  _atom_site_fract_y
  _atom_site_fract_z
C1 C 0.31207 0.31036 -0.00897
 C2 C 0.31985 0.31623 0.02180
 C3 C 0.30482 0.34424 0.03843
 C4 C 0.34437 0.29599 0.04086
 C5 C 0.32715 0.28269 -0.02613
 C6 C 0.28859 0.33223 -0.02684
 C7 C 0.32770 0.36826 0.04954
 C8 C 0.31506 0.39271 0.06869
 C9 C 0.27925 0.39352 0.07735
 C10 C 0.25610 0.36989 0.06542
 C11 C 0.26885 0.34531 0.04629
 C12 C 0.37856 0.28799 0.03060
 C13 C 0.40179 0.27091 0.05015
 C14 C 0.39168 0.26279 0.08064
 C15 C 0.35767 0.27070 0.09083
 C16 C 0.33417 0.28681 0.07107
 C17 C 0.32326 0.25143 -0.01496
 C18 C 0.34104 0.22605 -0.02924
 C19 C 0.36302 0.23124 -0.05531
 C20 C 0.36498 0.26256 -0.06736
 C21 C 0.34729 0.28783 -0.05298
 C22 C 0.25216 0.32591 -0.02894
 C23 C 0.22937 0.34769 -0.04353
 C24 C 0.24283 0.37562 -0.05712
 C25 C 0.27951 0.38136 -0.05601
 C26 C 0.30219 0.36002 -0.04054
 H27 H 0.35558 0.36766 0.04389
 H28 H 0.33354 0.41081 0.07683
 H29 H 0.22845 0.36968 0.07180
 H30 H 0.25098 0.32649 0.03864
 H31 H 0.38764 0.29564 0.00787
 H32 H 0.42817 0.26543 0.04208
 H33 H 0.30813 0.29274 0.07966
 H34 H 0.30725 0.24683 0.00543
 H35 H 0.33773 0.20265 -0.01915
 H36 H 0.38078 0.26820 -0.08752
 H37 H 0.35053 0.31168 -0.06221
 H38 H 0.24130 0.30455 -0.01848
 H39 H 0.20121 0.34267 -0.04426
 H40 H 0.29044 0.40286 -0.06612
 H41 H 0.33026 0.36532 -0.03892
 H42 H 0.34937 0.26462 0.11428
 C43 C 0.68796 0.68938 -0.01598
 C44 C 0.67822 0.68992 0.01459
 C45 C 0.68858 0.66392 0.03621
 C46 C 0.65552 0.71555 0.02748
 C47 C 0.67301 0.71211 -0.03921
 C48 C 0.71338 0.66543 -0.02785
 C49 C 0.67319 0.63354 0.03297
 C50 C 0.68240 0.60916 0.05375
 C51 C 0.70775 0.61464 0.07756
 C52 C 0.72342 0.64499 0.08054
 C53 C 0.71342 0.66963 0.06031
 C54 C 0.62460 0.70756 0.04357
 C55 C 0.60270 0.73145 0.05533
 C56 C 0.61137 0.76384 0.05135
 C57 C 0.64260 0.77180 0.03553
 C58 C 0.66458 0.74786 0.02389
 C59 C 0.69574 0.73146 -0.05666
 C60 C 0.68192 0.75385 -0.07764
 C61 C 0.64512 0.75700 -0.08186
 C62 C 0.62242 0.73661 -0.06533
 C63 C 0.63626 0.71435 -0.04418
 C64 C 0.74738 0.66251 -0.01443
 C65 C 0.77118 0.64001 -0.02607
 C66 C 0.76151 0.62044 -0.05163
 C67 C 0.72753 0.62371 -0.06515
 C68 C 0.70376 0.64602 -0.05340
 H69 H 0.65383 0.62889 0.01452
 H70 H 0.67017 0.58588 0.05090
 H71 H 0.74286 0.64977 0.09887
 H72 H 0.72537 0.69304 0.06312
 H73 H 0.61708 0.68280 0.04660
 H74 H 0.57875 0.72446 0.06718
 H75 H 0.68873 0.75452 0.01211
 H76 H 0.72418 0.72974 -0.05345
 H77 H 0.70011 0.76884 -0.09040
 H78 H 0.59395 0.73851 -0.06793
 H79 H 0.61833 0.69915 -0.03134
 H80 H 0.75562 0.67789 0.00481
 H81 H 0.79730 0.63843 -0.01546
 H82 H 0.71899 0.60877 -0.08460
 H83 H 0.67768 0.64800 -0.06410
 H84 H 0.65046 0.79645 0.03258
 C85 C 0.69742 0.31081 1.01762
 C86 C 0.68796 0.31083 0.98675
 C87 C 0.69708 0.33771 0.96604
 C88 C 0.66671 0.28452 0.97242
 C89 C 0.68267 0.28667 1.03904
 C90 C 0.72161 0.33526 1.03155
 C91 C 0.68128 0.36767 0.97021
 C92 C 0.68876 0.39261 0.94965
 C93 C 0.71272 0.38804 0.92516
 C94 C 0.72870 0.35809 0.92123
 C95 C 0.72046 0.33293 0.94123
 C96 C 0.63495 0.29134 0.95644
 C97 C 0.61495 0.26680 0.94262
 C98 C 0.62640 0.23493 0.94444
 C99 C 0.65845 0.22822 0.96019
 C100 C 0.67851 0.25281 0.97387
 C101 C 0.70450 0.26279 1.05155
 C102 C 0.68990 0.23835 1.06951
 C103 C 0.65351 0.23809 1.07591
 C104 C 0.63204 0.26294 1.06459
 C105 C 0.64649 0.28691 1.04602
 C106 C 0.75458 0.34186 1.01821
 C107 C 0.77722 0.36478 1.03159
 C108 C 0.76775 0.38136 1.05911
 C109 C 0.73487 0.37388 1.07276
 C110 C 0.71219 0.35121 1.05912
 H111 H 0.66288 0.37152 0.98912
 H112 H 0.67634 0.41560 0.95320
 H113 H 0.74710 0.35403 0.90236
 H114 H 0.73257 0.30981 0.93763
 H115 H 0.62545 0.31567 0.95493
 H116 H 0.59031 0.27283 0.93088
 H117 H 0.70345 0.24715 0.98534
 H118 H 0.73251 0.26244 1.04639
 H119 H 0.70692 0.21948 1.07813
 H120 H 0.60385 0.26308 1.06894
 H121 H 0.62941 0.30535 1.03658
 H122 H 0.76303 0.32901 0.99755
 H123 H 0.80231 0.36875 1.02037
 H124 H 0.72595 0.38572 1.09376
 H125 H 0.68699 0.34635 1.07001
 H126 H 0.66846 0.20409 0.96150
 C127 C 0.30097 0.69522 0.99727
 C128 C 0.31052 0.69759 0.96653
 C129 C 0.29828 0.67473 0.94183
 C130 C 0.33660 0.72232 0.95719
 C131 C 0.31346 0.71995 1.01992
 C132 C 0.28026 0.66784 1.01022
 C133 C 0.32328 0.65841 0.92379
 C134 C 0.31267 0.63429 0.90300
 C135 C 0.27670 0.62603 0.89944
 C136 C 0.25147 0.64339 0.91650
 C137 C 0.26215 0.66766 0.93734
 C138 C 0.37296 0.71709 0.96210
 C139 C 0.39752 0.74113 0.95559
 C140 C 0.38595 0.77111 0.94524
 C141 C 0.34959 0.77646 0.94052
 C142 C 0.32509 0.75199 0.94592
 C143 C 0.30108 0.75136 1.01779
 C144 C 0.31690 0.77568 1.03566
 C145 C 0.34520 0.76899 1.05653
 C146 C 0.35559 0.73678 1.06007
 C147 C 0.34000 0.71263 1.04184
 C148 C 0.25570 0.67324 1.03417
 C149 C 0.23652 0.64794 1.04701
 C150 C 0.24023 0.61670 1.03522
 C151 C 0.26523 0.61124 1.01162
 C152 C 0.28598 0.63621 1.00032
 H153 H 0.35129 0.66328 0.92676
 H154 H 0.33304 0.62146 0.89065
 H155 H 0.22351 0.63807 0.91405
 H156 H 0.24233 0.68025 0.95068
 H157 H 0.38221 0.69445 0.97119
 H158 H 0.42550 0.73659 0.95921
 H159 H 0.29711 0.75645 0.94224
 H160 H 0.27998 0.75723 1.00137
 H161 H 0.30686 0.79959 1.03261
 H162 H 0.37682 0.72995 1.07584
 H163 H 0.34969 0.68840 1.04387
 H164 H 0.25114 0.69718 1.04291
 H165 H 0.21762 0.65322 1.06517
 H166 H 0.27022 0.58740 1.00287
 H167 H 0.30657 0.63057 0.98383
 H168 H 0.34028 0.79938 0.93219
 C169 C -0.00953 0.33396 0.32423
 C170 C 0.02633 0.33806 0.32746
 C171 C 0.04833 0.31776 0.34869
 C172 C 0.04574 0.36355 0.31042
 C173 C -0.03181 0.35925 0.30950
 C174 C -0.02660 0.30393 0.33515
 C175 C 0.03736 0.31097 0.37935
 C176 C 0.05920 0.29370 0.39970
 C177 C 0.09304 0.28434 0.39026
 C178 C 0.10437 0.29141 0.35995
 C179 C 0.08200 0.30757 0.33916
 C180 C 0.06790 0.38464 0.32718
 C181 C 0.08861 0.40692 0.31146
 C182 C 0.08798 0.40839 0.27852
 C183 C 0.06504 0.38775 0.26175
 C184 C 0.04416 0.36547 0.27758
 C185 C -0.05671 0.35188 0.28579
 C186 C -0.07273 0.37638 0.26835
 C187 C -0.06296 0.40852 0.27365
 C188 C -0.04035 0.41567 0.29921
 C189 C -0.02595 0.39141 0.31747
 C190 C -0.01291 0.27443 0.32567
 C191 C -0.02263 0.24640 0.34084
 C192 C -0.04672 0.24692 0.36587
 C193 C -0.06334 0.27621 0.37298
 C194 C -0.05324 0.30448 0.35780
 H195 H 0.01229 0.31967 0.38786
 H196 H 0.05031 0.28882 0.42325
 H197 H 0.13047 0.28430 0.35236
 H198 H 0.09127 0.31269 0.31579
 H199 H 0.06937 0.38364 0.35254
 H200 H 0.10514 0.42283 0.32534
 H201 H 0.02748 0.34916 0.26419
 H202 H -0.06231 0.32724 0.27965
 H203 H -0.09044 0.36988 0.24919
 H204 H -0.03371 0.44009 0.30537
 H205 H -0.00843 0.39778 0.33683
 H206 H 0.00696 0.27336 0.30759
 H207 H -0.01051 0.22452 0.33296
 H208 H -0.08244 0.27792 0.39158
 H209 H -0.06442 0.32700 0.36526
 H210 H 0.06389 0.38811 0.23640
 C211 C -0.01771 0.67981 0.68841
 C212 C 0.01630 0.67807 0.67791
 C213 C 0.02760 0.69802 0.65107
 C214 C 0.04283 0.65564 0.69157
 C215 C -0.03416 0.65327 0.70640
 C216 C -0.03928 0.70844 0.68068
 C217 C 0.00731 0.69821 0.62321
 C218 C 0.01632 0.71832 0.59862
 C219 C 0.04652 0.73775 0.60100
 C220 C 0.06781 0.73651 0.62827
 C221 C 0.05831 0.71684 0.65321
 C222 C 0.06368 0.63679 0.67182
 C223 C 0.08722 0.61444 0.68437
 C224 C 0.09067 0.61060 0.71701
 C225 C 0.07044 0.63012 0.73680
 C226 C 0.04693 0.65255 0.72421
 C227 C -0.05798 0.65950 0.73070
 C228 C -0.07121 0.63446 0.74887
 C229 C -0.05960 0.60292 0.74388
 C230 C -0.03729 0.59670 0.71848
 C231 C -0.02597 0.62136 0.69930
 C232 C -0.02639 0.73882 0.68882
 C233 C -0.04084 0.76611 0.67515
 C234 C -0.06844 0.76370 0.65261
 C235 C -0.08371 0.73322 0.64722
 C236 C -0.06929 0.70590 0.66121
 H237 H -0.01579 0.68298 0.62066
 H238 H -0.00005 0.71832 0.57759
 H239 H 0.09127 0.75131 0.63061
 H240 H 0.07449 0.71676 0.67436
 H241 H 0.06097 0.63870 0.64658
 H242 H 0.10196 0.59968 0.66832
 H243 H 0.03158 0.66725 0.73993
 H244 H -0.06558 0.68378 0.73621
 H245 H -0.08869 0.64017 0.76801
 H246 H -0.02930 0.57262 0.71265
 H247 H -0.00992 0.61544 0.67927
 H248 H -0.00354 0.74123 0.70430
 H249 H -0.02873 0.78868 0.68137
 H250 H -0.10570 0.72987 0.63108
 H251 H -0.07982 0.68262 0.65489
 H252 H 0.07277 0.62817 0.76203
 C253 C 1.01257 0.67550 0.31715
 C254 C 0.97951 0.67386 0.32970
 C255 C 0.97051 0.69017 0.35965
 C256 C 0.95051 0.65504 0.31448
 C257 C 1.02164 0.65685 0.28873
 C258 C 1.04215 0.69358 0.33262
 C259 C 0.99091 0.68580 0.38711
 C260 C 0.98345 0.70325 0.41425
 C261 C 0.95465 0.72437 0.41478
 C262 C 0.93293 0.72714 0.38796
 C263 C 0.94090 0.71031 0.36062
 C264 C 0.93292 0.63146 0.33169
 C265 C 0.90495 0.61408 0.31817
 C266 C 0.89416 0.61986 0.28709
 C267 C 0.91143 0.64377 0.26999
 C268 C 0.93899 0.66154 0.28373
 C269 C 1.03204 0.62490 0.29131
 C270 C 1.04399 0.60825 0.26504
 C271 C 1.04421 0.62276 0.23525
 C272 C 1.03208 0.65447 0.23267
 C273 C 1.02192 0.67158 0.25932
 C274 C 1.03853 0.72576 0.34136
 C275 C 1.06489 0.74102 0.35943
 C276 C 1.09598 0.72467 0.36865
 C277 C 1.10039 0.69311 0.35768
 C278 C 1.07384 0.67784 0.34012
 H279 H 1.01312 0.66951 0.38729
 H280 H 1.00028 0.70034 0.43479
 H281 H 0.91064 0.74333 0.38764
 H282 H 0.92449 0.71369 0.33988
 H283 H 0.94106 0.62636 0.35559
 H284 H 0.89243 0.59559 0.33183
 H285 H 0.95101 0.68059 0.27049
 H286 H 1.03186 0.61316 0.31389
 H287 H 1.05233 0.58375 0.26811
 H288 H 1.03226 0.66685 0.21048
 H289 H 1.01430 0.69638 0.25703
 H290 H 1.01472 0.73874 0.33513
 H291 H 1.06040 0.76553 0.36632
 H292 H 1.12351 0.67918 0.36353
 H293 H 1.07765 0.65312 0.33359
 H294 H 0.90329 0.64899 0.24612
 C295 C 0.99621 0.31617 0.68216
 C296 C 0.96149 0.32075 0.67429
 C297 C 0.94367 0.29980 0.65082
 C298 C 0.93892 0.34445 0.69021
 C299 C 1.01471 0.33655 0.70560
 C300 C 1.01687 0.29040 0.66700
 C301 C 0.95332 0.30068 0.61915
 C302 C 0.94276 0.27607 0.59875
 C303 C 0.92298 0.25026 0.61006
 C304 C 0.91141 0.25056 0.64114
 C305 C 0.92111 0.27553 0.66127
 C306 C 0.92013 0.36687 0.67230
 C307 C 0.89624 0.38756 0.68656
 C308 C 0.89063 0.38610 0.71903
 C309 C 0.90960 0.36369 0.73695
 C310 C 0.93325 0.34281 0.72260
 C311 C 1.01973 0.32544 0.73628
 C312 C 1.03552 0.34510 0.75908
 C313 C 1.04784 0.37564 0.75119
 C314 C 1.04412 0.38627 0.72014
 C315 C 1.02718 0.36698 0.69755
 C316 C 1.00603 0.25848 0.66958
 C317 C 1.01924 0.23528 0.64931
 C318 C 1.04485 0.24322 0.62688
 C319 C 1.05853 0.27466 0.62695
 C320 C 1.04430 0.29809 0.64655
 H321 H 0.97086 0.31923 0.61084
 H322 H 0.95231 0.27591 0.57491
 H323 H 0.89639 0.23063 0.65022
 H324 H 0.91364 0.27447 0.68568
 H325 H 0.92381 0.36816 0.64719
 H326 H 0.88242 0.40481 0.67214
 H327 H 0.94628 0.32477 0.73664
 H328 H 1.01049 0.30189 0.74274
 H329 H 1.03828 0.33642 0.78287
 H330 H 1.05327 0.40984 0.71364
 H331 H 1.02365 0.37577 0.67387
 H332 H 0.98566 0.25191 0.68601
 H333 H 1.00902 0.21124 0.65134
 H334 H 1.07841 0.28198 0.61041
 H335 H 1.05320 0.32258 0.64438
 H336 H 0.90547 0.36168 0.76193
 C337 C 0.32444 -0.00762 0.33310
 C338 C 0.32505 0.02446 0.32876
 C339 C 0.34307 0.03947 0.30214
 C340 C 0.30934 0.04668 0.35179
 C341 C 0.30484 -0.02168 0.35948
 C342 C 0.34489 -0.03091 0.31384
 C343 C 0.38013 0.04032 0.30049
 C344 C 0.39651 0.05564 0.27542
 C345 C 0.37594 0.06985 0.25161
 C346 C 0.33888 0.06903 0.25353
 C347 C 0.32260 0.05429 0.27881
 C348 C 0.33180 0.06698 0.36905
 C349 C 0.31805 0.08811 0.39104
 C350 C 0.28133 0.08976 0.39605
 C351 C 0.25877 0.06932 0.37858
 C352 C 0.27268 0.04794 0.35661
 C353 C 0.27531 -0.04105 0.35298
 C354 C 0.26107 -0.06016 0.37637
 C355 C 0.27679 -0.06070 0.40637
 C356 C 0.30521 -0.04000 0.41330
 C357 C 0.31897 -0.02035 0.39003
 C358 C 0.34432 -0.03095 0.28085
 C359 C 0.36211 -0.05479 0.26406
 C360 C 0.37913 -0.08009 0.27990
 C361 C 0.37961 -0.07977 0.31284
 C362 C 0.36337 -0.05534 0.32941
 H363 H 0.39622 0.02926 0.31860
 H364 H 0.42515 0.05581 0.27433
 H365 H 0.32247 0.08012 0.23567
 H366 H 0.29395 0.05412 0.28007
 H367 H 0.36020 0.06617 0.36575
 H368 H 0.33658 0.10277 0.40423
 H369 H 0.25494 0.03253 0.34327
 H370 H 0.26444 -0.04251 0.32938
 H371 H 0.23924 -0.07600 0.37042
 H372 H 0.31747 -0.03975 0.43639
 H373 H 0.34206 -0.00574 0.39523
 H374 H 0.32938 -0.01322 0.26798
 H375 H 0.36078 -0.05425 0.23870
 H376 H 0.39344 -0.09784 0.32621
 H377 H 0.36495 -0.05593 0.35476
 H378 H 0.23038 0.06994 0.38161
 C379 C 0.66938 -0.00196 0.65904
 C380 C 0.67725 0.02969 0.66350
 C381 C 0.65714 0.05094 0.68510
 C382 C 0.70762 0.04398 0.64634
 C383 C 0.68804 -0.02081 0.63461
 C384 C 0.64331 -0.01996 0.67800
 C385 C 0.61994 0.04938 0.68710
 C386 C 0.60174 0.06951 0.70759
 C387 C 0.62017 0.09258 0.72535
 C388 C 0.65707 0.09487 0.72275
 C389 C 0.67539 0.07407 0.70310
 C390 C 0.70175 0.06584 0.62196
 C391 C 0.72923 0.07374 0.60148
 C392 C 0.76297 0.05997 0.60524
 C393 C 0.76927 0.04013 0.63125
 C394 C 0.74194 0.03230 0.65159
 C395 C 0.70855 -0.04737 0.64314
 C396 C 0.72997 -0.06240 0.62103
 C397 C 0.73137 -0.05080 0.59024
 C398 C 0.70915 -0.02555 0.58130
 C399 C 0.68716 -0.01107 0.60316
 C400 C 0.64475 -0.02011 0.71094
 C401 C 0.62217 -0.04011 0.72795
 C402 C 0.59833 -0.06100 0.71229
 C403 C 0.59640 -0.05968 0.67927
 C404 C 0.61854 -0.03954 0.66250
 H405 H 0.60482 0.03290 0.67257
 H406 H 0.57315 0.06783 0.70875
 H407 H 0.67180 0.11259 0.73620
 H408 H 0.70395 0.07610 0.70198
 H409 H 0.67541 0.07510 0.61755
 H410 H 0.72355 0.08924 0.58183
 H411 H 0.74707 0.01569 0.67050
 H412 H 0.70926 -0.05545 0.66723
 H413 H 0.74696 -0.08181 0.62845
 H414 H 0.70939 -0.01653 0.55755
 H415 H 0.67066 0.00875 0.59592
 H416 H 0.66403 -0.00549 0.72344
 H417 H 0.62473 -0.04011 0.75323
 H418 H 0.57773 -0.07396 0.66585
 H419 H 0.61669 -0.03961 0.63712
 H420 H 0.79513 0.02991 0.63558
 C421 C 0.28442 1.00988 0.69734
 C422 C 0.28719 0.97736 0.69770
 C423 C 0.30697 0.96057 0.72286
 C424 C 0.26983 0.95762 0.67280
 C425 C 0.26043 1.02596 0.67453
 C426 C 0.30673 1.03136 0.71747
 C427 C 0.33358 0.93866 0.71527
 C428 C 0.35489 0.92545 0.73888
 C429 C 0.34968 0.93378 0.77045
 C430 C 0.32138 0.95402 0.77802
 C431 C 0.30023 0.96728 0.75445
 C432 C 0.27571 0.96444 0.64104
 C433 C 0.25372 0.95131 0.61781
 C434 C 0.22667 0.93006 0.62587
 C435 C 0.22285 0.92080 0.65719
 C436 C 0.24427 0.93466 0.68063
 C437 C 0.22432 1.01790 0.67252
 C438 C 0.20282 1.03110 0.64910
 C439 C 0.21692 1.05318 0.62794
 C440 C 0.25265 1.06228 0.63092
 C441 C 0.27423 1.04871 0.65397
 C442 C 0.29157 1.05887 0.73062
 C443 C 0.31282 1.08216 0.74498
 C444 C 0.34962 1.07815 0.74704
 C445 C 0.36477 1.05006 0.73525
 C446 C 0.34359 1.02710 0.72010
 H447 H 0.33893 0.93298 0.69099
 H448 H 0.37640 0.90993 0.73220
 H449 H 0.31591 0.96021 0.80213
 H450 H 0.27916 0.98348 0.76079
 H451 H 0.29582 0.98157 0.63448
 H452 H 0.25718 0.95838 0.59364
 H453 H 0.23949 0.92894 0.70496
 H454 H 0.21305 1.00085 0.68863
 H455 H 0.17521 1.02411 0.64765
 H456 H 0.26425 1.07913 0.61482
 H457 H 0.30200 1.05527 0.65520
 H458 H 0.26328 1.06284 0.72878
 H459 H 0.30050 1.10347 0.75423
 H460 H 0.39318 1.04661 0.73634
 H461 H 0.35624 1.00676 0.70928
 H462 H 0.20211 0.90424 0.66363
 C463 C 0.70593 0.99101 0.30519
 C464 C 0.70682 0.95846 0.30754
 C465 C 0.68093 0.93741 0.29075
 C466 C 0.73331 0.94166 0.32773
 C467 C 0.73423 1.01087 0.31999
 C468 C 0.67799 1.00783 0.28661
 C469 C 0.66239 0.91432 0.30780
 C470 C 0.63832 0.89394 0.29275
 C471 C 0.63199 0.89644 0.26038
 C472 C 0.65043 0.91951 0.24318
 C473 C 0.67525 0.93948 0.25817
 C474 C 0.73746 0.94920 0.35973
 C475 C 0.75972 0.93088 0.37898
 C476 C 0.77742 0.90424 0.36670
 C477 C 0.77390 0.89722 0.33461
 C478 C 0.75220 0.91581 0.31532
 C479 C 0.76976 1.00566 0.31262
 C480 C 0.79670 1.02112 0.32949
 C481 C 0.78882 1.04239 0.35421
 C482 C 0.75285 1.04934 0.35977
 C483 C 0.72588 1.03370 0.34281
 C484 C 0.68777 1.03081 0.26440
 C485 C 0.66240 1.04386 0.24405
 C486 C 0.62704 1.03362 0.24519
 C487 C 0.61684 1.01192 0.26832
 C488 C 0.64193 0.99985 0.28948
 H489 H 0.66643 0.91221 0.33289
 H490 H 0.62421 0.87655 0.30659
 H491 H 0.64623 0.92160 0.21811
 H492 H 0.68987 0.95662 0.24444
 H493 H 0.72252 0.96850 0.37006
 H494 H 0.76158 0.93656 0.40374
 H495 H 0.74938 0.90950 0.29075
 H496 H 0.77665 0.98875 0.29442
 H497 H 0.82357 1.01578 0.32298
 H498 H 0.74513 1.06575 0.37805
 H499 H 0.69848 1.03831 0.34851
 H500 H 0.71526 1.03771 0.26194
 H501 H 0.67066 1.06080 0.22645
 H502 H 0.58949 1.00426 0.26991
 H503 H 0.63343 0.98316 0.30721
 H504 H 0.78748 0.87697 0.32451
 O505 O 0.91274 0.83132 0.49338
 O506 O 0.85281 0.89184 0.52461
 O507 O 0.89833 0.85197 0.54935
 O508 O 0.86393 0.86910 0.46964
 O509 O 0.82242 0.83240 0.47606
 O510 O 0.85874 0.81336 0.55391
 O511 O 0.81199 0.85491 0.53255
 O512 O 0.87073 0.79463 0.49665
 Cu513 Cu 0.88617 0.86469 0.50878
 Cu514 Cu 0.83674 0.82019 0.51566
 C515 C 0.90188 0.80293 0.48910
 C516 C 0.82223 0.88389 0.53366
 C517 C 0.88484 0.82917 0.56481
 C518 C 0.83709 0.85360 0.45949
 O519 O 0.14545 0.11870 0.52066
 O520 O 0.12749 0.18582 0.46789
 O521 O 0.17315 0.13856 0.46871
 O522 O 0.10280 0.16631 0.52173
 O523 O 0.14158 0.19770 0.54606
 O524 O 0.21188 0.16815 0.49521
 O525 O 0.16820 0.21502 0.49242
 O526 O 0.18390 0.14879 0.54699
 Cu527 Cu 0.13321 0.14952 0.49191
 Cu528 Cu 0.18022 0.18546 0.52283
 C529 C 0.16742 0.12252 0.54308
 C530 C 0.14512 0.21154 0.47080
 C531 C 0.20465 0.14859 0.47327
 C532 C 0.11047 0.18647 0.54313
 O533 O 0.17515 0.86791 0.46307
 O534 O 0.10430 0.82707 0.50568
 O535 O 0.14636 0.87544 0.51709
 O536 O 0.13370 0.81855 0.45159
 O537 O 0.17454 0.78748 0.47284
 O538 O 0.18522 0.84298 0.53932
 O539 O 0.14407 0.79510 0.52728
 O540 O 0.21498 0.83710 0.48621
 Cu541 Cu 0.13583 0.85035 0.48203
 Cu542 Cu 0.18361 0.81209 0.50831
 C543 C 0.20717 0.86026 0.46839
 C544 C 0.11225 0.80427 0.52390
 C545 C 0.16820 0.86904 0.53910
 C546 C 0.15204 0.79321 0.45121
 O547 O 0.91576 0.14303 0.51871
 O548 O 0.88526 0.09400 0.45261
 O549 O 0.92419 0.14394 0.45773
 O550 O 0.87456 0.09417 0.51261
 O551 O 0.82853 0.12635 0.50855
 O552 O 0.87772 0.17511 0.45070
 O553 O 0.83751 0.12393 0.44719
 O554 O 0.87073 0.17596 0.51192
 Cu555 Cu 0.90461 0.11581 0.48608
 Cu556 Cu 0.84888 0.15351 0.47898
 C557 C 0.89854 0.16757 0.52681
 C558 C 0.85643 0.10046 0.43855
 C559 C 0.90933 0.16740 0.44421
 C560 C 0.84342 0.10195 0.52043
 O561 O 0.47572 0.89999 0.84576
 O562 O 0.55708 0.85949 0.86942
 O563 O 0.53745 0.89329 0.82041
 O564 O 0.49126 0.86209 0.89056
 O565 O 0.47523 0.81926 0.86336
 O566 O 0.52139 0.84940 0.79502
 O567 O 0.53994 0.81556 0.84460
 O568 O 0.45870 0.85775 0.81809
 Cu569 Cu 0.51756 0.88278 0.85930
 Cu570 Cu 0.49748 0.83123 0.82749
 C571 C 0.45328 0.88597 0.82817
 C572 C 0.56227 0.83069 0.86167
 C573 C 0.53635 0.87651 0.79543
 C574 C 0.47445 0.83571 0.88830
 O575 O 0.54943 0.14657 0.11584
 O576 O 0.46747 0.11665 0.15006
 O577 O 0.48336 0.16742 0.11893
 O578 O 0.53255 0.09811 0.15112
 O579 O 0.54877 0.12741 0.19211
 O580 O 0.49244 0.19244 0.16402
 O581 O 0.48175 0.13997 0.19510
 O582 O 0.55895 0.17741 0.15731
 Cu583 Cu 0.50731 0.12965 0.12940
 Cu584 Cu 0.52171 0.16219 0.18140
 C585 C 0.56782 0.16734 0.13040
 C586 C 0.46120 0.12229 0.17864
 C587 C 0.47838 0.19129 0.13690
 C588 C 0.54918 0.10124 0.17711
 O589 O 0.52629 0.12282 0.81936
 O590 O 0.45958 0.14274 0.87932
 O591 O 0.45764 0.11951 0.82265
 O592 O 0.52882 0.14329 0.87756
 O593 O 0.52577 0.19294 0.86048
 O594 O 0.45462 0.16902 0.80514
 O595 O 0.45726 0.19209 0.86141
 O596 O 0.52418 0.17268 0.80275
 Cu597 Cu 0.49346 0.12714 0.85150
 Cu598 Cu 0.49030 0.18656 0.83048
 C599 C 0.53673 0.14468 0.80102
 C600 C 0.44695 0.17088 0.88040
 C601 C 0.44369 0.14028 0.80488
 C602 C 0.53924 0.17212 0.87858
 O603 O 0.52259 0.87119 0.17705
 O604 O 0.44575 0.85569 0.12423
 O605 O 0.45407 0.87685 0.18158
 O606 O 0.51476 0.85346 0.11871
 O607 O 0.51315 0.80349 0.13505
 O608 O 0.45282 0.82686 0.19793
 O609 O 0.44468 0.80568 0.14046
 O610 O 0.52026 0.82104 0.19282
 Cu611 Cu 0.48437 0.86934 0.14865
 Cu612 Cu 0.48229 0.80923 0.16804
 C613 C 0.53430 0.84854 0.19402
 C614 C 0.43236 0.82780 0.12338
 C615 C 0.44374 0.85590 0.20083
 C616 C 0.52461 0.82462 0.11643
 O617 O 0.88066 0.51034 0.83385
 O618 O 0.80985 0.46214 0.86798
 O619 O 0.85029 0.45766 0.81919
 O620 O 0.84022 0.51624 0.88323
 O621 O 0.80028 0.54181 0.85463
 O622 O 0.81052 0.48379 0.79088
 O623 O 0.76988 0.48842 0.84004
 O624 O 0.84102 0.53726 0.80609
 Cu625 Cu 0.84918 0.48404 0.85416
 Cu626 Cu 0.80137 0.51544 0.82008
 C627 C 0.87299 0.53136 0.81359
 C628 C 0.77786 0.46714 0.86000
 C629 C 0.83269 0.46127 0.79389
 C630 C 0.81812 0.53880 0.87982
 O631 O 0.10649 0.52878 0.14846
 O632 O 0.17449 0.46912 0.12761
 O633 O 0.12894 0.47516 0.17346
 O634 O 0.15309 0.52172 0.10359
 O635 O 0.19003 0.55075 0.13261
 O636 O 0.17057 0.50047 0.20076
 O637 O 0.21432 0.49729 0.15433
 O638 O 0.14548 0.55329 0.17936
 Cu639 Cu 0.13647 0.49606 0.13558
 Cu640 Cu 0.18399 0.52822 0.16956
 C641 C 0.11434 0.55063 0.16813
 C642 C 0.20629 0.47378 0.13668
 C643 C 0.14606 0.47973 0.19895
 C644 C 0.17610 0.54379 0.10619
 O645 O 0.80724 0.54280 0.13844
 O646 O 0.87734 0.49679 0.17811
 O647 O 0.83943 0.48876 0.12638
 O648 O 0.84734 0.55013 0.18803
 O649 O 0.80780 0.52429 0.21615
 O650 O 0.79824 0.46394 0.15345
 O651 O 0.83706 0.46984 0.20440
 O652 O 0.76699 0.51740 0.16611
 Cu653 Cu 0.84677 0.52200 0.15462
 Cu654 Cu 0.79835 0.49134 0.18768
 C655 C 0.77514 0.53796 0.14564
 C656 C 0.86920 0.47625 0.19863
 C657 C 0.81725 0.46615 0.12922
 C658 C 0.82988 0.54701 0.21305
 O659 O 0.18030 0.53514 0.85890
 O660 O 0.11362 0.47593 0.83268
 O661 O 0.16028 0.47824 0.87762
 O662 O 0.13446 0.53166 0.81267
 O663 O 0.17451 0.50891 0.78265
 O664 O 0.20018 0.45552 0.84746
 O665 O 0.15281 0.45359 0.80150
 O666 O 0.21982 0.51229 0.82845
 Cu667 Cu 0.14328 0.50756 0.84857
 Cu668 Cu 0.19088 0.48015 0.81215
 C669 C 0.21131 0.53400 0.84781
 C670 C 0.12174 0.45489 0.81253
 C671 C 0.18439 0.45762 0.87349
 C672 C 0.15021 0.52935 0.78660
 N673 N 0.26869 0.45521 0.13555
 N674 N 0.28796 0.43458 0.11973
 C675 C 0.26668 0.41829 0.09957
 C676 C 0.23211 0.42899 0.10308
 C677 C 0.23469 0.45253 0.12601
 H678 H 0.20867 0.42168 0.09001
 H679 H 0.27890 0.47114 0.15231
 H680 H 0.31522 0.43181 0.12303
 N681 N 0.71260 0.54698 0.12880
 N682 N 0.69493 0.56678 0.11036
 C683 C 0.71767 0.58875 0.09928
 C684 C 0.75134 0.58257 0.11101
 C685 C 0.74695 0.55579 0.12949
 H686 H 0.77569 0.59522 0.10612
 H687 H 0.70135 0.52740 0.14008
 H688 H 0.66777 0.56521 0.10562
 N689 N 0.71548 0.45713 0.87576
 N690 N 0.69837 0.43665 0.89363
 C691 C 0.72150 0.41451 0.90400
 C692 C 0.75473 0.42124 0.89244
 C693 C 0.74979 0.44851 0.87480
 H694 H 0.77927 0.40873 0.89711
 H695 H 0.70397 0.47710 0.86522
 H696 H 0.67140 0.43796 0.89859
 N697 N 0.26992 0.56090 0.84399
 N698 N 0.28691 0.58526 0.85706
 C699 C 0.26595 0.59883 0.87880
 C700 C 0.23398 0.58221 0.87927
 C701 C 0.23776 0.55832 0.85696
 H702 H 0.21140 0.58636 0.89409
 H703 H 0.28027 0.54645 0.82633
 H704 H 0.31234 0.59235 0.85072
 N705 N 0.16423 0.25869 0.44013
 N706 N 0.15081 0.27731 0.41810
 C707 C 0.11702 0.26837 0.41246
 C708 C 0.10855 0.24279 0.43134
 C709 C 0.13929 0.23738 0.44842
 H710 H 0.08370 0.22988 0.43234
 H711 H 0.19018 0.26024 0.44882
 H712 H 0.16446 0.29602 0.40749
 N713 N 0.04940 0.79132 0.53564
 N714 N 0.03204 0.77352 0.55584
 C715 C 0.05574 0.75916 0.57503
 C716 C 0.08959 0.76798 0.56652
 C717 C 0.08436 0.78829 0.54147
 H718 H 0.11452 0.76063 0.57698
 H719 H 0.03744 0.80518 0.51820
 H720 H 0.00446 0.77178 0.55668
 N721 N 0.96105 0.77941 0.47920
 N722 N 0.97492 0.75822 0.45993
 C723 C 0.94867 0.74501 0.44241
 C724 C 0.91656 0.75795 0.45148
 C725 C 0.92570 0.77971 0.47472
 H726 H 0.89058 0.75384 0.44118
 H727 H 0.97572 0.79409 0.49443
 H728 H 1.00209 0.75437 0.45764
 N729 N 0.92828 0.17136 0.57867
 N730 N 0.93360 0.19281 0.60099
 C731 C 0.91971 0.22076 0.59156
 C732 C 0.90451 0.21704 0.56198
 C733 C 0.91048 0.18518 0.55480
 H734 H 0.89119 0.23484 0.54783
 H735 H 0.93629 0.14755 0.58008
 H736 H 0.94701 0.18843 0.62211
 N737 N 0.40148 0.09755 0.17579
 N738 N 0.37893 0.08388 0.19498
 C739 C 0.39277 0.08471 0.22427
 C740 C 0.42542 0.09999 0.22377
 C741 C 0.42983 0.10772 0.19255
 H742 H 0.44375 0.10408 0.24310
 H743 H 0.39760 0.09947 0.15157
 H744 H 0.35507 0.07328 0.18781
 N745 N 0.58581 0.16059 0.76612
 N746 N 0.60820 0.14687 0.74675
 C747 C 0.60101 0.11537 0.74539
 C748 C 0.57298 0.10861 0.76509
 C749 C 0.56426 0.13804 0.77785
 H750 H 0.56082 0.08566 0.76954
 H751 H 0.58567 0.18497 0.77143
 H752 H 0.62769 0.15906 0.73437
 N753 N 0.40859 0.92800 0.83678
 N754 N 0.38106 0.94035 0.82193
 C755 C 0.37518 0.92377 0.79516
 C756 C 0.40001 0.89936 0.79322
 C757 C 0.42074 0.90316 0.82000
 H758 H 0.40385 0.88246 0.77432
 H759 H 0.41944 0.93713 0.85764
 H760 H 0.36799 0.96088 0.82943
 N761 N 0.57533 0.83168 0.23659
 N762 N 0.60085 0.84422 0.25416
 C763 C 0.60653 0.87451 0.24491
 C764 C 0.58356 0.88160 0.22024
 C765 C 0.56408 0.85378 0.21592
 H766 H 0.58058 0.90405 0.20803
 H767 H 0.56546 0.80852 0.23918
 H768 H 0.61401 0.83208 0.27217
 N769 N 0.40820 0.15864 0.92384
 N770 N 0.38412 0.17569 0.94197
 C771 C 0.38319 0.20615 0.93145
 C772 C 0.40647 0.20874 0.90641
 C773 C 0.42153 0.17883 0.90257
 H774 H 0.41257 0.22965 0.89271
 H775 H 0.41455 0.13459 0.92689
 H776 H 0.37036 0.16572 0.96059
 N777 N 0.62506 0.83063 0.87927
 N778 N 0.64700 0.81117 0.89403
 C779 C 0.63064 0.78285 0.89821
 C780 C 0.59689 0.78426 0.88484
 C781 C 0.59448 0.81502 0.87328
 H782 H 0.57611 0.76642 0.88547
 H783 H 0.63053 0.85458 0.87453
 H784 H 0.67189 0.81804 0.90270
 N785 N 0.38402 0.84207 0.08556
 N786 N 0.35923 0.82543 0.06714
 C787 C 0.36349 0.79382 0.07257
 C788 C 0.39048 0.79006 0.09482
 C789 C 0.40258 0.82045 0.10207
 H790 H 0.40104 0.76814 0.10434
 H791 H 0.38759 0.86682 0.08563
 H792 H 0.34230 0.83641 0.05099
 N793 N 0.62350 0.16135 0.10084
 N794 N 0.64662 0.18011 0.08695
 C795 C 0.63751 0.21075 0.09219
 C796 C 0.60767 0.21152 0.11081
 C797 C 0.59972 0.17971 0.11563
 H798 H 0.59248 0.23212 0.11795
 H799 H 0.62345 0.13644 0.09936
 H800 H 0.66694 0.17194 0.07262
 N801 N 0.15448 0.06916 0.56586
 N802 N 0.16717 0.05104 0.58863
 C803 C 0.19473 0.06636 0.60247
 C804 C 0.19965 0.09552 0.58800
 C805 C 0.17366 0.09631 0.56499
 H806 H 0.21935 0.11365 0.59337
 H807 H 0.13312 0.06293 0.55124
 H808 H 0.15750 0.02833 0.59395
 N809 N 0.86879 0.06117 0.39677
 N810 N 0.85029 0.04543 0.37286
 C811 C 0.81617 0.05518 0.37353
 C812 C 0.81270 0.07771 0.39766
 C813 C 0.84603 0.08052 0.41152
 H814 H 0.78909 0.09012 0.40493
 H815 H 0.89562 0.05791 0.40209
 H816 H 0.86163 0.02790 0.35879
 N817 N 0.80103 0.93971 0.53496
 N818 N 0.77660 0.95672 0.54915
 C819 C 0.75828 0.93744 0.56831
 C820 C 0.77143 0.90658 0.56596
 C821 C 0.79852 0.90919 0.54450
 H822 H 0.76320 0.88556 0.57865
 H823 H 0.81923 0.94901 0.51914
 H824 H 0.77355 0.98136 0.54656
 N825 N 0.26957 0.87879 0.46510
 N826 N 0.28764 0.90061 0.44971
 C827 C 0.26554 0.91531 0.42938
 C828 C 0.23191 0.90236 0.43201
 C829 C 0.23568 0.87933 0.45490
 H830 H 0.20805 0.90887 0.41925
 H831 H 0.28029 0.86415 0.48255
 H832 H 0.31477 0.90473 0.45272
 N833 N 0.06753 0.42211 0.82011
 N834 N 0.04853 0.40082 0.80424
 C835 C 0.06293 0.39675 0.77577
 C836 C 0.09277 0.41602 0.77353
 C837 C 0.09474 0.43160 0.80227
 H838 H 0.11034 0.41846 0.75383
 H839 H 0.06202 0.42974 0.84288
 H840 H 0.02570 0.38979 0.81262
 N841 N 0.06875 0.59256 0.15970
 N842 N 0.05021 0.61381 0.17870
 C843 C 0.05722 0.60624 0.20894
 C844 C 0.08051 0.58054 0.20967
 C845 C 0.08721 0.57303 0.17867
 H846 H 0.09286 0.56972 0.23003
 H847 H 0.06973 0.59349 0.13526
 H848 H 0.03349 0.63168 0.17021
 N849 N 0.92641 0.47858 0.22694
 N850 N 0.94415 0.46064 0.24955
 C851 C 0.92613 0.43301 0.25325
 C852 C 0.89647 0.43300 0.23339
 C853 C 0.89750 0.46203 0.21776
 H854 H 0.87580 0.41508 0.23168
 H855 H 0.93326 0.50179 0.22044
 H856 H 0.96807 0.46752 0.26017
 N857 N 0.93171 0.53187 0.78914
 N858 N 0.94964 0.55105 0.76798
 C859 C 0.93060 0.57799 0.76390
 C860 C 0.90023 0.57642 0.78201
 C861 C 0.90176 0.54708 0.79692
 H862 H 0.87863 0.59332 0.78266
 H863 H 0.93909 0.50871 0.79536
 H864 H 0.97402 0.54524 0.75823
 N865 N 0.82867 0.56160 0.93348
 N866 N 0.81358 0.58320 0.95164
 C867 C 0.78660 0.59682 0.93553
 C868 C 0.78487 0.58356 0.90580
 C869 C 0.81173 0.56132 0.90551
 H870 H 0.76604 0.58856 0.88713
 H871 H 0.84953 0.54683 0.94050
 H872 H 0.82096 0.58753 0.97495
 N873 N 0.17181 0.42904 0.92316
 N874 N 0.18675 0.40700 0.94097
 C875 C 0.21836 0.39921 0.92882
 C876 C 0.22367 0.41696 0.90185
 C877 C 0.19338 0.43547 0.89907
 H878 H 0.24608 0.41619 0.88629
 H879 H 0.14698 0.43905 0.92725
 H880 H 0.17554 0.39778 0.96129
 N881 N 0.19274 0.54441 0.05035
 N882 N 0.21272 0.56403 0.03101
 C883 C 0.21976 0.59135 0.04687
 C884 C 0.20477 0.58955 0.07651
 C885 C 0.18872 0.55973 0.07785
 H886 H 0.20748 0.60657 0.09557
 H887 H 0.18545 0.52089 0.04509
 H888 H 0.21989 0.55811 0.00816
 N889 N 0.83404 0.44020 0.07892
 N890 N 0.82014 0.41637 0.05932
 C891 C 0.79034 0.40487 0.07259
 C892 C 0.78525 0.42090 0.10092
 C893 C 0.81282 0.44260 0.10386
 H894 H 0.76402 0.41793 0.11743
 H895 H 0.85653 0.45389 0.07428
 H896 H 0.83093 0.41034 0.03771
 N897 N 0.92379 0.83814 0.61152
 N898 N 0.93674 0.81974 0.63629
 C899 C 0.92138 0.79049 0.63441
 C900 C 0.89771 0.79032 0.60897
 C901 C 0.90049 0.82013 0.59519
 H902 H 0.88242 0.77047 0.59969
 H903 H 0.93257 0.86108 0.60598
 H904 H 0.95651 0.82769 0.65176
 N905 N 0.95746 0.17175 0.40576
 N906 N 0.96899 0.19323 0.38325
 C907 C 0.94776 0.21917 0.38409
 C908 C 0.92204 0.21431 0.40703
 C909 C 0.92915 0.18445 0.41985
 H910 H 0.90088 0.23020 0.41371
 H911 H 0.96898 0.14957 0.41024
 H912 H 0.99176 0.18970 0.37011
 N913 N 0.05463 0.17857 0.57227
 N914 N 0.03720 0.19372 0.59680
 C915 C 0.05539 0.22067 0.60419
 C916 C 0.08476 0.22285 0.58485
 C917 C 0.08334 0.19617 0.56553
 H918 H 0.10526 0.24097 0.58508
 H919 H 0.04704 0.15681 0.56212
 H920 H 0.01331 0.18572 0.60600
 N921 N 0.16783 0.74436 0.42144
 N922 N 0.15212 0.72509 0.39841
 C923 C 0.12122 0.73881 0.38937
 C924 C 0.11735 0.76737 0.40606
 C925 C 0.14662 0.76958 0.42599
 H926 H 0.09503 0.78349 0.40575
 H927 H 0.19114 0.73892 0.43372
 H928 H 0.16310 0.70366 0.39080
 N929 N 0.54412 0.87406 0.73816
 N930 N 0.56046 0.89173 0.71489
 C931 C 0.57766 0.91653 0.72875
 C932 C 0.57230 0.91504 0.76117
 C933 C 0.55114 0.88826 0.76587
 H934 H 0.58196 0.93134 0.77910
 H935 H 0.52873 0.85364 0.73413
 H936 H 0.56028 0.88492 0.69135
 N937 N 0.41944 0.84745 0.25369
 N938 N 0.40264 0.86584 0.27631
 C939 C 0.39517 0.89459 0.26359
 C940 C 0.40699 0.89500 0.23277
 C941 C 0.42245 0.86538 0.22781
 H942 H 0.40665 0.91489 0.21666
 H943 H 0.42979 0.82466 0.25741
 H944 H 0.39648 0.85756 0.29863
 N945 N 0.55961 0.04326 0.18602
 N946 N 0.57927 0.02549 0.20492
 C947 C 0.60109 0.04477 0.22168
 C948 C 0.59497 0.07614 0.21331
 C949 C 0.56833 0.07413 0.19076
 H950 H 0.60732 0.09743 0.22301
 H951 H 0.53978 0.03440 0.17102
 H952 H 0.57768 0.00063 0.20629
 N953 N 0.39113 0.15172 0.77099
 N954 N 0.36579 0.13533 0.75647
 C955 C 0.37215 0.10389 0.76018
 C956 C 0.40281 0.10010 0.77791
 C957 C 0.41387 0.13101 0.78439
 H958 H 0.41484 0.07802 0.78566
 H959 H 0.39227 0.17662 0.77221
 H960 H 0.34471 0.14562 0.74412
 N961 N 0.56456 0.83569 0.07161
 N962 N 0.58763 0.81976 0.05457
 C963 C 0.58820 0.78908 0.06415
 C964 C 0.56430 0.78544 0.08828
 C965 C 0.55004 0.81549 0.09231
 H966 H 0.55877 0.76423 0.10178
 H967 H 0.55922 0.86002 0.06921
 H968 H 0.60245 0.82993 0.03667
 N969 N 0.44411 0.24039 0.14740
 N970 N 0.42097 0.25882 0.13286
 C971 C 0.41705 0.24856 0.10306
 C972 C 0.43869 0.22224 0.09833
 C973 C 0.45519 0.21774 0.12729
 H974 H 0.44086 0.20771 0.07740
 H975 H 0.45131 0.24281 0.17103
 H976 H 0.40789 0.27795 0.14336
 N977 N 0.58405 0.16135 0.92061
 N978 N 0.60703 0.17781 0.93792
 C979 C 0.60509 0.20889 0.92984
 C980 C 0.57973 0.21220 0.90624
 C981 C 0.56711 0.18156 0.90113
 H982 H 0.57153 0.23376 0.89433
 H983 H 0.57999 0.13674 0.92237
 H984 H 0.62312 0.16776 0.95533
 N985 N 0.43532 0.84346 0.93435
 N986 N 0.41078 0.82652 0.94873
 C987 C 0.41190 0.79624 0.93798
 C988 C 0.43806 0.79378 0.91579
 C989 C 0.45208 0.82432 0.91389
 H990 H 0.44376 0.77340 0.90101
 H991 H 0.43869 0.86811 0.93694
 H992 H 0.39275 0.83586 0.96469
 N993 N 0.81176 0.83666 0.40822
 N994 N 0.79652 0.85002 0.38356
 C995 C 0.79674 0.88199 0.38755
 C996 C 0.81354 0.88930 0.41587
 C997 C 0.82258 0.85981 0.42813
 H998 H 0.81679 0.91249 0.42687
 H999 H 0.81383 0.81205 0.41167
 H1000 H 0.78451 0.83722 0.36521
 N1001 N 0.16391 0.92320 0.56284
 N1002 N 0.17984 0.93944 0.58563
 C1003 C 0.20118 0.91950 0.60172
 C1004 C 0.19900 0.88930 0.58865
 C1005 C 0.17524 0.89275 0.56384
 H1006 H 0.21459 0.86853 0.59473
 H1007 H 0.14709 0.93328 0.54598
 H1008 H 0.17710 0.96398 0.58933
 N1009 N 0.26597 0.15138 0.45352
 N1010 N 0.28610 0.13627 0.43327
 C1011 C 0.26702 0.11261 0.41947
 C1012 C 0.23288 0.11313 0.43147
 C1013 C 0.23355 0.13797 0.45305
 H1014 H 0.21090 0.09733 0.42602
 H1015 H 0.27446 0.17065 0.46736
 H1016 H 0.31236 0.14261 0.42914
 N1017 N 0.83861 0.05466 0.55493
 N1018 N 0.81802 0.04386 0.57731
 C1019 C 0.79110 0.06449 0.58153
 C1020 C 0.79464 0.08949 0.56029
 C1021 C 0.82536 0.08234 0.54407
 H1022 H 0.77805 0.11035 0.55772
 H1023 H 0.86157 0.04321 0.54745
 H1024 H 0.82245 0.02242 0.58911
 N1025 N 0.82241 0.56632 0.26791
 N1026 N 0.83982 0.58523 0.28771
 C1027 C 0.86597 0.60016 0.27220
 C1028 C 0.86483 0.59056 0.24108
 C1029 C 0.83715 0.56882 0.23944
 H1030 H 0.88359 0.59622 0.22293
 H1031 H 0.80201 0.55084 0.27427
 H1032 H 0.83439 0.58701 0.31160
 N1033 N 0.82241 0.44197 0.73925
 N1034 N 0.83803 0.42252 0.71928
 C1035 C 0.86523 0.40793 0.73415
 C1036 C 0.86668 0.41835 0.76503
 C1037 C 0.83929 0.44006 0.76717
 H1038 H 0.88626 0.41260 0.78286
 H1039 H 0.80126 0.45694 0.73346
 H1040 H 0.83022 0.41975 0.69586
 N1041 N 0.15680 0.55070 0.73265
 N1042 N 0.14140 0.57208 0.71439
 C1043 C 0.11480 0.58602 0.73022
 C1044 C 0.11347 0.57284 0.76004
 C1045 C 0.14045 0.55051 0.76050
 H1046 H 0.09507 0.57811 0.77859
 H1047 H 0.17818 0.53653 0.72602
 H1048 H 0.14948 0.57700 0.69160
 N1049 N 0.15572 0.46351 0.25430
 N1050 N 0.14049 0.44509 0.27526
 C1051 C 0.11185 0.43082 0.26196
 C1052 C 0.10908 0.44059 0.23088
 C1053 C 0.13736 0.46136 0.22713
 H1054 H 0.08902 0.43418 0.21360
 H1055 H 0.17834 0.47735 0.25870
 H1056 H 0.15017 0.44229 0.29810
   
