data_POSCAR
  _audit_creation_date              2014-09-24
  _audit_creation_method            'ToBaCCo'
  _symmetry_space_group_name_H-M    'P1'
  _symmetry_Int_Tables_number       1
  _symmetry_cell_setting            triclinic
  loop_
  _symmetry_equiv_pos_as_xyz
 x,y,z
_cell_length_a 58.5710
_cell_length_b 58.5254
_cell_length_c 21.5083
_cell_angle_alpha 89.960300
_cell_angle_beta 90.013600
_cell_angle_gamma 119.978700
loop_
  _atom_site_label
  _atom_site_type_symbol
  _atom_site_fract_x
  _atom_site_fract_y
  _atom_site_fract_z
O1 O 0.25183 0.46013 0.55803
 O2 O 0.20700 0.46020 0.43793
 O3 O 0.25156 0.46017 0.43725
 O4 O 0.20731 0.46025 0.55872
 O5 O 0.22916 0.50387 0.55865
 O6 O 0.27339 0.50380 0.43719
 O7 O 0.22882 0.50382 0.43786
 O8 O 0.27367 0.50375 0.55796
 Cu9 Cu 0.22722 0.45579 0.49798
 Cu10 Cu 0.25346 0.50821 0.49790
 C11 C 0.27043 0.48192 0.57796
 C12 C 0.21022 0.48202 0.41793
 C13 C 0.27007 0.48197 0.41705
 C14 C 0.21066 0.48208 0.57887
 O15 O 0.54008 -0.20782 0.56303
 O16 O 0.53998 -0.25267 0.44277
 O17 O 0.54007 -0.20804 0.44224
 O18 O 0.53990 -0.25255 0.56356
 O19 O 0.49631 -0.27424 0.56350
 O20 O 0.49647 -0.22975 0.44220
 O21 O 0.49639 -0.27438 0.44272
 O22 O 0.49649 -0.22951 0.56298
 Cu23 Cu 0.54440 -0.22808 0.50293
 Cu24 Cu 0.49202 -0.25416 0.50287
 C25 C 0.51831 -0.21097 0.58298
 C26 C 0.51818 -0.27120 0.42272
 C27 C 0.51829 -0.21129 0.42203
 C28 C 0.51807 -0.27103 0.58366
 O29 O 1.20811 0.74820 0.55841
 O30 O 1.25308 0.79300 0.43832
 O31 O 1.20843 0.74848 0.43763
 O32 O 1.25281 0.79266 0.55911
 O33 O 1.27444 0.77067 0.55911
 O34 O 1.23008 0.72651 0.43765
 O35 O 1.27473 0.77103 0.43833
 O36 O 1.22975 0.72621 0.55842
 Cu37 Cu 1.22842 0.77280 0.49836
 Cu38 Cu 1.25443 0.74639 0.49838
 C39 C 1.21123 0.72953 0.57838
 C40 C 1.27161 0.78970 0.41836
 C41 C 1.21165 0.72992 0.41747
 C42 C 1.27123 0.78923 0.57930
 O43 O 0.79177 0.53997 0.44117
 O44 O 0.74673 0.53991 0.56084
 O45 O 0.79132 0.53993 0.56195
 O46 O 0.74714 0.53986 0.44006
 O47 O 0.72541 0.49623 0.44015
 O48 O 0.76958 0.49630 0.56202
 O49 O 0.72499 0.49629 0.56093
 O50 O 0.77004 0.49635 0.44125
 Cu51 Cu 0.77143 0.54432 0.50100
 Cu52 Cu 0.74531 0.49189 0.50110
 C53 C 0.78862 0.51817 0.42132
 C54 C 0.72814 0.51809 0.58078
 C55 C 0.78802 0.51813 0.58222
 C56 C 0.72871 0.51803 0.41984
 O57 O 0.46031 0.20698 0.56119
 O58 O 0.46004 0.25187 0.44133
 O59 O 0.46020 0.20735 0.44041
 O60 O 0.46022 0.25157 0.56211
 O61 O 0.50381 0.27345 0.56181
 O62 O 0.50379 0.22925 0.44012
 O63 O 0.50363 0.27376 0.44103
 O64 O 0.50389 0.22887 0.56090
 Cu65 Cu 0.45579 0.22723 0.50131
 Cu66 Cu 0.50818 0.25354 0.50095
 C67 C 0.48214 0.21022 0.58096
 C68 C 0.48178 0.27049 0.42124
 C69 C 0.48200 0.21073 0.42002
 C70 C 0.48202 0.27010 0.58215
 O71 O 0.74813 0.20792 0.44167
 O72 O 0.79309 0.25295 0.56137
 O73 O 0.74854 0.20832 0.56245
 O74 O 0.79264 0.25256 0.44058
 O75 O 0.77077 0.27432 0.44062
 O76 O 0.72669 0.23010 0.56247
 O77 O 0.77124 0.27472 0.56140
 O78 O 0.72627 0.22968 0.44170
 Cu79 Cu 0.77281 0.22824 0.50153
 Cu80 Cu 0.74654 0.25440 0.50156
 C81 C 0.72950 0.21108 0.42179
 C82 C 0.78987 0.27155 0.58128
 C83 C 0.73006 0.21163 0.58270
 C84 C 0.78926 0.27102 0.42035
 N85 N 0.97220 0.52699 0.06712
 N86 N 0.95304 0.53222 0.07741
 N87 N 1.02772 0.53882 0.10959
 N88 N 1.04698 0.55190 0.14972
 N89 N 1.02767 0.55475 0.06660
 N90 N 1.04692 0.57914 0.07628
 N91 N 0.97230 0.51107 0.11006
 N92 N 0.95324 0.50502 0.15073
 C93 C 0.94138 0.51823 0.12944
 C94 C 1.05879 0.57691 0.12801
 N95 N 1.02776 0.47371 0.06651
 N96 N 1.04692 0.46845 0.07651
 N97 N 0.97235 0.46189 0.10988
 N98 N 0.95318 0.44883 0.15025
 N99 N 0.97228 0.44595 0.06682
 N100 N 0.95305 0.42157 0.07669
 N101 N 1.02776 0.48964 0.10953
 N102 N 1.04690 0.49566 0.14996
 Mn103 Mn 1.00003 0.50036 0.11041
 C104 C 1.05870 0.48244 0.12844
 C105 C 0.94131 0.42382 0.12862
 N106 N 1.02752 0.55476 -0.06747
 N107 N 1.04668 0.57917 -0.07763
 N108 N 0.97202 0.51105 -0.11001
 N109 N 0.95273 0.50486 -0.15007
 N110 N 0.97204 0.52697 -0.06695
 N111 N 0.95275 0.53206 -0.07651
 N112 N 1.02744 0.53879 -0.11048
 N113 N 1.04651 0.55186 -0.15108
 Mn114 Mn 0.99986 0.54114 -0.00018
 C115 C 1.05837 0.57690 -0.12968
 C116 C 0.94088 0.51799 -0.12825
 N117 N 0.97209 0.44591 -0.06726
 N118 N 0.95300 0.42147 -0.07740
 N119 N 1.02747 0.48961 -0.11056
 N120 N 1.04662 0.49576 -0.15100
 N121 N 1.02757 0.47371 -0.06757
 N122 N 1.04681 0.46858 -0.07756
 N123 N 0.97205 0.46186 -0.11020
 N124 N 0.95296 0.44876 -0.15071
 Mn125 Mn 0.99993 0.45955 -0.00037
 Mn126 Mn 0.99974 0.50033 -0.11096
 Cl127 Cl 0.99989 0.50034 -0.00027
 C128 C 0.94122 0.42371 -0.12932
 C129 C 1.05852 0.48262 -0.12949
 N130 N 0.47295 0.44533 0.06638
 N131 N 0.46768 0.42090 0.07658
 N132 N 0.46114 0.48902 0.10921
 N133 N 0.44808 0.49521 0.14940
 N134 N 0.44523 0.47313 0.06618
 N135 N 0.42086 0.46804 0.07588
 N136 N 0.48885 0.46128 0.10936
 N137 N 0.49485 0.44819 0.14997
 C138 C 0.48164 0.42314 0.12860
 C139 C 0.42310 0.48209 0.12768
 N140 N 0.52623 0.55418 0.06636
 N141 N 0.53153 0.57861 0.07660
 N142 N 0.53800 0.51046 0.10933
 N143 N 0.55105 0.50430 0.14965
 N144 N 0.55394 0.52638 0.06632
 N145 N 0.57831 0.53151 0.07618
 N146 N 0.51030 0.53821 0.10931
 N147 N 0.50431 0.55128 0.14993
 Mn148 Mn 0.49957 0.49974 0.10995
 C149 C 0.51756 0.57634 0.12860
 C150 C 0.57605 0.51745 0.12804
 N151 N 0.44525 0.47315 -0.06789
 N152 N 0.42085 0.46792 -0.07805
 N153 N 0.48892 0.46134 -0.11071
 N154 N 0.49514 0.44828 -0.15084
 N155 N 0.47301 0.44540 -0.06769
 N156 N 0.46795 0.42102 -0.07734
 N157 N 0.46121 0.48909 -0.11085
 N158 N 0.44816 0.49515 -0.15142
 Mn159 Mn 0.45884 0.45898 -0.00076
 C160 C 0.42312 0.48193 -0.13003
 C161 C 0.48203 0.42328 -0.12910
 N162 N 0.55401 0.52643 -0.06776
 N163 N 0.57842 0.53170 -0.07789
 N164 N 0.51037 0.53827 -0.11077
 N165 N 0.50422 0.55136 -0.15103
 N166 N 0.52626 0.55419 -0.06772
 N167 N 0.53137 0.57859 -0.07749
 N168 N 0.53808 0.51052 -0.11075
 N169 N 0.55116 0.50451 -0.15130
 Mn170 Mn 0.54038 0.54057 -0.00070
 Mn171 Mn 0.49964 0.49980 -0.11142
 Cl172 Cl 0.49961 0.49978 -0.00073
 C173 C 0.57618 0.51772 -0.12988
 C174 C 0.51734 0.57636 -0.12935
 N175 N 0.44595 -0.02794 0.06683
 N176 N 0.42153 -0.04708 0.07681
 N177 N 0.48957 0.02752 0.10994
 N178 N 0.49566 0.04672 0.15021
 N179 N 0.47374 0.02758 0.06676
 N180 N 0.46861 0.04685 0.07645
 N181 N 0.46183 -0.02794 0.10997
 N182 N 0.44869 -0.04705 0.15048
 C183 C 0.42370 -0.05885 0.12888
 C184 C 0.48257 0.05861 0.12839
 N185 N 0.55472 0.02749 0.06773
 N186 N 0.57911 0.04663 0.07803
 N187 N 0.51097 -0.02799 0.11046
 N188 N 0.50480 -0.04719 0.15087
 N189 N 0.52693 -0.02803 0.06761
 N190 N 0.53207 -0.04727 0.07767
 N191 N 0.53871 0.02747 0.11053
 N192 N 0.55173 0.04656 0.15112
 Mn193 Mn 0.50027 -0.00024 0.11087
 C194 C 0.57679 0.05836 0.12992
 C195 C 0.51798 -0.05905 0.12948
 N196 N 0.47394 0.02765 -0.06732
 N197 N 0.46869 0.04682 -0.07763
 N198 N 0.46216 -0.02785 -0.11011
 N199 N 0.44915 -0.04702 -0.15049
 N200 N 0.44618 -0.02787 -0.06725
 N201 N 0.42181 -0.04708 -0.07728
 N202 N 0.48991 0.02761 -0.11013
 N203 N 0.49599 0.04673 -0.15074
 Mn204 Mn 0.45968 -0.00014 -0.00025
 C205 C 0.48275 0.05856 -0.12954
 C206 C 0.42412 -0.05885 -0.12907
 N207 N 0.52713 -0.02800 -0.06647
 N208 N 0.53234 -0.04721 -0.07639
 N209 N 0.53904 0.02753 -0.10953
 N210 N 0.55216 0.04681 -0.14966
 N211 N 0.55489 0.02752 -0.06634
 N212 N 0.57927 0.04681 -0.07588
 N213 N 0.51129 -0.02792 -0.10962
 N214 N 0.50527 -0.04705 -0.15008
 Mn215 Mn 0.54119 -0.00025 0.00063
 Mn216 Mn 0.50060 -0.00015 -0.11050
 Cl217 Cl 0.50044 -0.00020 0.00019
 C218 C 0.51841 -0.05893 -0.12844
 C219 C 0.57711 0.05866 -0.12775
 C220 C 1.19306 0.48205 0.37554
 C221 C 1.17741 0.48206 0.33909
 C222 C 1.15825 0.48209 0.29718
 C223 C 1.13678 0.45819 0.27730
 C224 C 1.11725 0.45820 0.23985
 C225 C 1.11911 0.48211 0.22210
 C226 C 1.14080 0.50602 0.24116
 C227 C 1.16032 0.50601 0.27861
 C228 C 1.09815 0.48212 0.18715
 C229 C 1.08029 0.48221 0.15945
 H230 H 1.13491 0.43957 0.29164
 H231 H 1.10050 0.43959 0.22566
 H232 H 1.14236 0.52463 0.22801
 H233 H 1.17676 0.52461 0.29397
 C234 C 0.51814 0.71071 0.37769
 C235 C 0.51812 0.69509 0.34110
 C236 C 0.51809 0.67598 0.29893
 C237 C 0.49418 0.65431 0.27985
 C238 C 0.49414 0.63485 0.24206
 C239 C 0.51802 0.63697 0.22318
 C240 C 0.54194 0.65884 0.24146
 C241 C 0.54197 0.67831 0.27925
 C242 C 0.51798 0.61605 0.18788
 C243 C 0.51785 0.59814 0.15990
 H244 H 0.47560 0.65224 0.29504
 H245 H 0.47554 0.61795 0.22850
 H246 H 0.56052 0.66061 0.22742
 H247 H 0.56057 0.69491 0.29397
 C248 C 0.28883 -0.19314 0.37598
 C249 C 0.30450 -0.17750 0.33954
 C250 C 0.32371 -0.15835 0.29764
 C251 C 0.34545 -0.16053 0.27892
 C252 C 0.36500 -0.14102 0.24147
 C253 C 0.36291 -0.11922 0.22257
 C254 C 0.34096 -0.11724 0.24048
 C255 C 0.32140 -0.13676 0.27793
 C256 C 0.38390 -0.09827 0.18762
 C257 C 0.40186 -0.08042 0.15991
 H258 H 0.34751 -0.17707 0.29414
 H259 H 0.38196 -0.14268 0.22819
 H260 H 0.33920 -0.10040 0.22642
 H261 H 0.30475 -0.13479 0.29238
 C262 C 0.80682 0.51820 0.37662
 C263 C 0.82254 0.51824 0.34035
 C264 C 0.84177 0.51827 0.29859
 C265 C 0.83977 0.49438 0.28009
 C266 C 0.85933 0.49443 0.24268
 C267 C 0.88098 0.51837 0.22358
 C268 C 0.88278 0.54226 0.24128
 C269 C 0.86321 0.54221 0.27871
 C270 C 0.90195 0.51843 0.18853
 C271 C 0.91980 0.51839 0.16070
 H272 H 0.82334 0.47576 0.29544
 H273 H 0.85780 0.47585 0.22954
 H274 H 0.89949 0.56088 0.22706
 H275 H 0.86503 0.56080 0.29297
 C276 C 0.48167 0.28861 0.37642
 C277 C 0.48158 0.30425 0.34002
 C278 C 0.48150 0.32340 0.29809
 C279 C 0.50535 0.34496 0.27830
 C280 C 0.50529 0.36445 0.24074
 C281 C 0.48137 0.36247 0.22278
 C282 C 0.45750 0.34070 0.24177
 C283 C 0.45757 0.32121 0.27934
 C284 C 0.48134 0.38341 0.18766
 C285 C 0.48141 0.40134 0.15981
 H286 H 0.52397 0.34693 0.29277
 H287 H 0.52386 0.38126 0.22662
 H288 H 0.43889 0.33904 0.22845
 H289 H 0.43900 0.30469 0.29461
 C290 C 0.71133 0.19289 0.37709
 C291 C 0.69565 0.17718 0.34081
 C292 C 0.67645 0.15796 0.29904
 C293 C 0.65455 0.15994 0.28071
 C294 C 0.63504 0.14039 0.24329
 C295 C 0.63734 0.11876 0.22402
 C296 C 0.65944 0.11698 0.24156
 C297 C 0.67896 0.13654 0.27898
 C298 C 0.61642 0.09779 0.18898
 C299 C 0.59853 0.07994 0.16116
 H300 H 0.65234 0.17635 0.29619
 H301 H 0.61797 0.14190 0.23028
 H302 H 0.66136 0.10028 0.22721
 H303 H 0.69574 0.13473 0.29312
 C304 C 0.48223 0.19303 -0.37678
 C305 C 0.48231 0.17735 -0.34044
 C306 C 0.48238 0.15816 -0.29865
 C307 C 0.50630 0.16011 -0.28068
 C308 C 0.50634 0.14057 -0.24328
 C309 C 0.48246 0.11897 -0.22368
 C310 C 0.45856 0.11722 -0.24086
 C311 C 0.45852 0.13677 -0.27827
 C312 C 0.48248 0.09800 -0.18865
 C313 C 0.48256 0.08014 -0.16081
 H314 H 0.52486 0.17649 -0.29643
 H315 H 0.52493 0.14206 -0.23055
 H316 H 0.43998 0.10054 -0.22626
 H317 H 0.43991 0.13498 -0.29214
 C318 C 0.71091 0.51808 -0.37697
 C319 C 0.69523 0.51808 -0.34063
 C320 C 0.67603 0.51807 -0.29881
 C321 C 0.67831 0.54198 -0.27945
 C322 C 0.65877 0.54198 -0.24202
 C323 C 0.63687 0.51806 -0.22378
 C324 C 0.63480 0.49415 -0.24236
 C325 C 0.65433 0.49415 -0.27978
 C326 C 0.61591 0.51805 -0.18879
 C327 C 0.59798 0.51796 -0.16102
 H328 H 0.69493 0.56059 -0.29414
 H329 H 0.66051 0.56059 -0.22822
 H330 H 0.61788 0.47554 -0.22882
 H331 H 0.65229 0.47555 -0.29473
 C332 C 0.80708 0.28878 -0.37646
 C333 C 0.82275 0.30447 -0.34012
 C334 C 0.84192 0.32368 -0.29830
 C335 C 0.83946 0.34517 -0.27856
 C336 C 0.85896 0.36474 -0.24113
 C337 C 0.88100 0.36291 -0.22327
 C338 C 0.88326 0.34121 -0.24221
 C339 C 0.86376 0.32165 -0.27964
 C340 C 0.90190 0.38391 -0.18826
 C341 C 0.91970 0.40188 -0.16048
 H342 H 0.82273 0.34702 -0.29295
 H343 H 0.85708 0.38149 -0.22704
 H344 H 0.90028 0.33966 -0.22896
 H345 H 0.86593 0.30519 -0.29489
 C346 C 0.51835 -0.19376 -0.37466
 C347 C 0.51841 -0.17806 -0.33828
 C348 C 0.51847 -0.15882 -0.29648
 C349 C 0.49460 -0.16098 -0.27729
 C350 C 0.49466 -0.14138 -0.24000
 C351 C 0.51859 -0.11952 -0.22173
 C352 C 0.54245 -0.11756 -0.24010
 C353 C 0.54239 -0.13717 -0.27740
 C354 C 0.51863 -0.09848 -0.18694
 C355 C 0.51859 -0.08057 -0.15935
 H356 H 0.47599 -0.17756 -0.29204
 H357 H 0.47609 -0.14303 -0.22635
 H358 H 0.56107 -0.10067 -0.22654
 H359 H 0.56097 -0.13521 -0.29223
 C360 C 0.28855 0.48188 -0.37721
 C361 C 0.30420 0.48184 -0.34084
 C362 C 0.32337 0.48180 -0.29899
 C363 C 0.32111 0.45786 -0.27980
 C364 C 0.34062 0.45782 -0.24236
 C365 C 0.36249 0.48171 -0.22393
 C366 C 0.36454 0.50565 -0.24232
 C367 C 0.34503 0.50569 -0.27976
 C368 C 0.38344 0.48169 -0.18894
 C369 C 0.40135 0.48175 -0.16117
 H370 H 0.30452 0.43927 -0.29465
 H371 H 0.33890 0.43920 -0.22870
 H372 H 0.38143 0.52424 -0.22862
 H373 H 0.34705 0.52431 -0.29457
 C374 C 1.19303 0.71142 -0.37679
 C375 C 1.17732 0.69578 -0.34043
 C376 C 1.15808 0.67663 -0.29858
 C377 C 1.13642 0.67892 -0.27963
 C378 C 1.11684 0.65942 -0.24219
 C379 C 1.11883 0.63753 -0.22354
 C380 C 1.14069 0.63545 -0.24169
 C381 C 1.16027 0.65495 -0.27912
 C382 C 1.09783 0.61660 -0.18856
 C383 C 1.07996 0.59868 -0.16080
 H384 H 1.13445 0.69553 -0.29466
 H385 H 1.09996 0.66117 -0.22872
 H386 H 1.14236 0.61854 -0.22782
 H387 H 1.17686 0.65290 -0.29375
 C388 C 0.80597 0.51813 -0.37246
 C389 C 0.82153 0.51811 -0.33586
 C390 C 0.84065 0.51804 -0.29399
 C391 C 0.83877 0.49412 -0.27630
 C392 C 0.85840 0.49410 -0.23931
 C393 C 0.87998 0.51801 -0.21990
 C394 C 0.88162 0.54192 -0.23667
 C395 C 0.86199 0.54194 -0.27366
 C396 C 0.90110 0.51803 -0.18572
 C397 C 0.91911 0.51803 -0.15866
 H398 H 0.82243 0.47554 -0.29207
 H399 H 0.85702 0.47550 -0.22689
 H400 H 0.89830 0.56052 -0.22219
 H401 H 0.86371 0.56055 -0.28739
 C402 C 0.48204 0.28810 -0.37267
 C403 C 0.48208 0.30373 -0.33619
 C404 C 0.48215 0.32296 -0.29448
 C405 C 0.45827 0.32032 -0.27370
 C406 C 0.45828 0.34000 -0.23685
 C407 C 0.48215 0.36239 -0.22068
 C408 C 0.50604 0.36481 -0.24056
 C409 C 0.50604 0.34514 -0.27739
 C410 C 0.48209 0.38349 -0.18658
 C411 C 0.48205 0.40150 -0.15954
 H412 H 0.43969 0.30333 -0.28695
 H413 H 0.43969 0.33800 -0.22200
 H414 H 0.52461 0.38212 -0.22858
 H415 H 0.52460 0.34745 -0.29352
 C416 C 0.71213 0.19365 -0.37199
 C417 C 0.69655 0.17807 -0.33539
 C418 C 0.67738 0.15893 -0.29352
 C419 C 0.65543 0.16089 -0.27560
 C420 C 0.63579 0.14125 -0.23861
 C421 C 0.63803 0.11957 -0.21940
 C422 C 0.66021 0.11785 -0.23641
 C423 C 0.67985 0.13750 -0.27340
 C424 C 0.61694 0.09845 -0.18522
 C425 C 0.59893 0.08043 -0.15815
 H426 H 0.65325 0.17730 -0.29121
 H427 H 0.61865 0.14269 -0.22600
 H428 H 0.66207 0.10110 -0.22209
 H429 H 0.69668 0.13571 -0.28730
 C430 C 1.19274 0.48212 -0.37584
 C431 C 1.17722 0.48220 -0.33918
 C432 C 1.15818 0.48232 -0.29716
 C433 C 1.16008 0.50627 -0.27969
 C434 C 1.14056 0.50634 -0.24239
 C435 C 1.11907 0.48246 -0.22245
 C436 C 1.11740 0.45853 -0.23904
 C437 C 1.13692 0.45846 -0.27634
 C438 C 1.09808 0.48249 -0.18783
 C439 C 1.08017 0.48253 -0.16037
 H440 H 1.17636 0.52483 -0.29583
 H441 H 1.14197 0.52495 -0.23010
 H442 H 1.10079 0.43995 -0.22414
 H443 H 1.13519 0.43983 -0.28988
 C444 C 0.51799 0.71184 -0.37372
 C445 C 0.51789 0.69615 -0.33721
 C446 C 0.51773 0.67687 -0.29545
 C447 C 0.49379 0.65479 -0.27819
 C448 C 0.49368 0.63507 -0.24124
 C449 C 0.51753 0.63735 -0.22142
 C450 C 0.54146 0.65965 -0.23779
 C451 C 0.54156 0.67937 -0.27474
 C452 C 0.51748 0.61621 -0.18716
 C453 C 0.51742 0.59818 -0.15997
 H454 H 0.47526 0.65258 -0.29425
 H455 H 0.47508 0.61784 -0.22912
 H456 H 0.56001 0.66154 -0.22298
 H457 H 0.56019 0.69629 -0.28813
 C458 C 0.28923 -0.19287 -0.37542
 C459 C 0.30485 -0.17738 -0.33877
 C460 C 0.32404 -0.15838 -0.29676
 C461 C 0.32151 -0.13708 -0.27588
 C462 C 0.34113 -0.11759 -0.23859
 C463 C 0.36335 -0.11933 -0.22205
 C464 C 0.36566 -0.14086 -0.24205
 C465 C 0.34604 -0.16035 -0.27934
 C466 C 0.38440 -0.09837 -0.18743
 C467 C 0.40237 -0.08048 -0.15997
 H468 H 0.30465 -0.13528 -0.28938
 H469 H 0.33922 -0.10095 -0.22364
 H470 H 0.38283 -0.14233 -0.22981
 H471 H 0.34826 -0.17666 -0.29553
 C472 C 0.51833 -0.19330 0.37671
 C473 C 0.51832 -0.17775 0.33998
 C474 C 0.51827 -0.15868 0.29783
 C475 C 0.49435 -0.16086 0.27912
 C476 C 0.49431 -0.14134 0.24166
 C477 C 0.51819 -0.11958 0.22278
 C478 C 0.54211 -0.11763 0.24062
 C479 C 0.54215 -0.13715 0.27808
 C480 C 0.51815 -0.09860 0.18801
 C481 C 0.51809 -0.08070 0.16044
 H482 H 0.47578 -0.17736 0.29442
 H483 H 0.47570 -0.14297 0.22841
 H484 H 0.56068 -0.10080 0.22655
 H485 H 0.56076 -0.13520 0.29257
 C486 C 0.28805 0.48196 0.37189
 C487 C 0.30367 0.48198 0.33540
 C488 C 0.32287 0.48203 0.29363
 C489 C 0.34481 0.50595 0.27566
 C490 C 0.36446 0.50597 0.23870
 C491 C 0.36224 0.48206 0.21959
 C492 C 0.34007 0.45814 0.23667
 C493 C 0.32042 0.45813 0.27363
 C494 C 0.38332 0.48204 0.18536
 C495 C 0.40132 0.48205 0.15822
 H496 H 0.34696 0.52454 0.29117
 H497 H 0.38158 0.52457 0.22603
 H498 H 0.33823 0.43954 0.22242
 H499 H 0.30361 0.43951 0.28757
 C500 C 1.19364 0.71197 0.37229
 C501 C 1.17803 0.69637 0.33578
 C502 C 1.15888 0.67719 0.29399
 C503 C 1.13730 0.67951 0.27451
 C504 C 1.11768 0.65986 0.23753
 C505 C 1.11957 0.63782 0.21991
 C506 C 1.14138 0.63572 0.23850
 C507 C 1.16100 0.65537 0.27547
 C508 C 1.09849 0.61672 0.18567
 C509 C 1.08051 0.59871 0.15853
 H510 H 1.13540 0.69622 0.28887
 H511 H 1.10083 0.66160 0.22368
 H512 H 1.14296 0.61869 0.22541
 H513 H 1.17753 0.65331 0.29058
 C514 C 0.48201 0.19284 0.37460
 C515 C 0.48206 0.17734 0.33782
 C516 C 0.48215 0.15831 0.29568
 C517 C 0.50609 0.16046 0.27725
 C518 C 0.50616 0.14095 0.23991
 C519 C 0.48229 0.11921 0.22088
 C520 C 0.45836 0.11730 0.23841
 C521 C 0.45829 0.13682 0.27575
 C522 C 0.48235 0.09821 0.18636
 C523 C 0.48243 0.08029 0.15903
 H524 H 0.52464 0.17692 0.29270
 H525 H 0.52477 0.14254 0.22690
 H526 H 0.43979 0.10051 0.22423
 H527 H 0.43967 0.13490 0.29003
 C528 C 0.71078 0.51798 0.37441
 C529 C 0.69522 0.51791 0.33764
 C530 C 0.67609 0.51780 0.29552
 C531 C 0.67854 0.54167 0.27516
 C532 C 0.65895 0.54159 0.23783
 C533 C 0.63684 0.51765 0.22075
 C534 C 0.63461 0.49377 0.24022
 C535 C 0.65420 0.49384 0.27754
 C536 C 0.61579 0.51760 0.18619
 C537 C 0.59782 0.51755 0.15881
 H538 H 0.69531 0.56031 0.28910
 H539 H 0.66079 0.56017 0.22331
 H540 H 0.61753 0.47515 0.22755
 H541 H 0.65204 0.47528 0.29333
 C542 C 0.80713 0.28897 0.37492
 C543 C 0.82262 0.30455 0.33817
 C544 C 0.84164 0.32370 0.29606
 C545 C 0.86301 0.32121 0.27566
 C546 C 0.88252 0.34082 0.23835
 C547 C 0.88073 0.36298 0.22132
 C548 C 0.85913 0.36525 0.24083
 C549 C 0.83961 0.34564 0.27813
 C550 C 0.90173 0.38404 0.18677
 C551 C 0.91965 0.40203 0.15939
 H552 H 0.86484 0.30440 0.28956
 H553 H 0.89922 0.33895 0.22380
 H554 H 0.85763 0.38238 0.22820
 H555 H 0.82325 0.34783 0.29395
   
