data_POSCAR
  _audit_creation_date              2014-09-24
  _audit_creation_method            'ToBaCCo'
  _symmetry_space_group_name_H-M    'P1'
  _symmetry_Int_Tables_number       1
  _symmetry_cell_setting            triclinic
  loop_
  _symmetry_equiv_pos_as_xyz
 x,y,z
_cell_length_a 23.2899
_cell_length_b 23.3051
_cell_length_c 23.2844
_cell_angle_alpha 90.860800
_cell_angle_beta 89.421700
_cell_angle_gamma 86.389800
loop_
  _atom_site_label
  _atom_site_type_symbol
  _atom_site_fract_x
  _atom_site_fract_y
  _atom_site_fract_z
C1 C 0.60394 0.35535 -0.03795
 C2 C 0.64418 0.39593 -0.03994
 C3 C 0.61997 0.44469 -0.01183
 N4 N 0.56598 0.43564 0.00604
 C5 C 0.55630 0.38101 -0.00951
 C6 C 0.64762 0.49599 -0.00027
 C7 C 0.61427 0.54737 0.01404
 C8 C 0.63325 0.59296 0.04616
 C9 C 0.58999 0.63583 0.04586
 C10 C 0.54567 0.61534 0.01359
 N11 N 0.56016 0.56074 -0.00435
 C12 C 0.49442 0.64770 -0.00120
 C13 C 0.44377 0.61908 -0.01256
 C14 C 0.39547 0.64179 -0.04074
 C15 C 0.35543 0.60103 -0.03864
 C16 C 0.38097 0.55456 -0.01008
 N17 N 0.43500 0.56546 0.00546
 C18 C 0.35387 0.50428 0.00468
 C19 C 0.38622 0.45390 0.02075
 C20 C 0.36460 0.40776 0.04895
 C21 C 0.40798 0.36480 0.04905
 C22 C 0.45474 0.38602 0.02090
 N23 N 0.44142 0.44064 0.00468
 C24 C 0.50590 0.35369 0.00498
 H25 H 0.60899 0.31218 -0.05583
 H26 H 0.68627 0.39018 -0.06005
 H27 H 0.46587 0.46455 -0.02277
 H28 H 0.67414 0.59518 0.06748
 H29 H 0.59110 0.67746 0.06692
 H30 H 0.38968 0.68320 -0.06100
 H31 H 0.31267 0.60496 -0.05650
 H32 H 0.40494 0.32231 0.06652
 H33 H 0.53700 0.53638 -0.03289
 H34 H 0.32163 0.40482 0.06631
 C35 C -0.03770 0.60289 0.64162
 C36 C -0.03863 0.64445 0.60046
 C37 C -0.01098 0.61974 0.55222
 N38 N 0.00559 0.56418 0.56217
 C39 C -0.01032 0.55402 0.61687
 C40 C 0.00103 0.64826 0.50053
 C41 C 0.01353 0.61586 0.44932
 C42 C 0.04327 0.63459 0.40184
 C43 C 0.04144 0.59239 0.36011
 C44 C 0.01149 0.54869 0.38353
 N45 N -0.00467 0.56288 0.43813
 C46 C -0.00413 0.49909 0.35345
 C47 C -0.01745 0.44897 0.38254
 C48 C -0.04271 0.40214 0.35845
 C49 C -0.04186 0.36064 0.39978
 C50 C -0.01605 0.38369 0.44751
 N51 N -0.00147 0.43770 0.43694
 C52 C -0.00156 0.35404 0.49824
 C53 C 0.01444 0.38365 0.54839
 C54 C 0.04285 0.35890 0.59481
 C55 C 0.04454 0.40114 0.63663
 C56 C 0.01712 0.45037 0.61446
 N57 N -0.00043 0.43955 0.56050
 C58 C 0.00333 0.50204 0.64537
 H59 H -0.05550 0.60793 0.68464
 H60 H -0.05777 0.68778 0.60546
 H61 H -0.02762 0.46675 0.53635
 H62 H 0.06386 0.67467 0.39750
 H63 H 0.05991 0.59378 0.31735
 H64 H -0.05938 0.39807 0.31547
 H65 H -0.05787 0.31826 0.39501
 H66 H 0.06284 0.39589 0.67891
 H67 H -0.03227 0.54058 0.46392
 H68 H 0.05976 0.31480 0.59854
 C69 C 0.35411 0.02806 0.60463
 C70 C 0.39523 0.02960 0.64628
 C71 C 0.44747 0.01194 0.62024
 N72 N 0.43895 -0.00162 0.56443
 C73 C 0.38203 0.00805 0.55480
 C74 C 0.50054 0.00093 0.64869
 C75 C 0.55283 -0.01161 0.61754
 C76 C 0.60387 -0.03517 0.64019
 C77 C 0.64502 -0.03452 0.59766
 C78 C 0.61913 -0.00841 0.55058
 N79 N 0.56273 0.00452 0.56274
 C80 C 0.64805 0.00585 0.49908
 C81 C 0.61693 0.01672 0.44793
 C82 C 0.63689 0.04488 0.40027
 C83 C 0.59540 0.04233 0.35909
 C84 C 0.55116 0.01351 0.38323
 N85 N 0.56415 -0.00183 0.43760
 C86 C 0.50128 -0.00178 0.35435
 C87 C 0.45220 -0.01756 0.38491
 C88 C 0.40713 -0.04595 0.36165
 C89 C 0.36547 -0.04696 0.40391
 C90 C 0.38639 -0.01920 0.45174
 N91 N 0.43950 -0.00197 0.43998
 C92 C 0.35479 -0.00583 0.50285
 H93 H 0.30865 0.03911 0.61093
 H94 H 0.38667 0.04091 0.69085
 H95 H 0.46252 0.02544 0.46543
 H96 H 0.61192 -0.05040 0.68310
 H97 H 0.68938 -0.05059 0.60166
 H98 H 0.67713 0.06526 0.39563
 H99 H 0.59739 0.05998 0.31644
 H100 H 0.32411 -0.06521 0.39960
 H101 H 0.53450 0.02945 0.53751
 H102 H 0.40411 -0.06323 0.31847
 O103 O 0.45269 0.00374 -0.07934
 O104 O 0.45269 0.00592 0.07900
 O105 O 0.45515 0.08296 -0.00080
 O106 O 0.45034 -0.07472 -0.00005
 O107 O 0.54521 -0.08364 -0.00401
 O108 O 0.55005 0.07404 0.00174
 O109 O 0.54741 -0.00693 0.07792
 O110 O 0.54780 -0.00416 -0.08024
 Cu111 Cu 0.44317 0.00522 -0.00011
 Cu112 Cu 0.55715 -0.00589 -0.00121
 C113 C 0.50029 -0.00013 -0.10657
 C114 C 0.50003 -0.00066 0.10549
 C115 C 0.50342 0.10540 0.00068
 C116 C 0.49696 -0.10614 -0.00252
 O117 O -0.08279 0.54626 0.99673
 O118 O 0.07489 0.54891 1.00421
 O119 O 0.00068 0.54804 0.92142
 O120 O -0.00838 0.54728 1.07921
 O121 O 0.00544 0.45266 1.07729
 O122 O 0.00132 0.45322 0.91946
 O123 O 0.08242 0.45424 0.99563
 O124 O -0.07545 0.45154 1.00103
 Cu125 Cu -0.00469 0.55720 1.00053
 Cu126 Cu 0.00423 0.44334 0.99816
 C127 C -0.10612 0.49848 0.99874
 C128 C 0.10561 0.50199 1.00018
 C129 C 0.00138 0.50075 0.89353
 C130 C -0.00185 0.49984 1.10521
 O131 O 0.00224 -0.07966 0.45167
 O132 O 0.00050 0.07828 0.45161
 O133 O 0.08038 -0.00367 0.45192
 O134 O -0.07785 0.00264 0.45109
 O135 O -0.07955 0.00502 0.54593
 O136 O 0.07888 -0.00350 0.54681
 O137 O -0.00181 0.07988 0.54648
 O138 O 0.00100 -0.07813 0.54651
 Cu139 Cu 0.00145 -0.00080 0.44203
 Cu140 Cu -0.00052 0.00098 0.55597
 C141 C 0.00190 -0.10586 0.49910
 C142 C -0.00088 0.10599 0.49903
 C143 C 0.10657 -0.00463 0.49949
 C144 C -0.10573 0.00494 0.49833
 C145 C -0.25661 0.44921 1.01987
 C146 C -0.29121 0.49603 0.99885
 C147 C -0.26334 0.54358 0.97763
 C148 C -0.20343 0.54446 0.97792
 C149 C -0.16950 0.49750 0.99850
 C150 C -0.19664 0.44974 1.01916
 H151 H -0.27583 0.41271 1.03875
 H152 H -0.28785 0.57989 0.95959
 H153 H -0.18360 0.58165 0.96118
 H154 H -0.17151 0.41321 1.03601
 C155 C 0.26326 0.45998 0.97383
 C156 C 0.28990 0.50410 1.00315
 C157 C 0.25534 0.54775 1.03117
 C158 C 0.19537 0.54755 1.02946
 C159 C 0.16888 0.50291 1.00093
 C160 C 0.20335 0.45899 0.97336
 H161 H 0.28895 0.42617 0.95142
 H162 H 0.27483 0.58191 1.05451
 H163 H 0.16970 0.58171 1.05137
 H164 H 0.18393 0.42432 0.95072
 C165 C 0.02430 -0.26001 0.54645
 C166 C 0.00160 -0.29070 0.50007
 C167 C -0.02042 -0.25903 0.45307
 C168 C -0.01953 -0.19917 0.45243
 C169 C 0.00227 -0.16916 0.49919
 C170 C 0.02399 -0.20008 0.54627
 H171 H 0.04372 -0.28238 0.58251
 H172 H -0.03987 -0.28038 0.41723
 H173 H -0.03715 -0.17622 0.41584
 H174 H 0.04176 -0.17793 0.58258
 C175 C -0.03065 0.26213 0.54192
 C176 C -0.00138 0.29011 0.49848
 C177 C 0.02827 0.25692 0.45544
 C178 C 0.02766 0.19704 0.45517
 C179 C -0.00111 0.16918 0.49892
 C180 C -0.02986 0.20214 0.54258
 H181 H -0.05408 0.28682 0.57536
 H182 H 0.05183 0.27745 0.42196
 H183 H 0.05059 0.17241 0.42137
 H184 H -0.05256 0.18152 0.57661
 C185 C 0.51544 -0.05034 -0.26085
 C186 C 0.50087 0.00060 -0.29060
 C187 C 0.48553 0.05117 -0.25871
 C188 C 0.48472 0.05074 -0.19866
 C189 C 0.50041 0.00011 -0.16952
 C190 C 0.51603 -0.05034 -0.20080
 H191 H 0.52572 -0.09034 -0.28412
 H192 H 0.47446 0.09112 -0.28039
 H193 H 0.47265 0.09006 -0.17490
 H194 H 0.52770 -0.08990 -0.17872
 C195 C 0.54552 -0.03057 0.25834
 C196 C 0.50065 -0.00179 0.29025
 C197 C 0.45537 0.02716 0.26082
 C198 C 0.45474 0.02692 0.20076
 C199 C 0.50007 -0.00114 0.16896
 C200 C 0.54559 -0.02967 0.19833
 H201 H 0.58062 -0.05368 0.27997
 H202 H 0.42053 0.05008 0.28442
 H203 H 0.41929 0.04951 0.17917
 H204 H 0.58085 -0.05201 0.17485
 C205 C 0.54211 -0.26386 -0.02407
 C206 C 0.49403 -0.29116 -0.00277
 C207 C 0.44639 -0.25599 0.01778
 C208 C 0.44689 -0.19602 0.01692
 C209 C 0.49536 -0.16948 -0.00346
 C210 C 0.54291 -0.20400 -0.02396
 H211 H 0.57905 -0.28884 -0.04186
 H212 H 0.40933 -0.27468 0.03661
 H213 H 0.40986 -0.17041 0.03364
 H214 H 0.58067 -0.18470 -0.04055
 C215 C 0.54950 0.25577 0.03061
 C216 C 0.50623 0.28963 0.00308
 C217 C 0.46272 0.26220 -0.02596
 C218 C 0.46167 0.20235 -0.02631
 C219 C 0.50503 0.16859 0.00099
 C220 C 0.54934 0.19574 0.02891
 H221 H 0.58325 0.27586 0.05369
 H222 H 0.42928 0.28725 -0.04812
 H223 H 0.42733 0.18236 -0.04858
 H224 H 0.58306 0.17058 0.05053
 C225 C -0.25791 -0.01669 0.45161
 C226 C -0.29090 0.00728 0.49825
 C227 C -0.26151 0.03182 0.54432
 C228 C -0.20145 0.03096 0.54442
 C229 C -0.16918 0.00686 0.49788
 C230 C -0.19797 -0.01634 0.45121
 H231 H -0.27829 -0.03757 0.41604
 H232 H -0.28503 0.05244 0.58017
 H233 H -0.18024 0.04980 0.58066
 H234 H -0.17402 -0.03576 0.41502
 C235 C 0.25939 0.02512 0.46043
 C236 C 0.29085 -0.00683 0.50155
 C237 C 0.26115 -0.03929 0.54119
 C238 C 0.20106 -0.03816 0.54096
 C239 C 0.16984 -0.00630 0.49972
 C240 C 0.19948 0.02471 0.45900
 H241 H 0.28130 0.05059 0.42955
 H242 H 0.28451 -0.06499 0.57270
 H243 H 0.17897 -0.06277 0.57244
 H244 H 0.17616 0.04980 0.42700
 C245 C 0.02679 0.45493 1.25806
 C246 C -0.00382 0.49900 1.28951
 C247 C -0.03361 0.54347 1.25985
 C248 C -0.03250 0.54407 1.19988
 C249 C -0.00261 0.49953 1.16850
 C250 C 0.02676 0.45479 1.19809
 H251 H 0.05079 0.42066 1.27999
 H252 H -0.05765 0.57778 1.28322
 H253 H -0.05569 0.57891 1.17801
 H254 H 0.05054 0.42024 1.17483
 C255 C 0.03224 0.54255 0.74077
 C256 C 0.00314 0.50159 0.70936
 C257 C -0.02638 0.46027 0.73918
 C258 C -0.02614 0.45945 0.79913
 C259 C 0.00213 0.50100 0.83035
 C260 C 0.03099 0.54279 0.80076
 H261 H 0.05581 0.57444 0.71878
 H262 H -0.04965 0.42864 0.71598
 H263 H -0.04902 0.42707 0.82115
 H264 H 0.05343 0.57499 0.82406
   
