data_POSCAR
  _audit_creation_date              2014-09-24
  _audit_creation_method            'ToBaCCo'
  _symmetry_space_group_name_H-M    'P1'
  _symmetry_Int_Tables_number       1
  _symmetry_cell_setting            triclinic
  loop_
  _symmetry_equiv_pos_as_xyz
 x,y,z
_cell_length_a 53.4144
_cell_length_b 52.6926
_cell_length_c 53.6460
_cell_angle_alpha 90.097800
_cell_angle_beta 89.737300
_cell_angle_gamma 89.833700
loop_
  _atom_site_label
  _atom_site_type_symbol
  _atom_site_fract_x
  _atom_site_fract_y
  _atom_site_fract_z
N1 N 0.59662 0.66424 0.61213
 N2 N 0.58651 0.65353 0.63182
 C3 C 0.56608 0.66689 0.63871
 C4 C 0.56316 0.68708 0.62242
 C5 C 0.58297 0.68471 0.60578
 H6 H 0.55415 0.66216 0.65432
 H7 H 0.58734 0.69707 0.59032
 Cu8 Cu 0.60103 0.62321 0.64664
 Cu9 Cu 0.62678 0.65098 0.59624
 Cu10 Cu 0.65388 0.59777 0.62290
 N11 N 0.61694 0.59376 0.66175
 N12 N 0.63756 0.58394 0.65240
 C13 C 0.64455 0.56395 0.66632
 C14 C 0.62737 0.56093 0.68564
 C15 C 0.61010 0.58036 0.68200
 H16 H 0.66098 0.55257 0.66252
 H17 H 0.59376 0.58458 0.69319
 N18 N 0.66760 0.61449 0.59300
 N19 N 0.65731 0.63477 0.58289
 C20 C 0.67094 0.64166 0.56285
 C21 C 0.69081 0.62491 0.56014
 C22 C 0.68803 0.60794 0.57964
 H23 H 0.66654 0.65757 0.55095
 H24 H 0.70010 0.59207 0.58394
 H25 H 0.62223 0.61372 0.60731
 H26 H 0.64122 0.63455 0.62810
 N27 N 0.89537 0.32758 0.12014
 N28 N 0.90492 0.33793 0.14022
 C29 C 0.92637 0.32591 0.14598
 C30 C 0.93056 0.30671 0.12859
 C31 C 0.91030 0.30848 0.11247
 H32 H 0.93781 0.33081 0.16182
 H33 H 0.90641 0.29681 0.09638
 Cu34 Cu 0.88804 0.36563 0.15741
 Cu35 Cu 0.86386 0.33916 0.10606
 Cu36 Cu 0.84453 0.39882 0.12597
 N37 N 0.87707 0.39893 0.16846
 N38 N 0.86039 0.41202 0.15592
 C39 C 0.85621 0.43422 0.16768
 C40 C 0.87112 0.43518 0.18877
 C41 C 0.88414 0.41236 0.18857
 H42 H 0.84318 0.44851 0.16133
 H43 H 0.89757 0.40581 0.20213
 N44 N 0.83066 0.38181 0.09631
 N45 N 0.83771 0.35894 0.08907
 C46 C 0.82450 0.35227 0.06879
 C47 C 0.80818 0.37185 0.06296
 C48 C 0.81267 0.39026 0.08087
 H49 H 0.82654 0.33436 0.05916
 H50 H 0.80349 0.40848 0.08261
 H51 H 0.87407 0.37534 0.11546
 H52 H 0.84841 0.36134 0.13461
 N53 N 0.40418 0.16678 -0.11400
 N54 N 0.41401 0.15623 -0.13398
 C55 C 0.43443 0.16946 -0.14089
 C56 C 0.43758 0.18944 -0.12435
 C57 C 0.41796 0.18707 -0.10753
 H58 H 0.44598 0.16501 -0.15689
 H59 H 0.41403 0.19905 -0.09161
 Cu60 Cu 0.39909 0.12628 -0.14901
 Cu61 Cu 0.37428 0.15345 -0.09780
 Cu62 Cu 0.34742 0.10001 -0.12426
 N63 N 0.38383 0.09633 -0.16371
 N64 N 0.36360 0.08620 -0.15395
 C65 C 0.35691 0.06590 -0.16762
 C66 C 0.37387 0.06306 -0.18706
 C67 C 0.39071 0.08277 -0.18393
 H68 H 0.34097 0.05402 -0.16351
 H69 H 0.40666 0.08708 -0.19560
 N70 N 0.33384 0.11676 -0.09420
 N71 N 0.34402 0.13712 -0.08417
 C72 C 0.33049 0.14401 -0.06401
 C73 C 0.31082 0.12718 -0.06113
 C74 C 0.31360 0.11016 -0.08067
 H75 H 0.33482 0.15998 -0.05215
 H76 H 0.30164 0.09424 -0.08487
 H77 H 0.37915 0.11630 -0.10927
 H78 H 0.35921 0.13698 -0.12930
 N79 N 0.09750 0.83528 0.38582
 N80 N 0.08786 0.84563 0.36578
 C81 C 0.06772 0.83215 0.35874
 C82 C 0.06444 0.81211 0.37528
 C83 C 0.08386 0.81486 0.39223
 H84 H 0.05637 0.83669 0.34275
 H85 H 0.08793 0.80302 0.40812
 Cu86 Cu 0.10264 0.87578 0.35091
 Cu87 Cu 0.12701 0.84900 0.40219
 Cu88 Cu 0.15357 0.90280 0.37607
 N89 N 0.11775 0.90592 0.33638
 N90 N 0.13762 0.91641 0.34636
 C91 C 0.14418 0.93684 0.33284
 C92 C 0.12756 0.93937 0.31323
 C93 C 0.11103 0.91934 0.31613
 H94 H 0.16005 0.94881 0.33692
 H95 H 0.09515 0.91496 0.30450
 N96 N 0.16695 0.88619 0.40611
 N97 N 0.15689 0.86569 0.41601
 C98 C 0.17026 0.85891 0.43617
 C99 C 0.18971 0.87597 0.43918
 C100 C 0.18696 0.89300 0.41973
 H101 H 0.16600 0.84285 0.44791
 H102 H 0.19880 0.90906 0.41563
 H103 H 0.12184 0.88608 0.39080
 H104 H 0.14237 0.86567 0.37083
 C105 C 0.10543 0.14515 0.12591
 C106 C 0.10618 0.12647 0.14455
 C107 C 0.12522 0.10804 0.14478
 C108 C 0.14370 0.10846 0.12608
 C109 C 0.14329 0.12698 0.10727
 C110 C 0.12409 0.14526 0.10737
 H111 H 0.09185 0.12625 0.15890
 H112 H 0.15880 0.09470 0.12651
 H113 H 0.12327 0.15920 0.09257
 C114 C 0.39388 0.85646 0.62514
 C115 C 0.37524 0.85673 0.60676
 C116 C 0.35650 0.87549 0.60678
 C117 C 0.35656 0.89415 0.62552
 C118 C 0.37504 0.89420 0.64408
 C119 C 0.39362 0.87528 0.64372
 H120 H 0.37571 0.84269 0.59199
 H121 H 0.34180 0.90828 0.62605
 H122 H 0.40793 0.87520 0.65796
 C123 C 0.89621 0.64437 0.37347
 C124 C 0.89581 0.62562 0.35482
 C125 C 0.87714 0.60691 0.35461
 C126 C 0.85871 0.60709 0.37339
 C127 C 0.85879 0.62566 0.39220
 C128 C 0.87761 0.64423 0.39207
 H129 H 0.90970 0.62599 0.34005
 H130 H 0.84426 0.59271 0.37336
 H131 H 0.87817 0.65821 0.40688
 C132 C 0.60786 0.35678 -0.12677
 C133 C 0.62657 0.35678 -0.10846
 C134 C 0.64547 0.37526 -0.10850
 C135 C 0.64549 0.39393 -0.12717
 C136 C 0.62693 0.39425 -0.14564
 C137 C 0.60821 0.37559 -0.14528
 H138 H 0.62604 0.34275 -0.09373
 H139 H 0.65999 0.40826 -0.12731
 H140 H 0.59422 0.37532 -0.15984
 C141 C -0.00976 0.25356 0.12648
 C142 C -0.01069 0.27204 0.14517
 C143 C -0.03028 0.28968 0.14583
 C144 C -0.04942 0.28915 0.12775
 C145 C -0.04806 0.27044 0.10890
 C146 C -0.02843 0.25284 0.10833
 C147 C 0.01019 0.23515 0.12608
 C148 C 0.02681 0.21961 0.12584
 C149 C 0.04653 0.20094 0.12567
 C150 C 0.07117 0.20810 0.12026
 C151 C 0.09033 0.18996 0.12026
 C152 C 0.08508 0.16441 0.12572
 C153 C 0.06022 0.15740 0.13106
 C154 C 0.04110 0.17556 0.13104
 H155 H 0.00369 0.27276 0.15933
 H156 H -0.03025 0.30357 0.16067
 H157 H -0.06209 0.26909 0.09453
 H158 H -0.02788 0.23858 0.09376
 H159 H 0.07558 0.22771 0.11614
 H160 H 0.10931 0.19598 0.11635
 H161 H 0.05553 0.13783 0.13499
 H162 H 0.02207 0.16980 0.13518
 C163 C 0.50562 0.74441 0.62337
 C164 C 0.52159 0.74206 0.60275
 C165 C 0.54029 0.72345 0.60241
 C166 C 0.54329 0.70686 0.62274
 C167 C 0.52709 0.70940 0.64339
 C168 C 0.50841 0.72805 0.64367
 C169 C 0.48641 0.76361 0.62369
 C170 C 0.47034 0.77972 0.62396
 C171 C 0.45116 0.79896 0.62427
 C172 C 0.45734 0.82417 0.62961
 C173 C 0.43873 0.84289 0.62991
 C174 C 0.41367 0.83661 0.62484
 C175 C 0.40766 0.81120 0.61948
 C176 C 0.42630 0.79251 0.61921
 H177 H 0.51956 0.75461 0.58690
 H178 H 0.55220 0.72201 0.58612
 H179 H 0.52888 0.69718 0.65946
 H180 H 0.49617 0.72972 0.65976
 H181 H 0.47654 0.82938 0.63347
 H182 H 0.44400 0.86232 0.63377
 H183 H 0.38850 0.80573 0.61580
 H184 H 0.42130 0.77303 0.61511
 C185 C 1.00803 0.75569 0.37437
 C186 C 1.02629 0.75550 0.39294
 C187 C 1.04492 0.77408 0.39327
 C188 C 1.04565 0.79329 0.37496
 C189 C 1.02704 0.79316 0.35632
 C190 C 1.00845 0.77454 0.35608
 C191 C 0.98885 0.73657 0.37411
 C192 C 0.97277 0.72056 0.37392
 C193 C 0.95357 0.70146 0.37374
 C194 C 0.95966 0.67625 0.36808
 C195 C 0.94102 0.65767 0.36795
 C196 C 0.91602 0.66410 0.37352
 C197 C 0.91009 0.68951 0.37918
 C198 C 0.92876 0.70805 0.37928
 H199 H 1.02613 0.74097 0.40721
 H200 H 1.05862 0.77315 0.40800
 H201 H 1.02659 0.80734 0.34181
 H202 H 0.99438 0.77486 0.34160
 H203 H 0.97882 0.67093 0.36383
 H204 H 0.94621 0.63823 0.36383
 H205 H 0.89098 0.69510 0.38324
 H206 H 0.92383 0.72753 0.38363
 C207 C 0.49537 0.24617 -0.12517
 C208 C 0.47442 0.24915 -0.10968
 C209 C 0.45564 0.23073 -0.10938
 C210 C 0.45754 0.20902 -0.12462
 C211 C 0.47871 0.20623 -0.14013
 C212 C 0.49747 0.22468 -0.14038
 C213 C 0.51468 0.26515 -0.12547
 C214 C 0.53086 0.28105 -0.12572
 C215 C 0.55017 0.30003 -0.12600
 C216 C 0.54420 0.32530 -0.13138
 C217 C 0.56294 0.34376 -0.13166
 C218 C 0.58794 0.33717 -0.12653
 C219 C 0.59375 0.31170 -0.12114
 C220 C 0.57498 0.29327 -0.12090
 H221 H 0.47259 0.26575 -0.09786
 H222 H 0.43960 0.23370 -0.09735
 H223 H 0.48100 0.18975 -0.15197
 H224 H 0.51364 0.22215 -0.15241
 H225 H 0.52504 0.33075 -0.13530
 H226 H 0.55783 0.36325 -0.13556
 H227 H 0.61286 0.30599 -0.11743
 H228 H 0.57982 0.27374 -0.11678
 C229 C 0.12727 -0.00337 0.25613
 C230 C 0.11219 -0.02489 0.25376
 C231 C 0.11227 -0.04351 0.27230
 C232 C 0.12747 -0.04087 0.29352
 C233 C 0.14258 -0.01913 0.29568
 C234 C 0.14246 -0.00053 0.27712
 C235 C 0.12712 0.01580 0.23706
 C236 C 0.12695 0.03184 0.22107
 C237 C 0.12667 0.05098 0.20197
 C238 C 0.13204 0.04444 0.17722
 C239 C 0.13164 0.06299 0.15863
 C240 C 0.12583 0.08836 0.16456
 C241 C 0.12050 0.09475 0.18951
 C242 C 0.12093 0.07617 0.20808
 H243 H 0.10039 -0.02730 0.23756
 H244 H 0.10054 -0.06000 0.26981
 H245 H 0.15438 -0.01628 0.31176
 H246 H 0.15418 0.01608 0.27917
 H247 H 0.13644 0.02498 0.17228
 H248 H 0.13553 0.05743 0.13955
 H249 H 0.11628 0.11417 0.19471
 H250 H 0.11680 0.08145 0.22719
 C251 C 0.62757 0.50519 -0.25748
 C252 C 0.64653 0.50540 -0.27550
 C253 C 0.64652 0.52377 -0.29428
 C254 C 0.62745 0.54237 -0.29539
 C255 C 0.60846 0.54185 -0.27699
 C256 C 0.60856 0.52344 -0.25826
 C257 C 0.62757 0.48621 -0.23821
 C258 C 0.62753 0.47031 -0.22209
 C259 C 0.62742 0.45130 -0.20286
 C260 C 0.64985 0.43987 -0.19543
 C261 C 0.64973 0.42135 -0.17679
 C262 C 0.62713 0.41400 -0.16536
 C263 C 0.60468 0.42562 -0.17297
 C264 C 0.60485 0.44415 -0.19158
 H265 H 0.66135 0.49133 -0.27507
 H266 H 0.66156 0.52316 -0.30781
 H267 H 0.59337 0.55555 -0.27683
 H268 H 0.59376 0.52344 -0.24437
 H269 H 0.66742 0.44522 -0.20409
 H270 H 0.66727 0.41252 -0.17157
 H271 H 0.58703 0.42059 -0.16430
 H272 H 0.58738 0.45292 -0.19716
 C273 C 0.37417 1.00579 0.75566
 C274 C 0.39499 1.02149 0.75881
 C275 C 0.39491 1.04012 0.77741
 C276 C 0.37397 1.04329 0.79316
 C277 C 0.35314 1.02736 0.78981
 C278 C 0.35326 1.00876 0.77118
 C279 C 0.37428 0.98663 0.73651
 C280 C 0.37438 0.97058 0.72047
 C281 C 0.37453 0.95142 0.70132
 C282 C 0.37977 0.92614 0.70737
 C283 C 0.37995 0.90752 0.68878
 C284 C 0.37485 0.91395 0.66386
 C285 C 0.36958 0.93943 0.65798
 C286 C 0.36943 0.95802 0.67660
 H287 H 0.41130 1.01932 0.74691
 H288 H 0.41137 1.05181 0.77948
 H289 H 0.33661 1.02930 0.80137
 H290 H 0.33702 0.99672 0.76888
 H291 H 0.38367 0.92082 0.72646
 H292 H 0.38375 0.88803 0.69394
 H293 H 0.36589 0.94502 0.63892
 H294 H 0.36541 0.97755 0.67170
 C295 C 0.87441 0.49443 0.24395
 C296 C 0.89216 0.47487 0.24400
 C297 C 0.89119 0.45567 0.22601
 C298 C 0.87240 0.45577 0.20767
 C299 C 0.85472 0.47564 0.20775
 C300 C 0.85573 0.49481 0.22577
 C301 C 0.87517 0.51397 0.26271
 C302 C 0.87567 0.53028 0.27849
 C303 C 0.87610 0.54967 0.29740
 C304 C 0.89880 0.55692 0.30818
 C305 C 0.89918 0.57560 0.32672
 C306 C 0.87680 0.58724 0.33475
 C307 C 0.85409 0.57986 0.32374
 C308 C 0.85377 0.56120 0.30520
 H309 H 0.90672 0.47441 0.25798
 H310 H 0.90525 0.44087 0.22649
 H311 H 0.83989 0.47635 0.19412
 H312 H 0.84185 0.50984 0.22560
 H313 H 0.91620 0.54806 0.30233
 H314 H 0.91691 0.58067 0.33504
 H315 H 0.83661 0.58872 0.32928
 H316 H 0.83610 0.55578 0.29693
 C317 C 0.25389 0.12752 -0.00412
 C318 C 0.26946 0.14859 -0.00722
 C319 C 0.28796 0.14852 -0.02574
 C320 C 0.29115 0.12731 -0.04147
 C321 C 0.27535 0.10623 -0.03817
 C322 C 0.25688 0.10636 -0.01962
 C323 C 0.23489 0.12759 0.01499
 C324 C 0.21898 0.12757 0.03100
 C325 C 0.19999 0.12745 0.05011
 C326 C 0.19179 0.15030 0.06075
 C327 C 0.17334 0.15018 0.07932
 C328 C 0.16286 0.12716 0.08752
 C329 C 0.17124 0.10430 0.07669
 C330 C 0.18967 0.10447 0.05811
 H331 H 0.26727 0.16511 0.00466
 H332 H 0.29956 0.16517 -0.02779
 H333 H 0.27732 0.08948 -0.04970
 H334 H 0.24496 0.08991 -0.01735
 H335 H 0.19970 0.16819 0.05473
 H336 H 0.16751 0.16805 0.08751
 H337 H 0.16330 0.08632 0.08237
 H338 H 0.19583 0.08668 0.04995
 C339 C 0.74812 0.62533 0.50351
 C340 C 0.73228 0.64632 0.50648
 C341 C 0.71367 0.64621 0.52488
 C342 C 0.71062 0.62507 0.54062
 C343 C 0.72670 0.60408 0.53747
 C344 C 0.74529 0.60423 0.51903
 C345 C 0.76720 0.62543 0.48449
 C346 C 0.78317 0.62549 0.46853
 C347 C 0.80220 0.62555 0.44946
 C348 C 0.80981 0.64844 0.43867
 C349 C 0.82824 0.64850 0.42008
 C350 C 0.83929 0.62562 0.41202
 C351 C 0.83152 0.60271 0.42301
 C352 C 0.81310 0.60270 0.44161
 H353 H 0.73434 0.66278 0.49458
 H354 H 0.70186 0.66281 0.52682
 H355 H 0.72487 0.58739 0.54902
 H356 H 0.75743 0.58785 0.51686
 H357 H 0.80144 0.66623 0.44457
 H358 H 0.83362 0.66640 0.41177
 H359 H 0.83991 0.58483 0.41744
 H360 H 0.80739 0.58487 0.44988
 C361 C 0.75422 0.37397 0.00367
 C362 C 0.77255 0.35497 0.00410
 C363 C 0.79017 0.35433 0.02329
 C364 C 0.78969 0.37272 0.04237
 C365 C 0.77121 0.39182 0.04166
 C366 C 0.75361 0.39240 0.02245
 C367 C 0.73586 0.37438 -0.01588
 C368 C 0.72039 0.37464 -0.03217
 C369 C 0.70181 0.37485 -0.05151
 C370 C 0.69421 0.35206 -0.06251
 C371 C 0.67594 0.35219 -0.08109
 C372 C 0.66504 0.37516 -0.08892
 C373 C 0.67287 0.39798 -0.07779
 C374 C 0.69113 0.39781 -0.05920
 H375 H 0.77321 0.34062 -0.01037
 H376 H 0.80417 0.33947 0.02302
 H377 H 0.77006 0.40619 0.05603
 H378 H 0.73945 0.40717 0.02233
 H379 H 0.70239 0.33419 -0.05673
 H380 H 0.67053 0.33435 -0.08952
 H381 H 0.66459 0.41592 -0.08319
 H382 H 0.69682 0.41555 -0.05074
 C383 C 0.24614 0.87596 0.49617
 C384 C 0.23080 0.85476 0.49293
 C385 C 0.21245 0.85474 0.47442
 C386 C 0.20918 0.87597 0.45885
 C387 C 0.22475 0.89720 0.46230
 C388 C 0.24307 0.89717 0.48083
 C389 C 0.26504 0.87594 0.51520
 C390 C 0.28088 0.87589 0.53114
 C391 C 0.29980 0.87581 0.55014
 C392 C 0.30745 0.85289 0.56088
 C393 C 0.32588 0.85277 0.57930
 C394 C 0.33689 0.87561 0.58724
 C395 C 0.32904 0.89855 0.57635
 C396 C 0.31063 0.89863 0.55791
 H397 H 0.23305 0.83820 0.50467
 H398 H 0.20103 0.83797 0.47226
 H399 H 0.22273 0.91397 0.45089
 H400 H 0.25483 0.91371 0.48321
 H401 H 0.29915 0.83513 0.55504
 H402 H 0.33130 0.83485 0.58755
 H403 H 0.33739 0.91640 0.58184
 H404 H 0.30489 0.91647 0.54967
   
