data_POSCAR
  _audit_creation_date              2014-09-24
  _audit_creation_method            'ToBaCCo'
  _symmetry_space_group_name_H-M    'P1'
  _symmetry_Int_Tables_number       1
  _symmetry_cell_setting            triclinic
  loop_
  _symmetry_equiv_pos_as_xyz
 x,y,z
_cell_length_a 52.6319
_cell_length_b 51.3142
_cell_length_c 51.4172
_cell_angle_alpha 90.492200
_cell_angle_beta 91.213000
_cell_angle_gamma 89.614500
loop_
  _atom_site_label
  _atom_site_type_symbol
  _atom_site_fract_x
  _atom_site_fract_y
  _atom_site_fract_z
N1 N 0.59600 0.66172 0.61260
 N2 N 0.58687 0.65028 0.63313
 C3 C 0.56628 0.66363 0.64107
 C4 C 0.56222 0.68454 0.62457
 C5 C 0.58148 0.68262 0.60669
 H6 H 0.55512 0.65857 0.65767
 H7 H 0.58515 0.69585 0.59099
 Cu8 Cu 0.60304 0.61939 0.64792
 Cu9 Cu 0.62680 0.64964 0.59592
 Cu10 Cu 0.65829 0.59717 0.62408
 N11 N 0.62095 0.58972 0.66319
 N12 N 0.64277 0.58156 0.65416
 C13 C 0.65100 0.56100 0.66812
 C14 C 0.63330 0.55572 0.68703
 C15 C 0.61447 0.57453 0.68321
 H16 H 0.66836 0.55046 0.66428
 H17 H 0.59730 0.57710 0.69410
 N18 N 0.67087 0.61537 0.59340
 N19 N 0.65836 0.63470 0.58206
 C20 C 0.67109 0.64211 0.56093
 C21 C 0.69274 0.62686 0.55900
 C22 C 0.69201 0.61016 0.57993
 H23 H 0.66525 0.65768 0.54806
 H24 H 0.70560 0.59494 0.58461
 H25 H 0.62495 0.61113 0.60727
 H26 H 0.64272 0.63397 0.62943
 N27 N 0.90527 0.33776 0.11220
 N28 N 0.91628 0.34998 0.13191
 C29 C 0.93810 0.33755 0.13834
 C30 C 0.94085 0.31606 0.12199
 C31 C 0.91947 0.31691 0.10567
 H32 H 0.95065 0.34341 0.15419
 H33 H 0.91468 0.30369 0.08988
 Cu34 Cu 0.90043 0.38031 0.14789
 Cu35 Cu 0.87367 0.35015 0.09603
 Cu36 Cu 0.84598 0.40526 0.12321
 N37 N 0.88464 0.41110 0.16307
 N38 N 0.86369 0.42114 0.15289
 C39 C 0.85711 0.44247 0.16666
 C40 C 0.87472 0.44583 0.18673
 C41 C 0.89191 0.42554 0.18390
 H42 H 0.84044 0.45435 0.16271
 H43 H 0.90858 0.42180 0.19597
 N44 N 0.83098 0.38640 0.09315
 N45 N 0.84176 0.36573 0.08247
 C46 C 0.82728 0.35774 0.06203
 C47 C 0.80627 0.37397 0.05994
 C48 C 0.80922 0.39187 0.08001
 H49 H 0.83147 0.34110 0.04978
 H50 H 0.79659 0.40793 0.08442
 H51 H 0.87793 0.38876 0.10688
 H52 H 0.85939 0.36775 0.12896
 N53 N 0.39598 0.17044 -0.11256
 N54 N 0.40924 0.15574 -0.12842
 C55 C 0.43022 0.16866 -0.13523
 C56 C 0.43006 0.19285 -0.12307
 C57 C 0.40799 0.19329 -0.10887
 H58 H 0.44439 0.16110 -0.14827
 H59 H 0.40145 0.20883 -0.09630
 Cu60 Cu 0.39793 0.12119 -0.13894
 Cu61 Cu 0.36490 0.15832 -0.09688
 Cu62 Cu 0.34028 0.10053 -0.12103
 N63 N 0.38123 0.09189 -0.15616
 N64 N 0.35871 0.08398 -0.14919
 C65 C 0.35152 0.06385 -0.16450
 C66 C 0.37055 0.05880 -0.18211
 C67 C 0.38916 0.07704 -0.17616
 H68 H 0.33372 0.05367 -0.16286
 H69 H 0.40693 0.07971 -0.18592
 N70 N 0.32457 0.12034 -0.09255
 N71 N 0.33377 0.14257 -0.08352
 C72 C 0.31912 0.15117 -0.06404
 C73 C 0.29977 0.13345 -0.06054
 C74 C 0.30387 0.11416 -0.07902
 H75 H 0.32266 0.16871 -0.05279
 H76 H 0.29264 0.09687 -0.08238
 H77 H 0.37037 0.11861 -0.10155
 H78 H 0.35537 0.13653 -0.12961
 N79 N 0.09583 0.83431 0.38635
 N80 N 0.08376 0.84707 0.36777
 C81 C 0.06213 0.83445 0.36142
 C82 C 0.06060 0.81230 0.37667
 C83 C 0.08253 0.81292 0.39219
 H84 H 0.04872 0.84083 0.34658
 H85 H 0.08812 0.79938 0.40726
 Cu86 Cu 0.09769 0.87878 0.35352
 Cu87 Cu 0.12691 0.84737 0.40290
 Cu88 Cu 0.15021 0.90584 0.38013
 N89 N 0.11152 0.91095 0.34020
 N90 N 0.13158 0.92188 0.35122
 C91 C 0.13709 0.94379 0.33833
 C92 C 0.11971 0.94659 0.31796
 C93 C 0.10376 0.92539 0.31974
 H94 H 0.15308 0.95627 0.34287
 H95 H 0.08774 0.92086 0.30703
 N96 N 0.16644 0.88645 0.40903
 N97 N 0.15793 0.86390 0.41724
 C98 C 0.17330 0.85534 0.43666
 C99 C 0.19244 0.87336 0.44096
 C100 C 0.18743 0.89283 0.42305
 H101 H 0.17055 0.83749 0.44719
 H102 H 0.19846 0.91022 0.42021
 H103 H 0.11966 0.88619 0.39509
 H104 H 0.13970 0.86803 0.37141
 C105 C 0.09563 0.13992 0.11969
 C106 C 0.09534 0.12021 0.13840
 C107 C 0.11389 0.10047 0.13857
 C108 C 0.13265 0.10036 0.11957
 C109 C 0.13332 0.12009 0.10080
 C110 C 0.11482 0.13997 0.10117
 H111 H 0.08059 0.12021 0.15281
 H112 H 0.14715 0.08527 0.11987
 H113 H 0.11478 0.15500 0.08649
 C114 C 0.40442 0.86023 0.61990
 C115 C 0.40503 0.87852 0.64038
 C116 C 0.38651 0.89830 0.64190
 C117 C 0.36722 0.89960 0.62262
 C118 C 0.36626 0.88142 0.60206
 C119 C 0.38496 0.86182 0.60084
 H120 H 0.41995 0.87735 0.65517
 H121 H 0.35287 0.91478 0.62366
 H122 H 0.38436 0.84774 0.58503
 C123 C 0.90393 0.64044 0.38541
 C124 C 0.88533 0.64170 0.40454
 C125 C 0.86574 0.62327 0.40486
 C126 C 0.86482 0.60358 0.38574
 C127 C 0.88325 0.60222 0.36644
 C128 C 0.90279 0.62068 0.36642
 H129 H 0.88616 0.65699 0.41920
 H130 H 0.84976 0.58927 0.38589
 H131 H 0.91713 0.61967 0.35161
 C132 C 0.60526 0.34707 -0.13065
 C133 C 0.62582 0.34630 -0.11281
 C134 C 0.64521 0.36486 -0.11371
 C135 C 0.64404 0.38426 -0.13277
 C136 C 0.62343 0.38557 -0.15053
 C137 C 0.60405 0.36694 -0.14927
 H138 H 0.62674 0.33123 -0.09817
 H139 H 0.65880 0.39886 -0.13321
 H140 H 0.58839 0.36743 -0.16329
 C141 C -0.01707 0.30126 0.13749
 C142 C 0.00251 0.28272 0.13770
 C143 C 0.00012 0.25967 0.12323
 C144 C -0.02189 0.25558 0.10790
 C145 C -0.04125 0.27434 0.10715
 C146 C -0.03932 0.29741 0.12217
 N147 N 0.02023 0.24077 0.12437
 N148 N 0.01676 0.21719 0.11737
 C149 C 0.03686 0.19826 0.11801
 C150 C 0.03068 0.17179 0.11701
 C151 C 0.04982 0.15280 0.11788
 C152 C 0.07548 0.16008 0.11912
 C153 C 0.08172 0.18664 0.11968
 C154 C 0.06253 0.20564 0.11940
 H155 H -0.01437 0.31873 0.14910
 H156 H 0.01947 0.28615 0.14949
 H157 H -0.02405 0.23794 0.09638
 H158 H -0.05791 0.27027 0.09517
 H159 H 0.01097 0.16589 0.11583
 H160 H 0.04463 0.13240 0.11723
 H161 H 0.10142 0.19263 0.12066
 H162 H 0.06773 0.22601 0.11999
 C163 C 0.52869 0.70885 0.64919
 C164 C 0.51025 0.72850 0.65080
 C165 C 0.50491 0.74455 0.62951
 C166 C 0.51826 0.74072 0.60640
 C167 C 0.53680 0.72117 0.60478
 C168 C 0.54227 0.70502 0.62618
 N169 N 0.48604 0.76464 0.63189
 N170 N 0.47957 0.77916 0.61290
 C171 C 0.46085 0.79940 0.61521
 C172 C 0.45357 0.81341 0.59303
 C173 C 0.43526 0.83319 0.59453
 C174 C 0.42402 0.83939 0.61838
 C175 C 0.43151 0.82542 0.64069
 C176 C 0.44972 0.80553 0.63913
 H177 H 0.53252 0.69697 0.66612
 H178 H 0.50012 0.73129 0.66874
 H179 H 0.51446 0.75286 0.58963
 H180 H 0.54667 0.71864 0.58668
 H181 H 0.46208 0.80893 0.57452
 H182 H 0.43007 0.84383 0.57709
 H183 H 0.42298 0.82962 0.65927
 H184 H 0.45506 0.79497 0.65657
 C185 C 1.01804 0.79787 0.36265
 C186 C 0.99850 0.77959 0.36308
 C187 C 1.00159 0.75644 0.37692
 C188 C 1.02441 0.75186 0.39077
 C189 C 1.04380 0.77034 0.39087
 C190 C 1.04101 0.79365 0.37669
 N191 N 0.98123 0.73809 0.37686
 N192 N 0.98461 0.71455 0.38379
 C193 C 0.96412 0.69637 0.38430
 C194 C 0.96969 0.66968 0.38508
 C195 C 0.95010 0.65144 0.38523
 C196 C 0.92462 0.65973 0.38525
 C197 C 0.91903 0.68652 0.38496
 C198 C 0.93863 0.70473 0.38422
 H199 H 1.01471 0.81548 0.35167
 H200 H 0.98092 0.78338 0.35241
 H201 H 1.02716 0.73411 0.40175
 H202 H 1.06106 0.76596 0.40179
 H203 H 0.98926 0.66302 0.38525
 H204 H 0.95479 0.63086 0.38561
 H205 H 0.89949 0.69328 0.38490
 H206 H 0.93390 0.72529 0.38383
 C207 C 0.44325 0.23957 -0.11873
 C208 C 0.46170 0.25899 -0.11972
 C209 C 0.48674 0.25268 -0.12600
 C210 C 0.49311 0.22665 -0.13173
 C211 C 0.47461 0.20725 -0.13107
 C212 C 0.44952 0.21348 -0.12439
 N213 N 0.50530 0.27297 -0.12637
 N214 N 0.52890 0.26806 -0.12847
 C215 C 0.54757 0.28821 -0.12905
 C216 C 0.57331 0.28126 -0.12776
 C217 C 0.59206 0.30039 -0.12810
 C218 C 0.58531 0.32686 -0.13008
 C219 C 0.55945 0.33381 -0.13163
 C220 C 0.54070 0.31466 -0.13097
 H221 H 0.42404 0.24504 -0.11377
 H222 H 0.45653 0.27900 -0.11536
 H223 H 0.51234 0.22129 -0.13673
 H224 H 0.48009 0.18733 -0.13535
 H225 H 0.57883 0.26094 -0.12637
 H226 H 0.61185 0.29450 -0.12718
 H227 H 0.55377 0.35409 -0.13301
 H228 H 0.52091 0.32049 -0.13206
 C229 C 0.12885 -0.00800 0.30353
 C230 C 0.12831 0.01134 0.28453
 C231 C 0.11849 0.00600 0.25956
 C232 C 0.10870 -0.01886 0.25388
 C233 C 0.10880 -0.03807 0.27299
 C234 C 0.11904 -0.03288 0.29795
 N235 N 0.11857 0.02609 0.24041
 N236 N 0.11468 0.02124 0.21634
 C237 C 0.11433 0.04136 0.19722
 C238 C 0.11553 0.03442 0.17088
 C239 C 0.11555 0.05363 0.15176
 C240 C 0.11383 0.08009 0.15874
 C241 C 0.11225 0.08703 0.18515
 C242 C 0.11269 0.06783 0.20428
 H243 H 0.13666 -0.00340 0.32266
 H244 H 0.13581 0.03046 0.28917
 H245 H 0.10088 -0.02340 0.23474
 H246 H 0.10128 -0.05711 0.26808
 H247 H 0.11670 0.01409 0.16521
 H248 H 0.11661 0.04784 0.13150
 H249 H 0.11106 0.10733 0.19097
 H250 H 0.11160 0.07365 0.22451
 C251 C 0.65532 0.51864 -0.29237
 C252 C 0.65600 0.49854 -0.27421
 C253 C 0.63556 0.49460 -0.25785
 C254 C 0.61434 0.51124 -0.25963
 C255 C 0.61364 0.53152 -0.27764
 C256 C 0.63409 0.53552 -0.29446
 N257 N 0.63693 0.47368 -0.23960
 N258 N 0.61830 0.46766 -0.22551
 C259 C 0.61993 0.44685 -0.20713
 C260 C 0.59823 0.44005 -0.19354
 C261 C 0.59925 0.41996 -0.17533
 C262 C 0.62214 0.40648 -0.17027
 C263 C 0.64391 0.41334 -0.18397
 C264 C 0.64282 0.43330 -0.20229
 H265 H 0.67163 0.52081 -0.30456
 H266 H 0.67252 0.48588 -0.27295
 H267 H 0.59830 0.50863 -0.24709
 H268 H 0.59686 0.54377 -0.27834
 H269 H 0.58050 0.45038 -0.19704
 H270 H 0.58226 0.41527 -0.16486
 H271 H 0.66173 0.40310 -0.18066
 H272 H 0.65987 0.43818 -0.21256
 C273 C 0.34814 1.02572 0.78956
 C274 C 0.34818 1.00686 0.76980
 C275 C 0.37065 1.00047 0.75713
 C276 C 0.39327 1.01322 0.76445
 C277 C 0.39326 1.03216 0.78419
 C278 C 0.37068 1.03864 0.79699
 N279 N 0.36985 0.98117 0.73684
 N280 N 0.38957 0.97392 0.72476
 C281 C 0.38843 0.95475 0.70435
 C282 C 0.41086 0.94727 0.69212
 C283 C 0.41033 0.92881 0.67194
 C284 C 0.38722 0.91758 0.66360
 C285 C 0.36473 0.92506 0.67600
 C286 C 0.36531 0.94345 0.69620
 H287 H 0.33034 1.03030 0.79874
 H288 H 0.33062 0.99722 0.76428
 H289 H 0.41090 1.00860 0.75493
 H290 H 0.41100 1.04152 0.78949
 H291 H 0.42879 0.95587 0.69817
 H292 H 0.42791 0.92365 0.66257
 H293 H 0.34671 0.91649 0.67024
 H294 H 0.34770 0.94884 0.70539
 C295 C 0.86414 0.49102 0.20186
 C296 C 0.86454 0.51056 0.22098
 C297 C 0.87518 0.50569 0.24564
 C298 C 0.88586 0.48108 0.25092
 C299 C 0.88593 0.46169 0.23166
 C300 C 0.87495 0.46644 0.20699
 N301 N 0.87521 0.52607 0.26483
 N302 N 0.87959 0.52161 0.28882
 C303 C 0.88027 0.54209 0.30790
 C304 C 0.87933 0.53570 0.33427
 C305 C 0.87997 0.55527 0.35335
 C306 C 0.88212 0.58152 0.34628
 C307 C 0.88335 0.58791 0.31983
 C308 C 0.88222 0.56837 0.30075
 H309 H 0.85575 0.49529 0.18296
 H310 H 0.85636 0.52949 0.21665
 H311 H 0.89434 0.47692 0.26981
 H312 H 0.89424 0.44287 0.23619
 H313 H 0.87793 0.51551 0.34001
 H314 H 0.87918 0.54992 0.37364
 H315 H 0.88491 0.60805 0.31396
 H316 H 0.88314 0.57375 0.28048
 C317 C 0.27415 0.15780 -0.02743
 C318 C 0.25524 0.15863 -0.00874
 C319 C 0.24150 0.13624 -0.00301
 C320 C 0.24677 0.11288 -0.01636
 C321 C 0.26559 0.11204 -0.03512
 C322 C 0.27957 0.13447 -0.04085
 N323 N 0.22242 0.13766 0.01643
 N324 N 0.20997 0.11772 0.02314
 C325 C 0.19087 0.11890 0.04255
 C326 C 0.17870 0.09590 0.04945
 C327 C 0.16004 0.09626 0.06839
 C328 C 0.15317 0.11976 0.08071
 C329 C 0.16536 0.14288 0.07366
 C330 C 0.18409 0.14247 0.05478
 H331 H 0.28433 0.17550 -0.03147
 H332 H 0.25131 0.17676 0.00138
 H333 H 0.23641 0.09528 -0.01228
 H334 H 0.26934 0.09368 -0.04484
 H335 H 0.18370 0.07764 0.04011
 H336 H 0.15076 0.07820 0.07315
 H337 H 0.16064 0.16122 0.08302
 H338 H 0.19326 0.16052 0.04978
 C339 C 0.70609 0.63716 0.51377
 C340 C 0.72444 0.63756 0.49451
 C341 C 0.74930 0.62917 0.50000
 C342 C 0.75565 0.62010 0.52504
 C343 C 0.73722 0.61928 0.54419
 C344 C 0.71227 0.62786 0.53876
 N345 N 0.76760 0.62959 0.47979
 N346 N 0.79125 0.62642 0.48446
 C347 C 0.80950 0.62609 0.46419
 C348 C 0.83537 0.62743 0.47089
 C349 C 0.85368 0.62687 0.45158
 C350 C 0.84634 0.62447 0.42525
 C351 C 0.82037 0.62295 0.41855
 C352 C 0.80206 0.62394 0.43784
 H353 H 0.68697 0.64367 0.50895
 H354 H 0.71930 0.64449 0.47526
 H355 H 0.77473 0.61338 0.52971
 H356 H 0.74258 0.61219 0.56331
 H357 H 0.84134 0.62897 0.49113
 H358 H 0.87360 0.62785 0.45722
 H359 H 0.81427 0.62123 0.39836
 H360 H 0.78217 0.62273 0.43221
 C361 C 0.76098 0.38224 0.04651
 C362 C 0.74108 0.38099 0.02813
 C363 C 0.74514 0.37060 0.00332
 C364 C 0.76935 0.36094 -0.00284
 C365 C 0.78918 0.36175 0.01569
 C366 C 0.78522 0.37259 0.04048
 N367 N 0.72442 0.37005 -0.01517
 N368 N 0.72768 0.36557 -0.03926
 C369 C 0.70682 0.36482 -0.05758
 C370 C 0.71175 0.36573 -0.08419
 C371 C 0.69173 0.36578 -0.10251
 C372 C 0.66646 0.36436 -0.09442
 C373 C 0.66154 0.36291 -0.06773
 C374 C 0.68155 0.36335 -0.04942
 H375 H 0.75731 0.39046 0.06553
 H376 H 0.72247 0.38840 0.03312
 H377 H 0.77290 0.35269 -0.02188
 H378 H 0.80769 0.35430 0.01046
 H379 H 0.73114 0.36680 -0.09072
 H380 H 0.69596 0.36674 -0.12301
 H381 H 0.64219 0.36196 -0.06105
 H382 H 0.67727 0.36248 -0.02894
 C383 C 0.21992 0.84842 0.47270
 C384 C 0.23973 0.84725 0.49118
 C385 C 0.25346 0.86962 0.49794
 C386 C 0.24724 0.89334 0.48585
 C387 C 0.22748 0.89454 0.46727
 C388 C 0.21354 0.87209 0.46051
 N389 N 0.27353 0.86771 0.51711
 N390 N 0.28616 0.88746 0.52489
 C391 C 0.30622 0.88545 0.54407
 C392 C 0.31858 0.90812 0.55255
 C393 C 0.33809 0.90687 0.57139
 C394 C 0.34564 0.88279 0.58197
 C395 C 0.33327 0.86001 0.57331
 C396 C 0.31370 0.86131 0.55456
 H397 H 0.20981 0.83069 0.46783
 H398 H 0.24440 0.82884 0.50032
 H399 H 0.25758 0.91093 0.49076
 H400 H 0.22300 0.91313 0.45848
 H401 H 0.31303 0.92682 0.54456
 H402 H 0.34747 0.92469 0.57746
 H403 H 0.33849 0.84123 0.58134
 H404 H 0.30441 0.84349 0.54834
   
