data_POSCAR
  _audit_creation_date              2014-09-24
  _audit_creation_method            'ToBaCCo'
  _symmetry_space_group_name_H-M    'P1'
  _symmetry_Int_Tables_number       1
  _symmetry_cell_setting            triclinic
  loop_
  _symmetry_equiv_pos_as_xyz
 x,y,z
_cell_length_a 20.8458
_cell_length_b 19.9035
_cell_length_c 19.9041
_cell_angle_alpha 89.829500
_cell_angle_beta 90.044900
_cell_angle_gamma 89.954700
loop_
  _atom_site_label
  _atom_site_type_symbol
  _atom_site_fract_x
  _atom_site_fract_y
  _atom_site_fract_z
C1 C 0.34726 0.34203 0.22455
 H2 H 0.35002 0.34286 0.27882
 C3 C 0.38865 0.38198 0.18644
 H4 H 0.42329 0.41396 0.21131
 C5 C 0.29912 0.29901 0.12559
 H6 H 0.26485 0.26597 0.10200
 C7 C 0.33963 0.33813 0.08561
 H8 H 0.33595 0.33563 0.03138
 N9 N 0.30302 0.30234 0.19378
 C10 C 0.15126 0.27486 0.34213
 H11 H 0.14823 0.22061 0.34325
 C12 C 0.11047 0.31324 0.38233
 H13 H 0.07597 0.28860 0.41475
 C14 C 0.19958 0.37352 0.29822
 H15 H 0.23370 0.39690 0.26477
 C16 C 0.15967 0.41375 0.33757
 H17 H 0.16366 0.46796 0.33481
 Zn18 Zn 0.24899 0.24965 0.24926
 N19 N 0.19534 0.30535 0.30191
 C20 C 0.29906 0.20088 0.37321
 N21 N 0.30276 0.19680 0.30505
 C22 C 0.34679 0.15654 0.27467
 C23 C 0.38817 0.11682 0.31317
 C24 C 0.33956 0.16202 0.41357
 C25 C 0.15103 0.22508 0.15627
 C26 C 0.10975 0.18697 0.11634
 C27 C 0.15839 0.08613 0.16127
 C28 C 0.19879 0.12610 0.20035
 N29 N 0.19504 0.19430 0.19650
 H30 H 0.26501 0.23440 0.39649
 H31 H 0.34945 0.15516 0.22041
 H32 H 0.42267 0.08442 0.28862
 H33 H 0.33603 0.16515 0.46777
 H34 H 0.14836 0.27936 0.15503
 H35 H 0.07529 0.21185 0.08395
 H36 H 0.16197 0.03189 0.16421
 H37 H 0.23287 0.10249 0.23380
 C38 C 0.11500 0.38329 0.38023
 C39 C 0.38455 0.38019 0.11636
 C40 C 0.11371 0.11687 0.11869
 C41 C 0.38429 0.11945 0.38324
 C42 C 0.84827 0.84480 0.22303
 H43 H 0.85126 0.84599 0.27728
 C44 C 0.88905 0.88504 0.18447
 H45 H 0.92342 0.91753 0.20914
 C46 C 0.80016 0.80060 0.12460
 H47 H 0.76615 0.76701 0.10139
 C48 C 0.84003 0.83996 0.08414
 H49 H 0.83598 0.83695 0.02993
 N50 N 0.80431 0.80440 0.19275
 C51 C 0.65272 0.77606 0.34134
 H52 H 0.64995 0.72178 0.34230
 C53 C 0.61171 0.81409 0.38163
 H54 H 0.57730 0.78916 0.41393
 C55 C 0.70066 0.87509 0.29783
 H56 H 0.73474 0.89874 0.26453
 C57 C 0.66052 0.91499 0.33728
 H58 H 0.66428 0.96923 0.33472
 Zn59 Zn 0.75075 0.75149 0.24868
 N60 N 0.69674 0.80688 0.30129
 C61 C 0.80046 0.70260 0.37275
 N62 N 0.80471 0.69894 0.30460
 C63 C 0.84884 0.65867 0.27437
 C64 C 0.88956 0.61833 0.31300
 C65 C 0.84030 0.66311 0.41322
 C66 C 0.65281 0.72573 0.15592
 C67 C 0.61178 0.68706 0.11624
 C68 C 0.66113 0.58686 0.16176
 C69 C 0.70126 0.62737 0.20057
 N70 N 0.69706 0.69552 0.19628
 H71 H 0.76634 0.73609 0.39594
 H72 H 0.85188 0.65755 0.22012
 H73 H 0.92405 0.58583 0.28855
 H74 H 0.83625 0.66584 0.46741
 H75 H 0.64976 0.77998 0.15435
 H76 H 0.57714 0.71148 0.08373
 H77 H 0.66508 0.53267 0.16503
 H78 H 0.73547 0.60419 0.23416
 C79 C 0.61594 0.88417 0.37979
 C80 C 0.88464 0.88282 0.11436
 C81 C 0.61624 0.61701 0.11901
 C82 C 0.88493 0.62034 0.38304
 C83 C 0.84924 0.34105 0.72607
 H84 H 0.85235 0.34214 0.78032
 C85 C 0.88991 0.38138 0.68749
 H86 H 0.92439 0.41384 0.71197
 C87 C 0.80082 0.29721 0.62764
 H88 H 0.76670 0.26376 0.60441
 C89 C 0.84059 0.33668 0.58721
 H90 H 0.83650 0.33399 0.53301
 N91 N 0.80513 0.30083 0.69580
 C92 C 0.65344 0.27385 0.84443
 H93 H 0.65052 0.21959 0.84596
 C94 C 0.61232 0.31245 0.88406
 H95 H 0.57773 0.28798 0.91650
 C96 C 0.70165 0.37227 0.79989
 H97 H 0.73578 0.39549 0.76636
 C98 C 0.66141 0.41273 0.83866
 H99 H 0.66522 0.46692 0.83540
 Zn100 Zn 0.75131 0.24821 0.75166
 N101 N 0.69760 0.30411 0.80413
 C102 C 0.80104 0.19897 0.87566
 N103 N 0.80504 0.19520 0.80751
 C104 C 0.84900 0.15483 0.77717
 C105 C 0.88996 0.11458 0.81566
 C106 C 0.84108 0.15962 0.91609
 C107 C 0.65314 0.22383 0.65899
 C108 C 0.61202 0.18589 0.61873
 C109 C 0.66097 0.08488 0.66291
 C110 C 0.70122 0.12469 0.70234
 N111 N 0.69726 0.19291 0.69896
 H112 H 0.76703 0.23254 0.89891
 H113 H 0.85186 0.15367 0.72291
 H114 H 0.92431 0.08215 0.79080
 H115 H 0.83706 0.16272 0.97031
 H116 H 0.65033 0.27811 0.65810
 H117 H 0.57751 0.21090 0.58650
 H118 H 0.66475 0.03064 0.66542
 H119 H 0.73539 0.10096 0.73558
 C120 C 0.61659 0.38251 0.88131
 C121 C 0.88523 0.37941 0.61744
 C122 C 0.61625 0.11580 0.62050
 C123 C 0.88575 0.11676 0.88583
 C124 C 0.34699 0.84350 0.72526
 H125 H 0.34965 0.84480 0.77953
 C126 C 0.38833 0.88324 0.68688
 H127 H 0.42281 0.91557 0.71153
 C128 C 0.29925 0.79937 0.62659
 H129 H 0.26520 0.76593 0.60321
 C130 C 0.33971 0.83826 0.58635
 H131 H 0.33616 0.83523 0.53213
 N132 N 0.30298 0.80334 0.69476
 C133 C 0.15124 0.77554 0.84329
 H134 H 0.14860 0.72127 0.84473
 C135 C 0.10990 0.81384 0.88298
 H136 H 0.07545 0.78911 0.91539
 C137 C 0.19893 0.87431 0.79891
 H138 H 0.23298 0.89777 0.76543
 C139 C 0.15847 0.91447 0.83775
 H140 H 0.16201 0.96869 0.83460
 Zn141 Zn 0.24921 0.75059 0.75047
 N142 N 0.19523 0.80612 0.80303
 C143 C 0.29930 0.70109 0.87426
 N144 N 0.30325 0.69786 0.80607
 C145 C 0.34751 0.65815 0.77534
 C146 C 0.38885 0.61804 0.81347
 C147 C 0.33976 0.66180 0.91426
 C148 C 0.15151 0.72523 0.65742
 C149 C 0.11067 0.68674 0.61736
 C150 C 0.15984 0.58634 0.66267
 C151 C 0.19979 0.62668 0.70186
 N152 N 0.19559 0.69484 0.69785
 H153 H 0.26500 0.73414 0.89782
 H154 H 0.35029 0.65740 0.72107
 H155 H 0.42349 0.58604 0.78863
 H156 H 0.33603 0.66420 0.96849
 H157 H 0.14849 0.77948 0.65604
 H158 H 0.07617 0.71130 0.58478
 H159 H 0.16379 0.53213 0.66572
 H160 H 0.23389 0.60338 0.73549
 C161 C 0.11380 0.88392 0.88035
 C162 C 0.38442 0.88075 0.61681
 C163 C 0.11516 0.61668 0.61983
 C164 C 0.38468 0.61970 0.88354
 C165 C -0.00236 0.00058 -0.00071
 C166 C -0.00011 0.49986 0.50024
 C167 C 0.50055 0.00011 0.50016
 C168 C 0.50077 0.49974 0.00001
 C169 C 0.07248 -0.07556 -0.07841
 C170 C 0.03837 -0.04133 -0.04353
 C171 C 0.07427 0.42385 0.42200
 C172 C 0.04050 0.45806 0.45723
 C173 C 0.57503 -0.07561 0.42172
 C174 C 0.54117 -0.04161 0.45707
 C175 C 0.57548 0.42333 -0.07755
 C176 C 0.54148 0.45775 -0.04274
 C177 C -0.07704 0.07882 -0.07715
 C178 C -0.04308 0.04361 -0.04277
 C179 C -0.07448 0.57836 0.42387
 C180 C -0.04078 0.54298 0.45828
 C181 C 0.42566 0.07820 0.42395
 C182 C 0.45981 0.04322 0.45828
 C183 C 0.42596 0.57798 -0.07614
 C184 C 0.46007 0.54276 -0.04201
 C185 C -0.07677 -0.07765 0.07574
 C186 C -0.04296 -0.04244 0.04133
 C187 C -0.07424 0.42136 0.57664
 C188 C -0.04062 0.45673 0.54223
 C189 C 0.42573 -0.07795 0.57623
 C190 C 0.45985 -0.04295 0.54199
 C191 C 0.42590 0.42172 0.07606
 C192 C 0.46004 0.45681 0.04195
 C193 C 0.07244 0.07655 0.07721
 C194 C 0.03835 0.04244 0.04218
 C195 C 0.07436 0.57599 0.57825
 C196 C 0.04054 0.54169 0.54315
 C197 C 0.57521 0.07568 0.57860
 C198 C 0.54124 0.04176 0.54326
 C199 C 0.57528 0.57614 0.07778
 C200 C 0.54139 0.54170 0.04287
   
