data_POSCAR
  _audit_creation_date              2014-09-24
  _audit_creation_method            'ToBaCCo'
  _symmetry_space_group_name_H-M    'P1'
  _symmetry_Int_Tables_number       1
  _symmetry_cell_setting            triclinic
  loop_
  _symmetry_equiv_pos_as_xyz
 x,y,z
_cell_length_a 29.3949
_cell_length_b 35.6124
_cell_length_c 32.2420
_cell_angle_alpha 89.732800
_cell_angle_beta 89.050300
_cell_angle_gamma 89.704700
loop_
  _atom_site_label
  _atom_site_type_symbol
  _atom_site_fract_x
  _atom_site_fract_y
  _atom_site_fract_z
C1 C 1.25635 0.28539 0.32042
 H2 H 1.28527 0.26762 0.32689
 C3 C 1.24354 0.31326 0.34860
 H4 H 1.26277 0.31651 0.37670
 C5 C 1.19673 0.30314 0.27573
 H6 H 1.17927 0.29970 0.24677
 C7 C 1.18242 0.33116 0.30332
 H8 H 1.15377 0.34881 0.29536
 N9 N 1.23266 0.28050 0.28502
 C10 C 1.21316 0.21648 0.17442
 H11 H 1.24772 0.21774 0.16249
 C12 C 1.17865 0.20283 0.14936
 H13 H 1.18692 0.19386 0.11810
 C14 C 1.16072 0.22534 0.23019
 H15 H 1.15418 0.23314 0.26212
 C16 C 1.12517 0.21245 0.20608
 H17 H 1.09135 0.21063 0.21975
 Zn18 Zn 1.25218 0.24182 0.24840
 N19 N 1.20373 0.22708 0.21415
 C20 C 1.23962 0.17291 0.28994
 N21 N 1.27113 0.19966 0.28082
 C22 C 1.31356 0.19764 0.29698
 C23 C 1.32631 0.16705 0.32161
 C24 C 1.25019 0.14271 0.31584
 C25 C 1.28941 0.29498 0.19553
 C26 C 1.32226 0.31382 0.17183
 C27 C 1.37503 0.26323 0.18548
 C28 C 1.34072 0.24485 0.20811
 N29 N 1.29937 0.26160 0.21398
 H30 H 1.20575 0.17523 0.27779
 H31 H 1.33749 0.22011 0.29145
 H32 H 1.36043 0.16651 0.33366
 H33 H 1.22398 0.12220 0.32268
 H34 H 1.25606 0.30740 0.20004
 H35 H 1.31396 0.34094 0.15858
 H36 H 1.40828 0.25023 0.18217
 H37 H 1.34741 0.21742 0.22105
 C38 C 1.13408 0.20035 0.16538
 C39 C 1.20591 0.33636 0.34038
 C40 C 1.36603 0.29835 0.16747
 C41 C 1.29426 0.13902 0.33187
 C42 C 0.74035 -0.22086 0.33376
 H43 H 0.76171 -0.24348 0.34445
 C44 C 0.72692 -0.19289 0.36159
 H45 H 0.73820 -0.19440 0.39337
 C46 C 0.70005 -0.19098 0.27973
 H47 H 0.68969 -0.19032 0.24774
 C48 C 0.68501 -0.16279 0.30682
 H49 H 0.66363 -0.14037 0.29523
 N50 N 0.72734 -0.21929 0.29348
 C51 C 0.71275 -0.28813 0.18391
 H52 H 0.74814 -0.29041 0.17447
 C53 C 0.67903 -0.30326 0.15905
 H54 H 0.68891 -0.31691 0.13037
 C55 C 0.65743 -0.26879 0.23379
 H56 H 0.64937 -0.25639 0.26357
 C57 C 0.62265 -0.28343 0.20987
 H58 H 0.58791 -0.28172 0.22143
 Zn59 Zn 0.74900 -0.25649 0.25553
 N60 N 0.70148 -0.27163 0.22064
 C61 C 0.74312 -0.33055 0.28570
 N62 N 0.76972 -0.29937 0.28551
 C63 C 0.80863 -0.29827 0.30783
 C64 C 0.82244 -0.32950 0.33088
 C65 C 0.75494 -0.36194 0.30931
 C66 C 0.78526 -0.20411 0.19976
 C67 C 0.81876 -0.18464 0.17750
 C68 C 0.87413 -0.23026 0.20030
 C69 C 0.83932 -0.24937 0.22137
 N70 N 0.79616 -0.23526 0.22210
 H71 H 0.71200 -0.33085 0.26836
 H72 H 0.82863 -0.27287 0.30835
 H73 H 0.85323 -0.32805 0.34876
 H74 H 0.73294 -0.38625 0.30977
 H75 H 0.75062 -0.19389 0.19989
 H76 H 0.80953 -0.15920 0.16112
 H77 H 0.90861 -0.24106 0.20121
 H78 H 0.84720 -0.27509 0.23753
 C79 C 0.63332 -0.30160 0.17235
 C80 C 0.69898 -0.16338 0.34821
 C81 C 0.86405 -0.19717 0.17858
 C82 C 0.79506 -0.36161 0.33211
 C83 C 0.73237 0.27853 -0.16741
 H84 H 0.74673 0.25285 -0.15549
 C85 C 0.71905 0.30652 -0.13958
 H86 H 0.72368 0.30207 -0.10665
 C87 C 0.70887 0.31585 -0.22421
 H88 H 0.70525 0.31948 -0.25727
 C89 C 0.69385 0.34421 -0.19728
 H90 H 0.67914 0.36967 -0.20987
 N91 N 0.72812 0.28385 -0.20901
 C92 C 0.71866 0.20965 -0.31630
 H93 H 0.75429 0.20338 -0.32184
 C94 C 0.68576 0.19437 -0.34205
 H95 H 0.69657 0.17649 -0.36742
 C96 C 0.66159 0.23947 -0.27528
 H97 H 0.65222 0.25622 -0.24859
 C98 C 0.62763 0.22483 -0.30021
 H99 H 0.59236 0.23087 -0.29252
 Zn100 Zn 0.75175 0.24674 -0.24629
 N101 N 0.70606 0.23127 -0.28334
 C102 C 0.74561 0.17207 -0.21732
 N103 N 0.77093 0.20391 -0.21501
 C104 C 0.80653 0.20602 -0.18860
 C105 C 0.81859 0.17511 -0.16424
 C106 C 0.75555 0.14098 -0.19246
 C107 C 0.78899 0.29494 -0.30635
 C108 C 0.82251 0.31561 -0.32733
 C109 C 0.87962 0.28108 -0.28982
 C110 C 0.84497 0.26025 -0.27066
 N111 N 0.80052 0.26856 -0.27774
 H112 H 0.71671 0.17104 -0.23752
 H113 H 0.82467 0.23212 -0.18527
 H114 H 0.84677 0.17735 -0.14319
 H115 H 0.73460 0.11612 -0.19412
 H116 H 0.75353 0.30042 -0.31246
 H117 H 0.81158 0.33686 -0.34910
 H118 H 0.91459 0.27463 -0.28226
 H119 H 0.85403 0.23809 -0.24952
 C120 C 0.63943 0.20131 -0.33362
 C121 C 0.69977 0.33989 -0.15445
 C122 C 0.86878 0.30992 -0.31806
 C123 C 0.79256 0.14231 -0.16575
 C124 C 1.25415 -0.20312 -0.18559
 H125 H 1.28909 -0.21240 -0.18758
 C126 C 1.24218 -0.17470 -0.15792
 H127 H 1.26807 -0.16309 -0.13830
 C128 C 1.17888 -0.20546 -0.21045
 H129 H 1.15452 -0.21702 -0.23152
 C130 C 1.16540 -0.17679 -0.18323
 H131 H 1.13050 -0.16703 -0.18337
 N132 N 1.22266 -0.21815 -0.21097
 C133 C 1.20876 -0.26306 -0.32881
 H134 H 1.24083 -0.25108 -0.33855
 C135 C 1.17856 -0.27467 -0.35892
 H136 H 1.18786 -0.27115 -0.39134
 C137 C 1.15864 -0.28383 -0.27529
 H138 H 1.15117 -0.28740 -0.24255
 C139 C 1.12797 -0.29704 -0.30460
 H140 H 1.09698 -0.31078 -0.29430
 Zn141 Zn 1.24450 -0.25479 -0.24908
 N142 N 1.19880 -0.26810 -0.28780
 C143 C 1.24130 -0.33098 -0.22148
 N144 N 1.26473 -0.29817 -0.21920
 C145 C 1.30185 -0.29542 -0.19466
 C146 C 1.31624 -0.32603 -0.17095
 C147 C 1.25364 -0.36187 -0.19725
 C148 C 1.28479 -0.19796 -0.29538
 C149 C 1.31876 -0.17838 -0.31681
 C150 C 1.37120 -0.22898 -0.30199
 C151 C 1.33578 -0.24815 -0.28175
 N152 N 1.29370 -0.23219 -0.27842
 H153 H 1.21259 -0.33336 -0.24158
 H154 H 1.32071 -0.26955 -0.19358
 H155 H 1.34560 -0.32319 -0.15138
 H156 H 1.23400 -0.38747 -0.19874
 H157 H 1.25108 -0.18589 -0.29214
 H158 H 1.31103 -0.15101 -0.32973
 H159 H 1.40475 -0.24164 -0.30394
 H160 H 1.34207 -0.27563 -0.26867
 C161 C 1.13819 -0.29276 -0.34700
 C162 C 1.19739 -0.16101 -0.15657
 C163 C 1.36269 -0.19373 -0.31990
 C164 C 1.29144 -0.35949 -0.17160
 C165 C 0.29437 0.18754 0.72578
 H166 H 0.30172 0.18491 0.75843
 C167 C 0.30917 0.15979 0.69809
 H168 H 0.32800 0.13582 0.70961
 C169 C 0.25953 0.22139 0.67127
 H170 H 0.23942 0.24506 0.66104
 C171 C 0.27266 0.19390 0.64277
 H172 H 0.26313 0.19696 0.61062
 N173 N 0.27088 0.21798 0.71184
 C174 C 0.20528 0.22202 0.82057
 H175 H 0.23621 0.22791 0.83693
 C176 C 0.17053 0.20171 0.84043
 H177 H 0.17512 0.19292 0.87225
 C178 C 0.16336 0.22447 0.75851
 H179 H 0.16153 0.23231 0.72613
 C180 C 0.12746 0.20506 0.77731
 H181 H 0.09800 0.19861 0.75895
 Zn182 Zn 0.24995 0.25465 0.75009
 N183 N 0.20116 0.23274 0.78025
 C184 C 0.18862 0.31269 0.72233
 N185 N 0.23143 0.29798 0.72039
 C186 C 0.26423 0.31359 0.69574
 C187 C 0.25408 0.34396 0.67007
 C188 C 0.17694 0.34323 0.69709
 C189 C 0.34129 0.26145 0.77591
 C190 C 0.37635 0.27703 0.79875
 C191 C 0.32004 0.30927 0.84102
 C192 C 0.28605 0.29324 0.81720
 N193 N 0.29715 0.26992 0.78530
 H194 H 0.16334 0.30059 0.74301
 H195 H 0.29814 0.30162 0.69522
 H196 H 0.28054 0.35526 0.64994
 H197 H 0.14247 0.35397 0.69838
 H198 H 0.34960 0.24409 0.74945
 H199 H 0.41129 0.27082 0.78999
 H200 H 0.31031 0.32847 0.86553
 H201 H 0.25074 0.30027 0.82332
 C202 C 0.13106 0.19251 0.81856
 C203 C 0.29810 0.16283 0.65604
 C204 C 0.36597 0.30181 0.83131
 C205 C 0.20977 0.35879 0.66996
 C206 C 0.74251 0.70352 0.68797
 H207 H 0.70803 0.71402 0.68781
 C208 C 0.75548 0.67524 0.66043
 H209 H 0.73043 0.66398 0.63967
 C210 C 0.81717 0.70623 0.71427
 H211 H 0.84142 0.71891 0.73461
 C212 C 0.83161 0.67783 0.68723
 H213 H 0.86678 0.66877 0.68758
 N214 N 0.77308 0.71817 0.71452
 C215 C 0.70842 0.72682 0.82326
 H216 H 0.74044 0.73115 0.83824
 C217 C 0.67360 0.70823 0.84498
 H218 H 0.67983 0.69865 0.87628
 C219 C 0.66186 0.73355 0.76453
 H220 H 0.65745 0.74305 0.73298
 C221 C 0.62579 0.71606 0.78539
 H222 H 0.59417 0.71227 0.76919
 Zn223 Zn 0.75205 0.75686 0.75033
 N224 N 0.70257 0.73803 0.78326
 C225 C 0.69410 0.81748 0.72513
 N226 N 0.73245 0.79721 0.71650
 C227 C 0.75914 0.80518 0.68283
 C228 C 0.74726 0.83409 0.65577
 C229 C 0.68070 0.84656 0.69860
 C230 C 0.82225 0.74933 0.80949
 C231 C 0.85547 0.76233 0.83626
 C232 C 0.84436 0.82481 0.80866
 C233 C 0.81095 0.81073 0.78288
 N234 N 0.80000 0.77368 0.78415
 H235 H 0.67397 0.81124 0.75263
 H236 H 0.78973 0.78891 0.67697
 H237 H 0.76892 0.83976 0.62900
 H238 H 0.65004 0.86229 0.70587
 H239 H 0.81360 0.71984 0.80944
 H240 H 0.87185 0.74278 0.85714
 H241 H 0.85130 0.85460 0.80792
 H242 H 0.79303 0.82971 0.76257
 C243 C 0.63183 0.70180 0.82569
 C244 C 0.80046 0.66190 0.65994
 C245 C 0.86641 0.80061 0.83640
 C246 C 0.70740 0.85501 0.66327
 C247 C 0.74337 0.20783 0.18361
 H248 H 0.71168 0.22266 0.17947
 C249 C 0.75548 0.17921 0.15625
 H250 H 0.73234 0.17191 0.13180
 C251 C 0.81265 0.20050 0.21926
 H252 H 0.83512 0.20912 0.24352
 C253 C 0.82622 0.17162 0.19241
 H254 H 0.85889 0.15819 0.19675
 N255 N 0.77141 0.21751 0.21488
 C256 C 0.70178 0.23030 0.32352
 H257 H 0.73156 0.23818 0.34040
 C258 C 0.66654 0.21143 0.34441
 H259 H 0.66990 0.20490 0.37703
 C260 C 0.66105 0.22875 0.26085
 H261 H 0.65882 0.23551 0.22831
 C262 C 0.62482 0.21051 0.28061
 H263 H 0.59541 0.20297 0.26271
 Zn264 Zn 0.75015 0.25613 0.25083
 N265 N 0.69921 0.23740 0.28205
 C266 C 0.69178 0.31508 0.22272
 N267 N 0.73211 0.29680 0.21682
 C268 C 0.76120 0.30653 0.18543
 C269 C 0.75000 0.33541 0.15806
 C270 C 0.67908 0.34411 0.19587
 C271 C 0.81645 0.24815 0.31394
 C272 C 0.84837 0.26099 0.34216
 C273 C 0.84214 0.32285 0.31176
 C274 C 0.80984 0.30901 0.28465
 N275 N 0.79715 0.27233 0.28646
 H276 H 0.66944 0.30720 0.24822
 H277 H 0.79310 0.29157 0.18155
 H278 H 0.77358 0.34250 0.13311
 H279 H 0.64681 0.35820 0.20101
 H280 H 0.80610 0.21905 0.31476
 H281 H 0.86230 0.24165 0.36471
 H282 H 0.85050 0.35238 0.31044
 H283 H 0.79412 0.32796 0.26288
 C284 C 0.62792 0.20052 0.32258
 C285 C 0.79718 0.16046 0.16062
 C286 C 0.86116 0.29890 0.34155
 C287 C 0.70833 0.35443 0.16288
 C288 C 0.24843 0.70832 0.17810
 H289 H 0.21730 0.72384 0.17337
 C290 C 0.26041 0.67967 0.15074
 H291 H 0.23782 0.67317 0.12560
 C292 C 0.31605 0.69890 0.21573
 H293 H 0.33770 0.70653 0.24102
 C294 C 0.32947 0.66989 0.18889
 H295 H 0.36136 0.65546 0.19407
 N296 N 0.27567 0.71704 0.21029
 C297 C 0.20548 0.72573 0.31826
 H298 H 0.23490 0.73366 0.33567
 C299 C 0.17087 0.70502 0.33791
 H300 H 0.17427 0.69733 0.37022
 C301 C 0.16544 0.72535 0.25519
 H302 H 0.16333 0.73313 0.22290
 C303 C 0.12993 0.70520 0.27367
 H304 H 0.10114 0.69743 0.25508
 Zn305 Zn 0.25315 0.75509 0.24654
 N306 N 0.20292 0.73441 0.27717
 C307 C 0.19272 0.81328 0.21986
 N308 N 0.23302 0.79527 0.21275
 C309 C 0.26103 0.80538 0.18071
 C310 C 0.24883 0.83448 0.15404
 C311 C 0.17904 0.84256 0.19373
 C312 C 0.32015 0.75058 0.31021
 C313 C 0.35193 0.76518 0.33762
 C314 C 0.34281 0.82589 0.30512
 C315 C 0.31066 0.81026 0.27902
 N316 N 0.29950 0.77331 0.28212
 H317 H 0.17128 0.80509 0.24589
 H318 H 0.29299 0.79070 0.17594
 H319 H 0.27167 0.84194 0.12866
 H320 H 0.14688 0.85653 0.19987
 H321 H 0.31129 0.72117 0.31199
 H322 H 0.36689 0.74646 0.36025
 H323 H 0.35003 0.85548 0.30164
 H324 H 0.29414 0.82812 0.25666
 C325 C 0.13301 0.69370 0.31517
 C326 C 0.30113 0.65973 0.15611
 C327 C 0.36338 0.80360 0.33585
 C328 C 0.20729 0.85340 0.16024
 N329 N 1.05541 0.06438 0.04018
 N330 N 1.07268 0.09809 0.04639
 N331 N 1.06344 -0.01734 0.07378
 N332 N 1.08235 -0.04191 0.09920
 N333 N 1.09180 -0.00846 0.04341
 N334 N 1.13077 -0.02651 0.04725
 N335 N 1.02614 0.05576 0.06996
 N336 N 1.02172 0.08354 0.09656
 C337 C 1.05046 0.10974 0.08123
 C338 C 1.12434 -0.04702 0.08217
 N339 N 0.94204 -0.05846 0.05318
 N340 N 0.92458 -0.09106 0.06445
 N341 N 0.93602 0.02558 0.07570
 N342 N 0.91875 0.05269 0.09906
 N343 N 0.90623 0.01446 0.04849
 N344 N 0.86783 0.03349 0.05250
 N345 N 0.97289 -0.04770 0.07954
 N346 N 0.97779 -0.07294 0.10931
 Mn347 Mn 0.99970 0.00405 0.07524
 C348 C 0.94778 -0.09988 0.09903
 C349 C 0.87622 0.05699 0.08421
 N350 N 1.08925 -0.01368 -0.04545
 N351 N 1.12765 -0.03278 -0.04943
 N352 N 1.02281 0.04760 -0.07637
 N353 N 1.01880 0.07153 -0.10742
 N354 N 1.05305 0.05939 -0.04988
 N355 N 1.07102 0.09149 -0.06263
 N356 N 1.05914 -0.02561 -0.07198
 N357 N 1.07617 -0.05317 -0.09482
 Mn358 Mn 1.07281 0.02570 -0.00298
 C359 C 1.11890 -0.05704 -0.08038
 C360 C 1.04854 0.09887 -0.09811
 N361 N 0.90375 0.00908 -0.04059
 N362 N 0.86414 0.02584 -0.04638
 N363 N 0.96812 -0.05567 -0.06662
 N364 N 0.97134 -0.08424 -0.09253
 N365 N 0.94070 -0.06386 -0.03534
 N366 N 0.92533 -0.09842 -0.03840
 N367 N 0.93265 0.01774 -0.07059
 N368 N 0.91396 0.04111 -0.09730
 Mn369 Mn 0.92274 -0.02480 0.00643
 Mn370 Mn 0.99571 -0.00404 -0.07184
 Cl371 Cl 0.99776 0.00028 0.00172
 C372 C 0.87135 0.04573 -0.08172
 C373 C 0.94520 -0.11077 -0.07386
 N374 N 1.06350 0.56389 0.53270
 N375 N 1.08069 0.59796 0.53337
 N376 N 1.06928 0.48426 0.57337
 N377 N 1.08786 0.46167 0.60104
 N378 N 1.09756 0.49040 0.54211
 N379 N 1.13635 0.47244 0.54770
 N380 N 1.03648 0.55820 0.56499
 N381 N 1.03535 0.58815 0.58914
 C382 C 1.06256 0.61274 0.56843
 C383 C 1.12967 0.45478 0.58448
 N384 N 0.94649 0.44532 0.55606
 N385 N 0.92769 0.41387 0.56932
 N386 N 0.94393 0.53086 0.57293
 N387 N 0.92673 0.55843 0.59574
 N388 N 0.91362 0.51865 0.54673
 N389 N 0.87505 0.53736 0.55087
 N390 N 0.97751 0.45682 0.58190
 N391 N 0.98127 0.43300 0.61329
 Mn392 Mn 1.00681 0.50760 0.57386
 C393 C 0.95020 0.40634 0.60458
 C394 C 0.88382 0.56195 0.58140
 N395 N 1.09386 0.48022 0.45372
 N396 N 1.13229 0.46124 0.44969
 N397 N 1.02979 0.54189 0.41873
 N398 N 1.02495 0.56565 0.38755
 N399 N 1.06073 0.55385 0.44437
 N400 N 1.07825 0.58594 0.43115
 N401 N 1.06349 0.46806 0.42757
 N402 N 1.08054 0.44042 0.40476
 Mn403 Mn 1.07931 0.52224 0.49323
 C404 C 1.12342 0.43670 0.41910
 C405 C 1.05510 0.59300 0.39601
 N406 N 0.90978 0.50832 0.45841
 N407 N 0.87041 0.52520 0.45213
 N408 N 0.97097 0.44079 0.43571
 N409 N 0.97082 0.41155 0.41060
 N410 N 0.94390 0.43491 0.46792
 N411 N 0.92543 0.40130 0.46620
 N412 N 0.93827 0.51480 0.42743
 N413 N 0.91944 0.53687 0.39942
 Mn414 Mn 0.92812 0.47668 0.50730
 Mn415 Mn 1.00064 0.49131 0.42687
 Cl416 Cl 1.00375 0.49945 0.50032
 C417 C 0.87721 0.54294 0.41544
 C418 C 0.94308 0.38700 0.43068
 N419 N 0.55724 0.06470 0.54041
 N420 N 0.57633 0.09753 0.54780
 N421 N 0.56389 -0.01705 0.57379
 N422 N 0.58250 -0.04137 0.59969
 N423 N 0.59263 -0.00840 0.54365
 N424 N 0.63157 -0.02635 0.54811
 N425 N 0.52738 0.05637 0.56982
 N426 N 0.52441 0.08359 0.59732
 C427 C 0.55463 0.10911 0.58292
 C428 C 0.62472 -0.04659 0.58315
 N429 N 0.44248 -0.05759 0.55168
 N430 N 0.42460 -0.09006 0.56301
 N431 N 0.43664 0.02646 0.57430
 N432 N 0.41939 0.05402 0.59704
 N433 N 0.40731 0.01565 0.54650
 N434 N 0.36946 0.03557 0.54927
 N435 N 0.47311 -0.04692 0.57832
 N436 N 0.47753 -0.07209 0.60821
 Mn437 Mn 0.50027 0.00470 0.57452
 C438 C 0.44744 -0.09889 0.59782
 C439 C 0.37744 0.05902 0.58111
 N440 N 0.59111 -0.01346 0.45482
 N441 N 0.62894 -0.03344 0.45210
 N442 N 0.52563 0.04851 0.42336
 N443 N 0.52038 0.07363 0.39364
 N444 N 0.55563 0.05995 0.45026
 N445 N 0.57227 0.09300 0.43913
 N446 N 0.56148 -0.02493 0.42757
 N447 N 0.57851 -0.05287 0.40527
 Mn448 Mn 0.57455 0.02596 0.49719
 C449 C 0.62066 -0.05750 0.42087
 C450 C 0.54932 0.10121 0.40411
 N451 N 0.40582 0.01032 0.45744
 N452 N 0.36616 0.02678 0.45096
 N453 N 0.46975 -0.05467 0.43163
 N454 N 0.47107 -0.08240 0.40446
 N455 N 0.44196 -0.06289 0.46269
 N456 N 0.42440 -0.09660 0.45807
 N457 N 0.43519 0.01913 0.42788
 N458 N 0.41680 0.04238 0.40084
 Mn459 Mn 0.42399 -0.02376 0.50461
 Mn460 Mn 0.49809 -0.00305 0.42716
 Cl461 Cl 0.49924 0.00098 0.50088
 C462 C 0.37388 0.04680 0.41579
 C463 C 0.44343 -0.10852 0.42205
 N464 N 0.55730 0.56363 0.04271
 N465 N 0.57451 0.59682 0.05168
 N466 N 0.56498 0.48047 0.07145
 N467 N 0.58353 0.45566 0.09675
 N468 N 0.59434 0.49092 0.04253
 N469 N 0.63371 0.47362 0.04726
 N470 N 0.52725 0.55341 0.07120
 N471 N 0.52232 0.57960 0.09969
 C472 C 0.55153 0.60652 0.08683
 C473 C 0.62634 0.45190 0.08116
 N474 N 0.44481 0.43949 0.04479
 N475 N 0.42739 0.40629 0.05384
 N476 N 0.43737 0.52242 0.07250
 N477 N 0.41992 0.54916 0.09627
 N478 N 0.40834 0.51250 0.04405
 N479 N 0.37028 0.53211 0.04763
 N480 N 0.47477 0.44919 0.07253
 N481 N 0.47923 0.42257 0.10084
 Mn482 Mn 0.50111 0.50131 0.07237
 C483 C 0.44985 0.39597 0.08837
 C484 C 0.37802 0.55452 0.08048
 N485 N 0.59478 0.49024 -0.04654
 N486 N 0.63242 0.46995 -0.04921
 N487 N 0.52805 0.55287 -0.07522
 N488 N 0.52317 0.57878 -0.10410
 N489 N 0.55781 0.56338 -0.04766
 N490 N 0.57475 0.59667 -0.05761
 N491 N 0.56585 0.48004 -0.07495
 N492 N 0.58317 0.45277 -0.09806
 Mn493 Mn 0.57651 0.52733 -0.00228
 C494 C 0.62481 0.44722 -0.08180
 C495 C 0.55201 0.60597 -0.09248
 N496 N 0.40864 0.51163 -0.04530
 N497 N 0.36837 0.52678 -0.05215
 N498 N 0.47574 0.44884 -0.07343
 N499 N 0.48034 0.42240 -0.10173
 N500 N 0.44549 0.43906 -0.04495
 N501 N 0.42798 0.40595 -0.05355
 N502 N 0.43828 0.52201 -0.07399
 N503 N 0.41927 0.54510 -0.10086
 Mn504 Mn 0.42640 0.47551 -0.00029
 Mn505 Mn 0.50202 0.50093 -0.07479
 Cl506 Cl 0.50153 0.50129 -0.00124
 C507 C 0.37584 0.54777 -0.08660
 C508 C 0.45082 0.39579 -0.08856
 N509 N 1.03184 0.15910 0.12989
 N510 N 1.05318 0.18356 0.15332
 C511 C 1.09741 0.18284 0.14148
 C512 C 1.10233 0.15734 0.10943
 N513 N 1.06069 0.14318 0.10333
 H514 H 1.13359 0.14696 0.09533
 N515 N 1.09007 0.67600 0.55903
 N516 N 1.11066 0.70214 0.58076
 C517 C 1.10942 0.69083 0.62075
 C518 C 1.08679 0.65687 0.62285
 N519 N 1.07552 0.64864 0.58365
 H520 H 1.08406 0.63793 0.64914
 N521 N 0.53702 0.15974 0.63053
 N522 N 0.55855 0.18460 0.65334
 C523 C 0.60317 0.18227 0.64301
 C524 C 0.60809 0.15523 0.61240
 N525 N 0.56608 0.14200 0.60566
 H526 H 0.63920 0.14401 0.59888
 N527 N 0.53240 0.65316 0.13880
 N528 N 0.55318 0.67792 0.16231
 C529 C 0.59710 0.67898 0.14947
 C530 C 0.60235 0.65421 0.11672
 N531 N 0.56128 0.63876 0.11124
 H532 H 0.63345 0.64565 0.10094
 N533 N 0.96503 -0.14655 0.15215
 N534 N 0.94377 -0.17325 0.17359
 C535 C 0.90085 -0.17471 0.15936
 C536 C 0.89666 -0.14832 0.12822
 N537 N 0.93725 -0.13144 0.12478
 H538 H 0.86658 -0.14084 0.11102
 N539 N 0.96729 0.35839 0.65650
 N540 N 0.94585 0.33139 0.67734
 C541 C 0.90187 0.33200 0.66549
 C542 C 0.89746 0.36020 0.63605
 N543 N 0.93873 0.37582 0.63159
 H544 H 0.86744 0.36915 0.61966
 N545 N 0.46489 -0.14656 0.64981
 N546 N 0.44337 -0.17260 0.67203
 C547 C 0.39967 -0.17232 0.65977
 C548 C 0.39522 -0.14558 0.62900
 N549 N 0.43652 -0.13026 0.62378
 H550 H 0.36463 -0.13691 0.61326
 N551 N 0.46807 0.34542 0.13660
 N552 N 0.44678 0.31858 0.15779
 C553 C 0.40273 0.31980 0.14662
 C554 C 0.39782 0.34802 0.11751
 N555 N 0.43922 0.36320 0.11221
 H556 H 0.36689 0.35793 0.10324
 N557 N 0.79320 0.06356 -0.09680
 N558 N 0.77099 0.08849 -0.11959
 C559 C 0.80273 0.11020 -0.13845
 C560 C 0.84510 0.09771 -0.12675
 N561 N 0.83761 0.06866 -0.10086
 H562 H 0.87806 0.10854 -0.13614
 N563 N 0.79885 0.56001 0.40128
 N564 N 0.77576 0.58467 0.37894
 C565 C 0.80673 0.60610 0.35867
 C566 C 0.84963 0.59363 0.36902
 N567 N 0.84309 0.56490 0.39557
 H568 H 0.88225 0.60457 0.35879
 N569 N 0.29617 0.06065 0.39570
 N570 N 0.27387 0.08493 0.37220
 C571 C 0.30467 0.10969 0.35687
 C572 C 0.34698 0.09933 0.37172
 N573 N 0.33999 0.06882 0.39562
 H574 H 0.37979 0.11199 0.36549
 N575 N 0.29713 0.56140 -0.10351
 N576 N 0.27351 0.58523 -0.12648
 C577 C 0.30384 0.60864 -0.14471
 C578 C 0.34688 0.59831 -0.13241
 N579 N 0.34111 0.56880 -0.10681
 H580 H 0.37910 0.61097 -0.14103
 N581 N 1.19253 -0.08820 -0.08053
 N582 N 1.21432 -0.11573 -0.10000
 C583 C 1.18537 -0.13005 -0.12785
 C584 C 1.14488 -0.11019 -0.12477
 N585 N 1.15093 -0.08444 -0.09501
 H586 H 1.11424 -0.11373 -0.14245
 N587 N 1.19576 0.40383 0.42178
 N588 N 1.21865 0.37724 0.40175
 C589 C 1.19236 0.36590 0.37030
 C590 C 1.15226 0.38647 0.37185
 N591 N 1.15591 0.40969 0.40437
 H592 H 1.12329 0.38472 0.35168
 N593 N 0.68804 -0.09620 0.42975
 N594 N 0.70949 -0.12463 0.41158
 C595 C 0.68592 -0.13315 0.37734
 C596 C 0.64904 -0.10898 0.37517
 N597 N 0.65173 -0.08649 0.40842
 H598 H 0.62268 -0.10804 0.35214
 N599 N 0.68880 0.40511 -0.07105
 N600 N 0.70913 0.37608 -0.08912
 C601 C 0.68757 0.37014 -0.12512
 C602 C 0.65314 0.39649 -0.12851
 N603 N 0.65513 0.41765 -0.09414
 H604 H 0.62856 0.39951 -0.15296
 N605 N 1.03662 0.13561 -0.16037
 N606 N 1.05829 0.16056 -0.18381
 C607 C 1.09678 0.16972 -0.16398
 C608 C 1.09752 0.14971 -0.12696
 N609 N 1.05960 0.12870 -0.12624
 H610 H 1.12426 0.14823 -0.10434
 N611 N 1.03967 0.63208 0.33588
 N612 N 1.05931 0.65908 0.31373
 C613 C 1.09805 0.66828 0.33311
 C614 C 1.10135 0.64596 0.36820
 N615 N 1.06441 0.62380 0.36860
 H616 H 1.12916 0.64411 0.38971
 N617 N 0.53213 0.14285 0.34674
 N618 N 0.55196 0.16951 0.32427
 C619 C 0.59217 0.17690 0.34206
 C620 C 0.59615 0.15389 0.37655
 N621 N 0.55810 0.13309 0.37815
 H622 H 0.62526 0.15028 0.39633
 N623 N 0.53598 0.64786 -0.14963
 N624 N 0.55684 0.67348 -0.17276
 C625 C 0.59753 0.67996 -0.15543
 C626 C 0.60048 0.65766 -0.12011
 N627 N 0.56157 0.63797 -0.11801
 H628 H 0.62935 0.65343 -0.10020
 N629 N 0.92654 -0.17701 -0.07205
 N630 N 0.90531 -0.20160 -0.09549
 C631 C 0.89739 -0.18447 -0.13212
 C632 C 0.91533 -0.14872 -0.13057
 N633 N 0.93312 -0.14531 -0.09275
 H634 H 0.91214 -0.12620 -0.15300
 N635 N 0.91712 0.32246 0.43512
 N636 N 0.89517 0.29808 0.41196
 C637 C 0.89086 0.31388 0.37407
 C638 C 0.91168 0.34860 0.37465
 N639 N 0.92754 0.35276 0.41315
 H640 H 0.91209 0.37004 0.35074
 N641 N 0.43083 -0.17586 0.41959
 N642 N 0.40861 -0.20036 0.39677
 C643 C 0.39180 -0.18139 0.36391
 C644 C 0.40572 -0.14428 0.36713
 N645 N 0.42988 -0.14225 0.40203
 H646 H 0.39702 -0.12043 0.34787
 N647 N 0.46801 0.34859 -0.14067
 N648 N 0.44637 0.32310 -0.16255
 C649 C 0.40302 0.32217 -0.14805
 C650 C 0.39905 0.34774 -0.11600
 N651 N 0.44019 0.36354 -0.11257
 H652 H 0.36873 0.35617 -0.09890
 N653 N 1.19858 -0.07692 0.08056
 N654 N 1.22161 -0.10323 0.10047
 C655 C 1.19432 -0.11601 0.13147
 C656 C 1.15354 -0.09644 0.12990
 N657 N 1.15777 -0.07246 0.09774
 H658 H 1.12351 -0.09967 0.14944
 N659 N 1.20529 0.42757 0.58892
 N660 N 1.22768 0.40243 0.61115
 C661 C 1.19841 0.38926 0.64041
 C662 C 1.15708 0.40742 0.63539
 N663 N 1.16297 0.43093 0.60300
 H664 H 1.12559 0.40342 0.65266
 N665 N 0.69875 -0.07680 0.58208
 N666 N 0.72172 -0.10280 0.60251
 C667 C 0.69456 -0.11479 0.63398
 C668 C 0.65388 -0.09508 0.63213
 N669 N 0.65806 -0.07180 0.59933
 H670 H 0.62392 -0.09788 0.65183
 N671 N 0.70139 0.42313 0.08189
 N672 N 0.72422 0.39738 0.10290
 C673 C 0.69603 0.38448 0.13317
 C674 C 0.65493 0.40331 0.12996
 N675 N 0.65983 0.42702 0.09766
 H676 H 0.62426 0.39980 0.14857
 N677 N 0.80328 0.08909 0.08307
 N678 N 0.78135 0.11653 0.10256
 C679 C 0.80936 0.12957 0.13192
 C680 C 0.84942 0.10904 0.12976
 N681 N 0.84408 0.08421 0.09897
 H682 H 0.87950 0.11182 0.14838
 N683 N 0.80908 0.59090 0.58223
 N684 N 0.78586 0.61719 0.60240
 C685 C 0.81400 0.63182 0.63070
 C686 C 0.85553 0.61347 0.62716
 N687 N 0.85083 0.58826 0.59665
 H688 H 0.88594 0.61762 0.64500
 N689 N 0.31067 0.09838 0.57213
 N690 N 0.28890 0.12632 0.59092
 C691 C 0.31148 0.13344 0.62609
 C692 C 0.34807 0.10900 0.62820
 N693 N 0.34623 0.08772 0.59396
 H694 H 0.37371 0.10715 0.65185
 N695 N 0.30637 0.58858 0.07813
 N696 N 0.28513 0.61654 0.09735
 C697 C 0.31281 0.62857 0.12750
 C698 C 0.35197 0.60683 0.12611
 N699 N 0.34643 0.58235 0.09495
 H700 H 0.38164 0.60865 0.14541
   
