data_POSCAR
  _audit_creation_date              2014-09-24
  _audit_creation_method            'ToBaCCo'
  _symmetry_space_group_name_H-M    'P1'
  _symmetry_Int_Tables_number       1
  _symmetry_cell_setting            triclinic
  loop_
  _symmetry_equiv_pos_as_xyz
 x,y,z
_cell_length_a 37.0534
_cell_length_b 36.9327
_cell_length_c 37.0123
_cell_angle_alpha 90.041100
_cell_angle_beta 90.263500
_cell_angle_gamma 89.911500
loop_
  _atom_site_label
  _atom_site_type_symbol
  _atom_site_fract_x
  _atom_site_fract_y
  _atom_site_fract_z
C1 C 0.71152 0.66062 0.95345
 H2 H 0.73829 0.65797 0.94221
 C3 C 0.68377 0.67592 0.93261
 H4 H 0.68930 0.68544 0.90553
 C5 C 0.67053 0.64838 1.00086
 H6 H 0.66477 0.63651 1.02674
 C7 C 0.64225 0.66366 0.98116
 H8 H 0.61523 0.66360 0.99225
 N9 N 0.70432 0.64651 0.98665
 C10 C 0.79004 0.63276 1.06432
 H11 H 0.77724 0.61054 1.07818
 C12 C 0.82162 0.64745 1.07867
 H13 H 0.83245 0.63695 1.10383
 C14 C 0.79394 0.67105 1.01308
 H15 H 0.78371 0.67915 0.98691
 C16 C 0.82587 0.68638 1.02645
 H17 H 0.84003 0.70652 1.01070
 Zn18 Zn 0.73960 0.61692 1.00980
 N19 N 0.77701 0.64436 1.03187
 C20 C 0.79748 0.58337 0.97386
 N21 N 0.76092 0.58702 0.97426
 C22 C 0.73978 0.57105 0.94866
 C23 C 0.75550 0.55094 0.92081
 C24 C 0.81422 0.56351 0.94660
 C25 C 0.70417 0.60478 1.07550
 C26 C 0.68538 0.58530 1.10158
 C27 C 0.69312 0.53123 1.06549
 C28 C 0.71183 0.55181 1.04003
 N29 N 0.71658 0.58799 1.04524
 H30 H 0.81379 0.59611 0.99451
 H31 H 0.71080 0.57451 0.94953
 H32 H 0.73861 0.53874 0.90019
 H33 H 0.84336 0.56113 0.94625
 H34 H 0.70847 0.63353 1.07905
 H35 H 0.67535 0.59917 1.12535
 H36 H 0.68916 0.50250 1.06091
 H37 H 0.72209 0.53895 1.01593
 C38 C 0.84011 0.67395 1.05928
 C39 C 0.64867 0.67673 0.94642
 C40 C 0.67952 0.54825 1.09641
 C41 C 0.79309 0.54742 0.91969
 C42 C 0.72159 0.35819 0.55020
 H43 H 0.74312 0.36951 0.56639
 C44 C 0.69222 0.34196 0.56728
 H45 H 0.69120 0.34103 0.59651
 C46 C 0.69531 0.34739 0.49270
 H47 H 0.69597 0.35042 0.46374
 C48 C 0.66545 0.33095 0.50870
 H49 H 0.64338 0.32141 0.49194
 N50 N 0.72189 0.36205 0.51360
 C51 C 0.81213 0.39461 0.44538
 H52 H 0.80557 0.42312 0.44379
 C53 C 0.84171 0.38108 0.42658
 H54 H 0.85795 0.39920 0.41040
 C55 C 0.79948 0.33641 0.46927
 H56 H 0.78306 0.31938 0.48633
 C57 C 0.82910 0.32170 0.45088
 H58 H 0.83553 0.29322 0.45371
 Zn59 Zn 0.75471 0.39553 0.49259
 N60 N 0.79198 0.37241 0.46651
 C61 C 0.81215 0.42378 0.53471
 N62 N 0.77565 0.42393 0.53011
 C63 C 0.75377 0.44220 0.55334
 C64 C 0.76847 0.46124 0.58252
 C65 C 0.82791 0.44248 0.56350
 C66 C 0.72035 0.40973 0.42708
 C67 C 0.69972 0.42857 0.40172
 C68 C 0.69767 0.47949 0.44267
 C69 C 0.71843 0.45964 0.46736
 N70 N 0.72871 0.42509 0.45948
 H71 H 0.82913 0.40855 0.51658
 H72 H 0.72481 0.44118 0.54975
 H73 H 0.75084 0.47530 0.60114
 H74 H 0.85694 0.44187 0.56716
 H75 H 0.72966 0.38265 0.42096
 H76 H 0.69290 0.41589 0.37618
 H77 H 0.68917 0.50677 0.44926
 H78 H 0.72593 0.47183 0.49277
 C79 C 0.85055 0.34442 0.42959
 C80 C 0.66333 0.32938 0.54637
 C81 C 0.68795 0.46359 0.40974
 C82 C 0.80586 0.46120 0.58770
 C83 C 0.21771 -0.13973 0.04973
 H84 H 0.23893 -0.12810 0.06611
 C85 C 0.18806 -0.15569 0.06656
 H86 H 0.18647 -0.15602 0.09578
 C87 C 0.19260 -0.15182 -0.00803
 H88 H 0.19386 -0.14945 -0.03703
 C89 C 0.16246 -0.16800 0.00771
 H90 H 0.14074 -0.17794 -0.00927
 N91 N 0.21870 -0.13663 0.01308
 C92 C 0.30932 -0.10643 -0.05544
 H93 H 0.30328 -0.07783 -0.05739
 C94 C 0.33862 -0.12076 -0.07407
 H95 H 0.35518 -0.10315 -0.09050
 C96 C 0.29565 -0.16406 -0.03075
 H97 H 0.27894 -0.18054 -0.01343
 C98 C 0.32498 -0.17956 -0.04895
 H99 H 0.33092 -0.20810 -0.04571
 Zn100 Zn 0.25206 -0.10386 -0.00811
 N101 N 0.28881 -0.12797 -0.03399
 C102 C 0.31014 -0.07659 0.03371
 N103 N 0.27366 -0.07553 0.02913
 C104 C 0.25229 -0.05646 0.05220
 C105 C 0.26750 -0.03759 0.08123
 C106 C 0.32642 -0.05809 0.06234
 C107 C 0.21810 -0.08978 -0.07380
 C108 C 0.19770 -0.07099 -0.09939
 C109 C 0.19601 -0.01966 -0.05884
 C110 C 0.21654 -0.03952 -0.03395
 N111 N 0.22652 -0.07422 -0.04152
 H112 H 0.32671 -0.09242 0.01571
 H113 H 0.22330 -0.05676 0.04866
 H114 H 0.25026 -0.02293 0.09976
 H115 H 0.35541 -0.05947 0.06601
 H116 H 0.22717 -0.11698 -0.07967
 H117 H 0.19090 -0.08399 -0.12480
 H118 H 0.18780 0.00776 -0.05234
 H119 H 0.22408 -0.02720 -0.00861
 C120 C 0.34680 -0.15753 -0.07055
 C121 C 0.15962 -0.16878 0.04535
 C122 C 0.18619 -0.03575 -0.09171
 C123 C 0.30489 -0.03861 0.08641
 C124 C 0.21517 0.16226 0.45224
 H125 H 0.24185 0.15915 0.44092
 C126 C 0.18760 0.17799 0.43147
 H127 H 0.19319 0.18736 0.40435
 C128 C 0.17412 0.15075 0.49979
 H129 H 0.16825 0.13899 0.52569
 C130 C 0.14603 0.16647 0.48015
 H131 H 0.11905 0.16684 0.49132
 N132 N 0.20783 0.14827 0.48547
 C133 C 0.29339 0.13237 0.56302
 H134 H 0.27996 0.11055 0.57690
 C135 C 0.32539 0.14614 0.57737
 H136 H 0.33590 0.13537 0.60254
 C137 C 0.29841 0.17048 0.51175
 H138 H 0.28842 0.17885 0.48557
 C139 C 0.33078 0.18488 0.52513
 H140 H 0.34550 0.20461 0.50937
 Zn141 Zn 0.24260 0.11785 0.50841
 N142 N 0.28070 0.14432 0.53055
 C143 C 0.29964 0.08295 0.47243
 N144 N 0.26320 0.08766 0.47269
 C145 C 0.24172 0.07236 0.44697
 C146 C 0.25695 0.05185 0.41915
 C147 C 0.31591 0.06265 0.44520
 C148 C 0.20694 0.10585 0.57409
 C149 C 0.18800 0.08639 0.60007
 C150 C 0.19505 0.03252 0.56365
 C151 C 0.21394 0.05303 0.53827
 N152 N 0.21912 0.08912 0.54370
 H153 H 0.31623 0.09513 0.49319
 H154 H 0.21284 0.07663 0.44776
 H155 H 0.23980 0.04017 0.39844
 H156 H 0.34498 0.05940 0.44497
 H157 H 0.21160 0.13452 0.57786
 H158 H 0.17812 0.10004 0.62400
 H159 H 0.19069 0.00388 0.55905
 H160 H 0.22401 0.04019 0.51409
 C161 C 0.34466 0.17206 0.55797
 C162 C 0.15254 0.17937 0.44536
 C163 C 0.18176 0.04949 0.59466
 C164 C 0.29442 0.04721 0.41819
 C165 C 0.16329 0.45196 0.21325
 H166 H 0.16086 0.44091 0.24017
 C167 C 0.17858 0.43093 0.18573
 H168 H 0.18829 0.40388 0.19160
 C169 C 0.15056 0.49906 0.17161
 H170 H 0.13850 0.52487 0.16550
 C171 C 0.16582 0.47917 0.14356
 H172 H 0.16555 0.49006 0.11638
 N173 N 0.14895 0.48510 0.20562
 C174 C 0.13537 0.56389 0.29018
 H175 H 0.11355 0.57788 0.27671
 C176 C 0.14975 0.57857 0.32180
 H177 H 0.13945 0.60409 0.33193
 C178 C 0.17283 0.51206 0.29587
 H179 H 0.18070 0.48556 0.28632
 C180 C 0.18784 0.52577 0.32787
 H181 H 0.20751 0.50992 0.34277
 Zn182 Zn 0.11943 0.50855 0.24060
 N183 N 0.14668 0.53098 0.27803
 C184 C 0.08538 0.47355 0.29868
 N185 N 0.08963 0.47318 0.26217
 C186 C 0.07388 0.44727 0.24125
 C187 C 0.05332 0.41991 0.25715
 C188 C 0.06505 0.44678 0.31561
 C189 C 0.10678 0.57402 0.20406
 C190 C 0.08692 0.60002 0.18524
 C191 C 0.03329 0.56399 0.19418
 C192 C 0.05419 0.53859 0.21290
 N193 N 0.09034 0.54382 0.21711
 H194 H 0.09790 0.49448 0.31480
 H195 H 0.07775 0.44759 0.21230
 H196 H 0.04125 0.39905 0.24045
 H197 H 0.06214 0.44705 0.34472
 H198 H 0.13550 0.57765 0.20798
 H199 H 0.10030 0.62381 0.17471
 H200 H 0.00459 0.55957 0.19064
 H201 H 0.04159 0.51458 0.22367
 C202 C 0.17565 0.55906 0.34123
 C203 C 0.17915 0.44448 0.15042
 C204 C 0.04992 0.59481 0.18004
 C205 C 0.04910 0.41961 0.29471
 C206 C -0.14010 0.05419 0.21762
 H207 H -0.12801 0.07056 0.23860
 C208 C -0.15577 0.07111 0.18764
 H209 H -0.15542 0.10039 0.18570
 C210 C -0.15361 -0.00366 0.19340
 H211 H -0.15192 -0.03275 0.19513
 C212 C -0.16954 0.01215 0.16295
 H213 H -0.17998 -0.00497 0.14153
 N214 N -0.13779 0.01740 0.21918
 C215 C -0.10666 -0.05208 0.30964
 H216 H -0.07821 -0.05380 0.30340
 C217 C -0.12040 -0.07116 0.33893
 H218 H -0.10249 -0.08769 0.35527
 C219 C -0.16447 -0.02756 0.29648
 H220 H -0.18127 -0.01015 0.27997
 C221 C -0.17939 -0.04623 0.32583
 H222 H -0.20779 -0.04326 0.33197
 Zn223 Zn -0.10497 -0.00425 0.25257
 N224 N -0.12857 -0.03051 0.28938
 C225 C -0.07717 0.03700 0.31085
 N226 N -0.07636 0.03269 0.27431
 C227 C -0.05716 0.05570 0.25303
 C228 C -0.03784 0.08433 0.26842
 C229 C -0.05821 0.06522 0.32729
 C230 C -0.09150 -0.06982 0.21818
 C231 C -0.07299 -0.09542 0.19770
 C232 C -0.02160 -0.05528 0.19638
 C233 C -0.04113 -0.03032 0.21699
 N234 N -0.07574 -0.03767 0.22683
 H235 H -0.09311 0.01907 0.32735
 H236 H -0.05766 0.05239 0.22400
 H237 H -0.02305 0.10279 0.25126
 H238 H -0.05937 0.06866 0.35634
 H239 H -0.11860 -0.07558 0.22721
 H240 H -0.08597 -0.12075 0.19066
 H241 H 0.00575 -0.04912 0.18823
 H242 H -0.02861 -0.00514 0.22473
 C243 C -0.15696 -0.06798 0.34739
 C244 C -0.16942 0.04986 0.15943
 C245 C -0.03790 -0.08793 0.18637
 C246 C -0.03854 0.08918 0.30587
 C247 C 0.35853 0.54769 0.71991
 H248 H 0.36913 0.56360 0.74203
 C249 C 0.34296 0.56524 0.69024
 H250 H 0.34178 0.59454 0.68960
 C251 C 0.34895 0.49048 0.69248
 H252 H 0.35221 0.46147 0.69283
 C253 C 0.33318 0.50695 0.66231
 H254 H 0.32438 0.49049 0.63970
 N255 N 0.36265 0.51103 0.71985
 C256 C 0.39282 0.44182 0.81079
 H257 H 0.42131 0.43990 0.80485
 C258 C 0.37867 0.42305 0.84009
 H259 H 0.39631 0.40654 0.85673
 C260 C 0.33528 0.46663 0.79693
 H261 H 0.31876 0.48407 0.78017
 C262 C 0.31997 0.44829 0.82627
 H263 H 0.29154 0.45153 0.83215
 Zn264 Zn 0.39522 0.48961 0.75358
 N265 N 0.37124 0.46340 0.79018
 C266 C 0.42202 0.53139 0.81200
 N267 N 0.42306 0.52700 0.77548
 C268 C 0.44169 0.55045 0.75418
 C269 C 0.46014 0.57967 0.76952
 C270 C 0.44012 0.56020 0.82840
 C271 C 0.41006 0.42406 0.71949
 C272 C 0.42927 0.39869 0.69933
 C273 C 0.48008 0.43959 0.69875
 C274 C 0.45987 0.46428 0.71902
 N275 N 0.42521 0.45644 0.72834
 H276 H 0.40652 0.51308 0.82850
 H277 H 0.44137 0.54703 0.72515
 H278 H 0.47449 0.59847 0.75234
 H279 H 0.43878 0.56369 0.85743
 H280 H 0.38286 0.41799 0.72801
 H281 H 0.41674 0.37319 0.69208
 H282 H 0.50745 0.44616 0.69098
 H283 H 0.47186 0.48969 0.72688
 C284 C 0.34205 0.42656 0.84820
 C285 C 0.33132 0.54472 0.66067
 C286 C 0.46443 0.40668 0.68853
 C287 C 0.45916 0.58465 0.80695
 C288 C 0.65327 0.94193 0.71212
 H289 H 0.64124 0.92750 0.73439
 C290 C 0.66853 0.92240 0.68365
 H291 H 0.66785 0.89308 0.68397
 C292 C 0.66731 0.99740 0.68335
 H293 H 0.66614 1.02653 0.68270
 C294 C 0.68286 0.97892 0.65436
 H295 H 0.69339 0.99400 0.63164
 N296 N 0.65148 0.97876 0.71076
 C297 C 0.63213 1.05908 0.79331
 H298 H 0.60889 1.07120 0.78037
 C299 C 0.64605 1.07469 0.82471
 H300 H 0.63381 1.09915 0.83531
 C301 C 0.67422 1.01075 0.79733
 H302 H 0.68409 0.98515 0.78712
 C303 C 0.68889 1.02542 0.82906
 H304 H 0.71037 1.01122 0.84310
 Zn305 Zn 0.62014 1.00338 0.74338
 N306 N 0.64607 1.02751 0.78045
 C307 C 0.58764 0.96745 0.80222
 N308 N 0.58924 0.96895 0.76550
 C309 C 0.57010 0.94542 0.74454
 C310 C 0.54887 0.91865 0.76048
 C311 C 0.56674 0.94115 0.81921
 C312 C 0.60918 1.06817 0.70504
 C313 C 0.59031 1.09412 0.68512
 C314 C 0.53643 1.05790 0.69091
 C315 C 0.55633 1.03256 0.71078
 N316 N 0.59220 1.03784 0.71709
 H317 H 0.60285 0.98638 0.81848
 H318 H 0.57194 0.94703 0.71542
 H319 H 0.53421 0.89964 0.74364
 H320 H 0.56603 0.93985 0.84844
 H321 H 0.63730 1.07258 0.71149
 H322 H 0.60409 1.11819 0.67577
 H323 H 0.50793 1.05349 0.68596
 H324 H 0.54298 1.00882 0.72111
 C325 C 0.67421 1.05741 0.84317
 C326 C 0.68236 0.94109 0.65396
 C327 C 0.55368 1.08883 0.67783
 C328 C 0.54742 0.91639 0.79815
 C329 C 0.04869 0.21978 -0.14061
 H330 H 0.06477 0.24141 -0.12930
 C331 C 0.06589 0.19011 -0.15648
 H332 H 0.09509 0.18896 -0.15714
 C333 C -0.00864 0.19357 -0.15175
 H334 H -0.03758 0.19438 -0.14900
 C335 C 0.00748 0.16342 -0.16785
 H336 H -0.00917 0.14127 -0.17738
 N337 N 0.01211 0.22026 -0.13709
 C338 C -0.05651 0.31123 -0.10592
 H339 H -0.05825 0.30488 -0.07745
 C340 C -0.07529 0.34084 -0.11979
 H341 H -0.09163 0.35732 -0.10196
 C342 C -0.03222 0.29801 -0.16367
 H343 H -0.01501 0.28136 -0.18039
 C344 C -0.05059 0.32766 -0.17871
 H345 H -0.04760 0.33390 -0.20713
 Zn346 Zn -0.00912 0.25357 -0.10412
 N347 N -0.03519 0.29078 -0.12774
 C348 C 0.03269 0.31145 -0.07634
 N349 N 0.02817 0.27486 -0.07568
 C350 C 0.05142 0.25313 -0.05703
 C351 C 0.08059 0.26807 -0.03820
 C352 C 0.06145 0.32746 -0.05786
 C353 C -0.07457 0.21957 -0.09034
 C354 C -0.10001 0.19913 -0.07171
 C355 C -0.05930 0.19709 -0.02051
 C356 C -0.03457 0.21767 -0.04020
 N357 N -0.04229 0.22786 -0.07475
 H358 H 0.01454 0.32830 -0.09185
 H359 H 0.04791 0.22406 -0.05766
 H360 H 0.09926 0.25055 -0.02390
 H361 H 0.06507 0.35654 -0.05893
 H362 H -0.08054 0.22879 -0.11744
 H363 H -0.12542 0.19245 -0.08474
 H364 H -0.05269 0.18873 0.00681
 H365 H -0.00922 0.22511 -0.02786
 C366 C -0.07208 0.34942 -0.15638
 C367 C 0.04512 0.16112 -0.16906
 C368 C -0.09218 0.18742 -0.03661
 C369 C 0.08572 0.30556 -0.03883
 C370 C 0.45204 0.21341 0.16256
 H371 H 0.44095 0.24039 0.16000
 C372 C 0.43125 0.18589 0.17808
 H373 H 0.40437 0.19183 0.18786
 C374 C 0.49889 0.17160 0.14983
 H375 H 0.52448 0.16543 0.13764
 C376 C 0.47922 0.14354 0.16531
 H377 H 0.49008 0.11627 0.16511
 N378 N 0.48493 0.20570 0.14811
 C379 C 0.56257 0.29094 0.13341
 H380 H 0.57635 0.27748 0.11155
 C381 C 0.57714 0.32271 0.14759
 H382 H 0.60237 0.33299 0.13709
 C383 C 0.51138 0.29631 0.17127
 H384 H 0.48516 0.28657 0.17941
 C385 C 0.52498 0.32845 0.18609
 H386 H 0.50935 0.34325 0.20590
 Zn387 Zn 0.50780 0.24069 0.11818
 N388 N 0.53004 0.27854 0.14504
 C389 C 0.47159 0.29838 0.08393
 N390 N 0.47205 0.26178 0.08822
 C391 C 0.44655 0.24036 0.07251
 C392 C 0.41881 0.25582 0.05193
 C393 C 0.44441 0.31487 0.06358
 C394 C 0.57325 0.20437 0.10590
 C395 C 0.59928 0.18565 0.08621
 C396 C 0.56315 0.19427 0.03235
 C397 C 0.53771 0.21289 0.05309
 N398 N 0.54299 0.21721 0.08927
 H399 H 0.49218 0.31490 0.09645
 H400 H 0.44751 0.21135 0.07645
 H401 H 0.39829 0.23871 0.03989
 H402 H 0.44403 0.34406 0.06063
 H403 H 0.57691 0.20839 0.13464
 H404 H 0.62313 0.17530 0.09975
 H405 H 0.55871 0.19066 0.00362
 H406 H 0.51366 0.22352 0.04032
 C407 C 0.55790 0.34204 0.17362
 C408 C 0.44477 0.15048 0.17875
 C409 C 0.59405 0.18035 0.04918
 C410 C 0.41766 0.29344 0.04767
 C411 C 0.95096 0.71443 0.66152
 H412 H 0.94003 0.74148 0.65896
 C413 C 0.93021 0.68714 0.67750
 H414 H 0.90351 0.69331 0.68760
 C415 C 0.99740 0.67225 0.64848
 H416 H 1.02281 0.66584 0.63605
 C417 C 0.97777 0.64442 0.66441
 H418 H 0.98848 0.61710 0.66428
 N419 N 0.98366 0.70644 0.64677
 C420 C 1.06190 0.79121 0.63277
 H421 H 1.07570 0.77782 0.61088
 C422 C 1.07662 0.82277 0.64726
 H423 H 1.10197 0.83295 0.63695
 C424 C 1.01056 0.79667 0.67042
 H425 H 0.98424 0.78705 0.67838
 C426 C 1.02431 0.82861 0.68554
 H427 H 1.00869 0.84337 0.70537
 Zn428 Zn 1.00696 0.74132 0.61701
 N429 N 1.02923 0.77894 0.64416
 C430 C 0.97174 0.79940 0.58245
 N431 N 0.97166 0.76279 0.58673
 C432 C 0.94596 0.74175 0.57082
 C433 C 0.91856 0.75763 0.55008
 C434 C 0.94492 0.81630 0.56194
 C435 C 1.07237 0.70472 0.60551
 C436 C 1.09862 0.68597 0.58615
 C437 C 1.06322 0.69468 0.53183
 C438 C 1.03753 0.71333 0.55225
 N439 N 1.04235 0.71765 0.58849
 H440 H 0.99247 0.81562 0.59512
 H441 H 0.94648 0.71273 0.57475
 H442 H 0.89787 0.74083 0.53791
 H443 H 0.94497 0.84549 0.55904
 H444 H 1.07566 0.70872 0.63430
 H445 H 1.12228 0.67557 0.60000
 H446 H 1.05915 0.69109 0.50305
 H447 H 1.01366 0.72401 0.53919
 C448 C 1.05739 0.84203 0.67334
 C449 C 0.94358 0.65167 0.67832
 C450 C 1.09389 0.68071 0.54906
 C451 C 0.91796 0.79528 0.54584
 C452 C 0.55038 0.72111 0.35901
 H453 H 0.56674 0.74236 0.37061
 C454 C 0.56721 0.69126 0.34307
 H455 H 0.59640 0.68959 0.34270
 C456 C 0.49271 0.69607 0.34701
 H457 H 0.46375 0.69743 0.34941
 C458 C 0.50845 0.66574 0.33085
 H459 H 0.49150 0.64399 0.32094
 N460 N 0.51378 0.72223 0.36216
 C461 C 0.44482 0.81300 0.39311
 H462 H 0.44347 0.80693 0.42166
 C463 C 0.42561 0.84230 0.37917
 H464 H 0.40936 0.85877 0.39711
 C465 C 0.46856 0.79940 0.33522
 H466 H 0.48573 0.78272 0.31847
 C467 C 0.44977 0.82874 0.32007
 H468 H 0.45244 0.83463 0.29154
 Zn469 Zn 0.49267 0.75578 0.39501
 N470 N 0.46607 0.79253 0.37125
 C471 C 0.53424 0.81434 0.42171
 N472 N 0.53000 0.77773 0.42295
 C473 C 0.55340 0.75648 0.44196
 C474 C 0.58241 0.77196 0.46061
 C475 C 0.56284 0.83088 0.43999
 C476 C 0.42760 0.72145 0.40960
 C477 C 0.40245 0.70098 0.42857
 C478 C 0.44344 0.69967 0.47950
 C479 C 0.46792 0.72027 0.45951
 N480 N 0.45992 0.73010 0.42490
 H481 H 0.51598 0.83081 0.40592
 H482 H 0.55012 0.72739 0.44180
 H483 H 0.60118 0.75481 0.47524
 H484 H 0.56623 0.85997 0.43848
 H485 H 0.42135 0.73041 0.38248
 H486 H 0.37699 0.69391 0.41592
 H487 H 0.45012 0.69150 0.50683
 H488 H 0.49327 0.72799 0.47165
 C489 C 0.42833 0.85056 0.34243
 C490 C 0.54606 0.66276 0.33003
 C491 C 0.41059 0.68965 0.46367
 C492 C 0.58724 0.80948 0.45943
 C493 C 0.35061 -0.00659 0.20741
 C494 C 0.36626 0.01010 0.23771
 C495 C 0.38319 0.04392 0.23396
 C496 C 0.38473 0.06067 0.20004
 C497 C 0.36866 0.04403 0.17000
 C498 C 0.35147 0.01054 0.17370
 C499 C 0.36425 -0.00747 0.27339
 C500 C 0.37988 -0.04173 0.27919
 C501 C 0.37809 -0.05790 0.31340
 C502 C 0.35995 -0.04028 0.34153
 C503 C 0.34404 -0.00639 0.33572
 C504 C 0.34651 0.01013 0.30184
 H505 H 0.33732 -0.03257 0.21023
 H506 H 0.39572 0.05673 0.25719
 H507 H 0.39401 -0.05527 0.25743
 H508 H 0.33437 0.03651 0.29746
 H509 H 0.36992 0.05692 0.14371
 H510 H 0.35863 -0.05271 0.36804
 C511 C 0.12315 1.01286 0.70631
 C512 C 0.10693 0.99497 0.73539
 C513 C 0.09334 0.95977 0.73056
 C514 C 0.09574 0.94287 0.69672
 C515 C 0.11243 0.96081 0.66792
 C516 C 0.12635 0.99566 0.67282
 C517 C 0.10677 1.01236 0.77125
 C518 C 0.09111 1.04669 0.77607
 C519 C 0.09335 1.06403 0.80970
 C520 C 0.11188 1.04742 0.83836
 C521 C 0.12783 1.01339 0.83348
 C522 C 0.12484 0.99573 0.80016
 H523 H 0.13442 1.03969 0.71014
 H524 H 0.08100 0.94568 0.75301
 H525 H 0.07726 1.05977 0.75375
 H526 H 0.13767 0.96960 0.79631
 H527 H 0.11489 0.94754 0.64189
 H528 H 0.11408 1.06101 0.86426
 C529 C 0.62263 0.51349 0.20556
 C530 C 0.60642 0.49569 0.23469
 C531 C 0.59302 0.46039 0.23000
 C532 C 0.59562 0.44331 0.19626
 C533 C 0.61230 0.46118 0.16742
 C534 C 0.62602 0.49613 0.17217
 C535 C 0.60624 0.51318 0.27050
 C536 C 0.59078 0.54763 0.27522
 C537 C 0.59313 0.56509 0.30879
 C538 C 0.61157 0.54846 0.33750
 C539 C 0.62732 0.51432 0.33273
 C540 C 0.62421 0.49656 0.29948
 H541 H 0.63377 0.54039 0.20928
 H542 H 0.58071 0.44634 0.25250
 H543 H 0.57704 0.56074 0.25285
 H544 H 0.63693 0.47036 0.29572
 H545 H 0.61492 0.44777 0.14147
 H546 H 0.61390 0.56214 0.36334
 C547 C 0.85034 0.49453 0.70884
 C548 C 0.86576 0.51157 0.73908
 C549 C 0.88237 0.54554 0.73513
 C550 C 0.88384 0.56206 0.70109
 C551 C 0.86802 0.54504 0.67114
 C552 C 0.85115 0.51142 0.67502
 C553 C 0.86397 0.49405 0.77481
 C554 C 0.87953 0.45974 0.78049
 C555 C 0.87767 0.44340 0.81461
 C556 C 0.85955 0.46093 0.84280
 C557 C 0.84369 0.49487 0.83714
 C558 C 0.84624 0.51156 0.80333
 H559 H 0.83734 0.46842 0.71178
 H560 H 0.89478 0.55860 0.75830
 H561 H 0.89357 0.44623 0.75866
 H562 H 0.83407 0.53794 0.79904
 H563 H 0.86927 0.55772 0.64475
 H564 H 0.85809 0.44833 0.86922
 C565 C 0.20690 0.35043 -0.00691
 C566 C 0.23727 0.36584 0.00981
 C567 C 0.23369 0.38268 0.04370
 C568 C 0.19991 0.38435 0.06048
 C569 C 0.16981 0.36853 0.04379
 C570 C 0.17331 0.35143 0.01024
 C571 C 0.27286 0.36358 -0.00772
 C572 C 0.27847 0.37880 -0.04207
 C573 C 0.31260 0.37674 -0.05818
 C574 C 0.34085 0.35874 -0.04037
 C575 C 0.33523 0.34324 -0.00639
 C576 C 0.30143 0.34597 0.01004
 H577 H 0.20956 0.33720 -0.03293
 H578 H 0.25697 0.39502 0.05655
 H579 H 0.25662 0.39281 -0.05576
 H580 H 0.29720 0.33412 0.03649
 H581 H 0.14362 0.36990 0.05670
 H582 H 0.36728 0.35719 -0.05275
 C583 C 0.70639 0.12345 1.01174
 C584 C 0.73566 0.10760 0.99379
 C585 C 0.73092 0.09403 0.95857
 C586 C 0.69698 0.09608 0.94175
 C587 C 0.66799 0.11239 0.95978
 C588 C 0.67280 0.12628 0.99464
 C589 C 0.77152 0.10770 1.01123
 C590 C 0.77644 0.09260 1.04576
 C591 C 0.80995 0.09529 1.06326
 C592 C 0.83844 0.11369 1.04657
 C593 C 0.83350 0.12907 1.01234
 C594 C 0.80028 0.12564 0.99455
 H595 H 0.71011 0.13468 1.03858
 H596 H 0.75348 0.08192 0.94444
 H597 H 0.75425 0.07887 1.05891
 H598 H 0.79637 0.13809 0.96829
 H599 H 0.64187 0.11453 0.94661
 H600 H 0.86424 0.11627 1.06029
 C601 C 0.20676 0.62377 0.51270
 C602 C 0.23618 0.60805 0.49488
 C603 C 0.23174 0.59472 0.45955
 C604 C 0.19796 0.59690 0.44245
 C605 C 0.16882 0.61308 0.46032
 C606 C 0.17331 0.62673 0.49532
 C607 C 0.27192 0.60798 0.51254
 C608 C 0.27678 0.59204 0.54668
 C609 C 0.31032 0.59416 0.56421
 C610 C 0.33888 0.61286 0.54797
 C611 C 0.33397 0.62910 0.51412
 C612 C 0.30073 0.62623 0.49629
 H613 H 0.21026 0.63481 0.53965
 H614 H 0.25443 0.58273 0.44552
 H615 H 0.25456 0.57801 0.55946
 H616 H 0.29687 0.63924 0.47029
 H617 H 0.14283 0.61536 0.44691
 H618 H 0.36471 0.61494 0.56169
 C619 C 0.70805 0.85527 0.49124
 C620 C 0.73854 0.87011 0.50826
 C621 C 0.73509 0.88630 0.54246
 C622 C 0.70133 0.88789 0.55928
 C623 C 0.67110 0.87263 0.54229
 C624 C 0.67447 0.85615 0.50841
 C625 C 0.77415 0.86768 0.49080
 C626 C 0.77996 0.88325 0.45666
 C627 C 0.81407 0.88101 0.44055
 C628 C 0.84211 0.86247 0.45814
 C629 C 0.83629 0.84658 0.49193
 C630 C 0.80250 0.84951 0.50836
 H631 H 0.71064 0.84241 0.46503
 H632 H 0.75851 0.89801 0.55566
 H633 H 0.75828 0.89768 0.44314
 H634 H 0.79811 0.83737 0.53464
 H635 H 0.64498 0.87367 0.55537
 H636 H 0.86853 0.86077 0.44575
 C637 C -0.00514 0.20945 0.35220
 C638 C 0.01181 0.23959 0.36786
 C639 C 0.04573 0.23549 0.38454
 C640 C 0.06231 0.20139 0.38584
 C641 C 0.04539 0.17150 0.36978
 C642 C 0.01179 0.17555 0.35282
 C643 C -0.00557 0.27547 0.36597
 C644 C -0.03970 0.28134 0.38139
 C645 C -0.05583 0.31566 0.37945
 C646 C -0.03825 0.34386 0.36137
 C647 C -0.00448 0.33798 0.34565
 C648 C 0.01198 0.30398 0.34828
 H649 H -0.03119 0.21254 0.33907
 H650 H 0.05876 0.25861 0.39706
 H651 H -0.05325 0.25950 0.39540
 H652 H 0.03823 0.29952 0.33621
 H653 H 0.05815 0.14507 0.37084
 H654 H -0.05068 0.37043 0.35985
 C655 C 1.01179 0.70683 0.12199
 C656 C 0.99355 0.73607 0.10610
 C657 C 0.95812 0.73132 0.09315
 C658 C 0.94138 0.69742 0.09589
 C659 C 0.95971 0.66847 0.11224
 C660 C 0.99478 0.67329 0.12550
 C661 C 1.01085 0.77198 0.10563
 C662 C 1.04509 0.77663 0.09013
 C663 C 1.06247 0.81023 0.09228
 C664 C 1.04597 0.83909 0.11051
 C665 C 1.01204 0.83441 0.12627
 C666 C 0.99435 0.80110 0.12340
 H667 H 1.03880 0.71058 0.13278
 H668 H 0.94375 0.75388 0.08106
 H669 H 1.05812 0.75415 0.07653
 H670 H 0.96832 0.79740 0.13617
 H671 H 0.94658 0.64239 0.11496
 H672 H 1.05961 0.86496 0.11268
 C673 C 0.51676 0.20224 0.62125
 C674 C 0.49848 0.23192 0.60623
 C675 C 0.46310 0.22749 0.59306
 C676 C 0.44640 0.19350 0.59472
 C677 C 0.46474 0.16409 0.61021
 C678 C 0.49980 0.16855 0.62369
 C679 C 0.51565 0.26792 0.60684
 C680 C 0.54986 0.27318 0.59149
 C681 C 0.56688 0.30694 0.59419
 C682 C 0.55006 0.33532 0.61288
 C683 C 0.51615 0.33003 0.62852
 C684 C 0.49883 0.29656 0.62510
 H685 H 0.54371 0.20572 0.63225
 H686 H 0.44869 0.25039 0.58165
 H687 H 0.56307 0.25111 0.57743
 H688 H 0.47277 0.29242 0.63765
 H689 H 0.45161 0.13795 0.61220
 H690 H 0.56338 0.36134 0.61538
 C691 C 0.49090 0.70583 0.85312
 C692 C 0.50776 0.73606 0.86875
 C693 C 0.54165 0.73205 0.88551
 C694 C 0.55833 0.69802 0.88688
 C695 C 0.54153 0.66807 0.87085
 C696 C 0.50795 0.67197 0.85383
 C697 C 0.49045 0.77198 0.86678
 C698 C 0.45612 0.77788 0.88178
 C699 C 0.44034 0.81239 0.88015
 C700 C 0.45844 0.84073 0.86283
 C701 C 0.49239 0.83482 0.84755
 C702 C 0.50850 0.80063 0.84984
 H703 H 0.46488 0.70883 0.83991
 H704 H 0.55462 0.75522 0.89802
 H705 H 0.44222 0.75597 0.89531
 H706 H 0.53492 0.79618 0.83814
 H707 H 0.55439 0.64168 0.87196
 H708 H 0.44628 0.86744 0.86158
 C709 C 0.41134 -0.11927 0.32959
 C710 C 0.39617 -0.09169 0.32078
 C711 C 0.91035 0.38158 0.83024
 C712 C 0.89546 0.40941 0.82175
 C713 C 0.06227 1.12751 0.82122
 C714 C 0.07650 1.09877 0.81513
 C715 C 0.56273 0.62892 0.32022
 C716 C 0.57662 0.60001 0.31413
 C717 C 0.57052 0.37734 0.18430
 C718 C 0.58170 0.40731 0.19085
 C719 C 0.07022 0.87716 0.68433
 C720 C 0.08158 0.90700 0.69111
 C721 C 0.92127 0.62174 0.68921
 C722 C 0.90367 0.59514 0.69586
 C723 C 0.42240 0.12037 0.18898
 C724 C 0.40470 0.09372 0.19515
 C725 C 0.32841 0.40911 -0.11985
 C726 C 0.31978 0.39435 -0.09213
 C727 C 0.82978 0.91412 0.37924
 C728 C 0.82133 0.89899 0.40682
 C729 C 0.82153 0.06547 1.12727
 C730 C 0.81542 0.07914 1.09828
 C731 C 0.32178 0.56233 0.62726
 C732 C 0.31577 0.57693 0.59871
 C733 C 0.18631 0.57174 0.37649
 C734 C 0.19276 0.58296 0.40645
 C735 C 0.68450 0.07011 0.87624
 C736 C 0.69136 0.08175 0.90596
 C737 C 0.69157 0.92183 0.62144
 C738 C 0.69704 0.90612 0.59340
 C739 C 0.18919 0.42198 0.12030
 C740 C 0.19521 0.40426 0.09360
 C741 C -0.11737 0.33132 0.41198
 C742 C -0.08967 0.32291 0.39713
 C743 C 0.37872 0.82864 0.91215
 C744 C 0.40642 0.81981 0.89754
 C745 C 1.12597 0.82148 0.06197
 C746 C 1.09720 0.81546 0.07581
 C747 C 0.62998 0.31927 0.56342
 C748 C 0.60143 0.31283 0.57754
 C749 C 0.38014 0.18225 0.57030
 C750 C 0.41024 0.18844 0.58118
 C751 C 0.87533 0.68505 0.07155
 C752 C 0.90530 0.69186 0.08239
 C753 C 0.61834 0.68682 0.92416
 C754 C 0.59153 0.69298 0.90661
 C755 C 0.12229 0.18978 0.42312
 C756 C 0.09551 0.19617 0.40558
 C757 C 0.53385 0.11580 0.65798
 C758 C 0.51795 0.13931 0.64189
 C759 C 1.02936 0.62137 0.16042
 C760 C 1.01310 0.64449 0.14418
 C761 C 0.98101 0.88596 0.16471
 C762 C 0.99570 0.86305 0.14684
 C763 C 0.48402 0.38089 0.66704
 C764 C 0.49925 0.35829 0.64921
 C765 C 0.47663 0.61536 0.82329
 C766 C 0.49095 0.64116 0.83718
 C767 C -0.02028 0.11938 0.32226
 C768 C -0.00548 0.14489 0.33618
 C769 C 0.02948 0.39099 0.31208
 C770 C 0.01369 0.36692 0.32723
 C771 C 0.52730 0.88799 0.81528
 C772 C 0.51109 0.86390 0.82993
 C773 C 0.66152 0.52993 0.12051
 C774 C 0.64504 0.51397 0.14351
 C775 C 0.16185 1.02939 0.62113
 C776 C 0.14536 1.01353 0.64417
 C777 C 0.16651 0.98174 0.88466
 C778 C 0.14855 0.99679 0.86195
 C779 C 0.66610 0.48283 0.38390
 C780 C 0.64807 0.49777 0.36120
 C781 C 0.82159 0.47927 0.61836
 C782 C 0.83500 0.49403 0.64417
 C783 C 0.32111 -0.02085 0.11702
 C784 C 0.33491 -0.00642 0.14281
 C785 C 0.31115 0.02768 0.38910
 C786 C 0.32590 0.01190 0.36477
 C787 C 0.81025 0.52833 0.89056
 C788 C 0.82529 0.51288 0.86620
 C789 C 0.12081 0.66127 0.52900
 C790 C 0.14423 0.64521 0.51317
 C791 C 0.62069 0.16089 1.02878
 C792 C 0.64390 0.14480 1.01270
 C793 C 0.88432 0.16773 0.98074
 C794 C 0.86175 0.14977 0.99572
 C795 C 0.38495 0.66789 0.48297
 C796 C 0.36235 0.64989 0.49783
 C797 C 0.61778 0.82593 0.47703
 C798 C 0.64355 0.83978 0.49141
 C799 C 0.11646 0.32151 -0.02113
 C800 C 0.14235 0.33511 -0.00673
 C801 C 0.38866 0.31034 0.02798
 C802 C 0.36434 0.32514 0.01206
 C803 C 0.88925 0.81266 0.52609
 C804 C 0.86517 0.82791 0.51021
   
