data_POSCAR
  _audit_creation_date              2014-09-24
  _audit_creation_method            'ToBaCCo'
  _symmetry_space_group_name_H-M    'P1'
  _symmetry_Int_Tables_number       1
  _symmetry_cell_setting            triclinic
  loop_
  _symmetry_equiv_pos_as_xyz
 x,y,z
_cell_length_a 23.5783
_cell_length_b 23.5793
_cell_length_c 23.5948
_cell_angle_alpha 83.892200
_cell_angle_beta 81.665200
_cell_angle_gamma 96.180100
loop_
  _atom_site_label
  _atom_site_type_symbol
  _atom_site_fract_x
  _atom_site_fract_y
  _atom_site_fract_z
C1 C 0.58769 0.36631 -0.05165
 C2 C 0.63042 0.40969 -0.04889
 C3 C 0.60443 0.45023 -0.01908
 N4 N 0.54687 0.43405 -0.00576
 C5 C 0.53660 0.38282 -0.02565
 C6 C 0.63331 0.49988 -0.00173
 C7 C 0.60353 0.54718 0.01156
 C8 C 0.62291 0.59001 0.04277
 C9 C 0.58378 0.62908 0.04364
 C10 C 0.54128 0.60940 0.01287
 N11 N 0.55342 0.55908 -0.00613
 C12 C 0.49418 0.63914 0.00110
 C13 C 0.44493 0.61032 -0.01669
 C14 C 0.40536 0.63617 -0.04562
 C15 C 0.36273 0.59348 -0.05062
 C16 C 0.37856 0.54254 -0.02651
 N17 N 0.42876 0.55290 -0.00576
 C18 C 0.34482 0.48831 -0.02009
 C19 C 0.36774 0.43570 -0.00954
 C20 C 0.33603 0.38150 0.00025
 C21 C 0.37491 0.34215 0.00148
 C22 C 0.42959 0.37308 -0.00781
 N23 N 0.42465 0.42997 -0.01493
 C24 C 0.48226 0.34905 -0.01672
 H25 H 0.59366 0.32765 -0.07151
 H26 H 0.67545 0.41106 -0.06707
 H27 H 0.45820 0.46275 -0.02976
 H28 H 0.66100 0.59271 0.06348
 H29 H 0.58625 0.66737 0.06516
 H30 H 0.40704 0.68103 -0.06207
 H31 H 0.32489 0.59939 -0.07052
 H32 H 0.36370 0.29607 0.00543
 H33 H 0.53205 0.53724 -0.03456
 H34 H 0.28989 0.37064 0.00324
 C35 C -0.03168 0.60542 0.34647
 C36 C -0.03020 0.64493 0.38501
 C37 C -0.00751 0.62010 0.43145
 N38 N 0.00426 0.56653 0.42262
 C39 C -0.01070 0.55749 0.37085
 C40 C 0.00418 0.64690 0.48016
 C41 C 0.02289 0.61524 0.52703
 C42 C 0.05899 0.63785 0.56279
 C43 C 0.06171 0.59453 0.60570
 C44 C 0.02794 0.54648 0.59447
 N45 N 0.00551 0.55894 0.54566
 C46 C 0.01454 0.49405 0.63138
 C47 C 0.00182 0.44158 0.60965
 C48 C -0.01488 0.38852 0.64251
 C49 C -0.01787 0.34868 0.60421
 C50 C -0.00335 0.37892 0.54935
 N51 N 0.00901 0.43555 0.55288
 C52 C 0.00356 0.35406 0.49738
 C53 C 0.01190 0.38694 0.44218
 C54 C 0.02869 0.36641 0.39009
 C55 C 0.02787 0.41016 0.34707
 C56 C 0.00902 0.45592 0.37360
 N57 N -0.00028 0.44158 0.43157
 C58 C -0.00334 0.50755 0.34409
 H59 H -0.04705 0.61112 0.30543
 H60 H -0.04472 0.68682 0.37914
 H61 H -0.02041 0.46522 0.46159
 H62 H 0.08070 0.68127 0.55871
 H63 H 0.08550 0.59806 0.64137
 H64 H -0.02317 0.37925 0.68908
 H65 H -0.02861 0.30269 0.61554
 H66 H 0.03879 0.40782 0.30130
 H67 H -0.02575 0.53267 0.53019
 H68 H 0.03952 0.32412 0.38291
 C69 C 0.34560 -0.03191 0.63097
 C70 C 0.38481 -0.03580 0.66842
 C71 C 0.43811 -0.01148 0.63774
 N72 N 0.43302 0.00450 0.58216
 C73 C 0.37661 -0.00805 0.57781
 C74 C 0.49035 -0.00140 0.66030
 C75 C 0.54409 0.01075 0.62301
 C76 C 0.59333 0.04051 0.63664
 C77 C 0.63675 0.04031 0.59125
 C78 C 0.61344 0.00923 0.55152
 N79 N 0.55633 -0.00719 0.57041
 C80 C 0.64518 -0.00525 0.50024
 C81 C 0.61813 -0.01229 0.45115
 C82 C 0.64240 -0.03253 0.40114
 C83 C 0.60316 -0.02947 0.36364
 C84 C 0.55603 -0.00796 0.39199
 N85 N 0.56523 0.00259 0.44538
 C86 C 0.50683 0.00430 0.36757
 C87 C 0.45689 0.01916 0.40072
 C88 C 0.41406 0.04614 0.37840
 C89 C 0.37039 0.04678 0.42368
 C90 C 0.38805 0.02081 0.47261
 N91 N 0.44102 0.00446 0.45827
 C92 C 0.35310 0.00665 0.52725
 H93 H 0.29974 -0.04549 0.64222
 H94 H 0.37473 -0.05478 0.71304
 H95 H 0.46168 -0.02191 0.48472
 H96 H 0.59740 0.06086 0.67512
 H97 H 0.68061 0.06086 0.58797
 H98 H 0.68376 -0.04836 0.39232
 H99 H 0.60865 -0.04196 0.32054
 H100 H 0.32973 0.06324 0.42045
 H101 H 0.52887 -0.03450 0.55149
 H102 H 0.41367 0.06258 0.33387
 O103 O 0.45487 -0.00500 -0.05681
 O104 O 0.46060 -0.01703 0.09943
 O105 O 0.45602 0.06658 0.01984
 O106 O 0.45689 -0.08975 0.02329
 O107 O 0.55222 -0.07735 0.00552
 O108 O 0.55129 0.07960 -0.00071
 O109 O 0.55590 -0.00317 0.08073
 O110 O 0.55024 0.00634 -0.07495
 Cu111 Cu 0.44754 -0.01274 0.02338
 Cu112 Cu 0.56198 0.00246 0.00106
 C113 C 0.50175 0.00282 -0.09248
 C114 C 0.50934 -0.01138 0.11663
 C115 C 0.50343 0.09975 0.00857
 C116 C 0.50464 -0.11024 0.01468
 O117 O -0.08183 0.55474 0.98560
 O118 O 0.07515 0.55331 0.97565
 O119 O 0.00141 0.54632 0.90342
 O120 O -0.00919 0.55792 1.05899
 O121 O -0.02454 0.46323 1.07742
 O122 O -0.00964 0.45166 0.92192
 O123 O 0.06161 0.45886 0.99727
 O124 O -0.09507 0.45997 1.00315
 Cu125 Cu -0.00216 0.56259 0.97897
 Cu126 Cu -0.01814 0.44887 1.00154
 C127 C -0.11517 0.50766 0.99585
 C128 C 0.09501 0.50602 0.98588
 C129 C -0.00258 0.49697 0.88620
 C130 C -0.01904 0.51241 1.09473
 O131 O 0.00765 -0.06756 0.44617
 O132 O 0.01709 0.08655 0.46229
 O133 O 0.08948 0.01178 0.45638
 O134 O -0.06613 0.00803 0.45004
 O135 O -0.08567 -0.01427 0.54467
 O136 O 0.06991 -0.01045 0.55111
 O137 O -0.00402 0.06538 0.55702
 O138 O -0.01210 -0.08862 0.54096
 Cu139 Cu 0.01367 0.01188 0.44418
 Cu140 Cu -0.01002 -0.01385 0.55800
 C141 C -0.00303 -0.10434 0.49094
 C142 C 0.00848 0.10220 0.51239
 C143 C 0.10611 0.00066 0.50468
 C144 C -0.10245 -0.00400 0.49621
 C145 C -0.30694 0.50427 1.00226
 C146 C -0.27889 0.45904 1.01543
 C147 C -0.21594 0.46196 1.01579
 C148 C -0.17767 0.50907 0.99819
 H149 H -0.30293 0.41675 1.02799
 H150 H -0.20048 0.42192 1.02960
 H151 H -0.28369 0.54691 0.99777
 H152 H -0.19135 0.54979 0.98415
 C153 C 0.28289 0.48736 0.97410
 C154 C 0.24094 0.46522 1.01780
 C155 C 0.17900 0.46409 1.01412
 C156 C 0.15749 0.50654 0.98512
 H157 H 0.25220 0.44477 1.05726
 H158 H 0.14988 0.42909 1.03996
 H159 H 0.27210 0.50720 0.93418
 H160 H 0.18577 0.54435 0.96369
 C161 C -0.00004 -0.29352 0.47984
 C162 C -0.01179 -0.26850 0.52816
 C163 C -0.01487 -0.20640 0.53012
 C164 C -0.00347 -0.16574 0.48431
 H165 H -0.02119 -0.29468 0.56975
 H166 H -0.02564 -0.19378 0.57282
 H167 H 0.00302 -0.26770 0.43875
 H168 H 0.00764 -0.17649 0.44107
 C169 C 0.00139 0.29064 0.50141
 C170 C 0.04736 0.26551 0.48181
 C171 C 0.04441 0.20322 0.47879
 C172 C 0.01231 0.16372 0.51894
 H173 H 0.08709 0.29203 0.46183
 H174 H 0.07116 0.18963 0.44263
 H175 H -0.03896 0.26481 0.52060
 H176 H -0.01043 0.17649 0.55790
 C177 C 0.49178 -0.00315 -0.27967
 C178 C 0.44991 0.01111 -0.24058
 C179 C 0.45216 0.00735 -0.17785
 C180 C 0.50110 0.00765 -0.15508
 H181 H 0.41187 0.02663 -0.25404
 H182 H 0.41137 0.00585 -0.14956
 H183 H 0.53107 -0.01425 -0.26521
 H184 H 0.54262 0.01268 -0.18259
 C185 C 0.50933 0.00392 0.30421
 C186 C 0.46629 -0.02297 0.28176
 C187 C 0.46545 -0.02310 0.21920
 C188 C 0.51270 -0.01323 0.17868
 H189 H 0.42802 -0.04395 0.31050
 H190 H 0.42350 -0.03295 0.20651
 H191 H 0.54801 0.02514 0.27647
 H192 H 0.55523 -0.00618 0.19069
 C193 C 0.49876 -0.30117 0.00668
 C194 C 0.45346 -0.27261 0.02151
 C195 C 0.45689 -0.20993 0.02517
 C196 C 0.50553 -0.17264 0.01403
 H197 H 0.41054 -0.29599 0.03301
 H198 H 0.41597 -0.19383 0.03662
 H199 H 0.54168 -0.27834 0.00201
 H200 H 0.54722 -0.18697 0.00285
 C201 C 0.48149 0.28610 -0.01790
 C202 C 0.45720 0.24833 0.02787
 C203 C 0.45763 0.18576 0.02900
 C204 C 0.50343 0.16241 0.00563
 H205 H 0.43400 0.26344 0.06526
 H206 H 0.42037 0.15827 0.05333
 H207 H 0.50398 0.27104 -0.05567
 H208 H 0.54268 0.18974 -0.01433
 C209 C -0.29453 -0.00883 0.49571
 C210 C -0.26821 -0.02357 0.54113
 C211 C -0.20517 -0.02412 0.53918
 C212 C -0.16460 -0.00526 0.49305
 H213 H -0.29394 -0.03736 0.58315
 H214 H -0.19178 -0.03951 0.57948
 H215 H -0.26897 -0.00208 0.45323
 H216 H -0.17622 0.01035 0.45210
 C217 C 0.29041 0.01110 0.53099
 C218 C 0.25019 -0.03453 0.54721
 C219 C 0.18804 -0.03091 0.54780
 C220 C 0.16823 0.00059 0.50605
 H221 H 0.26278 -0.07575 0.56184
 H222 H 0.15787 -0.05869 0.58087
 H223 H 0.27766 0.05237 0.51674
 H224 H 0.19819 0.02380 0.46973
 C225 C -0.00580 0.51118 1.28127
 C226 C -0.03880 0.47206 1.25914
 C227 C -0.03865 0.47104 1.19668
 C228 C -0.02280 0.51711 1.15682
 H229 H -0.06408 0.43638 1.28777
 H230 H -0.05267 0.42991 1.18340
 H231 H 0.01996 0.54717 1.25365
 H232 H -0.01208 0.55924 1.16944
 C233 C 0.01685 0.49354 0.69418
 C234 C -0.00442 0.53406 0.72394
 C235 C -0.00314 0.53694 0.78592
 C236 C 0.00013 0.49170 0.82426
 H237 H -0.02254 0.56858 0.70153
 H238 H -0.00856 0.57821 0.80082
 H239 H 0.03504 0.45872 0.71586
 H240 H 0.00172 0.44932 0.81093
   
