data_POSCAR
  _audit_creation_date              2014-09-24
  _audit_creation_method            'ToBaCCo'
  _symmetry_space_group_name_H-M    'P1'
  _symmetry_Int_Tables_number       1
  _symmetry_cell_setting            triclinic
  loop_
  _symmetry_equiv_pos_as_xyz
 x,y,z
_cell_length_a 43.6935
_cell_length_b 43.4069
_cell_length_c 43.6020
_cell_angle_alpha 90.457900
_cell_angle_beta 89.862800
_cell_angle_gamma 90.025700
loop_
  _atom_site_label
  _atom_site_type_symbol
  _atom_site_fract_x
  _atom_site_fract_y
  _atom_site_fract_z
N1 N 0.29717 0.23486 0.20844
 N2 N 0.28412 0.25905 0.19609
 C3 C 0.30052 0.26770 0.17136
 C4 C 0.32513 0.24780 0.16821
 C5 C 0.32225 0.22732 0.19209
 H6 H 0.29504 0.28702 0.15689
 H7 H 0.33742 0.20837 0.19719
 Cu8 Cu 0.24720 0.27692 0.21396
 Cu9 Cu 0.28100 0.21487 0.24487
 Cu10 Cu 0.21499 0.24591 0.27664
 N11 N 0.20971 0.29372 0.23166
 N12 N 0.19744 0.28157 0.25633
 C13 C 0.17232 0.29773 0.26425
 C14 C 0.16863 0.32134 0.24341
 C15 C 0.19269 0.31804 0.22302
 H16 H 0.15800 0.29271 0.28382
 H17 H 0.19760 0.33265 0.20364
 N18 N 0.23608 0.20983 0.29385
 N19 N 0.26115 0.19791 0.28170
 C20 C 0.26990 0.17357 0.29857
 C21 C 0.24945 0.17006 0.32247
 C22 C 0.22825 0.19344 0.31877
 H23 H 0.28978 0.15943 0.29400
 H24 H 0.20858 0.19821 0.33308
 H25 H 0.23603 0.22766 0.23804
 H26 H 0.25972 0.25336 0.26299
 N27 N 0.70168 -0.23501 0.20642
 N28 N 0.71407 -0.25936 0.19330
 C29 C 0.69729 -0.26759 0.16870
 C30 C 0.67299 -0.24725 0.16632
 C31 C 0.67655 -0.22686 0.19060
 H32 H 0.70243 -0.28690 0.15379
 H33 H 0.66183 -0.20764 0.19638
 Cu34 Cu 0.75096 -0.27788 0.20965
 Cu35 Cu 0.71900 -0.21605 0.24319
 Cu36 Cu 0.78455 -0.24983 0.27313
 N37 N 0.78783 -0.29639 0.22601
 N38 N 0.80073 -0.28579 0.25118
 C39 C 0.82568 -0.30293 0.25740
 C40 C 0.82850 -0.32534 0.23466
 C41 C 0.80417 -0.32042 0.21521
 H42 H 0.84069 -0.29907 0.27673
 H43 H 0.79884 -0.33354 0.19472
 N44 N 0.76463 -0.21325 0.29174
 N45 N 0.73987 -0.20035 0.28020
 C46 C 0.73214 -0.17581 0.29768
 C47 C 0.75293 -0.17309 0.32130
 C48 C 0.77327 -0.19721 0.31687
 H49 H 0.71279 -0.16089 0.29363
 H50 H 0.79295 -0.20264 0.33077
 H51 H 0.76384 -0.22973 0.23574
 H52 H 0.73958 -0.25537 0.25979
 N53 N 0.70798 0.23504 0.79041
 N54 N 0.72114 0.25932 0.80286
 C55 C 0.70517 0.26787 0.82802
 C56 C 0.68072 0.24796 0.83136
 C57 C 0.68327 0.22735 0.80708
 H58 H 0.71064 0.28727 0.84272
 H59 H 0.66835 0.20819 0.80179
 Cu60 Cu 0.75737 0.27746 0.78424
 Cu61 Cu 0.72343 0.21515 0.75336
 Cu62 Cu 0.78813 0.24699 0.72011
 N63 N 0.79400 0.29488 0.76572
 N64 N 0.80563 0.28304 0.74041
 C65 C 0.83011 0.29976 0.73187
 C66 C 0.83403 0.32342 0.75305
 C67 C 0.81080 0.31952 0.77424
 H68 H 0.84376 0.29503 0.71167
 H69 H 0.80625 0.33395 0.79406
 N70 N 0.76708 0.21048 0.70314
 N71 N 0.74247 0.19832 0.71585
 C72 C 0.73359 0.17368 0.69911
 C73 C 0.75360 0.17023 0.67469
 C74 C 0.77448 0.19389 0.67797
 H75 H 0.71407 0.15936 0.70435
 H76 H 0.79367 0.19856 0.66300
 H77 H 0.76853 0.22850 0.75891
 H78 H 0.74383 0.25394 0.73512
 N79 N 0.29300 -0.23473 0.78907
 N80 N 0.27896 -0.25805 0.80205
 C81 C 0.29492 -0.26665 0.82700
 C82 C 0.32026 -0.24776 0.82969
 C83 C 0.31828 -0.22773 0.80521
 H84 H 0.28873 -0.28530 0.84209
 H85 H 0.33392 -0.20936 0.79946
 Cu86 Cu 0.24126 -0.27467 0.78483
 Cu87 Cu 0.27774 -0.21505 0.75219
 Cu88 Cu 0.21163 -0.24532 0.72017
 N89 N 0.20423 -0.29159 0.76647
 N90 N 0.19302 -0.28020 0.74100
 C91 C 0.16758 -0.29588 0.73326
 C92 C 0.16241 -0.31821 0.75507
 C93 C 0.18620 -0.31491 0.77586
 H94 H 0.15366 -0.29128 0.71333
 H95 H 0.19021 -0.32840 0.79618
 N96 N 0.23376 -0.20998 0.70258
 N97 N 0.25883 -0.19832 0.71490
 C98 C 0.26820 -0.17422 0.69799
 C99 C 0.24803 -0.17058 0.67387
 C100 C 0.22654 -0.19359 0.67750
 H101 H 0.28815 -0.16034 0.70293
 H102 H 0.20700 -0.19790 0.66291
 H103 H 0.23211 -0.22620 0.75844
 H104 H 0.25565 -0.25364 0.73513
 N105 N 0.70507 -0.23047 0.79165
 N106 N 0.71707 -0.25559 0.80319
 C107 C 0.70029 -0.26438 0.82758
 C108 C 0.67655 -0.24356 0.83146
 C109 C 0.68034 -0.22237 0.80832
 H110 H 0.70501 -0.28435 0.84142
 H111 H 0.66595 -0.20265 0.80384
 Cu112 Cu 0.75349 -0.27422 0.78517
 Cu113 Cu 0.72207 -0.21035 0.75566
 Cu114 Cu 0.78711 -0.24309 0.72332
 N115 N 0.78993 -0.29241 0.76673
 N116 N 0.80303 -0.28003 0.74262
 C117 C 0.82758 -0.29699 0.73451
 C118 C 0.83003 -0.32134 0.75458
 C119 C 0.80570 -0.31772 0.77482
 H120 H 0.84252 -0.29211 0.71534
 H121 H 0.79982 -0.33229 0.79392
 N122 N 0.76756 -0.20574 0.70709
 N123 N 0.74267 -0.19341 0.71923
 C124 C 0.73454 -0.16870 0.70263
 C125 C 0.75538 -0.16536 0.67894
 C126 C 0.77598 -0.18912 0.68252
 H127 H 0.71488 -0.15432 0.70736
 H128 H 0.79542 -0.19410 0.66791
 H129 H 0.74208 -0.24924 0.73665
 H130 H 0.76657 -0.22491 0.76218
 N131 N 0.29319 0.23883 0.79325
 N132 N 0.28136 0.26560 0.80116
 C133 C 0.29744 0.27755 0.82469
 C134 C 0.32030 0.25711 0.83218
 C135 C 0.31706 0.23270 0.81177
 H136 H 0.29290 0.29944 0.83579
 H137 H 0.33130 0.21238 0.81009
 Cu138 Cu 0.24558 0.28165 0.78047
 Cu139 Cu 0.27709 0.21461 0.75883
 Cu140 Cu 0.21243 0.24366 0.72248
 N141 N 0.20921 0.29767 0.76078
 N142 N 0.19604 0.28253 0.73816
 C143 C 0.17099 0.29811 0.72916
 C144 C 0.16839 0.32439 0.74708
 C145 C 0.19303 0.32333 0.76696
 H146 H 0.15570 0.29085 0.71101
 H147 H 0.19856 0.33972 0.78488
 N148 N 0.23248 0.20481 0.71006
 N149 N 0.25718 0.19386 0.72359
 C150 C 0.26562 0.16757 0.70924
 C151 C 0.24517 0.16163 0.68583
 C152 C 0.22450 0.18573 0.68695
 H153 H 0.28530 0.15377 0.71516
 H154 H 0.20545 0.18946 0.67168
 H155 H 0.25755 0.25063 0.73527
 H156 H 0.23261 0.22987 0.76301
 N157 N 0.29227 -0.23241 0.20565
 N158 N 0.28069 -0.25841 0.19527
 C159 C 0.29587 -0.26689 0.16963
 C160 C 0.31798 -0.24499 0.16361
 C161 C 0.31513 -0.22343 0.18701
 H162 H 0.29115 -0.28735 0.15615
 H163 H 0.32865 -0.20284 0.19037
 Cu164 Cu 0.24650 -0.27853 0.21569
 Cu165 Cu 0.27678 -0.21196 0.24232
 Cu166 Cu 0.21367 -0.24458 0.27739
 N167 N 0.21010 -0.29543 0.23516
 N168 N 0.19729 -0.28197 0.25904
 C169 C 0.17268 -0.29838 0.26778
 C170 C 0.16992 -0.32352 0.24827
 C171 C 0.19398 -0.32090 0.22785
 H172 H 0.15804 -0.29244 0.28695
 H173 H 0.19929 -0.33651 0.20913
 N174 N 0.23348 -0.20684 0.29271
 N175 N 0.25782 -0.19461 0.27960
 C176 C 0.26643 -0.16952 0.29580
 C177 C 0.24646 -0.16586 0.32023
 C178 C 0.22588 -0.18981 0.31752
 H179 H 0.28578 -0.15509 0.29024
 H180 H 0.20702 -0.19462 0.33285
 H181 H 0.25843 -0.25055 0.26298
 H182 H 0.23265 -0.22837 0.23703
 N183 N 0.70678 0.23185 0.20867
 N184 N 0.71845 0.25768 0.19829
 C185 C 0.70188 0.26707 0.17406
 C186 C 0.67862 0.24592 0.16910
 C187 C 0.68248 0.22391 0.19142
 H188 H 0.70645 0.28764 0.16101
 H189 H 0.66849 0.20368 0.19489
 Cu190 Cu 0.75423 0.27636 0.21741
 Cu191 Cu 0.72383 0.21045 0.24375
 Cu192 Cu 0.78844 0.24230 0.27737
 N193 N 0.79095 0.29350 0.23613
 N194 N 0.80419 0.28013 0.25957
 C195 C 0.82892 0.29667 0.26795
 C196 C 0.83134 0.32172 0.24878
 C197 C 0.80686 0.31899 0.22879
 H198 H 0.84406 0.29098 0.28665
 H199 H 0.80104 0.33431 0.21029
 N200 N 0.76910 0.20413 0.29208
 N201 N 0.74436 0.19214 0.27939
 C202 C 0.73666 0.16635 0.29456
 C203 C 0.75758 0.16180 0.31772
 C204 C 0.77783 0.18622 0.31559
 H205 H 0.71727 0.15180 0.28921
 H206 H 0.79729 0.19078 0.33018
 H207 H 0.74337 0.24860 0.26465
 H208 H 0.76814 0.22610 0.23763
 C209 C 0.24985 -0.01499 0.49939
 C210 C 0.25005 0.01628 0.50039
 C211 C 0.24861 0.03520 0.47227
 C212 C 0.25065 0.03364 0.52974
 C213 C 0.24925 -0.03387 0.52761
 C214 C 0.24966 -0.03228 0.46998
 C215 C 0.27206 0.03449 0.45024
 C216 C 0.27101 0.05422 0.42499
 C217 C 0.24672 0.07514 0.42154
 C218 C 0.22276 0.07491 0.44321
 C219 C 0.22392 0.05538 0.46842
 C220 C 0.27528 0.05341 0.53595
 C221 C 0.27522 0.07189 0.56228
 C222 C 0.25022 0.07145 0.58252
 C223 C 0.22586 0.05095 0.57670
 C224 C 0.22607 0.03224 0.55043
 C225 C 0.22517 -0.05473 0.53200
 C226 C 0.22464 -0.07377 0.55762
 C227 C 0.24842 -0.07275 0.57918
 C228 C 0.27244 -0.05146 0.57499
 C229 C 0.27287 -0.03229 0.54931
 C230 C 0.22501 -0.03006 0.44954
 C231 C 0.22441 -0.04821 0.42290
 C232 C 0.24851 -0.06860 0.41618
 C233 C 0.27313 -0.07074 0.43679
 C234 C 0.27360 -0.05278 0.46346
 H235 H 0.29139 0.01916 0.45293
 H236 H 0.28957 0.05365 0.40848
 H237 H 0.20293 0.08957 0.44084
 H238 H 0.20546 0.05598 0.48505
 H239 H 0.29440 0.05477 0.52015
 H240 H 0.29432 0.08729 0.56635
 H241 H 0.20681 0.01720 0.54585
 H242 H 0.20674 -0.05630 0.51548
 H243 H 0.20580 -0.08976 0.56033
 H244 H 0.29079 -0.04931 0.59145
 H245 H 0.29178 -0.01647 0.54618
 H246 H 0.20602 -0.01481 0.45457
 H247 H 0.20500 -0.04652 0.40760
 H248 H 0.29157 -0.08696 0.43296
 H249 H 0.29254 -0.05512 0.47927
 H250 H 0.20661 0.04940 0.59226
 C251 C 0.75440 0.01405 0.49891
 C252 C 0.75551 -0.01719 0.49937
 C253 C 0.75711 -0.03605 0.47091
 C254 C 0.75537 -0.03451 0.52850
 C255 C 0.75464 0.03289 0.52743
 C256 C 0.75375 0.03151 0.46993
 C257 C 0.73346 -0.03574 0.44920
 C258 C 0.73434 -0.05581 0.42391
 C259 C 0.75864 -0.07674 0.42011
 C260 C 0.78279 -0.07615 0.44143
 C261 C 0.78183 -0.05622 0.46667
 C262 C 0.73150 -0.05524 0.53432
 C263 C 0.73147 -0.07287 0.56092
 C264 C 0.75551 -0.07019 0.58220
 C265 C 0.77958 -0.04963 0.57615
 C266 C 0.77947 -0.03180 0.54956
 C267 C 0.77837 0.05413 0.53209
 C268 C 0.77857 0.07310 0.55804
 C269 C 0.75479 0.07162 0.57967
 C270 C 0.73113 0.04995 0.57521
 C271 C 0.73103 0.03083 0.54920
 C272 C 0.77916 0.03199 0.45023
 C273 C 0.77946 0.05154 0.42485
 C274 C 0.75430 0.07088 0.41893
 C275 C 0.72849 0.06929 0.43804
 C276 C 0.72836 0.05006 0.46352
 H277 H 0.71402 -0.02055 0.45226
 H278 H 0.71560 -0.05556 0.40770
 H279 H 0.80257 -0.09089 0.43879
 H280 H 0.80038 -0.05661 0.48310
 H281 H 0.71296 -0.05792 0.51805
 H282 H 0.71308 -0.08922 0.56425
 H283 H 0.79837 -0.01630 0.54513
 H284 H 0.79678 0.05605 0.51553
 H285 H 0.79713 0.08942 0.56096
 H286 H 0.71282 0.04748 0.59172
 H287 H 0.71243 0.01466 0.54587
 H288 H 0.79902 0.01792 0.45501
 H289 H 0.79939 0.05157 0.41008
 H290 H 0.70876 0.08375 0.43383
 H291 H 0.70862 0.05000 0.47861
 H292 H 0.79856 -0.04749 0.59197
 C293 C 0.50277 0.24268 -0.01473
 C294 C 0.50285 0.24461 0.01637
 C295 C 0.53178 0.24587 0.03410
 C296 C 0.47411 0.24440 0.03458
 C297 C 0.47415 0.23954 -0.03268
 C298 C 0.53146 0.24243 -0.03294
 C299 C 0.55303 0.22168 0.03252
 C300 C 0.57912 0.22217 0.05104
 C301 C 0.58450 0.24689 0.07130
 C302 C 0.56313 0.27112 0.07278
 C303 C 0.53700 0.27052 0.05439
 C304 C 0.47004 0.22192 0.05712
 C305 C 0.44384 0.22194 0.07546
 C306 C 0.42137 0.24474 0.07205
 C307 C 0.42526 0.26714 0.04913
 C308 C 0.45150 0.26698 0.03061
 C309 C 0.46769 0.26112 -0.05550
 C310 C 0.44292 0.25679 -0.07520
 C311 C 0.42415 0.23058 -0.07255
 C312 C 0.43058 0.20904 -0.04956
 C313 C 0.45531 0.21354 -0.02966
 C314 C 0.55150 0.26771 -0.03280
 C315 C 0.57688 0.26805 -0.05248
 C316 C 0.58236 0.24332 -0.07275
 C317 C 0.56289 0.21749 -0.07176
 C318 C 0.53757 0.21724 -0.05228
 H319 H 0.54905 0.20211 0.01748
 H320 H 0.59499 0.20303 0.04977
 H321 H 0.56592 0.29006 0.08880
 H322 H 0.52058 0.28913 0.05625
 H323 H 0.48723 0.20431 0.06053
 H324 H 0.44138 0.20435 0.09278
 H325 H 0.45434 0.28466 0.01344
 H326 H 0.48236 0.28101 -0.05853
 H327 H 0.43937 0.27338 -0.09323
 H328 H 0.41669 0.18851 -0.04730
 H329 H 0.46039 0.19626 -0.01263
 H330 H 0.54701 0.28745 -0.01812
 H331 H 0.59174 0.28803 -0.05252
 H332 H 0.56706 0.19738 -0.08596
 H333 H 0.52251 0.19741 -0.05243
 H334 H 0.40813 0.28462 0.04523
 C335 C 0.49831 0.75395 0.01390
 C336 C 0.49858 0.75453 -0.01722
 C337 C 0.47001 0.75543 -0.03544
 C338 C 0.52749 0.75464 -0.03507
 C339 C 0.52683 0.75469 0.03224
 C340 C 0.46944 0.75295 0.03169
 C341 C 0.44893 0.73103 -0.03500
 C342 C 0.42357 0.73126 -0.05458
 C343 C 0.41913 0.75565 -0.07511
 C344 C 0.43972 0.78062 -0.07449
 C345 C 0.46502 0.78030 -0.05508
 C346 C 0.53318 0.73066 -0.05604
 C347 C 0.55944 0.73093 -0.07430
 C348 C 0.58050 0.75537 -0.07204
 C349 C 0.57459 0.77954 -0.05123
 C350 C 0.54835 0.77913 -0.03276
 C351 C 0.53110 0.77843 0.05379
 C352 C 0.55693 0.77885 0.07252
 C353 C 0.57881 0.75528 0.07046
 C354 C 0.57481 0.73171 0.04838
 C355 C 0.54891 0.73136 0.02956
 C356 C 0.44922 0.77803 0.03211
 C357 C 0.42381 0.77797 0.05172
 C358 C 0.41838 0.75280 0.07121
 C359 C 0.43805 0.72730 0.06971
 C360 C 0.46354 0.72751 0.05039
 H361 H 0.45256 0.71152 -0.02012
 H362 H 0.40787 0.71194 -0.05434
 H363 H 0.43644 0.80051 -0.08889
 H364 H 0.48093 0.79944 -0.05550
 H365 H 0.51706 0.71182 -0.05843
 H366 H 0.56264 0.71245 -0.09079
 H367 H 0.54400 0.79814 -0.01711
 H368 H 0.51428 0.79663 0.05619
 H369 H 0.55952 0.79736 0.08912
 H370 H 0.59155 0.71360 0.04538
 H371 H 0.54589 0.71271 0.01319
 H372 H 0.45359 0.79791 0.01791
 H373 H 0.40862 0.79765 0.05166
 H374 H 0.43424 0.70755 0.08428
 H375 H 0.47900 0.70801 0.05034
 H376 H 0.59023 0.79882 -0.04939
 C377 C 0.01643 0.49942 0.25057
 C378 C -0.01458 0.50017 0.25193
 C379 C -0.03354 0.47199 0.24976
 C380 C -0.03147 0.52950 0.25559
 C381 C 0.03487 0.52806 0.25004
 C382 C 0.03389 0.47018 0.24936
 C383 C -0.05411 0.46882 0.22534
 C384 C -0.07376 0.44355 0.22368
 C385 C -0.07367 0.42114 0.24686
 C386 C -0.05235 0.42391 0.27083
 C387 C -0.03251 0.44923 0.27238
 C388 C -0.03529 0.54952 0.23082
 C389 C -0.05292 0.57624 0.23430
 C390 C -0.06676 0.58335 0.26270
 C391 C -0.06196 0.56372 0.28763
 C392 C -0.04484 0.53678 0.28398
 C393 C 0.03514 0.54856 0.27506
 C394 C 0.05379 0.57475 0.27455
 C395 C 0.07284 0.58062 0.24908
 C396 C 0.07206 0.56015 0.22400
 C397 C 0.05343 0.53406 0.22454
 C398 C 0.05502 0.46402 0.27265
 C399 C 0.07346 0.43783 0.27117
 C400 C 0.07123 0.41725 0.24619
 C401 C 0.05018 0.42356 0.22273
 C402 C 0.03151 0.44976 0.22436
 H403 H -0.05495 0.48603 0.20750
 H404 H -0.08878 0.44171 0.20408
 H405 H -0.05154 0.40683 0.28878
 H406 H -0.01686 0.45141 0.29149
 H407 H -0.02504 0.54417 0.20878
 H408 H -0.05564 0.59132 0.21484
 H409 H -0.04202 0.52150 0.30330
 H410 H 0.02121 0.54406 0.29510
 H411 H 0.05299 0.59014 0.29412
 H412 H 0.08632 0.56409 0.20404
 H413 H 0.05355 0.51841 0.20506
 H414 H 0.05751 0.47981 0.29185
 H415 H 0.09011 0.43436 0.28914
 H416 H 0.04833 0.40828 0.20306
 H417 H 0.01576 0.45449 0.20585
 H418 H -0.07222 0.56882 0.30974
 C419 C 0.01371 0.50223 0.75152
 C420 C -0.01727 0.50173 0.75298
 C421 C -0.03470 0.47246 0.75288
 C422 C -0.03571 0.53030 0.75512
 C423 C 0.03138 0.53131 0.75091
 C424 C 0.03216 0.47364 0.75172
 C425 C -0.05532 0.46649 0.72901
 C426 C -0.07333 0.43995 0.72922
 C427 C -0.07115 0.41892 0.75351
 C428 C -0.05068 0.42512 0.77757
 C429 C -0.03244 0.45162 0.77720
 C430 C -0.03551 0.55217 0.73160
 C431 C -0.05519 0.57759 0.73304
 C432 C -0.07558 0.58132 0.75778
 C433 C -0.07479 0.55989 0.78184
 C434 C -0.05526 0.53453 0.78032
 C435 C 0.03242 0.55094 0.77659
 C436 C 0.05238 0.57619 0.77701
 C437 C 0.07158 0.58204 0.75170
 C438 C 0.06942 0.56304 0.72562
 C439 C 0.04977 0.53769 0.72537
 C440 C 0.05232 0.46869 0.77611
 C441 C 0.07188 0.44337 0.77584
 C442 C 0.07213 0.42274 0.75076
 C443 C 0.05102 0.42705 0.72691
 C444 C 0.03125 0.45245 0.72727
 H445 H -0.05769 0.48263 0.71033
 H446 H -0.08959 0.43649 0.71083
 H447 H -0.04892 0.40949 0.79673
 H448 H -0.01704 0.45622 0.79613
 H449 H -0.02074 0.54913 0.71184
 H450 H -0.05510 0.59392 0.71439
 H451 H -0.05550 0.51800 0.79880
 H452 H 0.01851 0.54616 0.79658
 H453 H 0.05287 0.59088 0.79716
 H454 H 0.08376 0.56719 0.70578
 H455 H 0.04932 0.52263 0.70544
 H456 H 0.05302 0.48465 0.79532
 H457 H 0.08675 0.44009 0.79535
 H458 H 0.05048 0.41126 0.70755
 H459 H 0.01585 0.45602 0.70820
 H460 H -0.08909 0.56256 0.80196
 C461 C 0.34989 0.24756 0.14519
 C462 C 0.35190 0.26814 0.12248
 C463 C 0.37726 0.26866 0.09985
 C464 C 0.39448 0.24396 0.09284
 H465 H 0.33526 0.28651 0.12108
 H466 H 0.38159 0.29048 0.08887
 H467 H 0.36731 0.23012 0.14788
 H468 H 0.38965 0.22215 0.10365
 C469 C 0.64943 0.75324 0.14467
 C470 C 0.64676 0.73209 0.12215
 C471 C 0.62150 0.73146 0.09965
 C472 C 0.60520 0.75634 0.09178
 H473 H 0.66269 0.71306 0.12072
 H474 H 0.61662 0.70931 0.08928
 H475 H 0.63247 0.77125 0.14708
 H476 H 0.61048 0.77845 0.10211
 C477 C 0.65712 0.24917 -0.14438
 C478 C 0.63276 0.23039 -0.14482
 C479 C 0.60789 0.23017 -0.12182
 C480 C 0.60828 0.24505 -0.09470
 H481 H 0.62997 0.21427 -0.16364
 H482 H 0.58813 0.21654 -0.12813
 H483 H 0.65988 0.26628 -0.12647
 H484 H 0.62738 0.25965 -0.08853
 C485 C 0.34395 0.75080 -0.14625
 C486 C 0.36878 0.76895 -0.14683
 C487 C 0.39374 0.76886 -0.12401
 C488 C 0.39305 0.75445 -0.09686
 H489 H 0.37190 0.78472 -0.16565
 H490 H 0.41385 0.78181 -0.13051
 H491 H 0.34080 0.73407 -0.12829
 H492 H 0.37352 0.74058 -0.09052
 C493 C 0.14513 0.34577 0.24300
 C494 C 0.12513 0.34983 0.26604
 C495 C 0.10320 0.37567 0.26780
 C496 C 0.09182 0.39022 0.24330
 H497 H 0.12626 0.33517 0.28594
 H498 H 0.09546 0.38211 0.29056
 H499 H 0.14548 0.36158 0.22393
 H500 H 0.09706 0.38179 0.22045
 C501 C 0.13810 0.66083 0.75501
 C502 C 0.13353 0.64021 0.77736
 C503 C 0.10836 0.61737 0.77726
 C504 C 0.09441 0.60728 0.75170
 H505 H 0.14822 0.64014 0.79729
 H506 H 0.10309 0.60678 0.79903
 H507 H 0.12226 0.66199 0.73601
 H508 H 0.10186 0.61560 0.72958
 C509 C -0.14949 0.65162 0.23079
 C510 C -0.12693 0.64621 0.25074
 C511 C -0.10526 0.62077 0.24502
 C512 C -0.08656 0.61071 0.26700
 H513 H -0.12487 0.65973 0.27163
 H514 H -0.10584 0.60903 0.22300
 H515 H -0.15135 0.63703 0.21056
 H516 H -0.08774 0.62119 0.28963
 C517 C -0.14423 0.34706 0.75338
 C518 C -0.12344 0.35085 0.73100
 C519 C -0.10197 0.37709 0.73007
 C520 C -0.09127 0.39152 0.75516
 H521 H -0.12340 0.33576 0.71115
 H522 H -0.09397 0.38391 0.70761
 H523 H -0.14527 0.36348 0.77218
 H524 H -0.09670 0.38263 0.77767
 C525 C 0.25083 0.14632 0.34651
 C526 C 0.23116 0.14595 0.37014
 C527 C 0.23174 0.12357 0.39553
 C528 C 0.24698 0.09668 0.39521
 H529 H 0.21399 0.16380 0.37207
 H530 H 0.21845 0.13015 0.41546
 H531 H 0.26901 0.12951 0.34480
 H532 H 0.26078 0.09030 0.37556
 C533 C 0.75358 0.14683 0.65001
 C534 C 0.73211 0.12485 0.64765
 C535 C 0.73115 0.10176 0.62250
 C536 C 0.75586 0.09307 0.60627
 H537 H 0.71329 0.12444 0.66380
 H538 H 0.70901 0.09182 0.61755
 H539 H 0.77152 0.14860 0.63298
 H540 H 0.77795 0.10290 0.61176
 C541 C 0.24832 -0.14748 0.64924
 C542 C 0.27019 -0.12593 0.64671
 C543 C 0.27147 -0.10306 0.62170
 C544 C 0.24698 -0.09424 0.60545
 H545 H 0.28909 -0.12570 0.66268
 H546 H 0.29373 -0.09332 0.61694
 H547 H 0.23020 -0.14907 0.63245
 H548 H 0.22477 -0.10388 0.61071
 C549 C 0.75257 -0.14914 0.34554
 C550 C 0.77296 -0.14856 0.36844
 C551 C 0.77315 -0.12570 0.39383
 C552 C 0.75807 -0.09871 0.39380
 H553 H 0.79009 -0.16648 0.36973
 H554 H 0.78677 -0.13200 0.41346
 H555 H 0.73448 -0.13221 0.34451
 H556 H 0.74404 -0.09254 0.37441
 C557 C 0.65185 0.75662 -0.14545
 C558 C 0.64738 0.73335 -0.12593
 C559 C 0.62147 0.73211 -0.10415
 C560 C 0.60762 0.75717 -0.09242
 H561 H 0.66182 0.71314 -0.12727
 H562 H 0.61439 0.70942 -0.09687
 H563 H 0.63623 0.77596 -0.14561
 H564 H 0.61677 0.77982 -0.09721
 C565 C 0.34345 0.26212 -0.14384
 C566 C 0.36078 0.23956 -0.13258
 C567 C 0.38408 0.24655 -0.10918
 C568 C 0.39918 0.22420 -0.09467
 H569 H 0.35785 0.21605 -0.14059
 H570 H 0.38876 0.27048 -0.10373
 H571 H 0.34583 0.28531 -0.13472
 H572 H 0.39286 0.20039 -0.09890
 C573 C 0.33983 0.75444 0.13779
 C574 C 0.35883 0.77796 0.13197
 C575 C 0.38174 0.77801 0.10694
 C576 C 0.39294 0.75237 0.09370
 H577 H 0.35744 0.79876 0.14573
 H578 H 0.39143 0.80018 0.10120
 H579 H 0.33969 0.73421 0.12316
 H580 H 0.38540 0.73004 0.10156
 C581 C 0.65434 0.24598 0.14568
 C582 C 0.64986 0.26961 0.12661
 C583 C 0.62436 0.27078 0.10442
 C584 C 0.61129 0.24562 0.09205
 H585 H 0.66396 0.29003 0.12858
 H586 H 0.61698 0.29345 0.09744
 H587 H 0.63905 0.22637 0.14518
 H588 H 0.62086 0.22313 0.09667
 C589 C -0.14751 0.65571 0.75361
 C590 C -0.14686 0.63223 0.77345
 C591 C -0.12414 0.60699 0.77289
 C592 C -0.09730 0.60760 0.75778
 H593 H -0.16456 0.63019 0.79070
 H594 H -0.13039 0.58691 0.78601
 H595 H -0.13057 0.65718 0.73557
 H596 H -0.09115 0.62737 0.74417
 C597 C -0.14484 0.34581 0.25019
 C598 C -0.14499 0.37017 0.23149
 C599 C -0.12244 0.39557 0.23225
 C600 C -0.09530 0.39475 0.24667
 H601 H -0.16333 0.37267 0.21509
 H602 H -0.12911 0.41597 0.21990
 H603 H -0.12744 0.34343 0.26758
 H604 H -0.08878 0.37462 0.25955
 C605 C 0.14402 0.34786 0.74534
 C606 C 0.14511 0.37379 0.76219
 C607 C 0.12189 0.39849 0.76222
 C608 C 0.09421 0.39685 0.74898
 H609 H 0.16459 0.37802 0.77688
 H610 H 0.12851 0.41928 0.77432
 H611 H 0.12539 0.34357 0.72963
 H612 H 0.08766 0.37674 0.73577
 C613 C 0.14696 0.65160 0.24862
 C614 C 0.12504 0.64978 0.27012
 C615 C 0.10257 0.62437 0.27181
 C616 C 0.09400 0.60734 0.24748
 H617 H 0.12432 0.66659 0.28855
 H618 H 0.09289 0.62018 0.29420
 H619 H 0.14907 0.63393 0.23112
 H620 H 0.10350 0.61251 0.22517
 C621 C 0.75589 -0.14241 0.65423
 C622 C 0.73293 -0.12252 0.64968
 C623 C 0.73195 -0.10112 0.62355
 C624 C 0.75700 -0.08993 0.60969
 H625 H 0.71278 -0.12338 0.66411
 H626 H 0.70949 -0.09375 0.61624
 H627 H 0.77515 -0.14309 0.63858
 H628 H 0.77940 -0.09475 0.61907
 C629 C 0.24663 -0.14237 0.34478
 C630 C 0.26956 -0.12218 0.34840
 C631 C 0.27116 -0.10016 0.37432
 C632 C 0.24643 -0.08883 0.38877
 H633 H 0.28924 -0.12320 0.33332
 H634 H 0.29378 -0.09250 0.38097
 H635 H 0.22791 -0.14286 0.36109
 H636 H 0.22381 -0.09400 0.38003
 C637 C 0.75714 0.13634 0.33989
 C638 C 0.77978 0.13170 0.36001
 C639 C 0.77972 0.10689 0.38307
 C640 C 0.75420 0.09328 0.39350
 H641 H 0.79991 0.14621 0.35941
 H642 H 0.80154 0.10162 0.39348
 H643 H 0.73775 0.12087 0.33899
 H644 H 0.73209 0.10076 0.38528
 C645 C 0.24652 0.13574 0.66376
 C646 C 0.22357 0.12963 0.64428
 C647 C 0.22427 0.10497 0.62073
 C648 C 0.25012 0.09313 0.60891
 H649 H 0.20265 0.14289 0.64570
 H650 H 0.20243 0.09859 0.61091
 H651 H 0.26675 0.12139 0.66402
 H652 H 0.27205 0.10178 0.61662
   
