data_POSCAR
  _audit_creation_date              2014-09-24
  _audit_creation_method            'ToBaCCo'
  _symmetry_space_group_name_H-M    'P1'
  _symmetry_Int_Tables_number       1
  _symmetry_cell_setting            triclinic
  loop_
  _symmetry_equiv_pos_as_xyz
 x,y,z
_cell_length_a 22.5716
_cell_length_b 21.1877
_cell_length_c 21.0657
_cell_angle_alpha 88.798500
_cell_angle_beta 87.995400
_cell_angle_gamma 88.022700
loop_
  _atom_site_label
  _atom_site_type_symbol
  _atom_site_fract_x
  _atom_site_fract_y
  _atom_site_fract_z
C1 C -0.08405 0.52052 0.31525
 C2 C -0.02624 0.52610 0.28955
 C3 C -0.00592 0.58619 0.27247
 C4 C -0.03937 0.64104 0.28780
 C5 C -0.09497 0.63521 0.31846
 C6 C -0.11938 0.57507 0.32991
 C7 C 0.01700 0.47185 0.28926
 C8 C 0.01046 0.41725 0.25314
 C9 C 0.05668 0.37041 0.24958
 C10 C 0.10823 0.37865 0.28462
 C11 C 0.11405 0.43224 0.32140
 C12 C 0.06832 0.47799 0.32381
 H13 H -0.10001 0.47393 0.32713
 H14 H 0.03739 0.59034 0.24905
 H15 H -0.02881 0.41287 0.22566
 H16 H 0.07350 0.51992 0.35152
 H17 H -0.12181 0.67802 0.32512
 H18 H 0.14402 0.34329 0.28398
 C19 C -0.09857 0.49174 0.71171
 C20 C -0.04099 0.47092 0.72724
 C21 C -0.03143 0.40755 0.74839
 C22 C -0.07928 0.36534 0.75500
 C23 C -0.13620 0.38914 0.73861
 C24 C -0.14589 0.45158 0.71827
 C25 C 0.00650 0.51844 0.72627
 C26 C -0.00773 0.57813 0.75177
 C27 C 0.03472 0.62441 0.75459
 C28 C 0.09232 0.61162 0.72939
 C29 C 0.10642 0.55455 0.69836
 C30 C 0.06384 0.50703 0.69872
 H31 H -0.10659 0.53935 0.69335
 H32 H 0.01283 0.39221 0.76147
 H33 H -0.05139 0.58729 0.77346
 H34 H 0.07443 0.46269 0.67556
 H35 H -0.17456 0.36032 0.74012
 H36 H 0.12525 0.64763 0.73043
 C37 C 0.29607 -0.06704 0.51388
 C38 C 0.26846 -0.00736 0.51522
 C39 C 0.25228 0.02041 0.57340
 C40 C 0.26627 -0.01070 0.63031
 C41 C 0.30060 -0.06740 0.62842
 C42 C 0.31429 -0.09667 0.57031
 C43 C 0.27292 0.03251 0.45839
 C44 C 0.23541 0.02847 0.40717
 C45 C 0.23894 0.07346 0.35673
 C46 C 0.28242 0.11933 0.35774
 C47 C 0.32148 0.11954 0.40713
 C48 C 0.31686 0.07662 0.45708
 H49 H 0.30911 -0.08715 0.46831
 H50 H 0.22838 0.06566 0.57396
 H51 H 0.20193 -0.00704 0.40852
 H52 H 0.34554 0.07995 0.49717
 H53 H 0.31114 -0.09181 0.67256
 H54 H 0.28732 0.15460 0.32017
 C55 C 0.70719 -0.08231 0.48346
 C56 C 0.74068 -0.02770 0.48049
 C57 C 0.76106 -0.00465 0.42090
 C58 C 0.74493 -0.03274 0.36448
 C59 C 0.70649 -0.08347 0.36806
 C60 C 0.68830 -0.10957 0.42732
 C61 C 0.74007 0.01466 0.53567
 C62 C 0.76851 -0.00027 0.59319
 C63 C 0.76177 0.04113 0.64533
 C64 C 0.72836 0.09801 0.63690
 C65 C 0.70004 0.11298 0.58007
 C66 C 0.70627 0.07097 0.53008
 H67 H 0.69087 -0.09967 0.52938
 H68 H 0.78765 0.03704 0.41845
 H69 H 0.79409 -0.04425 0.59766
 H70 H 0.68377 0.08154 0.48626
 H71 H 0.69509 -0.10623 0.32479
 H72 H 0.72778 0.13304 0.67341
 C73 C 0.47614 0.25932 1.07514
 C74 C 0.47725 0.22286 1.02022
 C75 C 0.43077 0.18322 1.00934
 C76 C 0.37985 0.18436 1.04939
 C77 C 0.37739 0.22405 1.10264
 C78 C 0.42705 0.25894 1.11832
 C79 C 0.52754 0.22557 0.97414
 C80 C 0.57822 0.18762 0.98396
 C81 C 0.62895 0.19347 0.94398
 C82 C 0.62767 0.23817 0.89308
 C83 C 0.57458 0.27204 0.87922
 C84 C 0.52487 0.26579 0.92058
 H85 H 0.51411 0.28725 1.08438
 H86 H 0.43280 0.15468 0.96711
 H87 H 0.57895 0.15604 1.02513
 H88 H 0.48432 0.29296 0.91165
 H89 H 0.33766 0.22550 1.13295
 H90 H 0.66631 0.24305 0.86156
 C91 C 0.52250 0.75060 1.07680
 C92 C 0.52624 0.77372 1.01443
 C93 C 0.57850 0.80164 0.99070
 C94 C 0.62732 0.80742 1.03023
 C95 C 0.62214 0.78212 1.09327
 C96 C 0.57091 0.75225 1.11599
 C97 C 0.47916 0.75646 0.97234
 C98 C 0.42064 0.78032 0.98134
 C99 C 0.37421 0.75725 0.94574
 C100 C 0.38760 0.70562 0.90583
 C101 C 0.44574 0.68179 0.89755
 C102 C 0.49151 0.70828 0.92938
 H103 H 0.48303 0.72633 1.09291
 H104 H 0.58043 0.81720 0.94153
 H105 H 0.41217 0.81773 1.01509
 H106 H 0.53671 0.69018 0.92186
 H107 H 0.65832 0.78474 1.12534
 H108 H 0.35395 0.68387 0.87936
 B109 B 1.00568 1.06457 0.03700
 B110 B 1.00931 1.05729 -0.04593
 B111 B 1.06920 1.03561 -0.00199
 B112 B 1.04423 0.99975 0.06747
 B113 B 0.96836 1.00238 0.06811
 B114 B 0.94696 1.03757 -0.00162
 B115 B 1.01030 0.92677 -0.03062
 B116 B 1.00685 0.93332 0.05007
 B117 B 0.94688 0.95724 0.00691
 B118 B 0.97297 0.99050 -0.06307
 B119 B 1.04925 0.98913 -0.06289
 B120 B 1.07100 0.95471 0.00694
 B121 B 0.55381 0.50007 0.44624
 B122 B 0.55605 0.49554 0.52694
 B123 B 0.53239 0.56446 0.48999
 B124 B 0.49268 0.54496 0.42624
 B125 B 0.49178 0.46456 0.42389
 B126 B 0.52972 0.43451 0.48653
 B127 B 0.43304 0.50363 0.53607
 B128 B 0.43141 0.50594 0.45356
 B129 B 0.45476 0.43935 0.49241
 B130 B 0.49464 0.45849 0.55580
 B131 B 0.49643 0.53852 0.55749
 B132 B 0.45637 0.56820 0.49490
 C133 C 0.99937 1.23527 0.15838
 C134 C 1.05191 1.21025 0.13122
 N135 N 1.10387 1.23800 0.14076
 C136 C 1.10599 1.28964 0.17740
 C137 C 1.05365 1.31489 0.20699
 N138 N 1.00100 1.28711 0.19600
 N139 N 0.94794 1.20627 0.14742
 C140 C 0.94709 1.15434 0.10974
 C141 C 1.00029 1.12961 0.08018
 N142 N 1.05052 1.15854 0.09486
 H143 H 1.14833 1.31099 0.18253
 H144 H 0.90528 1.13233 0.10465
 C145 C 0.98369 0.75599 0.16228
 C146 C 0.99203 0.81213 0.19421
 N147 N 0.98941 0.81075 0.25897
 C148 C 0.97932 0.75557 0.29212
 C149 C 0.97553 0.69862 0.25900
 N150 N 0.97763 0.70106 0.19481
 N151 N 0.97337 0.75830 0.10008
 C152 C 0.97617 0.81317 0.06712
 C153 C 0.99813 0.86810 0.09432
 N154 N 0.99994 0.86698 0.15956
 H155 H 0.97574 0.75576 0.34349
 H156 H 0.95597 0.81352 0.02198
 C157 C 0.99392 1.22353 -0.17474
 C158 C 0.94623 1.18463 -0.16166
 N159 N 0.89170 1.20310 -0.18077
 C160 C 0.88210 1.25987 -0.21045
 C161 C 0.92939 1.30220 -0.22059
 N162 N 0.98465 1.28115 -0.20335
 N163 N 1.04857 1.20374 -0.15676
 C164 C 1.05650 1.14942 -0.12193
 C165 C 1.00717 1.11477 -0.09971
 N166 N 0.95410 1.13148 -0.12529
 H167 H 0.83726 1.27071 -0.22358
 H168 H 1.10111 1.13502 -0.11214
 C169 C 1.03878 0.74770 -0.12885
 C170 C 0.99097 0.78817 -0.14539
 N171 N 0.95704 0.77237 -0.19433
 C172 C 0.96946 0.71848 -0.22743
 C173 C 1.02046 0.68075 -0.21378
 N174 N 1.05354 0.69656 -0.16432
 N175 N 1.06807 0.75833 -0.07572
 C176 C 1.05474 0.81006 -0.04088
 C177 C 1.01339 0.85705 -0.06225
 N178 N 0.98013 0.84277 -0.11277
 H179 H 0.94129 0.70650 -0.26564
 H180 H 1.07704 0.81438 0.00316
 C181 C 1.14635 1.01027 0.23800
 C182 C 1.13299 1.06403 0.20085
 N183 N 1.15261 1.12080 0.21728
 C184 C 1.18630 1.12605 0.26874
 C185 C 1.20076 1.07173 0.30602
 N186 N 1.17920 1.01536 0.28990
 N187 N 1.13026 0.95307 0.21888
 C188 C 1.09933 0.94765 0.16541
 C189 C 1.08213 1.00207 0.12979
 N190 N 1.10126 1.05852 0.14826
 H191 H 1.19994 1.17256 0.28088
 H192 H 1.09576 0.90121 0.14701
 C193 C 1.17164 0.96416 -0.22845
 C194 C 1.15802 1.02470 -0.20611
 N195 N 1.18261 1.07512 -0.23701
 C196 C 1.21959 1.06666 -0.28934
 C197 C 1.23321 1.00493 -0.31050
 N198 N 1.20862 0.95583 -0.27893
 N199 N 1.14570 0.91410 -0.20151
 C200 C 1.10674 0.92100 -0.15241
 C201 C 1.09280 0.98092 -0.12632
 N202 N 1.11954 1.03161 -0.15496
 H203 H 1.23774 1.10724 -0.31415
 H204 H 1.08929 0.87844 -0.13546
 C205 C 0.86279 1.01095 0.24700
 C206 C 0.83506 1.00638 0.18899
 N207 N 0.77633 0.99412 0.18907
 C208 C 0.74485 0.98437 0.24468
 C209 C 0.77350 0.98670 0.30301
 N210 N 0.83165 1.00134 0.30222
 N211 N 0.92141 1.02108 0.24740
 C212 C 0.95464 1.02274 0.19270
 C213 C 0.92888 1.01190 0.13385
 N214 N 0.86849 1.00832 0.13389
 H215 H 0.69840 0.97363 0.24328
 H216 H 0.99994 1.03332 0.19701
 C217 C 0.87291 0.99090 -0.23886
 C218 C 0.84904 1.01803 -0.18311
 N219 N 0.79524 1.04819 -0.18392
 C220 C 0.76492 1.05417 -0.23841
 C221 C 0.78928 1.02880 -0.29582
 N222 N 0.84245 0.99612 -0.29367
 N223 N 0.92767 0.96271 -0.23802
 C224 C 0.95966 0.96086 -0.18437
 C225 C 0.93610 0.98770 -0.12773
 N226 N 0.88080 1.01551 -0.12939
 H227 H 0.72171 1.07788 -0.23631
 H228 H 1.00263 0.93821 -0.18681
 C229 C 1.22820 1.14538 0.01794
 C230 C 1.23405 1.08132 0.00313
 N231 N 1.28889 1.05283 0.00119
 C232 C 1.33775 1.08568 0.01434
 C233 C 1.33110 1.14890 0.03426
 N234 N 1.27607 1.17706 0.03512
 N235 N 1.17501 1.17558 0.01258
 C236 C 1.12660 1.14338 -0.00172
 C237 C 1.12929 1.07689 -0.00512
 N238 N 1.18444 1.04842 -0.00685
 H239 H 1.38093 1.06179 0.01235
 H240 H 1.08589 1.17018 -0.00892
 C241 C 0.78436 1.15017 -0.03269
 C242 C 0.78161 1.08609 -0.01509
 N243 N 0.72812 1.05879 -0.01045
 C244 C 0.67739 1.09281 -0.02270
 C245 C 0.68032 1.15652 -0.04366
 N246 N 0.73427 1.18327 -0.04836
 N247 N 0.83678 1.17896 -0.03161
 C248 C 0.88705 1.14597 -0.01660
 C249 C 0.88627 1.07991 -0.00618
 N250 N 0.83258 1.05219 -0.00363
 H251 H 0.63545 1.06952 -0.01862
 H252 H 0.92780 1.17117 -0.01584
 C253 C 1.24906 0.85866 0.00099
 C254 C 1.20680 0.84795 -0.04365
 N255 N 1.21953 0.80713 -0.09110
 C256 C 1.27302 0.77598 -0.09569
 C257 C 1.31676 0.78645 -0.05062
 N258 N 1.30298 0.82848 -0.00366
 N259 N 1.23619 0.90076 0.04715
 C260 C 1.18219 0.93111 0.05168
 C261 C 1.13728 0.91885 0.00836
 N262 N 1.15342 0.87882 -0.03918
 H263 H 1.28096 0.74587 -0.13591
 H264 H 1.17840 0.96851 0.08487
 C265 C 0.77700 0.86383 0.04018
 C266 C 0.79045 0.88926 -0.02010
 N267 N 0.74855 0.88733 -0.06507
 C268 C 0.69448 0.86126 -0.05182
 C269 C 0.68140 0.83553 0.00979
 N270 N 0.72421 0.83822 0.05302
 N271 N 0.81593 0.86641 0.08645
 C272 C 0.86826 0.89363 0.07596
 C273 C 0.88444 0.91998 0.01576
 N274 N 0.84422 0.91670 -0.03153
 H275 H 0.66289 0.86109 -0.08908
 H276 H 0.89498 0.89633 0.11667
 C277 C 0.73274 0.51197 0.36047
 C278 C 0.70470 0.56080 0.39359
 N279 N 0.73444 0.61298 0.40667
 C280 C 0.79178 0.61882 0.38714
 C281 C 0.82143 0.56963 0.35301
 N282 N 0.79064 0.51672 0.34105
 N283 N 0.69927 0.45861 0.34747
 C284 C 0.64054 0.45235 0.37029
 C285 C 0.61582 0.50319 0.40600
 N286 N 0.64844 0.55467 0.41498
 H287 H 0.81396 0.66054 0.40083
 H288 H 0.67822 0.43536 0.34281
 C289 C 0.26953 0.47223 0.35082
 C290 C 0.26852 0.47574 0.41706
 N291 N 0.21784 0.46349 0.45101
 C292 C 0.16792 0.44793 0.42140
 C293 C 0.16894 0.44340 0.35490
 N294 N 0.21990 0.45604 0.32106
 N295 N 0.32007 0.48550 0.31734
 C296 C 0.37008 0.50044 0.34719
 C297 C 0.37068 0.50120 0.41434
 N298 N 0.31878 0.48965 0.44659
 H299 H 0.12771 0.43939 0.44933
 H300 H 0.40913 0.50960 0.31815
 C301 C 0.72950 0.45916 0.61120
 C302 C 0.68594 0.49566 0.64409
 N303 N 0.69894 0.51940 0.70138
 C304 C 0.75336 0.50775 0.72664
 C305 C 0.79622 0.47042 0.69316
 N306 N 0.78283 0.44714 0.63642
 N307 N 0.71796 0.43518 0.55469
 C308 C 0.66502 0.44624 0.52848
 C309 C 0.61997 0.48335 0.55961
 N310 N 0.63182 0.50657 0.61796
 H311 H 0.76278 0.52639 0.77251
 H312 H 0.65909 0.42394 0.48442
 C313 C 0.26488 0.51547 0.65163
 C314 C 0.27046 0.54608 0.59230
 N315 N 0.22246 0.57745 0.56827
 C316 C 0.16924 0.57948 0.60101
 C317 C 0.16325 0.54850 0.66055
 N318 N 0.21170 0.51739 0.68465
 N319 N 0.31311 0.48514 0.67572
 C320 C 0.36604 0.48226 0.64264
 C321 C 0.37211 0.51021 0.58129
 N322 N 0.32353 0.54300 0.55919
 H323 H 0.13190 0.60539 0.58105
 H324 H 0.40237 0.45949 0.66577
 C325 C 0.50798 0.67152 0.25977
 C326 C 0.55775 0.64007 0.28441
 N327 N 0.61204 0.64895 0.25652
 C328 C 0.61848 0.68728 0.20421
 C329 C 0.56811 0.71781 0.17813
 N330 N 0.51413 0.70908 0.20734
 N331 N 0.45384 0.66234 0.28730
 C332 C 0.44713 0.62301 0.33853
 C333 C 0.49655 0.59002 0.36350
 N334 N 0.55082 0.60034 0.33526
 H335 H 0.66206 0.69131 0.18183
 H336 H 0.40329 0.61695 0.35755
 C337 C 0.49651 0.63322 0.73958
 C338 C 0.47307 0.57328 0.73488
 N339 N 0.44427 0.54706 0.78617
 C340 C 0.43699 0.57927 0.84138
 C341 C 0.46020 0.63973 0.84512
 N342 N 0.48984 0.66471 0.79427
 N343 N 0.52010 0.66211 0.68769
 C344 C 0.52146 0.63407 0.63077
 C345 C 0.49889 0.57331 0.62455
 N346 N 0.47561 0.54460 0.67782
 H347 H 0.41215 0.55888 0.88115
 H348 H 0.53515 0.66278 0.59144
 C349 C 0.47495 0.37076 0.24080
 C350 C 0.44150 0.35241 0.29466
 N351 N 0.40252 0.30542 0.29028
 C352 C 0.39569 0.27561 0.23441
 C353 C 0.42957 0.29343 0.17968
 N354 N 0.46852 0.34093 0.18493
 N355 N 0.51344 0.41812 0.24524
 C356 C 0.52042 0.44757 0.30124
 C357 C 0.48814 0.42852 0.35659
 N358 N 0.44873 0.38169 0.35062
 H359 H 0.36544 0.23722 0.23370
 H360 H 0.55012 0.48606 0.30151
 C361 C 0.51508 0.33891 0.72840
 C362 C 0.55383 0.38750 0.71347
 N363 N 0.60022 0.39640 0.75147
 C364 C 0.60910 0.35911 0.80413
 C365 C 0.56903 0.31150 0.82043
 N366 N 0.52291 0.30273 0.78174
 N367 N 0.47036 0.32836 0.68912
 C368 C 0.46240 0.36418 0.63554
 C369 C 0.49971 0.41511 0.62072
 N370 N 0.54490 0.42440 0.66073
 H371 H 0.64612 0.36747 0.83379
 H372 H 0.42566 0.35402 0.60713
 C373 C 0.63374 0.73787 0.47990
 C374 C 0.58688 0.72964 0.43939
 N375 N 0.57516 0.77430 0.39396
 C376 C 0.60821 0.82683 0.38762
 C377 C 0.65333 0.83682 0.43084
 N378 N 0.66437 0.79172 0.47618
 N379 N 0.64976 0.69075 0.52051
 C380 C 0.62065 0.63588 0.52316
 C381 C 0.57026 0.62833 0.48635
 N382 N 0.55524 0.67617 0.44487
 H383 H 0.59757 0.86160 0.35104
 H384 H 0.63552 0.60077 0.55615
 C385 C 0.62445 0.25208 0.50270
 C386 C 0.60307 0.28559 0.55541
 N387 N 0.61108 0.26210 0.61479
 C388 C 0.64086 0.20635 0.62424
 C389 C 0.66499 0.17297 0.57167
 N390 N 0.65531 0.19666 0.51185
 N391 N 0.61408 0.27578 0.44340
 C392 C 0.58371 0.33205 0.43491
 C393 C 0.56368 0.36673 0.48834
 N394 N 0.57420 0.34139 0.54666
 H395 H 0.64466 0.18852 0.67239
 H396 H 0.57586 0.34902 0.38727
 C397 C 0.35730 0.74697 0.51601
 C398 C 0.40628 0.73184 0.55273
 N399 N 0.42194 0.77202 0.59812
 C400 C 0.39094 0.82743 0.60756
 C401 C 0.34425 0.84475 0.56728
 N402 N 0.32872 0.80353 0.52263
 N403 N 0.33767 0.70402 0.47590
 C404 C 0.36618 0.64707 0.46938
 C405 C 0.41918 0.63358 0.50127
 N406 N 0.43662 0.67649 0.54321
 H407 H 0.40496 0.85904 0.64341
 H408 H 0.34615 0.61331 0.44055
 C409 C 0.35753 0.27247 0.46495
 C410 C 0.41880 0.27329 0.45251
 N411 N 0.44747 0.22407 0.42320
 C412 C 0.41689 0.17378 0.40538
 C413 C 0.35544 0.17411 0.41681
 N414 N 0.32728 0.22283 0.44702
 N415 N 0.32912 0.32141 0.49447
 C416 C 0.35891 0.37325 0.50883
 C417 C 0.41930 0.37689 0.49079
 N418 N 0.44793 0.32526 0.46600
 H419 H 0.44010 0.13398 0.38327
 H420 H 0.33488 0.41080 0.53287
   
