data_POSCAR
  _audit_creation_date              2014-09-24
  _audit_creation_method            'ToBaCCo'
  _symmetry_space_group_name_H-M    'P1'
  _symmetry_Int_Tables_number       1
  _symmetry_cell_setting            triclinic
  loop_
  _symmetry_equiv_pos_as_xyz
 x,y,z
_cell_length_a 31.3715
_cell_length_b 30.6483
_cell_length_c 17.4645
_cell_angle_alpha 90.478400
_cell_angle_beta 90.484300
_cell_angle_gamma 89.961700
loop_
  _atom_site_label
  _atom_site_type_symbol
  _atom_site_fract_x
  _atom_site_fract_y
  _atom_site_fract_z
O1 O 0.22540 0.28092 0.16567
 O2 O 0.30326 0.19783 0.22594
 O3 O 0.22984 0.19634 0.15447
 O4 O 0.29868 0.28219 0.23661
 O5 O 0.26575 0.27651 0.34736
 O6 O 0.19746 0.19005 0.26553
 O7 O 0.27073 0.19238 0.33710
 O8 O 0.19242 0.27498 0.27627
 Cu9 Cu 0.26752 0.23987 0.18448
 Cu10 Cu 0.22815 0.23283 0.31757
 C11 C 0.19568 0.29217 0.21070
 C12 C 0.30059 0.18136 0.29217
 C13 C 0.20187 0.17852 0.19593
 C14 C 0.29414 0.29378 0.30609
 O15 O 0.72131 0.21577 0.28675
 O16 O 0.79880 0.29917 0.22980
 O17 O 0.72558 0.30069 0.29897
 O18 O 0.79397 0.21584 0.21371
 O19 O 0.75952 0.22216 0.10347
 O20 O 0.69173 0.30756 0.18832
 O21 O 0.76464 0.30724 0.11974
 O22 O 0.68735 0.22306 0.17634
 Cu23 Cu 0.76315 0.25699 0.26855
 Cu24 Cu 0.72247 0.26563 0.13579
 C25 C 0.69106 0.20528 0.24145
 C26 C 0.79495 0.31754 0.16530
 C27 C 0.69708 0.31873 0.25784
 C28 C 0.78869 0.20495 0.14391
 O29 O 0.72706 0.77887 0.66009
 O30 O 0.80393 0.69813 0.73180
 O31 O 0.72830 0.69370 0.66811
 O32 O 0.80002 0.78300 0.73084
 O33 O 0.76955 0.78306 0.84433
 O34 O 0.69584 0.69709 0.77972
 O35 O 0.77197 0.69840 0.84396
 O36 O 0.69658 0.78191 0.77351
 Cu37 Cu 0.76790 0.73811 0.68638
 Cu38 Cu 0.73029 0.74003 0.82160
 C39 C 0.69917 0.79468 0.70467
 C40 C 0.80133 0.68468 0.80003
 C41 C 0.69941 0.68069 0.71323
 C42 C 0.79703 0.79811 0.79873
 O43 O 0.23428 0.71624 0.86118
 O44 O 0.30980 0.80491 0.81749
 O45 O 0.23201 0.80104 0.86496
 O46 O 0.31482 0.72087 0.81635
 O47 O 0.29067 0.71797 0.69722
 O48 O 0.21031 0.80165 0.74442
 O49 O 0.28863 0.80252 0.69656
 O50 O 0.21123 0.71691 0.74137
 Cu51 Cu 0.27488 0.76040 0.85224
 Cu52 Cu 0.24792 0.75953 0.70790
 C53 C 0.20913 0.70232 0.80890
 C54 C 0.31234 0.81838 0.74911
 C55 C 0.20738 0.81554 0.81294
 C56 C 0.31730 0.70633 0.74834
 C57 C 0.97011 0.09626 0.14938
 C58 C 1.01381 0.09641 0.15081
 C59 C 1.02683 0.07129 0.08893
 N60 N 0.99255 0.05671 0.04892
 C61 C 0.95781 0.07220 0.08533
 C62 C 1.06937 0.06558 0.06511
 C63 C 1.08086 0.03479 0.00847
 C64 C 1.11968 0.03354 -0.02891
 C65 C 1.11979 -0.00397 -0.07283
 C66 C 1.08121 -0.02471 -0.06042
 N67 N 1.05762 -0.00076 -0.01121
 C68 C 1.06995 -0.06657 -0.08843
 C69 C 1.02738 -0.08128 -0.09092
 C70 C 1.01493 -0.12399 -0.10482
 C71 C 0.97123 -0.12409 -0.10532
 C72 C 0.95841 -0.08132 -0.09266
 N73 N 0.99283 -0.05521 -0.08368
 C74 C 0.91572 -0.06641 -0.09345
 C75 C 0.90378 -0.02510 -0.06399
 C76 C 0.86477 -0.00507 -0.07701
 C77 C 0.86476 0.03299 -0.03458
 C78 C 0.90368 0.03507 0.00362
 N79 N 0.92723 -0.00052 -0.01462
 C80 C 0.91553 0.06787 0.05723
 H81 H 0.94983 0.11261 0.19039
 H82 H 1.03340 0.11355 0.19242
 H83 H 0.95560 -0.01001 0.01160
 H84 H 1.14560 0.05668 -0.02385
 H85 H 1.14570 -0.01512 -0.10853
 H86 H 1.03518 -0.15223 -0.11295
 H87 H 0.95131 -0.15257 -0.11358
 H88 H 0.83883 0.05624 -0.03179
 H89 H 1.02981 -0.01105 0.01522
 H90 H 0.83891 -0.01672 -0.11312
 C91 C 0.51800 0.37037 0.40591
 C92 C 0.47450 0.36814 0.41190
 C93 C 0.46063 0.40991 0.42983
 N94 N 0.49410 0.43746 0.43571
 C95 C 0.52917 0.41337 0.42096
 C96 C 0.41763 0.42310 0.43471
 C97 C 0.40554 0.46338 0.46759
 C98 C 0.36567 0.48234 0.45948
 C99 C 0.36592 0.51954 0.50394
 C100 C 0.40590 0.52215 0.53844
 N101 N 0.42991 0.48783 0.51566
 C102 C 0.41824 0.55369 0.59389
 C103 C 0.46161 0.56051 0.61386
 C104 C 0.47653 0.58261 0.67829
 C105 C 0.52004 0.58539 0.67129
 C106 C 0.53035 0.56412 0.60361
 N107 N 0.49466 0.54884 0.56875
 C108 C 0.57151 0.56190 0.57162
 C109 C 0.58104 0.53218 0.51160
 C110 C 0.61485 0.53547 0.46120
 C111 C 0.61495 0.49783 0.41759
 C112 C 0.58081 0.47298 0.44169
 N113 N 0.56008 0.49427 0.49840
 C114 C 0.57050 0.43075 0.41442
 H115 H 0.53894 0.34349 0.39162
 H116 H 0.45533 0.33914 0.40340
 H117 H 0.53588 0.48145 0.53198
 H118 H 0.33907 0.47052 0.42533
 H119 H 0.33945 0.54189 0.51033
 H120 H 0.45816 0.59536 0.72560
 H121 H 0.54162 0.60103 0.71164
 H122 H 0.63743 0.48982 0.37295
 H123 H 0.45940 0.47894 0.53850
 H124 H 0.63721 0.56212 0.45616
 C125 C 0.01926 0.39187 0.15559
 C126 C -0.02370 0.39086 0.14038
 C127 C -0.03154 0.42243 0.08551
 N128 N 0.00514 0.44284 0.06734
 C129 C 0.03618 0.42440 0.11039
 C130 C -0.07112 0.42966 0.04850
 C131 C -0.07744 0.46492 -0.00227
 C132 C -0.10882 0.46698 -0.05857
 C133 C -0.10660 0.50792 -0.08986
 C134 C -0.07351 0.52950 -0.05266
 N135 N -0.05556 0.50298 0.00006
 C136 C -0.06235 0.57359 -0.06445
 C137 C -0.02104 0.58970 -0.04848
 C138 C -0.00876 0.63300 -0.05381
 C139 C 0.03422 0.63423 -0.03843
 C140 C 0.04676 0.59167 -0.02404
 N141 N 0.01295 0.56450 -0.03052
 C142 C 0.08913 0.57829 -0.00873
 C143 C 0.10002 0.53617 0.01742
 C144 C 0.14122 0.51985 0.02089
 C145 C 0.13872 0.47906 0.05257
 C146 C 0.09599 0.47131 0.06727
 N147 N 0.07270 0.50654 0.04638
 C148 C 0.08002 0.43384 0.10426
 H149 H 0.03613 0.37077 0.19494
 H150 H -0.04631 0.36894 0.16629
 H151 H 0.04079 0.51194 0.05860
 H152 H -0.13115 0.44171 -0.07543
 H153 H -0.12696 0.52035 -0.13501
 H154 H -0.02856 0.66081 -0.06759
 H155 H 0.05395 0.66319 -0.03782
 H156 H 0.16560 0.45801 0.06448
 H157 H -0.03321 0.51226 0.04153
 H158 H 0.17023 0.53582 0.00313
 C159 C 0.49191 1.12740 0.41498
 C160 C 0.53538 1.12898 0.42330
 C161 C 0.54881 1.08675 0.43818
 N162 N 0.51496 1.05948 0.43943
 C163 C 0.48015 1.08430 0.42542
 C164 C 0.59184 1.07363 0.44672
 C165 C 0.60406 1.03289 0.47758
 C166 C 0.64518 1.01627 0.47663
 C167 C 0.64435 0.97751 0.51567
 C168 C 0.60266 0.97121 0.53900
 N169 N 0.57843 1.00537 0.51620
 C170 C 0.58865 0.93576 0.58383
 C171 C 0.54535 0.92581 0.59648
 C172 C 0.53114 0.89258 0.64314
 C173 C 0.48777 0.89058 0.63381
 C174 C 0.47673 0.92291 0.58212
 N175 N 0.51210 0.94403 0.55889
 C176 C 0.43542 0.92961 0.55125
 C177 C 0.42580 0.96307 0.49860
 C178 C 0.38925 0.96470 0.45338
 C179 C 0.39017 1.00372 0.41527
 C180 C 0.42695 1.02516 0.43888
 N181 N 0.44859 1.00010 0.48939
 C182 C 0.43818 1.06812 0.41808
 H183 H 0.47136 1.15493 0.40296
 H184 H 0.55478 1.15803 0.41925
 H185 H 0.47439 1.01020 0.52284
 H186 H 0.67307 1.03070 0.45103
 H187 H 0.67157 0.95663 0.52605
 H188 H 0.55015 0.87107 0.67851
 H189 H 0.46721 0.86692 0.66038
 H190 H 0.36613 1.01518 0.37541
 H191 H 0.54739 1.01183 0.53297
 H192 H 0.36417 0.94060 0.44874
 C193 C 1.17557 0.14658 0.16332
 C194 C 1.14588 0.12530 0.20340
 C195 C 1.11558 0.09380 0.16888
 C196 C 1.10273 0.09526 0.09564
 H197 H 1.14349 0.13054 0.26465
 H198 H 1.10077 0.07065 0.20693
 H199 H 1.17973 0.13918 0.10311
 H200 H 1.11611 0.11866 0.05657
 C201 C 0.66873 0.64698 0.68864
 C202 C 0.67672 0.61883 0.63158
 C203 C 0.64553 0.58551 0.60642
 C204 C 0.60378 0.59427 0.59925
 H205 H 0.70777 0.61854 0.60491
 H206 H 0.65784 0.55383 0.59008
 H207 H 0.63917 0.64457 0.71997
 H208 H 0.59234 0.62637 0.61562
 C209 C -0.17515 0.34899 0.14538
 C210 C -0.17929 0.37446 0.08379
 C211 C -0.14694 0.40755 0.06614
 C212 C -0.10562 0.39703 0.06057
 H213 H -0.20801 0.37346 0.04893
 H214 H -0.15764 0.44071 0.05731
 H215 H -0.14788 0.35372 0.18318
 H216 H -0.09651 0.36329 0.06913
 C217 C 0.34376 0.85228 0.73093
 C218 C 0.35327 0.86222 0.65870
 C219 C 0.38684 0.89399 0.64141
 C220 C 0.40102 0.89843 0.57001
 H221 H 0.33727 0.84553 0.61161
 H222 H 0.40099 0.91314 0.68752
 H223 H 0.36080 0.86799 0.77785
 H224 H 0.38633 0.87991 0.52371
 C225 C -0.16648 0.65335 -0.17242
 C226 C -0.16671 0.63727 -0.10133
 C227 C -0.13417 0.60661 -0.07181
 C228 C -0.09433 0.60364 -0.09888
 H229 H -0.19257 0.64563 -0.06321
 H230 H -0.14292 0.58724 -0.02276
 H231 H -0.14202 0.64346 -0.21231
 H232 H -0.08380 0.62556 -0.14312
 C233 C 0.33318 1.14973 0.31672
 C234 C 0.33407 1.13333 0.38767
 C235 C 0.36711 1.10303 0.41638
 C236 C 0.40532 1.09723 0.38393
 H237 H 0.30900 1.14187 0.42735
 H238 H 0.36018 1.08628 0.46922
 H239 H 0.35701 1.14046 0.27528
 H240 H 0.41440 1.11642 0.33503
 C241 C 1.17646 -0.15326 -0.16952
 C242 C 1.17173 -0.13694 -0.09843
 C243 C 1.13889 -0.10475 -0.07635
 C244 C 1.10356 -0.09645 -0.11739
 H245 H 1.19340 -0.14683 -0.05313
 H246 H 1.14305 -0.08896 -0.02105
 H247 H 1.15615 -0.14215 -0.21578
 H248 H 1.09677 -0.11463 -0.16938
 C249 C 0.66900 0.35253 0.29016
 C250 C 0.67215 0.36642 0.36301
 C251 C 0.64197 0.39755 0.39867
 C252 C 0.60238 0.40444 0.37191
 H253 H 0.69784 0.35448 0.39898
 H254 H 0.65159 0.41247 0.45255
 H255 H 0.64492 0.36579 0.25226
 H256 H 0.59100 0.38671 0.32202
 C257 C 0.82401 -0.16875 -0.17487
 C258 C 0.85369 -0.15003 -0.21873
 C259 C 0.88479 -0.11732 -0.19004
 C260 C 0.88137 -0.09548 -0.12340
 H261 H 0.85749 -0.16076 -0.27755
 H262 H 0.91236 -0.11163 -0.22552
 H263 H 0.82076 -0.15902 -0.11555
 H264 H 0.85251 -0.09743 -0.09024
 C265 C 0.32244 0.32689 0.34062
 C266 C 0.35338 0.34620 0.30067
 C267 C 0.38524 0.37665 0.33376
 C268 C 0.38345 0.39409 0.40434
 H269 H 0.35731 0.33782 0.24077
 H270 H 0.41185 0.38489 0.29748
 H271 H 0.31838 0.33377 0.40089
 H272 H 0.35580 0.38945 0.43980
 C273 C 0.17607 0.66976 -0.17450
 C274 C 0.16805 0.65554 -0.10398
 C275 C 0.13206 0.62577 -0.09065
 C276 C 0.12450 0.60951 -0.02139
 H277 H 0.18737 0.66659 -0.05585
 H278 H 0.11135 0.61674 -0.13826
 H279 H 0.15629 0.65856 -0.22195
 H280 H 0.14629 0.61644 0.02564
 C281 C 0.65931 1.17255 0.26402
 C282 C 0.66030 1.15307 0.33224
 C283 C 0.62658 1.12227 0.35396
 C284 C 0.62627 1.10392 0.42316
 H285 H 0.68553 1.16060 0.37304
 H286 H 0.60118 1.11497 0.31334
 H287 H 0.63382 1.16494 0.22377
 H288 H 0.65264 1.10964 0.46248
 C289 C 0.16443 0.32553 0.18744
 C290 C 0.16470 0.34321 0.11748
 C291 C 0.13394 0.37636 0.09058
 C292 C 0.11057 0.40188 0.13663
 H293 H 0.18773 0.33190 0.07592
 H294 H 0.13160 0.38095 0.02922
 H295 H 0.14043 0.33478 0.22861
 H296 H 0.11215 0.39877 0.19820
 C297 C 0.66945 0.82843 0.67713
 C298 C 0.66994 0.84268 0.60471
 C299 C 0.64026 0.87583 0.57422
 C300 C 0.62079 0.90597 0.61745
 H301 H 0.69170 0.82802 0.56410
 H302 H 0.63494 0.87589 0.51283
 H303 H 0.64640 0.84107 0.71737
 H304 H 0.62583 0.90743 0.67876
 C305 C 0.81725 0.17257 0.10900
 C306 C 0.85850 0.17150 0.12850
 C307 C 0.88928 0.14154 0.09299
 C308 C 0.88196 0.09869 0.08439
 H309 H 0.87115 0.19573 0.16812
 H310 H 0.92037 0.15478 0.08022
 H311 H 0.80516 0.15172 0.06337
 H312 H 0.85072 0.08577 0.09729
 C313 C 0.35293 0.67752 0.72800
 C314 C 0.34925 0.64672 0.67402
 C315 C 0.38671 0.62197 0.64839
 C316 C 0.38345 0.57966 0.63020
 H317 H 0.31841 0.63968 0.64828
 H318 H 0.41645 0.63933 0.64166
 H319 H 0.38308 0.68198 0.75785
 H320 H 0.35272 0.56407 0.63713
   
