data_POSCAR
  _audit_creation_date              2014-09-24
  _audit_creation_method            'ToBaCCo'
  _symmetry_space_group_name_H-M    'P1'
  _symmetry_Int_Tables_number       1
  _symmetry_cell_setting            triclinic
  loop_
  _symmetry_equiv_pos_as_xyz
 x,y,z
_cell_length_a 51.7665
_cell_length_b 51.5563
_cell_length_c 52.0013
_cell_angle_alpha 90.027200
_cell_angle_beta 89.995000
_cell_angle_gamma 89.933700
loop_
  _atom_site_label
  _atom_site_type_symbol
  _atom_site_fract_x
  _atom_site_fract_y
  _atom_site_fract_z
N1 N 0.29176 0.23715 0.22226
 N2 N 0.28243 0.25772 0.21048
 C3 C 0.29827 0.26419 0.19099
 C4 C 0.31848 0.24681 0.19064
 C5 C 0.31386 0.22983 0.21061
 H6 H 0.29513 0.27997 0.17765
 H7 H 0.32538 0.21315 0.21590
 Cu8 Cu 0.24992 0.27327 0.22105
 Cu9 Cu 0.27405 0.22104 0.25131
 Cu10 Cu 0.21616 0.24910 0.27059
 N11 N 0.21751 0.28887 0.23185
 N12 N 0.20438 0.27926 0.25130
 C13 C 0.18265 0.29325 0.25460
 C14 C 0.18230 0.31252 0.23626
 C15 C 0.20457 0.30932 0.22211
 H16 H 0.16813 0.28959 0.26910
 H17 H 0.21070 0.32089 0.20588
 N18 N 0.23125 0.21850 0.28765
 N19 N 0.25323 0.20775 0.28028
 C20 C 0.25814 0.18712 0.29544
 C21 C 0.23836 0.18496 0.31304
 C22 C 0.22163 0.20501 0.30767
 H23 H 0.27475 0.17449 0.29377
 H24 H 0.20373 0.20929 0.31754
 H25 H 0.23719 0.23244 0.24103
 H26 H 0.25517 0.25407 0.26355
 N27 N 0.70652 -0.23763 0.22237
 N28 N 0.71522 -0.25872 0.21102
 C29 C 0.69943 -0.26490 0.19138
 C30 C 0.67990 -0.24678 0.19056
 C31 C 0.68485 -0.22965 0.21033
 H32 H 0.70224 -0.28095 0.17827
 H33 H 0.67389 -0.21247 0.21523
 Cu34 Cu 0.74697 -0.27563 0.22186
 Cu35 Cu 0.72449 -0.22179 0.25128
 Cu36 Cu 0.78227 -0.24997 0.27000
 N37 N 0.78002 -0.29031 0.23201
 N38 N 0.79380 -0.28015 0.25073
 C39 C 0.81581 -0.29381 0.25345
 C40 C 0.81565 -0.31344 0.23548
 C41 C 0.79282 -0.31080 0.22213
 H42 H 0.83082 -0.28972 0.26734
 H43 H 0.78618 -0.32276 0.20637
 N44 N 0.76749 -0.21939 0.28725
 N45 N 0.74544 -0.20864 0.28015
 C46 C 0.74055 -0.18818 0.29555
 C47 C 0.76044 -0.18612 0.31303
 C48 C 0.77721 -0.20605 0.30733
 H49 H 0.72385 -0.17563 0.29415
 H50 H 0.79516 -0.21040 0.31706
 H51 H 0.76079 -0.23432 0.24013
 H52 H 0.74309 -0.25487 0.26391
 N53 N 0.70753 0.23792 0.77728
 N54 N 0.71662 0.25864 0.78897
 C55 C 0.70087 0.26491 0.80861
 C56 C 0.68092 0.24728 0.80910
 C57 C 0.68563 0.23033 0.78911
 H58 H 0.70390 0.28072 0.82195
 H59 H 0.67431 0.21352 0.78390
 Cu60 Cu 0.74874 0.27454 0.77787
 Cu61 Cu 0.72536 0.22182 0.74825
 Cu62 Cu 0.78318 0.25013 0.72904
 N63 N 0.78118 0.29028 0.76750
 N64 N 0.79459 0.28053 0.74827
 C65 C 0.81628 0.29457 0.74509
 C66 C 0.81628 0.31401 0.76329
 C67 C 0.79389 0.31085 0.77726
 H68 H 0.83097 0.29083 0.73075
 H69 H 0.78753 0.32250 0.79337
 N70 N 0.76833 0.21932 0.71205
 N71 N 0.74634 0.20858 0.71933
 C72 C 0.74149 0.18797 0.70413
 C73 C 0.76132 0.18579 0.68660
 C74 C 0.77803 0.20582 0.69204
 H75 H 0.72487 0.17538 0.70571
 H76 H 0.79592 0.21010 0.68221
 H77 H 0.76207 0.23358 0.75857
 H78 H 0.74411 0.25467 0.73559
 N79 N 0.29251 -0.23819 0.77732
 N80 N 0.28330 -0.25871 0.78922
 C81 C 0.29910 -0.26492 0.80886
 C82 C 0.31917 -0.24742 0.80915
 C83 C 0.31451 -0.23065 0.78901
 H84 H 0.29603 -0.28060 0.82232
 H85 H 0.32592 -0.21396 0.78362
 Cu86 Cu 0.25101 -0.27468 0.77868
 Cu87 Cu 0.27467 -0.22234 0.74820
 Cu88 Cu 0.21698 -0.25073 0.72911
 N89 N 0.21867 -0.29042 0.76789
 N90 N 0.20544 -0.28093 0.74843
 C91 C 0.18380 -0.29502 0.74521
 C92 C 0.18362 -0.31423 0.76362
 C93 C 0.20587 -0.31089 0.77776
 H94 H 0.16921 -0.29143 0.73075
 H95 H 0.21208 -0.32234 0.79406
 N96 N 0.23178 -0.22008 0.71196
 N97 N 0.25374 -0.20926 0.71920
 C98 C 0.25842 -0.18858 0.70405
 C99 C 0.23850 -0.18644 0.68660
 C100 C 0.22194 -0.20658 0.69204
 H101 H 0.27493 -0.17584 0.70569
 H102 H 0.20396 -0.21086 0.68234
 H103 H 0.23797 -0.23396 0.75863
 H104 H 0.25603 -0.25553 0.73611
 N105 N 0.71113 -0.23523 0.78348
 N106 N 0.72169 -0.25573 0.79429
 C107 C 0.70911 -0.26094 0.81640
 C108 C 0.68981 -0.24271 0.81936
 C109 C 0.69155 -0.22670 0.79827
 H110 H 0.71363 -0.27667 0.82940
 H111 H 0.67954 -0.21005 0.79407
 Cu112 Cu 0.75100 -0.27329 0.77842
 Cu113 Cu 0.72362 -0.22082 0.75126
 Cu114 Cu 0.77506 -0.25227 0.72209
 N115 N 0.77959 -0.29108 0.76153
 N116 N 0.78880 -0.28274 0.73945
 C117 C 0.80884 -0.29779 0.73234
 C118 C 0.81220 -0.31650 0.75094
 C119 C 0.79351 -0.31179 0.76926
 H120 H 0.82048 -0.29494 0.71530
 H121 H 0.79069 -0.32225 0.78706
 N122 N 0.75856 -0.22116 0.70748
 N123 N 0.73895 -0.20919 0.71863
 C124 C 0.73244 -0.18830 0.70449
 C125 C 0.74870 -0.18723 0.68359
 C126 C 0.76506 -0.20816 0.68595
 H127 H 0.71739 -0.17456 0.70926
 H128 H 0.78080 -0.21319 0.67322
 H129 H 0.73816 -0.25527 0.73703
 H130 H 0.76122 -0.23383 0.75465
 N131 N 0.29047 0.23578 0.78324
 N132 N 0.28080 0.25697 0.79358
 C133 C 0.29346 0.26202 0.81568
 C134 C 0.31188 0.24298 0.81911
 C135 C 0.30954 0.22665 0.79831
 H136 H 0.28959 0.27821 0.82835
 H137 H 0.32081 0.20939 0.79450
 Cu138 Cu 0.25251 0.27570 0.77718
 Cu139 Cu 0.27756 0.22134 0.75124
 Cu140 Cu 0.22631 0.25308 0.72226
 N141 N 0.22314 0.29283 0.76095
 N142 N 0.21310 0.28389 0.73947
 C143 C 0.19270 0.29866 0.73285
 C144 C 0.18992 0.31781 0.75111
 C145 C 0.20939 0.31363 0.76875
 H146 H 0.18039 0.29534 0.71636
 H147 H 0.21283 0.32453 0.78619
 N148 N 0.24232 0.22163 0.70775
 N149 N 0.26193 0.20960 0.71881
 C150 C 0.26817 0.18855 0.70477
 C151 C 0.25175 0.18743 0.68400
 C152 C 0.23555 0.20851 0.68636
 H153 H 0.28318 0.17476 0.70949
 H154 H 0.21977 0.21358 0.67370
 H155 H 0.26362 0.25569 0.73610
 H156 H 0.24044 0.23572 0.75524
 N157 N 0.29042 -0.23562 0.21692
 N158 N 0.27980 -0.25604 0.20605
 C159 C 0.29242 -0.26132 0.18397
 C160 C 0.31180 -0.24321 0.18107
 C161 C 0.31007 -0.22720 0.20218
 H162 H 0.28788 -0.27703 0.17094
 H163 H 0.32214 -0.21063 0.20643
 Cu164 Cu 0.25043 -0.27350 0.22182
 Cu165 Cu 0.27794 -0.22121 0.24916
 Cu166 Cu 0.22669 -0.25264 0.27847
 N167 N 0.22199 -0.29128 0.23886
 N168 N 0.21295 -0.28308 0.26108
 C169 C 0.19300 -0.29817 0.26822
 C170 C 0.18947 -0.31677 0.24953
 C171 C 0.20803 -0.31193 0.23112
 H172 H 0.18148 -0.29543 0.28536
 H173 H 0.21071 -0.32229 0.21322
 N174 N 0.24318 -0.22151 0.29307
 N175 N 0.26268 -0.20952 0.28182
 C176 C 0.26911 -0.18854 0.29587
 C177 C 0.25294 -0.18744 0.31683
 C178 C 0.23669 -0.20845 0.31458
 H179 H 0.28405 -0.17475 0.29099
 H180 H 0.22100 -0.21346 0.32737
 H181 H 0.26344 -0.25575 0.26329
 H182 H 0.24026 -0.23417 0.24593
 N183 N 0.71051 0.23528 0.21699
 N184 N 0.72201 0.25468 0.20523
 C185 C 0.70916 0.26005 0.18333
 C186 C 0.68870 0.24306 0.18145
 C187 C 0.69003 0.22760 0.20299
 H188 H 0.71442 0.27497 0.16969
 H189 H 0.67727 0.21176 0.20791
 Cu190 Cu 0.75310 0.27065 0.21902
 Cu191 Cu 0.72337 0.22091 0.24904
 Cu192 Cu 0.77473 0.25261 0.27759
 N193 N 0.77950 0.29024 0.23721
 N194 N 0.78789 0.28313 0.26002
 C195 C 0.80671 0.29944 0.26759
 C196 C 0.81013 0.31767 0.24853
 C197 C 0.79270 0.31136 0.22949
 H198 H 0.81754 0.29780 0.28530
 H199 H 0.79024 0.32105 0.21121
 N200 N 0.75876 0.22135 0.29238
 N201 N 0.73912 0.20930 0.28146
 C202 C 0.73293 0.18837 0.29564
 C203 C 0.74942 0.18737 0.31637
 C204 C 0.76560 0.20839 0.31383
 H205 H 0.71790 0.17457 0.29104
 H206 H 0.78143 0.21353 0.32640
 H207 H 0.73851 0.25600 0.26103
 H208 H 0.76145 0.23253 0.24571
 C209 C 0.23467 0.00046 0.43181
 C210 C 0.23007 0.02342 0.44526
 C211 C 0.22877 0.02315 0.47218
 C212 C 0.23335 -0.00001 0.48611
 C213 C 0.23858 -0.02289 0.47202
 C214 C 0.23864 -0.02270 0.44510
 C215 C 0.23313 -0.00027 0.51501
 C216 C 0.22839 -0.02342 0.52886
 C217 C 0.22931 -0.02372 0.55580
 C218 C 0.23367 -0.00075 0.56932
 C219 C 0.23779 0.02240 0.55609
 C220 C 0.23811 0.02260 0.52917
 H221 H 0.23531 0.00063 0.41095
 H222 H 0.22417 0.04108 0.48196
 H223 H 0.24293 -0.04094 0.48167
 H224 H 0.22397 -0.04135 0.51902
 H225 H 0.23404 -0.00093 0.59019
 H226 H 0.24259 0.04065 0.51959
 C227 C 0.76463 0.00063 0.56853
 C228 C 0.76889 0.02359 0.55501
 C229 C 0.77013 0.02324 0.52809
 C230 C 0.76577 -0.00000 0.51421
 C231 C 0.76082 -0.02287 0.52839
 C232 C 0.76091 -0.02260 0.55530
 C233 C 0.76604 -0.00038 0.48528
 C234 C 0.77042 -0.02368 0.47149
 C235 C 0.76958 -0.02406 0.44456
 C236 C 0.76576 -0.00106 0.43095
 C237 C 0.76205 0.02223 0.44411
 C238 C 0.76156 0.02253 0.47101
 H239 H 0.76411 0.00085 0.58939
 H240 H 0.77455 0.04119 0.51833
 H241 H 0.75661 -0.04101 0.51885
 H242 H 0.77451 -0.04167 0.48134
 H243 H 0.76550 -0.00131 0.41009
 H244 H 0.75735 0.04072 0.48047
 C245 C 0.43117 0.23369 0.00473
 C246 C 0.44609 0.23707 0.02680
 C247 C 0.47309 0.23745 0.02505
 C248 C 0.48568 0.23307 0.00124
 C249 C 0.47005 0.22886 -0.02071
 C250 C 0.44308 0.22997 -0.01903
 C251 C 0.51473 0.23327 -0.00077
 C252 C 0.52721 0.23735 -0.02467
 C253 C 0.55421 0.23731 -0.02648
 C254 C 0.56922 0.23454 -0.00438
 C255 C 0.55741 0.23115 0.01948
 C256 C 0.53045 0.22977 0.02123
 H257 H 0.41026 0.23417 0.00601
 H258 H 0.48386 0.24150 0.04237
 H259 H 0.47844 0.22478 -0.03929
 H260 H 0.51635 0.24091 -0.04205
 H261 H 0.59013 0.23524 -0.00573
 H262 H 0.52215 0.22600 0.03991
 C263 C 0.56959 0.76618 0.00459
 C264 C 0.55463 0.76302 0.02666
 C265 C 0.52764 0.76243 0.02484
 C266 C 0.51507 0.76641 0.00095
 C267 C 0.53074 0.77030 -0.02103
 C268 C 0.55773 0.76942 -0.01926
 C269 C 0.48602 0.76616 -0.00105
 C270 C 0.47348 0.76182 -0.02490
 C271 C 0.44647 0.76190 -0.02666
 C272 C 0.43151 0.76492 -0.00455
 C273 C 0.44336 0.76856 0.01925
 C274 C 0.47032 0.76996 0.02094
 H275 H 0.59050 0.76589 0.00594
 H276 H 0.51686 0.75854 0.04219
 H277 H 0.52238 0.77400 -0.03970
 H278 H 0.48432 0.75806 -0.04226
 H279 H 0.41060 0.76426 -0.00585
 H280 H 0.47863 0.77400 0.03956
 C281 C -0.00294 0.43179 0.23067
 C282 C 0.02041 0.44450 0.22619
 C283 C 0.02118 0.47163 0.22511
 C284 C -0.00129 0.48652 0.22972
 C285 C -0.02462 0.47321 0.23489
 C286 C -0.02549 0.44606 0.23476
 C287 C -0.00041 0.51562 0.22933
 C288 C -0.02290 0.53028 0.22414
 C289 C -0.02235 0.55740 0.22482
 C290 C 0.00083 0.57036 0.22938
 C291 C 0.02346 0.55634 0.23390
 C292 C 0.02281 0.52917 0.23442
 H293 H -0.00354 0.41076 0.23114
 H294 H 0.03940 0.48082 0.22062
 H295 H -0.04220 0.48365 0.23929
 H296 H -0.04100 0.52090 0.21958
 H297 H 0.00123 0.59140 0.22965
 H298 H 0.04041 0.51891 0.23915
 C299 C -0.00092 0.56967 0.77073
 C300 C 0.02211 0.55637 0.77528
 C301 C 0.02229 0.52923 0.77617
 C302 C -0.00046 0.51490 0.77120
 C303 C -0.02348 0.52882 0.76605
 C304 C -0.02374 0.55599 0.76638
 C305 C -0.00008 0.48575 0.77105
 C306 C -0.02289 0.47136 0.77552
 C307 C -0.02268 0.44423 0.77439
 C308 C 0.00043 0.43099 0.77005
 C309 C 0.02332 0.44471 0.76621
 C310 C 0.02303 0.47189 0.76613
 H311 H -0.00103 0.59071 0.77032
 H312 H 0.04028 0.51960 0.78072
 H313 H -0.04124 0.51885 0.76141
 H314 H -0.04094 0.48095 0.77992
 H315 H 0.00058 0.40995 0.76949
 H316 H 0.04087 0.48190 0.76191
 C317 C 0.37386 0.24423 0.13502
 N318 N 0.38033 0.26632 0.12241
 N319 N 0.39627 0.26552 0.10229
 C320 C 0.40625 0.24259 0.09419
 N321 N 0.39984 0.22052 0.10685
 N322 N 0.38391 0.22132 0.12697
 C323 C 0.35516 0.24488 0.15538
 C324 C 0.33876 0.24559 0.17183
 C325 C 0.42150 0.24135 0.07118
 C326 C 0.43330 0.23977 0.05125
 C327 C 0.62632 0.75630 0.13528
 N328 N 0.62103 0.73441 0.12180
 N329 N 0.60525 0.73521 0.10156
 C330 C 0.59426 0.75791 0.09421
 N331 N 0.59949 0.77979 0.10774
 N332 N 0.61527 0.77900 0.12798
 C333 C 0.64478 0.75568 0.15585
 C334 C 0.66098 0.75478 0.17249
 C335 C 0.57910 0.75918 0.07114
 C336 C 0.56736 0.76063 0.05117
 C337 C 0.62570 0.24451 -0.13514
 N338 N 0.62027 0.26637 -0.12165
 N339 N 0.60445 0.26552 -0.10145
 C340 C 0.59354 0.24278 -0.09415
 N341 N 0.59888 0.22094 -0.10771
 N342 N 0.61471 0.22179 -0.12791
 C343 C 0.64435 0.24514 -0.15556
 C344 C 0.66070 0.24591 -0.17204
 C345 C 0.57849 0.24140 -0.07103
 C346 C 0.56686 0.23983 -0.05101
 C347 C 0.37439 0.75516 -0.13503
 N348 N 0.38538 0.77783 -0.12762
 N349 N 0.40127 0.77853 -0.10746
 C350 C 0.40667 0.75658 -0.09411
 N351 N 0.39574 0.73390 -0.10157
 N352 N 0.37986 0.73320 -0.12173
 C353 C 0.35576 0.75467 -0.15548
 C354 C 0.33942 0.75397 -0.17200
 C355 C 0.42192 0.75779 -0.07108
 C356 C 0.43371 0.75931 -0.05114
 C357 C 0.12519 0.36606 0.22678
 N358 N 0.10620 0.36224 0.20922
 N359 N 0.08644 0.37875 0.20760
 C360 C 0.08513 0.39961 0.22344
 N361 N 0.10416 0.40347 0.24093
 N362 N 0.12391 0.38697 0.24256
 C363 C 0.14563 0.34749 0.22961
 C364 C 0.16249 0.33163 0.23246
 C365 C 0.06286 0.41616 0.22320
 C366 C 0.04373 0.42946 0.22398
 C367 C 0.12766 0.63341 0.77380
 N368 N 0.12642 0.61210 0.75856
 N369 N 0.10663 0.59572 0.76051
 C370 C 0.08751 0.60011 0.77782
 N371 N 0.08879 0.62138 0.79312
 N372 N 0.10859 0.63776 0.79117
 C373 C 0.14810 0.65189 0.77056
 C374 C 0.16492 0.66771 0.76742
 C375 C 0.06509 0.58382 0.77823
 C376 C 0.04575 0.57086 0.77752
 C377 C -0.12814 0.63439 0.22532
 N378 N -0.12694 0.61304 0.24050
 N379 N -0.10699 0.59679 0.23875
 C380 C -0.08767 0.60135 0.22173
 N381 N -0.08892 0.62265 0.20648
 N382 N -0.10887 0.63891 0.20823
 C383 C -0.14869 0.65278 0.22844
 C384 C -0.16559 0.66855 0.23157
 C385 C -0.06515 0.58515 0.22152
 C386 C -0.04583 0.57215 0.22240
 C387 C -0.12793 0.36665 0.77310
 N388 N -0.10792 0.36158 0.78918
 N389 N -0.08818 0.37805 0.79098
 C390 C -0.08788 0.40012 0.77682
 N391 N -0.10793 0.40524 0.76080
 N392 N -0.12768 0.38877 0.75900
 C393 C -0.14834 0.34811 0.76997
 C394 C -0.16511 0.33220 0.76696
 C395 C -0.06560 0.41662 0.77706
 C396 C -0.04631 0.42969 0.77639
 C397 C 0.23068 0.12870 0.36765
 N398 N 0.24914 0.12551 0.38588
 N399 N 0.24763 0.10599 0.40261
 C400 C 0.22757 0.08911 0.40169
 N401 N 0.20905 0.09236 0.38351
 N402 N 0.21056 0.11188 0.36678
 C403 C 0.23311 0.14882 0.34871
 C404 C 0.23544 0.16541 0.33253
 C405 C 0.22727 0.06675 0.41815
 C406 C 0.22796 0.04734 0.43108
 C407 C 0.76859 0.12934 0.63210
 N408 N 0.78890 0.11270 0.63263
 N409 N 0.79021 0.09304 0.61602
 C410 C 0.77129 0.08947 0.59832
 N411 N 0.75103 0.10616 0.59775
 N412 N 0.74971 0.12582 0.61435
 C413 C 0.76639 0.14959 0.65095
 C414 C 0.76421 0.16625 0.66709
 C415 C 0.77151 0.06703 0.58196
 C416 C 0.77085 0.04756 0.56911
 C417 C 0.23021 -0.12973 0.63249
 N418 N 0.20979 -0.11324 0.63326
 N419 N 0.20820 -0.09352 0.61675
 C420 C 0.22695 -0.08974 0.59891
 N421 N 0.24731 -0.10631 0.59809
 N422 N 0.24890 -0.12601 0.61459
 C423 C 0.23277 -0.15002 0.65124
 C424 C 0.23528 -0.16676 0.66726
 C425 C 0.22653 -0.06720 0.58269
 C426 C 0.22718 -0.04769 0.56990
 C427 C 0.76814 -0.13012 0.36792
 N428 N 0.78904 -0.11427 0.36793
 N429 N 0.79059 -0.09462 0.38452
 C430 C 0.77132 -0.09026 0.40167
 N431 N 0.75047 -0.10618 0.40173
 N432 N 0.74892 -0.12583 0.38514
 C433 C 0.76569 -0.15024 0.34897
 C434 C 0.76337 -0.16675 0.33270
 C435 C 0.77180 -0.06770 0.41786
 C436 C 0.77134 -0.04813 0.43057
 C437 C 0.63828 0.76412 -0.12175
 N438 N 0.62023 0.74553 -0.11772
 N439 N 0.60357 0.74766 -0.09829
 C440 C 0.60439 0.76849 -0.08237
 N441 N 0.62244 0.78710 -0.08642
 N442 N 0.63910 0.78497 -0.10585
 C443 C 0.65648 0.76160 -0.14242
 C444 C 0.67174 0.75951 -0.15980
 C445 C 0.58735 0.76998 -0.06067
 C446 C 0.57350 0.77032 -0.04204
 C447 C 0.36322 0.23537 -0.12197
 N448 N 0.36232 0.21441 -0.10623
 N449 N 0.37887 0.21215 -0.08673
 C450 C 0.39690 0.23073 -0.08245
 N451 N 0.39782 0.25165 -0.09822
 N452 N 0.38127 0.25391 -0.11771
 C453 C 0.34507 0.23812 -0.14263
 C454 C 0.32986 0.24045 -0.16002
 C455 C 0.41373 0.22919 -0.06061
 C456 C 0.42742 0.22890 -0.04187
 C457 C 0.36338 0.76329 0.12220
 N458 N 0.37919 0.74324 0.11609
 N459 N 0.39574 0.74527 0.09658
 C460 C 0.39705 0.76745 0.08263
 N461 N 0.38127 0.78754 0.08875
 N462 N 0.36471 0.78550 0.10828
 C463 C 0.34521 0.76089 0.14290
 C464 C 0.32992 0.75890 0.16027
 C465 C 0.41393 0.76901 0.06081
 C466 C 0.42765 0.76940 0.04208
 C467 C 0.63706 0.23672 0.12266
 N468 N 0.62166 0.25697 0.11618
 N469 N 0.60523 0.25496 0.09656
 C470 C 0.60364 0.23262 0.08288
 N471 N 0.61902 0.21235 0.08938
 N472 N 0.63546 0.21435 0.10900
 C473 C 0.65513 0.23908 0.14343
 C474 C 0.67042 0.24102 0.16080
 C475 C 0.58683 0.23101 0.06102
 C476 C 0.57313 0.23051 0.04229
 C477 C -0.12930 0.63283 0.75406
 N478 N -0.13296 0.60707 0.75796
 N479 N -0.11279 0.59101 0.75947
 C480 C -0.08837 0.60026 0.75707
 N481 N -0.08476 0.62600 0.75314
 N482 N -0.10489 0.64202 0.75163
 C483 C -0.15083 0.65037 0.75295
 C484 C -0.16843 0.66569 0.75205
 C485 C -0.06645 0.58340 0.75973
 C486 C -0.04734 0.57027 0.76245
 C487 C -0.13288 0.37207 0.24577
 N488 N -0.11781 0.37636 0.26668
 N489 N -0.09768 0.39239 0.26525
 C490 C -0.09202 0.40464 0.24287
 N491 N -0.10714 0.40041 0.22199
 N492 N -0.12727 0.38438 0.22342
 C493 C -0.15352 0.35354 0.24685
 C494 C -0.17036 0.33743 0.24765
 C495 C -0.06920 0.42026 0.24073
 C496 C -0.04953 0.43252 0.23836
 C497 C 0.12981 0.36887 0.75498
 N498 N 0.10554 0.35905 0.75558
 N499 N 0.08517 0.37478 0.75703
 C500 C 0.08841 0.40086 0.75788
 N501 N 0.11269 0.41075 0.75725
 N502 N 0.13309 0.39498 0.75579
 C503 C 0.15162 0.35167 0.75369
 C504 C 0.16938 0.33655 0.75259
 C505 C 0.06629 0.41753 0.76020
 C506 C 0.04704 0.43052 0.76263
 C507 C 0.12977 0.63183 0.24643
 N508 N 0.13313 0.60633 0.24083
 N509 N 0.11284 0.59048 0.23930
 C510 C 0.08860 0.59966 0.24337
 N511 N 0.08528 0.62513 0.24900
 N512 N 0.10554 0.64095 0.25053
 C513 C 0.15139 0.64920 0.24750
 C514 C 0.16903 0.66443 0.24839
 C515 C 0.06649 0.58311 0.24062
 C516 C 0.04724 0.57026 0.23786
 C517 C 0.75146 -0.12927 0.63053
 N518 N 0.77431 -0.12231 0.61983
 N519 N 0.77556 -0.10212 0.60389
 C520 C 0.75400 -0.08832 0.59816
 N521 N 0.73114 -0.09531 0.60882
 N522 N 0.72988 -0.11550 0.62476
 C523 C 0.75037 -0.15013 0.64870
 C524 C 0.74958 -0.16727 0.66441
 C525 C 0.75572 -0.06568 0.58229
 C526 C 0.75772 -0.04624 0.56960
 C527 C 0.24986 -0.12923 0.36974
 N528 N 0.27091 -0.11428 0.37430
 N529 N 0.26941 -0.09412 0.39028
 C530 C 0.24682 -0.08834 0.40220
 N531 N 0.22579 -0.10332 0.39766
 N532 N 0.22729 -0.12347 0.38169
 C533 C 0.25111 -0.15014 0.35158
 C534 C 0.25199 -0.16735 0.33593
 C535 C 0.24469 -0.06573 0.41812
 C536 C 0.24230 -0.04633 0.43083
 C537 C 0.75266 0.12927 0.36928
 N538 N 0.73124 0.11511 0.37454
 N539 N 0.73256 0.09481 0.39034
 C540 C 0.75535 0.08809 0.40137
 N541 N 0.77675 0.10229 0.39615
 N542 N 0.77543 0.12258 0.38035
 C543 C 0.75152 0.15023 0.35121
 C544 C 0.75058 0.16740 0.33554
 C545 C 0.75713 0.06537 0.41713
 C546 C 0.75907 0.04589 0.42976
 C547 C 0.24861 0.12919 0.63116
 N548 N 0.26979 0.11444 0.62638
 N549 N 0.26834 0.09420 0.61049
 C550 C 0.24567 0.08814 0.59889
 N551 N 0.22452 0.10292 0.60364
 N552 N 0.22596 0.12315 0.61952
 C553 C 0.24981 0.15013 0.64926
 C554 C 0.25070 0.16736 0.66490
 C555 C 0.24363 0.06546 0.58306
 C556 C 0.24133 0.04603 0.57039
   
