data_POSCAR
  _audit_creation_date              2014-09-24
  _audit_creation_method            'ToBaCCo'
  _symmetry_space_group_name_H-M    'P1'
  _symmetry_Int_Tables_number       1
  _symmetry_cell_setting            triclinic
  loop_
  _symmetry_equiv_pos_as_xyz
 x,y,z
_cell_length_a 38.4107
_cell_length_b 40.8730
_cell_length_c 39.0519
_cell_angle_alpha 86.213800
_cell_angle_beta 94.866400
_cell_angle_gamma 93.880900
loop_
  _atom_site_label
  _atom_site_type_symbol
  _atom_site_fract_x
  _atom_site_fract_y
  _atom_site_fract_z
C1 C 0.21897 0.28089 0.28112
 C2 C 0.24197 0.30201 0.25693
 C3 C 0.26098 0.28404 0.23795
 C4 C 0.25538 0.24667 0.24476
 C5 C 0.19642 0.25762 0.25782
 C6 C 0.21557 0.23976 0.23884
 C7 C 0.24416 0.25888 0.30299
 C8 C 0.26315 0.24101 0.28388
 H9 H 0.24308 0.32870 0.25493
 H10 H 0.27092 0.23209 0.22924
 H11 H 0.16800 0.25531 0.25662
 H12 H 0.24652 0.25733 0.33097
 C13 C 0.71934 0.78092 0.28136
 C14 C 0.74238 0.80198 0.25715
 C15 C 0.76134 0.78395 0.23818
 C16 C 0.75566 0.74659 0.24502
 C17 C 0.69674 0.75767 0.25807
 C18 C 0.71584 0.73975 0.23911
 C19 C 0.74448 0.75887 0.30324
 C20 C 0.76343 0.74094 0.28414
 H21 H 0.74351 0.82867 0.25510
 H22 H 0.77117 0.73197 0.22951
 H23 H 0.66832 0.75541 0.25688
 H24 H 0.74680 0.75730 0.33122
 C25 C 0.72014 0.28242 0.78022
 C26 C 0.74196 0.30252 0.75739
 C27 C 0.76191 0.28370 0.73750
 C28 C 0.75655 0.24830 0.74392
 C29 C 0.69749 0.25904 0.75700
 C30 C 0.71669 0.24116 0.73800
 C31 C 0.74514 0.26021 0.80224
 C32 C 0.76418 0.24232 0.78310
 H33 H 0.74305 0.32922 0.75540
 H34 H 0.77210 0.23367 0.72843
 H35 H 0.66907 0.25662 0.75592
 H36 H 0.74729 0.25850 0.83022
 C37 C 0.21896 0.78102 0.78077
 C38 C 0.24198 0.80210 0.75657
 C39 C 0.26098 0.78409 0.73762
 C40 C 0.25535 0.74673 0.74446
 C41 C 0.19640 0.75774 0.75750
 C42 C 0.21553 0.73984 0.73855
 C43 C 0.24412 0.75901 0.80267
 C44 C 0.26311 0.74110 0.78359
 H45 H 0.24314 0.82880 0.75457
 H46 H 0.27088 0.73212 0.72897
 H47 H 0.16798 0.75542 0.75634
 H48 H 0.24646 0.75749 0.83065
 C49 C 0.05494 0.04498 0.01185
 H50 H 0.05575 0.04777 -0.01582
 C51 C 0.07570 0.06623 0.03283
 H52 H 0.09236 0.08545 0.02106
 C53 C 0.03083 0.01750 0.06057
 H54 H 0.01282 -0.00104 0.07130
 C55 C 0.05110 0.03821 0.08248
 H56 H 0.04898 0.03479 0.10997
 N57 N 0.03318 0.02111 0.02595
 C58 C 0.01287 -0.05180 -0.05139
 H59 H -0.01546 -0.05337 -0.05374
 C60 C 0.03112 -0.07154 -0.07058
 H61 H 0.01661 -0.08844 -0.08753
 C62 C 0.06606 -0.02850 -0.02553
 H63 H 0.07959 -0.01198 -0.00768
 C64 C 0.08536 -0.04782 -0.04418
 H65 H 0.11367 -0.04542 -0.04093
 Zn66 Zn 0.00377 -0.00497 -0.00437
 N67 N 0.03048 -0.03054 -0.02973
 C68 C -0.02255 0.02456 -0.06895
 N69 N -0.02256 0.02431 -0.03410
 C70 C -0.04073 0.04600 -0.01891
 C71 C -0.06057 0.06863 -0.03891
 C72 C -0.04213 0.04678 -0.08998
 C73 C -0.01200 -0.05753 0.04287
 C74 C -0.03307 -0.07871 0.06309
 C75 C -0.08381 -0.05241 0.03633
 C76 C -0.06178 -0.03173 0.01667
 N77 N -0.02651 -0.03413 0.02080
 H78 H -0.00725 0.00771 -0.08055
 H79 H -0.03994 0.04551 0.00888
 H80 H -0.07542 0.08521 -0.02627
 H81 H -0.04169 0.04677 -0.11766
 H82 H 0.01610 -0.05921 0.04529
 H83 H -0.02090 -0.09641 0.08137
 H84 H -0.11180 -0.05000 0.03278
 H85 H -0.07296 -0.01368 -0.00172
 C86 C 0.06789 -0.06962 -0.06717
 C87 C 0.07377 0.06311 0.06867
 C88 C -0.06948 -0.07598 0.06030
 C89 C -0.06155 0.06916 -0.07497
 C90 C 0.05467 0.54409 0.51268
 H91 H 0.05540 0.54683 0.48500
 C92 C 0.07545 0.56540 0.53357
 H93 H 0.09205 0.58462 0.52172
 C94 C 0.03073 0.51666 0.56151
 H95 H 0.01278 0.49812 0.57233
 C96 C 0.05102 0.53743 0.58334
 H97 H 0.04898 0.53406 0.61084
 N98 N 0.03298 0.52022 0.52687
 C99 C 0.01264 0.44724 0.44961
 H100 H -0.01569 0.44563 0.44729
 C101 C 0.03090 0.42755 0.43038
 H102 H 0.01639 0.41064 0.41342
 C103 C 0.06582 0.47058 0.47543
 H104 H 0.07935 0.48711 0.49328
 C105 C 0.08513 0.45131 0.45674
 H106 H 0.11344 0.45376 0.45995
 Zn107 Zn 0.00354 0.49408 0.49664
 N108 N 0.03024 0.46850 0.47126
 C109 C -0.02286 0.52356 0.43206
 N110 N -0.02284 0.52333 0.46691
 C111 C -0.04098 0.54502 0.48211
 C112 C -0.06086 0.56763 0.46212
 C113 C -0.04248 0.54576 0.41104
 C114 C -0.01220 0.44158 0.54400
 C115 C -0.03328 0.42042 0.56424
 C116 C -0.08401 0.44665 0.53737
 C117 C -0.06198 0.46731 0.51770
 N118 N -0.02671 0.46494 0.52187
 H119 H -0.00758 0.50670 0.42045
 H120 H -0.04015 0.54455 0.50990
 H121 H -0.07568 0.58421 0.47477
 H122 H -0.04208 0.54572 0.38335
 H123 H 0.01590 0.43992 0.54645
 H124 H -0.02111 0.40275 0.58255
 H125 H -0.11201 0.44904 0.53378
 H126 H -0.07316 0.48532 0.49926
 C127 C 0.06767 0.42952 0.43373
 C128 C 0.07363 0.56234 0.56942
 C129 C -0.06969 0.42312 0.56140
 C130 C -0.06188 0.56814 0.42606
 C131 C 0.55585 0.04527 0.51229
 H132 H 0.55659 0.04799 0.48461
 C133 C 0.57667 0.06656 0.53317
 H134 H 0.59330 0.08575 0.52131
 C135 C 0.53187 0.01790 0.56113
 H136 H 0.51390 -0.00062 0.57195
 C137 C 0.55220 0.03865 0.58294
 H138 H 0.55016 0.03530 0.61045
 N139 N 0.53413 0.02143 0.52649
 C140 C 0.51361 -0.05163 0.44933
 H141 H 0.48529 -0.05318 0.44703
 C142 C 0.53182 -0.07142 0.43015
 H143 H 0.51726 -0.08834 0.41325
 C144 C 0.56686 -0.02832 0.47507
 H145 H 0.58043 -0.01177 0.49287
 C146 C 0.58611 -0.04768 0.45642
 H147 H 0.61442 -0.04530 0.45963
 Zn148 Zn 0.50464 -0.00469 0.49627
 N149 N 0.53128 -0.03034 0.47092
 C150 C 0.47818 0.02471 0.43167
 N151 N 0.47829 0.02456 0.46653
 C152 C 0.46018 0.04630 0.48171
 C153 C 0.44024 0.06885 0.46171
 C154 C 0.45850 0.04684 0.41064
 C155 C 0.48882 -0.05715 0.54365
 C156 C 0.46770 -0.07831 0.56385
 C157 C 0.41701 -0.05202 0.53695
 C158 C 0.43908 -0.03137 0.51732
 N159 N 0.47435 -0.03377 0.52152
 H160 H 0.49343 0.00782 0.42007
 H161 H 0.46107 0.04589 0.50950
 H162 H 0.42543 0.08545 0.47435
 H163 H 0.45881 0.04673 0.38295
 H164 H 0.51692 -0.05884 0.54613
 H165 H 0.47983 -0.09600 0.58216
 H166 H 0.38902 -0.04962 0.53331
 H167 H 0.42793 -0.01335 0.49887
 C168 C 0.56859 -0.06952 0.43349
 C169 C 0.57484 0.06352 0.56902
 C170 C 0.43129 -0.07558 0.56097
 C171 C 0.43911 0.06925 0.42565
 C172 C 0.55522 0.54492 0.01219
 H173 H 0.55604 0.54773 -0.01548
 C174 C 0.57596 0.56618 0.03318
 H175 H 0.59260 0.58542 0.02141
 C176 C 0.53114 0.51739 0.06088
 H177 H 0.51315 0.49883 0.07161
 C178 C 0.55138 0.53811 0.08281
 H179 H 0.54926 0.53467 0.11030
 N180 N 0.53349 0.52102 0.02626
 C181 C 0.51335 0.44819 -0.05118
 H182 H 0.48502 0.44657 -0.05355
 C183 C 0.53166 0.42856 -0.07043
 H184 H 0.51720 0.41169 -0.08745
 C185 C 0.56648 0.47153 -0.02524
 H186 H 0.57997 0.48803 -0.00733
 C187 C 0.58584 0.45232 -0.04394
 H188 H 0.61415 0.45478 -0.04068
 Zn189 Zn 0.50413 0.49494 -0.00409
 N190 N 0.53090 0.46943 -0.02946
 C191 C 0.47777 0.52448 -0.06866
 N192 N 0.47778 0.52422 -0.03380
 C193 C 0.45960 0.54587 -0.01859
 C194 C 0.43968 0.56846 -0.03857
 C195 C 0.45812 0.54665 -0.08966
 C196 C 0.48830 0.44237 0.04316
 C197 C 0.46719 0.42121 0.06337
 C198 C 0.41649 0.44747 0.03645
 C199 C 0.43856 0.46813 0.01681
 N200 N 0.47383 0.46575 0.02104
 H201 H 0.49308 0.50765 -0.08027
 H202 H 0.46041 0.54538 0.00920
 H203 H 0.42481 0.58500 -0.02591
 H204 H 0.45851 0.54664 -0.11735
 H205 H 0.51640 0.44070 0.04565
 H206 H 0.47932 0.40354 0.08169
 H207 H 0.38850 0.44989 0.03283
 H208 H 0.42741 0.48616 -0.00163
 C209 C 0.56843 0.43056 -0.06702
 C210 C 0.57403 0.56304 0.06901
 C211 C 0.43078 0.42394 0.06050
 C212 C 0.43866 0.56898 -0.07463
 C213 C 0.13704 -0.12404 -0.09159
 C214 C 0.12606 -0.12891 -0.12607
 C215 C 0.09601 -0.11457 -0.14127
 C216 C 0.07702 -0.09538 -0.12212
 C217 C 0.19851 -0.19961 -0.19881
 C218 C 0.11811 -0.10484 -0.07239
 C219 C 0.14575 -0.14844 -0.14590
 C220 C 0.16232 -0.16468 -0.16255
 C221 C 0.18180 -0.18358 -0.18208
 C222 C 0.08789 -0.09024 -0.08745
 H223 H 0.16022 -0.13510 -0.07954
 H224 H 0.08734 -0.11809 -0.16798
 H225 H 0.05414 -0.08414 -0.13458
 H226 H 0.12688 -0.10172 -0.04565
 C227 C 0.13693 0.37534 0.40907
 C228 C 0.12592 0.37053 0.37459
 C229 C 0.09580 0.38481 0.35946
 C230 C 0.07678 0.40390 0.37870
 C231 C 0.19851 0.30020 0.30158
 C232 C 0.11796 0.39444 0.42836
 C233 C 0.14565 0.35112 0.35467
 C234 C 0.16225 0.33497 0.33796
 C235 C 0.18177 0.31617 0.31835
 C236 C 0.08768 0.40898 0.41337
 H237 H 0.16016 0.36433 0.42106
 H238 H 0.08711 0.38133 0.33275
 H239 H 0.05385 0.41510 0.36630
 H240 H 0.12677 0.39752 0.45510
 C241 C 0.63765 -0.12401 0.40904
 C242 C 0.62662 -0.12892 0.37458
 C243 C 0.59654 -0.11459 0.35941
 C244 C 0.57760 -0.09536 0.37857
 C245 C 0.69893 -0.19969 0.30179
 C246 C 0.61877 -0.10477 0.42825
 C247 C 0.64627 -0.14847 0.35474
 C248 C 0.66281 -0.16473 0.33808
 C249 C 0.68225 -0.18365 0.31853
 C250 C 0.58853 -0.09018 0.41321
 H251 H 0.66085 -0.13505 0.42107
 H252 H 0.58783 -0.11814 0.33271
 H253 H 0.55471 -0.08413 0.36613
 H254 H 0.62759 -0.10161 0.45497
 C255 C 0.63780 0.37652 -0.09171
 C256 C 0.62685 0.37178 -0.12622
 C257 C 0.59674 0.38607 -0.14135
 C258 C 0.57766 0.40508 -0.12209
 C259 C 0.69963 0.30170 -0.19930
 C260 C 0.61878 0.39555 -0.07240
 C261 C 0.64664 0.35244 -0.14616
 C262 C 0.66328 0.33635 -0.16289
 C263 C 0.68285 0.31762 -0.18251
 C264 C 0.58850 0.41010 -0.08740
 H265 H 0.66103 0.36550 -0.07972
 H266 H 0.58809 0.38264 -0.16809
 H267 H 0.55474 0.41629 -0.13450
 H268 H 0.62754 0.39858 -0.04565
 C269 C -0.10545 0.14719 -0.10667
 C270 C -0.12544 0.13706 -0.13616
 C271 C -0.12386 0.10499 -0.14623
 C272 C -0.10267 0.08300 -0.12664
 C273 C -0.21139 0.21939 -0.20135
 C274 C -0.08430 0.12526 -0.08704
 C275 C -0.14841 0.15931 -0.15530
 C276 C -0.16797 0.17812 -0.17057
 C277 C -0.19123 0.20031 -0.18758
 C278 C -0.08289 0.09282 -0.09665
 H279 H -0.10644 0.17196 -0.09866
 H280 H -0.13936 0.09684 -0.16893
 H281 H -0.10244 0.05810 -0.13449
 H282 H -0.06899 0.13370 -0.06438
 C283 C -0.10586 0.64613 0.39437
 C284 C -0.12590 0.63597 0.36492
 C285 C -0.12432 0.60389 0.35487
 C286 C -0.10309 0.58193 0.37443
 C287 C -0.21206 0.71811 0.29974
 C288 C -0.08467 0.62423 0.41398
 C289 C -0.14892 0.65819 0.34580
 C290 C -0.16853 0.67696 0.33054
 C291 C -0.19185 0.69909 0.31352
 C292 C -0.08326 0.59178 0.40440
 H293 H -0.10686 0.67091 0.40237
 H294 H -0.13985 0.59572 0.33219
 H295 H -0.10285 0.55703 0.36660
 H296 H -0.06934 0.63269 0.43661
 C297 C 0.39476 0.14701 0.39385
 C298 C 0.37463 0.13670 0.36452
 C299 C 0.37628 0.10460 0.35457
 C300 C 0.39767 0.08277 0.37412
 C301 C 0.28781 0.21830 0.29945
 C302 C 0.41611 0.12524 0.41344
 C303 C 0.35143 0.15878 0.34544
 C304 C 0.33167 0.17742 0.33020
 C305 C 0.30817 0.19941 0.31322
 C306 C 0.41760 0.09277 0.40397
 H307 H 0.39371 0.17182 0.40178
 H308 H 0.36068 0.09631 0.33199
 H309 H 0.39795 0.05784 0.36638
 H310 H 0.43151 0.13382 0.43599
 C311 C 0.39435 0.64681 -0.10627
 C312 C 0.37432 0.63658 -0.13570
 C313 C 0.37602 0.60453 -0.14576
 C314 C 0.39736 0.58264 -0.12623
 C315 C 0.28771 0.71837 -0.20080
 C316 C 0.41565 0.62498 -0.08669
 C317 C 0.35118 0.65872 -0.15478
 C318 C 0.33146 0.67741 -0.17003
 C319 C 0.30802 0.69944 -0.18703
 C320 C 0.41719 0.59256 -0.09628
 H321 H 0.39326 0.67158 -0.09827
 H322 H 0.36049 0.59631 -0.16842
 H323 H 0.39768 0.55775 -0.13405
 H324 H 0.43098 0.63349 -0.06407
 C325 C -0.10734 -0.14944 0.11294
 C326 C -0.13486 -0.13566 0.12707
 C327 C -0.14123 -0.10263 0.11907
 C328 C -0.12014 -0.08336 0.09717
 C329 C -0.21559 -0.20090 0.21369
 C330 C -0.08615 -0.13017 0.09099
 C331 C -0.15635 -0.15503 0.15026
 C332 C -0.17470 -0.17038 0.16999
 C333 C -0.19658 -0.18732 0.19343
 C334 C -0.09230 -0.09686 0.08292
 H335 H -0.10219 -0.17500 0.11894
 H336 H -0.16236 -0.09168 0.13000
 H337 H -0.12522 -0.05770 0.09194
 H338 H -0.06516 -0.14136 0.08015
 C339 C -0.14157 0.39646 0.62002
 C340 C -0.13519 0.36343 0.62806
 C341 C -0.10761 0.34967 0.61401
 C342 C -0.08638 0.36895 0.59212
 C343 C -0.21621 0.29815 0.71439
 C344 C -0.12043 0.41574 0.59818
 C345 C -0.15676 0.34405 0.65117
 C346 C -0.17518 0.32869 0.67083
 C347 C -0.19714 0.31174 0.69419
 C348 C -0.09253 0.40224 0.58400
 H349 H -0.16274 0.40740 0.63089
 H350 H -0.10246 0.32411 0.62004
 H351 H -0.06534 0.35776 0.58133
 H352 H -0.12551 0.44139 0.59292
 C353 C 0.35925 -0.10230 0.61939
 C354 C 0.36558 -0.13535 0.62735
 C355 C 0.39319 -0.14910 0.61334
 C356 C 0.41450 -0.12979 0.59155
 C357 C 0.28421 -0.20073 0.71328
 C358 C 0.38047 -0.08299 0.59764
 C359 C 0.34392 -0.15477 0.65035
 C360 C 0.32542 -0.17015 0.66992
 C361 C 0.30336 -0.18713 0.69317
 C362 C 0.40839 -0.09648 0.58350
 H363 H 0.33806 -0.09137 0.63023
 H364 H 0.39830 -0.17468 0.61932
 H365 H 0.43555 -0.14097 0.58078
 H366 H 0.37542 -0.05733 0.59242
 C367 C 0.35885 0.39743 0.11911
 C368 C 0.36519 0.36440 0.12718
 C369 C 0.39275 0.35058 0.11316
 C370 C 0.41401 0.36981 0.09125
 C371 C 0.28411 0.29924 0.21354
 C372 C 0.38002 0.41666 0.09725
 C373 C 0.34360 0.34507 0.15031
 C374 C 0.32516 0.32975 0.16999
 C375 C 0.30319 0.31282 0.19334
 C376 C 0.40790 0.40311 0.08310
 H377 H 0.33770 0.40841 0.12996
 H378 H 0.39787 0.32502 0.11922
 H379 H 0.43503 0.35859 0.08049
 H380 H 0.37497 0.44232 0.09196
 C381 C 0.14833 0.11891 0.10663
 C382 C 0.13305 0.13085 0.13422
 C383 C 0.09858 0.12051 0.14051
 C384 C 0.07940 0.09839 0.11930
 C385 C 0.19946 0.21609 0.21570
 C386 C 0.12916 0.09677 0.08533
 C387 C 0.15241 0.15394 0.15600
 C388 C 0.16794 0.17343 0.17455
 C389 C 0.18532 0.19638 0.19660
 C390 C 0.09444 0.08627 0.09143
 H391 H 0.17501 0.12673 0.10156
 H392 H 0.08645 0.12970 0.16171
 H393 H 0.05258 0.09122 0.12436
 H394 H 0.14158 0.08762 0.06431
 C395 C 0.09854 0.61996 0.64105
 C396 C 0.13296 0.63035 0.63462
 C397 C 0.14818 0.61836 0.60702
 C398 C 0.12900 0.59612 0.58585
 C399 C 0.19942 0.71605 0.71554
 C400 C 0.07935 0.59774 0.61996
 C401 C 0.15233 0.65357 0.65625
 C402 C 0.16787 0.67316 0.67466
 C403 C 0.18526 0.69624 0.69656
 C404 C 0.09433 0.58557 0.59208
 H405 H 0.08645 0.62919 0.66225
 H406 H 0.17483 0.62622 0.60184
 H407 H 0.14137 0.58694 0.56482
 H408 H 0.05256 0.59053 0.62512
 C409 C 0.59983 0.12115 0.64062
 C410 C 0.63426 0.13151 0.63419
 C411 C 0.64946 0.11948 0.60660
 C412 C 0.63025 0.09725 0.58544
 C413 C 0.70066 0.21731 0.71503
 C414 C 0.58061 0.09894 0.61954
 C415 C 0.65364 0.15474 0.65579
 C416 C 0.66918 0.17435 0.67419
 C417 C 0.68654 0.19746 0.69607
 C418 C 0.59558 0.08674 0.59167
 H419 H 0.58775 0.13042 0.66181
 H420 H 0.67612 0.12731 0.60141
 H421 H 0.64262 0.08804 0.56441
 H422 H 0.55382 0.09177 0.62470
 C423 C 0.64854 0.61888 0.10698
 C424 C 0.63326 0.63079 0.13458
 C425 C 0.59880 0.62042 0.14088
 C426 C 0.57964 0.59829 0.11966
 C427 C 0.69969 0.71607 0.21600
 C428 C 0.62939 0.59673 0.08568
 C429 C 0.65261 0.65390 0.15635
 C430 C 0.66813 0.67339 0.17489
 C431 C 0.68552 0.69636 0.19692
 C432 C 0.59469 0.58620 0.09178
 H433 H 0.67522 0.62672 0.10190
 H434 H 0.58666 0.62960 0.16208
 H435 H 0.55282 0.59110 0.12473
 H436 H 0.64182 0.58760 0.06466
   
