data_POSCAR
  _audit_creation_date              2014-09-24
  _audit_creation_method            'ToBaCCo'
  _symmetry_space_group_name_H-M    'P1'
  _symmetry_Int_Tables_number       1
  _symmetry_cell_setting            triclinic
  loop_
  _symmetry_equiv_pos_as_xyz
 x,y,z
_cell_length_a 33.8540
_cell_length_b 18.2108
_cell_length_c 11.6240
_cell_angle_alpha 90.268100
_cell_angle_beta 89.990800
_cell_angle_gamma 90.002300
loop_
  _atom_site_label
  _atom_site_type_symbol
  _atom_site_fract_x
  _atom_site_fract_y
  _atom_site_fract_z
C1 C 0.71650 0.27475 0.56053
 C2 C 0.71402 0.26380 0.43936
 C3 C 0.74592 0.23324 0.37971
 C4 C 0.78137 0.21467 0.43498
 C5 C 0.78379 0.22146 0.55740
 C6 C 0.75193 0.25473 0.61641
 H7 H 0.75363 0.26040 0.70909
 H8 H 0.74390 0.22889 0.28669
 C9 C 0.21652 0.77163 0.56410
 C10 C 0.21730 0.77899 0.44290
 C11 C 0.25115 0.75698 0.38266
 C12 C 0.28410 0.72779 0.43914
 C13 C 0.28366 0.71961 0.56118
 C14 C 0.24940 0.74215 0.62099
 H15 H 0.24815 0.73810 0.71397
 H16 H 0.25171 0.76157 0.28962
 C17 C 0.28347 0.27292 -0.56237
 C18 C 0.28118 0.28010 -0.44163
 C19 C 0.24634 0.25953 -0.38503
 C20 C 0.21375 0.22893 -0.44451
 C21 C 0.21595 0.22420 -0.56783
 C22 C 0.25130 0.24438 -0.62307
 H23 H 0.25326 0.24190 -0.71624
 H24 H 0.24580 0.26418 -0.29204
 C25 C -0.21563 0.77080 -0.56043
 C26 C -0.21779 0.77740 -0.43958
 C27 C -0.25243 0.75627 -0.38269
 C28 C -0.28491 0.72513 -0.44174
 C29 C -0.28278 0.71994 -0.56501
 C30 C -0.24767 0.74124 -0.62079
 H31 H -0.24587 0.73876 -0.71396
 H32 H -0.25287 0.76090 -0.28967
 O33 O -0.05433 0.87905 0.21808
 O34 O -0.09828 0.94223 0.10558
 C35 C -0.08990 0.89697 0.18785
 O36 O 0.05473 1.14159 0.19389
 O37 O 0.09848 1.07049 0.09137
 C38 C 0.09027 1.12175 0.16545
 O39 O -0.05537 1.13384 0.20544
 O40 O -0.09861 1.06571 0.09693
 C41 C -0.09076 1.11396 0.17578
 O42 O 0.05583 0.87652 0.21035
 O43 O 0.09921 0.94387 0.10143
 C44 C 0.09125 0.89622 0.18090
 Zr45 Zr 0.00047 0.91386 0.14999
 O46 O 0.00360 0.91553 0.33196
 O47 O -0.00018 0.79788 0.14341
 Zr48 Zr -0.00034 1.10004 0.13688
 O49 O 0.00117 1.11671 0.31693
 O50 O -0.00208 1.21446 0.10807
 O51 O -0.03491 1.00709 0.16691
 O52 O 0.03415 1.00806 0.16477
 O53 O 0.05548 0.86341 -0.19400
 O54 O 0.09888 0.93725 -0.09494
 C55 C 0.09092 0.88519 -0.16796
 O56 O -0.05637 1.11864 -0.22250
 O57 O -0.09961 1.05918 -0.10225
 C58 C -0.09173 1.10154 -0.18829
 O59 O 0.05478 1.12719 -0.21530
 O60 O 0.09873 1.06421 -0.10179
 C61 C 0.09033 1.10976 -0.18349
 O62 O -0.05562 0.86969 -0.20278
 O63 O -0.09928 0.93919 -0.09707
 C64 C -0.09116 0.89061 -0.17534
 Zr65 Zr 0.00011 0.90487 -0.13872
 O66 O 0.00411 0.89578 -0.32001
 O67 O -0.00336 0.78916 -0.12478
 Zr68 Zr -0.00055 1.09070 -0.15176
 O69 O 0.00294 1.09207 -0.33343
 O70 O -0.00475 1.20673 -0.15026
 Zr71 Zr -0.05901 1.00158 -0.00011
 Zr72 Zr 0.05892 1.00316 -0.00108
 O73 O 0.03386 0.99749 -0.16680
 O74 O -0.03521 0.99662 -0.16780
 O75 O 0.03596 0.89577 0.00643
 O76 O -0.03525 1.10821 -0.00795
 O77 O -0.03438 0.89568 0.00679
 O78 O 0.03511 1.11001 -0.00860
 H79 H 0.05159 1.01029 0.23311
 H80 H -0.05362 1.15054 -0.01082
 H81 H 0.05110 0.99528 -0.23560
 H82 H -0.05230 0.85267 0.00901
 H83 H -0.00282 1.23771 0.18526
 H84 H 0.01916 1.22598 -0.11144
 H85 H -0.01335 1.05084 -0.36208
 H86 H -0.01658 0.92759 -0.35325
 H87 H 0.01832 0.77332 -0.07342
 H88 H 0.00009 0.78114 0.22441
 H89 H -0.01723 0.94927 0.36002
 H90 H 0.00312 1.06764 0.35223
 O91 O 0.44563 0.37381 0.21323
 O92 O 0.40207 0.43976 0.10329
 C93 C 0.41018 0.39324 0.18403
 O94 O 0.55598 0.63461 0.19977
 O95 O 0.59946 0.56399 0.09538
 C96 C 0.59143 0.61463 0.17076
 O97 O 0.44517 0.63033 0.20632
 O98 O 0.40156 0.56101 0.10022
 C99 C 0.40969 0.60978 0.17824
 O100 O 0.55557 0.36602 0.20066
 O101 O 0.59944 0.43624 0.09801
 C102 C 0.59111 0.38595 0.17305
 Zr103 Zr 0.50056 0.40759 0.14480
 O104 O 0.50440 0.40370 0.32638
 O105 O 0.49847 0.29191 0.13058
 Zr106 Zr 0.50069 0.59378 0.14332
 O107 O 0.50453 0.59524 0.32518
 O108 O 0.49711 0.70981 0.13979
 O109 O 0.46558 0.50107 0.16738
 O110 O 0.53481 0.50060 0.16544
 O111 O 0.55537 0.36618 -0.20443
 O112 O 0.59929 0.43443 -0.09749
 C113 C 0.59096 0.38569 -0.17559
 O114 O 0.44577 0.61931 -0.22065
 O115 O 0.40203 0.56139 -0.10071
 C116 C 0.41022 0.60353 -0.18687
 O117 O 0.55630 0.62631 -0.21032
 O118 O 0.59975 0.56151 -0.09811
 C119 C 0.59169 0.60792 -0.17881
 O120 O 0.44420 0.37210 -0.20915
 O121 O 0.40100 0.44008 -0.09956
 C122 C 0.40879 0.39278 -0.18005
 Zr123 Zr 0.50009 0.40529 -0.14407
 O124 O 0.50304 0.40006 -0.32587
 O125 O 0.49660 0.28935 -0.13531
 Zr126 Zr 0.50078 0.59140 -0.14604
 O127 O 0.50296 0.60309 -0.32669
 O128 O 0.49693 0.70718 -0.13111
 Zr129 Zr 0.44164 0.50005 0.00010
 Zr130 Zr 0.55959 0.49912 -0.00055
 O131 O 0.53448 0.49778 -0.16649
 O132 O 0.46551 0.49845 -0.16766
 O133 O 0.53592 0.39212 0.00028
 O134 O 0.46612 0.60624 -0.00179
 O135 O 0.46555 0.39351 0.00094
 O136 O 0.53636 0.60665 -0.00180
 H137 H 0.55240 0.50079 0.23356
 H138 H 0.44794 0.64888 -0.00323
 H139 H 0.55158 0.49675 -0.23564
 H140 H 0.44730 0.35095 0.00140
 H141 H 0.51906 0.72772 0.09124
 H142 H 0.52360 0.72592 -0.11217
 H143 H 0.50292 0.55292 -0.35933
 H144 H 0.48291 0.43422 -0.35633
 H145 H 0.51926 0.27227 -0.08873
 H146 H 0.49853 0.27299 0.21037
 H147 H 0.48668 0.44229 0.35691
 H148 H 0.48186 0.56699 0.35541
 N149 N 0.31021 0.35878 0.29542
 C150 C 0.31663 0.30302 0.37027
 N151 N 0.35361 0.27506 0.37982
 N152 N 0.38339 0.30359 0.31997
 C153 C 0.37713 0.36039 0.24699
 N154 N 0.33993 0.38703 0.23494
 N155 N -0.18999 0.85523 0.29305
 C156 C -0.18274 0.80225 0.37219
 N157 N -0.14507 0.77886 0.38712
 N158 N -0.11556 0.80893 0.32803
 C159 C -0.12268 0.86296 0.25072
 N160 N -0.16050 0.88511 0.23344
 N161 N 0.64767 0.71733 0.38879
 C162 C 0.68551 0.69796 0.36403
 N163 N 0.69232 0.65754 0.26729
 N164 N 0.66243 0.63279 0.20340
 C165 C 0.62457 0.64901 0.23212
 N166 N 0.61778 0.69295 0.32464
 N167 N 0.14646 1.22354 0.38455
 C168 C 0.18422 1.20328 0.36052
 N169 N 0.19101 1.16309 0.26357
 N170 N 0.16115 1.13927 0.19883
 C171 C 0.12333 1.15626 0.22681
 N172 N 0.11657 1.20004 0.31955
 N173 N 0.64733 0.30439 -0.41385
 C174 C 0.68482 0.30300 -0.37244
 N175 N 0.69087 0.32731 -0.26277
 N176 N 0.66109 0.35302 -0.19912
 C177 C 0.62376 0.35381 -0.24154
 N178 N 0.61745 0.32895 -0.35002
 N179 N 0.14708 0.76962 -0.37078
 C180 C 0.18372 0.79960 -0.36423
 N181 N 0.19031 0.85434 -0.28688
 N182 N 0.16099 0.88015 -0.22180
 C183 C 0.12405 0.85163 -0.23076
 N184 N 0.11770 0.79562 -0.30606
 N185 N 0.35195 0.68083 -0.42315
 C186 C 0.31567 0.68981 -0.37526
 N187 N 0.31104 0.67024 -0.26309
 N188 N 0.34101 0.64249 -0.20295
 C189 C 0.37714 0.63434 -0.25188
 N190 N 0.38209 0.65416 -0.36302
 N191 N -0.16133 1.13720 -0.42190
 C192 C -0.18516 1.19010 -0.37675
 N193 N -0.17925 1.20996 -0.26493
 N194 N -0.14977 1.18112 -0.20393
 C195 C -0.12499 1.13131 -0.25244
 N196 N -0.13155 1.10912 -0.36191
 N197 N 0.65797 0.64592 -0.41979
 C198 C 0.68397 0.69495 -0.37452
 N199 N 0.68034 0.71193 -0.26058
 N200 N 0.65128 0.68380 -0.19705
 C201 C 0.62454 0.63761 -0.24518
 N202 N 0.62858 0.61861 -0.35724
 N203 N 0.17941 1.21329 -0.26308
 C204 C 0.18252 1.19853 -0.37788
 N205 N 0.15592 1.15124 -0.42472
 N206 N 0.12649 1.12353 -0.36274
 C207 C 0.12302 1.14026 -0.24968
 N208 N 0.15035 1.18464 -0.20011
 N209 N 0.30812 0.36089 -0.28973
 C210 C 0.31440 0.30887 -0.37184
 N211 N 0.35151 0.28223 -0.38620
 N212 N 0.38149 0.30832 -0.32424
 C213 C 0.37538 0.36145 -0.24408
 N214 N 0.33809 0.38690 -0.22729
 N215 N -0.19110 0.86045 -0.29085
 C216 C -0.18477 0.80640 -0.36956
 N217 N -0.14798 0.77745 -0.37918
 N218 N -0.11822 0.80352 -0.31620
 C219 C -0.12434 0.85872 -0.23953
 N220 N -0.16139 0.88634 -0.22734
 N221 N 0.31139 0.63655 0.30549
 C222 C 0.31624 0.69999 0.36544
 N223 N 0.35129 0.73598 0.35852
 N224 N 0.38103 0.70769 0.29768
 C225 C 0.37647 0.64326 0.23993
 N226 N 0.34096 0.60877 0.24354
 N227 N -0.14885 1.21423 0.39225
 C228 C -0.18643 1.19436 0.36478
 N229 N -0.19234 1.15413 0.26750
 N230 N -0.16184 1.13016 0.20552
 C231 C -0.12427 1.14669 0.23707
 N232 N -0.11834 1.19050 0.33009
 N233 N 0.64657 0.25959 0.35902
 C234 C 0.68198 0.29408 0.36781
 N235 N 0.68824 0.35613 0.30614
 N236 N 0.65965 0.38429 0.24118
 C237 C 0.62378 0.35122 0.23532
 N238 N 0.61782 0.28821 0.29503
 N239 N 0.14643 0.78911 0.39476
 C240 C 0.18423 0.81049 0.37571
 N241 N 0.19152 0.85821 0.28863
 N242 N 0.16206 0.88497 0.22533
 C243 C 0.12420 0.86427 0.24588
 N244 N 0.11697 0.81578 0.33166
   
