data_POSCAR
  _audit_creation_date              2014-09-24
  _audit_creation_method            'ToBaCCo'
  _symmetry_space_group_name_H-M    'P1'
  _symmetry_Int_Tables_number       1
  _symmetry_cell_setting            triclinic
  loop_
  _symmetry_equiv_pos_as_xyz
 x,y,z
_cell_length_a 39.7208
_cell_length_b 40.0704
_cell_length_c 37.2505
_cell_angle_alpha 90.179500
_cell_angle_beta 88.658500
_cell_angle_gamma 88.488300
loop_
  _atom_site_label
  _atom_site_type_symbol
  _atom_site_fract_x
  _atom_site_fract_y
  _atom_site_fract_z
N1 N 0.28900 0.21232 0.18236
 N2 N 0.27182 0.23299 0.16198
 C3 C 0.28904 0.23736 0.13086
 C4 C 0.31874 0.21843 0.13180
 C5 C 0.31777 0.20285 0.16498
 H6 H 0.28095 0.25370 0.10952
 H7 H 0.33709 0.18687 0.17635
 Cu8 Cu 0.23054 0.25468 0.18029
 Cu9 Cu 0.27411 0.20175 0.23125
 Cu10 Cu 0.18943 0.22046 0.24955
 N11 N 0.18829 0.27419 0.19865
 N12 N 0.17302 0.26161 0.22705
 C13 C 0.14595 0.28110 0.23601
 C14 C 0.14412 0.30711 0.21171
 C15 C 0.17129 0.30188 0.18832
 H16 H 0.12900 0.27676 0.25857
 H17 H 0.17881 0.31786 0.16638
 N18 N 0.21607 0.18805 0.27766
 N19 N 0.24864 0.18235 0.27182
 C20 C 0.26004 0.16059 0.29645
 C21 C 0.23332 0.15195 0.31870
 C22 C 0.20580 0.16978 0.30597
 H23 H 0.28575 0.15118 0.29767
 H24 H 0.18040 0.17008 0.31708
 H25 H 0.22657 0.20237 0.21292
 H26 H 0.23627 0.23802 0.24291
 N27 N 0.71517 -0.22987 0.16658
 N28 N 0.73138 -0.25348 0.14815
 C29 C 0.71276 -0.26232 0.12013
 C30 C 0.68303 -0.24318 0.12091
 C31 C 0.68574 -0.22266 0.15084
 H32 H 0.72016 -0.28172 0.10115
 H33 H 0.66715 -0.20495 0.16167
 Cu34 Cu 0.77357 -0.27236 0.16516
 Cu35 Cu 0.73170 -0.21334 0.21206
 Cu36 Cu 0.81681 -0.23063 0.22570
 N37 N 0.81646 -0.28971 0.18185
 N38 N 0.83284 -0.27398 0.20672
 C39 C 0.86037 -0.29236 0.21526
 C40 C 0.86137 -0.32134 0.19448
 C41 C 0.83302 -0.31847 0.17347
 H42 H 0.87811 -0.28502 0.23519
 H43 H 0.82407 -0.33659 0.15467
 N44 N 0.79071 -0.19538 0.25215
 N45 N 0.75807 -0.19003 0.24807
 C46 C 0.74702 -0.16631 0.27146
 C47 C 0.77400 -0.15603 0.29108
 C48 C 0.80135 -0.17490 0.27806
 H49 H 0.72127 -0.15701 0.27387
 H50 H 0.82682 -0.17461 0.28768
 H51 H 0.77874 -0.21654 0.19015
 H52 H 0.76966 -0.24828 0.22531
 N53 N 0.75407 0.20196 0.81003
 N54 N 0.76762 0.22486 0.82997
 C55 C 0.74626 0.23295 0.85743
 C56 C 0.71767 0.21401 0.85466
 C57 C 0.72366 0.19462 0.82413
 H58 H 0.75128 0.25128 0.87783
 H59 H 0.70699 0.17684 0.81258
 Cu60 Cu 0.81168 0.24220 0.81788
 Cu61 Cu 0.77661 0.18385 0.76689
 Cu62 Cu 0.85007 0.22175 0.73900
 N63 N 0.84920 0.26734 0.79880
 N64 N 0.86439 0.25912 0.76824
 C65 C 0.88881 0.28099 0.76113
 C66 C 0.88892 0.30456 0.78868
 C67 C 0.86325 0.29480 0.81213
 H68 H 0.90461 0.28009 0.73714
 H69 H 0.85480 0.30689 0.83681
 N70 N 0.83115 0.18354 0.71334
 N71 N 0.80316 0.16918 0.72403
 C72 C 0.79637 0.14453 0.70088
 C73 C 0.82120 0.14320 0.67407
 C74 C 0.84286 0.16839 0.68303
 H75 H 0.77473 0.12889 0.70333
 H76 H 0.86528 0.17554 0.66833
 H77 H 0.82590 0.19477 0.77858
 H78 H 0.80049 0.22814 0.75590
 N79 N 0.24526 -0.19841 0.82980
 N80 N 0.24523 -0.23114 0.82774
 C81 C 0.27031 -0.24380 0.84772
 C82 C 0.28650 -0.21746 0.86357
 C83 C 0.26989 -0.18901 0.85141
 H84 H 0.27582 -0.27018 0.85098
 H85 H 0.27558 -0.16335 0.85726
 Cu86 Cu 0.21208 -0.25403 0.79921
 Cu87 Cu 0.21400 -0.17112 0.80301
 Cu88 Cu 0.14210 -0.20477 0.77845
 N89 N 0.16799 -0.27230 0.78693
 N90 N 0.14032 -0.25354 0.78441
 C91 C 0.11345 -0.27335 0.78382
 C92 C 0.12501 -0.30632 0.78441
 C93 C 0.15974 -0.30461 0.78595
 H94 H 0.08763 -0.26443 0.78168
 H95 H 0.17745 -0.32530 0.78918
 N96 N 0.15822 -0.16335 0.75642
 N97 N 0.18712 -0.15102 0.76576
 C98 C 0.19507 -0.12582 0.74378
 C99 C 0.16984 -0.12191 0.71911
 C100 C 0.14656 -0.14591 0.72815
 H101 H 0.21826 -0.11233 0.74476
 H102 H 0.12423 -0.15187 0.71360
 H103 H 0.17874 -0.21829 0.81696
 H104 H 0.19091 -0.21686 0.76841
 N105 N 0.71541 -0.19784 0.81959
 N106 N 0.72639 -0.22663 0.83217
 C107 C 0.70524 -0.23648 0.85863
 C108 C 0.67997 -0.21235 0.86308
 C109 C 0.68726 -0.18811 0.83798
 H110 H 0.70781 -0.25953 0.87346
 H111 H 0.67234 -0.16583 0.83247
 Cu112 Cu 0.76709 -0.24849 0.81260
 Cu113 Cu 0.73636 -0.17695 0.77802
 Cu114 Cu 0.80959 -0.21483 0.74301
 N115 N 0.80884 -0.26867 0.79358
 N116 N 0.82526 -0.25572 0.76621
 C117 C 0.85249 -0.27527 0.75801
 C118 C 0.85345 -0.30196 0.78178
 C119 C 0.82521 -0.29665 0.80400
 H120 H 0.87019 -0.27020 0.73638
 H121 H 0.81661 -0.31225 0.82574
 N122 N 0.78954 -0.17341 0.72329
 N123 N 0.76110 -0.15967 0.73600
 C124 C 0.75192 -0.13414 0.71463
 C125 C 0.77592 -0.13142 0.68746
 C126 C 0.79951 -0.15653 0.69385
 H127 H 0.72905 -0.11911 0.71795
 H128 H 0.82123 -0.16314 0.67703
 H129 H 0.75900 -0.21967 0.75576
 H130 H 0.78444 -0.19533 0.78772
 N131 N 0.26642 0.21011 0.84042
 N132 N 0.25971 0.24060 0.85219
 C133 C 0.28480 0.25019 0.87327
 C134 C 0.30834 0.22413 0.87512
 C135 C 0.29567 0.19900 0.85415
 H136 H 0.28597 0.27441 0.88600
 H137 H 0.30761 0.17504 0.84788
 Cu138 Cu 0.21897 0.26502 0.83844
 Cu139 Cu 0.23807 0.18861 0.80548
 Cu140 Cu 0.19415 0.24734 0.75561
 N141 N 0.18396 0.29182 0.81559
 N142 N 0.17561 0.28539 0.78239
 C143 C 0.15321 0.30867 0.77149
 C144 C 0.14656 0.33059 0.79958
 C145 C 0.16641 0.31915 0.82733
 H146 H 0.14222 0.30929 0.74520
 H147 H 0.16868 0.33044 0.85355
 N148 N 0.20266 0.20108 0.73954
 N149 N 0.21872 0.17831 0.75866
 C150 C 0.21960 0.14915 0.74048
 C151 C 0.20275 0.15384 0.70864
 C152 C 0.19239 0.18703 0.70905
 H153 H 0.23147 0.12628 0.74979
 H154 H 0.17856 0.20012 0.68852
 H155 H 0.23695 0.23439 0.78426
 H156 H 0.19523 0.22088 0.80219
 N157 N 0.24464 -0.18566 0.17401
 N158 N 0.23481 -0.21317 0.15862
 C159 C 0.25813 -0.22322 0.13387
 C160 C 0.28416 -0.20077 0.13364
 C161 C 0.27449 -0.17712 0.15945
 H162 H 0.25633 -0.24556 0.11778
 H163 H 0.28848 -0.15586 0.16804
 Cu164 Cu 0.19315 -0.23414 0.17327
 Cu165 Cu 0.21851 -0.16436 0.21308
 Cu166 Cu 0.17071 -0.22156 0.25978
 N167 N 0.15945 -0.26105 0.19700
 N168 N 0.15163 -0.25669 0.23120
 C169 C 0.13034 -0.28043 0.24185
 C170 C 0.12421 -0.30059 0.21264
 C171 C 0.14300 -0.28747 0.18452
 H172 H 0.12027 -0.28292 0.26891
 H173 H 0.14578 -0.29736 0.15754
 N174 N 0.18245 -0.17790 0.27972
 N175 N 0.20011 -0.15580 0.26173
 C176 C 0.20359 -0.12857 0.28243
 C177 C 0.18700 -0.13369 0.31500
 C178 C 0.17384 -0.16521 0.31222
 H179 H 0.21722 -0.10674 0.27432
 H180 H 0.15942 -0.17819 0.33252
 H181 H 0.21386 -0.21181 0.22932
 H182 H 0.17330 -0.19121 0.21610
 N183 N 0.75172 0.20422 0.15577
 N184 N 0.75602 0.23574 0.14750
 C185 C 0.73141 0.24601 0.12558
 C186 C 0.71081 0.21941 0.11936
 C187 C 0.72459 0.19316 0.13873
 H188 H 0.72858 0.27100 0.11500
 H189 H 0.71487 0.16831 0.14140
 Cu190 Cu 0.79327 0.26038 0.16624
 Cu191 Cu 0.78078 0.18061 0.18956
 Cu192 Cu 0.83158 0.23202 0.23892
 N193 N 0.83311 0.28178 0.18389
 N194 N 0.84792 0.27030 0.21265
 C195 C 0.87299 0.29043 0.22126
 C196 C 0.87420 0.31616 0.19653
 C197 C 0.84847 0.30971 0.17305
 H198 H 0.88859 0.28677 0.24438
 H199 H 0.84061 0.32487 0.15065
 N200 N 0.82220 0.18600 0.25262
 N201 N 0.80317 0.16607 0.23404
 C202 C 0.80096 0.13672 0.25152
 C203 C 0.81995 0.13831 0.28226
 C204 C 0.83301 0.16992 0.28190
 H205 H 0.78623 0.11601 0.24282
 H206 H 0.84842 0.18089 0.30211
 H207 H 0.78391 0.22371 0.21743
 H208 H 0.82255 0.21148 0.19055
 C209 C 0.20742 -0.01162 0.54585
 C210 C 0.21022 0.02338 0.54727
 C211 C 0.21117 0.04158 0.51519
 C212 C 0.20943 0.02564 0.48177
 C213 C 0.20701 -0.00948 0.48030
 C214 C 0.20593 -0.02766 0.51249
 H215 H 0.20426 -0.05462 0.51161
 H216 H 0.21300 0.06853 0.51624
 C217 C 0.79973 -0.02343 0.44731
 C218 C 0.80307 0.01156 0.44536
 C219 C 0.80475 0.03019 0.47731
 C220 C 0.80285 0.01473 0.51103
 C221 C 0.79988 -0.02026 0.51271
 C222 C 0.79806 -0.03887 0.48098
 H223 H 0.79624 -0.06580 0.48251
 H224 H 0.80643 0.05713 0.47594
 C225 C 0.48345 0.19376 -0.02816
 C226 C 0.48547 0.19326 0.00965
 C227 C 0.51719 0.19326 0.02537
 C228 C 0.54686 0.19332 0.00427
 C229 C 0.54494 0.19325 -0.03358
 C230 C 0.51312 0.19361 -0.04935
 H231 H 0.51141 0.19377 -0.07836
 H232 H 0.51885 0.19310 0.05440
 C233 C 0.45027 0.75880 0.01455
 C234 C 0.45207 0.75210 -0.02275
 C235 C 0.48363 0.74907 -0.04022
 C236 C 0.51335 0.75388 -0.02161
 C237 C 0.51172 0.76086 0.01566
 C238 C 0.48009 0.76301 0.03327
 H239 H 0.47865 0.76765 0.06196
 H240 H 0.48501 0.74475 -0.06898
 C241 C 0.02727 0.46949 0.24230
 C242 C -0.00746 0.46956 0.23512
 C243 C -0.02506 0.50008 0.23134
 C244 C -0.00878 0.53062 0.23438
 C245 C 0.02609 0.53038 0.24137
 C246 C 0.04360 0.49985 0.24572
 H247 H 0.07046 0.49969 0.25032
 H248 H -0.05189 0.50004 0.22661
 C249 C 0.01146 0.48005 0.82175
 C250 C -0.02379 0.47704 0.82235
 C251 C -0.04427 0.50594 0.82043
 C252 C -0.03053 0.53779 0.81699
 C253 C 0.00508 0.54095 0.81608
 C254 C 0.02537 0.51173 0.81903
 H255 H 0.05253 0.51347 0.81971
 H256 H -0.07141 0.50351 0.82049
 C257 C 0.34978 0.24277 0.07901
 C258 C 0.34680 0.21738 0.10480
 C259 C 0.37142 0.19152 0.10533
 C260 C 0.39897 0.19138 0.08105
 C261 C 0.40207 0.21745 0.05580
 C262 C 0.37718 0.24284 0.05479
 C263 C 0.43022 0.21792 0.03235
 C264 C 0.45507 0.19238 0.03345
 C265 C 0.45161 0.16642 0.05837
 C266 C 0.42378 0.16587 0.08196
 H267 H 0.36930 0.17152 0.12469
 H268 H 0.37910 0.26296 0.03554
 H269 H 0.43319 0.23848 0.01383
 H270 H 0.42181 0.14566 0.10108
 H271 H 0.33138 0.26311 0.07800
 H272 H 0.47061 0.14658 0.05960
 C273 C 0.65401 0.72801 0.07285
 C274 C 0.65534 0.75425 0.09809
 C275 C 0.62792 0.77735 0.10057
 C276 C 0.59968 0.77386 0.07906
 C277 C 0.59835 0.74670 0.05495
 C278 C 0.62574 0.72413 0.05182
 C279 C 0.56958 0.74242 0.03453
 C280 C 0.54244 0.76559 0.03693
 C281 C 0.54423 0.79286 0.06055
 C282 C 0.57252 0.79690 0.08155
 H283 H 0.62831 0.79824 0.11902
 H284 H 0.62524 0.70330 0.03322
 H285 H 0.56810 0.72079 0.01718
 H286 H 0.57313 0.81799 0.09977
 H287 H 0.67428 0.70964 0.06976
 H288 H 0.52363 0.81107 0.06276
 C289 C 0.68214 0.23998 -0.09535
 C290 C 0.68716 0.21469 -0.12138
 C291 C 0.66266 0.19012 -0.12445
 C292 C 0.63366 0.19089 -0.10214
 C293 C 0.62893 0.21653 -0.07624
 C294 C 0.65334 0.24090 -0.07304
 C295 C 0.59984 0.21739 -0.05407
 C296 C 0.57558 0.19270 -0.05717
 C297 C 0.58042 0.16744 -0.08311
 C298 C 0.60924 0.16648 -0.10537
 H299 H 0.66606 0.17022 -0.14402
 H300 H 0.65013 0.26074 -0.05332
 H301 H 0.59592 0.23734 -0.03459
 H302 H 0.61243 0.14664 -0.12508
 H303 H 0.70028 0.25939 -0.09232
 H304 H 0.56196 0.14824 -0.08588
 C305 C 0.32175 0.80842 -0.08965
 C306 C 0.31531 0.78104 -0.11193
 C307 C 0.33683 0.75263 -0.11099
 C308 C 0.36482 0.75188 -0.08865
 C309 C 0.37110 0.77973 -0.06662
 C310 C 0.34931 0.80773 -0.06713
 C311 C 0.39936 0.77936 -0.04485
 C312 C 0.42153 0.75153 -0.04475
 C313 C 0.41525 0.72395 -0.06668
 C314 C 0.38698 0.72403 -0.08834
 H315 H 0.33234 0.73144 -0.12821
 H316 H 0.35371 0.82922 -0.05030
 H317 H 0.40449 0.80093 -0.02840
 H318 H 0.38261 0.70248 -0.10508
 H319 H 0.30537 0.83044 -0.08941
 H320 H 0.43226 0.70236 -0.06695
 C321 C 0.10928 0.34929 0.17913
 C322 C 0.11998 0.33573 0.21176
 C323 C 0.10881 0.35060 0.24426
 C324 C 0.08798 0.37947 0.24411
 C325 C 0.07714 0.39280 0.21106
 C326 C 0.08765 0.37733 0.17877
 C327 C 0.05660 0.42180 0.21083
 C328 C 0.04766 0.43819 0.24309
 C329 C 0.05887 0.42524 0.27575
 C330 C 0.07852 0.39578 0.27633
 H331 H 0.11740 0.34049 0.26951
 H332 H 0.07968 0.38728 0.15323
 H333 H 0.04816 0.43212 0.18561
 H334 H 0.08675 0.38607 0.30187
 H335 H 0.11761 0.33809 0.15384
 H336 H 0.05216 0.43785 0.30077
 C337 C 0.11999 0.63458 0.77081
 C338 C 0.10608 0.66461 0.78504
 C339 C 0.07363 0.66455 0.80118
 C340 C 0.05631 0.63454 0.80478
 C341 C 0.06987 0.60507 0.78866
 C342 C 0.10155 0.60543 0.77140
 C343 C 0.05208 0.57539 0.79103
 C344 C 0.02227 0.57365 0.81213
 C345 C 0.01045 0.60268 0.83037
 C346 C 0.02648 0.63308 0.82553
 H347 H 0.06294 0.68720 0.81328
 H348 H 0.11254 0.58291 0.75935
 H349 H 0.06193 0.55342 0.77690
 H350 H 0.01626 0.65516 0.83915
 H351 H 0.14475 0.63383 0.75797
 H352 H -0.01113 0.60201 0.84855
 C353 C -0.11595 0.62585 0.16945
 C354 C -0.11534 0.65146 0.19551
 C355 C -0.09161 0.64864 0.22305
 C356 C -0.07019 0.62027 0.22534
 C357 C -0.07155 0.59480 0.19915
 C358 C -0.09416 0.59807 0.17111
 C359 C -0.05077 0.56614 0.20179
 C360 C -0.02905 0.56211 0.23075
 C361 C -0.02799 0.58746 0.25685
 C362 C -0.04807 0.61646 0.25394
 H363 H -0.09050 0.66768 0.24362
 H364 H -0.09541 0.57883 0.15070
 H365 H -0.05177 0.54670 0.18156
 H366 H -0.04685 0.63556 0.27449
 H367 H -0.13308 0.62707 0.14734
 H368 H -0.01206 0.58456 0.27987
 C369 C -0.06569 0.33941 0.76492
 C370 C -0.09063 0.33280 0.79140
 C371 C -0.09509 0.35556 0.82026
 C372 C -0.07613 0.38459 0.82193
 C373 C -0.05180 0.39104 0.79476
 C374 C -0.04651 0.36810 0.76666
 C375 C -0.03380 0.42073 0.79569
 C376 C -0.04013 0.44420 0.82329
 C377 C -0.06403 0.43738 0.85043
 C378 C -0.08173 0.40773 0.84992
 H379 H -0.11376 0.35142 0.84126
 H380 H -0.02784 0.37257 0.74565
 H381 H -0.01575 0.42615 0.77435
 H382 H -0.10028 0.40321 0.87102
 H383 H -0.06090 0.32270 0.74245
 H384 H -0.06925 0.45529 0.87182
 C385 C 0.26352 0.12599 0.37009
 C386 C 0.23426 0.12912 0.34978
 C387 C 0.20601 0.11041 0.35936
 C388 C 0.20698 0.08878 0.38895
 C389 C 0.23630 0.08648 0.40973
 C390 C 0.26444 0.10509 0.40000
 C391 C 0.23694 0.06570 0.43995
 C392 C 0.20896 0.04659 0.44916
 C393 C 0.18024 0.04834 0.42798
 C394 C 0.17916 0.06944 0.39818
 H395 H 0.18349 0.11233 0.34354
 H396 H 0.28715 0.10350 0.41553
 H397 H 0.25918 0.06418 0.45626
 H398 H 0.15655 0.07072 0.38246
 H399 H 0.28552 0.14026 0.36327
 H400 H 0.15846 0.03377 0.43493
 C401 C 0.85114 0.12131 0.61807
 C402 C 0.82341 0.12051 0.64227
 C403 C 0.79754 0.09808 0.63559
 C404 C 0.79915 0.07714 0.60527
 C405 C 0.82702 0.07841 0.58108
 C406 C 0.85293 0.10049 0.58782
 C407 C 0.82834 0.05775 0.55048
 C408 C 0.80218 0.03576 0.54391
 C409 C 0.77455 0.03484 0.56805
 C410 C 0.77310 0.05519 0.59856
 H411 H 0.77587 0.09693 0.65363
 H412 H 0.87453 0.10179 0.56962
 H413 H 0.84962 0.05870 0.53177
 H414 H 0.75144 0.05402 0.61669
 H415 H 0.87160 0.13803 0.62230
 H416 H 0.75374 0.01871 0.56294
 C417 C 0.14079 -0.08741 0.67238
 C418 C 0.17066 -0.10024 0.68706
 C419 C 0.20176 -0.09259 0.67073
 C420 C 0.20312 -0.07245 0.64009
 C421 C 0.17300 -0.05900 0.62588
 C422 C 0.14196 -0.06664 0.64224
 C423 C 0.17455 -0.03852 0.59536
 C424 C 0.20574 -0.03209 0.57865
 C425 C 0.23536 -0.04626 0.59235
 C426 C 0.23415 -0.06593 0.62316
 H427 H 0.22495 -0.10293 0.68135
 H428 H 0.11861 -0.05673 0.63160
 H429 H 0.15164 -0.02793 0.58431
 H430 H 0.25742 -0.07631 0.63353
 H431 H 0.11660 -0.09306 0.68456
 H432 H 0.25946 -0.04188 0.57923
 C433 C 0.74410 -0.12730 0.34267
 C434 C 0.77321 -0.13146 0.32078
 C435 C 0.80147 -0.11225 0.32762
 C436 C 0.80072 -0.08924 0.35618
 C437 C 0.77160 -0.08597 0.37865
 C438 C 0.74339 -0.10495 0.37152
 C439 C 0.77131 -0.06404 0.40806
 C440 C 0.79948 -0.04483 0.41491
 C441 C 0.82794 -0.04742 0.39195
 C442 C 0.82864 -0.06959 0.36286
 H443 H 0.82386 -0.11500 0.31057
 H444 H 0.72082 -0.10264 0.38836
 H445 H 0.74929 -0.06193 0.42578
 H446 H 0.85109 -0.07159 0.34582
 H447 H 0.72209 -0.14193 0.33799
 H448 H 0.84989 -0.03281 0.39709
 C449 C 0.63612 0.81626 -0.09789
 C450 C 0.65013 0.78663 -0.11270
 C451 C 0.63484 0.75614 -0.10528
 C452 C 0.60528 0.75531 -0.08402
 C453 C 0.59151 0.78525 -0.06888
 C454 C 0.60727 0.81554 -0.07576
 C455 C 0.56187 0.78445 -0.04777
 C456 C 0.54535 0.75430 -0.04251
 C457 C 0.55874 0.72480 -0.05810
 C458 C 0.58878 0.72520 -0.07832
 H459 H 0.64526 0.73324 -0.11710
 H460 H 0.59698 0.83871 -0.06452
 H461 H 0.55116 0.80728 -0.03606
 H462 H 0.59883 0.70208 -0.08993
 H463 H 0.64765 0.83998 -0.10326
 H464 H 0.54602 0.70144 -0.05430
 C465 C 0.35829 0.25390 -0.10235
 C466 C 0.34117 0.22400 -0.10689
 C467 C 0.35594 0.19390 -0.09488
 C468 C 0.38747 0.19366 -0.07855
 C469 C 0.40483 0.22382 -0.07494
 C470 C 0.38996 0.25379 -0.08680
 C471 C 0.43663 0.22350 -0.05930
 C472 C 0.45070 0.19364 -0.04611
 C473 C 0.43321 0.16389 -0.04924
 C474 C 0.40191 0.16382 -0.06565
 H475 H 0.34276 0.17075 -0.09785
 H476 H 0.40283 0.27714 -0.08404
 H477 H 0.45014 0.24650 -0.05655
 H478 H 0.38890 0.14052 -0.06799
 H479 H 0.34754 0.27736 -0.11160
 H480 H 0.44386 0.14076 -0.03901
 C481 C 0.33899 0.82351 0.11305
 C482 C 0.31622 0.79721 0.11226
 C483 C 0.32468 0.76866 0.09149
 C484 C 0.35547 0.76619 0.07232
 C485 C 0.37825 0.79263 0.07375
 C486 C 0.36968 0.82124 0.09400
 C487 C 0.40924 0.78996 0.05500
 C488 C 0.41764 0.76128 0.03462
 C489 C 0.39487 0.73512 0.03331
 C490 C 0.36399 0.73757 0.05196
 H491 H 0.30769 0.74804 0.09049
 H492 H 0.38678 0.84182 0.09524
 H493 H 0.42673 0.81027 0.05590
 H494 H 0.34685 0.71704 0.05056
 H495 H 0.33327 0.84597 0.12841
 H496 H 0.40111 0.71273 0.01793
 C497 C 0.65958 0.24915 0.09676
 C498 C 0.67963 0.21981 0.09846
 C499 C 0.66958 0.19103 0.08035
 C500 C 0.63979 0.19159 0.06070
 C501 C 0.61940 0.22106 0.05999
 C502 C 0.62959 0.24970 0.07797
 C503 C 0.58911 0.22137 0.04142
 C504 C 0.57935 0.19291 0.02276
 C505 C 0.60001 0.16399 0.02274
 C506 C 0.62995 0.16324 0.04179
 H507 H 0.68512 0.16841 0.08118
 H508 H 0.61433 0.27252 0.07755
 H509 H 0.57312 0.24374 0.04124
 H510 H 0.64534 0.14051 0.04183
 H511 H 0.66673 0.27156 0.11066
 H512 H 0.59262 0.14188 0.00844
 C513 C -0.09722 0.66711 0.75621
 C514 C -0.12278 0.67122 0.78294
 C515 C -0.12421 0.64765 0.81096
 C516 C -0.10107 0.62072 0.81217
 C517 C -0.07603 0.61661 0.78486
 C518 C -0.07427 0.64002 0.75707
 C519 C -0.05318 0.58925 0.78598
 C520 C -0.05459 0.56661 0.81472
 C521 C -0.07956 0.57110 0.84175
 C522 C -0.10264 0.59782 0.84045
 H523 H -0.14300 0.65010 0.83233
 H524 H -0.05512 0.63741 0.73598
 H525 H -0.03416 0.58571 0.76487
 H526 H -0.12162 0.60067 0.86169
 H527 H -0.09499 0.68443 0.73415
 H528 H -0.08100 0.55393 0.86410
 C529 C -0.10284 0.36797 0.16818
 C530 C -0.10375 0.34552 0.19712
 C531 C -0.08402 0.35177 0.22720
 C532 C -0.06430 0.38021 0.22872
 C533 C -0.06398 0.40281 0.19969
 C534 C -0.08312 0.39633 0.16944
 C535 C -0.04488 0.43169 0.20167
 C536 C -0.02618 0.43823 0.23233
 C537 C -0.02663 0.41559 0.26099
 C538 C -0.04538 0.38671 0.25915
 H539 H -0.08439 0.33504 0.24993
 H540 H -0.08309 0.41334 0.14688
 H541 H -0.04468 0.44923 0.17956
 H542 H -0.04549 0.36972 0.28172
 H543 H -0.11743 0.36380 0.14451
 H544 H -0.01297 0.42063 0.28515
 C545 C 0.12112 0.37903 0.76745
 C546 C 0.12368 0.36016 0.79901
 C547 C 0.10349 0.36898 0.82920
 C548 C 0.08042 0.39612 0.82759
 C549 C 0.07847 0.41524 0.79579
 C550 C 0.09898 0.40656 0.76596
 C551 C 0.05589 0.44261 0.79424
 C552 C 0.03458 0.45066 0.82368
 C553 C 0.03603 0.43128 0.85493
 C554 C 0.05899 0.40430 0.85699
 H555 H 0.10507 0.35420 0.85346
 H556 H 0.09769 0.42087 0.74137
 H557 H 0.05456 0.45754 0.77005
 H558 H 0.05993 0.38983 0.88148
 H559 H 0.13654 0.37263 0.74394
 H560 H 0.01970 0.43737 0.87785
 C561 C 0.08852 0.65886 0.18069
 C562 C 0.10398 0.66902 0.21228
 C563 C 0.10049 0.64970 0.24350
 C564 C 0.08211 0.62033 0.24311
 C565 C 0.06628 0.61051 0.21129
 C566 C 0.06955 0.62999 0.18027
 C567 C 0.04774 0.58122 0.21098
 C568 C 0.04535 0.56140 0.24189
 C569 C 0.06162 0.57095 0.27315
 C570 C 0.07963 0.60039 0.27388
 H571 H 0.11275 0.65706 0.26787
 H572 H 0.05765 0.62278 0.15564
 H573 H 0.03546 0.57357 0.18671
 H574 H 0.09177 0.60745 0.29842
 H575 H 0.09078 0.67348 0.15639
 H576 H 0.05998 0.55576 0.29710
 C577 C 0.74355 -0.10097 0.64060
 C578 C 0.77460 -0.10921 0.65602
 C579 C 0.80438 -0.09693 0.64064
 C580 C 0.80322 -0.07678 0.60993
 C581 C 0.77194 -0.06964 0.59383
 C582 C 0.74225 -0.08162 0.60953
 C583 C 0.77094 -0.05091 0.56213
 C584 C 0.80066 -0.03839 0.54705
 C585 C 0.83147 -0.04460 0.56369
 C586 C 0.83281 -0.06389 0.59482
 H587 H 0.82837 -0.10293 0.65269
 H588 H 0.71806 -0.07621 0.59768
 H589 H 0.74718 -0.04601 0.54913
 H590 H 0.85695 -0.06891 0.60692
 H591 H 0.72033 -0.11035 0.65198
 H592 H 0.85454 -0.03508 0.55208
 C593 C 0.15914 -0.11497 0.37282
 C594 C 0.18474 -0.11114 0.34656
 C595 C 0.20868 -0.08635 0.35125
 C596 C 0.20764 -0.06632 0.38226
 C597 C 0.18200 -0.07074 0.40866
 C598 C 0.15769 -0.09486 0.40350
 C599 C 0.18148 -0.05143 0.44011
 C600 C 0.20648 -0.02800 0.44581
 C601 C 0.23183 -0.02370 0.41942
 C602 C 0.23225 -0.04250 0.38776
 H603 H 0.22872 -0.08328 0.33141
 H604 H 0.13781 -0.09849 0.42341
 H605 H 0.16189 -0.05489 0.46043
 H606 H 0.25220 -0.03888 0.36792
 H607 H 0.14012 -0.13353 0.36969
 H608 H 0.25173 -0.00627 0.42365
 C609 C 0.85114 0.11501 0.33436
 C610 C 0.82371 0.11339 0.31127
 C611 C 0.79911 0.08936 0.31764
 C612 C 0.80103 0.06843 0.34779
 C613 C 0.82820 0.07116 0.37141
 C614 C 0.85342 0.09405 0.36406
 C615 C 0.82922 0.05168 0.40256
 C616 C 0.80333 0.02959 0.41067
 C617 C 0.77675 0.02647 0.38676
 C618 C 0.77568 0.04562 0.35547
 H619 H 0.77778 0.08792 0.30016
 H620 H 0.87455 0.09628 0.38172
 H621 H 0.84978 0.05413 0.42096
 H622 H 0.75462 0.04319 0.33776
 H623 H 0.87079 0.13281 0.32974
 H624 H 0.75631 0.00990 0.39285
 C625 C 0.17009 0.13387 0.65672
 C626 C 0.19751 0.12947 0.67956
 C627 C 0.22059 0.10279 0.67327
 C628 C 0.21713 0.08165 0.64350
 C629 C 0.18976 0.08678 0.62034
 C630 C 0.16611 0.11258 0.62753
 C631 C 0.18705 0.06668 0.58976
 C632 C 0.21160 0.04186 0.58161
 C633 C 0.23863 0.03677 0.60475
 C634 C 0.24119 0.05626 0.63570
 H635 H 0.24198 0.09934 0.69054
 H636 H 0.14494 0.11677 0.61012
 H637 H 0.16633 0.07085 0.57171
 H638 H 0.26249 0.05212 0.65293
 H639 H 0.15170 0.15393 0.66131
 H640 H 0.25835 0.01845 0.59827
   
