data_POSCAR
  _audit_creation_date              2014-09-24
  _audit_creation_method            'ToBaCCo'
  _symmetry_space_group_name_H-M    'P1'
  _symmetry_Int_Tables_number       1
  _symmetry_cell_setting            triclinic
  loop_
  _symmetry_equiv_pos_as_xyz
 x,y,z
_cell_length_a 60.7936
_cell_length_b 58.9820
_cell_length_c 60.1442
_cell_angle_alpha 93.208700
_cell_angle_beta 85.538300
_cell_angle_gamma 90.506000
loop_
  _atom_site_label
  _atom_site_type_symbol
  _atom_site_fract_x
  _atom_site_fract_y
  _atom_site_fract_z
C1 C 0.25801 0.48528 1.00831
 C2 C 0.24972 0.50713 1.00610
 C3 C 0.26429 0.52570 1.00425
 C4 C 0.28718 0.52271 1.00488
 C5 C 0.29516 0.50058 1.00643
 C6 C 0.28082 0.48190 1.00781
 C7 C 0.22592 0.51056 1.00445
 C8 C 0.21061 0.50613 1.02243
 C9 C 0.18797 0.51047 1.02119
 C10 C 0.18111 0.51901 1.00143
 C11 C 0.19618 0.52282 0.98315
 C12 C 0.21861 0.51867 0.98482
 H13 H 0.24684 0.47087 1.00913
 H14 H 0.25760 0.54244 1.00261
 H15 H 0.21651 0.49975 1.03742
 H16 H 0.23044 0.52175 0.97087
 H17 H 0.31274 0.49759 1.00631
 H18 H 0.16379 0.52217 0.99987
 C19 C 0.72295 0.47373 -0.00135
 C20 C 0.73674 0.49210 -0.00717
 C21 C 0.72766 0.51151 -0.01541
 C22 C 0.70498 0.51259 -0.01805
 C23 C 0.69150 0.49407 -0.01234
 C24 C 0.70020 0.47465 -0.00385
 C25 C 0.76062 0.49137 -0.00420
 C26 C 0.77605 0.49476 -0.02238
 C27 C 0.79887 0.49499 -0.01963
 C28 C 0.80578 0.49281 0.00197
 C29 C 0.79052 0.48957 0.02021
 C30 C 0.76797 0.48826 0.01698
 H31 H 0.72994 0.45889 0.00522
 H32 H 0.73824 0.52578 -0.01963
 H33 H 0.77013 0.49688 -0.03867
 H34 H 0.75610 0.48603 0.03110
 H35 H 0.67396 0.49493 -0.01426
 H36 H 0.82317 0.49350 0.00480
 C37 C 0.03051 0.22433 0.50845
 C38 C 0.01216 0.23680 0.50330
 C39 C -0.00710 0.22530 0.49757
 C40 C -0.00810 0.20147 0.49696
 C41 C 0.01040 0.18927 0.50217
 C42 C 0.02976 0.20052 0.50794
 C43 C 0.01336 0.26187 0.50376
 C44 C 0.00882 0.27349 0.48485
 C45 C 0.01152 0.29723 0.48459
 C46 C 0.01843 0.30907 0.50386
 C47 C 0.02227 0.29777 0.52309
 C48 C 0.01981 0.27412 0.52288
 H49 H 0.04538 0.23325 0.51278
 H50 H -0.02125 0.23492 0.49360
 H51 H 0.00388 0.26383 0.47019
 H52 H 0.02303 0.26517 0.53754
 H53 H 0.00970 0.17090 0.50174
 H54 H 0.02033 0.32736 0.50424
 C55 C 1.02251 0.77530 0.49849
 C56 C 1.00265 0.76303 0.49773
 C57 C 0.98248 0.77453 0.49856
 C58 C 0.98202 0.79831 0.50066
 C59 C 1.00197 0.81042 0.50097
 C60 C 1.02244 0.79921 0.49964
 C61 C 1.00303 0.73806 0.49606
 C62 C 1.00627 0.72598 0.51498
 C63 C 1.00669 0.70205 0.51360
 C64 C 1.00490 0.69065 0.49258
 C65 C 1.00171 0.70263 0.47362
 C66 C 1.00031 0.72635 0.47552
 H67 H 1.03792 0.76608 0.49764
 H68 H 0.96722 0.76494 0.49817
 H69 H 1.00797 0.73536 0.53078
 H70 H 0.99784 0.73573 0.46093
 H71 H 1.00142 0.82880 0.50214
 H72 H 1.00554 0.67227 0.49085
 C73 C 0.50701 0.01639 0.22881
 C74 C 0.51197 -0.00405 0.23820
 C75 C 0.51367 -0.02427 0.22470
 C76 C 0.50942 -0.02430 0.20209
 C77 C 0.50417 -0.00380 0.19301
 C78 C 0.50320 0.01666 0.20612
 C79 C 0.51310 -0.00464 0.26254
 C80 C 0.49384 -0.00081 0.27666
 C81 C 0.49431 -0.00165 0.29988
 C82 C 0.51429 -0.00644 0.30879
 C83 C 0.53369 -0.01029 0.29489
 C84 C 0.53302 -0.00933 0.27167
 H85 H 0.50558 0.03191 0.23935
 H86 H 0.51711 -0.04007 0.23209
 H87 H 0.47853 0.00280 0.26948
 H88 H 0.54784 -0.01235 0.26072
 H89 H 0.50111 -0.00373 0.17550
 H90 H 0.51478 -0.00711 0.32671
 C91 C 0.49970 0.02322 0.77388
 C92 C 0.50144 0.00235 0.76149
 C93 C 0.50029 -0.01807 0.77248
 C94 C 0.49675 -0.01786 0.79592
 C95 C 0.49411 0.00326 0.80795
 C96 C 0.49573 0.02374 0.79715
 C97 C 0.50249 0.00188 0.73695
 C98 C 0.52235 0.00653 0.72450
 C99 C 0.52298 0.00670 0.70111
 C100 C 0.50362 0.00191 0.69040
 C101 C 0.48369 -0.00281 0.70267
 C102 C 0.48323 -0.00270 0.72603
 H103 H 0.50041 0.03893 0.76531
 H104 H 0.50168 -0.03402 0.76262
 H105 H 0.53711 0.01029 0.73305
 H106 H 0.46795 -0.00620 0.73577
 H107 H 0.49126 0.00398 0.82598
 H108 H 0.50403 0.00195 0.67236
 C109 C 0.29476 0.01825 0.49264
 H110 H 0.29547 0.02761 0.50857
 C111 C 0.31120 0.02135 0.47555
 H112 H 0.32444 0.03329 0.47845
 C113 C 0.27693 -0.00922 0.46995
 H114 H 0.26383 -0.02149 0.46802
 C115 C 0.29294 -0.00652 0.45231
 H116 H 0.29187 -0.01673 0.43690
 N117 N 0.27816 0.00308 0.48964
 C118 C 0.22264 0.02182 0.53690
 H119 H 0.22066 0.00639 0.54578
 C120 C 0.20682 0.03892 0.54052
 H121 H 0.19281 0.03656 0.55243
 C122 C 0.24281 0.04298 0.50975
 H123 H 0.25649 0.04421 0.49730
 C124 C 0.22749 0.06061 0.51301
 H125 H 0.22970 0.07531 0.50305
 Zn126 Zn 0.25819 -0.00173 0.51466
 N127 N 0.24000 0.02398 0.52149
 C128 C 0.27326 0.00524 0.55827
 N129 N 0.27527 -0.00748 0.53864
 C130 C 0.29103 -0.02370 0.53468
 C131 C 0.30588 -0.02742 0.55063
 C132 C 0.28774 0.00200 0.57477
 C133 C 0.22392 -0.02332 0.49379
 C134 C 0.20796 -0.03989 0.48991
 C135 C 0.22416 -0.06316 0.51609
 C136 C 0.23974 -0.04601 0.51961
 N137 N 0.23927 -0.02654 0.50855
 H138 H 0.26084 0.01831 0.56092
 H139 H 0.29242 -0.03336 0.51881
 H140 H 0.31855 -0.04014 0.54688
 H141 H 0.28619 0.01262 0.59009
 H142 H 0.22377 -0.00756 0.48543
 H143 H 0.19566 -0.03675 0.47838
 H144 H 0.22452 -0.07834 0.52537
 H145 H 0.25183 -0.04808 0.53158
 C146 C 0.20892 0.05847 0.52820
 C147 C 0.31054 0.00871 0.45511
 C148 C 0.20777 -0.06003 0.50134
 C149 C 0.30457 -0.01425 0.57088
 C150 C 0.72075 0.02600 0.51012
 H151 H 0.72014 0.03531 0.49519
 C152 C 0.70495 0.02998 0.52801
 H153 H 0.69228 0.04251 0.52671
 C154 C 0.73767 -0.00215 0.52954
 H155 H 0.75011 -0.01504 0.52990
 C156 C 0.72231 0.00140 0.54787
 H157 H 0.72327 -0.00879 0.56219
 N158 N 0.73666 0.01013 0.51116
 C159 C 0.79189 0.02643 0.46418
 H160 H 0.79316 0.01061 0.45415
 C161 C 0.80798 0.04322 0.46112
 H162 H 0.82150 0.04021 0.44852
 C163 C 0.77314 0.04894 0.49346
 H164 H 0.75988 0.05084 0.50644
 C165 C 0.78881 0.06628 0.49086
 H166 H 0.78729 0.08144 0.50187
 Zn167 Zn 0.75625 0.00425 0.48546
 N168 N 0.77506 0.02943 0.48029
 C169 C 0.74116 0.00999 0.44244
 N170 N 0.73894 -0.00215 0.46106
 C171 C 0.72326 -0.01857 0.46347
 C172 C 0.70892 -0.02331 0.44679
 C173 C 0.72717 0.00577 0.42527
 C174 C 0.78950 -0.01739 0.50522
 C175 C 0.80429 -0.03451 0.50875
 C176 C 0.78834 -0.05807 0.47996
 C177 C 0.77381 -0.04044 0.47696
 N178 N 0.77459 -0.02064 0.48963
 H179 H 0.75349 0.02324 0.44101
 H180 H 0.72170 -0.02776 0.47859
 H181 H 0.69641 -0.03630 0.44924
 H182 H 0.72900 0.01583 0.41072
 H183 H 0.78996 -0.00135 0.51481
 H184 H 0.81605 -0.03143 0.52122
 H185 H 0.78757 -0.07364 0.46961
 H186 H 0.76215 -0.04252 0.46433
 C187 C 0.80676 0.06334 0.47480
 C188 C 0.70551 0.01747 0.54717
 C189 C 0.80392 -0.05517 0.49597
 C190 C 0.71063 -0.01093 0.42743
 C191 C 0.46190 0.22011 1.04841
 H192 H 0.44929 0.21973 1.03675
 C193 C 0.46069 0.20484 1.06534
 H194 H 0.44721 0.19272 1.06622
 C195 C 0.49449 0.23647 1.06152
 H196 H 0.50768 0.24879 1.06000
 C197 C 0.49388 0.22151 1.07882
 H198 H 0.50678 0.22242 1.09028
 N199 N 0.47893 0.23515 1.04639
 C200 C 0.45255 0.28035 1.00075
 H201 H 0.46492 0.27779 0.98693
 C202 C 0.43425 0.29382 0.99849
 H203 H 0.43277 0.30155 0.98277
 C204 C 0.43994 0.27347 1.03807
 H205 H 0.44243 0.26563 1.05350
 C206 C 0.42132 0.28695 1.03656
 H207 H 0.40955 0.28934 1.05094
 Zn208 Zn 0.48112 0.25340 1.02116
 N209 N 0.45514 0.27063 1.02032
 C210 C 0.46484 0.22262 0.98966
 N211 N 0.48344 0.23424 0.99451
 C212 C 0.50210 0.23256 0.98045
 C213 C 0.50274 0.21798 0.96121
 C214 C 0.46476 0.20788 0.97076
 C215 C 0.50137 0.29629 1.02442
 C216 C 0.51852 0.31205 1.02522
 C217 C 0.54452 0.28113 1.02232
 C218 C 0.52676 0.26586 1.02171
 N219 N 0.50567 0.27365 1.02245
 H220 H 0.44982 0.22506 1.00030
 H221 H 0.51655 0.24242 0.98404
 H222 H 0.51784 0.21659 0.95044
 H223 H 0.44973 0.19873 0.96750
 H224 H 0.48458 0.30227 1.02545
 H225 H 0.51453 0.32995 1.02662
 H226 H 0.56117 0.27461 1.02151
 H227 H 0.52982 0.24778 1.02063
 C228 C 0.41840 0.29747 1.01659
 C229 C 0.47706 0.20507 1.08056
 C230 C 0.54048 0.30461 1.02400
 C231 C 0.48395 0.20518 0.95634
 C232 C 0.48717 0.77875 -0.03774
 H233 H 0.47578 0.77870 -0.02309
 C234 C 0.48477 0.79488 -0.05341
 H235 H 0.47157 0.80715 -0.05039
 C236 C 0.51792 0.76273 -0.05945
 H237 H 0.53084 0.75017 -0.06171
 C238 C 0.51603 0.77856 -0.07571
 H239 H 0.52768 0.77811 -0.09028
 N240 N 0.50372 0.76328 -0.04077
 C241 C 0.47962 0.71113 0.00331
 H242 H 0.49262 0.71164 0.01464
 C243 C 0.46186 0.69627 0.00655
 H244 H 0.46130 0.68541 0.02052
 C245 C 0.46494 0.72453 -0.02887
 H246 H 0.46643 0.73534 -0.04284
 C247 C 0.44668 0.71008 -0.02609
 H248 H 0.43422 0.70990 -0.03801
 Zn249 Zn 0.50666 0.74292 -0.01778
 N250 N 0.48102 0.72461 -0.01435
 C251 C 0.48932 0.76897 0.01910
 N252 N 0.50869 0.76008 0.00982
 C253 C 0.52783 0.76398 0.01979
 C254 C 0.52810 0.77846 0.03906
 C255 C 0.48884 0.78351 0.03817
 C256 C 0.52722 0.70115 -0.02946
 C257 C 0.54439 0.68579 -0.03446
 C258 C 0.57039 0.71672 -0.03112
 C259 C 0.55259 0.73165 -0.02656
 N260 N 0.53149 0.72358 -0.02515
 H261 H 0.47412 0.76493 0.01154
 H262 H 0.54301 0.75633 0.01272
 H263 H 0.54359 0.78195 0.04635
 H264 H 0.47322 0.79074 0.04482
 H265 H 0.51044 0.69500 -0.02913
 H266 H 0.54044 0.66800 -0.03746
 H267 H 0.58708 0.72333 -0.03173
 H268 H 0.55566 0.74967 -0.02411
 C269 C 0.44518 0.69545 -0.00837
 C270 C 0.49944 0.79513 -0.07260
 C271 C 0.56633 0.69341 -0.03498
 C272 C 0.50847 0.78887 0.04815
 C273 C 1.00839 0.46536 0.22742
 H274 H 1.00931 0.45360 0.24046
 C275 C 1.02542 0.46603 0.21041
 H276 H 1.03934 0.45473 0.21055
 C277 C 0.98917 0.49430 0.21129
 H278 H 0.97503 0.50539 0.21190
 C279 C 1.00562 0.49535 0.19391
 H280 H 1.00394 0.50736 0.18119
 N281 N 0.99089 0.47963 0.22769
 C282 C 0.95663 0.44033 0.27399
 H283 H 0.94239 0.43868 0.26433
 C284 C 0.95983 0.42475 0.29018
 H285 H 0.94802 0.41112 0.29275
 C286 C 0.98888 0.46053 0.28309
 H287 H 1.00002 0.47467 0.28034
 C288 C 0.99257 0.44558 0.29950
 H289 H 1.00674 0.44833 0.30918
 Zn290 Zn 0.96778 0.48076 0.25065
 N291 N 0.97117 0.45774 0.27075
 C292 C 0.93682 0.45912 0.22387
 N293 N 0.94093 0.47827 0.23661
 C294 C 0.92764 0.49674 0.23698
 C295 C 0.90977 0.49664 0.22378
 C296 C 0.91893 0.45821 0.21055
 C297 C 0.98708 0.52269 0.26388
 C298 C 0.98950 0.54230 0.27757
 C299 C 0.95499 0.53347 0.29802
 C300 C 0.95345 0.51375 0.28422
 N301 N 0.96931 0.50881 0.26747
 H302 H 0.94800 0.44490 0.22334
 H303 H 0.93151 0.51206 0.24657
 H304 H 0.89987 0.51182 0.22380
 H305 H 0.91637 0.44311 0.19996
 H306 H 0.99980 0.51822 0.25087
 H307 H 1.00397 0.55290 0.27474
 H308 H 0.94236 0.53699 0.31145
 H309 H 0.93975 0.50216 0.28703
 C310 C 0.97790 0.42746 0.30334
 C311 C 1.02417 0.48125 0.19341
 C312 C 0.97339 0.54782 0.29496
 C313 C 0.90549 0.47738 0.20997
 C314 C -0.00126 0.49942 0.78888
 H315 H 0.01431 0.49098 0.79002
 C316 C -0.01847 0.49678 0.80528
 H317 H -0.01600 0.48609 0.81893
 C318 C -0.02300 0.52406 0.76990
 H319 H -0.02452 0.53502 0.75630
 C320 C -0.04075 0.52171 0.78585
 H321 H -0.05586 0.53087 0.78428
 N322 N -0.00375 0.51296 0.77170
 C323 C 0.04363 0.49130 0.71688
 H324 H 0.05277 0.50696 0.71477
 C325 C 0.04777 0.47276 0.70174
 H326 H 0.06030 0.47431 0.68809
 C327 C 0.01560 0.47081 0.73685
 H328 H 0.00273 0.47031 0.75025
 C329 C 0.01926 0.45179 0.72212
 H330 H 0.00917 0.43678 0.72449
 Zn331 Zn 0.02135 0.51706 0.75168
 N332 N 0.02767 0.49009 0.73390
 C333 C 0.06401 0.51261 0.76723
 N334 N 0.04515 0.52504 0.76904
 C335 C 0.04204 0.54256 0.78460
 C336 C 0.05813 0.54800 0.79937
 C337 C 0.08060 0.51753 0.78161
 C338 C 0.00210 0.53485 0.71602
 C339 C -0.00069 0.54981 0.69932
 C340 C 0.02545 0.57540 0.71593
 C341 C 0.02793 0.55981 0.73221
 N342 N 0.01637 0.53995 0.73189
 H343 H 0.06601 0.49848 0.75504
 H344 H 0.02675 0.55196 0.78587
 H345 H 0.05509 0.56176 0.81190
 H346 H 0.09527 0.50712 0.78018
 H347 H -0.00665 0.51880 0.71600
 H348 H -0.01184 0.54519 0.68660
 H349 H 0.03511 0.59091 0.71619
 H350 H 0.03950 0.56336 0.74471
 C351 C 0.03531 0.45275 0.70407
 C352 C -0.03851 0.50812 0.80399
 C353 C 0.01127 0.57028 0.69897
 C354 C 0.07762 0.53522 0.79819
 C355 C 0.08457 0.16226 0.52149
 N356 N 0.08718 0.18402 0.51546
 N357 N 0.06977 0.19633 0.51147
 C358 C 0.04910 0.18728 0.51318
 N359 N 0.04656 0.16553 0.51930
 N360 N 0.06393 0.15329 0.52344
 C361 C 0.10370 0.14824 0.52503
 N362 N 0.10072 0.12745 0.53342
 N363 N 0.11790 0.11415 0.53565
 C364 C 0.13872 0.12108 0.52946
 N365 N 0.14174 0.14193 0.52118
 N366 N 0.12454 0.15531 0.51907
 C367 C 0.15742 0.10568 0.53056
 N368 N 0.17763 0.11067 0.52076
 N369 N 0.19415 0.09591 0.52045
 C370 C 0.19114 0.07566 0.53001
 N371 N 0.17098 0.07088 0.54007
 N372 N 0.15444 0.08557 0.54030
 C373 C 0.67329 0.57058 -0.03678
 N374 N 0.69269 0.57259 -0.02702
 N375 N 0.70332 0.55414 -0.02179
 C376 C 0.69482 0.53306 -0.02596
 N377 N 0.67563 0.53116 -0.03604
 N378 N 0.66512 0.54952 -0.04139
 C379 C 0.66008 0.59056 -0.04057
 N380 N 0.64079 0.58766 -0.05032
 N381 N 0.62738 0.60511 -0.05182
 C382 C 0.63268 0.62617 -0.04361
 N383 N 0.65217 0.62922 -0.03417
 N384 N 0.66564 0.61171 -0.03268
 C385 C 0.61647 0.64455 -0.04323
 N386 N 0.62073 0.66574 -0.03448
 N387 N 0.60505 0.68159 -0.03247
 C388 C 0.58451 0.67678 -0.03899
 N389 N 0.58048 0.65568 -0.04802
 N390 N 0.59612 0.63993 -0.05012
 C391 C 0.92337 -0.16428 0.50537
 N392 N 0.94161 -0.15598 0.51465
 N393 N 0.96005 -0.16809 0.51334
 C394 C 0.96100 -0.18906 0.50281
 N395 N 0.94261 -0.19758 0.49381
 N396 N 0.92414 -0.18535 0.49497
 C397 C 0.90373 -0.14993 0.50582
 N398 N 0.88665 -0.15568 0.49330
 N399 N 0.86968 -0.14159 0.49272
 C400 C 0.86918 -0.12133 0.50469
 N401 N 0.88612 -0.11579 0.51738
 N402 N 0.90308 -0.12979 0.51790
 C403 C 0.85138 -0.10497 0.50318
 N404 N 0.85133 -0.08498 0.51549
 N405 N 0.83605 -0.06940 0.51341
 C406 C 0.82021 -0.07310 0.49889
 N407 N 0.82017 -0.09322 0.48668
 N408 N 0.83546 -0.10887 0.48878
 C409 C 0.31092 0.41836 1.00685
 N410 N 0.31776 0.43387 0.99198
 N411 N 0.30776 0.45383 0.99213
 C412 C 0.29035 0.45899 1.00697
 N413 N 0.28314 0.44333 1.02163
 N414 N 0.29336 0.42337 1.02167
 C415 C 0.32355 0.39733 1.00745
 N416 N 0.32193 0.38455 1.02563
 N417 N 0.33530 0.36688 1.02674
 C418 C 0.35063 0.36135 1.00968
 N419 N 0.35190 0.37390 0.99141
 N420 N 0.33869 0.39158 0.99035
 C421 C 0.36685 0.34331 1.01127
 N422 N 0.38168 0.33827 0.99371
 N423 N 0.39767 0.32336 0.99535
 C424 C 0.39959 0.31290 1.01464
 N425 N 0.38455 0.31774 1.03218
 N426 N 0.36848 0.33269 1.03054
 C427 C 0.93465 0.16530 0.48217
 N428 N 0.95482 0.15555 0.47844
 N429 N 0.97296 0.16719 0.48289
 C430 C 0.97170 0.18909 0.49111
 N431 N 0.95151 0.19897 0.49455
 N432 N 0.93331 0.18726 0.49026
 C433 C 0.91473 0.15179 0.47847
 N434 N 0.89445 0.15937 0.48648
 N435 N 0.87665 0.14629 0.48436
 C436 C 0.87849 0.12523 0.47403
 N437 N 0.89872 0.11782 0.46578
 N438 N 0.91651 0.13082 0.46802
 C439 C 0.85926 0.11007 0.47292
 N440 N 0.86115 0.08968 0.46134
 N441 N 0.84427 0.07514 0.46149
 C442 C 0.82485 0.08033 0.47331
 N443 N 0.82291 0.10087 0.48472
 N444 N 0.83978 0.11548 0.48450
 C445 C 0.33103 0.57655 0.00217
 N446 N 0.33792 0.55537 0.00577
 N447 N 0.32374 0.53810 0.00650
 C448 C 0.30199 0.54121 0.00385
 N449 N 0.29509 0.56253 0.00033
 N450 N 0.30935 0.57985 -0.00060
 C451 C 0.34703 0.59531 0.00141
 N452 N 0.34217 0.61548 -0.00687
 N453 N 0.35721 0.63208 -0.00800
 C454 C 0.37754 0.62912 -0.00069
 N455 N 0.38227 0.60903 0.00773
 N456 N 0.36734 0.59242 0.00867
 C457 C 0.39449 0.64697 -0.00215
 N458 N 0.41323 0.64494 0.00840
 N459 N 0.42911 0.66054 0.00664
 C460 C 0.42698 0.67874 -0.00586
 N461 N 0.40817 0.68080 -0.01642
 N462 N 0.39217 0.66524 -0.01453
 C463 C 0.07996 -0.16292 0.49750
 N464 N 0.06006 -0.15284 0.49722
 N465 N 0.04162 -0.16512 0.49811
 C466 C 0.04219 -0.18806 0.49916
 N467 N 0.06222 -0.19818 0.49938
 N468 N 0.08075 -0.18583 0.49868
 C469 C 0.10005 -0.14890 0.49649
 N470 N 0.11975 -0.15715 0.50152
 N471 N 0.13760 -0.14380 0.50126
 C472 C 0.13637 -0.12182 0.49577
 N473 N 0.11672 -0.11373 0.49056
 N474 N 0.09890 -0.12698 0.49099
 C475 C 0.15557 -0.10657 0.49614
 N476 N 0.15448 -0.08565 0.48801
 N477 N 0.17126 -0.07114 0.48926
 C478 C 0.18980 -0.07688 0.49881
 N479 N 0.19094 -0.09791 0.50684
 N480 N 0.17416 -0.11252 0.50547
 C481 C 0.65632 0.42164 1.01226
 N482 N 0.64914 0.44327 1.01164
 N483 N 0.66321 0.45998 1.00684
 C484 C 0.68510 0.45585 1.00254
 N485 N 0.69240 0.43421 1.00348
 N486 N 0.67825 0.41738 1.00817
 C487 C 0.64014 0.40340 1.01635
 N488 N 0.64596 0.38113 1.01427
 N489 N 0.63066 0.36489 1.01677
 C490 C 0.60906 0.37038 1.02146
 N491 N 0.60338 0.39261 1.02374
 N492 N 0.61859 0.40878 1.02122
 C493 C 0.59170 0.35291 1.02310
 N494 N 0.57032 0.35931 1.02695
 N495 N 0.55421 0.34391 1.02749
 C496 C 0.55876 0.32143 1.02419
 N497 N 0.58023 0.31498 1.02051
 N498 N 0.59641 0.33043 1.01994
 C499 C 0.48947 0.07673 1.17581
 N500 N 0.48219 0.05636 1.16764
 N501 N 0.48637 0.03739 1.17747
 C502 C 0.49786 0.03800 1.19597
 N503 N 0.50491 0.05845 1.20435
 N504 N 0.50088 0.07747 1.19438
 C505 C 0.48577 0.09731 1.16398
 N506 N 0.49677 0.11694 1.16868
 N507 N 0.49432 0.13506 1.15680
 C508 C 0.48069 0.13421 1.13990
 N509 N 0.46952 0.11468 1.13543
 N510 N 0.47206 0.09656 1.14720
 C511 C 0.47884 0.15350 1.12575
 N512 N 0.46409 0.15272 1.10992
 N513 N 0.46322 0.16938 1.09600
 C514 C 0.47712 0.18748 1.09723
 N515 N 0.49177 0.18836 1.11324
 N516 N 0.49259 0.17170 1.12726
 C517 C 0.00940 0.66521 0.56971
 N518 N 0.01109 0.68821 0.57129
 N519 N 0.01045 0.70016 0.55317
 C520 C 0.00823 0.68960 0.53274
 N521 N 0.00680 0.66655 0.53132
 N522 N 0.00730 0.65463 0.54940
 C523 C 0.00931 0.65179 0.58955
 N524 N 0.00394 0.62941 0.58803
 N525 N 0.00365 0.61699 0.60585
 C526 C 0.00883 0.62645 0.62587
 N527 N 0.01426 0.64884 0.62743
 N528 N 0.01441 0.66133 0.60959
 C529 C 0.00879 0.61240 0.64526
 N530 N 0.01738 0.62028 0.66440
 N531 N 0.01795 0.60703 0.68160
 C532 C 0.00982 0.58548 0.68036
 N533 N 0.00107 0.57777 0.66125
 N534 N 0.00061 0.59093 0.64404
 C535 C 0.49445 0.92339 -0.16967
 N536 N 0.48951 0.94378 -0.15905
 N537 N 0.49023 0.96260 -0.17025
 C538 C 0.49573 0.96191 -0.19261
 N539 N 0.50049 0.94137 -0.20330
 N540 N 0.49997 0.92247 -0.19203
 C541 C 0.49402 0.90300 -0.15671
 N542 N 0.50355 0.88326 -0.16513
 N543 N 0.50387 0.86531 -0.15259
 C544 C 0.49454 0.86647 -0.13127
 N545 N 0.48487 0.88612 -0.12302
 N546 N 0.48469 0.90405 -0.13545
 C547 C 0.49528 0.84726 -0.11683
 N548 N 0.48367 0.84825 -0.09662
 N549 N 0.48482 0.83152 -0.08284
 C550 C 0.49772 0.81313 -0.08859
 N551 N 0.50932 0.81208 -0.10890
 N552 N 0.50809 0.82882 -0.12279
 C553 C 1.00047 0.33268 0.42921
 N554 N 0.99607 0.31007 0.42935
 N555 N 0.99964 0.29851 0.44718
 C556 C 1.00762 0.30914 0.46560
 N557 N 1.01187 0.33178 0.46528
 N558 N 1.00845 0.34327 0.44749
 C559 C 0.99699 0.34581 0.40974
 N560 N 1.00484 0.36737 0.40898
 N561 N 1.00179 0.37969 0.39164
 C562 C 0.99063 0.37102 0.37442
 N563 N 0.98269 0.34943 0.37513
 N564 N 0.98588 0.33700 0.39247
 C565 C 0.98737 0.38510 0.35557
 N566 N 0.97348 0.37864 0.33971
 N567 N 0.97043 0.39200 0.32303
 C568 C 0.98124 0.41222 0.32154
 N569 N 0.99516 0.41850 0.33739
 N570 N 0.99811 0.40526 0.35408
 C571 C 0.50883 0.91574 0.16122
 N572 N 0.49587 0.93356 0.15765
 N573 N 0.49615 0.95250 0.17069
 C574 C 0.50925 0.95436 0.18797
 N575 N 0.52211 0.93643 0.19173
 N576 N 0.52199 0.91748 0.17850
 C577 C 0.50853 0.89522 0.14624
 N578 N 0.52469 0.87936 0.14549
 N579 N 0.52462 0.86140 0.13095
 C580 C 0.50829 0.85863 0.11682
 N581 N 0.49207 0.87438 0.11780
 N582 N 0.49224 0.89236 0.13215
 C583 C 0.50824 0.83952 0.10008
 N584 N 0.49034 0.83586 0.08824
 N585 N 0.49036 0.81946 0.07214
 C586 C 0.50833 0.80609 0.06709
 N587 N 0.52626 0.80968 0.07905
 N588 N 0.52620 0.82606 0.09529
 C589 C 0.03646 0.33720 0.58043
 N590 N 0.04221 0.34445 0.55976
 N591 N 0.03815 0.33164 0.54161
 C592 C 0.02829 0.31100 0.54336
 N593 N 0.02290 0.30355 0.56407
 N594 N 0.02682 0.31645 0.58228
 C595 C 0.03926 0.35239 0.60021
 N596 N 0.02949 0.34769 0.62053
 N597 N 0.03053 0.36256 0.63796
 C598 C 0.04146 0.38259 0.63571
 N599 N 0.05150 0.38709 0.61548
 N600 N 0.05037 0.37230 0.59805
 C601 C 0.04119 0.39989 0.65427
 N602 N 0.05260 0.41958 0.65182
 N603 N 0.05114 0.43608 0.66788
 C604 C 0.03815 0.43363 0.68702
 N605 N 0.02692 0.41379 0.68955
 N606 N 0.02842 0.39722 0.67349
 C607 C 0.48856 0.08389 0.83740
 N608 N 0.47647 0.06514 0.84232
 N609 N 0.47855 0.04624 0.82924
 C610 C 0.49265 0.04536 0.81058
 N611 N 0.50450 0.06425 0.80538
 N612 N 0.50258 0.08316 0.81864
 C613 C 0.48700 0.10399 0.85296
 N614 N 0.50249 0.12074 0.85203
 N615 N 0.50171 0.13799 0.86741
 C616 C 0.48534 0.13911 0.88416
 N617 N 0.46975 0.12253 0.88486
 N618 N 0.47062 0.10527 0.86962
 C619 C 0.48479 0.15720 0.90200
 N620 N 0.46735 0.15864 0.91749
 N621 N 0.46705 0.17410 0.93448
 C622 C 0.48421 0.18871 0.93678
 N623 N 0.50165 0.18735 0.92117
 N624 N 0.50193 0.17190 0.90408
 C625 C 0.99555 0.66462 0.41359
 N626 N 0.98181 0.68234 0.41957
 N627 N 0.98411 0.69493 0.43838
 C628 C 1.00002 0.69001 0.45200
 N629 N 1.01375 0.67234 0.44595
 N630 N 1.01165 0.65998 0.42703
 C631 C 0.99252 0.64983 0.39362
 N632 N 1.00923 0.63628 0.38468
 N633 N 1.00620 0.62161 0.36755
 C634 C 0.98627 0.61971 0.35891
 N635 N 0.96954 0.63331 0.36778
 N636 N 0.97265 0.64821 0.38477
 C637 C 0.98269 0.60224 0.34119
 N638 N 0.96202 0.59490 0.33736
 N639 N 0.95899 0.57782 0.32243
 C640 C 0.97650 0.56759 0.31062
 N641 N 0.99713 0.57520 0.31426
 N642 N 1.00017 0.59210 0.32934
 C643 C 1.14142 0.49898 0.07316
 N644 N 1.13563 0.50789 0.05420
 N645 N 1.15070 0.51149 0.03754
 C646 C 1.17228 0.50645 0.03907
 N647 N 1.17808 0.49751 0.05816
 N648 N 1.16294 0.49382 0.07489
 C649 C 1.12441 0.49540 0.09135
 N650 N 1.12904 0.48512 0.11010
 N651 N 1.11326 0.48215 0.12640
 C652 C 1.09236 0.48942 0.12451
 N653 N 1.08782 0.49967 0.10579
 N654 N 1.10352 0.50256 0.08952
 C655 C 1.07481 0.48675 0.14239
 N656 N 1.05479 0.49625 0.14084
 N657 N 1.03875 0.49434 0.15699
 C658 C 1.04202 0.48275 0.17532
 N659 N 1.06205 0.47310 0.17681
 N660 N 1.07817 0.47510 0.16066
 C661 C 0.58090 0.01931 0.66108
 N662 N 0.58205 0.01117 0.68165
 N663 N 0.56370 0.00763 0.69470
 C664 C 0.54356 0.01190 0.68754
 N665 N 0.54254 0.02022 0.66705
 N666 N 0.56082 0.02392 0.65412
 C667 C 0.60076 0.02193 0.64590
 N668 N 0.59931 0.03190 0.62627
 N669 N 0.61679 0.03293 0.61158
 C670 C 0.63636 0.02392 0.61591
 N671 N 0.63790 0.01412 0.63564
 N672 N 0.62041 0.01318 0.65040
 C673 C 0.65501 0.02356 0.59885
 N674 N 0.67351 0.01158 0.60145
 N675 N 0.68973 0.00999 0.58521
 C676 C 0.68812 0.02036 0.56578
 N677 N 0.66970 0.03257 0.56336
 N678 N 0.65345 0.03409 0.57955
 C679 C -0.15472 0.50008 0.92691
 N680 N -0.14849 0.49725 0.94772
 N681 N -0.16349 0.49587 0.96492
 C682 C -0.18541 0.49713 0.96209
 N683 N -0.19161 0.50002 0.94116
 N684 N -0.17657 0.50153 0.92392
 C685 C -0.13791 0.50115 0.90807
 N686 N -0.14328 0.50666 0.88755
 N687 N -0.12777 0.50759 0.87065
 C688 C -0.10640 0.50289 0.87367
 N689 N -0.10111 0.49731 0.89417
 N690 N -0.11655 0.49651 0.91105
 C691 C -0.08910 0.50388 0.85527
 N692 N -0.06844 0.49655 0.85799
 N693 N -0.05251 0.49770 0.84161
 C694 C -0.05654 0.50632 0.82186
 N695 N -0.07726 0.51364 0.81914
 N696 N -0.09326 0.51239 0.83552
 C697 C 0.43727 0.00797 0.34323
 N698 N 0.43564 0.00197 0.32128
 N699 N 0.45372 -0.00075 0.30738
 C700 C 0.47410 0.00225 0.31494
 N701 N 0.47564 0.00835 0.33688
 N702 N 0.45760 0.01122 0.35072
 C703 C 0.41756 0.01016 0.35891
 N704 N 0.41937 0.01853 0.38018
 N705 N 0.40180 0.01962 0.39485
 C706 C 0.38178 0.01227 0.38885
 N707 N 0.37992 0.00399 0.36754
 N708 N 0.39749 0.00301 0.35281
 C709 C 0.36279 0.01239 0.40551
 N710 N 0.34362 0.00182 0.40087
 N711 N 0.32688 0.00093 0.41650
 C712 C 0.32864 0.01064 0.43733
 N713 N 0.34777 0.02141 0.44182
 N714 N 0.36452 0.02221 0.42625
 C715 C 0.17044 0.54005 0.92376
 N716 N 0.16022 0.54672 0.94388
 N717 N 0.16880 0.54183 0.96272
 C718 C 0.18803 0.53021 0.96221
 N719 N 0.19855 0.52398 0.94205
 N720 N 0.18986 0.52873 0.92316
 C721 C 0.15947 0.54321 0.90327
 N722 N 0.16668 0.53219 0.88366
 N723 N 0.15520 0.53310 0.86573
 C724 C 0.13616 0.54513 0.86675
 N725 N 0.12921 0.55649 0.88624
 N726 N 0.14062 0.55550 0.90417
 C727 C 0.12219 0.54423 0.84788
 N728 N 0.10314 0.55622 0.84922
 N729 N 0.08933 0.55384 0.83311
 C730 C 0.09395 0.53931 0.81505
 N731 N 0.11320 0.52756 0.81359
 N732 N 0.12705 0.52998 0.82969
 C733 C 0.59172 -0.02065 0.32616
 N734 N 0.57193 -0.02786 0.33519
 N735 N 0.55365 -0.02502 0.32490
 C736 C 0.55440 -0.01501 0.30507
 N737 N 0.57428 -0.00818 0.29576
 N738 N 0.59261 -0.01085 0.30618
 C739 C 0.61132 -0.02207 0.33881
 N740 N 0.63015 -0.01058 0.33287
 N741 N 0.64711 -0.01034 0.34570
 C742 C 0.64585 -0.02163 0.36484
 N743 N 0.62716 -0.03338 0.37054
 N744 N 0.61021 -0.03353 0.35780
 C745 C 0.66362 -0.02002 0.38006
 N746 N 0.66204 -0.03166 0.39895
 N747 N 0.67722 -0.02911 0.41370
 C748 C 0.69458 -0.01475 0.41023
 N749 N 0.69627 -0.00327 0.39117
 N750 N 0.68109 -0.00586 0.37637
 C751 C 0.81513 0.48665 0.08305
 N752 N 0.79960 0.47146 0.07659
 N753 N 0.79128 0.47262 0.05679
 C754 C 0.79847 0.48878 0.04267
 N755 N 0.81397 0.50390 0.04918
 N756 N 0.82202 0.50295 0.06904
 C757 C 0.82519 0.48522 0.10433
 N758 N 0.83577 0.50357 0.11310
 N759 N 0.84638 0.50216 0.13150
 C760 C 0.84706 0.48226 0.14170
 N761 N 0.83640 0.46387 0.13302
 N762 N 0.82553 0.46536 0.11471
 C763 C 0.86043 0.48062 0.16086
 N764 N 0.86714 0.46018 0.16713
 N765 N 0.88102 0.45903 0.18315
 C766 C 0.88857 0.47826 0.19361
 N767 N 0.88149 0.49863 0.18754
 N768 N 0.86779 0.49979 0.17144
 C769 C 0.42687 -0.01413 0.66821
 N770 N 0.42514 -0.00636 0.68996
 N771 N 0.44314 -0.00319 0.70113
 C772 C 0.46352 -0.00747 0.69089
 N773 N 0.46515 -0.01536 0.66918
 N774 N 0.44719 -0.01870 0.65809
 C775 C 0.40737 -0.01660 0.65532
 N776 N 0.40921 -0.02676 0.63446
 N777 N 0.39200 -0.02792 0.62204
 C778 C 0.37231 -0.01882 0.62996
 N779 N 0.37038 -0.00877 0.65089
 N780 N 0.38759 -0.00774 0.66339
 C781 C 0.35394 -0.01883 0.61548
 N782 N 0.33542 -0.00657 0.62150
 N783 N 0.31950 -0.00544 0.60755
 C784 C 0.32146 -0.01659 0.58709
 N785 N 0.33990 -0.02907 0.58127
 N786 N 0.35583 -0.03013 0.59515
   
