data_POSCAR
  _audit_creation_date              2014-09-24
  _audit_creation_method            'ToBaCCo'
  _symmetry_space_group_name_H-M    'P1'
  _symmetry_Int_Tables_number       1
  _symmetry_cell_setting            triclinic
  loop_
  _symmetry_equiv_pos_as_xyz
 x,y,z
_cell_length_a 47.8310
_cell_length_b 48.3812
_cell_length_c 47.4630
_cell_angle_alpha 91.585900
_cell_angle_beta 88.193700
_cell_angle_gamma 89.989400
loop_
  _atom_site_label
  _atom_site_type_symbol
  _atom_site_fract_x
  _atom_site_fract_y
  _atom_site_fract_z
N1 N 0.62316 0.61311 0.61564
 N2 N 0.86958 0.37959 0.11599
 N3 N 0.36150 0.13504 -0.12355
 N4 N 0.13122 0.88590 0.39026
 N5 N 0.07630 0.16658 0.12360
 N6 N 0.06469 0.15610 0.14637
 C7 C 0.04257 0.17180 0.15483
 C8 C 0.04008 0.19321 0.13629
 C9 C 0.06189 0.18918 0.11672
 H10 H 0.02910 0.16779 0.17297
 H11 H 0.06716 0.20194 0.09898
 Cu12 Cu 0.07951 0.12293 0.16277
 Cu13 Cu 0.10938 0.15039 0.10476
 Cu14 Cu 0.13736 0.09227 0.13433
 N15 N 0.09604 0.09073 0.17947
 N16 N 0.11878 0.07904 0.16843
 C17 C 0.12599 0.05770 0.18429
 C18 C 0.10667 0.05580 0.20651
 C19 C 0.08793 0.07712 0.20272
 H20 H 0.14383 0.04440 0.17981
 H21 H 0.07001 0.08258 0.21617
 N22 N 0.15320 0.10873 0.09986
 N23 N 0.14275 0.13105 0.08878
 C24 C 0.15835 0.13738 0.06572
 C25 C 0.17957 0.11804 0.06201
 C26 C 0.17559 0.10018 0.08406
 H27 H 0.15436 0.15460 0.05238
 H28 H 0.18834 0.08247 0.08848
 H29 H 0.10266 0.11044 0.11765
 H30 H 0.12482 0.13299 0.14043
 N31 N 0.41628 0.82659 0.62260
 N32 N 0.42740 0.83920 0.64441
 C33 C 0.44924 0.82420 0.65273
 C34 C 0.45206 0.80102 0.63507
 C35 C 0.43075 0.80328 0.61618
 H36 H 0.46233 0.82987 0.67011
 H37 H 0.42585 0.78884 0.59927
 Cu38 Cu 0.41242 0.87412 0.65959
 Cu39 Cu 0.38361 0.84100 0.60445
 Cu40 Cu 0.35554 0.90245 0.63198
 N41 N 0.39616 0.90837 0.67505
 N42 N 0.37384 0.91923 0.66429
 C43 C 0.36682 0.94251 0.67902
 C44 C 0.38582 0.94656 0.70018
 C45 C 0.40416 0.92445 0.69696
 H46 H 0.34933 0.95562 0.67447
 H47 H 0.42177 0.92017 0.70988
 N48 N 0.34002 0.88233 0.59936
 N49 N 0.35060 0.85884 0.58902
 C50 C 0.33527 0.85006 0.56721
 C51 C 0.31404 0.86895 0.56353
 C52 C 0.31777 0.88916 0.58430
 H53 H 0.33940 0.83140 0.55473
 H54 H 0.30494 0.90730 0.58841
 H55 H 0.39037 0.88217 0.61488
 H56 H 0.36745 0.86234 0.63968
 N57 N 0.92138 0.67559 0.38188
 N58 N 0.93272 0.66391 0.35895
 C59 C 0.95524 0.67871 0.35072
 C60 C 0.95823 0.70083 0.36955
 C61 C 0.93634 0.69811 0.38908
 H62 H 0.96859 0.67365 0.33252
 H63 H 0.93134 0.71176 0.40695
 Cu64 Cu 0.91684 0.63058 0.34210
 Cu65 Cu 0.88776 0.66108 0.40037
 Cu66 Cu 0.85933 0.60143 0.37088
 N67 N 0.90111 0.59677 0.32614
 N68 N 0.87839 0.58569 0.33728
 C69 C 0.87162 0.56300 0.32194
 C70 C 0.89122 0.55955 0.30001
 C71 C 0.90966 0.58137 0.30341
 H72 H 0.85388 0.54986 0.32656
 H73 H 0.92766 0.58594 0.29001
 N74 N 0.84313 0.62044 0.40486
 N75 N 0.85383 0.64325 0.41595
 C76 C 0.83788 0.65140 0.43857
 C77 C 0.81614 0.63279 0.44198
 C78 C 0.82019 0.61342 0.42022
 H79 H 0.84192 0.66944 0.45174
 H80 H 0.80711 0.59576 0.41563
 H81 H 0.89418 0.62039 0.38733
 H82 H 0.87174 0.64183 0.36498
 N83 N 0.58992 0.32556 -0.12727
 N84 N 0.58113 0.33743 -0.14995
 C85 C 0.55813 0.32417 -0.15882
 C86 C 0.55209 0.30290 -0.14064
 C87 C 0.57276 0.30446 -0.12087
 H88 H 0.54640 0.32980 -0.17689
 H89 H 0.57541 0.29100 -0.10334
 Cu90 Cu 0.60025 0.36958 -0.16493
 Cu91 Cu 0.62335 0.33783 -0.10806
 Cu92 Cu 0.66154 0.39034 -0.13938
 N93 N 0.62004 0.40130 -0.18008
 N94 N 0.64405 0.40933 -0.16991
 C95 C 0.65355 0.43124 -0.18419
 C96 C 0.63441 0.43744 -0.20442
 C97 C 0.61338 0.41796 -0.20113
 H98 H 0.67290 0.44189 -0.18001
 H99 H 0.59485 0.41579 -0.21345
 N100 N 0.67241 0.37313 -0.10420
 N101 N 0.65791 0.35314 -0.09229
 C102 C 0.67071 0.34568 -0.06880
 C103 C 0.69429 0.36190 -0.06562
 C104 C 0.69463 0.37914 -0.08842
 H105 H 0.66329 0.32980 -0.05485
 H106 H 0.71011 0.39469 -0.09333
 H107 H 0.62393 0.37850 -0.12111
 H108 H 0.64235 0.35178 -0.14401
 C109 C -0.07562 0.32933 0.08873
 C110 C -0.06824 0.31561 0.11344
 C111 C -0.08252 0.32350 0.13907
 C112 C -0.10276 0.34455 0.13976
 C113 C -0.10955 0.35799 0.11515
 C114 C -0.09592 0.35010 0.08969
 C115 C -0.07663 0.31032 0.16393
 C116 C -0.05703 0.28919 0.16405
 C117 C -0.04216 0.28047 0.13919
 C118 C -0.04743 0.29430 0.11358
 C119 C -0.03153 0.28656 0.08904
 C120 C -0.01150 0.26583 0.08931
 C121 C -0.00662 0.25170 0.11385
 C122 C -0.02197 0.25856 0.13913
 C123 C -0.01655 0.24297 0.16320
 C124 C 0.00343 0.22189 0.16216
 C125 C 0.01880 0.21555 0.13722
 C126 C 0.01359 0.23060 0.11313
 H127 H -0.06639 0.32442 0.06823
 H128 H -0.11357 0.35036 0.15946
 H129 H -0.10088 0.36026 0.07042
 H130 H -0.08741 0.31635 0.18358
 H131 H -0.05377 0.28034 0.18425
 H132 H -0.03372 0.29640 0.06918
 H133 H 0.00024 0.26073 0.06994
 H134 H -0.02750 0.24627 0.18317
 H135 H 0.00699 0.21072 0.18116
 H136 H 0.02498 0.22565 0.09355
 C137 C 0.57039 0.66202 0.58818
 C138 C 0.56118 0.67688 0.61291
 C139 C 0.57364 0.67028 0.63863
 C140 C 0.59375 0.64918 0.63939
 C141 C 0.60232 0.63461 0.61475
 C142 C 0.59062 0.64131 0.58920
 C143 C 0.56608 0.68479 0.66346
 C144 C 0.54665 0.70609 0.66346
 C145 C 0.53355 0.71354 0.63851
 C146 C 0.54035 0.69817 0.61297
 C147 C 0.52584 0.70434 0.58846
 C148 C 0.50580 0.72508 0.58864
 C149 C 0.49962 0.74084 0.61305
 C150 C 0.51357 0.73560 0.63829
 C151 C 0.50706 0.75294 0.66216
 C152 C 0.48728 0.77408 0.66098
 C153 C 0.47319 0.77870 0.63614
 C154 C 0.47953 0.76196 0.61224
 H155 H 0.56275 0.66607 0.56760
 H156 H 0.60313 0.64426 0.65914
 H157 H 0.59708 0.63028 0.56992
 H158 H 0.57545 0.67974 0.68318
 H159 H 0.54198 0.71601 0.68363
 H160 H 0.52908 0.69313 0.56872
 H161 H 0.49512 0.72892 0.56932
 H162 H 0.51709 0.75103 0.68200
 H163 H 0.48284 0.78666 0.67981
 H164 H 0.46917 0.76563 0.59271
 C165 C 1.07603 0.83760 0.41757
 C166 C 1.06825 0.82287 0.39279
 C167 C 1.08236 0.82946 0.36710
 C168 C 1.10283 0.85024 0.36643
 C169 C 1.11003 0.86466 0.39110
 C170 C 1.09656 0.85809 0.41662
 C171 C 1.07610 0.81525 0.34218
 C172 C 1.05629 0.79432 0.34202
 C173 C 1.04157 0.78685 0.36693
 C174 C 1.04721 0.80177 0.39263
 C175 C 1.03143 0.79531 0.41723
 C176 C 1.01116 0.77480 0.41693
 C177 C 1.00591 0.75962 0.39229
 C178 C 1.02116 0.76517 0.36696
 C179 C 1.01540 0.74854 0.34279
 C180 C 0.99517 0.72777 0.34378
 C181 C 0.97988 0.72276 0.36874
 C182 C 0.98544 0.73881 0.39295
 H183 H 1.06693 0.83370 0.43810
 H184 H 1.11352 0.85505 0.34669
 H185 H 1.10188 0.86903 0.43593
 H186 H 1.08676 0.82029 0.32248
 H187 H 1.05274 0.78464 0.32177
 H188 H 1.03391 0.80601 0.43717
 H189 H 0.99951 0.77070 0.43633
 H190 H 1.02628 0.75078 0.32279
 H191 H 0.99135 0.71580 0.32469
 H192 H 0.97411 0.73489 0.41255
 C193 C 0.41868 0.17986 -0.09526
 C194 C 0.42955 0.19257 -0.11983
 C195 C 0.41669 0.18603 -0.14571
 C196 C 0.39446 0.16710 -0.14677
 C197 C 0.38426 0.15458 -0.12229
 C198 C 0.39645 0.16124 -0.09658
 C199 C 0.42599 0.19840 -0.17043
 C200 C 0.44768 0.21744 -0.17019
 C201 C 0.46131 0.22471 -0.14508
 C202 C 0.45251 0.21159 -0.11959
 C203 C 0.46716 0.21769 -0.09481
 C204 C 0.48931 0.23618 -0.09471
 C205 C 0.49765 0.24967 -0.11913
 C206 C 0.48368 0.24441 -0.14463
 C207 C 0.49262 0.25935 -0.16855
 C208 C 0.51464 0.27823 -0.16714
 C209 C 0.52863 0.28292 -0.14198
 C210 C 0.51994 0.26853 -0.11805
 H211 H 0.42661 0.18398 -0.07459
 H212 H 0.38480 0.16222 -0.16666
 H213 H 0.38883 0.15175 -0.07742
 H214 H 0.41629 0.19340 -0.19028
 H215 H 0.45354 0.22580 -0.19031
 H216 H 0.46234 0.20816 -0.07502
 H217 H 0.49998 0.24006 -0.07518
 H218 H 0.48293 0.25722 -0.18866
 H219 H 0.52087 0.28898 -0.18602
 H220 H 0.53024 0.27228 -0.09830
 C221 C 0.15722 -0.06863 0.33236
 C222 C 0.13230 -0.05591 0.32373
 C223 C 0.10699 -0.06270 0.33832
 C224 C 0.10680 -0.08186 0.36001
 C225 C 0.13160 -0.09436 0.36799
 C226 C 0.15675 -0.08748 0.35410
 C227 C 0.08195 -0.05034 0.33127
 C228 C 0.08133 -0.03105 0.31020
 C229 C 0.10585 -0.02352 0.29494
 C230 C 0.13166 -0.03663 0.30137
 C231 C 0.15588 -0.03027 0.28503
 C232 C 0.15512 -0.01152 0.26348
 C233 C 0.13037 0.00199 0.25747
 C234 C 0.10540 -0.00354 0.27321
 C235 C 0.08109 0.01142 0.26662
 C236 C 0.08163 0.03058 0.24514
 C237 C 0.10627 0.03554 0.22939
 C238 C 0.13057 0.02112 0.23574
 H239 H 0.17749 -0.06433 0.32301
 H240 H 0.08733 -0.08691 0.37101
 H241 H 0.17615 -0.09696 0.36000
 H242 H 0.06254 -0.05554 0.34229
 H243 H 0.06103 -0.02273 0.30612
 H244 H 0.17587 -0.03979 0.28802
 H245 H 0.17425 -0.00744 0.25145
 H246 H 0.06133 0.00911 0.27779
 H247 H 0.06249 0.04135 0.24073
 H248 H 0.14992 0.02506 0.22406
 C249 C 0.59310 0.56075 -0.33510
 C250 C 0.61707 0.55132 -0.32137
 C251 C 0.64316 0.56347 -0.32883
 C252 C 0.64498 0.58372 -0.34943
 C253 C 0.62109 0.59250 -0.36296
 C254 C 0.59519 0.58095 -0.35549
 C255 C 0.66739 0.55537 -0.31577
 C256 C 0.66649 0.53541 -0.29533
 C257 C 0.64116 0.52246 -0.28716
 C258 C 0.61606 0.53037 -0.30058
 C259 C 0.59086 0.51688 -0.29296
 C260 C 0.59008 0.49649 -0.27298
 C261 C 0.61422 0.48872 -0.25956
 C262 C 0.64010 0.50168 -0.26620
 C263 C 0.66381 0.49321 -0.25146
 C264 C 0.66183 0.47262 -0.23146
 C265 C 0.63627 0.45964 -0.22535
 C266 C 0.61252 0.46795 -0.23948
 H267 H 0.57236 0.55307 -0.33063
 H268 H 0.66504 0.59289 -0.35491
 H269 H 0.57647 0.58742 -0.36575
 H270 H 0.68738 0.56460 -0.32141
 H271 H 0.68627 0.53042 -0.28655
 H272 H 0.57120 0.52137 -0.30226
 H273 H 0.57023 0.48665 -0.26798
 H274 H 0.68426 0.50205 -0.25474
 H275 H 0.68060 0.46665 -0.22103
 H276 H 0.59249 0.45844 -0.23471
 C277 C 0.33622 1.08643 0.81985
 C278 C 0.36084 1.07164 0.81150
 C279 C 0.38578 1.07850 0.82550
 C280 C 0.38590 1.09948 0.84654
 C281 C 0.36136 1.11385 0.85442
 C282 C 0.33659 1.10711 0.84094
 C283 C 0.41052 1.06433 0.81861
 C284 C 0.41115 1.04310 0.79835
 C285 C 0.38695 1.03525 0.78382
 C286 C 0.36151 1.05017 0.79006
 C287 C 0.33767 1.04324 0.77455
 C288 C 0.33840 1.02222 0.75405
 C289 C 0.36274 1.00700 0.74828
 C290 C 0.38736 1.01311 0.76312
 C291 C 0.41126 0.99651 0.75673
 C292 C 0.41065 0.97510 0.73643
 C293 C 0.38633 0.96941 0.72166
 C294 C 0.36245 0.98555 0.72773
 H295 H 0.31622 1.08241 0.81082
 H296 H 0.40505 1.10441 0.85722
 H297 H 0.31740 1.11802 0.84674
 H298 H 0.42966 1.06960 0.82916
 H299 H 0.43120 1.03343 0.79437
 H300 H 0.31800 1.05390 0.77746
 H301 H 0.31955 1.01772 0.74269
 H302 H 0.43075 0.99923 0.76719
 H303 H 0.42949 0.96313 0.73218
 H304 H 0.34334 0.98117 0.71679
 C305 C 0.84276 0.42806 0.17364
 C306 C 0.86761 0.44072 0.18315
 C307 C 0.89320 0.43278 0.16930
 C308 C 0.89370 0.41258 0.14748
 C309 C 0.86894 0.40018 0.13859
 C310 C 0.84354 0.40819 0.15174
 C311 C 0.91820 0.44510 0.17717
 C312 C 0.91849 0.46554 0.19824
 C313 C 0.89366 0.47431 0.21272
 C314 C 0.86790 0.46113 0.20560
 C315 C 0.84339 0.46856 0.22137
 C316 C 0.84379 0.48854 0.24289
 C317 C 0.86846 0.50227 0.24940
 C318 C 0.89374 0.49561 0.23431
 C319 C 0.91796 0.51088 0.24129
 C320 C 0.91702 0.53147 0.26250
 C321 C 0.89208 0.53758 0.27760
 C322 C 0.86788 0.52280 0.27093
 H323 H 0.82231 0.43324 0.18234
 H324 H 0.91337 0.40668 0.13702
 H325 H 0.82417 0.39885 0.14509
 H326 H 0.93783 0.43900 0.16674
 H327 H 0.93877 0.47376 0.20300
 H328 H 0.82343 0.45897 0.21796
 H329 H 0.82443 0.49345 0.25446
 H330 H 0.93792 0.50778 0.23056
 H331 H 0.93609 0.54248 0.26719
 H332 H 0.84831 0.52763 0.28211
 C333 C 0.30548 0.16281 -0.07347
 C334 C 0.29546 0.13860 -0.06036
 C335 C 0.30837 0.11311 -0.06862
 C336 C 0.32982 0.11209 -0.08951
 C337 C 0.33923 0.13622 -0.10231
 C338 C 0.32700 0.16153 -0.09403
 C339 C 0.29996 0.08873 -0.05594
 C340 C 0.27922 0.08895 -0.03484
 C341 C 0.26566 0.11370 -0.02572
 C342 C 0.27338 0.13882 -0.03923
 C343 C 0.25857 0.16324 -0.03138
 C344 C 0.23738 0.16332 -0.01073
 C345 C 0.23025 0.13927 0.00327
 C346 C 0.24440 0.11413 -0.00376
 C347 C 0.23681 0.09056 0.01181
 C348 C 0.21592 0.09195 0.03301
 C349 C 0.20173 0.11674 0.03947
 C350 C 0.20903 0.14033 0.02444
 H351 H 0.29747 0.18315 -0.06813
 H352 H 0.33958 0.09251 -0.09562
 H353 H 0.33410 0.18041 -0.10368
 H354 H 0.30968 0.06919 -0.06229
 H355 H 0.27399 0.06912 -0.02641
 H356 H 0.26252 0.18273 -0.04114
 H357 H 0.22655 0.18258 -0.00553
 H358 H 0.24681 0.07075 0.00847
 H359 H 0.21072 0.07335 0.04419
 H360 H 0.19857 0.15978 0.02953
 C361 C 0.67560 0.58591 0.56134
 C362 C 0.69003 0.61019 0.55328
 C363 C 0.68192 0.63548 0.56704
 C364 C 0.65998 0.63626 0.58740
 C365 C 0.64584 0.61208 0.59482
 C366 C 0.65392 0.58696 0.58175
 C367 C 0.69571 0.65993 0.56047
 C368 C 0.71762 0.66001 0.54061
 C369 C 0.72655 0.63550 0.52617
 C370 C 0.71218 0.61025 0.53223
 C371 C 0.72024 0.58600 0.51682
 C372 C 0.74166 0.58622 0.49644
 C373 C 0.75622 0.61047 0.49069
 C374 C 0.74915 0.63543 0.50560
 C375 C 0.76519 0.65923 0.49931
 C376 C 0.78684 0.65823 0.47888
 C377 C 0.79333 0.63361 0.46390
 C378 C 0.77791 0.60978 0.47002
 H379 H 0.68058 0.56571 0.55253
 H380 H 0.65396 0.65570 0.59777
 H381 H 0.64320 0.56805 0.58721
 H382 H 0.68954 0.67931 0.57088
 H383 H 0.72688 0.67988 0.53681
 H384 H 0.71011 0.56637 0.51968
 H385 H 0.74695 0.56709 0.48507
 H386 H 0.76179 0.67897 0.50989
 H387 H 0.79829 0.67703 0.47463
 H388 H 0.78299 0.59045 0.45896
 C389 C 0.82443 0.40685 0.05990
 C390 C 0.81006 0.38284 0.05055
 C391 C 0.81550 0.35775 0.06419
 C392 C 0.83518 0.35682 0.08547
 C393 C 0.84939 0.38070 0.09410
 C394 C 0.84370 0.40569 0.08133
 C395 C 0.80127 0.33370 0.05660
 C396 C 0.78136 0.33390 0.03596
 C397 C 0.77517 0.35823 0.02161
 C398 C 0.79036 0.38291 0.02843
 C399 C 0.78570 0.40667 0.01261
 C400 C 0.76657 0.40658 -0.00878
 C401 C 0.75091 0.38304 -0.01501
 C402 C 0.75462 0.35862 0.00030
 C403 C 0.73732 0.33569 -0.00624
 C404 C 0.71778 0.33693 -0.02741
 C405 C 0.71479 0.36088 -0.04291
 C406 C 0.73144 0.38389 -0.03652
 H407 H 0.82104 0.42696 0.05145
 H408 H 0.83929 0.33753 0.09569
 H409 H 0.85444 0.42439 0.08786
 H410 H 0.80544 0.31446 0.06687
 H411 H 0.77158 0.31433 0.03134
 H412 H 0.79699 0.42570 0.01578
 H413 H 0.76390 0.42528 -0.02048
 H414 H 0.73802 0.31659 0.00482
 H415 H 0.70520 0.31882 -0.03184
 H416 H 0.72896 0.40275 -0.04799
 C417 C 0.18034 0.91387 0.44407
 C418 C 0.19376 0.88964 0.45303
 C419 C 0.18597 0.86406 0.44022
 C420 C 0.16535 0.86299 0.41981
 C421 C 0.15226 0.88714 0.41141
 C422 C 0.16000 0.91252 0.42363
 C423 C 0.19883 0.83962 0.44770
 C424 C 0.21957 0.83984 0.46748
 C425 C 0.22821 0.86468 0.48092
 C426 C 0.21469 0.88992 0.47400
 C427 C 0.22237 0.91455 0.48844
 C428 C 0.24275 0.91468 0.50861
 C429 C 0.25658 0.89044 0.51509
 C430 C 0.24975 0.86509 0.50125
 C431 C 0.26501 0.84127 0.50826
 C432 C 0.28575 0.84265 0.52830
 C433 C 0.29207 0.86769 0.54217
 C434 C 0.27734 0.89151 0.53539
 H435 H 0.18518 0.93425 0.45217
 H436 H 0.15964 0.84333 0.41009
 H437 H 0.15008 0.93142 0.41738
 H438 H 0.19287 0.82001 0.43804
 H439 H 0.22818 0.81996 0.47201
 H440 H 0.21276 0.93422 0.48494
 H441 H 0.24783 0.93411 0.51918
 H442 H 0.26172 0.82122 0.49854
 H443 H 0.29665 0.82384 0.53311
 H444 H 0.28228 0.91114 0.54560
   
