data_POSCAR
  _audit_creation_date              2014-09-24
  _audit_creation_method            'ToBaCCo'
  _symmetry_space_group_name_H-M    'P1'
  _symmetry_Int_Tables_number       1
  _symmetry_cell_setting            triclinic
  loop_
  _symmetry_equiv_pos_as_xyz
 x,y,z
_cell_length_a 30.3865
_cell_length_b 30.6258
_cell_length_c 30.5578
_cell_angle_alpha 91.726800
_cell_angle_beta 89.059400
_cell_angle_gamma 87.449500
loop_
  _atom_site_label
  _atom_site_type_symbol
  _atom_site_fract_x
  _atom_site_fract_y
  _atom_site_fract_z
C1 C 0.01273 0.45816 0.21838
 C2 C 0.05694 0.46524 0.23975
 C3 C 0.05787 0.50142 0.26657
 C4 C 0.01316 0.52795 0.26975
 C5 C -0.02009 0.45806 0.25643
 C6 C -0.02100 0.49437 0.28310
 C7 C 0.00198 0.50067 0.19501
 C8 C 0.00267 0.53751 0.22140
 H9 H 0.08562 0.44351 0.23369
 H10 H 0.01332 0.55747 0.29174
 H11 H -0.04336 0.43249 0.25982
 H12 H -0.00316 0.50145 0.16005
 C13 C 0.01626 0.44793 0.78273
 C14 C -0.02247 0.44610 0.75590
 C15 C -0.02767 0.48149 0.72653
 C16 C 0.00831 0.51205 0.72903
 C17 C 0.05268 0.44961 0.75157
 C18 C 0.04870 0.48462 0.72191
 C19 C 0.01315 0.49078 0.80481
 C20 C 0.00895 0.52641 0.77529
 H21 H -0.04625 0.42092 0.75899
 H22 H 0.00495 0.53907 0.70567
 H23 H 0.08222 0.42851 0.75247
 H24 H 0.01444 0.49539 0.84007
 C25 C 0.22691 0.00437 0.44686
 C26 C 0.24827 0.04831 0.45043
 C27 C 0.27270 0.05457 0.48691
 C28 C 0.27355 0.01470 0.51734
 C29 C 0.26498 -0.02943 0.45079
 C30 C 0.28918 -0.02501 0.48750
 C31 C 0.20025 0.00145 0.48965
 C32 C 0.22427 0.00695 0.52679
 H33 H 0.24394 0.07268 0.42569
 H34 H 0.29360 0.01898 0.54708
 H35 H 0.26978 -0.05745 0.42845
 H36 H 0.16537 -0.00441 0.49024
 C37 C 0.76971 0.00729 0.45583
 C38 C 0.75073 -0.03513 0.45583
 C39 C 0.72205 -0.04153 0.49228
 C40 C 0.71726 -0.00366 0.52233
 C41 C 0.73009 0.03993 0.45853
 C42 C 0.70271 0.03439 0.49335
 C43 C 0.79207 0.01240 0.50004
 C44 C 0.76463 0.00657 0.53492
 H45 H 0.75731 -0.05971 0.42999
 H46 H 0.69472 -0.00772 0.55078
 H47 H 0.72571 0.06711 0.43689
 H48 H 0.82651 0.01943 0.50327
 C49 C 0.43608 0.22811 1.00296
 C50 C 0.43691 0.25835 1.04005
 C51 C 0.47457 0.28491 1.04129
 C52 C 0.50417 0.27694 1.00261
 C53 C 0.43890 0.25487 0.96502
 C54 C 0.47600 0.28202 0.96389
 C55 C 0.47807 0.20299 1.00367
 C56 C 0.51600 0.22973 1.00311
 H57 H 0.41308 0.25761 1.06683
 H58 H 0.53285 0.29822 1.00250
 H59 H 0.41599 0.25233 0.93827
 H60 H 0.48073 0.16760 1.00372
 C61 C 0.45558 0.77209 1.01637
 C62 C 0.45814 0.73869 0.97827
 C63 C 0.49579 0.71298 0.97672
 C64 C 0.52771 0.72292 1.01401
 C65 C 0.46179 0.74456 1.05689
 C66 C 0.49917 0.71849 1.05558
 C67 C 0.49501 0.79649 1.01264
 C68 C 0.53487 0.76969 1.01148
 H69 H 0.43265 0.73634 0.95402
 H70 H 0.55808 0.70129 1.01297
 H71 H 0.43800 0.74433 1.08367
 H72 H 0.49428 0.83185 1.01153
 B73 B 0.98725 1.03777 0.02128
 B74 B 0.98671 1.03897 -0.03375
 B75 B 1.03213 1.01875 -0.00830
 B76 B 1.01504 0.99146 0.03570
 B77 B 0.95933 0.99404 0.03700
 B78 B 0.94143 1.02346 -0.00579
 B79 B 0.98609 0.94954 -0.03863
 B80 B 0.98711 0.94812 0.01711
 B81 B 0.94146 0.96813 -0.00830
 B82 B 0.95817 0.99605 -0.05230
 B83 B 1.01402 0.99338 -0.05436
 B84 B 1.03146 0.96354 -0.01139
 B85 B 0.55689 0.50282 0.48114
 B86 B 0.55576 0.50379 0.53613
 B87 B 0.53749 0.54872 0.50944
 B88 B 0.51123 0.53119 0.46413
 B89 B 0.51244 0.47599 0.46312
 B90 B 0.53963 0.45884 0.50801
 B91 B 0.46518 0.50601 0.53629
 B92 B 0.46608 0.50534 0.48088
 B93 B 0.48376 0.46011 0.50778
 B94 B 0.51059 0.47743 0.55326
 B95 B 0.50966 0.53245 0.55414
 B96 B 0.48223 0.55018 0.50949
 C97 C 1.00592 1.33749 0.14940
 N98 N 1.04474 1.35032 0.16552
 N99 N 1.04739 1.38925 0.18554
 C100 C 1.01140 1.41704 0.19008
 N101 N 0.97276 1.40461 0.17289
 N102 N 0.97006 1.36554 0.15292
 C103 C 1.00244 1.29291 0.13131
 N104 N 0.96303 1.27811 0.11860
 N105 N 0.95981 1.23688 0.10421
 C106 C 0.99584 1.20897 0.10226
 N107 N 1.03522 1.22383 0.11485
 N108 N 1.03843 1.26499 0.12925
 C109 C 0.99275 1.16389 0.08547
 N110 N 1.02942 1.13708 0.08120
 N111 N 1.02728 1.09715 0.06316
 C112 C 0.98842 1.08239 0.04890
 N113 N 0.95159 1.10895 0.05412
 N114 N 0.95367 1.14893 0.07212
 C115 C 0.99429 0.66214 0.16716
 N116 N 0.98510 0.62584 0.14308
 N117 N 0.98701 0.58661 0.16072
 C118 C 0.99803 0.58187 0.20327
 N119 N 1.00685 0.61825 0.22761
 N120 N 1.00501 0.65766 0.20989
 C121 C 0.99344 0.70510 0.14634
 N122 N 1.00399 0.74209 0.16879
 N123 N 1.00375 0.78046 0.14908
 C124 C 0.99303 0.78325 0.10618
 N125 N 0.98246 0.74628 0.08389
 N126 N 0.98271 0.70803 0.10353
 C127 C 0.99240 0.82537 0.08383
 N128 N 0.98095 0.82714 0.04116
 N129 N 0.97947 0.86499 0.02077
 C130 C 0.98902 0.90281 0.04208
 N131 N 1.00143 0.90085 0.08457
 N132 N 1.00292 0.86296 0.10512
 C133 C 1.01814 1.33594 -0.14502
 N134 N 1.05153 1.34307 -0.17333
 N135 N 1.05225 1.38016 -0.19462
 C136 C 1.01964 1.41174 -0.18859
 N137 N 0.98691 1.40508 -0.15893
 N138 N 0.98620 1.36784 -0.13752
 C139 C 1.01424 1.29257 -0.12734
 N140 N 0.98131 1.28439 -0.09869
 N141 N 0.97589 1.24389 -0.08564
 C142 C 1.00280 1.21020 -0.10128
 N143 N 1.03582 1.21840 -0.12976
 N144 N 1.04139 1.25892 -0.14260
 C145 C 0.99672 1.16594 -0.08679
 N146 N 1.01995 1.13116 -0.10551
 N147 N 1.01557 1.09117 -0.09049
 C148 C 0.98786 1.08467 -0.05625
 N149 N 0.96446 1.11952 -0.03815
 N150 N 0.96852 1.15935 -0.05319
 C151 C 0.99789 0.65479 -0.18087
 N152 N 1.00453 0.64487 -0.22413
 N153 N 1.00778 0.60328 -0.23850
 C154 C 1.00532 0.57015 -0.21005
 N155 N 0.99913 0.58031 -0.16676
 N156 N 0.99509 0.62180 -0.15250
 C157 C 0.99359 0.70026 -0.16459
 N158 N 0.96807 0.71082 -0.12867
 N159 N 0.96497 0.75174 -0.11266
 C160 C 0.98784 0.78346 -0.13153
 N161 N 1.01355 0.77294 -0.16742
 N162 N 1.01606 0.73207 -0.18393
 C163 C 0.98609 0.82768 -0.11179
 N164 N 1.02129 0.85332 -0.11432
 N165 N 1.02098 0.89170 -0.09252
 C166 C 0.98532 0.90603 -0.06788
 N167 N 0.94980 0.88078 -0.06643
 N168 N 0.95028 0.84219 -0.08763
 C169 C 1.15949 0.99495 0.32693
 N170 N 1.19493 0.96798 0.33467
 N171 N 1.21524 0.97013 0.37290
 C172 C 1.20102 0.99923 0.40512
 N173 N 1.16532 1.02608 0.39745
 N174 N 1.14488 1.02387 0.35915
 C175 C 1.13842 0.99367 0.28379
 N176 N 1.10194 1.01931 0.27616
 N177 N 1.08350 1.01868 0.23687
 C178 C 1.10090 0.99258 0.20361
 N179 N 1.13740 0.96692 0.21121
 N180 N 1.15578 0.96746 0.25057
 C181 C 1.08014 0.99222 0.16033
 N182 N 1.09825 0.96849 0.12570
 N183 N 1.07874 0.96833 0.08683
 C184 C 1.04038 0.99178 0.08113
 N185 N 1.02262 1.01550 0.11586
 N186 N 1.04203 1.01582 0.15455
 C187 C 1.16616 1.00211 -0.34728
 N188 N 1.20866 1.01358 -0.35229
 N189 N 1.22730 1.01499 -0.39214
 C190 C 1.20415 1.00514 -0.42858
 N191 N 1.16170 0.99371 -0.42341
 N192 N 1.14316 0.99215 -0.38369
 C193 C 1.14488 1.00045 -0.30337
 N194 N 1.10349 0.98584 -0.29920
 N195 N 1.08380 0.98439 -0.25997
 C196 C 1.10457 0.99763 -0.22318
 N197 N 1.14601 1.01230 -0.22727
 N198 N 1.16580 1.01362 -0.26657
 C199 C 1.08216 0.99615 -0.17983
 N200 N 1.10082 1.01243 -0.14302
 N201 N 1.08006 1.01134 -0.10422
 C202 C 1.03992 0.99367 -0.10051
 N203 N 1.02137 0.97752 -0.13741
 N204 N 1.04198 0.97871 -0.17618
 C205 C 0.84589 1.01432 0.34093
 N206 N 0.85309 0.98098 0.36849
 N207 N 0.83073 0.98015 0.40621
 C208 C 0.79997 1.01230 0.41729
 N209 N 0.79404 1.04638 0.39033
 N210 N 0.81668 1.04743 0.35285
 C211 C 0.86440 1.01183 0.29671
 N212 N 0.85966 1.04658 0.27050
 N213 N 0.87205 1.04302 0.22860
 C214 C 0.88885 1.00439 0.21137
 N215 N 0.89390 0.96966 0.23762
 N216 N 0.88178 0.97332 0.27964
 C217 C 0.90240 1.00084 0.16553
 N218 N 0.91351 0.96140 0.14613
 N219 N 0.92879 0.95889 0.10504
 C220 C 0.93364 0.99563 0.08213
 N221 N 0.92148 1.03484 0.10140
 N222 N 0.90586 1.03745 0.14225
 C223 C 0.80926 1.01147 -0.33688
 N224 N 0.77338 0.98865 -0.34712
 N225 N 0.75858 0.98774 -0.38791
 C226 C 0.77952 1.00915 -0.41983
 N227 N 0.81531 1.03202 -0.40948
 N228 N 0.82979 1.03333 -0.36867
 C229 C 0.82703 1.01116 -0.29282
 N230 N 0.85689 1.04063 -0.28074
 N231 N 0.87516 1.03912 -0.24155
 C232 C 0.86457 1.00779 -0.21329
 N233 N 0.83457 0.97835 -0.22526
 N234 N 0.81595 0.98012 -0.26436
 C235 C 0.88665 1.00510 -0.17136
 N236 N 0.88536 0.96846 -0.14759
 N237 N 0.90736 0.96561 -0.11038
 C238 C 0.93097 0.99940 -0.09550
 N239 N 0.93211 1.03594 -0.11936
 N240 N 0.91048 1.03872 -0.15668
 C241 C 1.31938 1.16232 0.00147
 N242 N 1.31943 1.20635 -0.00120
 N243 N 1.35702 1.22687 -0.00034
 C244 C 1.39635 1.20430 0.00290
 N245 N 1.39631 1.16003 0.00582
 N246 N 1.35847 1.13944 0.00519
 C247 C 1.27734 1.14051 -0.00009
 N248 N 1.27492 1.09741 0.00832
 N249 N 1.23631 1.07838 0.00716
 C250 C 1.19885 1.10170 -0.00268
 N251 N 1.20136 1.14470 -0.01125
 N252 N 1.23986 1.16375 -0.00985
 C253 C 1.15628 1.08090 -0.00397
 N254 N 1.11998 1.10255 -0.01926
 N255 N 1.08143 1.08348 -0.02069
 C256 C 1.07769 1.04213 -0.00677
 N257 N 1.11395 1.02085 0.00900
 N258 N 1.15253 1.03972 0.01022
 C259 C 0.64281 1.17489 0.00172
 N260 N 0.60751 1.15004 0.00797
 N261 N 0.56672 1.16790 0.00820
 C262 C 0.55936 1.21150 0.00283
 N263 N 0.59479 1.23649 -0.00308
 N264 N 0.63569 1.21849 -0.00392
 C265 C 0.68777 1.15442 0.00131
 N266 N 0.72200 1.17343 -0.01869
 N267 N 0.76222 1.15391 -0.01981
 C268 C 0.76983 1.11492 -0.00050
 N269 N 0.73567 1.09620 0.01977
 N270 N 0.69541 1.11539 0.02037
 C271 C 0.81410 1.09294 -0.00143
 N272 N 0.82451 1.06211 0.02812
 N273 N 0.86412 1.04157 0.02715
 C274 C 0.89502 1.05067 -0.00347
 N275 N 0.88423 1.08102 -0.03349
 N276 N 0.84478 1.10208 -0.03226
 C277 C 1.33162 0.83650 0.00889
 N278 N 1.34262 0.81422 0.04502
 N279 N 1.38277 0.79587 0.04855
 C280 C 1.41338 0.79922 0.01616
 N281 N 1.40270 0.82264 -0.01948
 N282 N 1.36248 0.84106 -0.02302
 C283 C 1.28621 0.85195 0.00307
 N284 N 1.27434 0.87379 -0.03314
 N285 N 1.23241 0.88630 -0.03897
 C286 C 1.20103 0.87684 -0.00906
 N287 N 1.21291 0.85483 0.02702
 N288 N 1.25480 0.84245 0.03289
 C289 C 1.15584 0.89353 -0.01347
 N290 N 1.12499 0.88542 0.01742
 N291 N 1.08531 0.90544 0.01674
 C292 C 1.07526 0.93442 -0.01461
 N293 N 1.10556 0.94103 -0.04649
 N294 N 1.14523 0.92100 -0.04596
 C295 C 0.65608 0.82332 0.00259
 N296 N 0.65313 0.77975 0.00831
 N297 N 0.61388 0.76212 0.01089
 C298 C 0.57624 0.78752 0.00829
 N299 N 0.57945 0.83108 0.00270
 N300 N 0.61857 0.84861 -0.00029
 C301 C 0.69880 0.84329 -0.00015
 N302 N 0.70131 0.88464 -0.01439
 N303 N 0.73982 0.90356 -0.01625
 C304 C 0.77713 0.88195 -0.00353
 N305 N 0.77470 0.84057 0.01080
 N306 N 0.73617 0.82147 0.01230
 C307 C 0.81914 0.90337 -0.00497
 N308 N 0.85475 0.88648 0.01591
 N309 N 0.89267 0.90662 0.01498
 C310 C 0.89653 0.94403 -0.00718
 N311 N 0.86078 0.96084 -0.02792
 N312 N 0.82275 0.94100 -0.02674
 C313 C 0.86477 0.50497 0.36119
 N314 N 0.88913 0.46688 0.35731
 N315 N 0.92731 0.46474 0.33527
 C316 C 0.94310 0.50060 0.31635
 N317 N 0.91950 0.53924 0.32142
 N318 N 0.88108 0.54139 0.34358
 C319 C 0.81979 0.50506 0.38038
 N320 N 0.79428 0.54252 0.38494
 N321 N 0.75278 0.54158 0.39978
 C322 C 0.73500 0.50316 0.41020
 N323 N 0.76055 0.46575 0.40574
 N324 N 0.80207 0.46672 0.39111
 C325 C 0.68893 0.50232 0.42626
 N326 N 0.66916 0.46399 0.43278
 N327 N 0.62773 0.46382 0.44813
 C328 C 0.60433 0.50196 0.45732
 N329 N 0.62447 0.53998 0.45097
 N330 N 0.66563 0.54030 0.43548
 C331 C 0.17837 0.52167 0.32745
 N332 N 0.17653 0.50109 0.28775
 N333 N 0.13823 0.49663 0.26819
 C334 C 0.09990 0.51260 0.28721
 N335 N 0.10158 0.53430 0.32660
 N336 N 0.14020 0.53873 0.34640
 C337 C 0.22108 0.52226 0.34976
 N338 N 0.22530 0.54183 0.38987
 N339 N 0.26400 0.53997 0.41002
 C340 C 0.29978 0.51829 0.39097
 N341 N 0.29548 0.49891 0.35089
 N342 N 0.25695 0.50090 0.33073
 C343 C 0.34233 0.51509 0.41348
 N344 N 0.37662 0.48975 0.39627
 N345 N 0.41493 0.48642 0.41693
 C346 C 0.42050 0.50830 0.45559
 N347 N 0.38624 0.53387 0.47242
 N348 N 0.34792 0.53711 0.45198
 C349 C 0.85709 0.49291 0.65816
 N350 N 0.88565 0.52593 0.65776
 N351 N 0.92386 0.52227 0.67878
 C352 C 0.93446 0.48564 0.70119
 N353 N 0.90596 0.45278 0.70078
 N354 N 0.86827 0.45623 0.67968
 C355 C 0.81363 0.49616 0.63799
 N356 N 0.78823 0.46083 0.63810
 N357 N 0.74763 0.46306 0.62262
 C358 C 0.73065 0.50083 0.60659
 N359 N 0.75605 0.53631 0.60612
 N360 N 0.79690 0.53405 0.62164
 C361 C 0.68548 0.50257 0.59037
 N362 N 0.66694 0.53994 0.57483
 N363 N 0.62612 0.54058 0.55953
 C364 C 0.60211 0.50417 0.55953
 N365 N 0.62091 0.46691 0.57500
 N366 N 0.66164 0.46615 0.59036
 C367 C 0.15658 0.50058 0.64271
 N368 N 0.14737 0.46110 0.65817
 N369 N 0.11146 0.45628 0.68227
 C370 C 0.08265 0.49047 0.69158
 N371 N 0.09055 0.52992 0.67438
 N372 N 0.12734 0.53503 0.65072
 C373 C 0.20004 0.50493 0.62233
 N374 N 0.21917 0.54408 0.61999
 N375 N 0.26149 0.54575 0.60785
 C376 C 0.28599 0.50833 0.59817
 N377 N 0.26649 0.46952 0.59974
 N378 N 0.22447 0.46788 0.61175
 C379 C 0.33290 0.50865 0.58661
 N380 N 0.35605 0.47017 0.57926
 N381 N 0.39806 0.46950 0.56640
 C382 C 0.41880 0.50722 0.56076
 N383 N 0.39580 0.54576 0.56904
 N384 N 0.35367 0.54655 0.58200
 C385 C 0.51543 0.63892 0.16222
 N386 N 0.47600 0.64359 0.14255
 N387 N 0.47180 0.66705 0.10697
 C388 C 0.50689 0.68655 0.08950
 N389 N 0.54690 0.68067 0.10809
 N390 N 0.55107 0.65726 0.14406
 C391 C 0.51709 0.61970 0.20535
 N392 N 0.55465 0.61848 0.22877
 N393 N 0.55410 0.60551 0.27001
 C394 C 0.51591 0.59390 0.28924
 N395 N 0.47857 0.59467 0.26564
 N396 N 0.47917 0.60740 0.22447
 C397 C 0.51457 0.58104 0.33481
 N398 N 0.47550 0.57410 0.35497
 N399 N 0.47426 0.56087 0.39602
 C400 C 0.51194 0.55439 0.41855
 N401 N 0.55087 0.56153 0.39822
 N402 N 0.55225 0.57498 0.35728
 C403 C 0.51249 0.63416 0.86432
 N404 N 0.47316 0.63783 0.88589
 N405 N 0.46883 0.66073 0.92339
 C406 C 0.50370 0.68059 0.94097
 N407 N 0.54361 0.67559 0.92038
 N408 N 0.54791 0.65278 0.88253
 C409 C 0.51426 0.61600 0.81949
 N410 N 0.55151 0.61683 0.79447
 N411 N 0.55100 0.60508 0.75214
 C412 C 0.51312 0.59265 0.73338
 N413 N 0.47611 0.59133 0.75854
 N414 N 0.47667 0.60291 0.80079
 C415 C 0.51183 0.58098 0.68673
 N416 N 0.47309 0.57185 0.66779
 N417 N 0.47201 0.55940 0.62575
 C418 C 0.50947 0.55607 0.60092
 N419 N 0.54811 0.56542 0.62003
 N420 N 0.54930 0.57804 0.66200
 C421 C 0.49705 0.34722 0.16028
 N422 N 0.45807 0.32969 0.15122
 N423 N 0.45112 0.31131 0.11227
 C424 C 0.48265 0.30924 0.08015
 N425 N 0.52169 0.32782 0.08862
 N426 N 0.52873 0.34653 0.12803
 C427 C 0.50364 0.36441 0.20539
 N428 N 0.53882 0.38798 0.21673
 N429 N 0.54276 0.40330 0.25791
 C430 C 0.51197 0.39527 0.28925
 N431 N 0.47718 0.37150 0.27779
 N432 N 0.47311 0.35651 0.23681
 C433 C 0.51464 0.41320 0.33457
 N434 N 0.48503 0.40207 0.36572
 N435 N 0.48520 0.42020 0.40596
 C436 C 0.51484 0.45043 0.41669
 N437 N 0.54498 0.46085 0.38573
 N438 N 0.54497 0.44263 0.34553
 C439 C 0.49461 0.34877 0.84979
 N440 N 0.52654 0.34855 0.88072
 N441 N 0.52089 0.32805 0.91851
 C442 C 0.48316 0.30692 0.92646
 N443 N 0.45152 0.30813 0.89560
 N444 N 0.45699 0.32847 0.85837
 C445 C 0.49933 0.36876 0.80656
 N446 N 0.46595 0.36554 0.77775
 N447 N 0.46883 0.38193 0.73804
 C448 C 0.50532 0.40234 0.72526
 N449 N 0.53890 0.40582 0.75402
 N450 N 0.53604 0.38926 0.79395
 C451 C 0.50764 0.42025 0.68093
 N452 N 0.54269 0.44270 0.66768
 N453 N 0.54385 0.45934 0.62786
 C454 C 0.51040 0.45398 0.59943
 N455 N 0.47531 0.43165 0.61287
 N456 N 0.47402 0.41501 0.65268
 C457 C 0.66142 0.84226 0.50379
 N458 N 0.65663 0.87340 0.53635
 N459 N 0.67595 0.91146 0.53283
 C460 C 0.70095 0.91934 0.49685
 N461 N 0.70558 0.88796 0.46464
 N462 N 0.68611 0.85030 0.46794
 C463 C 0.64106 0.80016 0.50632
 N464 N 0.64099 0.77364 0.47001
 N465 N 0.62430 0.73439 0.47148
 C466 C 0.60738 0.72005 0.50942
 N467 N 0.60725 0.74654 0.54591
 N468 N 0.62378 0.78610 0.54437
 C469 C 0.59014 0.67641 0.51024
 N470 N 0.57868 0.65819 0.54841
 N471 N 0.56360 0.61803 0.54828
 C472 C 0.55985 0.59451 0.51025
 N473 N 0.57061 0.61334 0.47225
 N474 N 0.58588 0.65328 0.47220
 C475 C 0.62168 0.14459 0.51497
 N476 N 0.62080 0.12171 0.47638
 N477 N 0.64349 0.08383 0.47093
 C478 C 0.66754 0.06717 0.50399
 N479 N 0.66663 0.08884 0.54341
 N480 N 0.64404 0.12700 0.54882
 C481 C 0.60661 0.19060 0.51651
 N482 N 0.61296 0.21645 0.55252
 N483 N 0.60565 0.25961 0.55117
 C484 C 0.59251 0.27835 0.51355
 N485 N 0.58555 0.25244 0.47784
 N486 N 0.59263 0.20937 0.47926
 C487 C 0.58522 0.32566 0.51137
 N488 N 0.57586 0.34413 0.47263
 N489 N 0.56539 0.38668 0.47101
 C490 C 0.56424 0.41240 0.50796
 N491 N 0.57464 0.39392 0.54649
 N492 N 0.58534 0.35143 0.54818
 C493 C 0.36368 0.85988 0.50822
 N494 N 0.36591 0.88034 0.46958
 N495 N 0.34510 0.91894 0.46453
 C496 C 0.32135 0.93917 0.49794
 N497 N 0.32021 0.91948 0.53724
 N498 N 0.34115 0.88061 0.54234
 C499 C 0.38169 0.81429 0.51067
 N500 N 0.38177 0.79241 0.54876
 N501 N 0.39594 0.75046 0.54940
 C502 C 0.41001 0.72865 0.51191
 N503 N 0.40992 0.75060 0.47400
 N504 N 0.39611 0.79247 0.47342
 C505 C 0.42543 0.68210 0.51181
 N506 N 0.43320 0.65949 0.47332
 N507 N 0.44876 0.61808 0.47272
 C508 C 0.45715 0.59734 0.51053
 N509 N 0.44931 0.62002 0.54904
 N510 N 0.43345 0.66140 0.54973
 C511 C 0.33346 0.17509 0.50333
 N512 N 0.34601 0.14064 0.52825
 N513 N 0.32652 0.10235 0.52408
 C514 C 0.29387 0.09708 0.49468
 N515 N 0.28138 0.13173 0.47026
 N516 N 0.30058 0.16978 0.47451
 C517 C 0.35511 0.21756 0.50595
 N518 N 0.33991 0.25128 0.48157
 N519 N 0.35945 0.28943 0.48235
 C520 C 0.39521 0.29552 0.50747
 N521 N 0.41047 0.26184 0.53199
 N522 N 0.39082 0.22362 0.53128
 C523 C 0.41731 0.33774 0.50764
 N524 N 0.45440 0.34309 0.53095
 N525 N 0.47455 0.38088 0.53080
 C526 C 0.45866 0.41505 0.50746
 N527 N 0.42147 0.40971 0.48415
 N528 N 0.40126 0.37184 0.48420
   
