data_POSCAR
  _audit_creation_date              2014-09-24
  _audit_creation_method            'ToBaCCo'
  _symmetry_space_group_name_H-M    'P1'
  _symmetry_Int_Tables_number       1
  _symmetry_cell_setting            triclinic
  loop_
  _symmetry_equiv_pos_as_xyz
 x,y,z
_cell_length_a 41.5589
_cell_length_b 42.7470
_cell_length_c 42.0772
_cell_angle_alpha 90.145200
_cell_angle_beta 90.577100
_cell_angle_gamma 89.829700
loop_
  _atom_site_label
  _atom_site_type_symbol
  _atom_site_fract_x
  _atom_site_fract_y
  _atom_site_fract_z
C1 C 0.18294 0.13937 0.17978
 C2 C 0.16997 0.12490 0.20656
 C3 C 0.14399 0.13834 0.22284
 C4 C 0.13016 0.16621 0.21096
 C5 C 0.14239 0.18042 0.18353
 C6 C 0.16940 0.16739 0.16829
 C7 C 0.20906 0.12585 0.16417
 C8 C 0.22282 0.14023 0.13758
 C9 C 0.20938 0.16858 0.12626
 C10 C 0.18234 0.18192 0.14114
 C11 C 0.16733 0.20893 0.12881
 C12 C 0.13941 0.22112 0.14309
 C13 C 0.12744 0.20696 0.17058
 H14 H 0.18061 0.10323 0.21511
 H15 H 0.10924 0.17643 0.22207
 H16 H 0.21903 0.10405 0.17313
 H17 H 0.21884 0.17972 0.10528
 H18 H 0.17650 0.21953 0.10738
 H19 H 0.10608 0.21647 0.18169
 C20 C -0.18283 0.84985 0.18729
 C21 C -0.17311 0.85961 0.21787
 C22 C -0.14723 0.84461 0.23379
 C23 C -0.13157 0.81955 0.21872
 C24 C -0.14032 0.81027 0.18795
 C25 C -0.16611 0.82530 0.17217
 C26 C -0.20887 0.86435 0.17151
 C27 C -0.21805 0.85495 0.14047
 C28 C -0.20051 0.83097 0.12549
 C29 C -0.17502 0.81585 0.14119
 C30 C -0.15821 0.79143 0.12632
 C31 C -0.13236 0.77662 0.14200
 C32 C -0.12338 0.78632 0.17262
 H33 H -0.18634 0.87829 0.22927
 H34 H -0.11171 0.80772 0.23064
 H35 H -0.22112 0.88338 0.18333
 H36 H -0.20710 0.82357 0.10161
 H37 H -0.16485 0.78436 0.10240
 H38 H -0.10334 0.77492 0.18462
 C39 C -0.17078 0.12801 -0.17299
 C40 C -0.15562 0.11189 -0.19768
 C41 C -0.12974 0.12527 -0.21367
 C42 C -0.11822 0.15475 -0.20415
 C43 C -0.13264 0.17078 -0.17874
 C44 C -0.15954 0.15768 -0.16352
 C45 C -0.19676 0.11453 -0.15740
 C46 C -0.21266 0.13042 -0.13285
 C47 C -0.20157 0.16038 -0.12354
 C48 C -0.17466 0.17383 -0.13838
 C49 C -0.16184 0.20257 -0.12784
 C50 C -0.13400 0.21494 -0.14195
 C51 C -0.11998 0.19915 -0.16766
 H52 H -0.16424 0.08897 -0.20485
 H53 H -0.09756 0.16475 -0.21588
 H54 H -0.20492 0.09151 -0.16480
 H55 H -0.21278 0.17279 -0.10411
 H56 H -0.17259 0.21441 -0.10777
 H57 H -0.09868 0.20872 -0.17866
 C58 C 0.17364 0.85750 -0.17562
 C59 C 0.16111 0.87051 -0.20388
 C60 C 0.13216 0.85906 -0.21743
 C61 C 0.11631 0.83422 -0.20241
 C62 C 0.12896 0.82053 -0.17484
 C63 C 0.15765 0.83217 -0.16127
 C64 C 0.20136 0.86994 -0.16093
 C65 C 0.21296 0.85750 -0.13200
 C66 C 0.19728 0.83185 -0.11840
 C67 C 0.16993 0.81888 -0.13295
 C68 C 0.15421 0.79328 -0.11924
 C69 C 0.12580 0.78146 -0.13304
 C70 C 0.11305 0.79552 -0.16045
 H71 H 0.17343 0.89016 -0.21432
 H72 H 0.09402 0.82518 -0.21244
 H73 H 0.21303 0.89002 -0.17135
 H74 H 0.20628 0.82217 -0.09621
 H75 H 0.16357 0.78309 -0.09746
 H76 H 0.09088 0.78662 -0.17082
 C77 C 0.14211 1.18625 0.81121
 C78 C 0.13406 1.17506 0.78080
 C79 C 0.15225 1.15095 0.76650
 C80 C 0.17895 1.13863 0.78310
 C81 C 0.18677 1.14909 0.81379
 C82 C 0.16842 1.17312 0.82784
 C83 C 0.12434 1.21054 0.82517
 C84 C 0.13305 1.22259 0.85518
 C85 C 0.15881 1.20856 0.87202
 C86 C 0.17628 1.18387 0.85863
 C87 C 0.20150 1.16972 0.87566
 C88 C 0.21964 1.14564 0.86195
 C89 C 0.21236 1.13554 0.83088
 H90 H 0.11415 1.18597 0.76831
 H91 H 0.19323 1.12014 0.77246
 H92 H 0.10423 1.22074 0.81217
 H93 H 0.16502 1.21602 0.89589
 H94 H 0.20727 1.17759 0.89957
 H95 H 0.22589 1.11653 0.82033
 C96 C 0.86312 0.81781 0.81174
 C97 C 0.87329 0.83304 0.78406
 C98 C 0.85794 0.86074 0.77353
 C99 C 0.83225 0.87288 0.79133
 C100 C 0.82138 0.85752 0.81859
 C101 C 0.83687 0.82990 0.82888
 C102 C 0.87908 0.79087 0.82277
 C103 C 0.86861 0.77509 0.85011
 C104 C 0.84211 0.78733 0.86690
 C105 C 0.82648 0.81469 0.85664
 C106 C 0.80086 0.82735 0.87402
 C107 C 0.78507 0.85459 0.86370
 C108 C 0.79546 0.86960 0.83594
 H109 H 0.89386 0.82366 0.77165
 H110 H 0.82032 0.89424 0.78372
 H111 H 0.89949 0.78187 0.80967
 H112 H 0.83415 0.77657 0.88868
 H113 H 0.79299 0.81588 0.89555
 H114 H 0.78394 0.89110 0.82824
 C115 C 0.13591 0.81722 1.17306
 C116 C 0.12278 0.82922 1.20116
 C117 C 0.13511 0.85657 1.21519
 C118 C 0.16144 0.87174 1.20117
 C119 C 0.17453 0.86035 1.17269
 C120 C 0.16137 0.83324 1.15838
 C121 C 0.12338 0.78992 1.15897
 C122 C 0.13537 0.77884 1.12971
 C123 C 0.15988 0.79581 1.11476
 C124 C 0.17312 0.82258 1.12897
 C125 C 0.19770 0.83907 1.11392
 C126 C 0.21136 0.86563 1.12816
 C127 C 0.19984 0.87615 1.15768
 H128 H 0.10258 0.81748 1.21201
 H129 H 0.17080 0.89312 1.21153
 H130 H 0.10364 0.77823 1.17050
 H131 H 0.16912 0.78787 1.09209
 H132 H 0.20650 0.83108 1.09110
 H133 H 0.20979 0.89713 1.16838
 C134 C 0.85985 1.18159 1.18420
 C135 C 0.87464 1.16474 1.20892
 C136 C 0.85848 1.13977 1.22369
 C137 C 0.82746 1.13171 1.21290
 C138 C 0.81210 1.14891 1.18883
 C139 C 0.82828 1.17399 1.17442
 C140 C 0.87624 1.20579 1.16891
 C141 C 0.86127 1.22294 1.14451
 C142 C 0.82957 1.21562 1.13520
 C143 C 0.81299 1.19126 1.15001
 C144 C 0.78157 1.18353 1.14044
 C145 C 0.76552 1.15835 1.15447
 C146 C 0.78081 1.14133 1.17890
 H147 H 0.89906 1.17068 1.21570
 H148 H 0.81485 1.11238 1.22382
 H149 H 0.90068 1.21146 1.17609
 H150 H 0.81806 1.22820 1.11586
 H151 H 0.76982 1.19665 1.12157
 H152 H 0.76832 1.12239 1.19050
 O153 O 0.45506 0.94359 0.94258
 O154 O 0.42034 0.97420 0.97129
 C155 C 0.42639 0.95270 0.95033
 O156 O 0.54396 0.94543 1.06068
 O157 O 0.58070 0.96996 1.02896
 C158 C 0.57322 0.95172 1.05235
 O159 O 0.45401 0.94533 1.05572
 O160 O 0.41981 0.97540 1.02531
 C161 C 0.42548 0.95444 1.04695
 O162 O 0.54468 0.94383 0.94038
 O163 O 0.58104 0.96926 0.97254
 C164 C 0.57381 0.95033 0.94942
 Zr165 Zr 0.50050 0.95853 0.95992
 O166 O 0.50250 0.90920 0.96446
 O167 O 0.49783 0.95371 0.90998
 Zr168 Zr 0.49978 0.95981 1.03977
 O169 O 0.50172 0.91033 1.03736
 O170 O 0.49608 0.95762 1.08979
 O171 O 0.47089 0.95421 0.99939
 O172 O 0.52828 0.95241 1.00040
 O173 O 0.54912 1.05207 0.94260
 O174 O 0.58337 1.02214 0.97311
 C175 C 0.57766 1.04336 0.95175
 O176 O 0.45875 1.06051 1.05103
 O177 O 0.42222 1.03020 1.02380
 C178 C 0.42957 1.05311 1.04276
 O179 O 0.54903 1.05222 1.05691
 O180 O 0.58322 1.02115 1.02796
 C181 C 0.57753 1.04199 1.04952
 O182 O 0.45909 1.05607 0.94200
 O183 O 0.42220 1.02839 0.97084
 C184 C 0.42986 1.04914 0.94981
 Zr185 Zr 0.50343 1.03762 0.95872
 O186 O 0.50807 1.08694 0.95801
 O187 O 0.50105 1.03638 0.90843
 Zr188 Zr 0.50293 1.03882 1.03895
 O189 O 0.50876 1.08792 1.04097
 O190 O 0.49833 1.03783 1.08905
 Zr191 Zr 0.45356 1.00065 0.99845
 Zr192 Zr 0.54964 0.99696 1.00004
 O193 O 0.53125 1.04291 0.99932
 O194 O 0.47475 1.04546 0.99818
 O195 O 0.53062 0.99700 0.95341
 O196 O 0.47329 1.00065 1.04473
 O197 O 0.47417 0.99907 0.95294
 O198 O 0.52989 0.99834 1.04606
 H199 H 0.54267 0.93388 1.00084
 H200 H 0.45859 1.00199 1.06308
 H201 H 0.54621 1.06091 0.99970
 H202 H 0.46012 0.99939 0.93379
 H203 H 0.50789 0.97583 1.09843
 H204 H 0.51817 1.02832 1.09799
 H205 H 0.49650 1.09676 1.02286
 H206 H 0.48955 1.09593 0.96950
 H207 H 0.52033 1.02507 0.90085
 H208 H 0.50485 0.97388 0.90104
 H209 H 0.48129 0.90209 0.97204
 H210 H 0.48104 0.90298 1.02821
 O211 O -0.06425 0.45425 0.05066
 O212 O -0.03149 0.41931 0.02490
 C213 C -0.05527 0.42608 0.04345
 O214 O -0.05742 0.54048 -0.06114
 O215 O -0.02856 0.57531 -0.03070
 C216 C -0.04926 0.56866 -0.05296
 O217 O -0.06112 0.45328 -0.05664
 O218 O -0.02992 0.41880 -0.02809
 C219 C -0.05275 0.42516 -0.04836
 O220 O -0.06196 0.54177 0.05273
 O221 O -0.03116 0.57593 0.02411
 C222 C -0.05330 0.56975 0.04462
 Zr223 Zr -0.04466 0.49772 0.03703
 O224 O -0.09550 0.50110 0.03610
 O225 O -0.04473 0.49466 0.08728
 Zr226 Zr -0.04091 0.49687 -0.04337
 O227 O -0.09117 0.49967 -0.05092
 O228 O -0.03449 0.49257 -0.09308
 O229 O -0.04915 0.46960 -0.00325
 O230 O -0.04888 0.52428 -0.00371
 O231 O 0.04987 0.54171 0.06058
 O232 O 0.02305 0.57586 0.02764
 C233 C 0.04211 0.56972 0.05141
 O234 O 0.06003 0.45307 -0.05126
 O235 O 0.02676 0.41878 -0.02562
 C236 C 0.05076 0.42505 -0.04395
 O237 O 0.05691 0.54068 -0.05549
 O238 O 0.02577 0.57532 -0.02747
 C239 C 0.04807 0.56883 -0.04779
 O240 O 0.05556 0.45433 0.05643
 O241 O 0.02544 0.41933 0.02744
 C242 C 0.04783 0.42610 0.04804
 Zr243 Zr 0.03616 0.49775 0.04136
 O244 O 0.08678 0.50217 0.04508
 O245 O 0.03291 0.49378 0.09137
 Zr246 Zr 0.03979 0.49697 -0.03900
 O247 O 0.09060 0.50035 -0.03873
 O248 O 0.03947 0.49281 -0.08918
 Zr249 Zr -0.00234 0.45046 -0.00058
 Zr250 Zr -0.00257 0.54410 -0.00132
 O251 O 0.04389 0.52448 0.00138
 O252 O 0.04440 0.46961 0.00172
 O253 O -0.00466 0.52588 0.04516
 O254 O -0.00029 0.46926 -0.04671
 O255 O -0.00438 0.47029 0.04517
 O256 O -0.00040 0.52509 -0.04758
 H257 H -0.06815 0.53794 -0.00484
 H258 H 0.00037 0.45448 -0.06490
 H259 H 0.06282 0.53848 0.00257
 H260 H -0.00495 0.45607 0.06372
 H261 H -0.02697 0.51301 -0.10107
 H262 H 0.02983 0.51217 -0.09798
 H263 H 0.09879 0.48617 -0.02196
 H264 H 0.09642 0.48605 0.03120
 H265 H 0.01960 0.51142 0.09902
 H266 H -0.03572 0.51437 0.09588
 H267 H -0.10367 0.48473 0.02148
 H268 H -0.10129 0.49327 -0.03083
 O269 O 0.94909 0.05738 0.45398
 O270 O 0.97951 0.02887 0.41897
 C271 C 0.95864 0.05047 0.42553
 O272 O 1.05693 0.05416 0.54917
 O273 O 1.02557 0.02293 0.58043
 C274 C 1.04681 0.04459 0.57658
 O275 O 1.05734 0.06162 0.45990
 O276 O 1.03248 0.03117 0.42202
 C277 C 1.05091 0.05415 0.43058
 O278 O 0.94134 0.04950 0.54253
 O279 O 0.97108 0.01982 0.57751
 C280 C 0.94896 0.04035 0.57102
 Zr281 Zr 0.96093 0.03624 0.49810
 O282 O 0.95423 0.08498 0.50367
 O283 O 0.91064 0.03108 0.49130
 Zr284 Zr 1.04231 0.04017 0.50274
 O285 O 1.04100 0.08931 0.50904
 O286 O 1.09325 0.04127 0.50183
 O287 O 1.00258 0.04583 0.47273
 O288 O 1.00006 0.04259 0.52799
 O289 O 0.94656 -0.06092 0.53678
 O290 O 0.97359 -0.03233 0.57483
 C291 C 0.95309 -0.05362 0.56613
 O292 O 1.06561 -0.05225 0.45390
 O293 O 1.03530 -0.02310 0.41891
 C294 C 1.05760 -0.04350 0.42537
 O295 O 1.06571 -0.05261 0.54302
 O296 O 1.03029 -0.02962 0.57749
 C297 C 1.05523 -0.04685 0.57138
 O298 O 0.95201 -0.05786 0.44767
 O299 O 0.98119 -0.02469 0.41633
 C300 C 0.96070 -0.04708 0.42020
 Zr301 Zr 0.96540 -0.04256 0.49400
 O302 O 0.96893 -0.09197 0.49444
 O303 O 0.91481 -0.04509 0.48829
 Zr304 Zr 1.04641 -0.03877 0.49845
 O305 O 1.04577 -0.08831 0.49964
 O306 O 1.09725 -0.03976 0.49777
 Zr307 Zr 1.00594 0.00129 0.45126
 Zr308 Zr 1.00157 -0.00352 0.54554
 O309 O 1.00509 -0.04772 0.52369
 O310 O 1.00750 -0.04531 0.46748
 O311 O 0.95553 -0.00486 0.52406
 O312 O 1.05154 0.00246 0.47341
 O313 O 0.95856 -0.00186 0.46817
 O314 O 1.04931 -0.00038 0.52919
 H315 H 0.99845 0.06057 0.54280
 H316 H 1.07095 0.00429 0.46007
 H317 H 1.00578 -0.06651 0.53742
 H318 H 0.94040 -0.00151 0.45274
 H319 H 1.10131 0.03120 0.52152
 H320 H 1.10465 -0.02058 0.50872
 H321 H 1.03841 -0.09577 0.47851
 H322 H 0.98235 -0.09828 0.47621
 H323 H 0.90516 -0.03243 0.50545
 H324 H 0.90185 0.02174 0.51086
 H325 H 0.97309 0.09521 0.49415
 H326 H 1.02689 0.09805 0.49220
 C327 C 1.13241 0.12273 0.24976
 C328 C 1.11134 0.13552 0.27201
 C329 C 1.09992 0.11665 0.29879
 N330 N 1.09022 0.13067 0.32605
 N331 N 1.07995 0.11358 0.35038
 C332 C 1.07874 0.08189 0.34814
 N333 N 1.08806 0.06794 0.32076
 N334 N 1.09865 0.08498 0.29660
 C335 C 1.06646 0.06265 0.37417
 C336 C 1.06516 0.07331 0.40545
 H337 H 1.10465 0.15996 0.27132
 H338 H 1.05891 0.03901 0.36856
 H339 H 1.14161 0.09941 0.25451
 H340 H 1.07510 0.09593 0.41167
 C341 C 0.86394 -0.14642 0.26412
 C342 C 0.85712 -0.11791 0.27889
 C343 C 0.87334 -0.10937 0.30886
 N344 N 0.88136 -0.07914 0.31460
 N345 N 0.89777 -0.07140 0.34079
 C346 C 0.90645 -0.09355 0.36236
 N347 N 0.89780 -0.12368 0.35699
 N348 N 0.88177 -0.13149 0.33056
 C349 C 0.92481 -0.08507 0.39113
 C350 C 0.94510 -0.05924 0.39129
 H351 H 0.84347 -0.09993 0.26672
 H352 H 0.92282 -0.09957 0.41209
 H353 H 0.88134 -0.16154 0.27589
 H354 H 0.94882 -0.04654 0.36937
 C355 C 0.88537 0.10727 0.76053
 C356 C 0.89499 0.12100 0.73222
 C357 C 0.90638 0.10189 0.70546
 N358 N 0.90619 0.11378 0.67561
 N359 N 0.91588 0.09642 0.65113
 C360 C 0.92625 0.06657 0.65567
 N361 N 0.92676 0.05480 0.68556
 N362 N 0.91682 0.07206 0.70999
 C363 C 0.93818 0.04756 0.62909
 C364 C 0.93249 0.05585 0.59752
 H365 H 0.89176 0.14592 0.72875
 H366 H 0.95235 0.02692 0.63458
 H367 H 0.88552 0.08199 0.76244
 H368 H 0.91686 0.07550 0.59212
 C369 C 1.11760 -0.12817 0.75518
 C370 C 1.13190 -0.10709 0.73433
 C371 C 1.11361 -0.09479 0.70691
 N372 N 1.12909 -0.08515 0.68045
 N373 N 1.11249 -0.07457 0.65539
 C374 C 1.07984 -0.07296 0.65603
 N375 N 1.06442 -0.08214 0.68266
 N376 N 1.08098 -0.09303 0.70755
 C377 C 1.06114 -0.06092 0.62886
 C378 C 1.07350 -0.06021 0.59823
 H379 H 1.15706 -0.10105 0.73650
 H380 H 1.03661 -0.05336 0.63295
 H381 H 1.09358 -0.13614 0.74899
 H382 H 1.09712 -0.06996 0.59373
 C383 C 0.24884 1.12482 1.12312
 C384 C 0.26937 1.13766 1.10058
 C385 C 0.29570 1.11860 1.08745
 N386 N 0.32384 1.13207 1.07888
 N387 N 0.34809 1.11459 1.06816
 C388 C 0.34491 1.08306 1.06531
 N389 N 0.31658 1.06971 1.07331
 N390 N 0.29252 1.08711 1.08439
 C391 C 0.37127 1.06336 1.05344
 C392 C 0.40335 1.07263 1.05530
 H393 H 0.26818 1.16220 1.09451
 H394 H 0.36535 1.04034 1.04433
 H395 H 0.25450 1.10133 1.13118
 H396 H 0.40948 1.09461 1.06669
 C397 C 0.24005 0.87189 0.88575
 C398 C 0.26559 0.88706 0.87118
 C399 C 0.29200 0.90105 0.88991
 N400 N 0.32065 0.90701 0.87604
 N401 N 0.34479 0.91949 0.89282
 C402 C 0.34108 0.92676 0.92403
 N403 N 0.31229 0.92118 0.93780
 N404 N 0.28825 0.90841 0.92110
 C405 C 0.36756 0.94072 0.94270
 C406 C 0.39940 0.93814 0.93299
 H407 H 0.26719 0.88731 0.84552
 H408 H 0.36202 0.95228 0.96493
 H409 H 0.24070 0.86902 0.91133
 H410 H 0.40494 0.92450 0.91199
 C411 C 0.75623 0.86872 1.12346
 C412 C 0.73275 0.88826 1.13653
 C413 C 0.70643 0.90111 1.11680
 N414 N 0.67847 0.91023 1.13045
 N415 N 0.65432 0.92146 1.11274
 C416 C 0.65738 0.92427 1.08075
 N417 N 0.68550 0.91559 1.06717
 N418 N 0.70951 0.90405 1.08483
 C419 C 0.63111 0.93702 1.06097
 C420 C 0.59936 0.93763 1.07132
 H421 H 0.73180 0.89245 1.16184
 H422 H 0.63676 0.94528 1.03736
 H423 H 0.75334 0.86248 1.09859
 H424 H 0.59338 0.92715 1.09392
 C425 C 0.76158 1.11491 0.88165
 C426 C 0.73899 1.12844 0.90184
 C427 C 0.71268 1.10916 0.91432
 N428 N 0.68298 1.12162 0.91859
 N429 N 0.65873 1.10370 0.92815
 C430 C 0.66339 1.07275 0.93407
 N431 N 0.69324 1.06047 0.93046
 N432 N 0.71737 1.07828 0.92052
 C433 C 0.63684 1.05277 0.94469
 C434 C 0.60488 1.06041 0.93810
 H435 H 0.73838 1.15342 0.90592
 H436 H 0.64261 1.03145 0.95744
 H437 H 0.75777 1.09055 0.87535
 H438 H 0.59953 1.08061 0.92343
 C439 C 0.12066 0.24707 0.12874
 C440 C 0.13434 0.27165 0.11192
 C441 C 0.11432 0.29697 0.09841
 N442 N 0.12755 0.32516 0.09180
 N443 N 0.10953 0.34827 0.07989
 C444 C 0.07766 0.34395 0.07385
 N445 N 0.06453 0.31563 0.08006
 N446 N 0.08246 0.29263 0.09229
 C447 C 0.05755 0.36919 0.06036
 C448 C 0.06662 0.40050 0.06256
 H449 H 0.16025 0.27331 0.11013
 H450 H 0.03473 0.36308 0.04937
 H451 H 0.09501 0.24769 0.13314
 H452 H 0.08833 0.40661 0.07558
 C453 C -0.11711 0.24270 -0.12889
 C454 C -0.13229 0.26733 -0.11314
 C455 C -0.11363 0.29368 -0.09979
 N456 N -0.12823 0.32143 -0.09349
 N457 N -0.11146 0.34531 -0.08142
 C458 C -0.07950 0.34221 -0.07490
 N459 N -0.06500 0.31437 -0.08087
 N460 N -0.08169 0.29062 -0.09322
 C461 C -0.06067 0.36815 -0.06107
 C462 C -0.07110 0.39915 -0.06262
 H463 H -0.15827 0.26800 -0.11167
 H464 H -0.03748 0.36280 -0.05037
 H465 H -0.09145 0.24429 -0.13292
 H466 H -0.09321 0.40468 -0.07530
 C467 C 0.10830 0.75517 -0.11872
 C468 C 0.12401 0.72931 -0.10569
 C469 C 0.10596 0.70240 -0.09359
 N470 N 0.12067 0.67422 -0.09014
 N471 N 0.10436 0.64960 -0.07957
 C472 C 0.07281 0.65239 -0.07187
 N473 N 0.05823 0.68065 -0.07500
 N474 N 0.07444 0.70517 -0.08583
 C475 C 0.05462 0.62576 -0.05944
 C476 C 0.06529 0.59497 -0.06247
 H477 H 0.15001 0.72785 -0.10628
 H478 H 0.03194 0.63061 -0.04793
 H479 H 0.08232 0.75484 -0.12117
 H480 H 0.08690 0.58989 -0.07572
 C481 C -0.11392 0.75135 0.12669
 C482 C -0.12872 0.72838 0.10822
 C483 C -0.11040 0.70205 0.09505
 N484 N -0.12575 0.67524 0.08681
 N485 N -0.10930 0.65099 0.07538
 C486 C -0.07696 0.65280 0.07150
 N487 N -0.06166 0.67975 0.07937
 N488 N -0.07806 0.70390 0.09112
 C489 C -0.05868 0.62639 0.05849
 C490 C -0.07060 0.59600 0.05912
 H491 H -0.15463 0.72846 0.10525
 H492 H -0.03493 0.63083 0.04914
 H493 H -0.08857 0.74912 0.13258
 H494 H -0.09307 0.59119 0.07096
 C495 C 1.14474 0.13852 0.73635
 C496 C 1.11549 0.14316 0.72039
 C497 C 1.10818 0.12725 0.69027
 N498 N 1.07717 0.12092 0.68245
 N499 N 1.07006 0.10556 0.65577
 C500 C 1.09367 0.09629 0.63573
 N501 N 1.12469 0.10316 0.64319
 N502 N 1.13185 0.11820 0.67013
 C503 C 1.08567 0.07887 0.60663
 C504 C 1.05841 0.06012 0.60553
 H505 H 1.09591 0.15561 0.73148
 H506 H 1.10161 0.08004 0.58647
 H507 H 1.16178 0.12245 0.72567
 H508 H 1.04459 0.05681 0.62697
 C509 C 0.86788 -0.12269 0.74646
 C510 C 0.88823 -0.13462 0.72306
 C511 C 0.89915 -0.11520 0.69643
 N512 N 0.90929 -0.12893 0.66918
 N513 N 0.92005 -0.11164 0.64523
 C514 C 0.92141 -0.07998 0.64781
 N515 N 0.91150 -0.06627 0.67515
 N516 N 0.90039 -0.08354 0.69895
 C517 C 0.93483 -0.06075 0.62223
 C518 C 0.93679 -0.07154 0.59102
 H519 H 0.89508 -0.15903 0.72289
 H520 H 0.94310 -0.03741 0.62808
 H521 H 0.85810 -0.09941 0.74272
 H522 H 0.92592 -0.09370 0.58457
 C523 C 1.11830 -0.13003 0.24298
 C524 C 1.13356 -0.11234 0.26658
 C525 C 1.11542 -0.09830 0.29298
 N526 N 1.13089 -0.08971 0.32018
 N527 N 1.11469 -0.07688 0.34413
 C528 C 1.08246 -0.07184 0.34163
 N529 N 1.06708 -0.08008 0.31429
 N530 N 1.08321 -0.09320 0.29048
 C531 C 1.06426 -0.05740 0.36775
 C532 C 1.07576 -0.05742 0.39899
 H533 H 1.15945 -0.10969 0.26642
 H534 H 1.04061 -0.04790 0.36253
 H535 H 1.09294 -0.13523 0.24547
 H536 H 1.09822 -0.06922 0.40457
 C537 C 0.87230 0.12228 0.24854
 C538 C 0.89862 0.13202 0.26689
 C539 C 0.91104 0.11263 0.29296
 N540 N 0.92418 0.12631 0.31913
 N541 N 0.93490 0.10891 0.34323
 C542 C 0.93324 0.07722 0.34181
 N543 N 0.92063 0.06352 0.31541
 N544 N 0.90950 0.08093 0.29149
 C545 C 0.94518 0.05790 0.36813
 C546 C 0.94534 0.06899 0.39924
 H547 H 0.90828 0.15535 0.26459
 H548 H 0.95265 0.03409 0.36316
 H549 H 0.86055 0.10074 0.25545
 H550 H 0.93476 0.09157 0.40456
 C551 C 0.11566 0.24807 -0.13255
 C552 C 0.12682 0.26714 -0.10780
 C553 C 0.10798 0.29369 -0.09602
 N554 N 0.12320 0.31806 -0.08178
 N555 N 0.10647 0.34233 -0.07083
 C556 C 0.07389 0.34289 -0.07340
 N557 N 0.05861 0.31830 -0.08724
 N558 N 0.07538 0.29417 -0.09854
 C559 C 0.05528 0.36931 -0.06099
 C560 C 0.06894 0.39881 -0.05729
 H561 H 0.15105 0.26468 -0.09852
 H562 H 0.03007 0.36580 -0.05576
 H563 H 0.09335 0.25475 -0.14433
 H564 H 0.09318 0.40305 -0.06546
 C565 C -0.12028 0.24764 0.12847
 C566 C -0.13482 0.27399 0.11517
 C567 C -0.11605 0.29852 0.09968
 N568 N -0.12991 0.32659 0.09335
 N569 N -0.11312 0.34923 0.07963
 C570 C -0.08192 0.34454 0.07152
 N571 N -0.06816 0.31632 0.07748
 N572 N -0.08490 0.29374 0.09142
 C573 C -0.06313 0.36955 0.05680
 C574 C -0.07368 0.40047 0.05741
 H575 H -0.16048 0.27762 0.11749
 H576 H -0.04008 0.36372 0.04650
 H577 H -0.09426 0.24587 0.12872
 H578 H -0.09583 0.40637 0.06943
 C579 C -0.11449 0.74820 -0.13981
 C580 C -0.12629 0.72655 -0.11798
 C581 C -0.10703 0.69976 -0.10684
 N582 N -0.12203 0.67378 -0.09606
 N583 N -0.10505 0.64968 -0.08486
 C584 C -0.07241 0.65082 -0.08361
 N585 N -0.05737 0.67693 -0.09409
 N586 N -0.07437 0.70090 -0.10569
 C587 C -0.05365 0.62480 -0.06995
 C588 C -0.06588 0.59450 -0.06927
 H589 H -0.15098 0.72769 -0.11023
 H590 H -0.02974 0.62947 -0.06064
 H591 H -0.09151 0.74304 -0.15066
 H592 H -0.08845 0.58944 -0.08131
 C593 C 0.12333 0.75199 0.11426
 C594 C 0.10357 0.72951 0.12816
 C595 C 0.09147 0.70260 0.10974
 N596 N 0.08236 0.67608 0.12482
 N597 N 0.07139 0.65162 0.10831
 C598 C 0.06882 0.65291 0.07612
 N599 N 0.07755 0.67955 0.06108
 N600 N 0.08884 0.70388 0.07756
 C601 C 0.05614 0.62638 0.05758
 C602 C 0.05574 0.59605 0.06960
 H603 H 0.09842 0.73017 0.15329
 H604 H 0.04789 0.63070 0.03348
 H605 H 0.13104 0.74758 0.09010
 H606 H 0.06637 0.59129 0.09271
 C607 C 0.24535 1.13080 0.88105
 C608 C 0.27332 1.11897 0.86759
 C609 C 0.29881 1.10467 0.88706
 N610 N 0.32850 1.10040 0.87472
 N611 N 0.35191 1.08750 0.89213
 C612 C 0.34640 1.07822 0.92243
 N613 N 0.31661 1.08219 0.93468
 N614 N 0.29325 1.09531 0.91734
 C615 C 0.37198 1.06358 0.94157
 C616 C 0.40404 1.06545 0.93262
 H617 H 0.27741 1.12160 0.84236
 H618 H 0.36549 1.05145 0.96315
 H619 H 0.24306 1.13097 0.90668
 H620 H 0.41055 1.07930 0.91215
 C621 C 0.23666 0.88251 1.11081
 C622 C 0.26335 0.89580 1.12584
 C623 C 0.28985 0.90936 1.10745
 N624 N 0.31946 0.91249 1.12092
 N625 N 0.34386 0.92384 1.10422
 C626 C 0.33950 0.93271 1.07348
 N627 N 0.30977 0.93001 1.06015
 N628 N 0.28545 0.91838 1.07676
 C629 C 0.36627 0.94535 1.05481
 C630 C 0.39823 0.94070 1.06399
 H631 H 0.26615 0.89391 1.15138
 H632 H 0.36072 0.95783 1.03304
 H633 H 0.23588 0.88165 1.08507
 H634 H 0.40363 0.92647 1.08465
 C635 C 0.73297 1.14999 1.14293
 C636 C 0.72228 1.11915 1.14266
 C637 C 0.69136 1.10987 1.12854
 N638 N 0.68611 1.07930 1.12183
 N639 N 0.65873 1.07028 1.10807
 C640 C 0.63543 1.09147 1.10072
 N641 N 0.64039 1.12204 1.10796
 N642 N 0.66797 1.13112 1.12154
 C643 C 0.60584 1.08146 1.08428
 C644 C 0.60573 1.05386 1.06671
 H645 H 0.73812 1.10061 1.15076
 H646 H 0.58480 1.09647 1.08455
 H647 H 0.71832 1.16796 1.13180
 H648 H 0.62787 1.04059 1.06447
 C649 C 0.75860 0.86757 0.88296
 C650 C 0.73224 0.88299 0.86943
 C651 C 0.70609 0.89602 0.88876
 N652 N 0.67757 0.90361 0.87479
 N653 N 0.65376 0.91575 0.89187
 C654 C 0.65768 0.92103 0.92352
 N655 N 0.68631 0.91370 0.93745
 N656 N 0.71004 0.90129 0.92041
 C657 C 0.63173 0.93499 0.94247
 C658 C 0.59998 0.93551 0.93152
 H659 H 0.72995 0.88447 0.84382
 H660 H 0.63760 0.94436 0.96575
 H661 H 0.75899 0.86329 0.90834
 H662 H 0.59388 0.92416 0.90921
   
