data_POSCAR
  _audit_creation_date              2014-09-24
  _audit_creation_method            'ToBaCCo'
  _symmetry_space_group_name_H-M    'P1'
  _symmetry_Int_Tables_number       1
  _symmetry_cell_setting            triclinic
  loop_
  _symmetry_equiv_pos_as_xyz
 x,y,z
_cell_length_a 49.5148
_cell_length_b 49.7493
_cell_length_c 49.5912
_cell_angle_alpha 89.995300
_cell_angle_beta 89.957300
_cell_angle_gamma 89.974500
loop_
  _atom_site_label
  _atom_site_type_symbol
  _atom_site_fract_x
  _atom_site_fract_y
  _atom_site_fract_z
N1 N 0.15067 0.16942 0.22596
 N2 N 0.16960 0.15083 0.22565
 C3 C 0.16563 0.13390 0.24652
 C4 C 0.14310 0.14251 0.26042
 C5 C 0.13403 0.16501 0.24699
 H6 H 0.17809 0.11668 0.25127
 H7 H 0.11669 0.17722 0.25212
 Cu8 Cu 0.19748 0.15070 0.19790
 Cu9 Cu 0.14898 0.19798 0.19910
 Cu10 Cu 0.19858 0.19795 0.14957
 N11 N 0.22526 0.15079 0.17005
 N12 N 0.22556 0.16938 0.15116
 C13 C 0.24662 0.16494 0.13453
 C14 C 0.26010 0.14242 0.14356
 C15 C 0.24617 0.13384 0.16607
 H16 H 0.25174 0.17714 0.11721
 H17 H 0.25092 0.11663 0.17852
 N18 N 0.16960 0.22516 0.15133
 N19 N 0.15073 0.22516 0.17019
 C20 C 0.13399 0.24612 0.16598
 C21 C 0.14282 0.25980 0.14350
 C22 C 0.16534 0.24614 0.13464
 H23 H 0.11667 0.25113 0.17829
 H24 H 0.17765 0.25117 0.11734
 H25 H 0.16792 0.17698 0.16862
 H26 H 0.18969 0.19858 0.19036
 N27 N -0.15122 0.83041 0.22533
 N28 N -0.17008 0.84906 0.22501
 C29 C -0.16616 0.86589 0.24595
 C30 C -0.14368 0.85723 0.25986
 C31 C -0.13464 0.83476 0.24638
 H32 H -0.17861 0.88309 0.25078
 H33 H -0.11733 0.82253 0.25151
 Cu34 Cu -0.19783 0.84909 0.19723
 Cu35 Cu -0.14946 0.80186 0.19849
 Cu36 Cu -0.19904 0.80189 0.14900
 N37 N -0.22568 0.84911 0.16953
 N38 N -0.22600 0.83046 0.15069
 C39 C -0.24710 0.83483 0.13413
 C40 C -0.26059 0.85733 0.14319
 C41 C -0.24665 0.86597 0.16563
 H42 H -0.25223 0.82260 0.11685
 H43 H -0.25145 0.88317 0.17809
 N44 N -0.17005 0.77472 0.15073
 N45 N -0.15118 0.77473 0.16957
 C46 C -0.13444 0.75377 0.16536
 C47 C -0.14328 0.74011 0.14291
 C48 C -0.16579 0.75375 0.13405
 H49 H -0.11714 0.74876 0.17767
 H50 H -0.17809 0.74871 0.11677
 H51 H -0.16836 0.82277 0.16797
 H52 H -0.19018 0.80129 0.18978
 N53 N -0.15104 0.16981 -0.22536
 N54 N -0.16991 0.15118 -0.22504
 C55 C -0.16597 0.13436 -0.24600
 C56 C -0.14349 0.14302 -0.25994
 C57 C -0.13446 0.16547 -0.24645
 H58 H -0.17842 0.11717 -0.25083
 H59 H -0.11715 0.17770 -0.25158
 Cu60 Cu -0.19768 0.15112 -0.19722
 Cu61 Cu -0.14932 0.19835 -0.19848
 Cu62 Cu -0.19891 0.19827 -0.14894
 N63 N -0.22553 0.15107 -0.16947
 N64 N -0.22586 0.16969 -0.15060
 C65 C -0.24697 0.16529 -0.13402
 C66 C -0.26044 0.14280 -0.14308
 C67 C -0.24649 0.13420 -0.16556
 H68 H -0.25210 0.17750 -0.11671
 H69 H -0.25127 0.11702 -0.17804
 N70 N -0.16992 0.22546 -0.15066
 N71 N -0.15105 0.22547 -0.16952
 C72 C -0.13433 0.24642 -0.16532
 C73 C -0.14316 0.26007 -0.14283
 C74 C -0.16567 0.24642 -0.13396
 H75 H -0.11703 0.25144 -0.17765
 H76 H -0.17798 0.25144 -0.11666
 H77 H -0.16820 0.17740 -0.16799
 H78 H -0.19003 0.19892 -0.18972
 N79 N 0.15132 0.83036 -0.22551
 N80 N 0.17061 0.84856 -0.22560
 C81 C 0.16660 0.86551 -0.24644
 C82 C 0.14370 0.85732 -0.25994
 C83 C 0.13445 0.83505 -0.24627
 H84 H 0.17926 0.88251 -0.25143
 H85 H 0.11679 0.82319 -0.25106
 Cu86 Cu 0.19856 0.84807 -0.19801
 Cu87 Cu 0.14937 0.80189 -0.19851
 Cu88 Cu 0.19896 0.80193 -0.14893
 N89 N 0.22617 0.84861 -0.17006
 N90 N 0.22606 0.83042 -0.15078
 C91 C 0.24683 0.83513 -0.13390
 C92 C 0.26052 0.85742 -0.14316
 C93 C 0.24702 0.86560 -0.16606
 H94 H 0.25160 0.82326 -0.11625
 H95 H 0.25199 0.88259 -0.17874
 N96 N 0.16986 0.77482 -0.15059
 N97 N 0.15101 0.77482 -0.16945
 C98 C 0.13429 0.75386 -0.16525
 C99 C 0.14310 0.74018 -0.14278
 C100 C 0.16560 0.75384 -0.13391
 H101 H 0.11703 0.74881 -0.17761
 H102 H 0.17792 0.74877 -0.11665
 H103 H 0.16854 0.82302 -0.16827
 H104 H 0.18990 0.80060 -0.18954
 N105 N 0.16966 1.15114 0.77445
 N106 N 0.15104 1.17003 0.77465
 C107 C 0.13405 1.16600 0.75381
 C108 C 0.14266 1.14351 0.74001
 C109 C 0.16521 1.13451 0.75351
 H110 H 0.11676 1.17838 0.74899
 H111 H 0.17744 1.11720 0.74847
 Cu112 Cu 0.15107 1.19772 0.80238
 Cu113 Cu 0.19828 1.14938 0.80132
 Cu114 Cu 0.19826 1.19875 0.85082
 N115 N 0.15102 1.22538 0.83014
 N116 N 0.16962 1.22558 0.84908
 C117 C 0.16516 1.24649 0.86572
 C118 C 0.14261 1.25997 0.85669
 C119 C 0.13402 1.24619 0.83416
 H120 H 0.17739 1.25153 0.88307
 H121 H 0.11674 1.25099 0.82173
 N122 N 0.22548 1.16990 0.84907
 N123 N 0.22548 1.15111 0.83022
 C124 C 0.24646 1.13440 0.83449
 C125 C 0.26010 1.14318 0.85697
 C126 C 0.24646 1.16562 0.86581
 H127 H 0.25147 1.11713 0.82223
 H128 H 0.25149 1.17783 0.88313
 H129 H 0.17716 1.16834 0.83179
 H130 H 0.19904 1.18991 0.81013
 N131 N 0.83074 0.84868 0.77468
 N132 N 0.84941 0.82984 0.77493
 C133 C 0.86630 0.83373 0.75396
 C134 C 0.85766 0.85615 0.74010
 C135 C 0.83513 0.86520 0.75364
 H136 H 0.88354 0.82128 0.74909
 H137 H 0.82288 0.88249 0.74857
 Cu138 Cu 0.84938 0.80218 0.80266
 Cu139 Cu 0.80211 0.85043 0.80159
 Cu140 Cu 0.80204 0.80106 0.85108
 N141 N 0.84934 0.77452 0.83038
 N142 N 0.83064 0.77426 0.84926
 C143 C 0.83498 0.75325 0.86580
 C144 C 0.85749 0.73976 0.85671
 C145 C 0.86619 0.75359 0.83425
 H146 H 0.82272 0.74818 0.88312
 H147 H 0.88344 0.74872 0.82177
 N148 N 0.77489 0.82994 0.84938
 N149 N 0.77492 0.84874 0.83055
 C150 C 0.75392 0.86544 0.83483
 C151 C 0.74026 0.85662 0.85731
 C152 C 0.75389 0.83419 0.86613
 H153 H 0.74889 0.88269 0.82256
 H154 H 0.74882 0.82193 0.88341
 H155 H 0.82313 0.83141 0.83217
 H156 H 0.80141 0.80978 0.81043
 N157 N 0.16957 0.84840 1.22513
 N158 N 0.15090 0.82958 1.22494
 C159 C 0.13403 0.83353 1.24590
 C160 C 0.14271 0.85595 1.25971
 C161 C 0.16522 0.86496 1.24615
 H162 H 0.11674 0.82117 1.25075
 H163 H 0.17744 0.88227 1.25116
 Cu164 Cu 0.15041 0.80208 1.19707
 Cu165 Cu 0.19806 0.85014 1.19817
 Cu166 Cu 0.19813 0.80083 1.14880
 N167 N 0.15097 0.77424 1.16955
 N168 N 0.16964 0.77399 1.15065
 C169 C 0.16533 0.75297 1.13412
 C170 C 0.14284 0.73948 1.14323
 C171 C 0.13413 0.75332 1.16567
 H172 H 0.17757 0.74792 1.11677
 H173 H 0.11684 0.74852 1.17810
 N174 N 0.22522 0.82971 1.15040
 N175 N 0.22519 0.84850 1.16923
 C176 C 0.24616 0.86521 1.16494
 C177 C 0.25982 0.85640 1.14245
 C178 C 0.24620 0.83396 1.13364
 H179 H 0.25118 0.88246 1.17721
 H180 H 0.25127 0.82171 1.11636
 H181 H 0.17685 0.83120 1.16763
 H182 H 0.19842 0.80944 1.18950
 N183 N 0.83052 1.15143 1.22505
 N184 N 0.84917 1.17027 1.22483
 C185 C 0.86616 1.16623 1.24566
 C186 C 0.85755 1.14376 1.25946
 C187 C 0.83498 1.13479 1.24599
 H188 H 0.88340 1.17865 1.25052
 H189 H 0.82272 1.11754 1.25108
 Cu190 Cu 0.84907 1.19828 1.19746
 Cu191 Cu 0.80187 1.14982 1.19825
 Cu192 Cu 0.80177 1.19913 1.14886
 N193 N 0.84906 1.22561 1.16942
 N194 N 0.83040 1.22584 1.15055
 C195 C 0.83477 1.24679 1.13393
 C196 C 0.85731 1.26023 1.14295
 C197 C 0.86599 1.24644 1.16542
 H198 H 0.82248 1.25190 1.11665
 H199 H 0.88323 1.25129 1.17786
 N200 N 0.77456 1.17036 1.15062
 N201 N 0.77459 1.15157 1.16944
 C202 C 0.75363 1.13486 1.16518
 C203 C 0.73996 1.14366 1.14270
 C204 C 0.75358 1.16610 1.13388
 H205 H 0.74864 1.11757 1.17742
 H206 H 0.74855 1.17833 1.11657
 H207 H 0.82313 1.16902 1.16787
 H208 H 0.80112 1.19055 1.18956
 N209 N 0.52851 1.04761 0.97109
 N210 N 0.54901 1.06426 0.96767
 N211 N 0.47172 1.02891 0.95231
 N212 N 0.45125 1.03228 0.93563
 N213 N 0.47167 1.04757 0.97105
 N214 N 0.45117 1.06418 0.96766
 N215 N 0.52857 1.02893 0.95236
 N216 N 0.54909 1.03236 0.93568
 C217 C 0.56157 1.05445 0.94554
 C218 C 0.43874 1.05433 0.94552
 N219 N 0.47156 0.95234 0.97103
 N220 N 0.45107 0.93569 0.96760
 N221 N 0.52845 0.97101 0.95237
 N222 N 0.54897 0.96761 0.93572
 N223 N 0.52841 0.95236 0.97110
 N224 N 0.54890 0.93571 0.96775
 N225 N 0.47158 0.97100 0.95229
 N226 N 0.45110 0.96758 0.93559
 Mn227 Mn 0.50008 0.99996 0.95201
 C228 C 0.43858 0.94550 0.94544
 C229 C 0.56142 0.94554 0.94564
 N230 N 0.47139 1.04760 1.02914
 N231 N 0.45087 1.06423 1.03256
 N232 N 0.52826 1.02896 1.04791
 N233 N 0.54876 1.03236 1.06457
 N234 N 0.52826 1.04762 1.02917
 N235 N 0.54873 1.06425 1.03253
 N236 N 0.47139 1.02893 1.04788
 N237 N 0.45087 1.03234 1.06457
 Mn238 Mn 0.49996 1.04792 1.00011
 C239 C 0.43833 1.05442 1.05471
 C240 C 0.56122 1.05443 1.05465
 N241 N 0.52847 0.95237 1.02917
 N242 N 0.54899 0.93574 1.03259
 N243 N 0.47159 0.97102 1.04785
 N244 N 0.45107 0.96760 1.06449
 N245 N 0.47165 0.95236 1.02910
 N246 N 0.45118 0.93572 1.03245
 N247 N 0.52844 0.97104 1.04790
 N248 N 0.54893 0.96764 1.06459
 Mn249 Mn 0.50003 0.95204 1.00010
 Mn250 Mn 0.49992 0.99999 1.04821
 Cl251 Cl 0.50000 0.99998 1.00011
 C252 C 0.56147 0.94557 1.05474
 C253 C 0.43865 0.94554 1.05456
 N254 N 0.02896 0.47163 0.04793
 N255 N 0.03228 0.45117 0.06456
 N256 N 0.04777 0.52820 0.02924
 N257 N 0.06436 0.54869 0.03257
 N258 N 0.02898 0.52819 0.04795
 N259 N 0.03225 0.54867 0.06455
 N260 N 0.04775 0.47160 0.02921
 N261 N 0.06438 0.45111 0.03258
 C262 C 0.05442 0.43866 0.05469
 C263 C 0.05437 0.56115 0.05465
 N264 N 0.02909 0.52834 -0.04757
 N265 N 0.03239 0.54888 -0.06412
 N266 N 0.04781 0.47169 -0.02890
 N267 N 0.06442 0.45118 -0.03225
 N268 N 0.02907 0.47174 -0.04763
 N269 N 0.03238 0.45127 -0.06425
 N270 N 0.04784 0.52831 -0.02884
 N271 N 0.06443 0.54883 -0.03212
 Mn272 Mn 0.04812 0.49995 0.00017
 C273 C 0.05449 0.56137 -0.05419
 C274 C 0.05449 0.43875 -0.05435
 N275 N -0.02915 0.52831 0.04793
 N276 N -0.03249 0.54877 0.06456
 N277 N -0.04792 0.47178 0.02916
 N278 N -0.06455 0.45133 0.03248
 N279 N -0.02917 0.47176 0.04789
 N280 N -0.03251 0.45129 0.06449
 N281 N -0.04790 0.52834 0.02920
 N282 N -0.06452 0.54883 0.03255
 Mn283 Mn -0.00009 0.49997 0.04825
 C284 C -0.05461 0.56128 0.05466
 C285 C -0.05463 0.43886 0.05456
 N286 N -0.02910 0.47177 -0.04763
 N287 N -0.03243 0.45131 -0.06426
 N288 N -0.04785 0.52834 -0.02885
 N289 N -0.06447 0.54883 -0.03216
 N290 N -0.02907 0.52834 -0.04757
 N291 N -0.03237 0.54883 -0.06416
 N292 N -0.04788 0.47177 -0.02890
 N293 N -0.06452 0.45131 -0.03227
 Mn294 Mn -0.00000 0.50005 -0.04792
 Mn295 Mn -0.04821 0.50006 0.00015
 Cl296 Cl -0.00004 0.50000 0.00016
 C297 C -0.05459 0.43884 -0.05437
 C298 C -0.05450 0.56130 -0.05424
 N299 N 0.95237 0.02916 0.52814
 N300 N 0.93573 0.03257 0.54867
 N301 N 0.97108 0.04773 0.47134
 N302 N 0.96772 0.06433 0.45084
 N303 N 0.95230 0.02909 0.47138
 N304 N 0.93561 0.03249 0.45090
 N305 N 0.97114 0.04780 0.52808
 N306 N 0.96781 0.06444 0.54856
 C307 C 0.94567 0.05462 0.56111
 C308 C 0.94555 0.05452 0.43839
 N309 N 1.04799 0.02900 0.47117
 N310 N 1.06466 0.03238 0.45066
 N311 N 1.02930 0.04775 0.52795
 N312 N 1.03266 0.06436 0.54844
 N313 N 1.04807 0.02908 0.52795
 N314 N 1.06473 0.03245 0.54845
 N315 N 1.02923 0.04768 0.47120
 N316 N 1.03261 0.06429 0.45070
 Mn317 Mn 1.00019 0.04806 0.49964
 C318 C 1.05476 0.05444 0.43818
 C319 C 1.05481 0.05452 0.56092
 N320 N 0.95226 -0.02882 0.47149
 N321 N 0.93558 -0.03220 0.45102
 N322 N 0.97111 -0.04742 0.52823
 N323 N 0.96776 -0.06404 0.54871
 N324 N 0.95234 -0.02875 0.52826
 N325 N 0.93567 -0.03215 0.54878
 N326 N 0.97102 -0.04750 0.47149
 N327 N 0.96763 -0.06412 0.45102
 Mn328 Mn 0.95199 0.00017 0.49982
 C329 C 0.94547 -0.05428 0.43855
 C330 C 0.94561 -0.05422 0.56124
 N331 N 1.04803 -0.02883 0.52805
 N332 N 1.06473 -0.03221 0.54852
 N333 N 1.02916 -0.04755 0.47138
 N334 N 1.03246 -0.06420 0.45093
 N335 N 1.04794 -0.02891 0.47129
 N336 N 1.06456 -0.03236 0.45074
 N337 N 1.02925 -0.04747 0.52811
 N338 N 1.03263 -0.06405 0.54862
 Mn339 Mn 1.04834 0.00009 0.49961
 Mn340 Mn 1.00014 -0.04780 0.49980
 Cl341 Cl 1.00016 0.00013 0.49972
 C342 C 1.05482 -0.05423 0.56105
 C343 C 1.05459 -0.05442 0.43835
 C344 C 1.07309 0.10615 0.35030
 C345 C 1.09771 0.12536 0.35018
 C346 C 1.10994 0.10919 0.32676
 C347 C 1.08549 0.09016 0.32651
 C348 C 1.08813 0.08772 0.37011
 C349 C 1.10035 0.07155 0.34669
 C350 C 1.11256 0.10675 0.37036
 C351 C 1.12497 0.09076 0.34658
 C352 C 1.12209 0.12119 0.30263
 C353 C 1.13202 0.13115 0.28280
 C354 C 1.07614 0.07580 0.39434
 C355 C 1.06636 0.06603 0.41433
 H356 H 1.05162 0.11235 0.35210
 H357 H 1.09674 0.14763 0.35139
 H358 H 1.07448 0.08347 0.30821
 H359 H 1.10127 0.04928 0.34552
 H360 H 1.12354 0.11344 0.38868
 H361 H 1.14643 0.08454 0.34483
 C362 C 0.89592 -0.11379 0.37035
 C363 C 0.87437 -0.10009 0.35236
 C364 C 0.89029 -0.10889 0.32726
 C365 C 0.91166 -0.12276 0.34489
 C366 C 0.91211 -0.08745 0.37055
 C367 C 0.92805 -0.09624 0.34546
 C368 C 0.89075 -0.07358 0.35292
 C369 C 0.90649 -0.08255 0.32744
 C370 C 0.87807 -0.12087 0.30321
 C371 C 0.86807 -0.13081 0.28344
 C372 C 0.92411 -0.07557 0.39475
 C373 C 0.93388 -0.06584 0.41473
 H374 H 0.89173 -0.12650 0.38827
 H375 H 0.85217 -0.10181 0.35495
 H376 H 0.92014 -0.14312 0.34133
 H377 H 0.95026 -0.09452 0.34289
 H378 H 0.88231 -0.05321 0.35648
 H379 H 0.91071 -0.06984 0.30953
 C380 C 0.89598 0.11404 0.62942
 C381 C 0.87455 0.10026 0.64751
 C382 C 0.89046 0.10916 0.67254
 C383 C 0.91172 0.12312 0.65482
 C384 C 0.91233 0.08779 0.62920
 C385 C 0.92826 0.09668 0.65423
 C386 C 0.89109 0.07383 0.64692
 C387 C 0.90682 0.08291 0.67233
 C388 C 0.87825 0.12113 0.69664
 C389 C 0.86826 0.13106 0.71644
 C390 C 0.92435 0.07593 0.60497
 C391 C 0.93412 0.06620 0.58497
 H392 H 0.89168 0.12671 0.61150
 H393 H 0.85233 0.10185 0.64498
 H394 H 0.92008 0.14352 0.65833
 H395 H 0.95048 0.09508 0.65672
 H396 H 0.88277 0.05341 0.64340
 H397 H 0.91115 0.07023 0.69023
 C398 C 1.11268 -0.10626 0.62896
 C399 C 1.12476 -0.09023 0.65286
 C400 C 1.10977 -0.10886 0.67253
 C401 C 1.09787 -0.12507 0.64900
 C402 C 1.08807 -0.08745 0.62915
 C403 C 1.07306 -0.10607 0.64880
 C404 C 1.09995 -0.07124 0.65268
 C405 C 1.08514 -0.09005 0.67272
 C406 C 1.12193 -0.12078 0.69667
 C407 C 1.13192 -0.13068 0.71649
 C408 C 1.07614 -0.07554 0.60490
 C409 C 1.06640 -0.06579 0.58490
 H410 H 1.12385 -0.11279 0.61068
 H411 H 1.14615 -0.08385 0.65476
 H412 H 1.09713 -0.14733 0.64771
 H413 H 1.05167 -0.11245 0.64687
 H414 H 1.10066 -0.04897 0.65394
 H415 H 1.07394 -0.08353 0.69098
 C416 C 0.36265 1.11761 1.08693
 C417 C 0.33317 1.10972 1.08007
 C418 C 0.32661 1.10900 1.11036
 C419 C 0.35572 1.11707 1.11740
 C420 C 0.37007 1.08764 1.08840
 C421 C 0.36350 1.08693 1.11869
 C422 C 0.34096 1.07957 1.08135
 C423 C 0.33403 1.07904 1.11183
 C424 C 0.30241 1.12102 1.12254
 C425 C 0.28253 1.13102 1.13247
 C426 C 0.39439 1.07578 1.07627
 C427 C 0.41442 1.06604 1.06640
 H428 H 0.37464 1.13337 1.07655
 H429 H 0.32045 1.11922 1.06430
 H430 H 0.36159 1.13261 1.13235
 H431 H 0.37623 1.07743 1.13446
 H432 H 0.33510 1.06404 1.06639
 H433 H 0.32203 1.06327 1.12220
 C434 C 0.34511 0.92816 0.90358
 C435 C 0.34445 0.91243 0.87662
 C436 C 0.32689 0.89081 0.89013
 C437 C 0.32718 0.90635 0.91691
 C438 C 0.37035 0.91221 0.91193
 C439 C 0.35279 0.89059 0.92545
 C440 C 0.37005 0.89665 0.88515
 C441 C 0.35212 0.87486 0.89849
 C442 C 0.30270 0.87882 0.87796
 C443 C 0.28286 0.86885 0.86799
 C444 C 0.39466 0.92411 0.92397
 C445 C 0.41469 0.93387 0.93378
 H446 H 0.34244 0.95020 0.90581
 H447 H 0.34080 0.92129 0.85641
 H448 H 0.30929 0.91021 0.92986
 H449 H 0.35643 0.88171 0.94566
 H450 H 0.38793 0.89277 0.87221
 H451 H 0.35478 0.85281 0.89628
 C452 C 0.63309 0.88220 1.09434
 C453 C 0.66187 0.88331 1.08212
 C454 C 0.67307 0.89080 1.11001
 C455 C 0.64466 0.88952 1.12242
 C456 C 0.62967 0.91230 1.08823
 C457 C 0.64088 0.91979 1.11612
 C458 C 0.65809 0.91359 1.07581
 C459 C 0.66967 0.92089 1.10389
 C460 C 0.69720 0.87873 1.12217
 C461 C 0.71703 0.86871 1.13210
 C462 C 0.60538 0.92421 1.07620
 C463 C 0.58536 0.93397 1.06639
 H464 H 0.61782 0.86639 1.09028
 H465 H 0.67077 0.86818 1.06826
 H466 H 0.63938 0.87950 1.14171
 H467 H 0.63201 0.93493 1.12998
 H468 H 0.66339 0.92360 1.05651
 H469 H 0.68497 0.93668 1.10795
 C470 C 0.65874 1.08311 0.92208
 C471 C 0.66806 1.07889 0.89254
 C472 C 0.67319 1.10926 0.89012
 C473 C 0.66425 1.11367 0.91947
 C474 C 0.62978 1.08778 0.91198
 C475 C 0.63492 1.11815 0.90956
 C476 C 0.63873 1.08337 0.88263
 C477 C 0.64423 1.11392 0.88003
 C478 C 0.69734 1.12135 0.87795
 C479 C 0.71717 1.13139 0.86802
 C480 C 0.60549 1.07586 0.92405
 C481 C 0.58546 1.06609 0.93388
 H482 H 0.66449 1.07034 0.93951
 H483 H 0.68193 1.06285 0.88542
 H484 H 0.67501 1.12625 0.93450
 H485 H 0.62108 1.13421 0.91670
 H486 H 0.62799 1.07078 0.86759
 H487 H 0.63849 1.12670 0.86260
 C488 C 0.09907 0.34692 0.07195
 C489 C 0.12400 0.34666 0.09081
 C490 C 0.10898 0.32735 0.10979
 C491 C 0.08423 0.32723 0.09111
 C492 C 0.08748 0.37063 0.08809
 C493 C 0.07245 0.35133 0.10707
 C494 C 0.11222 0.37074 0.10677
 C495 C 0.09738 0.35107 0.12593
 C496 C 0.12103 0.30325 0.12185
 C497 C 0.13097 0.28343 0.13173
 C498 C 0.07562 0.39484 0.07608
 C499 C 0.06594 0.41482 0.06628
 H500 H 0.09963 0.34544 0.04962
 H501 H 0.14533 0.34452 0.08426
 H502 H 0.07284 0.30908 0.08482
 H503 H 0.05111 0.35349 0.11361
 H504 H 0.12359 0.38891 0.11307
 H505 H 0.09679 0.35256 0.14826
 C506 C -0.07303 0.34385 -0.09091
 C507 C -0.09852 0.32924 -0.08024
 C508 C -0.10931 0.32761 -0.10923
 C509 C -0.08401 0.34185 -0.12009
 C510 C -0.08773 0.37086 -0.08763
 C511 C -0.09852 0.36923 -0.11663
 C512 C -0.11303 0.35662 -0.07677
 C513 C -0.12401 0.35462 -0.10595
 C514 C -0.12139 0.30352 -0.12124
 C515 C -0.13134 0.28370 -0.13108
 C516 C -0.07584 0.39506 -0.07569
 C517 C -0.06612 0.41502 -0.06593
 H518 H -0.05194 0.33967 -0.08459
 H519 H -0.09865 0.31252 -0.06541
 H520 H -0.07219 0.33553 -0.13804
 H521 H -0.09837 0.38595 -0.13145
 H522 H -0.12483 0.36294 -0.05881
 H523 H -0.14509 0.35883 -0.11227
 C524 C 0.07241 0.64924 -0.10572
 C525 C 0.08500 0.67290 -0.08977
 C526 C 0.10923 0.67264 -0.10914
 C527 C 0.09682 0.64936 -0.12528
 C528 C 0.08762 0.62942 -0.08745
 C529 C 0.11185 0.62917 -0.10683
 C530 C 0.10003 0.65271 -0.07131
 C531 C 0.12444 0.65282 -0.09087
 C532 C 0.12132 0.69672 -0.12118
 C533 C 0.13127 0.71654 -0.13104
 C534 C 0.07572 0.60522 -0.07546
 C535 C 0.06602 0.58524 -0.06571
 H536 H 0.05087 0.64754 -0.11169
 H537 H 0.07408 0.69116 -0.08291
 H538 H 0.09563 0.64821 -0.14760
 H539 H 0.12276 0.61092 -0.11370
 H540 H 0.10121 0.65386 -0.04899
 H541 H 0.14597 0.65453 -0.08490
 C542 C -0.11825 0.63369 0.09169
 C543 C -0.11275 0.64398 0.12065
 C544 C -0.10940 0.67256 0.10940
 C545 C -0.11508 0.66263 0.08062
 C546 C -0.08777 0.62930 0.08785
 C547 C -0.08442 0.65788 0.07659
 C548 C -0.08209 0.63923 0.11662
 C549 C -0.07892 0.66819 0.10555
 C550 C -0.12150 0.69666 0.12136
 C551 C -0.13145 0.71648 0.13118
 C552 C -0.07585 0.60510 0.07593
 C553 C -0.06613 0.58512 0.06620
 H554 H -0.13428 0.61923 0.08584
 H555 H -0.12452 0.63851 0.13890
 H556 H -0.12880 0.67253 0.06596
 H557 H -0.07264 0.66336 0.05834
 H558 H -0.06836 0.62935 0.13128
 H559 H -0.06290 0.68264 0.11141
 C560 C 1.11820 0.09190 0.63354
 C561 C 1.11252 0.12082 0.64364
 C562 C 1.10903 0.10978 0.67237
 C563 C 1.11489 0.08105 0.66263
 C564 C 1.08777 0.08795 0.62901
 C565 C 1.08427 0.07691 0.65773
 C566 C 1.08191 0.11669 0.63875
 C567 C 1.07860 0.10584 0.66785
 C568 C 1.12089 0.12192 0.69652
 C569 C 1.13074 0.13184 0.71638
 C570 C 1.07600 0.07590 0.60477
 C571 C 1.06635 0.06609 0.58477
 H572 H 1.13433 0.08601 0.61915
 H573 H 1.12427 0.13899 0.63808
 H574 H 1.12860 0.06652 0.67271
 H575 H 1.07253 0.05873 0.66328
 H576 H 1.06820 0.13120 0.62866
 H577 H 1.06246 0.11172 0.68224
 C578 C 0.91118 -0.07422 0.65700
 C579 C 0.88151 -0.08374 0.65968
 C580 C 0.89155 -0.10997 0.67262
 C581 C 0.92103 -0.10064 0.67032
 C582 C 0.91275 -0.08794 0.62929
 C583 C 0.92280 -0.11417 0.64223
 C584 C 0.88327 -0.09728 0.63161
 C585 C 0.89313 -0.12368 0.64491
 C586 C 0.87961 -0.12219 0.69670
 C587 C 0.86967 -0.13215 0.71650
 C588 C 0.92446 -0.07576 0.60507
 C589 C 0.93408 -0.06585 0.58508
 H590 H 0.91873 -0.05375 0.66171
 H591 H 0.86440 -0.07136 0.66713
 H592 H 0.93643 -0.10216 0.68652
 H593 H 0.93992 -0.12654 0.63480
 H594 H 0.86787 -0.09575 0.61542
 H595 H 0.88558 -0.14416 0.64020
 C596 C 1.11052 -0.10873 0.37070
 C597 C 1.09494 -0.12593 0.34984
 C598 C 1.10868 -0.11012 0.32704
 C599 C 1.12445 -0.09311 0.34753
 C600 C 1.08739 -0.08815 0.37033
 C601 C 1.10113 -0.07234 0.34752
 C602 C 1.07162 -0.10516 0.34984
 C603 C 1.08555 -0.08954 0.32665
 C604 C 1.12068 -0.12233 0.30300
 C605 C 1.13067 -0.13230 0.28325
 C606 C 1.07567 -0.07599 0.39453
 C607 C 1.06607 -0.06608 0.41452
 H608 H 1.12066 -0.11648 0.38909
 H609 H 1.09253 -0.14811 0.35051
 H610 H 1.14630 -0.08830 0.34630
 H611 H 1.10353 -0.05016 0.34683
 H612 H 1.04976 -0.10996 0.35105
 H613 H 1.07542 -0.08181 0.30825
 C614 C 0.92891 0.09773 0.34581
 C615 C 0.90796 0.08406 0.32710
 C616 C 0.89134 0.11014 0.32708
 C617 C 0.91210 0.12400 0.34541
 C618 C 0.91261 0.08820 0.37039
 C619 C 0.89599 0.11428 0.37036
 C620 C 0.89185 0.07435 0.35205
 C621 C 0.87505 0.10062 0.35166
 C622 C 0.87941 0.12227 0.30296
 C623 C 0.86950 0.13213 0.28311
 C624 C 0.92435 0.07604 0.39460
 C625 C 0.93399 0.06615 0.41457
 H626 H 0.95119 0.09641 0.34364
 H627 H 0.91275 0.07180 0.30901
 H628 H 0.92028 0.14456 0.34241
 H629 H 0.89121 0.12657 0.38843
 H630 H 0.88367 0.05379 0.35503
 H631 H 0.85277 0.10195 0.35382
 C632 C 0.10413 0.34977 -0.07227
 C633 C 0.08809 0.32717 -0.08659
 C634 C 0.10887 0.32751 -0.10961
 C635 C 0.12510 0.34974 -0.09548
 C636 C 0.08748 0.37075 -0.08776
 C637 C 0.10826 0.37109 -0.11078
 C638 C 0.07124 0.34854 -0.10189
 C639 C 0.09221 0.34851 -0.12510
 C640 C 0.12079 0.30341 -0.12174
 C641 C 0.13067 0.28358 -0.13164
 C642 C 0.07566 0.39494 -0.07572
 C643 C 0.06599 0.41491 -0.06592
 H644 H 0.10889 0.35053 -0.05041
 H645 H 0.07994 0.30882 -0.07678
 H646 H 0.14737 0.35001 -0.09297
 H647 H 0.11641 0.38945 -0.12057
 H648 H 0.04897 0.34828 -0.10438
 H649 H 0.08744 0.34777 -0.14696
 C650 C -0.08346 0.36228 0.11722
 C651 C -0.11413 0.35655 0.11946
 C652 C -0.10902 0.32775 0.10951
 C653 C -0.07854 0.33310 0.10746
 C654 C -0.08761 0.37096 0.08779
 C655 C -0.08250 0.34217 0.07784
 C656 C -0.11809 0.36561 0.08984
 C657 C -0.11317 0.33644 0.08008
 C658 C -0.12096 0.30368 0.12154
 C659 C -0.13083 0.28385 0.13136
 C660 C -0.07580 0.39511 0.07582
 C661 C -0.06614 0.41507 0.06607
 H662 H -0.07108 0.37319 0.13232
 H663 H -0.12726 0.36223 0.13670
 H664 H -0.06242 0.31946 0.11487
 H665 H -0.06936 0.33653 0.06059
 H666 H -0.13419 0.37927 0.08242
 H667 H -0.12554 0.32555 0.06496
 C668 C -0.11743 0.63698 -0.08551
 C669 C -0.10898 0.66627 -0.07909
 C670 C -0.10876 0.67243 -0.10944
 C671 C -0.11739 0.64352 -0.11605
 C672 C -0.08746 0.62923 -0.08754
 C673 C -0.08724 0.63541 -0.11789
 C674 C -0.07882 0.65814 -0.08092
 C675 C -0.07879 0.66469 -0.11147
 C676 C -0.12068 0.69645 -0.12164
 C677 C -0.13057 0.71620 -0.13160
 C678 C -0.07567 0.60508 -0.07551
 C679 C -0.06601 0.58512 -0.06575
 H680 H -0.13316 0.62531 -0.07467
 H681 H -0.11806 0.67923 -0.06327
 H682 H -0.13338 0.63776 -0.13062
 H683 H -0.07815 0.62244 -0.13369
 H684 H -0.06284 0.66388 -0.06633
 H685 H -0.06304 0.67636 -0.12228
 C686 C 0.07279 0.64746 0.10818
 C687 C 0.09871 0.64786 0.12566
 C688 C 0.10876 0.67228 0.10958
 C689 C 0.08303 0.67227 0.09229
 C690 C 0.08727 0.62910 0.08789
 C691 C 0.09731 0.65352 0.07180
 C692 C 0.11300 0.62913 0.10518
 C693 C 0.12323 0.65392 0.08928
 C694 C 0.12082 0.69627 0.12165
 C695 C 0.13083 0.71599 0.13154
 C696 C 0.07545 0.60494 0.07592
 C697 C 0.06582 0.58497 0.06617
 H698 H 0.05191 0.64454 0.11580
 H699 H 0.09942 0.64580 0.14794
 H700 H 0.07086 0.69029 0.08714
 H701 H 0.09659 0.65558 0.04952
 H702 H 0.12517 0.61110 0.11032
 H703 H 0.14410 0.65683 0.08164
 C704 C 0.35001 1.10442 0.92793
 C705 C 0.35007 1.12522 0.90468
 C706 C 0.32750 1.10925 0.89076
 C707 C 0.32705 1.08864 0.91382
 C708 C 0.37080 1.08760 0.91231
 C709 C 0.34823 1.07162 0.89839
 C710 C 0.37124 1.10820 0.88925
 C711 C 0.34829 1.09242 0.87514
 C712 C 0.30344 1.12134 0.87873
 C713 C 0.28365 1.13131 0.86881
 C714 C 0.39498 1.07564 0.92420
 C715 C 0.41494 1.06587 0.93394
 H716 H 0.35100 1.10920 0.94977
 H717 H 0.35054 1.14740 0.90712
 H718 H 0.30859 1.08075 0.92376
 H719 H 0.34778 1.04944 0.89597
 H720 H 0.38970 1.11609 0.87932
 H721 H 0.34732 1.08762 0.85330
 C722 C 0.36979 0.88383 1.10013
 C723 C 0.35372 0.89553 1.12424
 C724 C 0.32736 0.89020 1.10884
 C725 C 0.34305 0.87831 1.08492
 C726 C 0.37069 0.91200 1.08748
 C727 C 0.34433 0.90667 1.07207
 C728 C 0.35500 0.92388 1.11140
 C729 C 0.32826 0.91836 1.09618
 C730 C 0.30327 0.87810 1.12079
 C731 C 0.28344 0.86818 1.13066
 C732 C 0.39488 0.92407 1.07571
 C733 C 0.41485 0.93392 1.06607
 H734 H 0.38716 0.86980 1.10159
 H735 H 0.35731 0.89080 1.14582
 H736 H 0.33784 0.85943 1.07419
 H737 H 0.34075 0.91139 1.05049
 H738 H 0.36020 0.94277 1.12212
 H739 H 0.31088 0.93239 1.09472
 C740 C 0.63500 1.11826 1.08815
 C741 C 0.64350 1.11571 1.11809
 C742 C 0.67254 1.10973 1.10895
 C743 C 0.66441 1.11247 1.07919
 C744 C 0.62921 1.08793 1.08759
 C745 C 0.65824 1.08195 1.07843
 C746 C 0.63735 1.08519 1.11735
 C747 C 0.66676 1.07941 1.10838
 C748 C 0.69661 1.12185 1.12092
 C749 C 0.71640 1.13181 1.13084
 C750 C 0.60501 1.07586 1.07582
 C751 C 0.58503 1.06602 1.06618
 H752 H 0.62166 1.13408 1.07967
 H753 H 0.63771 1.12972 1.13452
 H754 H 0.67582 1.12384 1.06365
 H755 H 0.66402 1.06794 1.06199
 H756 H 0.62594 1.07382 1.13288
 H757 H 0.68010 1.06358 1.11684
 C758 C 0.64189 0.88533 0.92173
 C759 C 0.64481 0.87694 0.89179
 C760 C 0.67273 0.89037 0.89109
 C761 C 0.67020 0.89856 0.92085
 C762 C 0.62940 0.91209 0.91258
 C763 C 0.65732 0.92551 0.91190
 C764 C 0.63195 0.90389 0.88283
 C765 C 0.66024 0.91712 0.88195
 C766 C 0.69682 0.87831 0.87907
 C767 C 0.71664 0.86840 0.86914
 C768 C 0.60521 0.92411 0.92442
 C769 C 0.58523 0.93394 0.93411
 H770 H 0.63407 0.87243 0.93824
 H771 H 0.63995 0.85684 0.88339
 H772 H 0.68622 0.89621 0.93632
 H773 H 0.66218 0.94561 0.92031
 H774 H 0.61593 0.90623 0.86736
 H775 H 0.66808 0.93003 0.86545
   
