data_POSCAR
  _audit_creation_date              2014-09-24
  _audit_creation_method            'ToBaCCo'
  _symmetry_space_group_name_H-M    'P1'
  _symmetry_Int_Tables_number       1
  _symmetry_cell_setting            triclinic
  loop_
  _symmetry_equiv_pos_as_xyz
 x,y,z
_cell_length_a 30.1092
_cell_length_b 30.4026
_cell_length_c 29.7869
_cell_angle_alpha 90.594300
_cell_angle_beta 90.774600
_cell_angle_gamma 90.463700
loop_
  _atom_site_label
  _atom_site_type_symbol
  _atom_site_fract_x
  _atom_site_fract_y
  _atom_site_fract_z
C1 C 0.25414 0.50199 1.00192
 C2 C 0.74599 0.50398 -0.00455
 C3 C -0.00121 0.24893 0.49505
 C4 C 0.99967 0.74823 0.50228
 C5 C 0.49393 0.00472 0.25101
 C6 C 0.50652 0.00260 0.74966
 C7 C 0.31334 0.03638 0.45167
 H8 H 0.31421 0.06059 0.47856
 C9 C 0.34427 0.03865 0.41734
 H10 H 0.36899 0.06459 0.41895
 C11 C 0.28162 -0.02857 0.41992
 H12 H 0.25792 -0.05533 0.42175
 C13 C 0.31189 -0.02748 0.38476
 H14 H 0.31085 -0.05331 0.35944
 N15 N 0.28288 0.00320 0.45240
 C16 C 0.18072 0.05435 0.54020
 H17 H 0.18257 0.03092 0.56724
 C18 C 0.14807 0.08666 0.54037
 H19 H 0.12511 0.08835 0.56802
 C20 C 0.20715 0.07927 0.47023
 H21 H 0.22955 0.07556 0.44244
 C22 C 0.17478 0.11190 0.46889
 H23 H 0.17374 0.13393 0.44061
 Zn24 Zn 0.24636 0.00142 0.50341
 N25 N 0.20918 0.05104 0.50531
 C26 C 0.28757 0.03208 0.58521
 N27 N 0.28516 -0.00059 0.55372
 C28 C 0.31332 -0.03524 0.55493
 C29 C 0.34558 -0.03817 0.58873
 C30 C 0.31969 0.03066 0.61954
 C31 C 0.17778 -0.05042 0.46753
 C32 C 0.14543 -0.08353 0.46650
 C33 C 0.17594 -0.11142 0.53594
 C34 C 0.20780 -0.07778 0.53559
 N35 N 0.20805 -0.04808 0.50175
 H36 H 0.26541 0.05979 0.58312
 H37 H 0.31085 -0.06056 0.52920
 H38 H 0.36661 -0.06678 0.58900
 H39 H 0.32168 0.05725 0.64400
 H40 H 0.17824 -0.02588 0.44150
 H41 H 0.12124 -0.08458 0.43925
 H42 H 0.17673 -0.13483 0.56302
 H43 H 0.23152 -0.07485 0.56299
 C44 C 0.14402 0.11513 0.50385
 C45 C 0.34378 0.00640 0.38308
 C46 C 0.14363 -0.11402 0.50143
 C47 C 0.34979 -0.00436 0.62119
 C48 C 0.68469 0.03309 0.54590
 H49 H 0.68407 0.05679 0.51905
 C50 C 0.65363 0.03571 0.58017
 H51 H 0.62911 0.06143 0.57865
 C52 C 0.71577 -0.03102 0.57762
 H53 H 0.73931 -0.05759 0.57586
 C54 C 0.68534 -0.02962 0.61261
 H55 H 0.68607 -0.05502 0.63783
 N56 N 0.71488 0.00011 0.54518
 C57 C 0.81975 0.04765 0.45821
 H58 H 0.81864 0.02257 0.43217
 C59 C 0.85216 0.08069 0.45731
 H60 H 0.87572 0.08118 0.43016
 C61 C 0.79137 0.07645 0.52617
 H62 H 0.76815 0.07417 0.55339
 C63 C 0.82348 0.10991 0.52677
 H64 H 0.82361 0.13381 0.55394
 Zn65 Zn 0.75180 -0.00333 0.49441
 N66 N 0.79028 0.04604 0.49234
 C67 C 0.71440 0.02442 0.41068
 N68 N 0.71353 -0.00630 0.44357
 C69 C 0.68220 -0.03872 0.44351
 C70 C 0.64989 -0.04110 0.40959
 C71 C 0.68272 0.02316 0.37588
 C72 C 0.81999 -0.05336 0.53036
 C73 C 0.85087 -0.08722 0.53293
 C74 C 0.81638 -0.12083 0.46726
 C75 C 0.78623 -0.08613 0.46583
 N76 N 0.78850 -0.05339 0.49727
 H77 H 0.73874 0.05071 0.41206
 H78 H 0.68176 -0.06218 0.47057
 H79 H 0.62473 -0.06673 0.41057
 H80 H 0.68320 0.04879 0.35099
 H81 H 0.82172 -0.02630 0.55422
 H82 H 0.87640 -0.08514 0.55873
 H83 H 0.81443 -0.14645 0.44174
 H84 H 0.76170 -0.08497 0.43908
 C85 C 0.85495 0.11176 0.49237
 C86 C 0.65367 0.00398 0.61425
 C87 C 0.84922 -0.12180 0.50113
 C88 C 0.64973 -0.00991 0.37526
 C89 C 0.46400 0.18663 1.05161
 H90 H 0.44047 0.18603 1.02382
 C91 C 0.46063 0.15554 1.08557
 H92 H 0.43444 0.13115 1.08282
 C93 C 0.52843 0.21776 1.08606
 H94 H 0.55548 0.24129 1.08550
 C95 C 0.52618 0.18743 1.12090
 H96 H 0.55138 0.18832 1.14720
 N97 N 0.49752 0.21683 1.05235
 C98 C 0.45206 0.32126 0.96385
 H99 H 0.47738 0.31995 0.93844
 C100 C 0.41950 0.35366 0.96201
 H101 H 0.41961 0.37702 0.93481
 C102 C 0.42229 0.29346 1.03123
 H103 H 0.42403 0.27047 1.05859
 C104 C 0.38942 0.32567 1.03097
 H105 H 0.36539 0.32624 1.05765
 Zn106 Zn 0.50208 0.25373 1.00185
 N107 N 0.45298 0.29209 0.99815
 C108 C 0.47411 0.21741 0.91707
 N109 N 0.50485 0.21617 0.95090
 C110 C 0.53713 0.18520 0.95149
 C111 C 0.53962 0.15389 0.91706
 C112 C 0.47547 0.18679 0.88178
 C113 C 0.55367 0.32069 1.04008
 C114 C 0.58803 0.35161 1.04349
 C115 C 0.62132 0.31876 0.97798
 C116 C 0.58617 0.28843 0.97578
 N117 N 0.55324 0.29001 1.00657
 H118 H 0.44791 0.24146 0.91783
 H119 H 0.56043 0.18426 0.97944
 H120 H 0.56481 0.12889 0.91955
 H121 H 0.45051 0.18797 0.85530
 H122 H 0.52660 0.32172 1.06358
 H123 H 0.58733 0.37631 1.06994
 H124 H 0.64617 0.31778 0.95214
 H125 H 0.58455 0.26459 0.94865
 C126 C 0.38836 0.35684 0.99641
 C127 C 0.49209 0.15564 1.12101
 C128 C 0.62234 0.35111 1.01214
 C129 C 0.50854 0.15451 0.88134
 C130 C 0.46409 0.81921 -0.05511
 H131 H 0.43763 0.81748 -0.03095
 C132 C 0.46317 0.85121 -0.08838
 H133 H 0.43562 0.87385 -0.08999
 C134 C 0.53320 0.79304 -0.08103
 H135 H 0.56093 0.77097 -0.07739
 C136 C 0.53375 0.82470 -0.11467
 H137 H 0.56141 0.82556 -0.13746
 N138 N 0.49894 0.79123 -0.05179
 C139 C 0.45181 0.68743 0.03621
 H140 H 0.47676 0.69044 0.06256
 C141 C 0.41971 0.65420 0.03801
 H142 H 0.41980 0.63192 0.06616
 C143 C 0.42254 0.71192 -0.03336
 H144 H 0.42440 0.73396 -0.06151
 C145 C 0.39005 0.67876 -0.03314
 H146 H 0.36632 0.67658 -0.06068
 Zn147 Zn 0.50178 0.75449 -0.00106
 N148 N 0.45274 0.71538 0.00090
 C149 C 0.46944 0.79295 0.07943
 N150 N 0.50333 0.79238 0.04969
 C151 C 0.53724 0.82211 0.05269
 C152 C 0.53780 0.85432 0.08643
 C153 C 0.46854 0.82480 0.11355
 C154 C 0.55230 0.68820 -0.03729
 C155 C 0.58596 0.65716 -0.04018
 C156 C 0.62002 0.68938 0.02644
 C157 C 0.58539 0.71970 0.02822
 N158 N 0.55249 0.71854 -0.00349
 H159 H 0.44233 0.76963 0.07595
 H160 H 0.56331 0.82144 0.02805
 H161 H 0.56468 0.87821 0.08788
 H162 H 0.44126 0.82460 0.13681
 H163 H 0.52511 0.68745 -0.06142
 H164 H 0.58348 0.63262 -0.06658
 H165 H 0.64570 0.69033 0.05226
 H166 H 0.58431 0.74333 0.05551
 C167 C 0.38897 0.64888 0.00261
 C168 C 0.49887 0.85505 -0.11787
 C169 C 0.62062 0.65744 -0.00797
 C170 C 0.50263 0.85663 0.11668
 C171 C 1.05243 0.46399 0.17926
 H172 H 1.02705 0.43858 0.17884
 C173 C 1.08622 0.46302 0.14767
 H174 H 1.08688 0.43655 0.12307
 C175 C 1.08144 0.53020 0.21097
 H176 H 1.07902 0.55668 0.23527
 C177 C 1.11571 0.53065 0.17980
 H178 H 1.14001 0.55704 0.18142
 N179 N 1.05054 0.49731 0.20995
 C180 C 0.96622 0.44783 0.31620
 H181 H 0.94107 0.47305 0.31634
 C182 C 0.96537 0.41469 0.34820
 H183 H 0.93915 0.41436 0.37275
 C184 C 1.03185 0.41872 0.28495
 H185 H 1.05816 0.42091 0.26078
 C186 C 1.03232 0.38496 0.31645
 H187 H 1.05845 0.36082 0.31498
 Zn188 Zn 1.00055 0.49880 0.24763
 N189 N 0.99918 0.44936 0.28552
 C190 C 0.91723 0.46916 0.21098
 N191 N 0.94993 0.50022 0.20953
 C192 C 0.94926 0.53240 0.17824
 C193 C 0.91454 0.53459 0.14692
 C194 C 0.88169 0.47020 0.18034
 C195 C 1.03512 0.55003 0.31776
 C196 C 1.03664 0.58377 0.34986
 C197 C 0.97120 0.61493 0.31530
 C198 C 0.97079 0.58038 0.28398
 N199 N 1.00257 0.54888 0.28573
 H200 H 0.91897 0.44314 0.23534
 H201 H 0.97632 0.55599 0.17717
 H202 H 0.91596 0.55976 0.12161
 H203 H 0.85602 0.44509 0.18169
 H204 H 1.05929 0.52392 0.31902
 H205 H 1.06204 0.58253 0.37575
 H206 H 0.94538 0.63950 0.31372
 H207 H 0.94450 0.57828 0.25900
 C208 C 0.99913 0.38320 0.34922
 C209 C 1.11782 0.49711 0.14701
 C210 C 1.00434 0.61702 0.34886
 C211 C 0.87985 0.50333 0.14790
 C212 C -0.05220 0.46364 0.81838
 H213 H -0.02718 0.43830 0.81845
 C214 C -0.08591 0.46291 0.85007
 H215 H -0.08690 0.43667 0.87437
 C216 C -0.08028 0.52958 0.78762
 H217 H -0.07750 0.55592 0.76375
 C218 C -0.11442 0.53026 0.81890
 H219 H -0.13828 0.55665 0.81774
 N220 N -0.04992 0.49670 0.78809
 C221 C 0.03304 0.44857 0.68005
 H222 H 0.05684 0.47540 0.67925
 C223 C 0.03432 0.41531 0.64754
 H224 H 0.05917 0.41764 0.62184
 C225 C -0.03022 0.41603 0.71301
 H226 H -0.05605 0.41713 0.73779
 C227 C -0.02999 0.38184 0.68127
 H228 H -0.05543 0.35649 0.68236
 Zn229 Zn -0.00010 0.49822 0.75021
 N230 N 0.00118 0.44839 0.71189
 C231 C 0.08330 0.47001 0.78564
 N232 N 0.05081 0.50072 0.78796
 C233 C 0.05206 0.53312 0.81973
 C234 C 0.08708 0.53572 0.85082
 C235 C 0.11910 0.47148 0.81599
 C236 C -0.03551 0.54887 0.68136
 C237 C -0.03655 0.58189 0.64921
 C238 C 0.03122 0.61215 0.68159
 C239 C 0.03091 0.57854 0.71324
 N240 N -0.00201 0.54764 0.71235
 H241 H 0.08117 0.44391 0.76080
 H242 H 0.02522 0.55651 0.82140
 H243 H 0.08611 0.56104 0.87650
 H244 H 0.14454 0.44657 0.81394
 H245 H -0.06091 0.52349 0.68105
 H246 H -0.06315 0.58197 0.62435
 H247 H 0.05760 0.63648 0.68323
 H248 H 0.05756 0.57664 0.73777
 C249 C 0.00254 0.38108 0.64795
 C250 C -0.11694 0.49700 0.85125
 C251 C -0.00242 0.61350 0.64839
 C252 C 0.12145 0.50466 0.84908
 C253 C 0.03907 0.21894 0.49765
 C254 C 0.05054 0.19232 0.46358
 C255 C 0.08883 0.16217 0.46512
 C256 C 0.10729 0.14723 0.50325
 H257 H 0.03192 0.19367 0.43226
 H258 H 0.10020 0.14994 0.43307
 H259 H 0.05780 0.21826 0.52887
 H260 H 0.09310 0.15593 0.53527
 C261 C 0.71741 0.54526 -0.00401
 C262 C 0.69635 0.55981 -0.04097
 C263 C 0.66407 0.59623 -0.04188
 C264 C 0.65598 0.62360 -0.00728
 H265 H 0.70123 0.54272 -0.07257
 H266 H 0.64656 0.60008 -0.07344
 H267 H 0.71024 0.55966 0.02840
 H268 H 0.67579 0.62160 0.02314
 C269 C 0.95891 -0.22242 0.50018
 C270 C 0.94358 -0.20104 0.53651
 C271 C 0.90792 -0.16783 0.53626
 C272 C 0.88250 -0.15763 0.50053
 H273 H 0.95928 -0.20657 0.56884
 H274 H 0.90280 -0.15133 0.56804
 H275 H 0.94531 -0.21526 0.46731
 H276 H 0.88539 -0.17615 0.46956
 C277 C 0.28320 0.46126 0.99984
 C278 C 0.31088 0.45053 1.03367
 C279 C 0.34031 0.41185 1.03318
 C280 C 0.35592 0.39323 0.99559
 H281 H 0.31099 0.47024 1.06418
 H282 H 0.35209 0.40067 1.06555
 H283 H 0.28197 0.44096 0.96974
 H284 H 0.34786 0.40731 0.96329
 C285 C 0.95747 0.21975 0.49466
 C286 C 0.94667 0.19444 0.52961
 C287 C 0.90834 0.16371 0.52942
 C288 C 0.89106 0.14514 0.49194
 H289 H 0.96629 0.19689 0.56030
 H290 H 0.89653 0.15365 0.56191
 H291 H 0.93705 0.21830 0.46447
 H292 H 0.90603 0.15180 0.45986
 C293 C 0.28472 0.54228 0.00304
 C294 C 0.30985 0.55332 -0.03207
 C295 C 0.33984 0.59209 -0.03280
 C296 C 0.35674 0.61187 0.00419
 H297 H 0.30707 0.53396 -0.06273
 H298 H 0.35038 0.60271 -0.06556
 H299 H 0.28635 0.56189 0.03353
 H300 H 0.34970 0.59857 0.03690
 C301 C 0.04013 -0.22129 0.50154
 C302 C 0.05501 -0.19885 0.53787
 C303 C 0.09265 -0.16729 0.53766
 C304 C 0.10765 -0.14757 0.50062
 H305 H 0.03977 -0.20457 0.57000
 H306 H 0.10637 -0.15817 0.57020
 H307 H 0.05552 -0.21602 0.46942
 H308 H 0.09115 -0.15359 0.46865
 C309 C 0.71407 0.46485 0.99584
 C310 C 0.72723 0.42272 0.99444
 C311 C 0.69558 0.38524 0.99396
 C312 C 0.65609 0.38688 1.01424
 H313 H 0.76216 0.41535 0.99108
 H314 H 0.70628 0.35520 0.97781
 H315 H 0.67877 0.47155 0.99650
 H316 H 0.64800 0.41568 1.03411
 C317 C 0.49482 0.04414 1.21959
 C318 C 0.45821 0.05971 1.19904
 C319 C 0.45791 0.09494 1.16509
 C320 C 0.49226 0.12206 1.15696
 H321 H 0.42631 0.04470 1.20577
 H322 H 0.42693 0.09860 1.14688
 H323 H 0.52695 0.05722 1.21075
 H324 H 0.52195 0.12036 1.17766
 C325 C -0.00176 0.71880 0.54342
 C326 C 0.03420 0.69831 0.55993
 C327 C 0.03357 0.66745 0.59800
 C328 C -0.00308 0.64678 0.61238
 H329 H 0.06636 0.70502 0.54559
 H330 H 0.06560 0.65957 0.61250
 H331 H -0.03396 0.71248 0.55776
 H332 H -0.03448 0.65160 0.59518
 C333 C 0.50413 0.96133 -0.22189
 C334 C 0.53799 0.94844 -0.19545
 C335 C 0.53655 0.90970 -0.16587
 C336 C 0.49899 0.89141 -0.15065
 H337 H 0.56910 0.96648 -0.19614
 H338 H 0.56835 0.89812 -0.15371
 H339 H 0.47330 0.94278 -0.22213
 H340 H 0.46723 0.90569 -0.15923
 C341 C 0.99850 0.27684 0.45282
 C342 C 1.03487 0.29720 0.43729
 C343 C 1.03461 0.32786 0.39902
 C344 C 0.99846 0.34968 0.38502
 H345 H 1.06686 0.29085 0.45279
 H346 H 1.06656 0.33491 0.38448
 H347 H 0.96670 0.28267 0.43673
 H348 H 0.96749 0.34558 0.40252
 C349 C 0.49630 0.96272 0.22283
 C350 C 0.46277 0.94916 0.19575
 C351 C 0.46444 0.90996 0.16610
 C352 C 0.50217 0.89303 0.15013
 H353 H 0.43177 0.96691 0.19592
 H354 H 0.43274 0.89718 0.15414
 H355 H 0.52653 0.94371 0.22412
 H356 H 0.53366 0.90868 0.15850
 C357 C -0.00242 0.28040 0.53517
 C358 C 0.03375 0.30284 0.54971
 C359 C 0.03471 0.33634 0.58605
 C360 C 0.00071 0.34569 0.61316
 H361 H 0.06509 0.29746 0.53323
 H362 H 0.06610 0.35337 0.59051
 H363 H -0.03447 0.28720 0.54952
 H364 H -0.02967 0.32661 0.61066
 C365 C 0.50558 0.04215 0.78156
 C366 C 0.54241 0.06011 0.80037
 C367 C 0.54272 0.09533 0.83504
 C368 C 0.50788 0.12086 0.84477
 H369 H 0.57454 0.04693 0.79188
 H370 H 0.57413 0.10062 0.85230
 H371 H 0.47330 0.05285 0.79262
 H372 H 0.47768 0.11795 0.82486
 C373 C 0.99898 0.71781 0.46129
 C374 C 1.03548 0.69678 0.44720
 C375 C 1.03670 0.66336 0.41079
 C376 C 1.00247 0.65261 0.38335
 H377 H 1.06684 0.70310 0.46435
 H378 H 1.06834 0.64742 0.40677
 H379 H 0.96697 0.70990 0.44627
 H380 H 0.97174 0.67058 0.38543
 C381 C 1.22558 0.50026 0.04372
 C382 C 1.20128 0.53461 0.05750
 C383 C 1.17073 0.53362 0.09591
 C384 C 1.15179 0.49679 0.11146
 H385 H 1.20429 0.56567 0.04034
 H386 H 1.16087 0.56528 0.10913
 H387 H 1.22329 0.46939 0.06136
 H388 H 1.15830 0.46555 0.09521
 C389 C 0.54770 0.00236 0.72025
 C390 C 0.55800 0.03651 0.69396
 C391 C 0.59470 0.03755 0.66135
 C392 C 0.61967 0.00285 0.64992
 H393 H 0.53774 0.06575 0.69580
 H394 H 0.60010 0.06888 0.64543
 H395 H 0.56707 -0.02736 0.71907
 H396 H 0.61526 -0.02818 0.66665
 C397 C -0.22492 0.50185 0.95395
 C398 C -0.19886 0.53559 0.94172
 C399 C -0.16843 0.53423 0.90327
 C400 C -0.15076 0.49711 0.88691
 H401 H -0.20061 0.56651 0.95989
 H402 H -0.15753 0.56575 0.89076
 H403 H -0.22474 0.47168 0.93435
 H404 H -0.15822 0.46599 0.90256
 C405 C 0.45238 0.00380 0.27987
 C406 C 0.43966 0.03912 0.30381
 C407 C 0.40293 0.03995 0.33635
 C408 C 0.37754 0.00519 0.34718
 H409 H 0.45827 0.06954 0.30052
 H410 H 0.39761 0.07143 0.35245
 H411 H 0.43542 -0.02738 0.28353
 H412 H 0.38127 -0.02580 0.32966
 C413 C 0.22248 0.50155 0.96151
 C414 C 0.20470 0.53820 0.94418
 C415 C 0.16978 0.53871 0.90877
 C416 C 0.15855 0.50412 0.88245
 H417 H 0.21417 0.56992 0.95825
 H418 H 0.15345 0.56988 0.90420
 H419 H 0.21041 0.46972 0.95001
 H420 H 0.17749 0.47413 0.88453
 C421 C 0.53379 0.00681 0.28311
 C422 C 0.57620 0.00690 0.26960
 C423 C 0.61430 0.00794 0.30147
 C424 C 0.61285 -0.01123 0.34181
 H425 H 0.58341 0.00768 0.23410
 H426 H 0.64479 0.02290 0.29007
 H427 H 0.52746 0.00845 0.31884
 H428 H 0.58354 -0.02998 0.35060
 C429 C 0.77613 0.50238 0.03697
 C430 C 0.79746 0.53810 0.05374
 C431 C 0.83154 0.53787 0.08999
 C432 C 0.84299 0.50264 0.11427
 H433 H 0.79132 0.56984 0.03888
 H434 H 0.84779 0.56916 0.09649
 H435 H 0.78374 0.47035 0.05024
 H436 H 0.82480 0.47206 0.11019
 C437 C 0.46596 0.00369 0.71855
 C438 C 0.45803 -0.02851 0.68819
 C439 C 0.42198 -0.02839 0.65408
 C440 C 0.38492 -0.00425 0.65675
 H441 H 0.48100 -0.05570 0.68632
 H442 H 0.42709 -0.04992 0.62561
 H443 H 0.44501 0.03245 0.71910
 H444 H 0.38025 0.01730 0.68540
   
