data_POSCAR
  _audit_creation_date              2014-09-24
  _audit_creation_method            'ToBaCCo'
  _symmetry_space_group_name_H-M    'P1'
  _symmetry_Int_Tables_number       1
  _symmetry_cell_setting            triclinic
  loop_
  _symmetry_equiv_pos_as_xyz
 x,y,z
_cell_length_a 47.4811
_cell_length_b 47.4782
_cell_length_c 45.4679
_cell_angle_alpha 90.027200
_cell_angle_beta 89.913800
_cell_angle_gamma 89.996200
loop_
  _atom_site_label
  _atom_site_type_symbol
  _atom_site_fract_x
  _atom_site_fract_y
  _atom_site_fract_z
C1 C 0.29308 0.28815 0.23805
 H2 H 0.29448 0.28862 0.26179
 C3 C 0.31118 0.30474 0.22113
 H4 H 0.32653 0.31815 0.23182
 C5 C 0.27154 0.26993 0.19501
 H6 H 0.25636 0.25607 0.18489
 C7 C 0.28925 0.28618 0.17727
 H8 H 0.28745 0.28500 0.15355
 N9 N 0.27350 0.27148 0.22484
 C10 C 0.20726 0.26061 0.29052
 H11 H 0.20592 0.23787 0.29123
 C12 C 0.18933 0.27690 0.30798
 H13 H 0.17417 0.26674 0.32229
 C14 C 0.22842 0.30174 0.27078
 H15 H 0.24335 0.31138 0.25596
 C16 C 0.21088 0.31881 0.28787
 H17 H 0.21258 0.34152 0.28636
 Zn18 Zn 0.24991 0.24961 0.24949
 N19 N 0.22657 0.27318 0.27268
 C20 C 0.27217 0.22920 0.30357
 N21 N 0.27363 0.22750 0.27371
 C22 C 0.29283 0.21058 0.26018
 C23 C 0.31106 0.19390 0.27680
 C24 C 0.29003 0.21287 0.32102
 C25 C 0.20654 0.23908 0.20931
 C26 C 0.18813 0.22300 0.19224
 C27 C 0.20948 0.18085 0.21197
 C28 C 0.22751 0.19771 0.22865
 N29 N 0.22597 0.22629 0.22676
 H30 H 0.25731 0.24326 0.31394
 H31 H 0.29384 0.20999 0.23641
 H32 H 0.32612 0.18032 0.26586
 H33 H 0.28865 0.21420 0.34476
 H34 H 0.20546 0.26184 0.20860
 H35 H 0.17286 0.23334 0.17824
 H36 H 0.21091 0.15812 0.21347
 H37 H 0.24256 0.18791 0.24318
 C38 C 0.19125 0.30627 0.30670
 C39 C 0.30915 0.30383 0.19047
 C40 C 0.18970 0.19362 0.19353
 C41 C 0.30956 0.19499 0.30749
 C42 C 0.79391 0.78873 0.23799
 H43 H 0.79532 0.78925 0.26173
 C44 C 0.81196 0.80535 0.22103
 H45 H 0.82727 0.81879 0.23176
 C46 C 0.77238 0.77039 0.19501
 H47 H 0.75722 0.75648 0.18493
 C48 C 0.79003 0.78665 0.17721
 H49 H 0.78814 0.78537 0.15349
 N50 N 0.77435 0.77200 0.22483
 C51 C 0.70809 0.76119 0.29050
 H52 H 0.70676 0.73845 0.29124
 C53 C 0.69013 0.77750 0.30792
 H54 H 0.67496 0.76734 0.32223
 C55 C 0.72924 0.80231 0.27073
 H56 H 0.74419 0.81194 0.25591
 C57 C 0.71168 0.81939 0.28777
 H58 H 0.71336 0.84210 0.28624
 Zn59 Zn 0.75077 0.75015 0.24953
 N60 N 0.72741 0.77375 0.27267
 C61 C 0.77297 0.72978 0.30365
 N62 N 0.77448 0.72808 0.27380
 C63 C 0.79369 0.71114 0.26031
 C64 C 0.81183 0.69440 0.27698
 C65 C 0.79074 0.71340 0.32114
 C66 C 0.70742 0.73952 0.20935
 C67 C 0.68903 0.72339 0.19231
 C68 C 0.71040 0.68129 0.21213
 C69 C 0.72841 0.69821 0.22879
 N70 N 0.72685 0.72678 0.22684
 H71 H 0.75810 0.74386 0.31399
 H72 H 0.79474 0.71055 0.23654
 H73 H 0.82687 0.68077 0.26606
 H74 H 0.78929 0.71470 0.34488
 H75 H 0.70632 0.76227 0.20860
 H76 H 0.67376 0.73369 0.17828
 H77 H 0.71186 0.65857 0.21368
 H78 H 0.74346 0.68844 0.24335
 C79 C 0.69203 0.80686 0.30660
 C80 C 0.80990 0.80439 0.19035
 C81 C 0.69062 0.69401 0.19366
 C82 C 0.81024 0.69546 0.30766
 C83 C 0.79405 0.28742 0.73956
 H84 H 0.79543 0.28793 0.76331
 C85 C 0.81214 0.30400 0.72262
 H86 H 0.82747 0.31744 0.73331
 C87 C 0.77254 0.26914 0.69654
 H88 H 0.75737 0.25526 0.68642
 C89 C 0.79024 0.28538 0.67878
 H90 H 0.78844 0.28417 0.65507
 N91 N 0.77447 0.27073 0.72637
 C92 C 0.70809 0.26008 0.79193
 H93 H 0.70671 0.23734 0.79270
 C94 C 0.69011 0.27644 0.80928
 H95 H 0.67489 0.26633 0.82356
 C96 C 0.72935 0.30113 0.77214
 H97 H 0.74433 0.31071 0.75734
 C98 C 0.71177 0.31827 0.78911
 H99 H 0.71350 0.34097 0.78753
 Zn100 Zn 0.75080 0.24893 0.75101
 N101 N 0.72746 0.27258 0.77412
 C102 C 0.77290 0.22845 0.80514
 N103 N 0.77443 0.22678 0.77529
 C104 C 0.79361 0.20982 0.76179
 C105 C 0.81175 0.19305 0.77843
 C106 C 0.79064 0.21205 0.82264
 C107 C 0.70748 0.23847 0.71076
 C108 C 0.68910 0.22242 0.69363
 C109 C 0.71035 0.18023 0.71338
 C110 C 0.72835 0.19706 0.73013
 N111 N 0.72686 0.22564 0.72825
 H112 H 0.75804 0.24255 0.81548
 H113 H 0.79467 0.20926 0.73803
 H114 H 0.82676 0.17946 0.76737
 H115 H 0.78909 0.21345 0.84640
 H116 H 0.70644 0.26123 0.71006
 H117 H 0.67389 0.23279 0.67958
 H118 H 0.71176 0.15750 0.71486
 H119 H 0.74336 0.18723 0.74469
 C120 C 0.69206 0.30580 0.80791
 C121 C 0.81011 0.30306 0.69196
 C122 C 0.69064 0.19303 0.69489
 C123 C 0.81018 0.19408 0.80917
 C124 C 0.29296 0.78880 0.73848
 H125 H 0.29435 0.78934 0.76222
 C126 C 0.31106 0.80537 0.72152
 H127 H 0.32638 0.81883 0.73219
 C128 C 0.27148 0.77044 0.69548
 H129 H 0.25633 0.75653 0.68538
 C130 C 0.28918 0.78667 0.67770
 H131 H 0.28740 0.78541 0.65399
 N132 N 0.27341 0.77207 0.72531
 C133 C 0.20717 0.76118 0.79099
 H134 H 0.20589 0.73844 0.79175
 C135 C 0.18917 0.77747 0.80838
 H136 H 0.17401 0.76730 0.82269
 C137 C 0.22825 0.80232 0.77117
 H138 H 0.24317 0.81196 0.75634
 C139 C 0.21064 0.81938 0.78818
 H140 H 0.21228 0.84209 0.78662
 Zn141 Zn 0.24985 0.75019 0.74999
 N142 N 0.22647 0.77376 0.77314
 C143 C 0.27213 0.72979 0.80408
 N144 N 0.27361 0.72814 0.77422
 C145 C 0.29285 0.71127 0.76068
 C146 C 0.31108 0.69459 0.77729
 C147 C 0.28999 0.71345 0.82152
 C148 C 0.20653 0.73953 0.70979
 C149 C 0.18818 0.72337 0.69272
 C150 C 0.20961 0.68130 0.71253
 C151 C 0.22757 0.69823 0.72922
 N152 N 0.22597 0.72680 0.72729
 H153 H 0.25723 0.74381 0.81447
 H154 H 0.29387 0.71072 0.73691
 H155 H 0.32616 0.68103 0.76633
 H156 H 0.28857 0.71473 0.84527
 H157 H 0.20540 0.76227 0.70905
 H158 H 0.17292 0.73366 0.67867
 H159 H 0.21110 0.65858 0.71407
 H160 H 0.24262 0.68848 0.74379
 C161 C 0.19101 0.80683 0.80702
 C162 C 0.30905 0.80437 0.69086
 C163 C 0.18983 0.69399 0.69404
 C164 C 0.30954 0.69561 0.80798
 C165 C 0.03720 0.04361 0.01121
 H166 H 0.03771 0.04501 -0.01253
 C167 C 0.05379 0.06170 0.02812
 H168 H 0.06722 0.07704 0.01741
 C169 C 0.01895 0.02206 0.05427
 H170 H 0.00508 0.00688 0.06441
 C171 C 0.03519 0.03976 0.07199
 H172 H 0.03400 0.03794 0.09571
 N173 N 0.02053 0.02402 0.02444
 C174 C 0.00988 -0.04230 -0.04112
 H175 H -0.01285 -0.04366 -0.04188
 C176 C 0.02625 -0.06026 -0.05848
 H177 H 0.01615 -0.07546 -0.07276
 C178 C 0.05092 -0.02107 -0.02134
 H179 H 0.06050 -0.00611 -0.00653
 C180 C 0.06806 -0.03863 -0.03831
 H181 H 0.09076 -0.03692 -0.03674
 Zn182 Zn -0.00128 0.00038 -0.00018
 N183 N 0.02237 -0.02295 -0.02331
 C184 C -0.02171 0.02255 -0.05431
 N185 N -0.02341 0.02404 -0.02445
 C186 C -0.04036 0.04323 -0.01095
 C187 C -0.05709 0.06140 -0.02761
 C188 C -0.03808 0.04034 -0.07179
 C189 C -0.01178 -0.04297 0.04008
 C190 C -0.02786 -0.06138 0.05720
 C191 C -0.07002 -0.04010 0.03745
 C192 C -0.05316 -0.02208 0.02071
 N193 N -0.02459 -0.02357 0.02259
 H194 H -0.00762 0.00769 -0.06466
 H195 H -0.04095 0.04427 0.01281
 H196 H -0.07071 0.07644 -0.01669
 H197 H -0.03676 0.03892 -0.09553
 H198 H 0.01097 -0.04403 0.04078
 H199 H -0.01750 -0.07662 0.07124
 H200 H -0.09274 -0.03869 0.03596
 H201 H -0.06298 -0.00705 0.00615
 C202 C 0.05561 -0.05832 -0.05711
 C203 C 0.05286 0.05965 0.05878
 C204 C -0.05724 -0.05984 0.05593
 C205 C -0.05600 0.05984 -0.05830
 C206 C 0.03828 0.54312 0.51162
 H207 H 0.03881 0.54447 0.48788
 C208 C 0.05482 0.56126 0.52852
 H209 H 0.06824 0.57660 0.51780
 C210 C 0.01998 0.52164 0.55470
 H211 H 0.00611 0.50647 0.56485
 C212 C 0.03618 0.53939 0.57241
 H213 H 0.03495 0.53763 0.59613
 N214 N 0.02160 0.52354 0.52487
 C215 C 0.01086 0.45717 0.45940
 H216 H -0.01187 0.45581 0.45869
 C217 C 0.02719 0.43919 0.44201
 H218 H 0.01705 0.42399 0.42776
 C219 C 0.05196 0.47840 0.47907
 H220 H 0.06156 0.49337 0.49384
 C221 C 0.06906 0.46082 0.46206
 H222 H 0.09176 0.46253 0.46357
 Zn223 Zn -0.00022 0.49988 0.50028
 N224 N 0.02340 0.47652 0.47717
 C225 C -0.02061 0.52203 0.44614
 N226 N -0.02234 0.52353 0.47599
 C227 C -0.03929 0.54273 0.48947
 C228 C -0.05597 0.56092 0.47279
 C229 C -0.03693 0.53984 0.42864
 C230 C -0.01069 0.45657 0.54059
 C231 C -0.02674 0.43818 0.55774
 C232 C -0.06893 0.45945 0.53803
 C233 C -0.05209 0.47746 0.52125
 N234 N -0.02351 0.47596 0.52309
 H235 H -0.00651 0.50716 0.43581
 H236 H -0.03991 0.54378 0.51323
 H237 H -0.06958 0.57599 0.48368
 H238 H -0.03557 0.53842 0.40489
 H239 H 0.01206 0.45552 0.54125
 H240 H -0.01637 0.42295 0.57178
 H241 H -0.09166 0.46086 0.53657
 H242 H -0.06192 0.49247 0.50669
 C243 C 0.05655 0.44113 0.44330
 C244 C 0.05384 0.55928 0.55918
 C245 C -0.05612 0.43972 0.55651
 C246 C -0.05484 0.55937 0.44210
 C247 C 0.53881 0.04349 0.51154
 H248 H 0.53941 0.04492 0.48780
 C249 C 0.55537 0.06152 0.52855
 H250 H 0.56888 0.07684 0.51792
 C251 C 0.52031 0.02194 0.55448
 H252 H 0.50635 0.00679 0.56454
 C253 C 0.53652 0.03958 0.57230
 H254 H 0.53522 0.03774 0.59602
 N255 N 0.52202 0.02393 0.52466
 C256 C 0.51136 -0.04227 0.45898
 H257 H 0.48862 -0.04358 0.45818
 C258 C 0.52771 -0.06023 0.44160
 H259 H 0.51758 -0.07538 0.42727
 C260 C 0.55242 -0.02117 0.47885
 H261 H 0.56201 -0.00625 0.49369
 C262 C 0.56954 -0.03874 0.46186
 H263 H 0.59225 -0.03707 0.46346
 Zn264 Zn 0.50023 0.00039 0.49992
 N265 N 0.52387 -0.02298 0.47684
 C266 C 0.47998 0.02264 0.44576
 N267 N 0.47824 0.02414 0.47561
 C268 C 0.46129 0.04335 0.48909
 C269 C 0.44460 0.06152 0.47240
 C270 C 0.46365 0.04044 0.42826
 C271 C 0.48945 -0.04298 0.54011
 C272 C 0.47324 -0.06133 0.55717
 C273 C 0.43123 -0.03989 0.53726
 C274 C 0.44821 -0.02193 0.52058
 N275 N 0.47677 -0.02352 0.52258
 H276 H 0.49407 0.00776 0.43544
 H277 H 0.46066 0.04439 0.51285
 H278 H 0.43096 0.07657 0.48330
 H279 H 0.46499 0.03900 0.40451
 H280 H 0.51219 -0.04411 0.54090
 H281 H 0.48349 -0.07660 0.57124
 H282 H 0.40851 -0.03840 0.53568
 H283 H 0.43850 -0.00687 0.50599
 C284 C 0.55706 -0.05835 0.44300
 C285 C 0.55430 0.05943 0.55920
 C286 C 0.44387 -0.05968 0.55579
 C287 C 0.44571 0.05995 0.44171
 C288 C 0.53865 0.54353 0.01133
 H289 H 0.53921 0.54491 -0.01241
 C290 C 0.55522 0.56162 0.02826
 H291 H 0.56869 0.57694 0.01757
 C292 C 0.52026 0.52206 0.05437
 H293 H 0.50634 0.50691 0.06449
 C294 C 0.53648 0.53976 0.07211
 H295 H 0.53522 0.53798 0.09583
 N296 N 0.52191 0.52399 0.02453
 C297 C 0.51118 0.45768 -0.04102
 H298 H 0.48845 0.45639 -0.04183
 C299 C 0.52753 0.43964 -0.05831
 H300 H 0.51740 0.42445 -0.07260
 C301 C 0.55226 0.47878 -0.02116
 H302 H 0.56185 0.49373 -0.00635
 C303 C 0.56937 0.46113 -0.03807
 H304 H 0.59208 0.46276 -0.03644
 Zn305 Zn 0.50008 0.50040 -0.00012
 N306 N 0.52371 0.47700 -0.02319
 C307 C 0.47974 0.52261 -0.05427
 N308 N 0.47806 0.52412 -0.02442
 C309 C 0.46115 0.54335 -0.01092
 C310 C 0.44446 0.56154 -0.02757
 C311 C 0.46340 0.54042 -0.07175
 C312 C 0.48937 0.45708 0.04014
 C313 C 0.47320 0.43870 0.05720
 C314 C 0.43115 0.46008 0.03729
 C315 C 0.44810 0.47807 0.02061
 N316 N 0.47667 0.47651 0.02260
 H317 H 0.49379 0.50770 -0.06462
 H318 H 0.46057 0.54440 0.01285
 H319 H 0.43087 0.57662 -0.01665
 H320 H 0.46470 0.53898 -0.09550
 H321 H 0.51212 0.45598 0.04092
 H322 H 0.48347 0.42344 0.07127
 H323 H 0.40843 0.46154 0.03570
 H324 H 0.43837 0.49311 0.00602
 C325 C 0.55689 0.44147 -0.05687
 C326 C 0.55421 0.55961 0.05892
 C327 C 0.44382 0.44031 0.05581
 C328 C 0.44552 0.55997 -0.05826
 C329 C 0.17285 -0.17592 -0.17513
 C330 C 0.15778 -0.16132 -0.16017
 C331 C 0.13997 -0.14371 -0.14230
 C332 C 0.15070 -0.11884 -0.13008
 C333 C 0.13344 -0.10165 -0.11277
 C334 C 0.10535 -0.10925 -0.10759
 C335 C 0.09461 -0.13413 -0.11980
 C336 C 0.11188 -0.15133 -0.13712
 C337 C 0.08763 -0.09148 -0.08982
 C338 C 0.07294 -0.07644 -0.07491
 H339 H 0.17239 -0.11275 -0.13395
 H340 H 0.14196 -0.08246 -0.10344
 H341 H 0.07292 -0.14020 -0.11594
 H342 H 0.10337 -0.17051 -0.14647
 C343 C 0.17318 0.32352 0.32466
 C344 C 0.15820 0.33812 0.33971
 C345 C 0.14050 0.35572 0.35769
 C346 C 0.11243 0.34812 0.36302
 C347 C 0.09526 0.36532 0.38046
 C348 C 0.10609 0.39018 0.39261
 C349 C 0.13415 0.39777 0.38728
 C350 C 0.15131 0.38058 0.36986
 C351 C 0.08845 0.40796 0.41048
 C352 C 0.07383 0.42300 0.42545
 H353 H 0.10386 0.32895 0.35371
 H354 H 0.07359 0.35926 0.38443
 H355 H 0.14273 0.41695 0.39657
 H356 H 0.17298 0.38666 0.36587
 C357 C 0.67393 -0.17588 0.32451
 C358 C 0.65892 -0.16128 0.33953
 C359 C 0.64117 -0.14368 0.35747
 C360 C 0.65189 -0.11870 0.36947
 C361 C 0.63469 -0.10153 0.38686
 C362 C 0.60669 -0.10925 0.39234
 C363 C 0.59596 -0.13423 0.38036
 C364 C 0.61318 -0.15142 0.36296
 C365 C 0.58902 -0.09149 0.41020
 C366 C 0.57437 -0.07647 0.42515
 H367 H 0.67350 -0.11252 0.36536
 H368 H 0.64319 -0.08225 0.39601
 H369 H 0.57434 -0.14040 0.38446
 H370 H 0.60468 -0.17069 0.35379
 C371 C 0.67392 0.32313 -0.17430
 C372 C 0.65888 0.33781 -0.15939
 C373 C 0.64110 0.35552 -0.14160
 C374 C 0.65209 0.38003 -0.12885
 C375 C 0.63486 0.39733 -0.11163
 C376 C 0.60655 0.39020 -0.10707
 C377 C 0.59556 0.36568 -0.11980
 C378 C 0.61280 0.34836 -0.13703
 C379 C 0.58886 0.40810 -0.08940
 C380 C 0.57419 0.42323 -0.07458
 H381 H 0.67394 0.38576 -0.13225
 H382 H 0.64358 0.41625 -0.10190
 H383 H 0.57370 0.35997 -0.11642
 H384 H 0.60409 0.32946 -0.14679
 C385 C -0.17324 0.17834 -0.17485
 C386 C -0.15804 0.16372 -0.16010
 C387 C -0.14001 0.14615 -0.14251
 C388 C -0.14127 0.14765 -0.11175
 C389 C -0.12400 0.13033 -0.09465
 C390 C -0.10539 0.11144 -0.10823
 C391 C -0.10407 0.11001 -0.13898
 C392 C -0.12135 0.12733 -0.15608
 C393 C -0.08786 0.09338 -0.09063
 C394 C -0.07328 0.07814 -0.07589
 H395 H -0.15565 0.16211 -0.10103
 H396 H -0.12520 0.13159 -0.07089
 H397 H -0.08978 0.09546 -0.14971
 H398 H -0.12023 0.12598 -0.17985
 C399 C -0.17153 0.67813 0.32527
 C400 C -0.15638 0.66349 0.34004
 C401 C -0.13843 0.64589 0.35768
 C402 C -0.11985 0.62695 0.34415
 C403 C -0.10266 0.60958 0.36130
 C404 C -0.10398 0.61109 0.39205
 C405 C -0.12250 0.63010 0.40558
 C406 C -0.13969 0.64746 0.38843
 C407 C -0.08655 0.59298 0.40970
 C408 C -0.07204 0.57771 0.42447
 H409 H -0.11873 0.62554 0.32039
 H410 H -0.08844 0.59494 0.35062
 H411 H -0.12370 0.63142 0.42934
 H412 H -0.15400 0.66202 0.39911
 C413 C 0.32794 0.17778 0.32506
 C414 C 0.34324 0.16327 0.33980
 C415 C 0.36137 0.14583 0.35740
 C416 C 0.37997 0.12692 0.34384
 C417 C 0.39735 0.10972 0.36096
 C418 C 0.39619 0.11134 0.39171
 C419 C 0.37765 0.13031 0.40527
 C420 C 0.36028 0.14751 0.38815
 C421 C 0.41379 0.09337 0.40933
 C422 C 0.42841 0.07819 0.42409
 H423 H 0.38097 0.12543 0.32008
 H424 H 0.41158 0.09510 0.35025
 H425 H 0.37657 0.13171 0.42903
 H426 H 0.34595 0.16204 0.39886
 C427 C 0.32790 0.67835 -0.17447
 C428 C 0.34317 0.66377 -0.15979
 C429 C 0.36129 0.64624 -0.14226
 C430 C 0.37975 0.62726 -0.15590
 C431 C 0.39710 0.60995 -0.13885
 C432 C 0.39605 0.61156 -0.10810
 C433 C 0.37765 0.63061 -0.09446
 C434 C 0.36030 0.64791 -0.11150
 C435 C 0.41363 0.59350 -0.09056
 C436 C 0.42823 0.57827 -0.07584
 H437 H 0.38066 0.62577 -0.17966
 H438 H 0.41123 0.59528 -0.14962
 H439 H 0.37666 0.63200 -0.07070
 H440 H 0.34608 0.66250 -0.10073
 C441 C -0.17298 -0.17927 0.17340
 C442 C -0.15794 -0.16468 0.15840
 C443 C -0.14015 -0.14709 0.14052
 C444 C -0.14758 -0.14132 0.11132
 C445 C -0.13052 -0.12389 0.09406
 C446 C -0.10595 -0.11215 0.10592
 C447 C -0.09847 -0.11800 0.13508
 C448 C -0.11553 -0.13543 0.15235
 C449 C -0.08864 -0.09388 0.08828
 C450 C -0.07425 -0.07843 0.07352
 H451 H -0.16658 -0.15020 0.10197
 H452 H -0.13652 -0.11948 0.07155
 H453 H -0.07954 -0.10901 0.14448
 H454 H -0.10961 -0.13973 0.17491
 C455 C -0.17176 0.32031 0.67409
 C456 C -0.15671 0.33490 0.65912
 C457 C -0.13889 0.35249 0.64127
 C458 C -0.14426 0.35535 0.61112
 C459 C -0.12721 0.37279 0.59384
 C460 C -0.10473 0.38743 0.60664
 C461 C -0.09930 0.38449 0.63676
 C462 C -0.11635 0.36706 0.65404
 C463 C -0.08747 0.40571 0.58894
 C464 C -0.07312 0.42114 0.57414
 H465 H -0.16166 0.34421 0.60103
 H466 H -0.13162 0.37493 0.57058
 H467 H -0.08199 0.39575 0.64689
 H468 H -0.11203 0.36502 0.67734
 C469 C 0.32723 -0.17846 0.67297
 C470 C 0.34235 -0.16394 0.65800
 C471 C 0.36027 -0.14646 0.64015
 C472 C 0.38537 -0.13565 0.65174
 C473 C 0.40258 -0.11832 0.63451
 C474 C 0.39475 -0.11173 0.60562
 C475 C 0.36970 -0.12262 0.59400
 C476 C 0.35249 -0.13995 0.61122
 C477 C 0.41222 -0.09356 0.58803
 C478 C 0.42672 -0.07819 0.57332
 H479 H 0.39157 -0.14053 0.67409
 H480 H 0.42189 -0.10999 0.64373
 H481 H 0.36343 -0.11763 0.57170
 H482 H 0.33311 -0.14816 0.60205
 C483 C 0.32732 0.32105 0.17262
 C484 C 0.34243 0.33562 0.15769
 C485 C 0.36034 0.35318 0.13989
 C486 C 0.35254 0.35978 0.11100
 C487 C 0.36973 0.37719 0.09384
 C488 C 0.39477 0.38806 0.10550
 C489 C 0.40262 0.38137 0.13436
 C490 C 0.38543 0.36396 0.15152
 C491 C 0.41222 0.40631 0.08797
 C492 C 0.42670 0.42173 0.07330
 H493 H 0.33317 0.35158 0.10180
 H494 H 0.36344 0.38225 0.07156
 H495 H 0.42192 0.38969 0.14360
 H496 H 0.39164 0.35901 0.17385
 C497 C 0.17109 0.17658 0.17602
 C498 C 0.15562 0.16219 0.16133
 C499 C 0.13732 0.14485 0.14378
 C500 C 0.13120 0.15246 0.11472
 C501 C 0.11374 0.13538 0.09753
 C502 C 0.10233 0.11063 0.10935
 C503 C 0.10837 0.10307 0.13845
 C504 C 0.12583 0.12015 0.15563
 C505 C 0.08472 0.09281 0.09155
 C506 C 0.07012 0.07776 0.07662
 H507 H 0.14000 0.17150 0.10532
 H508 H 0.10923 0.14140 0.07504
 H509 H 0.09969 0.08396 0.14780
 H510 H 0.13045 0.11405 0.17807
 C511 C 0.17131 0.67689 0.67650
 C512 C 0.15594 0.66242 0.66179
 C513 C 0.13775 0.64499 0.64422
 C514 C 0.12581 0.62060 0.65629
 C515 C 0.10848 0.60341 0.63909
 C516 C 0.10301 0.61054 0.60975
 C517 C 0.11486 0.63499 0.59771
 C518 C 0.13220 0.65218 0.61491
 C519 C 0.08552 0.59263 0.59194
 C520 C 0.07101 0.57749 0.57701
 H521 H 0.13000 0.61482 0.67891
 H522 H 0.09945 0.58454 0.64861
 H523 H 0.11080 0.64068 0.57503
 H524 H 0.14135 0.67097 0.60535
 C525 C 0.67209 0.17604 0.67727
 C526 C 0.65668 0.16168 0.66248
 C527 C 0.63845 0.14439 0.64480
 C528 C 0.62679 0.11974 0.65657
 C529 C 0.60940 0.10271 0.63926
 C530 C 0.60360 0.11026 0.61011
 C531 C 0.61518 0.13497 0.59836
 C532 C 0.63257 0.15200 0.61567
 C533 C 0.58606 0.09250 0.59218
 C534 C 0.57151 0.07750 0.57715
 H535 H 0.63122 0.11364 0.67905
 H536 H 0.60058 0.08363 0.64855
 H537 H 0.61086 0.14099 0.57583
 H538 H 0.64151 0.17101 0.60634
 C539 C 0.67205 0.67693 0.17616
 C540 C 0.65662 0.66248 0.16148
 C541 C 0.63837 0.64508 0.14395
 C542 C 0.63210 0.65274 0.11493
 C543 C 0.61470 0.63559 0.09775
 C544 C 0.60351 0.61072 0.10952
 C545 C 0.60970 0.60311 0.13857
 C546 C 0.62710 0.62026 0.15575
 C547 C 0.58596 0.59285 0.09172
 C548 C 0.57141 0.57776 0.07678
 H549 H 0.64074 0.67187 0.10557
 H550 H 0.61008 0.64165 0.07530
 H551 H 0.60118 0.58391 0.14788
 H552 H 0.63184 0.61412 0.17815
   
