data_POSCAR
  _audit_creation_date              2014-09-24
  _audit_creation_method            'ToBaCCo'
  _symmetry_space_group_name_H-M    'P1'
  _symmetry_Int_Tables_number       1
  _symmetry_cell_setting            triclinic
  loop_
  _symmetry_equiv_pos_as_xyz
 x,y,z
_cell_length_a 53.8709
_cell_length_b 53.8412
_cell_length_c 59.0861
_cell_angle_alpha 89.942600
_cell_angle_beta 90.057000
_cell_angle_gamma 89.437300
loop_
  _atom_site_label
  _atom_site_type_symbol
  _atom_site_fract_x
  _atom_site_fract_y
  _atom_site_fract_z
C1 C -0.06794 0.31316 0.00127
 C2 C -0.05478 0.31748 0.02126
 C3 C -0.02883 0.31900 0.02081
 C4 C -0.01552 0.31485 0.00054
 C5 C -0.02920 0.30991 -0.01938
 C6 C -0.05521 0.30966 -0.01908
 C7 C 0.01236 0.31512 0.00026
 C8 C 0.02547 0.31992 -0.01996
 C9 C 0.05144 0.31881 -0.02047
 C10 C 0.06479 0.31427 -0.00061
 C11 C 0.05227 0.31015 0.01970
 C12 C 0.02626 0.31001 0.02008
 H13 H -0.08806 0.31220 0.00162
 H14 H -0.01924 0.32329 0.03640
 H15 H -0.01986 0.30582 -0.03516
 H16 H 0.01578 0.32437 -0.03549
 H17 H 0.08492 0.31358 -0.00103
 H18 H 0.01719 0.30546 0.03584
 C19 C 0.43353 0.81338 0.50065
 C20 C 0.44666 0.81777 0.52060
 C21 C 0.47260 0.81917 0.52020
 C22 C 0.48593 0.81488 0.49997
 C23 C 0.47226 0.80988 0.48006
 C24 C 0.44627 0.80970 0.48034
 C25 C 0.51380 0.81503 0.49972
 C26 C 0.52697 0.81969 0.47950
 C27 C 0.55293 0.81847 0.47902
 C28 C 0.56623 0.81391 0.49890
 C29 C 0.55365 0.80993 0.51921
 C30 C 0.52765 0.80993 0.51956
 H31 H 0.41342 0.81248 0.50097
 H32 H 0.48212 0.82347 0.53581
 H33 H 0.48154 0.80568 0.46428
 H34 H 0.51730 0.82413 0.46394
 H35 H 0.58636 0.81312 0.49852
 H36 H 0.51853 0.80550 0.53533
 C37 C 1.06789 0.68569 -0.00021
 C38 C 1.05517 0.68108 0.01993
 C39 C 1.02923 0.67937 0.01985
 C40 C 1.01549 0.68363 -0.00018
 C41 C 1.02872 0.68883 -0.02028
 C42 C 1.05474 0.68928 -0.02036
 C43 C 0.98762 0.68326 -0.00001
 C44 C 0.97407 0.67847 -0.02000
 C45 C 0.94809 0.67946 -0.02006
 C46 C 0.93518 0.68390 0.00003
 C47 C 0.94816 0.68803 0.02012
 C48 C 0.97416 0.68828 0.02004
 H49 H 1.08801 0.68682 -0.00015
 H50 H 1.01998 0.67486 0.03555
 H51 H 1.01902 0.69299 -0.03589
 H52 H 0.98345 0.67412 -0.03570
 H53 H 0.91504 0.68451 -0.00003
 H54 H 0.98358 0.69285 0.03563
 C55 C 0.56618 0.18636 0.50107
 C56 C 0.55330 0.18172 0.52110
 C57 C 0.52739 0.17998 0.52085
 C58 C 0.51381 0.18420 0.50071
 C59 C 0.52721 0.18942 0.48072
 C60 C 0.55321 0.18993 0.48085
 C61 C 0.48593 0.18376 0.50067
 C62 C 0.47258 0.17905 0.48055
 C63 C 0.44660 0.18000 0.48029
 C64 C 0.43349 0.18433 0.50029
 C65 C 0.44627 0.18838 0.52050
 C66 C 0.47227 0.18865 0.52063
 H67 H 0.58628 0.18754 0.50128
 H68 H 0.51808 0.17549 0.53651
 H69 H 0.51773 0.19355 0.46501
 H70 H 0.48211 0.17480 0.46491
 H71 H 0.41335 0.18492 0.50007
 H72 H 0.48154 0.19313 0.53632
 C73 C 0.68528 -0.06622 0.00043
 C74 C 0.68086 -0.05325 0.02052
 C75 C 0.67963 -0.02724 0.02035
 C76 C 0.68422 -0.01374 0.00027
 C77 C 0.68925 -0.02727 -0.01973
 C78 C 0.68919 -0.05328 -0.01971
 C79 C 0.68439 0.01416 0.00032
 C80 C 0.68014 0.02780 -0.01979
 C81 C 0.68171 0.05377 -0.01996
 C82 C 0.68613 0.06660 0.00016
 C83 C 0.68968 0.05354 0.02035
 C84 C 0.68940 0.02754 0.02037
 H85 H 0.68605 -0.08638 0.00050
 H86 H 0.67526 -0.01777 0.03600
 H87 H 0.69367 -0.01789 -0.03538
 H88 H 0.67577 0.01846 -0.03548
 H89 H 0.68716 0.08673 0.00010
 H90 H 0.69354 0.01802 0.03607
 C91 C 0.18545 0.43481 0.49983
 C92 C 0.18086 0.44783 0.51984
 C93 C 0.17953 0.47381 0.51962
 C94 C 0.18409 0.48728 0.49953
 C95 C 0.18927 0.47372 0.47957
 C96 C 0.18938 0.44770 0.47965
 C97 C 0.18399 0.51517 0.49951
 C98 C 0.17950 0.52867 0.47938
 C99 C 0.18073 0.55462 0.47911
 C100 C 0.18512 0.56761 0.49913
 C101 C 0.18894 0.55472 0.51937
 C102 C 0.18893 0.52869 0.51951
 H103 H 0.18630 0.41467 0.50002
 H104 H 0.17509 0.48326 0.53526
 H105 H 0.19366 0.48309 0.46390
 H106 H 0.17520 0.51926 0.46372
 H107 H 0.18591 0.58774 0.49890
 H108 H 0.19322 0.51928 0.53523
 C109 C 0.31414 1.06588 -0.00061
 C110 C 0.31879 1.05274 0.01936
 C111 C 0.32042 1.02678 0.01901
 C112 C 0.31602 1.01341 -0.00116
 C113 C 0.31077 1.02707 -0.02108
 C114 C 0.31041 1.05311 -0.02088
 C115 C 0.31626 0.98550 -0.00127
 C116 C 0.32070 0.97210 -0.02145
 C117 C 0.31953 0.94611 -0.02175
 C118 C 0.31531 0.93304 -0.00171
 C119 C 0.31155 0.94587 0.01854
 C120 C 0.31145 0.97188 0.01870
 H121 H 0.31309 1.08602 -0.00026
 H122 H 0.32494 1.01727 0.03462
 H123 H 0.30649 1.01772 -0.03678
 H124 H 0.32491 0.98164 -0.03709
 H125 H 0.31458 0.91290 -0.00187
 H126 H 0.30716 0.98120 0.03444
 C127 C 0.81493 0.56560 0.50077
 C128 C 0.81952 0.55241 0.52072
 C129 C 0.82080 0.52644 0.52036
 C130 C 0.81619 0.51314 0.50021
 C131 C 0.81106 0.52687 0.48029
 C132 C 0.81098 0.55290 0.48052
 C133 C 0.81618 0.48525 0.50010
 C134 C 0.82064 0.47184 0.47994
 C135 C 0.81938 0.44588 0.47965
 C136 C 0.81495 0.43281 0.49964
 C137 C 0.81112 0.44564 0.51988
 C138 C 0.81118 0.47166 0.52005
 H139 H 0.81409 0.58574 0.50107
 H140 H 0.82525 0.51686 0.53597
 H141 H 0.80666 0.51763 0.46457
 H142 H 0.82495 0.48131 0.46431
 H143 H 0.81414 0.41269 0.49939
 H144 H 0.80687 0.48101 0.53577
 O145 O 0.24340 0.27192 0.22227
 O146 O 0.28969 0.24916 0.26359
 O147 O 0.27755 0.23752 0.22236
 O148 O 0.25630 0.28430 0.26352
 O149 O 0.22897 0.25778 0.27709
 O150 O 0.25019 0.21090 0.23573
 O151 O 0.26228 0.22259 0.27697
 O152 O 0.21608 0.24538 0.23582
 Cu153 Cu 0.26942 0.26347 0.24158
 Cu154 Cu 0.23655 0.23155 0.25775
 C155 C 0.22201 0.26223 0.22190
 C156 C 0.28376 0.23203 0.27726
 C157 C 0.26748 0.21634 0.22207
 C158 C 0.23932 0.27885 0.27747
 O159 O 0.71148 0.75007 0.26337
 O160 O 0.75859 0.72841 0.22245
 O161 O 0.74586 0.71585 0.26371
 O162 O 0.72355 0.76190 0.22217
 O163 O 0.75008 0.78932 0.23559
 O164 O 0.77237 0.74319 0.27727
 O165 O 0.78507 0.75576 0.23603
 O166 O 0.73807 0.77744 0.27677
 Cu167 Cu 0.73226 0.73623 0.24157
 Cu168 Cu 0.76415 0.76912 0.25778
 C169 C 0.71686 0.76744 0.27697
 C170 C 0.77968 0.73869 0.22216
 C171 C 0.76262 0.72183 0.27771
 C172 C 0.73303 0.78336 0.22185
 O173 O 0.74987 0.28908 0.26397
 O174 O 0.72758 0.24269 0.22302
 O175 O 0.71518 0.25592 0.26423
 O176 O 0.76158 0.27658 0.22284
 O177 O 0.78855 0.24908 0.23634
 O178 O 0.74205 0.22845 0.27792
 O179 O 0.75446 0.21524 0.23671
 O180 O 0.77679 0.26153 0.27748
 Cu181 Cu 0.73576 0.26877 0.24214
 Cu182 Cu 0.76811 0.23573 0.25847
 C183 C 0.76712 0.28310 0.27763
 C184 C 0.73751 0.22123 0.22277
 C185 C 0.72087 0.23898 0.27828
 C186 C 0.78288 0.26636 0.22259
 O187 O 0.27270 0.75725 0.22187
 O188 O 0.25058 0.71094 0.26302
 O189 O 0.23902 0.72306 0.22171
 O190 O 0.28504 0.74438 0.26322
 O191 O 0.25787 0.77171 0.27656
 O192 O 0.21176 0.75042 0.23486
 O193 O 0.22338 0.73835 0.27617
 O194 O 0.24552 0.78456 0.23521
 Cu195 Cu 0.26465 0.73121 0.24112
 Cu196 Cu 0.23196 0.76409 0.25703
 C197 C 0.26258 0.77864 0.22142
 C198 C 0.23322 0.71687 0.27654
 C199 C 0.21765 0.73311 0.22126
 C200 C 0.27914 0.76137 0.27711
 O201 O 0.77090 0.25767 0.72390
 O202 O 0.74881 0.21214 0.76582
 O203 O 0.73702 0.22368 0.72439
 O204 O 0.78350 0.24530 0.76532
 O205 O 0.75663 0.27301 0.77850
 O206 O 0.71004 0.25142 0.73736
 O207 O 0.72189 0.23994 0.77879
 O208 O 0.74402 0.28536 0.73708
 Cu209 Cu 0.76284 0.23196 0.74354
 Cu210 Cu 0.73049 0.26529 0.75923
 C211 C 0.76093 0.27911 0.72324
 C212 C 0.73161 0.21841 0.77940
 C213 C 0.71572 0.23388 0.72393
 C214 C 0.77783 0.26252 0.77904
 O215 O 0.28853 0.74963 0.73624
 O216 O 0.24186 0.72870 0.77752
 O217 O 0.25447 0.71576 0.73629
 O218 O 0.27660 0.76183 0.77740
 O219 O 0.24973 0.78944 0.76393
 O220 O 0.22763 0.74329 0.72267
 O221 O 0.21503 0.75625 0.76389
 O222 O 0.26161 0.77719 0.72277
 Cu223 Cu 0.26800 0.73613 0.75822
 Cu224 Cu 0.23572 0.76926 0.74195
 C225 C 0.28291 0.76698 0.72255
 C226 C 0.22066 0.73921 0.77785
 C227 C 0.23757 0.72183 0.72233
 C228 C 0.26693 0.78339 0.77763
 O229 O 0.24845 0.28918 0.73620
 O230 O 0.26994 0.24235 0.77758
 O231 O 0.28300 0.25516 0.73648
 O232 O 0.23614 0.27709 0.77725
 O233 O 0.20922 0.25023 0.76355
 O234 O 0.25617 0.22833 0.72260
 O235 O 0.24309 0.21553 0.76370
 O236 O 0.22158 0.26226 0.72249
 Cu237 Cu 0.26217 0.26859 0.75827
 Cu238 Cu 0.22987 0.23631 0.74170
 C239 C 0.23136 0.28359 0.72237
 C240 C 0.25988 0.22113 0.77780
 C241 C 0.27742 0.23832 0.72245
 C242 C 0.21479 0.26739 0.77730
 O243 O 0.74380 0.77166 0.72261
 O244 O 0.78975 0.74916 0.76433
 O245 O 0.77802 0.73735 0.72308
 O246 O 0.75628 0.78424 0.76390
 O247 O 0.72889 0.75771 0.77734
 O248 O 0.75061 0.71072 0.73633
 O249 O 0.76229 0.72259 0.77760
 O250 O 0.71641 0.74511 0.73603
 Cu251 Cu 0.76966 0.76336 0.74214
 Cu252 Cu 0.73671 0.73142 0.75816
 C253 C 0.72244 0.76193 0.72210
 C254 C 0.78374 0.73205 0.77800
 C255 C 0.76802 0.71614 0.72279
 C256 C 0.73918 0.77881 0.77772
 C257 C 0.32002 0.06593 0.04049
 C258 C 0.31977 0.07730 0.05805
 C259 C 0.31810 0.09126 0.07875
 C260 C 0.30909 0.08001 0.09843
 C261 C 0.30502 0.09417 0.11792
 C262 C 0.30986 0.11981 0.11796
 C263 C 0.31954 0.13079 0.09827
 C264 C 0.32358 0.11661 0.07880
 C265 C 0.30361 0.13532 0.13797
 C266 C 0.31922 0.15477 0.14472
 C267 C 0.31244 0.17035 0.16264
 C268 C 0.29001 0.16670 0.17405
 C269 C 0.27459 0.14712 0.16776
 C270 C 0.28134 0.13151 0.14986
 C271 C 0.28227 0.18373 0.19148
 C272 C 0.27557 0.19840 0.20567
 H273 H 0.30469 0.06042 0.09854
 H274 H 0.29784 0.08513 0.13289
 H275 H 0.32313 0.15053 0.09765
 H276 H 0.33033 0.12555 0.06360
 H277 H 0.33660 0.15800 0.13607
 H278 H 0.32451 0.18547 0.16738
 H279 H 0.25711 0.14422 0.17638
 H280 H 0.26874 0.11695 0.14487
 C281 C 0.82102 0.56558 0.54184
 C282 C 0.82100 0.57692 0.55940
 C283 C 0.81954 0.59085 0.58012
 C284 C 0.81083 0.57953 0.59987
 C285 C 0.80682 0.59366 0.61939
 C286 C 0.81142 0.61934 0.61936
 C287 C 0.82085 0.63040 0.59960
 C288 C 0.82483 0.61623 0.58011
 C289 C 0.80509 0.63483 0.63935
 C290 C 0.82051 0.65447 0.64599
 C291 C 0.81357 0.67010 0.66383
 C292 C 0.79118 0.66630 0.67525
 C293 C 0.77597 0.64651 0.66908
 C294 C 0.78287 0.63085 0.65128
 C295 C 0.78322 0.68341 0.69252
 C296 C 0.77633 0.69814 0.70656
 H297 H 0.80656 0.55990 0.60003
 H298 H 0.79983 0.58457 0.63441
 H299 H 0.82424 0.65017 0.59893
 H300 H 0.83133 0.62523 0.56484
 H301 H 0.83784 0.65783 0.63731
 H302 H 0.82547 0.68538 0.66847
 H303 H 0.75853 0.64349 0.67773
 H304 H 0.77042 0.61613 0.64636
 C305 C 0.67957 0.93406 0.04043
 C306 C 0.67962 0.92250 0.05792
 C307 C 0.68111 0.90831 0.07852
 C308 C 0.67680 0.88274 0.07810
 C309 C 0.68082 0.86840 0.09752
 C310 C 0.68932 0.87948 0.11762
 C311 C 0.69294 0.90532 0.11803
 C312 C 0.68890 0.91962 0.09859
 C313 C 0.69566 0.86391 0.13760
 C314 C 0.71733 0.86855 0.15017
 C315 C 0.72425 0.85293 0.16805
 C316 C 0.70961 0.83252 0.17365
 C317 C 0.68776 0.82800 0.16155
 C318 C 0.68081 0.84359 0.14365
 C319 C 0.71759 0.81557 0.19110
 C320 C 0.72455 0.80105 0.20534
 H321 H 0.67102 0.87375 0.06259
 H322 H 0.67819 0.84852 0.09655
 H323 H 0.69919 0.91442 0.13332
 H324 H 0.69240 0.93940 0.09906
 H325 H 0.72936 0.88379 0.14573
 H326 H 0.74127 0.85651 0.17722
 H327 H 0.67630 0.81223 0.16574
 H328 H 0.66389 0.83969 0.13445
 C329 C 0.17936 0.43450 0.54089
 C330 C 0.17937 0.42303 0.55841
 C331 C 0.18080 0.40898 0.57909
 C332 C 0.17570 0.38356 0.57895
 C333 C 0.17959 0.36931 0.59844
 C334 C 0.18874 0.38032 0.61833
 C335 C 0.19315 0.40604 0.61848
 C336 C 0.18923 0.42026 0.59896
 C337 C 0.19493 0.36478 0.63836
 C338 C 0.21698 0.36885 0.65055
 C339 C 0.22374 0.35318 0.66844
 C340 C 0.20857 0.33329 0.67441
 C341 C 0.18636 0.32938 0.66270
 C342 C 0.17956 0.34502 0.64479
 C343 C 0.21638 0.31621 0.69181
 C344 C 0.22316 0.30153 0.70598
 H345 H 0.16940 0.37460 0.56360
 H346 H 0.17635 0.34951 0.59769
 H347 H 0.19991 0.41509 0.63360
 H348 H 0.19333 0.43991 0.59922
 H349 H 0.22940 0.38365 0.64580
 H350 H 0.24106 0.35628 0.67730
 H351 H 0.17448 0.31402 0.66719
 H352 H 0.16236 0.34157 0.63589
 C353 C 0.93281 0.31851 0.04131
 C354 C 0.92151 0.31827 0.05890
 C355 C 0.90760 0.31662 0.07961
 C356 C 0.88228 0.32263 0.07974
 C357 C 0.86812 0.31859 0.09918
 C358 C 0.87912 0.30836 0.11875
 C359 C 0.90474 0.30300 0.11863
 C360 C 0.91887 0.30708 0.09917
 C361 C 0.86364 0.30210 0.13869
 C362 C 0.86743 0.27954 0.15031
 C363 C 0.85184 0.27282 0.16814
 C364 C 0.83230 0.28855 0.17463
 C365 C 0.82866 0.31125 0.16350
 C366 C 0.84422 0.31801 0.14565
 C367 C 0.81532 0.28089 0.19201
 C368 C 0.80072 0.27429 0.20618
 H369 H 0.87333 0.32979 0.06462
 H370 H 0.84840 0.32259 0.09862
 H371 H 0.91378 0.29540 0.13351
 H372 H 0.93844 0.30226 0.09921
 H373 H 0.88197 0.26673 0.14515
 H374 H 0.85473 0.25514 0.17656
 H375 H 0.81357 0.32357 0.16839
 H376 H 0.84101 0.33561 0.13721
 C377 C 0.43350 0.81903 0.54175
 C378 C 0.42213 0.81884 0.55931
 C379 C 0.40816 0.81724 0.57998
 C380 C 0.38283 0.82324 0.58004
 C381 C 0.36862 0.81924 0.59945
 C382 C 0.37956 0.80909 0.61907
 C383 C 0.40519 0.80377 0.61904
 C384 C 0.41937 0.80779 0.59960
 C385 C 0.36402 0.80286 0.63899
 C386 C 0.36780 0.78032 0.65064
 C387 C 0.35214 0.77360 0.66842
 C388 C 0.33255 0.78931 0.67483
 C389 C 0.32893 0.81200 0.66366
 C390 C 0.34456 0.81875 0.64586
 C391 C 0.31548 0.78163 0.69213
 C392 C 0.30081 0.77499 0.70623
 H393 H 0.37392 0.83033 0.56487
 H394 H 0.34889 0.82321 0.59883
 H395 H 0.41420 0.79622 0.63396
 H396 H 0.43895 0.80300 0.59971
 H397 H 0.38237 0.76752 0.64555
 H398 H 0.35502 0.75593 0.67687
 H399 H 0.31380 0.82429 0.66849
 H400 H 0.34135 0.83634 0.63738
 C401 C 0.06795 0.68002 0.03982
 C402 C 0.07949 0.68025 0.05730
 C403 C 0.09358 0.68192 0.07792
 C404 C 0.08217 0.69047 0.09775
 C405 C 0.09635 0.69458 0.11720
 C406 C 0.12215 0.69026 0.11703
 C407 C 0.13331 0.68101 0.09719
 C408 C 0.11911 0.67693 0.07776
 C409 C 0.13759 0.69659 0.13700
 C410 C 0.15767 0.68127 0.14351
 C411 C 0.17313 0.68814 0.16142
 C412 C 0.16871 0.71037 0.17306
 C413 C 0.14851 0.72551 0.16699
 C414 C 0.13303 0.71867 0.14911
 C415 C 0.18552 0.71820 0.19052
 C416 C 0.19998 0.72497 0.20476
 H417 H 0.06243 0.69450 0.09803
 H418 H 0.08718 0.70141 0.13230
 H419 H 0.15317 0.67782 0.09641
 H420 H 0.12816 0.67055 0.06243
 H421 H 0.16149 0.66404 0.13468
 H422 H 0.18872 0.67629 0.16598
 H423 H 0.14502 0.74283 0.17580
 H424 H 0.11796 0.73105 0.14430
 C425 C 0.56663 0.18059 0.54220
 C426 C 0.57803 0.18088 0.55975
 C427 C 0.59194 0.18261 0.58048
 C428 C 0.58045 0.19150 0.60014
 C429 C 0.59448 0.19562 0.61967
 C430 C 0.62022 0.19096 0.61976
 C431 C 0.63147 0.18138 0.60008
 C432 C 0.61741 0.17729 0.58057
 C433 C 0.63554 0.19726 0.63982
 C434 C 0.65537 0.18175 0.64660
 C435 C 0.67077 0.18861 0.66456
 C436 C 0.66654 0.21101 0.67598
 C437 C 0.64658 0.22633 0.66966
 C438 C 0.63116 0.21951 0.65172
 C439 C 0.68339 0.21887 0.69341
 C440 C 0.69792 0.22567 0.70758
 H441 H 0.56075 0.19578 0.60022
 H442 H 0.58524 0.20271 0.63464
 H443 H 0.65129 0.17793 0.59950
 H444 H 0.62653 0.17064 0.56537
 H445 H 0.65905 0.16439 0.63793
 H446 H 0.68619 0.17662 0.66931
 H447 H 0.64324 0.24379 0.67829
 H448 H 0.61629 0.23203 0.64671
 C449 C 0.68069 0.06647 0.96011
 C450 C 0.68096 0.07796 0.94259
 C451 C 0.68268 0.09202 0.92195
 C452 C 0.69967 0.08474 0.90527
 C453 C 0.70327 0.09961 0.88617
 C454 C 0.68994 0.12203 0.88353
 C455 C 0.67238 0.12883 0.90009
 C456 C 0.66882 0.11393 0.91919
 C457 C 0.69536 0.13885 0.86425
 C458 C 0.69688 0.16464 0.86771
 C459 C 0.70345 0.18041 0.84995
 C460 C 0.70858 0.17067 0.82851
 C461 C 0.70676 0.14509 0.82476
 C462 C 0.70018 0.12926 0.84252
 C463 C 0.71645 0.18697 0.81064
 C464 C 0.72329 0.20107 0.79612
 H465 H 0.71065 0.06792 0.90733
 H466 H 0.71716 0.09401 0.87391
 H467 H 0.66161 0.14582 0.89840
 H468 H 0.65567 0.11977 0.93204
 H469 H 0.69368 0.17257 0.88429
 H470 H 0.70491 0.20017 0.85306
 H471 H 0.71066 0.13736 0.80821
 H472 H 0.69892 0.10952 0.83927
 C473 C 0.17935 0.56792 0.45802
 C474 C 0.17946 0.57931 0.44046
 C475 C 0.18102 0.59322 0.41972
 C476 C 0.18957 0.58167 0.39997
 C477 C 0.19366 0.59570 0.38043
 C478 C 0.18930 0.62151 0.38043
 C479 C 0.18003 0.63282 0.40020
 C480 C 0.17597 0.61876 0.41972
 C481 C 0.19571 0.63682 0.36040
 C482 C 0.18044 0.65688 0.35373
 C483 C 0.18745 0.67228 0.33582
 C484 C 0.20976 0.66782 0.32435
 C485 C 0.22483 0.64763 0.33055
 C486 C 0.21786 0.63220 0.34843
 C487 C 0.21780 0.68466 0.30698
 C488 C 0.22478 0.69915 0.29285
 H489 H 0.19364 0.56192 0.39983
 H490 H 0.20052 0.58642 0.36540
 H491 H 0.17682 0.65269 0.40084
 H492 H 0.16958 0.62792 0.43499
 H493 H 0.16316 0.66074 0.36245
 H494 H 0.17566 0.68788 0.33116
 H495 H 0.24222 0.64411 0.32187
 H496 H 0.23020 0.61714 0.35336
 C497 C 0.32072 0.93356 0.95826
 C498 C 0.32059 0.92212 0.94073
 C499 C 0.31902 0.90807 0.92010
 C500 C 0.32411 0.88254 0.92031
 C501 C 0.32003 0.86831 0.90091
 C502 C 0.31070 0.87944 0.88104
 C503 C 0.30630 0.90525 0.88082
 C504 C 0.31040 0.91944 0.90025
 C505 C 0.30431 0.86394 0.86113
 C506 C 0.28218 0.86845 0.84906
 C507 C 0.27523 0.85285 0.83130
 C508 C 0.29030 0.83260 0.82532
 C509 C 0.31260 0.82825 0.83691
 C510 C 0.31959 0.84382 0.85469
 C511 C 0.28232 0.81564 0.80804
 C512 C 0.27537 0.80110 0.79395
 H513 H 0.33054 0.87350 0.93565
 H514 H 0.32328 0.84845 0.90173
 H515 H 0.29939 0.91439 0.86572
 H516 H 0.30629 0.93918 0.89994
 H517 H 0.26983 0.88354 0.85381
 H518 H 0.25786 0.85630 0.82253
 H519 H 0.32441 0.81262 0.83242
 H520 H 0.33686 0.84004 0.86349
 C521 C 0.82078 0.43264 0.45854
 C522 C 0.82069 0.42125 0.44100
 C523 C 0.81916 0.40729 0.42032
 C524 C 0.82417 0.38175 0.42045
 C525 C 0.82015 0.36763 0.40097
 C526 C 0.81096 0.37889 0.38112
 C527 C 0.80665 0.40471 0.38097
 C528 C 0.81070 0.41880 0.40047
 C529 C 0.80461 0.36352 0.36113
 C530 C 0.78252 0.36813 0.34902
 C531 C 0.77557 0.35261 0.33121
 C532 C 0.79061 0.33234 0.32521
 C533 C 0.81287 0.32790 0.33682
 C534 C 0.81986 0.34338 0.35466
 C535 C 0.78258 0.31542 0.30793
 C536 C 0.77560 0.30086 0.29387
 H537 H 0.83050 0.37262 0.43578
 H538 H 0.82332 0.34775 0.40173
 H539 H 0.79986 0.41395 0.36587
 H540 H 0.80666 0.43855 0.40022
 H541 H 0.77019 0.38323 0.35380
 H542 H 0.75822 0.35613 0.32242
 H543 H 0.82464 0.31224 0.33231
 H544 H 0.83709 0.33952 0.36349
 C545 C 0.06444 0.32042 0.95833
 C546 C 0.07569 0.32046 0.94072
 C547 C 0.08955 0.31906 0.91996
 C548 C 0.11488 0.32454 0.91989
 C549 C 0.12901 0.32056 0.90038
 C550 C 0.11798 0.31094 0.88069
 C551 C 0.09235 0.30617 0.88073
 C552 C 0.07824 0.31018 0.90027
 C553 C 0.13347 0.30459 0.86070
 C554 C 0.12962 0.28225 0.84891
 C555 C 0.14529 0.27533 0.83111
 C556 C 0.16494 0.29064 0.82482
 C557 C 0.16861 0.31315 0.83611
 C558 C 0.15297 0.32011 0.85393
 C559 C 0.18207 0.28268 0.80756
 C560 C 0.19680 0.27576 0.79352
 H561 H 0.12386 0.33118 0.93511
 H562 H 0.14875 0.32409 0.90099
 H563 H 0.08328 0.29904 0.86576
 H564 H 0.05866 0.30576 0.90017
 H565 H 0.11501 0.26972 0.85392
 H566 H 0.14237 0.25780 0.82257
 H567 H 0.18378 0.32515 0.83137
 H568 H 0.15622 0.33753 0.86252
 C569 C 0.56598 0.81997 0.45784
 C570 C 0.57726 0.81995 0.44024
 C571 C 0.59116 0.81849 0.41950
 C572 C 0.61643 0.82422 0.41941
 C573 C 0.63062 0.82026 0.39993
 C574 C 0.61970 0.81041 0.38028
 C575 C 0.59412 0.80537 0.38035
 C576 C 0.57996 0.80936 0.39985
 C577 C 0.63525 0.80413 0.36032
 C578 C 0.63163 0.78171 0.34860
 C579 C 0.64735 0.77488 0.33081
 C580 C 0.66685 0.79038 0.32446
 C581 C 0.67029 0.81297 0.33568
 C582 C 0.65459 0.81983 0.35349
 C583 C 0.68403 0.78252 0.30721
 C584 C 0.69882 0.77570 0.29318
 H585 H 0.62533 0.83106 0.43460
 H586 H 0.65032 0.82400 0.40053
 H587 H 0.58514 0.79805 0.36540
 H588 H 0.56043 0.80475 0.39977
 H589 H 0.61716 0.76905 0.35366
 H590 H 0.64462 0.75729 0.32233
 H591 H 0.68533 0.82510 0.33089
 H592 H 0.65767 0.83732 0.36201
 C593 C 0.93461 0.67788 0.95897
 C594 C 0.92299 0.67788 0.94153
 C595 C 0.90875 0.67934 0.92097
 C596 C 0.92004 0.68701 0.90085
 C597 C 0.90570 0.69109 0.88144
 C598 C 0.87985 0.68762 0.88194
 C599 C 0.86880 0.67920 0.90207
 C600 C 0.88317 0.67515 0.92146
 C601 C 0.86426 0.69406 0.86200
 C602 C 0.84385 0.67933 0.85601
 C603 C 0.82823 0.68642 0.83817
 C604 C 0.83282 0.70827 0.82609
 C605 C 0.85333 0.72279 0.83164
 C606 C 0.86897 0.71574 0.84946
 C607 C 0.81588 0.71638 0.80870
 C608 C 0.80138 0.72345 0.79449
 H609 H 0.93982 0.69042 0.90032
 H610 H 0.91478 0.69727 0.86612
 H611 H 0.84892 0.67668 0.90310
 H612 H 0.87421 0.66945 0.93701
 H613 H 0.83989 0.66242 0.86519
 H614 H 0.81239 0.67505 0.83401
 H615 H 0.85696 0.73982 0.82249
 H616 H 0.88429 0.72768 0.85387
 C617 C 0.43333 0.17847 0.45920
 C618 C 0.42191 0.17848 0.44165
 C619 C 0.40791 0.17993 0.42095
 C620 C 0.38238 0.17545 0.42115
 C621 C 0.36822 0.17942 0.40162
 C622 C 0.37943 0.18804 0.38163
 C623 C 0.40525 0.19182 0.38143
 C624 C 0.41937 0.18782 0.40098
 C625 C 0.36403 0.19436 0.36154
 C626 C 0.36864 0.21614 0.34911
 C627 C 0.35314 0.22307 0.33116
 C628 C 0.33288 0.20833 0.32535
 C629 C 0.32841 0.18636 0.33730
 C630 C 0.34389 0.17940 0.35528
 C631 C 0.31598 0.21638 0.30789
 C632 C 0.30147 0.22342 0.29368
 H633 H 0.37328 0.16958 0.43658
 H634 H 0.34836 0.17667 0.40242
 H635 H 0.41445 0.19815 0.36623
 H636 H 0.43911 0.19144 0.40067
 H637 H 0.38375 0.22825 0.35372
 H638 H 0.35667 0.24019 0.32211
 H639 H 0.31276 0.17482 0.33295
 H640 H 0.34002 0.16240 0.36437
 C641 C 0.69331 0.93312 0.95964
 C642 C 0.69644 0.92126 0.94256
 C643 C 0.69990 0.90656 0.92246
 C644 C 0.71549 0.91477 0.90512
 C645 C 0.71925 0.90011 0.88587
 C646 C 0.70745 0.87701 0.88373
 C647 C 0.69163 0.86905 0.90118
 C648 C 0.68791 0.88374 0.92039
 C649 C 0.71215 0.86091 0.86374
 C650 C 0.69278 0.84728 0.85386
 C651 C 0.69751 0.83130 0.83568
 C652 C 0.72161 0.82875 0.82714
 C653 C 0.74092 0.84248 0.83664
 C654 C 0.73624 0.85847 0.85479
 C655 C 0.72688 0.81137 0.80923
 C656 C 0.73203 0.79660 0.79461
 H657 H 0.72482 0.93244 0.90652
 H658 H 0.73130 0.90688 0.87262
 H659 H 0.68257 0.85123 0.90021
 H660 H 0.67587 0.87716 0.93375
 H661 H 0.67398 0.84899 0.86017
 H662 H 0.68243 0.82075 0.82846
 H663 H 0.75968 0.84054 0.83025
 H664 H 0.75161 0.86841 0.86221
 C665 C 0.19367 0.43404 0.45905
 C666 C 0.19693 0.42214 0.44201
 C667 C 0.20058 0.40741 0.42194
 C668 C 0.21937 0.41331 0.40656
 C669 C 0.22332 0.39848 0.38745
 C670 C 0.20850 0.37753 0.38346
 C671 C 0.18948 0.37194 0.39891
 C672 C 0.18558 0.38678 0.41801
 C673 C 0.21328 0.36116 0.36367
 C674 C 0.19349 0.35080 0.35142
 C675 C 0.19810 0.33465 0.33333
 C676 C 0.22254 0.32867 0.32723
 C677 C 0.24233 0.33909 0.33916
 C678 C 0.23777 0.35522 0.35723
 C679 C 0.22750 0.31133 0.30923
 C680 C 0.23241 0.29659 0.29450
 H681 H 0.23106 0.42927 0.40942
 H682 H 0.23790 0.40346 0.37574
 H683 H 0.17800 0.35576 0.39652
 H684 H 0.17104 0.38199 0.42984
 H685 H 0.17444 0.35523 0.35579
 H686 H 0.18264 0.32671 0.32421
 H687 H 0.26132 0.33448 0.33466
 H688 H 0.25340 0.36256 0.36650
 C689 C 0.30630 0.06613 0.95965
 C690 C 0.30297 0.07808 0.94262
 C691 C 0.29928 0.09286 0.92256
 C692 C 0.31297 0.11455 0.91948
 C693 C 0.30906 0.12937 0.90035
 C694 C 0.29134 0.12269 0.88400
 C695 C 0.27781 0.10071 0.88714
 C696 C 0.28177 0.08591 0.90631
 C697 C 0.28653 0.13896 0.86411
 C698 C 0.26209 0.14335 0.85657
 C699 C 0.25743 0.15942 0.83844
 C700 C 0.27709 0.17131 0.82755
 C701 C 0.30150 0.16685 0.83472
 C702 C 0.30621 0.15077 0.85287
 C703 C 0.27196 0.18865 0.80954
 C704 C 0.26692 0.20339 0.79483
 H705 H 0.32651 0.12016 0.93201
 H706 H 0.31951 0.14634 0.89860
 H707 H 0.26425 0.09491 0.87473
 H708 H 0.27110 0.06912 0.90849
 H709 H 0.24652 0.13485 0.86505
 H710 H 0.23845 0.16284 0.83311
 H711 H 0.31685 0.17595 0.82641
 H712 H 0.32524 0.14754 0.85809
 C713 C 0.80669 0.56680 0.46003
 C714 C 0.80345 0.57909 0.44319
 C715 C 0.79987 0.59447 0.42348
 C716 C 0.79726 0.62020 0.42598
 C717 C 0.79410 0.63536 0.40697
 C718 C 0.79351 0.62499 0.38513
 C719 C 0.79610 0.59908 0.38277
 C720 C 0.79929 0.58393 0.40184
 C721 C 0.78989 0.64119 0.36499
 C722 C 0.77417 0.63391 0.34721
 C723 C 0.76987 0.64972 0.32879
 C724 C 0.78127 0.67295 0.32784
 C725 C 0.79729 0.68016 0.34523
 C726 C 0.80161 0.66440 0.36367
 C727 C 0.77552 0.68989 0.30966
 C728 C 0.77005 0.70435 0.29484
 H729 H 0.79764 0.62856 0.44266
 H730 H 0.79177 0.65518 0.40940
 H731 H 0.79598 0.59057 0.36618
 H732 H 0.80139 0.56404 0.39970
 H733 H 0.76465 0.61631 0.34785
 H734 H 0.75729 0.64402 0.31550
 H735 H 0.80620 0.69811 0.34470
 H736 H 0.81408 0.67039 0.37692
 C737 C 0.06736 0.69333 0.96002
 C738 C 0.07900 0.69662 0.94286
 C739 C 0.09344 0.70028 0.92266
 C740 C 0.08708 0.71916 0.90736
 C741 C 0.10166 0.72314 0.88814
 C742 C 0.12281 0.70828 0.88398
 C743 C 0.12886 0.68917 0.89935
 C744 C 0.11427 0.68523 0.91855
 C745 C 0.13894 0.71312 0.86409
 C746 C 0.14952 0.69334 0.85173
 C747 C 0.16550 0.69801 0.83359
 C748 C 0.17108 0.72247 0.82756
 C749 C 0.16042 0.74224 0.83958
 C750 C 0.14445 0.73763 0.85770
 C751 C 0.18832 0.72745 0.80955
 C752 C 0.20299 0.73236 0.79485
 H753 H 0.07097 0.73089 0.91036
 H754 H 0.09634 0.73780 0.87649
 H755 H 0.14520 0.67765 0.89682
 H756 H 0.11942 0.67063 0.93033
 H757 H 0.14541 0.67428 0.85606
 H758 H 0.17364 0.68255 0.82440
 H759 H 0.16471 0.76125 0.83514
 H760 H 0.13692 0.75325 0.86706
 C761 C 0.56672 0.19428 0.46022
 C762 C 0.57847 0.19761 0.44315
 C763 C 0.59300 0.20136 0.42302
 C764 C 0.58945 0.22270 0.40983
 C765 C 0.60422 0.22671 0.39074
 C766 C 0.62277 0.20940 0.38459
 C767 C 0.62597 0.18785 0.39782
 C768 C 0.61119 0.18389 0.41690
 C769 C 0.63921 0.21412 0.36490
 C770 C 0.64639 0.19467 0.35032
 C771 C 0.66248 0.19910 0.33221
 C772 C 0.67160 0.22300 0.32845
 C773 C 0.66441 0.24248 0.34274
 C774 C 0.64833 0.23811 0.36082
 C775 C 0.68873 0.22765 0.31028
 C776 C 0.70331 0.23233 0.29544
 H777 H 0.57540 0.23633 0.41439
 H778 H 0.60109 0.24332 0.38075
 H779 H 0.64029 0.17434 0.39374
 H780 H 0.61416 0.16735 0.42704
 H781 H 0.63946 0.17606 0.35285
 H782 H 0.66790 0.18388 0.32124
 H783 H 0.67144 0.26104 0.34005
 H784 H 0.64348 0.25340 0.37191
 C785 C 0.93176 0.30594 0.96145
 C786 C 0.91980 0.30297 0.94441
 C787 C 0.90500 0.29974 0.92435
 C788 C 0.88153 0.31100 0.92289
 C789 C 0.86681 0.30758 0.90367
 C790 C 0.87538 0.29281 0.88560
 C791 C 0.89910 0.28173 0.88715
 C792 C 0.91380 0.28518 0.90641
 C793 C 0.85933 0.28848 0.86554
 C794 C 0.85809 0.26475 0.85569
 C795 C 0.84220 0.26036 0.83744
 C796 C 0.82735 0.27961 0.82875
 C797 C 0.82868 0.30337 0.83822
 C798 C 0.84457 0.30781 0.85649
 C799 C 0.81010 0.27456 0.81075
 C800 C 0.79545 0.26956 0.79604
 H801 H 0.87450 0.32225 0.93671
 H802 H 0.84851 0.31607 0.90316
 H803 H 0.90634 0.27050 0.87343
 H804 H 0.93198 0.27644 0.90733
 H805 H 0.86892 0.24940 0.86245
 H806 H 0.84120 0.24185 0.83034
 H807 H 0.81725 0.31840 0.83164
 H808 H 0.84532 0.32635 0.86352
 C809 C 0.43250 0.80565 0.45979
 C810 C 0.42053 0.80260 0.44278
 C811 C 0.40576 0.79921 0.42273
 C812 C 0.41428 0.78392 0.40518
 C813 C 0.39960 0.78029 0.38595
 C814 C 0.37618 0.79194 0.38401
 C815 C 0.36790 0.80745 0.40167
 C816 C 0.38260 0.81103 0.42088
 C817 C 0.36015 0.78746 0.36398
 C818 C 0.34600 0.80690 0.35435
 C819 C 0.33016 0.80238 0.33606
 C820 C 0.32829 0.77840 0.32714
 C821 C 0.34251 0.75902 0.33642
 C822 C 0.35835 0.76349 0.35468
 C823 C 0.31115 0.77334 0.30905
 C824 C 0.29661 0.76835 0.29425
 H825 H 0.43222 0.77473 0.40641
 H826 H 0.40663 0.76849 0.37253
 H827 H 0.34983 0.81639 0.40086
 H828 H 0.37578 0.82285 0.43439
 H829 H 0.34720 0.82561 0.36094
 H830 H 0.31923 0.81752 0.32902
 H831 H 0.34109 0.74035 0.32973
 H832 H 0.36870 0.74806 0.36189
 C833 C 0.30764 0.93217 0.03915
 C834 C 0.30469 0.92024 0.05620
 C835 C 0.30141 0.90546 0.07627
 C836 C 0.28816 0.91495 0.09475
 C837 C 0.28461 0.90029 0.11402
 C838 C 0.29431 0.87594 0.11505
 C839 C 0.30779 0.86668 0.09644
 C840 C 0.31129 0.88135 0.07720
 C841 C 0.28983 0.85997 0.13513
 C842 C 0.30861 0.84403 0.14346
 C843 C 0.30395 0.82819 0.16171
 C844 C 0.28051 0.82808 0.17189
 C845 C 0.26184 0.84412 0.16395
 C846 C 0.26645 0.85998 0.14572
 C847 C 0.27514 0.81084 0.18983
 C848 C 0.26989 0.79621 0.20448
 H849 H 0.28049 0.93362 0.09423
 H850 H 0.27440 0.90805 0.12816
 H851 H 0.31517 0.84790 0.09655
 H852 H 0.32152 0.87379 0.06296
 H853 H 0.32689 0.84382 0.13585
 H854 H 0.31853 0.81583 0.16771
 H855 H 0.24357 0.84408 0.17161
 H856 H 0.25151 0.87175 0.13953
 C857 C 0.80700 0.43193 0.54046
 C858 C 0.80387 0.42000 0.55748
 C859 C 0.80037 0.40523 0.57753
 C860 C 0.78547 0.41403 0.59524
 C861 C 0.78170 0.39936 0.61446
 C862 C 0.79282 0.37566 0.61622
 C863 C 0.80796 0.36710 0.59841
 C864 C 0.81168 0.38179 0.57922
 C865 C 0.78815 0.35963 0.63624
 C866 C 0.80734 0.34499 0.64568
 C867 C 0.80263 0.32920 0.66396
 C868 C 0.77870 0.32785 0.67306
 C869 C 0.75958 0.34255 0.66397
 C870 C 0.76425 0.35834 0.64571
 C871 C 0.77341 0.31081 0.69118
 C872 C 0.76820 0.29639 0.70603
 H873 H 0.77668 0.43218 0.59414
 H874 H 0.77019 0.40659 0.62799
 H875 H 0.81648 0.34882 0.59909
 H876 H 0.82320 0.37475 0.56558
 H877 H 0.82601 0.34579 0.63895
 H878 H 0.81757 0.31790 0.67086
 H879 H 0.74095 0.34154 0.67079
 H880 H 0.74900 0.36908 0.63864
 C881 C 0.69374 0.06699 0.04106
 C882 C 0.69681 0.07865 0.05824
 C883 C 0.70021 0.09304 0.07851
 C884 C 0.67970 0.10404 0.08918
 C885 C 0.68302 0.11885 0.10835
 C886 C 0.70694 0.12285 0.11711
 C887 C 0.72742 0.11146 0.10641
 C888 C 0.72406 0.09668 0.08722
 C889 C 0.71063 0.13935 0.13695
 C890 C 0.72817 0.13320 0.15376
 C891 C 0.73240 0.14929 0.17189
 C892 C 0.71916 0.17172 0.17349
 C893 C 0.70141 0.17784 0.15704
 C894 C 0.69713 0.16176 0.13891
 C895 C 0.72473 0.18898 0.19133
 C896 C 0.73012 0.20362 0.20591
 H897 H 0.66115 0.10133 0.08258
 H898 H 0.66687 0.12711 0.11637
 H899 H 0.74610 0.11446 0.11254
 H900 H 0.74008 0.08835 0.07903
 H901 H 0.73863 0.11595 0.15289
 H902 H 0.74622 0.14439 0.18450
 H903 H 0.69119 0.19524 0.15801
 H904 H 0.68375 0.16719 0.12610
 C905 C 0.19301 0.56840 0.53995
 C906 C 0.19607 0.58046 0.55690
 C907 C 0.19943 0.59552 0.57677
 C908 C 0.19599 0.62127 0.57540
 C909 C 0.19928 0.63609 0.59455
 C910 C 0.20607 0.62535 0.61540
 C911 C 0.20943 0.59941 0.61664
 C912 C 0.20611 0.58461 0.59744
 C913 C 0.21010 0.64125 0.63559
 C914 C 0.23016 0.63655 0.65031
 C915 C 0.23466 0.65226 0.66867
 C916 C 0.21916 0.67280 0.67263
 C917 C 0.19890 0.67739 0.65834
 C918 C 0.19437 0.66173 0.63996
 C919 C 0.22482 0.68983 0.69065
 C920 C 0.23022 0.70433 0.70535
 H921 H 0.19089 0.62992 0.55947
 H922 H 0.19693 0.65601 0.59293
 H923 H 0.21440 0.59057 0.63250
 H924 H 0.20874 0.56468 0.59872
 H925 H 0.24279 0.62116 0.64726
 H926 H 0.25050 0.64862 0.67953
 H927 H 0.18679 0.69326 0.66122
 H928 H 0.17858 0.66565 0.62913
 C929 C 0.93460 0.69220 0.04078
 C930 C 0.92275 0.69538 0.05786
 C931 C 0.90804 0.69894 0.07794
 C932 C 0.91560 0.71559 0.09470
 C933 C 0.90086 0.71949 0.11388
 C934 C 0.87834 0.70676 0.11653
 C935 C 0.87106 0.68987 0.09969
 C936 C 0.88581 0.68601 0.08054
 C937 C 0.86214 0.71158 0.13642
 C938 C 0.84944 0.69204 0.14705
 C939 C 0.83335 0.69682 0.16514
 C940 C 0.82978 0.72116 0.17286
 C941 C 0.84258 0.74066 0.16260
 C942 C 0.85866 0.73593 0.14453
 C943 C 0.81234 0.72642 0.19072
 C944 C 0.79752 0.73155 0.20530
 H945 H 0.93280 0.72566 0.09289
 H946 H 0.90712 0.73239 0.12667
 H947 H 0.85367 0.68006 0.10105
 H948 H 0.87973 0.67314 0.06763
 H949 H 0.85196 0.67306 0.14139
 H950 H 0.82355 0.68159 0.17296
 H951 H 0.83985 0.75959 0.16835
 H952 H 0.86786 0.75141 0.13653
 C953 C 0.43253 0.19244 0.54108
 C954 C 0.42055 0.19553 0.55809
 C955 C 0.40572 0.19898 0.57812
 C956 C 0.41397 0.21426 0.59567
 C957 C 0.39918 0.21802 0.61484
 C958 C 0.37591 0.20650 0.61669
 C959 C 0.36792 0.19098 0.59903
 C960 C 0.38272 0.18727 0.57990
 C961 C 0.35971 0.21118 0.63660
 C962 C 0.34576 0.19187 0.64621
 C963 C 0.32971 0.19659 0.66434
 C964 C 0.32741 0.22064 0.67311
 C965 C 0.34145 0.23988 0.66387
 C966 C 0.35750 0.23521 0.64577
 C967 C 0.31000 0.22593 0.69098
 C968 C 0.29521 0.23111 0.70557
 H969 H 0.43177 0.22337 0.59449
 H970 H 0.40598 0.22984 0.62825
 H971 H 0.34997 0.18215 0.59977
 H972 H 0.37611 0.17546 0.56638
 H973 H 0.34728 0.17312 0.63972
 H974 H 0.31893 0.18156 0.67136
 H975 H 0.33970 0.25860 0.67043
 H976 H 0.36769 0.25054 0.63856
 C977 C 0.06632 0.30593 0.04011
 C978 C 0.07870 0.30275 0.05690
 C979 C 0.09415 0.29925 0.07657
 C980 C 0.11980 0.29616 0.07396
 C981 C 0.13503 0.29311 0.09293
 C982 C 0.12481 0.29311 0.11484
 C983 C 0.09897 0.29617 0.11730
 C984 C 0.08375 0.29926 0.09827
 C985 C 0.14108 0.28961 0.13494
 C986 C 0.13367 0.27433 0.15300
 C987 C 0.14954 0.27008 0.17138
 C988 C 0.17296 0.28111 0.17201
 C989 C 0.18030 0.29672 0.15435
 C990 C 0.16448 0.30097 0.13595
 C991 C 0.18997 0.27533 0.19012
 C992 C 0.20448 0.26979 0.20488
 H993 H 0.12805 0.29610 0.05724
 H994 H 0.15478 0.29039 0.09044
 H995 H 0.09058 0.29650 0.13394
 H996 H 0.06392 0.30175 0.10049
 H997 H 0.11592 0.26509 0.15261
 H998 H 0.14374 0.25782 0.18489
 H999 H 0.19839 0.30533 0.15463
 H1000 H 0.17057 0.31311 0.12247
 C1001 C 0.56765 0.80566 0.53965
 C1002 C 0.57997 0.80242 0.55647
 C1003 C 0.59535 0.79882 0.57616
 C1004 C 0.62087 0.79473 0.57355
 C1005 C 0.63605 0.79162 0.59255
 C1006 C 0.62591 0.79256 0.61447
 C1007 C 0.60020 0.79661 0.61693
 C1008 C 0.58503 0.79976 0.59788
 C1009 C 0.64214 0.78907 0.63460
 C1010 C 0.63428 0.77458 0.65304
 C1011 C 0.65005 0.77037 0.67150
 C1012 C 0.67382 0.78064 0.67182
 C1013 C 0.68163 0.79544 0.65375
 C1014 C 0.66591 0.79966 0.63528
 C1015 C 0.69067 0.77489 0.69006
 C1016 C 0.70505 0.76940 0.70493
 H1017 H 0.62904 0.79394 0.55682
 H1018 H 0.65569 0.78813 0.59006
 H1019 H 0.59189 0.79768 0.63358
 H1020 H 0.56530 0.80302 0.60009
 H1021 H 0.61621 0.76594 0.65291
 H1022 H 0.64388 0.75872 0.68532
 H1023 H 0.70001 0.80344 0.65380
 H1024 H 0.67237 0.81119 0.62151
   
