data_POSCAR
  _audit_creation_date              2014-09-24
  _audit_creation_method            'ToBaCCo'
  _symmetry_space_group_name_H-M    'P1'
  _symmetry_Int_Tables_number       1
  _symmetry_cell_setting            triclinic
  loop_
  _symmetry_equiv_pos_as_xyz
 x,y,z
_cell_length_a 20.6862
_cell_length_b 20.6943
_cell_length_c 20.7566
_cell_angle_alpha 90.107100
_cell_angle_beta 90.079400
_cell_angle_gamma 90.138900
loop_
  _atom_site_label
  _atom_site_type_symbol
  _atom_site_fract_x
  _atom_site_fract_y
  _atom_site_fract_z
C1 C 0.53220 0.99819 -0.50081
 C2 C 0.46717 1.00355 -0.50122
 C3 C 0.42912 1.00192 -0.56132
 C4 C 0.42923 1.00761 -0.44121
 C5 C 0.57019 1.00431 -0.44089
 C6 C 0.57036 0.98994 -0.56035
 C7 C 0.40861 1.05967 -0.58950
 C8 C 0.36337 1.05876 -0.63946
 C9 C 0.33544 0.99999 -0.66079
 C10 C 0.36118 0.94187 -0.63562
 C11 C 0.40658 0.94301 -0.58570
 C12 C 0.40071 1.06609 -0.42299
 C13 C 0.35594 1.06785 -0.37268
 C14 C 0.33771 1.01064 -0.34052
 C15 C 0.37004 0.95294 -0.35651
 C16 C 0.41464 0.95128 -0.40692
 C17 C 0.58239 0.95028 -0.40237
 C18 C 0.62727 0.95423 -0.35214
 C19 C 0.66202 1.01182 -0.34048
 C20 C 0.64626 1.06691 -0.37710
 C21 C 0.60131 1.06286 -0.42719
 C22 C 0.60666 0.93357 -0.56884
 C23 C 0.65159 0.92894 -0.61874
 C24 C 0.66195 0.98133 -0.66083
 C25 C 0.62272 1.03656 -0.65383
 C26 C 0.57777 1.04105 -0.60382
 H27 H 0.42637 1.10561 -0.57163
 H28 H 0.34914 1.10451 -0.66027
 H29 H 0.34596 0.89516 -0.65357
 H30 H 0.42280 0.89794 -0.56479
 H31 H 0.41199 1.11014 -0.44877
 H32 H 0.33585 1.11419 -0.35993
 H33 H 0.43597 0.90558 -0.42077
 H34 H 0.55903 0.90454 -0.41271
 H35 H 0.63656 0.91149 -0.32360
 H36 H 0.66848 1.11327 -0.36823
 H37 H 0.59208 1.10505 -0.45660
 H38 H 0.60145 0.89364 -0.53556
 H39 H 0.67822 0.88447 -0.62265
 H40 H 0.62862 1.07734 -0.68593
 H41 H 0.55089 1.08542 -0.59736
 H42 H 0.35915 0.90850 -0.33126
 C43 C -0.46578 1.50080 -0.00010
 C44 C -0.53118 1.50083 -0.00020
 C45 C -0.56941 1.44040 0.00103
 C46 C -0.56909 1.56129 -0.00152
 C47 C -0.42761 1.56126 0.00057
 C48 C -0.42789 1.44032 -0.00086
 C49 C -0.56715 1.39631 -0.05020
 C50 C -0.60948 1.34355 -0.05186
 C51 C -0.65497 1.33409 -0.00210
 C52 C -0.65510 1.37767 0.05005
 C53 C -0.61312 1.43031 0.05142
 C54 C -0.61288 1.57131 -0.05193
 C55 C -0.65485 1.62376 -0.05048
 C56 C -0.65462 1.66721 0.00177
 C57 C -0.60898 1.65789 0.05151
 C58 C -0.56666 1.60531 0.04977
 C59 C -0.38439 1.57245 0.05124
 C60 C -0.34251 1.62516 0.04955
 C61 C -0.34227 1.66812 -0.00320
 C62 C -0.38699 1.65684 -0.05368
 C63 C -0.42926 1.60406 -0.05152
 C64 C -0.43056 1.39669 0.05059
 C65 C -0.38876 1.34371 0.05248
 C66 C -0.34347 1.33353 0.00270
 C67 C -0.34276 1.37679 -0.04955
 C68 C -0.38422 1.42963 -0.05116
 H69 H -0.53422 1.40408 -0.08999
 H70 H -0.60702 1.31214 -0.09321
 H71 H -0.68944 1.37198 0.08900
 H72 H -0.61570 1.46417 0.09119
 H73 H -0.61560 1.53749 -0.09175
 H74 H -0.68930 1.62935 -0.08942
 H75 H -0.53369 1.59759 0.08958
 H76 H -0.38209 1.53936 0.09156
 H77 H -0.30853 1.63128 0.08888
 H78 H -0.38880 1.68640 -0.09629
 H79 H -0.46158 1.59515 -0.09170
 H80 H -0.46339 1.40497 0.09035
 H81 H -0.39133 1.31279 0.09409
 H82 H -0.30838 1.37069 -0.08840
 H83 H -0.38128 1.46315 -0.09108
 H84 H -0.60642 1.68921 0.09293
 C85 C -0.00096 0.46565 0.50135
 C86 C -0.00089 0.53135 0.50078
 C87 C 0.00022 0.57039 0.56093
 C88 C -0.00215 0.56901 0.43993
 C89 C -0.00014 0.42666 0.44117
 C90 C -0.00195 0.42800 0.56219
 C91 C -0.05061 0.56767 0.60538
 C92 C -0.05271 0.61073 0.65752
 C93 C -0.00372 0.65789 0.66642
 C94 C 0.04800 0.65853 0.62209
 C95 C 0.04971 0.61577 0.57011
 C96 C -0.05192 0.61369 0.42995
 C97 C -0.05036 0.65535 0.37724
 C98 C 0.00137 0.65407 0.33324
 C99 C 0.05051 0.60771 0.34258
 C100 C 0.04867 0.56570 0.39544
 C101 C 0.04951 0.38181 0.43165
 C102 C 0.04789 0.33952 0.37926
 C103 C -0.00387 0.34018 0.33483
 C104 C -0.05319 0.38660 0.34427
 C105 C -0.05116 0.42922 0.39679
 C106 C 0.04946 0.43090 0.60611
 C107 C 0.05154 0.38892 0.65898
 C108 C 0.00175 0.34299 0.66934
 C109 C -0.05043 0.34209 0.62540
 C110 C -0.05206 0.38368 0.57264
 H111 H -0.08991 0.53368 0.59842
 H112 H -0.09397 0.60705 0.68886
 H113 H 0.08659 0.69375 0.62673
 H114 H 0.08919 0.61900 0.53601
 H115 H -0.09139 0.61732 0.46401
 H116 H -0.08884 0.69035 0.37183
 H117 H 0.08812 0.53222 0.40294
 H118 H 0.08911 0.37869 0.46571
 H119 H 0.08661 0.30468 0.37436
 H120 H -0.09469 0.38994 0.31311
 H121 H -0.09061 0.46277 0.40406
 H122 H 0.08927 0.46401 0.59807
 H123 H 0.09358 0.39202 0.68950
 H124 H -0.08937 0.30741 0.63083
 H125 H -0.09193 0.38026 0.53889
 H126 H 0.09163 0.60437 0.31097
 O127 O -0.16585 1.00262 -0.08684
 O128 O 0.16650 0.99891 -0.08657
 O129 O -0.00068 1.08848 -0.16505
 O130 O 0.00119 0.91296 -0.16663
 O131 O 0.00199 0.83381 -0.08842
 O132 O -0.00161 1.16670 -0.08563
 O133 O 0.08802 0.99950 -0.16565
 O134 O -0.08745 1.00385 -0.16574
 Zr135 Zr 0.00031 1.00042 -0.11364
 O136 O 0.05905 0.94138 -0.05926
 O137 O -0.05825 1.05873 -0.05828
 C138 C -0.14714 1.00461 -0.14639
 C139 C 0.14774 0.99914 -0.14622
 C140 C -0.00127 1.14816 -0.14545
 C141 C 0.00163 0.85303 -0.14792
 H142 H 0.08601 1.08618 -0.08477
 O143 O 0.05835 1.05841 -0.05758
 H144 H -0.08572 0.91457 -0.08676
 O145 O -0.05789 0.94172 -0.05891
 O146 O 0.16650 1.00178 0.08685
 O147 O -0.16586 0.99565 0.08617
 O148 O 0.08782 1.16584 0.00271
 O149 O 0.08789 0.83399 -0.00255
 O150 O -0.08725 0.83357 -0.00029
 O151 O -0.08718 1.16543 -0.00005
 O152 O 0.00095 1.08631 0.16659
 O153 O -0.00063 0.91096 0.16495
 O154 O 0.00196 1.16554 0.08847
 O155 O -0.00157 0.83270 0.08559
 O156 O 0.16644 1.08699 0.00232
 O157 O -0.16582 1.08626 -0.00092
 O158 O -0.16580 0.91249 0.00044
 O159 O 0.16648 0.91325 -0.00204
 O160 O 0.08807 1.00102 0.16571
 O161 O -0.08749 0.99474 0.16532
 Zr162 Zr 0.11357 0.99997 0.00009
 Zr163 Zr -0.11290 0.99947 -0.00024
 Zr164 Zr 0.00028 1.11334 0.00101
 Zr165 Zr 0.00033 0.88605 -0.00106
 Zr166 Zr 0.00031 0.99896 0.11351
 O167 O -0.05823 0.94044 0.05794
 O168 O 0.05901 1.05828 0.05928
 C169 C 0.14785 1.00207 0.14651
 C170 C -0.14717 0.99341 0.14576
 C171 C 0.14752 1.14666 0.00271
 C172 C 0.14759 0.85347 -0.00250
 C173 C -0.14694 0.85280 0.00010
 C174 C -0.14688 1.14602 -0.00058
 C175 C 0.00147 1.14624 0.14796
 C176 C -0.00130 0.85128 0.14539
 H177 H -0.08583 1.08435 0.08648
 O178 O -0.05796 1.05741 0.05869
 H179 H 0.08618 0.91374 0.08504
 O180 O 0.05845 0.94125 0.05771
 C181 C 0.28539 0.99995 0.28987
 C182 C 0.31313 1.00394 0.22528
 C183 C 0.26599 1.00494 0.17489
 C184 C 0.19933 1.00171 0.19827
 C185 C 0.19634 0.94358 0.23787
 C186 C 0.24312 0.94272 0.28871
 C187 C 0.23987 1.05427 0.29424
 C188 C 0.19309 1.05551 0.24336
 H189 H 0.36469 1.00619 0.21555
 H190 H 0.27974 1.00832 0.12455
 H191 H 0.15883 0.90696 0.23347
 H192 H 0.24009 0.90708 0.32688
 H193 H 0.23702 1.08746 0.33471
 H194 H 0.15452 1.09102 0.24149
 C195 C -0.28557 0.98138 0.28757
 C196 C -0.31393 0.98552 0.21921
 C197 C -0.26881 0.98965 0.17180
 C198 C -0.19861 0.98916 0.19671
 C199 C -0.19533 1.04468 0.24567
 C200 C -0.24034 1.04046 0.29320
 C201 C -0.23873 0.92317 0.28475
 C202 C -0.19370 0.92746 0.23719
 H203 H -0.36541 0.98475 0.20894
 H204 H -0.28225 0.99259 0.12133
 H205 H -0.16018 1.08368 0.24352
 H206 H -0.24312 1.07578 0.33183
 H207 H -0.23836 0.88262 0.31750
 H208 H -0.15709 0.89065 0.22978
 C209 C -0.28544 1.01244 -0.28886
 C210 C -0.31384 1.00809 -0.22066
 C211 C -0.26875 1.00549 -0.17301
 C212 C -0.19854 1.00741 -0.19758
 C213 C -0.19416 0.95155 -0.24609
 C214 C -0.23907 0.95438 -0.29393
 C215 C -0.23951 1.07156 -0.28653
 C216 C -0.19458 1.06882 -0.23864
 H217 H -0.36534 1.00746 -0.21067
 H218 H -0.28224 1.00246 -0.12259
 H219 H -0.15813 0.91354 -0.24361
 H220 H -0.24074 0.91896 -0.33255
 H221 H -0.23861 1.11057 -0.32116
 H222 H -0.15787 1.10591 -0.23220
 C223 C 0.28546 1.00938 -0.28875
 C224 C 0.23796 0.95212 -0.29580
 C225 C 0.19327 0.94808 -0.24788
 C226 C 0.19900 1.00208 -0.19743
 C227 C 0.26927 0.99827 -0.17317
 C228 C 0.31415 1.00207 -0.22085
 C229 C 0.24064 1.06889 -0.28418
 C230 C 0.19599 1.06499 -0.23629
 H231 H 0.23861 0.91825 -0.33578
 H232 H 0.15651 0.91054 -0.24667
 H233 H 0.28292 0.99278 -0.12297
 H234 H 0.36569 1.00011 -0.21110
 H235 H 0.24009 1.10890 -0.31770
 H236 H 0.15986 1.10222 -0.22860
 C237 C 0.29322 1.28177 -0.00375
 C238 C 0.22496 1.31135 -0.00497
 C239 C 0.17623 1.26734 -0.00241
 C240 C 0.19975 1.19703 0.00071
 C241 C 0.24415 1.18943 -0.05807
 C242 C 0.29314 1.23335 -0.06054
 C243 C 0.29413 1.23866 0.05668
 C244 C 0.24521 1.19466 0.05911
 H245 H 0.21576 1.36287 -0.00835
 H246 H 0.12580 1.28167 -0.00338
 H247 H 0.23791 1.15214 -0.09448
 H248 H 0.32815 1.23171 -0.09914
 H249 H 0.33064 1.24211 0.09416
 H250 H 0.23971 1.16091 0.09874
 C251 C 0.29349 0.71920 0.00358
 C252 C 0.22526 0.68922 0.00478
 C253 C 0.17646 0.73293 0.00236
 C254 C 0.19988 0.80340 -0.00061
 C255 C 0.24448 0.81113 0.05814
 C256 C 0.29354 0.76750 0.06047
 C257 C 0.29412 0.76246 -0.05675
 C258 C 0.24514 0.80616 -0.05904
 H259 H 0.21614 0.63763 0.00803
 H260 H 0.12605 0.71830 0.00332
 H261 H 0.23834 0.84831 0.09463
 H262 H 0.32871 0.76928 0.09903
 H263 H 0.33050 0.75933 -0.09427
 H264 H 0.23946 0.83997 -0.09859
 C265 C -0.29321 0.71797 -0.00513
 C266 C -0.29189 0.76016 0.05628
 C267 C -0.24270 0.80387 0.05817
 C268 C -0.19932 0.80255 -0.00170
 C269 C -0.17611 0.73232 -0.00729
 C270 C -0.22496 0.68844 -0.00933
 C271 C -0.29509 0.76790 -0.06061
 C272 C -0.24577 0.81152 -0.05874
 H273 H -0.32731 0.75662 0.09469
 H274 H -0.23588 0.83705 0.09823
 H275 H -0.12578 0.71799 -0.01039
 H276 H -0.21584 0.63700 -0.01433
 H277 H -0.33263 0.77227 -0.09664
 H278 H -0.24148 0.85036 -0.09362
 C279 C -0.29210 1.28105 0.00470
 C280 C -0.29207 1.23834 -0.05619
 C281 C -0.24334 1.19434 -0.05814
 C282 C -0.19900 1.19627 0.00116
 C283 C -0.17521 1.26657 0.00549
 C284 C -0.22374 1.31057 0.00755
 C285 C -0.29344 1.23219 0.06092
 C286 C -0.24461 1.18825 0.05896
 H287 H -0.32787 1.24201 -0.09430
 H288 H -0.23726 1.16083 -0.09800
 H289 H -0.12475 1.28089 0.00761
 H290 H -0.21434 1.36206 0.01161
 H291 H -0.32962 1.22993 0.09841
 H292 H -0.23951 1.15046 0.09485
 C293 C -0.00538 1.29130 0.28456
 C294 C -0.06113 1.29266 0.23462
 C295 C -0.05855 1.24400 0.19042
 C296 C -0.00077 1.19831 0.19884
 C297 C 0.05872 1.24274 0.19840
 C298 C 0.05625 1.29131 0.24269
 C299 C -0.00878 1.22257 0.31306
 C300 C -0.00610 1.17429 0.26866
 H301 H -0.09878 1.32867 0.23150
 H302 H -0.09400 1.23915 0.15203
 H303 H 0.09909 1.23692 0.16551
 H304 H 0.09451 1.32709 0.24702
 H305 H -0.01371 1.21269 0.36420
 H306 H -0.00852 1.12375 0.28236
 C307 C 0.00374 1.29415 -0.28060
 C308 C 0.05919 1.29662 -0.23036
 C309 C 0.05734 1.24766 -0.18658
 C310 C 0.00040 1.20072 -0.19566
 C311 C -0.05986 1.24379 -0.19509
 C312 C -0.05806 1.29263 -0.23897
 C313 C 0.00845 1.22568 -0.30964
 C314 C 0.00645 1.17717 -0.26567
 H315 H 0.09559 1.33401 -0.22632
 H316 H 0.09242 1.24370 -0.14780
 H317 H -0.10021 1.23696 -0.16236
 H318 H -0.09686 1.32764 -0.24308
 H319 H 0.01376 1.21613 -0.36083
 H320 H 0.00990 1.12678 -0.27982
 C321 C -0.00532 0.70721 -0.28375
 C322 C 0.05595 0.70726 -0.24121
 C323 C 0.05848 0.75611 -0.19722
 C324 C -0.00060 0.80077 -0.19861
 C325 C -0.00513 0.82438 -0.26863
 C326 C -0.00788 0.77579 -0.31275
 C327 C -0.06155 0.70647 -0.23448
 C328 C -0.05888 0.75539 -0.19056
 H329 H 0.09395 0.67134 -0.24492
 H330 H 0.09864 0.76202 -0.16396
 H331 H -0.00699 0.87484 -0.28265
 H332 H -0.01234 0.78535 -0.36400
 H333 H -0.09994 0.67105 -0.23193
 H334 H -0.09482 0.76086 -0.15283
 C335 C 0.00345 0.70565 0.28065
 C336 C -0.05777 0.70604 0.23824
 C337 C -0.05953 0.75470 0.19416
 C338 C 0.00021 0.79881 0.19566
 C339 C 0.00489 0.82255 0.26578
 C340 C 0.00678 0.77407 0.30981
 C341 C 0.05970 0.70409 0.23169
 C342 C 0.05788 0.75284 0.18770
 H343 H -0.09630 0.67057 0.24223
 H344 H -0.09963 0.76096 0.16094
 H345 H 0.00731 0.87300 0.27998
 H346 H 0.01101 0.78356 0.36111
 H347 H 0.09739 0.66802 0.22972
 H348 H 0.09398 0.75782 0.15005
   
