data_POSCAR
  _audit_creation_date              2014-09-24
  _audit_creation_method            'ToBaCCo'
  _symmetry_space_group_name_H-M    'P1'
  _symmetry_Int_Tables_number       1
  _symmetry_cell_setting            triclinic
  loop_
  _symmetry_equiv_pos_as_xyz
 x,y,z
_cell_length_a 42.4656
_cell_length_b 42.0160
_cell_length_c 41.8531
_cell_angle_alpha 89.444000
_cell_angle_beta 91.220300
_cell_angle_gamma 89.231900
loop_
  _atom_site_label
  _atom_site_type_symbol
  _atom_site_fract_x
  _atom_site_fract_y
  _atom_site_fract_z
N1 N 0.20125 1.25515 0.19254
 N2 N 0.17751 1.25358 0.21207
 C3 C 0.15495 1.27448 0.20244
 C4 C 0.16500 1.29034 0.17525
 C5 C 0.19486 1.27759 0.17005
 H6 H 0.13266 1.27717 0.21418
 H7 H 0.21010 1.28257 0.15031
 Cu8 Cu 0.17721 1.22308 0.24727
 Cu9 Cu 0.23657 1.22491 0.19578
 Cu10 Cu 0.21469 1.15451 0.23250
 N11 N 0.17096 1.18558 0.27368
 N12 N 0.18535 1.15861 0.26735
 C13 C 0.17455 1.13563 0.28660
 C14 C 0.15191 1.14879 0.30628
 C15 C 0.15061 1.18082 0.29743
 H16 H 0.18220 1.11106 0.28547
 H17 H 0.13486 1.19904 0.30611
 N18 N 0.25102 1.15763 0.20418
 N19 N 0.26004 1.18454 0.19094
 C20 C 0.28484 1.17854 0.17225
 C21 C 0.29170 1.14618 0.17372
 C22 C 0.26987 1.13383 0.19443
 H23 H 0.29591 1.19618 0.15741
 H24 H 0.26748 1.10922 0.20157
 H25 H 0.20215 1.19387 0.20448
 H26 H 0.22968 1.19977 0.23914
 N27 N 0.83270 0.74060 0.14980
 N28 N 0.85425 0.74175 0.17276
 C29 C 0.87676 0.71970 0.16735
 C30 C 0.86876 0.70380 0.13957
 C31 C 0.84057 0.71763 0.12915
 H32 H 0.89785 0.71610 0.18194
 H33 H 0.82776 0.71271 0.10717
 Cu34 Cu 0.85200 0.77416 0.20554
 Cu35 Cu 0.79889 0.77228 0.14585
 Cu36 Cu 0.78281 0.81131 0.21654
 N37 N 0.84679 0.80487 0.23953
 N38 N 0.81945 0.81880 0.24428
 C39 C 0.82224 0.83879 0.26908
 C40 C 0.85335 0.83793 0.28025
 C41 C 0.86810 0.81587 0.26079
 H42 H 0.80319 0.85372 0.27728
 H43 H 0.89253 0.80839 0.26167
 N44 N 0.75386 0.81208 0.17895
 N45 N 0.76043 0.79786 0.15187
 C46 C 0.73845 0.80614 0.12962
 C47 C 0.71706 0.82691 0.14315
 C48 C 0.72747 0.82990 0.17458
 H49 H 0.73881 0.79863 0.10501
 H50 H 0.71799 0.84577 0.19225
 H51 H 0.81206 0.80738 0.17877
 H52 H 0.79578 0.76903 0.19357
 N53 N 0.80345 1.26233 -0.16014
 N54 N 0.81796 1.26742 -0.18710
 C55 C 0.84101 1.28864 -0.18211
 C56 C 0.84104 1.29722 -0.15019
 C57 C 0.81671 1.28011 -0.13710
 H58 H 0.85750 1.29595 -0.20000
 H59 H 0.80951 1.28004 -0.11249
 Cu60 Cu 0.80781 1.24299 -0.22500
 Cu61 Cu 0.76958 1.23182 -0.15632
 Cu62 Cu 0.75170 1.18767 -0.22361
 N63 N 0.80680 1.20858 -0.25575
 N64 N 0.78535 1.18642 -0.25446
 C65 C 0.79162 1.16406 -0.27628
 C66 C 0.81874 1.17247 -0.29221
 C67 C 0.82743 1.20122 -0.27860
 H68 H 0.77758 1.14304 -0.27965
 H69 H 0.84816 1.21496 -0.28345
 N70 N 0.72839 1.18397 -0.18365
 N71 N 0.73586 1.20001 -0.15768
 C72 C 0.71768 1.19019 -0.13365
 C73 C 0.69778 1.16684 -0.14500
 C74 C 0.70515 1.16363 -0.17688
 H75 H 0.71913 1.19902 -0.10950
 H76 H 0.69551 1.14659 -0.19350
 H77 H 0.78541 1.20191 -0.19164
 H78 H 0.75538 1.23288 -0.20325
 N79 N 0.20216 0.74290 -0.18869
 N80 N 0.17850 0.74455 -0.20943
 C81 C 0.15788 0.72152 -0.20276
 C82 C 0.16925 0.70435 -0.17644
 C83 C 0.19762 0.71843 -0.16836
 H84 H 0.13569 0.71836 -0.21541
 H85 H 0.21274 0.71276 -0.14791
 Cu86 Cu 0.17502 0.77845 -0.24126
 Cu87 Cu 0.23486 0.77505 -0.18761
 Cu88 Cu 0.21154 0.84647 -0.22379
 N89 N 0.16277 0.81818 -0.26225
 N90 N 0.17611 0.84497 -0.25405
 C91 C 0.16156 0.86922 -0.26977
 C92 C 0.13766 0.85709 -0.28913
 C93 C 0.13941 0.82436 -0.28376
 H94 H 0.16821 0.89381 -0.26726
 H95 H 0.12407 0.80640 -0.29352
 N96 N 0.24716 0.84274 -0.19294
 N97 N 0.25670 0.81546 -0.17991
 C98 C 0.28101 0.82091 -0.15956
 C99 C 0.28698 0.85327 -0.15970
 C100 C 0.26513 0.86624 -0.18129
 H101 H 0.29252 0.80285 -0.14471
 H102 H 0.26229 0.89106 -0.18783
 H103 H 0.19926 0.80690 -0.19724
 H104 H 0.22740 0.80089 -0.23026
 C105 C 0.46368 0.97909 -0.01403
 C106 C 0.48077 0.99810 0.00734
 C107 C 0.46488 1.01713 0.02930
 C108 C 0.43186 1.01700 0.03025
 C109 C 0.41498 0.99810 0.00854
 C110 C 0.43063 0.97923 -0.01379
 C111 C 0.51533 0.99816 0.00659
 C112 C 0.53071 1.02060 -0.01231
 C113 C 0.56372 1.02078 -0.01316
 C114 C 0.58112 0.99796 0.00474
 C115 C 0.56594 0.97518 0.02349
 C116 C 0.53293 0.97558 0.02454
 H117 H 0.47611 0.96474 -0.03120
 H118 H 0.47824 1.03156 0.04592
 H119 H 0.51697 1.03809 -0.02601
 H120 H 0.52090 0.95805 0.03881
 H121 H 0.38947 0.99814 0.00899
 H122 H 0.60662 0.99784 0.00396
 C123 C 0.00475 0.45873 0.97093
 C124 C 0.02640 0.47498 0.99032
 C125 C 0.04488 0.45819 1.01311
 C126 C 0.04121 0.42530 1.01713
 C127 C 0.01923 0.40926 0.99793
 C128 C 0.00093 0.42576 0.97465
 C129 C 0.02704 0.50993 0.98922
 C130 C 0.00716 0.52727 1.00915
 C131 C 0.00687 0.56061 1.00825
 C132 C 0.02632 0.57650 0.98684
 C133 C 0.04599 0.55937 0.96643
 C134 C 0.04657 0.52596 0.96797
 H135 H -0.01000 0.47200 0.95390
 H136 H 0.06114 0.47088 1.02854
 H137 H -0.00793 0.51476 1.02550
 H138 H 0.06155 0.51249 0.95222
 H139 H 0.01655 0.38381 1.00107
 H140 H 0.02587 0.60230 0.98579
 C141 C 0.95643 -0.01383 0.46817
 C142 C 0.97342 0.00829 0.48627
 C143 C 0.99542 0.02785 0.47148
 C144 C 1.00117 0.02476 0.43877
 C145 C 0.98435 0.00227 0.42094
 C146 C 0.96185 -0.01697 0.43539
 C147 C 0.97046 0.00883 0.52117
 C148 C 0.98853 -0.01258 0.54007
 C149 C 0.98709 -0.01176 0.57349
 C150 C 0.96658 0.01002 0.58783
 C151 C 0.94820 0.03131 0.56908
 C152 C 0.95050 0.03099 0.53569
 H153 H 0.93976 -0.02920 0.47977
 H154 H 1.00888 0.04454 0.48566
 H155 H 1.00446 -0.02917 0.52874
 H156 H 0.93661 0.04762 0.52110
 H157 H 0.98849 0.00004 0.39559
 H158 H 0.96514 0.01066 0.61365
 C159 C 0.11118 0.35218 1.11368
 C160 C 0.14389 0.34809 1.10925
 C161 C 0.16172 0.32795 1.12990
 C162 C 0.14766 0.31223 1.15575
 C163 C 0.11552 0.31828 1.16115
 C164 C 0.09756 0.33775 1.14042
 C165 C 0.09250 0.37176 1.08969
 C166 C 0.05934 0.37387 1.08973
 C167 C 0.04291 0.39146 1.06621
 C168 C 0.05907 0.40774 1.04242
 C169 C 0.09204 0.40610 1.04218
 C170 C 0.10880 0.38762 1.06516
 C171 C 0.15860 0.36416 1.08426
 C172 C 0.14153 0.38399 1.06308
 H173 H 0.18375 0.36145 1.08108
 H174 H 0.15403 0.39595 1.04423
 H175 H 0.18662 0.32480 1.12569
 H176 H 0.10359 0.30732 1.18088
 H177 H 0.01741 0.39237 1.06653
 H178 H 0.10447 0.41825 1.02337
 H179 H 0.07302 0.34113 1.14577
 H180 H 0.04561 0.36153 1.10720
 C181 C -0.07511 0.63758 1.08637
 C182 C -0.06055 0.66054 1.10612
 C183 C -0.07901 0.68116 1.12440
 C184 C -0.11198 0.68026 1.12235
 C185 C -0.12641 0.65788 1.10243
 C186 C -0.10829 0.63661 1.08485
 C187 C -0.05452 0.61621 1.06701
 C188 C -0.06644 0.59124 1.04821
 C189 C -0.04636 0.57280 1.02968
 C190 C -0.01405 0.57899 1.02922
 C191 C -0.00178 0.60317 1.04844
 C192 C -0.02164 0.62144 1.06764
 C193 C -0.02774 0.66354 1.10670
 C194 C -0.00875 0.64477 1.08748
 H195 H -0.01660 0.68121 1.12169
 H196 H 0.01646 0.64852 1.08825
 H197 H -0.06765 0.69887 1.13919
 H198 H -0.15184 0.65682 1.10044
 H199 H -0.05618 0.55407 1.01509
 H200 H 0.02333 0.60757 1.04857
 H201 H -0.12070 0.62013 1.06972
 H202 H -0.09113 0.58554 1.04750
 C203 C -0.09148 0.35577 0.89974
 C204 C -0.11033 0.33409 0.91669
 C205 C -0.13252 0.31557 0.90029
 C206 C -0.13620 0.31781 0.86694
 C207 C -0.11748 0.33924 0.85014
 C208 C -0.09548 0.35805 0.86625
 C209 C -0.06781 0.37487 0.91827
 C210 C -0.04825 0.39756 0.90393
 C211 C -0.02619 0.41425 0.92226
 C212 C -0.02297 0.40867 0.95526
 C213 C -0.04265 0.38653 0.96981
 C214 C -0.06497 0.36976 0.95171
 C215 C -0.10667 0.33062 0.94987
 C216 C -0.08439 0.34795 0.96697
 H217 H -0.12109 0.31399 0.96282
 H218 H -0.08231 0.34417 0.99259
 H219 H -0.14641 0.29881 0.91363
 H220 H -0.11988 0.34164 0.82443
 H221 H -0.01121 0.43121 0.91050
 H222 H -0.04076 0.38254 0.99542
 H223 H -0.08173 0.37400 0.85202
 H224 H -0.04951 0.40272 0.87864
 C225 C 0.12003 0.63576 0.88052
 C226 C 0.10321 0.65781 0.86059
 C227 C 0.11949 0.67914 0.84118
 C228 C 0.15250 0.67981 0.84199
 C229 C 0.16919 0.65810 0.86182
 C230 C 0.15324 0.63618 0.88069
 C231 C 0.10163 0.61397 0.90153
 C232 C 0.11584 0.59019 0.92129
 C233 C 0.09766 0.57173 0.94169
 C234 C 0.06505 0.57675 0.94302
 C235 C 0.05055 0.59945 0.92264
 C236 C 0.06845 0.61779 0.90177
 C237 C 0.07027 0.65929 0.86094
 C238 C 0.05329 0.64001 0.88140
 H239 H 0.05741 0.67621 0.84572
 H240 H 0.02786 0.64263 0.88134
 H241 H 0.10628 0.69621 0.82647
 H242 H 0.19469 0.65812 0.86284
 H243 H 0.10919 0.55412 0.95714
 H244 H 0.02521 0.60292 0.92321
 H245 H 0.16731 0.62030 0.89572
 H246 H 0.14090 0.58563 0.92151
 C247 C 1.09128 0.09986 0.36926
 C248 C 1.11318 0.08287 0.35071
 C249 C 1.13393 0.09925 0.33098
 C250 C 1.13273 0.13269 0.32821
 C251 C 1.11106 0.14943 0.34698
 C252 C 1.09078 0.13335 0.36725
 C253 C 1.06886 0.08130 0.38924
 C254 C 1.04673 0.09578 0.40937
 C255 C 1.02530 0.07736 0.42616
 C256 C 1.02530 0.04419 0.42308
 C257 C 1.04790 0.02949 0.40406
 C258 C 1.06973 0.04767 0.38740
 C259 C 1.11365 0.04953 0.35110
 C260 C 1.09217 0.03232 0.36875
 H261 H 1.13044 0.03650 0.33690
 H262 H 1.09305 0.00656 0.36765
 H263 H 1.15016 0.08546 0.31696
 H264 H 1.10941 0.17512 0.34610
 H265 H 1.00810 0.08911 0.44090
 H266 H 1.04836 0.00376 0.40215
 H267 H 1.07448 0.14758 0.38065
 H268 H 1.04540 0.12123 0.41230
 C269 C 1.07219 -0.09093 0.65144
 C270 C 1.09221 -0.07497 0.67325
 C271 C 1.11411 -0.09225 0.69233
 C272 C 1.11596 -0.12571 0.69109
 C273 C 1.09531 -0.14147 0.66999
 C274 C 1.07392 -0.12440 0.65035
 C275 C 1.04971 -0.07141 0.63089
 C276 C 1.03055 -0.08460 0.60660
 C277 C 1.01020 -0.06525 0.58799
 C278 C 1.00815 -0.03245 0.59344
 C279 C 1.02714 -0.01906 0.61743
 C280 C 1.04819 -0.03812 0.63574
 C281 C 1.08996 -0.04186 0.67636
 C282 C 1.06810 -0.02390 0.65836
 H283 H 1.10511 -0.02964 0.69326
 H284 H 1.06710 0.00161 0.66190
 H285 H 1.12905 -0.07929 0.70877
 H286 H 1.09576 -0.16712 0.66808
 H287 H 0.99583 -0.07594 0.56940
 H288 H 1.02611 0.00643 0.62121
 H289 H 1.05878 -0.13790 0.63471
 H290 H 1.03121 -0.10966 0.60130
 C291 C 0.89556 -0.10394 0.35163
 C292 C 0.91429 -0.12411 0.33270
 C293 C 0.90011 -0.14399 0.30997
 C294 C 0.86724 -0.14351 0.30461
 C295 C 0.84879 -0.12332 0.32353
 C296 C 0.86265 -0.10399 0.34674
 C297 C 0.91178 -0.08258 0.37515
 C298 C 0.89538 -0.06249 0.39611
 C299 C 0.91169 -0.04187 0.41638
 C300 C 0.94463 -0.04064 0.41605
 C301 C 0.96121 -0.06132 0.39620
 C302 C 0.94513 -0.08239 0.37606
 C303 C 0.94719 -0.12372 0.33582
 C304 C 0.96228 -0.10302 0.35673
 H305 H 0.96156 -0.13914 0.32130
 H306 H 0.98781 -0.10311 0.35770
 H307 H 0.91517 -0.15893 0.29576
 H308 H 0.82344 -0.12223 0.32064
 H309 H 0.89851 -0.02615 0.43169
 H310 H 0.98675 -0.06087 0.39638
 H311 H 0.84719 -0.08886 0.36017
 H312 H 0.87002 -0.06215 0.39707
 C313 C 0.87076 0.11746 0.64175
 C314 C 0.84509 0.10413 0.65791
 C315 C 0.82712 0.12287 0.67852
 C316 C 0.83517 0.15463 0.68489
 C317 C 0.86086 0.16764 0.66882
 C318 C 0.87821 0.14949 0.64743
 C319 C 0.88979 0.09637 0.62054
 C320 C 0.91466 0.10765 0.60186
 C321 C 0.93290 0.08658 0.58411
 C322 C 0.92690 0.05392 0.58482
 C323 C 0.90152 0.04257 0.60220
 C324 C 0.88267 0.06355 0.61961
 C325 C 0.83822 0.07180 0.65449
 C326 C 0.85695 0.05184 0.63623
 H327 H 0.81861 0.06152 0.66694
 H328 H 0.85122 0.02680 0.63514
 H329 H 0.80781 0.11187 0.69073
 H330 H 0.86780 0.19202 0.67254
 H331 H 0.95237 0.09563 0.57057
 H332 H 0.89670 0.01728 0.60233
 H333 H 0.89785 0.16078 0.63622
 H334 H 0.92052 0.13252 0.60081
 C335 C 0.35741 1.09351 0.11637
 C336 C 0.33260 1.07786 0.13188
 C337 C 0.31187 1.09509 0.15104
 C338 C 0.31494 1.12807 0.15482
 C339 C 0.33963 1.14356 0.13958
 C340 C 0.36067 1.12656 0.12068
 C341 C 0.37844 1.07422 0.09534
 C342 C 0.40406 1.08723 0.07897
 C343 C 0.42193 1.06847 0.05849
 C344 C 0.41466 1.03639 0.05377
 C345 C 0.38994 1.02298 0.07075
 C346 C 0.37191 1.04151 0.09140
 C347 C 0.32807 1.04521 0.12769
 C348 C 0.34719 1.02747 0.10776
 H349 H 0.30908 1.03325 0.13962
 H350 H 0.34236 1.00238 0.10491
 H351 H 0.29273 1.08273 0.16220
 H352 H 0.34275 1.16893 0.14219
 H353 H 0.44094 1.07929 0.04560
 H354 H 0.38459 0.99801 0.06768
 H355 H 0.37902 1.13981 0.10939
 H356 H 0.41045 1.11186 0.08135
 C357 C 0.63511 1.10803 -0.09100
 C358 C 0.66040 1.12379 -0.07560
 C359 C 0.68011 1.14357 -0.09323
 C360 C 0.67569 1.14739 -0.12636
 C361 C 0.65076 1.13164 -0.14165
 C362 C 0.63060 1.11234 -0.12425
 C363 C 0.61496 1.08665 -0.07130
 C364 C 0.58854 1.07068 -0.08395
 C365 C 0.57144 1.04994 -0.06484
 C366 C 0.58032 1.04450 -0.03280
 C367 C 0.60592 1.06102 -0.01972
 C368 C 0.62308 1.08212 -0.03856
 C369 C 0.66643 1.11912 -0.04286
 C370 C 0.64838 1.09849 -0.02482
 H371 H 0.68582 1.13115 -0.03109
 H372 H 0.65440 1.09523 0.00031
 H373 H 0.69962 1.15512 -0.08118
 H374 H 0.64673 1.13427 -0.16717
 H375 H 0.55170 1.03743 -0.07537
 H376 H 0.61250 1.05735 0.00524
 H377 H 0.61200 1.10068 -0.13736
 H378 H 0.58083 1.07368 -0.10851
 C379 C 0.35286 0.90424 -0.09980
 C380 C 0.32684 0.92020 -0.11474
 C381 C 0.30589 0.90349 -0.13450
 C382 C 0.30997 0.87073 -0.13951
 C383 C 0.33567 0.85486 -0.12461
 C384 C 0.35692 0.87134 -0.10510
 C385 C 0.37442 0.92304 -0.07849
 C386 C 0.40139 0.90977 -0.06291
 C387 C 0.42002 0.92816 -0.04245
 C388 C 0.41216 0.96012 -0.03692
 C389 C 0.38591 0.97375 -0.05296
 C390 C 0.36714 0.95561 -0.07363
 C391 C 0.32147 0.95266 -0.10950
 C392 C 0.34107 0.96993 -0.08924
 H393 H 0.30154 0.96485 -0.12094
 H394 H 0.33565 0.99491 -0.08566
 H395 H 0.28590 0.91606 -0.14534
 H396 H 0.33952 0.82963 -0.12813
 H397 H 0.44020 0.91715 -0.03029
 H398 H 0.38007 0.99863 -0.04928
 H399 H 0.37615 0.85785 -0.09421
 H400 H 0.40837 0.88524 -0.06601
 C401 C 0.64643 0.88548 0.09454
 C402 C 0.67057 0.87028 0.07726
 C403 C 0.69271 0.85038 0.09314
 C404 C 0.69188 0.84577 0.12636
 C405 C 0.66785 0.86065 0.14347
 C406 C 0.64531 0.88012 0.12782
 C407 C 0.62391 0.90744 0.07671
 C408 C 0.59866 0.92337 0.09137
 C409 C 0.57935 0.94477 0.07391
 C410 C 0.58484 0.95090 0.04155
 C411 C 0.60920 0.93441 0.02650
 C412 C 0.62858 0.91274 0.04368
 C413 C 0.67312 0.87571 0.04437
 C414 C 0.65274 0.89667 0.02800
 H415 H 0.69160 0.86405 0.03116
 H416 H 0.65611 0.90053 0.00266
 H417 H 0.71137 0.83951 0.07959
 H418 H 0.66651 0.85738 0.16909
 H419 H 0.56059 0.95722 0.08595
 H420 H 0.61314 0.93860 0.00130
 H421 H 0.62761 0.89117 0.14229
 H422 H 0.59359 0.91989 0.11629
   
