data_POSCAR
  _audit_creation_date              2014-09-24
  _audit_creation_method            'ToBaCCo'
  _symmetry_space_group_name_H-M    'P1'
  _symmetry_Int_Tables_number       1
  _symmetry_cell_setting            triclinic
  loop_
  _symmetry_equiv_pos_as_xyz
 x,y,z
_cell_length_a 28.0626
_cell_length_b 31.7189
_cell_length_c 33.4083
_cell_angle_alpha 89.267700
_cell_angle_beta 92.897700
_cell_angle_gamma 89.588300
loop_
  _atom_site_label
  _atom_site_type_symbol
  _atom_site_fract_x
  _atom_site_fract_y
  _atom_site_fract_z
Zr1 Zr 0.22222 0.25536 0.31460
 O2 O 0.23914 0.29214 0.36578
 O3 O 0.16223 0.22227 0.33207
 O4 O 0.16736 0.29872 0.32614
 O5 O 0.31170 0.18223 0.33677
 O6 O 0.14509 0.32493 0.26396
 O7 O 0.25110 0.21891 0.36379
 O8 O 0.14232 0.18040 0.27871
 O9 O 0.17734 0.25150 0.26278
 O10 O 0.23578 0.19700 0.28879
 O11 O 0.23912 0.30767 0.27878
 O12 O 0.29579 0.25519 0.30444
 Zr13 Zr 0.28223 0.24449 0.18686
 Zr14 Zr 0.19642 0.30159 0.22597
 Zr15 Zr 0.30763 0.19795 0.27561
 Zr16 Zr 0.19325 0.19435 0.23616
 O17 O 0.37842 0.20372 0.29990
 O18 O 0.12436 0.20315 0.20805
 O19 O 0.26550 0.19147 0.22236
 O20 O 0.20899 0.24436 0.19766
 O21 O 0.26842 0.30309 0.21235
 O22 O 0.32641 0.24811 0.23905
 C23 C 0.13553 0.19526 0.31361
 C24 C 0.28662 0.19277 0.36621
 C25 C 0.14046 0.32143 0.30198
 O26 O 0.12762 0.29522 0.19776
 O27 O 0.19711 0.32174 0.16599
 O28 O 0.25488 0.28224 0.13820
 C29 C 0.22158 0.31051 0.13637
 O30 O 0.31813 0.33534 0.32175
 Zr31 Zr 0.31101 0.30520 0.26531
 O32 O 0.33861 0.28123 0.16704
 O33 O 0.20038 0.36817 0.22553
 O34 O 0.30039 0.37059 0.25388
 O35 O 0.38164 0.29808 0.29034
 O36 O 0.35811 0.32252 0.22091
 C37 C 0.36365 0.30967 0.18509
 O38 O 0.26455 0.20817 0.13554
 O39 O 0.30066 0.13170 0.27985
 O40 O 0.33610 0.19994 0.17539
 O41 O 0.35435 0.16955 0.23671
 O42 O 0.19941 0.12886 0.24926
 O43 O 0.19186 0.16013 0.18184
 C44 C 0.36026 0.17441 0.19903
 H45 H 0.22865 0.17287 0.30654
 H46 H 0.18945 0.24192 0.17229
 H47 H 0.36084 0.24639 0.23414
 H48 H 0.23261 0.33456 0.29228
 H49 H 0.10647 0.17666 0.21159
 H50 H 0.11499 0.32409 0.19225
 H51 H 0.17012 0.37880 0.21239
 H52 H 0.33210 0.38415 0.25597
 H53 H 0.16703 0.11673 0.24586
 H54 H 0.33073 0.12074 0.29307
 H55 H 0.39060 0.17479 0.30589
 H56 H 0.39831 0.32514 0.28632
 H57 H 0.16405 0.14107 0.18076
 H58 H 0.28705 0.21604 0.11476
 H59 H 0.21664 0.28421 0.38655
 H60 H 0.34045 0.35924 0.31993
 Zr61 Zr 0.72210 0.75416 0.31563
 O62 O 0.66874 0.72115 0.34551
 O63 O 0.74677 0.79681 0.35924
 O64 O 0.75216 0.71821 0.36454
 O65 O 0.64183 0.82151 0.26527
 O66 O 0.81141 0.68047 0.33673
 O67 O 0.66387 0.79421 0.32710
 O68 O 0.80904 0.82869 0.32986
 O69 O 0.79559 0.75402 0.30716
 O70 O 0.73544 0.80768 0.28089
 O71 O 0.73638 0.69697 0.28695
 O72 O 0.67815 0.74822 0.26276
 Zr73 Zr 0.78223 0.74536 0.18780
 Zr74 Zr 0.80916 0.69875 0.27599
 Zr75 Zr 0.69493 0.80074 0.22751
 Zr76 Zr 0.80784 0.80623 0.27067
 O77 O 0.62623 0.79377 0.19928
 O78 O 0.87829 0.79795 0.29575
 O79 O 0.76776 0.80312 0.21587
 O80 O 0.82542 0.75119 0.24072
 O81 O 0.76918 0.69121 0.22190
 O82 O 0.70899 0.74564 0.19695
 C83 C 0.78199 0.82248 0.35930
 C84 C 0.63649 0.81683 0.30313
 C85 C 0.78663 0.69103 0.36642
 O86 O 0.87965 0.70624 0.30034
 O87 O 0.85807 0.67308 0.23717
 O88 O 0.83704 0.70177 0.17569
 C89 C 0.86298 0.67747 0.19927
 O90 O 0.64493 0.66891 0.27084
 Zr91 Zr 0.69658 0.69308 0.23237
 O92 O 0.75630 0.70484 0.14298
 O93 O 0.80446 0.63231 0.27996
 O94 O 0.71030 0.62758 0.23997
 O95 O 0.62707 0.69923 0.20480
 O96 O 0.69907 0.66775 0.17413
 C97 C 0.72362 0.67677 0.14360
 O98 O 0.83820 0.77606 0.15914
 O99 O 0.69749 0.86740 0.22747
 O100 O 0.75569 0.78439 0.13997
 O101 O 0.69745 0.82312 0.16817
 O102 O 0.79669 0.87239 0.26668
 O103 O 0.85452 0.83338 0.22950
 C104 C 0.72260 0.81281 0.13859
 H105 H 0.72687 0.83435 0.29390
 H106 H 0.85964 0.75174 0.23484
 H107 H 0.68883 0.74495 0.17180
 H108 H 0.72886 0.67246 0.30410
 H109 H 0.88902 0.82556 0.30627
 H110 H 0.89201 0.67769 0.30776
 H111 H 0.83573 0.62189 0.29133
 H112 H 0.68617 0.61253 0.22295
 H113 H 0.82265 0.88580 0.28310
 H114 H 0.66623 0.87763 0.21595
 H115 H 0.61414 0.82249 0.19227
 H116 H 0.61773 0.67120 0.19437
 H117 H 0.87633 0.85322 0.24375
 H118 H 0.83919 0.76426 0.13183
 H119 H 0.66759 0.73311 0.37275
 H120 H 0.62905 0.64430 0.25819
 Zr121 Zr 0.78983 0.23605 -0.30969
 O122 O 0.78334 0.26433 -0.36756
 O123 O 0.84537 0.19179 -0.31750
 O124 O 0.84857 0.27369 -0.32439
 O125 O 0.69403 0.16845 -0.32637
 O126 O 0.86526 0.31155 -0.26774
 O127 O 0.75935 0.19646 -0.35455
 O128 O 0.85773 0.16180 -0.25538
 O129 O 0.82977 0.23811 -0.25499
 O130 O 0.76794 0.18462 -0.27557
 O131 O 0.77362 0.29485 -0.28465
 O132 O 0.71535 0.24371 -0.30520
 Zr133 Zr 0.71689 0.25236 -0.18755
 Zr134 Zr 0.81123 0.29530 -0.22884
 Zr135 Zr 0.69512 0.19345 -0.26844
 Zr136 Zr 0.80545 0.18806 -0.22042
 O137 O 0.62688 0.20100 -0.29778
 O138 O 0.87275 0.19609 -0.18974
 O139 O 0.73192 0.19301 -0.21213
 O140 O 0.79090 0.24487 -0.19257
 O141 O 0.73820 0.30453 -0.22119
 O142 O 0.67746 0.25039 -0.24231
 C143 C 0.86725 0.16618 -0.29236
 C144 C 0.72168 0.17333 -0.35555
 C145 C 0.87290 0.30102 -0.30397
 O146 O 0.87812 0.28777 -0.19733
 O147 O 0.80852 0.32373 -0.17220
 O148 O 0.74438 0.29397 -0.14365
 C149 C 0.78058 0.31867 -0.14310
 O150 O 0.70072 0.32080 -0.33742
 Zr151 Zr 0.70051 0.30061 -0.27650
 O152 O 0.66362 0.29754 -0.17798
 O153 O 0.81115 0.36146 -0.23769
 O154 O 0.71577 0.36599 -0.27634
 O155 O 0.63157 0.29431 -0.30475
 O156 O 0.65151 0.32944 -0.23934
 C157 C 0.64257 0.32434 -0.20219
 O158 O 0.72585 0.22374 -0.12997
 O159 O 0.69680 0.12703 -0.26175
 O160 O 0.65844 0.21457 -0.17271
 O161 O 0.64335 0.17498 -0.22854
 O162 O 0.79439 0.12199 -0.22172
 O163 O 0.79899 0.16444 -0.16112
 C164 C 0.63488 0.18653 -0.19283
 H165 H 0.77385 0.15723 -0.28840
 H166 H 0.80811 0.24493 -0.16597
 H167 H 0.64258 0.25233 -0.23944
 H168 H 0.78308 0.31857 -0.30198
 H169 H 0.88832 0.16798 -0.18702
 H170 H 0.89234 0.31621 -0.19509
 H171 H 0.84111 0.37198 -0.22452
 H172 H 0.68545 0.38132 -0.28297
 H173 H 0.82503 0.10804 -0.21323
 H174 H 0.66679 0.11648 -0.27480
 H175 H 0.61244 0.17261 -0.29953
 H176 H 0.61664 0.32273 -0.30643
 H177 H 0.82518 0.14409 -0.15437
 H178 H 0.70242 0.23697 -0.11260
 H179 H 0.80657 0.25017 -0.38450
 H180 H 0.67973 0.34588 -0.34153
 Zr181 Zr 0.25160 0.76752 -0.31830
 O182 O 0.28416 0.75306 -0.37240
 O183 O 0.22396 0.81982 -0.35377
 O184 O 0.21678 0.73091 -0.36304
 O185 O 0.34485 0.82522 -0.27730
 O186 O 0.15412 0.70149 -0.33281
 O187 O 0.32436 0.77860 -0.32545
 O188 O 0.18756 0.86236 -0.31034
 O189 O 0.18153 0.77584 -0.30159
 O190 O 0.25344 0.81901 -0.27968
 O191 O 0.23555 0.70937 -0.29086
 O192 O 0.30205 0.75110 -0.27113
 Zr193 Zr 0.21260 0.75219 -0.18479
 Zr194 Zr 0.16613 0.71898 -0.27236
 Zr195 Zr 0.30031 0.80221 -0.23171
 Zr196 Zr 0.18453 0.82453 -0.25947
 O197 O 0.37091 0.78321 -0.21476
 O198 O 0.11375 0.82993 -0.28432
 O199 O 0.23135 0.81070 -0.21045
 O200 O 0.16343 0.76878 -0.23172
 O201 O 0.21226 0.70100 -0.22340
 O202 O 0.28316 0.74624 -0.20207
 C203 C 0.20243 0.85439 -0.34497
 C204 C 0.35071 0.80856 -0.31181
 C205 C 0.17903 0.70820 -0.36348
 O206 O 0.09651 0.73871 -0.29188
 O207 O 0.11827 0.69914 -0.23026
 O208 O 0.15797 0.70894 -0.17007
 C209 C 0.12303 0.69383 -0.19209
 O210 O 0.32282 0.66924 -0.28642
 Zr211 Zr 0.28211 0.69585 -0.24093
 O212 O 0.24017 0.70689 -0.14443
 O213 O 0.15776 0.65290 -0.27689
 O214 O 0.25717 0.63338 -0.24848
 O215 O 0.35553 0.69151 -0.22285
 O216 O 0.28733 0.66683 -0.18276
 C217 C 0.26902 0.67616 -0.14920
 O218 O 0.16428 0.78227 -0.14761
 O219 O 0.30937 0.86800 -0.22511
 O220 O 0.24970 0.78552 -0.13894
 O221 O 0.30902 0.81960 -0.17086
 O222 O 0.20685 0.88513 -0.24059
 O223 O 0.13709 0.85050 -0.21877
 C224 C 0.28591 0.81032 -0.13950
 H225 H 0.26556 0.84532 -0.29155
 H226 H 0.13102 0.77276 -0.22191
 H227 H 0.30667 0.74141 -0.17936
 H228 H 0.23774 0.68499 -0.30886
 H229 H 0.10656 0.86038 -0.28850
 H230 H 0.07799 0.71286 -0.29788
 H231 H 0.12393 0.64779 -0.28530
 H232 H 0.28118 0.61429 -0.23494
 H233 H 0.18271 0.90583 -0.25141
 H234 H 0.34361 0.87263 -0.21791
 H235 H 0.38819 0.80918 -0.20691
 H236 H 0.36240 0.66182 -0.21475
 H237 H 0.15369 0.84869 -0.19195
 H238 H 0.16712 0.76741 -0.12129
 H239 H 0.27944 0.77766 -0.39090
 H240 H 0.33460 0.64097 -0.27752
 Zr241 Zr 1.22032 1.25236 0.81596
 O242 O 1.16686 1.22006 0.84638
 O243 O 1.24768 1.29325 0.85999
 O244 O 1.25053 1.21655 0.86481
 O245 O 1.13886 1.31852 0.76564
 O246 O 1.31033 1.17963 0.83692
 O247 O 1.16297 1.29316 0.82777
 O248 O 1.30698 1.32729 0.82856
 O249 O 1.29352 1.25272 0.80654
 O250 O 1.23253 1.30562 0.78047
 O251 O 1.23457 1.19489 0.78789
 O252 O 1.17551 1.24563 0.76370
 Zr253 Zr 1.27835 1.24213 0.68750
 Zr254 Zr 1.30709 1.19717 0.77605
 Zr255 Zr 1.19135 1.29763 0.72742
 Zr256 Zr 1.30461 1.30462 0.76935
 O257 O 1.12242 1.28987 0.69987
 O258 O 1.37573 1.29758 0.79326
 O259 O 1.26388 1.30024 0.71497
 O260 O 1.32219 1.24926 0.73990
 O261 O 1.26623 1.18856 0.72265
 O262 O 1.20529 1.24208 0.69733
 C263 C 1.28247 1.31930 0.85928
 C264 C 1.13481 1.31496 0.80376
 C265 C 1.28556 1.18998 0.86666
 O266 O 1.37766 1.20556 0.79991
 O267 O 1.35619 1.17178 0.73740
 O268 O 1.33460 1.19994 0.67583
 C269 C 1.36104 1.17621 0.69954
 O270 O 1.14268 1.16715 0.77352
 Zr271 Zr 1.19376 1.19017 0.73392
 O272 O 1.25409 1.19807 0.64504
 O273 O 1.30319 1.13070 0.78040
 O274 O 1.20726 1.12476 0.74274
 O275 O 1.12406 1.19592 0.70664
 O276 O 1.19555 1.16306 0.67658
 C277 C 1.22151 1.16992 0.64653
 O278 O 1.33266 1.27310 0.65694
 O279 O 1.19321 1.36432 0.72662
 O280 O 1.25024 1.28001 0.63924
 O281 O 1.19296 1.31956 0.66780
 O282 O 1.29223 1.37060 0.76496
 O283 O 1.34998 1.33185 0.72717
 C284 C 1.21752 1.30882 0.63798
 H285 H 1.22423 1.33234 0.79353
 H286 H 1.35629 1.25015 0.73369
 H287 H 1.18506 1.24063 0.67224
 H288 H 1.22752 1.17052 0.80538
 H289 H 1.38621 1.32545 0.80332
 H290 H 1.39044 1.17722 0.80759
 H291 H 1.33453 1.12065 0.79193
 H292 H 1.18250 1.10938 0.72670
 H293 H 1.31810 1.38445 0.78111
 H294 H 1.16168 1.37420 0.71537
 H295 H 1.10992 1.31845 0.69282
 H296 H 1.11441 1.16762 0.69711
 H297 H 1.37133 1.35250 0.74079
 H298 H 1.33335 1.26056 0.62991
 H299 H 1.16619 1.23215 0.87359
 H300 H 1.12620 1.14253 0.76143
 Zr301 Zr 0.72733 0.75728 0.81852
 O302 O 0.74407 0.79626 0.86820
 O303 O 0.67040 0.72141 0.83872
 O304 O 0.67047 0.79880 0.82923
 O305 O 0.81689 0.68498 0.84105
 O306 O 0.64878 0.82517 0.76701
 O307 O 0.75726 0.72266 0.86827
 O308 O 0.64617 0.68431 0.78323
 O309 O 0.68203 0.75282 0.76703
 O310 O 0.74073 0.69868 0.79317
 O311 O 0.74391 0.80920 0.78195
 O312 O 0.80081 0.75735 0.80763
 Zr313 Zr 0.78596 0.74467 0.69041
 Zr314 Zr 0.70076 0.80240 0.72956
 Zr315 Zr 0.81232 0.69958 0.77965
 Zr316 Zr 0.69768 0.69551 0.74083
 O317 O 0.88341 0.70561 0.80314
 O318 O 0.62904 0.70340 0.71199
 O319 O 0.76968 0.69225 0.72676
 O320 O 0.71296 0.74489 0.70169
 O321 O 0.77254 0.80382 0.71495
 O322 O 0.83066 0.74907 0.74224
 C323 C 0.64201 0.69628 0.81950
 C324 C 0.79240 0.69623 0.87063
 C325 C 0.64338 0.82105 0.80482
 O326 O 0.63196 0.79574 0.70137
 O327 O 0.70048 0.82192 0.66965
 O328 O 0.75843 0.78271 0.64177
 C329 C 0.72458 0.81055 0.63996
 O330 O 0.82354 0.83849 0.82310
 Zr331 Zr 0.81572 0.80683 0.76748
 O332 O 0.84495 0.77797 0.67117
 O333 O 0.70446 0.86900 0.72905
 O334 O 0.80426 0.87188 0.75479
 O335 O 0.88652 0.80014 0.79224
 O336 O 0.86271 0.82349 0.72216
 C337 C 0.86986 0.80742 0.68773
 O338 O 0.76739 0.70902 0.63883
 O339 O 0.80555 0.63339 0.78519
 O340 O 0.83776 0.69839 0.67883
 O341 O 0.85806 0.67015 0.74067
 O342 O 0.70256 0.63036 0.75571
 O343 O 0.69672 0.66000 0.68728
 C344 C 0.86251 0.67354 0.70267
 H345 H 0.73401 0.67472 0.81126
 H346 H 0.69322 0.74215 0.67646
 H347 H 0.86506 0.74679 0.73737
 H348 H 0.73715 0.83614 0.79527
 H349 H 0.61117 0.67699 0.71614
 H350 H 0.61911 0.82452 0.69576
 H351 H 0.67416 0.87952 0.71589
 H352 H 0.83587 0.88565 0.75603
 H353 H 0.66989 0.61875 0.75274
 H354 H 0.83576 0.62271 0.79839
 H355 H 0.89560 0.67675 0.80944
 H356 H 0.90324 0.82702 0.78744
 H357 H 0.66928 0.64052 0.68670
 H358 H 0.79013 0.71654 0.61812
 H359 H 0.72208 0.78866 0.88946
 H360 H 0.84583 0.86232 0.82048
 Zr361 Zr 1.28345 0.74435 0.18618
 O362 O 1.27740 0.77525 0.12950
 O363 O 1.33736 0.69996 0.17647
 O364 O 1.34383 0.78071 0.17356
 O365 O 1.18903 0.67668 0.16764
 O366 O 1.35909 0.81797 0.23081
 O367 O 1.25392 0.70636 0.14013
 O368 O 1.35236 0.67080 0.23869
 O369 O 1.32281 0.74594 0.24116
 O370 O 1.26182 0.69211 0.21942
 O371 O 1.26698 0.80266 0.21153
 O372 O 1.20888 0.75054 0.18976
 Zr373 Zr 1.20803 0.75892 0.30740
 Zr374 Zr 1.30322 0.80244 0.26797
 Zr375 Zr 1.18882 0.69994 0.22625
 Zr376 Zr 1.29891 0.69518 0.27468
 O377 O 1.12014 0.70662 0.19753
 O378 O 1.36563 0.70396 0.30606
 O379 O 1.22511 0.69989 0.28270
 O380 O 1.28239 0.75145 0.30321
 O381 O 1.22984 0.81117 0.27419
 O382 O 1.16981 0.75669 0.25212
 C383 C 1.36069 0.67527 0.20129
 C384 C 1.21670 0.68286 0.13862
 C385 C 1.36812 0.80726 0.19494
 O386 O 1.36907 0.79531 0.30122
 O387 O 1.29944 0.83059 0.32457
 O388 O 1.23432 0.80101 0.35164
 C389 C 1.27069 0.82560 0.35305
 O390 O 1.19541 0.82583 0.15691
 Zr391 Zr 1.19358 0.80710 0.21814
 O392 O 1.15268 0.80374 0.31462
 O393 O 1.30284 0.86858 0.25900
 O394 O 1.20805 0.87266 0.21743
 O395 O 1.12478 0.80063 0.18965
 O396 O 1.14474 0.83687 0.25361
 C397 C 1.13378 0.83168 0.29008
 O398 O 1.21540 0.73200 0.36582
 O399 O 1.19175 0.63339 0.23129
 O400 O 1.15175 0.71843 0.32239
 O401 O 1.13824 0.67887 0.26638
 O402 O 1.28860 0.62906 0.27233
 O403 O 1.29326 0.66999 0.33351
 C404 C 1.12974 0.68931 0.30245
 H405 H 1.26811 0.66500 0.20623
 H406 H 1.29896 0.75139 0.33007
 H407 H 1.13485 0.75806 0.25475
 H408 H 1.27700 0.82651 0.19458
 H409 H 1.38235 0.67632 0.30747
 H410 H 1.38339 0.82372 0.30337
 H411 H 1.33261 0.87921 0.27239
 H412 H 1.17803 0.88765 0.20895
 H413 H 1.31980 0.61536 0.27941
 H414 H 1.16221 0.62271 0.21756
 H415 H 1.10680 0.67789 0.19486
 H416 H 1.11044 0.82921 0.18653
 H417 H 1.31967 0.64967 0.33959
 H418 H 1.19103 0.74527 0.38228
 H419 H 1.30072 0.76186 0.11212
 H420 H 1.17413 0.85055 0.15175
 Zr421 Zr 0.78307 1.24606 0.18580
 O422 O 0.83461 1.21084 0.15601
 O423 O 0.75657 1.28727 0.14041
 O424 O 0.75025 1.21138 0.13858
 O425 O 0.86785 1.30913 0.23265
 O426 O 0.68972 1.17715 0.16823
 O427 O 0.84142 1.28421 0.17167
 O428 O 0.69892 1.32409 0.17116
 O429 O 0.71019 1.24984 0.19599
 O430 O 0.77362 1.30031 0.21950
 O431 O 0.76705 1.18964 0.21596
 O432 O 0.82853 1.23800 0.23774
 Zr433 Zr 0.72708 1.24031 0.31514
 Zr434 Zr 0.69493 1.19535 0.22853
 Zr435 Zr 0.81544 1.29117 0.27237
 Zr436 Zr 0.70180 1.30272 0.23140
 O437 O 0.88433 1.28036 0.29949
 O438 O 0.62995 1.29866 0.20890
 O439 O 0.74333 1.29729 0.28546
 O440 O 0.68258 1.24862 0.26300
 O441 O 0.73640 1.18579 0.28171
 O442 O 0.79984 1.23667 0.30465
 C443 C 0.72250 1.31450 0.14041
 C444 C 0.87082 1.30505 0.19455
 C445 C 0.71422 1.18639 0.13787
 O446 O 0.62433 1.20661 0.20536
 O447 O 0.64601 1.17263 0.26901
 O448 O 0.66947 1.20117 0.32920
 C449 C 0.64198 1.17805 0.30677
 O450 O 0.85862 1.15868 0.23047
 Zr451 Zr 0.80858 1.18383 0.26966
 O452 O 0.74887 1.19498 0.35860
 O453 O 0.69624 1.12873 0.22640
 O454 O 0.79310 1.11894 0.26248
 O455 O 0.87839 1.18652 0.29696
 O456 O 0.80522 1.15678 0.32757
 C457 C 0.77953 1.16482 0.35743
 O458 O 0.67494 1.27455 0.34521
 O459 O 0.81646 1.35788 0.27073
 O460 O 0.75813 1.27725 0.36167
 O461 O 0.81586 1.31444 0.33109
 O462 O 0.71675 1.36815 0.23275
 O463 O 0.65871 1.33276 0.27329
 C464 C 0.79161 1.30492 0.36157
 H465 H 0.78264 1.32643 0.20532
 H466 H 0.64870 1.25115 0.26962
 H467 H 0.82023 1.23443 0.32966
 H468 H 0.77285 1.16480 0.19918
 H469 H 0.62043 1.32681 0.19787
 H470 H 0.61027 1.17875 0.19903
 H471 H 0.66427 1.11994 0.21580
 H472 H 0.81746 1.10268 0.27883
 H473 H 0.69107 1.38277 0.21638
 H474 H 0.84861 1.36641 0.28111
 H475 H 0.89831 1.30840 0.30513
 H476 H 0.88677 1.15788 0.30736
 H477 H 0.63790 1.35414 0.25921
 H478 H 0.67430 1.26257 0.37276
 H479 H 0.83516 1.22236 0.12829
 H480 H 0.87467 1.13370 0.24328
 N481 N 0.59808 1.04318 0.01375
 N482 N 0.62975 1.07358 0.01091
 N483 N 0.58449 0.95334 0.04846
 N484 N 0.60733 0.92466 0.07098
 N485 N 0.60098 0.95455 0.01238
 N486 N 0.63581 0.92654 0.00945
 N487 N 0.58178 1.04167 0.04990
 N488 N 0.60189 1.07089 0.07265
 C489 C 0.63136 1.09071 0.04788
 C490 C 0.63881 0.90797 0.04629
 N491 N 0.44777 0.94937 0.06717
 N492 N 0.42378 0.91931 0.08496
 N493 N 0.48926 1.03842 0.08317
 N494 N 0.49472 1.06566 0.11242
 N495 N 0.44483 1.03824 0.06881
 N496 N 0.41885 1.06570 0.08790
 N497 N 0.49215 0.95005 0.08166
 N498 N 0.49954 0.92065 0.10959
 Mn499 Mn 0.53706 0.99590 0.06605
 C500 C 0.45683 0.90138 0.11102
 C501 C 0.45077 1.08282 0.11468
 N502 N 0.55611 0.95647 -0.06745
 N503 N 0.58185 0.92835 -0.08588
 N504 N 0.50924 1.04503 -0.08030
 N505 N 0.50202 1.07484 -0.10784
 N506 N 0.55365 1.04522 -0.06592
 N507 N 0.57787 1.07534 -0.08332
 N508 N 0.51182 0.95667 -0.08216
 N509 N 0.50618 0.92892 -0.11097
 Mn510 Mn 0.57773 0.99982 -0.02703
 C511 C 0.54994 0.91119 -0.11261
 C512 C 0.54494 1.09378 -0.10905
 N513 N 0.40033 1.04049 -0.01107
 N514 N 0.36779 1.07039 -0.00712
 N515 N 0.41950 0.95367 -0.04921
 N516 N 0.39967 0.92471 -0.07240
 N517 N 0.40323 0.95159 -0.01307
 N518 N 0.37172 0.92095 -0.01074
 N519 N 0.41687 1.04197 -0.04713
 N520 N 0.39627 1.07265 -0.06865
 Mn521 Mn 0.42343 0.99487 0.02817
 Mn522 Mn 0.46418 0.99936 -0.06496
 Cl523 Cl 0.50059 0.99746 0.00059
 C524 C 0.36603 1.09024 -0.04338
 C525 C 0.37030 0.90436 -0.04800
 N526 N 1.09574 0.54484 0.51609
 N527 N 1.12058 0.57993 0.51269
 N528 N 1.08344 0.45341 0.54903
 N529 N 1.10523 0.42371 0.57100
 N530 N 1.10067 0.45562 0.51326
 N531 N 1.13498 0.42710 0.51000
 N532 N 1.07929 0.54167 0.55212
 N533 N 1.09244 0.57415 0.57415
 C534 C 1.11823 0.59766 0.54934
 C535 C 1.13694 0.40734 0.54637
 N536 N 0.94634 0.44806 0.56743
 N537 N 0.92261 0.41759 0.58506
 N538 N 0.98735 0.53673 0.58457
 N539 N 0.99294 0.56335 0.61425
 N540 N 0.94302 0.53707 0.57000
 N541 N 0.91715 0.56427 0.58957
 N542 N 0.99089 0.44848 0.58154
 N543 N 0.99864 0.41859 0.60892
 Mn544 Mn 1.03541 0.49499 0.56696
 C545 C 0.95604 0.39920 0.61058
 C546 C 0.94920 0.58067 0.61675
 N547 N 1.05658 0.45825 0.43277
 N548 N 1.08266 0.43084 0.41361
 N549 N 1.00850 0.54636 0.42061
 N550 N 1.00153 0.57497 0.39186
 N551 N 1.05285 0.54719 0.43518
 N552 N 1.07717 0.57654 0.41653
 N553 N 1.01213 0.45792 0.41834
 N554 N 1.00680 0.43067 0.38910
 Mn555 Mn 1.07714 0.50149 0.47416
 C556 C 1.05078 0.41364 0.38675
 C557 C 1.04436 0.59400 0.38993
 N558 N 0.89905 0.54029 0.48950
 N559 N 0.86637 0.57018 0.49327
 N560 N 0.91916 0.45361 0.45094
 N561 N 0.89942 0.42471 0.42756
 N562 N 0.90243 0.45142 0.48693
 N563 N 0.87084 0.42082 0.48898
 N564 N 0.91593 0.54198 0.45355
 N565 N 0.89554 0.57274 0.43201
 Mn566 Mn 0.92207 0.49423 0.52866
 Mn567 Mn 0.96377 0.49993 0.43565
 Cl568 Cl 0.99957 0.49761 0.50130
 C569 C 0.86497 0.59020 0.45703
 C570 C 0.86968 0.40433 0.45171
 N571 N 1.09943 0.54201 0.01357
 N572 N 1.13212 0.57155 0.01103
 N573 N 1.08432 0.45237 0.04746
 N574 N 1.10653 0.42298 0.06956
 N575 N 1.10052 0.45352 0.01125
 N576 N 1.13446 0.42476 0.00784
 N577 N 1.08307 0.54058 0.04970
 N578 N 1.10414 0.56898 0.07276
 C579 C 1.13422 0.58820 0.04817
 C580 C 1.13727 0.40578 0.04450
 N581 N 0.94771 0.44995 0.06692
 N582 N 0.92360 0.41981 0.08453
 N583 N 0.99061 0.53862 0.08374
 N584 N 0.99652 0.56604 0.11288
 N585 N 0.94612 0.53890 0.06955
 N586 N 0.92062 0.56687 0.08852
 N587 N 0.99223 0.45010 0.08113
 N588 N 0.99964 0.42024 0.10855
 Mn589 Mn 1.03772 0.49547 0.06578
 C590 C 0.95681 0.40128 0.11010
 C591 C 0.95277 0.58380 0.11520
 N592 N 1.05551 0.45691 -0.06868
 N593 N 1.08020 0.42790 -0.08707
 N594 N 1.01008 0.54643 -0.07964
 N595 N 1.00239 0.57718 -0.10600
 N596 N 1.05470 0.54613 -0.06586
 N597 N 1.07863 0.57706 -0.08258
 N598 N 1.01106 0.45788 -0.08293
 N599 N 1.00425 0.42980 -0.11137
 Mn600 Mn 1.07812 0.49959 -0.02767
 C601 C 1.04747 0.41106 -0.11339
 C602 C 1.04510 0.59643 -0.10727
 N603 N 0.90171 0.54258 -0.01001
 N604 N 0.87096 0.57371 -0.00507
 N605 N 0.91893 0.45603 -0.04941
 N606 N 0.89628 0.42961 -0.07362
 N607 N 0.90244 0.45395 -0.01332
 N608 N 0.86776 0.42600 -0.01219
 N609 N 0.91807 0.54423 -0.04612
 N610 N 0.89904 0.57624 -0.06676
 Mn611 Mn 0.92392 0.49624 0.02849
 Mn612 Mn 0.96441 0.50115 -0.06477
 Cl613 Cl 1.00103 0.49801 0.00050
 C614 C 0.87001 0.59441 -0.04086
 C615 C 0.86491 0.41083 -0.04999
 N616 N 0.59729 1.03572 0.51799
 N617 N 0.63206 1.06352 0.51648
 N618 N 0.57752 0.94582 0.55087
 N619 N 0.60067 0.91710 0.57330
 N620 N 0.59450 0.94734 0.51490
 N621 N 0.62944 0.91955 0.51195
 N622 N 0.58057 1.03422 0.55402
 N623 N 0.60336 1.06105 0.57788
 C624 C 0.63504 1.07931 0.55400
 C625 C 0.63234 0.90060 0.54848
 N626 N 0.43897 0.95041 0.56818
 N627 N 0.41152 0.92243 0.58508
 N628 N 0.48685 1.03586 0.58574
 N629 N 0.49344 1.06299 0.61503
 N630 N 0.44297 1.03861 0.57015
 N631 N 0.41858 1.06779 0.58847
 N632 N 0.48299 0.94743 0.58346
 N633 N 0.48654 0.91704 0.61102
 Mn634 Mn 0.53217 0.99068 0.56883
 C635 C 0.44146 0.90212 0.61201
 C636 C 0.45079 1.08298 0.61608
 N637 N 0.55193 0.95210 0.43461
 N638 N 0.57697 0.92382 0.41563
 N639 N 0.51035 1.04257 0.42229
 N640 N 0.50548 1.07171 0.39395
 N641 N 0.55449 1.04097 0.43728
 N642 N 0.58094 1.06916 0.41927
 N643 N 0.50788 0.95410 0.41939
 N644 N 0.50188 0.92746 0.38955
 Mn645 Mn 0.57496 0.99409 0.47606
 C646 C 0.54504 0.90837 0.38788
 C647 C 0.54949 1.08843 0.39271
 N648 N 0.40028 1.04363 0.48977
 N649 N 0.36835 1.07411 0.49317
 N650 N 0.41425 0.95588 0.45115
 N651 N 0.39034 0.93086 0.42635
 N652 N 0.39626 0.95507 0.48674
 N653 N 0.35921 0.92942 0.48681
 N654 N 0.41725 1.04423 0.45386
 N655 N 0.39751 1.07509 0.43190
 Mn656 Mn 0.41919 0.99690 0.52886
 Mn657 Mn 0.46233 0.99914 0.43650
 Cl658 Cl 0.49716 0.99503 0.50264
 C659 C 0.36747 1.09364 0.45683
 C660 C 0.35655 0.91419 0.44896
 N661 N 1.10375 0.95959 0.49684
 N662 N 1.14617 0.95823 0.51565
 N663 N 1.02541 0.93277 0.43483
 N664 N 1.02355 0.90395 0.40667
 N665 N 1.05039 0.96539 0.42366
 N666 N 1.06530 0.95992 0.38729
 N667 N 1.07801 0.92737 0.50756
 N668 N 1.10261 0.90299 0.53347
 C669 C 1.14550 0.92212 0.53757
 C670 C 1.04746 0.92192 0.37696
 N671 N 0.90774 0.95013 0.49214
 N672 N 0.86337 0.94079 0.48087
 N673 N 0.99056 0.91846 0.54951
 N674 N 0.99602 0.88395 0.57178
 N675 N 0.96004 0.94435 0.56528
 N676 N 0.94392 0.92783 0.59840
 N677 N 0.93792 0.92448 0.47579
 N678 N 0.91494 0.89746 0.45234
 Mn679 Mn 1.00797 0.92542 0.49195
 C680 C 0.86863 0.90821 0.45577
 C681 C 0.96751 0.89065 0.60254
 N682 N 1.04509 1.05579 0.43186
 N683 N 1.06083 1.07277 0.39877
 N684 N 1.06765 1.07490 0.52197
 N685 N 1.09035 1.09963 0.54789
 N686 N 1.09777 1.04964 0.50508
 N687 N 1.14191 1.05688 0.51858
 N688 N 1.01498 1.08151 0.44816
 N689 N 1.00902 1.11620 0.42632
 Mn690 Mn 1.07454 1.00758 0.46411
 C691 C 1.03705 1.10996 0.39525
 C692 C 1.13655 1.08793 0.54539
 N693 N 0.95418 1.03462 0.57336
 N694 N 0.93836 1.04041 0.60941
 N695 N 0.92844 1.07201 0.48855
 N696 N 0.90407 1.09835 0.46448
 N697 N 0.90161 1.04062 0.49956
 N698 N 0.85769 1.04519 0.48374
 N699 N 0.97970 1.06697 0.56248
 N700 N 0.98111 1.09593 0.59056
 Mn701 Mn 0.93055 0.99244 0.53276
 Mn702 Mn 0.99775 1.07413 0.50539
 Cl703 Cl 1.00276 0.99983 0.49861
 C704 C 0.95625 1.07834 0.61994
 C705 C 0.86005 1.08146 0.46207
 N706 N 0.60165 0.54276 0.01386
 N707 N 0.63707 0.56994 0.01274
 N708 N 0.58242 0.45418 0.04837
 N709 N 0.60394 0.42536 0.07165
 N710 N 0.59985 0.45436 0.01263
 N711 N 0.63380 0.42548 0.01061
 N712 N 0.58385 0.54222 0.04947
 N713 N 0.60646 0.56881 0.07349
 C714 C 0.63907 0.58614 0.05012
 C715 C 0.63536 0.40745 0.04762
 N716 N 0.44488 0.45675 0.06412
 N717 N 0.41982 0.42567 0.07901
 N718 N 0.49034 0.54360 0.08071
 N719 N 0.49531 0.56840 0.11198
 N720 N 0.44643 0.54556 0.06509
 N721 N 0.42048 0.57201 0.08547
 N722 N 0.48903 0.45528 0.07902
 N723 N 0.49547 0.42326 0.10418
 Mn724 Mn 0.53649 0.49882 0.06462
 C725 C 0.45214 0.40503 0.10375
 C726 C 0.45183 0.58649 0.11422
 N727 N 0.55822 0.45699 -0.06815
 N728 N 0.58411 0.43012 -0.08807
 N729 N 0.51555 0.54688 -0.08213
 N730 N 0.50864 0.58012 -0.10581
 N731 N 0.55950 0.54573 -0.06671
 N732 N 0.58394 0.57811 -0.07972
 N733 N 0.51421 0.45843 -0.08347
 N734 N 0.50905 0.43297 -0.11419
 Mn735 Mn 0.58033 0.49995 -0.02732
 C736 C 0.55258 0.41498 -0.11630
 C737 C 0.55155 0.59922 -0.10395
 N738 N 0.40417 0.54760 -0.01650
 N739 N 0.36662 0.57304 -0.01663
 N740 N 0.42062 0.45953 -0.05219
 N741 N 0.39906 0.43144 -0.07530
 N742 N 0.40315 0.45929 -0.01645
 N743 N 0.36921 0.43086 -0.01422
 N744 N 0.42208 0.54755 -0.05211
 N745 N 0.39757 0.57289 -0.07711
 Mn746 Mn 0.42414 0.50242 0.02428
 Mn747 Mn 0.46808 0.50305 -0.06771
 Cl748 Cl 0.50221 0.50114 -0.00151
 C749 C 0.36369 0.58900 -0.05452
 C750 C 0.36751 0.41361 -0.05110
 C751 C 0.39931 1.15025 0.18289
 C752 C 0.44254 1.14386 0.20360
 C753 C 0.46829 1.11918 0.17961
 C754 C 0.43850 1.11182 0.14638
 O755 O 0.39652 1.13082 0.14807
 H756 H 0.45370 1.15565 0.23284
 H757 H 0.50392 1.10679 0.18613
 C758 C 0.90026 0.64816 0.68620
 C759 C 0.94331 0.64030 0.70666
 C760 C 0.96793 0.61524 0.68225
 C761 C 0.93767 0.60915 0.64903
 O762 O 0.89647 0.62930 0.65110
 H763 H 0.95510 0.65146 0.73597
 H764 H 1.00319 0.60188 0.68842
 C765 C 0.71065 0.83510 0.10066
 C766 C 0.73203 0.82992 0.06469
 C767 C 0.70788 0.85686 0.03823
 C768 C 0.67377 0.87597 0.06031
 O769 O 0.67548 0.86285 0.09789
 H770 H 0.76139 0.80907 0.05854
 H771 H 0.71428 0.86191 0.00686
 C772 C 1.20580 0.33147 0.60005
 C773 C 1.22756 0.32662 0.56421
 C774 C 1.20460 0.35465 0.53803
 C775 C 1.17070 0.37408 0.56009
 O776 O 1.17147 0.36008 0.59744
 H777 H 1.25664 0.30548 0.55801
 H778 H 1.21174 0.36029 0.50690
 C779 C 0.59441 1.16655 -0.17455
 C780 C 0.54923 1.16563 -0.19267
 C781 C 0.52378 1.13989 -0.16897
 C782 C 0.55568 1.12650 -0.13860
 O783 O 0.59867 1.14268 -0.14181
 H784 H 0.53689 1.18090 -0.22048
 H785 H 0.48706 1.13038 -0.17424
 C786 C 1.09103 0.66665 0.32138
 C787 C 1.04602 0.66297 0.30345
 C788 C 1.02216 0.63682 0.32796
 C789 C 1.05460 0.62575 0.35880
 O790 O 1.09665 0.64391 0.35498
 H791 H 1.03264 0.67709 0.27540
 H792 H 0.98593 0.62580 0.32312
 C793 C 0.30203 0.83012 -0.10168
 C794 C 0.28303 0.82281 -0.06491
 C795 C 0.30684 0.84932 -0.03902
 C796 C 0.33841 0.87065 -0.06206
 O797 O 0.33562 0.85906 -0.09994
 H798 H 0.25476 0.80128 -0.05799
 H799 H 0.30133 0.85316 -0.00744
 C800 C 0.80409 0.32751 0.39877
 C801 C 0.78371 0.32136 0.43511
 C802 C 0.80599 0.34929 0.46058
 C803 C 0.83815 0.37021 0.43775
 O804 O 0.83707 0.35707 0.40038
 H805 H 0.75592 0.29937 0.44209
 H806 H 0.79937 0.35406 0.49184
 C807 C 1.20883 0.33204 0.09816
 C808 C 1.22863 0.32571 0.06168
 C809 C 1.20416 0.35267 0.03539
 C810 C 1.17163 0.37306 0.05808
 O811 O 1.17443 0.36057 0.09584
 H812 H 1.25711 0.30410 0.05506
 H813 H 1.20914 0.35685 0.00371
 C814 C 0.70995 0.83119 0.60179
 C815 C 0.72931 0.82560 0.56506
 C816 C 0.70241 0.85099 0.53897
 C817 C 0.66890 0.86969 0.56203
 O818 O 0.67349 0.85773 0.59983
 H819 H 0.75904 0.80551 0.55817
 H820 H 0.70656 0.85524 0.50717
 C821 C 1.08931 0.67036 -0.17554
 C822 C 1.04707 0.65986 -0.19617
 C823 C 1.02430 0.63349 -0.17160
 C824 C 1.05445 0.62852 -0.13803
 O825 O 1.09391 0.65135 -0.13981
 H826 H 1.03459 0.66982 -0.22604
 H827 H 0.99081 0.61773 -0.17835
 C828 C 0.60184 1.15701 0.32467
 C829 C 0.55714 1.15504 0.30577
 C830 C 0.53110 1.13073 0.33014
 C831 C 0.56210 1.11908 0.36178
 O832 O 0.60522 1.13512 0.35874
 H833 H 0.54532 1.16913 0.27726
 H834 H 0.49441 1.12118 0.32471
 C835 C 0.90221 0.65350 0.18262
 C836 C 0.94580 0.64755 0.20287
 C837 C 0.97117 0.62215 0.17916
 C838 C 0.94089 0.61382 0.14647
 O839 O 0.89888 0.63297 0.14829
 H840 H 0.95735 0.65991 0.23178
 H841 H 1.00685 0.60986 0.18560
 C842 C 0.40066 1.15290 0.68302
 C843 C 0.44415 1.14692 0.70347
 C844 C 0.46959 1.12150 0.67983
 C845 C 0.43943 1.11333 0.64703
 O846 O 0.39750 1.13250 0.64869
 H847 H 0.45551 1.15910 0.73250
 H848 H 0.50515 1.10900 0.68645
 C849 C 0.79233 0.34186 -0.10614
 C850 C 0.76973 0.33734 -0.07055
 C851 C 0.79430 0.36259 -0.04396
 C852 C 0.82972 0.38049 -0.06545
 O853 O 0.82868 0.36798 -0.10302
 H854 H 0.73960 0.31752 -0.06458
 H855 H 0.78756 0.36731 -0.01274
 C856 C 0.28176 0.84876 0.39030
 C857 C 0.25650 0.84645 0.42469
 C858 C 0.28120 0.87078 0.45209
 C859 C 0.31958 0.88593 0.43227
 O860 O 0.31993 0.87269 0.39492
 H861 H 0.22438 0.82875 0.42935
 H862 H 0.27239 0.87670 0.48269
 C863 C 1.09366 1.18120 0.33386
 C864 C 1.05882 1.20823 0.34610
 C865 C 1.03009 1.18386 0.36830
 C866 C 1.05011 1.14402 0.36818
 O867 O 1.08869 1.14224 0.34718
 H868 H 1.05602 1.24193 0.34083
 H869 H 1.00008 1.19439 0.38478
 C870 C 0.60168 0.67935 -0.16006
 C871 C 0.55494 0.68610 -0.17328
 C872 C 0.52919 0.65827 -0.15198
 C873 C 0.56246 0.63642 -0.12787
 O874 O 0.60653 0.64909 -0.13268
 H875 H 0.54167 0.70722 -0.19707
 H876 H 0.49115 0.65294 -0.15516
 C877 C 0.90469 1.13809 0.69359
 C878 C 0.93121 1.11084 0.71867
 C879 C 0.95601 1.08595 0.69406
 C880 C 0.94335 1.10024 0.65598
 O881 O 0.91203 1.13170 0.65536
 H882 H 0.93062 1.10804 0.75096
 H883 H 0.97906 1.05951 0.70265
 C884 C 0.39952 0.64996 0.18584
 C885 C 0.44063 0.63922 0.20802
 C886 C 0.46653 0.61541 0.18324
 C887 C 0.43891 0.61279 0.14802
 O888 O 0.39818 0.63391 0.14937
 H889 H 0.45041 0.64774 0.23860
 H890 H 0.50082 0.60058 0.19038
 C891 C 1.19560 0.88498 0.62750
 C892 C 1.18922 0.92686 0.63722
 C893 C 1.17786 0.94708 0.60212
 C894 C 1.17596 0.91599 0.57375
 O895 O 1.18763 0.87820 0.58879
 H896 H 1.19113 0.94078 0.66669
 H897 H 1.16618 0.97959 0.59846
 C898 C 0.70839 0.33610 0.10263
 C899 C 0.72749 0.32905 0.06598
 C900 C 0.70219 0.35494 0.03950
 C901 C 0.66988 0.37550 0.06221
 O902 O 0.67346 0.36411 0.10030
 H903 H 0.75595 0.30742 0.05935
 H904 H 0.70635 0.35824 0.00762
 C905 C 0.79213 0.84739 0.39512
 C906 C 0.75906 0.85893 0.42223
 C907 C 0.78324 0.88447 0.44871
 C908 C 0.82913 0.88574 0.43589
 O909 O 0.83461 0.86349 0.40341
 H910 H 0.72171 0.85062 0.42205
 H911 H 0.76937 0.89999 0.47437
 C912 C 0.29603 0.34161 -0.10386
 C913 C 0.27578 0.33614 -0.06734
 C914 C 0.30034 0.36251 -0.04183
 C915 C 0.33343 0.38177 -0.06490
 O916 O 0.33098 0.36916 -0.10236
 H917 H 0.24692 0.31535 -0.06020
 H918 H 0.29498 0.36716 -0.01035
 C919 C 1.09542 0.33836 -0.17934
 C920 C 1.05119 0.34340 -0.19872
 C921 C 1.02667 0.36985 -0.17532
 C922 C 1.05807 0.37961 -0.14375
 O923 O 1.09992 0.36041 -0.14595
 H924 H 1.03878 0.33001 -0.22696
 H925 H 0.99083 0.38194 -0.18135
 C926 C 0.59631 0.83966 0.31977
 C927 C 0.55301 0.84604 0.29914
 C928 C 0.52726 0.87102 0.32305
 C929 C 0.55702 0.87870 0.35624
 O930 O 0.59904 0.85956 0.35448
 H931 H 0.54198 0.83444 0.26982
 H932 H 0.49173 0.88356 0.31638
 C933 C 0.80570 0.67502 -0.09118
 C934 C 0.78545 0.68047 -0.05475
 C935 C 0.80781 0.65124 -0.02943
 C936 C 0.83948 0.63046 -0.05267
 O937 O 0.83829 0.64492 -0.08975
 H938 H 0.75736 0.70232 -0.04776
 H939 H 0.80139 0.64528 0.00176
 C940 C 0.29998 1.17143 0.40443
 C941 C 0.27900 1.17646 0.44057
 C942 C 0.30224 1.14824 0.46636
 C943 C 0.33532 1.12836 0.44374
 O944 O 0.33397 1.14242 0.40646
 H945 H 0.25000 1.19753 0.44712
 H946 H 0.29548 1.14245 0.49753
 C947 C 1.20402 0.66100 0.10135
 C948 C 1.22487 0.66665 0.06512
 C949 C 1.20072 0.64030 0.03926
 C950 C 1.16748 0.62071 0.06195
 O951 O 1.16930 0.63326 0.09938
 H952 H 1.25378 0.68757 0.05839
 H953 H 1.20647 0.63580 0.00785
 C954 C 0.70838 1.15038 0.60761
 C955 C 0.73047 1.15373 0.57173
 C956 C 0.70551 1.12766 0.54612
 C957 C 0.67032 1.11038 0.56842
 O958 O 0.67196 1.12413 0.60560
 H959 H 0.76079 1.17301 0.56504
 H960 H 0.71214 1.12190 0.51505
 C961 C 0.91024 0.32689 0.17619
 C962 C 0.95548 0.32932 0.19400
 C963 C 0.97957 0.35591 0.17012
 C964 C 0.94697 0.36834 0.13988
 O965 O 0.90475 0.35066 0.14335
 H966 H 0.96879 0.31432 0.22168
 H967 H 1.01595 0.36649 0.17514
 C968 C 0.38490 0.82211 0.66427
 C969 C 0.39904 0.79950 0.63162
 C970 C 0.42737 0.82563 0.61115
 C971 C 0.42827 0.86269 0.63199
 O972 O 0.40277 0.86081 0.66458
 H973 H 0.38812 0.76818 0.62267
 H974 H 0.44191 0.81982 0.58232
 C975 C 0.29878 1.16833 -0.09527
 C976 C 0.27757 1.17305 -0.05918
 C977 C 0.30050 1.14452 -0.03350
 C978 C 0.33371 1.12488 -0.05615
 O979 O 0.33267 1.13930 -0.09331
 H980 H 0.24854 1.19409 -0.05262
 H981 H 0.29340 1.13834 -0.00245
 C982 C 0.79910 0.66899 0.40455
 C983 C 0.77740 0.67376 0.44043
 C984 C 0.79961 0.64493 0.46626
 C985 C 0.83296 0.62505 0.44396
 O986 O 0.83265 0.63962 0.40682
 H987 H 0.74851 0.69504 0.44676
 H988 H 0.79198 0.63876 0.49721
 C989 C 0.69963 1.16577 0.10021
 C990 C 0.71953 1.17191 0.06366
 C991 C 0.69586 1.14485 0.03814
 C992 C 0.66353 1.12448 0.06124
 O993 O 0.66573 1.13713 0.09871
 H994 H 0.74812 1.19307 0.05667
 H995 H 0.70191 1.14006 0.00678
 C996 C 1.16599 0.68563 0.59932
 C997 C 1.18516 0.69351 0.56270
 C998 C 1.16860 0.66211 0.53818
 C999 C 1.14092 0.63733 0.56178
 O1000 O 1.13913 0.65155 0.59876
 H1001 H 1.20954 0.71835 0.55522
 H1002 H 1.17690 0.65711 0.50731
 C1003 C 0.60278 0.84318 -0.17928
 C1004 C 0.55909 0.84745 -0.19975
 C1005 C 0.53252 0.87198 -0.17615
 C1006 C 0.56236 0.88128 -0.14345
 O1007 O 0.60505 0.86369 -0.14507
 H1008 H 0.54829 0.83467 -0.22866
 H1009 H 0.49640 0.88316 -0.18272
 C1010 C 1.10119 0.34511 0.31851
 C1011 C 1.05740 0.35076 0.29855
 C1012 C 1.03214 0.37583 0.32262
 C1013 C 1.06271 0.38418 0.35515
 O1014 O 1.10475 0.36539 0.35293
 H1015 H 1.04561 0.33836 0.26971
 H1016 H 0.99625 0.38780 0.31657
 C1017 C 0.40855 0.82799 0.17707
 C1018 C 0.45323 0.83067 0.19587
 C1019 C 0.47819 0.85685 0.17213
 C1020 C 0.44651 0.86881 0.14105
 O1021 O 0.40414 0.85128 0.14389
 H1022 H 0.46552 0.81625 0.22409
 H1023 H 0.51441 0.86755 0.17782
 C1024 C 0.91168 0.32292 0.67663
 C1025 C 0.95752 0.32488 0.69317
 C1026 C 0.98064 0.35220 0.66922
 C1027 C 0.94696 0.36556 0.64017
 O1028 O 0.90488 0.34778 0.64454
 H1029 H 0.97186 0.30914 0.72013
 H1030 H 1.01720 0.36255 0.67343
 C1031 C 1.21246 1.14396 0.61114
 C1032 C 1.24653 1.13191 0.58513
 C1033 C 1.22275 1.10775 0.55724
 C1034 C 1.17601 1.10778 0.56811
 O1035 O 1.16967 1.12949 0.60086
 H1036 H 1.28412 1.13949 0.58661
 H1037 H 1.23736 1.09270 0.53163
 C1038 C 0.71170 0.65443 0.10636
 C1039 C 0.73320 0.66045 0.07045
 C1040 C 0.70876 0.63528 0.04372
 C1041 C 0.67439 0.61617 0.06551
 O1042 O 0.67605 0.62768 0.10334
 H1043 H 0.76255 0.68115 0.06440
 H1044 H 0.71477 0.63161 0.01222
 C1045 C 1.09763 0.86116 0.30377
 C1046 C 1.07434 0.89050 0.27864
 C1047 C 1.05031 0.91614 0.30301
 C1048 C 1.06007 0.90013 0.34095
 O1049 O 1.08892 0.86691 0.34179
 H1050 H 1.07676 0.89415 0.24655
 H1051 H 1.02977 0.94413 0.29446
 C1052 C 0.60441 0.35039 -0.18694
 C1053 C 0.56344 0.36118 -0.20930
 C1054 C 0.53771 0.38541 -0.18484
 C1055 C 0.56532 0.38818 -0.14965
 O1056 O 0.60587 0.36677 -0.15064
 H1057 H 0.55363 0.35232 -0.23978
 H1058 H 0.50356 0.40042 -0.19217
 C1059 C 0.78646 1.13757 0.39285
 C1060 C 0.75046 1.12145 0.41503
 C1061 C 0.77310 1.09634 0.44376
 C1062 C 0.82097 1.10007 0.43716
 O1063 O 0.82913 1.12475 0.40624
 H1064 H 0.71244 1.12677 0.41032
 H1065 H 0.75692 1.07826 0.46710
 C1066 C 0.28354 0.65199 -0.11271
 C1067 C 0.26218 0.65623 -0.07654
 C1068 C 0.28942 0.63277 -0.04957
 C1069 C 0.32530 0.61624 -0.07124
 O1070 O 0.32195 0.62770 -0.10953
 H1071 H 0.23118 0.67512 -0.07039
 H1072 H 0.28452 0.62879 -0.01785
 C1073 C 0.91130 0.82136 0.66654
 C1074 C 0.94638 0.79409 0.65507
 C1075 C 0.97468 0.81763 0.63175
 C1076 C 0.95429 0.85733 0.63047
 O1077 O 0.91580 0.85979 0.65166
 H1078 H 0.94967 0.76066 0.66169
 H1079 H 1.00478 0.80663 0.61565
 C1080 C 0.40308 0.32788 0.16436
 C1081 C 0.45010 0.32152 0.17684
 C1082 C 0.47514 0.34841 0.15403
 C1083 C 0.44126 0.36936 0.12975
 O1084 O 0.39735 0.35702 0.13591
 H1085 H 0.46410 0.30089 0.20075
 H1086 H 0.51328 0.35351 0.15603
   
