data_POSCAR
  _audit_creation_date              2014-09-24
  _audit_creation_method            'ToBaCCo'
  _symmetry_space_group_name_H-M    'P1'
  _symmetry_Int_Tables_number       1
  _symmetry_cell_setting            triclinic
  loop_
  _symmetry_equiv_pos_as_xyz
 x,y,z
_cell_length_a 30.5825
_cell_length_b 30.0362
_cell_length_c 30.7104
_cell_angle_alpha 89.980500
_cell_angle_beta 89.479700
_cell_angle_gamma 89.699200
loop_
  _atom_site_label
  _atom_site_type_symbol
  _atom_site_fract_x
  _atom_site_fract_y
  _atom_site_fract_z
C1 C 0.76085 0.62636 0.96215
 C2 C 0.75107 0.36863 0.47273
 C3 C 0.27215 -0.11680 0.02439
 C4 C 0.23341 0.12802 0.51185
 C5 C 0.12186 0.51823 0.24864
 C6 C -0.13552 0.00235 0.24551
 C7 C 0.35638 0.49057 0.73640
 C8 C 0.61770 0.99711 0.73879
 C9 C -0.02214 0.24676 -0.08321
 C10 C 0.48261 0.26448 0.13920
 C11 C 1.01304 0.74459 0.66743
 C12 C 0.51799 0.74804 0.38787
 C13 C 0.46655 -0.04784 0.26960
 H14 H 0.47214 -0.03024 0.23933
 C15 C 0.49278 -0.08435 0.28035
 H16 H 0.51843 -0.09447 0.25796
 C17 C 0.42501 -0.05655 0.33451
 H18 H 0.39857 -0.04574 0.35554
 C19 C 0.45023 -0.09337 0.34640
 H20 H 0.44277 -0.11057 0.37655
 N21 N 0.43274 -0.03542 0.29606
 C22 C 0.42655 0.07403 0.21709
 H23 H 0.40709 0.05584 0.19402
 C24 C 0.44801 0.11250 0.20368
 H25 H 0.44424 0.12353 0.17033
 C26 C 0.45473 0.08175 0.28823
 H27 H 0.45710 0.06939 0.32122
 C28 C 0.47627 0.12109 0.27634
 H29 H 0.49507 0.13881 0.30039
 Zn30 Zn 0.39491 0.01024 0.27637
 N31 N 0.42907 0.06012 0.25907
 C32 C 0.35465 0.06798 0.33857
 N33 N 0.35423 0.02658 0.32065
 C34 C 0.32353 -0.00379 0.33266
 C35 C 0.29253 0.00649 0.36488
 C36 C 0.32458 0.07951 0.37110
 C37 C 0.37033 -0.05113 0.20995
 C38 C 0.34501 -0.06627 0.17536
 C39 C 0.30134 0.00075 0.18086
 C40 C 0.32784 0.01488 0.21495
 N41 N 0.36170 -0.01093 0.22868
 H42 H 0.37816 0.09229 0.32776
 H43 H 0.32335 -0.03620 0.31730
 H44 H 0.26902 -0.01852 0.37446
 H45 H 0.32584 0.11247 0.38532
 H46 H 0.39678 -0.07165 0.22170
 H47 H 0.35257 -0.09817 0.16061
 H48 H 0.27499 0.02218 0.17022
 H49 H 0.32144 0.04653 0.23062
 C50 C 0.47218 0.13740 0.23370
 C51 C 0.48412 -0.10819 0.31883
 C52 C 0.30990 -0.04032 0.16053
 C53 C 0.29313 0.04857 0.38477
 C54 C 0.09165 1.04067 0.85502
 H55 H 0.10243 1.00920 0.86831
 C56 C 0.07015 1.07101 0.88207
 H57 H 0.06351 1.06165 0.91548
 C58 C 0.08918 1.09130 0.79596
 H59 H 0.09765 1.09959 0.76275
 C60 C 0.06715 1.12273 0.82199
 H61 H 0.05858 1.15484 0.80838
 N62 N 0.10095 1.05109 0.81286
 C63 C 0.10922 0.93875 0.72684
 H64 H 0.13157 0.95380 0.70378
 C65 C 0.08955 0.89820 0.71660
 H66 H 0.09650 0.88271 0.68544
 C67 C 0.07482 0.93912 0.79625
 H68 H 0.06968 0.95460 0.82756
 C69 C 0.05485 0.89849 0.78752
 H70 H 0.03384 0.88390 0.81214
 Zn71 Zn 0.13594 1.00822 0.78285
 N72 N 0.10216 0.95801 0.76644
 C73 C 0.18088 0.94556 0.83532
 N74 N 0.17864 0.98911 0.82332
 C75 C 0.20354 1.02048 0.84306
 C76 C 0.23138 1.00864 0.87704
 C77 C 0.20759 0.93245 0.86965
 C78 C 0.13938 1.04841 0.69901
 C79 C 0.15972 1.06290 0.66055
 C80 C 0.22959 1.04404 0.69175
 C81 C 0.20805 1.03031 0.72958
 N82 N 0.16370 1.03244 0.73255
 H83 H 0.16095 0.92108 0.81927
 H84 H 0.20067 1.05497 0.83327
 H85 H 0.24990 1.03428 0.89323
 H86 H 0.20798 0.89788 0.87972
 H87 H 0.10409 1.04878 0.70166
 H88 H 0.13991 1.07489 0.63390
 H89 H 0.26489 1.04182 0.69035
 H90 H 0.22689 1.01684 0.75610
 C91 C 0.06295 0.87700 0.74763
 C92 C 0.05819 1.11297 0.86588
 C93 C 0.20537 1.06003 0.65635
 C94 C 0.23283 0.96424 0.89125
 C95 C 0.56647 0.55269 0.25303
 H96 H 0.55276 0.52787 0.23185
 C97 C 0.53877 0.58400 0.27290
 H98 H 0.50407 0.58269 0.26660
 C99 C 0.62801 0.58422 0.28743
 H100 H 0.66295 0.58433 0.29262
 C101 C 0.60154 0.61581 0.30820
 H102 H 0.61646 0.64013 0.32935
 N103 N 0.61039 0.55405 0.25972
 C104 C 0.62164 0.42417 0.21880
 H105 H 0.64327 0.41518 0.24497
 C106 C 0.59581 0.39123 0.19966
 H107 H 0.59769 0.35732 0.21150
 C108 C 0.59336 0.47865 0.17081
 H109 H 0.59234 0.51289 0.15989
 C110 C 0.56734 0.44691 0.15066
 H111 H 0.54627 0.45759 0.12455
 Zn112 Zn 0.65040 0.51484 0.23108
 N113 N 0.61923 0.46719 0.20477
 C114 C 0.66658 0.47224 0.30785
 N115 N 0.68807 0.49353 0.27515
 C116 C 0.73178 0.50186 0.27752
 C117 C 0.75562 0.48778 0.31406
 C118 C 0.68906 0.45670 0.34390
 C119 C 0.67205 0.59126 0.18283
 C120 C 0.68691 0.61536 0.14695
 C121 C 0.71921 0.54810 0.11791
 C122 C 0.70393 0.52514 0.15487
 N123 N 0.68018 0.54686 0.18611
 H124 H 0.63161 0.46757 0.30592
 H125 H 0.74792 0.52000 0.25159
 H126 H 0.79033 0.49433 0.31588
 H127 H 0.67113 0.43935 0.36927
 H128 H 0.65250 0.60808 0.20719
 H129 H 0.67854 0.65028 0.14534
 H130 H 0.73691 0.53010 0.09274
 H131 H 0.70934 0.48964 0.15767
 C132 C 0.56811 0.40247 0.16517
 C133 C 0.55643 0.61655 0.30038
 C134 C 0.71013 0.59380 0.11327
 C135 C 0.73400 0.46450 0.34751
 C136 C 0.93808 0.41790 0.78823
 H137 H 0.94450 0.44950 0.80374
 C138 C 0.95045 0.37840 0.80864
 H139 H 0.96718 0.38015 0.83952
 C140 C 0.90521 0.37749 0.73103
 H141 H 0.88652 0.37729 0.70134
 C142 C 0.91652 0.33705 0.75065
 H143 H 0.90688 0.30621 0.73541
 N144 N 0.91481 0.41677 0.75081
 C145 C 0.90906 0.55231 0.69920
 H146 H 0.87414 0.55415 0.69413
 C147 C 0.93503 0.58915 0.69010
 H148 H 0.91972 0.61911 0.67769
 C149 C 0.97072 0.51131 0.72316
 H150 H 0.98433 0.48100 0.73645
 C151 C 0.99804 0.54762 0.71463
 H152 H 1.03256 0.54458 0.72136
 Zn153 Zn 0.88672 0.47010 0.73366
 N154 N 0.92693 0.51475 0.71636
 C155 C 0.86263 0.53228 0.79942
 N156 N 0.85572 0.49033 0.78433
 C157 C 0.83220 0.46055 0.80833
 C158 C 0.81393 0.47284 0.84860
 C159 C 0.84507 0.54588 0.83935
 C160 C 0.86355 0.46557 0.64469
 C161 C 0.84144 0.44800 0.60891
 C162 C 0.78962 0.41482 0.65886
 C163 C 0.81223 0.43349 0.69354
 N164 N 0.84932 0.45713 0.68609
 H165 H 0.88267 0.55521 0.78118
 H166 H 0.82891 0.42667 0.79702
 H167 H 0.79553 0.44848 0.86699
 H168 H 0.85093 0.57957 0.85034
 H169 H 0.89369 0.48345 0.63936
 H170 H 0.85453 0.45277 0.57637
 H171 H 0.76147 0.39411 0.66558
 H172 H 0.80163 0.42670 0.72646
 C173 C 0.97996 0.58756 0.69873
 C174 C 0.93810 0.33730 0.79080
 C175 C 0.80515 0.42070 0.61607
 C176 C 0.82034 0.51612 0.86461
 C177 C 0.27930 0.44646 -0.06005
 H178 H 0.27346 0.47437 -0.03850
 C179 C 0.29777 0.45321 -0.10146
 H180 H 0.30641 0.48658 -0.11162
 C181 C 0.27393 0.36903 -0.07393
 H182 H 0.26400 0.33633 -0.06299
 C183 C 0.29221 0.37413 -0.11501
 H184 H 0.29595 0.34484 -0.13509
 N185 N 0.26798 0.40469 -0.04740
 C186 C 0.18177 0.43525 0.05687
 H187 H 0.15818 0.41225 0.04414
 C188 C 0.16951 0.46183 0.09185
 H189 H 0.13638 0.45971 0.10447
 C190 C 0.25424 0.46274 0.05909
 H191 H 0.28767 0.46121 0.04734
 C192 C 0.24317 0.49035 0.09433
 H193 H 0.26822 0.51039 0.10927
 Zn194 Zn 0.23967 0.38800 0.00432
 N195 N 0.22370 0.43536 0.04169
 C196 C 0.26290 0.33299 0.07474
 N197 N 0.27675 0.35015 0.03607
 C198 C 0.31900 0.34584 0.02254
 C199 C 0.34943 0.32428 0.04853
 C200 C 0.29247 0.31119 0.10202
 C201 C 0.16383 0.38807 -0.03932
 C202 C 0.12254 0.37544 -0.05254
 C203 C 0.13337 0.30446 -0.01679
 C204 C 0.17462 0.31887 -0.00347
 N205 N 0.18824 0.36054 -0.01410
 H206 H 0.22934 0.33789 0.08517
 H207 H 0.32991 0.36098 -0.00748
 H208 H 0.38311 0.32230 0.03747
 H209 H 0.28104 0.29886 0.13315
 H210 H 0.17596 0.42079 -0.04760
 H211 H 0.10310 0.39839 -0.07160
 H212 H 0.12185 0.27179 -0.00730
 H213 H 0.19507 0.29746 0.01610
 C214 C 0.20055 0.48881 0.11180
 C215 C 0.30425 0.41664 -0.12951
 C216 C 0.10654 0.33366 -0.04040
 C217 C 0.33661 0.30750 0.08922
 C218 C 0.77181 0.06797 1.05605
 H219 H 0.79243 0.06788 1.02724
 C220 C 0.78913 0.05508 1.09621
 H221 H 0.82286 0.04412 1.09782
 C222 C 0.70383 0.08566 1.08953
 H223 H 0.67107 0.09898 1.08721
 C224 C 0.71974 0.07309 1.13014
 H225 H 0.69816 0.07579 1.15808
 N226 N 0.73020 0.08401 1.05369
 C227 C 0.68426 0.09978 0.92034
 H228 H 0.67688 0.13500 0.92219
 C229 C 0.67389 0.07598 0.88302
 H230 H 0.65867 0.09319 0.85607
 C231 C 0.71268 0.03477 0.95383
 H232 H 0.72734 0.01901 0.98184
 C233 C 0.70324 0.00962 0.91674
 H234 H 0.71068 -0.02562 0.91662
 Zn235 Zn 0.71289 0.11571 1.00334
 N236 N 0.70322 0.07903 0.95472
 C237 C 0.77990 0.15466 0.95168
 N238 N 0.75876 0.15544 0.99085
 C239 C 0.77398 0.17989 1.02461
 C240 C 0.81242 0.20413 1.02010
 C241 C 0.81867 0.17835 0.94577
 C242 C 0.62265 0.12158 1.01204
 C243 C 0.58229 0.13981 1.02395
 C244 C 0.61898 0.20808 1.04294
 C245 C 0.65861 0.18882 1.02982
 N246 N 0.65981 0.14597 1.01555
 H247 H 0.76793 0.13411 0.92557
 H248 H 0.75735 0.17877 1.05583
 H249 H 0.82401 0.22245 1.04793
 H250 H 0.83582 0.17626 0.91482
 H251 H 0.62458 0.08740 1.00108
 H252 H 0.55336 0.11932 1.02217
 H253 H 0.61858 0.24176 1.05554
 H254 H 0.68837 0.20775 1.03223
 C255 C 0.68347 0.03038 0.88078
 C256 C 0.76343 0.05903 1.13416
 C257 C 0.58033 0.18332 1.04039
 C258 C 0.83596 0.20260 0.98059
 C259 C 0.30572 0.60783 0.55865
 H260 H 0.32806 0.63435 0.55065
 C261 C 0.31653 0.57752 0.59136
 H262 H 0.34716 0.58126 0.60837
 C263 C 0.23847 0.57107 0.54694
 H264 H 0.20780 0.56923 0.52977
 C265 C 0.24803 0.53999 0.57919
 H266 H 0.22429 0.51442 0.58628
 N267 N 0.26669 0.60474 0.53804
 C268 C 0.18721 0.62330 0.43090
 H269 H 0.16729 0.65060 0.44264
 C270 C 0.17197 0.59659 0.39710
 H271 H 0.14052 0.60394 0.38274
 C272 C 0.25191 0.57984 0.43551
 H273 H 0.28300 0.57346 0.45090
 C274 C 0.23774 0.55204 0.40225
 H275 H 0.25865 0.52486 0.39179
 Zn276 Zn 0.24812 0.64748 0.49686
 N277 N 0.22676 0.61472 0.44908
 C278 C 0.31591 0.67540 0.44010
 N279 N 0.29649 0.68272 0.47950
 C280 C 0.31352 0.71209 0.50836
 C281 C 0.35280 0.73381 0.49889
 C282 C 0.35535 0.69608 0.42947
 C283 C 0.18310 0.71697 0.50088
 C284 C 0.14738 0.73964 0.51972
 C285 C 0.15473 0.69337 0.58354
 C286 C 0.19024 0.67213 0.56387
 N287 N 0.20301 0.68308 0.52272
 H288 H 0.30174 0.65234 0.41735
 H289 H 0.29747 0.71724 0.53951
 H290 H 0.36650 0.75576 0.52305
 H291 H 0.37095 0.68882 0.39845
 H292 H 0.19418 0.72561 0.46842
 H293 H 0.13107 0.76560 0.50150
 H294 H 0.14471 0.68318 0.61596
 H295 H 0.20699 0.64629 0.58156
 C296 C 0.19722 0.56027 0.38264
 C297 C 0.28713 0.54357 0.60257
 C298 C 0.13234 0.72707 0.56131
 C299 C 0.37469 0.72510 0.45931
 C300 C 0.82802 0.93158 0.47151
 H301 H 0.83451 0.94045 0.50475
 C302 C 0.84478 0.95814 0.43813
 H303 H 0.86390 0.98706 0.44649
 C304 C 0.79614 0.88303 0.42024
 H305 H 0.77734 0.85357 0.41330
 C306 C 0.81258 0.90851 0.38577
 H307 H 0.80568 0.89875 0.35259
 N308 N 0.80294 0.89559 0.46223
 C309 C 0.70398 0.90179 0.55619
 H310 H 0.68360 0.87968 0.53774
 C311 C 0.68475 0.92813 0.58865
 H312 H 0.64976 0.92655 0.59424
 C313 C 0.77420 0.92867 0.57406
 H314 H 0.80928 0.92660 0.57048
 C315 C 0.75623 0.95628 0.60613
 H316 H 0.77777 0.97612 0.62596
 Zn317 Zn 0.77509 0.86339 0.50814
 N318 N 0.74802 0.90282 0.54905
 C319 C 0.80062 0.80954 0.57621
 N320 N 0.81628 0.82987 0.53986
 C321 C 0.85975 0.82959 0.52997
 C322 C 0.88952 0.80903 0.55808
 C323 C 0.82898 0.78845 0.60486
 C324 C 0.70005 0.84670 0.45992
 C325 C 0.66403 0.82294 0.44532
 C326 C 0.69338 0.75706 0.47973
 C327 C 0.72915 0.78208 0.49340
 N328 N 0.73119 0.82637 0.48437
 H329 H 0.76596 0.81084 0.58353
 H330 H 0.87149 0.84647 0.50108
 H331 H 0.92414 0.81006 0.55044
 H332 H 0.81520 0.77300 0.63358
 H333 H 0.70250 0.88195 0.45308
 H334 H 0.63901 0.84014 0.42698
 H335 H 0.69198 0.72210 0.48802
 H336 H 0.75459 0.76629 0.51217
 C337 C 0.71095 0.95607 0.61373
 C338 C 0.83611 0.94733 0.39462
 C339 C 0.65977 0.77782 0.45616
 C340 C 0.87429 0.78884 0.59657
 C341 C -0.06215 0.30029 0.38090
 H342 H -0.03870 0.32631 0.37431
 C343 C -0.10301 0.31109 0.39866
 H344 H -0.11078 0.34562 0.40555
 C345 C -0.08059 0.22375 0.37977
 H346 H -0.07144 0.18971 0.37247
 C347 C -0.12217 0.23317 0.39681
 H348 H -0.14471 0.20614 0.40276
 N349 N -0.05190 0.25726 0.37148
 C350 C 0.08562 0.21758 0.37607
 H351 H 0.09563 0.22089 0.34236
 C352 C 0.11571 0.20295 0.40696
 H353 H 0.14881 0.19485 0.39678
 C354 C 0.03052 0.22454 0.43041
 H355 H -0.00283 0.23262 0.43939
 C356 C 0.05990 0.21110 0.46256
 H357 H 0.04878 0.20878 0.49605
 Zn358 Zn 0.00261 0.24413 0.34454
 N359 N 0.04363 0.22713 0.38800
 C360 C 0.05706 0.31928 0.33021
 N361 N 0.02251 0.29587 0.31474
 C362 C 0.00000 0.31031 0.27942
 C363 C 0.01212 0.34946 0.25802
 C364 C 0.07020 0.35874 0.30988
 C365 C 0.02079 0.16051 0.30417
 C366 C 0.01013 0.12233 0.28082
 C367 C -0.05645 0.15843 0.25790
 C368 C -0.04406 0.19635 0.28107
 N369 N -0.00658 0.19634 0.30470
 H370 H 0.07395 0.30798 0.35894
 H371 H -0.02783 0.29176 0.26813
 H372 H -0.00680 0.36023 0.23035
 H373 H 0.09758 0.37702 0.32289
 H374 H 0.04997 0.16026 0.32349
 H375 H 0.03166 0.09379 0.28303
 H376 H -0.08764 0.15815 0.24148
 H377 H -0.06594 0.22470 0.28257
 C378 C 0.10294 0.19961 0.45078
 C379 C -0.13385 0.27742 0.40613
 C380 C -0.02971 0.12036 0.25848
 C381 C 0.04764 0.37437 0.27328
 C382 C 1.05767 0.77535 0.03248
 H383 H 1.03425 0.75879 0.01204
 C384 C 1.09782 0.78834 0.01479
 H385 H 1.10410 0.78255 -0.01946
 C386 C 1.07829 0.80157 0.10203
 H387 H 1.07075 0.80556 0.13630
 C388 C 1.11876 0.81553 0.08556
 H389 H 1.14213 0.83065 0.10725
 N390 N 1.04866 0.78202 0.07542
 C391 C 0.94494 0.69162 0.06067
 H392 H 0.95662 0.67014 0.08633
 C393 C 0.91237 0.67648 0.03272
 H394 H 0.89973 0.64311 0.03677
 C395 C 0.94474 0.76220 0.02618
 H396 H 0.95647 0.79610 0.02492
 C397 C 0.91259 0.74832 -0.00268
 H398 H 0.90013 0.77201 -0.02605
 Zn399 Zn 0.99650 0.75882 0.10024
 N400 N 0.95999 0.73403 0.05724
 C401 C 0.92296 0.78973 0.14361
 N402 N 0.96253 0.80320 0.12816
 C403 C 0.97542 0.84629 0.13157
 C404 C 0.94847 0.87745 0.15258
 C405 C 0.89499 0.81970 0.16465
 C406 C 1.03933 0.68143 0.12601
 C407 C 1.05420 0.64856 0.15441
 C408 C 1.01516 0.68526 0.21313
 C409 C 1.00134 0.71769 0.18362
 N410 N 1.01320 0.71493 0.14089
 H411 H 0.91331 0.75535 0.13982
 H412 H 1.00652 0.85659 0.11813
 H413 H 0.95947 0.91152 0.15557
 H414 H 0.86408 0.80771 0.17716
 H415 H 1.04873 0.68043 0.09197
 H416 H 1.07489 0.62205 0.14188
 H417 H 1.00550 0.68819 0.24698
 H418 H 0.98150 0.74521 0.19506
 C419 C 0.89532 0.70518 0.00094
 C420 C 1.12920 0.80827 0.04156
 C421 C 1.04191 0.65008 0.19853
 C422 C 0.90778 0.86421 0.16967
 C423 C 0.52962 0.30830 0.54205
 H424 H 0.49607 0.31989 0.54250
 C425 C 0.56044 0.33009 0.51637
 H426 H 0.54965 0.35757 0.49639
 C427 C 0.58391 0.25940 0.56936
 H428 H 0.59314 0.23292 0.59128
 C429 C 0.61609 0.28066 0.54438
 H430 H 0.64983 0.26993 0.54696
 N431 N 0.54170 0.27388 0.56803
 C432 C 0.41587 0.21499 0.60201
 H433 H 0.41975 0.21260 0.63691
 C434 C 0.37671 0.20192 0.58294
 H435 H 0.35058 0.18904 0.60331
 C436 C 0.44508 0.23526 0.53311
 H437 H 0.47191 0.24771 0.51364
 C438 C 0.40618 0.22335 0.51280
 H439 H 0.40369 0.22662 0.47782
 Zn440 Zn 0.49805 0.25422 0.60708
 N441 N 0.44874 0.23214 0.57712
 C442 C 0.44067 0.32324 0.63283
 N443 N 0.48132 0.30583 0.63867
 C444 C 0.51202 0.32813 0.66176
 C445 C 0.50210 0.36949 0.68053
 C446 C 0.42947 0.36437 0.65079
 C447 C 0.53552 0.17098 0.62462
 C448 C 0.54977 0.13521 0.64996
 C449 C 0.52859 0.17632 0.71445
 C450 C 0.51559 0.21174 0.68789
 N451 N 0.51919 0.20841 0.64383
 H452 H 0.41715 0.30596 0.61314
 H453 H 0.54454 0.31418 0.66478
 H454 H 0.52704 0.38660 0.69871
 H455 H 0.39682 0.37740 0.64573
 H456 H 0.53724 0.16889 0.58948
 H457 H 0.56262 0.10563 0.63413
 H458 H 0.52528 0.17945 0.74944
 H459 H 0.50178 0.24148 0.70243
 C460 C 0.37118 0.20710 0.53797
 C461 C 0.60460 0.31725 0.51834
 C462 C 0.54582 0.13739 0.69542
 C463 C 0.46027 0.38816 0.67500
 C464 C 0.45701 0.74982 0.94738
 H465 H 0.47636 0.72030 0.95359
 C466 C 0.42937 0.76690 0.97995
 H467 H 0.42824 0.75037 1.01120
 C468 C 0.43337 0.80548 0.89807
 H469 H 0.43424 0.81962 0.86569
 C470 C 0.40540 0.82360 0.92955
 H471 H 0.38520 0.85198 0.92108
 N472 N 0.45811 0.76902 0.90728
 C473 C 0.55123 0.67272 0.86019
 H474 H 0.53051 0.65772 0.83630
 C475 C 0.59164 0.65315 0.86852
 H476 H 0.60136 0.62351 0.85076
 C477 C 0.56488 0.72965 0.91155
 H478 H 0.55457 0.75995 0.92772
 C479 C 0.60540 0.71048 0.92163
 H480 H 0.62632 0.72631 0.94525
 Zn481 Zn 0.48883 0.74253 0.86018
 N482 N 0.53921 0.71128 0.88034
 C483 C 0.49282 0.79377 0.78124
 N484 N 0.50762 0.78897 0.82265
 C485 C 0.53603 0.81862 0.83994
 C486 C 0.55113 0.85446 0.81538
 C487 C 0.50706 0.82941 0.75541
 C488 C 0.41149 0.69348 0.85163
 C489 C 0.38399 0.66069 0.83542
 C490 C 0.43580 0.64750 0.77701
 C491 C 0.46197 0.68136 0.79386
 N492 N 0.45022 0.70255 0.83145
 H493 H 0.46955 0.77041 0.76831
 H494 H 0.54667 0.81474 0.87315
 H495 H 0.57369 0.87761 0.83004
 H496 H 0.49485 0.83256 0.72262
 H497 H 0.40239 0.71054 0.88131
 H498 H 0.35417 0.65309 0.85308
 H499 H 0.44634 0.62975 0.74804
 H500 H 0.49254 0.68952 0.77784
 C501 C 0.61967 0.67278 0.89864
 C502 C 0.40243 0.80383 0.97086
 C503 C 0.39652 0.63653 0.79821
 C504 C 0.53664 0.86037 0.77256
 C505 C 0.52241 -0.21089 0.35933
 C506 C 0.55482 -0.20484 0.32828
 C507 C 0.54569 -0.16497 0.30912
 C508 C 0.50821 -0.14955 0.32972
 O509 O 0.49417 -0.17739 0.36009
 H510 H 0.58160 -0.22720 0.32041
 H511 H 0.56416 -0.14946 0.28311
 C512 C 0.96078 0.25766 0.87157
 C513 C 0.93554 0.23038 0.84583
 C514 C 0.92515 0.25546 0.81011
 C515 C 0.94472 0.29627 0.81675
 O516 O 0.96634 0.29724 0.85362
 H517 H 0.92492 0.19683 0.85296
 H518 H 0.90409 0.24568 0.78372
 C519 C 0.00414 1.20372 0.91656
 C520 C 0.01988 1.18361 0.95375
 C521 C 0.04171 1.14670 0.93986
 C522 C 0.03810 1.14681 0.89505
 O523 O 0.01556 1.18160 0.88081
 H524 H 0.01615 1.19487 0.98704
 H525 H 0.05903 1.12319 0.96017
 C526 C 0.51247 0.70820 0.35792
 C527 C 0.47688 0.70085 0.33152
 C528 C 0.48745 0.66417 0.30733
 C529 C 0.52906 0.65215 0.32017
 O530 O 0.54418 0.67895 0.35058
 H531 H 0.44736 0.72071 0.32931
 H532 H 0.46780 0.64939 0.28210
 C533 C 0.50389 0.31003 0.13417
 C534 C 0.49804 0.33599 0.09745
 C535 C 0.52142 0.37349 0.10400
 C536 C 0.54022 0.36832 0.14438
 O537 O 0.52998 0.32953 0.16266
 H538 H 0.47919 0.32809 0.06885
 H539 H 0.52462 0.40096 0.08145
 C540 C 0.02587 0.77496 0.70481
 C541 C 0.01814 0.76584 0.74834
 C542 C 0.03081 0.80278 0.77033
 C543 C 0.04522 0.83215 0.73879
 O544 O 0.04228 0.81531 0.69908
 H545 H 0.00453 0.73585 0.76238
 H546 H 0.02993 0.80733 0.80526
 C547 C 1.01987 0.69589 0.68028
 C548 C 1.05832 0.67786 0.69601
 C549 C 1.04944 0.63412 0.70418
 C550 C 1.00618 0.62853 0.69287
 O551 O 0.98851 0.66586 0.67828
 H552 H 1.08889 0.69488 0.70140
 H553 H 1.07174 0.60983 0.71767
 C554 C 0.49571 0.23713 0.17866
 C555 C 0.50592 0.25224 0.21988
 C556 C 0.50240 0.21572 0.24656
 C557 C 0.48949 0.18127 0.21985
 O558 O 0.48574 0.19438 0.17917
 H559 H 0.51129 0.28614 0.23024
 H560 H 0.50507 0.21548 0.28165
 C561 C 0.34328 0.45460 -0.23116
 C562 C 0.34451 0.40951 -0.24021
 C563 C 0.33084 0.38905 -0.20327
 C564 C 0.32202 0.42298 -0.17400
 O565 O 0.32985 0.46272 -0.19083
 H566 H 0.35374 0.39341 -0.27044
 H567 H 0.32758 0.35352 -0.19898
 C568 C 0.86054 1.00075 0.29512
 C569 C 0.86562 1.03717 0.32222
 C570 C 0.85869 1.02180 0.36330
 C571 C 0.84956 0.97712 0.35864
 O572 O 0.85067 0.96433 0.31740
 H573 H 0.87242 1.07123 0.31309
 H574 H 0.85860 1.04144 0.39281
 C575 C 0.82659 0.02795 1.22541
 C576 C 0.79121 0.04575 1.24791
 C577 C 0.76302 0.06025 1.21697
 C578 C 0.78271 0.05005 1.17753
 O579 O 0.82138 0.03074 1.18266
 H580 H 0.78559 0.04687 1.28270
 H581 H 0.73168 0.07599 1.22296
 C582 C 0.32576 0.49148 0.69767
 C583 C 0.28861 0.46592 0.69254
 C584 C 0.26988 0.48052 0.65517
 C585 C 0.29651 0.51431 0.64017
 O586 O 0.33039 0.52081 0.66584
 H587 H 0.27554 0.44067 0.71403
 H588 H 0.23960 0.46860 0.64169
 C589 C 0.14813 0.51385 0.29007
 C590 C 0.17602 0.47874 0.29895
 C591 C 0.19754 0.49057 0.33574
 C592 C 0.18159 0.53230 0.34646
 O593 O 0.15165 0.54636 0.31883
 H594 H 0.18102 0.44880 0.27991
 H595 H 0.22241 0.47126 0.35211
 C596 C 0.64374 -0.00837 0.78049
 C597 C 0.67019 -0.04459 0.78972
 C598 C 0.68829 -0.03572 0.82914
 C599 C 0.67207 0.00557 0.84093
 O600 O 0.64534 0.02220 0.81137
 H601 H 0.67571 -0.07381 0.76975
 H602 H 0.71129 -0.05648 0.84650
 C603 C 0.65083 1.00053 0.70186
 C604 C 0.68180 1.03378 0.69881
 C605 C 0.70812 1.02219 0.66466
 C606 C 0.69133 0.98274 0.64925
 O607 O 0.65658 0.96957 0.67167
 H608 H 0.68541 1.06229 0.72000
 H609 H 0.73648 1.04005 0.65284
 C610 C 0.15445 0.52319 0.21134
 C611 C 0.18656 0.55543 0.20894
 C612 C 0.20880 0.54732 0.17100
 C613 C 0.18834 0.51103 0.15292
 O614 O 0.15561 0.49644 0.17732
 H615 H 0.19301 0.58146 0.23234
 H616 H 0.23628 0.56579 0.15808
 C617 C -0.22788 0.32843 0.45102
 C618 C -0.24814 0.29030 0.43625
 C619 C -0.21541 0.26484 0.41842
 C620 C -0.17772 0.28943 0.42321
 O621 O -0.18532 0.32772 0.44295
 H622 H -0.28251 0.28212 0.43747
 H623 H -0.21898 0.23294 0.40254
 C624 C 0.31352 0.85501 1.02531
 C625 C 0.32407 0.82516 1.05783
 C626 C 0.36030 0.80295 1.04307
 C627 C 0.36899 0.82040 1.00225
 O628 O 0.34060 0.85187 0.99162
 H629 H 0.30644 0.81932 1.08798
 H630 H 0.37703 0.77616 1.05964
 C631 C 1.23381 0.85189 0.01755
 C632 C 1.23087 0.82331 -0.01756
 C633 C 1.19140 0.80313 -0.01337
 C634 C 1.17285 0.82059 0.02412
 O635 O 1.19870 0.84994 0.04313
 H636 H 1.25464 0.81838 -0.04345
 H637 H 1.17810 0.77839 -0.03504
 C638 C 0.70116 0.36582 0.47656
 C639 C 0.67255 0.40069 0.46811
 C640 C 0.63241 0.38628 0.48029
 C641 C 0.63888 0.34393 0.49643
 O642 O 0.68055 0.33167 0.49465
 H643 H 0.68003 0.43381 0.45648
 H644 H 0.60264 0.40582 0.47972
 C645 C 0.26978 0.16216 0.50756
 C646 C 0.27497 0.19054 0.47244
 C647 C 0.31367 0.21166 0.47901
 C648 C 0.32920 0.19496 0.51783
 O649 O 0.30248 0.16534 0.53531
 H650 H 0.25367 0.19416 0.44470
 H651 H 0.32874 0.23610 0.45788
 C652 C 0.79957 0.65790 -0.04216
 C653 C 0.80376 0.69242 -0.07177
 C654 C 0.84127 0.71376 -0.06100
 C655 C 0.85737 0.69117 -0.02536
 O656 O 0.83230 0.65715 -0.01419
 H657 H 0.78163 0.70206 -0.09740
 H658 H 0.85441 0.74301 -0.07680
 C659 C 0.72513 0.63768 0.92941
 C660 C 0.72924 0.63107 0.88489
 C661 C 0.69004 0.64265 0.86787
 C662 C 0.66478 0.65606 0.90288
 O663 O 0.68584 0.65330 0.94025
 H664 H 0.75750 0.61912 0.86690
 H665 H 0.68111 0.64216 0.83386
 C666 C 0.18997 0.15274 0.51009
 C667 C 0.17177 0.17761 0.54359
 C668 C 0.13543 0.19727 0.52652
 C669 C 0.13474 0.18408 0.48350
 O670 O 0.16788 0.15746 0.47346
 H671 H 0.18418 0.18187 0.57620
 H672 H 0.11327 0.22005 0.54294
 C673 C 0.58925 0.03878 0.74057
 C674 C 0.56043 0.04901 0.77407
 C675 C 0.54110 0.08817 0.76243
 C676 C 0.55882 0.09868 0.72225
 O677 O 0.58775 0.06863 0.70884
 H678 H 0.55422 0.02994 0.80336
 H679 H 0.51610 0.10611 0.78049
 C680 C 1.09233 0.55890 0.25010
 C681 C 1.06272 0.56867 0.28301
 C682 C 1.04033 0.60533 0.26906
 C683 C 1.05746 0.61484 0.22833
 O684 O 1.08875 0.58663 0.21688
 H685 H 1.05748 0.55049 0.31301
 H686 H 1.01370 0.62190 0.28599
 C687 C 0.86255 0.95542 0.22683
 C688 C 0.82756 0.92693 0.23227
 C689 C 0.83904 0.88877 0.21103
 C690 C 0.88014 0.89673 0.19372
 O691 O 0.89394 0.93726 0.20279
 H692 H 0.79745 0.93329 0.25005
 H693 H 0.81963 0.85888 0.20899
 C694 C 0.40203 0.47821 0.72062
 C695 C 0.43962 0.48278 0.74499
 C696 C 0.46878 0.45242 0.72851
 C697 C 0.44672 0.43063 0.69587
 O698 O 0.40681 0.44666 0.69090
 H699 H 0.44367 0.50198 0.77445
 H700 H 0.50040 0.44427 0.74192
 C701 C 0.35344 0.53625 0.75767
 C702 C 0.31497 0.55385 0.77441
 C703 C 0.32566 0.59421 0.79104
 C704 C 0.36989 0.59874 0.78302
 O705 O 0.38674 0.56382 0.76236
 H706 H 0.28298 0.53859 0.77475
 H707 H 0.30375 0.61741 0.80720
 C708 C -0.09254 0.02577 0.23500
 C709 C -0.05176 0.00540 0.23522
 C710 C -0.02216 0.03877 0.23857
 C711 C -0.04656 0.07738 0.24202
 O712 O -0.08901 0.06953 0.23933
 H713 H -0.04406 -0.02967 0.23748
 H714 H 0.01274 0.03457 0.24227
 C715 C 0.09291 0.47776 0.24181
 C716 C 0.06561 0.47243 0.20662
 C717 C 0.04502 0.43290 0.21322
 C718 C 0.06094 0.41678 0.25219
 O719 O 0.08993 0.44405 0.26952
 H720 H 0.06131 0.49492 0.17943
 H721 H 0.02137 0.41792 0.19185
 C722 C 0.58773 0.95742 0.73285
 C723 C 0.56192 0.94986 0.69696
 C724 C 0.53926 0.91187 0.70618
 C725 C 0.55263 0.89917 0.74727
 O726 O 0.58178 0.92689 0.76331
 H727 H 0.55972 0.96996 0.66780
 H728 H 0.51552 0.89601 0.68553
 C729 C 0.74310 0.63140 0.00846
 C730 C 0.73000 0.67194 0.02537
 C731 C 0.71697 0.66363 0.06688
 C732 C 0.72272 0.61833 0.07287
 O733 O 0.73897 0.59875 0.03739
 H734 H 0.73013 0.70391 0.00908
 H735 H 0.70463 0.68821 0.08960
 C736 C 0.23894 1.10131 0.55366
 C737 C 0.27583 1.07627 0.56264
 C738 C 0.26847 1.05782 0.60238
 C739 C 0.22737 1.07245 0.61495
 O740 O 0.20920 1.09846 0.58521
 H741 H 0.30468 1.07207 0.54235
 H742 H 0.29031 1.03566 0.61958
 C743 C 0.27460 0.91610 0.98680
 C744 C 0.30488 0.94994 0.98309
 C745 C 0.29384 0.97277 0.94633
 C746 C 0.25781 0.95102 0.93013
 O747 O 0.24620 0.91680 0.95458
 H748 H 0.33132 0.95736 1.00508
 H749 H 0.31008 1.00174 0.93307
 C750 C 0.76242 0.40707 0.44245
 C751 C 0.79232 0.44109 0.44740
 C752 C 0.78825 0.46688 0.41057
 C753 C 0.75637 0.44650 0.38618
 O754 O 0.74174 0.41019 0.40503
 H755 H 0.81400 0.44696 0.47437
 H756 H 0.80485 0.49780 0.40349
 C757 C 0.76782 0.37055 0.51921
 C758 C 0.76389 0.33451 0.54707
 C759 C 0.77659 0.34909 0.58660
 C760 C 0.78766 0.39304 0.58056
 O761 O 0.78253 0.40640 0.53962
 H762 H 0.75206 0.30156 0.53941
 H763 H 0.77811 0.32979 0.61632
 C764 C 0.26691 -0.08992 0.06608
 C765 C 0.23192 -0.06202 0.07511
 C766 C 0.24261 -0.04014 0.11236
 C767 C 0.28354 -0.05596 0.12335
 O768 O 0.29822 -0.08611 0.09534
 H769 H 0.20277 -0.05727 0.05591
 H770 H 0.22302 -0.01523 0.12899
 C771 C 0.23669 0.09529 0.47425
 C772 C 0.20828 0.06046 0.46726
 C773 C 0.22502 0.03794 0.43222
 C774 C 0.26249 0.06066 0.42045
 O775 O 0.26946 0.09527 0.44590
 H776 H 0.17930 0.05223 0.48599
 H777 H 0.21146 0.00850 0.41738
 C778 C 0.77651 0.57954 0.95123
 C779 C 0.75285 0.54117 0.95909
 C780 C 0.76860 0.51025 0.93020
 C781 C 0.80015 0.53208 0.90598
 O782 O 0.80509 0.57360 0.91911
 H783 H 0.72433 0.53749 0.97984
 H784 H 0.75552 0.47734 0.92494
 C785 C 0.04156 0.75431 0.62762
 C786 C 0.04107 0.79274 0.60275
 C787 C 0.07436 0.78776 0.57295
 C788 C 0.09310 0.74698 0.58226
 O789 O 0.07320 0.72695 0.61508
 H790 H 0.01970 0.82132 0.60657
 H791 H 0.08458 0.81165 0.54859
 C792 C 0.49681 0.23687 1.10005
 C793 C 0.47008 0.21120 1.07406
 C794 C 0.49767 0.18848 1.04687
 C795 C 0.53915 0.20179 1.05821
 O796 O 0.53865 0.23100 1.09033
 H797 H 0.43490 0.20793 1.07579
 H798 H 0.48859 0.16437 1.02245
 C799 C 0.93993 0.24214 0.94895
 C800 C 0.94112 0.25518 0.99216
 C801 C 0.90195 0.24352 1.00959
 C802 C 0.87947 0.22355 0.97611
 O803 O 0.90264 0.22238 0.93943
 H804 H 0.96783 0.27061 1.00931
 H805 H 0.89200 0.24810 1.04315
 C806 C 0.47918 0.75359 0.41880
 C807 C 0.47640 0.78586 0.45079
 C808 C 0.43681 0.77985 0.47057
 C809 C 0.41811 0.74435 0.44923
 O810 O 0.44383 0.72841 0.41793
 H811 H 0.50044 0.81091 0.45845
 H812 H 0.42326 0.79948 0.49700
 C813 C 0.55877 0.74176 0.41515
 C814 C 0.56628 0.70588 0.44228
 C815 C 0.60590 0.71360 0.46071
 C816 C 0.61958 0.75388 0.44381
 O817 O 0.59092 0.77097 0.41640
 H818 H 0.54513 0.67766 0.44797
 H819 H 0.62206 0.69280 0.48445
 C820 C 0.00678 0.28503 -0.06895
 C821 C -0.00818 0.32824 -0.06329
 C822 C 0.02736 0.35215 -0.05190
 C823 C 0.06138 0.32187 -0.05100
 O824 O 0.04909 0.28108 -0.06103
 H825 H -0.04120 0.34062 -0.06737
 H826 H 0.02829 0.38740 -0.04471
 C827 C 0.43308 0.27115 0.13997
 C828 C 0.40446 0.26036 0.17360
 C829 C 0.36388 0.27178 0.15927
 C830 C 0.37049 0.28883 0.11803
 O831 O 0.41222 0.28850 0.10653
 H832 H 0.41194 0.24595 0.20495
 H833 H 0.33347 0.26828 0.17713
 C834 C 0.96461 0.75240 0.65867
 C835 C 0.93212 0.74423 0.68917
 C836 C 0.89405 0.75571 0.66986
 C837 C 0.90555 0.77039 0.62869
 O838 O 0.94845 0.76835 0.62185
 H839 H 0.93578 0.73130 0.72181
 H840 H 0.86202 0.75416 0.68490
   
