data_POSCAR
  _audit_creation_date              2014-09-24
  _audit_creation_method            'ToBaCCo'
  _symmetry_space_group_name_H-M    'P1'
  _symmetry_Int_Tables_number       1
  _symmetry_cell_setting            triclinic
  loop_
  _symmetry_equiv_pos_as_xyz
 x,y,z
_cell_length_a 20.5028
_cell_length_b 20.1515
_cell_length_c 29.2271
_cell_angle_alpha 90.000000
_cell_angle_beta 89.775100
_cell_angle_gamma 90.000100
loop_
  _atom_site_label
  _atom_site_type_symbol
  _atom_site_fract_x
  _atom_site_fract_y
  _atom_site_fract_z
O1 O 0.12410 0.07970 0.02932
 O2 O -0.12454 -0.07500 0.02975
 O3 O -0.07541 0.12849 0.03117
 O4 O 0.07498 -0.12368 0.03081
 O5 O -0.11184 0.03634 0.05566
 O6 O 0.11135 -0.03171 0.05540
 O7 O -0.03464 -0.11095 0.05523
 O8 O 0.03419 0.11583 0.05513
 C9 C 0.09315 0.10793 0.06053
 C10 C -0.09366 -0.10327 0.06081
 C11 C -0.10445 0.09644 0.06175
 C12 C 0.10340 -0.09169 0.06145
 O13 O 0.12429 -0.07499 -0.03262
 O14 O -0.12436 0.07970 -0.03219
 O15 O 0.07514 0.12850 -0.03404
 O16 O -0.07524 -0.12368 -0.03368
 O17 O -0.11161 -0.03172 -0.05827
 O18 O 0.11158 0.03635 -0.05853
 O19 O 0.03439 -0.11094 -0.05811
 O20 O -0.03446 0.11583 -0.05800
 Co21 Co 0.10640 0.00233 -0.00158
 Co22 Co -0.10666 0.00233 -0.00129
 Co23 Co -0.00013 0.11061 -0.00144
 Co24 Co -0.00013 -0.10580 -0.00144
 O25 O -0.00013 0.00236 -0.00144
 C26 C 0.09340 -0.10327 -0.06368
 C27 C -0.09342 0.10793 -0.06340
 C28 C 0.10419 0.09645 -0.06462
 C29 C -0.10366 -0.09169 -0.06432
 O30 O 0.46530 0.38554 0.44207
 O31 O 0.53438 0.61229 0.44189
 O32 O 0.38828 0.53299 0.44180
 O33 O 0.61160 0.46513 0.44132
 O34 O 0.42479 0.62498 0.46628
 O35 O 0.57499 0.37301 0.46579
 O36 O 0.62430 0.57646 0.46738
 O37 O 0.37546 0.42161 0.46803
 C38 C 0.40631 0.39338 0.43678
 C39 C 0.59340 0.60471 0.43632
 C40 C 0.39630 0.59295 0.43569
 C41 C 0.60365 0.40518 0.43516
 O42 O 0.53444 0.38554 0.55506
 O43 O 0.46537 0.61229 0.55524
 O44 O 0.38813 0.46514 0.55581
 O45 O 0.61146 0.53299 0.55533
 O46 O 0.57496 0.62498 0.53085
 O47 O 0.42475 0.37302 0.53133
 O48 O 0.62427 0.42160 0.52909
 O49 O 0.37544 0.57646 0.52975
 Co50 Co 0.49987 0.39077 0.49856
 Co51 Co 0.49987 0.60714 0.49856
 Co52 Co 0.39328 0.49905 0.49881
 Co53 Co 0.60646 0.49905 0.49832
 O54 O 0.49987 0.49900 0.49856
 C55 C 0.59343 0.39338 0.56035
 C56 C 0.40634 0.60472 0.56080
 C57 C 0.39609 0.40518 0.56197
 C58 C 0.60344 0.59295 0.56144
 C59 C 0.18670 0.19160 0.17325
 N60 N 0.22143 0.15796 0.14110
 N61 N 0.19166 0.13093 0.10520
 C62 C 0.12611 0.13662 0.10022
 N63 N 0.09139 0.17005 0.13244
 N64 N 0.12114 0.19706 0.16831
 C65 C 0.21941 0.22207 0.21253
 N66 N 0.18453 0.25602 0.24443
 N67 N 0.21418 0.28401 0.28001
 C68 C 0.27980 0.27910 0.28493
 N69 N 0.31468 0.24515 0.25303
 N70 N 0.28502 0.21716 0.21745
 C71 C 0.31254 0.30959 0.32419
 N72 N 0.37811 0.30417 0.32907
 N73 N 0.40792 0.33121 0.36490
 C74 C 0.37325 0.36464 0.39714
 N75 N 0.30769 0.37029 0.39224
 N76 N 0.27785 0.34322 0.35637
 C77 C 0.81271 0.81138 0.17337
 N78 N 0.87833 0.80649 0.16825
 N79 N 0.90810 0.83409 0.13245
 C80 C 0.87333 0.86760 0.10049
 N81 N 0.80771 0.87276 0.10564
 N82 N 0.77792 0.84512 0.14149
 C83 C 0.78001 0.78013 0.21252
 N84 N 0.71433 0.78439 0.21764
 N85 N 0.68471 0.75563 0.25310
 C86 C 0.71969 0.72154 0.28467
 N87 N 0.78538 0.71728 0.27956
 N88 N 0.81500 0.74604 0.24410
 C89 C 0.68701 0.69025 0.32381
 N90 N 0.72181 0.65653 0.35569
 N91 N 0.69203 0.62883 0.39152
 C92 C 0.62640 0.63392 0.39666
 N93 N 0.59162 0.66743 0.36471
 N94 N 0.62138 0.69509 0.32893
 C95 C 0.81304 0.19160 0.82387
 N96 N 0.77830 0.15796 0.85603
 N97 N 0.80808 0.13092 0.89193
 C98 C 0.87362 0.13661 0.89690
 N99 N 0.90835 0.17005 0.86469
 N100 N 0.87860 0.19705 0.82882
 C101 C 0.78033 0.22207 0.78460
 N102 N 0.81521 0.25601 0.75270
 N103 N 0.78555 0.28400 0.71712
 C104 C 0.71994 0.27909 0.71220
 N105 N 0.68506 0.24514 0.74410
 N106 N 0.71472 0.21715 0.77967
 C107 C 0.68719 0.30958 0.67294
 N108 N 0.62162 0.30417 0.66806
 N109 N 0.59181 0.33121 0.63223
 C110 C 0.62649 0.36463 0.59999
 N111 N 0.69205 0.37028 0.60489
 N112 N 0.72189 0.34322 0.64076
 C113 C 0.18704 0.81139 0.82375
 N114 N 0.22183 0.84513 0.85564
 N115 N 0.19203 0.87276 0.89148
 C116 C 0.12642 0.86760 0.89664
 N117 N 0.09165 0.83410 0.86468
 N118 N 0.12142 0.80649 0.82888
 C119 C 0.21973 0.78014 0.78460
 N120 N 0.18475 0.74605 0.75302
 N121 N 0.21437 0.71729 0.71756
 C122 C 0.28005 0.72155 0.71245
 N123 N 0.31503 0.75564 0.74403
 N124 N 0.28541 0.78440 0.77949
 C125 C 0.31274 0.69027 0.67331
 N126 N 0.37837 0.69510 0.66820
 N127 N 0.40813 0.66743 0.63241
 C128 C 0.37334 0.63393 0.60046
 N129 N 0.30772 0.62884 0.60561
 N130 N 0.27793 0.65654 0.64143
 C131 C 0.18696 0.18693 0.82560
 N132 N 0.15296 0.22279 0.85701
 N133 N 0.12532 0.19314 0.89298
 C134 C 0.13067 0.12645 0.89891
 N135 N 0.16440 0.09067 0.86727
 N136 N 0.19199 0.12031 0.83135
 C137 C 0.21849 0.21953 0.78629
 N138 N 0.25291 0.18339 0.75527
 N139 N 0.28196 0.21281 0.71980
 C140 C 0.27773 0.27952 0.71404
 N141 N 0.24330 0.31567 0.74504
 N142 N 0.21424 0.28624 0.78052
 C143 C 0.30949 0.31207 0.67479
 N144 N 0.30470 0.37873 0.66901
 N145 N 0.33273 0.40828 0.63322
 C146 C 0.36663 0.37232 0.60185
 N147 N 0.37168 0.30567 0.60767
 N148 N 0.34362 0.27609 0.64350
 C149 C 0.81073 0.81405 0.82344
 N150 N 0.80567 0.88074 0.82896
 N151 N 0.83338 0.91070 0.86456
 C152 C 0.86721 0.87511 0.89598
 N153 N 0.87252 0.80844 0.89042
 N154 N 0.84479 0.77846 0.85478
 C155 C 0.77929 0.78102 0.78444
 N156 N 0.78378 0.71427 0.77896
 N157 N 0.75494 0.68439 0.74374
 C158 C 0.72049 0.72013 0.71272
 N159 N 0.71600 0.78688 0.71820
 N160 N 0.74484 0.81675 0.75342
 C161 C 0.68905 0.68711 0.67372
 N162 N 0.65495 0.72272 0.64241
 N163 N 0.62723 0.69276 0.60676
 C164 C 0.63258 0.62610 0.60115
 N165 N 0.66645 0.59049 0.63254
 N166 N 0.69415 0.62043 0.66816
 C167 C 0.18902 0.81406 0.17369
 N168 N 0.19407 0.88075 0.16817
 N169 N 0.16637 0.91071 0.13256
 C170 C 0.13254 0.87512 0.10115
 N171 N 0.12723 0.80844 0.10671
 N172 N 0.15496 0.77846 0.14235
 C173 C 0.22046 0.78103 0.21268
 N174 N 0.21597 0.71427 0.21816
 N175 N 0.24481 0.68440 0.25338
 C176 C 0.27926 0.72013 0.28441
 N177 N 0.28375 0.78689 0.27892
 N178 N 0.25491 0.81676 0.24370
 C179 C 0.31070 0.68712 0.32341
 N180 N 0.34480 0.72273 0.35472
 N181 N 0.37252 0.69277 0.39037
 C182 C 0.36717 0.62610 0.39597
 N183 N 0.33330 0.59050 0.36458
 N184 N 0.30560 0.62044 0.32897
 C185 C 0.81278 0.18692 0.17152
 N186 N 0.80775 0.12030 0.16578
 N187 N 0.83534 0.09066 0.12986
 C188 C 0.86907 0.12645 0.09822
 N189 N 0.87441 0.19314 0.10415
 N190 N 0.84677 0.22279 0.14012
 C191 C 0.78124 0.21952 0.21084
 N192 N 0.78549 0.28623 0.21661
 N193 N 0.75643 0.31566 0.25208
 C194 C 0.72200 0.27951 0.28309
 N195 N 0.71777 0.21280 0.27733
 N196 N 0.74682 0.18338 0.24185
 C197 C 0.69024 0.31206 0.32234
 N198 N 0.65611 0.27608 0.35362
 N199 N 0.62806 0.30566 0.38946
 C200 C 0.63310 0.37231 0.39528
 N201 N 0.66701 0.40827 0.36391
 N202 N 0.69503 0.37872 0.32811
   
