data_POSCAR
  _audit_creation_date              2014-09-24
  _audit_creation_method            'ToBaCCo'
  _symmetry_space_group_name_H-M    'P1'
  _symmetry_Int_Tables_number       1
  _symmetry_cell_setting            triclinic
  loop_
  _symmetry_equiv_pos_as_xyz
 x,y,z
_cell_length_a 25.4750
_cell_length_b 26.0346
_cell_length_c 25.6159
_cell_angle_alpha 90.023100
_cell_angle_beta 90.142100
_cell_angle_gamma 89.902500
loop_
  _atom_site_label
  _atom_site_type_symbol
  _atom_site_fract_x
  _atom_site_fract_y
  _atom_site_fract_z
C1 C 0.31563 0.38287 1.38672
 C2 C 0.33759 0.40605 1.34222
 C3 C 0.38034 0.38382 1.31631
 C4 C 0.40047 0.33671 1.33410
 C5 C 0.37807 0.31156 1.37728
 C6 C 0.33652 0.33577 1.40403
 H7 H 0.32199 0.44227 1.32811
 H8 H 0.43182 0.31836 1.31242
 H9 H 0.31926 0.31698 1.43760
 C10 C 1.18796 0.62432 0.88302
 C11 C 1.16048 0.66591 0.90487
 C12 C 1.11436 0.68411 0.88118
 C13 C 1.09313 0.65804 0.83830
 C14 C 1.11867 0.61485 0.81768
 C15 C 1.16616 0.59838 0.83987
 H16 H 1.17760 0.68744 0.93690
 H17 H 1.05821 0.67293 0.81930
 H18 H 1.18697 0.56629 0.82251
 C19 C 0.68877 -0.13017 0.11248
 C20 C 0.66741 -0.10190 0.15438
 C21 C 0.62582 -0.12155 0.18422
 C22 C 0.60189 -0.16763 0.16904
 C23 C 0.62020 -0.19452 0.12545
 C24 C 0.66284 -0.17545 0.09689
 H25 H 0.68590 -0.06656 0.16704
 H26 H 0.57034 -0.18360 0.19223
 H27 H 0.67632 -0.19665 0.06303
 C28 C -0.18032 1.12288 -0.39005
 C29 C -0.15873 1.09866 -0.34558
 C30 C -0.11667 1.12048 -0.31802
 C31 C -0.09727 1.16849 -0.33344
 C32 C -0.11876 1.19385 -0.37664
 C33 C -0.15962 1.17088 -0.40502
 H34 H -0.17575 1.06345 -0.33085
 H35 H -0.06619 1.18664 -0.31114
 H36 H -0.17481 1.19063 -0.43910
 C37 C 0.68037 0.62568 0.61293
 C38 C 0.66170 0.60244 0.65852
 C39 C 0.62064 0.62482 0.68651
 C40 C 0.59727 0.67026 0.66830
 C41 C 0.61677 0.69563 0.62377
 C42 C 0.65779 0.67186 0.59559
 H43 H 0.68056 0.56803 0.67336
 H44 H 0.56431 0.68610 0.68963
 H45 H 0.67484 0.69085 0.56203
 C46 C 0.81852 0.37349 0.11251
 C47 C 0.84067 0.39929 0.15511
 C48 C 0.88680 0.38090 0.17867
 C49 C 0.91053 0.33602 0.15894
 C50 C 0.88921 0.31009 0.11544
 C51 C 0.84236 0.32891 0.09331
 H52 H 0.82168 0.43349 0.17019
 H53 H 0.94437 0.32010 0.17897
 H54 H 0.82466 0.30947 0.06023
 C55 C 0.31905 0.11769 0.88591
 C56 C 0.33926 0.16570 0.90147
 C57 C 0.37954 0.18953 0.87333
 C58 C 0.40089 0.16507 0.82963
 C59 C 0.38191 0.11706 0.81351
 C60 C 0.34049 0.09421 0.84104
 H61 H 0.32417 0.18473 0.93597
 H62 H 0.43159 0.18389 0.80755
 H63 H 0.32388 0.05882 0.82613
 C64 C 0.18137 0.88449 0.38671
 C65 C 0.15726 0.84068 0.40819
 C66 C 0.11247 0.81931 0.38478
 C67 C 0.09158 0.84160 0.33951
 C68 C 0.11508 0.88502 0.31758
 C69 C 0.16032 0.90565 0.34057
 H70 H 0.17434 0.82198 0.44203
 H71 H 0.05753 0.82461 0.32085
 H72 H 0.17854 0.93894 0.32281
 Zn73 Zn 0.01641 1.05865 -0.03443
 Zn74 Zn -0.04026 0.95827 -0.04677
 Zn75 Zn 0.06174 0.96425 0.01169
 Zn76 Zn -0.03484 1.00974 0.05748
 O77 O 0.00060 0.99765 -0.00314
 O78 O -0.01302 1.06431 -0.09726
 O79 O -0.00859 0.89909 -0.06502
 O80 O 0.11892 0.99813 -0.00897
 O81 O -0.05622 0.99096 -0.10672
 O82 O 0.08524 1.06719 -0.04569
 O83 O 0.06605 0.90394 -0.02056
 O84 O -0.00071 0.98655 0.11400
 O85 O -0.10138 0.93962 -0.01762
 O86 O 0.07046 0.95173 0.07956
 O87 O -0.09734 0.97886 0.05906
 O88 O -0.04667 1.07644 0.06876
 O89 O -0.00597 1.11320 0.00220
 C90 C -0.04211 1.03462 -0.12376
 C91 C 0.03568 0.88069 -0.05186
 C92 C 0.12465 1.03944 -0.03432
 C93 C 0.04262 0.96293 0.11892
 C94 C -0.12077 0.94988 0.02677
 C95 C -0.03243 1.11624 0.04404
 Zn96 Zn 0.51520 0.06485 0.52816
 Zn97 Zn 0.45910 -0.03630 0.53783
 Zn98 Zn 0.46894 0.01487 0.43351
 Zn99 Zn 0.56253 -0.03018 0.48442
 O100 O 0.50123 0.00341 0.49617
 O101 O 0.48585 0.06863 0.59118
 O102 O 0.39827 -0.05289 0.50672
 O103 O 0.45481 0.08108 0.42336
 O104 O 0.44237 -0.00478 0.59801
 O105 O 0.48969 0.11932 0.49257
 O106 O 0.40618 -0.01539 0.42979
 O107 O 0.57427 -0.04220 0.41750
 O108 O 0.48957 -0.09585 0.55668
 O109 O 0.50634 -0.00685 0.37782
 O110 O 0.56589 -0.09099 0.51587
 O111 O 0.61836 0.00418 0.50735
 O112 O 0.58399 0.07496 0.54006
 C113 C 0.45662 0.03824 0.61655
 C114 C 0.37970 -0.04160 0.46215
 C115 C 0.46362 0.12105 0.45025
 C116 C 0.55008 -0.03034 0.37602
 C117 C 0.53429 -0.11439 0.54556
 C118 C 0.62354 0.04649 0.53117
 Zn119 Zn 0.93603 0.47214 0.48357
 Zn120 Zn 1.03864 0.46218 0.54045
 Zn121 Zn 1.03239 0.51752 0.43812
 Zn122 Zn 0.98505 0.56429 0.53191
 O123 O 0.99808 0.50388 0.49869
 O124 O 0.92920 0.41320 0.51797
 O125 O 1.09957 0.44390 0.50978
 O126 O 0.99946 0.49254 0.38188
 O127 O 1.00515 0.40413 0.55921
 O128 O 0.92945 0.45590 0.41573
 O129 O 1.09574 0.48888 0.43675
 O130 O 1.00877 0.61932 0.49768
 O131 O 1.05636 0.49272 0.60107
 O132 O 1.04304 0.58448 0.42689
 O133 O 1.01472 0.56710 0.59474
 O134 O 0.91693 0.57538 0.54180
 O135 O 0.87947 0.50917 0.50252
 C136 C 0.95903 0.38862 0.54881
 C137 C 1.12016 0.45872 0.46725
 C138 C 0.95847 0.46549 0.37666
 C139 C 1.03203 0.62362 0.45425
 C140 C 1.04354 0.53604 0.62001
 C141 C 0.87620 0.55095 0.52793
 Zn142 Zn 0.47023 0.48980 0.93602
 Zn143 Zn 0.45897 0.53882 1.04118
 Zn144 Zn 0.51043 0.43514 1.02972
 Zn145 Zn 0.56463 0.52806 0.99084
 O146 O 0.50088 0.49806 0.99971
 O147 O 0.40976 0.52286 0.93147
 O148 O 0.43945 0.50638 1.10033
 O149 O 0.48243 0.38376 0.99210
 O150 O 0.40028 0.56095 1.00801
 O151 O 0.45495 0.42456 0.92127
 O152 O 0.48085 0.43166 1.09248
 O153 O 0.61809 0.48893 1.01143
 O154 O 0.49242 0.59601 1.06277
 O155 O 0.57816 0.41933 1.04051
 O156 O 0.57083 0.58598 1.02692
 O157 O 0.57742 0.54527 0.92488
 O158 O 0.50777 0.51592 0.88323
 C159 C 0.38465 0.55251 0.96161
 C160 C 0.45255 0.46264 1.11828
 C161 C 0.45970 0.38377 0.94792
 C162 C 0.61974 0.44459 1.03164
 C163 C 0.53919 0.61107 1.05527
 C164 C 0.55090 0.54021 0.88333
 C165 C 1.18132 0.43579 0.39681
 C166 C 1.22886 0.41889 0.37697
 C167 C 1.27016 0.40402 0.41006
 C168 C 1.26354 0.40976 0.46507
 C169 C 1.21483 0.42800 0.48546
 C170 C 1.17280 0.43992 0.45070
 C171 C 1.21117 0.43608 0.53976
 N172 N 1.25288 0.42626 0.57114
 N173 N 1.29844 0.40988 0.55209
 C174 C 1.30540 0.40195 0.50032
 H175 H 1.15034 0.44495 0.36925
 H176 H 1.23218 0.41489 0.33498
 H177 H 1.17651 0.45154 0.55792
 H178 H 1.34418 0.39125 0.48728
 C179 C 0.29319 0.58331 0.97419
 C180 C 0.24516 0.60086 0.95491
 C181 C 0.23843 0.61158 0.90154
 C182 C 0.28307 0.61033 0.86822
 C183 C 0.33240 0.59418 0.88833
 C184 C 0.33654 0.57764 0.94114
 C185 C 0.37655 0.59739 0.85530
 N186 N 0.37118 0.61427 0.80556
 N187 N 0.32497 0.62920 0.78667
 C188 C 0.28102 0.62840 0.81628
 H189 H 0.29592 0.57222 1.01486
 H190 H 0.21210 0.60302 0.98138
 H191 H 0.41574 0.58865 0.86873
 H192 H 0.24543 0.64357 0.79924
 C193 C -0.21205 0.95884 0.05666
 C194 C -0.25789 0.93939 0.07831
 C195 C -0.26410 0.88648 0.08818
 C196 C -0.22145 0.85273 0.07545
 C197 C -0.17560 0.87276 0.05114
 C198 C -0.17082 0.92630 0.04273
 C199 C -0.13424 0.83879 0.03910
 N200 N -0.13757 0.78860 0.05242
 N201 N -0.17893 0.77027 0.07783
 C202 C -0.22028 0.80056 0.09054
 H203 H -0.20856 0.99995 0.05103
 H204 H -0.28915 0.96634 0.08691
 H205 H -0.09881 0.85162 0.02008
 H206 H -0.25054 0.78357 0.11403
 C207 C 0.68635 0.11603 0.55134
 C208 C 0.73435 0.13494 0.56868
 C209 C 0.77523 0.10172 0.58406
 C210 C 0.76766 0.04783 0.57740
 C211 C 0.71741 0.02839 0.56330
 C212 C 0.67647 0.06316 0.54912
 C213 C 0.71027 -0.02536 0.56489
 N214 N 0.75184 -0.05692 0.57300
 N215 N 0.80002 -0.03864 0.58021
 C216 C 0.80941 0.01250 0.58218
 H217 H 0.65609 0.14336 0.54056
 H218 H 0.73787 0.17616 0.57304
 H219 H 0.67235 -0.04312 0.56076
 H220 H 0.84956 0.02505 0.58698
 C221 C 0.47270 0.21059 0.41889
 C222 C 0.45177 0.25613 0.39903
 C223 C 0.39716 0.26298 0.39350
 C224 C 0.36339 0.22104 0.40585
 C225 C 0.38486 0.17506 0.42678
 C226 C 0.43994 0.16990 0.43284
 C227 C 0.35023 0.13524 0.44077
 N228 N 0.29815 0.13991 0.43107
 N229 N 0.27836 0.18153 0.40818
 C230 C 0.30908 0.22185 0.39476
 H231 H 0.51489 0.20689 0.42291
 H232 H 0.47862 0.28708 0.38986
 H233 H 0.36396 0.10035 0.45921
 H234 H 0.29074 0.25349 0.37443
 C235 C 0.97092 0.29697 0.57199
 C236 C 0.95193 0.24984 0.58952
 C237 C 0.90059 0.24534 0.60841
 C238 C 0.86861 0.28974 0.61229
 C239 C 0.88799 0.33779 0.59485
 C240 C 0.93907 0.34090 0.57289
 C241 C 0.85587 0.38145 0.60140
 N242 N 0.80747 0.37670 0.62275
 N243 N 0.78912 0.33146 0.63848
 C244 C 0.81803 0.28792 0.63421
 H245 H 1.01018 0.29878 0.55595
 H246 H 0.97700 0.21627 0.58702
 H247 H 0.86896 0.41951 0.59095
 H248 H 0.80143 0.25252 0.64870
 C249 C 0.02733 0.78641 -0.06078
 C250 C 0.04710 0.73866 -0.07597
 C251 C 0.09366 0.73524 -0.10474
 C252 C 0.11957 0.78073 -0.12063
 C253 C 0.09940 0.82912 -0.10537
 C254 C 0.05370 0.83168 -0.07415
 C255 C 0.12528 0.87365 -0.12272
 N256 N 0.16886 0.86957 -0.15273
 N257 N 0.18808 0.82406 -0.16679
 C258 C 0.16493 0.77955 -0.15195
 H259 H -0.00778 0.78798 -0.03704
 H260 H 0.02660 0.70410 -0.06432
 H261 H 0.11085 0.91164 -0.11338
 H262 H 0.18195 0.74379 -0.16521
 C263 C 0.53067 0.70473 1.06893
 C264 C 0.55076 0.75197 1.08511
 C265 C 0.59823 0.75456 1.11263
 C266 C 0.62468 0.70865 1.12644
 C267 C 0.60463 0.66070 1.10958
 C268 C 0.55788 0.65906 1.07948
 C269 C 0.63174 0.61578 1.12429
 N270 N 0.67599 0.61914 1.15363
 N271 N 0.69476 0.66423 1.16951
 C272 C 0.67056 0.70903 1.15711
 H273 H 0.49482 0.70401 1.04610
 H274 H 0.52990 0.78686 1.07489
 H275 H 0.61783 0.57801 1.11355
 H276 H 0.68698 0.74442 1.17196
 C277 C 0.38234 0.43912 1.18008
 C278 C 0.36525 0.41944 1.22767
 C279 C 0.40098 0.40800 1.26791
 C280 C 0.45505 0.41875 1.26039
 C281 C 0.47253 0.43766 1.21146
 C282 C 0.43575 0.44718 1.17097
 C283 C 0.52645 0.44746 1.20502
 N284 N 0.56021 0.43945 1.24521
 N285 N 0.54370 0.42264 1.29140
 C286 C 0.49237 0.41231 1.30047
 H287 H 0.35385 0.44631 1.14945
 H288 H 0.32377 0.41178 1.23263
 H289 H 0.54203 0.46209 1.16872
 H290 H 0.48128 0.39996 1.33916
 C291 C 0.53794 -0.05932 0.28451
 C292 C 0.55604 -0.08278 0.23906
 C293 C 0.60919 -0.09545 0.23310
 C294 C 0.64513 -0.08273 0.27357
 C295 C 0.62730 -0.05548 0.31814
 C296 C 0.57260 -0.04658 0.32511
 C297 C 0.66524 -0.03798 0.35415
 N298 N 0.71629 -0.05155 0.34852
 N299 N 0.73217 -0.08106 0.30919
 C300 C 0.69839 -0.09737 0.27178
 H301 H 0.49616 -0.05268 0.28861
 H302 H 0.52805 -0.09206 0.20858
 H303 H 0.65534 -0.01274 0.38609
 H304 H 0.71364 -0.12195 0.24142
 C305 C -0.11297 1.06024 -0.18414
 C306 C -0.13075 1.08171 -0.23076
 C307 C -0.09554 1.09457 -0.27074
 C308 C -0.04136 1.08343 -0.26413
 C309 C -0.02319 1.06264 -0.21617
 C310 C -0.05941 1.05176 -0.17579
 C311 C 0.03079 1.05237 -0.21061
 N312 N 0.06398 1.06179 -0.25076
 N313 N 0.04684 1.08048 -0.29608
 C314 C -0.00460 1.09135 -0.30426
 H315 H -0.14105 1.05202 -0.15357
 H316 H -0.17229 1.08964 -0.23511
 H317 H 0.04683 1.03625 -0.17507
 H318 H -0.01623 1.10530 -0.34229
 C319 C 1.07988 0.60341 0.67672
 C320 C 1.09762 0.62258 0.72416
 C321 C 1.09936 0.59142 0.76860
 C322 C 1.08260 0.53964 0.76505
 C323 C 1.06416 0.51995 0.71655
 C324 C 1.06327 0.55232 0.67185
 C325 C 1.04535 0.46914 0.71532
 N326 N 1.04625 0.44007 0.75924
 N327 N 1.06405 0.45842 0.80444
 C328 C 1.08199 0.50721 0.80893
 H329 H 1.07938 0.62886 0.64325
 H330 H 1.11041 0.66222 0.72619
 H331 H 1.02907 0.45226 0.68040
 H332 H 1.09494 0.52030 0.84687
 C333 C 0.82168 0.58847 0.59701
 C334 C 0.77459 0.60563 0.61785
 C335 C 0.72858 0.60559 0.58798
 C336 C 0.73023 0.58784 0.53568
 C337 C 0.77852 0.57049 0.51413
 C338 C 0.82455 0.57034 0.54555
 C339 C 0.77900 0.55511 0.46148
 N340 N 0.73386 0.55536 0.43328
 N341 N 0.68839 0.57017 0.45399
 C342 C 0.68501 0.58638 0.50418
 H343 H 0.85622 0.58866 0.62179
 H344 H 0.77410 0.61940 0.65779
 H345 H 0.81471 0.54354 0.44210
 H346 H 0.64703 0.59784 0.51896
 C347 C 0.67479 0.40306 1.09859
 C348 C 0.72302 0.38769 1.11890
 C349 C 0.76882 0.39181 1.08916
 C350 C 0.76594 0.41139 1.03765
 C351 C 0.71673 0.42678 1.01676
 C352 C 0.67098 0.42341 1.04808
 C353 C 0.71506 0.44420 0.96476
 N354 N 0.75996 0.44764 0.93665
 N355 N 0.80632 0.43467 0.95685
 C356 C 0.81088 0.41672 1.00633
 H357 H 0.64033 0.40044 1.12318
 H358 H 0.72468 0.37243 1.15822
 H359 H 0.67858 0.45439 0.94581
 H360 H 0.84957 0.40695 1.02070
 C361 C 0.18654 1.10922 -0.05506
 C362 C 0.23387 1.12865 -0.07311
 C363 C 0.27520 1.09593 -0.08809
 C364 C 0.26901 1.04207 -0.08008
 C365 C 0.21966 1.02193 -0.06399
 C366 C 0.17786 1.05623 -0.05118
 C367 C 0.21429 0.96801 -0.06217
 N368 N 0.25640 0.93722 -0.07038
 N369 N 0.30361 0.95638 -0.08057
 C370 C 0.31145 1.00759 -0.08516
 H371 H 0.15573 1.13625 -0.04513
 H372 H 0.23650 1.16983 -0.07847
 H373 H 0.17747 0.94938 -0.05478
 H374 H 0.35102 1.02085 -0.09194
 C375 C 0.31842 -0.06920 0.39316
 C376 C 0.27029 -0.08604 0.37449
 C377 C 0.22810 -0.09533 0.40834
 C378 C 0.23443 -0.08391 0.46245
 C379 C 0.28360 -0.06541 0.48146
 C380 C 0.32653 -0.05951 0.44638
 C381 C 0.28688 -0.05091 0.53445
 N382 N 0.24453 -0.05542 0.56598
 N383 N 0.19866 -0.07239 0.54820
 C384 C 0.19196 -0.08610 0.49763
 H385 H 0.35009 -0.06443 0.36542
 H386 H 0.26694 -0.09424 0.33312
 H387 H 0.32173 -0.03438 0.55128
 H388 H 0.15296 -0.09689 0.48533
 C389 C 0.56652 -0.20282 0.53455
 C390 C 0.58797 -0.24833 0.55345
 C391 C 0.59601 -0.25628 0.60729
 C392 C 0.58311 -0.21528 0.64238
 C393 C 0.55929 -0.16963 0.62287
 C394 C 0.55135 -0.16358 0.56852
 C395 C 0.54717 -0.12990 0.65825
 N396 N 0.55994 -0.13471 0.70935
 N397 N 0.58483 -0.17604 0.72728
 C398 C 0.59755 -0.21583 0.69559
 H399 H 0.56158 -0.19820 0.49278
 H400 H 0.59700 -0.27818 0.52538
 H401 H 0.52864 -0.09460 0.64583
 H402 H 0.62062 -0.24635 0.71219
 C403 C 1.10038 0.67914 0.41682
 C404 C 1.12045 0.72645 0.40165
 C405 C 1.08986 0.77099 0.40498
 C406 C 1.03792 0.76782 0.42438
 C407 C 1.01718 0.71947 0.43950
 C408 C 1.04917 0.67484 0.43620
 C409 C 0.96458 0.71753 0.45614
 N410 N 0.93587 0.76132 0.45938
 N411 N 0.95596 0.80684 0.44683
 C412 C 1.00594 0.81161 0.42949
 H413 H 1.12546 0.64558 0.41409
 H414 H 1.16009 0.72825 0.38650
 H415 H 0.94560 0.68176 0.46589
 H416 H 1.02021 0.84957 0.42003
 C417 C -0.10279 1.17440 0.07221
 C418 C -0.12211 1.22185 0.08794
 C419 C -0.08844 1.26381 0.09667
 C420 C -0.03365 1.25723 0.08705
 C421 C -0.01405 1.20841 0.07133
 C422 C -0.04921 1.16703 0.06345
 C423 C 0.04037 1.20265 0.06403
 N424 N 0.07251 1.24380 0.06891
 N425 N 0.05390 1.29023 0.08036
 C426 C 0.00208 1.29844 0.08903
 H427 H -0.13021 1.14314 0.06622
 H428 H -0.16388 1.22504 0.09523
 H429 H 0.05775 1.16594 0.05450
 H430 H -0.01068 1.33732 0.09594
 C431 C 0.46885 0.29120 0.92825
 C432 C 0.44991 0.24457 0.90934
 C433 C 0.39879 0.24067 0.88958
 C434 C 0.36632 0.28487 0.88796
 C435 C 0.38528 0.33227 0.90773
 C436 C 0.43738 0.33539 0.92749
 C437 C 0.35063 0.37453 0.90833
 N438 N 0.30158 0.36990 0.88821
 N439 N 0.28458 0.32589 0.86788
 C440 C 0.31520 0.28329 0.86703
 H441 H 0.50856 0.29288 0.94340
 H442 H 0.47506 0.21098 0.91090
 H443 H 0.36146 0.41104 0.92514
 H444 H 0.29930 0.24868 0.84988
 C445 C 0.55967 0.53812 0.78702
 C446 C 0.57683 0.55798 0.73953
 C447 C 0.60556 0.60363 0.73782
 C448 C 0.61794 0.62950 0.78485
 C449 C 0.59813 0.61104 0.83299
 C450 C 0.57006 0.56373 0.83419
 C451 C 0.60613 0.64172 0.87776
 N452 N 0.63577 0.68483 0.87484
 N453 N 0.65755 0.69985 0.83025
 C454 C 0.64976 0.67362 0.78524
 H455 H 0.53806 0.50232 0.78687
 H456 H 0.56738 0.53774 0.70376
 H457 H 0.58844 0.63305 0.91488
 H458 H 0.66882 0.68725 0.75026
 C459 C 0.38562 0.06097 0.67776
 C460 C 0.36774 0.08041 0.72519
 C461 C 0.40296 0.09237 0.76562
 C462 C 0.45725 0.08214 0.75866
 C463 C 0.47550 0.06332 0.70998
 C464 C 0.43929 0.05363 0.66909
 C465 C 0.52956 0.05371 0.70420
 N466 N 0.56277 0.06204 0.74476
 N467 N 0.54557 0.07901 0.79068
 C468 C 0.49404 0.08910 0.79912
 H469 H 0.35752 0.05343 0.64687
 H470 H 0.32611 0.08763 0.72984
 H471 H 0.54567 0.03895 0.66816
 H472 H 0.48236 0.10164 0.83760
 C473 C 0.08009 0.89594 0.17560
 C474 C 0.09656 0.87668 0.22352
 C475 C 0.09429 0.90704 0.26851
 C476 C 0.07443 0.95782 0.26523
 C477 C 0.05809 0.97778 0.21621
 C478 C 0.06049 0.94609 0.17112
 C479 C 0.04126 1.02928 0.21408
 N480 N 0.03883 1.05770 0.25840
 N481 N 0.05238 1.03832 0.30460
 C482 C 0.07003 0.98942 0.30956
 H483 H 0.08223 0.87115 0.14167
 H484 H 0.11185 0.83786 0.22543
 H485 H 0.03067 1.04765 0.17777
 H486 H 0.08029 0.97572 0.34811
 C487 C 0.89030 0.43364 0.31574
 C488 C 0.87281 0.41402 0.26829
 C489 C 0.90750 0.40609 0.22673
 C490 C 0.96112 0.41924 0.23330
 C491 C 0.97993 0.43590 0.28288
 C492 C 0.94354 0.44481 0.32432
 C493 C 1.03473 0.44159 0.28886
 N494 N 1.06696 0.43626 0.24716
 N495 N 1.04851 0.42508 0.19990
 C496 C 0.99675 0.41659 0.19155
 H497 H 0.86162 0.43971 0.34630
 H498 H 0.83168 0.40420 0.26431
 H499 H 1.05305 0.44887 0.32600
 H500 H 0.98387 0.40845 0.15225
   
