data_POSCAR
  _audit_creation_date              2014-09-24
  _audit_creation_method            'ToBaCCo'
  _symmetry_space_group_name_H-M    'P1'
  _symmetry_Int_Tables_number       1
  _symmetry_cell_setting            triclinic
  loop_
  _symmetry_equiv_pos_as_xyz
 x,y,z
_cell_length_a 31.1042
_cell_length_b 31.1333
_cell_length_c 31.1078
_cell_angle_alpha 89.977400
_cell_angle_beta 90.118100
_cell_angle_gamma 89.963500
loop_
  _atom_site_label
  _atom_site_type_symbol
  _atom_site_fract_x
  _atom_site_fract_y
  _atom_site_fract_z
C1 C 0.36812 1.02174 -0.47888
 C2 C 0.36841 1.02223 -0.52292
 C3 C 0.40951 1.01022 -0.53567
 N4 N 0.43385 1.00163 -0.50064
 C5 C 0.40871 1.00876 -0.46596
 C6 C 0.42251 1.00193 -0.57858
 C7 C 0.46574 0.99161 -0.58939
 C8 C 0.47916 0.97447 -0.62838
 C9 C 0.52319 0.97313 -0.62744
 C10 C 0.53607 0.99087 -0.58862
 N11 N 0.50084 1.00163 -0.56541
 C12 C 0.57955 0.99852 -0.57654
 C13 C 0.59156 1.00562 -0.53307
 C14 C 0.63108 1.02130 -0.51940
 C15 C 0.63050 1.02091 -0.47540
 C16 C 0.59024 1.00622 -0.46347
 N17 N 0.56654 0.99668 -0.49872
 C18 C 0.57697 0.99903 -0.42071
 C19 C 0.53378 0.99096 -0.40940
 C20 C 0.52018 0.97599 -0.36970
 C21 C 0.47601 0.97630 -0.37048
 C22 C 0.46379 0.99201 -0.41041
 N23 N 0.49922 1.00080 -0.43394
 C24 C 0.42091 1.00059 -0.42294
 H25 H 0.34075 1.02913 -0.45877
 H26 H 0.34083 1.02930 -0.54290
 H27 H 0.49992 1.01755 -0.46283
 H28 H 0.45980 0.96457 -0.65547
 H29 H 0.54341 0.96103 -0.65299
 H30 H 0.65768 1.03207 -0.53899
 H31 H 0.65676 1.03055 -0.45471
 H32 H 0.45529 0.96679 -0.34424
 H33 H 0.50092 1.01970 -0.53729
 H34 H 0.53986 0.96651 -0.34260
 C35 C -0.62642 1.52202 -0.03072
 C36 C -0.62643 1.47806 -0.03164
 C37 C -0.58962 1.46480 -0.01019
 N38 N -0.56682 1.49925 0.00342
 C39 C -0.58968 1.53430 -0.00860
 C40 C -0.57813 1.42144 -0.00229
 C41 C -0.53482 1.40990 0.00650
 C42 C -0.52145 1.37153 0.02499
 C43 C -0.47731 1.37141 0.02411
 C44 C -0.46474 1.41026 0.00637
 N45 N -0.49997 1.43359 -0.00417
 C46 C -0.42182 1.42204 -0.00262
 C47 C -0.40929 1.46497 -0.00964
 C48 C -0.36864 1.47815 -0.02221
 C49 C -0.36879 1.52221 -0.02091
 C50 C -0.40933 1.53436 -0.00705
 N51 N -0.43400 1.49936 -0.00022
 C52 C -0.42203 1.57671 0.00284
 C53 C -0.46508 1.58751 0.01228
 C54 C -0.47783 1.62442 0.03363
 C55 C -0.52201 1.62446 0.03367
 C56 C -0.53506 1.58789 0.01169
 N57 N -0.50011 1.56516 -0.00063
 C58 C -0.57820 1.57722 0.00140
 H59 H -0.65046 1.54260 -0.04523
 H60 H -0.65047 1.45811 -0.04694
 H61 H -0.50023 1.53857 -0.02096
 H62 H -0.54136 1.34594 0.03748
 H63 H -0.45700 1.34547 0.03522
 H64 H -0.34142 1.45822 -0.03060
 H65 H -0.34184 1.54282 -0.02845
 H66 H -0.54218 1.64884 0.04806
 H67 H -0.50030 1.46186 -0.02210
 H68 H -0.45739 1.64881 0.04768
 C69 C 0.03094 0.52387 0.37496
 C70 C 0.03226 0.47983 0.37424
 C71 C 0.01188 0.46581 0.41136
 N72 N -0.00078 0.49980 0.43519
 C73 C 0.01061 0.53521 0.41283
 C74 C 0.00285 0.42255 0.42213
 C75 C -0.00833 0.41142 0.46490
 C76 C -0.03203 0.37558 0.47671
 C77 C -0.03365 0.37530 0.52084
 C78 C -0.01078 0.41091 0.53488
 N79 N 0.00372 0.43333 0.50055
 C80 C -0.00186 0.42105 0.57842
 C81 C 0.00768 0.46384 0.59048
 C82 C 0.02948 0.47601 0.62744
 C83 C 0.02941 0.52002 0.62812
 C84 C 0.00751 0.53333 0.59159
 N85 N -0.00516 0.49891 0.56821
 C86 C -0.00181 0.57653 0.58062
 C87 C -0.01185 0.58759 0.53754
 C88 C -0.03362 0.62432 0.52444
 C89 C -0.03306 0.62455 0.48024
 C90 C -0.01153 0.58770 0.46761
 N91 N 0.00077 0.56505 0.50263
 C92 C -0.00041 0.57738 0.42492
 H93 H 0.04354 0.54512 0.35050
 H94 H 0.04649 0.46043 0.34917
 H95 H 0.02102 0.53834 0.50274
 H96 H -0.04687 0.35216 0.45570
 H97 H -0.04989 0.35158 0.54036
 H98 H 0.04429 0.45533 0.65120
 H99 H 0.04428 0.53991 0.65248
 H100 H -0.04661 0.64920 0.45974
 H101 H 0.02446 0.45963 0.50156
 H102 H -0.04806 0.64866 0.54461
 O103 O -0.11097 1.00033 -0.05605
 O104 O 0.11015 0.99781 -0.05771
 O105 O -0.00209 1.05670 -0.11005
 O106 O 0.00067 0.94051 -0.10875
 O107 O 0.00074 0.88865 -0.05581
 O108 O -0.00197 1.10958 -0.05821
 O109 O 0.05734 0.99680 -0.10981
 O110 O -0.05905 1.00083 -0.10893
 Zr111 Zr -0.00053 0.99898 -0.07444
 O112 O 0.03870 0.96024 -0.03770
 O113 O -0.03917 1.03837 -0.03796
 C114 C -0.09868 1.00116 -0.09589
 C115 C 0.09723 0.99654 -0.09739
 C116 C -0.00296 1.09659 -0.09787
 C117 C 0.00134 0.90086 -0.09575
 H118 H 0.05682 1.05621 -0.05705
 O119 O 0.03865 1.03808 -0.03837
 H120 H -0.05762 0.94213 -0.05499
 O121 O -0.03908 0.96062 -0.03697
 O122 O 0.11133 1.00095 0.05837
 O123 O -0.10977 0.99915 0.06013
 O124 O 0.05846 1.11007 0.00114
 O125 O 0.05805 0.88908 0.00073
 O126 O -0.05823 0.88939 0.00459
 O127 O -0.05793 1.11028 -0.00170
 O128 O 0.00296 1.05902 0.11105
 O129 O -0.00006 0.94284 0.11244
 O130 O 0.00209 1.11086 0.05813
 O131 O -0.00140 0.88995 0.06060
 O132 O 0.11077 1.05758 0.00110
 O133 O -0.11038 1.05795 0.00044
 O134 O -0.11047 0.94195 0.00399
 O135 O 0.11050 0.94131 -0.00087
 O136 O 0.05944 1.00282 0.11123
 O137 O -0.05695 0.99934 0.11222
 Zr138 Zr 0.07569 0.99954 0.00059
 Zr139 Zr -0.07538 0.99988 0.00177
 Zr140 Zr 0.00022 1.07529 0.00034
 Zr141 Zr -0.00003 0.92419 0.00202
 Zr142 Zr 0.00091 1.00056 0.07678
 O143 O -0.03853 0.96127 0.04094
 O144 O 0.03958 1.03904 0.03942
 C145 C 0.09907 1.00267 0.09820
 C146 C -0.09685 0.99871 0.09983
 C147 C 0.09825 1.09738 0.00153
 C148 C 0.09785 0.90156 -0.00072
 C149 C -0.09798 0.90218 0.00524
 C150 C -0.09769 1.09762 -0.00135
 C151 C 0.00346 1.09866 0.09805
 C152 C -0.00144 0.90297 0.10026
 H153 H -0.05637 1.05761 0.05820
 O154 O -0.03823 1.03904 0.03990
 H155 H 0.05774 0.94304 0.05856
 O156 O 0.03926 0.96124 0.04014
 C157 C 0.32668 1.00334 0.32443
 C158 C 0.33735 1.04112 0.34669
 C159 C 0.36936 1.04071 0.37828
 C160 C 0.39094 1.00238 0.38874
 C161 C 0.37965 0.96445 0.36695
 C162 C 0.34825 0.96504 0.33477
 C163 C 0.29310 1.00380 0.29073
 N164 N 0.29272 0.97351 0.25933
 N165 N 0.26254 0.97391 0.22890
 C166 C 0.23128 1.00439 0.22885
 N167 N 0.23155 1.03459 0.26035
 N168 N 0.26197 1.03441 0.29057
 C169 C 0.19759 1.00453 0.19526
 C170 C 0.15757 1.02405 0.20286
 C171 C 0.12541 1.02326 0.17140
 C172 C 0.13301 1.00374 0.13143
 C173 C 0.17324 0.98482 0.12358
 C174 C 0.20505 0.98483 0.15534
 H175 H 0.32136 1.07114 0.33928
 H176 H 0.37746 1.07042 0.39453
 H177 H 0.39484 0.93421 0.37520
 H178 H 0.34030 0.93533 0.31852
 H179 H 0.15087 1.03934 0.23339
 H180 H 0.09474 1.03828 0.17818
 H181 H 0.17986 0.96935 0.09311
 H182 H 0.23565 0.96971 0.14852
 C183 C -0.32376 0.99763 0.32682
 C184 C -0.31773 0.97507 0.36548
 C185 C -0.34953 0.97515 0.39713
 C186 C -0.38814 0.99816 0.39121
 C187 C -0.39400 1.02070 0.35233
 C188 C -0.36232 1.02034 0.32057
 C189 C -0.29005 0.99751 0.29321
 N190 N -0.29823 1.01356 0.25343
 N191 N -0.26797 1.01347 0.22321
 C192 C -0.22817 0.99746 0.23151
 N193 N -0.21996 0.98146 0.27132
 N194 N -0.25027 0.98142 0.30151
 C195 C -0.19451 0.99753 0.19786
 C196 C -0.15162 0.98746 0.20810
 C197 C -0.11986 0.98793 0.17636
 C198 C -0.13037 0.99811 0.13357
 C199 C -0.17331 1.00792 0.12330
 C200 C -0.20495 1.00780 0.15509
 H201 H -0.28858 0.95688 0.37118
 H202 H -0.34424 0.95639 0.42600
 H203 H -0.42285 1.03946 0.34684
 H204 H -0.36792 1.03830 0.29128
 H205 H -0.14245 0.97947 0.24074
 H206 H -0.08713 0.98004 0.18531
 H207 H -0.18249 1.01611 0.09071
 H208 H -0.23766 1.01562 0.14604
 C209 C -0.32656 1.00054 -0.32157
 C210 C -0.34411 0.96145 -0.33581
 C211 C -0.37525 0.96094 -0.36826
 C212 C -0.39005 0.99954 -0.38621
 C213 C -0.37311 1.03865 -0.37163
 C214 C -0.34123 1.03914 -0.33990
 C215 C -0.29299 1.00103 -0.28791
 N216 N -0.26406 1.03362 -0.28577
 N217 N -0.23354 1.03385 -0.25567
 C218 C -0.23102 1.00171 -0.22623
 N219 N -0.26010 0.96925 -0.22822
 N220 N -0.29035 0.96880 -0.25859
 C221 C -0.19725 1.00196 -0.19276
 C222 C -0.20393 0.98091 -0.15339
 C223 C -0.17209 0.98123 -0.12165
 C224 C -0.13259 1.00174 -0.12909
 C225 C -0.12573 1.02248 -0.16857
 C226 C -0.15798 1.02303 -0.19994
 H227 H -0.33320 0.93123 -0.32240
 H228 H -0.38797 0.93050 -0.37932
 H229 H -0.38429 1.06870 -0.38519
 H230 H -0.32844 1.06972 -0.32934
 H231 H -0.23397 0.96458 -0.14695
 H232 H -0.17806 0.96480 -0.09154
 H233 H -0.09560 1.03870 -0.17496
 H234 H -0.15193 1.03936 -0.23007
 C235 C 0.32300 0.99828 -0.32522
 C236 C 0.32153 0.96924 -0.35981
 C237 C 0.35340 0.96986 -0.39142
 C238 C 0.38696 0.99988 -0.38935
 C239 C 0.38842 1.02905 -0.35502
 C240 C 0.35688 1.02812 -0.32313
 C241 C 0.28950 0.99743 -0.29146
 N242 N 0.29553 1.01839 -0.25365
 N243 N 0.26549 1.01761 -0.22322
 C244 C 0.22806 0.99601 -0.22937
 N245 N 0.22197 0.97511 -0.26722
 N246 N 0.25212 0.97571 -0.29759
 C247 C 0.19461 0.99545 -0.19555
 C248 C 0.15248 0.98202 -0.20497
 C249 C 0.12080 0.98236 -0.17314
 C250 C 0.13072 0.99563 -0.13109
 C251 C 0.17297 1.00855 -0.12158
 C252 C 0.20447 1.00870 -0.15349
 H253 H 0.29602 0.94572 -0.36225
 H254 H 0.35194 0.94691 -0.41755
 H255 H 0.41407 1.05247 -0.35296
 H256 H 0.35886 1.05103 -0.29702
 H257 H 0.14382 0.97170 -0.23707
 H258 H 0.08859 0.97202 -0.18142
 H259 H 0.18161 1.01915 -0.08955
 H260 H 0.23664 1.01908 -0.14512
 C261 C 0.32481 1.32496 -0.00257
 C262 C 0.31736 1.36505 0.01672
 C263 C 0.34916 1.39670 0.01668
 C264 C 0.38939 1.38928 -0.00279
 C265 C 0.39645 1.34915 -0.02256
 C266 C 0.36470 1.31742 -0.02229
 C267 C 0.29124 1.29117 -0.00191
 N268 N 0.30009 1.25062 -0.01536
 N269 N 0.26999 1.22022 -0.01447
 C270 C 0.22971 1.22908 -0.00019
 N271 N 0.22084 1.26965 0.01319
 N272 N 0.25097 1.30002 0.01242
 C273 C 0.19615 1.19529 0.00069
 C274 C 0.15321 1.20576 0.01010
 C275 C 0.12148 1.17400 0.01045
 C276 C 0.13198 1.13096 0.00172
 C277 C 0.17499 1.12042 -0.00733
 C278 C 0.20666 1.15224 -0.00798
 H279 H 0.28709 1.37189 0.03243
 H280 H 0.34262 1.42668 0.03309
 H281 H 0.42633 1.34253 -0.03912
 H282 H 0.37136 1.28705 -0.03788
 H283 H 0.14396 1.23858 0.01691
 H284 H 0.08871 1.18322 0.01773
 H285 H 0.18419 1.08762 -0.01438
 H286 H 0.23942 1.14301 -0.01525
 C287 C 0.32541 0.67453 0.00058
 C288 C 0.36636 0.68260 -0.01656
 C289 C 0.39801 0.65072 -0.01627
 C290 C 0.38971 0.60982 0.00136
 C291 C 0.34862 0.60209 0.01879
 C292 C 0.31694 0.63390 0.01828
 C293 C 0.29167 0.70820 -0.00007
 N294 N 0.25067 0.69893 0.01166
 N295 N 0.22031 0.72912 0.01103
 C296 C 0.22966 0.76992 -0.00127
 N297 N 0.27067 0.77922 -0.01297
 N298 N 0.30101 0.74899 -0.01244
 C299 C 0.19589 0.80356 -0.00169
 C300 C 0.20655 0.84680 -0.00918
 C301 C 0.17477 0.87856 -0.00897
 C302 C 0.13151 0.86782 -0.00153
 C303 C 0.12081 0.82452 0.00558
 C304 C 0.15262 0.79281 0.00562
 H305 H 0.37391 0.71345 -0.03073
 H306 H 0.42872 0.65778 -0.03103
 H307 H 0.34116 0.57160 0.03382
 H308 H 0.28587 0.62669 0.03215
 H309 H 0.23954 0.85623 -0.01490
 H310 H 0.18417 0.91155 -0.01470
 H311 H 0.08785 0.81507 0.01151
 H312 H 0.14323 0.75983 0.01138
 C313 C -0.32570 0.67603 0.00767
 C314 C -0.32215 0.63950 0.03406
 C315 C -0.35360 0.60747 0.03288
 C316 C -0.38886 0.61106 0.00488
 C317 C -0.39265 0.64758 -0.02128
 C318 C -0.36148 0.67984 -0.01980
 C319 C -0.29216 0.70981 0.00846
 N320 N -0.29907 0.74839 -0.01075
 N321 N -0.26880 0.77862 -0.01046
 C322 C -0.23026 0.77151 0.00887
 N323 N -0.22333 0.73293 0.02809
 N324 N -0.25368 0.70274 0.02796
 C325 C -0.19644 0.80502 0.00862
 C326 C -0.15396 0.79509 0.02057
 C327 C -0.12194 0.82658 0.01944
 C328 C -0.13182 0.86881 0.00680
 C329 C -0.17439 0.87883 -0.00469
 C330 C -0.20626 0.84726 -0.00400
 H331 H -0.29517 0.63572 0.05579
 H332 H -0.35038 0.57974 0.05368
 H333 H -0.41967 0.65094 -0.04305
 H334 H -0.36517 0.70749 -0.04060
 H335 H -0.14528 0.76285 0.03037
 H336 H -0.08950 0.81788 0.02870
 H337 H -0.18304 0.91100 -0.01477
 H338 H -0.23867 0.85604 -0.01327
 C339 C -0.32382 1.32460 -0.00289
 C340 C -0.33856 1.34247 -0.04172
 C341 C -0.37081 1.37376 -0.04160
 C342 C -0.38818 1.38826 -0.00266
 C343 C -0.37302 1.37106 0.03618
 C344 C -0.34149 1.33906 0.03606
 C345 C -0.29027 1.29098 -0.00297
 N346 N -0.28766 1.26208 0.02964
 N347 N -0.25761 1.23159 0.02949
 C348 C -0.22869 1.22904 -0.00307
 N349 N -0.23115 1.25808 -0.03557
 N350 N -0.26148 1.28831 -0.03564
 C351 C -0.19525 1.19531 -0.00305
 C352 C -0.15609 1.20178 -0.02453
 C353 C -0.12417 1.17014 -0.02371
 C354 C -0.13126 1.13109 -0.00227
 C355 C -0.17065 1.12436 0.01865
 C356 C -0.20215 1.15636 0.01868
 H357 H -0.32561 1.33180 -0.07219
 H358 H -0.38210 1.38691 -0.07183
 H359 H -0.38587 1.38224 0.06652
 H360 H -0.33048 1.32608 0.06646
 H361 H -0.14987 1.23156 -0.04139
 H362 H -0.09412 1.17600 -0.04026
 H363 H -0.17680 1.09460 0.03562
 H364 H -0.23211 1.15045 0.03534
 C365 C 0.00439 1.32581 0.32525
 C366 C -0.01319 1.36650 0.31673
 C367 C -0.01392 1.39817 0.34851
 C368 C 0.00327 1.39027 0.38976
 C369 C 0.02058 1.34923 0.39818
 C370 C 0.02111 1.31750 0.36641
 C371 C 0.00515 1.29225 0.29143
 N372 N 0.01749 1.25143 0.30075
 N373 N 0.01796 1.22127 0.27039
 C374 C 0.00623 1.23066 0.22935
 N375 N -0.00600 1.27151 0.22000
 N376 N -0.00657 1.30163 0.25039
 C377 C 0.00635 1.19700 0.19561
 C378 C -0.00146 1.20768 0.15237
 C379 C -0.00197 1.17587 0.12066
 C380 C 0.00502 1.13257 0.13148
 C381 C 0.01309 1.12194 0.17469
 C382 C 0.01387 1.15378 0.20634
 H383 H -0.02686 1.37386 0.28555
 H384 H -0.02910 1.42859 0.34102
 H385 H 0.03484 1.34194 0.42914
 H386 H 0.03507 1.28655 0.37407
 H387 H -0.00724 1.24066 0.14292
 H388 H -0.00832 1.18523 0.08772
 H389 H 0.01886 1.08895 0.18417
 H390 H 0.02001 1.14439 0.23930
 C391 C -0.00535 1.32303 -0.32592
 C392 C -0.02197 1.36410 -0.31741
 C393 C -0.02103 1.39615 -0.34882
 C394 C -0.00319 1.38823 -0.38972
 C395 C 0.01331 1.34685 -0.39807
 C396 C 0.01216 1.31474 -0.36668
 C397 C -0.00604 1.28918 -0.29236
 N398 N 0.00555 1.24816 -0.30172
 N399 N 0.00522 1.21787 -0.27146
 C400 C -0.00661 1.22730 -0.23052
 N401 N -0.01822 1.26831 -0.22118
 N402 N -0.01800 1.29858 -0.25145
 C403 C -0.00641 1.19373 -0.19668
 C404 C -0.01323 1.20467 -0.15338
 C405 C -0.01220 1.17317 -0.12136
 C406 C -0.00459 1.12992 -0.13190
 C407 C 0.00173 1.11891 -0.17527
 C408 C 0.00098 1.15046 -0.20724
 H409 H -0.03609 1.37151 -0.28650
 H410 H -0.03535 1.42696 -0.34133
 H411 H 0.02835 1.33954 -0.42858
 H412 H 0.02554 1.28354 -0.37425
 H413 H -0.01902 1.23767 -0.14406
 H414 H -0.01744 1.18279 -0.08833
 H415 H 0.00771 1.08593 -0.18456
 H416 H 0.00622 1.14086 -0.24027
 C417 C 0.00013 0.67329 -0.32252
 C418 C 0.01702 0.68146 -0.36355
 C419 C 0.01640 0.64974 -0.39531
 C420 C -0.00131 0.60887 -0.38707
 C421 C -0.01841 0.60099 -0.34586
 C422 C -0.01759 0.63267 -0.31406
 C423 C 0.00094 0.70691 -0.28876
 N424 N -0.01094 0.69772 -0.24777
 N425 N -0.01027 0.72793 -0.21747
 C426 C 0.00225 0.76866 -0.22684
 N427 N 0.01412 0.77785 -0.26782
 N428 N 0.01354 0.74762 -0.29811
 C429 C 0.00262 0.80239 -0.19318
 C430 C 0.01059 0.84551 -0.20397
 C431 C 0.01027 0.87740 -0.17237
 C432 C 0.00221 0.86693 -0.12915
 C433 C -0.00532 0.82374 -0.11829
 C434 C -0.00526 0.79189 -0.14995
 H435 H 0.03122 0.71229 -0.37111
 H436 H 0.03098 0.65692 -0.42608
 H437 H -0.03351 0.57055 -0.33841
 H438 H -0.03126 0.62536 -0.28293
 H439 H 0.01679 0.85477 -0.23693
 H440 H 0.01644 0.91029 -0.18187
 H441 H -0.01171 0.81452 -0.08535
 H442 H -0.01140 0.75900 -0.14046
 C443 C -0.00288 0.67652 0.32810
 C444 C -0.02657 0.63845 0.32256
 C445 C -0.02597 0.60647 0.35408
 C446 C -0.00135 0.61168 0.39158
 C447 C 0.02234 0.64962 0.39723
 C448 C 0.02145 0.68181 0.36590
 C449 C -0.00340 0.71036 0.29457
 N450 N 0.01352 0.74980 0.30244
 N451 N 0.01321 0.78013 0.27222
 C452 C -0.00388 0.77226 0.23278
 N453 N -0.02078 0.73281 0.22491
 N454 N -0.02062 0.70254 0.25518
 C455 C -0.00379 0.80584 0.19898
 C456 C -0.01426 0.79551 0.15623
 C457 C -0.01348 0.82701 0.12422
 C458 C -0.00258 0.86966 0.13427
 C459 C 0.00743 0.88009 0.17710
 C460 C 0.00704 0.84850 0.20904
 H461 H -0.04582 0.63341 0.29397
 H462 H -0.04476 0.57758 0.34925
 H463 H 0.04167 0.65419 0.42586
 H464 H 0.04018 0.71064 0.37114
 H465 H -0.02271 0.76297 0.14734
 H466 H -0.02162 0.81792 0.09160
 H467 H 0.01606 0.91261 0.18595
 H468 H 0.01512 0.85760 0.24166
   
