data_POSCAR
  _audit_creation_date              2014-09-24
  _audit_creation_method            'ToBaCCo'
  _symmetry_space_group_name_H-M    'P1'
  _symmetry_Int_Tables_number       1
  _symmetry_cell_setting            triclinic
  loop_
  _symmetry_equiv_pos_as_xyz
 x,y,z
_cell_length_a 56.3381
_cell_length_b 56.1624
_cell_length_c 56.6779
_cell_angle_alpha 90.532500
_cell_angle_beta 91.024000
_cell_angle_gamma 88.191600
loop_
  _atom_site_label
  _atom_site_type_symbol
  _atom_site_fract_x
  _atom_site_fract_y
  _atom_site_fract_z
C1 C 0.60540 0.62464 0.63801
 C2 C 0.58709 0.64217 0.63742
 C3 C 0.58560 0.65902 0.61920
 C4 C 0.60270 0.65810 0.60142
 C5 C 0.62108 0.64068 0.60177
 C6 C 0.62251 0.62394 0.62019
 C7 C 0.60683 0.60789 0.65622
 C8 C 0.62526 0.59019 0.65716
 C9 C 0.64231 0.58988 0.63911
 C10 C 0.64104 0.60652 0.62078
 C11 C 0.65795 0.60584 0.60288
 C12 C 0.65662 0.62240 0.58441
 C13 C 0.63812 0.63979 0.58401
 H14 H 0.57377 0.64250 0.65100
 H15 H 0.60188 0.67118 0.58745
 H16 H 0.59397 0.60951 0.67015
 H17 H 0.65618 0.57612 0.63852
 H18 H 0.67202 0.59221 0.60315
 H19 H 0.63714 0.65282 0.57000
 C20 C 0.89924 0.37856 0.13780
 C21 C 0.91758 0.36109 0.13711
 C22 C 0.91740 0.34243 0.12017
 C23 C 0.89815 0.34191 0.10380
 C24 C 0.87980 0.35938 0.10421
 C25 C 0.88031 0.37775 0.12128
 C26 C 0.89952 0.39679 0.15489
 C27 C 0.88118 0.41434 0.15561
 C28 C 0.86243 0.41350 0.13894
 C29 C 0.86185 0.39532 0.12183
 C30 C 0.84309 0.39443 0.10528
 C31 C 0.84252 0.37623 0.08810
 C32 C 0.86096 0.35877 0.08770
 H33 H 0.93141 0.36168 0.15058
 H34 H 0.89773 0.32854 0.08994
 H35 H 0.91420 0.39752 0.16749
 H36 H 0.84809 0.42681 0.13953
 H37 H 0.82909 0.40811 0.10555
 H38 H 0.86047 0.34450 0.07471
 C39 C 0.40013 0.12790 -0.13380
 C40 C 0.41783 0.14492 -0.13277
 C41 C 0.41756 0.16284 -0.11527
 C42 C 0.39929 0.16357 -0.09867
 C43 C 0.38145 0.14670 -0.09950
 C44 C 0.38184 0.12883 -0.11717
 C45 C 0.40040 0.11011 -0.15134
 C46 C 0.38256 0.09294 -0.15274
 C47 C 0.36436 0.09423 -0.13585
 C48 C 0.36393 0.11191 -0.11820
 C49 C 0.34587 0.11280 -0.10146
 C50 C 0.34541 0.13044 -0.08368
 C51 C 0.36328 0.14737 -0.08287
 H52 H 0.43169 0.14442 -0.14581
 H53 H 0.39913 0.17712 -0.08492
 H54 H 0.41413 0.11045 -0.16442
 H55 H 0.35090 0.08092 -0.13556
 H56 H 0.33195 0.09992 -0.10246
 H57 H 0.36325 0.16088 -0.06909
 C58 C 0.10508 0.86782 0.35409
 C59 C 0.08840 0.84978 0.35356
 C60 C 0.08963 0.83099 0.37004
 C61 C 0.10819 0.83091 0.38718
 C62 C 0.12486 0.84894 0.38800
 C63 C 0.12332 0.86746 0.37141
 C64 C 0.10382 0.88618 0.33744
 C65 C 0.12048 0.90431 0.33798
 C66 C 0.13851 0.90393 0.35545
 C67 C 0.14004 0.88565 0.37214
 C68 C 0.15808 0.88525 0.38952
 C69 C 0.15965 0.86693 0.40628
 C70 C 0.14295 0.84883 0.40535
 H71 H 0.07509 0.85006 0.33955
 H72 H 0.10928 0.81742 0.40071
 H73 H 0.08968 0.88654 0.32420
 H74 H 0.15157 0.91771 0.35584
 H75 H 0.17108 0.89907 0.38983
 H76 H 0.14384 0.83480 0.41838
 N77 N 0.09876 0.15486 0.11341
 N78 N 0.08848 0.14431 0.13094
 C79 C 0.06841 0.15666 0.13637
 C80 C 0.06601 0.17607 0.12151
 C81 C 0.08566 0.17433 0.10718
 H82 H 0.05655 0.15202 0.15025
 H83 H 0.08996 0.18613 0.09303
 Cu84 Cu 0.10237 0.11551 0.14501
 Cu85 Cu 0.12808 0.14237 0.09965
 Cu86 Cu 0.15251 0.09032 0.12350
 N87 N 0.11613 0.08612 0.15796
 N88 N 0.13566 0.07631 0.14937
 C89 C 0.14125 0.05625 0.16131
 C90 C 0.12435 0.05327 0.17840
 C91 C 0.10867 0.07262 0.17572
 H92 H 0.15666 0.04487 0.15796
 H93 H 0.09290 0.07647 0.18581
 N94 N 0.16695 0.10715 0.09728
 N95 N 0.15764 0.12693 0.08816
 C96 C 0.17142 0.13387 0.07046
 C97 C 0.19037 0.11771 0.06833
 C98 C 0.18690 0.10103 0.08568
 H99 H 0.16797 0.14960 0.05997
 H100 H 0.19792 0.08536 0.08936
 H101 H 0.12297 0.10723 0.10824
 H102 H 0.14099 0.12513 0.12948
 N103 N 0.39877 0.84267 0.61986
 N104 N 0.40790 0.85253 0.63893
 C105 C 0.42755 0.83990 0.64565
 C106 C 0.43088 0.82103 0.63000
 C107 C 0.41222 0.82340 0.61386
 H108 H 0.43843 0.84394 0.66097
 H109 H 0.40873 0.81210 0.59874
 Cu110 Cu 0.39302 0.88074 0.65322
 Cu111 Cu 0.37016 0.85549 0.60420
 Cu112 Cu 0.34372 0.90618 0.62896
 N113 N 0.37826 0.90945 0.66667
 N114 N 0.35896 0.91925 0.65712
 C115 C 0.35242 0.93866 0.66979
 C116 C 0.36848 0.94127 0.68839
 C117 C 0.38466 0.92234 0.68577
 H118 H 0.33698 0.94990 0.66578
 H119 H 0.40002 0.91827 0.69686
 N120 N 0.33100 0.89033 0.60048
 N121 N 0.34114 0.87113 0.59097
 C122 C 0.32846 0.86478 0.57167
 C123 C 0.30937 0.88071 0.56888
 C124 C 0.31158 0.89665 0.58752
 H125 H 0.33271 0.84954 0.56058
 H126 H 0.30007 0.91193 0.59120
 H127 H 0.37418 0.89033 0.61530
 H128 H 0.35545 0.87130 0.63380
 N129 N 0.89996 0.66401 0.38428
 N130 N 0.90934 0.65374 0.36556
 C131 C 0.92758 0.66666 0.35840
 C132 C 0.92967 0.68615 0.37337
 C133 C 0.91179 0.68386 0.38957
 H134 H 0.93838 0.66236 0.34329
 H135 H 0.90790 0.69555 0.40436
 Cu136 Cu 0.89662 0.62461 0.35230
 Cu137 Cu 0.87347 0.65066 0.40071
 Cu138 Cu 0.85127 0.59809 0.37814
 N139 N 0.88415 0.59498 0.33997
 N140 N 0.86649 0.58467 0.35021
 C141 C 0.86138 0.56460 0.33827
 C142 C 0.87663 0.56216 0.31942
 C143 C 0.89084 0.58183 0.32110
 H144 H 0.84738 0.55285 0.34283
 H145 H 0.90512 0.58614 0.30957
 N146 N 0.83827 0.61442 0.40623
 N147 N 0.84677 0.63439 0.41486
 C148 C 0.83438 0.64095 0.43408
 C149 C 0.81719 0.62436 0.43776
 C150 C 0.82021 0.60781 0.41971
 H151 H 0.83752 0.65677 0.44453
 H152 H 0.81018 0.59194 0.41676
 H153 H 0.88064 0.61568 0.39079
 H154 H 0.85906 0.63314 0.37188
 N155 N 0.59456 0.34485 -0.11324
 N156 N 0.58363 0.35502 -0.13135
 C157 C 0.56366 0.34330 -0.13642
 C158 C 0.56194 0.32475 -0.12064
 C159 C 0.58194 0.32633 -0.10618
 H160 H 0.55146 0.34774 -0.15075
 H161 H 0.58695 0.31497 -0.09151
 Cu162 Cu 0.59664 0.38239 -0.14680
 Cu163 Cu 0.62434 0.35630 -0.10022
 Cu164 Cu 0.64875 0.40417 -0.12811
 N165 N 0.61100 0.40881 -0.16262
 N166 N 0.63134 0.41723 -0.15526
 C167 C 0.63716 0.43531 -0.16923
 C168 C 0.61951 0.43846 -0.18638
 C169 C 0.60320 0.42124 -0.18158
 H170 H 0.65315 0.44528 -0.16710
 H171 H 0.58677 0.41809 -0.19106
 N172 N 0.66369 0.38857 -0.10036
 N173 N 0.65434 0.37042 -0.08967
 C174 C 0.66851 0.36393 -0.07129
 C175 C 0.68776 0.37867 -0.07033
 C176 C 0.68407 0.39407 -0.08909
 H177 H 0.66513 0.34941 -0.05957
 H178 H 0.69523 0.40843 -0.09400
 H179 H 0.61975 0.39118 -0.11113
 H180 H 0.63584 0.37021 -0.13153
 C181 C -0.04085 0.32962 0.12800
 C182 C -0.02261 0.31219 0.12748
 C183 C -0.02688 0.28920 0.11901
 C184 C -0.04971 0.28410 0.11042
 C185 C -0.06796 0.30153 0.11072
 C186 C -0.06400 0.32469 0.11965
 C187 C -0.00700 0.27129 0.11873
 C188 C -0.01017 0.24777 0.12003
 C189 C 0.00972 0.22987 0.12030
 C190 C 0.00654 0.20791 0.13119
 C191 C 0.02482 0.19050 0.13171
 C192 C 0.04663 0.19457 0.12102
 C193 C 0.04969 0.21642 0.10975
 C194 C 0.03145 0.23389 0.10937
 H195 H -0.03628 0.34722 0.13409
 H196 H -0.00504 0.31670 0.13381
 H197 H -0.05356 0.26671 0.10320
 H198 H -0.08537 0.29630 0.10471
 H199 H 0.01085 0.27789 0.11883
 H200 H -0.02788 0.24131 0.12236
 H201 H -0.01012 0.20426 0.13949
 H202 H 0.02169 0.17377 0.14026
 H203 H 0.06623 0.22017 0.10133
 H204 H 0.03432 0.25032 0.10018
 C205 C 0.55468 0.68386 0.59740
 C206 C 0.53646 0.70132 0.59698
 C207 C 0.52940 0.71302 0.61781
 C208 C 0.54070 0.70649 0.63926
 C209 C 0.55895 0.68905 0.63967
 C210 C 0.56619 0.67756 0.61875
 C211 C 0.50978 0.73126 0.61647
 C212 C 0.50619 0.74828 0.63292
 C213 C 0.48669 0.76664 0.63151
 C214 C 0.48875 0.78763 0.64491
 C215 C 0.47071 0.80529 0.64439
 C216 C 0.45008 0.80232 0.63051
 C217 C 0.44788 0.78119 0.61727
 C218 C 0.46589 0.76349 0.61783
 H219 H 0.55956 0.67504 0.58104
 H220 H 0.52787 0.70575 0.58026
 H221 H 0.53535 0.71447 0.65584
 H222 H 0.56753 0.68467 0.65639
 H223 H 0.49869 0.73117 0.60070
 H224 H 0.51861 0.74970 0.64760
 H225 H 0.50447 0.79046 0.65573
 H226 H 0.47311 0.82134 0.65474
 H227 H 0.43207 0.77806 0.60673
 H228 H 0.46313 0.74726 0.60791
 C229 C 1.07851 0.78962 0.37784
 C230 C 1.06182 0.77174 0.37729
 C231 C 1.03868 0.77639 0.36878
 C232 C 1.03267 0.79918 0.36013
 C233 C 1.04938 0.81705 0.36041
 C234 C 1.07267 0.81274 0.36944
 C235 C 1.02152 0.75694 0.36857
 C236 C 0.99801 0.76085 0.37040
 C237 C 0.98091 0.74137 0.37093
 C238 C 0.95951 0.74515 0.38286
 C239 C 0.94293 0.72720 0.38377
 C240 C 0.94725 0.70519 0.37239
 C241 C 0.96849 0.70156 0.36004
 C242 C 0.98517 0.71944 0.35932
 H243 H 1.09627 0.78480 0.38401
 H244 H 1.06701 0.75418 0.38367
 H245 H 1.01512 0.80326 0.35290
 H246 H 1.04349 0.83449 0.35434
 H247 H 1.02870 0.73883 0.36838
 H248 H 0.99105 0.77885 0.37305
 H249 H 0.95570 0.76198 0.39172
 H250 H 0.92662 0.73072 0.39315
 H251 H 0.97239 0.68484 0.35109
 H252 H 1.00117 0.71615 0.34937
 C253 C 0.46020 0.17401 -0.11797
 C254 C 0.47783 0.19097 -0.11739
 C255 C 0.47197 0.21515 -0.11350
 C256 C 0.44810 0.22195 -0.10956
 C257 C 0.43048 0.20497 -0.11008
 C258 C 0.43632 0.18083 -0.11442
 C259 C 0.49127 0.23252 -0.11310
 C260 C 0.48768 0.25574 -0.11784
 C261 C 0.50706 0.27300 -0.11818
 C262 C 0.50374 0.29382 -0.13147
 C263 C 0.52151 0.31057 -0.13230
 C264 C 0.54300 0.30701 -0.11963
 C265 C 0.54616 0.28634 -0.10597
 C266 C 0.52839 0.26955 -0.10519
 H267 H 0.46530 0.15549 -0.12096
 H268 H 0.49610 0.18521 -0.12018
 H269 H 0.44293 0.24028 -0.10575
 H270 H 0.41221 0.21078 -0.10734
 H271 H 0.50918 0.22552 -0.11016
 H272 H 0.47010 0.26228 -0.12304
 H273 H 0.48737 0.29706 -0.14141
 H274 H 0.51824 0.32639 -0.14275
 H275 H 0.56240 0.28296 -0.09593
 H276 H 0.53136 0.25412 -0.09412
 C277 C 0.12252 -0.05262 0.32707
 C278 C 0.12155 -0.03450 0.31032
 C279 C 0.11748 -0.03976 0.28637
 C280 C 0.11370 -0.06353 0.27955
 C281 C 0.11456 -0.08164 0.29632
 C282 C 0.11914 -0.07640 0.32023
 C283 C 0.11678 -0.02000 0.26918
 C284 C 0.12194 -0.02305 0.24631
 C285 C 0.12213 -0.00319 0.22928
 C286 C 0.13628 -0.00569 0.20924
 C287 C 0.13704 0.01262 0.19277
 C288 C 0.12340 0.03377 0.19582
 C289 C 0.10885 0.03610 0.21566
 C290 C 0.10818 0.01782 0.23220
 H291 H 0.12570 -0.04800 0.34542
 H292 H 0.12423 -0.01631 0.31607
 H293 H 0.10977 -0.06821 0.26137
 H294 H 0.11193 -0.09981 0.29054
 H295 H 0.11333 -0.00220 0.27604
 H296 H 0.12769 -0.04050 0.23997
 H297 H 0.14698 -0.02180 0.20643
 H298 H 0.14819 0.01002 0.17756
 H299 H 0.09808 0.05210 0.21860
 H300 H 0.09647 0.02013 0.24702
 C301 C 0.64852 0.56229 -0.31725
 C302 C 0.64979 0.54566 -0.29905
 C303 C 0.62928 0.53911 -0.28745
 C304 C 0.60741 0.54999 -0.29409
 C305 C 0.60607 0.56668 -0.31223
 C306 C 0.62660 0.57320 -0.32432
 C307 C 0.63154 0.52155 -0.26809
 C308 C 0.61363 0.50812 -0.26132
 C309 C 0.61588 0.49041 -0.24209
 C310 C 0.59987 0.47179 -0.24175
 C311 C 0.60110 0.45490 -0.22378
 C312 C 0.61828 0.45634 -0.20557
 C313 C 0.63417 0.47516 -0.20578
 C314 C 0.63295 0.49205 -0.22376
 H315 H 0.66508 0.56717 -0.32495
 H316 H 0.66695 0.53788 -0.29398
 H317 H 0.59123 0.54591 -0.28519
 H318 H 0.58861 0.57369 -0.31716
 H319 H 0.64897 0.51886 -0.26003
 H320 H 0.59686 0.50917 -0.27092
 H321 H 0.58644 0.47021 -0.25554
 H322 H 0.58860 0.44068 -0.22435
 H323 H 0.64739 0.47715 -0.19190
 H324 H 0.64508 0.50658 -0.22290
 C325 C 0.40444 1.06691 0.81909
 C326 C 0.40475 1.04914 0.80167
 C327 C 0.38367 1.03893 0.79373
 C328 C 0.36218 1.04652 0.80398
 C329 C 0.36179 1.06423 0.82147
 C330 C 0.38292 1.07491 0.82942
 C331 C 0.38491 1.01993 0.77541
 C332 C 0.36663 1.01478 0.76094
 C333 C 0.36786 0.99589 0.74251
 C334 C 0.35196 0.99732 0.72322
 C335 C 0.35223 0.97972 0.70562
 C336 C 0.36830 0.96008 0.70702
 C337 C 0.38406 0.95853 0.72652
 C338 C 0.38381 0.97616 0.74410
 H339 H 0.42137 1.07350 0.82500
 H340 H 0.42162 1.04330 0.79437
 H341 H 0.34557 1.03868 0.79879
 H342 H 0.34461 1.06997 0.82799
 H343 H 0.40191 1.01075 0.77311
 H344 H 0.35037 1.02553 0.76171
 H345 H 0.33936 1.01222 0.72166
 H346 H 0.33984 0.98167 0.69094
 H347 H 0.39646 0.94356 0.72848
 H348 H 0.39580 0.97395 0.75909
 C349 C 0.87559 0.45720 0.16779
 C350 C 0.87588 0.47523 0.18494
 C351 C 0.88185 0.46997 0.20851
 C352 C 0.88813 0.44630 0.21450
 C353 C 0.88793 0.42828 0.19732
 C354 C 0.88156 0.43352 0.17381
 C355 C 0.88201 0.48967 0.22610
 C356 C 0.87893 0.48644 0.24926
 C357 C 0.87858 0.50620 0.26679
 C358 C 0.86651 0.50330 0.28796
 C359 C 0.86581 0.52144 0.30499
 C360 C 0.87743 0.54286 0.30136
 C361 C 0.88986 0.54561 0.28032
 C362 C 0.89048 0.52749 0.26324
 H363 H 0.87099 0.46183 0.14974
 H364 H 0.87127 0.49335 0.17981
 H365 H 0.89355 0.44163 0.23231
 H366 H 0.89254 0.41019 0.20249
 H367 H 0.88339 0.50756 0.21942
 H368 H 0.87520 0.46886 0.25562
 H369 H 0.85743 0.48697 0.29126
 H370 H 0.85633 0.51852 0.32109
 H371 H 0.89904 0.56181 0.27688
 H372 H 0.90062 0.53013 0.24750
 C373 C 0.31566 0.15291 -0.05878
 C374 C 0.29756 0.15348 -0.04221
 C375 C 0.28979 0.13235 -0.03229
 C376 C 0.30026 0.11049 -0.03966
 C377 C 0.31836 0.10993 -0.05621
 C378 C 0.32629 0.13112 -0.06595
 C379 C 0.27027 0.13379 -0.01504
 C380 C 0.26641 0.11671 0.00072
 C381 C 0.24686 0.11792 0.01793
 C382 C 0.24864 0.10340 0.03793
 C383 C 0.23043 0.10344 0.05434
 C384 C 0.20987 0.11795 0.05107
 C385 C 0.20801 0.13244 0.03098
 C386 C 0.22622 0.13236 0.01453
 H387 H 0.32108 0.16951 -0.06625
 H388 H 0.28961 0.17053 -0.03709
 H389 H 0.29433 0.09372 -0.03307
 H390 H 0.32627 0.09286 -0.06129
 H391 H 0.25945 0.15005 -0.01480
 H392 H 0.27862 0.10149 0.00190
 H393 H 0.26424 0.09199 0.04092
 H394 H 0.23261 0.09216 0.06964
 H395 H 0.19229 0.14354 0.02764
 H396 H 0.22371 0.14322 -0.00102
 C397 C 0.66746 0.62438 0.54175
 C398 C 0.68430 0.62356 0.52393
 C399 C 0.70854 0.62016 0.52944
 C400 C 0.71560 0.61701 0.55318
 C401 C 0.69874 0.61773 0.57100
 C402 C 0.67451 0.62152 0.56549
 C403 C 0.72576 0.61930 0.50995
 C404 C 0.74866 0.62473 0.51281
 C405 C 0.76576 0.62437 0.49322
 C406 C 0.78572 0.63861 0.49508
 C407 C 0.80235 0.63870 0.47707
 C408 C 0.79952 0.62429 0.45687
 C409 C 0.77971 0.60972 0.45517
 C410 C 0.76303 0.60971 0.47314
 H411 H 0.64888 0.62694 0.53694
 H412 H 0.67837 0.62574 0.50577
 H413 H 0.73403 0.61362 0.55809
 H414 H 0.70470 0.61552 0.58915
 H415 H 0.71889 0.61533 0.49244
 H416 H 0.75498 0.63099 0.52984
 H417 H 0.78840 0.64985 0.51048
 H418 H 0.81752 0.64990 0.47919
 H419 H 0.77693 0.59838 0.43991
 H420 H 0.74829 0.59791 0.47137
 C421 C 0.79912 0.38004 0.07753
 C422 C 0.78043 0.37940 0.06101
 C423 C 0.78484 0.37447 0.03714
 C424 C 0.80837 0.36959 0.03019
 C425 C 0.82706 0.37015 0.04673
 C426 C 0.82265 0.37548 0.07056
 C427 C 0.76444 0.37390 0.02026
 C428 C 0.76641 0.37771 -0.00295
 C429 C 0.74593 0.37768 -0.01976
 C430 C 0.74740 0.39028 -0.04090
 C431 C 0.72855 0.39066 -0.05727
 C432 C 0.70783 0.37820 -0.05298
 C433 C 0.70651 0.36524 -0.03196
 C434 C 0.72534 0.36492 -0.01555
 H435 H 0.79513 0.38381 0.09583
 H436 H 0.76246 0.38293 0.06688
 H437 H 0.81246 0.36498 0.01211
 H438 H 0.84501 0.36663 0.04083
 H439 H 0.74706 0.37156 0.02756
 H440 H 0.78341 0.38237 -0.00990
 H441 H 0.76316 0.40003 -0.04471
 H442 H 0.73039 0.40057 -0.07337
 H443 H 0.69089 0.35540 -0.02802
 H444 H 0.72380 0.35436 0.00017
 C445 C 0.19050 0.84537 0.43129
 C446 C 0.20830 0.84523 0.44879
 C447 C 0.21455 0.86641 0.46033
 C448 C 0.20292 0.88791 0.45360
 C449 C 0.18510 0.88803 0.43613
 C450 C 0.17864 0.86677 0.42481
 C451 C 0.23368 0.86538 0.47868
 C452 C 0.23627 0.88206 0.49556
 C453 C 0.25523 0.88101 0.51408
 C454 C 0.25211 0.89458 0.53476
 C455 C 0.26960 0.89444 0.55255
 C456 C 0.29075 0.88078 0.55003
 C457 C 0.29400 0.86734 0.52922
 C458 C 0.27652 0.86753 0.51139
 H459 H 0.18623 0.82875 0.42262
 H460 H 0.21717 0.82847 0.45339
 H461 H 0.20768 0.90475 0.46146
 H462 H 0.17623 0.90480 0.43160
 H463 H 0.24525 0.84963 0.47880
 H464 H 0.22335 0.89668 0.49674
 H465 H 0.23598 0.90526 0.53724
 H466 H 0.26638 0.90492 0.56835
 H467 H 0.31022 0.85696 0.52645
 H468 H 0.28007 0.85748 0.49541
   
