data_POSCAR
  _audit_creation_date              2014-09-24
  _audit_creation_method            'ToBaCCo'
  _symmetry_space_group_name_H-M    'P1'
  _symmetry_Int_Tables_number       1
  _symmetry_cell_setting            triclinic
  loop_
  _symmetry_equiv_pos_as_xyz
 x,y,z
_cell_length_a 26.1679
_cell_length_b 26.7243
_cell_length_c 47.3534
_cell_angle_alpha 80.328100
_cell_angle_beta 95.471300
_cell_angle_gamma 119.421200
loop_
  _atom_site_label
  _atom_site_type_symbol
  _atom_site_fract_x
  _atom_site_fract_y
  _atom_site_fract_z
C1 C 0.01604 0.13465 0.52583
 H2 H 0.05754 0.13472 0.52709
 C3 C 0.01134 0.17687 0.53746
 H4 H 0.05020 0.20954 0.54688
 C5 C -0.08284 0.09416 0.50992
 H6 H -0.11876 0.06416 0.49792
 C7 C -0.09023 0.13402 0.52230
 H8 H -0.13321 0.13072 0.52089
 N9 N -0.03065 0.09416 0.51246
 C10 C 0.02216 -0.03805 0.51552
 H11 H 0.03002 -0.03458 0.49308
 C12 C 0.02098 -0.08431 0.53479
 H13 H 0.02850 -0.11590 0.52694
 C14 C -0.00446 -0.00502 0.55213
 H15 H -0.01753 0.02401 0.55847
 C16 C -0.00602 -0.05053 0.57212
 H17 H -0.01845 -0.05484 0.59392
 Zn18 Zn -0.01543 0.04277 0.49579
 N19 N 0.00748 -0.00091 0.52425
 C20 C 0.10111 0.11773 0.47688
 N21 N 0.04369 0.09087 0.46866
 C22 C 0.02588 0.10643 0.44237
 C23 C 0.06630 0.15064 0.42314
 C24 C 0.14296 0.16360 0.45858
 C25 C -0.13560 -0.04002 0.49008
 C26 C -0.18423 -0.08326 0.47760
 C27 C -0.12037 -0.07852 0.44250
 C28 C -0.07355 -0.03351 0.45499
 N29 N -0.08215 -0.01375 0.47777
 H30 H 0.11389 0.10585 0.49827
 H31 H -0.02028 0.08612 0.43671
 H32 H 0.05064 0.16156 0.40230
 H33 H 0.18774 0.18651 0.46630
 H34 H -0.14049 -0.02849 0.51007
 H35 H -0.22558 -0.10310 0.48852
 H36 H -0.11132 -0.09068 0.42369
 H37 H -0.02995 -0.01480 0.44661
 C38 C 0.00412 -0.09243 0.56321
 C39 C -0.04257 0.17697 0.53609
 C40 C -0.17776 -0.10354 0.45313
 C41 C 0.12554 0.18160 0.43145
 C42 C 1.15373 0.06857 0.13312
 H43 H 1.14137 0.10174 0.12559
 C44 C 1.19935 0.06881 0.12010
 H45 H 1.22096 0.10175 0.10210
 C46 C 1.13947 -0.01484 0.16560
 H47 H 1.11690 -0.04644 0.18380
 C48 C 1.18545 -0.01594 0.15332
 H49 H 1.19762 -0.04876 0.16217
 N50 N 1.12449 0.02696 0.15523
 C51 C 0.96873 0.04796 0.15033
 H52 H 0.97144 0.06280 0.17059
 C53 C 0.91982 0.03669 0.13231
 H54 H 0.88524 0.04346 0.13866
 C55 C 1.00715 0.01490 0.11880
 H56 H 1.03966 0.00370 0.11426
 C57 C 0.95861 0.00208 0.10049
 H58 H 0.95474 -0.01784 0.08171
 Zn59 Zn 1.06671 0.03553 0.17173
 N60 N 1.01085 0.03641 0.14345
 C61 C 1.10190 0.15287 0.17921
 N62 N 1.10819 0.10504 0.18796
 C63 C 1.15048 0.10626 0.20729
 C64 C 1.18977 0.15738 0.21811
 C65 C 1.13990 0.20495 0.18983
 C66 C 0.99858 -0.08157 0.19223
 C67 C 0.95948 -0.12951 0.21046
 C68 C 0.97128 -0.06537 0.24392
 C69 C 1.01133 -0.01863 0.22529
 N70 N 1.02378 -0.02755 0.19992
 H71 H 1.06879 0.15132 0.16336
 H72 H 1.15509 0.06779 0.21343
 H73 H 1.22467 0.15759 0.23240
 H74 H 1.13424 0.24257 0.18259
 H75 H 1.00759 -0.08712 0.17148
 H76 H 0.93898 -0.17215 0.20381
 H77 H 0.96047 -0.05777 0.26374
 H78 H 1.03043 0.02497 0.23049
 C79 C 0.91367 0.01171 0.10756
 C80 C 1.21630 0.02655 0.13032
 C81 C 0.94473 -0.12150 0.23642
 C82 C 1.18540 0.20802 0.20917
 C83 C 0.00463 0.89077 0.87641
 H84 H -0.03616 0.85345 0.87158
 C85 C 0.04290 0.88370 0.89716
 H86 H 0.03113 0.84048 0.90792
 C87 C 0.07061 0.99147 0.86650
 H88 H 0.08196 1.03313 0.85401
 C89 C 0.11001 0.98650 0.88742
 H90 H 0.15061 1.02496 0.89125
 N91 N 0.01883 0.94394 0.86158
 C92 C -0.14329 0.94106 0.82935
 H93 H -0.13379 0.95319 0.80672
 C94 C -0.19198 0.94017 0.83961
 H95 H -0.22041 0.94976 0.82424
 C96 C -0.11676 0.91410 0.87627
 H97 H -0.08611 0.90613 0.89063
 C98 C -0.16586 0.91121 0.88744
 H99 H -0.17113 0.90155 0.91043
 Zn100 Zn -0.03497 0.94520 0.83211
 N101 N -0.10604 0.92963 0.84773
 C102 C -0.10118 0.84178 0.80675
 N103 N -0.04719 0.88782 0.80995
 C104 C 0.00172 0.89112 0.80022
 C105 C -0.00215 0.84586 0.78756
 C106 C -0.10713 0.79562 0.79401
 C107 C 0.00679 1.06502 0.82218
 C108 C 0.02226 1.11891 0.80591
 C109 C 0.00858 1.07561 0.76298
 C110 C -0.00527 1.02274 0.78013
 N111 N -0.00608 1.01844 0.80916
 H112 H -0.13935 0.83988 0.81495
 H113 H 0.04417 0.92792 0.80350
 H114 H 0.03776 0.84826 0.78123
 H115 H -0.15038 0.75897 0.79193
 H116 H 0.00373 1.05991 0.84521
 H117 H 0.03214 1.15569 0.81646
 H118 H 0.00807 1.07853 0.73987
 H119 H -0.01743 0.98475 0.77019
 C120 C -0.20343 0.92657 0.86924
 C121 C 0.09651 0.93192 0.90302
 C122 C 0.02247 1.12421 0.77599
 C123 C -0.05698 0.79665 0.78484
 C124 C 0.43262 -0.07439 0.00141
 C125 C 0.45751 -0.05880 0.02848
 C126 C 0.51112 -0.05708 0.03669
 C127 C 0.54232 -0.06691 0.01778
 C128 C 0.52077 -0.07579 -0.01058
 C129 C 0.46499 -0.08159 -0.01798
 H130 H 0.44741 -0.08998 -0.03939
 H131 H 0.52962 -0.04617 0.05771
 C132 C -0.01650 0.46288 0.64646
 C133 C -0.00254 0.45314 0.67585
 C134 C -0.00410 0.48736 0.69489
 C135 C -0.01734 0.53228 0.68540
 C136 C -0.02503 0.54609 0.65571
 C137 C -0.02416 0.51161 0.63671
 H138 H -0.03195 0.52162 0.61409
 H139 H 0.00433 0.47831 0.71753
 C140 C 0.57992 0.58890 0.32152
 C141 C 0.55792 0.59014 0.34748
 C142 C 0.50133 0.54608 0.35587
 C143 C 0.46454 0.50554 0.33788
 C144 C 0.48419 0.50849 0.31060
 C145 C 0.54245 0.54880 0.30325
 H146 H 0.55872 0.54939 0.28290
 H147 H 0.48467 0.54451 0.37630
 C148 C -0.01838 0.29191 0.58168
 C149 C -0.06328 0.30303 0.57169
 C150 C -0.10148 0.27649 0.54986
 C151 C -0.09340 0.23640 0.53787
 C152 C -0.04888 0.22176 0.54843
 C153 C -0.01076 0.25062 0.57079
 O154 O 0.01397 0.32319 0.60208
 C155 C -0.01160 0.35431 0.60517
 C156 C -0.05949 0.34290 0.58730
 C157 C -0.09445 0.36837 0.58774
 C158 C -0.07967 0.40705 0.60752
 C159 C -0.02954 0.42114 0.62591
 C160 C 0.00548 0.39467 0.62426
 H161 H -0.13582 0.28694 0.54199
 H162 H -0.12177 0.21764 0.52010
 H163 H 0.02328 0.24088 0.58002
 H164 H -0.13255 0.35789 0.57378
 H165 H -0.10790 0.42562 0.60870
 H166 H 0.04480 0.40503 0.63721
 C167 C 0.80438 0.77965 0.27682
 C168 C 0.80924 0.73003 0.28355
 C169 C 0.85808 0.72696 0.27674
 C170 C 0.90350 0.77689 0.26200
 C171 C 0.89946 0.82850 0.25461
 C172 C 0.84953 0.83012 0.26257
 O173 O 0.75265 0.77216 0.28353
 C174 C 0.72422 0.71656 0.29469
 C175 C 0.75710 0.68899 0.29524
 C176 C 0.73518 0.63009 0.30462
 C177 C 0.67690 0.59820 0.31371
 C178 C 0.64200 0.62543 0.31329
 C179 C 0.66597 0.68556 0.30373
 H180 H 0.86042 0.68711 0.28188
 H181 H 0.94139 0.77519 0.25585
 H182 H 0.84474 0.86853 0.25652
 H183 H 0.76166 0.60926 0.30447
 H184 H 0.65851 0.55206 0.32081
 H185 H 0.63970 0.70695 0.30277
 C186 C 0.23743 -0.05372 -0.06016
 C187 C 0.21526 -0.09658 -0.03709
 C188 C 0.15563 -0.12942 -0.03156
 C189 C 0.11711 -0.11824 -0.05083
 C190 C 0.13846 -0.07555 -0.07544
 C191 C 0.19987 -0.04234 -0.07982
 O192 O 0.29549 -0.02816 -0.06172
 C193 C 0.31019 -0.05575 -0.03921
 C194 C 0.26261 -0.09830 -0.02358
 C195 C 0.26748 -0.13490 -0.00019
 C196 C 0.32378 -0.12692 0.00757
 C197 C 0.37379 -0.08181 -0.00740
 C198 C 0.36679 -0.04620 -0.03142
 H199 H 0.13929 -0.16270 -0.01314
 H200 H 0.07059 -0.14321 -0.04658
 H201 H 0.21796 -0.01012 -0.09849
 H202 H 0.22921 -0.16923 0.01124
 H203 H 0.32845 -0.15646 0.02491
 H204 H 0.40419 -0.01252 -0.04368
 C205 C 0.00564 0.77005 0.59816
 C206 C -0.04524 0.74328 0.61360
 C207 C -0.07999 0.76890 0.61462
 C208 C -0.06210 0.82395 0.59873
 C209 C -0.01025 0.85225 0.58217
 C210 C 0.02428 0.82479 0.58218
 O211 O 0.03210 0.73810 0.59994
 C212 C -0.00296 0.69008 0.61676
 C213 C -0.05106 0.69092 0.62562
 C214 C -0.09382 0.64468 0.64308
 C215 C -0.08611 0.59600 0.65215
 C216 C -0.03589 0.59500 0.64400
 C217 C 0.00565 0.64228 0.62562
 H218 H -0.11996 0.74691 0.62684
 H219 H -0.08985 0.84353 0.59853
 H220 H 0.06399 0.84506 0.56983
 H221 H -0.13151 0.64618 0.64962
 H222 H -0.11835 0.55965 0.66602
 H223 H 0.04426 0.64238 0.61910
 C224 C 0.30130 0.31736 0.25393
 C225 C 0.31888 0.36784 0.23513
 C226 C 0.29373 0.36954 0.20802
 C227 C 0.24913 0.31695 0.19981
 C228 C 0.23009 0.26399 0.21879
 C229 C 0.25652 0.26482 0.24642
 O230 O 0.33119 0.32491 0.27855
 C231 C 0.36843 0.38145 0.27524
 C232 C 0.36264 0.40978 0.24909
 C233 C 0.39684 0.46930 0.24133
 C234 C 0.43784 0.50099 0.26158
 C235 C 0.44406 0.47289 0.28888
 C236 C 0.40965 0.41193 0.29545
 H237 H 0.30856 0.40977 0.19350
 H238 H 0.23073 0.31750 0.17838
 H239 H 0.24293 0.22575 0.26170
 H240 H 0.39146 0.49071 0.22065
 H241 H 0.46374 0.54763 0.25633
 H242 H 0.41416 0.38902 0.31582
 C243 C 0.68209 -0.09222 -0.08212
 C244 C 0.66906 -0.05023 -0.09579
 C245 C 0.69400 -0.01687 -0.12154
 C246 C 0.73480 -0.02649 -0.13358
 C247 C 0.75129 -0.06819 -0.11952
 C248 C 0.72348 -0.10181 -0.09334
 O249 O 0.65324 -0.11922 -0.05782
 C250 C 0.62200 -0.09300 -0.05597
 C251 C 0.63056 -0.05011 -0.07855
 C252 C 0.60436 -0.01535 -0.08033
 C253 C 0.56835 -0.02479 -0.05772
 C254 C 0.55845 -0.06893 -0.03412
 C255 C 0.58472 -0.10443 -0.03371
 H256 H 0.68313 0.01614 -0.13183
 H257 H 0.75587 0.00149 -0.15300
 H258 H 0.73278 -0.13523 -0.08207
 H259 H 0.61227 0.01859 -0.09818
 H260 H 0.54857 0.00274 -0.05837
 H261 H 0.57623 -0.14013 -0.01695
 C262 C 0.31038 -0.02127 0.09867
 C263 C 0.35629 0.03171 0.08848
 C264 C 0.36055 0.08399 0.09236
 C265 C 0.31519 0.08167 0.10701
 C266 C 0.26615 0.02764 0.11703
 C267 C 0.26445 -0.02462 0.11311
 O268 O 0.31396 -0.06569 0.09186
 C269 C 0.36296 -0.04009 0.07687
 C270 C 0.39031 0.01950 0.07409
 C271 C 0.44028 0.05512 0.05782
 C272 C 0.46242 0.02820 0.04346
 C273 C 0.43478 -0.03307 0.04579
 C274 C 0.38528 -0.06777 0.06339
 H275 H 0.39720 0.12514 0.08415
 H276 H 0.31821 0.12214 0.11033
 H277 H 0.22747 -0.06656 0.12004
 H278 H 0.46055 0.10191 0.05565
 H279 H 0.50039 0.05493 0.03001
 H280 H 0.36409 -0.11460 0.06599
 C281 C 0.73203 0.77571 0.41134
 C282 C 0.67817 0.77169 0.41322
 C283 C 0.66901 0.80631 0.42858
 C284 C 0.71748 0.84720 0.44256
 C285 C 0.77505 0.85460 0.44037
 C286 C 0.78147 0.81749 0.42417
 O287 O 0.73059 0.73683 0.39659
 C288 C 0.67455 0.70828 0.38866
 C289 C 0.64096 0.72861 0.39801
 C290 C 0.58172 0.70674 0.39142
 C291 C 0.55594 0.66206 0.37442
 C292 C 0.58885 0.63871 0.36497
 C293 C 0.64923 0.66209 0.37259
 H294 H 0.62591 0.80205 0.42978
 H295 H 0.70984 0.87524 0.45353
 H296 H 0.82288 0.81840 0.42262
 H297 H 0.55642 0.72410 0.39871
 H298 H 0.51006 0.64573 0.36847
 H299 H 0.67566 0.64484 0.36654
 C300 C 0.00340 0.24136 0.72778
 C301 C 0.05865 0.28793 0.72974
 C302 C 0.10411 0.28344 0.74565
 C303 C 0.09201 0.22872 0.76037
 C304 C 0.03555 0.18012 0.75860
 C305 C -0.00922 0.18632 0.74182
 O306 O -0.03458 0.25584 0.71330
 C307 C -0.00261 0.31281 0.70595
 C308 C 0.05480 0.33441 0.71540
 C309 C 0.09535 0.39318 0.71145
 C310 C 0.07585 0.43138 0.69745
 C311 C 0.01684 0.41041 0.68779
 C312 C -0.02301 0.35019 0.69192
 H313 H 0.14687 0.32098 0.74730
 H314 H 0.12617 0.22419 0.77346
 H315 H -0.05305 0.14995 0.74080
 H316 H 0.14004 0.40916 0.71941
 H317 H 0.10630 0.47754 0.69459
 H318 H -0.06856 0.33344 0.68527
 C319 C 0.77641 -0.00279 0.06707
 C320 C 0.74760 -0.06133 0.06541
 C321 C 0.77141 -0.09731 0.07598
 C322 C 0.82714 -0.07200 0.08897
 C323 C 0.85728 -0.01204 0.09161
 C324 C 0.83156 0.02313 0.08046
 O325 O 0.74545 0.02324 0.05595
 C326 C 0.69594 -0.01993 0.04730
 C327 C 0.69493 -0.07262 0.05288
 C328 C 0.64594 -0.12434 0.04758
 C329 C 0.59599 -0.12159 0.03589
 C330 C 0.59679 -0.06759 0.02859
 C331 C 0.64720 -0.01604 0.03479
 H332 H 0.74772 -0.14328 0.07449
 H333 H 0.84620 -0.09937 0.09777
 H334 H 0.85356 0.06891 0.08240
 H335 H 0.64560 -0.16548 0.05304
 H336 H 0.55641 -0.16149 0.03264
 H337 H 0.64779 0.02534 0.03058
 C338 C 0.26604 0.30282 0.39632
 C339 C 0.24493 0.33549 0.37894
 C340 C 0.18601 0.32052 0.37757
 C341 C 0.14725 0.26991 0.39486
 C342 C 0.16750 0.23453 0.41277
 C343 C 0.22816 0.25165 0.41326
 O344 O 0.32384 0.32569 0.39516
 C345 C 0.33945 0.37374 0.37662
 C346 C 0.29277 0.38160 0.36588
 C347 C 0.29925 0.42896 0.34595
 C348 C 0.35624 0.46982 0.33670
 C349 C 0.40485 0.46268 0.34772
 C350 C 0.39643 0.41427 0.36809
 H351 H 0.17054 0.34744 0.36408
 H352 H 0.10170 0.25938 0.39469
 H353 H 0.24563 0.22611 0.42637
 H354 H 0.26182 0.43411 0.33775
 H355 H 0.36275 0.50694 0.32106
 H356 H 0.43313 0.40810 0.37666
 C357 C -0.02715 0.70342 0.74403
 C358 C -0.06587 0.64892 0.75691
 C359 C -0.10353 0.63958 0.77838
 C360 C -0.10079 0.68847 0.78715
 C361 C -0.06113 0.74541 0.77428
 C362 C -0.02396 0.75263 0.75226
 O363 O 0.00415 0.70273 0.72376
 C364 C -0.01533 0.64651 0.72384
 C365 C -0.05820 0.61178 0.74374
 C366 C -0.08606 0.55156 0.74687
 C367 C -0.07015 0.52608 0.72822
 C368 C -0.02710 0.56088 0.70703
 C369 C 0.00194 0.62207 0.70543
 H370 H -0.13365 0.59622 0.78819
 H371 H -0.12874 0.68184 0.80440
 H372 H 0.00633 0.79522 0.74171
 H373 H -0.11992 0.52515 0.76258
 H374 H -0.09290 0.47925 0.72953
 H375 H 0.03511 0.64971 0.68956
   
