data_POSCAR
  _audit_creation_date              2014-09-24
  _audit_creation_method            'ToBaCCo'
  _symmetry_space_group_name_H-M    'P1'
  _symmetry_Int_Tables_number       1
  _symmetry_cell_setting            triclinic
  loop_
  _symmetry_equiv_pos_as_xyz
 x,y,z
_cell_length_a 62.7336
_cell_length_b 60.4644
_cell_length_c 63.3732
_cell_angle_alpha 89.692400
_cell_angle_beta 89.896600
_cell_angle_gamma 90.141900
loop_
  _atom_site_label
  _atom_site_type_symbol
  _atom_site_fract_x
  _atom_site_fract_y
  _atom_site_fract_z
C1 C 0.60919 0.62419 0.63985
 C2 C 0.59287 0.64000 0.63905
 C3 C 0.59213 0.65574 0.62265
 C4 C 0.60789 0.65541 0.60686
 C5 C 0.62428 0.63969 0.60743
 C6 C 0.62496 0.62403 0.62400
 C7 C 0.60989 0.60853 0.65624
 C8 C 0.62618 0.59241 0.65721
 C9 C 0.64192 0.59264 0.64119
 C10 C 0.64139 0.60824 0.62472
 C11 C 0.65721 0.60835 0.60902
 C12 C 0.65663 0.62381 0.59234
 C13 C 0.64000 0.63937 0.59166
 H14 H 0.58091 0.64031 0.65141
 H15 H 0.60729 0.66730 0.59401
 H16 H 0.59705 0.60851 0.66766
 H17 H 0.65520 0.58127 0.64176
 H18 H 0.67011 0.59651 0.60994
 H19 H 0.63911 0.65113 0.57874
 C20 C 0.88936 0.37533 0.14049
 C21 C 0.90595 0.35982 0.13998
 C22 C 0.90731 0.34390 0.12374
 C23 C 0.89153 0.34427 0.10781
 C24 C 0.87484 0.35965 0.10819
 C25 C 0.87368 0.37519 0.12461
 C26 C 0.88818 0.39095 0.15675
 C27 C 0.87156 0.40650 0.15732
 C28 C 0.85589 0.40612 0.14148
 C29 C 0.85685 0.39060 0.12514
 C30 C 0.84123 0.39025 0.10934
 C31 C 0.84233 0.37492 0.09274
 C32 C 0.85932 0.35976 0.09228
 H33 H 0.91718 0.35974 0.15291
 H34 H 0.89246 0.33315 0.09452
 H35 H 0.90044 0.39126 0.16878
 H36 H 0.84284 0.41783 0.14198
 H37 H 0.82807 0.40180 0.11012
 H38 H 0.86061 0.34812 0.07940
 C39 C 0.38932 0.12449 -0.14114
 C40 C 0.40542 0.14065 -0.14077
 C41 C 0.40575 0.15697 -0.12502
 C42 C 0.38971 0.15683 -0.10946
 C43 C 0.37363 0.14068 -0.10953
 C44 C 0.37338 0.12451 -0.12548
 C45 C 0.38896 0.10839 -0.15700
 C46 C 0.37291 0.09189 -0.15756
 C47 C 0.35710 0.09223 -0.14158
 C48 C 0.35720 0.10836 -0.12576
 C49 C 0.34134 0.10847 -0.11011
 C50 C 0.34150 0.12441 -0.09400
 C51 C 0.35780 0.14045 -0.09386
 H52 H 0.41789 0.14029 -0.15262
 H53 H 0.38952 0.16951 -0.09744
 H54 H 0.40087 0.10952 -0.16932
 H55 H 0.34503 0.07947 -0.14068
 H56 H 0.32866 0.09629 -0.11069
 H57 H 0.35840 0.15260 -0.08137
 C58 C 0.11024 0.87438 0.36011
 C59 C 0.09435 0.85801 0.36036
 C60 C 0.09316 0.84212 0.37681
 C61 C 0.10860 0.84317 0.39303
 C62 C 0.12464 0.85938 0.39288
 C63 C 0.12545 0.87507 0.37640
 C64 C 0.11117 0.89002 0.34370
 C65 C 0.12687 0.90671 0.34352
 C66 C 0.14198 0.90724 0.35990
 C67 C 0.14147 0.89147 0.37621
 C68 C 0.15677 0.89185 0.39232
 C69 C 0.15615 0.87622 0.40886
 C70 C 0.13984 0.86018 0.40908
 H71 H 0.08346 0.85736 0.34716
 H72 H 0.10785 0.83197 0.40638
 H73 H 0.09971 0.88908 0.33097
 H74 H 0.15397 0.92016 0.36021
 H75 H 0.16939 0.90410 0.39173
 H76 H 0.13888 0.84834 0.42194
 N77 N 0.10101 0.15967 0.11355
 N78 N 0.09388 0.15178 0.13159
 C79 C 0.07697 0.16380 0.13778
 C80 C 0.07326 0.18017 0.12283
 C81 C 0.08891 0.17698 0.10767
 H82 H 0.06808 0.16088 0.15215
 H83 H 0.09130 0.18639 0.09331
 Cu84 Cu 0.10730 0.12633 0.14488
 Cu85 Cu 0.12559 0.14711 0.09909
 Cu86 Cu 0.14980 0.10191 0.12300
 N87 N 0.12081 0.10094 0.15818
 N88 N 0.13710 0.09109 0.14918
 C89 C 0.14281 0.07348 0.16092
 C90 C 0.12951 0.07230 0.17833
 C91 C 0.11577 0.09003 0.17611
 H92 H 0.15576 0.06240 0.15715
 H93 H 0.10272 0.09427 0.18649
 N94 N 0.16025 0.11532 0.09650
 N95 N 0.15071 0.13212 0.08710
 C96 C 0.16149 0.13728 0.06932
 C97 C 0.17875 0.12322 0.06759
 C98 C 0.17747 0.10953 0.08509
 H99 H 0.15745 0.15066 0.05868
 H100 H 0.18826 0.09626 0.08911
 H101 H 0.12212 0.11543 0.11093
 H102 H 0.14011 0.13444 0.12571
 N103 N 0.39839 0.84108 0.61354
 N104 N 0.40596 0.84903 0.63127
 C105 C 0.42310 0.83711 0.63708
 C106 C 0.42649 0.82075 0.62220
 C107 C 0.41042 0.82385 0.60748
 H108 H 0.43247 0.84023 0.65104
 H109 H 0.40751 0.81420 0.59347
 Cu110 Cu 0.39270 0.87430 0.64483
 Cu111 Cu 0.37329 0.85343 0.59978
 Cu112 Cu 0.34907 0.89804 0.62427
 N113 N 0.37915 0.89938 0.65842
 N114 N 0.36230 0.90884 0.65005
 C115 C 0.35656 0.92618 0.66198
 C116 C 0.37049 0.92763 0.67883
 C117 C 0.38459 0.91029 0.67609
 H118 H 0.34318 0.93688 0.65870
 H119 H 0.39807 0.90627 0.68598
 N120 N 0.33816 0.88474 0.59808
 N121 N 0.34770 0.86817 0.58845
 C122 C 0.33671 0.86317 0.57086
 C123 C 0.31931 0.87711 0.56946
 C124 C 0.32073 0.89053 0.58700
 H125 H 0.34075 0.85003 0.56008
 H126 H 0.30993 0.90369 0.59124
 H127 H 0.37658 0.88512 0.61136
 H128 H 0.35942 0.86569 0.62687
 N129 N 0.89945 0.65685 0.38683
 N130 N 0.90689 0.64887 0.36904
 C131 C 0.92444 0.66036 0.36341
 C132 C 0.92821 0.67647 0.37845
 C133 C 0.91197 0.67367 0.39309
 H134 H 0.93358 0.65739 0.34925
 H135 H 0.90933 0.68316 0.40725
 Cu136 Cu 0.89275 0.62445 0.35484
 Cu137 Cu 0.87380 0.64527 0.40026
 Cu138 Cu 0.84823 0.60175 0.37538
 N139 N 0.87881 0.59927 0.34169
 N140 N 0.86135 0.59057 0.34970
 C141 C 0.85523 0.57337 0.33774
 C142 C 0.86964 0.57106 0.32130
 C143 C 0.88439 0.58785 0.32436
 H144 H 0.84148 0.56311 0.34104
 H145 H 0.89818 0.59152 0.31472
 N146 N 0.83751 0.61528 0.40155
 N147 N 0.84759 0.63142 0.41134
 C148 C 0.83671 0.63661 0.42896
 C149 C 0.81884 0.62323 0.43025
 C150 C 0.81985 0.60994 0.41259
 H151 H 0.84122 0.64946 0.43989
 H152 H 0.80868 0.59710 0.40829
 H153 H 0.87625 0.61364 0.38820
 H154 H 0.85967 0.63377 0.37299
 N155 N 0.60000 0.34249 -0.11258
 N156 N 0.58983 0.35419 -0.12689
 C157 C 0.57192 0.34340 -0.13245
 C158 C 0.57089 0.32378 -0.12111
 C159 C 0.58901 0.32377 -0.10867
 H160 H 0.56071 0.34920 -0.14417
 H161 H 0.59371 0.31121 -0.09740
 Cu162 Cu 0.60110 0.38209 -0.13741
 Cu163 Cu 0.62636 0.35272 -0.09974
 Cu164 Cu 0.65067 0.39784 -0.12335
 N165 N 0.61675 0.40461 -0.15303
 N166 N 0.63611 0.41063 -0.14761
 C167 C 0.64298 0.42652 -0.16093
 C168 C 0.62708 0.43071 -0.17559
 C169 C 0.61067 0.41640 -0.17005
 H170 H 0.65844 0.43437 -0.16001
 H171 H 0.59532 0.41480 -0.17762
 N172 N 0.66264 0.38260 -0.09850
 N173 N 0.65308 0.36570 -0.08919
 C174 C 0.66439 0.35970 -0.07207
 C175 C 0.68203 0.37338 -0.07061
 C176 C 0.68044 0.38765 -0.08767
 H177 H 0.66014 0.34636 -0.06144
 H178 H 0.69112 0.40114 -0.09152
 H179 H 0.62436 0.38618 -0.10692
 H180 H 0.63577 0.36767 -0.12771
 C181 C -0.04302 0.29575 0.12331
 C182 C -0.04000 0.31624 0.13315
 C183 C -0.05622 0.33204 0.13330
 C184 C -0.07606 0.32790 0.12350
 C185 C -0.07883 0.30721 0.11354
 C186 C -0.06260 0.29145 0.11349
 C187 C -0.02587 0.27887 0.12333
 C188 C -0.03074 0.25641 0.12664
 C189 C -0.01463 0.24050 0.12664
 C190 C 0.00673 0.24667 0.12329
 C191 C 0.01161 0.26912 0.11997
 C192 C -0.00451 0.28505 0.12000
 C193 C 0.02383 0.22971 0.12323
 C194 C 0.04050 0.23081 0.10843
 C195 C 0.05652 0.21478 0.10830
 C196 C 0.05627 0.19726 0.12299
 C197 C 0.03959 0.19623 0.13783
 C198 C 0.02357 0.21225 0.13794
 H199 H -0.02508 0.32003 0.14093
 H200 H -0.05265 0.34779 0.14049
 H201 H -0.09382 0.30254 0.10643
 H202 H -0.06537 0.27584 0.10564
 H203 H -0.04702 0.25115 0.12944
 H204 H -0.01894 0.22332 0.12902
 H205 H 0.02794 0.27442 0.11755
 H206 H -0.00028 0.30218 0.11717
 H207 H 0.04102 0.24393 0.09674
 H208 H 0.06910 0.21627 0.09669
 H209 H 0.03874 0.18302 0.14937
 H210 H 0.01109 0.21111 0.14972
 C211 C 0.54250 0.70491 0.62166
 C212 C 0.53774 0.68275 0.62661
 C213 C 0.55382 0.66679 0.62687
 C214 C 0.57500 0.67262 0.62213
 C215 C 0.57973 0.69475 0.61705
 C216 C 0.56367 0.71072 0.61685
 C217 C 0.52546 0.72192 0.62163
 C218 C 0.52923 0.74296 0.63018
 C219 C 0.51318 0.75894 0.63027
 C220 C 0.49300 0.75426 0.62176
 C221 C 0.48924 0.73323 0.61316
 C222 C 0.50528 0.71723 0.61313
 C223 C 0.47594 0.77124 0.62189
 C224 C 0.46264 0.77414 0.60428
 C225 C 0.44664 0.79017 0.60438
 C226 C 0.44350 0.80369 0.62210
 C227 C 0.45682 0.80074 0.63972
 C228 C 0.47284 0.78472 0.63961
 H229 H 0.52162 0.67780 0.63057
 H230 H 0.54966 0.64983 0.63062
 H231 H 0.59594 0.69978 0.61352
 H232 H 0.56779 0.72761 0.61276
 H233 H 0.54454 0.74700 0.63704
 H234 H 0.51663 0.77506 0.63682
 H235 H 0.47380 0.72905 0.60668
 H236 H 0.50196 0.70123 0.60624
 H237 H 0.46483 0.76421 0.59028
 H238 H 0.43689 0.79202 0.59043
 H239 H 0.45484 0.81062 0.65376
 H240 H 0.48263 0.78268 0.65353
 C241 C 1.04444 0.79269 0.37755
 C242 C 1.04120 0.81296 0.36719
 C243 C 1.05714 0.82914 0.36690
 C244 C 1.07692 0.82561 0.37703
 C245 C 1.07996 0.80510 0.38742
 C246 C 1.06399 0.78895 0.38763
 C247 C 1.02747 0.77552 0.37785
 C248 C 1.03258 0.75309 0.37515
 C249 C 1.01660 0.73694 0.37537
 C250 C 0.99515 0.74285 0.37834
 C251 C 0.99005 0.76528 0.38108
 C252 C 1.00603 0.78142 0.38083
 C253 C 0.97815 0.72571 0.37852
 C254 C 0.96121 0.72688 0.39301
 C255 C 0.94510 0.71088 0.39305
 C256 C 0.94550 0.69331 0.37859
 C257 C 0.96253 0.69212 0.36417
 C258 C 0.97865 0.70812 0.36414
 H259 H 1.02631 0.81631 0.35918
 H260 H 1.05336 0.84472 0.35935
 H261 H 1.09494 0.80090 0.39481
 H262 H 1.06693 0.77351 0.39585
 H263 H 1.04893 0.74803 0.37262
 H264 H 1.02107 0.71978 0.37343
 H265 H 0.97366 0.77039 0.38317
 H266 H 1.00161 0.79853 0.38320
 H267 H 0.96051 0.74008 0.40446
 H268 H 0.93228 0.71248 0.40435
 H269 H 0.96351 0.67884 0.35285
 H270 H 0.99136 0.70689 0.35263
 C271 C 0.45530 0.20676 -0.12436
 C272 C 0.44722 0.19790 -0.10540
 C273 C 0.43130 0.18170 -0.10561
 C274 C 0.42283 0.17411 -0.12480
 C275 C 0.43081 0.18307 -0.14376
 C276 C 0.44692 0.19908 -0.14355
 C277 C 0.47238 0.22391 -0.12412
 C278 C 0.47267 0.24108 -0.13918
 C279 C 0.48876 0.25711 -0.13898
 C280 C 0.50484 0.25659 -0.12355
 C281 C 0.50447 0.23948 -0.10842
 C282 C 0.48855 0.22329 -0.10879
 C283 C 0.52186 0.27382 -0.12317
 C284 C 0.54276 0.26842 -0.11702
 C285 C 0.55863 0.28465 -0.11629
 C286 C 0.55408 0.30660 -0.12199
 C287 C 0.53332 0.31201 -0.12840
 C288 C 0.51736 0.29585 -0.12884
 H289 H 0.45304 0.20362 -0.09031
 H290 H 0.42577 0.17499 -0.09071
 H291 H 0.42448 0.17787 -0.15882
 H292 H 0.45293 0.20526 -0.15848
 H293 H 0.46033 0.24231 -0.15104
 H294 H 0.48866 0.26982 -0.15108
 H295 H 0.51637 0.23868 -0.09610
 H296 H 0.48905 0.21017 -0.09712
 H297 H 0.54697 0.25157 -0.11300
 H298 H 0.57456 0.27991 -0.11157
 H299 H 0.52928 0.32884 -0.13267
 H300 H 0.50139 0.30075 -0.13327
 C301 C 0.12812 -0.04382 0.29399
 C302 C 0.10866 -0.05235 0.30156
 C303 C 0.10827 -0.06825 0.31763
 C304 C 0.12733 -0.07634 0.32637
 C305 C 0.14680 -0.06797 0.31867
 C306 C 0.14719 -0.05182 0.30281
 C307 C 0.12851 -0.02664 0.27704
 C308 C 0.14485 -0.02631 0.26182
 C309 C 0.14527 -0.01012 0.24600
 C310 C 0.12917 0.00600 0.24476
 C311 C 0.11276 0.00557 0.25991
 C312 C 0.11253 -0.01041 0.27592
 C313 C 0.12944 0.02310 0.22773
 C314 C 0.12194 0.04463 0.23156
 C315 C 0.12185 0.06055 0.21550
 C316 C 0.12961 0.05545 0.19532
 C317 C 0.13734 0.03408 0.19148
 C318 C 0.13709 0.01803 0.20743
 H319 H 0.09366 -0.04690 0.29496
 H320 H 0.09295 -0.07401 0.32336
 H321 H 0.16182 -0.07401 0.32477
 H322 H 0.16248 -0.04544 0.29765
 H323 H 0.15727 -0.03870 0.26195
 H324 H 0.15835 -0.01016 0.23484
 H325 H 0.09990 0.01745 0.25932
 H326 H 0.09987 -0.00987 0.28753
 H327 H 0.11636 0.04934 0.24707
 H328 H 0.11604 0.07698 0.21898
 H329 H 0.14316 0.02959 0.17600
 H330 H 0.14257 0.00155 0.20371
 C331 C 0.62734 0.54428 -0.29327
 C332 C 0.63659 0.53975 -0.31293
 C333 C 0.63632 0.55552 -0.32913
 C334 C 0.62666 0.57640 -0.32623
 C335 C 0.61740 0.58074 -0.30632
 C336 C 0.61780 0.56496 -0.29013
 C337 C 0.62758 0.52748 -0.27610
 C338 C 0.63187 0.53368 -0.25519
 C339 C 0.63200 0.51788 -0.23902
 C340 C 0.62778 0.49552 -0.24338
 C341 C 0.62349 0.48932 -0.26429
 C342 C 0.62343 0.50511 -0.28048
 C343 C 0.62775 0.47877 -0.22615
 C344 C 0.61210 0.46212 -0.22543
 C345 C 0.61192 0.44650 -0.20908
 C346 C 0.62741 0.44713 -0.19309
 C347 C 0.64314 0.46373 -0.19391
 C348 C 0.64328 0.47938 -0.21023
 H349 H 0.64416 0.52396 -0.31579
 H350 H 0.64301 0.55074 -0.34416
 H351 H 0.61046 0.59662 -0.30270
 H352 H 0.61046 0.56892 -0.27515
 H353 H 0.63533 0.55075 -0.25137
 H354 H 0.63514 0.52321 -0.22304
 H355 H 0.62038 0.47220 -0.26818
 H356 H 0.61987 0.49986 -0.29640
 H357 H 0.59978 0.46135 -0.23735
 H358 H 0.59964 0.43392 -0.20910
 H359 H 0.65528 0.46486 -0.18187
 H360 H 0.65569 0.49186 -0.21048
 C361 C 0.37211 1.04269 0.79418
 C362 C 0.35340 1.04825 0.80507
 C363 C 0.35361 1.06439 0.82075
 C364 C 0.37266 1.07548 0.82634
 C365 C 0.39143 1.06963 0.81530
 C366 C 0.39111 1.05362 0.79948
 C367 C 0.37181 1.02563 0.77732
 C368 C 0.38908 1.01112 0.77468
 C369 C 0.38885 0.99523 0.75875
 C370 C 0.37124 0.99328 0.74516
 C371 C 0.35391 1.00769 0.74791
 C372 C 0.35424 1.02373 0.76369
 C373 C 0.37099 0.97638 0.72817
 C374 C 0.36156 0.98104 0.70852
 C375 C 0.36124 0.96515 0.69259
 C376 C 0.37058 0.94433 0.69582
 C377 C 0.38010 0.93965 0.71537
 C378 C 0.38019 0.95544 0.73141
 H379 H 0.33848 1.04005 0.80154
 H380 H 0.33845 1.06854 0.82780
 H381 H 0.40676 1.07667 0.81919
 H382 H 0.40582 1.04992 0.79130
 H383 H 0.40275 1.01189 0.78504
 H384 H 0.40260 0.98463 0.75695
 H385 H 0.33995 1.00649 0.73797
 H386 H 0.34079 1.03482 0.76504
 H387 H 0.35470 0.99711 0.70529
 H388 H 0.35403 0.96937 0.67760
 H389 H 0.38719 0.92366 0.71843
 H390 H 0.38721 0.95108 0.74645
 C391 C 0.86977 0.45547 0.20650
 C392 C 0.87484 0.43336 0.21123
 C393 C 0.87532 0.41746 0.19530
 C394 C 0.87071 0.42330 0.17431
 C395 C 0.86550 0.44538 0.16961
 C396 C 0.86506 0.46128 0.18552
 C397 C 0.86957 0.47246 0.22335
 C398 C 0.87802 0.49366 0.21955
 C399 C 0.87796 0.50964 0.23540
 C400 C 0.86942 0.50479 0.25542
 C401 C 0.86092 0.48360 0.25922
 C402 C 0.86102 0.46761 0.24337
 C403 C 0.86944 0.52176 0.27228
 C404 C 0.85172 0.52427 0.28563
 C405 C 0.85176 0.54026 0.30148
 C406 C 0.86954 0.55413 0.30439
 C407 C 0.88727 0.55157 0.29101
 C408 C 0.88721 0.53560 0.27515
 H409 H 0.87876 0.42842 0.22720
 H410 H 0.87917 0.40054 0.19945
 H411 H 0.86207 0.45043 0.15356
 H412 H 0.86088 0.47813 0.18141
 H413 H 0.88493 0.49784 0.20437
 H414 H 0.88443 0.52587 0.23192
 H415 H 0.85443 0.47929 0.27454
 H416 H 0.85421 0.45149 0.24672
 H417 H 0.83767 0.51406 0.28364
 H418 H 0.83773 0.54181 0.31130
 H419 H 0.90136 0.56171 0.29284
 H420 H 0.90124 0.53384 0.26534
 C421 C 0.29271 0.12401 -0.04571
 C422 C 0.30049 0.10408 -0.05406
 C423 C 0.31637 0.10421 -0.06955
 C424 C 0.32469 0.12428 -0.07736
 C425 C 0.31680 0.14420 -0.06912
 C426 C 0.30114 0.14407 -0.05341
 C427 C 0.27589 0.12386 -0.02907
 C428 C 0.26022 0.14044 -0.02851
 C429 C 0.24454 0.14038 -0.01282
 C430 C 0.24390 0.12355 0.00258
 C431 C 0.25948 0.10688 0.00193
 C432 C 0.27534 0.10712 -0.01358
 C433 C 0.22713 0.12342 0.01927
 C434 C 0.23170 0.11576 0.03977
 C435 C 0.21594 0.11549 0.05538
 C436 C 0.19533 0.12322 0.05097
 C437 C 0.19073 0.13105 0.03060
 C438 C 0.20639 0.13097 0.01488
 H439 H 0.29419 0.08831 -0.04880
 H440 H 0.32224 0.08853 -0.07527
 H441 H 0.32257 0.15998 -0.07494
 H442 H 0.29580 0.15974 -0.04717
 H443 H 0.25990 0.15342 -0.04033
 H444 H 0.23305 0.15370 -0.01267
 H445 H 0.25936 0.09345 0.01329
 H446 H 0.28731 0.09425 -0.01326
 H447 H 0.24756 0.11025 0.04391
 H448 H 0.22003 0.10964 0.07103
 H449 H 0.17491 0.13687 0.02670
 H450 H 0.20210 0.13656 -0.00080
 C451 C 0.70521 0.62357 0.54388
 C452 C 0.69773 0.60363 0.55274
 C453 C 0.68194 0.60370 0.56833
 C454 C 0.67339 0.62372 0.57566
 C455 C 0.68097 0.64367 0.56690
 C456 C 0.69657 0.64359 0.55113
 C457 C 0.72194 0.62350 0.52716
 C458 C 0.73754 0.64023 0.52630
 C459 C 0.75315 0.64024 0.51054
 C460 C 0.75375 0.62338 0.49535
 C461 C 0.73822 0.60658 0.49628
 C462 C 0.72246 0.60671 0.51189
 C463 C 0.77048 0.62331 0.47863
 C464 C 0.76580 0.61584 0.45815
 C465 C 0.78154 0.61565 0.44251
 C466 C 0.80223 0.62322 0.44687
 C467 C 0.80693 0.63082 0.46724
 C468 C 0.79129 0.63072 0.48297
 H469 H 0.70420 0.58791 0.54779
 H470 H 0.67630 0.58801 0.57448
 H471 H 0.67499 0.65942 0.57235
 H472 H 0.70169 0.65925 0.54449
 H473 H 0.73786 0.65325 0.53795
 H474 H 0.76463 0.65364 0.51017
 H475 H 0.73832 0.59315 0.48506
 H476 H 0.71054 0.59374 0.51184
 H477 H 0.74988 0.61044 0.45407
 H478 H 0.77736 0.60996 0.42688
 H479 H 0.82281 0.63649 0.47116
 H480 H 0.79562 0.63617 0.49863
 C481 C 0.79448 0.37421 0.04374
 C482 C 0.80127 0.39428 0.05267
 C483 C 0.81682 0.39452 0.06844
 C484 C 0.82579 0.37469 0.07591
 C485 C 0.81888 0.35461 0.06710
 C486 C 0.80354 0.35439 0.05114
 C487 C 0.77805 0.37395 0.02679
 C488 C 0.76301 0.35670 0.02567
 C489 C 0.74766 0.35641 0.00973
 C490 C 0.74672 0.37350 -0.00538
 C491 C 0.76169 0.39081 -0.00420
 C492 C 0.77723 0.39095 0.01158
 C493 C 0.73016 0.37335 -0.02220
 C494 C 0.73474 0.38146 -0.04257
 C495 C 0.71909 0.38157 -0.05825
 C496 C 0.69860 0.37325 -0.05403
 C497 C 0.69402 0.36496 -0.03379
 C498 C 0.70956 0.36515 -0.01802
 H499 H 0.79446 0.40985 0.04762
 H500 H 0.82195 0.41031 0.07461
 H501 H 0.82518 0.33899 0.07265
 H502 H 0.79898 0.33864 0.04446
 H503 H 0.76292 0.34349 0.03726
 H504 H 0.73662 0.34264 0.00918
 H505 H 0.76130 0.40443 -0.01534
 H506 H 0.78872 0.40433 0.01171
 H507 H 0.75052 0.38749 -0.04653
 H508 H 0.72315 0.38785 -0.07378
 H509 H 0.67828 0.35874 -0.02998
 H510 H 0.70527 0.35921 -0.00244
 C511 C 0.20455 0.87690 0.45735
 C512 C 0.19600 0.85682 0.45009
 C513 C 0.18038 0.85661 0.43439
 C514 C 0.17266 0.87649 0.42573
 C515 C 0.18101 0.89659 0.43318
 C516 C 0.19684 0.89679 0.44868
 C517 C 0.22149 0.87709 0.47381
 C518 C 0.22225 0.89392 0.48903
 C519 C 0.23823 0.89416 0.50436
 C520 C 0.25374 0.87741 0.50509
 C521 C 0.25290 0.86051 0.48994
 C522 C 0.23710 0.86044 0.47444
 C523 C 0.27065 0.87750 0.52158
 C524 C 0.29133 0.86990 0.51702
 C525 C 0.30708 0.86966 0.53259
 C526 C 0.30264 0.87735 0.55299
 C527 C 0.28210 0.88518 0.55755
 C528 C 0.26624 0.88510 0.54209
 H529 H 0.20125 0.84118 0.45661
 H530 H 0.17458 0.84080 0.42886
 H531 H 0.17525 0.91224 0.42713
 H532 H 0.20321 0.91257 0.45364
 H533 H 0.21035 0.90685 0.48926
 H534 H 0.23851 0.90763 0.51553
 H535 H 0.26435 0.84714 0.49015
 H536 H 0.23727 0.84739 0.46281
 H537 H 0.29548 0.86437 0.50133
 H538 H 0.32285 0.86380 0.52855
 H539 H 0.27813 0.89094 0.57321
 H540 H 0.25043 0.89064 0.54634
   
