data_POSCAR
  _audit_creation_date              2014-09-24
  _audit_creation_method            'ToBaCCo'
  _symmetry_space_group_name_H-M    'P1'
  _symmetry_Int_Tables_number       1
  _symmetry_cell_setting            triclinic
  loop_
  _symmetry_equiv_pos_as_xyz
 x,y,z
_cell_length_a 23.0602
_cell_length_b 22.9671
_cell_length_c 22.9668
_cell_angle_alpha 67.936700
_cell_angle_beta 69.032900
_cell_angle_gamma 109.854300
loop_
  _atom_site_label
  _atom_site_type_symbol
  _atom_site_fract_x
  _atom_site_fract_y
  _atom_site_fract_z
O1 O 0.51810 0.44734 0.08682
 O2 O 0.37649 0.45049 0.04966
 O3 O 0.43713 0.37338 0.05442
 O4 O 0.45649 0.52461 0.08278
 O5 O 0.54492 0.60869 -0.03874
 O6 O 0.52310 0.45742 -0.06759
 O7 O 0.46288 0.53562 -0.07077
 O8 O 0.60484 0.53096 -0.03527
 Cu9 Cu 0.43831 0.44049 0.08074
 Cu10 Cu 0.54267 0.54163 -0.06536
 C11 C 0.58551 0.48765 0.03163
 C12 C 0.39512 0.49482 -0.01686
 C13 C 0.47653 0.38941 -0.01129
 C14 C 0.50407 0.59250 0.02667
 O15 O -0.06647 0.54629 0.52783
 O16 O -0.04590 0.38769 0.55395
 O17 O -0.04316 0.46177 0.61676
 O18 O -0.08047 0.46472 0.47333
 O19 O 0.03933 0.54661 0.38457
 O20 O 0.07709 0.54017 0.52873
 O21 O 0.07365 0.46744 0.46387
 O22 O 0.05323 0.62459 0.44143
 Cu23 Cu -0.07094 0.45700 0.55190
 Cu24 Cu 0.07291 0.55238 0.44583
 C25 C -0.00966 0.61333 0.47971
 C26 C 0.01736 0.40070 0.51282
 C27 C 0.02281 0.50149 0.59718
 C28 C -0.02690 0.50696 0.40438
 O29 O 0.53941 0.07780 0.52780
 O30 O 0.54218 0.03421 0.38819
 O31 O 0.47194 0.07976 0.45608
 O32 O 0.61141 0.03631 0.45780
 O33 O 0.52217 -0.08204 0.55047
 O34 O 0.38282 -0.03860 0.54926
 O35 O 0.45254 -0.08402 0.48117
 O36 O 0.44988 -0.03935 0.61943
 Cu37 Cu 0.55016 0.06890 0.44796
 Cu38 Cu 0.44303 -0.07282 0.55910
 C39 C 0.49601 0.02617 0.59791
 C40 C 0.49597 -0.03187 0.41118
 C41 C 0.40361 0.02735 0.50136
 C42 C 0.59045 -0.02933 0.50671
 C43 C 0.46045 0.15214 -0.11833
 C44 C 0.46543 0.11889 -0.15717
 C45 C 0.48630 0.07077 -0.12883
 N46 N 0.49479 0.07398 -0.07472
 C47 C 0.47829 0.12299 -0.06760
 C48 C 0.50135 0.02828 -0.15593
 C49 C 0.51777 -0.02419 -0.12273
 C50 C 0.54522 -0.05640 -0.15592
 C51 C 0.54772 -0.10860 -0.10402
 C52 C 0.52227 -0.10660 -0.04056
 N53 N 0.50383 -0.05523 -0.05238
 C54 C 0.51164 -0.15567 0.02781
 C55 C 0.50035 -0.14393 0.08594
 C56 C 0.48544 -0.19308 0.15524
 C57 C 0.48092 -0.15956 0.19385
 C58 C 0.49382 -0.09092 0.14644
 N59 N 0.50643 -0.08122 0.08037
 C60 C 0.49668 -0.03726 0.16313
 C61 C 0.50422 0.02981 0.11618
 C62 C 0.52078 0.08912 0.12428
 C63 C 0.51623 0.13998 0.07356
 C64 C 0.49731 0.11073 0.03548
 N65 N 0.48965 0.04327 0.06214
 C66 C 0.48310 0.14463 -0.01875
 H67 H 0.44608 0.19351 -0.12693
 H68 H 0.45571 0.12955 -0.20173
 H69 H 0.46640 0.00457 0.05139
 H70 H 0.56079 -0.04441 -0.21142
 H71 H 0.56548 -0.14448 -0.11206
 H72 H 0.47899 -0.24713 0.17560
 H73 H 0.46974 -0.18287 0.25014
 H74 H 0.52500 0.19223 0.06617
 H75 H 0.47454 -0.04889 -0.01149
 H76 H 0.53358 0.09462 0.16364
 C77 C -0.07568 0.51821 0.85577
 C78 C -0.12938 0.51666 0.90862
 C79 C -0.11863 0.50250 0.96686
 N80 N -0.06063 0.49449 0.95167
 C81 C -0.03377 0.50478 0.88336
 C82 C -0.16540 0.49236 1.03464
 C83 C -0.15024 0.48544 1.09042
 C84 C -0.20029 0.46392 1.16201
 C85 C -0.16324 0.46739 1.19742
 C86 C -0.09180 0.49055 1.14654
 N87 N -0.08417 0.50226 1.08128
 C88 C -0.03460 0.50448 1.15943
 C89 C 0.03315 0.51475 1.11316
 C90 C 0.09280 0.53564 1.12036
 C91 C 0.14543 0.53522 1.06846
 C92 C 0.11599 0.51323 1.03176
 N93 N 0.04723 0.50045 1.05941
 C94 C 0.15075 0.50031 0.97766
 C95 C 0.12440 0.48687 0.93420
 C96 C 0.15070 0.46371 0.88873
 C97 C 0.11588 0.46401 0.85090
 C98 C 0.06872 0.48649 0.87503
 N99 N 0.07480 0.50093 0.92518
 C100 C 0.02512 0.49772 0.84732
 H101 H -0.06915 0.52714 0.80350
 H102 H -0.17189 0.52445 0.90472
 H103 H 0.05347 0.52770 0.94471
 H104 H -0.25748 0.44762 1.18617
 H105 H -0.18632 0.45448 1.25407
 H106 H 0.09778 0.54913 1.15939
 H107 H 0.19903 0.54886 1.05935
 H108 H 0.12471 0.44982 0.80995
 H109 H -0.03468 0.52795 1.03084
 H110 H 0.19184 0.44959 0.88230
 C111 C 0.11334 -0.10377 0.54035
 C112 C 0.06418 -0.15328 0.53604
 C113 C 0.02523 -0.12325 0.51812
 N114 N 0.04899 -0.05719 0.51125
 C115 C 0.10280 -0.04514 0.52484
 C116 C -0.02527 -0.15283 0.50039
 C117 C -0.07278 -0.12866 0.49371
 C118 C -0.11709 -0.15086 0.46866
 C119 C -0.15782 -0.11883 0.47476
 C120 C -0.13614 -0.07662 0.50187
 N121 N -0.08534 -0.08409 0.51455
 C122 C -0.16552 -0.03527 0.51718
 C123 C -0.13168 0.02032 0.52820
 C124 C -0.15999 0.06086 0.54419
 C125 C -0.10957 0.11142 0.54635
 C126 C -0.05154 0.10085 0.53104
 N127 N -0.06487 0.04557 0.51931
 C128 C 0.01457 0.14608 0.52258
 C129 C 0.07205 0.13293 0.51049
 C130 C 0.14273 0.18374 0.48743
 C131 C 0.18079 0.14875 0.48482
 C132 C 0.13203 0.07736 0.50703
 N133 N 0.06578 0.06800 0.52325
 C134 C 0.14843 0.02202 0.51468
 H135 H 0.15352 -0.10933 0.55172
 H136 H 0.05885 -0.20465 0.54349
 H137 H 0.01695 0.01787 0.54880
 H138 H -0.12058 -0.18728 0.44907
 H139 H -0.19880 -0.12610 0.46091
 H140 H -0.21086 0.05608 0.55185
 H141 H -0.11455 0.15238 0.55649
 H142 H 0.23773 0.17300 0.46874
 H143 H -0.06650 -0.06648 0.54334
 H144 H 0.16471 0.24018 0.47384
 C145 C -0.36019 0.41520 1.07514
 C146 C -0.35753 0.48313 1.04433
 C147 C -0.29590 0.54988 1.01870
 C148 C -0.23625 0.55082 1.02126
 C149 C -0.23622 0.48519 1.04850
 C150 C -0.29894 0.41635 1.07739
 C151 C -0.42060 0.34676 1.10046
 C152 C -0.42124 0.28107 1.12894
 C153 C -0.36177 0.28206 1.13199
 C154 C -0.30087 0.34904 1.10622
 H155 H -0.46761 0.34304 1.09819
 H156 H -0.46809 0.22922 1.14848
 H157 H -0.36272 0.23075 1.15405
 H158 H -0.25551 0.34766 1.10917
 H159 H -0.29307 0.60215 0.99454
 H160 H -0.18804 0.60383 0.99820
 C161 C 0.35257 0.55765 0.90589
 C162 C 0.33947 0.49788 0.97139
 C163 C 0.26532 0.43889 1.03090
 C164 C 0.20590 0.43878 1.02923
 C165 C 0.21712 0.49828 0.96884
 C166 C 0.29024 0.55749 0.90597
 C167 C 0.42455 0.61963 0.84177
 C168 C 0.43437 0.67742 0.78093
 C169 C 0.37364 0.67675 0.78217
 C170 C 0.30227 0.61786 0.84409
 H171 H 0.47522 0.62665 0.83553
 H172 H 0.48983 0.72349 0.73251
 H173 H 0.38189 0.72234 0.73502
 H174 H 0.25673 0.62026 0.84271
 H175 H 0.25226 0.39171 1.08071
 H176 H 0.15008 0.39307 1.07746
 C177 C 0.04130 -0.24848 0.41223
 C178 C -0.01620 -0.32552 0.47243
 C179 C -0.08028 -0.34114 0.53140
 C180 C -0.08400 -0.28425 0.53730
 C181 C -0.02454 -0.20956 0.48401
 C182 C 0.03739 -0.19058 0.41941
 C183 C 0.10145 -0.22666 0.34400
 C184 C 0.15818 -0.15137 0.28811
 C185 C 0.15572 -0.09571 0.29734
 C186 C 0.09554 -0.11469 0.36163
 H187 H 0.10490 -0.26617 0.33083
 H188 H 0.20411 -0.13608 0.23695
 H189 H 0.20011 -0.03743 0.25393
 H190 H 0.09465 -0.06925 0.36508
 H191 H -0.12627 -0.39842 0.57700
 H192 H -0.13216 -0.29903 0.58618
 C193 C -0.00838 0.27079 0.58971
 C194 C 0.02466 0.33754 0.51915
 C195 C 0.06109 0.34250 0.45215
 C196 C 0.06068 0.28106 0.45420
 C197 C 0.02468 0.21322 0.52324
 C198 C -0.00852 0.20801 0.59166
 C199 C -0.04078 0.26504 0.65835
 C200 C -0.07384 0.19854 0.72717
 C201 C -0.07529 0.13673 0.72905
 C202 C -0.04297 0.14115 0.66206
 H203 H -0.03995 0.31190 0.65960
 H204 H -0.09823 0.19505 0.77930
 H205 H -0.10115 0.08525 0.78266
 H206 H -0.04464 0.09214 0.66576
 H207 H 0.08665 0.39313 0.39782
 H208 H 0.08583 0.28533 0.40165
 C209 C 0.56136 0.09960 -0.36118
 C210 C 0.49908 0.03860 -0.34681
 C211 C 0.43840 -0.01735 -0.27107
 C212 C 0.43897 -0.01709 -0.21111
 C213 C 0.50034 0.03865 -0.22343
 C214 C 0.56152 0.09811 -0.29820
 C215 C 0.62531 0.16002 -0.43478
 C216 C 0.68574 0.21567 -0.44547
 C217 C 0.68519 0.21302 -0.38394
 C218 C 0.62398 0.15486 -0.31099
 H219 H 0.63166 0.16711 -0.48600
 H220 H 0.73372 0.26112 -0.50217
 H221 H 0.73259 0.25617 -0.39279
 H222 H 0.62618 0.15471 -0.26467
 H223 H 0.38950 -0.06358 -0.25713
 H224 H 0.39187 -0.06275 -0.15392
 C225 C 0.42337 -0.06988 0.35729
 C226 C 0.48974 -0.04659 0.35574
 C227 C 0.55360 -0.02891 0.29552
 C228 C 0.55342 -0.03187 0.23608
 C229 C 0.48968 -0.05140 0.23472
 C230 C 0.42359 -0.07208 0.29610
 C231 C 0.35800 -0.08643 0.41570
 C232 C 0.29544 -0.10308 0.41295
 C233 C 0.29529 -0.10670 0.35395
 C234 C 0.35851 -0.09174 0.29608
 H235 H 0.35494 -0.08415 0.46269
 H236 H 0.24723 -0.11212 0.45637
 H237 H 0.24620 -0.12044 0.35270
 H238 H 0.35634 -0.09466 0.25087
 H239 H 0.60469 -0.01034 0.29336
 H240 H 0.60452 -0.01471 0.18866
 C241 C 0.57809 -0.28191 0.00497
 C242 C 0.50926 -0.34638 0.03647
 C243 C 0.44335 -0.35012 0.07270
 C244 C 0.44500 -0.28914 0.07307
 C245 C 0.51256 -0.22307 0.03796
 C246 C 0.57963 -0.21974 0.00584
 C247 C 0.64538 -0.27790 -0.02693
 C248 C 0.71254 -0.21371 -0.05822
 C249 C 0.71404 -0.15250 -0.05844
 C250 C 0.64831 -0.15521 -0.02677
 H251 H 0.64668 -0.32449 -0.02697
 H252 H 0.76363 -0.21162 -0.08216
 H253 H 0.76633 -0.10284 -0.08285
 H254 H 0.65157 -0.10679 -0.02745
 H255 H 0.39034 -0.39902 0.09710
 H256 H 0.39340 -0.29218 0.09790
 C257 C 0.40436 0.25750 0.02103
 C258 C 0.47174 0.32833 -0.02145
 C259 C 0.53836 0.33925 -0.06992
 C260 C 0.54018 0.28015 -0.07209
 C261 C 0.47551 0.20821 -0.02550
 C262 C 0.40657 0.19663 0.01989
 C263 C 0.33475 0.24575 0.06402
 C264 C 0.26943 0.17519 0.10690
 C265 C 0.27198 0.11536 0.10733
 C266 C 0.33980 0.12565 0.06439
 H267 H 0.32980 0.29107 0.06349
 H268 H 0.21646 0.16698 0.13959
 H269 H 0.22102 0.06098 0.14023
 H270 H 0.33940 0.07802 0.06537
 H271 H 0.59030 0.39293 -0.10314
 H272 H 0.59316 0.28952 -0.10710
 C273 C -0.36163 -0.07826 0.58527
 C274 C -0.35347 -0.04273 0.51441
 C275 C -0.28677 -0.01207 0.44805
 C276 C -0.22789 -0.01407 0.45027
 C277 C -0.23422 -0.04796 0.51906
 C278 C -0.30227 -0.08294 0.58748
 C279 C -0.42528 -0.10532 0.65362
 C280 C -0.43129 -0.13859 0.72208
 C281 C -0.37466 -0.14611 0.72433
 C282 C -0.31080 -0.11891 0.65788
 H283 H -0.47057 -0.10018 0.65551
 H284 H -0.48033 -0.15883 0.77375
 H285 H -0.37976 -0.17223 0.77766
 H286 H -0.26781 -0.12544 0.66199
 H287 H -0.27928 0.01605 0.39359
 H288 H -0.17588 0.01353 0.39759
 C289 C 0.34416 0.06119 0.43163
 C290 C 0.34691 0.04110 0.49667
 C291 C 0.28853 0.02304 0.56247
 C292 C 0.22666 0.02203 0.56582
 C293 C 0.22085 0.03761 0.50389
 C294 C 0.28020 0.05871 0.43566
 C295 C 0.40142 0.07955 0.36395
 C296 C 0.39485 0.09323 0.30284
 C297 C 0.33247 0.09102 0.30683
 C298 C 0.27587 0.07466 0.37221
 H299 H 0.45077 0.08151 0.35800
 H300 H 0.43791 0.10443 0.25257
 H301 H 0.32763 0.10151 0.25925
 H302 H 0.22841 0.07380 0.37288
 H303 H 0.28978 0.00701 0.61260
 H304 H 0.18119 0.00516 0.61839
 C305 C -0.01149 0.57708 1.27927
 C306 C -0.04081 0.50870 1.34616
 C307 C -0.07787 0.44060 1.35455
 C308 C -0.07993 0.43987 1.29496
 C309 C -0.04582 0.50718 1.22598
 C310 C -0.01390 0.57630 1.21855
 C311 C 0.02037 0.64629 1.27132
 C312 C 0.05093 0.71333 1.20424
 C313 C 0.04983 0.71266 1.14425
 C314 C 0.01751 0.64486 1.15117
 H315 H 0.02104 0.64906 1.31705
 H316 H 0.07548 0.76602 1.19884
 H317 H 0.07386 0.76490 1.09223
 H318 H 0.01691 0.64643 1.10370
 H319 H -0.10117 0.38787 1.40578
 H320 H -0.10480 0.38669 1.30124
 C321 C 0.07252 0.57318 0.64703
 C322 C 0.03561 0.50446 0.65478
 C323 C 0.00397 0.43646 0.72200
 C324 C 0.00613 0.43530 0.78222
 C325 C 0.04061 0.50220 0.77661
 C326 C 0.07650 0.57192 0.70791
 C327 C 0.10147 0.64294 0.58228
 C328 C 0.13560 0.70949 0.57677
 C329 C 0.14208 0.70847 0.63502
 C330 C 0.11256 0.64035 0.70031
 H331 H 0.09703 0.64719 0.53583
 H332 H 0.15642 0.76192 0.52715
 H333 H 0.16907 0.76055 0.63005
 H334 H 0.11743 0.64151 0.74509
 H335 H -0.02507 0.38363 0.72888
 H336 H -0.02261 0.38172 0.83501
   
