data_POSCAR
  _audit_creation_date              2014-09-24
  _audit_creation_method            'ToBaCCo'
  _symmetry_space_group_name_H-M    'P1'
  _symmetry_Int_Tables_number       1
  _symmetry_cell_setting            triclinic
  loop_
  _symmetry_equiv_pos_as_xyz
 x,y,z
_cell_length_a 26.7137
_cell_length_b 26.2054
_cell_length_c 45.6606
_cell_angle_alpha 88.507700
_cell_angle_beta 92.479800
_cell_angle_gamma 85.958500
loop_
  _atom_site_label
  _atom_site_type_symbol
  _atom_site_fract_x
  _atom_site_fract_y
  _atom_site_fract_z
C1 C 0.01068 0.39136 0.97357
 C2 C 0.00970 0.36322 0.99987
 C3 C 0.00994 0.38656 1.02724
 C4 C 0.01347 0.44059 1.02801
 C5 C 0.01401 0.46981 1.00132
 C6 C 0.01267 0.44500 0.97405
 C7 C 0.01573 0.47410 0.94800
 C8 C 0.02013 0.52654 0.94858
 C9 C 0.02141 0.55214 0.97521
 C10 C 0.01828 0.52370 1.00190
 C11 C 0.02155 0.46554 1.05453
 C12 C 0.02543 0.51812 1.05510
 C13 C 0.02177 0.54857 1.02917
 C14 C 0.02660 0.60238 1.02959
 C15 C 0.03084 0.62906 1.00283
 C16 C 0.02808 0.60508 0.97593
 H17 H 0.01597 0.45643 0.92685
 H18 H 0.02365 0.54658 0.92784
 H19 H 0.02719 0.44454 1.07522
 H20 H 0.03365 0.53414 1.07620
 H21 H 0.00635 0.32230 0.99869
 H22 H 0.03398 0.67012 1.00260
 C23 C 0.38704 0.02060 0.52611
 C24 C 0.35920 0.01883 0.49957
 C25 C 0.38251 0.01384 0.47286
 C26 C 0.43562 0.01065 0.47247
 C27 C 0.46448 0.01430 0.49907
 C28 C 0.44006 0.01978 0.52595
 C29 C 0.46918 0.02522 0.55188
 C30 C 0.52128 0.02297 0.55172
 C31 C 0.54639 0.01526 0.52561
 C32 C 0.51786 0.01220 0.49884
 C33 C 0.46063 0.00395 0.44629
 C34 C 0.51282 0.00037 0.44618
 C35 C 0.54250 0.00640 0.47196
 C36 C 0.59606 0.00356 0.47208
 C37 C 0.62311 0.00504 0.49912
 C38 C 0.59934 0.01124 0.52555
 H39 H 0.45194 0.03176 0.57259
 H40 H 0.54165 0.02752 0.57237
 H41 H 0.44016 0.00074 0.42555
 H42 H 0.52936 -0.00819 0.42555
 H43 H 0.31856 0.01949 0.49979
 H44 H 0.66384 0.00348 0.49970
 C45 C 0.07568 -0.01043 0.26675
 H46 H 0.07962 -0.01264 0.24333
 C47 C 0.11818 -0.00735 0.28540
 H48 H 0.15483 -0.00702 0.27618
 C49 C 0.02291 -0.00704 0.30716
 H50 H -0.01426 -0.00636 0.31559
 C51 C 0.06426 -0.00347 0.32654
 H52 H 0.05846 -0.00110 0.34980
 N53 N 0.02931 -0.01111 0.27790
 C54 C -0.05865 -0.08717 0.21128
 H55 H -0.09132 -0.06038 0.20841
 C56 C -0.05358 -0.12936 0.19328
 H57 H -0.08237 -0.13434 0.17639
 C58 C 0.01974 -0.11127 0.23577
 H59 H 0.04816 -0.10434 0.25243
 C60 C 0.02622 -0.15406 0.21839
 H61 H 0.05975 -0.17955 0.22192
 Zn62 Zn -0.02694 -0.01555 0.25155
 N63 N -0.02130 -0.07780 0.23119
 C64 C -0.02315 0.03279 0.19556
 N65 N -0.02772 0.04101 0.22464
 C66 C -0.02928 0.08921 0.23514
 C67 C -0.02704 0.13152 0.21604
 C68 C -0.02070 0.07384 0.17576
 C69 C -0.09149 -0.05568 0.29078
 C70 C -0.13151 -0.05614 0.30937
 C71 C -0.16195 0.02720 0.28952
 C72 C -0.12133 0.02596 0.27116
 N73 N -0.08635 -0.01447 0.27276
 H74 H -0.02037 -0.00563 0.18758
 H75 H -0.03157 0.09470 0.25846
 H76 H -0.02763 0.16952 0.22482
 H77 H -0.01746 0.06631 0.15269
 H78 H -0.06345 -0.08761 0.29131
 H79 H -0.13438 -0.08907 0.32386
 H80 H -0.18814 0.06071 0.28889
 H81 H -0.11712 0.05797 0.25632
 C82 C -0.00996 -0.16269 0.19616
 C83 C 0.11270 -0.00391 0.31574
 C84 C -0.16675 -0.01374 0.30946
 C85 C -0.02231 0.12400 0.18591
 C86 C -0.00025 0.11088 0.76219
 H87 H -0.00462 0.11769 0.73872
 C88 C -0.00127 0.15220 0.78102
 H89 H -0.00593 0.19085 0.77186
 C90 C 0.01189 0.05216 0.80264
 H91 H 0.01647 0.01321 0.81112
 C92 C 0.01116 0.09214 0.82216
 H93 H 0.01495 0.08329 0.84549
 N94 N 0.00713 0.06206 0.77323
 C95 C 0.07857 -0.03332 0.70791
 H96 H 0.05474 -0.06502 0.70826
 C97 C 0.11906 -0.03410 0.68960
 H98 H 0.12575 -0.06640 0.67563
 C99 C 0.09746 0.04797 0.72512
 H100 H 0.08917 0.07972 0.73914
 C101 C 0.13836 0.04881 0.70709
 H102 H 0.16123 0.08131 0.70749
 Zn103 Zn 0.01033 0.00640 0.74752
 N104 N 0.06792 0.00775 0.72474
 C105 C -0.04383 0.01299 0.69294
 N106 N -0.04853 0.01113 0.72248
 C107 C -0.09458 0.01397 0.73421
 C108 C -0.13821 0.01680 0.71596
 C109 C -0.08627 0.01601 0.67396
 C110 C 0.06200 -0.06861 0.78350
 C111 C 0.06864 -0.11048 0.80309
 C112 C -0.01859 -0.12631 0.79410
 C113 C -0.02341 -0.08437 0.77436
 N114 N 0.01628 -0.05567 0.77009
 H115 H -0.00716 0.01210 0.68388
 H116 H -0.09742 0.01390 0.75777
 H117 H -0.17455 0.01885 0.72565
 H118 H -0.08147 0.01618 0.65054
 H119 H 0.09304 -0.04531 0.77960
 H120 H 0.10532 -0.11964 0.81369
 H121 H -0.05133 -0.14699 0.79828
 H122 H -0.05934 -0.07389 0.76334
 C123 C 0.14924 0.00764 0.68875
 C124 C 0.00516 0.14299 0.81145
 C125 C 0.02767 -0.13918 0.80929
 C126 C -0.13428 0.01765 0.68538
 C127 C 0.02118 -0.30710 0.10471
 C128 C 0.05751 -0.29971 0.08402
 C129 C 0.05981 -0.33030 0.05958
 C130 C 0.02646 -0.36904 0.05555
 C131 C -0.00951 -0.37499 0.07682
 N132 N -0.01144 -0.34411 0.10032
 C133 C 0.01537 -0.27321 0.12998
 N134 N -0.03083 -0.26452 0.14113
 C135 C -0.03955 -0.23100 0.16292
 C136 C -0.00044 -0.20352 0.17466
 C137 C 0.04782 -0.21340 0.16417
 C138 C 0.05591 -0.24826 0.14205
 H139 H 0.08826 -0.32395 0.04394
 H140 H -0.03757 -0.40256 0.07412
 H141 H -0.07714 -0.22538 0.17075
 H142 H 0.07911 -0.19295 0.17236
 H143 H 0.08303 -0.26960 0.08604
 H144 H 0.09350 -0.25511 0.13442
 C145 C -0.00564 0.28674 0.10006
 C146 C -0.03313 0.33462 0.09836
 C147 C -0.02745 0.36820 0.07461
 C148 C 0.00589 0.35480 0.05255
 C149 C 0.03254 0.30652 0.05526
 N150 N 0.02630 0.27464 0.07848
 C151 C -0.01046 0.24758 0.12373
 N152 N 0.01822 0.20269 0.12256
 C153 C 0.01563 0.16348 0.14230
 C154 C -0.01781 0.16777 0.16510
 C155 C -0.04723 0.21395 0.16723
 C156 C -0.04380 0.25389 0.14664
 H157 H -0.05067 0.40384 0.07296
 H158 H 0.05910 0.29429 0.03915
 H159 H 0.03980 0.12901 0.14013
 H160 H -0.07374 0.21873 0.18440
 H161 H -0.05941 0.34626 0.11463
 H162 H -0.06757 0.28851 0.14874
 C163 C 0.29893 0.01371 0.60185
 C164 C 0.33868 -0.02354 0.59850
 C165 C 0.36828 -0.02055 0.57416
 C166 C 0.35918 0.01989 0.55350
 C167 C 0.32021 0.05709 0.55802
 N168 N 0.29146 0.05308 0.58170
 C169 C 0.26372 0.01103 0.62599
 N170 N 0.23443 0.05384 0.63193
 C171 C 0.19898 0.05404 0.65241
 C172 C 0.19057 0.00886 0.66807
 C173 C 0.22062 -0.03564 0.66255
 C174 C 0.25705 -0.03481 0.64158
 H175 H 0.39777 -0.05024 0.57114
 H176 H 0.31207 0.08874 0.54244
 H177 H 0.17625 0.08910 0.65566
 H178 H 0.21565 -0.07126 0.67426
 H179 H 0.34700 -0.05483 0.61424
 H180 H 0.27827 -0.07019 0.63717
 C181 C -0.30023 0.01623 0.60067
 C182 C -0.33242 -0.02392 0.59847
 C183 C -0.36627 -0.02495 0.57433
 C184 C -0.36826 0.01388 0.55255
 C185 C -0.33603 0.05345 0.55563
 N186 N -0.30317 0.05349 0.57917
 C187 C -0.26042 0.01767 0.62423
 N188 N -0.22147 0.04725 0.61957
 C189 C -0.18189 0.04904 0.63909
 C190 C -0.17956 0.01946 0.66524
 C191 C -0.22008 -0.00999 0.67109
 C192 C -0.26059 -0.01094 0.65072
 H193 H -0.39007 -0.05657 0.57223
 H194 H -0.33637 0.08378 0.53905
 H195 H -0.15205 0.07323 0.63399
 H196 H -0.21981 -0.03337 0.69100
 H197 H -0.33048 -0.05527 0.61443
 H198 H -0.29126 -0.03395 0.65581
 C199 C 0.03819 -0.29352 0.90209
 C200 C 0.07985 -0.30338 0.92178
 C201 C 0.07689 -0.33768 0.94537
 C202 C 0.03290 -0.36264 0.94921
 C203 C -0.00740 -0.35303 0.92865
 N204 N -0.00382 -0.31914 0.90588
 C205 C 0.03822 -0.25470 0.87798
 N206 N 0.00879 -0.25961 0.85325
 C207 C 0.00560 -0.22410 0.83083
 C208 C 0.03253 -0.18000 0.83274
 C209 C 0.06282 -0.17424 0.85819
 C210 C 0.06584 -0.21134 0.88071
 H211 H 0.10866 -0.34433 0.96089
 H212 H -0.04204 -0.37148 0.93114
 H213 H -0.01796 -0.23044 0.81159
 H214 H 0.08306 -0.14025 0.86117
 H215 H 0.11433 -0.28477 0.91913
 H216 H 0.08819 -0.20501 0.90044
 C217 C 0.00686 0.29985 0.89756
 C218 C -0.03343 0.33606 0.90193
 C219 C -0.03165 0.36723 0.92629
 C220 C 0.01005 0.36252 0.94611
 C221 C 0.04963 0.32656 0.94083
 N222 N 0.04696 0.29646 0.91715
 C223 C 0.00611 0.26239 0.87377
 N224 N 0.03904 0.22030 0.87642
 C225 C 0.04002 0.18264 0.85658
 C226 C 0.00611 0.18571 0.83216
 C227 C -0.02729 0.22943 0.82839
 C228 C -0.02741 0.26787 0.84908
 H229 H -0.06325 0.39405 0.93014
 H230 H 0.08217 0.32170 0.95589
 H231 H 0.06726 0.15024 0.86000
 H232 H -0.05405 0.23336 0.80983
 H233 H -0.06677 0.33930 0.88756
 H234 H -0.05347 0.30113 0.84556
 C235 C -0.31433 -0.00278 0.39807
 C236 C -0.35726 0.03152 0.39760
 C237 C -0.38770 0.03308 0.42177
 C238 C -0.37600 0.00028 0.44640
 C239 C -0.33240 -0.03309 0.44587
 N240 N -0.30340 -0.03372 0.42220
 C241 C -0.27853 -0.00488 0.37415
 N242 N -0.23137 -0.02659 0.38038
 C243 C -0.19567 -0.03016 0.36014
 C244 C -0.20642 -0.01122 0.33135
 C245 C -0.25497 0.01100 0.32424
 C246 C -0.29116 0.01412 0.34550
 H247 H -0.41910 0.06160 0.42169
 H248 H -0.32158 -0.05926 0.46416
 H249 H -0.15862 -0.04687 0.36682
 H250 H -0.26515 0.02540 0.30219
 H251 H -0.36643 0.05828 0.37942
 H252 H -0.32850 0.03051 0.33929
 C253 C 0.27888 0.00488 0.39962
 C254 C 0.31361 -0.03693 0.40676
 C255 C 0.34859 -0.03365 0.43016
 C256 C 0.34940 0.01125 0.44613
 C257 C 0.31451 0.05220 0.43818
 N258 N 0.28043 0.04794 0.41560
 C259 C 0.23816 0.00246 0.37677
 N260 N 0.19542 0.03335 0.37901
 C261 C 0.15547 0.03247 0.35964
 C262 C 0.15706 -0.00097 0.33615
 C263 C 0.20122 -0.03226 0.33291
 C264 C 0.24180 -0.03071 0.35314
 H265 H 0.37417 -0.06647 0.43631
 H266 H 0.31368 0.08712 0.45037
 H267 H 0.12252 0.05794 0.36263
 H268 H 0.20396 -0.05863 0.31508
 H269 H 0.31263 -0.07249 0.39533
 H270 H 0.27551 -0.05501 0.35012
   
