data_POSCAR
  _audit_creation_date              2014-09-24
  _audit_creation_method            'ToBaCCo'
  _symmetry_space_group_name_H-M    'P1'
  _symmetry_Int_Tables_number       1
  _symmetry_cell_setting            triclinic
  loop_
  _symmetry_equiv_pos_as_xyz
 x,y,z
_cell_length_a 30.2407
_cell_length_b 28.8501
_cell_length_c 25.8426
_cell_angle_alpha 89.398100
_cell_angle_beta 90.381300
_cell_angle_gamma 90.009000
loop_
  _atom_site_label
  _atom_site_type_symbol
  _atom_site_fract_x
  _atom_site_fract_y
  _atom_site_fract_z
Si1 Si 1.24345 0.25369 0.25042
 Si2 Si 0.74900 -0.25102 0.25396
 Si3 Si 0.74888 0.24692 -0.24733
 Si4 Si 1.25107 -0.24733 -0.25388
 Si5 Si 0.24978 0.24732 0.75057
 Si6 Si 0.75016 0.75256 0.74584
 Si7 Si 0.75844 0.24853 0.24313
 Si8 Si 0.25224 0.74638 0.25611
 O9 O 1.06126 0.07501 0.09739
 O10 O 1.11238 0.03523 0.04975
 C11 C 1.10152 0.06512 0.08469
 O12 O 0.94081 -0.09505 0.08563
 O13 O 0.89076 -0.04853 0.04248
 C14 C 0.90079 -0.08273 0.07350
 O15 O 1.06312 -0.08865 0.09451
 O16 O 1.11312 -0.04478 0.04872
 C17 C 1.10315 -0.07661 0.08273
 O18 O 0.93906 0.08097 0.08670
 O19 O 0.88999 0.03298 0.04535
 C20 C 0.89932 0.06758 0.07511
 Zr21 Zr 1.00052 0.05093 0.06872
 O22 O 0.99737 0.03989 0.14957
 O23 O 1.00203 0.12329 0.08079
 Zr24 Zr 1.00184 -0.06422 0.06653
 O25 O 0.99945 -0.05739 0.14779
 O26 O 1.00352 -0.13725 0.07445
 O27 O 1.04140 -0.00638 0.07839
 O28 O 0.96159 -0.00729 0.07643
 O29 O 0.94037 0.08317 -0.08458
 O30 O 0.89054 0.03685 -0.04184
 C31 C 0.90043 0.07113 -0.07267
 O32 O 1.06397 -0.08248 -0.09225
 O33 O 1.11370 -0.04235 -0.04228
 C34 C 1.10386 -0.07167 -0.07847
 O35 O 0.94194 -0.08970 -0.08793
 O36 O 0.89135 -0.04641 -0.04357
 C37 C 0.90180 -0.07891 -0.07564
 O38 O 1.06241 0.08025 -0.08821
 O39 O 1.11266 0.03757 -0.04063
 C40 C 1.10243 0.06939 -0.07468
 Zr41 Zr 1.00156 0.05445 -0.06195
 O42 O 1.00008 0.04958 -0.14346
 O43 O 1.00445 0.12772 -0.06551
 Zr44 Zr 1.00263 -0.06119 -0.06384
 O45 O 0.99825 -0.05711 -0.14559
 O46 O 1.00792 -0.13427 -0.06709
 Zr47 Zr 1.06863 -0.00414 0.00333
 Zr48 Zr 0.93500 -0.00561 0.00099
 O49 O 0.96292 -0.00349 -0.07324
 O50 O 1.04224 -0.00262 -0.07240
 O51 O 0.96192 0.06175 0.00280
 O52 O 1.04092 -0.07104 0.00172
 O53 O 1.03933 0.06201 0.00424
 O54 O 0.96315 -0.07248 0.00046
 H55 H 0.94079 -0.00817 0.10592
 H56 H 1.06073 -0.09836 0.00118
 H57 H 0.94273 -0.00294 -0.10361
 H58 H 1.05814 0.09011 0.00498
 H59 H 1.01343 -0.14972 0.04103
 H60 H 0.98695 -0.14735 -0.04158
 H61 H 1.02223 -0.03638 -0.15768
 H62 H 0.99916 0.08188 -0.15683
 H63 H 0.98587 0.13947 -0.03715
 H64 H 1.00695 0.13803 0.04665
 H65 H 0.99481 0.07105 0.16499
 H66 H 0.99785 -0.08936 0.16200
 O67 O 0.91239 0.44051 0.41460
 O68 O 0.95269 0.38546 0.45966
 C69 C 0.92098 0.39805 0.42810
 O70 O 1.08053 0.56187 0.41312
 O71 O 1.04157 0.61607 0.45847
 C72 C 1.07239 0.60414 0.42611
 O73 O 1.07015 0.43669 0.40487
 O74 O 1.03210 0.38338 0.45384
 C75 C 1.06069 0.39466 0.41829
 O76 O 0.91312 0.56860 0.42103
 O77 O 0.96064 0.61929 0.46122
 C78 C 0.92666 0.61003 0.43204
 Zr79 Zr 0.94035 0.50324 0.43959
 O80 O 0.94183 0.50871 0.35782
 O81 O 0.87045 0.50295 0.43796
 Zr82 Zr 1.04961 0.49980 0.43434
 O83 O 1.03729 0.50398 0.35384
 O84 O 1.11837 0.49526 0.42097
 O85 O 0.99338 0.45906 0.42652
 O86 O 0.99600 0.54330 0.42759
 O87 O 0.92016 0.56516 0.59288
 O88 O 0.96190 0.61767 0.54690
 C89 C 0.93050 0.60708 0.57924
 O90 O 1.07827 0.43325 0.59108
 O91 O 1.03559 0.38177 0.54541
 C92 C 1.06713 0.39162 0.57823
 O93 O 1.08460 0.56028 0.58722
 O94 O 1.04315 0.61518 0.54397
 C95 C 1.07527 0.60278 0.57487
 O96 O 0.92195 0.43720 0.59868
 O97 O 0.95829 0.38388 0.54891
 C98 C 0.93002 0.39507 0.58448
 Zr99 Zr 0.94551 0.50100 0.56976
 O100 O 0.95437 0.50188 0.65101
 O101 O 0.87547 0.50111 0.57170
 Zr102 Zr 1.05506 0.49776 0.56501
 O103 O 1.05379 0.50098 0.64685
 O104 O 1.12483 0.49176 0.56605
 Zr105 Zr 0.99601 0.42975 0.50171
 Zr106 Zr 1.00012 0.57070 0.50251
 O107 O 1.00175 0.54078 0.57700
 O108 O 0.99949 0.45685 0.57710
 O109 O 0.93553 0.54352 0.50536
 O110 O 1.05993 0.45838 0.49897
 O111 O 0.93366 0.46207 0.50499
 O112 O 1.06288 0.53928 0.49954
 H113 H 0.99573 0.56547 0.39801
 H114 H 1.08613 0.43784 0.49757
 H115 H 1.00321 0.56177 0.60708
 H116 H 0.90615 0.44352 0.50690
 H117 H 1.13278 0.49186 0.45520
 H118 H 1.13638 0.51268 0.53874
 H119 H 1.03749 0.47347 0.65973
 H120 H 0.92456 0.50410 0.66637
 H121 H 0.86650 0.50031 0.60851
 H122 H 0.86075 0.51171 0.47301
 H123 H 0.95311 0.47896 0.34446
 H124 H 1.06668 0.50507 0.33717
 O125 O 0.56297 0.08137 0.58922
 O126 O 0.61176 0.04271 0.53719
 C127 C 0.60265 0.07149 0.57398
 O128 O 0.43968 -0.08400 0.58152
 O129 O 0.38940 -0.03703 0.53940
 C130 C 0.39962 -0.07086 0.57072
 O131 O 0.56284 -0.07765 0.58731
 O132 O 0.61146 -0.03655 0.53651
 C133 C 0.60245 -0.06682 0.57247
 O134 O 0.43977 0.08662 0.58628
 O135 O 0.38962 0.04533 0.53803
 C136 C 0.39974 0.07635 0.57221
 Zr137 Zr 0.50069 0.06076 0.55965
 O138 O 0.49845 0.06063 0.64148
 O139 O 0.50268 0.13395 0.55572
 Zr140 Zr 0.50082 -0.05536 0.55860
 O141 O 0.49923 -0.05176 0.64020
 O142 O 0.50489 -0.12855 0.56065
 O143 O 0.54072 0.00256 0.56855
 O144 O 0.46189 0.00243 0.56905
 O145 O 0.43643 0.09149 0.40859
 O146 O 0.38775 0.04407 0.45190
 C147 C 0.39681 0.07814 0.42069
 O148 O 0.55959 -0.07427 0.39690
 O149 O 0.60991 -0.03504 0.44688
 C150 C 0.59970 -0.06403 0.41058
 O151 O 0.43708 -0.08150 0.40610
 O152 O 0.38794 -0.03701 0.45138
 C153 C 0.39731 -0.06974 0.41903
 O154 O 0.55960 0.08589 0.39894
 O155 O 0.60983 0.04446 0.44779
 C156 C 0.59974 0.07484 0.41223
 Zr157 Zr 0.49855 0.06296 0.42917
 O158 O 0.49432 0.05927 0.34767
 O159 O 0.50225 0.13617 0.42662
 Zr160 Zr 0.49869 -0.05350 0.42834
 O161 O 0.49287 -0.05298 0.34668
 O162 O 0.50188 -0.12668 0.43175
 Zr163 Zr 0.56614 0.00394 0.49281
 Zr164 Zr 0.43318 0.00363 0.49467
 O165 O 0.45959 0.00482 0.41961
 O166 O 0.53815 0.00504 0.41796
 O167 O 0.46021 0.07094 0.49511
 O168 O 0.53843 -0.06294 0.49278
 O169 O 0.53819 0.07066 0.49397
 O170 O 0.46027 -0.06360 0.49392
 H171 H 0.44239 0.00192 0.59973
 H172 H 0.55811 -0.09039 0.49229
 H173 H 0.43900 0.00512 0.38962
 H174 H 0.55784 0.09815 0.49398
 H175 H 0.48889 -0.13983 0.52973
 H176 H 0.50130 -0.13740 0.39543
 H177 H 0.51208 -0.02773 0.33363
 H178 H 0.49354 0.09176 0.33487
 H179 H 0.48770 0.14745 0.45827
 H180 H 0.50391 0.14472 0.59199
 H181 H 0.51737 0.03474 0.65380
 H182 H 0.49922 -0.08425 0.65301
 O183 O 0.56354 0.57887 0.09579
 O184 O 0.61247 0.54003 0.04419
 C185 C 0.60324 0.56885 0.08091
 O186 O 0.44007 0.41318 0.08802
 O187 O 0.38970 0.45928 0.04483
 C188 C 0.39989 0.42533 0.07610
 O189 O 0.56348 0.41933 0.09458
 O190 O 0.61220 0.46016 0.04359
 C191 C 0.60319 0.42999 0.07969
 O192 O 0.44080 0.58552 0.09107
 O193 O 0.38984 0.54268 0.04582
 C194 C 0.40046 0.57495 0.07857
 Zr195 Zr 0.50161 0.55779 0.06648
 O196 O 0.49794 0.55444 0.14823
 O197 O 0.50743 0.63089 0.06881
 Zr198 Zr 0.50136 0.44201 0.06559
 O199 O 0.49960 0.44617 0.14714
 O200 O 0.50518 0.36881 0.06820
 O201 O 0.54165 0.49961 0.07534
 O202 O 0.46235 0.49981 0.07599
 O203 O 0.43838 0.58931 -0.08462
 O204 O 0.38859 0.54393 -0.04048
 C205 C 0.39845 0.57787 -0.07189
 O206 O 0.55976 0.42134 -0.09520
 O207 O 0.61072 0.46120 -0.04674
 C208 C 0.60006 0.43126 -0.08204
 O209 O 0.43793 0.41760 -0.08906
 O210 O 0.38843 0.45953 -0.04144
 C211 C 0.39807 0.42794 -0.07531
 O212 O 0.56025 0.58301 -0.09400
 O213 O 0.61097 0.54142 -0.04605
 C214 C 0.60047 0.57214 -0.08126
 Zr215 Zr 0.49961 0.55971 -0.06409
 O216 O 0.49537 0.55413 -0.14545
 O217 O 0.50434 0.63275 -0.06953
 Zr218 Zr 0.49918 0.44397 -0.06474
 O219 O 0.49425 0.44483 -0.14651
 O220 O 0.50077 0.37074 -0.06095
 Zr221 Zr 0.56723 0.50078 -0.00040
 Zr222 Zr 0.43357 0.50125 0.00162
 O223 O 0.45998 0.50225 -0.07341
 O224 O 0.53921 0.50191 -0.07523
 O225 O 0.46136 0.56833 0.00183
 O226 O 0.53889 0.43420 -0.00024
 O227 O 0.53909 0.56749 0.00070
 O228 O 0.46078 0.43401 0.00080
 H229 H 0.44248 0.49934 0.10634
 H230 H 0.55830 0.40654 -0.00051
 H231 H 0.43924 0.50296 -0.10326
 H232 H 0.55859 0.59509 0.00065
 H233 H 0.48979 0.35747 0.03689
 H234 H 0.50041 0.35984 -0.09720
 H235 H 0.51553 0.46821 -0.15947
 H236 H 0.49464 0.58631 -0.15920
 H237 H 0.48865 0.64542 -0.03941
 H238 H 0.48359 0.64416 0.04688
 H239 H 0.52100 0.53249 0.16045
 H240 H 0.49931 0.41375 0.16018
 C241 C 1.19424 0.14881 0.16279
 C242 C 1.14941 0.16068 0.15862
 N243 N 1.13427 0.20013 0.18001
 C244 C 1.16188 0.22832 0.20638
 C245 C 1.20655 0.21615 0.21233
 N246 N 1.22206 0.17681 0.18986
 N247 N 1.20887 0.10934 0.13999
 C248 C 1.18043 0.08121 0.11358
 C249 C 1.13536 0.09295 0.11067
 N250 N 1.12142 0.13256 0.13320
 H251 H 1.14874 0.25992 0.22225
 H252 H 1.19265 0.04991 0.09591
 C253 C 1.15999 0.69898 0.64745
 C254 C 1.16655 0.65110 0.65239
 N255 N 1.19998 0.63445 0.68245
 C256 C 1.22673 0.66361 0.70910
 C257 C 1.21931 0.71151 0.70596
 N258 N 1.18662 0.72819 0.67426
 N259 N 1.12610 0.71527 0.61747
 C260 C 1.09817 0.68563 0.59260
 C261 C 1.10435 0.63758 0.59845
 N262 N 1.13873 0.62185 0.62798
 H263 H 1.25312 0.64928 0.73260
 H264 H 1.07131 0.69938 0.56921
 C265 C 0.69641 0.15780 0.64621
 C266 C 0.66371 0.13480 0.67509
 N267 N 0.65965 0.14344 0.72626
 C268 C 0.68620 0.17482 0.74981
 C269 C 0.71722 0.19993 0.72063
 N270 N 0.72214 0.19046 0.66941
 N271 N 0.70065 0.14820 0.59507
 C272 C 0.67301 0.11754 0.57138
 C273 C 0.63874 0.09660 0.59973
 N274 N 0.63525 0.10566 0.65108
 H275 H 0.68192 0.18142 0.79063
 H276 H 0.67611 0.11168 0.53030
 C277 C 0.69778 0.65409 0.15352
 C278 C 0.66029 0.63810 0.18003
 N279 N 0.65191 0.65339 0.22837
 C280 C 0.67895 0.68466 0.25131
 C281 C 0.71538 0.70241 0.22423
 N282 N 0.72435 0.68641 0.17595
 N283 N 0.70595 0.63819 0.10513
 C284 C 0.67776 0.60789 0.08170
 C285 C 0.63907 0.59382 0.10736
 N286 N 0.63170 0.60914 0.15614
 H287 H 0.67119 0.69672 0.28971
 H288 H 0.68426 0.59686 0.04257
 C289 C 0.80417 -0.15703 0.15642
 C290 C 0.84430 -0.17789 0.14289
 N291 N 0.85361 -0.22153 0.15981
 C292 C 0.82490 -0.24499 0.19070
 C293 C 0.78587 -0.22327 0.20646
 N294 N 0.77611 -0.17994 0.18845
 N295 N 0.79472 -0.11357 0.13886
 C296 C 0.82411 -0.08957 0.10924
 C297 C 0.86526 -0.10953 0.09794
 N298 N 0.87407 -0.15346 0.11475
 H299 H 0.83313 -0.27962 0.20409
 H300 H 0.81627 -0.05458 0.09675
 C301 C 0.84642 0.29713 0.65825
 C302 C 0.83532 0.34417 0.65397
 N303 N 0.79724 0.35985 0.67476
 C304 C 0.76996 0.33082 0.70098
 C305 C 0.78153 0.28400 0.70750
 N306 N 0.81942 0.26794 0.68537
 N307 N 0.88479 0.28201 0.63676
 C308 C 0.91260 0.31202 0.61170
 C309 C 0.90192 0.35944 0.60903
 N310 N 0.86325 0.37386 0.63005
 H311 H 0.74017 0.34478 0.71762
 H312 H 0.94297 0.29923 0.59512
 C313 C 0.30523 -0.14426 0.65800
 C314 C 0.34073 -0.16712 0.63446
 N315 N 0.34657 -0.21321 0.64234
 C316 C 0.31899 -0.23748 0.67364
 C317 C 0.28501 -0.21438 0.69953
 N318 N 0.27835 -0.16827 0.69069
 N319 N 0.29915 -0.09819 0.64883
 C320 C 0.32751 -0.07386 0.61806
 C321 C 0.36426 -0.09641 0.59683
 N322 N 0.36968 -0.14261 0.60538
 H323 H 0.32446 -0.27425 0.67961
 H324 H 0.32267 -0.03698 0.61230
 C325 C 0.30062 0.34683 0.15119
 C326 C 0.34471 0.33181 0.15006
 N327 N 0.35656 0.29223 0.17516
 C328 C 0.32652 0.26748 0.20272
 C329 C 0.28281 0.28348 0.20625
 N330 N 0.27057 0.32238 0.17937
 N331 N 0.28910 0.38659 0.12577
 C332 C 0.31987 0.41229 0.09991
 C333 C 0.36434 0.39789 0.10019
 N334 N 0.37534 0.35768 0.12502
 H335 H 0.33707 0.23609 0.22241
 H336 H 0.30992 0.44406 0.08046
 C337 C 0.80301 0.15195 -0.14877
 C338 C 0.84631 0.16825 -0.14210
 N339 N 0.85830 0.20966 -0.16305
 C340 C 0.82913 0.23519 -0.19158
 C341 C 0.78632 0.21815 -0.20021
 N342 N 0.77408 0.17705 -0.17811
 N343 N 0.79132 0.11030 -0.12782
 C344 C 0.82129 0.08386 -0.10117
 C345 C 0.86514 0.09944 -0.09626
 N346 N 0.87623 0.14157 -0.11655
 H347 H 0.83975 0.26776 -0.20846
 H348 H 0.81139 0.05051 -0.08556
 C349 C 0.85033 0.70533 0.34670
 C350 C 0.83053 0.67179 0.37799
 N351 N 0.78419 0.66620 0.37555
 C352 C 0.75803 0.69110 0.34048
 C353 C 0.78049 0.72251 0.30809
 N354 N 0.82502 0.72945 0.31224
 N355 N 0.89495 0.71118 0.34895
 C356 C 0.92057 0.68364 0.38016
 C357 C 0.90067 0.64782 0.40897
 N358 N 0.85591 0.64328 0.40761
 H359 H 0.76084 0.66686 0.37202
 H360 H 0.95617 0.68760 0.37980
 C361 C 0.29873 0.15142 0.33836
 C362 C 0.33380 0.17474 0.36283
 N363 N 0.33801 0.22124 0.35693
 C364 C 0.30940 0.24542 0.32640
 C365 C 0.27632 0.22178 0.29903
 N366 N 0.27111 0.17533 0.30618
 N367 N 0.29413 0.10498 0.34557
 C368 C 0.32374 0.08068 0.37503
 C369 C 0.36034 0.10364 0.39653
 N370 N 0.36416 0.15025 0.39032
 H371 H 0.31379 0.28246 0.32155
 H372 H 0.32000 0.04361 0.37945
 C373 C 0.30247 0.65966 -0.14968
 C374 C 0.34690 0.67321 -0.14658
 N375 N 0.36071 0.71193 -0.17179
 C376 C 0.33230 0.73724 -0.20145
 C377 C 0.28827 0.72270 -0.20694
 N378 N 0.27402 0.68472 -0.17988
 N379 N 0.28920 0.62042 -0.12446
 C380 C 0.31863 0.59375 -0.09709
 C381 C 0.36348 0.60661 -0.09568
 N382 N 0.37606 0.64641 -0.12012
 H383 H 0.34439 0.76785 -0.22128
 H384 H 0.30744 0.56229 -0.07812
 C385 C 1.19867 -0.14822 -0.16115
 C386 C 1.15360 -0.15945 -0.16167
 N387 N 1.13888 -0.19616 -0.18894
 C388 C 1.16721 -0.22233 -0.21644
 C389 C 1.21230 -0.21096 -0.21723
 N390 N 1.22727 -0.17427 -0.18912
 N391 N 1.21282 -0.11164 -0.13246
 C392 C 1.18372 -0.08583 -0.10451
 C393 C 1.13848 -0.09708 -0.10586
 N394 N 1.12502 -0.13373 -0.13447
 H395 H 1.15433 -0.25203 -0.23664
 H396 H 1.19562 -0.05684 -0.08213
 C397 C 1.14709 0.30185 0.34425
 C398 C 1.15029 0.34988 0.33793
 N399 N 1.18275 0.36856 0.30840
 C400 C 1.21204 0.34114 0.28369
 C401 C 1.20830 0.29292 0.28835
 N402 N 1.17620 0.27428 0.31919
 N403 N 1.11451 0.28380 0.37467
 C404 C 1.08500 0.31193 0.39908
 C405 C 1.08821 0.36016 0.39214
 N406 N 1.12101 0.37738 0.36171
 H407 H 1.23752 0.35706 0.26050
 H408 H 1.05976 0.29693 0.42356
 C409 C 0.69569 -0.14802 0.33999
 C410 C 0.65295 -0.14348 0.31912
 N411 N 0.64076 -0.16918 0.27779
 C412 C 0.66917 -0.20005 0.25684
 C413 C 0.71130 -0.20618 0.27888
 N414 N 0.72392 -0.17953 0.31962
 N415 N 0.70762 -0.12196 0.38134
 C416 C 0.67835 -0.09232 0.40344
 C417 C 0.63490 -0.08935 0.38389
 N418 N 0.62366 -0.11479 0.34177
 H419 H 0.65861 -0.22006 0.22382
 H420 H 0.68839 -0.07270 0.43699
 C421 C 0.69474 0.34528 -0.15377
 C422 C 0.65010 0.34504 -0.16868
 N423 N 0.63592 0.31549 -0.20565
 C424 C 0.66434 0.28573 -0.22844
 C425 C 0.70900 0.28504 -0.21326
 N426 N 0.72336 0.31531 -0.17649
 N427 N 0.70851 0.37544 -0.11681
 C428 C 0.67950 0.40497 -0.09380
 C429 C 0.63456 0.40413 -0.10830
 N430 N 0.62138 0.37410 -0.14563
 H431 H 0.65211 0.26356 -0.25878
 H432 H 0.69119 0.42805 -0.06394
 C433 C 1.19789 0.15027 -0.15250
 C434 C 1.15480 0.16649 -0.14477
 N435 N 1.14228 0.20816 -0.16478
 C436 C 1.17075 0.23411 -0.19333
 C437 C 1.21331 0.21722 -0.20301
 N438 N 1.22611 0.17579 -0.18194
 N439 N 1.21012 0.10845 -0.13216
 C440 C 1.18085 0.08182 -0.10505
 C441 C 1.13718 0.09739 -0.09912
 N442 N 1.12559 0.13962 -0.11887
 H443 H 1.15977 0.26696 -0.20940
 H444 H 1.19112 0.04838 -0.08985
 C445 C 1.15910 0.69825 0.35117
 C446 C 1.16616 0.65037 0.35077
 N447 N 1.20079 0.63267 0.32436
 C448 C 1.22840 0.66070 0.29706
 C449 C 1.22066 0.70867 0.29550
 N450 N 1.18650 0.72639 0.32351
 N451 N 1.12413 0.71551 0.37786
 C452 C 1.09563 0.68681 0.40369
 C453 C 1.10220 0.63862 0.40214
 N454 N 1.13769 0.62205 0.37589
 H455 H 1.25572 0.64531 0.27672
 H456 H 1.06789 0.70132 0.42422
 C457 C 0.69897 0.15505 0.33961
 C458 C 0.65655 0.15086 0.31771
 N459 N 0.64639 0.17428 0.27348
 C460 C 0.67658 0.20232 0.25039
 C461 C 0.71843 0.20811 0.27320
 N462 N 0.72895 0.18398 0.31717
 N463 N 0.70915 0.13056 0.38329
 C464 C 0.67858 0.10270 0.40651
 C465 C 0.63553 0.10003 0.38573
 N466 N 0.62587 0.12407 0.34152
 H467 H 0.66767 0.22054 0.21502
 H468 H 0.68745 0.08395 0.44153
 C469 C 0.69578 0.65566 -0.15700
 C470 C 0.65148 0.65465 -0.17327
 N471 N 0.63782 0.68226 -0.21298
 C472 C 0.66642 0.71140 -0.23709
 C473 C 0.71059 0.71357 -0.22032
 N474 N 0.72451 0.68514 -0.18091
 N475 N 0.70904 0.62743 -0.11729
 C476 C 0.67981 0.59869 -0.09281
 C477 C 0.63518 0.59850 -0.10853
 N478 N 0.62250 0.62651 -0.14864
 H479 H 0.65467 0.73237 -0.26927
 H480 H 0.69105 0.57715 -0.06080
 C481 C 0.80470 -0.15720 -0.15328
 C482 C 0.84845 -0.17284 -0.14869
 N483 N 0.86079 -0.21272 -0.17187
 C484 C 0.83150 -0.23726 -0.20069
 C485 C 0.78821 -0.22071 -0.20721
 N486 N 0.77563 -0.18128 -0.18283
 N487 N 0.79263 -0.11710 -0.13009
 C488 C 0.82263 -0.09154 -0.10310
 C489 C 0.86684 -0.10640 -0.10016
 N490 N 0.87837 -0.14700 -0.12273
 H491 H 0.84233 -0.26865 -0.21929
 H492 H 0.81239 -0.05940 -0.08557
 C493 C 0.82266 0.31774 0.35745
 C494 C 0.86748 0.30691 0.34948
 N495 N 0.87817 0.27504 0.31343
 C496 C 0.84633 0.25471 0.28392
 C497 C 0.80179 0.26775 0.28960
 N498 N 0.79100 0.29834 0.32708
 N499 N 0.81172 0.34985 0.39298
 C500 C 0.84353 0.37280 0.41967
 C501 C 0.88845 0.36409 0.40979
 N502 N 0.89953 0.33077 0.37527
 H503 H 0.85608 0.22959 0.25548
 H504 H 0.83392 0.39956 0.44645
 C505 C 0.30331 -0.14732 0.33526
 C506 C 0.33702 -0.16917 0.36410
 N507 N 0.34169 -0.21582 0.36215
 C508 C 0.31482 -0.24170 0.33170
 C509 C 0.28280 -0.21987 0.30020
 N510 N 0.27722 -0.17304 0.30330
 N511 N 0.29840 -0.10056 0.33844
 C512 C 0.32628 -0.07469 0.36821
 C513 C 0.36145 -0.09638 0.39474
 N514 N 0.36565 -0.14324 0.39213
 H515 H 0.31965 -0.27888 0.33061
 H516 H 0.32248 -0.03748 0.36894
 C517 C 0.30300 0.34313 -0.15020
 C518 C 0.34696 0.34584 -0.16673
 N519 N 0.36064 0.31987 -0.20694
 C520 C 0.33243 0.29072 -0.23139
 C521 C 0.28855 0.28678 -0.21457
 N522 N 0.27455 0.31359 -0.17452
 N523 N 0.28984 0.36990 -0.10994
 C524 C 0.31883 0.39883 -0.08531
 C525 C 0.36314 0.40077 -0.10149
 N526 N 0.37561 0.37413 -0.14203
 H527 H 0.34426 0.27119 -0.26398
 H528 H 0.30768 0.41922 -0.05299
 C529 C 1.19941 -0.15427 0.16578
 C530 C 1.15618 -0.17055 0.15832
 N531 N 1.14384 -0.21186 0.17883
 C532 C 1.17255 -0.23763 0.20747
 C533 C 1.21550 -0.22096 0.21706
 N534 N 1.22825 -0.17978 0.19521
 N535 N 1.21142 -0.11299 0.14395
 C536 C 1.18191 -0.08719 0.11555
 C537 C 1.13823 -0.10315 0.10948
 N538 N 1.12688 -0.14463 0.13098
 H539 H 1.16153 -0.27080 0.22241
 H540 H 1.19207 -0.05426 0.09908
 C541 C 1.15064 0.29431 0.65449
 C542 C 1.16330 0.34038 0.64563
 N543 N 1.20233 0.35616 0.66441
 C544 C 1.22925 0.32820 0.69291
 C545 C 1.21639 0.28244 0.70374
 N546 N 1.17741 0.26618 0.68373
 N547 N 1.11095 0.27936 0.63551
 C548 C 1.08323 0.30874 0.60882
 C549 C 1.09552 0.35538 0.60176
 N550 N 1.13556 0.36939 0.62009
 H551 H 1.25988 0.34217 0.70788
 H552 H 1.05162 0.29628 0.59486
 C553 C 0.69709 -0.15458 0.64235
 C554 C 0.66393 -0.13344 0.67175
 N555 N 0.65978 -0.14437 0.72258
 C556 C 0.68670 -0.17630 0.74528
 C557 C 0.71819 -0.19952 0.71548
 N558 N 0.72318 -0.18778 0.66464
 N559 N 0.70139 -0.14273 0.59157
 C560 C 0.67336 -0.11157 0.56868
 C561 C 0.63867 -0.09254 0.59750
 N562 N 0.63512 -0.10381 0.64850
 H563 H 0.68238 -0.18480 0.78583
 H564 H 0.67654 -0.10381 0.52783
 C565 C 0.70216 0.34507 0.14694
 C566 C 0.66760 0.36259 0.17705
 N567 N 0.66426 0.34941 0.22744
 C568 C 0.69325 0.31856 0.24880
 C569 C 0.72614 0.29878 0.21798
 N570 N 0.73014 0.31287 0.16773
 N571 N 0.70583 0.35895 0.09675
 C572 C 0.67597 0.38878 0.07500
 C573 C 0.63992 0.40426 0.10425
 N574 N 0.63687 0.39092 0.15483
 H575 H 0.68924 0.30778 0.28873
 H576 H 0.67905 0.39840 0.03458
 C577 C 0.80388 0.14606 0.15224
 C578 C 0.83888 0.16766 0.12596
 N579 N 0.84475 0.21413 0.12978
 C580 C 0.81815 0.23984 0.16037
 C581 C 0.78547 0.21773 0.18988
 N582 N 0.77839 0.17146 0.18433
 N583 N 0.79811 0.09951 0.14819
 C584 C 0.82662 0.07338 0.12024
 C585 C 0.86333 0.09465 0.09702
 N586 N 0.86816 0.14141 0.09990
 H587 H 0.82441 0.27658 0.16434
 H588 H 0.82217 0.03618 0.11872
 C589 C 0.84644 0.70448 0.65017
 C590 C 0.83467 0.65823 0.64435
 N591 N 0.79428 0.64238 0.66494
 C592 C 0.76689 0.67095 0.69352
 C593 C 0.78119 0.71692 0.69939
 N594 N 0.81954 0.73278 0.67761
 N595 N 0.88556 0.71971 0.63025
 C596 C 0.91349 0.69008 0.60547
 C597 C 0.90195 0.64302 0.60143
 N598 N 0.86239 0.62878 0.62061
 H599 H 0.77306 0.63814 0.67588
 H600 H 0.94463 0.70275 0.59052
 C601 C 0.30499 0.16107 0.64404
 C602 C 0.33916 0.13984 0.67275
 N603 N 0.34357 0.14871 0.72391
 C604 C 0.31588 0.17863 0.74764
 C605 C 0.28320 0.20194 0.71866
 N606 N 0.27807 0.19229 0.66742
 N607 N 0.30028 0.15105 0.59298
 C608 C 0.32870 0.12149 0.56922
 C609 C 0.36420 0.10220 0.59747
 N610 N 0.36829 0.11178 0.64869
 H611 H 0.32042 0.18547 0.78844
 H612 H 0.32492 0.11489 0.52826
 C613 C 0.30433 0.65430 0.15788
 C614 C 0.34901 0.66709 0.15702
 N615 N 0.36265 0.70496 0.18328
 C616 C 0.33389 0.73020 0.21161
 C617 C 0.28930 0.71658 0.21487
 N618 N 0.27538 0.67931 0.18678
 N619 N 0.29108 0.61630 0.13102
 C620 C 0.32062 0.59034 0.10388
 C621 C 0.36569 0.60256 0.10417
 N622 N 0.37835 0.64100 0.13066
 H623 H 0.34617 0.76037 0.23158
 H624 H 0.30922 0.56006 0.08332
   
