data_POSCAR
  _audit_creation_date              2014-09-24
  _audit_creation_method            'ToBaCCo'
  _symmetry_space_group_name_H-M    'P1'
  _symmetry_Int_Tables_number       1
  _symmetry_cell_setting            triclinic
  loop_
  _symmetry_equiv_pos_as_xyz
 x,y,z
_cell_length_a 48.4139
_cell_length_b 49.8707
_cell_length_c 50.3140
_cell_angle_alpha 88.803400
_cell_angle_beta 89.917400
_cell_angle_gamma 95.178100
loop_
  _atom_site_label
  _atom_site_type_symbol
  _atom_site_fract_x
  _atom_site_fract_y
  _atom_site_fract_z
C1 C 0.25528 0.44028 0.99951
 C2 C 0.24671 0.46624 0.99606
 C3 C 0.26645 0.48830 0.99169
 C4 C 0.29500 0.48475 0.99016
 C5 C 0.30301 0.45837 0.99329
 C6 C 0.28347 0.43623 0.99777
 C7 C 0.21699 0.47011 0.99418
 C8 C 0.20059 0.47086 1.01715
 C9 C 0.17197 0.47433 1.01524
 C10 C 0.16067 0.47758 0.98959
 C11 C 0.17699 0.47689 0.96662
 C12 C 0.20512 0.47301 0.96905
 H13 H 0.23999 0.42320 1.00240
 H14 H 0.25911 0.50792 0.98807
 H15 H 0.21017 0.46769 1.03624
 H16 H 0.21789 0.47243 0.95139
 H17 H 0.32473 0.45478 0.99346
 H18 H 0.13914 0.48133 0.98715
 C19 C 0.72508 0.47589 0.00567
 C20 C 0.74034 0.50059 0.01046
 C21 C 0.72641 0.52375 0.01408
 C22 C 0.69736 0.52241 0.01233
 C23 C 0.68232 0.49742 0.00820
 C24 C 0.69600 0.47404 0.00505
 C25 C 0.77089 0.50202 0.01164
 C26 C 0.78617 0.49625 -0.01092
 C27 C 0.81528 0.49576 -0.00983
 C28 C 0.82847 0.50057 0.01489
 C29 C 0.81339 0.50694 0.03742
 C30 C 0.78462 0.50798 0.03557
 H31 H 0.73586 0.45796 0.00322
 H32 H 0.73825 0.54289 0.01731
 H33 H 0.77498 0.49127 -0.02904
 H34 H 0.77279 0.51245 0.05298
 H35 H 0.65987 0.49618 0.00727
 H36 H 0.85080 0.50112 0.01654
 C37 C 0.04145 0.23959 0.50901
 C38 C 0.01444 0.24710 0.51217
 C39 C -0.00767 0.22729 0.51634
 C40 C -0.00301 0.19991 0.51697
 C41 C 0.02408 0.19262 0.51358
 C42 C 0.04636 0.21232 0.50973
 C43 C 0.00912 0.27565 0.51044
 C44 C 0.01304 0.28992 0.48625
 C45 C 0.00752 0.31724 0.48376
 C46 C -0.00071 0.32998 0.50704
 C47 C -0.00407 0.31586 0.53145
 C48 C 0.00024 0.28852 0.53287
 H49 H 0.05855 0.25491 0.50582
 H50 H -0.02848 0.23324 0.51890
 H51 H 0.02097 0.27941 0.46971
 H52 H -0.00233 0.27749 0.55163
 H53 H 0.02788 0.17152 0.51386
 H54 H -0.00595 0.35058 0.50648
 C55 C 1.02380 0.79743 0.49656
 C56 C 0.99777 0.78349 0.50167
 C57 C 0.97560 0.79754 0.50986
 C58 C 0.97916 0.82547 0.51300
 C59 C 1.00545 0.83912 0.50860
 C60 C 1.02828 0.82543 0.50061
 C61 C 0.99405 0.75391 0.49992
 C62 C 0.98723 0.73826 0.52281
 C63 C 0.98456 0.70986 0.52215
 C64 C 0.98806 0.69766 0.49737
 C65 C 0.99415 0.71325 0.47407
 C66 C 0.99764 0.74142 0.47571
 H67 H 1.04081 0.78591 0.49123
 H68 H 0.95557 0.78665 0.51382
 H69 H 0.98578 0.74860 0.54140
 H70 H 1.00299 0.75372 0.45812
 H71 H 1.00756 0.86084 0.51001
 H72 H 0.98451 0.67602 0.49572
 C73 C 0.51126 -0.00150 0.21112
 C74 C 0.51189 -0.02658 0.22395
 C75 C 0.51518 -0.04947 0.20911
 C76 C 0.51749 -0.04760 0.18125
 C77 C 0.51653 -0.02226 0.16851
 C78 C 0.51371 0.00083 0.18342
 C79 C 0.50964 -0.02865 0.25304
 C80 C 0.48463 -0.02433 0.26565
 C81 C 0.48288 -0.02447 0.29351
 C82 C 0.50665 -0.02853 0.30852
 C83 C 0.53174 -0.03274 0.29601
 C84 C 0.53301 -0.03332 0.26823
 H85 H 0.50906 0.01626 0.22274
 H86 H 0.51533 -0.06880 0.21932
 H87 H 0.46675 -0.02038 0.25374
 H88 H 0.55249 -0.03605 0.25843
 H89 H 0.51883 -0.02028 0.14712
 H90 H 0.50572 -0.02854 0.33004
 C91 C 0.49242 0.01571 0.78621
 C92 C 0.49968 -0.00571 0.77095
 C93 C 0.50608 -0.02970 0.78352
 C94 C 0.50415 -0.03303 0.81140
 C95 C 0.49736 -0.01092 0.82645
 C96 C 0.49194 0.01348 0.81396
 C97 C 0.49997 -0.00324 0.74173
 C98 C 0.52399 -0.00744 0.72740
 C99 C 0.52447 -0.00458 0.69962
 C100 C 0.50052 0.00196 0.68616
 C101 C 0.47602 0.00509 0.70027
 C102 C 0.47603 0.00290 0.72811
 H103 H 0.48800 0.03445 0.77648
 H104 H 0.51054 -0.04633 0.77117
 H105 H 0.54246 -0.01238 0.73791
 H106 H 0.45725 0.00546 0.73917
 H107 H 0.49697 -0.01224 0.84797
 H108 H 0.50061 0.00335 0.66463
 C109 C 0.30888 0.05174 0.45574
 H110 H 0.30620 0.07032 0.46575
 C111 C 0.33045 0.05069 0.43760
 H112 H 0.34397 0.06877 0.43331
 C113 C 0.29502 0.00538 0.45017
 H114 H 0.28182 -0.01242 0.45599
 C115 C 0.31654 0.00339 0.43192
 H116 H 0.31959 -0.01601 0.42368
 N117 N 0.29190 0.02927 0.46187
 C118 C 0.23177 0.06962 0.50645
 H119 H 0.23445 0.06045 0.52585
 C120 C 0.21248 0.08852 0.50300
 H121 H 0.20033 0.09386 0.51986
 C122 C 0.24285 0.07215 0.46049
 H123 H 0.25409 0.06500 0.44388
 C124 C 0.22344 0.09085 0.45606
 H125 H 0.22018 0.09836 0.43607
 Zn126 Zn 0.26799 0.03263 0.49090
 N127 N 0.24641 0.06181 0.48535
 C128 C 0.29762 0.06281 0.53101
 N129 N 0.29149 0.03804 0.52056
 C130 C 0.30458 0.01643 0.52897
 C131 C 0.32433 0.01907 0.54906
 C132 C 0.31773 0.06648 0.55087
 C133 C 0.22710 -0.00757 0.47544
 C134 C 0.20495 -0.02723 0.47952
 C135 C 0.21509 -0.02699 0.52653
 C136 C 0.23718 -0.00758 0.52153
 N137 N 0.24260 0.00190 0.49634
 H138 H 0.28770 0.07990 0.52332
 H139 H 0.29995 -0.00282 0.51968
 H140 H 0.33481 0.00172 0.55529
 H141 H 0.32285 0.08633 0.55878
 H142 H 0.23124 0.00097 0.45574
 H143 H 0.19218 -0.03386 0.46283
 H144 H 0.21054 -0.03374 0.54679
 H145 H 0.24900 0.00094 0.53801
 C146 C 0.20774 0.09893 0.47745
 C147 C 0.33500 0.02613 0.42597
 C148 C 0.19835 -0.03665 0.50543
 C149 C 0.33130 0.04438 0.56004
 C150 C 0.73222 0.02303 0.54718
 H151 H 0.74932 0.03816 0.54412
 C152 C 0.71256 0.02683 0.56671
 H153 H 0.71458 0.04500 0.57824
 C154 C 0.70863 -0.01894 0.53627
 H155 H 0.70713 -0.03675 0.52436
 C156 C 0.68867 -0.01611 0.55582
 H157 H 0.67163 -0.03157 0.55843
 N158 N 0.72923 0.00101 0.53153
 C159 C 0.80652 0.02451 0.49904
 H160 H 0.81252 0.00416 0.49957
 C161 C 0.82700 0.04606 0.49812
 H162 H 0.84860 0.04202 0.49771
 C163 C 0.77128 0.05454 0.49836
 H164 H 0.74946 0.05769 0.49861
 C165 C 0.79108 0.07668 0.49739
 H166 H 0.78434 0.09680 0.49712
 Zn167 Zn 0.75210 -0.00104 0.50097
 N168 N 0.77923 0.02903 0.49924
 C169 C 0.73041 0.02007 0.45303
 N170 N 0.72917 -0.00144 0.47024
 C171 C 0.71051 -0.02315 0.46669
 C172 C 0.69091 -0.02298 0.44638
 C173 C 0.71098 0.02124 0.43269
 C174 C 0.77975 -0.04155 0.52654
 C175 C 0.79593 -0.06336 0.52782
 C176 C 0.79169 -0.06728 0.48016
 C177 C 0.77566 -0.04539 0.47979
 N178 N 0.77025 -0.03291 0.50273
 H179 H 0.74592 0.03674 0.45533
 H180 H 0.71050 -0.04050 0.47988
 H181 H 0.67549 -0.03996 0.44452
 H182 H 0.71159 0.03892 0.41976
 H183 H 0.77539 -0.03101 0.54442
 H184 H 0.80366 -0.06978 0.54688
 H185 H 0.79664 -0.07629 0.46155
 H186 H 0.76836 -0.03775 0.46105
 C187 C 0.81938 0.07257 0.49737
 C188 C 0.69000 0.00748 0.57063
 C189 C 0.80243 -0.07626 0.50434
 C190 C 0.69051 -0.00020 0.42964
 C191 C 0.45818 0.20372 1.04536
 H192 H 0.44013 0.21358 1.03938
 C193 C 0.45524 0.18167 1.06312
 H194 H 0.43496 0.17510 1.07123
 C195 C 0.50617 0.19878 1.04054
 H196 H 0.52568 0.20485 1.03069
 C197 C 0.50422 0.17690 1.05834
 H198 H 0.52245 0.16636 1.06219
 N199 N 0.48331 0.21147 1.03418
 C200 C 0.44240 0.25213 0.97403
 H201 H 0.45024 0.24023 0.95848
 C202 C 0.42080 0.26809 0.96844
 H203 H 0.41185 0.26787 0.94873
 C204 C 0.44558 0.26818 1.01802
 H205 H 0.45597 0.26865 1.03705
 C206 C 0.42399 0.28444 1.01329
 H207 H 0.41796 0.29750 1.02879
 Zn208 Zn 0.48719 0.23537 1.00457
 N209 N 0.45455 0.25272 0.99839
 C210 C 0.47425 0.19333 0.97079
 N211 N 0.49449 0.21326 0.97585
 C212 C 0.51947 0.21457 0.96325
 C213 C 0.52491 0.19497 0.94492
 C214 C 0.47871 0.17355 0.95253
 C215 C 0.52749 0.26707 1.03415
 C216 C 0.54649 0.28935 1.03842
 C217 C 0.54260 0.30219 0.99211
 C218 C 0.52340 0.27986 0.98879
 N219 N 0.51626 0.26285 1.00965
 H220 H 0.45489 0.19236 0.98167
 H221 H 0.53557 0.23009 0.96817
 H222 H 0.54504 0.19593 0.93537
 H223 H 0.46260 0.15741 0.94945
 H224 H 0.52096 0.25375 1.05064
 H225 H 0.55487 0.29272 1.05814
 H226 H 0.54756 0.31588 0.97544
 H227 H 0.51364 0.27642 0.96969
 C228 C 0.41176 0.28501 0.98801
 C229 C 0.47838 0.16764 1.06935
 C230 C 0.55404 0.30739 1.01729
 C231 C 0.50445 0.17396 0.93963
 C232 C 0.46621 0.75369 -0.05161
 H233 H 0.44811 0.74076 -0.04547
 C234 C 0.46311 0.77575 -0.06853
 H235 H 0.44271 0.77926 -0.07589
 C236 C 0.51425 0.76688 -0.04710
 H237 H 0.53374 0.76422 -0.03735
 C238 C 0.51217 0.78891 -0.06431
 H239 H 0.53026 0.80290 -0.06806
 N240 N 0.49140 0.75002 -0.04086
 C241 C 0.44618 0.69909 0.01423
 H242 H 0.45163 0.71106 0.03141
 C243 C 0.42337 0.67984 0.01549
 H244 H 0.41141 0.67722 0.03371
 C245 C 0.45612 0.68673 -0.02977
 H246 H 0.46915 0.68953 -0.04727
 C247 C 0.43354 0.66726 -0.02936
 H248 H 0.42914 0.65527 -0.04680
 Zn249 Zn 0.49345 0.72745 -0.01054
 N250 N 0.46186 0.70231 -0.00827
 C251 C 0.47078 0.76421 0.02052
 N252 N 0.49429 0.75157 0.01782
 C253 C 0.51792 0.75998 0.03098
 C254 C 0.51859 0.78263 0.04707
 C255 C 0.47041 0.78652 0.03658
 C256 C 0.53769 0.70420 -0.03523
 C257 C 0.55753 0.68569 -0.03724
 C258 C 0.55131 0.67490 0.00954
 C259 C 0.53144 0.69354 0.01064
 N260 N 0.52486 0.70753 -0.01161
 H261 H 0.45256 0.75767 0.00914
 H262 H 0.53667 0.75025 0.02769
 H263 H 0.53791 0.78995 0.05633
 H264 H 0.45143 0.79632 0.03817
 H265 H 0.53152 0.71484 -0.05286
 H266 H 0.56698 0.68276 -0.05636
 H267 H 0.55547 0.66315 0.02719
 H268 H 0.52038 0.69604 0.02899
 C269 C 0.41687 0.66355 -0.00648
 C270 C 0.48616 0.79403 -0.07444
 C271 C 0.56409 0.67030 -0.01481
 C272 C 0.49476 0.79665 0.04939
 C273 C 1.04362 0.49008 0.22169
 H274 H 1.02676 0.47478 0.22569
 C275 C 1.06308 0.48612 0.20204
 H276 H 1.06128 0.46747 0.19128
 C277 C 1.06594 0.53320 0.23060
 H278 H 1.06645 0.55187 0.24118
 C279 C 1.08592 0.53006 0.21105
 H280 H 1.10173 0.54638 0.20686
 N281 N 1.04533 0.51330 0.23551
 C282 C 0.99402 0.49249 0.30504
 H283 H 0.97975 0.50786 0.30276
 C284 C 0.99345 0.47663 0.32817
 H285 H 0.97843 0.47959 0.34358
 C286 C 1.03203 0.47103 0.28835
 H287 H 1.04776 0.46972 0.27330
 C288 C 1.03187 0.45435 0.31108
 H289 H 1.04729 0.44002 0.31325
 Zn290 Zn 1.01573 0.51723 0.25933
 N291 N 1.01344 0.48985 0.28596
 C292 C 0.96557 0.49212 0.23983
 N293 N 0.98301 0.51509 0.23864
 C294 C 0.98004 0.53447 0.21969
 C295 C 0.95952 0.53064 0.20025
 C296 C 0.94502 0.48735 0.22063
 C297 C 1.04484 0.55252 0.29284
 C298 C 1.04759 0.57080 0.31344
 C299 C 1.00142 0.58307 0.30404
 C300 C 0.99969 0.56474 0.28325
 N301 N 1.02098 0.54941 0.27860
 H302 H 0.96871 0.47669 0.25464
 H303 H 0.99461 0.55224 0.21882
 H304 H 0.95829 0.54564 0.18452
 H305 H 0.93211 0.46844 0.22115
 H306 H 1.06105 0.53942 0.28940
 H307 H 1.06653 0.57232 0.32495
 H308 H 0.98354 0.59370 0.30866
 H309 H 0.98051 0.56118 0.27236
 C310 C 1.01286 0.45766 0.33158
 C311 C 1.08440 0.50640 0.19624
 C312 C 1.02524 0.58549 0.32012
 C313 C 0.94234 0.50641 0.20008
 C314 C -0.06457 0.48406 0.77666
 H315 H -0.05579 0.46615 0.77004
 C316 C -0.08569 0.48184 0.79578
 H317 H -0.09348 0.46216 0.80350
 C318 C -0.06339 0.53168 0.77669
 H319 H -0.05351 0.55107 0.77034
 C320 C -0.08495 0.53036 0.79527
 H321 H -0.09195 0.54880 0.80277
 N322 N -0.05377 0.50873 0.76766
 C323 C 0.00928 0.47161 0.72562
 H324 H 0.02624 0.48017 0.73758
 C325 C 0.01450 0.45341 0.70596
 H326 H 0.03533 0.44752 0.70350
 C327 C -0.03777 0.47087 0.71241
 H328 H -0.05771 0.47887 0.71424
 C329 C -0.03349 0.45246 0.69258
 H330 H -0.05033 0.44615 0.67932
 Zn331 Zn -0.02024 0.51149 0.74799
 N332 N -0.01639 0.48033 0.72815
 C333 C 0.01211 0.49417 0.78919
 N334 N 0.00859 0.51592 0.77324
 C335 C 0.02386 0.53987 0.77665
 C336 C 0.04374 0.54249 0.79682
 C337 C 0.03198 0.49577 0.80924
 C338 C -0.04052 0.55154 0.71316
 C339 C -0.03852 0.56826 0.69040
 C340 C 0.00995 0.56078 0.68697
 C341 C 0.00707 0.54439 0.70976
 N342 N -0.01789 0.53987 0.72225
 H343 H -0.00072 0.47554 0.78637
 H344 H 0.02022 0.55709 0.76415
 H345 H 0.05562 0.56169 0.79955
 H346 H 0.03427 0.47830 0.82192
 H347 H -0.06049 0.54668 0.72253
 H348 H -0.05692 0.57656 0.68280
 H349 H 0.02990 0.56368 0.67706
 H350 H 0.02452 0.53421 0.71687
 C351 C -0.00682 0.44428 0.68862
 C352 C -0.09588 0.50523 0.80544
 C353 C -0.01316 0.57248 0.67665
 C354 C 0.04796 0.52019 0.81335
 C355 C 0.08012 0.18501 0.48777
 C356 C 0.10605 0.17465 0.48685
 C357 C 0.12679 0.18333 0.50534
 C358 C 0.12164 0.20325 0.52354
 C359 C 0.09578 0.21361 0.52417
 C360 C 0.07468 0.20405 0.50678
 C361 C 0.15193 0.17137 0.50586
 C362 C 0.15650 0.15080 0.48820
 C363 C 0.13627 0.14310 0.46888
 C364 C 0.11121 0.15511 0.46829
 C365 C 0.14105 0.12282 0.45101
 C366 C 0.16505 0.10938 0.45304
 C367 C 0.18461 0.11594 0.47300
 C368 C 0.18053 0.13713 0.49013
 H369 H 0.06389 0.17783 0.47416
 H370 H 0.13736 0.21029 0.53771
 H371 H 0.09184 0.22830 0.53896
 H372 H 0.16756 0.17751 0.52048
 H373 H 0.09541 0.14870 0.45392
 H374 H 0.12585 0.11679 0.43599
 H375 H 0.16771 0.09298 0.43977
 H376 H 0.19571 0.14242 0.50542
 C377 C 0.66261 0.55229 -0.00528
 C378 C 0.64803 0.57528 -0.00385
 C379 C 0.65323 0.59329 0.01727
 C380 C 0.67345 0.58824 0.03625
 C381 C 0.68813 0.56541 0.03448
 C382 C 0.68259 0.54710 0.01391
 C383 C 0.63805 0.61593 0.01909
 C384 C 0.61791 0.62083 -0.00006
 C385 C 0.61329 0.60308 -0.02150
 C386 C 0.62829 0.58041 -0.02320
 C387 C 0.59353 0.60811 -0.04083
 C388 C 0.57811 0.63029 -0.03882
 C389 C 0.58204 0.64786 -0.01739
 C390 C 0.60213 0.64306 0.00192
 H391 H 0.65855 0.53846 -0.02145
 H392 H 0.67782 0.60186 0.05251
 H393 H 0.70345 0.56174 0.04948
 H394 H 0.64180 0.62960 0.03544
 H395 H 0.62448 0.56668 -0.03951
 H396 H 0.58976 0.59471 -0.05738
 H397 H 0.56250 0.63330 -0.05371
 H398 H 0.60543 0.65660 0.01842
 C399 C 0.92967 -0.16446 0.50718
 C400 C 0.90802 -0.14816 0.51164
 C401 C 0.91196 -0.12657 0.52944
 C402 C 0.93717 -0.12211 0.54298
 C403 C 0.95869 -0.13824 0.53822
 C404 C 0.95535 -0.15923 0.51996
 C405 C 0.89098 -0.10931 0.53283
 C406 C 0.86629 -0.11305 0.51830
 C407 C 0.86207 -0.13498 0.50094
 C408 C 0.88287 -0.15254 0.49790
 C409 C 0.83744 -0.13849 0.48631
 C410 C 0.81762 -0.11989 0.48807
 C411 C 0.82197 -0.09755 0.50464
 C412 C 0.84616 -0.09462 0.52014
 H413 H 0.92696 -0.18043 0.49287
 H414 H 0.94047 -0.10578 0.55683
 H415 H 0.97814 -0.13411 0.54861
 H416 H 0.89420 -0.09252 0.54618
 H417 H 0.87980 -0.16912 0.48429
 H418 H 0.83377 -0.15527 0.47305
 H419 H 0.79899 -0.12279 0.47620
 H420 H 0.84996 -0.07730 0.53272
 C421 C 0.31134 0.40076 0.98058
 C422 C 0.32450 0.37709 0.98425
 C423 C 0.31937 0.36118 1.00762
 C424 C 0.30004 0.36868 1.02631
 C425 C 0.28704 0.39245 1.02250
 C426 C 0.29325 0.40901 1.00000
 C427 C 0.33433 0.33866 1.01228
 C428 C 0.35450 0.33213 0.99396
 C429 C 0.35870 0.34754 0.97013
 C430 C 0.34358 0.36978 0.96537
 C431 C 0.37865 0.34101 0.95176
 C432 C 0.39511 0.32007 0.95730
 C433 C 0.39194 0.30515 0.98130
 C434 C 0.37118 0.31099 0.99938
 H435 H 0.31595 0.41340 0.96304
 H436 H 0.29567 0.35665 1.04426
 H437 H 0.27316 0.39855 1.03769
 H438 H 0.33088 0.32677 1.03047
 H439 H 0.34731 0.38192 0.94736
 H440 H 0.38206 0.35259 0.93339
 H441 H 0.41114 0.31624 0.94321
 H442 H 0.36839 0.29945 1.01783
 C443 C 0.94903 0.18026 0.50600
 C444 C 0.92756 0.15945 0.50808
 C445 C 0.93062 0.13704 0.52518
 C446 C 0.95494 0.13595 0.54007
 C447 C 0.97630 0.15661 0.53768
 C448 C 0.97365 0.17881 0.52052
 C449 C 0.90952 0.11589 0.52683
 C450 C 0.88553 0.11671 0.51138
 C451 C 0.88234 0.13919 0.49443
 C452 C 0.90333 0.16048 0.49297
 C453 C 0.85831 0.13986 0.47901
 C454 C 0.83776 0.11831 0.48012
 C455 C 0.84086 0.09573 0.49668
 C456 C 0.86477 0.09522 0.51243
 H457 H 0.94695 0.19717 0.49249
 H458 H 0.95759 0.11898 0.55333
 H459 H 0.99498 0.15525 0.54927
 H460 H 0.91195 0.09865 0.53984
 H461 H 0.90097 0.17766 0.47985
 H462 H 0.85553 0.15691 0.46590
 H463 H 0.81965 0.11908 0.46762
 H464 H 0.86718 0.07810 0.52560
 C465 C 0.31107 0.53300 -0.00595
 C466 C 0.33200 0.55430 -0.00905
 C467 C 0.35730 0.54971 -0.02146
 C468 C 0.36118 0.52415 -0.03081
 C469 C 0.34056 0.50301 -0.02732
 C470 C 0.31524 0.50681 -0.01449
 C471 C 0.37852 0.57063 -0.02403
 C472 C 0.37500 0.59607 -0.01396
 C473 C 0.34973 0.60082 -0.00157
 C474 C 0.32830 0.57995 0.00066
 C475 C 0.34650 0.62629 0.00868
 C476 C 0.36822 0.64674 0.00695
 C477 C 0.39349 0.64214 -0.00520
 C478 C 0.39661 0.61672 -0.01574
 H479 H 0.29229 0.53670 0.00454
 H480 H 0.38031 0.52040 -0.04071
 H481 H 0.34440 0.48382 -0.03555
 H482 H 0.39795 0.56699 -0.03349
 H483 H 0.30895 0.58355 0.01029
 H484 H 0.32727 0.63035 0.01820
 H485 H 0.36520 0.66625 0.01498
 H486 H 0.41615 0.61277 -0.02476
 C487 C 0.06279 -0.13739 0.51209
 C488 C 0.08868 -0.12283 0.50840
 C489 C 0.10726 -0.13091 0.48912
 C490 C 0.09987 -0.15403 0.47445
 C491 C 0.07415 -0.16876 0.47852
 C492 C 0.05488 -0.16043 0.49705
 C493 C 0.13283 -0.11573 0.48484
 C494 C 0.14012 -0.09277 0.49991
 C495 C 0.12177 -0.08529 0.51980
 C496 C 0.09618 -0.10026 0.52382
 C497 C 0.12919 -0.06276 0.53526
 C498 C 0.15438 -0.04746 0.53085
 C499 C 0.17256 -0.05425 0.51079
 C500 C 0.16535 -0.07704 0.49540
 H501 H 0.04927 -0.13113 0.52752
 H502 H 0.11388 -0.16061 0.45961
 H503 H 0.06903 -0.18593 0.46610
 H504 H 0.14697 -0.12172 0.46979
 H505 H 0.08201 -0.09424 0.53885
 H506 H 0.11538 -0.05680 0.55059
 H507 H 0.15936 -0.02981 0.54271
 H508 H 0.17937 -0.08247 0.47999
 C509 C 0.65782 0.43936 1.01886
 C510 C 0.64220 0.41455 1.01552
 C511 C 0.64829 0.39803 0.99416
 C512 C 0.67035 0.40638 0.97690
 C513 C 0.68608 0.43093 0.98064
 C514 C 0.67979 0.44772 1.00145
 C515 C 0.63223 0.37351 0.99040
 C516 C 0.61039 0.36515 1.00794
 C517 C 0.60481 0.38140 1.02968
 C518 C 0.62062 0.40604 1.03323
 C519 C 0.58338 0.37280 1.04748
 C520 C 0.56736 0.34848 1.04367
 C521 C 0.57227 0.33240 1.02186
 C522 C 0.59393 0.34084 1.00407
 H523 H 0.65312 0.45208 1.03518
 H524 H 0.67540 0.39395 0.96049
 H525 H 0.70290 0.43707 0.96698
 H526 H 0.63672 0.36098 0.97386
 H527 H 0.61612 0.41859 1.04976
 H528 H 0.57888 0.38497 1.06427
 H529 H 0.55061 0.34254 1.05745
 H530 H 0.59801 0.32843 0.98732
 C531 C 0.49378 0.03321 1.15176
 C532 C 0.49373 0.05910 1.14020
 C533 C 0.51481 0.07937 1.14686
 C534 C 0.53517 0.07358 1.16537
 C535 C 0.53469 0.04797 1.17720
 C536 C 0.51417 0.02763 1.17037
 C537 C 0.51523 0.10507 1.13494
 C538 C 0.49471 0.11091 1.11660
 C539 C 0.47321 0.09091 1.11047
 C540 C 0.47291 0.06510 1.12222
 C541 C 0.45255 0.09698 1.09239
 C542 C 0.45364 0.12234 1.07986
 C543 C 0.47543 0.14207 1.08515
 C544 C 0.49566 0.13632 1.10393
 H545 H 0.47774 0.01755 1.14674
 H546 H 0.55138 0.08889 1.17080
 H547 H 0.55049 0.04392 1.19159
 H548 H 0.53160 0.12047 1.13982
 H549 H 0.45659 0.04968 1.11728
 H550 H 0.43586 0.08195 1.08751
 H551 H 0.43800 0.12616 1.06524
 H552 H 0.51239 0.15150 1.10834
 C553 C -0.01111 0.66848 0.54913
 C554 C -0.01478 0.65389 0.57328
 C555 C -0.02917 0.66459 0.59447
 C556 C -0.03975 0.68962 0.59111
 C557 C -0.03557 0.70428 0.56727
 C558 C -0.02093 0.69420 0.54586
 C559 C -0.03240 0.65032 0.61880
 C560 C -0.02091 0.62566 0.62240
 C561 C -0.00639 0.61501 0.60121
 C562 C -0.00363 0.62905 0.57676
 C563 C 0.00541 0.59059 0.60490
 C564 C 0.00314 0.57694 0.62941
 C565 C -0.01111 0.58732 0.65071
 C566 C -0.02336 0.61163 0.64696
 H567 H 0.00094 0.66029 0.53359
 H568 H -0.05110 0.69802 0.60704
 H569 H -0.04468 0.72326 0.56556
 H570 H -0.04344 0.65860 0.63503
 H571 H 0.00757 0.62084 0.56057
 H572 H 0.01653 0.58209 0.58887
 H573 H 0.01233 0.55801 0.63164
 H574 H -0.03426 0.61987 0.66330
 C575 C 0.49211 0.93281 -0.15363
 C576 C 0.49407 0.90701 -0.14254
 C577 C 0.51308 0.89018 -0.15321
 C578 C 0.52928 0.89921 -0.17524
 C579 C 0.52641 0.92447 -0.18688
 C580 C 0.50787 0.94178 -0.17625
 C581 C 0.51531 0.86450 -0.14192
 C582 C 0.49811 0.85511 -0.12060
 C583 C 0.47839 0.87163 -0.11057
 C584 C 0.47677 0.89758 -0.12134
 C585 C 0.46059 0.86193 -0.08987
 C586 C 0.46258 0.83626 -0.07887
 C587 C 0.48260 0.81999 -0.08814
 C588 C 0.50029 0.82948 -0.10910
 H589 H 0.47692 0.94512 -0.14554
 H590 H 0.54398 0.88659 -0.18369
 H591 H 0.53952 0.93072 -0.20375
 H592 H 0.53016 0.85173 -0.14989
 H593 H 0.46185 0.91032 -0.11341
 H594 H 0.44530 0.87426 -0.08203
 H595 H 0.44901 0.82942 -0.06249
 H596 H 0.51571 0.81693 -0.11636
 C597 C 1.01326 0.35971 0.45697
 C598 C 1.01394 0.37346 0.43231
 C599 C 1.01194 0.35884 0.40858
 C600 C 1.00909 0.33071 0.40993
 C601 C 1.00778 0.31710 0.43450
 C602 C 1.00972 0.33122 0.45868
 C603 C 1.01240 0.37255 0.38391
 C604 C 1.01423 0.40079 0.38272
 C605 C 1.01597 0.41542 0.40656
 C606 C 1.01621 0.40169 0.43114
 C607 C 1.01701 0.44358 0.40545
 C608 C 1.01597 0.45715 0.38100
 C609 C 1.01434 0.44286 0.35721
 C610 C 1.01382 0.41466 0.35814
 H611 H 1.01622 0.37160 0.47463
 H612 H 1.00722 0.31914 0.39192
 H613 H 1.00392 0.29545 0.43411
 H614 H 1.01088 0.36127 0.36569
 H615 H 1.01759 0.41298 0.44936
 H616 H 1.01831 0.45510 0.42350
 H617 H 1.01662 0.47892 0.38060
 H618 H 1.01239 0.40357 0.33981
 C619 C 0.50658 0.92385 0.14145
 C620 C 0.50825 0.90002 0.12745
 C621 C 0.52408 0.87973 0.13778
 C622 C 0.53850 0.88394 0.16166
 C623 C 0.53683 0.90777 0.17544
 C624 C 0.52058 0.92782 0.16570
 C625 C 0.52498 0.85549 0.12423
 C626 C 0.51027 0.85131 0.10044
 C627 C 0.49492 0.87188 0.08990
 C628 C 0.49398 0.89604 0.10345
 C629 C 0.48054 0.86791 0.06602
 C630 C 0.48092 0.84363 0.05286
 C631 C 0.49545 0.82265 0.06341
 C632 C 0.51042 0.82681 0.08714
 H633 H 0.49374 0.93896 0.13383
 H634 H 0.55094 0.86875 0.16978
 H635 H 0.54828 0.91050 0.19380
 H636 H 0.53691 0.83984 0.13231
 H637 H 0.48196 0.91166 0.09543
 H638 H 0.46893 0.88356 0.05751
 H639 H 0.46988 0.84137 0.03423
 H640 H 0.52168 0.81084 0.09552
 C641 C 0.00521 0.35338 0.56305
 C642 C -0.00046 0.36651 0.58654
 C643 C -0.02319 0.35654 0.60269
 C644 C -0.03957 0.33327 0.59521
 C645 C -0.03339 0.31997 0.57202
 C646 C -0.01109 0.33003 0.55573
 C647 C -0.02903 0.36988 0.62608
 C648 C -0.01210 0.39277 0.63373
 C649 C 0.01098 0.40228 0.61779
 C650 C 0.01650 0.38925 0.59423
 C651 C 0.02823 0.42476 0.62563
 C652 C 0.02261 0.43789 0.64895
 C653 C -0.00047 0.42897 0.66479
 C654 C -0.01782 0.40635 0.65706
 H655 H 0.02270 0.36095 0.55069
 H656 H -0.05700 0.32525 0.60737
 H657 H -0.04614 0.30193 0.56665
 H658 H -0.04659 0.36239 0.63837
 H659 H 0.03409 0.39672 0.58195
 H660 H 0.04599 0.43228 0.61366
 H661 H 0.03599 0.45553 0.65430
 H662 H -0.03560 0.39930 0.66924
 C663 C 0.50686 0.04753 0.84785
 C664 C 0.50291 0.07096 0.86180
 C665 C 0.47818 0.08369 0.85816
 C666 C 0.45807 0.07299 0.84030
 C667 C 0.46248 0.05001 0.82605
 C668 C 0.48678 0.03708 0.82984
 C669 C 0.47401 0.10694 0.87230
 C670 C 0.49438 0.11781 0.88980
 C671 C 0.51937 0.10545 0.89298
 C672 C 0.52341 0.08202 0.87907
 C673 C 0.53981 0.11660 0.91023
 C674 C 0.53531 0.13943 0.92469
 C675 C 0.51026 0.15146 0.92224
 C676 C 0.49002 0.14071 0.90443
 H677 H 0.52583 0.03776 0.85046
 H678 H 0.43907 0.08254 0.83718
 H679 H 0.44689 0.04221 0.81210
 H680 H 0.45494 0.11654 0.86970
 H681 H 0.54248 0.07241 0.88168
 H682 H 0.55911 0.10743 0.91285
 H683 H 0.55107 0.14714 0.93850
 H684 H 0.47076 0.15004 0.90218
 C685 C 1.00950 0.67644 0.44560
 C686 C 1.01086 0.66382 0.42099
 C687 C 0.99879 0.67509 0.39825
 C688 C 0.98568 0.69887 0.40053
 C689 C 0.98435 0.71127 0.42510
 C690 C 0.99616 0.70019 0.44790
 C691 C 0.99983 0.66230 0.37369
 C692 C 1.01265 0.63827 0.37160
 C693 C 1.02483 0.62715 0.39437
 C694 C 1.02394 0.64001 0.41884
 C695 C 1.03744 0.60311 0.39240
 C696 C 1.03778 0.58998 0.36823
 C697 C 1.02575 0.60068 0.34533
 C698 C 1.01326 0.62500 0.34721
 H699 H 1.01898 0.66787 0.46293
 H700 H 0.97625 0.70778 0.38336
 H701 H 0.97362 0.72933 0.42635
 H702 H 0.99047 0.67091 0.35629
 H703 H 1.03321 0.63134 0.43627
 H704 H 1.04671 0.59422 0.40968
 H705 H 1.04691 0.57097 0.36768
 H706 H 1.00400 0.63357 0.32976
 C707 C 1.16549 0.48381 0.06287
 C708 C 1.14792 0.48545 0.08499
 C709 C 1.11936 0.47709 0.08277
 C710 C 1.10885 0.46712 0.05873
 C711 C 1.12623 0.46597 0.03677
 C712 C 1.15482 0.47458 0.03819
 C713 C 1.10160 0.47907 0.10449
 C714 C 1.11188 0.48972 0.12843
 C715 C 1.14040 0.49820 0.13082
 C716 C 1.15830 0.49587 0.10912
 C717 C 1.15041 0.50914 0.15480
 C718 C 1.13229 0.51178 0.17612
 C719 C 1.10390 0.50336 0.17389
 C720 C 1.09392 0.49230 0.14990
 H721 H 1.18711 0.49121 0.06471
 H722 H 1.08706 0.46030 0.05681
 H723 H 1.11711 0.45738 0.01890
 H724 H 1.07968 0.47264 0.10266
 H725 H 1.18018 0.50244 0.11092
 H726 H 1.17220 0.51575 0.15705
 H727 H 1.14053 0.52019 0.19445
 H728 H 1.07198 0.48621 0.14773
 C729 C 0.56120 0.01080 0.66650
 C730 C 0.58515 0.00667 0.65200
 C731 C 0.59753 -0.01783 0.65523
 C732 C 0.58615 -0.03745 0.67347
 C733 C 0.56259 -0.03294 0.68820
 C734 C 0.54982 -0.00896 0.68460
 C735 C 0.62099 -0.02234 0.64013
 C736 C 0.63242 -0.00252 0.62210
 C737 C 0.62050 0.02229 0.61952
 C738 C 0.59686 0.02665 0.63435
 C739 C 0.63230 0.04229 0.60194
 C740 C 0.65538 0.03761 0.58667
 C741 C 0.66693 0.01280 0.58852
 C742 C 0.65546 -0.00717 0.60643
 H743 H 0.55151 0.02946 0.66394
 H744 H 0.59543 -0.05627 0.67631
 H745 H 0.55399 -0.04839 0.70208
 H746 H 0.63026 -0.04126 0.64233
 H747 H 0.58754 0.04555 0.63209
 H748 H 0.62349 0.06143 0.59979
 H749 H 0.66374 0.05315 0.57277
 H750 H 0.66444 -0.02627 0.60808
 C751 C -0.17775 0.49939 0.94154
 C752 C -0.16128 0.49657 0.91890
 C753 C -0.13618 0.48436 0.92135
 C754 C -0.12790 0.47531 0.94636
 C755 C -0.14391 0.47889 0.96891
 C756 C -0.16908 0.49111 0.96704
 C757 C -0.11941 0.48195 0.89891
 C758 C -0.12691 0.49250 0.87416
 C759 C -0.15185 0.50509 0.87172
 C760 C -0.16910 0.50663 0.89399
 C761 C -0.15872 0.51659 0.84718
 C762 C -0.14072 0.51624 0.82545
 C763 C -0.11596 0.50376 0.82770
 C764 C -0.10938 0.49152 0.85200
 H765 H -0.19642 0.50966 0.93930
 H766 H -0.10878 0.46574 0.94858
 H767 H -0.13678 0.47122 0.98772
 H768 H -0.10013 0.47256 0.90086
 H769 H -0.18821 0.51631 0.89210
 H770 H -0.17768 0.52641 0.84496
 H771 H -0.14600 0.52586 0.80687
 H772 H -0.09003 0.48228 0.85390
 C773 C 0.45693 -0.00324 0.32929
 C774 C 0.43244 0.00019 0.34315
 C775 C 0.40699 -0.01293 0.33459
 C776 C 0.40653 -0.02900 0.31201
 C777 C 0.43112 -0.03243 0.29837
 C778 C 0.45656 -0.01983 0.30706
 C779 C 0.38256 -0.00998 0.34889
 C780 C 0.38335 0.00579 0.37172
 C781 C 0.40884 0.01908 0.38002
 C782 C 0.43315 0.01628 0.36565
 C783 C 0.40973 0.03476 0.40279
 C784 C 0.38565 0.03712 0.41743
 C785 C 0.36015 0.02396 0.40956
 C786 C 0.35914 0.00832 0.38657
 H787 H 0.47636 0.00698 0.33587
 H788 H 0.38724 -0.03920 0.30511
 H789 H 0.43034 -0.04544 0.28137
 H790 H 0.36305 -0.02016 0.34244
 H791 H 0.45270 0.02636 0.37217
 H792 H 0.42911 0.04498 0.40946
 H793 H 0.38713 0.04885 0.43532
 H794 H 0.33957 -0.00178 0.38023
 C795 C 0.14772 0.50089 0.93463
 C796 C 0.13360 0.50228 0.91037
 C797 C 0.13586 0.48205 0.89140
 C798 C 0.15307 0.46140 0.89660
 C799 C 0.16722 0.46029 0.92074
 C800 C 0.16421 0.47967 0.94011
 C801 C 0.12044 0.48245 0.86783
 C802 C 0.10278 0.50282 0.86300
 C803 C 0.10137 0.52365 0.88147
 C804 C 0.11679 0.52325 0.90504
 C805 C 0.08403 0.54420 0.87634
 C806 C 0.06747 0.54363 0.85359
 C807 C 0.06786 0.52243 0.83570
 C808 C 0.08598 0.50234 0.84028
 H809 H 0.14561 0.51607 0.94943
 H810 H 0.15518 0.44582 0.88223
 H811 H 0.17979 0.44376 0.92466
 H812 H 0.12174 0.46663 0.85353
 H813 H 0.11528 0.53892 0.91946
 H814 H 0.08281 0.56040 0.89020
 H815 H 0.05355 0.55922 0.85049
 H816 H 0.08659 0.48609 0.82637
 C817 C 0.56556 -0.01332 0.32897
 C818 C 0.58938 -0.01449 0.34453
 C819 C 0.60459 -0.03737 0.34359
 C820 C 0.59609 -0.05834 0.32640
 C821 C 0.57256 -0.05674 0.31053
 C822 C 0.55700 -0.03442 0.31203
 C823 C 0.62793 -0.03891 0.35989
 C824 C 0.63638 -0.01770 0.37681
 C825 C 0.62160 0.00552 0.37701
 C826 C 0.59812 0.00689 0.36102
 C827 C 0.63039 0.02695 0.39343
 C828 C 0.65330 0.02525 0.40993
 C829 C 0.66768 0.00202 0.41048
 C830 C 0.65924 -0.01937 0.39373
 H831 H 0.55373 0.00411 0.32981
 H832 H 0.60758 -0.07594 0.32526
 H833 H 0.56619 -0.07311 0.29744
 H834 H 0.63940 -0.05660 0.35949
 H835 H 0.58659 0.02455 0.36147
 H836 H 0.61935 0.04491 0.39374
 H837 H 0.65933 0.04183 0.42289
 H838 H 0.67042 -0.03725 0.39394
 C839 C 0.84569 0.49435 0.07341
 C840 C 0.86023 0.49993 0.09708
 C841 C 0.85741 0.52438 0.11015
 C842 C 0.83939 0.54242 0.09970
 C843 C 0.82462 0.53647 0.07636
 C844 C 0.82794 0.51261 0.06285
 C845 C 0.87275 0.53042 0.13331
 C846 C 0.89056 0.51214 0.14376
 C847 C 0.89259 0.48731 0.13109
 C848 C 0.87759 0.48146 0.10778
 C849 C 0.90981 0.46877 0.14182
 C850 C 0.92528 0.47486 0.16463
 C851 C 0.92406 0.49970 0.17706
 C852 C 0.90654 0.51828 0.16655
 H853 H 0.84806 0.47575 0.06320
 H854 H 0.83683 0.56118 0.10950
 H855 H 0.81105 0.55080 0.06847
 H856 H 0.87089 0.54934 0.14312
 H857 H 0.87951 0.46258 0.09792
 H858 H 0.91155 0.44964 0.13241
 H859 H 0.93889 0.46040 0.17217
 H860 H 0.90539 0.53743 0.17612
 C861 C 0.44908 0.02792 0.66530
 C862 C 0.42480 0.02962 0.65036
 C863 C 0.40126 0.01140 0.65586
 C864 C 0.40202 -0.00744 0.67683
 C865 C 0.42613 -0.00880 0.69176
 C866 C 0.44995 0.00850 0.68584
 C867 C 0.37757 0.01186 0.63996
 C868 C 0.37705 0.03033 0.61863
 C869 C 0.40009 0.04934 0.61379
 C870 C 0.42385 0.04885 0.62969
 C871 C 0.39920 0.06807 0.59269
 C872 C 0.37618 0.06727 0.57588
 C873 C 0.35381 0.04762 0.57984
 C874 C 0.35413 0.02957 0.60159
 H875 H 0.46738 0.04145 0.66084
 H876 H 0.38413 -0.02145 0.68140
 H877 H 0.42648 -0.02400 0.70742
 H878 H 0.35977 -0.00252 0.64384
 H879 H 0.44175 0.06305 0.62563
 H880 H 0.41657 0.08290 0.58878
 H881 H 0.37633 0.08126 0.55912
 H882 H 0.33676 0.01454 0.60484
   
