data_POSCAR
  _audit_creation_date              2014-09-24
  _audit_creation_method            'ToBaCCo'
  _symmetry_space_group_name_H-M    'P1'
  _symmetry_Int_Tables_number       1
  _symmetry_cell_setting            triclinic
  loop_
  _symmetry_equiv_pos_as_xyz
 x,y,z
_cell_length_a 56.7900
_cell_length_b 56.8439
_cell_length_c 41.6754
_cell_angle_alpha 90.025700
_cell_angle_beta 90.037700
_cell_angle_gamma 89.771700
loop_
  _atom_site_label
  _atom_site_type_symbol
  _atom_site_fract_x
  _atom_site_fract_y
  _atom_site_fract_z
O1 O -0.02648 0.29158 0.02722
 O2 O 0.02121 0.29149 -0.03304
 O3 O -0.02498 0.29019 -0.03521
 O4 O 0.01978 0.29246 0.02920
 O5 O 0.02046 0.25361 0.03054
 O6 O -0.02360 0.25136 -0.03372
 O7 O 0.02215 0.25267 -0.03144
 O8 O -0.02529 0.25273 0.02836
 Cu9 Cu -0.00276 0.29536 -0.00309
 Cu10 Cu -0.00150 0.24873 -0.00143
 C11 C -0.03412 0.27208 0.03778
 C12 C 0.03004 0.27202 -0.04213
 C13 C -0.03199 0.27028 -0.04521
 C14 C 0.02793 0.27332 0.04048
 O15 O 0.47523 0.79035 0.53773
 O16 O 0.52114 0.79277 0.47495
 O17 O 0.47485 0.79193 0.47528
 O18 O 0.52145 0.79143 0.53721
 O19 O 0.52222 0.75258 0.53538
 O20 O 0.47602 0.75309 0.47373
 O21 O 0.52183 0.75392 0.47336
 O22 O 0.47644 0.75152 0.53585
 Cu23 Cu 0.49804 0.79555 0.50645
 Cu24 Cu 0.49919 0.74891 0.50440
 C25 C 0.46794 0.77043 0.54725
 C26 C 0.52950 0.77365 0.46384
 C27 C 0.46739 0.77250 0.46422
 C28 C 0.52995 0.77186 0.54648
 O29 O 1.02189 0.70980 0.03705
 O30 O 0.97663 0.70969 -0.02686
 O31 O 1.02275 0.70947 -0.02540
 O32 O 0.97564 0.70965 0.03567
 O33 O 0.97568 0.74851 0.03540
 O34 O 1.02252 0.74832 -0.02532
 O35 O 0.97682 0.74856 -0.02678
 O36 O 1.02146 0.74865 0.03684
 Cu37 Cu 0.99922 0.70573 0.00517
 Cu38 Cu 0.99909 0.75237 0.00505
 C39 C 1.02955 0.72934 0.04756
 C40 C 0.96900 0.72922 -0.03757
 C41 C 1.03077 0.72893 -0.03558
 C42 C 0.96752 0.72917 0.04567
 O43 O 0.52075 0.20696 0.52864
 O44 O 0.47418 0.20899 0.46665
 O45 O 0.52028 0.20877 0.46620
 O46 O 0.47449 0.20715 0.52911
 O47 O 0.47476 0.24599 0.53114
 O48 O 0.52013 0.24760 0.46851
 O49 O 0.47444 0.24782 0.46901
 O50 O 0.52054 0.24580 0.53065
 Cu51 Cu 0.49742 0.20403 0.49749
 Cu52 Cu 0.49747 0.25067 0.50008
 C53 C 0.52870 0.22613 0.53992
 C54 C 0.46636 0.22884 0.45742
 C55 C 0.52805 0.22853 0.45681
 C56 C 0.46671 0.22639 0.54058
 O57 O 0.70987 -0.02405 0.02789
 O58 O 0.71194 0.02193 -0.03488
 O59 O 0.71200 -0.02413 -0.03456
 O60 O 0.70972 0.02217 0.02763
 O61 O 0.74858 0.02190 0.03006
 O62 O 0.75085 -0.02394 -0.03184
 O63 O 0.75077 0.02170 -0.03207
 O64 O 0.74873 -0.02380 0.03024
 Cu65 Cu 0.70694 -0.00101 -0.00369
 Cu66 Cu 0.75360 -0.00103 -0.00062
 C67 C 0.72907 -0.03185 0.03950
 C68 C 0.73180 0.02969 -0.04407
 C69 C 0.73190 -0.03195 -0.04363
 C70 C 0.72885 0.03000 0.03921
 O71 O 0.21045 0.52275 0.47273
 O72 O 0.21056 0.47570 0.53382
 O73 O 0.21096 0.52185 0.53531
 O74 O 0.21050 0.47662 0.47133
 O75 O 0.24941 0.47667 0.47122
 O76 O 0.24986 0.52130 0.53477
 O77 O 0.24947 0.47561 0.53334
 O78 O 0.24935 0.52232 0.47256
 Cu79 Cu 0.20668 0.49927 0.50333
 Cu80 Cu 0.25339 0.49896 0.50295
 C81 C 0.22994 0.53060 0.46241
 C82 C 0.23011 0.46755 0.54375
 C83 C 0.23060 0.52931 0.54575
 C84 C 0.23000 0.46889 0.46059
 O85 O 0.28790 1.02306 0.03374
 O86 O 0.28779 0.97613 -0.02772
 O87 O 0.28790 1.02228 -0.02858
 O88 O 0.28781 0.97680 0.03474
 O89 O 0.24891 0.97733 0.03459
 O90 O 0.24902 1.02233 -0.02850
 O91 O 0.24889 0.97660 -0.02758
 O92 O 0.24902 1.02314 0.03356
 Cu93 Cu 0.29178 0.99952 0.00308
 Cu94 Cu 0.24509 0.99985 0.00304
 C95 C 0.26841 1.03134 0.04373
 C96 C 0.26824 0.96830 -0.03790
 C97 C 0.26841 1.03024 -0.03903
 C98 C 0.26825 0.96919 0.04516
 O99 O 0.78998 0.52058 0.53054
 O100 O 0.78850 0.47558 0.46669
 O101 O 0.78887 0.52175 0.46822
 O102 O 0.78911 0.47441 0.52911
 O103 O 0.75022 0.47536 0.52993
 O104 O 0.74998 0.52217 0.46934
 O105 O 0.74961 0.47643 0.46780
 O106 O 0.75108 0.52110 0.53141
 Cu107 Cu 0.79305 0.49800 0.49855
 Cu108 Cu 0.74635 0.49882 0.49972
 C109 C 0.77072 0.52868 0.54152
 C110 C 0.76874 0.46822 0.45663
 C111 C 0.76930 0.53016 0.45873
 C112 C 0.76960 0.46673 0.53962
 C113 C 0.24276 0.21671 0.19009
 C114 C 0.22197 0.22652 0.17797
 C115 C 0.21251 0.24740 0.19025
 C116 C 0.22451 0.25940 0.21509
 C117 C 0.24583 0.24988 0.22749
 C118 C 0.25503 0.22848 0.21492
 C119 C 0.27673 0.22006 0.22649
 C120 C 0.28895 0.23205 0.25033
 C121 C 0.28001 0.25298 0.26361
 C122 C 0.25833 0.26214 0.25187
 C123 C 0.21638 0.28114 0.22686
 C124 C 0.22858 0.29310 0.25074
 C125 C 0.24946 0.28386 0.26383
 C126 C 0.26231 0.29622 0.28752
 C127 C 0.28373 0.28705 0.29845
 C128 C 0.29262 0.26560 0.28728
 H129 H 0.28487 0.20441 0.21671
 H130 H 0.30582 0.22496 0.25761
 H131 H 0.20078 0.28950 0.21722
 H132 H 0.22170 0.30999 0.25820
 H133 H 0.21256 0.21733 0.15911
 H134 H 0.29339 0.29651 0.31682
 C135 C 0.74194 0.71555 0.30926
 C136 C 0.72247 0.72656 0.32336
 C137 C 0.71295 0.74742 0.31107
 C138 C 0.72388 0.75838 0.28449
 C139 C 0.74386 0.74762 0.27003
 C140 C 0.75284 0.72605 0.28230
 C141 C 0.77283 0.71597 0.26785
 C142 C 0.78363 0.72660 0.24168
 C143 C 0.77533 0.74811 0.22943
 C144 C 0.75509 0.75865 0.24352
 C145 C 0.71596 0.78021 0.27276
 C146 C 0.72691 0.79096 0.24680
 C147 C 0.74626 0.78035 0.23148
 C148 C 0.75761 0.79122 0.20517
 C149 C 0.77740 0.78049 0.19152
 C150 C 0.78653 0.75931 0.20327
 H151 H 0.78058 0.69985 0.27675
 H152 H 0.79862 0.71767 0.23122
 H153 H 0.70151 0.78953 0.28395
 H154 H 0.72022 0.80791 0.23926
 H155 H 0.71394 0.71816 0.34362
 H156 H 0.78612 0.78902 0.17152
 C157 C 0.78461 0.24192 0.19481
 C158 C 0.77520 0.22093 0.18308
 C159 C 0.75411 0.21176 0.19484
 C160 C 0.74191 0.22382 0.21949
 C161 C 0.75106 0.24533 0.23150
 C162 C 0.77243 0.25450 0.21901
 C163 C 0.78120 0.27570 0.23149
 C164 C 0.76905 0.28796 0.25521
 C165 C 0.74802 0.27916 0.26818
 C166 C 0.73884 0.25767 0.25612
 C167 C 0.72068 0.21522 0.23209
 C168 C 0.70893 0.22710 0.25653
 C169 C 0.71752 0.24847 0.26868
 C170 C 0.70566 0.26073 0.29348
 C171 C 0.71483 0.28195 0.30477
 C172 C 0.73565 0.29139 0.29252
 H173 H 0.79757 0.28310 0.22313
 H174 H 0.77642 0.30445 0.26320
 H175 H 0.71284 0.19918 0.22325
 H176 H 0.69300 0.21925 0.26573
 H177 H 0.78457 0.21146 0.16439
 H178 H 0.70557 0.29133 0.32366
 C179 C 0.28769 0.74198 0.30438
 C180 C 0.27850 0.72099 0.31637
 C181 C 0.25738 0.71162 0.30494
 C182 C 0.24493 0.72348 0.28032
 C183 C 0.25387 0.74499 0.26802
 C184 C 0.27526 0.75435 0.28021
 C185 C 0.28379 0.77556 0.26750
 C186 C 0.27140 0.78763 0.24383
 C187 C 0.25034 0.77863 0.23115
 C188 C 0.24139 0.75714 0.24346
 C189 C 0.22366 0.71470 0.26805
 C190 C 0.21164 0.72640 0.24368
 C191 C 0.22001 0.74776 0.23126
 C192 C 0.20786 0.75986 0.20656
 C193 C 0.21684 0.78108 0.19498
 C194 C 0.23770 0.79069 0.20688
 H195 H 0.30017 0.78312 0.27566
 H196 H 0.27860 0.80414 0.23566
 H197 H 0.21598 0.69865 0.27711
 H198 H 0.19570 0.71841 0.23473
 H199 H 0.28804 0.71168 0.33507
 H200 H 0.20735 0.79033 0.17618
 C201 C 0.79441 0.23241 0.78535
 C202 C 0.78656 0.21019 0.79474
 C203 C 0.76527 0.20092 0.78367
 C204 C 0.75176 0.21383 0.76111
 C205 C 0.75957 0.23637 0.75102
 C206 C 0.78087 0.24579 0.76337
 C207 C 0.78832 0.26801 0.75275
 C208 C 0.77506 0.28090 0.73083
 C209 C 0.75416 0.27181 0.71781
 C210 C 0.74619 0.24940 0.72820
 C211 C 0.73117 0.20449 0.74749
 C212 C 0.71810 0.21722 0.72516
 C213 C 0.72503 0.23986 0.71556
 C214 C 0.71187 0.25294 0.69284
 C215 C 0.71993 0.27501 0.68307
 C216 C 0.74081 0.28459 0.69497
 H217 H 0.80462 0.27568 0.76101
 H218 H 0.78149 0.29810 0.72424
 H219 H 0.72518 0.18699 0.75339
 H220 H 0.70268 0.20888 0.71515
 H221 H 0.79679 0.20029 0.81215
 H222 H 0.70979 0.28490 0.66554
 C223 C 0.29253 0.73415 0.71428
 C224 C 0.28449 0.71189 0.70530
 C225 C 0.26319 0.70286 0.71664
 C226 C 0.24985 0.71607 0.73905
 C227 C 0.25783 0.73866 0.74872
 C228 C 0.27915 0.74783 0.73610
 C229 C 0.28679 0.77010 0.74633
 C230 C 0.27370 0.78327 0.76812
 C231 C 0.25280 0.77443 0.78140
 C232 C 0.24465 0.75196 0.77143
 C233 C 0.22926 0.70698 0.75295
 C234 C 0.21640 0.71997 0.77523
 C235 C 0.22353 0.74264 0.78446
 C236 C 0.21063 0.75596 0.80719
 C237 C 0.21882 0.77810 0.81644
 C238 C 0.23963 0.78750 0.80413
 H239 H 0.30310 0.77758 0.73787
 H240 H 0.28026 0.80048 0.77446
 H241 H 0.22312 0.68948 0.74734
 H242 H 0.20097 0.71183 0.78546
 H243 H 0.29461 0.70174 0.68804
 H244 H 0.20887 0.78816 0.83398
 C245 C 0.24291 0.21207 0.80773
 C246 C 0.22346 0.22315 0.82178
 C247 C 0.21410 0.24409 0.80952
 C248 C 0.22523 0.25507 0.78312
 C249 C 0.24514 0.24418 0.76865
 C250 C 0.25390 0.22250 0.78082
 C251 C 0.27377 0.21222 0.76630
 C252 C 0.28467 0.22278 0.74017
 C253 C 0.27662 0.24443 0.72806
 C254 C 0.25652 0.25517 0.74226
 C255 C 0.21759 0.27704 0.77159
 C256 C 0.22876 0.28782 0.74582
 C257 C 0.24800 0.27705 0.73043
 C258 C 0.25953 0.28791 0.70427
 C259 C 0.27912 0.27695 0.69046
 C260 C 0.28792 0.25557 0.70194
 H261 H 0.28132 0.19598 0.77510
 H262 H 0.29955 0.21372 0.72964
 H263 H 0.20322 0.28646 0.78282
 H264 H 0.22230 0.30491 0.73848
 H265 H 0.21484 0.21475 0.84196
 H266 H 0.28795 0.28546 0.67052
 C267 C 0.74713 0.71331 0.69168
 C268 C 0.72626 0.72301 0.67967
 C269 C 0.71689 0.74399 0.69172
 C270 C 0.72912 0.75623 0.71614
 C271 C 0.75049 0.74677 0.72848
 C272 C 0.75955 0.72523 0.71621
 C273 C 0.78125 0.71680 0.72778
 C274 C 0.79362 0.72893 0.75133
 C275 C 0.78485 0.75005 0.76425
 C276 C 0.76318 0.75921 0.75249
 C277 C 0.72117 0.77814 0.72751
 C278 C 0.73359 0.79031 0.75096
 C279 C 0.75448 0.78110 0.76406
 C280 C 0.76750 0.79362 0.78741
 C281 C 0.78890 0.78446 0.79838
 C282 C 0.79762 0.76283 0.78760
 H283 H 0.78925 0.70100 0.71824
 H284 H 0.81046 0.72182 0.75867
 H285 H 0.70556 0.78647 0.71785
 H286 H 0.72686 0.80735 0.75807
 H287 H 0.71673 0.71364 0.66108
 H288 H 0.79866 0.79405 0.81652
 N289 N 0.24670 0.07837 0.09386
 C290 C 0.26697 0.08875 0.10341
 N291 N 0.28786 0.07943 0.09388
 N292 N 0.28842 0.06039 0.07517
 C293 C 0.26810 0.05010 0.06523
 N294 N 0.24725 0.05938 0.07516
 C295 C 0.26602 0.11044 0.12105
 C296 C 0.26416 0.12911 0.13458
 C297 C 0.26069 0.15177 0.14911
 N298 N 0.26048 0.15432 0.18148
 N299 N 0.25551 0.17515 0.19466
 C300 C 0.25065 0.19412 0.17590
 N301 N 0.25079 0.19141 0.14353
 N302 N 0.25578 0.17064 0.13038
 N303 N 0.75019 0.57501 0.59632
 C304 C 0.77061 0.58559 0.60479
 N305 N 0.79126 0.57688 0.59343
 N306 N 0.79143 0.55822 0.57403
 C307 C 0.77094 0.54774 0.56527
 N308 N 0.75035 0.55640 0.57692
 C309 C 0.76995 0.60709 0.62278
 C310 C 0.76829 0.62570 0.63646
 C311 C 0.76498 0.64836 0.65096
 N312 N 0.76459 0.65090 0.68332
 N313 N 0.75965 0.67174 0.69645
 C314 C 0.75500 0.69073 0.67762
 N315 N 0.75533 0.68803 0.64525
 N316 N 0.76029 0.66724 0.63217
 N317 N 0.70891 0.92036 0.09259
 C318 C 0.72962 0.91256 0.10501
 N319 N 0.74987 0.92338 0.09647
 N320 N 0.74953 0.94137 0.07605
 C321 C 0.72891 0.94919 0.06342
 N322 N 0.70856 0.93842 0.07213
 C323 C 0.73063 0.89228 0.12547
 C324 C 0.73325 0.87503 0.14196
 C325 C 0.73846 0.85443 0.16059
 N326 N 0.76066 0.85098 0.17158
 N327 N 0.76642 0.83114 0.18663
 C328 C 0.75017 0.81405 0.19140
 N329 N 0.72789 0.81752 0.18035
 N330 N 0.72213 0.83740 0.16520
 N331 N 0.21122 0.41936 0.59690
 C332 C 0.23223 0.41089 0.60741
 N333 N 0.25234 0.42138 0.59755
 N334 N 0.25156 0.43970 0.57771
 C335 C 0.23061 0.44818 0.56700
 N336 N 0.21043 0.43774 0.57703
 C337 C 0.23356 0.39033 0.62727
 C338 C 0.23622 0.37283 0.64319
 C339 C 0.24126 0.35188 0.66114
 N340 N 0.26344 0.34797 0.67188
 N341 N 0.26895 0.32785 0.68641
 C342 C 0.25245 0.31095 0.69086
 N343 N 0.23020 0.31487 0.68000
 N344 N 0.22469 0.33504 0.66539
 N345 N 0.91606 0.29089 0.08850
 C346 C 0.90807 0.26994 0.09956
 N347 N 0.91945 0.24992 0.09097
 N348 N 0.93815 0.25074 0.07178
 C349 C 0.94615 0.27162 0.06050
 N350 N 0.93482 0.29172 0.06928
 C351 C 0.88716 0.26854 0.11875
 C352 C 0.86945 0.26586 0.13424
 C353 C 0.84837 0.26085 0.15188
 N354 N 0.84577 0.23951 0.16583
 N355 N 0.82566 0.23386 0.18023
 C356 C 0.80747 0.24940 0.18135
 N357 N 0.81007 0.27078 0.16723
 N358 N 0.83022 0.27643 0.15276
 N359 N 0.41993 0.78690 0.60253
 C360 C 0.41236 0.76548 0.61242
 N361 N 0.42341 0.74590 0.60151
 N362 N 0.44140 0.74760 0.58121
 C363 C 0.44899 0.76895 0.57110
 N364 N 0.43798 0.78861 0.58219
 C365 C 0.39219 0.76321 0.63289
 C366 C 0.37507 0.75998 0.64938
 C367 C 0.35462 0.75458 0.66815
 N368 N 0.35349 0.73387 0.68414
 N369 N 0.33393 0.72777 0.69958
 C370 C 0.31483 0.74221 0.69971
 N371 N 0.31596 0.76293 0.68351
 N372 N 0.33556 0.76903 0.66803
 N373 N 0.07390 0.75159 0.10137
 C374 C 0.08422 0.73150 0.11187
 N375 N 0.07580 0.71050 0.10157
 N376 N 0.05765 0.70968 0.08126
 C377 C 0.04743 0.72985 0.07042
 N378 N 0.05583 0.75079 0.08107
 C379 C 0.10506 0.73279 0.13128
 C380 C 0.12309 0.73513 0.14622
 C381 C 0.14507 0.73932 0.16221
 N382 N 0.14631 0.74070 0.19468
 N383 N 0.16647 0.74652 0.20904
 C384 C 0.18604 0.75110 0.19139
 N385 N 0.18465 0.74978 0.15892
 N386 N 0.16455 0.74394 0.14460
 N387 N 0.57490 0.24662 0.59482
 C388 C 0.58607 0.22630 0.60263
 N389 N 0.57790 0.20569 0.59063
 N390 N 0.55917 0.20546 0.57129
 C391 C 0.54809 0.22586 0.56322
 N392 N 0.55624 0.24640 0.57548
 C393 C 0.60747 0.22713 0.62089
 C394 C 0.62592 0.22915 0.63495
 C395 C 0.64830 0.23309 0.64997
 N396 N 0.65077 0.23200 0.68233
 N397 N 0.67122 0.23759 0.69609
 C398 C 0.68985 0.24440 0.67792
 N399 N 0.68723 0.24553 0.64558
 N400 N 0.66684 0.23992 0.63186
 N401 N 0.75572 0.07296 0.90192
 C402 C 0.73595 0.08258 0.88920
 N403 N 0.71464 0.07430 0.89847
 N404 N 0.71319 0.05692 0.91989
 C405 C 0.73302 0.04732 0.93281
 N406 N 0.75429 0.05564 0.92330
 C407 C 0.73788 0.10199 0.86734
 C408 C 0.74085 0.11857 0.84977
 C409 C 0.74596 0.13858 0.82999
 N410 N 0.73012 0.15633 0.82661
 N411 N 0.73589 0.17584 0.81073
 C412 C 0.75766 0.17823 0.79762
 N413 N 0.77344 0.16039 0.80111
 N414 N 0.76767 0.14091 0.81694
 N415 N 0.25176 0.57650 0.40813
 C416 C 0.23157 0.58724 0.39874
 N417 N 0.21066 0.57900 0.40965
 N418 N 0.21003 0.56058 0.42944
 C419 C 0.23028 0.54989 0.43904
 N420 N 0.25113 0.55813 0.42790
 C421 C 0.23267 0.60823 0.37971
 C422 C 0.23470 0.62635 0.36498
 C423 C 0.23842 0.64841 0.34912
 N424 N 0.24274 0.66791 0.36681
 N425 N 0.24807 0.68814 0.35255
 C426 C 0.24915 0.68963 0.32008
 N427 N 0.24489 0.67002 0.30235
 N428 N 0.23958 0.64974 0.31665
 N429 N 0.24594 0.92243 0.90802
 C430 C 0.26603 0.91162 0.89836
 N431 N 0.28704 0.91980 0.90904
 N432 N 0.28787 0.93821 0.92889
 C433 C 0.26771 0.94896 0.93874
 N434 N 0.24676 0.94077 0.92785
 C435 C 0.26469 0.89097 0.87862
 C436 C 0.26220 0.87336 0.86286
 C437 C 0.25759 0.85221 0.84514
 N438 N 0.27359 0.83443 0.84423
 N439 N 0.26827 0.81406 0.83015
 C440 C 0.24680 0.81082 0.81642
 N441 N 0.23086 0.82867 0.81749
 N442 N 0.23618 0.84901 0.83152
 N443 N 0.78644 0.42070 0.40137
 C444 C 0.76523 0.41296 0.39084
 N445 N 0.74536 0.42379 0.40125
 N446 N 0.74659 0.44174 0.42169
 C447 C 0.76775 0.44948 0.43246
 N448 N 0.78768 0.43871 0.42184
 C449 C 0.76344 0.39268 0.37053
 C450 C 0.76052 0.37538 0.35430
 C451 C 0.75531 0.35467 0.33602
 N452 N 0.73377 0.35226 0.32249
 N453 N 0.72789 0.33233 0.30780
 C454 C 0.74338 0.31414 0.30599
 N455 N 0.76497 0.31655 0.31967
 N456 N 0.77085 0.33651 0.33442
 N457 N 0.07807 0.29154 0.90774
 C458 C 0.08793 0.27070 0.89909
 N459 N 0.07796 0.25042 0.90928
 N460 N 0.05885 0.25091 0.92775
 C461 C 0.04903 0.27170 0.93676
 N462 N 0.05891 0.29203 0.92621
 C463 C 0.10958 0.26987 0.88138
 C464 C 0.12815 0.26798 0.86761
 C465 C 0.15058 0.26430 0.85253
 N466 N 0.15258 0.26404 0.82010
 N467 N 0.17305 0.25848 0.80632
 C468 C 0.19220 0.25307 0.82449
 N469 N 0.19006 0.25333 0.85694
 N470 N 0.16963 0.25890 0.87071
 N471 N 0.57861 0.79449 0.41369
 C472 C 0.58735 0.77392 0.40209
 N473 N 0.57651 0.75351 0.40984
 N474 N 0.55765 0.75358 0.42878
 C475 C 0.54894 0.77408 0.44065
 N476 N 0.55969 0.79457 0.43264
 C477 C 0.60889 0.77329 0.38411
 C478 C 0.62737 0.77146 0.37010
 C479 C 0.64969 0.76776 0.35474
 N480 N 0.65142 0.76718 0.32229
 N481 N 0.67178 0.76156 0.30828
 C482 C 0.69111 0.75637 0.32624
 N483 N 0.68924 0.75693 0.35871
 N484 N 0.66892 0.76257 0.37270
 N485 N 0.92557 0.75173 0.90467
 C486 C 0.91529 0.73174 0.89400
 N487 N 0.92295 0.71069 0.90537
 N488 N 0.94036 0.70973 0.92686
 C489 C 0.95060 0.72981 0.93769
 N490 N 0.94291 0.75079 0.92613
 C491 C 0.89579 0.73331 0.87218
 C492 C 0.87919 0.73627 0.85457
 C493 C 0.85929 0.74173 0.83464
 N494 N 0.84091 0.72668 0.83208
 N495 N 0.82155 0.73296 0.81603
 C496 C 0.81997 0.75449 0.80198
 N497 N 0.83843 0.76947 0.80467
 N498 N 0.85775 0.76318 0.82064
 N499 N 0.42168 0.25300 0.40272
 C500 C 0.41138 0.23331 0.39109
 N501 N 0.41939 0.21195 0.40083
 N502 N 0.43718 0.21040 0.42168
 C503 C 0.44745 0.23017 0.43346
 N504 N 0.43940 0.25146 0.42353
 C505 C 0.39158 0.23542 0.36987
 C506 C 0.37476 0.23869 0.35277
 C507 C 0.35463 0.24438 0.33341
 N508 N 0.33634 0.22923 0.33065
 N509 N 0.31685 0.23560 0.31497
 C510 C 0.31504 0.25730 0.30148
 N511 N 0.33339 0.27239 0.30440
 N512 N 0.35285 0.26603 0.32002
 N513 N 0.71510 0.92119 0.89970
 C514 C 0.73649 0.91312 0.89012
 N515 N 0.75619 0.92337 0.90187
 N516 N 0.75462 0.94110 0.92262
 C517 C 0.73329 0.94920 0.93239
 N518 N 0.71353 0.93898 0.92049
 C519 C 0.73860 0.89326 0.86908
 C520 C 0.74178 0.87634 0.85218
 C521 C 0.74723 0.85605 0.83309
 N522 N 0.76884 0.85392 0.81965
 N523 N 0.77493 0.83432 0.80422
 C524 C 0.75958 0.81617 0.80155
 N525 N 0.73792 0.81832 0.81511
 N526 N 0.73183 0.83796 0.83060
 N527 N 0.25229 0.42506 0.40327
 C528 C 0.23225 0.41469 0.39291
 N529 N 0.21122 0.42245 0.40430
 N530 N 0.21034 0.44003 0.42551
 C531 C 0.23047 0.45035 0.43603
 N532 N 0.25142 0.44257 0.42444
 C533 C 0.23374 0.39499 0.37144
 C534 C 0.23662 0.37823 0.35410
 C535 C 0.24197 0.35817 0.33445
 N536 N 0.22657 0.34010 0.33159
 N537 N 0.23264 0.32064 0.31565
 C538 C 0.25430 0.31865 0.30199
 N539 N 0.26963 0.33679 0.30500
 N540 N 0.26355 0.35621 0.32087
 N541 N 0.28783 0.07681 0.90836
 C542 C 0.26693 0.08579 0.89828
 N543 N 0.24667 0.07569 0.90832
 N544 N 0.24723 0.05728 0.92803
 C545 C 0.26808 0.04835 0.93851
 N546 N 0.28840 0.05835 0.92809
 C547 C 0.26597 0.10698 0.87963
 C548 C 0.26413 0.12530 0.86531
 C549 C 0.26074 0.14763 0.84992
 N550 N 0.25878 0.16736 0.86796
 N551 N 0.25379 0.18795 0.85430
 C552 C 0.25070 0.18956 0.82207
 N553 N 0.25256 0.16971 0.80402
 N554 N 0.25754 0.14908 0.81772
 N555 N 0.78806 0.57962 0.40771
 C556 C 0.76704 0.58850 0.39791
 N557 N 0.74694 0.57774 0.40727
 N558 N 0.74777 0.55879 0.42599
 C559 C 0.76875 0.54992 0.43605
 N560 N 0.78891 0.56061 0.42644
 C561 C 0.76577 0.61004 0.38000
 C562 C 0.76368 0.62854 0.36611
 C563 C 0.76005 0.65095 0.35099
 N564 N 0.75770 0.67055 0.36925
 N565 N 0.75261 0.69118 0.35576
 C566 C 0.74981 0.69299 0.32349
 N567 N 0.75205 0.67328 0.30524
 N568 N 0.75713 0.65261 0.31877
 N569 N 0.07639 0.75044 0.91208
 C570 C 0.08653 0.73016 0.90192
 N571 N 0.07766 0.70932 0.91206
 N572 N 0.05923 0.70884 0.93188
 C573 C 0.04916 0.72919 0.94234
 N574 N 0.05802 0.74997 0.93189
 C575 C 0.10753 0.73103 0.88284
 C576 C 0.12567 0.73296 0.86809
 C577 C 0.14777 0.73670 0.85226
 N578 N 0.14962 0.73542 0.81984
 N579 N 0.16985 0.74079 0.80536
 C580 C 0.18887 0.74755 0.82285
 N581 N 0.18686 0.74885 0.85526
 N582 N 0.16670 0.74347 0.86970
 N583 N 0.57289 0.25195 0.40207
 C584 C 0.58332 0.23207 0.39099
 N585 N 0.57521 0.21088 0.40093
 N586 N 0.55721 0.20964 0.42141
 C587 C 0.54684 0.22958 0.43270
 N588 N 0.55495 0.25073 0.42254
 C589 C 0.60390 0.23375 0.37118
 C590 C 0.62170 0.23624 0.35584
 C591 C 0.64344 0.24049 0.33934
 N592 N 0.64423 0.24178 0.30684
 N593 N 0.66421 0.24752 0.29199
 C594 C 0.68402 0.25209 0.30917
 N595 N 0.68307 0.25087 0.34167
 N596 N 0.66315 0.24511 0.35647
 N597 N 0.92065 0.28665 0.89839
 C598 C 0.91349 0.26523 0.88792
 N599 N 0.92465 0.24569 0.89878
 N600 N 0.94234 0.24744 0.91959
 C601 C 0.94951 0.26880 0.93029
 N602 N 0.93840 0.28842 0.91923
 C603 C 0.89353 0.26285 0.86707
 C604 C 0.87656 0.25946 0.85034
 C605 C 0.85626 0.25380 0.83138
 N606 N 0.85534 0.23296 0.81566
 N607 N 0.83587 0.22656 0.80021
 C608 C 0.81664 0.24082 0.79981
 N609 N 0.81756 0.26168 0.81572
 N610 N 0.83707 0.26808 0.83121
 N611 N 0.41828 0.79155 0.41230
 C612 C 0.41054 0.77066 0.40067
 N613 N 0.42188 0.75062 0.40924
 N614 N 0.44030 0.75135 0.42898
 C615 C 0.44805 0.77217 0.44083
 N616 N 0.43676 0.79230 0.43206
 C617 C 0.38983 0.76931 0.38102
 C618 C 0.37226 0.76661 0.36521
 C619 C 0.35132 0.76151 0.34726
 N620 N 0.34889 0.74014 0.33329
 N621 N 0.32885 0.73433 0.31882
 C622 C 0.31053 0.74972 0.31765
 N623 N 0.31296 0.77114 0.33175
 N624 N 0.33305 0.77695 0.34630
 N625 N 0.24583 0.92410 0.10018
 C626 C 0.26586 0.91315 0.10975
 N627 N 0.28690 0.92105 0.09883
 N628 N 0.28781 0.93932 0.07878
 C629 C 0.26770 0.95021 0.06899
 N630 N 0.24673 0.94230 0.08015
 C631 C 0.26438 0.89260 0.12960
 C632 C 0.26166 0.87512 0.14550
 C633 C 0.25664 0.85422 0.16347
 N634 N 0.27231 0.83617 0.16482
 N635 N 0.26665 0.81611 0.17945
 C636 C 0.24515 0.81349 0.19327
 N637 N 0.22950 0.83157 0.19169
 N638 N 0.23517 0.85159 0.17712
 N639 N 0.74731 0.42061 0.59319
 C640 C 0.76733 0.40929 0.60198
 N641 N 0.78832 0.41722 0.59095
 N642 N 0.78920 0.43588 0.57158
 C643 C 0.76911 0.44716 0.56259
 N644 N 0.74818 0.43921 0.57385
 C645 C 0.76587 0.38838 0.62116
 C646 C 0.76327 0.37060 0.63650
 C647 C 0.75857 0.34930 0.65380
 N648 N 0.77459 0.33155 0.65469
 N649 N 0.76929 0.31114 0.66868
 C650 C 0.74782 0.30786 0.68232
 N651 N 0.73183 0.32566 0.68121
 N652 N 0.73713 0.34603 0.66727
 N653 N 0.70806 0.07851 0.09076
 C654 C 0.72862 0.08658 0.10309
 N655 N 0.74903 0.07561 0.09516
 N656 N 0.74894 0.05721 0.07540
 C657 C 0.72845 0.04916 0.06282
 N658 N 0.70797 0.06005 0.07099
 C659 C 0.72930 0.10772 0.12184
 C660 C 0.73112 0.12599 0.13631
 C661 C 0.73474 0.14821 0.15181
 N662 N 0.73615 0.14981 0.18423
 N663 N 0.74157 0.17022 0.19817
 C664 C 0.74570 0.18967 0.18012
 N665 N 0.74435 0.18792 0.14768
 N666 N 0.73892 0.16757 0.13379
 N667 N 0.21257 0.57578 0.60266
 C668 C 0.23373 0.58327 0.61373
 N669 N 0.25364 0.57273 0.60294
 N670 N 0.25250 0.55530 0.58167
 C671 C 0.23140 0.54778 0.57040
 N672 N 0.21142 0.55828 0.58135
 C673 C 0.23546 0.60295 0.63521
 C674 C 0.23838 0.61975 0.65244
 C675 C 0.24356 0.63999 0.67180
 N676 N 0.26528 0.64239 0.68482
 N677 N 0.27114 0.66206 0.70019
 C678 C 0.25545 0.68001 0.70324
 N679 N 0.23366 0.67755 0.69017
 N680 N 0.22780 0.65786 0.67474
 N681 N 0.92080 0.75123 0.09883
 C682 C 0.91014 0.73110 0.10823
 N683 N 0.91874 0.71016 0.09775
 N684 N 0.93741 0.70943 0.07835
 C685 C 0.94801 0.72963 0.06874
 N686 N 0.93941 0.75051 0.07945
 C687 C 0.88902 0.73229 0.12703
 C688 C 0.87088 0.73445 0.14176
 C689 C 0.84891 0.73843 0.15790
 N690 N 0.84786 0.73954 0.19038
 N691 N 0.82778 0.74534 0.20502
 C692 C 0.80808 0.75015 0.18765
 N693 N 0.80927 0.74907 0.15514
 N694 N 0.82930 0.74326 0.14054
 N695 N 0.42131 0.24716 0.59668
 C696 C 0.41043 0.22689 0.60498
 N697 N 0.41850 0.20622 0.59284
 N698 N 0.43686 0.20590 0.57289
 C699 C 0.44766 0.22625 0.56436
 N700 N 0.43960 0.24685 0.57674
 C701 C 0.38950 0.22779 0.62421
 C702 C 0.37150 0.22986 0.63926
 C703 C 0.34968 0.23389 0.65573
 N704 N 0.34889 0.23503 0.68822
 N705 N 0.32899 0.24106 0.70314
 C706 C 0.30922 0.24609 0.68605
 N707 N 0.31014 0.24498 0.65353
 N708 N 0.32999 0.23893 0.63865
 N709 N 0.07656 0.29386 0.09177
 C710 C 0.08499 0.27325 0.10361
 N711 N 0.07404 0.25292 0.09575
 N712 N 0.05536 0.25312 0.07645
 C713 C 0.04697 0.27366 0.06430
 N714 N 0.05781 0.29407 0.07246
 C715 C 0.10659 0.27243 0.12146
 C716 C 0.12523 0.27047 0.13507
 C717 C 0.14786 0.26671 0.14955
 N718 N 0.15035 0.26604 0.18191
 N719 N 0.17111 0.26060 0.19502
 C720 C 0.19004 0.25572 0.17619
 N721 N 0.18739 0.25632 0.14382
 N722 N 0.16669 0.26177 0.13075
 N723 N 0.57931 0.79071 0.59771
 C724 C 0.58840 0.76973 0.60722
 N725 N 0.57773 0.74961 0.59774
 N726 N 0.55868 0.75039 0.57914
 C727 C 0.54962 0.77132 0.56934
 N728 N 0.56020 0.79150 0.57911
 C729 C 0.61020 0.76852 0.62457
 C730 C 0.62898 0.76644 0.63780
 C731 C 0.65175 0.76269 0.65190
 N732 N 0.65465 0.76260 0.68421
 N733 N 0.67556 0.75737 0.69701
 C734 C 0.69426 0.75212 0.67791
 N735 N 0.69119 0.75215 0.64559
 N736 N 0.67034 0.75739 0.63283
   
