data_POSCAR
  _audit_creation_date              2014-09-24
  _audit_creation_method            'ToBaCCo'
  _symmetry_space_group_name_H-M    'P1'
  _symmetry_Int_Tables_number       1
  _symmetry_cell_setting            triclinic
  loop_
  _symmetry_equiv_pos_as_xyz
 x,y,z
_cell_length_a 33.7391
_cell_length_b 33.6671
_cell_length_c 60.4429
_cell_angle_alpha 89.631300
_cell_angle_beta 91.301400
_cell_angle_gamma 89.061800
loop_
  _atom_site_label
  _atom_site_type_symbol
  _atom_site_fract_x
  _atom_site_fract_y
  _atom_site_fract_z
C1 C -0.00044 0.58418 0.98013
 C2 C -0.00117 0.60436 1.00025
 C3 C -0.00217 0.58376 1.02037
 C4 C -0.00231 0.54172 1.02059
 C5 C -0.00175 0.52088 1.00025
 C6 C -0.00088 0.54216 0.97991
 C7 C -0.00049 0.52083 0.95996
 C8 C -0.00099 0.47950 0.95996
 C9 C -0.00178 0.45786 0.97991
 C10 C -0.00207 0.47868 1.00025
 C11 C -0.00302 0.51997 1.04054
 C12 C -0.00315 0.47863 1.04053
 C13 C -0.00270 0.45735 1.02057
 C14 C -0.00288 0.41531 1.02032
 C15 C -0.00275 0.39522 1.00016
 C16 C -0.00228 0.41590 0.98008
 H17 H 0.00016 0.53599 0.94412
 H18 H -0.00070 0.46462 0.94414
 H19 H -0.00342 0.53479 1.05638
 H20 H -0.00366 0.46343 1.05636
 H21 H -0.00097 0.63665 1.00026
 H22 H -0.00300 0.36296 1.00005
 C23 C 0.41817 0.00193 0.52056
 C24 C 0.39695 0.00180 0.50045
 C25 C 0.41641 0.00193 0.48031
 C26 C 0.45828 0.00210 0.48005
 C27 C 0.48018 0.00236 0.50037
 C28 C 0.46005 0.00235 0.52073
 C29 C 0.48230 0.00272 0.54068
 C30 C 0.52357 0.00307 0.54065
 C31 C 0.54419 0.00295 0.52065
 C32 C 0.52227 0.00256 0.50033
 C33 C 0.47879 0.00197 0.46006
 C34 C 0.52006 0.00201 0.46002
 C35 C 0.54236 0.00229 0.47996
 C36 C 0.58423 0.00227 0.48010
 C37 C 0.60552 0.00278 0.50017
 C38 C 0.58612 0.00318 0.52036
 H39 H 0.46796 0.00277 0.55652
 H40 H 0.53923 0.00336 0.55648
 H41 H 0.46307 0.00177 0.44425
 H42 H 0.53438 0.00185 0.44417
 H43 H 0.36477 0.00153 0.50048
 H44 H 0.63771 0.00281 0.50004
 C45 C 0.07220 0.00009 0.25950
 H46 H 0.07459 -0.00004 0.24168
 C47 C 0.10640 0.00179 0.27294
 H48 H 0.13528 0.00280 0.26550
 C49 C 0.03172 -0.00065 0.29107
 H50 H 0.00263 -0.00095 0.29813
 C51 C 0.06510 0.00106 0.30508
 H52 H 0.06156 0.00160 0.32285
 N53 N 0.03582 -0.00169 0.26873
 C54 C -0.04113 -0.05806 0.21953
 H55 H -0.06571 -0.03700 0.21907
 C56 C -0.04203 -0.09149 0.20599
 H57 H -0.06731 -0.09621 0.19500
 C58 C 0.02212 -0.07746 0.23419
 H59 H 0.04694 -0.07208 0.24528
 C60 C 0.02241 -0.11130 0.22092
 H61 H 0.04764 -0.13162 0.22166
 Zn62 Zn -0.00951 -0.00387 0.24968
 N63 N -0.00901 -0.05123 0.23291
 C64 C -0.00829 0.03623 0.20825
 N65 N -0.00863 0.04100 0.23060
 C66 C -0.00706 0.07777 0.23980
 C67 C -0.00631 0.11167 0.22634
 C68 C -0.00754 0.06928 0.19423
 C69 C -0.06214 -0.03541 0.27993
 C70 C -0.09506 -0.03637 0.29350
 C71 C -0.11626 0.02743 0.27851
 C72 C -0.08292 0.02721 0.26520
 N73 N -0.05624 -0.00355 0.26650
 H74 H -0.00842 0.00686 0.20122
 H75 H -0.00662 0.08070 0.25762
 H76 H -0.00545 0.14085 0.23377
 H77 H -0.00756 0.06521 0.17646
 H78 H -0.04074 -0.05970 0.28041
 H79 H -0.09903 -0.06141 0.30453
 H80 H -0.13693 0.05239 0.27774
 H81 H -0.07826 0.05181 0.25407
 C82 C -0.00977 -0.11811 0.20653
 C83 C 0.10276 0.00208 0.29594
 C84 C -0.12212 -0.00446 0.29294
 C85 C -0.00675 0.10732 0.20334
 C86 C 0.00618 0.08207 0.75956
 H87 H 0.00588 0.08514 0.74173
 C88 C 0.00451 0.11589 0.77284
 H89 H 0.00308 0.14513 0.76526
 C90 C 0.00798 0.04029 0.79133
 H91 H 0.00866 0.01087 0.79852
 C92 C 0.00631 0.07326 0.80517
 H93 H 0.00620 0.06905 0.82296
 N94 N 0.00848 0.04522 0.76896
 C95 C 0.06414 -0.03149 0.72022
 H96 H 0.04329 -0.05556 0.71985
 C97 C 0.09721 -0.03277 0.70675
 H98 H 0.10184 -0.05784 0.69591
 C99 C 0.08339 0.03088 0.73458
 H100 H 0.07809 0.05550 0.74554
 C101 C 0.11686 0.03077 0.72137
 H102 H 0.13698 0.05550 0.72203
 Zn103 Zn 0.01057 0.00044 0.75014
 N104 N 0.05741 0.00039 0.73342
 C105 C -0.03052 0.00411 0.70865
 N106 N -0.03471 0.00307 0.73100
 C107 C -0.07118 0.00508 0.74015
 C108 C -0.10537 0.00693 0.72664
 C109 C -0.06388 0.00598 0.69458
 C110 C 0.04324 -0.05418 0.78073
 C111 C 0.04482 -0.08773 0.79445
 C112 C -0.01894 -0.10695 0.77937
 C113 C -0.01934 -0.07302 0.76593
 N114 N 0.01111 -0.04702 0.76719
 H115 H -0.00138 0.00362 0.70165
 H116 H -0.07366 0.00494 0.75796
 H117 H -0.13431 0.00807 0.73404
 H118 H -0.06027 0.00645 0.67681
 H119 H 0.06728 -0.03331 0.78118
 H120 H 0.07008 -0.09271 0.80556
 H121 H -0.04364 -0.12709 0.77863
 H122 H -0.04416 -0.06738 0.75470
 C123 C 0.12356 -0.00116 0.70717
 C124 C 0.00477 0.11137 0.79586
 C125 C 0.01324 -0.11410 0.79392
 C126 C -0.10162 0.00717 0.70365
 C127 C -0.00321 -0.39441 0.03937
 C128 C -0.00425 -0.37439 0.05582
 C129 C -0.00562 -0.34950 0.07505
 C130 C 0.02667 -0.34862 0.08998
 C131 C 0.02611 -0.32278 0.10800
 C132 C -0.00680 -0.29745 0.11131
 C133 C -0.03938 -0.29907 0.09640
 C134 C -0.03874 -0.32489 0.07840
 C135 C -0.00665 -0.26838 0.12969
 C136 C -0.04129 -0.26058 0.14158
 C137 C -0.04163 -0.23157 0.15804
 C138 C -0.00740 -0.21005 0.16285
 C139 C 0.02737 -0.21807 0.15140
 C140 C 0.02780 -0.24706 0.13495
 C141 C -0.00836 -0.17851 0.17879
 C142 C -0.00907 -0.15135 0.19169
 H143 H 0.05246 -0.36755 0.08754
 H144 H 0.05144 -0.32256 0.11933
 H145 H -0.06489 -0.27957 0.09829
 H146 H -0.06380 -0.32518 0.06687
 H147 H -0.06813 -0.27683 0.13811
 H148 H -0.06872 -0.22558 0.16680
 H149 H 0.05397 -0.20142 0.15490
 H150 H 0.05475 -0.25195 0.12590
 C151 C -0.00303 0.39299 0.03931
 C152 C -0.00305 0.37244 0.05572
 C153 C -0.00298 0.34685 0.07488
 C154 C 0.03080 0.32393 0.08043
 C155 C 0.03024 0.29716 0.09818
 C156 C -0.00421 0.29289 0.11061
 C157 C -0.03780 0.31662 0.10515
 C158 C -0.03716 0.34340 0.08739
 C159 C -0.00554 0.26263 0.12856
 C160 C -0.03934 0.23918 0.13099
 C161 C -0.03984 0.20913 0.14703
 C162 C -0.00666 0.20212 0.16090
 C163 C 0.02685 0.22572 0.15890
 C164 C 0.02743 0.25580 0.14285
 C165 C -0.00648 0.16957 0.17645
 C166 C -0.00649 0.14156 0.18898
 H167 H 0.05734 0.32619 0.07076
 H168 H 0.05638 0.27894 0.10175
 H169 H -0.06460 0.31436 0.11457
 H170 H -0.06349 0.36100 0.08322
 H171 H -0.06496 0.24327 0.12005
 H172 H -0.06585 0.19087 0.14835
 H173 H 0.05271 0.22054 0.16955
 H174 H 0.05370 0.27365 0.14156
 C175 C 0.39579 0.00134 0.54065
 C176 C 0.37622 0.00068 0.55709
 C177 C 0.35184 -0.00028 0.57630
 C178 C 0.35052 0.03221 0.59061
 C179 C 0.32511 0.03207 0.60858
 C180 C 0.30066 -0.00062 0.61244
 C181 C 0.30271 -0.03339 0.59815
 C182 C 0.32811 -0.03317 0.58021
 C183 C 0.27202 -0.00002 0.63075
 C184 C 0.26526 -0.03455 0.64327
 C185 C 0.23663 -0.03447 0.65965
 C186 C 0.21445 0.00008 0.66374
 C187 C 0.22143 0.03475 0.65166
 C188 C 0.25004 0.03475 0.63529
 C189 C 0.18328 -0.00045 0.67960
 C190 C 0.15644 -0.00083 0.69243
 H191 H 0.36877 0.05783 0.58773
 H192 H 0.32454 0.05753 0.61942
 H193 H 0.28387 -0.05874 0.60048
 H194 H 0.32873 -0.05838 0.56916
 H195 H 0.28203 -0.06163 0.64036
 H196 H 0.23145 -0.06149 0.66890
 H197 H 0.20425 0.06159 0.65460
 H198 H 0.25412 0.06164 0.62574
 C199 C -0.39101 0.00370 0.53933
 C200 C -0.37004 0.00415 0.55575
 C201 C -0.34399 0.00466 0.57492
 C202 C -0.32236 -0.02960 0.58110
 C203 C -0.29519 -0.02862 0.59888
 C204 C -0.28922 0.00674 0.61071
 C205 C -0.31164 0.04085 0.60460
 C206 C -0.33883 0.03979 0.58681
 C207 C -0.25859 0.00832 0.62872
 C208 C -0.23369 0.04131 0.63063
 C209 C -0.20329 0.04184 0.64673
 C210 C -0.19742 0.00950 0.66115
 C211 C -0.22249 -0.02313 0.65967
 C212 C -0.25290 -0.02374 0.64358
 C213 C -0.16448 0.00902 0.67670
 C214 C -0.13618 0.00834 0.68925
 H215 H -0.32594 -0.05689 0.57192
 H216 H -0.27800 -0.05522 0.60295
 H217 H -0.30806 0.06838 0.61354
 H218 H -0.35541 0.06650 0.58215
 H219 H -0.23692 0.06619 0.61926
 H220 H -0.18389 0.06714 0.64763
 H221 H -0.21817 -0.04834 0.67075
 H222 H -0.27188 -0.04933 0.64269
 C223 C 0.00073 -0.39361 0.96114
 C224 C 0.00182 -0.37326 0.94467
 C225 C 0.00317 -0.34804 0.92541
 C226 C 0.03860 -0.34401 0.91406
 C227 C 0.04047 -0.31773 0.89612
 C228 C 0.00689 -0.29509 0.88931
 C229 C -0.02876 -0.29988 0.90060
 C230 C -0.03055 -0.32615 0.91854
 C231 C 0.00931 -0.26551 0.87107
 C232 C -0.02224 -0.26028 0.85564
 C233 C -0.02073 -0.23095 0.83920
 C234 C 0.01232 -0.20652 0.83795
 C235 C 0.04412 -0.21191 0.85299
 C236 C 0.04269 -0.24122 0.86942
 C237 C 0.01289 -0.17476 0.82192
 C238 C 0.01317 -0.14747 0.80892
 H239 H 0.06489 -0.36081 0.91925
 H240 H 0.06820 -0.31505 0.88760
 H241 H -0.05497 -0.28249 0.89598
 H242 H -0.05806 -0.32887 0.92729
 H243 H -0.04812 -0.27881 0.85631
 H244 H -0.04553 -0.22701 0.82765
 H245 H 0.06974 -0.19299 0.85226
 H246 H 0.06720 -0.24410 0.88123
 C247 C -0.00248 0.39285 0.95999
 C248 C -0.00276 0.37268 0.94359
 C249 C -0.00317 0.34752 0.92443
 C250 C 0.02831 0.34797 0.90976
 C251 C 0.02890 0.32178 0.89189
 C252 C -0.00202 0.29476 0.88850
 C253 C -0.03387 0.29507 0.90314
 C254 C -0.03438 0.32125 0.92099
 C255 C -0.00039 0.26524 0.87037
 C256 C -0.03493 0.25527 0.85829
 C257 C -0.03374 0.22567 0.84218
 C258 C 0.00196 0.20570 0.83791
 C259 C 0.03661 0.21593 0.84953
 C260 C 0.03550 0.24552 0.86563
 C261 C 0.00273 0.17336 0.82247
 C262 C 0.00355 0.14550 0.81005
 H263 H 0.05263 0.36818 0.91229
 H264 H 0.05359 0.32257 0.88077
 H265 H -0.05781 0.27427 0.90119
 H266 H -0.05878 0.32049 0.93233
 H267 H -0.06289 0.27025 0.86136
 H268 H -0.06075 0.21796 0.83329
 H269 H 0.06435 0.20048 0.84646
 H270 H 0.06247 0.25208 0.87485
 C271 C -0.39342 0.00144 0.45998
 C272 C -0.37391 0.00059 0.44353
 C273 C -0.34961 -0.00057 0.42428
 C274 C -0.32629 -0.03432 0.42009
 C275 C -0.30095 -0.03482 0.40212
 C276 C -0.29855 -0.00147 0.38809
 C277 C -0.32261 0.03209 0.39222
 C278 C -0.34796 0.03251 0.41022
 C279 C -0.26994 -0.00124 0.36977
 C280 C -0.24761 0.03279 0.36548
 C281 C -0.21910 0.03236 0.34906
 C282 C -0.21255 -0.00199 0.33667
 C283 C -0.23506 -0.03579 0.34053
 C284 C -0.26359 -0.03544 0.35696
 C285 C -0.18154 -0.00302 0.32072
 C286 C -0.15484 -0.00376 0.30780
 H287 H -0.32717 -0.06001 0.43095
 H288 H -0.28242 -0.06088 0.39959
 H289 H -0.32177 0.05803 0.38157
 H290 H -0.36589 0.05880 0.41331
 H291 H -0.25136 0.05937 0.37525
 H292 H -0.20167 0.05861 0.34630
 H293 H -0.23021 -0.06255 0.33104
 H294 H -0.28063 -0.06193 0.35968
 C295 C 0.39226 0.00187 0.46026
 C296 C 0.37125 0.00183 0.44386
 C297 C 0.34517 0.00179 0.42469
 C298 C 0.32403 -0.03237 0.41934
 C299 C 0.29685 -0.03184 0.40154
 C300 C 0.29038 0.00296 0.38885
 C301 C 0.31232 0.03696 0.39413
 C302 C 0.33951 0.03635 0.41194
 C303 C 0.25974 0.00415 0.37081
 C304 C 0.23436 0.03750 0.36809
 C305 C 0.20397 0.03774 0.35198
 C306 C 0.19857 0.00475 0.33834
 C307 C 0.22411 -0.02827 0.34063
 C308 C 0.25452 -0.02859 0.35674
 C309 C 0.16564 0.00406 0.32281
 C310 C 0.13734 0.00328 0.31028
 H311 H 0.32800 -0.05921 0.42919
 H312 H 0.28004 -0.05832 0.39812
 H313 H 0.30835 0.06404 0.38452
 H314 H 0.35572 0.06297 0.41595
 H315 H 0.23722 0.06292 0.37885
 H316 H 0.18420 0.06335 0.35045
 H317 H 0.22016 -0.05399 0.33017
 H318 H 0.27386 -0.05450 0.35825
   
