data_POSCAR
  _audit_creation_date              2014-09-24
  _audit_creation_method            'ToBaCCo'
  _symmetry_space_group_name_H-M    'P1'
  _symmetry_Int_Tables_number       1
  _symmetry_cell_setting            triclinic
  loop_
  _symmetry_equiv_pos_as_xyz
 x,y,z
_cell_length_a 30.5378
_cell_length_b 28.3521
_cell_length_c 30.3790
_cell_angle_alpha 90.666600
_cell_angle_beta 87.514800
_cell_angle_gamma 88.638900
loop_
  _atom_site_label
  _atom_site_type_symbol
  _atom_site_fract_x
  _atom_site_fract_y
  _atom_site_fract_z
N1 N 0.53060 0.65212 0.59696
 N2 N 0.52603 0.62214 0.62943
 C3 C 0.49161 0.63599 0.65598
 C4 C 0.47322 0.67630 0.63872
 C5 C 0.49853 0.68553 0.60111
 H6 H 0.48107 0.61839 0.68588
 H7 H 0.49508 0.71534 0.57952
 Cu8 Cu 0.56580 0.56831 0.63452
 Cu9 Cu 0.57958 0.64687 0.55378
 Cu10 Cu 0.66521 0.57255 0.58356
 N11 N 0.61388 0.52791 0.65192
 N12 N 0.65339 0.53149 0.63348
 C13 C 0.68133 0.50282 0.65424
 C14 C 0.65784 0.47982 0.68711
 C15 C 0.61505 0.49633 0.68460
 H16 H 0.71607 0.49895 0.64605
 H17 H 0.58724 0.48746 0.70592
 N18 N 0.67013 0.61645 0.53383
 N19 N 0.63805 0.64585 0.52354
 C20 C 0.65228 0.67323 0.49019
 C21 C 0.69486 0.65953 0.47838
 C22 C 0.70516 0.62339 0.50640
 H23 H 0.63305 0.70086 0.47538
 H24 H 0.73628 0.60452 0.50739
 H25 H 0.60275 0.57769 0.56175
 H26 H 0.61780 0.62315 0.60288
 N27 N 0.97149 0.32624 0.08123
 N28 N 0.98010 0.35430 0.11438
 C29 C 1.01990 0.34228 0.12901
 C30 C 1.03722 0.30556 0.10268
 C31 C 1.00584 0.29666 0.07251
 H32 H 1.03503 0.35883 0.15659
 H33 H 1.00666 0.26870 0.04791
 Cu34 Cu 0.93758 0.40324 0.13462
 Cu35 Cu 0.91362 0.32414 0.05731
 Cu36 Cu 0.85610 0.43017 0.06702
 N37 N 0.89642 0.45574 0.14759
 N38 N 0.86394 0.46486 0.12165
 C39 C 0.83903 0.50073 0.13900
 C40 C 0.85705 0.51521 0.17759
 C41 C 0.89360 0.48619 0.18211
 H42 H 0.80974 0.51494 0.12476
 H43 H 0.91542 0.48620 0.20922
 N44 N 0.84181 0.38022 0.02469
 N45 N 0.86223 0.33866 0.02309
 C46 C 0.84217 0.31015 -0.00497
 C47 C 0.80776 0.33517 -0.02218
 C48 C 0.80847 0.37955 -0.00293
 H49 H 0.85169 0.27379 -0.01217
 H50 H 0.78517 0.40832 -0.00705
 H51 H 0.91686 0.39479 0.05819
 H52 H 0.87511 0.37068 0.09815
 N53 N 0.46074 0.14996 -0.09651
 N54 N 0.46253 0.12479 -0.13322
 C55 C 0.49094 0.14420 -0.16239
 C56 C 0.50846 0.18307 -0.14263
 C57 C 0.48883 0.18574 -0.10076
 H58 H 0.49840 0.13099 -0.19548
 H59 H 0.49370 0.21244 -0.07585
 Cu60 Cu 0.42810 0.06888 -0.13999
 Cu61 Cu 0.42004 0.13579 -0.04735
 Cu62 Cu 0.34704 0.04672 -0.06570
 N63 N 0.38192 0.02590 -0.15312
 N64 N 0.34902 0.01903 -0.12476
 C65 C 0.32016 -0.00945 -0.14333
 C66 C 0.33637 -0.02151 -0.18521
 C67 C 0.37567 0.00127 -0.19037
 H68 H 0.28993 -0.02095 -0.12747
 H69 H 0.39742 0.00101 -0.21945
 N70 N 0.35036 0.07941 -0.00847
 N71 N 0.37625 0.11533 -0.00216
 C72 C 0.36738 0.13349 0.03859
 C73 C 0.33544 0.10672 0.05899
 C74 C 0.32544 0.07279 0.02845
 H75 H 0.38267 0.16402 0.05232
 H76 H 0.30019 0.04686 0.03219
 H77 H 0.41233 0.06509 -0.06085
 H78 H 0.37549 0.10792 -0.08887
 N79 N 0.03167 0.85594 0.39061
 N80 N 0.02930 0.88479 0.35719
 C81 C 0.00179 0.86725 0.32801
 C82 C -0.01479 0.82586 0.34477
 C83 C 0.00455 0.81987 0.38475
 H84 H -0.00649 0.88393 0.29752
 H85 H 0.00023 0.79093 0.40731
 Cu86 Cu 0.05974 0.94421 0.35723
 Cu87 Cu 0.07138 0.86683 0.43795
 Cu88 Cu 0.15061 0.95042 0.41428
 N89 N 0.09220 1.00217 0.36015
 N90 N 0.12957 1.00357 0.38004
 C91 C 0.14875 1.04494 0.37122
 C92 C 0.12105 1.07122 0.34574
 C93 C 0.08554 1.04315 0.33933
 H94 H 0.18067 1.05476 0.38186
 H95 H 0.05844 1.05085 0.31858
 N96 N 0.15596 0.90323 0.46119
 N97 N 0.12601 0.87133 0.46969
 C98 C 0.14014 0.84248 0.50121
 C99 C 0.18035 0.85760 0.51382
 C100 C 0.18942 0.89634 0.48811
 H101 H 0.12273 0.81230 0.51367
 H102 H 0.21881 0.91689 0.48798
 H103 H 0.08735 0.93834 0.43124
 H104 H 0.11373 0.89397 0.39207
 C105 C 0.16284 0.22191 0.16211
 C106 C 0.14877 0.21201 0.20552
 C107 C 0.17264 0.18025 0.23108
 C108 C 0.21262 0.16091 0.21344
 C109 C 0.22753 0.17113 0.17029
 C110 C 0.20243 0.20186 0.14500
 H111 H 0.11708 0.22553 0.21782
 H112 H 0.23144 0.13623 0.23234
 H113 H 0.21189 0.20778 0.11082
 C114 C 0.35116 0.79336 0.66529
 C115 C 0.34618 0.82955 0.69699
 C116 C 0.31248 0.86376 0.69457
 C117 C 0.28358 0.86158 0.66000
 C118 C 0.28826 0.82541 0.62804
 C119 C 0.32218 0.79146 0.63079
 H120 H 0.36799 0.83040 0.72415
 H121 H 0.25689 0.88727 0.65860
 H122 H 0.32531 0.76294 0.60674
 C123 C 0.87402 0.70863 0.32001
 C124 C 0.84278 0.71362 0.35509
 C125 C 0.80821 0.68222 0.35941
 C126 C 0.80503 0.64550 0.32853
 C127 C 0.83592 0.64027 0.29318
 C128 C 0.87049 0.67193 0.28908
 H129 H 0.84469 0.74269 0.37833
 H130 H 0.77772 0.62187 0.33121
 H131 H 0.89380 0.66895 0.26123
 C132 C 0.62728 0.29746 -0.16898
 C133 C 0.65674 0.29107 -0.13524
 C134 C 0.69332 0.31980 -0.13242
 C135 C 0.70027 0.35527 -0.16363
 C136 C 0.67108 0.36202 -0.19750
 C137 C 0.63460 0.33306 -0.19991
 H138 H 0.65196 0.26295 -0.11184
 H139 H 0.72896 0.37688 -0.16226
 H140 H 0.61249 0.33733 -0.22656
 N141 N 0.12700 0.22766 0.09274
 N142 N 0.09234 0.24852 0.07607
 C143 C 0.07614 0.27976 0.10671
 C144 C 0.10210 0.27759 0.14280
 N145 N 0.13334 0.24430 0.13282
 H146 H 0.09701 0.29581 0.17419
 N147 N 0.39217 0.73631 0.70756
 N148 N 0.42419 0.70423 0.70161
 C149 C 0.43689 0.70513 0.65858
 C150 C 0.41153 0.73852 0.63814
 N151 N 0.38405 0.75709 0.66988
 H152 H 0.41321 0.74875 0.60390
 N153 N 0.91291 0.76815 0.27774
 N154 N 0.94204 0.80128 0.28377
 C155 C 0.95517 0.79680 0.32539
 C156 C 0.93313 0.75998 0.34478
 N157 N 0.90714 0.74313 0.31396
 H158 H 0.93461 0.74762 0.37829
 N159 N 0.57822 0.25118 -0.21245
 N160 N 0.54689 0.22004 -0.20678
 C161 C 0.54020 0.21513 -0.16294
 C162 C 0.56848 0.24404 -0.14180
 N163 N 0.59173 0.26586 -0.17389
 H164 H 0.57218 0.24828 -0.10670
 N165 N 0.11522 0.17964 0.28951
 N166 N 0.10014 0.15124 0.32067
 C167 C 0.12985 0.11568 0.32335
 C168 C 0.16341 0.12288 0.29259
 N169 N 0.15310 0.16322 0.27184
 H170 H 0.18973 0.09813 0.28309
 N171 N 0.71960 0.40590 -0.24714
 N172 N 0.71713 0.43712 -0.27913
 C173 C 0.67421 0.44782 -0.28296
 C174 C 0.65037 0.42213 -0.25245
 N175 N 0.67990 0.39637 -0.23084
 H176 H 0.61515 0.42191 -0.24666
 N177 N 0.26758 0.91107 0.74768
 N178 N 0.27268 0.94103 0.78081
 C179 C 0.31608 0.94811 0.78248
 C180 C 0.33749 0.92159 0.74958
 N181 N 0.30612 0.89894 0.72866
 H182 H 0.37244 0.91827 0.74218
 N183 N 0.79134 0.59684 0.24298
 N184 N 0.79580 0.56418 0.21150
 C185 C 0.83863 0.55139 0.20844
 C186 C 0.86049 0.57741 0.23884
 N187 N 0.82974 0.60537 0.25966
 H188 H 0.89513 0.57628 0.24512
 N189 N 0.27407 0.10058 0.16040
 N190 N 0.30295 0.08174 0.13107
 C191 C 0.31217 0.11553 0.10153
 C192 C 0.28778 0.15551 0.11330
 N193 N 0.26416 0.14477 0.15020
 H194 H 0.28495 0.18772 0.09476
 N195 N 0.75294 0.73026 0.40051
 N196 N 0.72150 0.72535 0.43148
 C197 C 0.72363 0.67997 0.44417
 C198 C 0.75711 0.65708 0.42001
 N199 N 0.77454 0.68969 0.39319
 H200 H 0.76742 0.62033 0.42131
 N201 N 0.73649 0.26808 -0.08664
 N202 N 0.76760 0.27070 -0.05771
 C203 C 0.77561 0.31688 -0.05210
 C204 C 0.74862 0.34259 -0.07854
 N205 N 0.72477 0.31080 -0.09961
 H206 H 0.74663 0.38051 -0.08224
 N207 N 0.23795 0.78102 0.58450
 N208 N 0.20823 0.78839 0.55468
 C209 C 0.20854 0.83481 0.54560
 C210 C 0.23918 0.85586 0.57090
 N211 N 0.25674 0.82106 0.59472
 H212 H 0.24753 0.89274 0.57227
   
