data_POSCAR
  _audit_creation_date              2014-09-24
  _audit_creation_method            'ToBaCCo'
  _symmetry_space_group_name_H-M    'P1'
  _symmetry_Int_Tables_number       1
  _symmetry_cell_setting            triclinic
  loop_
  _symmetry_equiv_pos_as_xyz
 x,y,z
_cell_length_a 26.5467
_cell_length_b 26.5467
_cell_length_c 34.7728
_cell_angle_alpha 89.885300
_cell_angle_beta 90.114800
_cell_angle_gamma 90.091200
loop_
  _atom_site_label
  _atom_site_type_symbol
  _atom_site_fract_x
  _atom_site_fract_y
  _atom_site_fract_z
O1 O 0.04206 0.54966 1.03622
 O2 O 0.04201 0.45195 0.96164
 O3 O 0.04028 0.55030 0.96150
 O4 O 0.04049 0.45134 1.03637
 O5 O -0.04281 0.45163 1.03622
 O6 O -0.04301 0.54961 0.96155
 O7 O -0.04129 0.45126 0.96150
 O8 O -0.04124 0.54995 1.03628
 Cu9 Cu 0.04960 0.50083 0.99893
 Cu10 Cu -0.05048 0.50059 0.99888
 C11 C 0.00060 0.56659 1.04869
 C12 C 0.00054 0.43480 0.94915
 C13 C -0.00159 0.56682 0.94908
 C14 C -0.00131 0.43464 1.04874
 O15 O 0.54960 -0.04301 0.53831
 O16 O 0.45162 -0.04280 0.46365
 O17 O 0.54994 -0.04123 0.46359
 O18 O 0.45125 -0.04128 0.53837
 O19 O 0.45194 0.04202 0.53823
 O20 O 0.54965 0.04207 0.46365
 O21 O 0.45133 0.04050 0.46350
 O22 O 0.55029 0.04029 0.53837
 Cu23 Cu 0.50058 -0.05047 0.50099
 Cu24 Cu 0.50082 0.04961 0.50094
 C25 C 0.56681 -0.00158 0.55078
 C26 C 0.43463 -0.00130 0.45112
 C27 C 0.56658 0.00061 0.45118
 C28 C 0.43479 0.00054 0.55072
 C29 C -0.06616 0.01050 0.26750
 C30 C -0.01951 0.01971 0.24994
 C31 C -0.01040 0.06646 0.23240
 C32 C -0.04785 0.10354 0.23201
 C33 C -0.09420 0.09441 0.24998
 C34 C -0.10323 0.04795 0.26792
 C35 C 0.01970 -0.01950 0.24993
 C36 C 0.01049 -0.06615 0.23236
 C37 C 0.04794 -0.10322 0.23194
 C38 C 0.09440 -0.09419 0.24989
 C39 C 0.10353 -0.04784 0.26785
 C40 C 0.06645 -0.01039 0.26747
 H41 H -0.07316 -0.02542 0.28142
 H42 H 0.02543 0.07355 0.21846
 H43 H -0.02543 -0.07315 0.21844
 H44 H 0.07354 0.02544 0.28140
 H45 H -0.12306 0.12327 0.24999
 H46 H 0.12326 -0.12305 0.24988
 C47 C -0.01073 -0.06668 0.76739
 C48 C -0.01990 -0.01989 0.74993
 C49 C -0.06669 -0.01072 0.73248
 C50 C -0.10383 -0.04823 0.73208
 C51 C -0.09472 -0.09471 0.74993
 C52 C -0.04824 -0.10382 0.76779
 C53 C 0.01938 0.01939 0.74993
 C54 C 0.06619 0.01019 0.73269
 C55 C 0.10333 0.04770 0.73228
 C56 C 0.09419 0.09420 0.74993
 C57 C 0.04769 0.10334 0.76758
 C58 C 0.01018 0.06620 0.76718
 H59 H 0.02521 -0.07375 0.78125
 H60 H -0.07376 0.02522 0.71861
 H61 H 0.07327 -0.02576 0.71898
 H62 H -0.02577 0.07328 0.78088
 H63 H -0.12363 -0.12362 0.74993
 H64 H 0.12310 0.12311 0.74993
 C65 C 0.00152 -0.39381 0.07668
 C66 C 0.00403 -0.35969 0.09943
 C67 C 0.00879 -0.31804 0.12562
 C68 C -0.02596 -0.27841 0.12435
 C69 C -0.01905 -0.23609 0.14769
 C70 C 0.02265 -0.23321 0.17237
 C71 C 0.05693 -0.27322 0.17413
 C72 C 0.05001 -0.31554 0.15079
 C73 C 0.03149 -0.18822 0.19441
 C74 C 0.03905 -0.14985 0.21199
 H75 H -0.05777 -0.27978 0.10481
 H76 H -0.04566 -0.20526 0.14597
 H77 H 0.08942 -0.27129 0.19297
 H78 H 0.07731 -0.34582 0.15182
 C79 C -0.00212 0.39493 0.07676
 C80 C -0.00455 0.36072 0.09953
 C81 C -0.00922 0.31894 0.12573
 C82 C -0.05046 0.31622 0.15075
 C83 C -0.05727 0.27378 0.17409
 C84 C -0.02287 0.23388 0.17248
 C85 C 0.01886 0.23699 0.14796
 C86 C 0.02566 0.27942 0.12462
 C87 C -0.03160 0.18876 0.19451
 C88 C -0.03907 0.15029 0.21208
 H89 H -0.07784 0.34641 0.15165
 H90 H -0.08978 0.27167 0.19281
 H91 H 0.04556 0.20624 0.14636
 H92 H 0.05748 0.28097 0.10519
 C93 C 0.39510 0.00142 0.57863
 C94 C 0.36087 0.00391 0.60128
 C95 C 0.31906 0.00863 0.62729
 C96 C 0.31629 0.05007 0.65211
 C97 C 0.27378 0.05695 0.67521
 C98 C 0.23386 0.02244 0.67357
 C99 C 0.23702 -0.01947 0.64926
 C100 C 0.27952 -0.02635 0.62616
 C101 C 0.18867 0.03126 0.69532
 C102 C 0.15014 0.03881 0.71265
 H103 H 0.34649 0.07755 0.65302
 H104 H 0.27163 0.08962 0.69376
 H105 H 0.20627 -0.04627 0.64764
 H106 H 0.28111 -0.05833 0.60688
 C107 C -0.39555 -0.00245 0.57724
 C108 C -0.36131 -0.00482 0.60000
 C109 C -0.31950 -0.00944 0.62617
 C110 C -0.27984 0.02540 0.62483
 C111 C -0.23735 0.01860 0.64811
 C112 C -0.23432 -0.02309 0.67279
 C113 C -0.27435 -0.05744 0.67463
 C114 C -0.31685 -0.05063 0.65136
 C115 C -0.18914 -0.03185 0.69473
 C116 C -0.15062 -0.03937 0.71223
 H117 H -0.28133 0.05719 0.60527
 H118 H -0.20650 0.04527 0.64633
 H119 H -0.27230 -0.08993 0.69347
 H120 H -0.34715 -0.07800 0.65243
 C121 C -0.00246 -0.39554 0.92263
 C122 C -0.00483 -0.36130 0.89987
 C123 C -0.00945 -0.31949 0.87370
 C124 C -0.05064 -0.31684 0.84851
 C125 C -0.05745 -0.27434 0.82524
 C126 C -0.02310 -0.23431 0.82708
 C127 C 0.01859 -0.23734 0.85176
 C128 C 0.02539 -0.27984 0.87503
 C129 C -0.03186 -0.18913 0.80514
 C130 C -0.03938 -0.15061 0.78764
 H131 H -0.07801 -0.34714 0.84744
 H132 H -0.08994 -0.27229 0.80639
 H133 H 0.04526 -0.20649 0.85354
 H134 H 0.05718 -0.28132 0.89459
 C135 C 0.00141 0.39511 0.92123
 C136 C 0.00390 0.36088 0.89859
 C137 C 0.00863 0.31907 0.87257
 C138 C -0.02636 0.27953 0.87371
 C139 C -0.01948 0.23703 0.85060
 C140 C 0.02243 0.23387 0.82630
 C141 C 0.05695 0.27379 0.82466
 C142 C 0.05006 0.31630 0.84776
 C143 C 0.03125 0.18868 0.80455
 C144 C 0.03880 0.15015 0.78722
 H145 H -0.05834 0.28112 0.89298
 H146 H -0.04628 0.20628 0.85223
 H147 H 0.08961 0.27164 0.80611
 H148 H 0.07754 0.34649 0.84685
 C149 C -0.39382 0.00153 0.42319
 C150 C -0.35970 0.00404 0.40044
 C151 C -0.31805 0.00880 0.37425
 C152 C -0.31555 0.05002 0.34907
 C153 C -0.27323 0.05694 0.32574
 C154 C -0.23322 0.02266 0.32750
 C155 C -0.23610 -0.01904 0.35218
 C156 C -0.27842 -0.02595 0.37552
 C157 C -0.18823 0.03150 0.30546
 C158 C -0.14986 0.03906 0.28787
 H159 H -0.34583 0.07732 0.34805
 H160 H -0.27130 0.08943 0.30690
 H161 H -0.20527 -0.04565 0.35389
 H162 H -0.27979 -0.05776 0.39506
 C163 C 0.39492 -0.00211 0.42311
 C164 C 0.36071 -0.00454 0.40034
 C165 C 0.31893 -0.00921 0.37414
 C166 C 0.31621 -0.05045 0.34911
 C167 C 0.27377 -0.05726 0.32578
 C168 C 0.23387 -0.02286 0.32739
 C169 C 0.23698 0.01887 0.35191
 C170 C 0.27941 0.02567 0.37525
 C171 C 0.18875 -0.03159 0.30536
 C172 C 0.15028 -0.03906 0.28779
 H173 H 0.34640 -0.07783 0.34821
 H174 H 0.27166 -0.08977 0.30706
 H175 H 0.20623 0.04557 0.35351
 H176 H 0.28096 0.05749 0.39468
   
