data_POSCAR
  _audit_creation_date              2014-09-24
  _audit_creation_method            'ToBaCCo'
  _symmetry_space_group_name_H-M    'P1'
  _symmetry_Int_Tables_number       1
  _symmetry_cell_setting            triclinic
  loop_
  _symmetry_equiv_pos_as_xyz
 x,y,z
_cell_length_a 21.0285
_cell_length_b 28.3018
_cell_length_c 20.4330
_cell_angle_alpha 90.192500
_cell_angle_beta 89.929600
_cell_angle_gamma 90.062900
loop_
  _atom_site_label
  _atom_site_type_symbol
  _atom_site_fract_x
  _atom_site_fract_y
  _atom_site_fract_z
Si1 Si 1.25132 0.25038 0.24627
 Si2 Si 0.75053 -0.25021 0.24780
 Si3 Si 0.75144 0.24971 -0.25389
 Si4 Si 1.24995 -0.24983 -0.25142
 Si5 Si 0.24944 0.25027 0.75302
 Si6 Si 0.75032 0.75073 0.75117
 Si7 Si 0.75027 0.25068 0.25384
 Si8 Si 0.25139 0.75036 0.25107
 O9 O 0.89418 -0.07003 -0.11715
 O10 O 0.95525 -0.12092 -0.05628
 C11 C 0.91212 -0.11202 -0.10000
 O12 O 1.12140 0.06814 -0.10215
 O13 O 1.05201 0.11980 -0.05277
 C14 C 1.10079 0.11038 -0.08952
 O15 O 1.12025 -0.06342 -0.11026
 O16 O 1.06310 -0.11799 -0.05149
 C17 C 1.10607 -0.10644 -0.09420
 O18 O 0.88395 0.06133 -0.11505
 O19 O 0.93977 0.11653 -0.05582
 C20 C 0.89728 0.10460 -0.09891
 Zr21 Zr 0.92341 -0.00305 -0.08276
 O22 O 0.92976 0.00067 -0.18607
 O23 O 0.82328 -0.00978 -0.08815
 Zr24 Zr 1.08233 0.00168 -0.07868
 O25 O 1.07569 0.00635 -0.18195
 O26 O 1.18234 0.00195 -0.08889
 O27 O 1.00553 -0.04353 -0.09327
 O28 O 1.00115 0.04097 -0.09314
 O29 O 0.87688 0.06261 0.10965
 O30 O 0.93709 0.11721 0.05436
 C31 C 0.89185 0.10571 0.09457
 O32 O 1.11134 -0.06215 0.12550
 O33 O 1.05934 -0.11713 0.06227
 C34 C 1.09850 -0.10546 0.10881
 O35 O 1.11320 0.06971 0.11411
 O36 O 1.04891 0.12049 0.05687
 C37 C 1.09470 0.11164 0.09736
 O38 O 0.88785 -0.06843 0.11564
 O39 O 0.95151 -0.12001 0.05826
 C40 C 0.90666 -0.11057 0.09989
 Zr41 Zr 0.91950 -0.00197 0.08259
 O42 O 0.92815 0.00011 0.18555
 O43 O 0.81934 -0.00551 0.09065
 Zr44 Zr 1.07840 0.00259 0.08661
 O45 O 1.07255 0.00894 0.18974
 O46 O 1.17886 0.00027 0.09228
 Zr47 Zr 1.00481 -0.07124 0.00252
 Zr48 Zr 0.99697 0.07087 0.00117
 O49 O 0.99644 0.04219 0.09613
 O50 O 1.00067 -0.04229 0.09771
 O51 O 0.90626 0.03906 -0.00082
 O52 O 1.09468 -0.03849 0.00479
 O53 O 0.91177 -0.04381 -0.00005
 O54 O 1.09080 0.04433 0.00393
 H55 H 1.00148 0.06257 -0.13122
 H56 H 1.13344 -0.05828 0.00684
 H57 H 0.99451 0.06410 0.13402
 H58 H 0.87487 -0.06557 -0.00111
 H59 H 1.20014 -0.00218 -0.04458
 H60 H 1.19564 0.02329 0.06026
 H61 H 1.04684 -0.01793 0.20588
 H62 H 0.88415 -0.00010 0.20292
 H63 H 0.80285 -0.01390 0.04690
 H64 H 0.80476 0.01369 -0.05761
 H65 H 0.95283 -0.02773 -0.20146
 H66 H 1.06554 -0.02554 -0.19905
 O67 O 1.10825 0.43914 0.62570
 O68 O 1.05846 0.38419 0.56049
 C69 C 1.09633 0.39596 0.60799
 O70 O 0.87701 0.56458 0.60388
 O71 O 0.93816 0.61911 0.54942
 C72 C 0.89235 0.60764 0.58905
 O73 O 0.88644 0.43317 0.61010
 O74 O 0.95184 0.38154 0.55503
 C75 C 0.90593 0.39093 0.59559
 O76 O 1.10587 0.57074 0.62140
 O77 O 1.05008 0.62161 0.55543
 C78 C 1.08990 0.61268 0.60216
 Zr79 Zr 1.07733 0.50403 0.58610
 O80 O 1.07195 0.50702 0.68947
 O81 O 1.17779 0.51024 0.59003
 Zr82 Zr 0.91814 0.49955 0.57613
 O83 O 0.91888 0.50182 0.67952
 O84 O 0.81780 0.49341 0.57350
 O85 O 0.99891 0.45941 0.59434
 O86 O 0.99484 0.54330 0.59258
 O87 O 1.12540 0.56993 0.39593
 O88 O 1.05615 0.62155 0.44569
 C89 C 1.10522 0.61227 0.40898
 O90 O 0.89830 0.43108 0.37825
 O91 O 0.95790 0.38024 0.44058
 C92 C 0.91549 0.38908 0.39621
 O93 O 0.88679 0.56235 0.38156
 O94 O 0.94319 0.61779 0.43979
 C95 C 0.90033 0.60561 0.39733
 O96 O 1.12332 0.43836 0.38740
 O97 O 1.06478 0.38395 0.44501
 C98 C 1.10800 0.39535 0.40250
 Zr99 Zr 1.08742 0.50331 0.42171
 O100 O 1.09127 0.50865 0.31842
 O101 O 1.18787 0.50128 0.42628
 Zr102 Zr 0.92855 0.49838 0.41119
 O103 O 0.94406 0.50234 0.30888
 O104 O 0.82986 0.49352 0.39305
 Zr105 Zr 1.00614 0.43025 0.49959
 Zr106 Zr 0.99909 0.57239 0.49796
 O107 O 1.00651 0.54250 0.40388
 O108 O 1.01078 0.45813 0.40397
 O109 O 1.09266 0.54621 0.50440
 O110 O 0.91336 0.45774 0.49358
 O111 O 1.09619 0.46253 0.50499
 O112 O 0.90843 0.54057 0.49246
 H113 H 0.99120 0.56450 0.63110
 H114 H 0.87625 0.43618 0.49232
 H115 H 1.00774 0.56417 0.36590
 H116 H 1.13420 0.44200 0.50705
 H117 H 0.80202 0.51657 0.54119
 H118 H 0.80896 0.49058 0.43617
 H119 H 0.95690 0.47058 0.29340
 H120 H 1.06877 0.48091 0.30005
 H121 H 1.20058 0.51998 0.46512
 H122 H 1.19710 0.47973 0.57722
 H123 H 1.03726 0.48555 0.70315
 H124 H 0.87373 0.50115 0.69341
 O125 O 0.60643 -0.06264 0.62265
 O126 O 0.55528 -0.11763 0.55861
 C127 C 0.59425 -0.10581 0.60522
 O128 O 0.37156 0.06294 0.60311
 O129 O 0.43397 0.11744 0.55019
 C130 C 0.38762 0.10604 0.58914
 O131 O 0.38070 -0.06823 0.60819
 O132 O 0.44714 -0.11993 0.55449
 C133 C 0.40049 -0.11042 0.59400
 O134 O 0.61095 0.06863 0.61158
 O135 O 0.54662 0.12015 0.55579
 C136 C 0.59266 0.11088 0.59602
 Zr137 Zr 0.57241 0.00220 0.58629
 O138 O 0.55763 0.00811 0.68859
 O139 O 0.67125 0.00137 0.60470
 Zr140 Zr 0.41399 -0.00186 0.57654
 O141 O 0.41917 -0.00045 0.67978
 O142 O 0.31351 -0.00416 0.58056
 O143 O 0.49434 -0.04261 0.59442
 O144 O 0.49076 0.04218 0.59324
 O145 O 0.61937 0.06848 0.39520
 O146 O 0.55086 0.12001 0.44614
 C147 C 0.59939 0.11069 0.40903
 O148 O 0.39900 -0.06981 0.37204
 O149 O 0.45141 -0.12088 0.44040
 C150 C 0.41382 -0.11200 0.39152
 O151 O 0.38515 0.06166 0.37903
 O152 O 0.43944 0.11657 0.44033
 C153 C 0.39799 0.10476 0.39626
 O154 O 0.61862 -0.06324 0.38743
 O155 O 0.55975 -0.11777 0.44443
 C156 C 0.60329 -0.10627 0.40229
 Zr157 Zr 0.58250 0.00171 0.42140
 O158 O 0.58563 0.00729 0.31808
 O159 O 0.68307 -0.00077 0.42469
 Zr160 Zr 0.42345 -0.00288 0.41150
 O161 O 0.43031 0.00257 0.30839
 O162 O 0.32351 -0.01058 0.40481
 Zr163 Zr 0.50139 -0.07135 0.49921
 Zr164 Zr 0.49481 0.07087 0.49850
 O165 O 0.50171 0.04091 0.40427
 O166 O 0.50579 -0.04315 0.40381
 O167 O 0.58828 0.04409 0.50429
 O168 O 0.40868 -0.04376 0.49345
 O169 O 0.59136 -0.03880 0.50464
 O170 O 0.40399 0.03931 0.49297
 H171 H 0.48827 0.06432 0.63084
 H172 H 0.37215 -0.06578 0.49055
 H173 H 0.50307 0.06224 0.36593
 H174 H 0.63009 -0.05864 0.50648
 H175 H 0.29857 -0.01634 0.53791
 H176 H 0.30420 0.01364 0.43367
 H177 H 0.45824 -0.02324 0.29288
 H178 H 0.56679 -0.02186 0.29954
 H179 H 0.69726 0.02347 0.45650
 H180 H 0.69251 -0.00050 0.56165
 H181 H 0.54006 -0.02235 0.70403
 H182 H 0.37461 -0.00035 0.69557
 O183 O 0.61172 0.43921 0.12223
 O184 O 0.55854 0.38398 0.06050
 C185 C 0.59855 0.39594 0.10601
 O186 O 0.37462 0.56400 0.10642
 O187 O 0.43565 0.61848 0.05186
 C188 C 0.38969 0.60717 0.09151
 O189 O 0.38654 0.43273 0.11301
 O190 O 0.45047 0.38107 0.05598
 C191 C 0.40550 0.39055 0.09744
 O192 O 0.61468 0.57057 0.10952
 O193 O 0.54846 0.62159 0.05510
 C194 C 0.59528 0.61259 0.09436
 Zr195 Zr 0.57665 0.50383 0.08570
 O196 O 0.56433 0.51016 0.18829
 O197 O 0.67592 0.50376 0.10162
 Zr198 Zr 0.41813 0.49932 0.08007
 O199 O 0.42595 0.50170 0.18309
 O200 O 0.31796 0.49530 0.08716
 O201 O 0.49911 0.45881 0.09604
 O202 O 0.49487 0.54366 0.09439
 O203 O 0.61903 0.56917 -0.10680
 O204 O 0.55164 0.62086 -0.05455
 C205 C 0.59946 0.61139 -0.09261
 O206 O 0.39436 0.43069 -0.11945
 O207 O 0.45458 0.38004 -0.05745
 C208 C 0.41198 0.38876 -0.10168
 O209 O 0.38551 0.56204 -0.11865
 O210 O 0.44010 0.61737 -0.05835
 C211 C 0.39869 0.60526 -0.10234
 O212 O 0.61867 0.43760 -0.11422
 O213 O 0.56203 0.38315 -0.05483
 C214 C 0.60432 0.39454 -0.09844
 Zr215 Zr 0.58283 0.50255 -0.07949
 O216 O 0.58344 0.50760 -0.18289
 O217 O 0.68346 0.50040 -0.07867
 Zr218 Zr 0.42366 0.49775 -0.08517
 O219 O 0.43078 0.50118 -0.18847
 O220 O 0.32353 0.49119 -0.09127
 Zr221 Zr 0.50436 0.42975 0.00084
 Zr222 Zr 0.49642 0.57193 -0.00070
 O223 O 0.50157 0.54158 -0.09479
 O224 O 0.50590 0.45748 -0.09484
 O225 O 0.59019 0.54537 0.00295
 O226 O 0.41131 0.45726 -0.00245
 O227 O 0.59414 0.46249 0.00393
 O228 O 0.40571 0.54015 -0.00363
 H229 H 0.49276 0.56601 0.13178
 H230 H 0.37425 0.43565 -0.00369
 H231 H 0.50225 0.56268 -0.13339
 H232 H 0.63282 0.44257 0.00510
 H233 H 0.30185 0.48904 0.04259
 H234 H 0.30480 0.51561 -0.06232
 H235 H 0.45244 0.47214 -0.20374
 H236 H 0.56219 0.47907 -0.20049
 H237 H 0.69822 0.52441 -0.04679
 H238 H 0.69620 0.50016 0.05828
 H239 H 0.54684 0.47985 0.20440
 H240 H 0.38181 0.50136 0.20007
 N241 N 1.22927 0.18079 0.15561
 C242 C 1.20077 0.21450 0.19245
 N243 N 1.13630 0.21678 0.19406
 N244 N 1.10156 0.18545 0.16061
 C245 C 1.13047 0.15079 0.12534
 N246 N 1.19476 0.14925 0.12308
 N247 N 1.15856 0.68112 0.73595
 C248 C 1.19076 0.71526 0.70354
 N249 N 1.18524 0.71815 0.63750
 N250 N 1.14951 0.68708 0.60483
 C251 C 1.11905 0.65191 0.63730
 N252 N 1.12375 0.64973 0.70335
 N253 N 0.72867 0.17789 0.65764
 C254 C 0.70067 0.21303 0.69232
 N255 N 0.63625 0.21679 0.69152
 N256 N 0.60114 0.18572 0.65786
 C257 C 0.62946 0.14971 0.62466
 N258 N 0.69375 0.14660 0.62495
 N259 N 0.72966 0.67997 0.15701
 C260 C 0.70083 0.71399 0.19300
 N261 N 0.63642 0.71725 0.19222
 N262 N 0.60200 0.68650 0.15740
 C263 C 0.63114 0.65153 0.12293
 N264 N 0.69543 0.64902 0.12309
 N265 N 0.77213 -0.17847 0.16089
 C266 C 0.80072 -0.21329 0.19516
 N267 N 0.86517 -0.21646 0.19464
 N268 N 0.89982 -0.18499 0.16152
 C269 C 0.87085 -0.14927 0.12881
 N270 N 0.80657 -0.14680 0.12875
 N271 N 0.77218 0.32225 0.65896
 C272 C 0.80127 0.28725 0.69256
 N273 N 0.86579 0.28439 0.69102
 N274 N 0.89985 0.31611 0.65754
 C275 C 0.87038 0.35197 0.62545
 N276 N 0.80604 0.35421 0.62652
 N277 N 0.26739 -0.17669 0.66230
 C278 C 0.29679 -0.21326 0.69209
 N279 N 0.36077 -0.21807 0.68582
 N280 N 0.39431 -0.18659 0.65155
 C281 C 0.36479 -0.14911 0.62350
 N282 N 0.30083 -0.14500 0.62902
 N283 N 0.36529 0.28429 0.19192
 C284 C 0.30084 0.28724 0.19294
 N285 N 0.27178 0.32208 0.15914
 N286 N 0.30576 0.35400 0.12696
 C287 C 0.37004 0.35176 0.12656
 N288 N 0.39948 0.31599 0.15873
 N289 N 0.84306 0.22069 -0.16096
 C290 C 0.79683 0.20715 -0.20354
 N291 N 0.78339 0.16058 -0.20996
 N292 N 0.81518 0.12847 -0.17591
 C293 C 0.86167 0.14156 -0.13368
 N294 N 0.87505 0.18838 -0.12656
 N295 N 0.84317 0.72128 0.33853
 C296 C 0.79612 0.70755 0.29712
 N297 N 0.78316 0.66099 0.29025
 N298 N 0.81630 0.62895 0.32292
 C299 C 0.86368 0.64225 0.36392
 N300 N 0.87650 0.68905 0.37154
 N301 N 0.28360 0.16126 0.28733
 C302 C 0.29671 0.20773 0.29505
 N303 N 0.34309 0.22103 0.33751
 N304 N 0.37556 0.18844 0.37075
 C305 C 0.36254 0.14173 0.36230
 N306 N 0.31591 0.12888 0.32018
 N307 N 0.34150 0.72114 -0.16011
 C308 C 0.29865 0.70755 -0.20617
 N309 N 0.28949 0.66095 -0.21764
 N310 N 0.32168 0.62878 -0.18425
 C311 C 0.36423 0.64196 -0.13791
 N312 N 0.37395 0.68877 -0.12647
 N313 N 1.22461 -0.16214 -0.19983
 C314 C 1.20916 -0.20843 -0.19633
 N315 N 1.16050 -0.22203 -0.15683
 N316 N 1.12787 -0.18990 -0.12255
 C317 C 1.14290 -0.14330 -0.12720
 N318 N 1.19216 -0.13020 -0.16592
 N319 N 1.22292 0.33869 0.29369
 C320 C 1.20734 0.29244 0.29794
 N321 N 1.15940 0.27919 0.33858
 N322 N 1.12767 0.31166 0.37321
 C323 C 1.14310 0.35820 0.36806
 N324 N 1.19141 0.37093 0.32793
 N325 N 0.65714 -0.22210 0.33903
 C326 C 0.70527 -0.20845 0.29885
 N327 N 0.71999 -0.16206 0.29455
 N328 N 0.68754 -0.13009 0.32835
 C329 C 0.63907 -0.14322 0.36806
 N330 N 0.62445 -0.18990 0.37323
 N331 N 0.65871 0.27833 -0.16127
 C332 C 0.70589 0.29191 -0.20275
 N333 N 0.71964 0.33844 -0.20822
 N334 N 0.68731 0.37049 -0.17433
 C335 C 0.63986 0.35741 -0.13325
 N336 N 0.62617 0.31062 -0.12696
 N337 N 1.23286 0.17616 -0.16159
 C338 C 1.20293 0.21267 -0.19104
 N339 N 1.13917 0.21771 -0.18299
 N340 N 1.10639 0.18650 -0.14744
 C341 C 1.13639 0.14912 -0.11953
 N342 N 1.20016 0.14474 -0.12700
 N343 N 1.14461 0.72044 0.31617
 C344 C 1.20830 0.71514 0.30699
 N345 N 1.23791 0.67806 0.33568
 N346 N 1.20510 0.64661 0.37037
 C347 C 1.14139 0.65129 0.37884
 N348 N 1.11177 0.68922 0.35182
 N349 N 0.63885 0.21803 0.31587
 C350 C 0.70288 0.21346 0.30968
 N351 N 0.73248 0.17727 0.34026
 N352 N 0.69927 0.14570 0.37412
 C353 C 0.63527 0.14961 0.37970
 N354 N 0.60556 0.18669 0.35071
 N355 N 0.73244 0.67680 -0.16338
 C356 C 0.70297 0.71321 -0.19352
 N357 N 0.63910 0.71835 -0.18639
 N358 N 0.60578 0.68731 -0.15107
 C359 C 0.63535 0.65004 -0.12244
 N360 N 0.69920 0.64556 -0.12901
 N361 N 0.86777 -0.21470 -0.20164
 C362 C 0.80331 -0.21320 -0.19674
 N363 N 0.77620 -0.18087 -0.15658
 N364 N 0.81182 -0.15010 -0.12379
 C365 C 0.87603 -0.15094 -0.12903
 N366 N 0.90368 -0.18406 -0.16810
 N367 N 0.77820 0.31969 0.34454
 C368 C 0.80436 0.28676 0.30462
 N369 N 0.86867 0.28527 0.29797
 N370 N 0.90537 0.31641 0.32966
 C371 C 0.87862 0.35012 0.36840
 N372 N 0.81458 0.35096 0.37546
 N373 N 0.31849 -0.21886 0.35776
 C374 C 0.30949 -0.21553 0.29206
 N375 N 0.33946 -0.18042 0.25906
 N376 N 0.37517 -0.14883 0.29059
 C377 C 0.38344 -0.15156 0.35631
 N378 N 0.35518 -0.18761 0.38927
 N379 N 0.27641 0.31781 -0.15400
 C380 C 0.30314 0.28624 -0.19561
 N381 N 0.36737 0.28608 -0.20315
 N382 N 0.40340 0.31724 -0.17067
 C383 C 0.37605 0.34958 -0.13016
 N384 N 0.31211 0.34909 -0.12225
 N385 N 1.20478 -0.16256 0.22744
 C386 C 1.20169 -0.20885 0.21046
 N387 N 1.16250 -0.22181 0.16058
 N388 N 1.12845 -0.18935 0.12852
 C389 C 1.13246 -0.14281 0.14524
 N390 N 1.17102 -0.13028 0.19557
 N391 N 1.15552 0.27971 0.66355
 C392 C 1.19981 0.29315 0.70829
 N393 N 1.20865 0.33976 0.72017
 N394 N 1.17474 0.37201 0.68866
 C395 C 1.13063 0.35898 0.64376
 N396 N 1.12154 0.31217 0.63158
 N397 N 0.65585 -0.22129 0.66141
 C398 C 0.70062 -0.20713 0.70526
 N399 N 0.70928 -0.16039 0.71596
 N400 N 0.67463 -0.12870 0.68424
 C401 C 0.62992 -0.14241 0.64033
 N402 N 0.62109 -0.18938 0.62923
 N403 N 0.65621 0.27985 0.16415
 C404 C 0.70174 0.29344 0.20748
 N405 N 0.71245 0.34011 0.21700
 N406 N 0.67901 0.37226 0.18477
 C407 C 0.63353 0.35908 0.14142
 N408 N 0.62266 0.31220 0.13149
 N409 N 0.84069 0.22180 0.15954
 C410 C 0.79198 0.20868 0.19933
 N411 N 0.77501 0.16259 0.20174
 N412 N 0.80606 0.13039 0.16679
 C413 C 0.85533 0.14298 0.12775
 N414 N 0.87197 0.18940 0.12430
 N415 N 0.84144 0.72306 0.65675
 C416 C 0.79253 0.70947 0.69600
 N417 N 0.77526 0.66342 0.69692
 N418 N 0.80625 0.63172 0.66109
 C419 C 0.85574 0.64473 0.62259
 N420 N 0.87271 0.69113 0.62065
 N421 N 0.33942 0.22177 0.65782
 C422 C 0.29022 0.20871 0.69700
 N423 N 0.27171 0.16290 0.69743
 N424 N 0.30178 0.13089 0.66125
 C425 C 0.35157 0.14339 0.62284
 N426 N 0.36976 0.18955 0.62137
 N427 N 0.26925 0.66492 0.19495
 C428 C 0.28835 0.71069 0.19589
 N429 N 0.33964 0.72326 0.15917
 N430 N 0.37104 0.69091 0.12380
 C431 C 0.35238 0.64482 0.12413
 N432 N 0.30053 0.63273 0.15996
   
