data_POSCAR
  _audit_creation_date              2014-09-24
  _audit_creation_method            'ToBaCCo'
  _symmetry_space_group_name_H-M    'P1'
  _symmetry_Int_Tables_number       1
  _symmetry_cell_setting            triclinic
  loop_
  _symmetry_equiv_pos_as_xyz
 x,y,z
_cell_length_a 31.9310
_cell_length_b 31.9300
_cell_length_c 31.9304
_cell_angle_alpha 97.024100
_cell_angle_beta 82.999100
_cell_angle_gamma 97.008000
loop_
  _atom_site_label
  _atom_site_type_symbol
  _atom_site_fract_x
  _atom_site_fract_y
  _atom_site_fract_z
O1 O 0.55065 0.51022 0.03846
 O2 O 0.43571 0.50261 0.03086
 O3 O 0.48899 0.44908 0.03918
 O4 O 0.49739 0.56373 0.03011
 O5 O 0.50924 0.55090 -0.03972
 O6 O 0.50084 0.43626 -0.03066
 O7 O 0.44757 0.48979 -0.03896
 O8 O 0.56251 0.49740 -0.03137
 Cu9 Cu 0.49200 0.50769 0.04170
 Cu10 Cu 0.50622 0.49230 -0.04223
 C11 C 0.57596 0.50484 0.00488
 C12 C 0.42226 0.49519 -0.00539
 C13 C 0.49377 0.42335 0.00583
 C14 C 0.50447 0.57663 -0.00638
 O15 O -0.03856 0.55229 0.51023
 O16 O -0.03095 0.43735 0.50261
 O17 O -0.03021 0.49902 0.56374
 O18 O -0.03924 0.49062 0.44908
 O19 O 0.03059 0.50250 0.43631
 O20 O 0.03962 0.51090 0.55096
 O21 O 0.03887 0.44922 0.48984
 O22 O 0.03126 0.56417 0.49746
 Cu23 Cu -0.04179 0.49363 0.50769
 Cu24 Cu 0.04213 0.50789 0.49236
 C25 C -0.00499 0.57761 0.50488
 C26 C 0.00530 0.42391 0.49521
 C27 C 0.00627 0.50611 0.57667
 C28 C -0.00589 0.49541 0.42337
 O29 O 0.50273 0.03088 0.56407
 O30 O 0.51030 0.03849 0.44913
 O31 O 0.44920 0.03919 0.51081
 O32 O 0.56385 0.03017 0.50240
 O33 O 0.55107 -0.03967 0.49050
 O34 O 0.43642 -0.03064 0.49892
 O35 O 0.49753 -0.03134 0.43724
 O36 O 0.48996 -0.03895 0.55217
 Cu37 Cu 0.50781 0.04173 0.50779
 Cu38 Cu 0.49247 -0.04220 0.49352
 C39 C 0.49532 -0.00537 0.57750
 C40 C 0.50492 0.00491 0.42381
 C41 C 0.42349 0.00584 0.50602
 C42 C 0.57678 -0.00632 0.49530
 C43 C 0.49823 -0.04089 -0.09291
 C44 C 0.50012 -0.08242 -0.08433
 C45 C 0.50181 -0.09176 -0.04300
 C46 C 0.50162 -0.05892 -0.00904
 C47 C 0.49968 -0.01661 -0.01735
 C48 C 0.49797 -0.00750 -0.05948
 C49 C 0.49607 0.03467 -0.06700
 C50 C 0.49582 0.06730 -0.03378
 C51 C 0.49748 0.05896 0.00820
 C52 C 0.49944 0.01665 0.01651
 C53 C 0.50331 -0.06726 0.03294
 C54 C 0.50310 -0.03463 0.06615
 C55 C 0.50117 0.00754 0.05863
 C56 C 0.50093 0.04093 0.09206
 C57 C 0.49897 0.08245 0.08349
 C58 C 0.49725 0.09178 0.04217
 H59 H 0.49473 0.04282 -0.09872
 H60 H 0.49430 0.09919 -0.04133
 H61 H 0.50482 -0.09915 0.04048
 H62 H 0.50446 -0.04278 0.09786
 H63 H 0.50027 -0.10788 -0.11019
 H64 H 0.49880 0.10790 0.10936
 C65 C 0.04289 0.50258 0.90816
 C66 C 0.08421 0.50085 0.91750
 C67 C 0.09279 0.49890 0.95903
 C68 C 0.05937 0.49866 0.99241
 C69 C 0.01725 0.50040 0.98329
 C70 C 0.00894 0.50236 0.94098
 C71 C -0.03305 0.50403 0.93263
 C72 C -0.06626 0.50379 0.96525
 C73 C -0.05873 0.50188 1.00742
 C74 C -0.01661 0.50016 1.01654
 C75 C 0.06690 0.49675 1.03458
 C76 C 0.03369 0.49655 1.06720
 C77 C -0.00829 0.49823 1.05886
 C78 C -0.04224 0.49806 1.09168
 C79 C -0.08356 0.49974 1.08233
 C80 C -0.09215 0.50164 1.04080
 H81 H -0.04059 0.50554 0.90074
 H82 H -0.09797 0.50514 0.95709
 H83 H 0.09861 0.49540 1.04273
 H84 H 0.04124 0.49504 1.09909
 H85 H 0.11008 0.50102 0.89205
 H86 H -0.10943 0.49960 1.10778
 C87 C -0.04076 -0.09287 0.50176
 C88 C -0.08230 -0.08428 0.49985
 C89 C -0.09162 -0.04295 0.49815
 C90 C -0.05879 -0.00900 0.49833
 C91 C -0.01648 -0.01733 0.50027
 C92 C -0.00738 -0.05945 0.50199
 C93 C 0.03480 -0.06699 0.50390
 C94 C 0.06742 -0.03379 0.50413
 C95 C 0.05909 0.00820 0.50245
 C96 C 0.01678 0.01652 0.50049
 C97 C -0.06712 0.03298 0.49664
 C98 C -0.03449 0.06619 0.49684
 C99 C 0.00768 0.05864 0.49875
 C100 C 0.04107 0.09206 0.49897
 C101 C 0.08259 0.08347 0.50092
 C102 C 0.09192 0.04215 0.50265
 H103 H 0.04294 -0.09870 0.50525
 H104 H 0.09931 -0.04134 0.50564
 H105 H -0.09901 0.04054 0.49514
 H106 H -0.04263 0.09790 0.49548
 H107 H -0.10775 -0.11014 0.49970
 H108 H 0.10805 0.10933 0.50106
 C109 C -0.29698 0.50634 1.01555
 C110 C -0.28358 0.52962 1.05759
 C111 C -0.24175 0.52895 1.06191
 C112 C -0.21738 0.50507 1.02377
 C113 C -0.22491 0.52641 0.98518
 C114 C -0.26679 0.52708 0.98086
 C115 C -0.28392 0.46142 1.01403
 C116 C -0.24209 0.46076 1.01834
 C117 C -0.34215 0.50674 1.01118
 C118 C -0.37946 0.50632 1.00809
 C119 C -0.17245 0.50417 1.02880
 C120 C -0.13578 0.50313 1.03375
 H121 H -0.30505 0.54529 1.08182
 H122 H -0.22740 0.54405 1.08984
 H123 H -0.19960 0.53979 0.96321
 H124 H -0.27736 0.54105 0.95519
 H125 H -0.30561 0.43265 1.00988
 H126 H -0.22797 0.43143 1.01789
 C127 C 0.29759 0.49392 0.98418
 C128 C 0.27951 0.45696 0.95383
 C129 C 0.23767 0.45768 0.94952
 C130 C 0.21800 0.49529 0.97600
 C131 C 0.24628 0.53486 0.96258
 C132 C 0.28809 0.53414 0.96688
 C133 C 0.26853 0.49161 1.02605
 C134 C 0.22666 0.49233 1.02174
 C135 C 0.34276 0.49346 0.98852
 C136 C 0.38008 0.49385 0.99158
 C137 C 0.17308 0.49625 0.97100
 C138 C 0.13641 0.49734 0.96605
 H139 H 0.29793 0.43236 0.93721
 H140 H 0.22024 0.43369 0.92922
 H141 H 0.23450 0.56116 0.95076
 H142 H 0.31211 0.55984 0.95874
 H143 H 0.27984 0.48957 1.05637
 H144 H 0.20209 0.49091 1.04837
 C145 C -0.01550 -0.29771 0.50640
 C146 C -0.03269 -0.28813 0.46614
 C147 C -0.03702 -0.24632 0.46550
 C148 C -0.02375 -0.21810 0.50518
 C149 C 0.02198 -0.22672 0.50826
 C150 C 0.02632 -0.26860 0.50890
 C151 C -0.04597 -0.27973 0.54330
 C152 C -0.05031 -0.23788 0.54266
 C153 C -0.01113 -0.34288 0.50676
 C154 C -0.00804 -0.38020 0.50629
 C155 C -0.02878 -0.17318 0.50430
 C156 C -0.03374 -0.13650 0.50326
 H157 H -0.04074 -0.31211 0.44036
 H158 H -0.04878 -0.23449 0.43918
 H159 H 0.04857 -0.20212 0.50982
 H160 H 0.05664 -0.27988 0.51102
 H161 H -0.06263 -0.29822 0.56781
 H162 H -0.07069 -0.22053 0.56662
 C163 C 0.01592 0.29686 0.49391
 C164 C 0.04677 0.27892 0.45733
 C165 C 0.05107 0.23708 0.45807
 C166 C 0.02410 0.21727 0.49531
 C167 C -0.02152 0.22584 0.49167
 C168 C -0.02583 0.26771 0.49094
 C169 C 0.03260 0.28729 0.53444
 C170 C 0.03690 0.24548 0.53517
 C171 C 0.01158 0.34202 0.49343
 C172 C 0.00850 0.37933 0.49378
 C173 C 0.02911 0.17235 0.49629
 C174 C 0.03405 0.13568 0.49739
 H175 H 0.06370 0.29743 0.43297
 H176 H 0.07169 0.21976 0.43433
 H177 H -0.04807 0.20121 0.48983
 H178 H -0.05608 0.27896 0.48846
 H179 H 0.04034 0.31126 0.56032
 H180 H 0.04832 0.23365 0.56167
 C181 C 0.49378 -0.01577 -0.29780
 C182 C 0.53353 -0.03394 -0.28830
 C183 C 0.53413 -0.03822 -0.24647
 C184 C 0.49492 -0.02392 -0.21817
 C185 C 0.45687 -0.04968 -0.23771
 C186 C 0.45627 -0.04539 -0.27957
 C187 C 0.49234 0.02625 -0.26885
 C188 C 0.49293 0.02196 -0.22695
 C189 C 0.49345 -0.01145 -0.34298
 C190 C 0.49392 -0.00840 -0.38031
 C191 C 0.49576 -0.02892 -0.17322
 C192 C 0.49676 -0.03386 -0.13654
 H193 H 0.55901 -0.04266 -0.31233
 H194 H 0.56011 -0.05060 -0.23468
 H195 H 0.43251 -0.06950 -0.22019
 H196 H 0.43141 -0.06154 -0.29791
 H197 H 0.49094 0.05667 -0.28024
 H198 H 0.49206 0.04870 -0.20245
 C199 C 0.50612 0.01562 0.29679
 C200 C 0.53632 0.05314 0.28133
 C201 C 0.53554 0.05748 0.23951
 C202 C 0.50464 0.02388 0.21723
 C203 C 0.46154 0.02718 0.24384
 C204 C 0.46232 0.02284 0.28564
 C205 C 0.51869 -0.02328 0.26679
 C206 C 0.51791 -0.01893 0.22493
 C207 C 0.50665 0.01123 0.34194
 C208 C 0.50632 0.00813 0.37924
 C209 C 0.50363 0.02893 0.17233
 C210 C 0.50251 0.03390 0.13567
 H211 H 0.55657 0.07441 0.30144
 H212 H 0.55513 0.08247 0.22381
 H213 H 0.43291 0.03243 0.23097
 H214 H 0.43434 0.02437 0.30856
 H215 H 0.52743 -0.05170 0.27746
 H216 H 0.52597 -0.04363 0.19974
 C217 C 0.50646 -0.29659 -0.01822
 C218 C 0.46617 -0.28707 -0.03538
 C219 C 0.46558 -0.24530 -0.03990
 C220 C 0.50533 -0.21710 -0.02683
 C221 C 0.54273 -0.23703 -0.05339
 C222 C 0.54333 -0.27884 -0.04886
 C223 C 0.50910 -0.26730 0.02348
 C224 C 0.50851 -0.22547 0.01895
 C225 C 0.50676 -0.34166 -0.01356
 C226 C 0.50620 -0.37890 -0.01011
 C227 C 0.50447 -0.17223 -0.03195
 C228 C 0.50341 -0.13552 -0.03667
 H229 H 0.44034 -0.31104 -0.04327
 H230 H 0.43925 -0.23349 -0.05166
 H231 H 0.56666 -0.21981 -0.07390
 H232 H 0.56776 -0.29744 -0.06549
 H233 H 0.51127 -0.27842 0.05386
 H234 H 0.51016 -0.20075 0.04543
 C235 C 0.49203 0.29658 0.01759
 C236 C 0.48983 0.26737 -0.02420
 C237 C 0.49054 0.22555 -0.01972
 C238 C 0.49338 0.21710 0.02611
 C239 C 0.45572 0.23681 0.05240
 C240 C 0.45500 0.27862 0.04792
 C241 C 0.53220 0.28721 0.03508
 C242 C 0.53291 0.24544 0.03955
 C243 C 0.49161 0.34165 0.01298
 C244 C 0.49209 0.37888 0.00955
 C245 C 0.49437 0.17224 0.03117
 C246 C 0.49554 0.13553 0.03586
 H247 H 0.48785 0.27853 -0.05461
 H248 H 0.48918 0.20087 -0.04627
 H249 H 0.43170 0.21946 0.07271
 H250 H 0.43038 0.29708 0.06439
 H251 H 0.55786 0.31128 0.04323
 H252 H 0.55917 0.23373 0.05153
 C253 C -0.29644 -0.01814 0.49339
 C254 C -0.28719 -0.03697 0.53285
 C255 C -0.24542 -0.04150 0.53347
 C256 C -0.21695 -0.02676 0.49456
 C257 C -0.22554 0.01930 0.49319
 C258 C -0.26736 0.02383 0.49257
 C259 C -0.27821 -0.04739 0.45555
 C260 C -0.23640 -0.05192 0.45616
 C261 C -0.34151 -0.01348 0.49306
 C262 C -0.37875 -0.01004 0.49360
 C263 C -0.17209 -0.03188 0.49543
 C264 C -0.13538 -0.03661 0.49652
 H265 H -0.31134 -0.04595 0.55813
 H266 H -0.23379 -0.05435 0.55926
 H267 H -0.20096 0.04597 0.49272
 H268 H -0.27862 0.05440 0.49158
 H269 H -0.29651 -0.06312 0.43047
 H270 H -0.21888 -0.07154 0.43161
 C271 C 0.29671 0.01758 0.50785
 C272 C 0.26793 -0.02465 0.50664
 C273 C 0.22611 -0.02017 0.50594
 C274 C 0.21723 0.02609 0.50651
 C275 C 0.24602 0.04266 0.46863
 C276 C 0.28779 0.03819 0.46933
 C277 C 0.27788 0.04523 0.54664
 C278 C 0.23607 0.04970 0.54594
 C279 C 0.34179 0.01297 0.50825
 C280 C 0.37902 0.00955 0.50773
 C281 C 0.17237 0.03115 0.50553
 C282 C 0.13566 0.03583 0.50436
 H283 H 0.27937 -0.05534 0.50640
 H284 H 0.20171 -0.04701 0.50509
 H285 H 0.23460 0.05667 0.44345
 H286 H 0.31215 0.04838 0.44475
 H287 H 0.29578 0.05995 0.57240
 H288 H 0.21814 0.06827 0.57110
 C289 C -0.01764 0.49343 1.29656
 C290 C -0.03615 0.53304 1.28723
 C291 C -0.04063 0.53363 1.24545
 C292 C -0.02616 0.49455 1.21705
 C293 C -0.05160 0.45635 1.23657
 C294 C -0.04712 0.45576 1.27839
 C295 C 0.02431 0.49226 1.26750
 C296 C 0.01983 0.49285 1.22566
 C297 C -0.01303 0.49312 1.34165
 C298 C -0.00960 0.49368 1.37889
 C299 C -0.03123 0.49540 1.17216
 C300 C -0.03592 0.49646 1.13544
 H301 H -0.04497 0.55843 1.31134
 H302 H -0.05328 0.55952 1.23376
 H303 H -0.07137 0.43190 1.21907
 H304 H -0.06304 0.43081 1.29673
 H305 H 0.05483 0.49105 1.27878
 H306 H 0.04649 0.49215 1.20108
 C307 C 0.01812 0.50784 0.70342
 C308 C 0.03561 0.46765 0.71274
 C309 C 0.04014 0.46693 0.75450
 C310 C 0.02674 0.50646 0.78287
 C311 C -0.01909 0.50932 0.77447
 C312 C -0.02363 0.51005 0.73266
 C313 C 0.04849 0.54485 0.72137
 C314 C 0.05302 0.54413 0.76316
 C315 C 0.01345 0.50827 0.65836
 C316 C 0.01000 0.50778 0.62113
 C317 C 0.03186 0.50547 0.82772
 C318 C 0.03657 0.50429 0.86441
 H319 H 0.04373 0.44200 0.68866
 H320 H 0.05213 0.44066 0.76618
 H321 H -0.04562 0.51069 0.79916
 H322 H -0.05405 0.51203 0.72153
 H323 H 0.06494 0.56948 0.70291
 H324 H 0.07337 0.56814 0.78050
   
