data_POSCAR
  _audit_creation_date              2014-09-24
  _audit_creation_method            'ToBaCCo'
  _symmetry_space_group_name_H-M    'P1'
  _symmetry_Int_Tables_number       1
  _symmetry_cell_setting            triclinic
  loop_
  _symmetry_equiv_pos_as_xyz
 x,y,z
_cell_length_a 34.0155
_cell_length_b 38.2746
_cell_length_c 34.8753
_cell_angle_alpha 90.060500
_cell_angle_beta 89.840000
_cell_angle_gamma 90.129800
loop_
  _atom_site_label
  _atom_site_type_symbol
  _atom_site_fract_x
  _atom_site_fract_y
  _atom_site_fract_z
O1 O 0.33999 0.38455 0.04046
 O2 O 0.38475 0.33460 -0.03767
 O3 O 0.33160 0.38442 -0.03381
 O4 O 0.38730 0.33086 0.03687
 O5 O 0.33953 0.29170 0.03522
 O6 O 0.28184 0.34778 -0.02731
 O7 O 0.33361 0.29888 -0.03864
 O8 O 0.29345 0.34444 0.04621
 Cu9 Cu 0.36584 0.36243 0.00111
 Cu10 Cu 0.30719 0.31698 0.00401
 C11 C 0.30979 0.37260 0.05722
 C12 C 0.36675 0.30863 -0.05176
 C13 C 0.29649 0.37524 -0.04173
 C14 C 0.37270 0.30170 0.04744
 O15 O 0.61839 0.66646 -0.03261
 O16 O 0.66594 0.61387 0.04250
 O17 O 0.61447 0.66444 0.04190
 O18 O 0.66983 0.61518 -0.03197
 O19 O 0.71804 0.65367 -0.02731
 O20 O 0.66307 0.70273 0.04560
 O21 O 0.71369 0.65305 0.04558
 O22 O 0.66742 0.70440 -0.03030
 Cu23 Cu 0.63713 0.63621 0.00448
 Cu24 Cu 0.69509 0.68272 0.00852
 C25 C 0.63510 0.69411 -0.04440
 C26 C 0.69822 0.62458 0.05652
 C27 C 0.62982 0.69153 0.05672
 C28 C 0.70398 0.62575 -0.04144
 O29 O 0.67200 0.38468 0.95981
 O30 O 0.62227 0.33412 1.03569
 O31 O 0.67270 0.38537 1.03462
 O32 O 0.62192 0.33148 0.96090
 O33 O 0.67006 0.29308 0.96479
 O34 O 0.72300 0.34901 1.03237
 O35 O 0.67375 0.29916 1.03970
 O36 O 0.71998 0.34590 0.95949
 Cu37 Cu 0.64214 0.36264 0.99734
 Cu38 Cu 0.70134 0.31770 0.99858
 C39 C 0.70502 0.37415 0.94739
 C40 C 0.64018 0.30888 1.05140
 C41 C 0.70688 0.37633 1.04563
 C42 C 0.63711 0.30241 0.95133
 O43 O 0.32966 0.61259 0.96236
 O44 O 0.37988 0.66331 1.03811
 O45 O 0.33004 0.61127 1.03682
 O46 O 0.38278 0.66247 0.96314
 O47 O 0.33442 0.70093 0.96224
 O48 O 0.28147 0.64942 1.03490
 O49 O 0.33075 0.70102 1.03839
 O50 O 0.28219 0.65193 0.96190
 Cu51 Cu 0.36067 0.63372 1.00009
 Cu52 Cu 0.30273 0.68010 0.99939
 C53 C 0.29686 0.62357 0.94981
 C54 C 0.36317 0.69030 1.05165
 C55 C 0.29630 0.62137 1.04783
 C56 C 0.36730 0.69001 0.94982
 O57 O -0.03792 0.38302 0.33943
 O58 O 0.03089 0.32825 0.39445
 O59 O 0.03751 0.38347 0.35131
 O60 O -0.04474 0.32769 0.38283
 O61 O -0.03368 0.29231 0.33398
 O62 O 0.04636 0.34953 0.30063
 O63 O 0.04210 0.29599 0.34292
 O64 O -0.02923 0.34826 0.28953
 Cu65 Cu -0.00469 0.35900 0.37209
 Cu66 Cu 0.00659 0.31805 0.31147
 C67 C -0.04490 0.37494 0.30482
 C68 C 0.04893 0.30352 0.37765
 C69 C 0.05609 0.37567 0.32087
 C70 C -0.05249 0.29992 0.36437
 O71 O 0.04294 0.66575 0.60332
 O72 O -0.03434 0.62008 0.65856
 O73 O -0.03298 0.67312 0.61119
 O74 O 0.04099 0.61127 0.64748
 O75 O 0.05195 0.64565 0.69736
 O76 O -0.01955 0.70903 0.65896
 O77 O -0.02332 0.65588 0.70707
 O78 O 0.05624 0.69859 0.65389
 Cu79 Cu 0.00273 0.63909 0.62522
 Cu80 Cu 0.01685 0.68087 0.68441
 C81 C 0.06348 0.68911 0.61981
 C82 C -0.04170 0.63029 0.69249
 C83 C -0.03828 0.70198 0.62836
 C84 C 0.05945 0.61826 0.67813
 O85 O 1.03770 0.61895 0.33665
 O86 O 0.96243 0.67295 0.38488
 O87 O 0.96100 0.61961 0.33786
 O88 O 1.03819 0.67418 0.38268
 O89 O 1.04585 0.70269 0.32819
 O90 O 0.96061 0.65640 0.28910
 O91 O 0.96761 0.71082 0.33743
 O92 O 1.03352 0.65246 0.28520
 Cu93 Cu 0.99996 0.64275 0.36567
 Cu94 Cu 1.00062 0.68518 0.30593
 C95 C 1.04746 0.62607 0.30228
 C96 C 0.95335 0.70187 0.36961
 C97 C 0.94781 0.62900 0.30542
 C98 C 1.05619 0.69680 0.36246
 O99 O 0.95752 0.33369 0.60464
 O100 O 1.03228 0.38058 0.66151
 O101 O 1.03265 0.32614 0.61610
 O102 O 0.95755 0.38902 0.64760
 O103 O 0.94423 0.35588 0.69794
 O104 O 1.01718 0.29148 0.66441
 O105 O 1.01903 0.34609 0.71063
 O106 O 0.94195 0.30204 0.65553
 Cu107 Cu 0.99667 0.36071 0.62751
 Cu108 Cu 0.97981 0.32043 0.68732
 C109 C 0.93628 0.31070 0.62095
 C110 C 1.03813 0.37125 0.69595
 C111 C 1.03709 0.29771 0.63425
 C112 C 0.93772 0.38279 0.67769
 O113 O 0.38181 0.03744 0.32125
 O114 O 0.32279 -0.02792 0.37490
 O115 O 0.37554 -0.03072 0.31940
 O116 O 0.33207 0.03912 0.37888
 O117 O 0.28584 0.04703 0.33531
 O118 O 0.32675 -0.02558 0.27818
 O119 O 0.27434 -0.02014 0.33377
 O120 O 0.33414 0.04133 0.27858
 Cu121 Cu 0.35796 0.00373 0.35276
 Cu122 Cu 0.30033 0.01094 0.30239
 C123 C 0.36788 0.05016 0.29044
 C124 C 0.28787 -0.03414 0.36386
 C125 C 0.35881 -0.03974 0.28843
 C126 C 0.30183 0.05511 0.36699
 O127 O 0.62136 0.03438 0.68018
 O128 O 0.67524 -0.03272 0.62425
 O129 O 0.62144 -0.03382 0.67817
 O130 O 0.67451 0.03516 0.62486
 O131 O 0.72065 0.03497 0.66930
 O132 O 0.67018 -0.03658 0.71984
 O133 O 0.72276 -0.03155 0.66734
 O134 O 0.66757 0.03192 0.72441
 Cu135 Cu 0.64325 0.00097 0.64759
 Cu136 Cu 0.69966 0.00003 0.69996
 C137 C 0.63523 0.04402 0.71229
 C138 C 0.70861 -0.04296 0.63616
 C139 C 0.63734 -0.04747 0.70743
 C140 C 0.70720 0.04614 0.63768
 O141 O 0.37999 0.96512 0.68363
 O142 O 0.32451 1.03142 0.62824
 O143 O 0.37725 1.03307 0.68310
 O144 O 0.33216 0.96362 0.62483
 O145 O 0.28408 0.95833 0.66723
 O146 O 0.32842 1.02916 0.72479
 O147 O 0.27582 1.02617 0.66987
 O148 O 0.33093 0.96241 0.72523
 Cu149 Cu 0.35831 0.99876 0.65067
 Cu150 Cu 0.29970 0.99387 0.70064
 C151 C 0.36483 0.95306 0.71435
 C152 C 0.29026 1.03965 0.63983
 C153 C 0.36104 1.04240 0.71426
 C154 C 0.30086 0.94891 0.63631
 O155 O 0.67620 1.02887 0.37557
 O156 O 0.61961 0.96399 0.31911
 O157 O 0.67225 0.96076 0.37505
 O158 O 0.62450 1.03205 0.32022
 O159 O 0.67252 1.02984 0.27750
 O160 O 0.71921 0.95911 0.33124
 O161 O 0.66738 0.96306 0.27609
 O162 O 0.72369 1.02620 0.33238
 Cu163 Cu 0.64326 0.99643 0.35187
 Cu164 Cu 0.70047 0.99420 0.30012
 C165 C 0.70989 1.03830 0.36350
 C166 C 0.63361 0.95338 0.28734
 C167 C 0.70453 0.94842 0.36260
 C168 C 0.64039 1.04275 0.28931
 C169 C 0.87222 0.76379 0.53875
 C170 C 0.88588 0.75083 0.50347
 C171 C 0.86949 0.76140 0.46857
 C172 C 0.83726 0.78461 0.46870
 C173 C 0.82439 0.79952 0.50364
 C174 C 0.84065 0.78811 0.53892
 C175 C 0.82413 0.80092 0.57313
 C176 C 0.79650 0.82778 0.57256
 C177 C 0.78425 0.84283 0.53776
 C178 C 0.79604 0.82679 0.50310
 C179 C 0.81716 0.79310 0.43481
 C180 C 0.78933 0.81962 0.43436
 C181 C 0.78081 0.83880 0.46772
 C182 C 0.75743 0.86942 0.46661
 C183 C 0.74682 0.88566 0.50120
 C184 C 0.76038 0.87316 0.53664
 H185 H 0.83229 0.79035 0.60070
 H186 H 0.78489 0.83666 0.59977
 H187 H 0.82292 0.77945 0.40821
 H188 H 0.77487 0.82517 0.40747
 H189 H 0.91143 0.73396 0.50298
 H190 H 0.73052 0.90995 0.50034
 C191 C 0.23485 0.12245 0.54154
 C192 C 0.24996 0.11103 0.50624
 C193 C 0.23774 0.12597 0.47154
 C194 C 0.20766 0.15165 0.47228
 C195 C 0.19484 0.16561 0.50787
 C196 C 0.20958 0.15180 0.54255
 C197 C 0.19891 0.16792 0.57732
 C198 C 0.17145 0.19481 0.57828
 C199 C 0.15346 0.20665 0.54451
 C200 C 0.16652 0.19293 0.50883
 C201 C 0.18858 0.16257 0.43869
 C202 C 0.16075 0.18911 0.43960
 C203 C 0.15096 0.20608 0.47410
 C204 C 0.12479 0.23481 0.47506
 C205 C 0.11070 0.24672 0.51047
 C206 C 0.12348 0.23236 0.54523
 H207 H 0.21215 0.16019 0.60416
 H208 H 0.16498 0.20657 0.60577
 H209 H 0.19393 0.14996 0.41144
 H210 H 0.14621 0.19541 0.41300
 H211 H 0.27081 0.08968 0.50574
 H212 H 0.08906 0.26739 0.51088
 C213 C 0.14348 0.75808 0.45459
 C214 C 0.13585 0.73997 0.48868
 C215 C 0.14661 0.75309 0.52450
 C216 C 0.16780 0.78491 0.52678
 C217 C 0.17783 0.80297 0.49260
 C218 C 0.16414 0.79046 0.45654
 C219 C 0.17029 0.81156 0.42410
 C220 C 0.19309 0.84167 0.42595
 C221 C 0.20815 0.85387 0.46098
 C222 C 0.20012 0.83452 0.49471
 C223 C 0.17737 0.80028 0.56221
 C224 C 0.20017 0.83039 0.56411
 C225 C 0.21369 0.84698 0.53068
 C226 C 0.23871 0.87667 0.53228
 C227 C 0.24651 0.89532 0.49852
 C228 C 0.23058 0.88507 0.46328
 H229 H 0.15693 0.80595 0.39687
 H230 H 0.19862 0.85519 0.39931
 H231 H 0.16686 0.78976 0.58903
 H232 H 0.20599 0.84108 0.59223
 H233 H 0.12076 0.71503 0.48754
 H234 H 0.26478 0.91853 0.49974
 C235 C 0.76009 0.12076 0.46269
 C236 C 0.74997 0.10677 0.49853
 C237 C 0.76154 0.12309 0.53276
 C238 C 0.78294 0.15497 0.53103
 C239 C 0.79296 0.16956 0.49494
 C240 C 0.78014 0.15317 0.46080
 C241 C 0.78741 0.16988 0.42557
 C242 C 0.81128 0.19935 0.42350
 C243 C 0.82867 0.21337 0.45658
 C244 C 0.81687 0.20009 0.49285
 C245 C 0.79475 0.17271 0.56439
 C246 C 0.81863 0.20218 0.56242
 C247 C 0.82988 0.21658 0.52695
 C248 C 0.85465 0.24634 0.52447
 C249 C 0.86862 0.25707 0.48859
 C250 C 0.85697 0.24057 0.45455
 H251 H 0.77476 0.16027 0.39914
 H252 H 0.81570 0.21118 0.39567
 H253 H 0.78595 0.16397 0.59258
 H254 H 0.82887 0.21276 0.58929
 H255 H 0.73556 0.08150 0.49980
 H256 H 0.88959 0.27835 0.48746
 C257 C 0.46656 0.87419 0.77282
 C258 C 0.50240 0.88758 0.75955
 C259 C 0.53845 0.87405 0.77195
 C260 C 0.53838 0.84683 0.79965
 C261 C 0.50239 0.83057 0.81021
 C262 C 0.46639 0.84407 0.79639
 C263 C 0.43118 0.82723 0.80675
 C264 C 0.43102 0.79902 0.83178
 C265 C 0.46626 0.78492 0.84583
 C266 C 0.50233 0.80126 0.83540
 C267 C 0.57280 0.83662 0.81870
 C268 C 0.57268 0.80857 0.84405
 C269 C 0.53826 0.78912 0.85101
 C270 C 0.53831 0.75905 0.87474
 C271 C 0.50249 0.74323 0.88448
 C272 C 0.46654 0.75570 0.87087
 H273 H 0.40315 0.83551 0.79545
 H274 H 0.40268 0.78891 0.84021
 H275 H 0.59998 0.85097 0.81540
 H276 H 0.59980 0.80306 0.85885
 H277 H 0.50212 0.90951 0.73997
 H278 H 0.50257 0.72014 0.90245
 C279 C 0.54393 0.24767 0.13687
 C280 C 0.50776 0.25983 0.12312
 C281 C 0.47207 0.24539 0.13525
 C282 C 0.47234 0.21969 0.16445
 C283 C 0.50851 0.20513 0.17664
 C284 C 0.54453 0.21901 0.16273
 C285 C 0.57980 0.20307 0.17425
 C286 C 0.57975 0.17466 0.19914
 C287 C 0.54439 0.15949 0.21189
 C288 C 0.50847 0.17569 0.20161
 C289 C 0.43745 0.20835 0.18213
 C290 C 0.43749 0.18021 0.20730
 C291 C 0.47234 0.16194 0.21528
 C292 C 0.47201 0.13060 0.23686
 C293 C 0.50770 0.11508 0.24704
 C294 C 0.54383 0.12860 0.23448
 H295 H 0.60799 0.21156 0.16349
 H296 H 0.60797 0.16469 0.20805
 H297 H 0.40976 0.22130 0.17680
 H298 H 0.40980 0.17283 0.22032
 H299 H 0.50749 0.28018 0.10158
 H300 H 0.50720 0.09052 0.26250
 C301 C 0.53321 0.12417 0.76970
 C302 C 0.49708 0.10887 0.76011
 C303 C 0.46132 0.12300 0.77281
 C304 C 0.46161 0.15411 0.79503
 C305 C 0.49793 0.17014 0.80465
 C306 C 0.53369 0.15576 0.79095
 C307 C 0.56893 0.17384 0.79823
 C308 C 0.56964 0.20278 0.82238
 C309 C 0.53512 0.21503 0.83997
 C310 C 0.49862 0.20029 0.82868
 C311 C 0.42664 0.16981 0.80780
 C312 C 0.42732 0.19890 0.83172
 C313 C 0.46294 0.21497 0.84221
 C314 C 0.46407 0.24465 0.86665
 C315 C 0.50051 0.25697 0.87985
 C316 C 0.53603 0.24189 0.86804
 H317 H 0.59639 0.16586 0.78525
 H318 H 0.59757 0.21572 0.82679
 H319 H 0.39815 0.15986 0.79959
 H320 H 0.39936 0.20789 0.84249
 H321 H 0.49690 0.08428 0.74466
 H322 H 0.50112 0.27815 0.90047
 C323 C 0.52811 0.87849 0.22741
 C324 C 0.49213 0.89294 0.23869
 C325 C 0.45620 0.87836 0.22714
 C326 C 0.45630 0.84717 0.20490
 C327 C 0.49259 0.83158 0.19416
 C328 C 0.52852 0.84720 0.20563
 C329 C 0.56401 0.83108 0.19500
 C330 C 0.56447 0.80173 0.17162
 C331 C 0.52944 0.78540 0.16009
 C332 C 0.49301 0.80051 0.17144
 C333 C 0.42121 0.83099 0.19320
 C334 C 0.42159 0.80158 0.16971
 C335 C 0.45704 0.78534 0.15909
 C336 C 0.45779 0.75502 0.13558
 C337 C 0.49395 0.74066 0.12482
 C338 C 0.52967 0.75502 0.13668
 H339 H 0.59212 0.84095 0.20452
 H340 H 0.59290 0.79250 0.16243
 H341 H 0.39283 0.84080 0.20196
 H342 H 0.39350 0.79218 0.15977
 H343 H 0.49216 0.91732 0.25455
 H344 H 0.49429 0.71724 0.10731
 C345 C 0.86222 0.54196 0.74388
 C346 C 0.87363 0.51112 0.72524
 C347 C 0.85628 0.47893 0.73417
 C348 C 0.82823 0.47698 0.76424
 C349 C 0.81604 0.50801 0.78297
 C350 C 0.83120 0.54072 0.77101
 C351 C 0.81470 0.57127 0.78646
 C352 C 0.78817 0.56962 0.81682
 C353 C 0.77787 0.53740 0.83346
 C354 C 0.78994 0.50630 0.81486
 C355 C 0.81294 0.44486 0.77700
 C356 C 0.78750 0.44324 0.80823
 C357 C 0.77741 0.47347 0.82898
 C358 C 0.75555 0.47167 0.86361
 C359 C 0.74426 0.50271 0.88211
 C360 C 0.75584 0.53551 0.86800
 H361 H 0.82216 0.59677 0.77518
 H362 H 0.77627 0.59398 0.82742
 H363 H 0.82129 0.42040 0.76389
 H364 H 0.77617 0.41783 0.81612
 H365 H 0.89706 0.51192 0.70413
 H366 H 0.72914 0.50124 0.90947
 C367 C 0.14024 0.53170 0.25875
 C368 C 0.12697 0.50062 0.27545
 C369 C 0.14287 0.46827 0.26469
 C370 C 0.17112 0.46693 0.23467
 C371 C 0.18657 0.49846 0.21960
 C372 C 0.17266 0.53087 0.23345
 C373 C 0.19099 0.56175 0.22097
 C374 C 0.21823 0.56110 0.19130
 C375 C 0.22786 0.52955 0.17295
 C376 C 0.21428 0.49778 0.18904
 C377 C 0.18246 0.43524 0.21752
 C378 C 0.20945 0.43457 0.18744
 C379 C 0.22666 0.46552 0.17337
 C380 C 0.25411 0.46534 0.14264
 C381 C 0.26455 0.49710 0.12502
 C382 C 0.25029 0.52908 0.13876
 H383 H 0.18383 0.58679 0.23364
 H384 H 0.23121 0.58565 0.18244
 H385 H 0.16928 0.41068 0.22583
 H386 H 0.21515 0.40951 0.17433
 H387 H 0.10293 0.50146 0.29589
 H388 H 0.28306 0.49686 0.09968
 C389 C 0.86341 0.46814 0.25673
 C390 C 0.87704 0.50057 0.27033
 C391 C 0.85820 0.53187 0.26026
 C392 C 0.82353 0.53040 0.23791
 C393 C 0.81095 0.49818 0.22231
 C394 C 0.82944 0.46682 0.23337
 C395 C 0.81363 0.43501 0.22014
 C396 C 0.78502 0.43453 0.19164
 C397 C 0.77150 0.46583 0.17525
 C398 C 0.78185 0.49767 0.19320
 C399 C 0.80149 0.56051 0.22977
 C400 C 0.77296 0.56000 0.20130
 C401 C 0.76568 0.52938 0.18013
 C402 C 0.74377 0.52990 0.14576
 C403 C 0.73453 0.49829 0.12738
 C404 C 0.74866 0.46627 0.14123
 H405 H 0.82392 0.41020 0.23101
 H406 H 0.77437 0.40939 0.18191
 H407 H 0.80711 0.58496 0.24440
 H408 H 0.75771 0.58411 0.19501
 H409 H 0.90461 0.50168 0.28580
 H410 H 0.71960 0.49896 0.09996
 C411 C 0.14016 0.52297 0.73766
 C412 C 0.12205 0.49098 0.72925
 C413 C 0.13340 0.46002 0.74753
 C414 C 0.16501 0.46081 0.77385
 C415 C 0.18126 0.49329 0.78516
 C416 C 0.16913 0.52450 0.76681
 C417 C 0.18548 0.55638 0.77902
 C418 C 0.21205 0.55761 0.80925
 C419 C 0.22223 0.52725 0.82960
 C420 C 0.20850 0.49462 0.81604
 C421 C 0.18106 0.43001 0.78904
 C422 C 0.20861 0.43127 0.81842
 C423 C 0.22049 0.46337 0.83432
 C424 C 0.24400 0.46502 0.86783
 C425 C 0.25676 0.49761 0.88132
 C426 C 0.24527 0.52874 0.86338
 H427 H 0.17715 0.58096 0.76629
 H428 H 0.22419 0.58284 0.81674
 H429 H 0.17251 0.40458 0.77829
 H430 H 0.22011 0.40674 0.82883
 H431 H 0.09819 0.49040 0.70872
 H432 H 0.27282 0.49890 0.90810
 N433 N 0.28365 0.40556 0.14929
 N434 N 0.29702 0.38062 0.12656
 C435 C 0.29406 0.39154 0.09008
 C436 C 0.27836 0.42477 0.08929
 C437 C 0.27131 0.43251 0.12750
 H438 H 0.27289 0.44094 0.06443
 H439 H 0.28399 0.40433 0.17920
 H440 H 0.30920 0.35715 0.13603
 N441 N 0.76715 0.58739 0.12124
 N442 N 0.75512 0.61221 0.09798
 C443 C 0.71905 0.60386 0.08519
 C444 C 0.70735 0.57230 0.10110
 C445 C 0.73866 0.56296 0.12433
 H446 H 0.68053 0.55783 0.09578
 H447 H 0.79517 0.58667 0.13337
 H448 H 0.77206 0.63386 0.09008
 N449 N 0.77833 0.41398 0.88844
 N450 N 0.76479 0.38816 0.90974
 C451 C 0.72751 0.39538 0.91996
 C452 C 0.71671 0.42731 0.90437
 C453 C 0.74976 0.43801 0.88403
 H454 H 0.68932 0.44121 0.90823
 H455 H 0.80725 0.41559 0.87842
 H456 H 0.78148 0.36669 0.91832
 N457 N 0.22354 0.58632 0.88935
 N458 N 0.23728 0.61124 0.91173
 C459 C 0.27428 0.60316 0.92190
 C460 C 0.28478 0.57169 0.90505
 C461 C 0.25178 0.56210 0.88411
 H462 H 0.31188 0.55729 0.90857
 H463 H 0.19462 0.58531 0.87942
 H464 H 0.22084 0.63266 0.92108
 N465 N 0.13554 0.26014 0.40940
 N466 N 0.11525 0.27784 0.38375
 C467 C 0.07912 0.28389 0.39796
 C468 C 0.07590 0.26924 0.43399
 C469 C 0.11221 0.25364 0.43996
 H470 H 0.05056 0.26946 0.45282
 H471 H 0.16517 0.25364 0.40624
 H472 H 0.12641 0.28643 0.35746
 N473 N 0.15499 0.72594 0.58971
 N474 N 0.13259 0.70948 0.61491
 C475 C 0.09658 0.70515 0.59969
 C476 C 0.09572 0.71953 0.56349
 C477 C 0.13314 0.73325 0.55855
 H478 H 0.07093 0.72114 0.54417
 H479 H 0.18468 0.73178 0.59390
 H480 H 0.14196 0.70113 0.64187
 N481 N 0.89796 0.77455 0.40397
 N482 N 0.91985 0.75882 0.37791
 C483 C 0.92694 0.72596 0.38964
 C484 C 0.90862 0.72038 0.42462
 C485 C 0.89013 0.75183 0.43256
 H486 H 0.90971 0.69720 0.44235
 H487 H 0.89018 0.80091 0.40282
 H488 H 0.93092 0.77093 0.35331
 N489 N 0.84500 0.27588 0.58817
 N490 N 0.86685 0.29240 0.61367
 C491 C 0.90386 0.29443 0.60016
 C492 C 0.90599 0.27840 0.56476
 C493 C 0.86810 0.26618 0.55854
 H494 H 0.93166 0.27515 0.54671
 H495 H 0.81475 0.27183 0.59097
 H496 H 0.85636 0.30258 0.63954
 N497 N 0.40678 0.10618 0.21774
 N498 N 0.37973 0.08504 0.23182
 C499 C 0.39063 0.07503 0.26722
 C500 C 0.42625 0.09065 0.27625
 C501 C 0.43522 0.11071 0.24414
 H502 H 0.44343 0.08745 0.30207
 H503 H 0.40631 0.11613 0.18987
 H504 H 0.35480 0.07687 0.21684
 N505 N 0.59863 0.09913 0.78714
 N506 N 0.62524 0.07815 0.77205
 C507 C 0.61369 0.06899 0.73654
 C508 C 0.57805 0.08495 0.72856
 C509 C 0.56973 0.10427 0.76137
 H510 H 0.56032 0.08227 0.70301
 H511 H 0.59969 0.10860 0.81522
 H512 H 0.65031 0.06952 0.78642
 N513 N 0.40235 0.90118 0.79080
 N514 N 0.37573 0.92169 0.77527
 C515 C 0.38652 0.92884 0.73894
 C516 C 0.42151 0.91193 0.73077
 C517 C 0.43027 0.89413 0.76441
 H518 H 0.43850 0.91301 0.70452
 H519 H 0.40205 0.89348 0.81952
 H520 H 0.35137 0.93163 0.78993
 N521 N 0.59207 0.90604 0.20892
 N522 N 0.61992 0.92507 0.22492
 C523 C 0.61038 0.93080 0.26189
 C524 C 0.57474 0.91463 0.26987
 C525 C 0.56451 0.89860 0.23553
 H526 H 0.55845 0.91477 0.29657
 H527 H 0.59160 0.89913 0.17993
 H528 H 0.64442 0.93483 0.21029
 N529 N 0.39644 0.27067 0.85927
 N530 N 0.37027 0.28661 0.88123
 C531 C 0.38515 0.28948 0.91677
 C532 C 0.42215 0.27480 0.91769
 C533 C 0.42803 0.26243 0.88079
 H534 H 0.44201 0.27344 0.94184
 H535 H 0.39305 0.26663 0.82984
 H536 H 0.34347 0.29651 0.87160
 N537 N 0.60874 0.73907 0.86989
 N538 N 0.63435 0.72245 0.89164
 C539 C 0.61684 0.71443 0.92510
 C540 C 0.57872 0.72662 0.92503
 C541 C 0.57482 0.74280 0.88968
 H542 H 0.55697 0.72406 0.94757
 H543 H 0.61418 0.74646 0.84155
 H544 H 0.66277 0.71564 0.88308
 N545 N 0.38954 0.72960 0.14090
 N546 N 0.36458 0.71288 0.11837
 C547 C 0.38119 0.70913 0.08356
 C548 C 0.41801 0.72423 0.08362
 C549 C 0.42200 0.73763 0.12039
 H550 H 0.43897 0.72526 0.06023
 H551 H 0.38481 0.73408 0.17010
 H552 H 0.33727 0.70319 0.12714
 N553 N 0.61202 0.27339 0.14202
 N554 N 0.63763 0.28891 0.11906
 C555 C 0.62194 0.29091 0.08378
 C556 C 0.58507 0.27591 0.08398
 C557 C 0.58003 0.26443 0.12138
 H558 H 0.56476 0.27383 0.06025
 H559 H 0.61597 0.27034 0.17151
 H560 H 0.66464 0.29916 0.12783
 N561 N 0.21379 0.09308 0.60201
 N562 N 0.22834 0.07141 0.62762
 C563 C 0.26599 0.06452 0.61843
 C564 C 0.27601 0.08274 0.58544
 C565 C 0.24202 0.10097 0.57620
 H566 H 0.30366 0.08222 0.57002
 H567 H 0.18446 0.10110 0.60155
 H568 H 0.21223 0.06080 0.65035
 N569 N 0.78362 0.09396 0.40174
 N570 N 0.76939 0.07110 0.37402
 C571 C 0.73267 0.06178 0.38437
 C572 C 0.72257 0.07837 0.41854
 C573 C 0.75507 0.09868 0.42809
 H574 H 0.69527 0.07601 0.43436
 H575 H 0.81209 0.10423 0.40217
 H576 H 0.78532 0.06253 0.35016
 N577 N 0.78375 0.90327 0.59588
 N578 N 0.77005 0.92512 0.62188
 C579 C 0.73225 0.93227 0.61379
 C580 C 0.72123 0.91407 0.58112
 C581 C 0.75475 0.89545 0.57102
 H582 H 0.69316 0.91456 0.56660
 H583 H 0.81293 0.89490 0.59463
 H584 H 0.78680 0.93563 0.64417
 N585 N 0.20767 0.91965 0.40684
 N586 N 0.22292 0.94039 0.38049
 C587 C 0.26190 0.94311 0.38649
 C588 C 0.27201 0.92320 0.41813
 C589 C 0.23674 0.90826 0.42979
 H590 H 0.30075 0.92017 0.43093
 H591 H 0.17770 0.91410 0.40944
 H592 H 0.20660 0.95312 0.35939
 N593 N 0.09720 0.40715 0.77086
 N594 N 0.07213 0.38390 0.75728
 C595 C 0.06674 0.39007 0.71969
 C596 C 0.08957 0.41838 0.70870
 C597 C 0.10878 0.42834 0.74205
 H598 H 0.09086 0.43073 0.68083
 H599 H 0.10457 0.40936 0.79981
 H600 H 0.05790 0.36503 0.77394
 N601 N 0.10720 0.58415 0.23215
 N602 N 0.08281 0.60872 0.24356
 C603 C 0.07480 0.60389 0.28097
 C604 C 0.09505 0.57493 0.29419
 C605 C 0.11578 0.56346 0.26224
 H606 H 0.09442 0.56366 0.32263
 H607 H 0.11658 0.58106 0.20381
 H608 H 0.07120 0.62792 0.22561
 N609 N 0.89943 0.41638 0.23118
 N610 N 0.92325 0.39185 0.24383
 C611 C 0.92907 0.39681 0.28159
 C612 C 0.90809 0.42591 0.29363
 C613 C 0.88917 0.43721 0.26075
 H614 H 0.90680 0.43721 0.32206
 H615 H 0.89111 0.41910 0.20254
 H616 H 0.93575 0.37246 0.22661
 N617 N 0.89752 0.59543 0.76686
 N618 N 0.92275 0.61858 0.75330
 C619 C 0.92886 0.61198 0.71586
 C620 C 0.90626 0.58353 0.70493
 C621 C 0.88646 0.57389 0.73817
 H622 H 0.90566 0.57080 0.67721
 H623 H 0.88989 0.59341 0.79580
 H624 H 0.93678 0.63754 0.76996
 N625 N 0.77941 0.58996 0.89992
 N626 N 0.76463 0.61527 0.92467
 C627 C 0.72717 0.60664 0.93305
 C628 C 0.71713 0.57595 0.91381
 C629 C 0.75049 0.56674 0.89285
 H630 H 0.68935 0.56213 0.91491
 H631 H 0.80845 0.58897 0.89019
 H632 H 0.78078 0.63638 0.93534
 N633 N 0.22022 0.41170 0.90164
 N634 N 0.23503 0.38688 0.92679
 C635 C 0.27295 0.39489 0.93370
 C636 C 0.28325 0.42477 0.91315
 C637 C 0.24953 0.43405 0.89288
 H638 H 0.31144 0.43795 0.91285
 H639 H 0.19092 0.41311 0.89293
 H640 H 0.21869 0.36629 0.93840
 N641 N 0.22447 0.58371 0.10927
 N642 N 0.23752 0.60955 0.08426
 C643 C 0.27459 0.60161 0.07393
 C644 C 0.28614 0.57091 0.09213
 C645 C 0.25409 0.56086 0.11452
 H646 H 0.31407 0.55762 0.08943
 H647 H 0.19591 0.58205 0.12020
 H648 H 0.22053 0.63051 0.07475
 N649 N 0.77690 0.41383 0.10892
 N650 N 0.76507 0.38894 0.08226
 C651 C 0.72769 0.39607 0.07241
 C652 C 0.71471 0.42529 0.09260
 C653 C 0.74622 0.43520 0.11574
 H654 H 0.68623 0.43771 0.09075
 H655 H 0.80547 0.41618 0.11950
 H656 H 0.78300 0.36906 0.07152
 N657 N 0.90546 0.77655 0.60169
 N658 N 0.93072 0.75905 0.62662
 C659 C 0.93560 0.72639 0.61306
 C660 C 0.91318 0.72211 0.58012
 C661 C 0.89458 0.75397 0.57390
 H662 H 0.91193 0.69917 0.56196
 H663 H 0.89972 0.80331 0.60283
 H664 H 0.94495 0.77050 0.64998
 N665 N 0.88833 0.22724 0.39075
 N666 N 0.91362 0.24424 0.36529
 C667 C 0.91915 0.27693 0.37849
 C668 C 0.89666 0.28194 0.41126
 C669 C 0.87786 0.25024 0.41834
 H670 H 0.89625 0.30510 0.42908
 H671 H 0.88316 0.20035 0.39055
 H672 H 0.92844 0.23213 0.34264
 N673 N 0.09172 0.22174 0.60938
 N674 N 0.06715 0.24024 0.63427
 C675 C 0.06330 0.27278 0.62017
 C676 C 0.08587 0.27608 0.58717
 C677 C 0.10308 0.24360 0.58108
 H678 H 0.08753 0.29869 0.56862
 H679 H 0.09633 0.19481 0.61068
 H680 H 0.05219 0.22939 0.65760
 N681 N 0.14322 0.74485 0.38321
 N682 N 0.11729 0.72911 0.35745
 C683 C 0.08751 0.71536 0.37799
 C684 C 0.09284 0.72281 0.41643
 C685 C 0.12726 0.74248 0.41860
 H686 H 0.07296 0.71620 0.43962
 H687 H 0.17109 0.75418 0.37583
 H688 H 0.12184 0.72702 0.32790
 N689 N 0.60793 0.87037 0.74681
 N690 N 0.63397 0.89127 0.73041
 C691 C 0.61800 0.92318 0.72673
 C692 C 0.58035 0.92283 0.74169
 C693 C 0.57516 0.88886 0.75493
 H694 H 0.55974 0.94432 0.74266
 H695 H 0.61221 0.84361 0.75076
 H696 H 0.66160 0.88338 0.72059
 N697 N 0.39143 0.90609 0.21081
 N698 N 0.36578 0.92737 0.22710
 C699 C 0.37742 0.93409 0.26325
 C700 C 0.41194 0.91601 0.27035
 C701 C 0.41970 0.89817 0.23642
 H702 H 0.42988 0.91701 0.29591
 H703 H 0.39058 0.89882 0.18195
 H704 H 0.34182 0.93843 0.21295
 N705 N 0.60653 0.09921 0.21482
 N706 N 0.63184 0.07682 0.22943
 C707 C 0.62114 0.06953 0.26576
 C708 C 0.58765 0.08839 0.27484
 C709 C 0.57956 0.10735 0.24180
 H710 H 0.57070 0.08741 0.30113
 H711 H 0.60669 0.10715 0.18618
 H712 H 0.65495 0.06554 0.21405
 N713 N 0.39737 0.09471 0.79161
 N714 N 0.37077 0.07394 0.77597
 C715 C 0.38099 0.06779 0.73926
 C716 C 0.41556 0.08559 0.73111
 C717 C 0.42477 0.10279 0.76499
 H718 H 0.43243 0.08504 0.70475
 H719 H 0.39758 0.10173 0.82055
 H720 H 0.34709 0.06294 0.79082
 N721 N 0.59767 0.72993 0.14486
 N722 N 0.62405 0.71372 0.12342
 C723 C 0.60942 0.70976 0.08788
 C724 C 0.57229 0.72422 0.08638
 C725 C 0.56616 0.73754 0.12300
 H726 H 0.55262 0.72511 0.06206
 H727 H 0.60088 0.73456 0.17421
 H728 H 0.65108 0.70458 0.13337
 N729 N 0.40833 0.23038 0.10352
 N730 N 0.38278 0.24511 0.08024
 C731 C 0.39382 0.27838 0.07377
 C732 C 0.42786 0.28533 0.09422
 C733 C 0.43594 0.25412 0.11322
 H734 H 0.44479 0.30930 0.09443
 H735 H 0.40774 0.20393 0.11081
 H736 H 0.35894 0.23203 0.06796
 N737 N 0.60098 0.22880 0.89868
 N738 N 0.62731 0.24475 0.92025
 C739 C 0.61634 0.27819 0.92541
 C740 C 0.58144 0.28390 0.90582
 C741 C 0.57282 0.25183 0.88871
 H742 H 0.56415 0.30759 0.90529
 H743 H 0.60142 0.20203 0.89288
 H744 H 0.65145 0.23234 0.93265
 N745 N 0.40042 0.72701 0.86136
 N746 N 0.37411 0.71036 0.88255
 C747 C 0.38721 0.70896 0.91887
 C748 C 0.42330 0.72545 0.92109
 C749 C 0.43036 0.73730 0.88406
 H750 H 0.44193 0.72822 0.94603
 H751 H 0.39839 0.72997 0.83167
 H752 H 0.34837 0.69903 0.87194
 N753 N 0.77716 0.89166 0.40198
 N754 N 0.76307 0.91190 0.37475
 C755 C 0.72678 0.92247 0.38483
 C756 C 0.71719 0.90809 0.42026
 C757 C 0.74994 0.88818 0.42993
 H758 H 0.69088 0.91243 0.43711
 H759 H 0.80579 0.88187 0.40202
 H760 H 0.77890 0.91945 0.35041
 N761 N 0.27417 0.86708 0.59456
 N762 N 0.28986 0.88617 0.62217
 C763 C 0.28441 0.92010 0.61385
 C764 C 0.26454 0.92290 0.57944
 C765 C 0.25788 0.88853 0.56835
 H766 H 0.25646 0.94657 0.56446
 H767 H 0.27586 0.83986 0.59323
 H768 H 0.30511 0.87608 0.64562
 N769 N 0.26565 0.13545 0.40541
 N770 N 0.28199 0.11668 0.37785
 C771 C 0.28517 0.08350 0.38999
 C772 C 0.27000 0.08080 0.42675
 C773 C 0.25702 0.11433 0.43528
 H774 H 0.26778 0.05756 0.44427
 H775 H 0.26121 0.16240 0.40379
 H776 H 0.29138 0.12665 0.35149
 N777 N 0.78310 0.09860 0.59586
 N778 N 0.76854 0.07898 0.62360
 C779 C 0.73101 0.07089 0.61515
 C780 C 0.72116 0.08618 0.58040
 C781 C 0.75497 0.10405 0.56938
 H782 H 0.69381 0.08380 0.56482
 H783 H 0.81237 0.10685 0.59452
 H784 H 0.78470 0.07016 0.64709
 N785 N 0.88273 0.58983 0.23773
 N786 N 0.90580 0.61527 0.24969
 C787 C 0.91845 0.60767 0.28520
 C788 C 0.90256 0.57577 0.29653
 C789 C 0.87950 0.56553 0.26559
 H790 H 0.90800 0.56160 0.32281
 H791 H 0.87096 0.58858 0.21014
 H792 H 0.91384 0.63682 0.23304
 N793 N 0.84581 0.42437 0.69584
 N794 N 0.86745 0.39902 0.68119
 C795 C 0.90550 0.40604 0.68830
 C796 C 0.90850 0.43713 0.70829
 C797 C 0.86980 0.44767 0.71297
 H798 H 0.93484 0.44964 0.71903
 H799 H 0.81518 0.42548 0.69427
 H800 H 0.85625 0.37724 0.66678
 N801 N 0.15108 0.57721 0.69885
 N802 N 0.12968 0.60223 0.68337
 C803 C 0.09151 0.59548 0.69040
 C804 C 0.08822 0.56486 0.71123
 C805 C 0.12688 0.55435 0.71649
 H806 H 0.06169 0.55246 0.72176
 H807 H 0.18171 0.57586 0.69716
 H808 H 0.14110 0.62349 0.66821
 N809 N 0.15036 0.40956 0.29568
 N810 N 0.12731 0.38519 0.31042
 C811 C 0.08996 0.39657 0.30920
 C812 C 0.08887 0.42939 0.29288
 C813 C 0.12786 0.43649 0.28406
 H814 H 0.06327 0.44518 0.28685
 H815 H 0.18092 0.40761 0.29366
 H816 H 0.13706 0.36121 0.32100
   
