data_POSCAR
  _audit_creation_date              2014-09-24
  _audit_creation_method            'ToBaCCo'
  _symmetry_space_group_name_H-M    'P1'
  _symmetry_Int_Tables_number       1
  _symmetry_cell_setting            triclinic
  loop_
  _symmetry_equiv_pos_as_xyz
 x,y,z
_cell_length_a 20.2718
_cell_length_b 20.2331
_cell_length_c 53.5798
_cell_angle_alpha 89.963900
_cell_angle_beta 90.033500
_cell_angle_gamma 119.983800
loop_
  _atom_site_label
  _atom_site_type_symbol
  _atom_site_fract_x
  _atom_site_fract_y
  _atom_site_fract_z
C1 C -0.07799 -0.08257 0.48031
 C2 C -0.02826 -0.04270 0.49990
 C3 C -0.01969 -0.08261 0.51978
 C4 C -0.05970 -0.16304 0.52034
 C5 C -0.11021 -0.20207 0.50043
 C6 C -0.12088 -0.16296 0.48033
 C7 C 0.01381 0.04150 0.49986
 C8 C 0.00447 0.08178 0.51952
 C9 C 0.04304 0.16189 0.51939
 C10 C 0.09265 0.20132 0.49954
 C11 C 0.10315 0.16163 0.47983
 C12 C 0.06271 0.08151 0.48004
 H13 H -0.08578 -0.04964 0.46589
 H14 H 0.01712 -0.04982 0.53504
 H15 H -0.03465 0.05046 0.53452
 H16 H 0.06919 0.05001 0.46480
 H17 H -0.13662 -0.26340 0.49946
 H18 H 0.12466 0.26310 0.49976
 C19 C 1.08386 0.00522 0.14672
 C20 C 1.04366 0.01453 0.16639
 C21 C 1.08333 0.06295 0.18628
 C22 C 1.16311 0.10311 0.18658
 C23 C 1.20294 0.09274 0.16691
 C24 C 1.16431 0.04319 0.14674
 C25 C 0.95966 -0.02757 0.16633
 C26 C 0.91951 -0.07711 0.18602
 C27 C 0.83956 -0.11860 0.18590
 C28 C 0.80015 -0.10838 0.16604
 C29 C 0.83972 -0.05822 0.14630
 C30 C 0.91969 -0.01865 0.14649
 H31 H 1.05118 -0.03539 0.13227
 H32 H 1.05181 0.06939 0.20151
 H33 H 0.95081 -0.08490 0.20104
 H34 H 0.95109 0.01931 0.13123
 H35 H 1.26440 0.12698 0.16691
 H36 H 0.73848 -0.13810 0.16628
 C37 C 0.07744 0.99494 0.85336
 C38 C 0.02757 0.98547 0.83378
 C39 C 0.01770 0.93607 0.81408
 C40 C 0.05647 0.89498 0.81391
 C41 C 0.10725 0.90565 0.83344
 C42 C 0.11923 0.95616 0.85343
 C43 C -0.01407 1.02793 0.83381
 C44 C -0.00398 1.07780 0.81421
 C45 C -0.04184 1.11979 0.81430
 C46 C -0.09169 1.10979 0.83404
 C47 C -0.10375 1.05900 0.85396
 C48 C -0.06314 1.01904 0.85356
 H49 H 0.08613 1.03622 0.86767
 H50 H -0.02203 0.92805 0.79926
 H51 H 0.03517 1.08540 0.79925
 H52 H -0.06747 0.98203 0.86882
 H53 H 0.13556 0.87240 0.83315
 H54 H -0.12397 1.13902 0.83287
 O55 O 0.60124 0.06724 -0.02378
 O56 O 0.47144 0.06303 0.02466
 O57 O 0.59799 0.05942 0.02481
 O58 O 0.47103 0.06346 -0.02403
 O59 O 0.40858 -0.06270 -0.02490
 O60 O 0.53473 -0.06670 0.02343
 O61 O 0.40819 -0.06313 0.02379
 O62 O 0.53883 -0.05888 -0.02516
 Cu63 Cu 0.54172 0.07598 0.00053
 Cu64 Cu 0.46623 -0.07554 -0.00082
 C65 C 0.59211 0.00528 -0.03272
 C66 C 0.41819 -0.00039 0.03251
 C67 C 0.58743 -0.00470 0.03235
 C68 C 0.41843 0.00068 -0.03274
 O69 O -0.06824 0.53361 0.64308
 O70 O -0.06315 0.40770 0.69139
 O71 O -0.06112 0.53724 0.69169
 O72 O -0.06344 0.40745 0.64273
 O73 O 0.06247 0.47191 0.64194
 O74 O 0.06477 0.60099 0.69044
 O75 O 0.06278 0.47143 0.69062
 O76 O 0.05764 0.59808 0.64182
 Cu77 Cu -0.07666 0.46505 0.66732
 Cu78 Cu 0.07459 0.54205 0.66610
 C79 C -0.00652 0.58685 0.63421
 C80 C 0.00033 0.41825 0.69927
 C81 C 0.00255 0.59096 0.69935
 C82 C -0.00054 0.41813 0.63406
 O83 O 0.59192 0.52988 0.35822
 O84 O 0.46649 0.39961 0.30978
 O85 O 0.59302 0.52990 0.30953
 O86 O 0.46180 0.40316 0.35835
 O87 O 0.39930 0.46667 0.35678
 O88 O 0.52972 0.59266 0.30846
 O89 O 0.40317 0.46230 0.30821
 O90 O 0.52939 0.59341 0.35715
 Cu91 Cu 0.53466 0.45931 0.33410
 Cu92 Cu 0.45909 0.53514 0.33252
 C93 C 0.58190 0.58335 0.36597
 C94 C 0.41388 0.40881 0.30074
 C95 C 0.58311 0.58262 0.30074
 C96 C 0.40839 0.41388 0.36580
 C97 C 0.01036 0.28621 0.57855
 C98 C 0.01640 0.22181 0.58406
 C99 C 0.02664 0.18104 0.56484
 C100 C 0.03122 0.20440 0.53984
 C101 C 0.02449 0.26889 0.53450
 C102 C 0.01418 0.30948 0.55374
 C103 C 0.00351 0.33044 0.59835
 C104 C 0.00010 0.36934 0.61477
 H105 H 0.01410 0.20364 0.60322
 H106 H 0.03246 0.13216 0.56956
 H107 H 0.02669 0.28763 0.51543
 H108 H 0.00974 0.35935 0.54927
 C109 C 0.71560 0.72461 0.24517
 C110 C 0.69237 0.70506 0.22037
 C111 C 0.73286 0.75588 0.20110
 C112 C 0.79719 0.82712 0.20639
 C113 C 0.82053 0.84600 0.23138
 C114 C 0.77987 0.79507 0.25064
 C115 C 0.67132 0.67375 0.26502
 C116 C 0.63225 0.63167 0.28145
 H117 H 0.64258 0.65075 0.21594
 H118 H 0.71414 0.73927 0.18204
 H119 H 0.86930 0.90072 0.23607
 H120 H 0.79799 0.81103 0.26979
 C121 C 0.27610 -0.01028 -0.08838
 C122 C 0.28570 -0.03280 -0.11209
 C123 C 0.23444 -0.04362 -0.13123
 C124 C 0.17189 -0.03216 -0.12712
 C125 C 0.16375 -0.00860 -0.10298
 C126 C 0.21520 0.00196 -0.08388
 C127 C 0.32713 -0.00295 -0.06850
 C128 C 0.36931 0.00051 -0.05204
 H129 H 0.33296 -0.04212 -0.11581
 H130 H 0.24624 -0.05831 -0.14944
 H131 H 0.11585 -0.00152 -0.09820
 H132 H 0.20665 0.01849 -0.06546
 C133 C -0.02705 0.71437 0.57908
 C134 C 0.03057 0.78808 0.57313
 C135 C 0.01990 0.82876 0.55395
 C136 C -0.04894 0.79632 0.54016
 C137 C -0.10661 0.72171 0.54669
 C138 C -0.09561 0.68147 0.56589
 C139 C -0.01648 0.67191 0.59871
 C140 C -0.01020 0.63431 0.61500
 H141 H 0.08417 0.81395 0.58315
 H142 H 0.06744 0.88432 0.54942
 H143 H -0.16180 0.69465 0.53773
 H144 H -0.14102 0.62461 0.57054
 C145 C 0.28620 0.26028 0.24583
 C146 C 0.22104 0.25742 0.23584
 C147 C 0.18064 0.20598 0.21667
 C148 C 0.20506 0.15683 0.20724
 C149 C 0.27042 0.15995 0.21752
 C150 C 0.31064 0.21132 0.23667
 C151 C 0.32883 0.31371 0.26531
 C152 C 0.36647 0.35774 0.28155
 H153 H 0.20175 0.29522 0.24274
 H154 H 0.13108 0.20556 0.20892
 H155 H 0.29006 0.12221 0.21087
 H156 H 0.36092 0.21294 0.24432
 C157 C 0.73992 0.02567 -0.08774
 C158 C 0.75657 -0.03172 -0.09348
 C159 C 0.80824 -0.02082 -0.11252
 C160 C 0.84448 0.04805 -0.12637
 C161 C 0.82689 0.10544 -0.12009
 C162 C 0.77532 0.09421 -0.10103
 C163 C 0.68680 0.01497 -0.06819
 C164 C 0.64298 0.00872 -0.05193
 H165 H 0.72906 -0.08531 -0.08340
 H166 H 0.81667 -0.06823 -0.11689
 H167 H 0.85476 0.16066 -0.12909
 H168 H 0.76344 0.13945 -0.09653
 C169 C 0.28720 0.01026 0.08830
 C170 C 0.31921 0.03195 0.11206
 C171 C 0.27891 0.04261 0.13127
 C172 C 0.20514 0.03180 0.12718
 C173 C 0.17356 0.00910 0.10298
 C174 C 0.21432 -0.00130 0.08382
 C175 C 0.33077 0.00306 0.06836
 C176 C 0.36939 -0.00031 0.05186
 H177 H 0.37561 0.04076 0.11576
 H178 H 0.30527 0.05669 0.14950
 H179 H 0.11878 0.00255 0.09824
 H180 H 0.18935 -0.01718 0.06536
 C181 C 0.72324 0.71462 0.42182
 C182 C 0.78502 0.78736 0.41733
 C183 C 0.83616 0.82802 0.43653
 C184 C 0.82682 0.79645 0.46075
 C185 C 0.76334 0.72292 0.46487
 C186 C 0.71240 0.68272 0.44562
 C187 C 0.67259 0.67102 0.40185
 C188 C 0.63070 0.63231 0.38533
 H189 H 0.79450 0.81225 0.39885
 H190 H 0.88475 0.88266 0.43178
 H191 H 0.75075 0.69669 0.48314
 H192 H 0.66445 0.62645 0.44934
 C193 C -0.00855 0.27654 0.75491
 C194 C -0.01164 0.29649 0.77970
 C195 C -0.02202 0.24572 0.79901
 C196 C -0.02957 0.17412 0.79376
 C197 C -0.02561 0.15486 0.76879
 C198 C -0.01530 0.20575 0.74949
 C199 C -0.00215 0.32729 0.73503
 C200 C 0.00068 0.36929 0.71857
 H201 H -0.00670 0.35105 0.78410
 H202 H -0.02378 0.26257 0.81807
 H203 H -0.03206 0.09986 0.76414
 H204 H -0.01360 0.18947 0.73034
 C205 C 0.71586 -0.02482 0.08715
 C206 C 0.78144 0.03758 0.09692
 C207 C 0.82209 0.02674 0.11606
 C208 C 0.79750 -0.04673 0.12567
 C209 C 0.73173 -0.10907 0.11561
 C210 C 0.69126 -0.09811 0.09649
 C211 C 0.67299 -0.01423 0.06771
 C212 C 0.63513 -0.00805 0.05150
 H213 H 0.80086 0.09460 0.08988
 H214 H 0.87196 0.07597 0.12363
 H215 H 0.71195 -0.16640 0.12239
 H216 H 0.64067 -0.14686 0.08901
 C217 C 0.25999 0.28554 0.42063
 C218 C 0.21145 0.31020 0.42996
 C219 C 0.16017 0.26973 0.44910
 C220 C 0.15673 0.20388 0.45919
 C221 C 0.20546 0.17923 0.44958
 C222 C 0.25680 0.21989 0.43043
 C223 C 0.31332 0.32843 0.40117
 C224 C 0.35731 0.36627 0.38496
 H225 H 0.21331 0.36086 0.42246
 H226 H 0.12275 0.28955 0.45586
 H227 H 0.20480 0.12930 0.45718
 H228 H 0.29428 0.20043 0.42340
 C229 C 0.01870 0.73596 0.75489
 C230 C 0.02241 0.71642 0.77970
 C231 C 0.03442 0.76798 0.79890
 C232 C 0.04303 0.83995 0.79352
 C233 C 0.03854 0.85883 0.76853
 C234 C 0.02659 0.80717 0.74935
 C235 C 0.01002 0.68411 0.73511
 C236 C 0.00504 0.64115 0.71868
 H237 H 0.01652 0.66150 0.78420
 H238 H 0.03640 0.75134 0.81798
 H239 H 0.04564 0.91407 0.76380
 H240 H 0.02435 0.82309 0.73019
   
