data_POSCAR
  _audit_creation_date              2014-09-24
  _audit_creation_method            'ToBaCCo'
  _symmetry_space_group_name_H-M    'P1'
  _symmetry_Int_Tables_number       1
  _symmetry_cell_setting            triclinic
  loop_
  _symmetry_equiv_pos_as_xyz
 x,y,z
_cell_length_a 29.8171
_cell_length_b 29.4972
_cell_length_c 49.3089
_cell_angle_alpha 89.532100
_cell_angle_beta 91.205500
_cell_angle_gamma 86.062400
loop_
  _atom_site_label
  _atom_site_type_symbol
  _atom_site_fract_x
  _atom_site_fract_y
  _atom_site_fract_z
O1 O 0.04838 0.54419 1.02479
 O2 O 0.04915 0.45417 0.97363
 O3 O 0.04660 0.54280 0.97197
 O4 O 0.05068 0.45569 1.02617
 O5 O -0.02345 0.45853 1.02577
 O6 O -0.02744 0.54635 0.97224
 O7 O -0.02502 0.45788 0.97302
 O8 O -0.02571 0.54698 1.02506
 Cu9 Cu 0.05612 0.49899 0.99913
 Cu10 Cu -0.03283 0.50281 0.99900
 C11 C 0.01127 0.56095 1.03376
 C12 C 0.01226 0.44043 0.96466
 C13 C 0.00883 0.55974 0.96286
 C14 C 0.01426 0.44192 1.03508
 O15 O 0.45304 -0.04057 0.47465
 O16 O 0.54467 -0.04657 0.52634
 O17 O 0.45748 -0.04466 0.52738
 O18 O 0.54057 -0.04432 0.47344
 O19 O 0.53791 0.03056 0.47431
 O20 O 0.45501 0.03019 0.52884
 O21 O 0.54249 0.02823 0.52694
 O22 O 0.45014 0.03429 0.47628
 Cu23 Cu 0.49925 -0.05152 0.50030
 Cu24 Cu 0.49615 0.03831 0.50167
 C25 C 0.43558 -0.00199 0.46688
 C26 C 0.55945 -0.01009 0.53545
 C27 C 0.44192 -0.00741 0.53734
 C28 C 0.55363 -0.00695 0.46468
 C29 C 0.08159 -0.00910 0.26315
 H30 H 0.08406 -0.01090 0.24132
 C31 C 0.12064 -0.01185 0.27938
 H32 H 0.15313 -0.01582 0.26994
 C33 C 0.03632 -0.00057 0.30195
 H34 H 0.00345 0.00411 0.31070
 C35 C 0.07453 -0.00253 0.31890
 H36 H 0.07067 0.00006 0.34064
 N37 N 0.04041 -0.00424 0.27460
 C38 C -0.05201 -0.06111 0.21567
 H39 H -0.08054 -0.03667 0.21656
 C40 C -0.05438 -0.09895 0.19898
 H41 H -0.08419 -0.10210 0.18641
 C42 C 0.02071 -0.08735 0.23147
 H43 H 0.04957 -0.08363 0.24457
 C44 C 0.01972 -0.12575 0.21516
 H45 H 0.04805 -0.15077 0.21591
 Zn46 Zn -0.01212 -0.00117 0.25182
 N47 N -0.01427 -0.05514 0.23086
 C48 C -0.04511 0.05877 0.20952
 N49 N -0.01177 0.05090 0.22859
 C50 C 0.02112 0.08037 0.23176
 C51 C 0.02174 0.11885 0.21510
 C52 C -0.04578 0.09678 0.19244
 C53 C -0.07320 -0.03305 0.28857
 C54 C -0.11037 -0.03094 0.30538
 C55 C -0.12777 0.04669 0.29059
 C56 C -0.09015 0.04314 0.27414
 N57 N -0.06371 0.00374 0.27351
 H58 H -0.07167 0.03595 0.20765
 H59 H 0.04667 0.07459 0.24746
 H60 H 0.04792 0.14208 0.21820
 H61 H -0.07231 0.10189 0.17717
 H62 H -0.05147 -0.06391 0.28773
 H63 H -0.11670 -0.06030 0.31767
 H64 H -0.14859 0.07823 0.29063
 H65 H -0.08188 0.07205 0.26209
 C66 C -0.01786 -0.13156 0.19824
 C67 C 0.11731 -0.00856 0.30763
 C68 C -0.13821 0.00939 0.30661
 C69 C -0.01200 0.12743 0.19507
 C70 C -0.01052 0.09465 0.76095
 H71 H -0.01316 0.09848 0.73912
 C72 C -0.01477 0.13295 0.77742
 H73 H -0.02038 0.16633 0.76816
 C74 C 0.00064 0.04646 0.79954
 H75 H 0.00589 0.01275 0.80818
 C76 C -0.00282 0.08383 0.81673
 H77 H 0.00009 0.07850 0.83847
 N78 N -0.00221 0.05254 0.77216
 C79 C 0.06827 -0.02693 0.71017
 H80 H 0.04669 -0.05479 0.70820
 C81 C 0.10613 -0.02546 0.69411
 H82 H 0.11312 -0.05216 0.67955
 C83 C 0.08439 0.04228 0.73114
 H84 H 0.07607 0.06835 0.74580
 C85 C 0.12267 0.04505 0.71551
 H86 H 0.14352 0.07332 0.71841
 Zn87 Zn 0.00501 0.00278 0.74819
 N88 N 0.05775 0.00700 0.72791
 C89 C -0.04136 0.01324 0.69757
 N90 N -0.04610 0.00519 0.72454
 C91 C -0.08732 0.00065 0.73517
 C92 C -0.12562 0.00209 0.71827
 C93 C -0.07882 0.01577 0.68005
 C94 C 0.04721 -0.05999 0.78504
 C95 C 0.05248 -0.09931 0.80108
 C96 C -0.01501 -0.12507 0.78010
 C97 C -0.01905 -0.08519 0.76453
 N98 N 0.01115 -0.05303 0.76779
 H99 H -0.00860 0.01819 0.68958
 H100 H -0.09033 -0.00452 0.75678
 H101 H -0.15818 -0.00205 0.72694
 H102 H -0.07446 0.02184 0.65861
 H103 H 0.07130 -0.03432 0.78683
 H104 H 0.08043 -0.10325 0.81547
 H105 H -0.03960 -0.15008 0.77734
 H106 H -0.04647 -0.08005 0.74996
 C107 C 0.13378 0.01106 0.69653
 C108 C -0.01022 0.12775 0.80567
 C109 C 0.02069 -0.13219 0.79904
 C110 C -0.12150 0.00974 0.69035
 C111 C 0.05170 -0.38459 0.06252
 C112 C 0.05173 -0.34992 0.08165
 C113 C 0.01155 -0.33297 0.09310
 C114 C -0.02901 -0.35120 0.08523
 C115 C -0.02914 -0.38579 0.06598
 C116 C 0.01124 -0.40282 0.05438
 N117 N 0.01292 -0.29690 0.11230
 N118 N -0.02187 -0.28082 0.12439
 C119 C -0.01998 -0.24419 0.14321
 C120 C -0.05896 -0.22917 0.15672
 C121 C -0.05833 -0.19292 0.17481
 C122 C -0.01855 -0.17093 0.17962
 C123 C 0.02059 -0.18630 0.16607
 C124 C 0.01993 -0.22259 0.14808
 H125 H 0.08337 -0.39686 0.05397
 H126 H 0.08317 -0.33608 0.08753
 H127 H -0.06054 -0.33857 0.09378
 H128 H -0.06085 -0.39914 0.06017
 H129 H -0.08991 -0.24559 0.15318
 H130 H -0.08890 -0.18235 0.18517
 H131 H 0.05158 -0.16968 0.16895
 H132 H 0.05049 -0.23339 0.13778
 C133 C 0.05701 0.38488 0.06556
 C134 C 0.05814 0.34953 0.08469
 C135 C 0.01819 0.33451 0.09479
 C136 C -0.02317 0.35567 0.08576
 C137 C -0.02437 0.39094 0.06661
 C138 C 0.01570 0.40577 0.05616
 N139 N 0.02044 0.29717 0.11365
 N140 N -0.01473 0.28219 0.12365
 C141 C -0.01294 0.24424 0.14204
 C142 C -0.05310 0.23031 0.15243
 C143 C -0.05281 0.19266 0.16982
 C144 C -0.01216 0.16813 0.17710
 C145 C 0.02823 0.18249 0.16681
 C146 C 0.02788 0.22022 0.14943
 H147 H 0.08847 0.39546 0.05791
 H148 H 0.09022 0.33348 0.09147
 H149 H -0.05455 0.34467 0.09326
 H150 H -0.05674 0.40632 0.05983
 H151 H -0.08475 0.24863 0.14693
 H152 H -0.08441 0.18294 0.17772
 H153 H 0.06003 0.16402 0.17177
 H154 H 0.05938 0.23025 0.14156
 C155 C 0.39605 -0.04961 0.56976
 C156 C 0.36285 -0.05053 0.58928
 C157 C 0.34074 -0.01016 0.59808
 C158 C 0.35274 0.03157 0.58745
 C159 C 0.38615 0.03259 0.56799
 C160 C 0.40790 -0.00805 0.55876
 N161 N 0.30560 -0.01273 0.61727
 N162 N 0.28233 0.02224 0.62522
 C163 C 0.24661 0.01896 0.64398
 C164 C 0.22048 0.05831 0.65068
 C165 C 0.18419 0.05592 0.66802
 C166 C 0.17347 0.01395 0.67902
 C167 C 0.20034 -0.02541 0.67262
 C168 C 0.23652 -0.02298 0.65524
 H169 H 0.41221 -0.08151 0.56316
 H170 H 0.35389 -0.08288 0.59733
 H171 H 0.33611 0.06326 0.59398
 H172 H 0.39449 0.06513 0.55990
 H173 H 0.22783 0.09080 0.64208
 H174 H 0.16385 0.08677 0.67226
 H175 H 0.19345 -0.05812 0.68110
 H176 H 0.25637 -0.05389 0.65048
 C177 C -0.38744 -0.05380 0.56588
 C178 C -0.35204 -0.05532 0.58502
 C179 C -0.33320 -0.01536 0.59318
 C180 C -0.35078 0.02650 0.58240
 C181 C -0.38657 0.02824 0.56361
 C182 C -0.40522 -0.01194 0.55486
 N183 N -0.29614 -0.01805 0.61223
 N184 N -0.27272 0.01574 0.61660
 C185 C -0.23573 0.01384 0.63565
 C186 C -0.20615 0.04865 0.63530
 C187 C -0.16903 0.04738 0.65311
 C188 C -0.16143 0.01157 0.67196
 C189 C -0.19168 -0.02289 0.67271
 C190 C -0.22840 -0.02199 0.65454
 H191 H -0.40087 -0.08548 0.55982
 H192 H -0.33882 -0.08780 0.59324
 H193 H -0.33695 0.05792 0.58854
 H194 H -0.39918 0.06117 0.55573
 H195 H -0.21158 0.07652 0.62091
 H196 H -0.14636 0.07449 0.65231
 H197 H -0.18634 -0.05094 0.68699
 H198 H -0.25101 -0.04914 0.65527
 C199 C -0.03466 -0.38689 0.93262
 C200 C -0.03651 -0.35247 0.91292
 C201 C 0.00298 -0.33687 0.90261
 C202 C 0.04474 -0.35639 0.91208
 C203 C 0.04676 -0.39082 0.93185
 C204 C 0.00704 -0.40642 0.94253
 N205 N -0.00042 -0.30057 0.88306
 N206 N 0.03387 -0.28484 0.87241
 C207 C 0.02979 -0.24777 0.85335
 C208 C 0.06866 -0.23225 0.84207
 C209 C 0.06583 -0.19515 0.82412
 C210 C 0.02387 -0.17285 0.81717
 C211 C -0.01514 -0.18890 0.82833
 C212 C -0.01225 -0.22600 0.84622
 H213 H -0.06604 -0.39782 0.94020
 H214 H -0.06889 -0.33763 0.90578
 H215 H 0.07577 -0.34481 0.90441
 H216 H 0.07952 -0.40491 0.93884
 H217 H 0.10125 -0.24879 0.84736
 H218 H 0.09644 -0.18400 0.81563
 H219 H -0.04789 -0.17209 0.82376
 H220 H -0.04282 -0.23720 0.85474
 C221 C 0.05301 0.37676 0.94008
 C222 C 0.05347 0.34046 0.92206
 C223 C 0.01421 0.33033 0.90804
 C224 C -0.02587 0.35706 0.91221
 C225 C -0.02653 0.39309 0.93051
 C226 C 0.01292 0.40326 0.94467
 N227 N 0.01586 0.29211 0.89030
 N228 N -0.01663 0.28375 0.87438
 C229 C -0.01454 0.24457 0.85734
 C230 C -0.04739 0.24088 0.83693
 C231 C -0.04599 0.20305 0.81996
 C232 C -0.01202 0.16793 0.82352
 C233 C 0.02065 0.17151 0.84419
 C234 C 0.01959 0.20959 0.86087
 H235 H 0.08389 0.38357 0.95076
 H236 H 0.08451 0.32001 0.91906
 H237 H -0.05670 0.34970 0.90166
 H238 H -0.05790 0.41293 0.93361
 H239 H -0.07395 0.26752 0.83408
 H240 H -0.07173 0.20091 0.80428
 H241 H 0.04741 0.14509 0.84719
 H242 H 0.04527 0.21154 0.87658
 C243 C -0.39843 -0.04818 0.43042
 C244 C -0.36494 -0.04909 0.41100
 C245 C -0.34429 -0.00949 0.40427
 C246 C -0.35814 0.03156 0.41686
 C247 C -0.39190 0.03261 0.43618
 C248 C -0.41212 -0.00737 0.44335
 N249 N -0.30884 -0.01222 0.38508
 N250 N -0.28622 0.02154 0.37943
 C251 C -0.25033 0.01820 0.36051
 C252 C -0.22459 0.05554 0.35675
 C253 C -0.18839 0.05288 0.33912
 C254 C -0.17743 0.01268 0.32481
 C255 C -0.20383 -0.02458 0.32837
 C256 C -0.23987 -0.02191 0.34609
 H257 H -0.41341 -0.07953 0.43540
 H258 H -0.35458 -0.08090 0.40142
 H259 H -0.34270 0.06266 0.41194
 H260 H -0.40165 0.06455 0.44579
 H261 H -0.23221 0.08658 0.36781
 H262 H -0.16842 0.08198 0.33716
 H263 H -0.19679 -0.05575 0.31734
 H264 H -0.25943 -0.05120 0.34853
 C265 C 0.37133 0.04205 0.44323
 C266 C 0.33437 0.04466 0.42528
 C267 C 0.32324 0.00657 0.41056
 C268 C 0.34957 -0.03454 0.41400
 C269 C 0.38627 -0.03739 0.43224
 C270 C 0.39751 0.00091 0.44707
 N271 N 0.28452 0.01039 0.39280
 N272 N 0.27533 -0.02071 0.37625
 C273 C 0.23582 -0.01677 0.35912
 C274 C 0.23103 -0.04825 0.33836
 C275 C 0.19273 -0.04535 0.32140
 C276 C 0.15825 -0.01124 0.32528
 C277 C 0.16298 0.02015 0.34624
 C278 C 0.20155 0.01761 0.36293
 H279 H 0.37895 0.07209 0.45445
 H280 H 0.31424 0.07647 0.42285
 H281 H 0.34145 -0.06452 0.40290
 H282 H 0.40584 -0.06952 0.43474
 H283 H 0.25711 -0.07499 0.33528
 H284 H 0.18968 -0.07019 0.30553
 H285 H 0.13703 0.04695 0.34952
 H286 H 0.20439 0.04225 0.37892
   
