data_POSCAR
  _audit_creation_date              2014-09-24
  _audit_creation_method            'ToBaCCo'
  _symmetry_space_group_name_H-M    'P1'
  _symmetry_Int_Tables_number       1
  _symmetry_cell_setting            triclinic
  loop_
  _symmetry_equiv_pos_as_xyz
 x,y,z
_cell_length_a 40.1206
_cell_length_b 44.9795
_cell_length_c 32.6205
_cell_angle_alpha 89.234800
_cell_angle_beta 89.091900
_cell_angle_gamma 89.809400
loop_
  _atom_site_label
  _atom_site_type_symbol
  _atom_site_fract_x
  _atom_site_fract_y
  _atom_site_fract_z
O1 O 0.36336 0.32588 -0.07410
 O2 O 0.35316 0.38945 -0.00467
 O3 O 0.39677 0.34642 -0.01425
 O4 O 0.31857 0.36882 -0.06443
 O5 O 0.28985 0.34116 -0.02006
 O6 O 0.36737 0.31835 0.02902
 O7 O 0.32430 0.36136 0.03910
 O8 O 0.33286 0.29853 -0.03114
 Cu9 Cu 0.36078 0.36054 -0.04388
 Cu10 Cu 0.32579 0.32697 0.00859
 C11 C 0.35019 0.30121 -0.06388
 C12 C 0.33662 0.38632 0.02865
 C13 C 0.39518 0.32793 0.01547
 C14 C 0.29085 0.35946 -0.04997
 O15 O 0.60779 0.59079 0.08058
 O16 O 0.56784 0.62330 -0.01070
 O17 O 0.60871 0.57724 0.00643
 O18 O 0.56513 0.63061 0.07135
 O19 O 0.60567 0.66320 0.06135
 O20 O 0.64815 0.61014 -0.00777
 O21 O 0.60843 0.65603 -0.01782
 O22 O 0.65054 0.62101 0.07027
 Cu23 Cu 0.58263 0.60306 0.03608
 Cu24 Cu 0.63233 0.64085 0.02552
 C25 C 0.63635 0.60018 0.09052
 C26 C 0.58108 0.64534 -0.02952
 C27 C 0.63605 0.58417 -0.01120
 C28 C 0.57827 0.65555 0.07850
 O29 O 0.62512 0.38223 0.96351
 O30 O 0.61896 0.32623 1.04718
 O31 O 0.63075 0.38299 1.04407
 O32 O 0.61219 0.32538 0.96805
 O33 O 0.66618 0.31651 0.96119
 O34 O 0.68460 0.37431 1.03549
 O35 O 0.67296 0.31739 1.04037
 O36 O 0.67891 0.37253 0.95644
 Cu37 Cu 0.61632 0.35533 1.00641
 Cu38 Cu 0.68104 0.34425 0.99782
 C39 C 0.65303 0.38655 0.94540
 C40 C 0.64502 0.31224 1.05785
 C41 C 0.66088 0.38824 1.05291
 C42 C 0.63625 0.31124 0.95163
 O43 O 0.41280 0.65701 1.04150
 O44 O 0.37803 0.60609 0.96650
 O45 O 0.40004 0.66155 0.96317
 O46 O 0.39103 0.60406 1.04426
 O47 O 0.34077 0.62160 1.05885
 O48 O 0.34807 0.67603 0.97442
 O49 O 0.32694 0.62153 0.98100
 O50 O 0.36257 0.67588 1.05264
 Cu51 Cu 0.40058 0.63062 1.00178
 Cu52 Cu 0.33952 0.65054 1.01803
 C53 C 0.39354 0.67477 1.06030
 C54 C 0.34674 0.60447 0.96160
 C55 C 0.37545 0.67828 0.95473
 C56 C 0.36454 0.60368 1.06612
 O57 O -0.03288 0.36373 0.32192
 O58 O 0.02032 0.33418 0.40405
 O59 O 0.02153 0.38056 0.35786
 O60 O -0.03291 0.31466 0.36871
 O61 O -0.00272 0.29241 0.32093
 O62 O 0.05269 0.35693 0.31219
 O63 O 0.05035 0.30960 0.35821
 O64 O -0.00132 0.34092 0.27595
 Cu65 Cu -0.00955 0.35060 0.36750
 Cu66 Cu 0.02760 0.32257 0.31206
 C67 C -0.02558 0.35796 0.28487
 C68 C 0.04453 0.31710 0.39503
 C69 C 0.04683 0.37956 0.33395
 C70 C -0.02653 0.29200 0.34702
 O71 O 0.01779 0.65749 0.60551
 O72 O -0.04402 0.63261 0.68267
 O73 O -0.04735 0.65853 0.61113
 O74 O 0.02100 0.63518 0.67901
 O75 O 0.02280 0.68070 0.70361
 O76 O -0.04479 0.70397 0.63562
 O77 O -0.04334 0.67717 0.71020
 O78 O 0.01869 0.70219 0.63289
 Cu79 Cu -0.01338 0.64146 0.64187
 Cu80 Cu -0.01274 0.69516 0.67415
 C81 C 0.02931 0.68370 0.60658
 C82 C -0.05394 0.65057 0.70983
 C83 C -0.05740 0.68540 0.61145
 C84 C 0.03407 0.65434 0.70210
 O85 O 0.97237 0.68182 0.34170
 O86 O 1.03455 0.62272 0.35857
 O87 O 1.02385 0.67585 0.38520
 O88 O 0.98106 0.62807 0.31210
 O89 O 1.01211 0.64697 0.26175
 O90 O 1.05605 0.69380 0.33521
 O91 O 1.06478 0.64058 0.30671
 O92 O 1.00378 0.70048 0.29143
 Cu93 Cu 0.99964 0.64976 0.35412
 Cu94 Cu 1.03720 0.67206 0.29343
 C95 C 0.97844 0.70202 0.31511
 C96 C 1.06051 0.62197 0.33584
 C97 C 1.04668 0.69341 0.37260
 C98 C 0.98922 0.62954 0.27437
 O99 O 0.95521 0.32037 0.62385
 O100 O 1.02071 0.37727 0.62624
 O101 O 1.01934 0.31876 0.63216
 O102 O 0.95561 0.37813 0.62277
 O103 O 0.95151 0.37988 0.69034
 O104 O 1.01462 0.32111 0.69956
 O105 O 1.01602 0.37893 0.69373
 O106 O 0.94967 0.32245 0.69127
 Cu107 Cu 0.98842 0.34853 0.61948
 Cu108 Cu 0.98263 0.35064 0.70047
 C109 C 0.94096 0.31206 0.65700
 C110 C 1.02936 0.38794 0.66027
 C111 C 1.02765 0.30974 0.66770
 C112 C 0.94256 0.38886 0.65520
 O113 O 0.34722 0.05855 0.31508
 O114 O 0.32744 -0.00111 0.38981
 O115 O 0.37400 0.00832 0.33584
 O116 O 0.29923 0.04929 0.36959
 O117 O 0.26952 0.02582 0.32374
 O118 O 0.34444 -0.01497 0.28962
 O119 O 0.29744 -0.02408 0.34372
 O120 O 0.31712 0.03572 0.26901
 Cu121 Cu 0.33978 0.03129 0.35724
 Cu122 Cu 0.30409 0.00354 0.30167
 C123 C 0.33600 0.05695 0.27905
 C124 C 0.30944 -0.02285 0.37941
 C125 C 0.37189 -0.01049 0.30734
 C126 C 0.27151 0.04404 0.35297
 O127 O 0.63091 0.01825 0.68163
 O128 O 0.65259 -0.03722 0.60382
 O129 O 0.63351 -0.03977 0.68041
 O130 O 0.65224 0.02104 0.60674
 O131 O 0.70443 0.02148 0.62732
 O132 O 0.68574 -0.03905 0.70085
 O133 O 0.70494 -0.03753 0.62367
 O134 O 0.68311 0.01815 0.70232
 Cu135 Cu 0.63716 -0.00960 0.64091
 Cu136 Cu 0.69997 -0.00937 0.66514
 C137 C 0.65331 0.02773 0.70513
 C138 C 0.68215 -0.04713 0.60070
 C139 C 0.65641 -0.04940 0.70359
 C140 C 0.68127 0.03224 0.60558
 O141 O 0.37038 0.96260 0.63971
 O142 O 0.29910 1.01448 0.64027
 O143 O 0.36341 1.01989 0.64060
 O144 O 0.30591 0.95676 0.64014
 O145 O 0.30580 0.95463 0.70787
 O146 O 0.36242 1.01907 0.70835
 O147 O 0.29735 1.01220 0.70796
 O148 O 0.36966 0.96134 0.70747
 Cu149 Cu 0.33471 0.98856 0.63340
 Cu150 Cu 0.33369 0.98690 0.71479
 C151 C 0.38206 0.95309 0.67341
 C152 C 0.28597 1.02201 0.67423
 C153 C 0.37274 1.03023 0.67451
 C154 C 0.29652 0.94463 0.67370
 O155 O 0.67458 1.01245 0.38309
 O156 O 0.63615 0.97170 0.29863
 O157 O 0.69101 0.96729 0.33992
 O158 O 0.61736 1.01562 0.34490
 O159 O 0.64164 1.04676 0.30091
 O160 O 0.71440 0.99696 0.29323
 O161 O 0.65904 1.00333 0.25414
 O162 O 0.69902 1.04260 0.33796
 Cu163 Cu 0.65223 0.98878 0.34623
 Cu164 Cu 0.68089 1.02564 0.29220
 C165 C 0.69421 1.03391 0.37471
 C166 C 0.64095 0.98083 0.26197
 C167 C 0.71508 0.97376 0.31584
 C168 C 0.61682 1.03927 0.32334
 C169 C 0.82237 0.82305 0.47504
 C170 C 0.83367 0.82905 0.43611
 C171 C 0.86008 0.81090 0.41579
 C172 C 0.81923 0.85325 0.41016
 C173 C 0.79363 0.83940 0.49325
 C174 C 0.83720 0.79879 0.50001
 C175 C 0.88666 0.82543 0.39556
 C176 C 0.90843 0.80973 0.37002
 C177 C 0.90432 0.77906 0.36468
 C178 C 0.87874 0.76419 0.38634
 C179 C 0.85638 0.78007 0.41111
 C180 C 0.81498 0.88228 0.42485
 C181 C 0.80113 0.90439 0.39986
 C182 C 0.79312 0.89823 0.35919
 C183 C 0.79856 0.86970 0.34384
 C184 C 0.81108 0.84730 0.36928
 C185 C 0.76255 0.83934 0.47420
 C186 C 0.73663 0.85740 0.48864
 C187 C 0.74116 0.87581 0.52272
 C188 C 0.77198 0.87493 0.54264
 C189 C 0.79791 0.85673 0.52821
 C190 C 0.81840 0.77324 0.50907
 C191 C 0.83338 0.74843 0.52737
 C192 C 0.86716 0.74913 0.53801
 C193 C 0.88540 0.77538 0.53131
 C194 C 0.87063 0.79995 0.51194
 H195 H 0.88982 0.84922 0.39842
 H196 H 0.92839 0.82164 0.35434
 H197 H 0.87520 0.74052 0.38270
 H198 H 0.83543 0.76850 0.42511
 H199 H 0.82227 0.88785 0.45560
 H200 H 0.79717 0.92644 0.41200
 H201 H 0.81432 0.82519 0.35704
 H202 H 0.75871 0.82592 0.44736
 H203 H 0.71343 0.85724 0.47230
 H204 H 0.77624 0.88868 0.56903
 H205 H 0.82174 0.85703 0.54334
 H206 H 0.79257 0.77200 0.50008
 H207 H 0.81870 0.72855 0.53270
 H208 H 0.91147 0.77638 0.53930
 H209 H 0.88544 0.81955 0.50522
 H210 H 0.79222 0.86456 0.31258
 C211 C 0.15992 0.16832 0.56040
 C212 C 0.16414 0.17332 0.51925
 C213 C 0.15249 0.20132 0.49921
 C214 C 0.17699 0.14981 0.49184
 C215 C 0.17523 0.14218 0.58172
 C216 C 0.13995 0.18918 0.58622
 C217 C 0.13052 0.20007 0.46619
 C218 C 0.11499 0.22590 0.45170
 C219 C 0.12092 0.25330 0.47025
 C220 C 0.14484 0.25491 0.50112
 C221 C 0.16090 0.22918 0.51503
 C222 C 0.15895 0.12343 0.48736
 C223 C 0.16952 0.10223 0.45907
 C224 C 0.19862 0.10689 0.43536
 C225 C 0.21705 0.13300 0.44055
 C226 C 0.20596 0.15458 0.46808
 C227 C 0.20891 0.13459 0.57506
 C228 C 0.22366 0.11155 0.59766
 C229 C 0.20537 0.09623 0.62824
 C230 C 0.17162 0.10355 0.63461
 C231 C 0.15671 0.12619 0.61148
 C232 C 0.15361 0.20087 0.62191
 C233 C 0.13564 0.22143 0.64531
 C234 C 0.10383 0.23090 0.63316
 C235 C 0.08996 0.21891 0.59785
 C236 C 0.10755 0.19776 0.57508
 H237 H 0.12391 0.17892 0.45316
 H238 H 0.09687 0.22415 0.42759
 H239 H 0.15054 0.27590 0.51522
 H240 H 0.17853 0.23076 0.53969
 H241 H 0.13629 0.11963 0.50513
 H242 H 0.15506 0.08213 0.45592
 H243 H 0.21994 0.17499 0.47096
 H244 H 0.22415 0.14708 0.55330
 H245 H 0.24977 0.10647 0.59233
 H246 H 0.15672 0.09187 0.65756
 H247 H 0.13074 0.13157 0.61728
 H248 H 0.17845 0.19448 0.63120
 H249 H 0.14697 0.23045 0.67233
 H250 H 0.06530 0.22560 0.58822
 H251 H 0.09611 0.18845 0.54830
 H252 H 0.23953 0.13703 0.42252
 C253 C 0.18864 0.82215 0.48123
 C254 C 0.18653 0.81427 0.52185
 C255 C 0.16584 0.78838 0.53485
 C256 C 0.20185 0.83208 0.55471
 C257 C 0.21379 0.84373 0.46509
 C258 C 0.16346 0.81013 0.45307
 C259 C 0.13694 0.79253 0.55880
 C260 C 0.11478 0.76900 0.56553
 C261 C 0.12117 0.74101 0.54834
 C262 C 0.15098 0.73660 0.52602
 C263 C 0.17324 0.76004 0.51968
 C264 C 0.20037 0.86331 0.55353
 C265 C 0.21530 0.87990 0.58396
 C266 C 0.23062 0.86565 0.61719
 C267 C 0.23075 0.83447 0.61962
 C268 C 0.21663 0.81782 0.58848
 C269 C 0.24688 0.84238 0.47856
 C270 C 0.26932 0.86502 0.46833
 C271 C 0.25941 0.88909 0.44347
 C272 C 0.22717 0.88926 0.42729
 C273 C 0.20448 0.86681 0.43814
 C274 C 0.17160 0.78641 0.42720
 C275 C 0.14643 0.76749 0.41369
 C276 C 0.11322 0.77218 0.42632
 C277 C 0.10491 0.79797 0.44794
 C278 C 0.12983 0.81706 0.46068
 H279 H 0.13084 0.81429 0.57066
 H280 H 0.09210 0.77294 0.58310
 H281 H 0.15711 0.71520 0.51315
 H282 H 0.19571 0.75640 0.50156
 H283 H 0.18781 0.87493 0.52892
 H284 H 0.21460 0.90395 0.58176
 H285 H 0.21764 0.79378 0.59048
 H286 H 0.25499 0.82431 0.49833
 H287 H 0.29431 0.86383 0.48029
 H288 H 0.21906 0.90745 0.40775
 H289 H 0.17923 0.86822 0.42699
 H290 H 0.19745 0.78068 0.42127
 H291 H 0.15326 0.74772 0.39688
 H292 H 0.07937 0.80223 0.45745
 H293 H 0.12316 0.83533 0.48055
 H294 H 0.24263 0.82298 0.64488
 C295 C 0.82665 0.17215 0.48229
 C296 C 0.81538 0.18010 0.52046
 C297 C 0.83226 0.20213 0.54682
 C298 C 0.78574 0.16447 0.53827
 C299 C 0.81225 0.14539 0.46295
 C300 C 0.85255 0.18871 0.45822
 C301 C 0.86725 0.20366 0.54877
 C302 C 0.88250 0.22332 0.57548
 C303 C 0.86316 0.24081 0.60206
 C304 C 0.82830 0.23903 0.60072
 C305 C 0.81303 0.22009 0.57316
 C306 C 0.78986 0.14249 0.56867
 C307 C 0.76450 0.12184 0.57677
 C308 C 0.73458 0.12305 0.55487
 C309 C 0.72950 0.14687 0.52723
 C310 C 0.75482 0.16743 0.51917
 C311 C 0.79021 0.14847 0.43020
 C312 C 0.77000 0.12459 0.41934
 C313 C 0.77137 0.09764 0.44155
 C314 C 0.79555 0.09389 0.47182
 C315 C 0.81623 0.11744 0.48191
 C316 C 0.85192 0.21991 0.45421
 C317 C 0.87543 0.23465 0.42901
 C318 C 0.89942 0.21840 0.40675
 C319 C 0.90024 0.18730 0.41143
 C320 C 0.87712 0.17269 0.43677
 H321 H 0.88288 0.18925 0.53036
 H322 H 0.90946 0.22415 0.57637
 H323 H 0.81284 0.25251 0.62069
 H324 H 0.78607 0.21928 0.57270
 H325 H 0.81362 0.13985 0.58362
 H326 H 0.76897 0.10406 0.59874
 H327 H 0.75124 0.18437 0.49571
 H328 H 0.78696 0.16986 0.41513
 H329 H 0.75181 0.12779 0.39549
 H330 H 0.79771 0.07308 0.48864
 H331 H 0.83355 0.11461 0.50682
 H332 H 0.83289 0.23278 0.46988
 H333 H 0.87431 0.25864 0.42605
 H334 H 0.91884 0.17405 0.39565
 H335 H 0.87835 0.14869 0.43949
 H336 H 0.70669 0.14906 0.51030
 C337 C 0.52959 0.80088 0.80460
 C338 C 0.49664 0.80708 0.79990
 C339 C 0.48535 0.83220 0.77339
 C340 C 0.47056 0.78861 0.82071
 C341 C 0.54058 0.77192 0.82238
 C342 C 0.55498 0.82381 0.79513
 C343 C 0.46199 0.85280 0.78828
 C344 C 0.44917 0.87490 0.76238
 C345 C 0.45918 0.87667 0.72092
 C346 C 0.48304 0.85624 0.70623
 C347 C 0.49592 0.83422 0.73221
 C348 C 0.47226 0.78237 0.86297
 C349 C 0.44891 0.76365 0.88209
 C350 C 0.42282 0.75161 0.85958
 C351 C 0.42033 0.75877 0.81765
 C352 C 0.44410 0.77705 0.79835
 C353 C 0.52972 0.74526 0.80519
 C354 C 0.53453 0.71818 0.82568
 C355 C 0.55045 0.71717 0.86378
 C356 C 0.56343 0.74361 0.87949
 C357 C 0.55862 0.77080 0.85889
 C358 C 0.57803 0.82011 0.76282
 C359 C 0.60055 0.84285 0.75273
 C360 C 0.60084 0.86900 0.77564
 C361 C 0.57836 0.87240 0.80852
 C362 C 0.55531 0.85005 0.81794
 H363 H 0.45342 0.85153 0.81990
 H364 H 0.43087 0.89027 0.77466
 H365 H 0.49131 0.85662 0.67453
 H366 H 0.51339 0.81814 0.71983
 H367 H 0.49188 0.79182 0.88108
 H368 H 0.45102 0.75885 0.91459
 H369 H 0.44226 0.78164 0.76580
 H370 H 0.51623 0.74562 0.77667
 H371 H 0.52508 0.69818 0.81202
 H372 H 0.57590 0.74348 0.90870
 H373 H 0.56719 0.79111 0.87267
 H374 H 0.57802 0.80000 0.74493
 H375 H 0.61794 0.83999 0.72736
 H376 H 0.57833 0.89252 0.82642
 H377 H 0.53764 0.85316 0.84296
 H378 H 0.40053 0.74964 0.79953
 C379 C 0.51425 0.18920 0.20175
 C380 C 0.48352 0.19370 0.18524
 C381 C 0.45467 0.17384 0.19466
 C382 C 0.47728 0.21796 0.15498
 C383 C 0.54356 0.20785 0.18957
 C384 C 0.52124 0.16359 0.22952
 C385 C 0.43741 0.16125 0.16211
 C386 C 0.41086 0.14190 0.16965
 C387 C 0.40089 0.13464 0.21004
 C388 C 0.41776 0.14764 0.24270
 C389 C 0.44419 0.16736 0.23510
 C390 C 0.49617 0.22054 0.11844
 C391 C 0.49014 0.24388 0.09081
 C392 C 0.46433 0.26429 0.09865
 C393 C 0.44492 0.26116 0.13458
 C394 C 0.45145 0.23829 0.16261
 C395 C 0.54223 0.23911 0.18992
 C396 C 0.56809 0.25586 0.17203
 C397 C 0.59637 0.24169 0.15548
 C398 C 0.59888 0.21061 0.15823
 C399 C 0.57265 0.19386 0.17486
 C400 C 0.53740 0.16850 0.26668
 C401 C 0.54685 0.14454 0.29157
 C402 C 0.53989 0.11545 0.27981
 C403 C 0.52345 0.11037 0.24302
 C404 C 0.51454 0.13428 0.21772
 H405 H 0.44500 0.16593 0.13067
 H406 H 0.39888 0.13206 0.14368
 H407 H 0.41053 0.14253 0.27413
 H408 H 0.45667 0.17728 0.26071
 H409 H 0.51561 0.20455 0.11144
 H410 H 0.50494 0.24538 0.06282
 H411 H 0.43637 0.23646 0.19037
 H412 H 0.52051 0.25046 0.20219
 H413 H 0.56581 0.27985 0.17054
 H414 H 0.62031 0.19910 0.14543
 H415 H 0.57446 0.16983 0.17450
 H416 H 0.54328 0.19089 0.27596
 H417 H 0.56014 0.14863 0.31958
 H418 H 0.51871 0.08788 0.23320
 H419 H 0.50319 0.12990 0.18853
 H420 H 0.42468 0.27649 0.14104
 C421 C 0.48736 0.17172 0.80458
 C422 C 0.52073 0.17337 0.81001
 C423 C 0.54378 0.14880 0.79819
 C424 C 0.53700 0.19951 0.82798
 C425 C 0.46276 0.19105 0.82590
 C426 C 0.47312 0.14986 0.77648
 C427 C 0.56352 0.13574 0.82870
 C428 C 0.58732 0.11421 0.81882
 C429 C 0.59184 0.10510 0.77811
 C430 C 0.57166 0.11768 0.74755
 C431 C 0.54814 0.13971 0.75739
 C432 C 0.53321 0.20677 0.86955
 C433 C 0.55416 0.22803 0.88682
 C434 C 0.57941 0.24158 0.86282
 C435 C 0.58167 0.23544 0.82084
 C436 C 0.56067 0.21467 0.80364
 C437 C 0.46176 0.22209 0.82030
 C438 C 0.43587 0.23883 0.83828
 C439 C 0.41034 0.22463 0.86114
 C440 C 0.41196 0.19370 0.86716
 C441 C 0.43782 0.17721 0.84985
 C442 C 0.46345 0.15965 0.73752
 C443 C 0.44868 0.14006 0.71060
 C444 C 0.44271 0.11042 0.72256
 C445 C 0.45222 0.10065 0.76180
 C446 C 0.46767 0.12021 0.78853
 H447 H 0.56071 0.14251 0.86032
 H448 H 0.60212 0.10468 0.84317
 H449 H 0.57485 0.11118 0.71588
 H450 H 0.53399 0.15006 0.73309
 H451 H 0.51535 0.19498 0.88891
 H452 H 0.55203 0.23248 0.91930
 H453 H 0.56394 0.20932 0.77153
 H454 H 0.48044 0.23320 0.80138
 H455 H 0.43528 0.26269 0.83345
 H456 H 0.39334 0.18210 0.88556
 H457 H 0.43813 0.15336 0.85483
 H458 H 0.46730 0.18258 0.72805
 H459 H 0.44114 0.14840 0.68088
 H460 H 0.44779 0.07790 0.77167
 H461 H 0.47488 0.11245 0.81869
 H462 H 0.60050 0.24599 0.80150
 C463 C 0.47681 0.83932 0.17375
 C464 C 0.51021 0.83550 0.16780
 C465 C 0.53390 0.86026 0.17304
 C466 C 0.52392 0.80536 0.16107
 C467 C 0.45366 0.81547 0.16189
 C468 C 0.46373 0.86438 0.19844
 C469 C 0.53015 0.88665 0.15018
 C470 C 0.55095 0.91086 0.15693
 C471 C 0.57547 0.90919 0.18715
 C472 C 0.57933 0.88271 0.20984
 C473 C 0.55905 0.85822 0.20236
 C474 C 0.53715 0.79717 0.12286
 C475 C 0.54569 0.76745 0.11568
 C476 C 0.54084 0.74572 0.14657
 C477 C 0.52925 0.75445 0.18544
 C478 C 0.52108 0.78404 0.19265
 C479 C 0.44085 0.79592 0.19195
 C480 C 0.42806 0.76840 0.18069
 C481 C 0.42684 0.76064 0.13918
 C482 C 0.43649 0.78149 0.10898
 C483 C 0.45028 0.80861 0.12029
 C484 C 0.47785 0.87022 0.23659
 C485 C 0.46737 0.89452 0.25938
 C486 C 0.44185 0.91317 0.24508
 C487 C 0.42628 0.90642 0.20804
 C488 C 0.43725 0.88218 0.18474
 H489 H 0.51082 0.88859 0.12748
 H490 H 0.54715 0.93113 0.13935
 H491 H 0.59806 0.88096 0.23331
 H492 H 0.56212 0.83809 0.22051
 H493 H 0.53949 0.81346 0.09824
 H494 H 0.55471 0.76124 0.08551
 H495 H 0.51131 0.79022 0.22251
 H496 H 0.44362 0.80076 0.22415
 H497 H 0.42072 0.75256 0.20441
 H498 H 0.43600 0.77579 0.07684
 H499 H 0.46046 0.82334 0.09676
 H500 H 0.49727 0.85597 0.24867
 H501 H 0.47904 0.89846 0.28849
 H502 H 0.40622 0.92027 0.19672
 H503 H 0.42559 0.87767 0.15576
 H504 H 0.52597 0.73840 0.21016
 C505 C 0.79161 0.52048 0.80806
 C506 C 0.78636 0.49515 0.78641
 C507 C 0.75715 0.47594 0.79630
 C508 C 0.81086 0.48365 0.75604
 C509 C 0.81886 0.54192 0.79808
 C510 C 0.76888 0.52832 0.84279
 C511 C 0.76221 0.44821 0.81532
 C512 C 0.73571 0.43361 0.83520
 C513 C 0.70362 0.44629 0.83587
 C514 C 0.69805 0.47271 0.81338
 C515 C 0.72461 0.48734 0.79361
 C516 C 0.84345 0.47656 0.76776
 C517 C 0.86553 0.46313 0.74000
 C518 C 0.85556 0.45695 0.69992
 C519 C 0.82312 0.46472 0.68797
 C520 C 0.80085 0.47763 0.71600
 C521 C 0.82588 0.55109 0.75748
 C522 C 0.84936 0.57339 0.74926
 C523 C 0.86534 0.58764 0.78149
 C524 C 0.85865 0.57833 0.82198
 C525 C 0.83584 0.55558 0.83014
 C526 C 0.75019 0.55474 0.84127
 C527 C 0.72547 0.56018 0.87095
 C528 C 0.71880 0.53901 0.90194
 C529 C 0.73880 0.51345 0.90482
 C530 C 0.76419 0.50851 0.87602
 H531 H 0.78712 0.43906 0.81773
 H532 H 0.74071 0.41311 0.85181
 H533 H 0.67374 0.48312 0.81298
 H534 H 0.72025 0.50870 0.77889
 H535 H 0.85144 0.48063 0.79874
 H536 H 0.89033 0.45725 0.75002
 H537 H 0.77566 0.48270 0.70661
 H538 H 0.81244 0.54180 0.73219
 H539 H 0.85404 0.58035 0.71778
 H540 H 0.87101 0.58864 0.84738
 H541 H 0.83094 0.54900 0.86172
 H542 H 0.75376 0.57045 0.81615
 H543 H 0.71039 0.58012 0.86846
 H544 H 0.73445 0.49712 0.92899
 H545 H 0.77915 0.48850 0.87846
 H546 H 0.81451 0.45985 0.65752
 C547 C 0.23091 0.51102 0.24210
 C548 C 0.22445 0.48244 0.23116
 C549 C 0.24220 0.46901 0.19549
 C550 C 0.19791 0.46504 0.25280
 C551 C 0.20569 0.52831 0.26531
 C552 C 0.26037 0.52714 0.22526
 C553 C 0.24356 0.48447 0.15777
 C554 C 0.26444 0.47475 0.12613
 C555 C 0.28330 0.44867 0.13093
 C556 C 0.27992 0.43183 0.16732
 C557 C 0.25966 0.44207 0.19961
 C558 C 0.17290 0.45075 0.23085
 C559 C 0.14553 0.43805 0.25165
 C560 C 0.14260 0.44005 0.29447
 C561 C 0.16857 0.45274 0.31646
 C562 C 0.19629 0.46451 0.29585
 C563 C 0.21082 0.53606 0.30622
 C564 C 0.18545 0.55024 0.32860
 C565 C 0.15531 0.55781 0.30967
 C566 C 0.15092 0.55114 0.26826
 C567 C 0.17572 0.53610 0.24641
 C568 C 0.29226 0.51436 0.22777
 C569 C 0.31878 0.52599 0.20452
 C570 C 0.31386 0.55081 0.17864
 C571 C 0.28256 0.56495 0.17886
 C572 C 0.25606 0.55330 0.20208
 H573 H 0.22941 0.50478 0.15344
 H574 H 0.26585 0.48764 0.09788
 H575 H 0.29396 0.41142 0.17132
 H576 H 0.25863 0.42966 0.22828
 H577 H 0.17383 0.45054 0.19766
 H578 H 0.12590 0.42796 0.23421
 H579 H 0.21599 0.47425 0.31349
 H580 H 0.23393 0.53025 0.32108
 H581 H 0.18945 0.55554 0.36042
 H582 H 0.12792 0.55690 0.25308
 H583 H 0.17155 0.53037 0.21476
 H584 H 0.29610 0.49432 0.24590
 H585 H 0.34255 0.51465 0.20561
 H586 H 0.27806 0.58429 0.15956
 H587 H 0.23170 0.56355 0.19966
 H588 H 0.16731 0.45377 0.34960
 C589 C 0.81533 0.48424 0.19118
 C590 C 0.81706 0.51396 0.19797
 C591 C 0.78706 0.53280 0.19241
 C592 C 0.84902 0.52924 0.20553
 C593 C 0.84377 0.46361 0.19827
 C594 C 0.78474 0.47141 0.17383
 C595 C 0.78287 0.54891 0.15577
 C596 C 0.75208 0.56203 0.14700
 C597 C 0.72503 0.55912 0.17468
 C598 C 0.73014 0.54464 0.21261
 C599 C 0.76090 0.53157 0.22133
 C600 C 0.87594 0.52621 0.17791
 C601 C 0.90504 0.54264 0.18286
 C602 C 0.90776 0.56255 0.21552
 C603 C 0.88109 0.56500 0.24373
 C604 C 0.85182 0.54873 0.23851
 C605 C 0.85949 0.46210 0.23644
 C606 C 0.88480 0.44118 0.24353
 C607 C 0.89493 0.42151 0.21255
 C608 C 0.87929 0.42331 0.17434
 C609 C 0.85401 0.44402 0.16737
 C610 C 0.75921 0.46035 0.19959
 C611 C 0.72997 0.44921 0.18279
 C612 C 0.72653 0.44816 0.14007
 C613 C 0.75222 0.45900 0.11443
 C614 C 0.78084 0.47110 0.13121
 H615 H 0.80283 0.54990 0.13306
 H616 H 0.74898 0.57314 0.11765
 H617 H 0.71018 0.54253 0.23512
 H618 H 0.76387 0.51929 0.24983
 H619 H 0.87410 0.51167 0.15184
 H620 H 0.92521 0.53985 0.16085
 H621 H 0.83121 0.55153 0.25998
 H622 H 0.85172 0.47670 0.26095
 H623 H 0.89638 0.44032 0.27329
 H624 H 0.88600 0.40840 0.14981
 H625 H 0.84245 0.44462 0.13766
 H626 H 0.76186 0.46064 0.23257
 H627 H 0.71049 0.44068 0.20303
 H628 H 0.74993 0.45841 0.08141
 H629 H 0.80013 0.48000 0.11099
 H630 H 0.88250 0.58014 0.26918
 C631 C 0.17519 0.49367 0.80442
 C632 C 0.18246 0.52289 0.80991
 C633 C 0.21262 0.53137 0.83324
 C634 C 0.16154 0.54738 0.79263
 C635 C 0.15102 0.48311 0.77382
 C636 C 0.19068 0.47038 0.83036
 C637 C 0.21043 0.55116 0.86613
 C638 C 0.23923 0.55982 0.88665
 C639 C 0.27072 0.54888 0.87458
 C640 C 0.27271 0.52932 0.84127
 C641 C 0.24407 0.52081 0.82083
 C642 C 0.12647 0.54589 0.79395
 C643 C 0.10719 0.56957 0.77926
 C644 C 0.12253 0.59567 0.76470
 C645 C 0.15744 0.59740 0.76371
 C646 C 0.17674 0.57340 0.77715
 C647 C 0.15395 0.49161 0.73235
 C648 C 0.13344 0.47879 0.70310
 C649 C 0.10972 0.45717 0.71489
 C650 C 0.10619 0.44953 0.75660
 C651 C 0.12669 0.46222 0.78567
 C652 C 0.21287 0.44962 0.81327
 C653 C 0.22576 0.42660 0.83759
 C654 C 0.21545 0.42347 0.87869
 C655 C 0.19310 0.44418 0.89562
 C656 C 0.18112 0.46771 0.87173
 H657 H 0.18642 0.55986 0.87589
 H658 H 0.23687 0.57502 0.91199
 H659 H 0.29640 0.52090 0.83019
 H660 H 0.24650 0.50627 0.79474
 H661 H 0.11389 0.52670 0.80714
 H662 H 0.08026 0.56795 0.78070
 H663 H 0.20364 0.57530 0.77581
 H664 H 0.17281 0.50743 0.72246
 H665 H 0.13675 0.48546 0.67135
 H666 H 0.08808 0.43310 0.76675
 H667 H 0.12389 0.45534 0.81747
 H668 H 0.22012 0.45128 0.78120
 H669 H 0.24298 0.41077 0.82410
 H670 H 0.18512 0.44227 0.92742
 H671 H 0.16369 0.48341 0.88513
 H672 H 0.16983 0.61727 0.75228
 C673 C 0.32993 0.41221 0.05443
 C674 C 0.34023 0.44074 0.04497
 C675 C 0.32474 0.45831 0.07320
 C676 C 0.30624 0.43914 0.09784
 O677 O 0.30947 0.41113 0.08664
 H678 H 0.35604 0.44795 0.01958
 H679 H 0.32621 0.48227 0.07514
 C680 C 0.65328 0.58627 0.12547
 C681 C 0.63714 0.57051 0.15628
 C682 C 0.66178 0.55942 0.18035
 C683 C 0.69132 0.56902 0.16223
 O684 O 0.68608 0.58541 0.12886
 H685 H 0.61060 0.56691 0.16007
 H686 H 0.65840 0.54484 0.20670
 C687 C 0.65587 0.40781 0.91093
 C688 C 0.63011 0.42458 0.89534
 C689 C 0.64410 0.44109 0.86414
 C690 C 0.67742 0.43305 0.86297
 O691 O 0.68444 0.41283 0.89139
 H692 H 0.60433 0.42486 0.90561
 H693 H 0.63137 0.45711 0.84491
 C694 C 0.33368 0.58229 0.93319
 C695 C 0.35314 0.56054 0.91551
 C696 C 0.33224 0.54486 0.89163
 C697 C 0.30131 0.55824 0.89613
 O698 O 0.30215 0.58094 0.92173
 H699 H 0.37947 0.55647 0.91982
 H700 H 0.33901 0.52578 0.87346
 C701 C 0.06624 0.30602 0.42758
 C702 C 0.06931 0.31912 0.46527
 C703 C 0.09163 0.30186 0.48588
 C704 C 0.10024 0.27934 0.45929
 O705 O 0.08482 0.28187 0.42385
 H706 H 0.05662 0.33876 0.47641
 H707 H 0.09954 0.30469 0.51714
 C708 C 0.05628 0.69266 0.57831
 C709 C 0.06928 0.67524 0.54748
 C710 C 0.09549 0.69102 0.53149
 C711 C 0.09656 0.71684 0.55399
 O712 O 0.07261 0.71785 0.58222
 H713 H 0.06095 0.65352 0.53822
 H714 H 0.11165 0.68439 0.50636
 C715 C 0.95738 0.72867 0.31420
 C716 C 0.96218 0.75237 0.28755
 C717 C 0.94215 0.77444 0.30221
 C718 C 0.92664 0.76252 0.33674
 O719 O 0.93570 0.73469 0.34390
 H720 H 0.97946 0.75385 0.26178
 H721 H 0.93977 0.79676 0.28979
 C722 C 0.91352 0.29068 0.65517
 C723 C 0.89032 0.28580 0.68614
 C724 C 0.86796 0.26642 0.67036
 C725 C 0.87947 0.26072 0.63112
 O726 O 0.90711 0.27542 0.62186
 H727 H 0.88937 0.29579 0.71613
 H728 H 0.84599 0.25745 0.68562
 C729 C 0.34601 0.07942 0.24823
 C730 C 0.33316 0.08150 0.20940
 C731 C 0.35126 0.10318 0.18992
 C732 C 0.37404 0.11267 0.21830
 O733 O 0.37068 0.09832 0.25382
 H734 H 0.31344 0.06833 0.19659
 H735 H 0.34832 0.11072 0.15857
 C736 C 0.64457 0.05018 0.73581
 C737 C 0.66442 0.05753 0.76819
 C738 C 0.64712 0.07886 0.78888
 C739 C 0.61804 0.08314 0.76737
 O740 O 0.61650 0.06573 0.73505
 H741 H 0.68856 0.04838 0.77580
 H742 H 0.65513 0.09031 0.81596
 C743 C 0.40989 0.93179 0.67316
 C744 C 0.42824 0.92411 0.63884
 C745 C 0.45008 0.90285 0.65195
 C746 C 0.44331 0.89898 0.69342
 O747 O 0.41895 0.91670 0.70621
 H748 H 0.42572 0.93274 0.60792
 H749 H 0.46823 0.89138 0.63304
 C750 C 0.62488 0.96561 0.22807
 C751 C 0.62425 0.97647 0.18836
 C752 C 0.60561 0.95671 0.16741
 C753 C 0.59646 0.93514 0.19587
 O754 O 0.60818 0.94049 0.23275
 H755 H 0.63560 0.99663 0.17634
 H756 H 0.59955 0.95785 0.13522
 C757 C 0.35620 0.27486 0.91106
 C758 C 0.33469 0.25112 0.91011
 C759 C 0.35145 0.22964 0.88926
 C760 C 0.38229 0.24167 0.87946
 O761 O 0.38508 0.26935 0.89234
 H762 H 0.31017 0.24938 0.92423
 H763 H 0.34254 0.20750 0.88313
 C764 C 0.56456 0.65865 0.93472
 C765 C 0.53914 0.64538 0.91386
 C766 C 0.53097 0.66512 0.88356
 C767 C 0.55195 0.68914 0.88825
 O768 O 0.57235 0.68519 0.91942
 H769 H 0.52782 0.62396 0.92015
 H770 H 0.51134 0.66253 0.86156
 C771 C 0.40737 0.69310 0.09263
 C772 C 0.42733 0.68180 0.12315
 C773 C 0.43547 0.70560 0.14621
 C774 C 0.42034 0.72971 0.12758
 O775 O 0.40329 0.72223 0.09485
 H776 H 0.43521 0.65896 0.12771
 H777 H 0.45185 0.70570 0.17225
 C778 C 0.64263 0.28929 0.09021
 C779 C 0.66880 0.27153 0.10251
 C780 C 0.65524 0.25171 0.12993
 C781 C 0.62182 0.25901 0.13252
 O782 O 0.61414 0.28187 0.10849
 H783 H 0.69445 0.27236 0.09179
 H784 H 0.66802 0.23371 0.14551
 C785 C 0.25718 0.04230 0.67431
 C786 C 0.23578 0.04627 0.70725
 C787 C 0.21276 0.06649 0.69414
 C788 C 0.22203 0.07359 0.65422
 O789 O 0.24902 0.05889 0.64217
 H790 H 0.23684 0.03566 0.73718
 H791 H 0.19225 0.07554 0.71198
 C792 C 0.71169 0.04742 0.40584
 C793 C 0.71107 0.03818 0.44637
 C794 C 0.73383 0.05555 0.46519
 C795 C 0.74639 0.07427 0.43484
 O796 O 0.73285 0.06949 0.39884
 H797 H 0.69642 0.02047 0.46031
 H798 H 0.74026 0.05483 0.49727
 C799 C 0.68952 0.92963 0.57040
 C800 C 0.66629 0.91889 0.54376
 C801 C 0.68230 0.89730 0.52221
 C802 C 0.71435 0.89626 0.53725
 O803 O 0.71869 0.91597 0.56665
 H804 H 0.64057 0.92582 0.54069
 H805 H 0.67144 0.88391 0.49865
 C806 C 0.30270 0.95290 0.40891
 C807 C 0.31976 0.94859 0.44485
 C808 C 0.30637 0.92358 0.46231
 C809 C 0.28194 0.91459 0.43582
 O810 O 0.27965 0.93244 0.40338
 H811 H 0.33963 0.96203 0.45676
 H812 H 0.31310 0.91358 0.49138
 C813 C 0.05509 0.41104 0.66128
 C814 C 0.06998 0.42413 0.62727
 C815 C 0.09227 0.44391 0.64236
 C816 C 0.08932 0.44136 0.68458
 O817 O 0.06670 0.42140 0.69591
 H818 H 0.06531 0.41965 0.59536
 H819 H 0.10892 0.45799 0.62446
 C820 C 0.08636 0.59955 0.34297
 C821 C 0.09171 0.58478 0.37961
 C822 C 0.11926 0.56748 0.37269
 C823 C 0.12818 0.57284 0.33223
 O824 O 0.10831 0.59230 0.31426
 H825 H 0.07755 0.58673 0.40796
 H826 H 0.13096 0.55235 0.39419
 C827 C 0.95500 0.37153 0.25166
 C828 C 0.95985 0.36524 0.21080
 C829 C 0.93799 0.38303 0.19043
 C830 C 0.92132 0.39902 0.22040
 O831 O 0.93177 0.39205 0.25767
 H832 H 0.97749 0.34974 0.19745
 H833 H 0.93517 0.38435 0.15755
 C834 C 0.92224 0.64011 0.74128
 C835 C 0.91506 0.65456 0.77736
 C836 C 0.89303 0.63653 0.79795
 C837 C 0.88826 0.61259 0.77263
 O838 O 0.90595 0.61476 0.73822
 H839 H 0.92495 0.67551 0.78754
 H840 H 0.88141 0.64063 0.82751
 C841 C 0.65329 0.56288 0.96627
 C842 C 0.64453 0.53323 0.96489
 C843 C 0.66856 0.52012 0.94132
 C844 C 0.68991 0.54281 0.92969
 O845 O 0.68071 0.56880 0.94469
 H846 H 0.62345 0.52240 0.97978
 H847 H 0.67002 0.49695 0.93288
 C848 C 0.26112 0.37054 0.93451
 C849 C 0.22997 0.36367 0.95058
 C850 C 0.20845 0.38223 0.93093
 C851 C 0.22799 0.39875 0.90405
 O852 O 0.25995 0.39165 0.90593
 H853 H 0.22387 0.34803 0.97505
 H854 H 0.18181 0.38403 0.93617
 C855 C 0.36129 0.58372 0.09877
 C856 C 0.38536 0.56380 0.11137
 C857 C 0.37144 0.54898 0.14414
 C858 C 0.33984 0.56101 0.14901
 O859 O 0.33386 0.58212 0.12151
 H860 H 0.41000 0.56043 0.09826
 H861 H 0.38301 0.53134 0.16176
 C862 C 0.66852 0.40896 0.08257
 C863 C 0.64574 0.42286 0.10815
 C864 C 0.66447 0.43935 0.13405
 C865 C 0.69708 0.43464 0.12169
 O866 O 0.69958 0.41626 0.09057
 H867 H 0.61888 0.42061 0.10860
 H868 H 0.65551 0.45330 0.15868
 C869 C 0.91749 0.69459 0.58508
 C870 C 0.89961 0.67584 0.56058
 C871 C 0.87754 0.69372 0.54057
 C872 C 0.88387 0.72212 0.55389
 O873 O 0.90814 0.72274 0.58089
 H874 H 0.90226 0.65199 0.55775
 H875 H 0.85961 0.68700 0.51808
 C876 C 0.95507 0.26593 0.35244
 C877 C 0.96031 0.24074 0.32951
 C878 C 0.93971 0.21982 0.34626
 C879 C 0.92334 0.23360 0.37844
 O880 O 0.93240 0.26180 0.38200
 H881 H 0.97754 0.23780 0.30400
 H882 H 0.93717 0.19716 0.33613
 C883 C 0.05126 0.28714 0.67188
 C884 C 0.06424 0.27773 0.70884
 C885 C 0.08632 0.25573 0.69923
 C886 C 0.08488 0.25304 0.65720
 O887 O 0.06364 0.27210 0.64051
 H888 H 0.05841 0.28601 0.73913
 H889 H 0.10113 0.24277 0.72042
 C890 C 0.06057 0.71322 0.39986
 C891 C 0.04914 0.71692 0.43962
 C892 C 0.06693 0.74004 0.45422
 C893 C 0.08826 0.74846 0.42260
 O894 O 0.08464 0.73214 0.38952
 H895 H 0.02958 0.70475 0.45568
 H896 H 0.06491 0.74947 0.48450
 C897 C 0.64888 0.92737 0.73430
 C898 C 0.66740 0.92222 0.76898
 C899 C 0.65145 0.89971 0.78957
 C900 C 0.62479 0.89263 0.76553
 O901 O 0.62298 0.90941 0.73205
 H902 H 0.68954 0.93382 0.77837
 H903 H 0.65845 0.88950 0.81841
 C904 C 0.40149 0.97227 0.29544
 C905 C 0.43238 0.97574 0.31258
 C906 C 0.45191 0.95433 0.29545
 C907 C 0.43146 0.93933 0.26909
 O908 O 0.40083 0.95033 0.26884
 H909 H 0.43960 0.99166 0.33537
 H910 H 0.47793 0.95013 0.30164
 C911 C 0.58672 0.05774 0.32263
 C912 C 0.55683 0.05072 0.34194
 C913 C 0.53489 0.07203 0.32907
 C914 C 0.55329 0.09038 0.30334
 O915 O 0.58458 0.08177 0.29922
 H916 H 0.55145 0.03178 0.36175
 H917 H 0.50860 0.07368 0.33670
 C918 C 0.39557 0.05560 0.67432
 C919 C 0.40642 0.07027 0.63925
 C920 C 0.42599 0.09272 0.65250
 C921 C 0.42570 0.09001 0.69474
 O922 O 0.40731 0.06739 0.70805
 H923 H 0.40047 0.06534 0.60782
 H924 H 0.43894 0.10902 0.63355
 C925 C 0.56163 0.67542 0.10759
 C926 C 0.53994 0.66579 0.13807
 C927 C 0.53003 0.69082 0.15780
 C928 C 0.54617 0.71396 0.13755
 O929 O 0.56546 0.70460 0.10702
 H930 H 0.53234 0.64320 0.14504
 H931 H 0.51244 0.69200 0.18319
 C932 C 0.42563 0.31587 0.03343
 C933 C 0.45738 0.31925 0.01723
 C934 C 0.47694 0.30063 0.04005
 C935 C 0.45553 0.28755 0.06849
 O936 O 0.42451 0.29682 0.06446
 H937 H 0.46502 0.33259 -0.00911
 H938 H 0.50339 0.29670 0.03593
 C939 C 0.62987 0.28896 0.92031
 C940 C 0.65437 0.27803 0.89452
 C941 C 0.63849 0.25918 0.86927
 C942 C 0.60543 0.25979 0.88167
 O943 O 0.60006 0.27784 0.91286
 H944 H 0.68064 0.28345 0.89394
 H945 H 0.64977 0.24615 0.84505
 C946 C 0.37837 0.70027 0.92133
 C947 C 0.35252 0.70826 0.89612
 C948 C 0.36576 0.72840 0.86894
 C949 C 0.39863 0.73146 0.88002
 O950 O 0.40637 0.71430 0.91178
 H951 H 0.32725 0.69991 0.89698
 H952 H 0.35290 0.73969 0.84431
 C953 C 0.74407 0.95405 0.31501
 C954 C 0.76608 0.95100 0.28245
 C955 C 0.78775 0.92918 0.29443
 C956 C 0.77751 0.92121 0.33360
 O957 O 0.75101 0.93614 0.34608
 H958 H 0.76583 0.96273 0.25327
 H959 H 0.80853 0.92024 0.27695
 C960 C 0.27534 0.91822 0.67232
 C961 C 0.26884 0.89913 0.70488
 C962 C 0.25090 0.87643 0.68881
 C963 C 0.24761 0.88368 0.64781
 O964 O 0.26241 0.90899 0.63784
 H965 H 0.27696 0.90113 0.73620
 H966 H 0.24141 0.85699 0.70498
 C967 C 0.24117 0.05846 0.36877
 C968 C 0.20927 0.05002 0.35911
 C969 C 0.18880 0.06704 0.38293
 C970 C 0.20978 0.08475 0.40510
 O971 O 0.24160 0.07960 0.39652
 H972 H 0.20190 0.03296 0.33802
 H973 H 0.16183 0.06664 0.38393
 C974 C 0.68779 0.05889 0.58030
 C975 C 0.66590 0.07072 0.55236
 C976 C 0.68027 0.09650 0.53873
 C977 C 0.70988 0.09867 0.55969
 O978 O 0.71444 0.07569 0.58480
 H979 H 0.64211 0.06181 0.54344
 H980 H 0.67000 0.11172 0.51631
 C981 C 0.97214 0.61071 0.24486
 C982 C 0.98236 0.60730 0.20467
 C983 C 0.96002 0.58828 0.18826
 C984 C 0.93764 0.58152 0.21966
 O985 O 0.94500 0.59521 0.25407
 H986 H 1.00350 0.61758 0.18918
 H987 H 0.95977 0.58092 0.15685
 C988 C 0.91620 0.41151 0.65277
 C989 C 0.90170 0.42168 0.61719
 C990 C 0.87702 0.44068 0.62971
 C991 C 0.87847 0.44073 0.67203
 O992 O 0.90229 0.42309 0.68593
 H993 H 0.90790 0.41551 0.58603
 H994 H 0.85998 0.45284 0.61028
 C995 C 0.06348 0.64632 0.72612
 C996 C 0.08456 0.66682 0.74301
 C997 C 0.10983 0.65054 0.75947
 C998 C 0.10208 0.62130 0.75176
 O999 O 0.07394 0.61865 0.73151
 H1000 H 0.08217 0.69080 0.74249
 H1001 H 0.13121 0.65893 0.77543
 C1002 C 0.07032 0.40444 0.33222
 C1003 C 0.07048 0.42739 0.35979
 C1004 C 0.09784 0.44386 0.34943
 C1005 C 0.11214 0.42982 0.31610
 O1006 O 0.09544 0.40591 0.30551
 H1007 H 0.05318 0.43120 0.38497
 H1008 H 0.10632 0.46378 0.36425
   
