data_POSCAR
  _audit_creation_date              2014-09-24
  _audit_creation_method            'ToBaCCo'
  _symmetry_space_group_name_H-M    'P1'
  _symmetry_Int_Tables_number       1
  _symmetry_cell_setting            triclinic
  loop_
  _symmetry_equiv_pos_as_xyz
 x,y,z
_cell_length_a 33.8701
_cell_length_b 33.9640
_cell_length_c 25.5646
_cell_angle_alpha 90.048100
_cell_angle_beta 89.913000
_cell_angle_gamma 87.663500
loop_
  _atom_site_label
  _atom_site_type_symbol
  _atom_site_fract_x
  _atom_site_fract_y
  _atom_site_fract_z
O1 O -0.04180 0.30635 0.04094
 O2 O 0.04037 0.31253 -0.05322
 O3 O -0.03567 0.30494 -0.06084
 O4 O 0.03525 0.31269 0.04769
 O5 O 0.04482 0.24813 0.04704
 O6 O -0.02809 0.24026 -0.05786
 O7 O 0.04754 0.24812 -0.05344
 O8 O -0.03243 0.24162 0.04292
 Cu9 Cu -0.00146 0.31563 -0.00619
 Cu10 Cu 0.00874 0.23806 -0.00483
 C11 C -0.05166 0.27275 0.05686
 C12 C 0.05862 0.28146 -0.06919
 C13 C -0.04403 0.27111 -0.07793
 C14 C 0.05366 0.28178 0.06396
 O15 O 0.52531 0.81055 0.45525
 O16 O 0.44758 0.79951 0.55429
 O17 O 0.52482 0.80649 0.55653
 O18 O 0.44943 0.80222 0.45228
 O19 O 0.45836 0.73767 0.44984
 O20 O 0.53401 0.74180 0.55163
 O21 O 0.45716 0.73483 0.55075
 O22 O 0.53445 0.74594 0.45154
 Cu23 Cu 0.48574 0.81122 0.50530
 Cu24 Cu 0.49680 0.73359 0.50079
 C25 C 0.54377 0.78018 0.43735
 C26 C 0.43838 0.76520 0.56813
 C27 C 0.54301 0.77477 0.57054
 C28 C 0.44115 0.76901 0.43300
 O29 O 1.03251 0.70715 0.05620
 O30 O 0.95742 0.69858 -0.04752
 O31 O 1.03399 0.70617 -0.04647
 O32 O 0.95625 0.69853 0.05359
 O33 O 0.94697 0.76321 0.05324
 O34 O 1.02405 0.77040 -0.04696
 O35 O 0.94767 0.76335 -0.04661
 O36 O 1.02314 0.77142 0.05500
 Cu37 Cu 0.99631 0.69612 0.00399
 Cu38 Cu 0.98492 0.77358 0.00362
 C39 C 1.04045 0.74092 0.07408
 C40 C 0.93911 0.72965 -0.06355
 C41 C 1.04208 0.73973 -0.06470
 C42 C 0.93745 0.72948 0.06916
 O43 O 0.54615 0.19836 0.54595
 O44 O 0.46738 0.19186 0.44701
 O45 O 0.54406 0.19896 0.44330
 O46 O 0.47037 0.18994 0.54865
 O47 O 0.46066 0.25436 0.54938
 O48 O 0.53490 0.26350 0.44584
 O49 O 0.45827 0.25640 0.44935
 O50 O 0.53672 0.26291 0.54710
 Cu51 Cu 0.50811 0.18828 0.49586
 Cu52 Cu 0.49693 0.26576 0.49796
 C53 C 0.55449 0.23190 0.56401
 C54 C 0.44842 0.22301 0.43260
 C55 C 0.55205 0.23292 0.42645
 C56 C 0.45211 0.22054 0.56619
 O57 O 0.70050 0.04306 -0.05608
 O58 O 0.70297 -0.03118 0.05005
 O59 O 0.70271 0.04535 0.04662
 O60 O 0.69861 -0.03376 -0.05167
 O61 O 0.76389 -0.03862 -0.05317
 O62 O 0.76760 0.04289 0.04034
 O63 O 0.76778 -0.03327 0.04704
 O64 O 0.76554 0.03764 -0.06051
 Cu65 Cu 0.69457 0.00636 -0.00254
 Cu66 Cu 0.77268 0.00194 -0.00704
 C67 C 0.73291 0.05247 -0.07690
 C68 C 0.73608 -0.04469 0.06736
 C69 C 0.73608 0.05737 0.06076
 C70 C 0.73060 -0.05006 -0.06831
 O71 O 0.20755 0.46170 0.55585
 O72 O 0.19421 0.54229 0.46018
 O73 O 0.20021 0.46497 0.45593
 O74 O 0.20004 0.53839 0.56224
 O75 O 0.26466 0.54125 0.55456
 O76 O 0.26476 0.46964 0.44651
 O77 O 0.25883 0.54636 0.45406
 O78 O 0.27227 0.46446 0.54684
 Cu79 Cu 0.19393 0.50178 0.50918
 Cu80 Cu 0.27159 0.50588 0.49979
 C81 C 0.24229 0.44847 0.56608
 C82 C 0.22424 0.55876 0.44176
 C83 C 0.23254 0.45431 0.43395
 C84 C 0.23254 0.55209 0.57702
 O85 O 0.29649 1.03817 0.05738
 O86 O 0.29598 0.96304 -0.04730
 O87 O 0.29857 1.03946 -0.04431
 O88 O 0.29519 0.96125 0.05497
 O89 O 0.22995 0.96503 0.05236
 O90 O 0.23381 1.04407 -0.04553
 O91 O 0.23084 0.96813 -0.04874
 O92 O 0.23170 1.04194 0.05634
 Cu93 Cu 0.30307 1.00002 0.00550
 Cu94 Cu 0.22508 1.00533 0.00371
 C95 C 0.26417 1.05305 0.07515
 C96 C 0.26315 0.95324 -0.06643
 C97 C 0.26689 1.05503 -0.06272
 C98 C 0.26194 0.94962 0.07019
 O99 O 0.79201 0.54267 0.54432
 O100 O 0.79292 0.46678 0.44122
 O101 O 0.78731 0.54295 0.44251
 O102 O 0.79822 0.46568 0.54274
 O103 O 0.73356 0.46175 0.54684
 O104 O 0.72259 0.54158 0.44997
 O105 O 0.72785 0.46496 0.44674
 O106 O 0.72729 0.53895 0.55121
 Cu107 Cu 0.79916 0.50485 0.49237
 Cu108 Cu 0.72129 0.50173 0.49949
 C109 C 0.75940 0.55375 0.56527
 C110 C 0.76042 0.45301 0.42657
 C111 C 0.75301 0.55543 0.42884
 C112 C 0.76793 0.44928 0.56033
 O113 O 0.22141 0.28024 0.18440
 O114 O 0.31267 0.25557 0.25674
 O115 O 0.27222 0.22053 0.18604
 O116 O 0.26184 0.31505 0.25716
 O117 O 0.22575 0.28672 0.31678
 O118 O 0.23624 0.19233 0.24656
 O119 O 0.27746 0.22750 0.31788
 O120 O 0.18598 0.25214 0.24522
 Cu121 Cu 0.27044 0.27079 0.21491
 Cu122 Cu 0.22798 0.23677 0.28785
 C123 C 0.18813 0.27074 0.20231
 C124 C 0.31069 0.23697 0.29962
 C125 C 0.25599 0.19042 0.20436
 C126 C 0.24160 0.31725 0.29900
 O127 O 0.75429 0.81819 0.24569
 O128 O 0.75759 0.72446 0.31740
 O129 O 0.80239 0.75658 0.24785
 O130 O 0.71006 0.78535 0.31599
 O131 O 0.67551 0.75844 0.25336
 O132 O 0.76786 0.73079 0.18436
 O133 O 0.72415 0.69714 0.25402
 O134 O 0.71955 0.79152 0.18291
 Cu135 Cu 0.75950 0.77401 0.28796
 Cu136 Cu 0.71822 0.74177 0.21239
 C137 C 0.73729 0.82061 0.20151
 C138 C 0.74087 0.69487 0.29841
 C139 C 0.80092 0.73882 0.20419
 C140 C 0.67705 0.77639 0.29688
 O141 O 0.81214 0.24795 0.23284
 O142 O 0.72043 0.23627 0.30885
 O143 O 0.75954 0.19492 0.23789
 O144 O 0.77380 0.28787 0.30619
 O145 O 0.73945 0.32010 0.24522
 O146 O 0.72667 0.22649 0.17524
 O147 O 0.68643 0.26657 0.24631
 O148 O 0.77770 0.28001 0.17177
 Cu149 Cu 0.76990 0.23859 0.27759
 Cu150 Cu 0.72901 0.27665 0.20367
 C151 C 0.81016 0.26498 0.18859
 C152 C 0.68779 0.25030 0.29096
 C153 C 0.74246 0.19492 0.19379
 C154 C 0.75836 0.31962 0.28812
 O155 O 0.26305 0.78109 0.18664
 O156 O 0.24322 0.69110 0.26072
 O157 O 0.20679 0.73267 0.18842
 O158 O 0.30095 0.74006 0.25870
 O159 O 0.27099 0.77473 0.32098
 O160 O 0.17705 0.76896 0.24957
 O161 O 0.21351 0.72718 0.32190
 O162 O 0.23454 0.81732 0.24902
 Cu163 Cu 0.25670 0.73253 0.21769
 Cu164 Cu 0.22103 0.77568 0.29150
 C165 C 0.25170 0.81442 0.20492
 C166 C 0.22470 0.69370 0.30396
 C167 C 0.17604 0.75061 0.20629
 C168 C 0.30203 0.75767 0.30248
 O169 O 0.78065 0.28048 0.67553
 O170 O 0.76333 0.18701 0.74180
 O171 O 0.72520 0.23098 0.67331
 O172 O 0.81903 0.23808 0.74450
 O173 O 0.78804 0.27051 0.80802
 O174 O 0.69402 0.26133 0.73837
 O175 O 0.73450 0.21900 0.80709
 O176 O 0.74928 0.31310 0.73869
 Cu177 Cu 0.77513 0.23077 0.70253
 Cu178 Cu 0.73811 0.26926 0.77928
 C179 C 0.76804 0.31279 0.69554
 C180 C 0.74728 0.18680 0.78661
 C181 C 0.69357 0.24567 0.69330
 C182 C 0.81959 0.25507 0.78876
 O183 O 0.30396 0.74308 0.74913
 O184 O 0.21116 0.73454 0.82406
 O185 O 0.25128 0.69033 0.75680
 O186 O 0.26457 0.78675 0.81849
 O187 O 0.23302 0.81598 0.75346
 O188 O 0.21826 0.71927 0.69224
 O189 O 0.17840 0.76406 0.75960
 O190 O 0.27013 0.77139 0.68449
 Cu191 Cu 0.26102 0.73584 0.79366
 Cu192 Cu 0.22137 0.77070 0.71635
 C193 C 0.30239 0.75737 0.70318
 C194 C 0.17909 0.74888 0.80494
 C195 C 0.23425 0.68849 0.71274
 C196 C 0.25046 0.81804 0.79720
 O197 O 0.26954 0.31243 0.74344
 O198 O 0.27852 0.22123 0.82122
 O199 O 0.32040 0.25340 0.74903
 O200 O 0.22709 0.28031 0.81648
 O201 O 0.19386 0.24933 0.75580
 O202 O 0.28711 0.22107 0.68981
 O203 O 0.24402 0.19018 0.76173
 O204 O 0.23738 0.28035 0.68264
 Cu205 Cu 0.27706 0.27013 0.78876
 Cu206 Cu 0.23710 0.23222 0.71643
 C207 C 0.25296 0.31140 0.69900
 C208 C 0.26275 0.19033 0.80464
 C209 C 0.31964 0.23244 0.70789
 C210 C 0.19466 0.26911 0.79790
 O211 O 0.71404 0.77665 0.68420
 O212 O 0.80499 0.75440 0.75899
 O213 O 0.76639 0.71928 0.68520
 O214 O 0.75170 0.81189 0.75837
 O215 O 0.71840 0.78070 0.81899
 O216 O 0.73116 0.68862 0.74434
 O217 O 0.77041 0.72317 0.81810
 O218 O 0.67914 0.74726 0.74478
 Cu219 Cu 0.76284 0.76867 0.71574
 Cu220 Cu 0.72127 0.73174 0.78748
 C221 C 0.68116 0.76572 0.70173
 C222 C 0.80317 0.73514 0.80143
 C223 C 0.75073 0.68844 0.70200
 C224 C 0.73291 0.81188 0.80138
 C225 C 0.29756 0.09435 0.14307
 C226 C 0.26368 0.08324 0.11369
 C227 C 0.22788 0.10531 0.12118
 C228 C 0.22598 0.13922 0.15162
 C229 C 0.25967 0.15278 0.17578
 C230 C 0.29558 0.13014 0.17280
 C231 C 0.33270 0.07034 0.14623
 C232 C 0.36538 0.08248 0.17421
 C233 C 0.36383 0.11827 0.20064
 C234 C 0.32923 0.14180 0.20045
 H235 H 0.33529 0.04120 0.12961
 H236 H 0.39193 0.06368 0.17599
 H237 H 0.38925 0.12740 0.22245
 H238 H 0.32886 0.16878 0.22302
 H239 H 0.20105 0.09757 0.10129
 H240 H 0.19811 0.15593 0.15476
 C241 C 0.78547 0.58868 0.64590
 C242 C 0.75804 0.58595 0.60416
 C243 C 0.72861 0.61574 0.59757
 C244 C 0.72673 0.64853 0.63007
 C245 C 0.75393 0.65237 0.67051
 C246 C 0.78337 0.62237 0.67929
 C247 C 0.81426 0.55844 0.65618
 C248 C 0.84103 0.56197 0.69721
 C249 C 0.83938 0.59526 0.72910
 C250 C 0.81069 0.62515 0.72058
 H251 H 0.81609 0.53163 0.63337
 H252 H 0.86303 0.53861 0.70451
 H253 H 0.86018 0.59776 0.76092
 H254 H 0.80987 0.65024 0.74673
 H255 H 0.70745 0.61416 0.56595
 H256 H 0.70401 0.67135 0.62328
 C257 C 0.77291 0.91376 0.13406
 C258 C 0.73746 0.92614 0.10707
 C259 C 0.70286 0.90574 0.11705
 C260 C 0.70350 0.87214 0.14813
 C261 C 0.73860 0.85743 0.17077
 C262 C 0.77387 0.87794 0.16342
 C263 C 0.80724 0.93630 0.13416
 C264 C 0.84239 0.92185 0.15656
 C265 C 0.84424 0.88499 0.18001
 C266 C 0.81040 0.86326 0.18376
 H267 H 0.80742 0.96581 0.11886
 H268 H 0.86838 0.93937 0.15560
 H269 H 0.87184 0.87349 0.19632
 H270 H 0.81352 0.83484 0.20243
 H271 H 0.67510 0.91454 0.09863
 H272 H 0.67627 0.85699 0.15378
 C273 C 0.26960 0.37899 0.58251
 C274 C 0.24768 0.41324 0.59945
 C275 C 0.22911 0.41342 0.64847
 C276 C 0.23201 0.38051 0.68094
 C277 C 0.25292 0.34625 0.66483
 C278 C 0.27245 0.34535 0.61572
 C279 C 0.28788 0.37688 0.53275
 C280 C 0.30946 0.34309 0.51697
 C281 C 0.31330 0.31075 0.55015
 C282 C 0.29499 0.31170 0.59901
 H283 H 0.28554 0.40095 0.50525
 H284 H 0.32332 0.34202 0.47877
 H285 H 0.33038 0.28471 0.53790
 H286 H 0.29881 0.28592 0.62345
 H287 H 0.21218 0.43931 0.66169
 H288 H 0.21704 0.38144 0.71845
 C289 C 0.88016 0.24783 0.07272
 C290 C 0.91274 0.26949 0.08966
 C291 C 0.91106 0.28871 0.13817
 C292 C 0.87793 0.28633 0.17041
 C293 C 0.84534 0.26531 0.15449
 C294 C 0.84634 0.24551 0.10553
 C295 C 0.88001 0.22910 0.02327
 C296 C 0.84803 0.20750 0.00740
 C297 C 0.81553 0.20423 0.04013
 C298 C 0.81452 0.22310 0.08856
 H299 H 0.90431 0.23106 -0.00381
 H300 H 0.84849 0.19322 -0.03049
 H301 H 0.79085 0.18719 0.02784
 H302 H 0.78863 0.21984 0.11239
 H303 H 0.93572 0.30546 0.15133
 H304 H 0.87743 0.30157 0.20767
 C305 C 0.37143 0.73828 0.58696
 C306 C 0.40400 0.76046 0.60268
 C307 C 0.40311 0.77961 0.65127
 C308 C 0.37055 0.77715 0.68444
 C309 C 0.33779 0.75603 0.66947
 C310 C 0.33831 0.73568 0.62091
 C311 C 0.37042 0.71952 0.53754
 C312 C 0.33847 0.69736 0.52303
 C313 C 0.30681 0.69359 0.55705
 C314 C 0.30654 0.71265 0.60533
 H315 H 0.39395 0.72189 0.50936
 H316 H 0.33830 0.68302 0.48520
 H317 H 0.28218 0.67608 0.54585
 H318 H 0.28130 0.70898 0.63023
 H319 H 0.42777 0.79675 0.66349
 H320 H 0.37042 0.79279 0.72140
 C321 C 0.07720 0.78027 0.14031
 C322 C 0.06989 0.74436 0.11311
 C323 C 0.09549 0.71141 0.12245
 C324 C 0.12906 0.71418 0.15320
 C325 C 0.13883 0.74992 0.17591
 C326 C 0.11318 0.78363 0.16894
 C327 C 0.04952 0.81272 0.14135
 C328 C 0.05901 0.84857 0.16362
 C329 C 0.09590 0.85296 0.18595
 C330 C 0.12273 0.82091 0.18891
 H331 H 0.01973 0.81079 0.12706
 H332 H 0.03761 0.87314 0.16339
 H333 H 0.10347 0.88116 0.20205
 H334 H 0.15099 0.82604 0.20655
 H335 H 0.09070 0.68328 0.10400
 H336 H 0.14811 0.68807 0.15850
 C337 C 0.58865 0.26684 0.63908
 C338 C 0.58669 0.23504 0.60302
 C339 C 0.61827 0.20720 0.60032
 C340 C 0.65198 0.21119 0.63039
 C341 C 0.65603 0.24367 0.66356
 C342 C 0.62441 0.27255 0.66719
 C343 C 0.55583 0.29303 0.64827
 C344 C 0.55924 0.32611 0.67990
 C345 C 0.59522 0.33386 0.70294
 C346 C 0.62754 0.30754 0.69674
 H347 H 0.52699 0.28794 0.63224
 H348 H 0.53394 0.34609 0.68608
 H349 H 0.59803 0.36025 0.72620
 H350 H 0.65484 0.31573 0.71453
 H351 H 0.61743 0.18253 0.57349
 H352 H 0.67551 0.18874 0.62700
 C353 C 0.76180 0.08051 0.84006
 C354 C 0.73338 0.08238 0.88092
 C355 C 0.70836 0.11589 0.88580
 C356 C 0.71288 0.14841 0.85364
 C357 C 0.74309 0.14913 0.81590
 C358 C 0.76822 0.11461 0.80888
 C359 C 0.78407 0.04526 0.82966
 C360 C 0.81421 0.04422 0.79261
 C361 C 0.82284 0.07812 0.76533
 C362 C 0.80033 0.11290 0.77320
 H363 H 0.77805 0.01800 0.84943
 H364 H 0.83123 0.01707 0.78545
 H365 H 0.84701 0.07743 0.73752
 H366 H 0.80943 0.13788 0.75126
 H367 H 0.68623 0.11773 0.91645
 H368 H 0.69306 0.17387 0.85958
 C369 C 0.18964 0.62296 0.41006
 C370 C 0.21967 0.59260 0.40524
 C371 C 0.24755 0.59484 0.36491
 C372 C 0.24728 0.62677 0.33100
 C373 C 0.21863 0.65755 0.33532
 C374 C 0.18801 0.65458 0.37313
 C375 C 0.16186 0.62358 0.45148
 C376 C 0.13131 0.65228 0.45370
 C377 C 0.12771 0.68092 0.41503
 C378 C 0.15565 0.68218 0.37510
 H379 H 0.16345 0.60259 0.48308
 H380 H 0.11007 0.65206 0.48538
 H381 H 0.10331 0.70251 0.41623
 H382 H 0.15097 0.70447 0.34539
 H383 H 0.27057 0.57198 0.36028
 H384 H 0.27079 0.62806 0.30233
 C385 C 0.23432 0.92478 0.85030
 C386 C 0.26221 0.92297 0.89173
 C387 C 0.28772 0.88985 0.89628
 C388 C 0.28410 0.85753 0.86356
 C389 C 0.25451 0.85654 0.82505
 C390 C 0.22944 0.89110 0.81744
 C391 C 0.21142 0.95973 0.84057
 C392 C 0.18263 0.96111 0.80183
 C393 C 0.17619 0.92797 0.77178
 C394 C 0.19918 0.89346 0.77916
 H395 H 0.21596 0.98661 0.86199
 H396 H 0.16520 0.98805 0.79512
 H397 H 0.15342 0.92910 0.74208
 H398 H 0.19214 0.86944 0.75407
 H399 H 0.30963 0.88814 0.92714
 H400 H 0.30416 0.83232 0.86985
 C401 C 0.77624 0.42409 0.33686
 C402 C 0.76038 0.42093 0.38797
 C403 C 0.74423 0.38569 0.40396
 C404 C 0.74429 0.35338 0.37077
 C405 C 0.75987 0.35547 0.32018
 C406 C 0.77597 0.39095 0.30253
 C407 C 0.79175 0.45953 0.31878
 C408 C 0.80747 0.46197 0.26847
 C409 C 0.80801 0.42933 0.23538
 C410 C 0.79247 0.39405 0.25208
 H411 H 0.79165 0.48562 0.34312
 H412 H 0.81935 0.48931 0.25509
 H413 H 0.82049 0.43139 0.19652
 H414 H 0.79366 0.36934 0.22532
 H415 H 0.73204 0.38293 0.44296
 H416 H 0.73173 0.32644 0.38462
 C417 C 0.11372 0.31701 0.88529
 C418 C 0.09116 0.28282 0.89579
 C419 C 0.10247 0.24723 0.87036
 C420 C 0.13469 0.24431 0.83704
 C421 C 0.15767 0.27660 0.82757
 C422 C 0.14677 0.31355 0.85014
 C423 C 0.10616 0.35412 0.90980
 C424 C 0.12847 0.38655 0.89794
 C425 C 0.15897 0.38326 0.86175
 C426 C 0.16818 0.34720 0.83806
 H427 H 0.08383 0.35949 0.93897
 H428 H 0.12194 0.41455 0.91702
 H429 H 0.17581 0.40872 0.85229
 H430 H 0.19202 0.34610 0.80983
 H431 H 0.08628 0.22071 0.87618
 H432 H 0.14265 0.21585 0.81993
 C433 C 0.60506 0.81364 0.40322
 C434 C 0.57653 0.78410 0.39951
 C435 C 0.57978 0.75623 0.35918
 C436 C 0.61118 0.75595 0.32419
 C437 C 0.64036 0.78390 0.32771
 C438 C 0.63610 0.81455 0.36542
 C439 C 0.60457 0.84149 0.44443
 C440 C 0.63157 0.87137 0.44569
 C441 C 0.65964 0.87415 0.40632
 C442 C 0.66204 0.84609 0.36655
 H443 H 0.58403 0.84047 0.47661
 H444 H 0.63049 0.89268 0.47723
 H445 H 0.67994 0.89795 0.40687
 H446 H 0.68389 0.84992 0.33632
 H447 H 0.55827 0.73361 0.35551
 H448 H 0.61362 0.73237 0.29565
 C449 C 0.91019 0.71566 0.84709
 C450 C 0.90570 0.72695 0.90014
 C451 C 0.86821 0.73774 0.91957
 C452 C 0.83532 0.73842 0.88717
 C453 C 0.83892 0.72900 0.83399
 C454 C 0.87646 0.71664 0.81358
 C455 C 0.94752 0.70413 0.82638
 C456 C 0.95145 0.69287 0.77410
 C457 C 0.91846 0.69296 0.74163
 C458 C 0.88129 0.70474 0.76096
 H459 H 0.97385 0.70365 0.85035
 H460 H 0.98022 0.68389 0.75872
 H461 H 0.92170 0.68387 0.70121
 H462 H 0.85652 0.70396 0.73445
 H463 H 0.86444 0.74625 0.96022
 H464 H 0.80693 0.74793 0.90346
 C465 C 0.38652 0.19113 0.39582
 C466 C 0.41448 0.22145 0.39592
 C467 C 0.40895 0.25332 0.36151
 C468 C 0.37607 0.25673 0.32930
 C469 C 0.34743 0.22820 0.32961
 C470 C 0.35354 0.19398 0.36093
 C471 C 0.38957 0.15858 0.43026
 C472 C 0.36281 0.12853 0.42790
 C473 C 0.33251 0.13004 0.39132
 C474 C 0.32781 0.16233 0.35806
 H475 H 0.41213 0.15569 0.45964
 H476 H 0.36587 0.10371 0.45434
 H477 H 0.31237 0.10616 0.38890
 H478 H 0.30428 0.16173 0.32961
 H479 H 0.42989 0.27660 0.36044
 H480 H 0.37229 0.28287 0.30524
 C481 C 0.71153 0.91807 0.84610
 C482 C 0.72942 0.91601 0.89615
 C483 C 0.74687 0.88039 0.91364
 C484 C 0.74668 0.84683 0.88264
 C485 C 0.72966 0.84807 0.83285
 C486 C 0.71157 0.88366 0.81412
 C487 C 0.69432 0.95366 0.82667
 C488 C 0.67659 0.95500 0.77745
 C489 C 0.67575 0.92113 0.74676
 C490 C 0.69306 0.88572 0.76473
 H491 H 0.69456 0.98068 0.84910
 H492 H 0.66337 0.98245 0.76306
 H493 H 0.66168 0.92233 0.70877
 H494 H 0.69160 0.86006 0.73980
 H495 H 0.76057 0.87851 0.95191
 H496 H 0.76068 0.81976 0.89724
 C497 C 0.24072 0.42674 0.34206
 C498 C 0.23312 0.42169 0.39599
 C499 C 0.22644 0.38420 0.41542
 C500 C 0.22899 0.35142 0.38299
 C501 C 0.23732 0.35482 0.32933
 C502 C 0.24179 0.39328 0.30790
 C503 C 0.24610 0.46461 0.32123
 C504 C 0.25154 0.46983 0.26772
 C505 C 0.25113 0.43767 0.23404
 C506 C 0.24606 0.39987 0.25360
 H507 H 0.24558 0.49050 0.34598
 H508 H 0.25540 0.49907 0.25220
 H509 H 0.25442 0.44208 0.19234
 H510 H 0.24443 0.37662 0.22517
 H511 H 0.22027 0.38006 0.45663
 H512 H 0.22507 0.32285 0.40066
 C513 C 0.30247 0.09589 0.87097
 C514 C 0.26779 0.08547 0.89937
 C515 C 0.23246 0.10800 0.89083
 C516 C 0.23154 0.14142 0.85960
 C517 C 0.26580 0.15405 0.83587
 C518 C 0.30148 0.13129 0.84060
 C519 C 0.33747 0.07152 0.86920
 C520 C 0.37089 0.08310 0.84223
 C521 C 0.37025 0.11861 0.81529
 C522 C 0.33585 0.14237 0.81392
 H523 H 0.33949 0.04247 0.88603
 H524 H 0.39731 0.06406 0.84159
 H525 H 0.39624 0.12731 0.79424
 H526 H 0.33625 0.16912 0.79100
 H527 H 0.20515 0.10081 0.91006
 H528 H 0.20388 0.15829 0.85510
 C529 C 0.71506 0.59479 0.35796
 C530 C 0.74893 0.58801 0.39013
 C531 C 0.77915 0.61495 0.38861
 C532 C 0.77585 0.64870 0.35815
 C533 C 0.74187 0.65750 0.32856
 C534 C 0.71055 0.63077 0.32910
 C535 C 0.68567 0.56662 0.35319
 C536 C 0.65117 0.57505 0.32505
 C537 C 0.64517 0.61149 0.30109
 C538 C 0.67441 0.63915 0.30296
 H539 H 0.68919 0.53753 0.36993
 H540 H 0.62879 0.55328 0.32223
 H541 H 0.61784 0.61825 0.28044
 H542 H 0.66773 0.66715 0.28446
 H543 H 0.80542 0.61046 0.41237
 H544 H 0.80014 0.66851 0.35830
 C545 C 0.07916 0.77795 0.86835
 C546 C 0.07241 0.74279 0.89739
 C547 C 0.09932 0.71038 0.89106
 C548 C 0.13341 0.71308 0.86112
 C549 C 0.14221 0.74817 0.83606
 C550 C 0.11540 0.78128 0.84026
 C551 C 0.05059 0.80953 0.86471
 C552 C 0.05935 0.84477 0.84023
 C553 C 0.09633 0.84934 0.81813
 C554 C 0.12405 0.81796 0.81779
 H555 H 0.02072 0.80728 0.87867
 H556 H 0.03728 0.86871 0.83848
 H557 H 0.10330 0.87707 0.80018
 H558 H 0.15232 0.82301 0.80015
 H559 H 0.09507 0.68282 0.91123
 H560 H 0.15340 0.68745 0.85792
 C561 C 0.58435 0.26969 0.35137
 C562 C 0.58329 0.23701 0.38604
 C563 C 0.61506 0.20925 0.38612
 C564 C 0.64807 0.21409 0.35472
 C565 C 0.65116 0.24731 0.32270
 C566 C 0.61939 0.27617 0.32189
 C567 C 0.55132 0.29606 0.34496
 C568 C 0.55390 0.32994 0.31471
 C569 C 0.58927 0.33833 0.29037
 C570 C 0.62174 0.31193 0.29386
 H571 H 0.52293 0.29053 0.36215
 H572 H 0.52845 0.35003 0.31066
 H573 H 0.59147 0.36531 0.26823
 H574 H 0.64859 0.32063 0.27523
 H575 H 0.61495 0.18397 0.41194
 H576 H 0.67179 0.19172 0.35606
 C577 C 0.92343 0.23438 0.84720
 C578 C 0.92524 0.26751 0.88109
 C579 C 0.89432 0.29613 0.88038
 C580 C 0.86119 0.29158 0.84939
 C581 C 0.85709 0.25787 0.81850
 C582 C 0.88830 0.22843 0.81776
 C583 C 0.95577 0.20704 0.84161
 C584 C 0.95245 0.17292 0.81195
 C585 C 0.91707 0.16533 0.78724
 C586 C 0.88531 0.19265 0.78995
 H587 H 0.98419 0.21198 0.85899
 H588 H 0.97738 0.15209 0.80853
 H589 H 0.91431 0.13827 0.76536
 H590 H 0.85856 0.18471 0.77070
 H591 H 0.89501 0.32177 0.90557
 H592 H 0.83801 0.31453 0.85049
 C593 C 0.40608 0.73389 0.35860
 C594 C 0.40930 0.76653 0.39311
 C595 C 0.37887 0.79573 0.39394
 C596 C 0.34508 0.79232 0.36372
 C597 C 0.33964 0.75905 0.33243
 C598 C 0.37004 0.72877 0.33077
 C599 C 0.43786 0.70620 0.35073
 C600 C 0.43303 0.67229 0.32115
 C601 C 0.39665 0.66521 0.29882
 C602 C 0.36541 0.69298 0.30348
 H603 H 0.46700 0.71070 0.36611
 H604 H 0.45755 0.65118 0.31604
 H605 H 0.39270 0.63821 0.27725
 H606 H 0.33771 0.68527 0.28636
 H607 H 0.38058 0.82107 0.41948
 H608 H 0.32254 0.81586 0.36561
 C609 C 0.27862 0.91687 0.15721
 C610 C 0.26026 0.91661 0.10738
 C611 C 0.24017 0.88349 0.09144
 C612 C 0.23856 0.85054 0.12342
 C613 C 0.25638 0.84991 0.17278
 C614 C 0.27670 0.88313 0.19023
 C615 C 0.29816 0.95013 0.17543
 C616 C 0.31631 0.94976 0.22438
 C617 C 0.31528 0.91646 0.25604
 C618 C 0.29571 0.88337 0.23931
 H619 H 0.29935 0.97672 0.15235
 H620 H 0.33129 0.97544 0.23779
 H621 H 0.32966 0.91630 0.29383
 H622 H 0.29584 0.85805 0.26496
 H623 H 0.22605 0.88292 0.05344
 H624 H 0.22270 0.82542 0.10981
 C625 C 0.80425 0.38674 0.59505
 C626 C 0.77216 0.41526 0.59685
 C627 C 0.74223 0.41093 0.63420
 C628 C 0.74260 0.37878 0.66789
 C629 C 0.77337 0.35003 0.66640
 C630 C 0.80582 0.35527 0.63214
 C631 C 0.83423 0.38758 0.55644
 C632 C 0.86665 0.36097 0.55774
 C633 C 0.86992 0.33282 0.59702
 C634 C 0.83987 0.32981 0.63385
 H635 H 0.83305 0.40790 0.52411
 H636 H 0.88951 0.36240 0.52824
 H637 H 0.89562 0.31284 0.59856
 H638 H 0.84404 0.30781 0.66408
 H639 H 0.71758 0.43223 0.63653
 H640 H 0.71765 0.37555 0.69391
 C641 C 0.77189 0.09495 0.13184
 C642 C 0.73815 0.08958 0.09989
 C643 C 0.70658 0.11756 0.10202
 C644 C 0.70838 0.15096 0.13326
 C645 C 0.74218 0.15817 0.16262
 C646 C 0.77502 0.13068 0.16060
 C647 C 0.80260 0.06566 0.13631
 C648 C 0.83724 0.07302 0.16324
 C649 C 0.84207 0.10953 0.18629
 C650 C 0.81144 0.13815 0.18510
 H651 H 0.80009 0.03654 0.12023
 H652 H 0.86064 0.05041 0.16569
 H653 H 0.86954 0.11558 0.20576
 H654 H 0.81729 0.16617 0.20269
 H655 H 0.68047 0.11408 0.07830
 H656 H 0.68324 0.17173 0.13388
 C657 C 0.26609 0.58863 0.65104
 C658 C 0.23275 0.58272 0.61867
 C659 C 0.20016 0.60942 0.62190
 C660 C 0.20088 0.64253 0.65395
 C661 C 0.23445 0.65070 0.68337
 C662 C 0.26796 0.62392 0.68122
 C663 C 0.29777 0.56029 0.65411
 C664 C 0.33200 0.56810 0.68168
 C665 C 0.33544 0.60411 0.70668
 C666 C 0.30395 0.63181 0.70655
 H667 H 0.29628 0.53157 0.63622
 H668 H 0.35616 0.54627 0.68313
 H669 H 0.36257 0.61050 0.72675
 H670 H 0.30887 0.65943 0.72571
 H671 H 0.17432 0.60554 0.59779
 H672 H 0.17521 0.66265 0.65462
 C673 C 0.87424 0.69854 0.10094
 C674 C 0.90385 0.72685 0.10589
 C675 C 0.90060 0.75505 0.14580
 C676 C 0.86825 0.75673 0.17928
 C677 C 0.83793 0.73010 0.17440
 C678 C 0.84199 0.69915 0.13705
 C679 C 0.87495 0.67044 0.06003
 C680 C 0.84674 0.64176 0.05744
 C681 C 0.81729 0.64040 0.09523
 C682 C 0.81481 0.66871 0.13469
 H683 H 0.89672 0.67033 0.02919
 H684 H 0.84796 0.62023 0.02617
 H685 H 0.79604 0.61747 0.09372
 H686 H 0.79191 0.66588 0.16374
 H687 H 0.92291 0.77679 0.15028
 H688 H 0.86615 0.78033 0.20781
 C689 C 0.39509 0.18565 0.61227
 C690 C 0.42058 0.21795 0.60665
 C691 C 0.41469 0.25090 0.63938
 C692 C 0.38332 0.25380 0.67427
 C693 C 0.35663 0.22368 0.67846
 C694 C 0.36365 0.18832 0.64973
 C695 C 0.39892 0.15120 0.58114
 C696 C 0.37433 0.11976 0.58872
 C697 C 0.34546 0.12163 0.62735
 C698 C 0.34009 0.15547 0.65768
 H699 H 0.42044 0.14748 0.55053
 H700 H 0.37798 0.09359 0.56471
 H701 H 0.32701 0.09679 0.63373
 H702 H 0.31777 0.15525 0.68796
 H703 H 0.43389 0.27558 0.63676
 H704 H 0.37872 0.28091 0.69624
 C705 C 0.11510 0.31371 0.10065
 C706 C 0.08632 0.28426 0.10228
 C707 C 0.09012 0.25415 0.13957
 C708 C 0.12222 0.25159 0.17329
 C709 C 0.15165 0.27935 0.17157
 C710 C 0.14701 0.31209 0.13721
 C711 C 0.11403 0.34402 0.06266
 C712 C 0.14141 0.37354 0.06338
 C713 C 0.17040 0.37367 0.10174
 C714 C 0.17328 0.34335 0.13835
 H715 H 0.09263 0.34538 0.03160
 H716 H 0.13987 0.39667 0.03424
 H717 H 0.19100 0.39721 0.10291
 H718 H 0.19580 0.34522 0.16797
 H719 H 0.06856 0.23147 0.14159
 H720 H 0.12487 0.22656 0.19949
 C721 C 0.57525 0.79202 0.65722
 C722 C 0.57715 0.77584 0.60612
 C723 C 0.61296 0.75919 0.58747
 C724 C 0.64653 0.75774 0.61859
 C725 C 0.64529 0.77226 0.66978
 C726 C 0.60974 0.79028 0.68937
 C727 C 0.53978 0.80902 0.67760
 C728 C 0.53858 0.82503 0.72788
 C729 C 0.57247 0.82429 0.75872
 C730 C 0.60779 0.80708 0.73985
 H731 H 0.51275 0.81002 0.65507
 H732 H 0.51121 0.83817 0.74297
 H733 H 0.57137 0.83706 0.79753
 H734 H 0.63350 0.80742 0.76489
 H735 H 0.61491 0.74700 0.54830
 H736 H 0.67350 0.74396 0.60305
   
