data_POSCAR
  _audit_creation_date              2014-09-24
  _audit_creation_method            'ToBaCCo'
  _symmetry_space_group_name_H-M    'P1'
  _symmetry_Int_Tables_number       1
  _symmetry_cell_setting            triclinic
  loop_
  _symmetry_equiv_pos_as_xyz
 x,y,z
_cell_length_a 55.8105
_cell_length_b 54.3486
_cell_length_c 55.3046
_cell_angle_alpha 87.339300
_cell_angle_beta 89.227300
_cell_angle_gamma 88.981300
loop_
  _atom_site_label
  _atom_site_type_symbol
  _atom_site_fract_x
  _atom_site_fract_y
  _atom_site_fract_z
C1 C 0.20757 0.51853 1.03053
 H2 H 0.20647 0.53319 1.01664
 C3 C 0.19128 0.51805 1.04992
 H4 H 0.17785 0.53257 1.05013
 C5 C 0.22622 0.48159 1.04555
 H6 H 0.23967 0.46726 1.04361
 C7 C 0.21009 0.48012 1.06507
 H8 H 0.21165 0.46461 1.07804
 N9 N 0.22486 0.50076 1.02893
 C10 C 0.28214 0.53373 0.98493
 H11 H 0.28485 0.51936 0.97222
 C12 C 0.29718 0.55399 0.98414
 H13 H 0.31126 0.55525 0.97050
 C14 C 0.26037 0.54944 1.01811
 H15 H 0.24637 0.54739 1.03166
 C16 C 0.27477 0.57023 1.01769
 H17 H 0.27159 0.58415 1.03082
 Zn18 Zn 0.24609 0.50262 1.00199
 N19 N 0.26421 0.53177 1.00177
 C20 C 0.22694 0.52234 0.95803
 N21 N 0.22735 0.50238 0.97377
 C22 C 0.21315 0.48277 0.97060
 C23 C 0.19806 0.48247 0.95066
 C24 C 0.21188 0.52302 0.93807
 C25 C 0.28443 0.47589 1.02179
 C26 C 0.30249 0.45787 1.02359
 C27 C 0.28711 0.43996 0.98788
 C28 C 0.26945 0.45855 0.98665
 N29 N 0.26837 0.47594 1.00355
 H30 H 0.23788 0.53803 0.96120
 H31 H 0.21335 0.46742 0.98378
 H32 H 0.18681 0.46668 0.94911
 H33 H 0.21169 0.53926 0.92594
 H34 H 0.28336 0.49016 1.03479
 H35 H 0.31519 0.45844 1.03820
 H36 H 0.28756 0.42680 0.97385
 H37 H 0.25695 0.45927 0.97190
 C38 C 0.29366 0.57244 1.00084
 C39 C 0.19240 0.49862 1.06780
 C40 C 0.30413 0.43951 1.00654
 C41 C 0.19718 0.50293 0.93401
 C42 C 0.79865 0.52173 -0.03243
 H43 H 0.80008 0.53395 -0.01772
 C44 C 0.81454 0.52406 -0.05206
 H45 H 0.82823 0.53796 -0.05213
 C46 C 0.77890 0.48923 -0.05058
 H47 H 0.76466 0.47602 -0.05025
 C48 C 0.79458 0.49077 -0.07049
 H49 H 0.79207 0.47872 -0.08524
 N50 N 0.78135 0.50437 -0.03188
 C51 C 0.72800 0.53344 0.01794
 H52 H 0.72793 0.51883 0.03191
 C53 C 0.71326 0.55421 0.02031
 H54 H 0.70195 0.55560 0.03627
 C55 C 0.74291 0.54936 -0.01986
 H56 H 0.75425 0.54722 -0.03564
 C57 C 0.72884 0.57072 -0.01795
 H58 H 0.72944 0.58499 -0.03228
 Zn59 Zn 0.76045 0.50174 -0.00442
 N60 N 0.74205 0.53116 -0.00214
 C61 C 0.78968 0.51846 0.03157
 N62 N 0.77889 0.49794 0.02419
 C63 C 0.78089 0.47616 0.03720
 C64 C 0.79497 0.47427 0.05795
 C65 C 0.80388 0.51746 0.05216
 C66 C 0.71545 0.47910 -0.00736
 C67 C 0.69947 0.45980 -0.00871
 C68 C 0.73319 0.43156 -0.01108
 C69 C 0.74854 0.45145 -0.00939
 N70 N 0.73950 0.47467 -0.00721
 H71 H 0.78704 0.53583 0.02159
 H72 H 0.77172 0.46014 0.03157
 H73 H 0.79653 0.45662 0.06781
 H74 H 0.81199 0.53435 0.05706
 H75 H 0.70846 0.49768 -0.00659
 H76 H 0.68059 0.46445 -0.00911
 H77 H 0.74084 0.41322 -0.01262
 H78 H 0.76774 0.44836 -0.00985
 C79 C 0.71341 0.57301 0.00204
 C80 C 0.81288 0.50823 -0.07121
 C81 C 0.70822 0.43542 -0.01024
 C82 C 0.80701 0.49498 0.06564
 C83 C -0.02820 0.28172 0.47636
 H84 H -0.03945 0.28172 0.49245
 C85 C -0.03124 0.30009 0.45815
 H86 H -0.04512 0.31403 0.46048
 C87 C 0.00387 0.26378 0.45454
 H88 H 0.01776 0.24975 0.45341
 C89 C 0.00152 0.28181 0.43582
 H90 H 0.01384 0.28077 0.42069
 N91 N -0.01087 0.26407 0.47427
 C92 C -0.02962 0.19890 0.51846
 H93 H -0.01321 0.19616 0.52849
 C94 C -0.04720 0.18093 0.51995
 H95 H -0.04431 0.16437 0.53126
 C96 C -0.05289 0.22332 0.49063
 H97 H -0.05475 0.23951 0.47870
 C98 C -0.07115 0.20603 0.49196
 H99 H -0.08686 0.20910 0.48089
 Zn100 Zn -0.00649 0.24118 0.50069
 N101 N -0.03263 0.21948 0.50379
 C102 C -0.01838 0.25472 0.54841
 N103 N -0.00392 0.25936 0.52883
 C104 C 0.01180 0.27817 0.52822
 C105 C 0.01357 0.29321 0.54788
 C106 C -0.01725 0.26929 0.56850
 C107 C 0.02005 0.20336 0.48014
 C108 C 0.03911 0.18673 0.47740
 C109 C 0.06140 0.20876 0.50640
 C110 C 0.04165 0.22466 0.50895
 N111 N 0.02151 0.22169 0.49591
 H112 H -0.03105 0.23992 0.54839
 H113 H 0.02280 0.28170 0.51221
 H114 H 0.02623 0.30798 0.54634
 H115 H -0.02908 0.26532 0.58383
 H116 H 0.00373 0.20126 0.47016
 H117 H 0.03727 0.17193 0.46512
 H118 H 0.07678 0.21138 0.51758
 H119 H 0.04233 0.23903 0.52175
 C120 C -0.06826 0.18442 0.50664
 C121 C -0.01619 0.30063 0.43748
 C122 C 0.06019 0.18917 0.49064
 C123 C -0.00124 0.28900 0.56849
 C124 C 0.97810 0.71607 0.52443
 H125 H 0.96676 0.71594 0.50873
 C126 C 0.97483 0.69873 0.54353
 H127 H 0.96080 0.68532 0.54247
 C128 C 1.01059 0.73336 0.54450
 H129 H 1.02471 0.74668 0.54464
 C130 C 1.00798 0.71629 0.56402
 H131 H 1.01988 0.71727 0.57918
 N132 N 0.99575 0.73291 0.52522
 C133 C 0.97468 0.79296 0.47468
 H134 H 0.99041 0.79360 0.46304
 C135 C 0.95646 0.81068 0.47148
 H136 H 0.95821 0.82491 0.45721
 C137 C 0.95384 0.77428 0.50813
 H138 H 0.95323 0.76054 0.52286
 C139 C 0.93511 0.79159 0.50549
 H140 H 0.92039 0.79086 0.51840
 Zn141 Zn 1.00009 0.75409 0.49749
 N142 N 0.97312 0.77528 0.49281
 C143 C 0.98909 0.73475 0.45213
 N144 N 1.00454 0.73370 0.47096
 C145 C 1.02255 0.71658 0.47238
 C146 C 1.02560 0.69958 0.45440
 C147 C 0.99138 0.71801 0.43376
 C148 C 1.02470 0.79170 0.51809
 C149 C 1.04275 0.80873 0.52076
 C150 C 1.06515 0.78992 0.48858
 C151 C 1.04651 0.77333 0.48642
 N152 N 1.02682 0.77449 0.50112
 H153 H 0.97460 0.74820 0.45158
 H154 H 1.03432 0.71587 0.48779
 H155 H 1.03999 0.68598 0.45613
 H156 H 0.97860 0.71951 0.41928
 H157 H 1.00868 0.79244 0.52928
 H158 H 1.04043 0.82245 0.53425
 H159 H 1.08022 0.78862 0.47624
 H160 H 1.04760 0.75991 0.47264
 C161 C 0.93639 0.81020 0.48701
 C162 C 0.99007 0.69843 0.56350
 C163 C 1.06335 0.80818 0.50587
 C164 C 1.00974 0.69980 0.43485
 C165 C 0.47927 -0.03164 0.28597
 H166 H 0.49431 -0.04445 0.28549
 C167 C 0.46150 -0.03468 0.30381
 H168 H 0.46289 -0.05000 0.31699
 C169 C 0.45976 0.00449 0.26998
 H170 H 0.45954 0.02018 0.25726
 C171 C 0.44154 0.00211 0.28747
 H172 H 0.42761 0.01616 0.28787
 N173 N 0.47811 -0.01230 0.26951
 C174 C 0.52442 -0.03277 0.20942
 H175 H 0.53615 -0.01711 0.20870
 C176 C 0.52717 -0.05087 0.19250
 H177 H 0.54126 -0.04883 0.17890
 C178 C 0.49168 -0.05374 0.22795
 H179 H 0.47765 -0.05454 0.24160
 C180 C 0.49371 -0.07232 0.21133
 H181 H 0.48105 -0.08709 0.21305
 Zn182 Zn 0.50433 -0.00814 0.24773
 N183 N 0.50701 -0.03456 0.22675
 C184 C 0.54997 -0.02397 0.26504
 N185 N 0.53225 -0.00662 0.26665
 C186 C 0.53320 0.01115 0.28309
 C187 C 0.55264 0.01210 0.29866
 C188 C 0.56969 -0.02378 0.28027
 C189 C 0.48138 0.02138 0.21240
 C190 C 0.47792 0.04132 0.19596
 C191 C 0.51344 0.05975 0.21122
 C192 C 0.51613 0.03942 0.22745
 N193 N 0.50018 0.02079 0.22777
 H194 H 0.54863 -0.03836 0.25233
 H195 H 0.51861 0.02442 0.28431
 H196 H 0.55240 0.02641 0.31155
 H197 H 0.58344 -0.03798 0.27876
 H198 H 0.46919 0.00610 0.21275
 H199 H 0.46284 0.04120 0.18383
 H200 H 0.52664 0.07399 0.21157
 H201 H 0.53128 0.03835 0.23944
 C202 C 0.51169 -0.07107 0.19305
 C203 C 0.44233 -0.01770 0.30474
 C204 C 0.49415 0.06085 0.19493
 C205 C 0.57129 -0.00571 0.29754
 C206 C 0.52298 -0.00932 0.72232
 H207 H 0.51087 -0.02465 0.72245
 C208 C 0.54341 -0.00942 0.70741
 H209 H 0.54659 -0.02491 0.69616
 C210 C 0.53234 0.03012 0.73565
 H211 H 0.52777 0.04576 0.74625
 C212 C 0.55289 0.03081 0.72100
 H213 H 0.56403 0.04694 0.72065
 N214 N 0.51773 0.01033 0.73596
 C215 C 0.46717 -0.01745 0.79177
 H216 H 0.45406 -0.00263 0.79147
 C217 C 0.46465 -0.03718 0.80863
 H218 H 0.44930 -0.03750 0.82083
 C219 C 0.50362 -0.03445 0.77720
 H220 H 0.51909 -0.03317 0.76536
 C221 C 0.50179 -0.05457 0.79378
 H222 H 0.51567 -0.06867 0.79368
 Zn223 Zn 0.48862 0.01149 0.75438
 N224 N 0.48628 -0.01651 0.77626
 C225 C 0.43932 0.01622 0.74187
 N226 N 0.46194 0.01284 0.73298
 C227 C 0.46584 0.01020 0.70889
 C228 C 0.44668 0.00967 0.69299
 C229 C 0.41961 0.01626 0.72653
 C230 C 0.50422 0.03890 0.79202
 C231 C 0.50563 0.05876 0.80700
 C232 C 0.47502 0.07989 0.78309
 C233 C 0.47429 0.05960 0.76850
 N234 N 0.48874 0.03962 0.77325
 H235 H 0.43648 0.01918 0.76086
 H236 H 0.48382 0.00848 0.70179
 H237 H 0.45080 0.00777 0.67403
 H238 H 0.40180 0.01888 0.73413
 H239 H 0.51552 0.02275 0.79535
 H240 H 0.51810 0.05707 0.82174
 H241 H 0.46330 0.09560 0.77896
 H242 H 0.46230 0.05991 0.75330
 C243 C 0.48210 -0.05603 0.80990
 C244 C 0.55862 0.01096 0.70655
 C245 C 0.49086 0.07981 0.80269
 C246 C 0.42300 0.01233 0.70178
 C247 C 0.29684 0.00167 0.47207
 H248 H 0.30446 0.00427 0.48959
 C249 C 0.31184 0.00119 0.45170
 H250 H 0.33087 0.00362 0.45389
 C251 C 0.26268 -0.00337 0.44790
 H252 H 0.24347 -0.00518 0.44667
 C253 C 0.27702 -0.00375 0.42700
 H254 H 0.26877 -0.00585 0.40962
 N255 N 0.27278 -0.00090 0.46988
 C256 C 0.21826 0.03168 0.51647
 H257 H 0.21615 0.01736 0.53055
 C258 C 0.20358 0.05273 0.51654
 H259 H 0.19026 0.05456 0.53078
 C260 C 0.23830 0.04676 0.48090
 H261 H 0.25180 0.04433 0.46698
 C262 C 0.22437 0.06841 0.48061
 H263 H 0.22712 0.08249 0.46639
 Zn264 Zn 0.25274 -0.00136 0.49779
 N265 N 0.23474 0.02872 0.49842
 C266 C 0.27198 0.01306 0.54231
 N267 N 0.27219 -0.00486 0.52592
 C268 C 0.28733 -0.02467 0.52844
 C269 C 0.30329 -0.02678 0.54766
 C270 C 0.28744 0.01156 0.56202
 C271 C 0.20749 -0.02481 0.49731
 C272 C 0.19191 -0.04457 0.49693
 C273 C 0.22609 -0.07184 0.49252
 C274 C 0.24104 -0.05152 0.49330
 N275 N 0.23164 -0.02857 0.49627
 H276 H 0.26035 0.02902 0.53983
 H277 H 0.28782 -0.03840 0.51498
 H278 H 0.31553 -0.04248 0.54885
 H279 H 0.28703 0.02658 0.57415
 H280 H 0.20002 -0.00647 0.49815
 H281 H 0.17292 -0.04046 0.49756
 H282 H 0.23407 -0.08994 0.49034
 H283 H 0.26015 -0.05411 0.49119
 C284 C 0.20634 0.07120 0.49819
 C285 C 0.30196 -0.00190 0.42882
 C286 C 0.20113 -0.06871 0.49494
 C287 C 0.30369 -0.00849 0.56479
 C288 C 0.70185 0.01316 0.53616
 H289 H 0.69959 0.02856 0.52334
 C290 C 0.68655 0.01108 0.55629
 H291 H 0.67235 0.02468 0.55820
 C292 C 0.72275 -0.02335 0.54886
 H293 H 0.73707 -0.03659 0.54617
 C294 C 0.70772 -0.02625 0.56918
 H295 H 0.71045 -0.04188 0.58177
 N296 N 0.71945 -0.00400 0.53265
 C297 C 0.77052 0.03534 0.48544
 H298 H 0.77010 0.02434 0.46964
 C299 C 0.78517 0.05587 0.48551
 H300 H 0.79583 0.06077 0.46956
 C301 C 0.75707 0.04224 0.52545
 H302 H 0.74637 0.03662 0.54110
 C303 C 0.77109 0.06325 0.52609
 H304 H 0.77105 0.07378 0.54225
 Zn305 Zn 0.73934 -0.00056 0.50443
 N306 N 0.75726 0.02863 0.50540
 C307 C 0.70759 0.02396 0.47237
 N308 N 0.71986 0.00237 0.47642
 C309 C 0.71845 -0.01609 0.46073
 C310 C 0.70344 -0.01364 0.44069
 C311 C 0.69236 0.02721 0.45265
 C312 C 0.78483 -0.02434 0.50257
 C313 C 0.80109 -0.04400 0.50097
 C314 C 0.76778 -0.07171 0.50107
 C315 C 0.75214 -0.05142 0.50239
 N316 N 0.76082 -0.02821 0.50284
 H317 H 0.70976 0.03886 0.48438
 H318 H 0.72881 -0.03286 0.46369
 H319 H 0.70266 -0.02898 0.42903
 H320 H 0.68259 0.04453 0.45010
 H321 H 0.79157 -0.00596 0.50380
 H322 H 0.81993 -0.03985 0.50118
 H323 H 0.76039 -0.08999 0.50066
 H324 H 0.73299 -0.05419 0.50315
 C325 C 0.78577 0.06987 0.50618
 C326 C 0.68943 -0.00885 0.57315
 C327 C 0.79268 -0.06823 0.49992
 C328 C 0.68981 0.00822 0.43653
 C329 C 0.49222 0.21709 1.02727
 H330 H 0.48146 0.21332 1.01182
 C331 C 0.49223 0.20062 1.04744
 H332 H 0.48122 0.18449 1.04707
 C333 C 0.52119 0.24152 1.04519
 H334 H 0.53296 0.25706 1.04415
 C335 C 0.52173 0.22558 1.06570
 H336 H 0.53371 0.22929 1.08029
 N337 N 0.50636 0.23725 1.02656
 C338 C 0.47801 0.30106 0.98978
 H339 H 0.49498 0.30983 0.98625
 C340 C 0.45698 0.31527 0.98848
 H341 H 0.45814 0.33483 0.98406
 C342 C 0.45581 0.26487 0.99823
 H343 H 0.45537 0.24522 1.00185
 C344 C 0.43428 0.27839 0.99677
 H345 H 0.41742 0.26901 0.99948
 Zn346 Zn 0.50654 0.25801 0.99788
 N347 N 0.47718 0.27639 0.99516
 C348 C 0.49441 0.23951 0.95271
 N349 N 0.51008 0.23755 0.97132
 C350 C 0.52776 0.22005 0.97205
 C351 C 0.52994 0.20330 0.95374
 C352 C 0.49589 0.22312 0.93398
 C353 C 0.53140 0.29753 1.01571
 C354 C 0.54928 0.31498 1.01679
 C355 C 0.56946 0.29642 0.98310
 C356 C 0.55093 0.27944 0.98250
 N357 N 0.53241 0.28027 0.99869
 H358 H 0.48050 0.25361 0.95250
 H359 H 0.53989 0.21883 0.98717
 H360 H 0.54400 0.18929 0.95495
 H361 H 0.48288 0.22528 0.91976
 H362 H 0.51639 0.29793 1.02828
 H363 H 0.54783 0.32867 1.03040
 H364 H 0.58364 0.29535 0.96968
 H365 H 0.55129 0.26577 0.96892
 C366 C 0.43476 0.30397 0.99241
 C367 C 0.50706 0.20488 1.06711
 C368 C 0.56874 0.31468 1.00042
 C369 C 0.51373 0.20437 0.93444
 C370 C 0.48351 0.78309 -0.02427
 H371 H 0.47033 0.78457 -0.00985
 C372 C 0.48337 0.80025 -0.04390
 H373 H 0.47003 0.81491 -0.04414
 C374 C 0.51771 0.76284 -0.04032
 H375 H 0.53130 0.74848 -0.03868
 C376 C 0.51825 0.77957 -0.06022
 H377 H 0.53223 0.77782 -0.07384
 N378 N 0.50050 0.76486 -0.02286
 C379 C 0.47553 0.70304 0.02271
 H380 H 0.49061 0.70092 0.03476
 C381 C 0.45775 0.68532 0.02337
 H382 H 0.45914 0.66959 0.03607
 C383 C 0.45599 0.72555 -0.00928
 H384 H 0.45575 0.74088 -0.02243
 C385 C 0.43756 0.70842 -0.00897
 H386 H 0.42335 0.71075 -0.02203
 Zn387 Zn 0.50129 0.74341 0.00504
 N388 N 0.47448 0.72253 0.00642
 C389 C 0.48486 0.75937 0.05050
 N390 N 0.50150 0.76284 0.03255
 C391 C 0.51781 0.78104 0.03326
 C392 C 0.51800 0.79654 0.05271
 C393 C 0.48437 0.77441 0.07029
 C394 C 0.52771 0.70333 -0.01064
 C395 C 0.54649 0.68614 -0.01146
 C396 C 0.56800 0.70968 0.01695
 C397 C 0.54848 0.72614 0.01766
 N398 N 0.52889 0.72272 0.00392
 H399 H 0.47175 0.74511 0.04942
 H400 H 0.53058 0.78367 0.01851
 H401 H 0.53128 0.81074 0.05234
 H402 H 0.47087 0.77129 0.08431
 H403 H 0.51188 0.70098 -0.02131
 H404 H 0.54489 0.67061 -0.02291
 H405 H 0.58303 0.71273 0.02849
 H406 H 0.54893 0.74144 0.02940
 C407 C 0.43851 0.68788 0.00741
 C408 C 0.50097 0.79858 -0.06224
 C409 C 0.56708 0.68913 0.00235
 C410 C 0.50099 0.79342 0.07168
 C411 C 1.02782 0.49259 0.21568
 H412 H 1.01574 0.47727 0.21521
 C413 C 1.04698 0.49440 0.19925
 H414 H 1.04936 0.48041 0.18609
 C415 C 1.03819 0.53025 0.23246
 H416 H 1.03433 0.54450 0.24498
 C417 C 1.05739 0.53294 0.21615
 H418 H 1.06840 0.54913 0.21647
 N419 N 1.02391 0.51024 0.23199
 C420 C 0.97798 0.47312 0.28631
 H421 H 0.96301 0.48604 0.28659
 C422 C 0.97770 0.45179 0.30139
 H423 H 0.96212 0.44842 0.31279
 C424 C 1.01615 0.46208 0.27056
 H425 H 1.03131 0.46634 0.25887
 C426 C 1.01663 0.44055 0.28534
 H427 H 1.03212 0.42828 0.28466
 Zn428 Zn 0.99619 0.50751 0.25194
 N429 N 0.99691 0.47776 0.27116
 C430 C 0.95441 0.48962 0.22957
 N431 N 0.96980 0.50863 0.23080
 C432 C 0.96783 0.52892 0.21564
 C433 C 0.94961 0.53091 0.19865
 C434 C 0.93594 0.49073 0.21268
 C435 C 1.01219 0.53566 0.28936
 C436 C 1.01202 0.55479 0.30539
 C437 C 0.97450 0.56944 0.28830
 C438 C 0.97543 0.55003 0.27262
 N439 N 0.99428 0.53384 0.27318
 H440 H 0.95663 0.47338 0.24140
 H441 H 0.98060 0.54357 0.21670
 H442 H 0.94849 0.54733 0.18680
 H443 H 0.92414 0.47523 0.21236
 H444 H 1.02679 0.52229 0.28964
 H445 H 1.02679 0.55551 0.31770
 H446 H 0.95935 0.58219 0.28736
 H447 H 0.96102 0.54793 0.26010
 C448 C 0.99736 0.43523 0.30115
 C449 C 1.06204 0.51483 0.19938
 C450 C 0.99298 0.57224 0.30494
 C451 C 0.93338 0.51163 0.19676
 C452 C -0.02129 0.46529 0.77953
 H453 H -0.00811 0.45046 0.77923
 C454 C -0.04133 0.46321 0.79481
 H455 H -0.04358 0.44664 0.80621
 C456 C -0.03407 0.50515 0.76541
 H457 H -0.03101 0.52163 0.75421
 C458 C -0.05429 0.50392 0.78055
 H459 H -0.06687 0.51929 0.78020
 N460 N -0.01811 0.48595 0.76511
 C461 C 0.03187 0.46127 0.70967
 H462 H 0.04562 0.47487 0.71117
 C463 C 0.03425 0.44338 0.69247
 H464 H 0.04999 0.44326 0.68080
 C465 C -0.00566 0.44542 0.72267
 H466 H -0.02148 0.44669 0.73404
 C467 C -0.00403 0.42719 0.70568
 H468 H -0.01880 0.41477 0.70434
 Zn469 Zn 0.01026 0.48783 0.74604
 N470 N 0.01224 0.46187 0.72445
 C471 C 0.05159 0.46620 0.76839
 N472 N 0.03625 0.48592 0.76768
 C473 C 0.03812 0.50414 0.78351
 C474 C 0.05649 0.50347 0.80042
 C475 C 0.07000 0.46454 0.78527
 C476 C -0.00722 0.52136 0.71064
 C477 C -0.00790 0.54255 0.69538
 C478 C 0.02896 0.55526 0.71309
 C479 C 0.02882 0.53387 0.72809
 N480 N 0.01073 0.51758 0.72680
 H481 H 0.04934 0.45149 0.75618
 H482 H 0.02521 0.51924 0.78302
 H483 H 0.05704 0.51821 0.81282
 H484 H 0.08195 0.44858 0.78557
 H485 H -0.02109 0.50780 0.70961
 H486 H -0.02250 0.54455 0.68282
 H487 H 0.04359 0.56795 0.71445
 H488 H 0.04337 0.53019 0.74047
 C489 C 0.01623 0.42598 0.69032
 C490 C -0.05795 0.48280 0.79570
 C491 C 0.01040 0.56003 0.69646
 C492 C 0.07291 0.48342 0.80146
 C493 C 0.07854 0.17128 0.48853
 C494 C 0.10149 0.17284 0.49813
 C495 C 0.11841 0.15177 0.49814
 N496 N 0.14224 0.15528 0.50079
 N497 N 0.15756 0.13616 0.50159
 C498 C 0.14954 0.11284 0.50008
 N499 N 0.12571 0.10934 0.49766
 N500 N 0.11044 0.12845 0.49660
 C501 C 0.16597 0.09143 0.50176
 C502 C 0.19049 0.09322 0.49707
 H503 H 0.10764 0.18974 0.50531
 H504 H 0.15831 0.07348 0.50563
 H505 H 0.07470 0.15508 0.47861
 H506 H 0.19777 0.11064 0.49043
 C507 C 0.69744 0.59483 0.00340
 C508 C 0.67386 0.59276 0.01172
 C509 C 0.65706 0.61385 0.01155
 N510 N 0.63314 0.60988 0.01148
 N511 N 0.61759 0.62874 0.01122
 C512 C 0.62537 0.65227 0.01129
 N513 N 0.64930 0.65624 0.01173
 N514 N 0.66489 0.63737 0.01170
 C515 C 0.60820 0.67310 0.01127
 C516 C 0.58534 0.67102 0.00165
 H517 H 0.66694 0.57474 0.01686
 H518 H 0.61427 0.69036 0.01775
 H519 H 0.70351 0.61230 -0.00446
 H520 H 0.58165 0.65433 -0.00758
 C521 C 0.91825 -0.16967 0.48447
 C522 C 0.89500 -0.17103 0.49402
 C523 C 0.87854 -0.14953 0.49313
 N524 N 0.85539 -0.15193 0.50059
 N525 N 0.84059 -0.13239 0.50054
 C526 C 0.84845 -0.10972 0.49312
 N527 N 0.87159 -0.10735 0.48570
 N528 N 0.88634 -0.12687 0.48566
 C529 C 0.83278 -0.08770 0.49366
 C530 C 0.80808 -0.08893 0.49821
 H531 H 0.88859 -0.18810 0.50238
 H532 H 0.84127 -0.07027 0.48958
 H533 H 0.92352 -0.15295 0.47451
 H534 H 0.80023 -0.10705 0.49988
 C535 C 0.32314 0.42219 1.00847
 C536 C 0.32634 0.40182 0.99411
 C537 C 0.34803 0.38604 0.99594
 N538 N 0.34910 0.36427 0.98485
 N539 N 0.36889 0.35016 0.98596
 C540 C 0.38837 0.35742 0.99808
 N541 N 0.38732 0.37922 1.00904
 N542 N 0.36752 0.39324 1.00805
 C543 C 0.41065 0.34260 0.99897
 C544 C 0.41206 0.31841 0.99160
 H545 H 0.31286 0.39682 0.98148
 H546 H 0.42628 0.35087 1.00639
 H547 H 0.33639 0.42479 1.02225
 H548 H 0.39589 0.30937 0.98644
 C549 C 0.91402 0.16455 0.50704
 C550 C 0.88955 0.16890 0.50382
 C551 C 0.87270 0.14850 0.50259
 N552 N 0.84885 0.15253 0.50604
 N553 N 0.83347 0.13417 0.50462
 C554 C 0.84139 0.11120 0.49945
 N555 N 0.86520 0.10726 0.49577
 N556 N 0.88058 0.12554 0.49741
 C557 C 0.82475 0.09079 0.49739
 C558 C 0.80169 0.09117 0.50737
 H559 H 0.88248 0.18759 0.50277
 H560 H 0.83139 0.07435 0.48898
 H561 H 0.92043 0.14582 0.51072
 H562 H 0.79602 0.10644 0.51813
 C563 C 0.30945 0.59395 0.00105
 C564 C 0.33386 0.59207 -0.00437
 C565 C 0.35003 0.61299 -0.00312
 N566 N 0.37405 0.60883 -0.00252
 N567 N 0.38905 0.62750 -0.00137
 C568 C 0.38060 0.65106 -0.00097
 N569 N 0.35658 0.65527 -0.00184
 N570 N 0.34154 0.63656 -0.00278
 C571 C 0.39713 0.67176 0.00003
 C572 C 0.42083 0.66800 0.00715
 H573 H 0.34172 0.57433 -0.00833
 H574 H 0.39033 0.69022 -0.00417
 H575 H 0.30214 0.61108 0.00750
 H576 H 0.42656 0.64975 0.01365
 C577 C 0.08064 -0.17358 0.50836
 C578 C 0.10259 -0.17221 0.49585
 C579 C 0.11836 -0.15094 0.49777
 N580 N 0.14085 -0.15144 0.48809
 N581 N 0.15499 -0.13201 0.48920
 C582 C 0.14708 -0.11133 0.49992
 N583 N 0.12459 -0.11082 0.50949
 N584 N 0.11051 -0.13026 0.50848
 C585 C 0.16199 -0.08935 0.50080
 C586 C 0.18646 -0.08954 0.49484
 H587 H 0.10871 -0.18673 0.48447
 H588 H 0.15326 -0.07302 0.50735
 H589 H 0.07657 -0.15930 0.52094
 H590 H 0.19477 -0.10707 0.49075
 C591 C 0.69307 0.41502 0.98882
 C592 C 0.66836 0.41596 0.99346
 C593 C 0.65299 0.39437 0.99224
 N594 N 0.63036 0.39544 1.00138
 N595 N 0.61593 0.37630 1.00029
 C596 C 0.62353 0.35537 0.98987
 N597 N 0.64614 0.35433 0.98053
 N598 N 0.66065 0.37346 0.98176
 C599 C 0.60745 0.33431 0.98826
 C600 C 0.58608 0.33303 1.00177
 H601 H 0.65972 0.43255 0.99951
 H602 H 0.61303 0.31970 0.97673
 H603 H 0.70114 0.39723 0.98527
 H604 H 0.58272 0.34730 1.01453
 C605 C 0.49059 0.08012 1.17735
 C606 C 0.50568 0.10023 1.17321
 C607 C 0.50167 0.11858 1.15316
 N608 N 0.51762 0.13687 1.14883
 N609 N 0.51463 0.15320 1.13035
 C610 C 0.49555 0.15185 1.11549
 N611 N 0.47953 0.13365 1.11989
 N612 N 0.48254 0.11731 1.13836
 C613 C 0.49230 0.16930 1.09458
 C614 C 0.50875 0.18778 1.08874
 H615 H 0.52131 0.10258 1.18409
 H616 H 0.47662 0.16724 1.08365
 H617 H 0.47524 0.07900 1.16567
 H618 H 0.52365 0.19002 1.10076
 C619 C -0.01323 0.67911 0.58300
 C620 C 0.00425 0.67216 0.59995
 C621 C 0.00107 0.65112 0.61736
 N622 N 0.01888 0.64443 0.63291
 N623 N 0.01655 0.62494 0.64824
 C624 C -0.00369 0.61140 0.64857
 N625 N -0.02154 0.61816 0.63309
 N626 N -0.01921 0.63765 0.61778
 C627 C -0.00637 0.58935 0.66480
 C628 C 0.01126 0.58167 0.68143
 H629 H 0.02124 0.68141 0.59988
 H630 H -0.02271 0.57927 0.66320
 H631 H -0.02966 0.66878 0.58302
 H632 H 0.02672 0.59329 0.68283
 C633 C 0.47900 0.92342 -0.17178
 C634 C 0.49715 0.90664 -0.16485
 C635 C 0.49351 0.88729 -0.14570
 N636 N 0.51188 0.87176 -0.13932
 N637 N 0.50904 0.85443 -0.12173
 C638 C 0.48769 0.85197 -0.10985
 N639 N 0.46929 0.86747 -0.11626
 N640 N 0.47213 0.88480 -0.13387
 C641 C 0.48443 0.83329 -0.08998
 C642 C 0.50277 0.81679 -0.08295
 H643 H 0.51484 0.90793 -0.17294
 H644 H 0.46716 0.83268 -0.08092
 H645 H 0.46177 0.92207 -0.16259
 H646 H 0.51939 0.81702 -0.09333
 C647 C 0.98088 0.31929 0.42063
 C648 C 0.99455 0.32280 0.39931
 C649 C 0.99123 0.34471 0.38290
 N650 N 1.00520 0.34758 0.36273
 N651 N 1.00285 0.36758 0.34802
 C652 C 0.98645 0.38549 0.35297
 N653 N 0.97242 0.38257 0.37308
 N654 N 0.97477 0.36258 0.38778
 C655 C 0.98393 0.40796 0.33724
 C656 C 0.99850 0.41234 0.31681
 H657 H 1.00841 0.30986 0.39428
 H658 H 0.97082 0.42159 0.34259
 H659 H 0.96701 0.33302 0.42392
 H660 H 1.01221 0.39876 0.31263
 C661 C 0.51466 0.91207 0.17594
 C662 C 0.50066 0.89117 0.17351
 C663 C 0.50467 0.87457 0.15346
 N664 N 0.49018 0.85505 0.15114
 N665 N 0.49329 0.84018 0.13282
 C666 C 0.51104 0.84428 0.11613
 N667 N 0.52558 0.86373 0.11851
 N668 N 0.52245 0.87859 0.13681
 C669 C 0.51448 0.82842 0.09544
 C670 C 0.49953 0.80858 0.09166
 H671 H 0.48613 0.88667 0.18592
 H672 H 0.52893 0.83314 0.08302
 H673 H 0.52894 0.91500 0.16267
 H674 H 0.48553 0.80480 0.10503
 C675 C -0.00117 0.30382 0.58874
 C676 C 0.01354 0.32413 0.59122
 C677 C 0.01152 0.33993 0.61210
 N678 N 0.02583 0.35976 0.61316
 N679 N 0.02390 0.37465 0.63156
 C680 C 0.00758 0.37029 0.64962
 N681 N -0.00668 0.35040 0.64862
 N682 N -0.00476 0.33549 0.63019
 C683 C 0.00486 0.38695 0.66977
 C684 C 0.01890 0.40784 0.67122
 H685 H 0.02675 0.32933 0.57760
 H686 H -0.00849 0.38247 0.68353
 H687 H -0.01371 0.29941 0.60338
 H688 H 0.03284 0.41105 0.65768
 C689 C 0.49106 0.10051 0.81714
 C690 C 0.50646 0.10335 0.83658
 C691 C 0.50512 0.12488 0.85178
 N692 N 0.52063 0.12649 0.87030
 N693 N 0.51942 0.14550 0.88464
 C694 C 0.50264 0.16366 0.88101
 N695 N 0.48717 0.16210 0.86243
 N696 N 0.48838 0.14307 0.84807
 C697 C 0.50057 0.18439 0.89721
 C698 C 0.51575 0.18635 0.91697
 H699 H 0.52005 0.08966 0.84130
 H700 H 0.48635 0.19768 0.89348
 H701 H 0.47838 0.11539 0.81291
 H702 H 0.52986 0.17251 0.91934
 C703 C 1.01265 0.68151 0.41775
 C704 C 0.99742 0.67819 0.39829
 C705 C 1.00067 0.65743 0.38229
 N706 N 0.98447 0.65391 0.36475
 N707 N 0.98685 0.63491 0.35047
 C708 C 1.00555 0.61871 0.35320
 N709 N 1.02180 0.62229 0.37065
 N710 N 1.01941 0.64127 0.38495
 C711 C 1.00837 0.59744 0.33777
 C712 C 0.99152 0.59224 0.32027
 H713 H 0.98218 0.69026 0.39480
 H714 H 1.02405 0.58587 0.34080
 H715 H 1.02744 0.66849 0.42028
 H716 H 0.97612 0.60459 0.31838
 C717 C 1.17718 0.49672 0.08705
 C718 C 1.15999 0.51453 0.09329
 C719 C 1.14322 0.51047 0.11379
 N720 N 1.12978 0.52958 0.12175
 N721 N 1.11410 0.52614 0.13992
 C722 C 1.11120 0.50341 0.15072
 N723 N 1.12456 0.48428 0.14270
 N724 N 1.14034 0.48774 0.12462
 C725 C 1.09331 0.49916 0.17017
 C726 C 1.08158 0.51855 0.18133
 H727 H 1.15886 0.53230 0.08378
 H728 H 1.08949 0.48030 0.17588
 H729 H 1.17855 0.48035 0.09898
 H730 H 1.08721 0.53724 0.17703
 C731 C 0.57949 0.01307 0.68979
 C732 C 0.59023 -0.00677 0.67838
 C733 C 0.60929 -0.00318 0.65994
 N734 N 0.61993 -0.02295 0.64985
 N735 N 0.63657 -0.01989 0.63251
 C736 C 0.64315 0.00308 0.62459
 N737 N 0.63255 0.02283 0.63471
 N738 N 0.61595 0.01977 0.65207
 C739 C 0.66071 0.00696 0.60477
 C740 C 0.67317 -0.01245 0.59434
 H741 H 0.58457 -0.02539 0.68277
 H742 H 0.66385 0.02574 0.59831
 H743 H 0.58670 0.03128 0.68620
 H744 H 0.67136 -0.03093 0.60230
 C745 C -0.16985 0.51079 0.90835
 C746 C -0.16342 0.49145 0.89369
 C747 C -0.14485 0.49412 0.87465
 N748 N -0.13662 0.47401 0.86325
 N749 N -0.11938 0.47606 0.84641
 C750 C -0.10979 0.49833 0.84031
 N751 N -0.11818 0.51847 0.85154
 N752 N -0.13536 0.51640 0.86843
 C753 C -0.09036 0.50092 0.82218
 C754 C -0.07871 0.48059 0.81254
 H755 H -0.17114 0.47347 0.89702
 H756 H -0.08428 0.51933 0.81744
 H757 H -0.16058 0.52809 0.90585
 H758 H -0.08387 0.46226 0.81892
 C759 C 0.42459 -0.02034 0.32481
 C760 C 0.40193 -0.00901 0.32455
 C761 C 0.38579 -0.01027 0.34584
 N762 N 0.36338 -0.00024 0.34443
 N763 N 0.34887 -0.00060 0.36379
 C764 C 0.35630 -0.01096 0.38530
 N765 N 0.37870 -0.02098 0.38669
 N766 N 0.39316 -0.02068 0.36733
 C767 C 0.34092 -0.01092 0.40710
 C768 C 0.31711 -0.00263 0.40668
 H769 H 0.39571 0.00109 0.30846
 H770 H 0.34863 -0.01804 0.42392
 H771 H 0.42962 -0.03186 0.34050
 H772 H 0.30897 0.00250 0.38946
 C773 C 0.18168 0.50458 0.91411
 C774 C 0.16788 0.48530 0.90630
 C775 C 0.15042 0.48918 0.88673
 N776 N 0.14075 0.46955 0.87638
 N777 N 0.12446 0.47284 0.85908
 C778 C 0.11711 0.49588 0.85162
 N779 N 0.12667 0.51549 0.86207
 N780 N 0.14307 0.51221 0.87924
 C781 C 0.09853 0.49988 0.83317
 C782 C 0.09155 0.48115 0.81837
 H783 H 0.16999 0.46678 0.91404
 H784 H 0.09105 0.51829 0.83093
 H785 H 0.18050 0.52205 0.90386
 H786 H 0.10161 0.46389 0.81965
 C787 C 0.59099 -0.00678 0.31326
 C788 C 0.59523 0.00992 0.33119
 C789 C 0.61504 0.00628 0.34840
 N790 N 0.61863 0.02317 0.36524
 N791 N 0.63597 0.01979 0.38145
 C792 C 0.65036 -0.00064 0.38145
 N793 N 0.64681 -0.01749 0.36456
 N794 N 0.62949 -0.01410 0.34833
 C795 C 0.66907 -0.00510 0.39976
 C796 C 0.67356 0.01188 0.41736
 H797 H 0.58387 0.02598 0.33328
 H798 H 0.67895 -0.02232 0.39919
 H799 H 0.60373 -0.02191 0.31156
 H800 H 0.66346 0.02912 0.41633
 C801 C 0.82163 0.49231 0.08623
 C802 C 0.83531 0.51108 0.09530
 C803 C 0.85136 0.50700 0.11605
 N804 N 0.86535 0.52560 0.12271
 N805 N 0.88044 0.52226 0.14105
 C806 C 0.88209 0.50018 0.15350
 N807 N 0.86797 0.48158 0.14696
 N808 N 0.85289 0.48491 0.12855
 C809 C 0.89917 0.49614 0.17345
 C810 C 0.91568 0.51413 0.17887
 H811 H 0.83522 0.52938 0.08688
 H812 H 0.89896 0.47843 0.18311
 H813 H 0.82279 0.47429 0.09545
 H814 H 0.91517 0.53123 0.16796
 C815 C 0.40281 0.01153 0.68684
 C816 C 0.40343 0.00348 0.66316
 C817 C 0.38201 0.00348 0.64794
 N818 N 0.38260 -0.00896 0.62724
 N819 N 0.36364 -0.00873 0.61286
 C820 C 0.34339 0.00406 0.61859
 N821 N 0.34282 0.01661 0.63925
 N822 N 0.36175 0.01626 0.65373
 C823 C 0.32275 0.00534 0.60224
 C824 C 0.32104 -0.01045 0.58306
 H825 H 0.41965 -0.00424 0.65554
 H826 H 0.30892 0.01892 0.60571
 H827 H 0.38548 0.01647 0.69446
 H828 H 0.33426 -0.02526 0.58215
   
