data_POSCAR
  _audit_creation_date              2014-09-24
  _audit_creation_method            'ToBaCCo'
  _symmetry_space_group_name_H-M    'P1'
  _symmetry_Int_Tables_number       1
  _symmetry_cell_setting            triclinic
  loop_
  _symmetry_equiv_pos_as_xyz
 x,y,z
_cell_length_a 64.7734
_cell_length_b 64.8757
_cell_length_c 19.2728
_cell_angle_alpha 89.925900
_cell_angle_beta 90.010300
_cell_angle_gamma 119.964100
loop_
  _atom_site_label
  _atom_site_type_symbol
  _atom_site_fract_x
  _atom_site_fract_y
  _atom_site_fract_z
C1 C 0.24616 0.49283 0.53116
 C2 C 0.24599 0.49316 0.46039
 C3 C 0.22536 0.49113 0.42091
 C4 C 0.26641 0.49552 0.41918
 C5 C 0.26559 0.49225 0.57055
 C6 C 0.22700 0.49329 0.57230
 C7 C 0.20233 0.47218 0.43269
 C8 C 0.18286 0.47099 0.39793
 C9 C 0.18575 0.48867 0.34913
 C10 C 0.20942 0.50717 0.33599
 C11 C 0.22880 0.50830 0.37133
 C12 C 0.26280 0.47805 0.37026
 C13 C 0.28207 0.47944 0.33367
 C14 C 0.30526 0.49849 0.34479
 C15 C 0.30872 0.51634 0.39240
 C16 C 0.28945 0.51489 0.42916
 C17 C 0.27807 0.50947 0.62149
 C18 C 0.29729 0.51000 0.65599
 C19 C 0.30440 0.49328 0.64034
 C20 C 0.29131 0.47553 0.59095
 C21 C 0.27198 0.47491 0.55682
 C22 C 0.22165 0.51159 0.56314
 C23 C 0.20271 0.51114 0.59921
 C24 C 0.18887 0.49244 0.64533
 C25 C 0.19476 0.47454 0.65592
 C26 C 0.21375 0.47505 0.62001
 H27 H 0.19940 0.45823 0.46906
 H28 H 0.16578 0.45540 0.40800
 H29 H 0.21341 0.52188 0.30178
 H30 H 0.24651 0.52310 0.36146
 H31 H 0.24512 0.46307 0.36153
 H32 H 0.27882 0.46564 0.29651
 H33 H 0.29252 0.52871 0.46610
 H34 H 0.27326 0.52284 0.63343
 H35 H 0.30663 0.52357 0.69488
 H36 H 0.29636 0.46246 0.57737
 H37 H 0.26226 0.46116 0.51870
 H38 H 0.23190 0.52600 0.52721
 H39 H 0.19853 0.52510 0.58970
 H40 H 0.18466 0.46013 0.69196
 H41 H 0.21776 0.46089 0.62814
 H42 H 0.32640 0.53115 0.40232
 C43 C 0.49749 -0.25304 0.53525
 C44 C 0.49642 -0.25353 0.46448
 C45 C 0.49729 -0.27262 0.42414
 C46 C 0.49486 -0.23478 0.42400
 C47 C 0.49958 -0.23264 0.57564
 C48 C 0.49749 -0.27252 0.57566
 C49 C 0.51582 -0.27763 0.43387
 C50 C 0.51589 -0.29627 0.39786
 C51 C 0.49768 -0.30997 0.35020
 C52 C 0.47965 -0.30427 0.33870
 C53 C 0.47947 -0.28579 0.37532
 C54 C 0.51078 -0.22327 0.36904
 C55 C 0.51041 -0.20476 0.33300
 C56 C 0.49419 -0.19732 0.35154
 C57 C 0.47773 -0.20933 0.40498
 C58 C 0.47783 -0.22813 0.44018
 C59 C 0.48247 -0.23638 0.62614
 C60 C 0.48362 -0.21713 0.66208
 C61 C 0.50209 -0.19382 0.64865
 C62 C 0.51968 -0.19028 0.59966
 C63 C 0.51846 -0.20951 0.56363
 C64 C 0.47878 -0.29604 0.56976
 C65 C 0.47971 -0.31441 0.60497
 C66 C 0.49952 -0.30974 0.64690
 C67 C 0.51786 -0.28579 0.65390
 C68 C 0.51673 -0.26749 0.61915
 H69 H 0.53010 -0.26729 0.47005
 H70 H 0.52996 -0.30022 0.40843
 H71 H 0.46567 -0.31405 0.30120
 H72 H 0.46520 -0.28198 0.36630
 H73 H 0.52394 -0.22821 0.35524
 H74 H 0.52333 -0.19571 0.29214
 H75 H 0.46487 -0.23723 0.48086
 H76 H 0.46784 -0.25415 0.63628
 H77 H 0.46969 -0.22046 0.69899
 H78 H 0.53444 -0.17263 0.58923
 H79 H 0.53211 -0.20637 0.52584
 H80 H 0.46367 -0.30022 0.53668
 H81 H 0.46536 -0.33234 0.59590
 H82 H 0.53294 -0.28081 0.68773
 H83 H 0.53121 -0.24937 0.62505
 H84 H 0.46481 -0.20416 0.41946
 C85 C 1.25261 0.74960 0.53372
 C86 C 1.25226 0.74938 0.46286
 C87 C 1.26988 0.76990 0.42099
 C88 C 1.23384 0.72862 0.42356
 C89 C 1.23306 0.73009 0.57423
 C90 C 1.27208 0.76931 0.57419
 C91 C 1.27335 0.79277 0.43141
 C92 C 1.29052 0.81205 0.39321
 C93 C 1.30467 0.80898 0.34283
 C94 C 1.30036 0.78561 0.33156
 C95 C 1.28318 0.76641 0.36990
 C96 C 1.21924 0.73176 0.37603
 C97 C 1.20115 0.71226 0.34102
 C98 C 1.19745 0.68924 0.35241
 C99 C 1.21254 0.68623 0.39867
 C100 C 1.23062 0.70576 0.43377
 C101 C 1.23825 0.71722 0.62259
 C102 C 1.21994 0.69826 0.65898
 C103 C 1.19578 0.69168 0.64839
 C104 C 1.19096 0.70535 0.60071
 C105 C 1.20933 0.72430 0.56456
 C106 C 1.29616 0.77787 0.55841
 C107 C 1.31413 0.79698 0.59519
 C108 C 1.30858 0.80755 0.65083
 C109 C 1.28430 0.79812 0.66799
 C110 C 1.26638 0.77943 0.62995
 H111 H 1.26300 0.79578 0.47006
 H112 H 1.29324 0.82944 0.40617
 H113 H 1.30964 0.78171 0.29171
 H114 H 1.28044 0.74877 0.36021
 H115 H 1.22158 0.74929 0.36707
 H116 H 1.19009 0.71519 0.30481
 H117 H 1.24194 0.70303 0.46954
 H118 H 1.25653 0.72170 0.63162
 H119 H 1.22509 0.68939 0.69692
 H120 H 1.17297 0.70100 0.58822
 H121 H 1.20499 0.73426 0.52799
 H122 H 1.30112 0.76976 0.51747
 H123 H 1.33240 0.80267 0.58147
 H124 H 1.27880 0.80583 0.70865
 H125 H 1.24794 0.77313 0.64335
 H126 H 1.21005 0.66871 0.40882
 C127 C 0.75786 0.51546 0.53661
 C128 C 0.75786 0.51532 0.46585
 C129 C 0.77727 0.51505 0.42566
 C130 C 0.73800 0.51459 0.42512
 C131 C 0.73705 0.51276 0.57654
 C132 C 0.77811 0.51729 0.57803
 C133 C 0.78994 0.53283 0.37618
 C134 C 0.80862 0.53312 0.33915
 C135 C 0.81480 0.51546 0.35040
 C136 C 0.80164 0.49729 0.39873
 C137 C 0.78300 0.49705 0.43590
 C138 C 0.73057 0.53129 0.43628
 C139 C 0.71107 0.52958 0.40011
 C140 C 0.69884 0.51135 0.35124
 C141 C 0.70691 0.49521 0.33843
 C142 C 0.72629 0.49684 0.37496
 C143 C 0.71457 0.49245 0.56900
 C144 C 0.69512 0.48998 0.60717
 C145 C 0.69761 0.50785 0.65406
 C146 C 0.72053 0.52809 0.66156
 C147 C 0.73994 0.53037 0.62372
 C148 C 0.77359 0.50076 0.63092
 C149 C 0.79220 0.50191 0.67030
 C150 C 0.81610 0.51970 0.65797
 C151 C 0.82042 0.53645 0.60483
 C152 C 0.80164 0.53540 0.56607
 H153 H 0.78559 0.54670 0.36706
 H154 H 0.81818 0.54711 0.30144
 H155 H 0.80607 0.48353 0.40879
 H156 H 0.77314 0.48295 0.47307
 H157 H 0.73967 0.54544 0.47374
 H158 H 0.70526 0.54222 0.41157
 H159 H 0.73188 0.48392 0.36498
 H160 H 0.71207 0.47853 0.53319
 H161 H 0.67801 0.47440 0.59720
 H162 H 0.72395 0.54194 0.69859
 H163 H 0.75730 0.54600 0.63101
 H164 H 0.75558 0.48655 0.64094
 H165 H 0.78764 0.48797 0.70812
 H166 H 0.83815 0.55104 0.59446
 H167 H 0.80550 0.54881 0.52685
 H168 H 0.69825 0.48129 0.30008
 C169 C 0.49244 0.24479 0.53503
 C170 C 0.49249 0.24460 0.46428
 C171 C 0.49066 0.26299 0.42291
 C172 C 0.49490 0.22624 0.42503
 C173 C 0.49235 0.22538 0.57633
 C174 C 0.49352 0.26494 0.57441
 C175 C 0.47212 0.26785 0.43453
 C176 C 0.47108 0.28576 0.39705
 C177 C 0.48836 0.29894 0.34637
 C178 C 0.50652 0.29355 0.33353
 C179 C 0.50762 0.27572 0.37133
 C180 C 0.47739 0.21186 0.37682
 C181 C 0.47906 0.19396 0.34147
 C182 C 0.49844 0.19032 0.35321
 C183 C 0.51625 0.20516 0.40040
 C184 C 0.51453 0.22302 0.43578
 C185 C 0.51017 0.23082 0.62576
 C186 C 0.51108 0.21273 0.66254
 C187 C 0.49404 0.18851 0.65120
 C188 C 0.47578 0.18337 0.60236
 C189 C 0.47490 0.20155 0.56590
 C190 C 0.51260 0.28809 0.56530
 C191 C 0.51347 0.30703 0.60211
 C192 C 0.49515 0.30335 0.64915
 C193 C 0.47611 0.27981 0.65806
 C194 C 0.47548 0.26088 0.62167
 H195 H 0.45857 0.25792 0.47311
 H196 H 0.45697 0.28955 0.40870
 H197 H 0.51983 0.30303 0.29400
 H198 H 0.52194 0.27210 0.36105
 H199 H 0.46222 0.21424 0.36746
 H200 H 0.46529 0.18306 0.30459
 H201 H 0.52840 0.23419 0.47210
 H202 H 0.52389 0.24912 0.63440
 H203 H 0.52602 0.21802 0.69716
 H204 H 0.46153 0.16538 0.59332
 H205 H 0.46060 0.19702 0.52918
 H206 H 0.52679 0.29152 0.52921
 H207 H 0.52812 0.32464 0.59095
 H208 H 0.46202 0.27559 0.69514
 H209 H 0.46075 0.24302 0.62995
 H210 H 0.53129 0.20269 0.41088
 C211 C 0.74871 0.25264 0.53494
 C212 C 0.74885 0.25214 0.46418
 C213 C 0.73070 0.23130 0.42443
 C214 C 0.76736 0.27227 0.42308
 C215 C 0.76823 0.27224 0.57498
 C216 C 0.72940 0.23317 0.57594
 C217 C 0.72665 0.20830 0.43790
 C218 C 0.70891 0.18876 0.40208
 C219 C 0.69517 0.19185 0.35098
 C220 C 0.69984 0.21503 0.33606
 C221 C 0.71745 0.23454 0.37238
 C222 C 0.78124 0.26816 0.37532
 C223 C 0.79929 0.28702 0.33803
 C224 C 0.80366 0.31036 0.34734
 C225 C 0.78934 0.31435 0.39402
 C226 C 0.77130 0.29546 0.43139
 C227 C 0.76289 0.28477 0.62403
 C228 C 0.78104 0.30330 0.66194
 C229 C 0.80520 0.30979 0.65218
 C230 C 0.81022 0.29665 0.60318
 C231 C 0.79198 0.27809 0.56555
 C232 C 0.70542 0.22655 0.56543
 C233 C 0.68737 0.20712 0.60110
 C234 C 0.69301 0.19407 0.64808
 C235 C 0.71708 0.20131 0.66022
 C236 C 0.73510 0.22074 0.62472
 H237 H 0.73704 0.20545 0.47679
 H238 H 0.70570 0.17118 0.41537
 H239 H 0.68997 0.21813 0.29606
 H240 H 0.72051 0.25218 0.36057
 H241 H 0.77834 0.25036 0.36781
 H242 H 0.80975 0.28334 0.30160
 H243 H 0.76054 0.29893 0.46729
 H244 H 0.74462 0.28049 0.63204
 H245 H 0.77589 0.31303 0.69660
 H246 H 0.82809 0.29983 0.59524
 H247 H 0.79641 0.26813 0.52934
 H248 H 0.70070 0.23615 0.52862
 H249 H 0.66898 0.20190 0.59050
 H250 H 0.72198 0.19186 0.69702
 H251 H 0.75351 0.22571 0.63390
 H252 H 0.79237 0.33214 0.40263
 O253 O 1.03743 0.55172 0.12755
 O254 O 1.06160 0.54399 0.05845
 C255 C 1.05827 0.55542 0.10830
 O256 O 0.96344 0.44723 0.11803
 O257 O 0.93936 0.45704 0.05616
 C258 C 0.94262 0.44390 0.10049
 O259 O 1.03003 0.47720 0.12338
 O260 O 1.05786 0.50799 0.05760
 C261 C 1.05187 0.49195 0.10554
 O262 O 0.97092 0.52566 0.12212
 O263 O 0.94282 0.49432 0.05845
 C264 C 0.94900 0.51100 0.10435
 Zr265 Zr 1.00311 0.52828 0.08667
 O266 O 1.00305 0.53078 0.19606
 O267 O 1.00716 0.56256 0.07701
 Zr268 Zr 0.99790 0.47358 0.08460
 O269 O 0.99572 0.47202 0.19426
 O270 O 0.99732 0.44067 0.08147
 O271 O 1.02155 0.50981 0.09906
 O272 O 0.97998 0.49214 0.09910
 O273 O 0.97033 0.52687 -0.11967
 O274 O 0.94271 0.49449 -0.05822
 C275 C 0.94851 0.51174 -0.10187
 O276 O 1.03024 0.47875 -0.13076
 O277 O 1.05817 0.50910 -0.06381
 C278 C 1.05215 0.49345 -0.11281
 O279 O 0.96318 0.44804 -0.12271
 O280 O 0.93913 0.45737 -0.05859
 C281 C 0.94236 0.44449 -0.10396
 O282 O 1.03709 0.55336 -0.12706
 O283 O 1.06142 0.54463 -0.06197
 C284 C 1.05797 0.55677 -0.10948
 Zr285 Zr 1.00272 0.52878 -0.08816
 O286 O 0.99994 0.52801 -0.19769
 O287 O 1.00814 0.56376 -0.08627
 Zr288 Zr 0.99776 0.47436 -0.09063
 O289 O 0.99486 0.47372 -0.20012
 O290 O 0.99738 0.44155 -0.09242
 Zr291 Zr 1.03568 0.51626 -0.00233
 Zr292 Zr 0.96512 0.48619 -0.00084
 O293 O 0.97960 0.49281 -0.10159
 O294 O 1.02138 0.51065 -0.10340
 O295 O 0.98203 0.52362 0.00003
 O296 O 1.01814 0.47886 -0.00351
 O297 O 1.02406 0.54129 -0.00084
 O298 O 0.97627 0.46073 -0.00281
 H299 H 0.96923 0.48731 0.13983
 H300 H 1.02778 0.47087 -0.00433
 H301 H 0.96877 0.48833 -0.14206
 H302 H 1.03612 0.55846 -0.00023
 H303 H 0.98298 0.42933 0.05521
 H304 H 0.98381 0.43018 -0.06353
 H305 H 1.00894 0.48819 -0.21815
 H306 H 1.01249 0.52512 -0.21640
 H307 H 0.99674 0.56388 -0.05232
 H308 H 1.00829 0.56851 0.12497
 H309 H 0.99751 0.51466 0.21465
 H310 H 1.00943 0.48682 0.21227
 O311 O 0.44557 0.48008 0.12016
 O312 O 0.45232 0.51165 0.05113
 C313 C 0.44083 0.49639 0.09991
 O314 O 0.55234 0.51837 0.12295
 O315 O 0.54557 0.48514 0.06251
 C316 C 0.55744 0.50195 0.10702
 O317 O 0.51730 0.55057 0.12302
 O318 O 0.48638 0.54509 0.05278
 C319 C 0.50141 0.55592 0.10254
 O320 O 0.47552 0.44329 0.11941
 O321 O 0.50917 0.44964 0.06188
 C322 C 0.49166 0.43770 0.10455
 Zr323 Zr 0.47176 0.47208 0.08400
 O324 O 0.47083 0.46998 0.19366
 O325 O 0.43836 0.44060 0.07515
 Zr326 Zr 0.52444 0.52379 0.08690
 O327 O 0.52450 0.52237 0.19665
 O328 O 0.55589 0.55749 0.08846
 O329 O 0.48765 0.50878 0.09687
 O330 O 0.50805 0.48735 0.10036
 O331 O 0.47852 0.44293 -0.12035
 O332 O 0.51083 0.44967 -0.05459
 C333 C 0.49457 0.43771 -0.10054
 O334 O 0.52006 0.55016 -0.13058
 O335 O 0.48775 0.54501 -0.06785
 C336 C 0.50395 0.55575 -0.11501
 O337 O 0.55459 0.51784 -0.11710
 O338 O 0.54673 0.48490 -0.05298
 C339 C 0.55932 0.50145 -0.09766
 O340 O 0.44765 0.47904 -0.13353
 O341 O 0.45351 0.51127 -0.06935
 C342 C 0.44265 0.49552 -0.11739
 Zr343 Zr 0.47361 0.47174 -0.09092
 O344 O 0.47610 0.47035 -0.20017
 O345 O 0.43972 0.44054 -0.09201
 Zr346 Zr 0.52624 0.52352 -0.08831
 O347 O 0.52882 0.52213 -0.19751
 O348 O 0.55773 0.55720 -0.08635
 Zr349 Zr 0.48182 0.51587 -0.00582
 Zr350 Zr 0.51636 0.47970 0.00165
 O351 O 0.51015 0.48706 -0.10019
 O352 O 0.48973 0.50844 -0.10557
 O353 O 0.47913 0.45712 -0.00132
 O354 O 0.51905 0.53799 -0.00268
 O355 O 0.45877 0.47883 -0.00571
 O356 O 0.53979 0.51680 0.00164
 H357 H 0.51285 0.48185 0.14212
 H358 H 0.52586 0.55548 -0.00320
 H359 H 0.51583 0.48150 -0.13979
 H360 H 0.44133 0.47251 -0.00718
 H361 H 0.56806 0.55615 0.06098
 H362 H 0.56953 0.55566 -0.05750
 H363 H 0.51384 0.52008 -0.21745
 H364 H 0.47799 0.48537 -0.21919
 H365 H 0.43982 0.42991 -0.05529
 H366 H 0.43252 0.43566 0.12321
 H367 H 0.47477 0.48583 0.21138
 H368 H 0.50955 0.52133 0.21313
 O369 O 0.48339 0.03351 0.12569
 O370 O 0.51528 0.05907 0.05888
 C371 C 0.49978 0.05476 0.10734
 O372 O 0.52103 -0.03480 0.12365
 O373 O 0.48859 -0.06067 0.05910
 C374 C 0.50475 -0.05612 0.10575
 O375 O 0.55384 0.03162 0.12767
 O376 O 0.54944 0.05831 0.06019
 C377 C 0.55986 0.05317 0.10922
 O378 O 0.44690 -0.03295 0.11921
 O379 O 0.45288 -0.05981 0.05801
 C380 C 0.44106 -0.05454 0.10203
 Zr381 Zr 0.47591 -0.00006 0.08640
 O382 O 0.47488 -0.00229 0.19606
 O383 O 0.44507 0.00336 0.08595
 Zr384 Zr 0.52742 -0.00136 0.08677
 O385 O 0.53019 -0.00128 0.19618
 O386 O 0.55975 -0.00161 0.07566
 O387 O 0.51262 0.02047 0.10004
 O388 O 0.49088 -0.02141 0.09974
 O389 O 0.44797 -0.03383 -0.12417
 O390 O 0.45314 -0.06023 -0.05737
 C391 C 0.44192 -0.05528 -0.10421
 O392 O 0.55450 0.03152 -0.12766
 O393 O 0.54953 0.05817 -0.06220
 C394 C 0.56018 0.05306 -0.11044
 O395 O 0.52200 -0.03483 -0.12028
 O396 O 0.48889 -0.06080 -0.05812
 C397 C 0.50562 -0.05617 -0.10301
 O398 O 0.48407 0.03305 -0.13073
 O399 O 0.51538 0.05892 -0.06260
 C400 C 0.50008 0.05440 -0.11192
 Zr401 Zr 0.47580 -0.00038 -0.08821
 O402 O 0.47238 -0.00135 -0.19738
 O403 O 0.44481 0.00269 -0.08028
 Zr404 Zr 0.52750 -0.00142 -0.08756
 O405 O 0.52647 -0.00389 -0.19719
 O406 O 0.56094 0.00015 -0.08582
 Zr407 Zr 0.52009 0.03480 -0.00117
 Zr408 Zr 0.48327 -0.03638 -0.00020
 O409 O 0.49104 -0.02158 -0.10057
 O410 O 0.51259 0.02023 -0.10206
 O411 O 0.46083 -0.02147 -0.00069
 O412 O 0.54200 0.01943 -0.00046
 O413 O 0.48294 0.02071 -0.00135
 O414 O 0.52038 -0.02287 -0.00001
 H415 H 0.48505 -0.03215 0.14049
 H416 H 0.55954 0.02999 -0.00037
 H417 H 0.48569 -0.03233 -0.14126
 H418 H 0.47665 0.03185 -0.00173
 H419 H 0.56566 -0.00116 0.12335
 H420 H 0.55959 -0.01230 -0.05335
 H421 H 0.52489 0.00952 -0.21550
 H422 H 0.48497 -0.00408 -0.21631
 H423 H 0.43152 -0.01288 -0.06494
 H424 H 0.43321 -0.00924 0.05545
 H425 H 0.49047 0.01039 0.21348
 H426 H 0.51405 -0.00718 0.21525
 C427 C 1.12718 0.48704 0.25006
 C428 C 1.12378 0.47427 0.31167
 C429 C 1.14316 0.47464 0.34424
 C430 C 1.16651 0.48797 0.31675
 C431 C 1.16887 0.50079 0.25475
 N432 N 1.14957 0.49991 0.22394
 C433 C 1.10729 0.48748 0.21335
 N434 N 1.11236 0.50550 0.16788
 C435 C 1.09511 0.50725 0.13255
 C436 C 1.07101 0.49016 0.14219
 C437 C 1.06541 0.47125 0.18803
 C438 C 1.08341 0.46976 0.22326
 H439 H 1.13956 0.46545 0.39338
 H440 H 1.18566 0.51069 0.22798
 H441 H 1.10028 0.52209 0.09752
 H442 H 1.04710 0.45747 0.19647
 H443 H 1.10651 0.46461 0.33627
 H444 H 1.07849 0.45466 0.25686
 C445 C 0.49689 0.63167 0.24367
 C446 C 0.47533 0.62991 0.26476
 C447 C 0.47560 0.64888 0.29952
 C448 C 0.49727 0.66970 0.31329
 C449 C 0.51847 0.67061 0.29193
 N450 N 0.51775 0.65183 0.25840
 C451 C 0.49751 0.61204 0.20672
 N452 N 0.51668 0.60895 0.21500
 C453 C 0.51835 0.59122 0.18259
 C454 C 0.50013 0.57546 0.13805
 C455 C 0.48041 0.57862 0.12797
 C456 C 0.47901 0.59678 0.16221
 H457 H 0.45885 0.64705 0.31666
 H458 H 0.53559 0.68633 0.30087
 H459 H 0.53397 0.58957 0.19140
 H460 H 0.46598 0.56700 0.09382
 H461 H 0.45843 0.61389 0.25593
 H462 H 0.46379 0.59905 0.15282
 C463 C 0.35969 -0.13196 0.23581
 C464 C 0.34019 -0.13062 0.26181
 C465 C 0.32198 -0.15009 0.29658
 C466 C 0.32277 -0.17128 0.30557
 C467 C 0.34251 -0.17190 0.27657
 N468 N 0.36008 -0.15258 0.24348
 C469 C 0.37996 -0.11162 0.20054
 N470 N 0.39393 -0.11590 0.15685
 C471 C 0.41326 -0.09811 0.12423
 C472 C 0.41973 -0.07425 0.13552
 C473 C 0.40562 -0.06945 0.18059
 C474 C 0.38583 -0.08800 0.21318
 H475 H 0.30693 -0.14855 0.31384
 H476 H 0.34484 -0.18716 0.28273
 H477 H 0.42366 -0.10267 0.09016
 H478 H 0.40996 -0.05134 0.19131
 H479 H 0.33863 -0.11493 0.25450
 H480 H 0.37575 -0.08368 0.24914
 C481 C 0.87361 0.51713 0.24376
 C482 C 0.87558 0.53842 0.26832
 C483 C 0.85637 0.53788 0.30275
 C484 C 0.83515 0.51624 0.31269
 C485 C 0.83377 0.49541 0.28645
 N486 N 0.85271 0.49638 0.25297
 C487 C 0.89348 0.51656 0.20762
 N488 N 0.88846 0.49831 0.16331
 C489 C 0.90576 0.49632 0.12925
 C490 C 0.92989 0.51324 0.13958
 C491 C 0.93547 0.53211 0.18542
 C492 C 0.91739 0.53383 0.21947
 H493 H 0.85824 0.55436 0.32240
 H494 H 0.81760 0.47840 0.29199
 H495 H 0.90060 0.48137 0.09475
 H496 H 0.95381 0.54549 0.19543
 H497 H 0.89159 0.55539 0.26050
 H498 H 0.92225 0.54821 0.25582
 C499 C 0.48662 0.35594 0.23887
 C500 C 0.46519 0.33489 0.25314
 C501 C 0.46575 0.31624 0.28755
 C502 C 0.48757 0.31840 0.30776
 C503 C 0.50861 0.33958 0.29120
 N504 N 0.50761 0.35751 0.25770
 C505 C 0.48706 0.37648 0.20383
 N506 N 0.50678 0.39191 0.16712
 C507 C 0.50861 0.41138 0.13461
 C508 C 0.48994 0.41645 0.13882
 C509 C 0.46956 0.40089 0.17702
 C510 C 0.46804 0.38096 0.20946
 H511 H 0.44912 0.30004 0.29762
 H512 H 0.52584 0.34213 0.30617
 H513 H 0.52473 0.42297 0.10615
 H514 H 0.45475 0.40411 0.18202
 H515 H 0.44817 0.33260 0.23710
 H516 H 0.45235 0.36957 0.23982
 C517 C 0.63889 0.13142 0.24740
 C518 C 0.66017 0.13167 0.26332
 C519 C 0.67857 0.15141 0.29647
 C520 C 0.67591 0.17096 0.31397
 C521 C 0.65446 0.17012 0.29611
 N522 N 0.63680 0.15071 0.26365
 C523 C 0.61878 0.11088 0.21266
 N524 N 0.60371 0.11460 0.17212
 C525 C 0.58485 0.09655 0.13872
 C526 C 0.58010 0.07302 0.14584
 C527 C 0.59518 0.06878 0.18840
 C528 C 0.61450 0.08760 0.22172
 H529 H 0.69499 0.15147 0.30753
 H530 H 0.65149 0.18466 0.30906
 H531 H 0.57357 0.10063 0.10694
 H532 H 0.59216 0.05093 0.19570
 H533 H 0.66282 0.11701 0.24930
 H534 H 0.62564 0.08381 0.25507
 C535 C 0.49905 0.13355 -0.24451
 C536 C 0.50904 0.15619 -0.21445
 C537 C 0.50730 0.17424 -0.24851
 C538 C 0.49544 0.17004 -0.31286
 C539 C 0.48522 0.14675 -0.34009
 N540 N 0.48733 0.12955 -0.30591
 C541 C 0.50034 0.11369 -0.21063
 N542 N 0.48386 0.09090 -0.22744
 C543 C 0.48364 0.07175 -0.19779
 C544 C 0.50075 0.07496 -0.14770
 C545 C 0.51824 0.09832 -0.13083
 C546 C 0.51817 0.11765 -0.16223
 H547 H 0.51450 0.19114 -0.22220
 H548 H 0.47643 0.14221 -0.38991
 H549 H 0.46989 0.05408 -0.21278
 H550 H 0.53199 0.10172 -0.09314
 H551 H 0.51763 0.15997 -0.16427
 H552 H 0.53212 0.13540 -0.14899
 C553 C 0.63873 0.50192 -0.23314
 C554 C 0.63855 0.48126 -0.25523
 C555 C 0.65791 0.48314 -0.29243
 C556 C 0.67779 0.50562 -0.30781
 C557 C 0.67703 0.52584 -0.28420
 N558 N 0.65782 0.52346 -0.24888
 C559 C 0.61836 0.50114 -0.19600
 N560 N 0.61486 0.52008 -0.20171
 C561 C 0.59640 0.52068 -0.17030
 C562 C 0.58006 0.50139 -0.12973
 C563 C 0.58362 0.48187 -0.12177
 C564 C 0.60270 0.48166 -0.15481
 H565 H 0.65740 0.46679 -0.30678
 H566 H 0.69108 0.54366 -0.29626
 H567 H 0.59450 0.53620 -0.17736
 H568 H 0.57156 0.46666 -0.09064
 H569 H 0.62350 0.46377 -0.24517
 H570 H 0.60522 0.46653 -0.14735
 C571 C 0.86080 0.36689 -0.23630
 C572 C 0.83771 0.35498 -0.20851
 C573 C 0.81939 0.33622 -0.24514
 C574 C 0.82376 0.32886 -0.30979
 C575 C 0.84741 0.34130 -0.33494
 N576 N 0.86485 0.35957 -0.29829
 C577 C 0.88112 0.38685 -0.20002
 N578 N 0.90364 0.39240 -0.21812
 C579 C 0.92332 0.41055 -0.18818
 C580 C 0.92103 0.42458 -0.13671
 C581 C 0.89798 0.41931 -0.11753
 C582 C 0.87804 0.40056 -0.14906
 H583 H 0.80210 0.32695 -0.22053
 H584 H 0.85213 0.33737 -0.38494
 H585 H 0.94070 0.41398 -0.20493
 H586 H 0.89532 0.42974 -0.07843
 H587 H 0.83377 0.35954 -0.15820
 H588 H 0.86055 0.39730 -0.13435
 C589 C 0.50448 -0.13425 -0.24797
 C590 C 0.51072 -0.13247 -0.31839
 C591 C 0.50987 -0.15188 -0.35192
 C592 C 0.50279 -0.17317 -0.31577
 C593 C 0.49620 -0.17440 -0.24571
 N594 N 0.49718 -0.15520 -0.21405
 C595 C 0.50548 -0.11393 -0.21025
 N596 N 0.49013 -0.11804 -0.15676
 C597 C 0.48995 -0.10003 -0.12107
 C598 C 0.50598 -0.07622 -0.13861
 C599 C 0.52230 -0.07170 -0.19247
 C600 C 0.52213 -0.09041 -0.22817
 H601 H 0.51440 -0.15033 -0.40649
 H602 H 0.49068 -0.19044 -0.21577
 H603 H 0.47719 -0.10434 -0.07952
 H604 H 0.53516 -0.05368 -0.20762
 H605 H 0.51581 -0.11642 -0.34783
 H606 H 0.53512 -0.08640 -0.26885
 C607 C 0.36535 0.49709 -0.25999
 C608 C 0.36569 0.51813 -0.27926
 C609 C 0.34587 0.51685 -0.31184
 C610 C 0.32565 0.49470 -0.32550
 C611 C 0.32622 0.47406 -0.30657
 N612 N 0.34577 0.47576 -0.27482
 C613 C 0.38574 0.49750 -0.22406
 N614 N 0.38960 0.47883 -0.23194
 C615 C 0.40777 0.47791 -0.19943
 C616 C 0.42318 0.49640 -0.15507
 C617 C 0.41934 0.51569 -0.14583
 C618 C 0.40074 0.51633 -0.18014
 H619 H 0.34654 0.53323 -0.32729
 H620 H 0.31102 0.45660 -0.31579
 H621 H 0.40994 0.46260 -0.20765
 H622 H 0.43060 0.53027 -0.11168
 H623 H 0.38120 0.53541 -0.27045
 H624 H 0.39786 0.53114 -0.17080
 C625 C 1.13956 0.63293 -0.24654
 C626 C 1.16147 0.63385 -0.25572
 C627 C 1.18002 0.65322 -0.28990
 C628 C 1.17704 0.67194 -0.31596
 C629 C 1.15452 0.66999 -0.30579
 N630 N 1.13682 0.65095 -0.27208
 C631 C 1.11910 0.61281 -0.21113
 N632 N 1.09675 0.60886 -0.22411
 C633 C 1.07705 0.59104 -0.19306
 C634 C 1.07920 0.57593 -0.14502
 C635 C 1.10210 0.57975 -0.13051
 C636 C 1.12204 0.59812 -0.16323
 H637 H 1.19624 0.65270 -0.29834
 H638 H 1.15097 0.68387 -0.32192
 H639 H 1.05980 0.58888 -0.20564
 H640 H 1.10468 0.56867 -0.09345
 H641 H 1.16422 0.61952 -0.23861
 H642 H 1.13948 0.60099 -0.14968
 C643 C 0.87178 0.51891 -0.22908
 C644 C 0.84925 0.50996 -0.19863
 C645 C 0.83106 0.51057 -0.23538
 C646 C 0.83501 0.52035 -0.30275
 C647 C 0.85837 0.53031 -0.32960
 N648 N 0.87571 0.52911 -0.29301
 C649 C 0.89122 0.51713 -0.19406
 N650 N 0.91429 0.53233 -0.21245
 C651 C 0.93290 0.53120 -0.18357
 C652 C 0.92875 0.51382 -0.13338
 C653 C 0.90509 0.49791 -0.11417
 C654 C 0.88638 0.49943 -0.14437
 H655 H 0.81411 0.50396 -0.20936
 H656 H 0.86274 0.53785 -0.38116
 H657 H 0.95083 0.54376 -0.20025
 H658 H 0.90090 0.48405 -0.07618
 H659 H 0.84559 0.50275 -0.14659
 H660 H 0.86835 0.48640 -0.12991
 C661 C 0.49689 0.36048 -0.23981
 C662 C 0.51825 0.36219 -0.26231
 C663 C 0.51772 0.34344 -0.29908
 C664 C 0.49591 0.32264 -0.31370
 C665 C 0.47489 0.32189 -0.29006
 N666 N 0.47593 0.34057 -0.25504
 C667 C 0.49654 0.38008 -0.20171
 N668 N 0.47749 0.38340 -0.20906
 C669 C 0.47626 0.40140 -0.17676
 C670 C 0.49493 0.41730 -0.13364
 C671 C 0.51445 0.41379 -0.12405
 C672 C 0.51533 0.39528 -0.15792
 H673 H 0.53463 0.34514 -0.31347
 H674 H 0.45747 0.30700 -0.30161
 H675 H 0.46077 0.40330 -0.18515
 H676 H 0.52921 0.42550 -0.09101
 H677 H 0.53527 0.37795 -0.25254
 H678 H 0.53047 0.39282 -0.14922
 C679 C 0.63745 0.13209 -0.25244
 C680 C 0.65763 0.13181 -0.27789
 C681 C 0.67573 0.15203 -0.31015
 C682 C 0.67390 0.17260 -0.31706
 C683 C 0.65355 0.17223 -0.29047
 N684 N 0.63616 0.15233 -0.25898
 C685 C 0.61779 0.11125 -0.21712
 N686 N 0.60388 0.11483 -0.17135
 C687 C 0.58553 0.09663 -0.13679
 C688 C 0.58012 0.07305 -0.14780
 C689 C 0.59401 0.06892 -0.19557
 C690 C 0.61278 0.08790 -0.23030
 H691 H 0.69106 0.15150 -0.33032
 H692 H 0.65159 0.18782 -0.29389
 H693 H 0.57517 0.10067 -0.10096
 H694 H 0.59038 0.05103 -0.20623
 H695 H 0.65972 0.11638 -0.27211
 H696 H 0.62289 0.08417 -0.26783
 C697 C 1.12864 0.48978 -0.25407
 C698 C 1.12690 0.46878 -0.28035
 C699 C 1.14657 0.46964 -0.31275
 C700 C 1.16802 0.49130 -0.31902
 C701 C 1.16911 0.51183 -0.29138
 N702 N 1.14973 0.51055 -0.25983
 C703 C 1.10841 0.48999 -0.21893
 N704 N 1.11305 0.50767 -0.17281
 C705 C 1.09549 0.50913 -0.13851
 C706 C 1.07146 0.49216 -0.15019
 C707 C 1.06624 0.47399 -0.19834
 C708 C 1.08459 0.47284 -0.23276
 H709 H 1.14491 0.45339 -0.33366
 H710 H 1.18541 0.52884 -0.29420
 H711 H 1.10039 0.52359 -0.10234
 H712 H 1.04798 0.46062 -0.20947
 H713 H 1.11072 0.45178 -0.27523
 H714 H 1.08004 0.45891 -0.27055
 C715 C 0.50402 0.63406 -0.25585
 C716 C 0.52493 0.65529 -0.27179
 C717 C 0.52346 0.67386 -0.30337
 C718 C 0.50116 0.67154 -0.31990
 C719 C 0.48064 0.64980 -0.30242
 N720 N 0.48260 0.63210 -0.27090
 C721 C 0.50459 0.61401 -0.22122
 N722 N 0.48603 0.59919 -0.17975
 C723 C 0.48541 0.58054 -0.14563
 C724 C 0.50421 0.57577 -0.15278
 C725 C 0.52332 0.59057 -0.19634
 C726 C 0.52360 0.60967 -0.23052
 H727 H 0.54003 0.68961 -0.31703
 H728 H 0.46293 0.64700 -0.31094
 H729 H 0.47023 0.56952 -0.11300
 H730 H 0.53814 0.58749 -0.20378
 H731 H 0.54231 0.65777 -0.25931
 H732 H 0.53836 0.62064 -0.26454
 C733 C 0.36320 -0.13451 -0.23878
 C734 C 0.34179 -0.14998 -0.20509
 C735 C 0.32367 -0.16896 -0.24152
 C736 C 0.32680 -0.17302 -0.31167
 C737 C 0.34874 -0.15688 -0.34311
 N738 N 0.36592 -0.13825 -0.30670
 C739 C 0.38284 -0.11419 -0.20218
 N740 N 0.39628 -0.09332 -0.23673
 C741 C 0.41484 -0.07411 -0.20614
 C742 C 0.42114 -0.07551 -0.13735
 C743 C 0.40765 -0.09693 -0.10105
 C744 C 0.38838 -0.11622 -0.13303
 H745 H 0.30765 -0.18092 -0.21329
 H746 H 0.35206 -0.15834 -0.39736
 H747 H 0.42499 -0.05796 -0.23603
 H748 H 0.41196 -0.09873 -0.04789
 H749 H 0.33898 -0.14733 -0.15122
 H750 H 0.37833 -0.13270 -0.10454
 C751 C 0.49874 -0.13638 0.25130
 C752 C 0.49704 -0.13823 0.32392
 C753 C 0.49512 -0.15833 0.35650
 C754 C 0.49508 -0.17648 0.31703
 C755 C 0.49654 -0.17410 0.24453
 N756 N 0.49815 -0.15445 0.21384
 C757 C 0.50093 -0.11536 0.21465
 N758 N 0.49068 -0.11815 0.15110
 C759 C 0.49181 -0.09955 0.11513
 C760 C 0.50410 -0.07643 0.14268
 C761 C 0.51527 -0.07313 0.20738
 C762 C 0.51364 -0.09251 0.24358
 H763 H 0.49410 -0.15950 0.41259
 H764 H 0.49631 -0.18788 0.21236
 H765 H 0.48313 -0.10284 0.06510
 H766 H 0.52495 -0.05562 0.23057
 H767 H 0.49693 -0.12445 0.35523
 H768 H 0.52248 -0.08956 0.29324
 C769 C 0.36421 0.50081 0.23735
 C770 C 0.36319 0.52182 0.24535
 C771 C 0.34398 0.52109 0.28034
 C772 C 0.32578 0.49955 0.30743
 C773 C 0.32760 0.47903 0.29896
 N774 N 0.34652 0.48018 0.26493
 C775 C 0.38415 0.50044 0.20110
 N776 N 0.38918 0.48295 0.21690
 C777 C 0.40709 0.48128 0.18555
 C778 C 0.42113 0.49779 0.13438
 C779 C 0.41602 0.51577 0.11660
 C780 C 0.39761 0.51716 0.14969
 H781 H 0.34324 0.53733 0.28568
 H782 H 0.31417 0.46214 0.32017
 H783 H 0.41026 0.46703 0.20066
 H784 H 0.42616 0.52875 0.07689
 H785 H 0.37718 0.53873 0.22600
 H786 H 0.39377 0.53090 0.13394
 C787 C 1.14016 0.62983 0.24863
 C788 C 1.16222 0.63079 0.25608
 C789 C 1.18091 0.65012 0.29001
 C790 C 1.17773 0.66846 0.31670
 C791 C 1.15532 0.66663 0.30906
 N792 N 1.13740 0.64764 0.27593
 C793 C 1.11962 0.60997 0.21283
 N794 N 1.09732 0.60601 0.22678
 C795 C 1.07755 0.58861 0.19497
 C796 C 1.07957 0.57400 0.14495
 C797 C 1.10241 0.57779 0.12954
 C798 C 1.12242 0.59571 0.16317
 H799 H 1.19792 0.65084 0.29469
 H800 H 1.15194 0.68013 0.33004
 H801 H 1.06035 0.58644 0.20835
 H802 H 1.10488 0.56707 0.09103
 H803 H 1.16507 0.61675 0.23696
 H804 H 1.13981 0.59861 0.14886
 C805 C 0.50238 0.13443 0.24720
 C806 C 0.52316 0.15659 0.25611
 C807 C 0.52188 0.17481 0.29058
 C808 C 0.50003 0.17107 0.31650
 C809 C 0.47975 0.14859 0.30731
 N810 N 0.48144 0.13109 0.27364
 C811 C 0.50257 0.11443 0.21086
 N812 N 0.48500 0.09178 0.22485
 C813 C 0.48378 0.07251 0.19301
 C814 C 0.50086 0.07545 0.14319
 C815 C 0.51900 0.09868 0.12752
 C816 C 0.51990 0.11814 0.16100
 H817 H 0.53795 0.19190 0.29638
 H818 H 0.46264 0.14481 0.32761
 H819 H 0.46939 0.05497 0.20648
 H820 H 0.53248 0.10188 0.08906
 H821 H 0.54031 0.15985 0.23777
 H822 H 0.53375 0.13583 0.14659
 C823 C 0.63751 0.50452 0.24534
 C824 C 0.63796 0.48402 0.26636
 C825 C 0.65791 0.48627 0.30081
 C826 C 0.67751 0.50886 0.31456
 C827 C 0.67621 0.52892 0.29336
 N828 N 0.65654 0.52628 0.25998
 C829 C 0.61672 0.50316 0.20907
 N830 N 0.61243 0.52159 0.21517
 C831 C 0.59368 0.52160 0.18344
 C832 C 0.57796 0.50227 0.14200
 C833 C 0.58228 0.48324 0.13420
 C834 C 0.60157 0.48360 0.16752
 H835 H 0.65780 0.47030 0.31783
 H836 H 0.69093 0.54669 0.30240
 H837 H 0.59118 0.53676 0.19044
 H838 H 0.57075 0.46802 0.10239
 H839 H 0.62291 0.46641 0.25787
 H840 H 0.60474 0.46890 0.15963
 C841 C 0.86060 0.36803 0.23669
 C842 C 0.83882 0.36757 0.24509
 C843 C 0.82023 0.34877 0.28105
 C844 C 0.82324 0.33045 0.30889
 C845 C 0.84534 0.33169 0.29993
 N846 N 0.86320 0.35020 0.26488
 C847 C 0.88113 0.38760 0.19991
 N848 N 0.90344 0.39161 0.21399
 C849 C 0.92323 0.40925 0.18277
 C850 C 0.92123 0.42419 0.13378
 C851 C 0.89834 0.42012 0.11757
 C852 C 0.87831 0.40188 0.15025
 H853 H 0.80345 0.34848 0.28661
 H854 H 0.84858 0.31817 0.32162
 H855 H 0.94047 0.41160 0.19662
 H856 H 0.89586 0.43102 0.07961
 H857 H 0.83614 0.38167 0.22541
 H858 H 0.86091 0.39889 0.13570
   
