data_POSCAR
  _audit_creation_date              2014-09-24
  _audit_creation_method            'ToBaCCo'
  _symmetry_space_group_name_H-M    'P1'
  _symmetry_Int_Tables_number       1
  _symmetry_cell_setting            triclinic
  loop_
  _symmetry_equiv_pos_as_xyz
 x,y,z
_cell_length_a 22.3673
_cell_length_b 21.5006
_cell_length_c 27.5021
_cell_angle_alpha 92.295300
_cell_angle_beta 89.575700
_cell_angle_gamma 127.773500
loop_
  _atom_site_label
  _atom_site_type_symbol
  _atom_site_fract_x
  _atom_site_fract_y
  _atom_site_fract_z
C1 C 0.05419 0.43461 1.35710
 C2 C -0.00765 0.41304 1.38514
 C3 C -0.07038 0.40174 1.36411
 C4 C -0.07039 0.41547 1.31446
 C5 C -0.00863 0.43617 1.28544
 C6 C 0.05417 0.44588 1.30680
 C7 C 0.11424 0.46471 1.27712
 C8 C 0.11202 0.47300 1.22721
 C9 C 0.04970 0.46273 1.20535
 C10 C -0.01114 0.44409 1.23468
 C11 C -0.13285 0.40490 1.29271
 C12 C -0.13467 0.41426 1.24319
 C13 C -0.07445 0.43365 1.21348
 C14 C -0.07594 0.44390 1.16328
 C15 C -0.01469 0.46425 1.13470
 C16 C 0.04794 0.47319 1.15518
 H17 H 0.16323 0.47283 1.29233
 H18 H 0.15962 0.48767 1.20584
 H19 H -0.18076 0.38951 1.31403
 H20 H -0.18408 0.40559 1.22829
 H21 H -0.00926 0.39936 1.42291
 H22 H -0.01535 0.47380 1.09637
 C23 C 0.60061 0.55869 1.15163
 C24 C 0.55308 0.57367 1.13215
 C25 C 0.50828 0.58385 1.16204
 C26 C 0.51138 0.57965 1.21273
 C27 C 0.56095 0.56689 1.23295
 C28 C 0.60603 0.55703 1.20226
 C29 C 0.65258 0.54135 1.22265
 C30 C 0.65405 0.53429 1.27248
 C31 C 0.60951 0.54346 1.30359
 C32 C 0.56360 0.56125 1.28383
 C33 C 0.46615 0.58767 1.24364
 C34 C 0.46999 0.58379 1.29387
 C35 C 0.51953 0.57211 1.31479
 C36 C 0.52457 0.56794 1.36566
 C37 C 0.56746 0.54688 1.38446
 C38 C 0.60968 0.53477 1.35400
 H39 H 0.68760 0.53347 1.20012
 H40 H 0.69012 0.52107 1.28640
 H41 H 0.42719 0.59665 1.22913
 H42 H 0.43213 0.58795 1.31567
 H43 H 0.54815 0.57377 1.09300
 H44 H 0.56971 0.54235 1.42344
 C45 C 0.48609 1.07588 1.15134
 C46 C 0.46873 1.01259 1.12150
 C47 C 0.44872 0.94316 1.14118
 C48 C 0.44443 0.93604 1.19222
 C49 C 0.46322 1.00034 1.22311
 C50 C 0.48565 1.07120 1.20261
 C51 C 0.50479 1.13449 1.23390
 C52 C 0.50008 1.12760 1.28429
 C53 C 0.47402 1.05641 1.30523
 C54 C 0.45568 0.99230 1.27440
 C55 C 0.41811 0.86481 1.21298
 C56 C 0.40715 0.85577 1.26306
 C57 C 0.42472 0.91853 1.29438
 C58 C 0.40879 0.90836 1.34473
 C59 C 0.42955 0.97302 1.37495
 C60 C 0.46216 1.04670 1.35591
 H61 H 0.52325 1.18974 1.21949
 H62 H 0.51517 1.17802 1.30677
 H63 H 0.40322 0.81457 1.19036
 H64 H 0.38447 0.79904 1.27721
 H65 H 0.46934 1.01690 1.08233
 H66 H 0.41460 0.96437 1.41303
 C67 C 1.05217 0.46091 0.85883
 C68 C 0.99405 0.45365 0.88384
 C69 C 0.93932 0.45394 0.85957
 C70 C 0.94282 0.46116 0.80860
 C71 C 1.00256 0.46966 0.78288
 C72 C 1.05833 0.47108 0.80827
 C73 C 1.11784 0.48100 0.78237
 C74 C 1.12135 0.48721 0.73204
 C75 C 1.06453 0.48191 0.70580
 C76 C 1.00481 0.47339 0.73147
 C77 C 0.88646 0.45668 0.78244
 C78 C 0.88729 0.45758 0.73166
 C79 C 0.94547 0.46487 0.70564
 C80 C 0.94417 0.46022 0.65432
 C81 C 1.00391 0.46984 0.62935
 C82 C 1.06450 0.48210 0.65442
 H83 H 1.16190 0.48356 0.80092
 H84 H 1.16804 0.49432 0.71364
 H85 H 0.84016 0.45016 0.80101
 H86 H 0.84156 0.45164 0.71283
 H87 H 0.99105 0.44678 0.92283
 H88 H 1.00227 0.46615 0.58988
 C89 C 0.60714 0.56350 0.63670
 C90 C 0.58011 0.60142 0.61693
 C91 C 0.54347 0.62369 0.64581
 C92 C 0.53879 0.61331 0.69621
 C93 C 0.56519 0.57463 0.71674
 C94 C 0.59880 0.54899 0.68687
 C95 C 0.61917 0.50520 0.70727
 C96 C 0.60560 0.48592 0.75607
 C97 C 0.57184 0.51042 0.78603
 C98 C 0.55260 0.55627 0.76648
 C99 C 0.50510 0.63793 0.72618
 C100 C 0.49665 0.62391 0.77568
 C101 C 0.51898 0.58215 0.79630
 C102 C 0.50648 0.56383 0.84573
 C103 C 0.52557 0.51838 0.86444
 C104 C 0.55733 0.49111 0.83525
 H105 H 0.64498 0.48475 0.68541
 H106 H 0.62147 0.45146 0.77020
 H107 H 0.48540 0.66862 0.71147
 H108 H 0.47057 0.64418 0.79741
 H109 H 0.57856 0.60399 0.57773
 H110 H 0.51619 0.50414 0.90244
 C111 C 0.45491 -0.09562 0.83245
 C112 C 0.49538 -0.03110 0.86555
 C113 C 0.52278 0.04402 0.85185
 C114 C 0.50908 0.05497 0.80373
 C115 C 0.46934 -0.01045 0.76985
 C116 C 0.44347 -0.08554 0.78417
 C117 C 0.40668 -0.14941 0.74981
 C118 C 0.39694 -0.13925 0.70186
 C119 C 0.42137 -0.06561 0.68700
 C120 C 0.45629 -0.00093 0.72131
 C121 C 0.53517 0.12921 0.78814
 C122 C 0.52195 0.13856 0.74020
 C123 C 0.48259 0.07409 0.70629
 C124 C 0.47098 0.08288 0.65729
 C125 C 0.43618 0.01777 0.62410
 C126 C 0.41481 -0.05471 0.63796
 H127 H 0.38659 -0.20756 0.75950
 H128 H 0.36968 -0.18979 0.67650
 H129 H 0.56650 0.18069 0.81276
 H130 H 0.54306 0.19671 0.72970
 H131 H 0.50382 -0.03959 0.90275
 H132 H 0.43476 0.02614 0.58564
 O133 O 0.44165 0.66328 0.94342
 O134 O 0.42422 0.77361 0.93841
 C135 C 0.37139 0.74216 0.90685
 O136 O 0.30335 0.69117 0.91741
 O137 O 0.19126 0.56254 0.95245
 C138 C 0.19116 0.50423 0.94259
 O139 O 0.23471 0.49451 0.96363
 O140 O 0.37322 0.54984 0.98240
 C141 C 0.41823 0.59307 0.94882
 O142 O 0.46531 0.69058 1.03884
 O143 O 0.43292 0.78884 1.03609
 C144 C 0.38756 0.80573 1.03490
 O145 O 0.33091 0.77129 1.00528
 O146 O 0.21941 0.63646 1.03978
 C147 C 0.19522 0.57535 1.06253
 O148 O 0.21849 0.53422 1.05507
 O149 O 0.36124 0.59295 1.07413
 C150 C 0.43264 0.64221 1.07222
 Cr151 Cr 0.43759 0.72667 0.98955
 Cr152 Cr 0.26386 0.66527 0.97938
 Cr153 Cr 0.29790 0.54628 1.01839
 O154 O 0.33239 0.64553 0.99664
 O155 O 0.58784 0.36553 0.92927
 O156 O 0.53200 0.22439 0.95679
 C157 C 0.56697 0.19794 0.94299
 O158 O 0.62995 0.22195 0.96170
 O159 O 0.77032 0.34026 0.98553
 C160 C 0.80210 0.39684 0.95669
 O161 O 0.78806 0.44588 0.95564
 O162 O 0.69391 0.48100 0.95407
 C163 C 0.63763 0.43900 0.92504
 O164 O 0.57478 0.40603 1.01999
 O165 O 0.52610 0.26860 1.04896
 C166 C 0.53884 0.22625 1.07003
 O167 O 0.58847 0.21860 1.05574
 O168 O 0.72798 0.33924 1.07823
 C169 C 0.77943 0.41265 1.08502
 O170 O 0.79541 0.46173 1.05346
 O171 O 0.69235 0.48439 1.05144
 C172 C 0.62446 0.46077 1.04932
 Cr173 Cr 0.55876 0.31708 0.98928
 Cr174 Cr 0.67849 0.28251 1.01962
 Cr175 Cr 0.73974 0.46421 1.00349
 O176 O 0.65888 0.35418 1.00396
 O177 O 0.73671 0.50239 0.53233
 O178 O 0.78997 0.42802 0.55600
 C179 C 0.78803 0.36990 0.56527
 O180 O 0.74264 0.30296 0.54335
 O181 O 0.60269 0.23898 0.56373
 C182 C 0.54166 0.22995 0.56790
 O183 O 0.52281 0.26104 0.53934
 O184 O 0.61428 0.41525 0.54890
 C185 C 0.67750 0.48254 0.55492
 O186 O 0.74169 0.46467 0.43792
 O187 O 0.80002 0.39507 0.46008
 C188 C 0.76655 0.32657 0.43901
 O189 O 0.70089 0.26766 0.44935
 O190 O 0.55892 0.19214 0.46819
 C191 C 0.52668 0.20966 0.43987
 O192 O 0.54051 0.27607 0.44219
 O193 O 0.62647 0.42999 0.45137
 C194 C 0.68760 0.46561 0.42731
 Cr195 Cr 0.76387 0.44435 0.49671
 Cr196 Cr 0.65143 0.25344 0.50609
 Cr197 Cr 0.57908 0.34597 0.49564
 O198 O 0.66494 0.34817 0.49883
 O199 O 0.38788 0.60713 0.55940
 O200 O 0.24191 0.50715 0.54583
 C201 C 0.20382 0.52505 0.56716
 O202 O 0.20212 0.57962 0.55346
 O203 O 0.27529 0.72609 0.52895
 C204 C 0.33918 0.77935 0.54931
 O205 O 0.39946 0.78740 0.54012
 O206 O 0.47294 0.72611 0.53084
 C207 C 0.45423 0.67159 0.55919
 O208 O 0.40770 0.59518 0.46443
 O209 O 0.26239 0.50332 0.44985
 C210 C 0.20363 0.49497 0.43681
 O211 O 0.18236 0.53247 0.45743
 O212 O 0.25709 0.67742 0.43371
 C213 C 0.31723 0.74050 0.41952
 O214 O 0.37984 0.77700 0.44282
 O215 O 0.44362 0.70778 0.43440
 C216 C 0.44268 0.64827 0.43362
 Cr217 Cr 0.32483 0.55644 0.50462
 Cr218 Cr 0.23269 0.62964 0.49355
 Cr219 Cr 0.42026 0.74590 0.48765
 O220 O 0.32562 0.64410 0.49558
 N221 N 0.48579 0.58258 0.39973
 N222 N 0.48409 0.64049 0.39779
 N223 N 0.36170 0.83739 0.36145
 N224 N 0.31270 0.77030 0.37516
 N225 N 0.10871 0.43796 0.37760
 N226 N 0.15970 0.44068 0.39703
 N227 N 0.65377 0.52095 0.37267
 N228 N 0.69916 0.51108 0.38701
 N229 N 0.46756 0.10118 0.38347
 N230 N 0.46816 0.15200 0.40634
 N231 N 0.86538 0.35903 0.38649
 N232 N 0.80264 0.31081 0.40338
 N233 N 0.63390 0.53308 1.12023
 N234 N 0.60007 0.49510 1.08064
 N235 N 0.86897 0.44196 1.14469
 N236 N 0.81725 0.44321 1.13128
 N237 N 0.49285 0.13401 1.13090
 N238 N 0.49468 0.18604 1.11172
 N239 N 0.45702 0.59362 1.13958
 N240 N 0.47997 0.63760 1.10358
 N241 N 0.11090 0.49625 1.12533
 N242 N 0.13591 0.55082 1.09582
 N243 N 0.43094 0.87931 1.10918
 N244 N 0.40161 0.86729 1.06701
 N245 N 0.61684 0.51699 0.60404
 N246 N 0.67976 0.53796 0.58729
 N247 N 0.51365 0.15884 0.63702
 N248 N 0.48867 0.17236 0.60071
 N249 N 0.88163 0.44331 0.62665
 N250 N 0.84336 0.38203 0.59836
 N251 N 0.49287 0.63371 0.62262
 N252 N 0.51169 0.67858 0.58742
 N253 N 0.40698 0.89185 0.60112
 N254 N 0.34304 0.83267 0.58430
 N255 N 0.11553 0.48343 0.62971
 N256 N 0.16195 0.48004 0.60813
 N257 N 0.47581 0.59264 0.87697
 N258 N 0.44542 0.56163 0.91715
 N259 N 0.09782 0.45395 0.88295
 N260 N 0.13975 0.44653 0.90620
 N261 N 0.42271 0.83344 0.84705
 N262 N 0.38841 0.76460 0.85790
 N263 N 0.57604 0.44605 0.85774
 N264 N 0.62521 0.47964 0.89209
 N265 N 0.87904 0.44359 0.88690
 N266 N 0.85855 0.40645 0.92603
 N267 N 0.56197 0.10693 0.88822
 N268 N 0.53171 0.13723 0.90530
   
