data_POSCAR
  _audit_creation_date              2014-09-24
  _audit_creation_method            'ToBaCCo'
  _symmetry_space_group_name_H-M    'P1'
  _symmetry_Int_Tables_number       1
  _symmetry_cell_setting            triclinic
  loop_
  _symmetry_equiv_pos_as_xyz
 x,y,z
_cell_length_a 29.8679
_cell_length_b 29.8580
_cell_length_c 29.8551
_cell_angle_alpha 102.092700
_cell_angle_beta 78.987600
_cell_angle_gamma 101.072900
loop_
  _atom_site_label
  _atom_site_type_symbol
  _atom_site_fract_x
  _atom_site_fract_y
  _atom_site_fract_z
O1 O 0.55699 0.51228 0.03742
 O2 O 0.43467 0.49849 0.02570
 O3 O 0.48911 0.44446 0.03694
 O4 O 0.50409 0.56653 0.02317
 O5 O 0.52230 0.54521 -0.05262
 O6 O 0.50671 0.42340 -0.03898
 O7 O 0.45249 0.47788 -0.05018
 O8 O 0.57548 0.49087 -0.03833
 Cu9 Cu 0.49431 0.50772 0.03837
 Cu10 Cu 0.51599 0.48240 -0.05268
 C11 C 0.58688 0.50294 0.00190
 C12 C 0.42261 0.48596 -0.01417
 C13 C 0.49610 0.41330 0.00133
 C14 C 0.51560 0.57656 -0.01721
 O15 O -0.04481 0.56454 0.52939
 O16 O -0.03247 0.44193 0.51476
 O17 O -0.03025 0.51212 0.58308
 O18 O -0.04338 0.49587 0.46003
 O19 O 0.03219 0.51425 0.44121
 O20 O 0.04525 0.53066 0.56370
 O21 O 0.04309 0.46037 0.49599
 O22 O 0.03065 0.58350 0.51048
 Cu23 Cu -0.04529 0.50165 0.52364
 Cu24 Cu 0.04536 0.52397 0.50083
 C25 C -0.00942 0.59490 0.52220
 C26 C 0.00742 0.43032 0.50356
 C27 C 0.00994 0.52396 0.59418
 C28 C -0.00780 0.50297 0.42980
 O29 O 0.49636 0.02348 0.56685
 O30 O 0.50981 0.03648 0.44460
 O31 O 0.44285 0.03784 0.51327
 O32 O 0.56491 0.02519 0.49799
 O33 O 0.54638 -0.05072 0.47774
 O34 O 0.42363 -0.03793 0.49245
 O35 O 0.49140 -0.03943 0.42407
 O36 O 0.47758 -0.05229 0.54608
 Cu37 Cu 0.50547 0.03831 0.50789
 Cu38 Cu 0.48292 -0.05274 0.48321
 C39 C 0.48485 -0.01678 0.57726
 C40 C 0.50216 0.00078 0.41368
 C41 C 0.41263 0.00244 0.50445
 C42 C 0.57649 -0.01482 0.48535
 C43 C 0.50034 -0.10176 -0.10312
 C44 C 0.49091 -0.05919 -0.10871
 C45 C 0.48912 -0.02264 -0.07046
 C46 C 0.49972 -0.02685 -0.02751
 C47 C 0.51072 -0.06968 -0.02364
 C48 C 0.50953 -0.10760 -0.06053
 C49 C 0.49937 0.01307 0.01290
 C50 C 0.49480 0.00561 0.05894
 C51 C 0.49640 0.04289 0.09650
 C52 C 0.49883 0.08791 0.08840
 C53 C 0.50156 0.09638 0.04348
 C54 C 0.50369 0.05918 0.00592
 H55 H 0.50058 -0.13048 -0.13209
 H56 H 0.47882 0.00879 -0.07463
 H57 H 0.52083 -0.07397 0.00784
 H58 H 0.48992 -0.02908 0.06617
 H59 H 0.49861 0.11665 0.11734
 H60 H 0.50884 0.06675 -0.02865
 C61 C -0.09146 0.49679 1.09909
 C62 C -0.09922 0.49410 1.05371
 C63 C -0.06156 0.49299 1.01750
 C64 C -0.01577 0.49862 1.02634
 C65 C -0.00903 0.50258 1.07268
 C66 C -0.04672 0.50008 1.10891
 C67 C 0.02446 0.50081 0.98737
 C68 C 0.06759 0.49013 0.99109
 C69 C 0.10504 0.49256 0.95459
 C70 C 0.09863 0.50350 0.91305
 C71 C 0.05610 0.51349 0.90805
 C72 C 0.01995 0.51363 0.94572
 H73 H -0.12051 0.49639 1.12701
 H74 H -0.06846 0.48791 0.98244
 H75 H 0.02542 0.50791 1.08105
 H76 H 0.07234 0.47914 1.02187
 H77 H 0.12698 0.50435 0.88441
 H78 H -0.01154 0.52432 0.94217
 C79 C -0.09724 -0.08815 0.50242
 C80 C -0.05469 -0.09288 0.51258
 C81 C -0.01888 -0.05482 0.51341
 C82 C -0.02379 -0.01297 0.50115
 C83 C -0.06686 -0.00963 0.49017
 C84 C -0.10397 -0.04653 0.49192
 C85 C 0.01599 0.02655 0.49965
 C86 C 0.00881 0.07284 0.50391
 C87 C 0.04627 0.10946 0.50187
 C88 C 0.09111 0.10002 0.49882
 C89 C 0.09920 0.05471 0.49578
 C90 C 0.06186 0.01820 0.49414
 H91 H -0.12532 -0.11710 0.50272
 H92 H 0.01260 -0.05822 0.52424
 H93 H -0.07182 0.02125 0.47952
 H94 H -0.02575 0.08087 0.50903
 H95 H 0.12000 0.12815 0.49881
 H96 H 0.06906 -0.01677 0.48871
 C97 C -0.27854 0.50132 1.02129
 N98 N -0.28944 0.49244 0.97780
 N99 N -0.33209 0.49383 0.97134
 C100 C -0.36523 0.50446 1.00813
 N101 N -0.35415 0.51368 1.05150
 N102 N -0.31163 0.51217 1.05795
 C103 C -0.23211 0.49861 1.02910
 N104 N -0.22313 0.50425 1.07296
 N105 N -0.18120 0.50207 1.08057
 C106 C -0.14645 0.49411 1.04468
 N107 N -0.15555 0.48836 1.00071
 N108 N -0.19760 0.49041 0.99304
 C109 C 0.28641 0.47736 0.97351
 N110 N 0.29989 0.48794 1.01591
 N111 N 0.34398 0.49016 1.01989
 C112 C 0.37627 0.48183 0.98166
 N113 N 0.36264 0.47074 0.93928
 N114 N 0.31858 0.46868 0.93530
 C115 C 0.23843 0.47788 0.96878
 N116 N 0.22673 0.47364 0.92621
 N117 N 0.18409 0.47719 0.92180
 C118 C 0.15131 0.48490 0.95972
 N119 N 0.16289 0.48842 1.00234
 N120 N 0.20566 0.48507 1.00678
 C121 C -0.02689 -0.27045 0.52991
 N122 N 0.01613 -0.28216 0.52007
 N123 N 0.02198 -0.32571 0.51827
 C124 C -0.01499 -0.35911 0.52627
 N125 N -0.05791 -0.34717 0.53667
 N126 N -0.06376 -0.30372 0.53835
 C127 C -0.03390 -0.22336 0.52877
 N128 N -0.07722 -0.21381 0.53255
 N129 N -0.08380 -0.17208 0.52849
 C130 C -0.04736 -0.13812 0.52068
 N131 N -0.00400 -0.14757 0.51754
 N132 N 0.00262 -0.18940 0.52143
 C133 C 0.02213 0.29304 0.50002
 N134 N -0.02048 0.30553 0.50824
 N135 N -0.02521 0.34912 0.50865
 C136 C 0.01247 0.38176 0.50065
 N137 N 0.05503 0.36918 0.49215
 N138 N 0.05975 0.32564 0.49182
 C139 C 0.02781 0.24536 0.50071
 N140 N 0.07072 0.23426 0.49502
 N141 N 0.07631 0.19129 0.49582
 C142 C 0.03930 0.15756 0.50238
 N143 N -0.00373 0.16874 0.50807
 N144 N -0.00937 0.21184 0.50736
 C145 C 0.47739 -0.03376 -0.28830
 N146 N 0.48687 0.00935 -0.29925
 N147 N 0.48871 0.01498 -0.34274
 C148 C 0.48103 -0.02230 -0.37689
 N149 N 0.47105 -0.06535 -0.36576
 N150 N 0.46937 -0.07098 -0.32234
 C151 C 0.47802 -0.04032 -0.24099
 N152 N 0.47460 -0.08357 -0.23175
 N153 N 0.47776 -0.08958 -0.18956
 C154 C 0.48426 -0.05261 -0.15481
 N155 N 0.48713 -0.00936 -0.16403
 N156 N 0.48416 -0.00331 -0.20629
 C157 C 0.50255 0.01688 0.27790
 N158 N 0.51111 0.05440 0.31149
 N159 N 0.51192 0.04920 0.35454
 C160 C 0.50424 0.00626 0.36558
 N161 N 0.49591 -0.03133 0.33195
 N162 N 0.49520 -0.02612 0.28884
 C163 C 0.50051 0.02307 0.23086
 N164 N 0.49370 -0.01399 0.19632
 N165 N 0.49192 -0.00790 0.15373
 C166 C 0.49661 0.03547 0.14413
 N167 N 0.50327 0.07237 0.17889
 N168 N 0.50515 0.06633 0.22136
 C169 C 0.52393 -0.28685 -0.03530
 N170 N 0.53006 -0.32137 -0.07245
 N171 N 0.52827 -0.36472 -0.06658
 C172 C 0.52013 -0.37519 -0.02335
 N173 N 0.51428 -0.34063 0.01385
 N174 N 0.51621 -0.29722 0.00797
 C175 C 0.52321 -0.23965 -0.04196
 N176 N 0.51811 -0.20474 -0.00501
 N177 N 0.51488 -0.16256 -0.01102
 C178 C 0.51648 -0.15364 -0.05417
 N179 N 0.52198 -0.18860 -0.09110
 N180 N 0.52536 -0.23073 -0.08513
 C181 C 0.49494 0.27763 0.01788
 N182 N 0.48669 0.31134 0.05534
 N183 N 0.48605 0.35438 0.05001
 C184 C 0.49357 0.36525 0.00701
 N185 N 0.50154 0.33148 -0.03050
 N186 N 0.50210 0.28840 -0.02517
 C187 C 0.49699 0.23066 0.02409
 N188 N 0.50392 0.19625 -0.01302
 N189 N 0.50585 0.15370 -0.00702
 C190 C 0.50118 0.14400 0.03630
 N191 N 0.49439 0.17864 0.07328
 N192 N 0.49237 0.22110 0.06732
 C193 C -0.28507 -0.02804 0.47583
 N194 N -0.31773 -0.06625 0.46911
 N195 N -0.36175 -0.06207 0.47129
 C196 C -0.37472 -0.01953 0.48045
 N197 N -0.34201 0.01868 0.48683
 N198 N -0.29798 0.01451 0.48453
 C199 C -0.23719 -0.03281 0.47647
 N200 N -0.20419 0.00518 0.48268
 N201 N -0.16149 0.00082 0.48631
 C202 C -0.15021 -0.04167 0.48403
 N203 N -0.18322 -0.07960 0.47727
 N204 N -0.22581 -0.07529 0.47349
 C205 C 0.27829 0.02250 0.50344
 N206 N 0.31155 0.05905 0.51421
 N207 N 0.35402 0.05240 0.51561
 C208 C 0.36482 0.00894 0.50638
 N209 N 0.33150 -0.02773 0.49588
 N210 N 0.28891 -0.02107 0.49459
 C211 C 0.23197 0.03040 0.50069
 N212 N 0.19755 -0.00568 0.49214
 N213 N 0.15556 0.00194 0.48994
 C214 C 0.14642 0.04590 0.49590
 N215 N 0.18108 0.08185 0.50421
 N216 N 0.22299 0.07427 0.50653
 C217 C -0.02292 0.49825 1.29250
 N218 N 0.01973 0.50653 1.30490
 N219 N 0.02458 0.50724 1.34852
 C220 C -0.01303 0.49951 1.38125
 N221 N -0.05565 0.49093 1.36876
 N222 N -0.06049 0.49029 1.32518
 C223 C -0.02863 0.49879 1.24483
 N224 N -0.07152 0.49296 1.23361
 N225 N -0.07704 0.49376 1.19061
 C226 C -0.03996 0.50048 1.15703
 N227 N 0.00302 0.50630 1.16835
 N228 N 0.00859 0.50558 1.21145
 C229 C 0.02854 0.53240 0.73102
 N230 N 0.06534 0.53951 0.69735
 N231 N 0.05923 0.53780 0.65397
 C232 C 0.01611 0.52876 0.64261
 N233 N -0.02077 0.52203 0.67633
 N234 N -0.01466 0.52386 0.71979
 C235 C 0.03566 0.53104 0.77797
 N236 N -0.00084 0.52436 0.81206
 N237 N 0.00574 0.52005 0.85376
 C238 C 0.04901 0.52208 0.86295
 N239 N 0.08546 0.52925 0.82886
 N240 N 0.07893 0.53372 0.78723
   
