data_POSCAR
  _audit_creation_date              2014-09-24
  _audit_creation_method            'ToBaCCo'
  _symmetry_space_group_name_H-M    'P1'
  _symmetry_Int_Tables_number       1
  _symmetry_cell_setting            triclinic
  loop_
  _symmetry_equiv_pos_as_xyz
 x,y,z
_cell_length_a 44.0163
_cell_length_b 42.2874
_cell_length_c 43.4864
_cell_angle_alpha 90.347100
_cell_angle_beta 89.537100
_cell_angle_gamma 90.203700
loop_
  _atom_site_label
  _atom_site_type_symbol
  _atom_site_fract_x
  _atom_site_fract_y
  _atom_site_fract_z
C1 C 0.14601 0.15176 0.18919
 N2 N 0.17508 0.14428 0.18061
 C3 C 0.18787 0.15751 0.15500
 N4 N 0.17181 0.17931 0.13917
 C5 C 0.14327 0.18735 0.14771
 N6 N 0.13027 0.17308 0.17229
 C7 C -0.15138 0.84625 0.19089
 N8 N -0.17971 0.85671 0.18438
 C9 C -0.19514 0.84567 0.15953
 N10 N -0.18214 0.82282 0.14156
 C11 C -0.15365 0.81233 0.14769
 N12 N -0.13832 0.82447 0.17202
 C13 C -0.17269 0.15104 -0.20039
 N14 N -0.19806 0.14092 -0.18506
 C15 C -0.20649 0.15476 -0.15785
 N16 N -0.18968 0.17919 -0.14661
 C17 C -0.16468 0.18949 -0.16179
 N18 N -0.15622 0.17525 -0.18834
 C19 C 0.16345 0.85853 -0.19371
 N20 N 0.14995 0.83296 -0.18075
 C21 C 0.16265 0.81844 -0.15625
 N22 N 0.18924 0.82967 -0.14460
 C23 C 0.20273 0.85575 -0.15703
 N24 N 0.18957 0.86985 -0.18154
 C25 C 0.16574 1.14963 0.80168
 N26 N 0.18832 1.13475 0.81717
 C27 C 0.20378 1.14998 0.83979
 N28 N 0.19593 1.17997 0.84756
 C29 C 0.17272 1.19494 0.83334
 N30 N 0.15801 1.17972 0.81006
 C31 C 0.83577 0.85526 0.80799
 N32 N 0.81337 0.86958 0.82462
 C33 C 0.80510 0.85859 0.85268
 N34 N 0.81969 0.83331 0.86444
 C35 C 0.84173 0.81815 0.84808
 N36 N 0.84944 0.82909 0.81964
 C37 C 0.17410 0.81990 1.21582
 N38 N 0.15701 0.79951 1.19879
 C39 C 0.16735 0.78867 1.17113
 N40 N 0.19491 0.79833 1.16043
 C41 C 0.21247 0.81803 1.17752
 N42 N 0.20193 0.82866 1.20505
 C43 C 0.84818 1.16062 1.19647
 N44 N 0.82153 1.14791 1.18678
 C45 C 0.80646 1.16052 1.16259
 N46 N 0.81811 1.18638 1.14799
 C47 C 0.84517 1.19902 1.15708
 N48 N 0.85984 1.18577 1.18116
 O49 O 0.45475 1.05583 1.07382
 O50 O 0.42230 1.02648 1.04373
 C51 C 0.42776 1.04724 1.06506
 O52 O 0.54014 1.05791 0.96053
 O53 O 0.57423 1.03140 0.99061
 C54 C 0.56759 1.05047 0.96846
 O55 O 0.45482 1.06168 0.96682
 O56 O 0.42229 1.02859 0.99274
 C57 C 0.42774 1.05180 0.97416
 O58 O 0.54034 1.05721 1.07442
 O59 O 0.57402 1.02943 1.04421
 C60 C 0.56777 1.04968 1.06582
 Zr61 Zr 0.49793 1.04040 1.05765
 O62 O 0.49880 1.09037 1.06042
 O63 O 0.49541 1.03688 1.10615
 Zr64 Zr 0.49782 1.04417 0.98003
 O65 O 0.49936 1.09370 0.98662
 O66 O 0.49416 1.05007 0.93195
 O67 O 0.47065 1.04760 1.01929
 O68 O 0.52428 1.04882 1.01875
 O69 O 0.54279 0.94437 1.06827
 O70 O 0.57528 0.97691 1.04146
 C71 C 0.56976 0.95415 1.06051
 O72 O 0.45752 0.94485 0.96150
 O73 O 0.42363 0.97413 0.99010
 C74 C 0.43017 0.95264 0.96984
 O75 O 0.54292 0.95190 0.95723
 O76 O 0.57535 0.97905 0.98899
 C77 C 0.56993 0.96017 0.96614
 O78 O 0.45720 0.94008 1.06617
 O79 O 0.42345 0.97100 1.03993
 C80 C 0.42986 0.94766 1.05786
 Zr81 Zr 0.49968 0.96068 1.05374
 O82 O 0.50361 0.91085 1.05414
 O83 O 0.49641 0.96130 1.10237
 Zr84 Zr 0.49971 0.96416 0.97576
 O85 O 0.50482 0.91449 0.97253
 O86 O 0.49573 0.96687 0.92734
 Zr87 Zr 0.45378 1.00101 1.01683
 Zr88 Zr 0.54384 1.00357 1.01642
 O89 O 0.52600 0.95734 1.01421
 O90 O 0.47303 0.95544 1.01457
 O91 O 0.52605 1.00100 1.06148
 O92 O 0.47247 1.00369 0.97230
 O93 O 0.47223 0.99945 1.06130
 O94 O 0.52564 1.00514 0.97172
 H95 H 0.53792 1.06752 1.01904
 H96 H 0.45868 1.00413 0.95441
 H97 H 0.53995 0.93904 1.01290
 H98 H 0.45813 0.99792 1.07912
 H99 H 0.50440 1.03176 0.92224
 H100 H 0.51334 0.97909 0.91949
 H101 H 0.48886 0.90480 0.98558
 H102 H 0.49077 0.90259 1.03735
 H103 H 0.51581 0.96972 1.11040
 H104 H 0.51354 1.02518 1.11298
 H105 H 0.48441 1.09831 1.04492
 H106 H 0.50000 1.10299 0.96577
 O107 O -0.06387 0.45634 0.02801
 O108 O -0.03151 0.42193 0.00326
 C109 C -0.05496 0.42805 0.02050
 O110 O -0.04412 0.54949 -0.07609
 O111 O -0.02005 0.58171 -0.04124
 C112 C -0.03687 0.57716 -0.06516
 O113 O -0.05203 0.46046 -0.07552
 O114 O -0.02589 0.42378 -0.04746
 C115 C -0.04555 0.43153 -0.06805
 O116 O -0.05894 0.54491 0.03516
 O117 O -0.02617 0.57952 0.01149
 C118 C -0.04900 0.57330 0.02948
 Zr119 Zr -0.04296 0.50058 0.01851
 O120 O -0.09061 0.50466 0.01448
 O121 O -0.04692 0.49514 0.06677
 Zr122 Zr -0.03402 0.50386 -0.05870
 O123 O -0.08178 0.50783 -0.06148
 O124 O -0.02962 0.50189 -0.10717
 O125 O -0.04506 0.47434 -0.02208
 O126 O -0.04316 0.52986 -0.01945
 O127 O 0.04563 0.54130 0.04842
 O128 O 0.02382 0.57804 0.01698
 C129 C 0.03980 0.57025 0.04063
 O130 O 0.05952 0.45679 -0.06570
 O131 O 0.02598 0.42214 -0.04301
 C132 C 0.04910 0.42849 -0.06060
 O133 O 0.06054 0.54600 -0.06322
 O134 O 0.02990 0.58015 -0.03601
 C135 C 0.05210 0.57425 -0.05492
 O136 O 0.04902 0.45306 0.03985
 O137 O 0.02123 0.42041 0.00855
 C138 C 0.04115 0.42529 0.02985
 Zr139 Zr 0.03326 0.49810 0.02679
 O140 O 0.08083 0.50105 0.03296
 O141 O 0.02701 0.49159 0.07466
 Zr142 Zr 0.04239 0.50127 -0.05047
 O143 O 0.09014 0.50284 -0.04508
 O144 O 0.04734 0.50024 -0.09894
 Zr145 Zr -0.00165 0.45400 -0.01830
 Zr146 Zr 0.00105 0.54781 -0.01372
 O147 O 0.04415 0.52692 -0.00985
 O148 O 0.04293 0.47136 -0.01261
 O149 O -0.00477 0.52726 0.02999
 O150 O 0.00391 0.47540 -0.06155
 O151 O -0.00622 0.47155 0.02688
 O152 O 0.00574 0.53092 -0.05921
 H153 H -0.06044 0.54472 -0.02094
 H154 H 0.00514 0.46182 -0.08016
 H155 H 0.06217 0.54072 -0.00697
 H156 H -0.00853 0.45628 0.04394
 H157 H -0.01391 0.51752 -0.11308
 H158 H 0.03774 0.51955 -0.10706
 H159 H 0.09612 0.48385 -0.03345
 H160 H 0.09033 0.48582 0.01850
 H161 H 0.01385 0.50889 0.08228
 H162 H -0.03801 0.51417 0.07657
 H163 H -0.09627 0.49401 -0.00498
 H164 H -0.08657 0.50853 -0.08369
 O165 O 1.05163 -0.05708 0.54433
 O166 O 1.02289 -0.02654 0.57729
 C167 C 1.04328 -0.04780 0.57160
 O168 O 1.05431 0.05208 0.45572
 O169 O 1.02467 0.02297 0.42276
 C170 C 1.04584 0.04354 0.42830
 O171 O 1.05379 0.05350 0.54257
 O172 O 1.02408 0.02548 0.57655
 C173 C 1.04532 0.04580 0.57029
 O174 O 1.04981 -0.06198 0.45803
 O175 O 1.02298 -0.03225 0.42354
 C176 C 1.04188 -0.05453 0.43032
 Zr177 Zr 1.03578 -0.04239 0.50079
 O178 O 1.08383 -0.04210 0.49807
 O179 O 1.03581 -0.09224 0.50483
 Zr180 Zr 1.03704 0.03765 0.49935
 O181 O 1.08502 0.04067 0.49998
 O182 O 1.03457 0.08768 0.50049
 O183 O 1.04203 -0.00176 0.52743
 O184 O 1.04226 -0.00330 0.47338
 O185 O 0.94356 -0.05907 0.45750
 O186 O 0.97324 -0.03102 0.42359
 C187 C 0.95234 -0.05165 0.42986
 O188 O 0.94194 0.05390 0.54188
 O189 O 0.97119 0.02649 0.57612
 C190 C 0.95013 0.04654 0.56954
 O191 O 0.94511 0.05416 0.45543
 O192 O 0.97395 0.02377 0.42243
 C193 C 0.95354 0.04508 0.42809
 O194 O 0.94216 -0.05635 0.54395
 O195 O 0.97085 -0.02643 0.57716
 C196 C 0.95010 -0.04736 0.57134
 Zr197 Zr 0.95886 -0.04140 0.50052
 O198 O 0.91084 -0.04039 0.49788
 O199 O 0.95828 -0.09134 0.50386
 Zr200 Zr 0.96029 0.03870 0.49902
 O201 O 0.91247 0.04187 0.49603
 O202 O 0.96355 0.08865 0.50120
 Zr203 Zr 0.99742 -0.00075 0.54553
 Zr204 Zr 0.99851 -0.00316 0.45427
 O205 O 0.95434 -0.00198 0.47321
 O206 O 0.95325 -0.00062 0.52713
 O207 O 0.99748 -0.04883 0.47342
 O208 O 0.99842 0.04459 0.52590
 O209 O 0.99696 -0.04698 0.52731
 O210 O 0.99909 0.04358 0.47146
 H211 H 1.06007 -0.00451 0.45936
 H212 H 0.99844 0.06329 0.53976
 H213 H 0.93645 -0.00214 0.45953
 H214 H 0.99667 -0.06538 0.54130
 H215 H 1.02683 0.09480 0.48038
 H216 H 0.97312 0.09589 0.48181
 H217 H 0.90392 0.02451 0.50854
 H218 H 0.90313 -0.02883 0.51618
 H219 H 0.96957 -0.09991 0.48592
 H220 H 1.02135 -0.10070 0.48953
 H221 H 1.09134 -0.02899 0.51537
 H222 H 1.09301 0.02054 0.49167
 C223 C 1.08587 0.12725 0.24471
 C224 C 1.10256 0.11212 0.26792
 C225 C 1.13464 0.11140 0.26490
 C226 C 1.14899 0.12300 0.23811
 C227 C 1.13202 0.13808 0.21518
 C228 C 1.10037 0.14038 0.21924
 C229 C 1.15215 0.09979 0.28896
 C230 C 1.13852 0.08992 0.31633
 C231 C 1.10660 0.08948 0.31993
 C232 C 1.08842 0.09871 0.29448
 C233 C 1.05676 0.09342 0.29598
 C234 C 1.04315 0.08066 0.32198
 C235 C 1.06027 0.07406 0.34797
 C236 C 1.09213 0.07920 0.34774
 C237 C 1.10798 0.07436 0.37554
 C238 C 1.09279 0.06389 0.40204
 C239 C 1.06164 0.05719 0.40139
 C240 C 1.04560 0.06223 0.37422
 H241 H 1.06162 0.13053 0.24627
 H242 H 1.17352 0.12170 0.23595
 H243 H 1.08638 0.15203 0.20237
 H244 H 1.17670 0.09914 0.28697
 H245 H 1.15353 0.08153 0.33395
 H246 H 1.04203 0.09766 0.27675
 H247 H 1.01885 0.07638 0.32190
 H248 H 1.13195 0.07919 0.37766
 H249 H 1.10561 0.06019 0.42286
 H250 H 1.02148 0.05715 0.37360
 C251 C 0.91050 -0.13702 0.24656
 C252 C 0.89486 -0.12097 0.27046
 C253 C 0.86303 -0.11724 0.26766
 C254 C 0.84815 -0.12681 0.24073
 C255 C 0.86396 -0.14266 0.21707
 C256 C 0.89519 -0.14812 0.22066
 C257 C 0.84613 -0.10443 0.29195
 C258 C 0.86003 -0.09597 0.31936
 C259 C 0.89178 -0.09836 0.32286
 C260 C 0.90961 -0.10918 0.29732
 C261 C 0.94155 -0.10677 0.29901
 C262 C 0.95558 -0.09448 0.32498
 C263 C 0.93848 -0.08575 0.35077
 C264 C 0.90643 -0.08893 0.35062
 C265 C 0.89041 -0.08272 0.37836
 C266 C 0.90559 -0.07203 0.40454
 C267 C 0.93693 -0.06655 0.40361
 C268 C 0.95325 -0.07354 0.37670
 H269 H 0.93439 -0.14240 0.24779
 H270 H 0.82385 -0.12312 0.23895
 H271 H 0.90814 -0.16059 0.20313
 H272 H 0.82176 -0.10151 0.28999
 H273 H 0.84548 -0.08616 0.33703
 H274 H 0.95625 -0.11273 0.27991
 H275 H 0.98013 -0.09217 0.32501
 H276 H 0.86625 -0.08652 0.38064
 H277 H 0.89262 -0.06696 0.42526
 H278 H 0.97754 -0.06938 0.37592
 C279 C 0.83195 0.09746 0.73100
 C280 C 0.85867 0.10856 0.71603
 C281 C 0.87417 0.13434 0.72978
 C282 C 0.86338 0.14816 0.75700
 C283 C 0.83704 0.13689 0.77183
 C284 C 0.82140 0.11141 0.75838
 C285 C 0.90058 0.14643 0.71647
 C286 C 0.91258 0.13317 0.68995
 C287 C 0.89857 0.10705 0.67547
 C288 C 0.87075 0.09498 0.68823
 C289 C 0.85602 0.06988 0.67270
 C290 C 0.86815 0.05675 0.64593
 C291 C 0.89564 0.06767 0.63376
 C292 C 0.91146 0.09275 0.64852
 C293 C 0.93994 0.10204 0.63599
 C294 C 0.95188 0.08722 0.60996
 C295 C 0.93585 0.06305 0.59538
 C296 C 0.90774 0.05328 0.60714
 H297 H 0.81881 0.07784 0.72240
 H298 H 0.87602 0.16785 0.76668
 H299 H 0.80100 0.10199 0.76905
 H300 H 0.91228 0.16640 0.72680
 H301 H 0.93283 0.14439 0.68123
 H302 H 0.83480 0.05993 0.68053
 H303 H 0.85601 0.03755 0.63481
 H304 H 0.95408 0.12007 0.64607
 H305 H 0.97400 0.09442 0.60131
 H306 H 0.89575 0.03396 0.59602
 C307 C 1.15147 -0.08479 0.74048
 C308 C 1.12741 -0.09916 0.72399
 C309 C 1.11474 -0.12740 0.73608
 C310 C 1.12610 -0.14067 0.76316
 C311 C 1.15037 -0.12649 0.77872
 C312 C 1.16271 -0.09832 0.76723
 C313 C 1.09094 -0.14254 0.72099
 C314 C 1.07941 -0.13052 0.69392
 C315 C 1.09130 -0.10264 0.68066
 C316 C 1.11567 -0.08663 0.69598
 C317 C 1.12758 -0.05876 0.68270
 C318 C 1.11615 -0.04681 0.65555
 C319 C 1.09239 -0.06196 0.64047
 C320 C 1.07958 -0.09016 0.65263
 C321 C 1.05543 -0.10452 0.63618
 C322 C 1.04430 -0.09101 0.60937
 C323 C 1.05694 -0.06311 0.59805
 C324 C 1.08109 -0.04879 0.61334
 H325 H 1.16234 -0.06318 0.73338
 H326 H 1.11627 -0.16246 0.77179
 H327 H 1.18133 -0.08662 0.77886
 H328 H 1.08113 -0.16410 0.73018
 H329 H 1.06109 -0.14388 0.68393
 H330 H 1.14589 -0.04541 0.69269
 H331 H 1.12601 -0.02530 0.64631
 H332 H 1.04432 -0.12595 0.64344
 H333 H 1.02536 -0.10210 0.59767
 H334 H 1.09083 -0.02714 0.60425
 C335 C 0.25358 1.14804 1.10160
 C336 C 0.27216 1.12636 1.11710
 C337 C 0.26367 1.11766 1.14741
 C338 C 0.23572 1.12776 1.16015
 C339 C 0.21664 1.14816 1.14371
 C340 C 0.22664 1.15887 1.11474
 C341 C 0.28317 1.09893 1.16470
 C342 C 0.31101 1.08900 1.15264
 C343 C 0.31969 1.09599 1.12206
 C344 C 0.29911 1.11351 1.10357
 C345 C 0.30540 1.11654 1.07183
 C346 C 0.33135 1.10358 1.05867
 C347 C 0.35263 1.08822 1.07674
 C348 C 0.34768 1.08505 1.10888
 C349 C 0.37115 1.07131 1.12641
 C350 C 0.39771 1.06009 1.11227
 C351 C 0.40132 1.06164 1.08035
 C352 C 0.37882 1.07579 1.06271
 H353 H 0.25963 1.15771 1.07948
 H354 H 0.22906 1.11992 1.18292
 H355 H 0.21327 1.17523 1.10143
 H356 H 0.27704 1.09223 1.18796
 H357 H 0.32475 1.07459 1.16739
 H358 H 0.28985 1.12756 1.05618
 H359 H 0.33492 1.10589 1.03408
 H360 H 0.36985 1.06947 1.15111
 H361 H 0.41512 1.04936 1.12620
 H362 H 0.38192 1.07737 1.03798
 C363 C 0.26660 0.91164 0.85695
 C364 C 0.28214 0.89732 0.88146
 C365 C 0.27173 0.86736 0.89162
 C366 C 0.24530 0.85370 0.87916
 C367 C 0.22949 0.86875 0.85542
 C368 C 0.24099 0.89756 0.84418
 C369 C 0.28784 0.85119 0.91408
 C370 C 0.31439 0.86382 0.92628
 C371 C 0.32525 0.89390 0.91736
 C372 C 0.30796 0.91154 0.89572
 C373 C 0.31647 0.94314 0.88970
 C374 C 0.34165 0.95676 0.90346
 C375 C 0.35980 0.93929 0.92312
 C376 C 0.35234 0.90739 0.92994
 C377 C 0.37259 0.89031 0.94879
 C378 C 0.39846 0.90480 0.96103
 C379 C 0.40462 0.93659 0.95512
 C380 C 0.38539 0.95371 0.93615
 H381 H 0.27409 0.93339 0.84653
 H382 H 0.23736 0.83110 0.88779
 H383 H 0.22999 0.90981 0.82553
 H384 H 0.28006 0.82828 0.92204
 H385 H 0.32541 0.84986 0.94355
 H386 H 0.30342 0.95847 0.87521
 H387 H 0.34714 0.98121 0.89839
 H388 H 0.36936 0.86566 0.95407
 H389 H 0.41335 0.89134 0.97569
 H390 H 0.39057 0.97830 0.93137
 C391 C 0.73892 0.90056 1.15945
 C392 C 0.72202 0.88972 1.13398
 C393 C 0.73198 0.86180 1.11884
 C394 C 0.75925 0.84710 1.12739
 C395 C 0.77659 0.85898 1.15193
 C396 C 0.76548 0.88536 1.16830
 C397 C 0.71476 0.84879 1.09511
 C398 C 0.68759 0.86259 1.08634
 C399 C 0.67710 0.89085 1.10023
 C400 C 0.69540 0.90544 1.12335
 C401 C 0.68712 0.93575 1.13432
 C402 C 0.66136 0.95093 1.12370
 C403 C 0.64225 0.93615 1.10260
 C404 C 0.64940 0.90555 1.09109
 C405 C 0.62829 0.89084 1.07112
 C406 C 0.60195 0.90645 1.06215
 C407 C 0.59598 0.93712 1.07253
 C408 C 0.61604 0.95190 1.09279
 H409 H 0.73191 0.92041 1.17341
 H410 H 0.76684 0.82631 1.11484
 H411 H 0.77766 0.89502 1.18779
 H412 H 0.72222 0.82748 1.08334
 H413 H 0.67583 0.85117 1.06767
 H414 H 0.70083 0.94897 1.15032
 H415 H 0.65619 0.97443 1.13235
 H416 H 0.63121 0.86711 1.06245
 H417 H 0.58646 0.89479 1.04647
 H418 H 0.61105 0.97556 1.10108
 C419 C 0.73948 1.14313 0.90720
 C420 C 0.71834 1.12145 0.89490
 C421 C 0.72170 1.11246 0.86360
 C422 C 0.74703 1.12271 0.84633
 C423 C 0.76823 1.14387 0.85909
 C424 C 0.76362 1.15437 0.88952
 C425 C 0.69956 1.09364 0.84968
 C426 C 0.67368 1.08440 0.86592
 C427 C 0.66981 1.09225 0.89733
 C428 C 0.69351 1.10921 0.91246
 C429 C 0.69213 1.11258 0.94476
 C430 C 0.66776 1.10078 0.96163
 C431 C 0.64326 1.08649 0.94689
 C432 C 0.64347 1.08287 0.91441
 C433 C 0.61702 1.07058 0.90034
 C434 C 0.59200 1.06121 0.91803
 C435 C 0.59285 1.06315 0.95011
 C436 C 0.61848 1.07575 0.96448
 H437 H 0.73734 1.15274 0.93014
 H438 H 0.74958 1.11495 0.82263
 H439 H 0.77907 1.17103 0.90023
 H440 H 0.70190 1.08658 0.82578
 H441 H 0.65758 1.06995 0.85360
 H442 H 0.71031 1.12308 0.95783
 H443 H 0.66787 1.10338 0.98645
 H444 H 0.61474 1.06866 0.87573
 H445 H 0.57219 1.05159 0.90663
 H446 H 0.61889 1.07761 0.98937
 C447 C 0.08130 0.23685 0.11242
 C448 C 0.09780 0.26341 0.10150
 C449 C 0.12953 0.26433 0.10683
 C450 C 0.14411 0.23889 0.12086
 C451 C 0.12748 0.21287 0.13148
 C452 C 0.09598 0.21219 0.12754
 C453 C 0.14657 0.29082 0.09858
 C454 C 0.13266 0.31712 0.08617
 C455 C 0.10116 0.31745 0.08043
 C456 C 0.08384 0.28944 0.08634
 C457 C 0.05344 0.28818 0.07628
 C458 C 0.04014 0.31385 0.06184
 C459 C 0.05607 0.34220 0.05823
 C460 C 0.08656 0.34467 0.06826
 C461 C 0.10098 0.37456 0.06644
 C462 C 0.08595 0.40057 0.05437
 C463 C 0.05634 0.39763 0.04324
 C464 C 0.04160 0.36827 0.04495
 H465 H 0.05694 0.23501 0.11060
 H466 H 0.16845 0.23985 0.12455
 H467 H 0.08269 0.19241 0.13601
 H468 H 0.17088 0.29152 0.10237
 H469 H 0.14744 0.33656 0.08026
 H470 H 0.03967 0.26715 0.07828
 H471 H 0.01691 0.31168 0.05398
 H472 H 0.12350 0.37887 0.07509
 H473 H 0.09777 0.42307 0.05338
 H474 H 0.01861 0.36587 0.03653
 C475 C -0.09859 0.24131 -0.14002
 C476 C -0.11313 0.26935 -0.12990
 C477 C -0.14529 0.27060 -0.13131
 C478 C -0.16203 0.24392 -0.14043
 C479 C -0.14716 0.21643 -0.15009
 C480 C -0.11545 0.21543 -0.15029
 C481 C -0.16053 0.29855 -0.12408
 C482 C -0.14451 0.32567 -0.11612
 C483 C -0.11255 0.32541 -0.11370
 C484 C -0.09682 0.29633 -0.11905
 C485 C -0.06554 0.29486 -0.11238
 C486 C -0.05004 0.32101 -0.10115
 C487 C -0.06475 0.34991 -0.09742
 C488 C -0.09589 0.35294 -0.10481
 C489 C -0.10896 0.38347 -0.10301
 C490 C -0.09215 0.40936 -0.09246
 C491 C -0.06211 0.40548 -0.08301
 C492 C -0.04850 0.37576 -0.08583
 H493 H -0.07424 0.23903 -0.14135
 H494 H -0.18664 0.24491 -0.14116
 H495 H -0.10367 0.19445 -0.15831
 H496 H -0.18511 0.29962 -0.12508
 H497 H -0.15793 0.34627 -0.11069
 H498 H -0.05263 0.27331 -0.11426
 H499 H -0.02620 0.31863 -0.09555
 H500 H -0.13196 0.38813 -0.10996
 H501 H -0.10304 0.43225 -0.09065
 H502 H -0.02521 0.37262 -0.07865
 C503 C 0.09951 0.76498 -0.12873
 C504 C 0.11530 0.73846 -0.11739
 C505 C 0.14749 0.73868 -0.11954
 C506 C 0.16302 0.76532 -0.13103
 C507 C 0.14687 0.79127 -0.14216
 C508 C 0.11511 0.79070 -0.14112
 C509 C 0.16391 0.71210 -0.11078
 C510 C 0.14908 0.68486 -0.10087
 C511 C 0.11710 0.68358 -0.09815
 C512 C 0.10014 0.71144 -0.10488
 C513 C 0.06867 0.71164 -0.09831
 C514 C 0.05401 0.68514 -0.08670
 C515 C 0.06985 0.65714 -0.08202
 C516 C 0.10149 0.65563 -0.08826
 C517 C 0.11600 0.62601 -0.08486
 C518 C 0.09984 0.59946 -0.07474
 C519 C 0.06893 0.60166 -0.06729
 C520 C 0.05408 0.63057 -0.07109
 H521 H 0.07508 0.76612 -0.12942
 H522 H 0.18763 0.76540 -0.13241
 H523 H 0.10217 0.81039 -0.14992
 H524 H 0.18851 0.71211 -0.11221
 H525 H 0.16341 0.66537 -0.09457
 H526 H 0.05482 0.73238 -0.10096
 H527 H 0.02987 0.68649 -0.08172
 H528 H 0.13964 0.62243 -0.09046
 H529 H 0.11172 0.57725 -0.07216
 H530 H 0.02998 0.63228 -0.06593
 C531 C -0.09331 0.76371 0.10794
 C532 C -0.10953 0.73648 0.09832
 C533 C -0.14122 0.73535 0.10454
 C534 C -0.15595 0.76104 0.11888
 C535 C -0.13927 0.78738 0.12883
 C536 C -0.10796 0.78846 0.12322
 C537 C -0.15784 0.70821 0.09730
 C538 C -0.14354 0.68158 0.08524
 C539 C -0.11202 0.68142 0.07892
 C540 C -0.09514 0.70995 0.08386
 C541 C -0.06453 0.71110 0.07397
 C542 C -0.05044 0.68488 0.06099
 C543 C -0.06596 0.65626 0.05806
 C544 C -0.09683 0.65387 0.06738
 C545 C -0.11093 0.62377 0.06536
 C546 C -0.09523 0.59757 0.05374
 C547 C -0.06511 0.60048 0.04352
 C548 C -0.05062 0.62995 0.04586
 H549 H -0.06905 0.76604 0.10530
 H550 H -0.18012 0.75982 0.12382
 H551 H -0.09462 0.80849 0.13106
 H552 H -0.18210 0.70724 0.10175
 H553 H -0.15800 0.66157 0.08041
 H554 H -0.05097 0.73232 0.07518
 H555 H -0.02694 0.68693 0.05359
 H556 H -0.13388 0.61952 0.07315
 H557 H -0.10692 0.57503 0.05230
 H558 H -0.02714 0.63239 0.03844
 C559 C 1.14022 0.08606 0.74775
 C560 C 1.12330 0.10306 0.72589
 C561 C 1.12147 0.13633 0.72953
 C562 C 1.13412 0.15138 0.75545
 C563 C 1.15113 0.13425 0.77693
 C564 C 1.15430 0.10147 0.77237
 C565 C 1.10758 0.15447 0.70694
 C566 C 1.09635 0.14044 0.68030
 C567 C 1.09704 0.10733 0.67599
 C568 C 1.10894 0.08827 0.70008
 C569 C 1.10527 0.05513 0.69803
 C570 C 1.09104 0.04108 0.67296
 C571 C 1.08144 0.05925 0.64820
 C572 C 1.08529 0.09255 0.64884
 C573 C 1.07769 0.10959 0.62203
 C574 C 1.06573 0.09418 0.59623
 C575 C 1.06021 0.06159 0.59659
 C576 C 1.06800 0.04428 0.62272
 H577 H 1.14405 0.06096 0.74571
 H578 H 1.13196 0.17681 0.75793
 H579 H 1.16740 0.08735 0.78815
 H580 H 1.10604 0.17993 0.70952
 H581 H 1.08603 0.15606 0.66393
 H582 H 1.11200 0.03950 0.71624
 H583 H 1.08798 0.01564 0.67274
 H584 H 1.08149 0.13470 0.62007
 H585 H 1.06000 0.10796 0.57618
 H586 H 1.06397 0.01900 0.62302
 C587 C 0.84605 -0.08756 0.74398
 C588 C 0.86796 -0.10271 0.72518
 C589 C 0.87680 -0.13377 0.73315
 C590 C 0.86621 -0.14764 0.76055
 C591 C 0.84539 -0.13174 0.77977
 C592 C 0.83481 -0.10195 0.77051
 C593 C 0.89628 -0.15078 0.71381
 C594 C 0.90686 -0.13781 0.68645
 C595 C 0.89947 -0.10657 0.67806
 C596 C 0.88106 -0.08820 0.69858
 C597 C 0.87740 -0.05565 0.69257
 C598 C 0.89094 -0.04161 0.66710
 C599 C 0.90742 -0.05966 0.64590
 C600 C 0.91092 -0.09265 0.65042
 C601 C 0.92547 -0.11039 0.62688
 C602 C 0.93729 -0.09561 0.60076
 C603 C 0.93549 -0.06283 0.59764
 C604 C 0.92050 -0.04490 0.62014
 H605 H 0.83664 -0.06481 0.73841
 H606 H 0.87408 -0.17104 0.76665
 H607 H 0.81828 -0.08906 0.78421
 H608 H 0.90319 -0.17454 0.71975
 H609 H 0.92205 -0.15234 0.67294
 H610 H 0.86531 -0.04003 0.70802
 H611 H 0.88819 -0.01639 0.66377
 H612 H 0.92740 -0.13578 0.62767
 H613 H 0.94854 -0.10974 0.58322
 H614 H 0.91869 -0.01951 0.61732
 C615 C 1.16856 -0.12960 0.28596
 C616 C 1.13825 -0.13470 0.29583
 C617 C 1.12080 -0.15740 0.27950
 C618 C 1.13303 -0.17319 0.25370
 C619 C 1.16269 -0.16668 0.24329
 C620 C 1.18039 -0.14517 0.26023
 C621 C 1.09102 -0.16391 0.28862
 C622 C 1.07785 -0.14811 0.31340
 C623 C 1.09397 -0.12479 0.33008
 C624 C 1.12467 -0.11792 0.32111
 C625 C 1.14061 -0.09413 0.33734
 C626 C 1.12725 -0.07769 0.36155
 C627 C 1.09754 -0.08419 0.37071
 C628 C 1.08036 -0.10785 0.35527
 C629 C 1.05024 -0.11344 0.36580
 C630 C 1.03796 -0.09613 0.39031
 C631 C 1.05508 -0.07275 0.40491
 C632 C 1.08485 -0.06695 0.39530
 H633 H 1.18388 -0.11357 0.29736
 H634 H 1.11897 -0.18999 0.24131
 H635 H 1.20357 -0.13977 0.25346
 H636 H 1.07759 -0.18133 0.27631
 H637 H 1.05471 -0.15459 0.31860
 H638 H 1.16353 -0.08720 0.33177
 H639 H 1.14039 -0.05955 0.37319
 H640 H 1.03554 -0.13105 0.35583
 H641 H 1.01508 -0.10129 0.39818
 H642 H 1.09805 -0.04879 0.40689
 C643 C 0.90751 0.14865 0.25591
 C644 C 0.89468 0.12466 0.27449
 C645 C 0.86552 0.11304 0.26646
 C646 C 0.85059 0.12429 0.24022
 C647 C 0.86360 0.14822 0.22201
 C648 C 0.89221 0.16021 0.23039
 C649 C 0.85118 0.09050 0.28487
 C650 C 0.86471 0.07980 0.31159
 C651 C 0.89369 0.09066 0.32065
 C652 C 0.90949 0.11236 0.30104
 C653 C 0.93973 0.12062 0.30836
 C654 C 0.95379 0.10884 0.33433
 C655 C 0.93820 0.08894 0.35446
 C656 C 0.90771 0.08001 0.34831
 C657 C 0.89243 0.06112 0.37041
 C658 C 0.90728 0.05065 0.39670
 C659 C 0.93768 0.05846 0.40170
 C660 C 0.95301 0.07780 0.38075
 H661 H 0.92900 0.15971 0.26090
 H662 H 0.82838 0.11482 0.23454
 H663 H 0.90310 0.17879 0.21720
 H664 H 0.82898 0.08133 0.27879
 H665 H 0.85211 0.06229 0.32433
 H666 H 0.95357 0.13558 0.29396
 H667 H 0.97711 0.11565 0.33885
 H668 H 0.86891 0.05436 0.36833
 H669 H 0.89512 0.03584 0.41295
 H670 H 0.97638 0.08442 0.38515
 C671 C 0.17024 0.27020 -0.12153
 C672 C 0.14245 0.28369 -0.13075
 C673 C 0.12530 0.26712 -0.15319
 C674 C 0.13617 0.23875 -0.16631
 C675 C 0.16338 0.22510 -0.15619
 C676 C 0.18026 0.24145 -0.13379
 C677 C 0.09693 0.27845 -0.16184
 C678 C 0.08452 0.30506 -0.14773
 C679 C 0.10047 0.32211 -0.12493
 C680 C 0.13062 0.31235 -0.11766
 C681 C 0.14795 0.33167 -0.09773
 C682 C 0.13582 0.35882 -0.08430
 C683 C 0.10569 0.36734 -0.08934
 C684 C 0.08741 0.34883 -0.10940
 C685 C 0.05651 0.35737 -0.11241
 C686 C 0.04461 0.38333 -0.09656
 C687 C 0.06289 0.40180 -0.07741
 C688 C 0.09354 0.39402 -0.07409
 H689 H 0.18422 0.28059 -0.10390
 H690 H 0.12251 0.22656 -0.18334
 H691 H 0.20138 0.23194 -0.12525
 H692 H 0.08379 0.26612 -0.17918
 H693 H 0.06247 0.31212 -0.15574
 H694 H 0.17139 0.32684 -0.09262
 H695 H 0.15005 0.37296 -0.06929
 H696 H 0.04069 0.34397 -0.12610
 H697 H 0.02093 0.38930 -0.09952
 H698 H 0.10765 0.40815 -0.05893
 C699 C -0.09702 0.25880 0.13384
 C700 C -0.11193 0.27598 0.11073
 C701 C -0.14259 0.26812 0.10442
 C702 C -0.15673 0.24221 0.11914
 C703 C -0.14129 0.22487 0.14169
 C704 C -0.11146 0.23407 0.14906
 C705 C -0.15897 0.28643 0.08372
 C706 C -0.14581 0.31283 0.06980
 C707 C -0.11514 0.32111 0.07496
 C708 C -0.09755 0.30124 0.09441
 C709 C -0.06597 0.30673 0.09640
 C710 C -0.05221 0.33168 0.08114
 C711 C -0.06936 0.35265 0.06393
 C712 C -0.10116 0.34815 0.06091
 C713 C -0.11757 0.37141 0.04458
 C714 C -0.10275 0.39762 0.03161
 C715 C -0.07123 0.40089 0.03384
 C716 C -0.05473 0.37834 0.04992
 H717 H -0.07442 0.26455 0.14146
 H718 H -0.18001 0.23617 0.11354
 H719 H -0.09871 0.22191 0.16657
 H720 H -0.18242 0.28066 0.07865
 H721 H -0.15998 0.32580 0.05424
 H722 H -0.05099 0.29140 0.10884
 H723 H -0.02786 0.33488 0.08326
 H724 H -0.14192 0.37043 0.04222
 H725 H -0.11591 0.41521 0.01961
 H726 H -0.03045 0.38154 0.05248
 C727 C -0.13365 0.75857 -0.09483
 C728 C -0.11479 0.73846 -0.11254
 C729 C -0.11177 0.74468 -0.14440
 C730 C -0.12524 0.77166 -0.15725
 C731 C -0.14376 0.79167 -0.13924
 C732 C -0.14809 0.78433 -0.10802
 C733 C -0.09577 0.72362 -0.16330
 C734 C -0.08358 0.69597 -0.15141
 C735 C -0.08556 0.68915 -0.11970
 C736 C -0.09968 0.71183 -0.09977
 C737 C -0.09762 0.70761 -0.06769
 C738 C -0.08350 0.68132 -0.05546
 C739 C -0.07195 0.65767 -0.07464
 C740 C -0.07333 0.66080 -0.10706
 C741 C -0.06318 0.63500 -0.12536
 C742 C -0.05172 0.60760 -0.11184
 C743 C -0.04932 0.60548 -0.07988
 C744 C -0.05929 0.63066 -0.06145
 H745 H -0.13865 0.75433 -0.07089
 H746 H -0.12216 0.77630 -0.18158
 H747 H -0.16244 0.79879 -0.09331
 H748 H -0.09328 0.72815 -0.18770
 H749 H -0.07170 0.68082 -0.16747
 H750 H -0.10578 0.72495 -0.05135
 H751 H -0.08216 0.67921 -0.03066
 H752 H -0.06473 0.63491 -0.15009
 H753 H -0.04438 0.58817 -0.12641
 H754 H -0.05805 0.62877 -0.03661
 C755 C 0.13342 0.74637 0.10284
 C756 C 0.11664 0.72159 0.11674
 C757 C 0.11682 0.71962 0.14930
 C758 C 0.13216 0.74247 0.16698
 C759 C 0.14899 0.76647 0.15272
 C760 C 0.14958 0.76814 0.12061
 C761 C 0.10235 0.69444 0.16401
 C762 C 0.08898 0.67024 0.14707
 C763 C 0.08857 0.67092 0.11462
 C764 C 0.10076 0.69806 0.09938
 C765 C 0.09643 0.70090 0.06739
 C766 C 0.08213 0.67723 0.05056
 C767 C 0.07258 0.64937 0.06470
 C768 C 0.07607 0.64554 0.09687
 C769 C 0.06787 0.61600 0.10973
 C770 C 0.05638 0.59160 0.09138
 C771 C 0.05213 0.59600 0.05986
 C772 C 0.05998 0.62507 0.04670
 H773 H 0.13559 0.74879 0.07826
 H774 H 0.13216 0.74073 0.19186
 H775 H 0.16269 0.78639 0.10915
 H776 H 0.10208 0.69297 0.18889
 H777 H 0.07837 0.65158 0.16013
 H778 H 0.10317 0.72166 0.05476
 H779 H 0.07920 0.68045 0.02605
 H780 H 0.07104 0.61062 0.13368
 H781 H 0.05057 0.56924 0.10198
 H782 H 0.05720 0.62841 0.02217
 C783 C 0.25352 1.08701 0.87512
 C784 C 0.27717 1.10516 0.88853
 C785 C 0.27669 1.13834 0.88408
 C786 C 0.25260 1.15262 0.86849
 C787 C 0.22911 1.13438 0.85588
 C788 C 0.23006 1.10146 0.85890
 C789 C 0.30028 1.15720 0.89513
 C790 C 0.32486 1.14385 0.90996
 C791 C 0.32641 1.11099 0.91520
 C792 C 0.30146 1.09155 0.90569
 C793 C 0.30129 1.05941 0.91432
 C794 C 0.32504 1.04650 0.93091
 C795 C 0.35044 1.06467 0.93850
 C796 C 0.35183 1.09702 0.93019
 C797 C 0.37899 1.11382 0.93658
 C798 C 0.40342 1.09913 0.95089
 C799 C 0.40149 1.06748 0.95986
 C800 C 0.37474 1.05048 0.95394
 H801 H 0.25287 1.06156 0.87618
 H802 H 0.25241 1.17809 0.86570
 H803 H 0.21233 1.08682 0.84908
 H804 H 0.29994 1.18260 0.89195
 H805 H 0.34195 1.16016 0.91799
 H806 H 0.28255 1.04378 0.90937
 H807 H 0.32372 1.02181 0.93739
 H808 H 0.38251 1.13805 0.92987
 H809 H 0.42395 1.11267 0.95502
 H810 H 0.37322 1.02582 0.96044
 C811 C 0.29254 0.85039 1.17575
 C812 C 0.29827 0.85383 1.14387
 C813 C 0.27506 0.84448 1.12322
 C814 C 0.24774 0.83144 1.13427
 C815 C 0.24227 0.82891 1.16590
 C816 C 0.26488 0.83840 1.18647
 C817 C 0.27889 0.84896 1.09170
 C818 C 0.30452 0.86418 1.08024
 C819 C 0.32786 0.87472 1.09994
 C820 C 0.32565 0.86746 1.13192
 C821 C 0.35087 0.87398 1.15082
 C822 C 0.37669 0.88884 1.13925
 C823 C 0.37800 0.89873 1.10875
 C824 C 0.35344 0.89216 1.08871
 C825 C 0.35493 0.90450 1.05856
 C826 C 0.37980 0.92241 1.04888
 C827 C 0.40423 0.92812 1.06856
 C828 C 0.40348 0.91582 1.09833
 H829 H 0.30842 0.85796 1.19304
 H830 H 0.23014 0.82458 1.11821
 H831 H 0.26110 0.83675 1.21106
 H832 H 0.26146 0.84140 1.07574
 H833 H 0.30573 0.86677 1.05562
 H834 H 0.35161 0.86722 1.17465
 H835 H 0.39551 0.89343 1.15461
 H836 H 0.33675 0.90181 1.04230
 H837 H 0.37993 0.93183 1.02577
 H838 H 0.42220 0.92063 1.11375
 C839 C 0.75243 1.09542 1.13924
 C840 C 0.72640 1.11208 1.12961
 C841 C 0.72684 1.14556 1.13224
 C842 C 0.75326 1.16151 1.14207
 C843 C 0.77888 1.14447 1.15114
 C844 C 0.77799 1.11141 1.15006
 C845 C 0.70082 1.16282 1.12537
 C846 C 0.67416 1.14761 1.11651
 C847 C 0.67284 1.11442 1.11285
 C848 C 0.69986 1.09659 1.11802
 C849 C 0.69977 1.06404 1.11055
 C850 C 0.67409 1.04926 1.09888
 C851 C 0.64713 1.06596 1.09522
 C852 C 0.64572 1.09852 1.10310
 C853 C 0.61713 1.11365 1.10105
 C854 C 0.59157 1.09741 1.09017
 C855 C 0.59375 1.06585 1.08054
 C856 C 0.62158 1.05024 1.08338
 H857 H 0.75343 1.06997 1.13961
 H858 H 0.75360 1.18712 1.14354
 H859 H 0.79742 1.09776 1.15735
 H860 H 0.70091 1.18839 1.12732
 H861 H 0.65514 1.16266 1.11152
 H862 H 0.71973 1.04950 1.11226
 H863 H 0.67531 1.02437 1.09285
 H864 H 0.61372 1.13787 1.10808
 H865 H 0.57022 1.10992 1.08838
 H866 H 0.62338 1.02569 1.07628
 C867 C 0.75379 0.88436 0.91810
 C868 C 0.72844 0.89689 0.90251
 C869 C 0.72918 0.89663 0.86989
 C870 C 0.75485 0.88551 0.85387
 C871 C 0.77953 0.87296 0.86973
 C872 C 0.77872 0.87234 0.90188
 C873 C 0.70409 0.90687 0.85337
 C874 C 0.67775 0.91644 0.86846
 C875 C 0.67582 0.91712 0.90087
 C876 C 0.70213 0.90882 0.91813
 C877 C 0.70145 0.91327 0.95033
 C878 C 0.67573 0.92468 0.96527
 C879 C 0.64937 0.93109 0.94894
 C880 C 0.64870 0.92663 0.91661
 C881 C 0.62069 0.93141 0.90150
 C882 C 0.59496 0.94147 0.91773
 C883 C 0.59639 0.94744 0.94934
 C884 C 0.62360 0.94201 0.96485
 H885 H 0.75463 0.88242 0.94277
 H886 H 0.75507 0.88539 0.82893
 H887 H 0.79745 0.86239 0.91457
 H888 H 0.70460 0.90694 0.82844
 H889 H 0.65947 0.92412 0.85400
 H890 H 0.72090 0.90912 0.96462
 H891 H 0.67639 0.92817 0.98999
 H892 H 0.61776 0.92697 0.87727
 H893 H 0.57401 0.94525 0.90539
 H894 H 0.62460 0.94596 0.98950
   
