data_POSCAR
  _audit_creation_date              2014-09-24
  _audit_creation_method            'ToBaCCo'
  _symmetry_space_group_name_H-M    'P1'
  _symmetry_Int_Tables_number       1
  _symmetry_cell_setting            triclinic
  loop_
  _symmetry_equiv_pos_as_xyz
 x,y,z
_cell_length_a 32.8940
_cell_length_b 35.8303
_cell_length_c 46.6337
_cell_angle_alpha 89.900700
_cell_angle_beta 90.047500
_cell_angle_gamma 117.232400
loop_
  _atom_site_label
  _atom_site_type_symbol
  _atom_site_fract_x
  _atom_site_fract_y
  _atom_site_fract_z
C1 C -0.02134 0.49731 1.24774
 C2 C 0.02512 0.51433 1.24780
 C3 C 0.05080 0.52238 1.27515
 C4 C 0.05276 0.52617 1.22108
 C5 C -0.04880 0.48610 1.22092
 C6 C -0.04744 0.48763 1.27502
 C7 C 0.07880 0.56363 1.28370
 C8 C 0.10156 0.57187 1.30996
 C9 C 0.09802 0.53893 1.32837
 C10 C 0.07006 0.49721 1.31898
 C11 C 0.04671 0.48924 1.29283
 C12 C 0.04790 0.55247 1.20047
 C13 C 0.07509 0.56394 1.17578
 C14 C 0.10784 0.54953 1.17128
 C15 C 0.11312 0.52384 1.19230
 C16 C 0.08587 0.51231 1.21686
 C17 C -0.04408 0.45996 1.20022
 C18 C -0.07212 0.44793 1.17591
 C19 C -0.10565 0.46156 1.17188
 C20 C -0.11043 0.48747 1.19287
 C21 C -0.08231 0.49958 1.21705
 C22 C -0.07922 0.44615 1.28113
 C23 C -0.10328 0.43627 1.30696
 C24 C -0.09644 0.46778 1.32711
 C25 C -0.06484 0.50953 1.32075
 C26 C -0.04077 0.51937 1.29484
 H27 H 0.08230 0.58960 1.27023
 H28 H 0.12240 0.60454 1.31549
 H29 H 0.06445 0.47010 1.33166
 H30 H 0.02508 0.45709 1.28641
 H31 H 0.02336 0.56441 1.20362
 H32 H 0.07045 0.58409 1.16018
 H33 H 0.09068 0.49251 1.23268
 H34 H -0.01925 0.44828 1.20310
 H35 H -0.06773 0.42769 1.16032
 H36 H -0.13671 0.49755 1.19120
 H37 H -0.08702 0.51922 1.23299
 H38 H -0.08492 0.42129 1.26603
 H39 H -0.12750 0.40387 1.31110
 H40 H -0.05795 0.53455 1.33590
 H41 H -0.01669 0.55168 1.29031
 H42 H 0.13895 0.51327 1.19025
 C43 C 0.48879 0.47352 1.24680
 C44 C 0.46605 0.49706 1.24668
 C45 C 0.45066 0.50876 1.27358
 C46 C 0.45480 0.51187 1.21956
 C47 C 0.50441 0.46210 1.21992
 C48 C 0.49957 0.45814 1.27383
 C49 C 0.41996 0.47800 1.29220
 C50 C 0.40565 0.48964 1.31738
 C51 C 0.42159 0.53231 1.32429
 C52 C 0.45249 0.56294 1.30559
 C53 C 0.46655 0.55127 1.28037
 C54 C 0.40889 0.49867 1.21238
 C55 C 0.39743 0.51193 1.18685
 C56 C 0.43178 0.53901 1.16810
 C57 C 0.47785 0.55290 1.17565
 C58 C 0.48928 0.53930 1.20114
 C59 C 0.55131 0.47669 1.21526
 C60 C 0.56685 0.46608 1.19023
 C61 C 0.53566 0.44021 1.16950
 C62 C 0.48857 0.42501 1.17445
 C63 C 0.47305 0.43608 1.19941
 C64 C 0.52757 0.48619 1.29478
 C65 C 0.53755 0.47104 1.32007
 C66 C 0.51951 0.42760 1.32490
 C67 C 0.49181 0.39966 1.30369
 C68 C 0.48214 0.41485 1.27835
 H69 H 0.40705 0.44502 1.28720
 H70 H 0.38256 0.46517 1.33154
 H71 H 0.46527 0.59601 1.31027
 H72 H 0.49018 0.57543 1.26620
 H73 H 0.38189 0.47783 1.22652
 H74 H 0.36166 0.50159 1.18211
 H75 H 0.52494 0.55026 1.20658
 H76 H 0.57592 0.49646 1.23103
 H77 H 0.60327 0.47743 1.18743
 H78 H 0.46382 0.40482 1.15892
 H79 H 0.43666 0.42412 1.20287
 H80 H 0.54183 0.51975 1.29144
 H81 H 0.55926 0.49329 1.33594
 H82 H 0.47842 0.36609 1.30632
 H83 H 0.46083 0.39279 1.26225
 H84 H 0.50499 0.57401 1.16171
 C85 C 0.53003 1.01817 1.25554
 C86 C 0.50367 0.97599 1.25543
 C87 C 0.49344 0.95061 1.28194
 C88 C 0.48507 0.95247 1.22861
 C89 C 0.54530 1.04282 1.22862
 C90 C 0.54520 1.04218 1.28259
 C91 C 0.51279 0.92340 1.28558
 C92 C 0.50293 0.89799 1.30984
 C93 C 0.47281 0.89873 1.33122
 C94 C 0.45308 0.92611 1.32706
 C95 C 0.46357 0.95196 1.30279
 C96 C 0.51335 0.94590 1.20901
 C97 C 0.49461 0.92182 1.18442
 C98 C 0.44724 0.90398 1.17894
 C99 C 0.41943 0.91190 1.19848
 C100 C 0.43814 0.93541 1.22321
 C101 C 0.51412 1.04495 1.20905
 C102 C 0.52969 1.06925 1.18414
 C103 C 0.57701 1.09229 1.17814
 C104 C 0.60788 1.08982 1.19832
 C105 C 0.59213 1.06558 1.22312
 C106 C 0.53024 1.07196 1.28887
 C107 C 0.54475 1.09600 1.31372
 C108 C 0.57540 1.09146 1.33303
 C109 C 0.59023 1.06106 1.32641
 C110 C 0.57529 1.03682 1.30145
 H111 H 0.53551 0.92167 1.26943
 H112 H 0.51791 0.87680 1.31070
 H113 H 0.42971 0.92797 1.34266
 H114 H 0.44800 0.97263 1.30009
 H115 H 0.54972 0.95886 1.21300
 H116 H 0.51724 0.91668 1.16992
 H117 H 0.41601 0.94060 1.23813
 H118 H 0.47774 1.02816 1.21319
 H119 H 0.50427 1.06989 1.16967
 H120 H 0.64444 1.10677 1.19587
 H121 H 0.61672 1.06455 1.23817
 H122 H 0.50710 1.07659 1.27443
 H123 H 0.53204 1.11862 1.31741
 H124 H 0.61309 1.05522 1.34016
 H125 H 0.58754 1.01412 1.29671
 H126 H 0.38324 0.90039 1.19490
 C127 C 1.01659 0.52728 0.75469
 C128 C 0.97035 0.50350 0.75532
 C129 C 0.94288 0.49009 0.72856
 C130 C 0.94473 0.48995 0.78278
 C131 C 1.04463 0.53705 0.78118
 C132 C 1.04155 0.54435 0.72742
 C133 C 0.90577 0.49876 0.72486
 C134 C 0.87943 0.48627 0.69993
 C135 C 0.88968 0.46477 0.67813
 C136 C 0.92620 0.45516 0.68223
 C137 C 0.95254 0.46766 0.70724
 C138 C 0.94874 0.51929 0.80394
 C139 C 0.92372 0.50616 0.82941
 C140 C 0.89359 0.46343 0.83405
 C141 C 0.88979 0.43423 0.81277
 C142 C 0.91488 0.44738 0.78737
 C143 C 1.04354 0.50494 0.79885
 C144 C 1.06987 0.51447 0.82386
 C145 C 1.09833 0.55664 0.83185
 C146 C 1.09903 0.58856 0.81364
 C147 C 1.07291 0.57885 0.78861
 C148 C 1.07564 0.53373 0.71890
 C149 C 1.09904 0.54895 0.69316
 C150 C 1.08975 0.57612 0.67531
 C151 C 1.05549 0.58700 0.68439
 C152 C 1.03176 0.57123 0.71009
 H153 H 0.89731 0.51543 0.74126
 H154 H 0.85064 0.49297 0.69805
 H155 H 0.93467 0.43830 0.66598
 H156 H 0.98037 0.45975 0.71001
 H157 H 0.97112 0.55239 0.80066
 H158 H 0.92845 0.52954 0.84547
 H159 H 0.91111 0.42427 0.77126
 H160 H 1.02214 0.47238 0.79327
 H161 H 1.06664 0.48824 0.83674
 H162 H 1.12016 0.62145 0.81843
 H163 H 1.07431 0.60409 0.77515
 H164 H 1.08374 0.51307 0.73205
 H165 H 1.12495 0.53953 0.68755
 H166 H 1.04569 0.60681 0.67176
 H167 H 1.00561 0.57996 0.71648
 H168 H 0.86688 0.40113 0.81557
 C169 C 0.48151 0.50387 0.75047
 C170 C 0.51080 0.48663 0.75072
 C171 C 0.52923 0.47857 0.72370
 C172 C 0.52586 0.47459 0.77773
 C173 C 0.46566 0.51548 0.77725
 C174 C 0.46475 0.51330 0.72315
 C175 C 0.52147 0.43768 0.71729
 C176 C 0.53769 0.42929 0.69174
 C177 C 0.56258 0.46175 0.67222
 C178 C 0.57097 0.50294 0.67891
 C179 C 0.55456 0.51128 0.70451
 C180 C 0.49414 0.44786 0.79787
 C181 C 0.50913 0.43612 0.82280
 C182 C 0.55610 0.45071 0.82801
 C183 C 0.58765 0.47687 0.80746
 C184 C 0.57265 0.48865 0.78266
 C185 C 0.49688 0.54169 0.79776
 C186 C 0.48135 0.55355 0.82230
 C187 C 0.43432 0.53979 0.82673
 C188 C 0.40326 0.51403 0.80586
 C189 C 0.41881 0.50201 0.78144
 C190 C 0.47251 0.55444 0.71750
 C191 C 0.45755 0.56413 0.69186
 C192 C 0.43397 0.53277 0.67142
 C193 C 0.42580 0.49135 0.67726
 C194 C 0.44089 0.48170 0.70298
 H195 H 0.50221 0.41212 0.73193
 H196 H 0.53087 0.39729 0.68731
 H197 H 0.58931 0.52858 0.66419
 H198 H 0.56131 0.54316 0.70930
 H199 H 0.45779 0.43582 0.79418
 H200 H 0.48393 0.41563 0.83803
 H201 H 0.59768 0.50877 0.76720
 H202 H 0.53329 0.55337 0.79459
 H203 H 0.50624 0.57370 0.83778
 H204 H 0.36697 0.50392 0.80782
 H205 H 0.39421 0.48235 0.76564
 H206 H 0.49068 0.57921 0.73285
 H207 H 0.46423 0.59627 0.68813
 H208 H 0.40853 0.46650 0.66186
 H209 H 0.43416 0.44963 0.70711
 H210 H 0.62397 0.48761 0.81008
 C211 C 0.51100 -0.01940 0.74481
 C212 C 0.52587 0.02269 0.74411
 C213 C 0.53981 0.04691 0.71698
 C214 C 0.53070 0.04669 0.77082
 C215 C 0.50298 -0.04220 0.77228
 C216 C 0.50153 -0.04476 0.71835
 C217 C 0.57390 0.04545 0.69964
 C218 C 0.58864 0.07002 0.67488
 C219 C 0.56983 0.09684 0.66712
 C220 C 0.53518 0.09770 0.68431
 C221 C 0.52061 0.07324 0.70915
 C222 C 0.57416 0.07587 0.78022
 C223 C 0.57901 0.09852 0.80544
 C224 C 0.54039 0.09296 0.82141
 C225 C 0.49679 0.06379 0.81179
 C226 C 0.49202 0.04082 0.78671
 C227 C 0.45844 -0.06570 0.78246
 C228 C 0.45066 -0.08751 0.80835
 C229 C 0.48726 -0.08752 0.82426
 C230 C 0.53215 -0.06336 0.81370
 C231 C 0.53978 -0.04078 0.78811
 C232 C 0.46606 -0.04888 0.70001
 C233 C 0.45543 -0.07480 0.67592
 C234 C 0.48068 -0.09669 0.66919
 C235 C 0.51683 -0.09169 0.68777
 C236 C 0.52666 -0.06644 0.71217
 H237 H 0.58963 0.02578 0.70555
 H238 H 0.61469 0.06789 0.66184
 H239 H 0.52011 0.11808 0.67890
 H240 H 0.49443 0.07493 0.72235
 H241 H 0.60432 0.08080 0.76813
 H242 H 0.61300 0.12081 0.81230
 H243 H 0.45819 0.01855 0.77960
 H244 H 0.42969 -0.06692 0.77039
 H245 H 0.41557 -0.10539 0.81537
 H246 H 0.56188 -0.06046 0.82528
 H247 H 0.57446 -0.02233 0.78050
 H248 H 0.44605 -0.03259 0.70466
 H249 H 0.42746 -0.07729 0.66246
 H250 H 0.53662 -0.10846 0.68462
 H251 H 0.55392 -0.06388 0.72635
 H252 H 0.46642 0.05820 0.82385
 O253 O 0.41740 0.68243 0.97264
 O254 O 0.41315 0.75246 0.96431
 C255 C 0.39018 0.77215 0.95954
 O256 O 0.35684 0.76838 0.97517
 O257 O 0.28202 0.69948 0.96715
 C258 C 0.26258 0.66089 0.96060
 O259 O 0.26938 0.63334 0.97410
 O260 O 0.34667 0.63209 0.96478
 C261 C 0.38881 0.65088 0.95871
 O262 O 0.41722 0.69424 1.02970
 O263 O 0.41783 0.76656 1.02121
 C264 C 0.38977 0.77255 1.03686
 O265 O 0.34703 0.75443 1.03252
 O266 O 0.26982 0.68766 1.02434
 C267 C 0.26407 0.65477 1.03782
 O268 O 0.28459 0.63353 1.03123
 O269 O 0.36051 0.62982 1.02186
 C270 C 0.39552 0.65548 1.03574
 Cr271 Cr 0.41387 0.72281 0.99703
 Cr272 Cr 0.31522 0.72630 0.99976
 Cr273 Cr 0.31653 0.63451 0.99800
 O274 O 0.34846 0.69444 0.99824
 O275 O 0.57782 0.31034 0.97461
 O276 O 0.58946 0.24400 0.96679
 C277 C 0.61558 0.22747 0.96208
 O278 O 0.64964 0.23403 0.97789
 O279 O 0.72029 0.30676 0.97060
 C280 C 0.73656 0.34547 0.96458
 O281 O 0.72619 0.37060 0.97831
 O282 O 0.64604 0.36578 0.96900
 C283 C 0.60471 0.34393 0.96176
 O284 O 0.57690 0.29854 1.03185
 O285 O 0.58474 0.23002 1.02420
 C286 C 0.61454 0.22624 1.03968
 O287 O 0.65713 0.24664 1.03509
 O288 O 0.73069 0.31726 1.02781
 C289 C 0.73350 0.34882 1.04164
 O290 O 0.70994 0.36745 1.03548
 O291 O 0.63074 0.36481 1.02607
 C292 C 0.59564 0.33704 1.03873
 Cr293 Cr 0.58480 0.27199 0.99946
 Cr294 Cr 0.68791 0.27724 1.00281
 Cr295 Cr 0.67712 0.36477 1.00219
 O296 O 0.64994 0.30477 1.00153
 O297 O 0.65158 0.39056 0.52344
 O298 O 0.72652 0.38555 0.53301
 C299 C 0.74670 0.36396 0.53942
 O300 O 0.74189 0.33195 0.52518
 O301 O 0.66436 0.26445 0.53054
 C302 C 0.62160 0.24680 0.53467
 O303 O 0.59408 0.25434 0.51944
 O304 O 0.59421 0.32585 0.52845
 C305 C 0.61554 0.36393 0.53597
 O306 O 0.66819 0.39201 0.46642
 O307 O 0.74455 0.38970 0.47609
 C308 C 0.75199 0.36302 0.46202
 O309 O 0.73250 0.32409 0.46756
 O310 O 0.65717 0.25429 0.47296
 C311 C 0.62382 0.25114 0.45752
 O312 O 0.60153 0.27129 0.46259
 O313 O 0.59716 0.34078 0.47148
 C314 C 0.62669 0.37347 0.45894
 Cr315 Cr 0.69648 0.38710 0.49969
 Cr316 Cr 0.69771 0.29498 0.49902
 Cr317 Cr 0.59929 0.29915 0.49559
 O318 O 0.66452 0.32714 0.49811
 O319 O 0.34778 0.61102 0.52403
 O320 O 0.27025 0.61084 0.53352
 C321 C 0.24821 0.63024 0.54115
 O322 O 0.25084 0.66242 0.52799
 O323 O 0.32518 0.73236 0.53587
 C324 C 0.36764 0.75171 0.54099
 O325 O 0.39731 0.74648 0.52640
 O326 O 0.40173 0.67637 0.53224
 C327 C 0.38212 0.63753 0.53797
 O328 O 0.33380 0.61442 0.46699
 O329 O 0.25434 0.61085 0.47641
 C330 C 0.24610 0.63771 0.46314
 O331 O 0.26286 0.67582 0.47054
 O332 O 0.33450 0.74711 0.47886
 C333 C 0.36988 0.75413 0.46418
 O334 O 0.39435 0.73592 0.46887
 O335 O 0.40291 0.66770 0.47465
 C336 C 0.37556 0.63558 0.46056
 Cr337 Cr 0.30262 0.61416 0.50028
 Cr338 Cr 0.29468 0.70318 0.50325
 Cr339 Cr 0.39652 0.70538 0.50057
 O340 O 0.33131 0.67425 0.50140
 C341 C 0.42174 0.59526 0.38785
 C342 C 0.37758 0.57140 0.39878
 N343 N 0.34874 0.53513 0.38561
 C344 C 0.36203 0.52149 0.36192
 C345 C 0.40628 0.54533 0.35069
 N346 N 0.43498 0.58185 0.36405
 N347 N 0.45053 0.63159 0.40109
 C348 C 0.43705 0.64525 0.42475
 C349 C 0.39256 0.62160 0.43560
 N350 N 0.36400 0.58514 0.42222
 H351 H 0.33781 0.49286 0.35165
 H352 H 0.46064 0.67443 0.43474
 C353 C 0.41104 0.84045 0.39511
 C354 C 0.43522 0.81821 0.40226
 N355 N 0.47219 0.82378 0.38661
 C356 C 0.48588 0.85009 0.36369
 C357 C 0.46125 0.87219 0.35568
 N358 N 0.42462 0.86686 0.37220
 N359 N 0.37387 0.83467 0.41088
 C360 C 0.35975 0.80742 0.43344
 C361 C 0.38394 0.78487 0.44053
 N362 N 0.42125 0.79112 0.42467
 H363 H 0.51636 0.85395 0.35267
 H364 H 0.32991 0.80327 0.44554
 C365 C 0.16665 0.60121 0.38745
 C366 C 0.16967 0.57103 0.40514
 N367 N 0.14807 0.53010 0.39723
 C368 C 0.12362 0.51787 0.37241
 C369 C 0.12091 0.54829 0.35397
 N370 N 0.14295 0.58924 0.36257
 N371 N 0.18777 0.64217 0.39521
 C372 C 0.21230 0.65445 0.41986
 C373 C 0.21643 0.62443 0.43753
 N374 N 0.19478 0.58321 0.42967
 H375 H 0.10806 0.48491 0.36734
 H376 H 0.22920 0.68749 0.42524
 C377 C 0.58640 0.42095 0.38719
 C378 C 0.55617 0.38253 0.39969
 N379 N 0.51411 0.35985 0.38803
 C380 C 0.50105 0.37363 0.36423
 C381 C 0.53150 0.41193 0.35138
 N382 N 0.57340 0.43474 0.36349
 N383 N 0.62862 0.44351 0.39861
 C384 C 0.64220 0.42926 0.42190
 C385 C 0.61216 0.39058 0.43444
 N386 N 0.56964 0.36824 0.42300
 H387 H 0.46713 0.35498 0.35565
 H388 H 0.67622 0.44789 0.43040
 C389 C 0.58354 0.16968 0.38607
 C390 C 0.61674 0.17021 0.40506
 N391 N 0.63585 0.14432 0.40026
 C392 C 0.62336 0.11790 0.37730
 C393 C 0.58996 0.11732 0.35781
 N394 N 0.57129 0.14366 0.36319
 N395 N 0.56405 0.19526 0.39064
 C396 C 0.57632 0.22155 0.41350
 C397 C 0.60986 0.22251 0.43269
 N398 N 0.62935 0.19666 0.42793
 H399 H 0.64021 0.09849 0.37455
 H400 H 0.56015 0.24164 0.41649
 C401 C 0.83811 0.40367 0.38937
 C402 C 0.82665 0.43152 0.40424
 N403 N 0.84127 0.47116 0.39415
 C404 C 0.86672 0.48419 0.36977
 C405 C 0.87793 0.45617 0.35458
 N406 N 0.86320 0.41654 0.36501
 N407 N 0.82305 0.36385 0.39910
 C408 C 0.79647 0.35035 0.42291
 C409 C 0.78411 0.37788 0.43768
 N410 N 0.79986 0.41804 0.42798
 H411 H 0.87679 0.51566 0.36202
 H412 H 0.78456 0.31823 0.42992
 C413 C 0.54287 0.37566 1.10913
 C414 C 0.58391 0.40351 1.09584
 N415 N 0.60784 0.44300 1.10626
 C416 C 0.59289 0.45584 1.12961
 C417 C 0.55202 0.42790 1.14329
 N418 N 0.52782 0.38847 1.13242
 N419 N 0.51926 0.33599 1.09889
 C420 C 0.53499 0.32277 1.07607
 C421 C 0.57630 0.35053 1.06277
 N422 N 0.59959 0.39040 1.07303
 H423 H 0.61263 0.48763 1.13726
 H424 H 0.51555 0.29087 1.06853
 C425 C 0.82620 0.39486 1.11111
 C426 C 0.80386 0.41738 1.10074
 N427 N 0.81221 0.45444 1.11310
 C428 C 0.84150 0.46984 1.13563
 C429 C 0.86338 0.44694 1.14660
 N430 N 0.85522 0.41003 1.13371
 N431 N 0.81826 0.35800 1.09857
 C432 C 0.78885 0.34254 1.07612
 C433 C 0.76601 0.36484 1.06576
 N434 N 0.77425 0.40188 1.07844
 H435 H 0.84782 0.49984 1.14453
 H436 H 0.78314 0.31300 1.06662
 C437 C 0.57242 0.14536 1.11172
 C438 C 0.61864 0.16768 1.10434
 N439 N 0.65053 0.16417 1.12091
 C440 C 0.63856 0.13969 1.14480
 C441 C 0.59192 0.11740 1.15293
 N442 N 0.56030 0.12100 1.13563
 N443 N 0.54042 0.14890 1.09512
 C444 C 0.55272 0.17407 1.07150
 C445 C 0.59926 0.19694 1.06420
 N446 N 0.63103 0.19293 1.08090
 H447 H 0.66577 0.13811 1.15670
 H448 H 0.52648 0.17653 1.05882
 C449 C 0.43619 0.60887 1.10781
 C450 C 0.39633 0.58327 1.09253
 N451 N 0.36944 0.54347 1.10161
 C452 C 0.38026 0.52818 1.12553
 C453 C 0.41983 0.55391 1.14126
 N454 N 0.44706 0.59364 1.13171
 N455 N 0.46280 0.64885 1.09887
 C456 C 0.45115 0.66454 1.07544
 C457 C 0.41094 0.63910 1.06021
 N458 N 0.38467 0.59889 1.06918
 H459 H 0.35828 0.49618 1.13204
 H460 H 0.47284 0.69666 1.06899
 C461 C 0.17396 0.61327 1.10877
 C462 C 0.19396 0.58901 1.09800
 N463 N 0.18466 0.55186 1.11065
 C464 C 0.15670 0.53802 1.13387
 C465 C 0.13725 0.56264 1.14528
 N466 N 0.14624 0.59963 1.13208
 N467 N 0.18302 0.65030 1.09594
 C468 C 0.21139 0.66429 1.07287
 C469 C 0.23196 0.64026 1.06219
 N470 N 0.22250 0.60305 1.07512
 H471 H 0.14951 0.50788 1.14301
 H472 H 0.21815 0.69405 1.06320
 C473 C 0.44096 0.85373 1.10804
 C474 C 0.39412 0.82663 1.10534
 N475 N 0.36512 0.82511 1.12646
 C476 C 0.38073 0.84955 1.15021
 C477 C 0.42784 0.87727 1.15305
 N478 N 0.45659 0.87830 1.13165
 N479 N 0.47021 0.85447 1.08729
 C480 C 0.45469 0.82909 1.06396
 C481 C 0.40767 0.80178 1.06117
 N482 N 0.37851 0.80142 1.08201
 H483 H 0.35640 0.84624 1.16676
 H484 H 0.47885 0.83018 1.04783
 C485 C 0.56747 0.40093 0.60915
 C486 C 0.60762 0.42939 0.59532
 N487 N 0.63211 0.46844 0.60640
 C488 C 0.61834 0.48027 0.63077
 C489 C 0.57828 0.45156 0.64490
 N490 N 0.55396 0.41257 0.63350
 N491 N 0.54304 0.36177 0.59839
 C492 C 0.55716 0.34950 0.57448
 C493 C 0.59785 0.37761 0.56070
 N494 N 0.62202 0.41711 0.57147
 H495 H 0.63919 0.51129 0.63934
 H496 H 0.53708 0.31787 0.56661
 C497 C 0.57178 0.16111 0.60385
 C498 C 0.61774 0.17846 0.59543
 N499 N 0.64707 0.16850 0.61010
 C500 C 0.63257 0.14190 0.63289
 C501 C 0.58651 0.12450 0.64161
 N502 N 0.55730 0.13480 0.62676
 N503 N 0.54252 0.17123 0.58917
 C504 C 0.55723 0.19816 0.56650
 C505 C 0.60347 0.21605 0.55823
 N506 N 0.63251 0.20556 0.57300
 H507 H 0.65713 0.13540 0.64446
 H508 H 0.53320 0.20589 0.55534
 C509 C 0.83122 0.40344 0.61300
 C510 C 0.80952 0.42639 0.60244
 N511 N 0.81497 0.46169 0.61616
 C512 C 0.84081 0.47498 0.64028
 C513 C 0.86210 0.45173 0.65143
 N514 N 0.85699 0.41658 0.63719
 N515 N 0.82571 0.36814 0.59905
 C516 C 0.79924 0.35467 0.57507
 C517 C 0.77709 0.37750 0.56462
 N518 N 0.78305 0.41292 0.57868
 H519 H 0.84500 0.50369 0.65033
 H520 H 0.79522 0.32632 0.56450
 C521 C 0.42955 0.59711 0.61007
 C522 C 0.39060 0.56887 0.59511
 N523 N 0.36687 0.52886 0.60482
 C524 C 0.38022 0.51585 0.62890
 C525 C 0.41905 0.54429 0.64419
 N526 N 0.44264 0.58427 0.63413
 N527 N 0.45314 0.63723 0.60070
 C528 C 0.43929 0.65065 0.57715
 C529 C 0.39976 0.62274 0.56225
 N530 N 0.37647 0.58227 0.57161
 H531 H 0.35987 0.48404 0.63636
 H532 H 0.45866 0.68301 0.57042
 C533 C 0.41205 0.83766 0.61000
 C534 C 0.44050 0.82183 0.59873
 N535 N 0.48226 0.83362 0.61056
 C536 C 0.49680 0.86018 0.63338
 C537 C 0.46826 0.87628 0.64506
 N538 N 0.42666 0.86450 0.63251
 N539 N 0.36990 0.82539 0.59861
 C540 C 0.35480 0.79780 0.57644
 C541 C 0.38331 0.78195 0.56489
 N542 N 0.42573 0.79461 0.57634
 H543 H 0.53076 0.86914 0.64144
 H544 H 0.32097 0.78857 0.56782
 C545 C 0.16707 0.58686 0.61595
 C546 C 0.16542 0.61863 0.59925
 N547 N 0.13824 0.63586 0.60769
 C548 C 0.11265 0.62283 0.63206
 C549 C 0.11449 0.59098 0.64929
 N550 N 0.14206 0.57419 0.64031
 N551 N 0.19388 0.56924 0.60773
 C552 C 0.21948 0.58214 0.58352
 C553 C 0.21864 0.61453 0.56674
 N554 N 0.19140 0.63203 0.57509
 H555 H 0.09243 0.63831 0.63785
 H556 H 0.24078 0.56758 0.57773
 C557 C 0.43439 0.60547 0.88850
 C558 C 0.38974 0.58299 0.89905
 N559 N 0.36067 0.54627 0.88649
 C560 C 0.37400 0.53118 0.86356
 C561 C 0.41853 0.55407 0.85238
 N562 N 0.44765 0.59061 0.86549
 N563 N 0.46364 0.64200 0.90126
 C564 C 0.45017 0.65720 0.92408
 C565 C 0.40520 0.63499 0.93454
 N566 N 0.37612 0.59827 0.92168
 H567 H 0.35007 0.50141 0.85452
 H568 H 0.47419 0.68652 0.93372
 C569 C 0.17507 0.62215 0.88841
 C570 C 0.18067 0.59273 0.90552
 N571 N 0.15869 0.55154 0.89833
 C572 C 0.13130 0.53829 0.87477
 C573 C 0.12560 0.56780 0.85709
 N574 N 0.14810 0.60909 0.86482
 N575 N 0.19698 0.66342 0.89546
 C576 C 0.22459 0.67667 0.91886
 C577 C 0.23088 0.64730 0.93598
 N578 N 0.20853 0.60586 0.92881
 H579 H 0.11550 0.50521 0.87003
 H580 H 0.24190 0.70985 0.92377
 C581 C 0.42473 0.85043 0.88646
 C582 C 0.45661 0.83957 0.89891
 N583 N 0.49863 0.85369 0.88696
 C584 C 0.51035 0.87817 0.86303
 C585 C 0.47810 0.88867 0.84988
 N586 N 0.43599 0.87410 0.86230
 N587 N 0.38284 0.83685 0.89856
 C588 C 0.37125 0.81255 0.92254
 C589 C 0.40276 0.80069 0.93473
 N590 N 0.44483 0.81461 0.92253
 H591 H 0.54383 0.88744 0.85405
 H592 H 0.33741 0.80180 0.93155
 C593 C 0.55732 0.38603 0.89037
 C594 C 0.60094 0.41055 0.90188
 N595 N 0.62867 0.44814 0.88979
 C596 C 0.61507 0.46220 0.86640
 C597 C 0.57168 0.43734 0.85424
 N598 N 0.54375 0.39989 0.86689
 N599 N 0.52948 0.34852 0.90263
 C600 C 0.54342 0.33430 0.92585
 C601 C 0.58741 0.35861 0.93726
 N602 N 0.61499 0.39630 0.92490
 H603 H 0.63788 0.49266 0.85770
 H604 H 0.52058 0.30417 0.93506
 C605 C 0.82490 0.39281 0.89316
 C606 C 0.81146 0.41869 0.90879
 N607 N 0.82552 0.45893 0.90019
 C608 C 0.85242 0.47452 0.87661
 C609 C 0.86593 0.44863 0.86069
 N610 N 0.85156 0.40826 0.86957
 N611 N 0.81040 0.35240 0.90148
 C612 C 0.78272 0.33654 0.92468
 C613 C 0.76868 0.36222 0.94030
 N614 N 0.78368 0.40287 0.93191
 H615 H 0.86192 0.50640 0.87005
 H616 H 0.77144 0.30408 0.93063
 C617 C 0.59167 0.15085 0.88874
 C618 C 0.56007 0.16499 0.89699
 N619 N 0.52215 0.15484 0.88079
 C620 C 0.51442 0.13122 0.85665
 C621 C 0.54631 0.11735 0.84810
 N622 N 0.58424 0.12771 0.86452
 N623 N 0.62954 0.16085 0.90488
 C624 C 0.63751 0.18464 0.92888
 C625 C 0.60635 0.19953 0.93707
 N626 N 0.56820 0.18918 0.92082
 H627 H 0.48427 0.12430 0.84396
 H628 H 0.66829 0.19237 0.94114
   
