data_POSCAR
  _audit_creation_date              2014-09-24
  _audit_creation_method            'ToBaCCo'
  _symmetry_space_group_name_H-M    'P1'
  _symmetry_Int_Tables_number       1
  _symmetry_cell_setting            triclinic
  loop_
  _symmetry_equiv_pos_as_xyz
 x,y,z
_cell_length_a 30.3266
_cell_length_b 30.0612
_cell_length_c 30.0153
_cell_angle_alpha 90.347800
_cell_angle_beta 89.720000
_cell_angle_gamma 90.396100
loop_
  _atom_site_label
  _atom_site_type_symbol
  _atom_site_fract_x
  _atom_site_fract_y
  _atom_site_fract_z
C1 C 0.18172 0.54101 1.04959
 H2 H 0.17991 0.56554 1.02344
 C3 C 0.15185 0.54235 1.08500
 H4 H 0.12648 0.56744 1.08411
 C5 C 0.21452 0.47621 1.07846
 H6 H 0.23800 0.44956 1.07502
 C7 C 0.18558 0.47657 1.11495
 H8 H 0.18710 0.44950 1.13850
 N9 N 0.21227 0.50837 1.04688
 C10 C 0.30737 0.57247 0.95938
 H11 H 0.30367 0.55229 0.92965
 C12 C 0.33660 0.60841 0.95943
 H13 H 0.35462 0.61593 0.92915
 C14 C 0.28822 0.58673 1.03463
 H15 H 0.26937 0.57792 1.06397
 C16 C 0.31849 0.62200 1.03666
 H17 H 0.32150 0.64032 1.06756
 Zn18 Zn 0.24935 0.50958 0.99577
 N19 N 0.28422 0.56201 0.99674
 C20 C 0.20721 0.54586 0.91964
 N21 N 0.21280 0.50866 0.94456
 C22 C 0.19079 0.47039 0.93472
 C23 C 0.16245 0.46830 0.89836
 C24 C 0.17795 0.54566 0.88381
 C25 C 0.31627 0.45829 1.03114
 C26 C 0.34593 0.42331 1.03484
 C27 C 0.31886 0.39349 0.96531
 C28 C 0.29001 0.42945 0.96267
 N29 N 0.28839 0.46036 0.99598
 H30 H 0.22418 0.57635 0.92837
 H31 H 0.19501 0.44142 0.95543
 H32 H 0.14607 0.43704 0.89095
 H33 H 0.17423 0.57587 0.86494
 H34 H 0.31559 0.48420 1.05631
 H35 H 0.36870 0.42401 1.06239
 H36 H 0.32016 0.36977 0.93807
 H37 H 0.26971 0.43285 0.93351
 C38 C 0.34498 0.63189 0.99929
 C39 C 0.15384 0.51051 1.11948
 C40 C 0.34669 0.38928 1.00234
 C41 C 0.15351 0.50696 0.87378
 C42 C 0.81151 0.53117 -0.05626
 H43 H 0.80926 0.55853 -0.03279
 C44 C 0.83989 0.53424 -0.09268
 H45 H 0.85803 0.56495 -0.09731
 C46 C 0.78830 0.45931 -0.07918
 H47 H 0.76801 0.43013 -0.07372
 C48 C 0.81771 0.46027 -0.11525
 H49 H 0.81915 0.43184 -0.13745
 N50 N 0.78646 0.49415 -0.05008
 C51 C 0.68746 0.54899 0.04010
 H52 H 0.68905 0.52547 0.06717
 C53 C 0.65834 0.58466 0.04265
 H54 H 0.63884 0.58859 0.07263
 C55 C 0.71225 0.57243 -0.03088
 H56 H 0.73248 0.56721 -0.06007
 C57 C 0.68335 0.60835 -0.02986
 H58 H 0.68310 0.63085 -0.05784
 Zn59 Zn 0.75056 0.49260 0.00159
 N60 N 0.71369 0.54343 0.00371
 C61 C 0.78793 0.52297 0.08406
 N62 N 0.78830 0.49094 0.05182
 C63 C 0.81787 0.45727 0.05282
 C64 C 0.84834 0.45454 0.08733
 C65 C 0.81762 0.52128 0.11951
 C66 C 0.68354 0.44073 -0.03346
 C67 C 0.65298 0.40608 -0.03635
 C68 C 0.68549 0.37308 0.02873
 C69 C 0.71537 0.40874 0.03059
 N70 N 0.71376 0.44164 -0.00029
 H71 H 0.76562 0.55065 0.08183
 H72 H 0.81844 0.43303 0.02603
 H73 H 0.87281 0.42862 0.08558
 H74 H 0.81778 0.54803 0.14381
 H75 H 0.68241 0.46784 -0.05697
 H76 H 0.62775 0.40789 -0.06160
 H77 H 0.68601 0.34849 0.05487
 H78 H 0.73884 0.41071 0.05749
 C79 C 0.65425 0.61383 0.00634
 C80 C 0.84564 0.49736 -0.12131
 C81 C 0.65382 0.37110 -0.00536
 C82 C 0.84812 0.48637 0.12199
 C83 C -0.01615 0.31875 0.44917
 H84 H -0.03752 0.32206 0.47796
 C85 C -0.01890 0.34919 0.41453
 H86 H -0.04194 0.37637 0.41804
 C87 C 0.04195 0.28118 0.41239
 H88 H 0.06647 0.25531 0.41227
 C89 C 0.04007 0.31075 0.37655
 H90 H 0.06416 0.30727 0.35012
 N91 N 0.01364 0.28535 0.44747
 C92 C -0.03882 0.17756 0.52788
 H93 H -0.01103 0.17236 0.54967
 C94 C -0.07558 0.14962 0.53049
 H95 H -0.07487 0.12216 0.55360
 C96 C -0.07128 0.21774 0.46906
 H97 H -0.06906 0.24378 0.44451
 C98 C -0.10904 0.19077 0.47086
 H99 H -0.13491 0.19596 0.44682
 Zn100 Zn 0.01430 0.24678 0.49730
 N101 N -0.03732 0.21092 0.49764
 C102 C -0.02018 0.28177 0.57816
 N103 N 0.01492 0.28226 0.54974
 C104 C 0.04971 0.31005 0.55668
 C105 C 0.04956 0.33962 0.59264
 C106 C -0.02224 0.31176 0.61387
 C107 C 0.06529 0.17849 0.46129
 C108 C 0.09939 0.14770 0.45859
 C109 C 0.13099 0.17992 0.52506
 C110 C 0.09596 0.20990 0.52673
 N111 N 0.06413 0.20888 0.49491
 H112 H -0.04754 0.25934 0.57228
 H113 H 0.07730 0.30980 0.53370
 H114 H 0.07807 0.36089 0.59752
 H115 H -0.05091 0.31108 0.63541
 H116 H 0.03884 0.17737 0.43724
 H117 H 0.09774 0.12242 0.43287
 H118 H 0.15476 0.18016 0.55183
 H119 H 0.09366 0.23288 0.55436
 C120 C -0.11204 0.15655 0.50252
 C121 C 0.00848 0.34508 0.37644
 C122 C 0.13347 0.14841 0.49036
 C123 C 0.01191 0.34303 0.62018
 C124 C 0.94854 0.68777 0.55507
 H125 H 0.92233 0.68748 0.53074
 C126 C 0.94745 0.65784 0.59036
 H127 H 0.91918 0.63596 0.59338
 C128 C 1.01618 0.71793 0.58064
 H129 H 1.04322 0.74113 0.57653
 C130 C 1.01685 0.68789 0.61597
 H131 H 1.04415 0.68912 0.63902
 N132 N 0.98291 0.71655 0.55039
 C133 C 0.93574 0.82009 0.46160
 H134 H 0.96313 0.82149 0.43840
 C135 C 0.90149 0.85059 0.45827
 H136 H 0.90385 0.87596 0.43296
 C137 C 0.90268 0.78819 0.52554
 H138 H 0.90401 0.76502 0.55280
 C139 C 0.86751 0.81793 0.52325
 H140 H 0.84274 0.81741 0.54930
 Zn141 Zn 0.98559 0.75179 0.49833
 N142 N 0.93581 0.78962 0.49480
 C143 C 0.96116 0.71722 0.41248
 N144 N 0.98795 0.71286 0.44843
 C145 C 1.01730 0.67909 0.45087
 C146 C 1.02092 0.64829 0.41621
 C147 C 0.96402 0.68729 0.37667
 C148 C 1.03841 0.82096 0.53054
 C149 C 1.07531 0.84868 0.53373
 C150 C 1.10966 0.80701 0.47415
 C151 C 1.07182 0.78023 0.47183
 N152 N 1.03732 0.78744 0.50007
 H153 H 0.93712 0.74352 0.41164
 H154 H 1.03758 0.67580 0.48021
 H155 H 1.04352 0.62085 0.41982
 H156 H 0.94139 0.69080 0.34924
 H157 H 1.01019 0.82648 0.55202
 H158 H 1.07430 0.87631 0.55696
 H159 H 1.13590 0.80158 0.45025
 H160 H 1.06995 0.75410 0.44706
 C161 C 0.86619 0.84955 0.48897
 C162 C 0.98342 0.65545 0.61983
 C163 C 1.11222 0.84144 0.50600
 C164 C 0.99476 0.65247 0.37785
 C165 C 0.45521 -0.03867 0.31969
 H166 H 0.48693 -0.05437 0.32340
 C167 C 0.42228 -0.04651 0.35124
 H168 H 0.43024 -0.06866 0.37798
 C169 C 0.40965 0.01193 0.28170
 H170 H 0.40507 0.03578 0.25550
 C171 C 0.37543 0.00453 0.31220
 H172 H 0.34503 0.02290 0.30888
 N173 N 0.44888 -0.00926 0.28624
 C174 C 0.51067 -0.03649 0.16565
 H175 H 0.50998 -0.00272 0.15378
 C176 C 0.51309 -0.07116 0.13492
 H177 H 0.51277 -0.06297 0.09983
 C178 C 0.51031 -0.08748 0.22529
 H179 H 0.50846 -0.09371 0.26062
 C180 C 0.51347 -0.12347 0.19560
 H181 H 0.51296 -0.15665 0.20922
 Zn182 Zn 0.49890 0.00336 0.24991
 N183 N 0.50832 -0.04502 0.20993
 C184 C 0.58790 -0.00807 0.27936
 N185 N 0.54805 0.01083 0.28763
 C186 C 0.54090 0.03567 0.32476
 C187 C 0.57391 0.04111 0.35634
 C188 C 0.62240 -0.00274 0.30988
 C189 C 0.45742 0.05862 0.18750
 C190 C 0.45333 0.09527 0.15974
 C191 C 0.51606 0.12922 0.19599
 C192 C 0.51904 0.09169 0.22308
 N193 N 0.49043 0.05698 0.21785
 H194 H 0.59275 -0.02774 0.24947
 H195 H 0.50879 0.05015 0.33049
 H196 H 0.56518 0.05881 0.38637
 H197 H 0.65357 -0.01899 0.30350
 H198 H 0.43582 0.03017 0.18301
 H199 H 0.42878 0.09396 0.13372
 H200 H 0.54106 0.15488 0.19886
 H201 H 0.54559 0.08955 0.24682
 C202 C 0.51523 -0.11581 0.14928
 C203 C 0.38181 -0.02385 0.34865
 C204 C 0.48298 0.13136 0.16344
 C205 C 0.61569 0.02179 0.34943
 C206 C 0.58542 -0.02427 0.71756
 H207 H 0.58366 -0.05150 0.74077
 C208 C 0.62202 -0.02057 0.68929
 H209 H 0.64726 -0.04573 0.69084
 C210 C 0.55242 0.03843 0.68446
 H211 H 0.52463 0.06066 0.68211
 C212 C 0.58825 0.04326 0.65548
 H213 H 0.58691 0.06873 0.63021
 N214 N 0.55154 0.00504 0.71472
 C215 C 0.47782 -0.08862 0.78177
 H216 H 0.45196 -0.08800 0.75721
 C217 C 0.48137 -0.12539 0.80984
 H218 H 0.45735 -0.15196 0.80687
 C219 C 0.53729 -0.05260 0.81825
 H220 H 0.55832 -0.02360 0.82194
 C221 C 0.54197 -0.08851 0.84697
 H222 H 0.56601 -0.08605 0.87341
 Zn223 Zn 0.50044 -0.00137 0.75106
 N224 N 0.50562 -0.05317 0.78644
 C225 C 0.44956 -0.03778 0.68193
 N226 N 0.44984 -0.00584 0.71410
 C227 C 0.41553 0.02283 0.71880
 C228 C 0.37887 0.01961 0.69084
 C229 C 0.41372 -0.04207 0.65321
 C230 C 0.52252 0.08382 0.78840
 C231 C 0.51821 0.11865 0.81920
 C232 C 0.45597 0.08018 0.85172
 C233 C 0.46162 0.04610 0.82056
 N234 N 0.49467 0.04819 0.78999
 H235 H 0.47766 -0.05948 0.67813
 H236 H 0.41684 0.04907 0.74345
 H237 H 0.35314 0.04412 0.69415
 H238 H 0.41530 -0.06655 0.62668
 H239 H 0.54869 0.08496 0.76390
 H240 H 0.54123 0.14631 0.81790
 H241 H 0.42861 0.07709 0.87452
 H242 H 0.43963 0.01759 0.82080
 C243 C 0.51405 -0.12594 0.84295
 C244 C 0.62413 0.01381 0.65778
 C245 C 0.48564 0.11651 0.85274
 C246 C 0.37724 -0.01356 0.65767
 Si247 Si 0.25110 -0.01299 0.50174
 Si248 Si 0.74861 0.01123 0.49913
 Si249 Si 0.49226 0.25231 1.00325
 Si250 Si 0.50788 0.75041 0.00146
 Si251 Si 1.00311 0.49703 0.24854
 Si252 Si -0.00179 0.50026 0.74715
 C253 C 0.16613 0.11026 0.49260
 C254 C 0.21200 0.12043 0.51270
 C255 C 0.23856 0.08388 0.51596
 C256 C 0.21710 0.04055 0.49872
 C257 C 0.17377 0.03726 0.52532
 C258 C 0.14728 0.07304 0.52170
 C259 C 0.17704 0.08806 0.44762
 C260 C 0.20330 0.05188 0.45090
 H261 H 0.22322 0.15348 0.52220
 H262 H 0.27188 0.08597 0.52876
 H263 H 0.16517 0.01039 0.54751
 H264 H 0.11635 0.07555 0.53993
 H265 H 0.16793 0.10140 0.41547
 H266 H 0.21514 0.03460 0.42148
 C267 C 0.61819 0.64904 0.00519
 C268 C 0.57700 0.63736 0.03293
 C269 C 0.54556 0.66901 0.03273
 C270 C 0.55629 0.70955 0.00350
 C271 C 0.60065 0.72667 0.02170
 C272 C 0.63292 0.69509 0.02261
 C273 C 0.59961 0.65811 -0.04156
 C274 C 0.56814 0.69000 -0.04242
 H275 H 0.57171 0.60630 0.05038
 H276 H 0.51569 0.66486 0.05204
 H277 H 0.60650 0.76047 0.03297
 H278 H 0.66594 0.70222 0.03460
 H279 H 0.60932 0.64035 -0.07156
 H280 H 0.55265 0.69978 -0.07328
 C281 C 0.83343 -0.11233 0.49081
 C282 C 0.82311 -0.09099 0.44562
 C283 C 0.79679 -0.05471 0.44854
 C284 C 0.78248 -0.04244 0.49625
 C285 C 0.76075 -0.08539 0.51375
 C286 C 0.78729 -0.12204 0.51085
 C287 C 0.85198 -0.07457 0.51966
 C288 C 0.82552 -0.03869 0.52290
 H289 H 0.83287 -0.10489 0.41365
 H290 H 0.78530 -0.03792 0.41900
 H291 H 0.72722 -0.08722 0.52633
 H292 H 0.77580 -0.15490 0.52040
 H293 H 0.88268 -0.07675 0.53797
 H294 H 0.83395 -0.01139 0.54486
 C295 C 0.38129 0.35280 1.00331
 C296 C 0.36653 0.30653 0.98603
 C297 C 0.39944 0.27556 0.98536
 C298 C 0.44409 0.29334 1.00226
 C299 C 0.45320 0.33424 0.97301
 C300 C 0.42091 0.36517 0.97396
 C301 C 0.40073 0.34286 1.04944
 C302 C 0.43338 0.31229 1.04872
 H303 H 0.33303 0.29849 0.97613
 H304 H 0.39383 0.24155 0.97447
 H305 H 0.48159 0.33812 0.95144
 H306 H 0.42263 0.39514 0.95400
 H307 H 0.38774 0.35548 1.08073
 H308 H 0.44832 0.30090 1.07926
 C309 C 0.85022 0.12287 0.50187
 C310 C 0.86208 0.08324 0.47204
 C311 C 0.83074 0.05102 0.47037
 C312 C 0.78986 0.06006 0.49948
 C313 C 0.80794 0.07017 0.54626
 C314 C 0.83906 0.10279 0.54760
 C315 C 0.80499 0.13845 0.48445
 C316 C 0.77355 0.10551 0.48312
 H317 H 0.89192 0.08167 0.45197
 H318 H 0.83424 0.02298 0.44800
 H319 H 0.79586 0.05459 0.57644
 H320 H 0.85235 0.11496 0.57892
 H321 H 0.79760 0.17251 0.47560
 H322 H 0.74014 0.11177 0.47237
 C323 C 0.38462 0.66347 0.00168
 C324 C 0.42465 0.64433 -0.02320
 C325 C 0.46009 0.67165 -0.02431
 C326 C 0.45439 0.71564 0.00134
 C327 C 0.41331 0.73651 -0.01971
 C328 C 0.37700 0.70921 -0.01977
 C329 C 0.40279 0.67444 0.04843
 C330 C 0.43873 0.70182 0.04811
 H331 H 0.42541 0.61174 -0.03895
 H332 H 0.48908 0.66216 -0.04285
 H333 H 0.41250 0.76989 -0.03308
 H334 H 0.34552 0.71947 -0.03319
 H335 H 0.39014 0.66095 0.07936
 H336 H 0.45495 0.71193 0.07866
 C337 C 0.14986 -0.12480 0.50536
 C338 C 0.13817 -0.08576 0.47529
 C339 C 0.16940 -0.05348 0.47345
 C340 C 0.21002 -0.06186 0.50261
 C341 C 0.19153 -0.07115 0.54946
 C342 C 0.16046 -0.10383 0.55099
 C343 C 0.19532 -0.14055 0.48809
 C344 C 0.22666 -0.10753 0.48656
 H345 H 0.10850 -0.08462 0.45523
 H346 H 0.16598 -0.02582 0.45096
 H347 H 0.20333 -0.05496 0.57952
 H348 H 0.14684 -0.11546 0.58236
 H349 H 0.20294 -0.17476 0.47955
 H350 H 0.26025 -0.11385 0.47597
 C351 C 0.61566 0.33803 0.99651
 C352 C 0.59527 0.32635 0.95103
 C353 C 0.55885 0.29998 0.95359
 C354 C 0.54564 0.28675 1.00123
 C355 C 0.58758 0.26538 1.02003
 C356 C 0.62430 0.29209 1.01752
 C357 C 0.57789 0.35749 1.02423
 C358 C 0.54188 0.33086 1.02708
 H359 H 0.60974 0.33544 0.91920
 H360 H 0.54243 0.28785 0.92389
 H361 H 0.58869 0.23193 1.03327
 H362 H 0.65650 0.28080 1.02799
 H363 H 0.58007 0.38899 1.04203
 H364 H 0.51437 0.33997 1.04814
 C365 C 0.48530 0.16529 1.12616
 C366 C 0.44031 0.17801 1.10685
 C367 C 0.44295 0.20479 1.07070
 C368 C 0.49027 0.21729 1.05658
 C369 C 0.51044 0.23777 1.09908
 C370 C 0.50778 0.21069 1.13561
 C371 C 0.51138 0.14579 1.08699
 C372 C 0.51435 0.17275 1.05125
 H373 H 0.40887 0.16886 1.12171
 H374 H 0.41358 0.21742 1.05492
 H375 H 0.52450 0.27099 1.10077
 H376 H 0.51891 0.22156 1.16820
 H377 H 0.52824 0.11406 1.08814
 H378 H 0.53467 0.16357 1.02313
 C379 C -0.01254 0.61727 0.65294
 C380 C 0.03503 0.60159 0.66123
 C381 C 0.03815 0.56784 0.69100
 C382 C -0.00641 0.55128 0.70934
 C383 C -0.02759 0.59337 0.72922
 C384 C -0.03091 0.62775 0.69975
 C385 C -0.03672 0.57452 0.63835
 C386 C -0.03429 0.54096 0.66789
 H387 H 0.06398 0.61506 0.64461
 H388 H 0.06969 0.55392 0.70022
 H389 H -0.03860 0.59629 0.76351
 H390 H -0.04486 0.65965 0.70904
 H391 H -0.05313 0.56968 0.60667
 H392 H -0.05089 0.50976 0.66136
 C393 C 0.51320 0.83963 -0.12009
 C394 C 0.55862 0.82833 -0.10069
 C395 C 0.55685 0.80069 -0.06500
 C396 C 0.50992 0.78636 -0.05132
 C397 C 0.48431 0.83000 -0.04547
 C398 C 0.48634 0.85753 -0.08079
 C399 C 0.49254 0.79352 -0.13030
 C400 C 0.49080 0.76580 -0.09426
 H401 H 0.58974 0.83881 -0.11540
 H402 H 0.58654 0.78817 -0.04965
 H403 H 0.46341 0.83805 -0.01747
 H404 H 0.46826 0.88858 -0.08155
 H405 H 0.48226 0.78256 -0.16316
 H406 H 0.47837 0.73198 -0.09667
 C407 C 1.00780 0.37943 0.34250
 C408 C 0.96334 0.39496 0.33227
 C409 C 0.96259 0.43140 0.30214
 C410 C 1.00617 0.44576 0.28676
 C411 C 1.03159 0.45463 0.32708
 C412 C 1.03216 0.41864 0.35764
 C413 C 1.02668 0.36871 0.29843
 C414 C 1.02589 0.40557 0.26781
 H415 H 0.93319 0.37810 0.34252
 H416 H 0.93175 0.44421 0.28971
 H417 H 1.05246 0.48346 0.33225
 H418 H 1.05226 0.41964 0.38753
 H419 H 1.03573 0.33558 0.28738
 H420 H 1.03620 0.40231 0.23331
 C421 C 0.51490 0.84873 0.11614
 C422 C 0.52728 0.80356 0.13000
 C423 C 0.52488 0.77120 0.09431
 C424 C 0.51096 0.79007 0.05186
 C425 C 0.46888 0.81116 0.06190
 C426 C 0.47107 0.84356 0.09670
 C427 C 0.54470 0.85810 0.07889
 C428 C 0.54220 0.82635 0.04375
 H429 H 0.54201 0.79530 0.16169
 H430 H 0.53559 0.73714 0.09833
 H431 H 0.43771 0.80125 0.04716
 H432 H 0.44178 0.86013 0.10932
 H433 H 0.57048 0.88339 0.07958
 H434 H 0.56615 0.82701 0.01702
 C435 C 0.00744 0.38146 0.65345
 C436 C 0.03063 0.42417 0.63763
 C437 C 0.02872 0.45826 0.66698
 C438 C 0.00211 0.44851 0.70956
 C439 C -0.04275 0.43115 0.69302
 C440 C -0.04010 0.39674 0.66346
 C441 C 0.02724 0.37217 0.69961
 C442 C 0.02426 0.40706 0.72895
 H443 H 0.04648 0.42824 0.60542
 H444 H 0.04513 0.48930 0.65964
 H445 H -0.07415 0.44511 0.70315
 H446 H -0.06937 0.38292 0.64791
 H447 H 0.04171 0.34058 0.70864
 H448 H 0.03607 0.40492 0.76289
 C449 C 0.48553 0.15132 0.89019
 C450 C 0.45613 0.14092 0.93088
 C451 C 0.45751 0.17239 0.96325
 C452 C 0.48885 0.21160 0.95379
 C453 C 0.53343 0.19012 0.94261
 C454 C 0.53163 0.15846 0.91025
 C455 C 0.47121 0.19820 0.87564
 C456 C 0.47284 0.22962 0.90888
 H457 H 0.43613 0.11140 0.93551
 H458 H 0.43715 0.16924 0.99268
 H459 H 0.56425 0.19914 0.95850
 H460 H 0.56074 0.14036 0.89963
 H461 H 0.46039 0.20588 0.84217
 H462 H 0.46343 0.26391 0.90361
 C463 C 0.99630 0.61605 0.34237
 C464 C 1.04318 0.59964 0.33199
 C465 C 1.04470 0.56454 0.30339
 C466 C 0.99938 0.54850 0.28678
 C467 C 0.97212 0.54006 0.32929
 C468 C 0.97091 0.57483 0.35814
 C469 C 0.97707 0.62596 0.29586
 C470 C 0.97861 0.59055 0.26697
 H471 H 1.07294 0.61553 0.34448
 H472 H 1.07582 0.55076 0.29230
 H473 H 0.95308 0.51026 0.33569
 H474 H 0.95169 0.57378 0.38874
 H475 H 0.96524 0.65820 0.28548
 H476 H 0.96729 0.59288 0.23287
 C477 C 1.11935 0.50781 0.15327
 C478 C 1.13232 0.49021 0.19692
 C479 C 1.09601 0.48618 0.22796
 C480 C 1.05390 0.50075 0.20972
 C481 C 1.06238 0.54620 0.19481
 C482 C 1.09837 0.55027 0.16433
 C483 C 1.08385 0.47854 0.13814
 C484 C 1.04843 0.47433 0.16912
 H485 H 1.16611 0.48390 0.20668
 H486 H 1.10044 0.47540 0.26204
 H487 H 1.04651 0.57540 0.20859
 H488 H 1.11213 0.58271 0.15635
 H489 H 1.08522 0.45872 0.10775
 H490 H 1.02264 0.44990 0.16386
 C491 C 0.65860 0.01354 0.62073
 C492 C 0.64057 -0.01202 0.58053
 C493 C 0.66830 -0.01345 0.54521
 C494 C 0.71222 0.01153 0.55192
 C495 C 0.69914 0.05862 0.56722
 C496 C 0.67138 0.05973 0.60290
 C497 C 0.70358 -0.00839 0.63025
 C498 C 0.73145 -0.00951 0.59417
 H499 H 0.60927 -0.02981 0.58068
 H500 H 0.66012 -0.03363 0.51663
 H501 H 0.71245 0.08890 0.55287
 H502 H 0.66174 0.09081 0.61860
 H503 H 0.71366 -0.02012 0.66271
 H504 H 0.76448 -0.02290 0.59610
 C505 C -0.11713 0.49701 0.84419
 C506 C -0.07737 0.52572 0.85814
 C507 C -0.04472 0.52745 0.82763
 C508 C -0.05237 0.49861 0.78592
 C509 C -0.06350 0.45197 0.80376
 C510 C -0.09670 0.45111 0.83445
 C511 C -0.13026 0.51464 0.79802
 C512 C -0.09651 0.51528 0.76755
 H513 H -0.07380 0.54243 0.89005
 H514 H -0.01606 0.54800 0.83361
 H515 H -0.04643 0.42199 0.79351
 H516 H -0.10660 0.42049 0.85072
 H517 H -0.16343 0.52507 0.78986
 H518 H -0.10115 0.52612 0.73353
 C519 C 0.34787 -0.02399 0.38646
 C520 C 0.30075 -0.03841 0.37308
 C521 C 0.27043 -0.03558 0.40703
 C522 C 0.28978 -0.01830 0.45126
 C523 C 0.32803 -0.05016 0.46032
 C524 C 0.35812 -0.05322 0.42705
 C525 C 0.34223 0.02306 0.40585
 C526 C 0.31166 0.02610 0.43874
 H527 H 0.29218 -0.05041 0.34004
 H528 H 0.23616 -0.04512 0.40275
 H529 H 0.32975 -0.07205 0.48864
 H530 H 0.38370 -0.07796 0.42897
 H531 H 0.35999 0.05208 0.39373
 H532 H 0.30316 0.05785 0.45364
 C533 C 0.11575 0.50687 0.84025
 C534 C 0.09503 0.55238 0.82996
 C535 C 0.06117 0.55029 0.80045
 C536 C 0.04966 0.50302 0.78423
 C537 C 0.09336 0.48566 0.76483
 C538 C 0.12780 0.48741 0.79415
 C539 C 0.07642 0.47867 0.85626
 C540 C 0.04302 0.47575 0.82691
 H541 H 0.10457 0.58366 0.84534
 H542 H 0.04365 0.57984 0.79029
 H543 H 0.09723 0.47359 0.73094
 H544 H 0.16078 0.47671 0.78514
 H545 H 0.07449 0.46219 0.88828
 H546 H 0.01484 0.45485 0.83400
 C547 C 0.65081 0.02157 0.38578
 C548 C 0.65599 -0.02528 0.40503
 C549 C 0.68691 -0.02833 0.43730
 C550 C 0.70966 0.01591 0.44922
 C551 C 0.72873 0.03214 0.40445
 C552 C 0.69797 0.03500 0.37118
 C553 C 0.64187 0.05185 0.42635
 C554 C 0.67214 0.04860 0.45901
 H555 H 0.63795 -0.05421 0.39294
 H556 H 0.69542 -0.06004 0.45183
 H557 H 0.76310 0.04103 0.39939
 H558 H 0.70628 0.04641 0.33793
 H559 H 0.61817 0.07856 0.42761
 H560 H 0.67175 0.07170 0.48670
 C561 C 0.88506 0.48802 0.15620
 C562 C 0.90736 0.44329 0.16586
 C563 C 0.94214 0.44648 0.19402
 C564 C 0.95197 0.49390 0.21094
 C565 C 0.95664 0.52220 0.16864
 C566 C 0.92225 0.51877 0.14020
 C567 C 0.87288 0.50592 0.20300
 C568 C 0.90791 0.50912 0.23148
 H569 H 0.89505 0.41119 0.15466
 H570 H 0.95936 0.41715 0.20517
 H571 H 0.98350 0.54506 0.16206
 H572 H 0.92082 0.53791 0.10968
 H573 H 0.83958 0.51417 0.21333
 H574 H 0.90422 0.52058 0.26559
 C575 C 0.34218 -0.01340 0.62154
 C576 C 0.35971 0.01168 0.58097
 C577 C 0.33160 0.01262 0.54625
 C578 C 0.28781 -0.01238 0.55389
 C579 C 0.30110 -0.05924 0.56896
 C580 C 0.32925 -0.05983 0.60403
 C581 C 0.29726 0.00862 0.63199
 C582 C 0.26897 0.00919 0.59649
 H583 H 0.39093 0.02962 0.58049
 H584 H 0.33938 0.03255 0.51754
 H585 H 0.28778 -0.08973 0.55485
 H586 H 0.33932 -0.09068 0.61944
 H587 H 0.28746 0.02074 0.66464
 H588 H 0.23592 0.02252 0.59904
   
