data_POSCAR
  _audit_creation_date              2014-09-24
  _audit_creation_method            'ToBaCCo'
  _symmetry_space_group_name_H-M    'P1'
  _symmetry_Int_Tables_number       1
  _symmetry_cell_setting            triclinic
  loop_
  _symmetry_equiv_pos_as_xyz
 x,y,z
_cell_length_a 18.9775
_cell_length_b 19.0566
_cell_length_c 19.1039
_cell_angle_alpha 90.412800
_cell_angle_beta 90.132800
_cell_angle_gamma 90.094900
loop_
  _atom_site_label
  _atom_site_type_symbol
  _atom_site_fract_x
  _atom_site_fract_y
  _atom_site_fract_z
O1 O -0.16568 0.12028 0.01584
 O2 O 0.19141 0.06847 -0.01086
 O3 O 0.01693 0.17894 0.10058
 O4 O 0.01919 0.18172 -0.09307
 O5 O 0.00712 0.09367 -0.17557
 O6 O 0.01287 0.09053 0.18273
 O7 O 0.12104 0.16680 -0.00301
 O8 O -0.06708 0.19152 0.01151
 Zr9 Zr 0.01824 0.12315 0.00304
 O10 O 0.06787 0.05496 -0.06491
 O11 O -0.04954 0.06945 0.06807
 C12 C -0.13416 0.18096 0.01649
 C13 C 0.18141 0.13553 -0.01023
 C14 C 0.00890 0.15558 0.16404
 C15 C 0.01580 0.15855 -0.15756
 H16 H 0.11007 0.07909 0.09279
 O17 O 0.07532 0.05356 0.06339
 H18 H -0.08451 0.10690 -0.08415
 O19 O -0.05769 0.07256 -0.05627
 O20 O 0.16499 -0.11987 -0.00554
 O21 O -0.19494 -0.06993 0.00685
 O22 O 0.10322 -0.02140 0.17544
 O23 O 0.08169 -0.01058 -0.18223
 O24 O -0.10832 0.01428 -0.17283
 O25 O -0.08531 0.01241 0.18785
 O26 O -0.01382 -0.17908 0.09076
 O27 O -0.03180 -0.17537 -0.09531
 O28 O 0.00202 -0.09968 0.18085
 O29 O -0.02303 -0.09142 -0.18106
 O30 O 0.18472 -0.02938 0.08602
 O31 O -0.17279 0.03082 0.10589
 O32 O -0.18474 0.02864 -0.08022
 O33 O 0.17384 -0.02248 -0.10387
 O34 O 0.06574 -0.19001 -0.00388
 O35 O -0.11926 -0.16355 -0.00578
 Zr36 Zr 0.12237 -0.01676 -0.00515
 Zr37 Zr -0.12335 0.01717 0.00927
 Zr38 Zr 0.00585 -0.00309 0.12513
 Zr39 Zr -0.00893 0.00138 -0.12097
 Zr40 Zr -0.01852 -0.11991 -0.00068
 O41 O -0.07793 -0.05280 -0.05940
 O42 O 0.05669 -0.07189 0.05975
 C43 C 0.13314 -0.18031 -0.00399
 C44 C -0.18144 -0.13607 -0.00458
 C45 C 0.16616 -0.03245 0.15128
 C46 C 0.14743 -0.01998 -0.16669
 C47 C -0.17056 0.02582 -0.14629
 C48 C -0.14908 0.02884 0.16925
 C49 C -0.00156 -0.16317 0.15566
 C50 C -0.03111 -0.15542 -0.15998
 H51 H -0.10262 -0.08265 0.09914
 O52 O -0.07047 -0.05576 0.06858
 H53 H 0.07359 -0.10361 -0.09666
 O54 O 0.04962 -0.06963 -0.06557
 O55 O 0.30956 0.56765 -0.00451
 O56 O 0.66512 0.62106 0.00386
 O57 O 0.47798 0.67872 0.10427
 O58 O 0.48712 0.68643 -0.08828
 O59 O 0.50319 0.60325 -0.17564
 O60 O 0.47687 0.58592 0.18110
 O61 O 0.56974 0.69595 0.00278
 O62 O 0.37878 0.66698 0.00398
 Zr63 Zr 0.48261 0.62566 0.00469
 O64 O 0.55541 0.57459 -0.05742
 O65 O 0.42474 0.55400 0.06241
 C66 C 0.31831 0.63487 0.00033
 C67 C 0.63674 0.68265 -0.00161
 C68 C 0.47742 0.65218 0.16713
 C69 C 0.50078 0.66722 -0.15232
 H70 H 0.57724 0.60331 0.09842
 O71 O 0.55120 0.57062 0.06738
 H72 H 0.39862 0.58480 -0.09572
 O73 O 0.43119 0.55864 -0.06495
 O74 O 0.69266 0.43465 0.00905
 O75 O 0.33684 0.38064 -0.01468
 O76 O 0.58391 0.50715 0.18189
 O77 O 0.60212 0.52429 -0.17539
 O78 O 0.41076 0.49416 -0.18640
 O79 O 0.39629 0.48162 0.17433
 O80 O 0.52778 0.32164 0.08612
 O81 O 0.51932 0.32608 -0.10249
 O82 O 0.50670 0.40014 0.17619
 O83 O 0.50743 0.41224 -0.18600
 O84 O 0.67594 0.52174 0.10466
 O85 O 0.31807 0.47081 0.08269
 O86 O 0.32878 0.46903 -0.10156
 O87 O 0.68427 0.53204 -0.08596
 O88 O 0.62279 0.33644 -0.00167
 O89 O 0.43544 0.31019 -0.01411
 Zr90 Zr 0.62284 0.51902 0.00546
 Zr91 Zr 0.37999 0.48347 -0.00654
 Zr92 Zr 0.49376 0.49595 0.12124
 Zr93 Zr 0.50475 0.50601 -0.12477
 Zr94 Zr 0.52034 0.38014 -0.00614
 O95 O 0.45072 0.43266 -0.06873
 O96 O 0.57039 0.44543 0.06364
 C97 C 0.68314 0.36754 0.00686
 C98 C 0.36801 0.31992 -0.01743
 C99 C 0.64967 0.51670 0.16749
 C100 C 0.66541 0.53486 -0.15123
 C101 C 0.34831 0.47447 -0.16586
 C102 C 0.33366 0.47155 0.14851
 C103 C 0.52091 0.33797 0.15170
 C104 C 0.50669 0.34728 -0.16559
 H105 H 0.41865 0.39109 0.08329
 O106 O 0.44510 0.42626 0.05608
 H107 H 0.61033 0.42475 -0.09511
 O108 O 0.57617 0.45009 -0.06513
 O109 O -0.15915 0.63016 0.51181
 O110 O 0.19598 0.56258 0.48945
 O111 O 0.02294 0.68182 0.59687
 O112 O 0.03035 0.67982 0.40237
 O113 O 0.01062 0.59122 0.32179
 O114 O 0.01867 0.59522 0.68059
 O115 O 0.12931 0.66369 0.49587
 O116 O -0.05835 0.69767 0.50560
 Zr117 Zr 0.02465 0.62467 0.49991
 O118 O 0.07187 0.55243 0.43373
 O119 O -0.04472 0.57557 0.56644
 C120 C -0.12613 0.69012 0.51091
 C121 C 0.18865 0.63010 0.49072
 C122 C 0.01407 0.65980 0.66080
 C123 C 0.02393 0.65577 0.33846
 H124 H 0.11402 0.57868 0.59072
 O125 O 0.07867 0.55376 0.56155
 H126 H -0.07864 0.61012 0.41216
 O127 O -0.05257 0.57584 0.44087
 O128 O 0.16183 0.37488 0.49490
 O129 O -0.19364 0.44319 0.50931
 O130 O 0.10432 0.48309 0.67457
 O131 O 0.08363 0.48363 0.31776
 O132 O -0.10489 0.51340 0.32580
 O133 O -0.08373 0.51994 0.68719
 O134 O -0.02093 0.32564 0.59593
 O135 O -0.03871 0.32496 0.40908
 O136 O 0.00313 0.40629 0.68290
 O137 O -0.02366 0.40553 0.32116
 O138 O 0.18573 0.46753 0.58644
 O139 O -0.16933 0.54205 0.60453
 O140 O -0.18048 0.53294 0.41790
 O141 O 0.17479 0.47069 0.39665
 O142 O 0.06023 0.30804 0.49935
 O143 O -0.12680 0.34220 0.50523
 Zr144 Zr 0.12332 0.47979 0.49514
 Zr145 Zr -0.11954 0.52554 0.50815
 Zr146 Zr 0.00746 0.50138 0.62458
 Zr147 Zr -0.00668 0.50014 0.37866
 Zr148 Zr -0.02245 0.38162 0.50237
 O149 O -0.07813 0.45070 0.44185
 O150 O 0.05539 0.42834 0.56134
 C151 C 0.12818 0.31532 0.49673
 C152 C -0.18639 0.37554 0.50677
 C153 C 0.16703 0.46886 0.65173
 C154 C 0.14907 0.47251 0.33351
 C155 C -0.16699 0.52534 0.35202
 C156 C -0.14710 0.53823 0.66844
 C157 C -0.00536 0.34243 0.65990
 C158 C -0.03508 0.34235 0.34374
 H159 H -0.10335 0.42699 0.60119
 O160 O -0.07054 0.45124 0.56921
 H161 H 0.07079 0.39302 0.40572
 O162 O 0.04812 0.42824 0.43637
 O163 O 0.30672 0.06076 0.48765
 O164 O 0.66188 0.12927 0.50545
 O165 O 0.46428 0.18415 0.58628
 O166 O 0.48495 0.17564 0.39506
 O167 O 0.50266 0.08485 0.31666
 O168 O 0.46920 0.10139 0.67375
 O169 O 0.56095 0.19574 0.49543
 O170 O 0.37348 0.16188 0.48804
 Zr171 Zr 0.47804 0.12298 0.49342
 O172 O 0.55537 0.07118 0.43810
 O173 O 0.42172 0.05507 0.55611
 C174 C 0.31364 0.12856 0.48781
 C175 C 0.62864 0.18876 0.50025
 C176 C 0.46220 0.16515 0.65159
 C177 C 0.49869 0.15068 0.33283
 H178 H 0.56951 0.11297 0.59356
 O179 O 0.54683 0.07724 0.56329
 H180 H 0.39835 0.07236 0.39560
 O181 O 0.43090 0.04935 0.42882
 O182 O 0.69664 -0.05844 0.51588
 O183 O 0.34226 -0.12650 0.49006
 O184 O 0.58108 0.02417 0.68406
 O185 O 0.60566 0.01308 0.32679
 O186 O 0.41749 -0.02523 0.31377
 O187 O 0.39257 -0.00802 0.67352
 O188 O 0.53342 -0.16916 0.60367
 O189 O 0.53337 -0.17995 0.41533
 O190 O 0.50595 -0.08416 0.68552
 O191 O 0.51750 -0.10384 0.32368
 O192 O 0.67383 0.03496 0.60701
 O193 O 0.31752 -0.02915 0.58093
 O194 O 0.33044 -0.04096 0.39591
 O195 O 0.68468 0.03491 0.41658
 O196 O 0.62954 -0.15915 0.51365
 O197 O 0.44316 -0.19288 0.50105
 Zr198 Zr 0.62324 0.02434 0.50786
 Zr199 Zr 0.38043 -0.02180 0.49197
 Zr200 Zr 0.49133 0.00604 0.62254
 Zr201 Zr 0.50845 -0.00565 0.37686
 Zr202 Zr 0.52545 -0.11901 0.50639
 O203 O 0.45512 -0.07604 0.43697
 O204 O 0.57168 -0.04607 0.57117
 C205 C 0.68951 -0.12624 0.51685
 C206 C 0.37558 -0.18596 0.49356
 C207 C 0.64712 0.03351 0.66966
 C208 C 0.66730 0.03055 0.35100
 C209 C 0.35329 -0.04046 0.33222
 C210 C 0.33098 -0.02244 0.64696
 C211 C 0.52416 -0.14741 0.66742
 C212 C 0.52296 -0.16642 0.34979
 H213 H 0.42081 -0.10460 0.59090
 O214 O 0.44647 -0.07048 0.56169
 H215 H 0.61606 -0.07789 0.41539
 O216 O 0.58027 -0.05214 0.44299
 N217 N 0.35573 0.19581 -0.03596
 N218 N 0.30790 0.14568 -0.03380
 C219 C 0.24587 0.17670 -0.01920
 C220 C 0.25693 0.24834 -0.01295
 N221 N 0.32656 0.25762 -0.02363
 H222 H 0.21923 0.28884 0.00036
 N223 N 0.36617 -0.31195 0.48418
 N224 N 0.31803 -0.36204 0.48296
 C225 C 0.25477 -0.33029 0.48745
 C226 C 0.26549 -0.25856 0.49128
 N227 N 0.33593 -0.24964 0.48921
 H228 H 0.22654 -0.21742 0.49650
 N229 N 0.72798 0.72359 -0.07555
 N230 N 0.77821 0.77117 -0.07742
 C231 C 0.76564 0.81765 -0.02553
 C232 C 0.70481 0.79638 0.00932
 N233 N 0.68363 0.73684 -0.02396
 H234 H 0.68430 0.81602 0.05851
 N235 N 0.63684 0.31505 0.50119
 N236 N 0.68408 0.36595 0.50347
 C237 C 0.74783 0.33509 0.50539
 C238 C 0.73828 0.26295 0.50412
 N239 N 0.66796 0.25295 0.50149
 H240 H 0.77798 0.22224 0.50486
 N241 N 0.80666 0.35583 0.03043
 N242 N 0.85620 0.30772 0.03460
 C243 C 0.82487 0.24536 0.02238
 C244 C 0.75385 0.25647 0.01044
 N245 N 0.74518 0.32650 0.01561
 H246 H 0.71352 0.21840 -0.00294
 N247 N 0.81646 -0.13617 0.51995
 N248 N 0.86690 -0.18385 0.51760
 C249 C 0.83542 -0.24732 0.51528
 C250 C 0.76287 -0.23676 0.51661
 N251 N 0.75361 -0.16635 0.51934
 H252 H 0.72141 -0.27579 0.51410
 N253 N 0.18663 0.13817 0.48878
 N254 N 0.13636 0.18597 0.49193
 C255 C 0.16822 0.24922 0.49378
 C256 C 0.24050 0.23860 0.49141
 N257 N 0.24948 0.16832 0.48827
 H258 H 0.28201 0.27762 0.49240
 N259 N 0.19237 0.64430 0.00058
 N260 N 0.14201 0.69170 -0.00110
 C261 C 0.17385 0.75488 -0.00244
 C262 C 0.24604 0.74501 -0.00120
 N263 N 0.25495 0.67489 0.00062
 H264 H 0.28741 0.78417 -0.00200
 N265 N -0.07614 0.22758 0.31280
 N266 N -0.06249 0.17642 0.26817
 C267 C -0.01776 0.20194 0.21994
 C268 C -0.00531 0.27221 0.23585
 N269 N -0.04277 0.28561 0.29480
 H270 H 0.03118 0.30779 0.21088
 N271 N 0.41421 0.20264 0.76129
 N272 N 0.42780 0.24808 0.81195
 C273 C 0.47691 0.29288 0.78792
 C274 C 0.49236 0.27401 0.71929
 N275 N 0.45179 0.21706 0.70501
 H276 H 0.53322 0.29501 0.68596
 N277 N -0.06291 0.68287 0.75663
 N278 N -0.07880 0.73120 0.80358
 C279 C -0.03972 0.78802 0.78870
 C280 C 0.00151 0.77291 0.73027
 N281 N -0.01453 0.70606 0.71268
 H282 H 0.04293 0.80437 0.70741
 N283 N 0.50218 -0.28877 0.33704
 N284 N 0.48604 -0.33728 0.29057
 C285 C 0.48361 -0.30629 0.22742
 C286 C 0.49888 -0.23512 0.23712
 N287 N 0.51101 -0.22726 0.30684
 H288 H 0.50274 -0.19438 0.19813
 N289 N 0.03951 0.67136 0.21653
 N290 N 0.02877 0.71694 0.16645
 C291 C 0.01274 0.77859 0.19717
 C292 C 0.01520 0.76937 0.26971
 N293 N 0.03130 0.70065 0.27894
 H294 H 0.00143 0.80654 0.31051
 N295 N 0.59063 -0.24290 0.71374
 N296 N 0.58493 -0.29343 0.76009
 C297 C 0.52649 -0.28065 0.79777
 C298 C 0.49613 -0.21929 0.77327
 N299 N 0.53829 -0.19778 0.72055
 H300 H 0.44587 -0.19662 0.78753
 N301 N 0.55737 0.17303 0.22512
 N302 N 0.56612 0.22140 0.17716
 C303 C 0.53110 0.27872 0.19907
 C304 C 0.50019 0.26396 0.26345
 N305 N 0.51774 0.19667 0.27702
 H306 H 0.46519 0.29650 0.29431
 N307 N 0.02210 0.22226 0.67362
 N308 N 0.02914 0.17274 0.72036
 C309 C 0.02041 0.20225 0.78404
 C310 C 0.00851 0.27411 0.77443
 N311 N 0.00868 0.28329 0.70385
 H312 H -0.00418 0.31361 0.81335
 N313 N 0.25664 -0.11149 0.29216
 N314 N 0.20492 -0.11001 0.24584
 C315 C 0.21829 -0.05616 0.20268
 C316 C 0.28074 -0.02436 0.22392
 N317 N 0.30288 -0.06097 0.28010
 H318 H 0.30351 0.02410 0.20519
 N319 N 0.19463 0.41204 0.75839
 N320 N 0.24139 0.41441 0.80919
 C321 C 0.29558 0.45439 0.78720
 C322 C 0.28092 0.47582 0.71923
 N323 N 0.21646 0.44872 0.70422
 H324 H 0.30925 0.51372 0.68807
 N325 N 0.66301 0.06379 0.78981
 N326 N 0.70997 0.06057 0.84035
 C327 C 0.77095 0.03871 0.81155
 C328 C 0.76002 0.02949 0.73999
 N329 N 0.69123 0.04519 0.72934
 H330 H 0.79611 0.00875 0.70126
 N331 N -0.29060 0.53495 0.33743
 N332 N -0.34057 0.53170 0.29003
 C333 C -0.30912 0.52409 0.22733
 C334 C -0.23642 0.52310 0.23789
 N335 N -0.22786 0.52948 0.30812
 H336 H -0.19498 0.51554 0.19976
 N337 N 0.21383 -0.06384 0.66669
 N338 N 0.16409 -0.06413 0.71455
 C339 C 0.19175 -0.03457 0.77259
 C340 C 0.26117 -0.01612 0.75907
 N341 N 0.27221 -0.03508 0.69173
 H342 H 0.29781 0.01192 0.79262
 N343 N 0.16797 0.42568 0.21861
 N344 N 0.21553 0.42455 0.16851
 C345 C 0.27382 0.45594 0.19421
 C346 C 0.26077 0.47609 0.26295
 N347 N 0.19359 0.45635 0.27549
 H348 H 0.29412 0.50646 0.29786
 N349 N 0.70760 0.10479 0.25850
 N350 N 0.75670 0.10640 0.20976
 C351 C 0.80025 0.05199 0.22184
 C352 C 0.77621 0.01632 0.27986
 N353 N 0.71830 0.05138 0.30086
 H354 H 0.79448 -0.03326 0.30032
 N355 N -0.24067 0.61208 0.70929
 N356 N -0.29239 0.61201 0.75536
 C357 C -0.28175 0.55681 0.79746
 C358 C -0.22089 0.52263 0.77588
 N359 N -0.19699 0.55928 0.72051
 H360 H -0.20029 0.47302 0.79398
   
