data_POSCAR
  _audit_creation_date              2014-09-24
  _audit_creation_method            'ToBaCCo'
  _symmetry_space_group_name_H-M    'P1'
  _symmetry_Int_Tables_number       1
  _symmetry_cell_setting            triclinic
  loop_
  _symmetry_equiv_pos_as_xyz
 x,y,z
_cell_length_a 12.2574
_cell_length_b 11.8421
_cell_length_c 14.4431
_cell_angle_alpha 91.119800
_cell_angle_beta 89.266100
_cell_angle_gamma 91.299100
loop_
  _atom_site_label
  _atom_site_type_symbol
  _atom_site_fract_x
  _atom_site_fract_y
  _atom_site_fract_z
O1 O 0.16838 -0.02182 0.10926
 O2 O -0.22917 -0.01485 0.07682
 O3 O 0.00333 0.23675 0.09322
 O4 O 0.06915 -0.19519 0.09889
 O5 O -0.16643 0.18278 0.05963
 O6 O 0.22099 -0.18944 0.01681
 O7 O -0.10676 -0.11728 0.14078
 O8 O 0.18617 0.15019 0.06826
 C9 C 0.20369 0.07493 0.12525
 C10 C -0.19574 -0.06825 0.14507
 C11 C -0.09826 0.24173 0.10771
 C12 C 0.15859 -0.24214 0.07758
 O13 O 0.12087 -0.12095 -0.12630
 O14 O -0.14804 0.13990 -0.12737
 O15 O 0.14453 0.14561 -0.11546
 O16 O -0.18901 -0.18183 -0.01827
 O17 O -0.19320 -0.04886 -0.11193
 O18 O 0.24691 0.02119 -0.05830
 O19 O -0.00325 -0.23497 -0.07530
 O20 O -0.02157 0.25234 -0.07918
 Co21 Co 0.13710 -0.06965 -0.00870
 Co22 Co -0.16987 0.05910 -0.02360
 Co23 Co 0.07197 0.17757 -0.00837
 Co24 Co -0.05196 -0.16458 0.03131
 O25 O -0.00653 0.01020 -0.00588
 C26 C 0.06443 -0.20821 -0.13737
 C27 C -0.09713 0.23002 -0.13289
 C28 C 0.23239 0.09543 -0.11768
 C29 C -0.22337 -0.14436 -0.09153
 O30 O 0.45942 0.24644 0.44431
 O31 O 0.53417 0.76762 0.45691
 O32 O 0.27023 0.53265 0.41827
 O33 O 0.72837 0.48191 0.42816
 O34 O 0.38555 0.66492 0.38378
 O35 O 0.61990 0.34913 0.38007
 O36 O 0.63802 0.64877 0.39385
 O37 O 0.35405 0.36243 0.38582
 C38 C 0.39523 0.26919 0.38224
 C39 C 0.60062 0.74413 0.39440
 C40 C 0.30849 0.60134 0.36026
 C41 C 0.70297 0.40891 0.36750
 O42 O 0.69892 0.36185 0.55337
 O43 O 0.28653 0.65302 0.54829
 O44 O 0.35320 0.31013 0.57399
 O45 O 0.62679 0.70361 0.58100
 O46 O 0.46038 0.69686 0.62514
 O47 O 0.52206 0.30131 0.61327
 O48 O 0.68614 0.52472 0.61343
 O49 O 0.29283 0.49299 0.60752
 Co50 Co 0.56708 0.33474 0.49749
 Co51 Co 0.42529 0.67539 0.50378
 Co52 Co 0.33329 0.43195 0.49682
 Co53 Co 0.65452 0.58233 0.50360
 O54 O 0.49499 0.50561 0.50051
 C55 C 0.71980 0.42870 0.61840
 C56 C 0.25675 0.58880 0.61063
 C57 C 0.42457 0.27817 0.62945
 C58 C 0.55776 0.71315 0.64487
 N59 N 0.37172 0.07582 0.32414
 N60 N 0.31888 0.02028 0.25724
 C61 C 0.27130 0.09898 0.20597
 C62 C 0.29642 0.20397 0.24278
 N63 N 0.35904 0.18591 0.31629
 H64 H 0.26938 0.28526 0.22007
 N65 N 0.59086 0.92225 0.31323
 N66 N 0.64480 0.97671 0.24691
 C67 C 0.73177 0.91351 0.22427
 C68 C 0.72896 0.81849 0.27707
 N69 N 0.63989 0.82682 0.33120
 H70 H 0.78306 0.74741 0.27323
 N71 N 0.83779 0.47587 0.74675
 N72 N 0.88925 0.42544 0.81379
 C73 C 0.87020 0.31386 0.80148
 C74 C 0.80543 0.29658 0.72507
 N75 N 0.78780 0.39995 0.69288
 H76 H 0.77101 0.21786 0.69794
 N77 N 0.11002 0.55018 0.72078
 N78 N 0.05375 0.60362 0.78633
 C79 C 0.08685 0.71287 0.78573
 C80 C 0.16608 0.72500 0.71754
 N81 N 0.17792 0.62158 0.67901
 H82 H 0.21647 0.79895 0.70281
 N83 N 0.46162 0.13728 0.74590
 N84 N 0.41090 0.08417 0.81486
 C85 C 0.30867 0.12395 0.81925
 C86 C 0.29806 0.20235 0.75014
 N87 N 0.39517 0.20822 0.70627
 H88 H 0.22744 0.25147 0.73417
 N89 N 0.55021 0.70067 0.81331
 N90 N 0.61087 0.73149 0.88545
 C91 C 0.69424 0.79572 0.85217
 C92 C 0.68242 0.80424 0.75799
 N93 N 0.59164 0.74428 0.73641
 H94 H 0.73572 0.84806 0.70954
 N95 N 0.18049 0.54213 0.24050
 N96 N 0.14232 0.57863 0.16135
 C97 C 0.20015 0.67302 0.13988
 C98 C 0.27374 0.69474 0.21025
 N99 N 0.25865 0.61126 0.27153
 H100 H 0.32484 0.76961 0.22055
 N101 N 0.88043 0.42355 0.29435
 N102 N 0.93721 0.37793 0.22545
 C103 C 0.86846 0.30803 0.17826
 C104 C 0.76635 0.31260 0.22069
 N105 N 0.77828 0.38512 0.29344
 H106 H 0.69337 0.26337 0.20424
   
