data_POSCAR
  _audit_creation_date              2014-09-24
  _audit_creation_method            'ToBaCCo'
  _symmetry_space_group_name_H-M    'P1'
  _symmetry_Int_Tables_number       1
  _symmetry_cell_setting            triclinic
  loop_
  _symmetry_equiv_pos_as_xyz
 x,y,z
_cell_length_a 48.6819
_cell_length_b 47.3222
_cell_length_c 29.3379
_cell_angle_alpha 89.964600
_cell_angle_beta 90.029700
_cell_angle_gamma 121.090700
loop_
  _atom_site_label
  _atom_site_type_symbol
  _atom_site_fract_x
  _atom_site_fract_y
  _atom_site_fract_z
C1 C 0.46312 0.92747 0.54160
 C2 C 0.45190 0.91128 0.49952
 C3 C 0.45763 0.92854 0.45859
 C4 C 0.47471 0.96343 0.45901
 C5 C 0.48780 0.98056 0.50049
 C6 C 0.48296 0.96258 0.54154
 C7 C 0.50050 0.98008 0.58029
 C8 C 0.51857 1.01434 0.58059
 C9 C 0.52009 1.03287 0.54213
 C10 C 0.50665 1.01576 0.50068
 C11 C 0.47955 0.98167 0.41898
 C12 C 0.49688 1.01591 0.41951
 C13 C 0.51230 1.03362 0.45934
 C14 C 0.53193 1.06870 0.45943
 C15 C 0.54277 1.08499 0.50149
 C16 C 0.53685 1.06799 0.54307
 H17 H 0.50124 0.96747 0.61059
 H18 H 0.53211 1.02607 0.61116
 H19 H 0.46986 0.96981 0.38660
 H20 H 0.49771 1.02821 0.38806
 H21 H 0.43696 0.88461 0.49827
 H22 H 0.55638 1.11170 0.50178
 C23 C 0.06656 0.52348 0.54166
 C24 C 0.08280 0.53157 0.49996
 C25 C 0.06693 0.52779 0.45864
 C26 C 0.03357 0.51570 0.45881
 C27 C 0.01634 0.50592 0.50051
 C28 C 0.03291 0.51010 0.54218
 C29 C 0.01550 0.50166 0.58316
 C30 C -0.01749 0.48834 0.58323
 C31 C -0.03439 0.48417 0.54248
 C32 C -0.01740 0.49281 0.50062
 C33 C 0.01727 0.51465 0.41877
 C34 C -0.01562 0.50193 0.41895
 C35 C -0.03393 0.48884 0.45893
 C36 C -0.06794 0.47418 0.45895
 C37 C -0.08393 0.46673 0.50114
 C38 C -0.06781 0.47158 0.54252
 H39 H 0.02706 0.50533 0.61586
 H40 H -0.02951 0.48146 0.61586
 H41 H 0.02987 0.52434 0.38692
 H42 H -0.02633 0.50327 0.38738
 H43 H 0.10841 0.54109 0.49970
 H44 H -0.10978 0.45548 0.50212
 C45 C 0.53632 0.46969 0.45887
 C46 C 0.54358 0.46019 0.50008
 C47 C 0.53738 0.46952 0.54251
 C48 C 0.52156 0.48789 0.54327
 C49 C 0.51371 0.49750 0.50161
 C50 C 0.52153 0.48875 0.45936
 C51 C 0.51465 0.49959 0.41871
 C52 C 0.49908 0.51723 0.41920
 C53 C 0.49079 0.52601 0.46042
 C54 C 0.49782 0.51582 0.50212
 C55 C 0.51189 0.49558 0.58427
 C56 C 0.49766 0.51453 0.58481
 C57 C 0.48905 0.52388 0.54425
 C58 C 0.47330 0.54232 0.54448
 C59 C 0.46751 0.55276 0.50262
 C60 C 0.47541 0.54448 0.46098
 H61 H 0.52126 0.49469 0.38581
 H62 H 0.49369 0.52388 0.38660
 H63 H 0.51480 0.48688 0.61686
 H64 H 0.49382 0.52180 0.61791
 H65 H 0.55580 0.44646 0.49872
 H66 H 0.45501 0.56622 0.50202
 O67 O 0.37894 0.65522 -0.03598
 O68 O 0.37363 0.70645 -0.05219
 C69 C 0.35707 0.71934 -0.06156
 O70 O 0.33207 0.71305 -0.03923
 O71 O 0.28130 0.65490 -0.05188
 C72 C 0.26828 0.62431 -0.05961
 O73 O 0.27428 0.60541 -0.03637
 O74 O 0.33005 0.61248 -0.05061
 C75 C 0.35971 0.62995 -0.05942
 O76 O 0.37635 0.66552 0.05448
 O77 O 0.37425 0.71837 0.03756
 C78 C 0.35311 0.72018 0.06065
 O79 O 0.32341 0.70266 0.05214
 O80 O 0.27139 0.64590 0.03858
 C81 C 0.26938 0.62253 0.06266
 O82 O 0.28575 0.60922 0.05458
 O83 O 0.34038 0.61279 0.04007
 C84 C 0.36335 0.63511 0.06354
 Cr85 Cr 0.37409 0.68534 0.00095
 Cr86 Cr 0.30304 0.67846 -0.00008
 Cr87 Cr 0.30835 0.61169 0.00191
 O88 O 0.32845 0.65851 0.00069
 O89 O 0.62158 0.33733 -0.05062
 O90 O 0.62057 0.28230 -0.04083
 C91 C 0.64060 0.27704 -0.06106
 O92 O 0.66988 0.29082 -0.04972
 O93 O 0.72417 0.34602 -0.03753
 C94 C 0.72930 0.37143 -0.05953
 O95 O 0.71575 0.38739 -0.04993
 O96 O 0.66346 0.38810 -0.03995
 C97 C 0.63818 0.36757 -0.06111
 O98 O 0.62013 0.34335 0.04089
 O99 O 0.62044 0.28917 0.05067
 C100 C 0.63650 0.27606 0.06167
 O101 O 0.66199 0.28223 0.04128
 O102 O 0.71440 0.33816 0.05354
 C103 C 0.72807 0.36844 0.06373
 O104 O 0.72359 0.38885 0.04163
 O105 O 0.66940 0.38704 0.05137
 C106 C 0.63995 0.36966 0.06175
 Cr107 Cr 0.62261 0.31406 0.00004
 Cr108 Cr 0.69166 0.31531 0.00180
 Cr109 Cr 0.69209 0.38585 0.00085
 O110 O 0.66872 0.33838 0.00090
 C111 C 0.43105 0.86804 -0.33846
 C112 C 0.43332 0.89887 -0.33956
 C113 C 0.44385 0.91842 -0.37883
 C114 C 0.45320 0.90812 -0.41794
 C115 C 0.45040 0.87693 -0.41675
 C116 C 0.43947 0.85725 -0.37774
 C117 C 0.42008 0.84719 -0.29663
 C118 C 0.43335 0.82793 -0.28477
 C119 C 0.42287 0.80793 -0.24605
 C120 C 0.39920 0.80700 -0.21754
 C121 C 0.38604 0.82642 -0.22916
 C122 C 0.39624 0.84615 -0.26833
 C123 C 0.38840 0.78575 -0.17609
 C124 C 0.35615 0.76948 -0.16181
 C125 C 0.34600 0.74850 -0.12388
 C126 C 0.36778 0.74298 -0.09989
 C127 C 0.40003 0.75961 -0.11364
 C128 C 0.41026 0.78094 -0.15095
 H129 H 0.42710 0.90807 -0.30997
 H130 H 0.44387 0.94131 -0.37884
 H131 H 0.45746 0.86789 -0.44566
 H132 H 0.43742 0.83336 -0.37860
 H133 H 0.45210 0.82844 -0.30522
 H134 H 0.43318 0.79290 -0.23880
 H135 H 0.36804 0.82665 -0.20780
 H136 H 0.38515 0.86028 -0.27666
 H137 H 0.33854 0.77224 -0.18062
 H138 H 0.32096 0.73585 -0.11414
 H139 H 0.41746 0.75619 -0.09540
 H140 H 0.43542 0.79369 -0.16004
 C141 C 0.12434 0.54775 -0.33679
 C142 C 0.13042 0.57184 -0.36993
 C143 C 0.11142 0.56376 -0.40891
 C144 C 0.08621 0.53130 -0.41630
 C145 C 0.08092 0.50678 -0.38455
 C146 C 0.09944 0.51500 -0.34481
 C147 C 0.14377 0.55708 -0.29409
 C148 C 0.15066 0.53496 -0.27222
 C149 C 0.16922 0.54418 -0.23245
 C150 C 0.18188 0.57597 -0.21392
 C151 C 0.17500 0.59803 -0.23594
 C152 C 0.15589 0.58858 -0.27493
 C153 C 0.20261 0.58653 -0.17242
 C154 C 0.20284 0.60977 -0.14219
 C155 C 0.22405 0.62180 -0.10542
 C156 C 0.24482 0.61013 -0.09704
 C157 C 0.24382 0.58591 -0.12572
 C158 C 0.22320 0.57451 -0.16338
 H159 H 0.15000 0.59704 -0.36602
 H160 H 0.11636 0.58295 -0.43343
 H161 H 0.06209 0.48140 -0.39019
 H162 H 0.09382 0.49576 -0.32013
 H163 H 0.14213 0.51062 -0.28608
 H164 H 0.17351 0.52626 -0.21624
 H165 H 0.18473 0.62295 -0.22356
 H166 H 0.15061 0.60614 -0.28993
 H167 H 0.18672 0.61889 -0.14690
 H168 H 0.22415 0.64018 -0.08332
 H169 H 0.25986 0.57677 -0.12001
 H170 H 0.22419 0.55704 -0.18607
 C171 C 0.44011 0.56628 -0.33580
 C172 C 0.45644 0.58994 -0.37005
 C173 C 0.46727 0.58197 -0.40925
 C174 C 0.46234 0.55012 -0.41534
 C175 C 0.44468 0.52608 -0.38191
 C176 C 0.43416 0.53416 -0.34241
 C177 C 0.42908 0.57507 -0.29370
 C178 C 0.39985 0.55217 -0.27295
 C179 C 0.38929 0.56063 -0.23388
 C180 C 0.40745 0.59236 -0.21480
 C181 C 0.43681 0.61518 -0.23531
 C182 C 0.44755 0.60659 -0.27408
 C183 C 0.39543 0.60180 -0.17439
 C184 C 0.41666 0.62319 -0.14081
 C185 C 0.40520 0.63245 -0.10343
 C186 C 0.37222 0.62019 -0.09852
 C187 C 0.35100 0.59868 -0.13187
 C188 C 0.36246 0.58978 -0.16943
 H189 H 0.46070 0.61468 -0.36679
 H190 H 0.48038 0.60116 -0.43432
 H191 H 0.43853 0.50076 -0.38654
 H192 H 0.42156 0.51522 -0.31692
 H193 H 0.38478 0.52781 -0.28730
 H194 H 0.36683 0.54220 -0.21862
 H195 H 0.45128 0.63996 -0.22195
 H196 H 0.47044 0.62470 -0.28862
 H197 H 0.44213 0.63256 -0.14313
 H198 H 0.42211 0.64896 -0.07818
 H199 H 0.32548 0.58911 -0.12940
 H200 H 0.34546 0.57391 -0.19504
 C201 C 0.56679 0.12587 -0.33552
 C202 C 0.58637 0.13605 -0.37450
 C203 C 0.57679 0.11681 -0.41395
 C204 C 0.54714 0.08673 -0.41595
 C205 C 0.52727 0.07699 -0.37706
 C206 C 0.53712 0.09601 -0.33732
 C207 C 0.57714 0.14662 -0.29357
 C208 C 0.55466 0.14861 -0.26578
 C209 C 0.56453 0.16865 -0.22702
 C210 C 0.59722 0.18769 -0.21534
 C211 C 0.61967 0.18558 -0.24304
 C212 C 0.60975 0.16512 -0.28134
 C213 C 0.60792 0.21004 -0.17499
 C214 C 0.63467 0.21565 -0.14915
 C215 C 0.64534 0.23746 -0.11226
 C216 C 0.62915 0.25370 -0.09976
 C217 C 0.60214 0.24775 -0.12493
 C218 C 0.59182 0.22642 -0.16234
 H219 H 0.60908 0.15920 -0.37489
 H220 H 0.59314 0.12530 -0.44261
 H221 H 0.50359 0.05499 -0.37761
 H222 H 0.52140 0.08721 -0.30799
 H223 H 0.52941 0.13512 -0.27431
 H224 H 0.54644 0.16913 -0.20617
 H225 H 0.64507 0.20016 -0.23567
 H226 H 0.62774 0.16382 -0.30132
 H227 H 0.64729 0.20300 -0.15712
 H228 H 0.66606 0.24135 -0.09318
 H229 H 0.58939 0.26020 -0.11633
 H230 H 0.57159 0.22335 -0.18187
 C231 C 0.87514 0.44377 -0.33506
 C232 C 0.86900 0.42038 -0.36928
 C233 C 0.88771 0.42946 -0.40875
 C234 C 0.91285 0.46211 -0.41502
 C235 C 0.91867 0.48572 -0.38152
 C236 C 0.90026 0.47659 -0.34171
 C237 C 0.85519 0.43398 -0.29294
 C238 C 0.84736 0.45569 -0.27222
 C239 C 0.82811 0.44623 -0.23324
 C240 C 0.81583 0.41464 -0.21424
 C241 C 0.82387 0.39302 -0.23476
 C242 C 0.84344 0.40263 -0.27341
 C243 C 0.79419 0.40406 -0.17385
 C244 C 0.79513 0.38315 -0.14054
 C245 C 0.77412 0.37254 -0.10336
 C246 C 0.75201 0.38297 -0.09830
 C247 C 0.75131 0.40416 -0.13124
 C248 C 0.77197 0.41439 -0.16867
 H249 H 0.84943 0.39510 -0.36594
 H250 H 0.88256 0.41098 -0.43452
 H251 H 0.93769 0.51116 -0.38609
 H252 H 0.90595 0.49520 -0.31597
 H253 H 0.85561 0.47987 -0.28652
 H254 H 0.82290 0.46377 -0.21799
 H255 H 0.81457 0.36837 -0.22150
 H256 H 0.84939 0.38543 -0.28792
 H257 H 0.81226 0.37514 -0.14294
 H258 H 0.77537 0.35637 -0.07839
 H259 H 0.73429 0.41235 -0.12860
 H260 H 0.77002 0.42989 -0.19404
 C261 C 0.56909 0.44217 -0.33907
 C262 C 0.55427 0.41993 -0.37534
 C263 C 0.54379 0.42895 -0.41393
 C264 C 0.54789 0.46061 -0.41776
 C265 C 0.56434 0.48342 -0.38246
 C266 C 0.57420 0.47416 -0.34335
 C267 C 0.57904 0.43191 -0.29711
 C268 C 0.60628 0.45467 -0.27215
 C269 C 0.61544 0.44490 -0.23283
 C270 C 0.59802 0.41192 -0.21784
 C271 C 0.57088 0.38915 -0.24293
 C272 C 0.56132 0.39908 -0.28162
 C273 C 0.60827 0.40116 -0.17666
 C274 C 0.58549 0.37550 -0.14870
 C275 C 0.59519 0.36453 -0.11122
 C276 C 0.62780 0.37952 -0.10008
 C277 C 0.65058 0.40559 -0.12715
 C278 C 0.64097 0.41605 -0.16529
 H279 H 0.55079 0.39543 -0.37417
 H280 H 0.53156 0.41061 -0.44032
 H281 H 0.57000 0.50870 -0.38525
 H282 H 0.58557 0.49210 -0.31634
 H283 H 0.62087 0.48006 -0.28317
 H284 H 0.63614 0.46335 -0.21413
 H285 H 0.55709 0.36343 -0.23316
 H286 H 0.53984 0.38089 -0.29919
 H287 H 0.56008 0.36392 -0.15550
 H288 H 0.57715 0.34456 -0.09060
 H289 H 0.67593 0.41730 -0.11956
 H290 H 0.65933 0.43532 -0.18636
 C291 C 0.87433 0.44541 0.33908
 C292 C 0.90037 0.44051 0.34260
 C293 C 0.91930 0.44990 0.38189
 C294 C 0.91332 0.46528 0.41851
 C295 C 0.88682 0.46963 0.41504
 C296 C 0.86773 0.45995 0.37590
 C297 C 0.85380 0.43488 0.29753
 C298 C 0.84097 0.45357 0.28094
 C299 C 0.82109 0.44325 0.24255
 C300 C 0.81374 0.41410 0.21953
 C301 C 0.82697 0.39569 0.23574
 C302 C 0.84658 0.40584 0.27435
 C303 C 0.79196 0.40260 0.17930
 C304 C 0.77024 0.36874 0.17240
 C305 C 0.74977 0.35776 0.13474
 C306 C 0.75022 0.38037 0.10321
 C307 C 0.77172 0.41425 0.11016
 C308 C 0.79247 0.42524 0.14765
 H309 H 0.90624 0.42942 0.31493
 H310 H 0.93821 0.44430 0.38397
 H311 H 0.88122 0.48134 0.44220
 H312 H 0.84749 0.46351 0.37481
 H313 H 0.84639 0.47632 0.29751
 H314 H 0.81107 0.45786 0.23139
 H315 H 0.82226 0.37340 0.21850
 H316 H 0.85566 0.39058 0.28641
 H317 H 0.76864 0.35063 0.19652
 H318 H 0.73323 0.33150 0.13070
 H319 H 0.77273 0.43228 0.08637
 H320 H 0.80920 0.45145 0.15151
 C321 C 0.56269 0.12788 0.33928
 C322 C 0.55257 0.13769 0.37785
 C323 C 0.54223 0.11814 0.41704
 C324 C 0.54173 0.08810 0.41904
 C325 C 0.55307 0.07901 0.38091
 C326 C 0.56291 0.09832 0.34142
 C327 C 0.57303 0.14850 0.29719
 C328 C 0.59778 0.15086 0.26965
 C329 C 0.60750 0.17036 0.23033
 C330 C 0.59309 0.18846 0.21783
 C331 C 0.56838 0.18611 0.24543
 C332 C 0.55830 0.16620 0.28428
 C333 C 0.60404 0.21004 0.17667
 C334 C 0.58222 0.21439 0.15055
 C335 C 0.59273 0.23572 0.11311
 C336 C 0.62517 0.25268 0.10032
 C337 C 0.64690 0.24787 0.12564
 C338 C 0.63653 0.22704 0.16361
 H339 H 0.55279 0.16068 0.37802
 H340 H 0.53375 0.12624 0.44538
 H341 H 0.55488 0.05714 0.38178
 H342 H 0.57049 0.08986 0.31247
 H343 H 0.61003 0.13800 0.27871
 H344 H 0.62625 0.17108 0.20963
 H345 H 0.55701 0.20004 0.23746
 H346 H 0.53879 0.16460 0.30407
 H347 H 0.55693 0.20121 0.15882
 H348 H 0.57540 0.23876 0.09395
 H349 H 0.67214 0.26095 0.11685
 H350 H 0.65418 0.22490 0.18329
 C351 C 0.56464 0.44080 0.33640
 C352 C 0.53245 0.43183 0.34304
 C353 C 0.52308 0.44084 0.38287
 C354 C 0.54585 0.46003 0.41619
 C355 C 0.57787 0.46886 0.40987
 C356 C 0.58711 0.45914 0.37073
 C357 C 0.57481 0.43092 0.29428
 C358 C 0.60596 0.45091 0.27665
 C359 C 0.61602 0.44110 0.23841
 C360 C 0.59498 0.41140 0.21575
 C361 C 0.56354 0.39183 0.23264
 C362 C 0.55373 0.40123 0.27162
 C363 C 0.60598 0.40070 0.17532
 C364 C 0.59341 0.36694 0.16637
 C365 C 0.60400 0.35693 0.12890
 C366 C 0.62801 0.38037 0.10020
 C367 C 0.64079 0.41402 0.10897
 C368 C 0.62958 0.42408 0.14569
 H369 H 0.51443 0.41810 0.31737
 H370 H 0.49809 0.43314 0.38752
 H371 H 0.59575 0.48319 0.43550
 H372 H 0.61187 0.46570 0.36785
 H373 H 0.62277 0.47431 0.29228
 H374 H 0.64056 0.45670 0.22719
 H375 H 0.54632 0.36914 0.21580
 H376 H 0.52971 0.38484 0.28427
 H377 H 0.57584 0.34812 0.18877
 H378 H 0.59404 0.33080 0.12307
 H379 H 0.65913 0.43255 0.08698
 H380 H 0.63934 0.45023 0.15052
 C381 C 0.12483 0.55316 0.33755
 C382 C 0.13307 0.57624 0.37280
 C383 C 0.11390 0.56814 0.41168
 C384 C 0.08626 0.53674 0.41617
 C385 C 0.07820 0.51350 0.38117
 C386 C 0.09712 0.52177 0.34193
 C387 C 0.14537 0.56177 0.29657
 C388 C 0.13179 0.55525 0.25276
 C389 C 0.15135 0.56417 0.21413
 C390 C 0.18476 0.57926 0.21867
 C391 C 0.19827 0.58533 0.26249
 C392 C 0.17877 0.57688 0.30107
 C393 C 0.20562 0.58921 0.17788
 C394 C 0.22999 0.58178 0.17455
 C395 C 0.25029 0.59202 0.13666
 C396 C 0.24690 0.61032 0.10168
 C397 C 0.22238 0.61759 0.10497
 C398 C 0.20179 0.60691 0.14255
 H399 H 0.15421 0.60067 0.37005
 H400 H 0.12066 0.58636 0.43839
 H401 H 0.05736 0.48891 0.38440
 H402 H 0.09051 0.50344 0.31542
 H403 H 0.10611 0.54379 0.24846
 H404 H 0.14039 0.55910 0.18067
 H405 H 0.22398 0.59716 0.26685
 H406 H 0.18976 0.58193 0.33451
 H407 H 0.23326 0.56797 0.20125
 H408 H 0.26903 0.58615 0.13519
 H409 H 0.21914 0.63159 0.07853
 H410 H 0.18332 0.61315 0.14454
 C411 C 0.42563 0.87036 0.33580
 C412 C 0.41282 0.88999 0.34838
 C413 C 0.42284 0.90870 0.38845
 C414 C 0.44647 0.90885 0.41602
 C415 C 0.45893 0.88900 0.40400
 C416 C 0.44855 0.86986 0.36451
 C417 C 0.41508 0.85024 0.29328
 C418 C 0.43672 0.84505 0.26819
 C419 C 0.42661 0.82495 0.22954
 C420 C 0.39471 0.80995 0.21429
 C421 C 0.37326 0.81586 0.23865
 C422 C 0.38325 0.83552 0.27781
 C423 C 0.38373 0.78760 0.17393
 C424 C 0.35247 0.75981 0.17228
 C425 C 0.34241 0.73834 0.13507
 C426 C 0.36352 0.74376 0.09898
 C427 C 0.39471 0.77145 0.10039
 C428 C 0.40460 0.79331 0.13720
 H429 H 0.39535 0.89125 0.32705
 H430 H 0.41248 0.92338 0.39771
 H431 H 0.47675 0.88832 0.42535
 H432 H 0.45828 0.85437 0.35684
 H433 H 0.46159 0.85649 0.27839
 H434 H 0.44377 0.82071 0.21220
 H435 H 0.34866 0.80526 0.22757
 H436 H 0.36577 0.83860 0.29639
 H437 H 0.33590 0.75411 0.20022
 H438 H 0.31831 0.71697 0.13511
 H439 H 0.41139 0.77638 0.07281
 H440 H 0.42860 0.81477 0.13669
 C441 C 0.44478 0.57143 0.33915
 C442 C 0.47765 0.58421 0.34744
 C443 C 0.48777 0.57584 0.38716
 C444 C 0.46521 0.55393 0.41883
 C445 C 0.43250 0.54147 0.41101
 C446 C 0.42239 0.55019 0.37174
 C447 C 0.43378 0.58031 0.29704
 C448 C 0.40477 0.55723 0.27587
 C449 C 0.39378 0.56588 0.23739
 C450 C 0.41171 0.59771 0.21859
 C451 C 0.44108 0.62056 0.23914
 C452 C 0.45186 0.61206 0.27800
 C453 C 0.39954 0.60724 0.17836
 C454 C 0.40511 0.63942 0.17447
 C455 C 0.39359 0.64843 0.13701
 C456 C 0.37578 0.62538 0.10278
 C457 C 0.36993 0.59314 0.10666
 C458 C 0.38188 0.58424 0.14384
 H459 H 0.49559 0.60037 0.32301
 H460 H 0.51316 0.58608 0.39298
 H461 H 0.41476 0.52490 0.43541
 H462 H 0.39700 0.54054 0.36724
 H463 H 0.39046 0.53236 0.28897
 H464 H 0.37089 0.54771 0.22294
 H465 H 0.45585 0.64512 0.22522
 H466 H 0.47412 0.63063 0.29355
 H467 H 0.41792 0.65761 0.20078
 H468 H 0.39819 0.67338 0.13526
 H469 H 0.35645 0.57491 0.08065
 H470 H 0.37756 0.55941 0.14521
   
