data_POSCAR
  _audit_creation_date              2014-09-24
  _audit_creation_method            'ToBaCCo'
  _symmetry_space_group_name_H-M    'P1'
  _symmetry_Int_Tables_number       1
  _symmetry_cell_setting            triclinic
  loop_
  _symmetry_equiv_pos_as_xyz
 x,y,z
_cell_length_a 23.4617
_cell_length_b 23.1362
_cell_length_c 37.9250
_cell_angle_alpha 87.594000
_cell_angle_beta 87.113900
_cell_angle_gamma 97.224000
loop_
  _atom_site_label
  _atom_site_type_symbol
  _atom_site_fract_x
  _atom_site_fract_y
  _atom_site_fract_z
O1 O 0.05878 0.56676 1.02839
 O2 O 0.03699 0.45531 0.96186
 O3 O 0.04988 0.56869 0.96036
 O4 O 0.04862 0.45276 1.02963
 O5 O -0.04514 0.45118 1.03916
 O6 O -0.04412 0.56578 0.96830
 O7 O -0.05701 0.45138 0.97145
 O8 O -0.03528 0.56423 1.03646
 Cu9 Cu 0.05798 0.51117 0.99423
 Cu10 Cu -0.05482 0.50793 1.00458
 C11 C 0.01531 0.58477 1.04367
 C12 C -0.01387 0.43375 0.95567
 C13 C 0.00333 0.58741 0.95239
 C14 C 0.00166 0.43204 1.04623
 O15 O 0.55993 0.00729 0.46537
 O16 O 0.44440 0.01295 0.53434
 O17 O 0.55598 0.01450 0.53346
 O18 O 0.44861 0.00834 0.46601
 O19 O 0.43724 -0.08779 0.47115
 O20 O 0.54278 -0.08153 0.54024
 O21 O 0.43184 -0.08316 0.53961
 O22 O 0.54829 -0.08861 0.47182
 Cu23 Cu 0.50343 0.02039 0.49918
 Cu24 Cu 0.48885 -0.09489 0.50625
 C25 C 0.57443 -0.04173 0.45702
 C26 C 0.41804 -0.03430 0.54860
 C27 C 0.56780 -0.03233 0.54840
 C28 C 0.42436 -0.04064 0.45708
 C29 C 0.12380 0.04392 0.27958
 H30 H 0.12076 0.07991 0.26102
 C31 C 0.17056 0.04629 0.30110
 H32 H 0.20295 0.08414 0.29859
 C33 C 0.08702 -0.04979 0.30427
 H34 H 0.05560 -0.08812 0.30462
 C35 C 0.13279 -0.04906 0.32645
 H36 H 0.13438 -0.08603 0.34467
 N37 N 0.08260 -0.00328 0.28183
 C38 C -0.03581 -0.08432 0.20806
 H39 H -0.06893 -0.05582 0.20983
 C40 C -0.04241 -0.13215 0.18675
 H41 H -0.08069 -0.13978 0.17195
 C42 C 0.05547 -0.10695 0.22407
 H43 H 0.09401 -0.09631 0.23815
 C44 C 0.05051 -0.15549 0.20320
 H45 H 0.08491 -0.18259 0.20215
 Zn46 Zn 0.01856 -0.00491 0.25261
 N47 N 0.01254 -0.07260 0.22612
 C48 C 0.03966 0.05494 0.18566
 N49 N 0.02915 0.06174 0.22076
 C50 C 0.02534 0.11540 0.23342
 C51 C 0.02970 0.16453 0.21029
 C52 C 0.04539 0.10306 0.16169
 C53 C -0.06395 -0.04389 0.30887
 C54 C -0.11406 -0.04350 0.33029
 C55 C -0.13976 0.03438 0.29239
 C56 C -0.08914 0.03249 0.27169
 N57 N -0.05155 -0.00529 0.28063
 H58 H 0.04337 0.01213 0.17613
 H59 H 0.01767 0.11977 0.26150
 H60 H 0.02555 0.20681 0.22064
 H61 H 0.05290 0.09688 0.13377
 H62 H -0.03502 -0.07495 0.31511
 H63 H -0.12206 -0.07348 0.35321
 H64 H -0.16895 0.06482 0.28479
 H65 H -0.08043 0.06097 0.24827
 C66 C 0.00114 -0.16852 0.18404
 C67 C 0.17525 -0.00037 0.32525
 C68 C -0.15246 -0.00352 0.32240
 C69 C 0.03957 0.15848 0.17394
 C70 C -0.00268 0.14256 0.75925
 H71 H 0.00550 0.14695 0.73087
 C72 C 0.00168 0.19216 0.77920
 H73 H 0.01325 0.23484 0.76611
 C74 C -0.02777 0.08158 0.81091
 H75 H -0.03964 0.03846 0.82316
 C76 C -0.02501 0.13004 0.83176
 H77 H -0.03384 0.12380 0.86007
 N78 N -0.01552 0.08854 0.77542
 C79 C 0.05714 -0.01980 0.69796
 H80 H 0.02070 -0.05306 0.69636
 C81 C 0.10695 -0.02152 0.67654
 H82 H 0.10817 -0.05597 0.65816
 C83 C 0.09891 0.06613 0.72344
 H84 H 0.09614 0.09953 0.74225
 C85 C 0.14966 0.06605 0.70252
 H86 H 0.18535 0.09974 0.70537
 Zn87 Zn -0.01697 0.02277 0.74721
 N88 N 0.05353 0.02419 0.72030
 C89 C -0.06657 0.03626 0.68139
 N90 N -0.07826 0.02471 0.71668
 C91 C -0.13337 0.01626 0.73072
 C92 C -0.17946 0.01600 0.70874
 C93 C -0.11128 0.03764 0.65859
 C94 C 0.01534 -0.05218 0.79948
 C95 C 0.01249 -0.10178 0.82202
 C96 C -0.07492 -0.14076 0.79566
 C97 C -0.07036 -0.09029 0.77356
 N98 N -0.02617 -0.04686 0.77624
 H99 H -0.02256 0.04487 0.67084
 H100 H -0.14149 0.00883 0.75898
 H101 H -0.22317 0.00816 0.72012
 H102 H -0.10136 0.04626 0.63052
 H103 H 0.05047 -0.01736 0.80071
 H104 H 0.04530 -0.10441 0.84089
 H105 H -0.11019 -0.17502 0.79308
 H106 H -0.10182 -0.08635 0.75408
 C107 C 0.15396 0.02207 0.67845
 C108 C -0.00918 0.18603 0.81595
 C109 C -0.03320 -0.14687 0.82038
 C110 C -0.16846 0.02665 0.67221
 C111 C 0.07766 -0.33778 0.07339
 C112 C 0.02326 -0.36951 0.06979
 C113 C -0.02411 -0.35628 0.09076
 C114 C -0.01755 -0.31145 0.11456
 C115 C 0.03707 -0.27905 0.11747
 C116 C 0.08447 -0.29283 0.09694
 C117 C 0.04317 -0.23299 0.14051
 C118 C -0.00466 -0.21891 0.16081
 C119 C -0.05849 -0.25239 0.15815
 C120 C -0.06490 -0.29810 0.13521
 H121 H -0.06626 -0.38061 0.08845
 H122 H 0.12671 -0.26855 0.09889
 H123 H 0.08482 -0.20724 0.14193
 H124 H -0.10700 -0.32281 0.13350
 H125 H 0.11483 -0.34706 0.05755
 H126 H -0.09580 -0.24332 0.17392
 C127 C -0.04443 0.37264 0.09922
 C128 C 0.00149 0.38469 0.07366
 C129 C 0.04685 0.35034 0.07395
 C130 C 0.04592 0.30388 0.09904
 C131 C -0.00027 0.29239 0.12481
 C132 C -0.04507 0.32719 0.12476
 C133 C -0.00134 0.24568 0.14977
 C134 C 0.04242 0.20943 0.14874
 C135 C 0.08793 0.22097 0.12292
 C136 C 0.08996 0.26813 0.09846
 H137 H 0.08221 0.35886 0.05414
 H138 H -0.08091 0.31888 0.14424
 H139 H -0.03696 0.23647 0.16937
 H140 H 0.12559 0.27622 0.07883
 H141 H -0.07977 0.39859 0.09956
 H142 H 0.12211 0.19357 0.12184
 C143 C 0.34272 -0.08486 0.59235
 C144 C 0.37028 -0.03275 0.57547
 C145 C 0.35074 0.02039 0.58376
 C146 C 0.30361 0.02130 0.60798
 C147 C 0.27585 -0.03149 0.62436
 C148 C 0.29607 -0.08423 0.61661
 C149 C 0.22786 -0.03082 0.64786
 C150 C 0.20668 0.02193 0.65508
 C151 C 0.23514 0.07430 0.63902
 C152 C 0.28319 0.07401 0.61573
 H153 H 0.37151 0.06092 0.57096
 H154 H 0.27538 -0.12509 0.62899
 H155 H 0.20691 -0.07141 0.66047
 H156 H 0.30387 0.11491 0.60340
 H157 H 0.35691 -0.12640 0.58659
 H158 H 0.21939 0.11545 0.64381
 C159 C -0.38616 -0.07647 0.59942
 C160 C -0.38830 -0.02938 0.57510
 C161 C -0.34738 0.02039 0.57592
 C162 C -0.30418 0.02274 0.60026
 C163 C -0.30262 -0.02469 0.62480
 C164 C -0.34398 -0.07395 0.62428
 C165 C -0.25908 -0.02245 0.64897
 C166 C -0.21623 0.02589 0.64822
 C167 C -0.21798 0.07262 0.62363
 C168 C -0.26190 0.07133 0.60005
 H169 H -0.34825 0.05674 0.55705
 H170 H -0.34332 -0.11078 0.64280
 H171 H -0.25745 -0.05892 0.66765
 H172 H -0.26237 0.10797 0.58136
 H173 H -0.41732 -0.11519 0.59934
 H174 H -0.18534 0.11026 0.62279
 C175 C 0.05754 -0.34321 0.90891
 C176 C 0.00481 -0.36727 0.92630
 C177 C -0.04575 -0.34401 0.91759
 C178 C -0.04335 -0.29684 0.89273
 C179 C 0.01007 -0.27275 0.87608
 C180 C 0.06008 -0.29660 0.88409
 C181 C 0.01285 -0.22467 0.85201
 C182 C -0.03706 -0.19974 0.84443
 C183 C -0.09020 -0.22463 0.86066
 C184 C -0.09333 -0.27275 0.88459
 H185 H -0.08690 -0.36179 0.93048
 H186 H 0.10136 -0.27875 0.87145
 H187 H 0.05395 -0.20656 0.83922
 H188 H -0.13472 -0.29060 0.89707
 H189 H 0.09734 -0.35993 0.91468
 H190 H -0.12921 -0.20598 0.85551
 C191 C -0.07497 0.34899 0.93245
 C192 C -0.02300 0.38684 0.93051
 C193 C 0.02055 0.37843 0.90511
 C194 C 0.01255 0.33236 0.88219
 C195 C -0.03927 0.29353 0.88510
 C196 C -0.08290 0.30252 0.91011
 C197 C -0.04637 0.24611 0.86317
 C198 C -0.00276 0.23753 0.83791
 C199 C 0.04786 0.27727 0.83448
 C200 C 0.05564 0.32411 0.85659
 H201 H 0.06060 0.40770 0.90319
 H202 H -0.12298 0.27338 0.91258
 H203 H -0.08578 0.21588 0.86565
 H204 H 0.09550 0.35357 0.85385
 H205 H -0.10910 0.35451 0.95185
 H206 H 0.08203 0.27114 0.81525
 C207 C -0.36335 -0.09837 0.42263
 C208 C -0.37998 -0.04421 0.43179
 C209 C -0.34904 0.00729 0.41585
 C210 C -0.30179 0.00474 0.39198
 C211 C -0.28522 -0.04988 0.38355
 C212 C -0.31660 -0.10112 0.39876
 C213 C -0.23714 -0.05239 0.36038
 C214 C -0.20494 -0.00092 0.34559
 C215 C -0.22230 0.05319 0.35381
 C216 C -0.27028 0.05600 0.37674
 H217 H -0.36097 0.04953 0.42234
 H218 H -0.30458 -0.14340 0.39250
 H219 H -0.22479 -0.09444 0.35386
 H220 H -0.28229 0.09831 0.38292
 H221 H -0.38609 -0.13895 0.43416
 H222 H -0.19794 0.09352 0.34312
 C223 C 0.35955 -0.09537 0.41578
 C224 C 0.38007 -0.04254 0.43055
 C225 C 0.35688 0.00846 0.42048
 C226 C 0.31316 0.00662 0.39650
 C227 C 0.29275 -0.04672 0.38188
 C228 C 0.31651 -0.09739 0.39150
 C229 C 0.24853 -0.04862 0.35819
 C230 C 0.22365 0.00198 0.34927
 C231 C 0.24452 0.05478 0.36404
 C232 C 0.28897 0.05713 0.38728
 H233 H 0.37203 0.04946 0.43181
 H234 H 0.30139 -0.13869 0.38056
 H235 H 0.23365 -0.08950 0.34666
 H236 H 0.30390 0.09834 0.39840
 H237 H 0.37674 -0.13525 0.42302
 H238 H 0.22568 0.09423 0.35820
   
