data_POSCAR
  _audit_creation_date              2014-09-24
  _audit_creation_method            'ToBaCCo'
  _symmetry_space_group_name_H-M    'P1'
  _symmetry_Int_Tables_number       1
  _symmetry_cell_setting            triclinic
  loop_
  _symmetry_equiv_pos_as_xyz
 x,y,z
_cell_length_a 30.2347
_cell_length_b 30.1918
_cell_length_c 30.1966
_cell_angle_alpha 90.029300
_cell_angle_beta 90.031500
_cell_angle_gamma 90.006300
loop_
  _atom_site_label
  _atom_site_type_symbol
  _atom_site_fract_x
  _atom_site_fract_y
  _atom_site_fract_z
C1 C 0.59022 1.00546 -0.45623
 C2 C 0.61171 1.00288 -0.49728
 C3 C 0.58893 1.00252 -0.53772
 C4 C 0.54191 1.00466 -0.53723
 C5 C 0.51905 1.00644 -0.49607
 C6 C 0.54316 1.00708 -0.45548
 C7 C 0.51951 1.01206 -0.41565
 C8 C 0.47363 1.01223 -0.41502
 C9 C 0.44912 1.01040 -0.45440
 C10 C 0.47182 1.00789 -0.49546
 C11 C 0.51690 1.00317 -0.57649
 C12 C 0.47114 1.00659 -0.57588
 C13 C 0.44744 1.00723 -0.53586
 C14 C 0.40028 1.00966 -0.53484
 C15 C 0.37907 1.01192 -0.49356
 C16 C 0.40244 1.01128 -0.45376
 H17 H 0.53590 1.01662 -0.38424
 H18 H 0.45767 1.01469 -0.38309
 H19 H 0.53209 0.99928 -0.60857
 H20 H 0.45496 1.00905 -0.60762
 H21 H 0.64758 1.00129 -0.49779
 H22 H 0.34320 1.01209 -0.49206
 C23 C -0.46601 1.59403 -0.01439
 C24 C -0.50611 1.61618 -0.02027
 C25 C -0.54674 1.59366 -0.02276
 C26 C -0.54639 1.54645 -0.02159
 C27 C -0.50594 1.52344 -0.01454
 C28 C -0.46567 1.54737 -0.01078
 C29 C -0.42595 1.52392 -0.00502
 C30 C -0.42563 1.47801 -0.00257
 C31 C -0.46479 1.45346 -0.00740
 C32 C -0.50549 1.47625 -0.01291
 C33 C -0.58442 1.52145 -0.03144
 C34 C -0.58399 1.47545 -0.02972
 C35 C -0.54551 1.45200 -0.01805
 C36 C -0.54498 1.40484 -0.01537
 C37 C -0.50397 1.38336 -0.01075
 C38 C -0.46426 1.40668 -0.00704
 H39 H -0.39445 1.54068 -0.00276
 H40 H -0.39409 1.46201 0.00279
 H41 H -0.61473 1.53705 -0.04226
 H42 H -0.61400 1.45852 -0.03930
 H43 H -0.50549 1.65210 -0.02067
 H44 H -0.50270 1.34754 -0.00845
 C45 C 0.02242 0.40390 0.46589
 C46 C 0.02900 0.38297 0.50687
 C47 C 0.02962 0.40613 0.54720
 C48 C 0.02681 0.45314 0.54614
 C49 C 0.01968 0.47537 0.50526
 C50 C 0.01751 0.45083 0.46501
 C51 C 0.01416 0.47437 0.42490
 C52 C 0.00968 0.52009 0.42424
 C53 C 0.01152 0.54495 0.46343
 C54 C 0.01679 0.52259 0.50442
 C55 C 0.03537 0.47875 0.58411
 C56 C 0.03253 0.52463 0.58322
 C57 C 0.02077 0.54739 0.54435
 C58 C 0.01709 0.59449 0.54336
 C59 C 0.01171 0.61542 0.50215
 C60 C 0.00908 0.59168 0.46258
 H61 H 0.01615 0.45815 0.39312
 H62 H 0.00575 0.53575 0.39229
 H63 H 0.04617 0.46371 0.61475
 H64 H 0.04139 0.54200 0.61323
 H65 H 0.02961 0.34705 0.50760
 H66 H 0.00824 0.65115 0.50062
 O67 O -0.11798 1.00250 -0.05673
 O68 O 0.10971 0.99851 -0.05396
 O69 O -0.00366 1.06048 -0.10849
 O70 O -0.00203 0.94114 -0.10978
 O71 O -0.00355 0.88605 -0.05696
 O72 O -0.00439 1.11451 -0.05450
 O73 O 0.05615 0.99828 -0.10835
 O74 O -0.06320 1.00317 -0.10977
 Zr75 Zr -0.00396 1.00046 -0.07301
 O76 O 0.03536 0.95949 -0.03550
 O77 O -0.04425 1.04078 -0.03567
 C78 C -0.10432 1.00382 -0.09747
 C79 C 0.09697 0.99771 -0.09502
 C80 C -0.00382 1.10148 -0.09554
 C81 C -0.00165 0.89989 -0.09765
 H82 H 0.05510 1.05855 -0.05291
 O83 O 0.03580 1.03977 -0.03436
 H84 H -0.06331 0.94177 -0.05587
 O85 O -0.04460 0.96023 -0.03635
 O86 O 0.10836 0.99920 0.06585
 O87 O -0.11933 0.99850 0.06307
 O88 O 0.05617 1.11339 0.00771
 O89 O 0.05433 0.88490 0.00179
 O90 O -0.06585 0.88591 0.00422
 O91 O -0.06400 1.11432 0.00346
 O92 O -0.00352 1.05786 0.11881
 O93 O -0.00840 0.93841 0.11738
 O94 O -0.00312 1.11306 0.06603
 O95 O -0.00729 0.88466 0.06310
 O96 O 0.10918 1.05847 0.00766
 O97 O -0.11801 1.06032 0.00303
 O98 O -0.11898 0.94078 0.00333
 O99 O 0.10824 0.93894 0.00240
 O100 O 0.05352 0.99948 0.11881
 O101 O -0.06569 0.99696 0.11732
 Zr102 Zr 0.07288 0.99897 0.00547
 Zr103 Zr -0.08254 1.00026 0.00357
 Zr104 Zr -0.00423 1.07794 0.00536
 Zr105 Zr -0.00544 0.92131 0.00356
 Zr106 Zr -0.00565 0.99858 0.08197
 O107 O -0.04575 0.95909 0.04358
 O108 O 0.03513 1.03914 0.04548
 C109 C 0.09466 1.00000 0.10661
 C110 C -0.10653 0.99688 0.10410
 C111 C 0.09692 1.09968 0.00818
 C112 C 0.09526 0.89800 0.00067
 C113 C -0.10660 0.89962 0.00382
 C114 C -0.10496 1.10128 0.00288
 C115 C -0.00228 1.09910 0.10673
 C116 C -0.00885 0.89749 0.10412
 H117 H -0.06364 1.05830 0.06348
 O118 O -0.04479 1.03956 0.04438
 H119 H 0.05310 0.93933 0.06323
 O120 O 0.03446 0.95855 0.04439
 C121 C 0.31432 1.00755 0.35367
 C122 C 0.30879 1.03874 0.38770
 C123 C 0.33753 1.03960 0.42379
 C124 C 0.37301 1.00950 0.42693
 C125 C 0.37798 0.97765 0.39312
 C126 C 0.34933 0.97708 0.35665
 C127 C 0.28282 1.00648 0.31609
 N128 N 0.29206 0.98369 0.27838
 N129 N 0.26329 0.98289 0.24488
 C130 C 0.22404 1.00464 0.24787
 N131 N 0.21490 1.02734 0.28558
 N132 N 0.24369 1.02833 0.31889
 C133 C 0.19141 1.00340 0.21129
 C134 C 0.14737 1.01603 0.21912
 C135 C 0.11617 1.01473 0.18513
 C136 C 0.12826 1.00132 0.14225
 C137 C 0.17240 0.98906 0.13418
 C138 C 0.20361 0.98978 0.16847
 H139 H 0.28222 1.06275 0.38648
 H140 H 0.33241 1.06458 0.44905
 H141 H 0.40309 0.95219 0.39554
 H142 H 0.35393 0.95205 0.33137
 H143 H 0.13679 1.02655 0.25172
 H144 H 0.08252 1.02455 0.19246
 H145 H 0.18270 0.97842 0.10152
 H146 H 0.23732 0.98000 0.16137
 C147 C -0.32847 0.99636 0.34866
 C148 C -0.32320 0.96644 0.38383
 C149 C -0.35101 0.96815 0.42055
 C150 C -0.38533 0.99959 0.42318
 C151 C -0.39042 1.02981 0.38799
 C152 C -0.36260 1.02790 0.35094
 C153 C -0.29727 0.99529 0.31086
 N154 N -0.30527 1.01851 0.27314
 N155 N -0.27642 1.01785 0.23974
 C156 C -0.23832 0.99414 0.24285
 N157 N -0.23048 0.97091 0.28050
 N158 N -0.25935 0.97140 0.31371
 C159 C -0.20527 0.99424 0.20667
 C160 C -0.16205 0.97919 0.21481
 C161 C -0.13023 0.98001 0.18143
 C162 C -0.14094 0.99536 0.13886
 C163 C -0.18432 1.00982 0.13036
 C164 C -0.21612 1.00957 0.16406
 H165 H -0.29736 0.94161 0.38318
 H166 H -0.34598 0.94429 0.44688
 H167 H -0.41485 1.05600 0.38979
 H168 H -0.36706 1.05191 0.32469
 H169 H -0.15249 0.96729 0.24726
 H170 H -0.09718 0.96847 0.18901
 H171 H -0.19349 1.02202 0.09790
 H172 H -0.24919 1.02124 0.15673
 C173 C -0.32451 1.00742 -0.34420
 C174 C -0.36138 0.97904 -0.34493
 C175 C -0.38993 0.97843 -0.38151
 C176 C -0.38278 1.00687 -0.41782
 C177 C -0.34561 1.03501 -0.41680
 C178 C -0.31709 1.03540 -0.38055
 C179 C -0.29305 1.00745 -0.30653
 N180 N -0.25355 1.02852 -0.31019
 N181 N -0.22473 1.02841 -0.27689
 C182 C -0.23418 1.00737 -0.23834
 N183 N -0.27379 0.98640 -0.23449
 N184 N -0.30261 0.98636 -0.26795
 C185 C -0.20147 1.00694 -0.20177
 C186 C -0.21332 0.99293 -0.15899
 C187 C -0.18200 0.99249 -0.12482
 C188 C -0.13809 1.00552 -0.13293
 C189 C -0.12635 1.01957 -0.17567
 C190 C -0.15768 1.02049 -0.20959
 H191 H -0.36762 0.95655 -0.31773
 H192 H -0.41675 0.95464 -0.38197
 H193 H -0.33893 1.05751 -0.44393
 H194 H -0.28913 1.05780 -0.38112
 H195 H -0.24681 0.98242 -0.15186
 H196 H -0.19200 0.98130 -0.09226
 H197 H -0.09287 1.03007 -0.18296
 H198 H -0.14735 1.03140 -0.24213
 C199 C 0.32021 1.00322 -0.33798
 C200 C 0.32238 0.96802 -0.36837
 C201 C 0.35013 0.97047 -0.40515
 C202 C 0.37617 1.00817 -0.41246
 C203 C 0.37438 1.04339 -0.38218
 C204 C 0.34694 1.04074 -0.34491
 C205 C 0.28885 1.00115 -0.30040
 N206 N 0.29307 1.02852 -0.26491
 N207 N 0.26403 1.02696 -0.23172
 C208 C 0.22947 0.99819 -0.23287
 N209 N 0.22535 0.97085 -0.26832
 N210 N 0.25449 0.97220 -0.30129
 C211 C 0.19619 0.99728 -0.19697
 C212 C 0.15408 0.97917 -0.20480
 C213 C 0.12199 0.97928 -0.17160
 C214 C 0.13151 0.99679 -0.12958
 C215 C 0.17385 1.01416 -0.12137
 C216 C 0.20578 1.01478 -0.15491
 H217 H 0.30237 0.93861 -0.36392
 H218 H 0.35087 0.94313 -0.42839
 H219 H 0.39375 1.07304 -0.38775
 H220 H 0.34573 1.06852 -0.32226
 H221 H 0.14560 0.96556 -0.23688
 H222 H 0.08972 0.96546 -0.17880
 H223 H 0.18200 1.02808 -0.08932
 H224 H 0.23800 1.02879 -0.14787
 C225 C 0.34230 1.32051 -0.01186
 C226 C 0.37952 1.30950 -0.03736
 C227 C 0.41593 1.33776 -0.03927
 C228 C 0.41631 1.37820 -0.01592
 C229 C 0.37873 1.38928 0.00947
 C230 C 0.34207 1.36096 0.01118
 C231 C 0.30487 1.28897 -0.00843
 N232 N 0.26582 1.30091 0.01045
 N233 N 0.23271 1.27189 0.01388
 C234 C 0.23743 1.22972 -0.00119
 N235 N 0.27644 1.21794 -0.02004
 N236 N 0.30937 1.24691 -0.02362
 C237 C 0.20122 1.19686 0.00274
 C238 C 0.20992 1.15181 -0.00500
 C239 C 0.17618 1.12048 -0.00243
 C240 C 0.13264 1.13331 0.00764
 C241 C 0.12382 1.17834 0.01575
 C242 C 0.15786 1.20979 0.01356
 H243 H 0.38074 1.27879 -0.05586
 H244 H 0.44370 1.32809 -0.05976
 H245 H 0.37833 1.41896 0.02962
 H246 H 0.31411 1.37017 0.03159
 H247 H 0.24294 1.14058 -0.01318
 H248 H 0.18424 1.08617 -0.00911
 H249 H 0.09065 1.18929 0.02367
 H250 H 0.15008 1.24426 0.01969
 C251 C 0.33910 0.67606 -0.02370
 C252 C 0.37571 0.68579 -0.05057
 C253 C 0.41258 0.65806 -0.05105
 C254 C 0.41402 0.61943 -0.02488
 C255 C 0.37697 0.60953 0.00173
 C256 C 0.33989 0.63732 0.00206
 C257 C 0.30137 0.70735 -0.02144
 N258 N 0.26333 0.69660 0.00001
 N259 N 0.23017 0.72560 0.00293
 C260 C 0.23382 0.76660 -0.01528
 N261 N 0.27177 0.77718 -0.03682
 N262 N 0.30475 0.74820 -0.03989
 C263 C 0.19786 0.79970 -0.01112
 C264 C 0.20607 0.84431 -0.02147
 C265 C 0.17279 0.87599 -0.01732
 C266 C 0.13024 0.86389 -0.00309
 C267 C 0.12175 0.81922 0.00699
 C268 C 0.15534 0.78746 0.00329
 H269 H 0.37616 0.71516 -0.07113
 H270 H 0.43992 0.66671 -0.07255
 H271 H 0.37736 0.58138 0.02394
 H272 H 0.31243 0.62913 0.02355
 H273 H 0.23842 0.85498 -0.03253
 H274 H 0.18039 0.91003 -0.02571
 H275 H 0.08930 0.80888 0.01811
 H276 H 0.14794 0.75334 0.01143
 C277 C -0.35144 0.67845 -0.00976
 C278 C -0.36187 0.65129 0.02660
 C279 C -0.39885 0.62340 0.02516
 C280 C -0.42527 0.62142 -0.01304
 C281 C -0.41457 0.64811 -0.04947
 C282 C -0.37812 0.67641 -0.04784
 C283 C -0.31398 0.70994 -0.00776
 N284 N -0.31255 0.74514 -0.03567
 N285 N -0.27957 0.77423 -0.03356
 C286 C -0.24640 0.76924 -0.00366
 N287 N -0.24757 0.73384 0.02410
 N288 N -0.28081 0.70486 0.02222
 C289 C -0.21034 0.80227 -0.00118
 C290 C -0.16930 0.79168 0.01801
 C291 C -0.13526 0.82312 0.01944
 C292 C -0.14204 0.86595 0.00252
 C293 C -0.18323 0.87656 -0.01619
 C294 C -0.21684 0.84501 -0.01834
 H295 H -0.34218 0.65246 0.05654
 H296 H -0.40715 0.60369 0.05395
 H297 H -0.43481 0.64733 -0.07908
 H298 H -0.37091 0.69681 -0.07643
 H299 H -0.16333 0.75894 0.03138
 H300 H -0.10386 0.81412 0.03418
 H301 H -0.18933 0.90919 -0.02981
 H302 H -0.24813 0.85427 -0.03315
 C303 C -0.34837 1.32453 0.00234
 C304 C -0.38131 1.32300 0.03517
 C305 C -0.41821 1.35068 0.03269
 C306 C -0.42303 1.38037 -0.00267
 C307 C -0.39011 1.38228 -0.03538
 C308 C -0.35286 1.35491 -0.03267
 C309 C -0.31068 1.29323 0.00382
 N310 N -0.27425 1.29951 -0.02178
 N311 N -0.24110 1.27039 -0.02126
 C312 C -0.24320 1.23366 0.00465
 N313 N -0.27955 1.22754 0.03031
 N314 N -0.31251 1.25674 0.02999
 C315 C -0.20734 1.20027 0.00428
 C316 C -0.21539 1.15732 0.02025
 C317 C -0.18217 1.12529 0.01942
 C318 C -0.13986 1.13557 0.00319
 C319 C -0.13151 1.17863 -0.01238
 C320 C -0.16508 1.21059 -0.01220
 H321 H -0.37882 1.30009 0.06264
 H322 H -0.44343 1.34851 0.05807
 H323 H -0.39367 1.40444 -0.06335
 H324 H -0.32825 1.35667 -0.05865
 H325 H -0.24760 1.14822 0.03299
 H326 H -0.18954 1.09251 0.03199
 H327 H -0.09923 1.18742 -0.02519
 H328 H -0.15786 1.24344 -0.02462
 C329 C 0.01502 1.31778 0.35451
 C330 C 0.04856 1.31305 0.38630
 C331 C 0.05112 1.34180 0.42235
 C332 C 0.02034 1.37646 0.42773
 C333 C -0.01386 1.38054 0.39620
 C334 C -0.01611 1.35194 0.35972
 C335 C 0.01228 1.28636 0.31690
 N336 N -0.01241 1.29561 0.28042
 N337 N -0.01462 1.26697 0.24683
 C338 C 0.00754 1.22783 0.24853
 N339 N 0.03212 1.21867 0.28502
 N340 N 0.03454 1.24735 0.31839
 C341 C 0.00479 1.19535 0.21184
 C342 C 0.01726 1.15111 0.21904
 C343 C 0.01468 1.12006 0.18494
 C344 C 0.00014 1.13253 0.14254
 C345 C -0.01200 1.17686 0.13508
 C346 C -0.01004 1.20791 0.16953
 H347 H 0.07315 1.28714 0.38328
 H348 H 0.07795 1.33738 0.44575
 H349 H -0.03976 1.40496 0.40042
 H350 H -0.04289 1.35588 0.33623
 H351 H 0.02867 1.14026 0.25126
 H352 H 0.02447 1.08625 0.19177
 H353 H -0.02347 1.18744 0.10279
 H354 H -0.01972 1.24180 0.16292
 C355 C 0.02658 1.32466 -0.33788
 C356 C 0.00059 1.36316 -0.34002
 C357 C 0.00238 1.39079 -0.37722
 C358 C 0.03074 1.38097 -0.41303
 C359 C 0.05741 1.34279 -0.41002
 C360 C 0.05543 1.31519 -0.37306
 C361 C 0.02241 1.29315 -0.30045
 N362 N 0.03994 1.25190 -0.30371
 N363 N 0.03515 1.22270 -0.27110
 C364 C 0.01272 1.23343 -0.23368
 N365 N -0.00459 1.27484 -0.23014
 N366 N 0.00003 1.30407 -0.26295
 C367 C 0.00704 1.20013 -0.19809
 C368 C -0.00633 1.21243 -0.15520
 C369 C -0.01025 1.18051 -0.12171
 C370 C -0.00145 1.13564 -0.13070
 C371 C 0.01111 1.12346 -0.17383
 C372 C 0.01550 1.15526 -0.20696
 H373 H -0.02235 1.37115 -0.31367
 H374 H -0.02017 1.41861 -0.37883
 H375 H 0.08027 1.33426 -0.43630
 H376 H 0.07629 1.28605 -0.37236
 H377 H -0.01308 1.24677 -0.14734
 H378 H -0.02011 1.19095 -0.08885
 H379 H 0.01838 1.08929 -0.18198
 H380 H 0.02555 1.14453 -0.23966
 C381 C 0.01571 0.67981 -0.34441
 C382 C 0.04031 0.69055 -0.38233
 C383 C 0.04127 0.66208 -0.41867
 C384 C 0.01790 0.62168 -0.41827
 C385 C -0.00689 0.61104 -0.38016
 C386 C -0.00767 0.63958 -0.34358
 C387 C 0.01374 0.71127 -0.30674
 N388 N -0.00487 0.69963 -0.26746
 N389 N -0.00696 0.72850 -0.23407
 C390 C 0.00930 0.77022 -0.23868
 N391 N 0.02792 0.78172 -0.27791
 N392 N 0.03015 0.75288 -0.31115
 C393 C 0.00644 0.80295 -0.20217
 C394 C 0.01574 0.84781 -0.21035
 C395 C 0.01289 0.87906 -0.17646
 C396 C 0.00103 0.86628 -0.13332
 C397 C -0.00802 0.82136 -0.12493
 C398 C -0.00557 0.79004 -0.15908
 H399 H 0.05894 0.72113 -0.38410
 H400 H 0.06119 0.67146 -0.44697
 H401 H -0.02710 0.58144 -0.37919
 H402 H -0.02747 0.63060 -0.31510
 H403 H 0.02498 0.85899 -0.24313
 H404 H 0.02028 0.91330 -0.18412
 H405 H -0.01733 0.81044 -0.09208
 H406 H -0.01284 0.75572 -0.15166
 C407 C -0.00424 0.67340 0.34671
 C408 C -0.03749 0.67263 0.37923
 C409 C -0.03369 0.64494 0.41606
 C410 C 0.00345 0.61759 0.42122
 C411 C 0.03664 0.61806 0.38874
 C412 C 0.03259 0.64535 0.35153
 C413 C -0.00721 0.70470 0.30908
 N414 N 0.01846 0.69951 0.27253
 N415 N 0.01666 0.72865 0.23942
 C416 C -0.01065 0.76432 0.24167
 N417 N -0.03638 0.76939 0.27816
 N418 N -0.03480 0.74014 0.31109
 C419 C -0.01141 0.79778 0.20586
 C420 C -0.02800 0.84048 0.21404
 C421 C -0.02723 0.87275 0.18095
 C422 C -0.01053 0.86286 0.13868
 C423 C 0.00525 0.81991 0.13015
 C424 C 0.00517 0.78779 0.16353
 H425 H -0.06631 0.69373 0.37645
 H426 H -0.05942 0.64533 0.44101
 H427 H 0.06597 0.59783 0.39263
 H428 H 0.05893 0.64547 0.32725
 H429 H -0.04086 0.84928 0.24633
 H430 H -0.03981 0.90548 0.18846
 H431 H 0.01849 0.81137 0.09793
 H432 H 0.01802 0.75513 0.15618
   
