data_POSCAR
  _audit_creation_date              2014-09-24
  _audit_creation_method            'ToBaCCo'
  _symmetry_space_group_name_H-M    'P1'
  _symmetry_Int_Tables_number       1
  _symmetry_cell_setting            triclinic
  loop_
  _symmetry_equiv_pos_as_xyz
 x,y,z
_cell_length_a 15.3684
_cell_length_b 16.4165
_cell_length_c 30.8462
_cell_angle_alpha 86.944100
_cell_angle_beta 91.323700
_cell_angle_gamma 118.326200
loop_
  _atom_site_label
  _atom_site_type_symbol
  _atom_site_fract_x
  _atom_site_fract_y
  _atom_site_fract_z
C1 C -0.01874 0.06981 0.57613
 H2 H -0.00899 0.01261 0.58952
 C3 C -0.02342 0.13175 0.60414
 H4 H -0.01962 0.12071 0.63891
 C5 C -0.02856 0.15880 0.51492
 H6 H -0.02777 0.17010 0.48003
 C7 C -0.03223 0.22295 0.54175
 H8 H -0.03597 0.28279 0.52735
 N9 N -0.02126 0.08435 0.53234
 C10 C 0.10585 -0.09007 0.51683
 H11 H 0.16492 -0.04119 0.49580
 C12 C 0.11166 -0.16600 0.53678
 H13 H 0.17585 -0.17517 0.53158
 C14 C -0.05261 -0.14148 0.54779
 H15 H -0.11772 -0.13283 0.55080
 C16 C -0.04855 -0.21640 0.56924
 H17 H -0.11046 -0.26498 0.58912
 Zn18 Zn 0.00506 0.01397 0.49285
 N19 N 0.02443 -0.07942 0.52277
 C20 C 0.19631 0.15592 0.48773
 N21 N 0.11837 0.10170 0.46258
 C22 C 0.11475 0.12345 0.41963
 C23 C 0.19028 0.20523 0.40082
 C24 C 0.27269 0.23847 0.47037
 C25 C -0.18600 -0.04085 0.45865
 C26 C -0.27142 -0.10029 0.43682
 C27 C -0.18230 -0.17195 0.40644
 C28 C -0.09787 -0.11024 0.42853
 N29 N -0.10208 -0.04814 0.45489
 H30 H 0.19567 0.13802 0.52203
 H31 H 0.05060 0.08062 0.40064
 H32 H 0.18506 0.22358 0.36699
 H33 H 0.33254 0.28323 0.49101
 H34 H -0.18856 0.00731 0.48045
 H35 H -0.33930 -0.09705 0.44173
 H36 H -0.17998 -0.22465 0.38753
 H37 H -0.03051 -0.11551 0.42678
 C38 C 0.03414 -0.22949 0.56352
 C39 C -0.02831 0.20999 0.58694
 C40 C -0.27044 -0.16813 0.41151
 C41 C 0.26878 0.26487 0.42688
 C42 C 1.13314 0.02505 0.10145
 H43 H 1.08800 0.05192 0.08553
 C44 C 1.20239 0.01399 0.07730
 H45 H 1.20897 0.03072 0.04271
 C46 C 1.18262 -0.02621 0.16617
 H47 H 1.17573 -0.03984 0.20096
 C48 C 1.25326 -0.03734 0.14335
 H49 H 1.29998 -0.06116 0.16042
 N50 N 1.12495 0.00534 0.14510
 C51 C 0.92416 0.11199 0.13925
 H52 H 0.96959 0.17427 0.15612
 C53 C 0.84181 0.10429 0.11568
 H54 H 0.82416 0.16086 0.11427
 C55 C 0.88894 -0.03901 0.12085
 H56 H 0.90692 -0.09524 0.12356
 C57 C 0.80730 -0.04900 0.09658
 H58 H 0.76311 -0.11295 0.08052
 Zn59 Zn 1.04204 0.03397 0.17862
 N60 N 0.94487 0.03997 0.14195
 C61 C 1.08402 0.18735 0.23094
 N62 N 1.12361 0.14706 0.20608
 C63 C 1.22356 0.18365 0.20211
 C64 C 1.28738 0.25926 0.22582
 C65 C 1.14526 0.26256 0.25552
 C66 C 0.94502 -0.15192 0.20921
 C67 C 0.87052 -0.22834 0.23172
 C68 C 0.85071 -0.12451 0.27815
 C69 C 0.92568 -0.04989 0.25476
 N70 N 0.96949 -0.06446 0.22020
 H71 H 1.00493 0.16042 0.23240
 H72 H 1.25465 0.15314 0.18144
 H73 H 1.36643 0.28541 0.22336
 H74 H 1.11311 0.29209 0.27648
 H75 H 0.97838 -0.16245 0.18104
 H76 H 0.84801 -0.29747 0.22127
 H77 H 0.81352 -0.11157 0.30421
 H78 H 0.94426 0.01928 0.26298
 C79 C 0.78216 0.02276 0.09445
 C80 C 1.26407 -0.01648 0.09863
 C81 C 0.82044 -0.21471 0.26550
 C82 C 1.24772 0.29775 0.25369
 C83 C 0.13731 0.94852 0.84897
 H84 H 0.12829 0.91862 0.81777
 C85 C 0.20789 0.94703 0.87772
 H86 H 0.25294 0.91652 0.86814
 C87 C 0.08883 1.02314 0.89963
 H88 H 0.04022 1.05045 0.90828
 C89 C 0.15932 1.02365 0.92935
 H90 H 0.16619 1.05273 0.96072
 N91 N 0.07831 0.98473 0.86053
 C92 C -0.20461 0.96137 0.85519
 H93 H -0.19213 1.01383 0.82994
 C94 C -0.28188 0.93620 0.88469
 H95 H -0.32895 0.96871 0.88181
 C96 C -0.15662 0.85802 0.89155
 H97 H -0.10522 0.83056 0.89516
 C98 C -0.23284 0.83098 0.92169
 H99 H -0.24126 0.78118 0.94794
 Zn100 Zn -0.02932 0.96704 0.82375
 N101 N -0.14365 0.92234 0.85914
 C102 C -0.07435 0.78938 0.79708
 N103 N -0.04257 0.87896 0.78282
 C104 C -0.00833 0.90822 0.74152
 C105 C -0.00498 0.84657 0.71295
 C106 C -0.07064 0.72590 0.76978
 C107 C 0.05818 1.16293 0.80939
 C108 C 0.06570 1.24495 0.78987
 C109 C -0.06244 1.15384 0.73953
 C110 C -0.06928 1.07375 0.76060
 N111 N -0.00908 1.07948 0.79467
 H112 H -0.09911 0.76777 0.83017
 H113 H 0.02059 0.98025 0.73115
 H114 H 0.02385 0.87075 0.68040
 H115 H -0.09414 0.65547 0.78194
 H116 H 0.10431 1.16591 0.83688
 H117 H 0.11816 1.31116 0.80212
 H118 H -0.11118 1.14792 0.71258
 H119 H -0.12381 1.00657 0.75018
 C120 C -0.29536 0.87105 0.91843
 C121 C 0.21823 0.98360 0.91876
 C122 C 0.00517 1.24065 0.75453
 C123 C -0.03433 0.75509 0.72734
 C124 C 0.40597 -0.06820 -0.02743
 C125 C 0.42149 -0.03377 0.01466
 C126 C 0.50383 -0.02618 0.03860
 C127 C 0.56237 -0.06318 0.02351
 C128 C 0.53588 -0.11154 -0.01473
 C129 C 0.46128 -0.10992 -0.04109
 H130 H 0.44415 -0.14367 -0.07170
 H131 H 0.51969 0.00475 0.06989
 C132 C -0.01504 0.42174 0.63114
 C133 C -0.01910 0.40812 0.67687
 C134 C -0.02358 0.47423 0.70248
 C135 C -0.02282 0.55396 0.68357
 C136 C -0.01206 0.57047 0.63805
 C137 C -0.00842 0.50404 0.61241
 H138 H -0.00383 0.51491 0.57740
 H139 H -0.02995 0.46273 0.73744
 C140 C 0.59127 0.63160 0.32643
 C141 C 0.54491 0.62753 0.36609
 C142 C 0.46492 0.54382 0.38077
 C143 C 0.42362 0.46750 0.35450
 C144 C 0.45801 0.47741 0.31182
 C145 C 0.54541 0.55625 0.29908
 H146 H 0.57438 0.56086 0.26685
 H147 H 0.43250 0.53925 0.41222
 N148 N -0.02598 0.27628 0.61590
 N149 N -0.01744 0.35441 0.60250
 N150 N 0.73390 0.70737 0.28314
 N151 N 0.68014 0.71253 0.31257
 N152 N 0.28743 -0.01975 -0.05016
 N153 N 0.33366 -0.06502 -0.05672
 N154 N 0.03880 0.69211 0.58373
 N155 N -0.01111 0.65141 0.61786
 N156 N 0.30875 0.36904 0.28199
 N157 N 0.40286 0.40953 0.28087
 N158 N 0.63980 -0.14879 -0.05315
 N159 N 0.57792 -0.16971 -0.02426
 N160 N 0.33789 -0.02739 0.07608
 N161 N 0.34807 -0.01813 0.03497
 N162 N 0.64894 0.76867 0.39860
 N163 N 0.56574 0.70803 0.38925
 N164 N 0.01155 0.32439 0.73494
 N165 N -0.02161 0.32633 0.69693
 N166 N 0.69628 0.01359 0.07136
 N167 N 0.64817 -0.05337 0.04678
 N168 N 0.34318 0.35355 0.41056
 N169 N 0.34820 0.37916 0.37066
 N170 N -0.02364 0.69448 0.69878
 N171 N -0.03290 0.61589 0.71181
   
