data_POSCAR
  _audit_creation_date              2014-09-24
  _audit_creation_method            'ToBaCCo'
  _symmetry_space_group_name_H-M    'P1'
  _symmetry_Int_Tables_number       1
  _symmetry_cell_setting            triclinic
  loop_
  _symmetry_equiv_pos_as_xyz
 x,y,z
_cell_length_a 42.8138
_cell_length_b 42.7857
_cell_length_c 24.1081
_cell_angle_alpha 90.001500
_cell_angle_beta 90.139400
_cell_angle_gamma 120.150500
loop_
  _atom_site_label
  _atom_site_type_symbol
  _atom_site_fract_x
  _atom_site_fract_y
  _atom_site_fract_z
C1 C 0.44485 0.88741 0.52765
 C2 C 0.44350 0.88745 0.47082
 C3 C 0.46092 0.92339 0.45449
 N4 N 0.47271 0.94515 0.49950
 C5 C 0.46294 0.92332 0.54431
 C6 C 0.46651 0.93520 0.39877
 C7 C 0.48575 0.97182 0.38167
 C8 C 0.49571 0.98275 0.32724
 C9 C 0.51430 1.01983 0.32730
 C10 C 0.51533 1.03086 0.38182
 N11 N 0.49732 1.00133 0.41453
 C12 C 0.53272 1.06754 0.39915
 C13 C 0.53858 1.07928 0.45510
 C14 C 0.55677 1.11521 0.47184
 C15 C 0.55782 1.11516 0.52866
 C16 C 0.54014 1.07921 0.54509
 N17 N 0.52849 1.05747 0.50000
 C18 C 0.53419 1.06736 0.60093
 C19 C 0.51501 1.03063 0.61790
 C20 C 0.50479 1.01943 0.67227
 C21 C 0.48654 0.98236 0.67200
 C22 C 0.48592 0.97160 0.61752
 N23 N 0.50384 1.00122 0.58496
 C24 C 0.46890 0.93503 0.60012
 H25 H 0.43354 0.86361 0.55369
 H26 H 0.43129 0.86370 0.44456
 H27 H 0.51047 1.00136 0.54367
 H28 H 0.49056 0.96579 0.29112
 H29 H 0.52613 1.03675 0.29120
 H30 H 0.56832 1.13903 0.44582
 H31 H 0.57001 1.13894 0.55489
 H32 H 0.47465 0.96528 0.70793
 H33 H 0.49095 1.00131 0.45591
 H34 H 0.50960 1.03625 0.70848
 C35 C 0.11351 0.55468 0.47152
 C36 C 0.11363 0.55620 0.52831
 C37 C 0.07775 0.53878 0.54490
 N38 N 0.05589 0.52685 0.49995
 C39 C 0.07758 0.53652 0.45503
 C40 C 0.06603 0.53333 0.60076
 C41 C 0.02937 0.51417 0.61782
 C42 C 0.01828 0.50417 0.67227
 C43 C -0.01878 0.48577 0.67203
 C44 C -0.02963 0.48488 0.61748
 N45 N -0.00009 0.50276 0.58485
 C46 C -0.06621 0.46769 0.60010
 C47 C -0.07804 0.46176 0.54430
 C48 C -0.11396 0.44368 0.52781
 C49 C -0.11408 0.44243 0.47100
 C50 C -0.07819 0.45988 0.45441
 N51 N -0.05634 0.47160 0.49937
 C52 C -0.06647 0.46555 0.39855
 C53 C -0.02980 0.48446 0.38150
 C54 C -0.01866 0.49436 0.32703
 C55 C 0.01838 0.51250 0.32726
 C56 C 0.02920 0.51336 0.38183
 N57 N -0.00036 0.49568 0.41446
 C58 C 0.06577 0.53041 0.39922
 H59 H 0.13722 0.56595 0.44537
 H60 H 0.13746 0.56852 0.55443
 H61 H -0.00045 0.48931 0.45589
 H62 H 0.03515 0.50920 0.70851
 H63 H -0.03577 0.47399 0.70803
 H64 H -0.13767 0.43233 0.55396
 H65 H -0.13791 0.43022 0.44487
 H66 H 0.03541 0.52415 0.29125
 H67 H -0.00004 0.50918 0.54345
 H68 H -0.03550 0.48941 0.29077
 C69 C 0.55623 0.44268 0.47359
 C70 C 0.55484 0.44126 0.53038
 C71 C 0.53759 0.45983 0.54701
 N72 N 0.52844 0.47241 0.50210
 C73 C 0.53972 0.46199 0.45714
 C74 C 0.53200 0.46598 0.60285
 C75 C 0.51519 0.48577 0.61983
 C76 C 0.51504 0.49665 0.67409
 C77 C 0.49644 0.51501 0.67398
 C78 C 0.48555 0.51505 0.61966
 N79 N 0.49667 0.49668 0.58708
 C80 C 0.46559 0.53165 0.60244
 C81 C 0.45959 0.53734 0.54653
 C82 C 0.44101 0.55457 0.52967
 C83 C 0.44263 0.55613 0.47289
 C84 C 0.46204 0.53971 0.45668
 N85 N 0.47235 0.52834 0.50177
 C86 C 0.46899 0.53489 0.40096
 C87 C 0.48709 0.51647 0.38372
 C88 C 0.48946 0.50789 0.32894
 C89 C 0.50788 0.48932 0.32906
 C90 C 0.51643 0.48695 0.38389
 N91 N 0.50419 0.50414 0.41680
 C92 C 0.53476 0.46876 0.40134
 H93 H 0.56794 0.43070 0.44742
 H94 H 0.56558 0.42826 0.55648
 H95 H 0.50916 0.50913 0.45879
 H96 H 0.52738 0.49211 0.71012
 H97 H 0.49177 0.52728 0.70991
 H98 H 0.42789 0.56520 0.55562
 H99 H 0.43070 0.56786 0.44658
 H100 H 0.51380 0.47832 0.29276
 H101 H 0.48938 0.48934 0.54608
 H102 H 0.47852 0.51384 0.29255
 O103 O 0.38775 0.65810 -0.04766
 O104 O 0.38614 0.71749 -0.06453
 C105 C 0.36893 0.73370 -0.07488
 O106 O 0.34131 0.72861 -0.04793
 O107 O 0.28181 0.66742 -0.06459
 C108 C 0.26553 0.63389 -0.07488
 O109 O 0.27061 0.61136 -0.04782
 O110 O 0.33163 0.61308 -0.06437
 C111 C 0.36511 0.63036 -0.07463
 O112 O 0.38637 0.66804 0.06273
 O113 O 0.38782 0.72895 0.04585
 C114 C 0.36524 0.73391 0.07282
 O115 O 0.33173 0.71748 0.06251
 O116 O 0.27071 0.65780 0.04584
 C117 C 0.26576 0.63022 0.07290
 O118 O 0.28205 0.61309 0.06263
 O119 O 0.34155 0.61179 0.04610
 C120 C 0.36920 0.63454 0.07313
 Cr121 Cr 0.38500 0.69212 -0.00091
 Cr122 Cr 0.30740 0.69182 -0.00104
 Cr123 Cr 0.30747 0.61436 -0.00087
 O124 O 0.33329 0.66610 -0.00094
 O125 O 0.61177 0.34156 -0.04624
 O126 O 0.61308 0.28202 -0.06303
 C127 C 0.63022 0.26576 -0.07346
 O128 O 0.65788 0.27079 -0.04648
 O129 O 0.71741 0.33181 -0.06334
 C130 C 0.73371 0.36531 -0.07372
 O131 O 0.72885 0.38797 -0.04669
 O132 O 0.66786 0.38642 -0.06314
 C133 C 0.63433 0.36917 -0.07333
 O134 O 0.61363 0.33196 0.06417
 O135 O 0.61188 0.27089 0.04741
 C136 C 0.63454 0.26595 0.07440
 O137 O 0.66800 0.28222 0.06394
 O138 O 0.72903 0.34172 0.04705
 C139 C 0.73420 0.36940 0.07407
 O140 O 0.71798 0.38662 0.06379
 O141 O 0.65851 0.38808 0.04734
 C142 C 0.63097 0.36549 0.07448
 Cr143 Cr 0.61461 0.30762 0.00057
 Cr144 Cr 0.69207 0.30764 0.00030
 Cr145 Cr 0.69228 0.38525 0.00032
 O146 O 0.66632 0.33351 0.00040
 C147 C 0.43014 0.85740 -0.27744
 C148 C 0.40778 0.81850 -0.29910
 C149 C 0.39517 0.79312 -0.25816
 C150 C 0.40615 0.80915 -0.19961
 C151 C 0.39284 0.83634 -0.19495
 C152 C 0.40545 0.86170 -0.23587
 C153 C 0.46012 0.85769 -0.24202
 C154 C 0.44751 0.83233 -0.20110
 C155 C 0.44376 0.88478 -0.32133
 C156 C 0.45510 0.90749 -0.35713
 C157 C 0.39266 0.78195 -0.15540
 C158 C 0.38173 0.75981 -0.11878
 H159 H 0.40236 0.81150 -0.34273
 H160 H 0.37893 0.76437 -0.26672
 H161 H 0.37507 0.83572 -0.16237
 H162 H 0.39850 0.88282 -0.23834
 H163 H 0.48873 0.87619 -0.24851
 H164 H 0.46533 0.82909 -0.17254
 C165 C 0.14200 0.57134 -0.27839
 C166 C 0.17563 0.56873 -0.29200
 C167 C 0.20093 0.58146 -0.25081
 C168 C 0.19010 0.59554 -0.20007
 C169 C 0.15339 0.56393 -0.18201
 C170 C 0.12811 0.55121 -0.22318
 C171 C 0.15646 0.61129 -0.26431
 C172 C 0.18176 0.62402 -0.22313
 C173 C 0.11470 0.55762 -0.32254
 C174 C 0.09203 0.54627 -0.35855
 C175 C 0.21724 0.60925 -0.15562
 C176 C 0.23938 0.62050 -0.11886
 H177 H 0.17926 0.55789 -0.33060
 H178 H 0.22624 0.58151 -0.25410
 H179 H 0.14776 0.55255 -0.14053
 H180 H 0.10080 0.52893 -0.21698
 H181 H 0.14763 0.62810 -0.28488
 H182 H 0.19459 0.65174 -0.20842
 C183 C 0.42736 0.56929 -0.27727
 C184 C 0.44020 0.60974 -0.28216
 C185 C 0.42748 0.62229 -0.24117
 C186 C 0.40316 0.59314 -0.19933
 C187 C 0.42597 0.57718 -0.17783
 C188 C 0.43869 0.56464 -0.21880
 C189 C 0.38598 0.55045 -0.27547
 C190 C 0.37326 0.56299 -0.23448
 C191 C 0.44110 0.55575 -0.32120
 C192 C 0.45252 0.54452 -0.35704
 C193 C 0.38950 0.60659 -0.15509
 C194 C 0.37833 0.61751 -0.11848
 H195 H 0.45771 0.62700 -0.31494
 H196 H 0.43409 0.65030 -0.23883
 H197 H 0.43165 0.57585 -0.13424
 H198 H 0.45526 0.55257 -0.21032
 H199 H 0.36825 0.52917 -0.30391
 H200 H 0.34461 0.55245 -0.22781
 C201 C 0.57058 0.14299 -0.27785
 C202 C 0.60202 0.14487 -0.24437
 C203 C 0.61412 0.17000 -0.20301
 C204 C 0.59360 0.19079 -0.19919
 C205 C 0.55372 0.16154 -0.19331
 C206 C 0.54162 0.13640 -0.23466
 C207 C 0.58447 0.18167 -0.29860
 C208 C 0.59658 0.20682 -0.25723
 C209 C 0.55751 0.11585 -0.32219
 C210 C 0.54666 0.09328 -0.35832
 C211 C 0.60664 0.21775 -0.15453
 C212 C 0.61738 0.23975 -0.11761
 H213 H 0.61373 0.12795 -0.25243
 H214 H 0.63622 0.17462 -0.17564
 H215 H 0.53651 0.16063 -0.15962
 H216 H 0.51404 0.11396 -0.23640
 H217 H 0.58478 0.18870 -0.34196
 H218 H 0.60726 0.23539 -0.26513
 C219 C 0.85653 0.42819 -0.27715
 C220 C 0.85253 0.45769 -0.24736
 C221 C 0.82734 0.44477 -0.20626
 C222 C 0.80862 0.40361 -0.19898
 C223 C 0.83944 0.39564 -0.18987
 C224 C 0.86462 0.40856 -0.23096
 C225 C 0.81836 0.40085 -0.29756
 C226 C 0.79316 0.38792 -0.25644
 C227 C 0.88374 0.44213 -0.32120
 C228 C 0.90634 0.45368 -0.35709
 C229 C 0.78162 0.38977 -0.15458
 C230 C 0.75963 0.37853 -0.11779
 H231 H 0.86809 0.48621 -0.25766
 H232 H 0.82132 0.46222 -0.18135
 H233 H 0.84131 0.38112 -0.15427
 H234 H 0.88808 0.40512 -0.23057
 H235 H 0.81172 0.39241 -0.34052
 H236 H 0.76492 0.36840 -0.26416
 C237 C 0.57079 0.42897 -0.27645
 C238 C 0.58338 0.45328 -0.22481
 C239 C 0.59642 0.44106 -0.18373
 C240 C 0.59559 0.40572 -0.19831
 C241 C 0.61656 0.41357 -0.25295
 C242 C 0.60352 0.42579 -0.29405
 C243 C 0.54308 0.39130 -0.25495
 C244 C 0.55612 0.37907 -0.21387
 C245 C 0.55675 0.44220 -0.32051
 C246 C 0.54518 0.45326 -0.35647
 C247 C 0.60957 0.39260 -0.15396
 C248 C 0.62095 0.38188 -0.11726
 H249 H 0.58215 0.47792 -0.22085
 H250 H 0.60638 0.45524 -0.14458
 H251 H 0.63961 0.40982 -0.25885
 H252 H 0.61537 0.43251 -0.33517
 H253 H 0.51565 0.37560 -0.27064
 H254 H 0.53986 0.35289 -0.19435
 C255 C 0.85761 0.42915 0.27768
 C256 C 0.86930 0.41763 0.22502
 C257 C 0.84403 0.40547 0.18383
 C258 C 0.80956 0.40602 0.19932
 C259 C 0.82257 0.44516 0.21692
 C260 C 0.84784 0.45732 0.25812
 C261 C 0.82152 0.39605 0.29420
 C262 C 0.79625 0.38388 0.25299
 C263 C 0.88488 0.44225 0.32186
 C264 C 0.90754 0.45310 0.35787
 C265 C 0.78245 0.39294 0.15485
 C266 C 0.76033 0.38219 0.11807
 H267 H 0.89515 0.41895 0.22047
 H268 H 0.84825 0.39635 0.14399
 H269 H 0.81279 0.46185 0.19863
 H270 H 0.85971 0.48443 0.27514
 H271 H 0.81628 0.38332 0.33471
 H272 H 0.76935 0.36071 0.25818
 C273 C 0.57169 0.14332 0.27847
 C274 C 0.59476 0.13737 0.23580
 C275 C 0.60769 0.16250 0.19454
 C276 C 0.59630 0.19113 0.20000
 C277 C 0.60880 0.20729 0.25820
 C278 C 0.59586 0.18214 0.29947
 C279 C 0.54196 0.14446 0.24436
 C280 C 0.55490 0.16959 0.20310
 C281 C 0.55771 0.11616 0.32267
 C282 C 0.54608 0.09355 0.35863
 C283 C 0.61014 0.21807 0.15543
 C284 C 0.62137 0.24003 0.11854
 H285 H 0.60042 0.11534 0.23780
 H286 H 0.62445 0.16200 0.16121
 H287 H 0.62626 0.23595 0.26627
 H288 H 0.60222 0.18925 0.34291
 H289 H 0.51327 0.12706 0.25194
 H290 H 0.53728 0.17372 0.17535
 C291 C 0.57204 0.42897 0.27840
 C292 C 0.58005 0.39953 0.29785
 C293 C 0.59210 0.38648 0.25661
 C294 C 0.59496 0.40416 0.20001
 C295 C 0.61925 0.44489 0.21019
 C296 C 0.60720 0.45793 0.25141
 C297 C 0.54519 0.41180 0.23022
 C298 C 0.55723 0.39876 0.18901
 C299 C 0.55900 0.44303 0.32257
 C300 C 0.54808 0.45467 0.35852
 C301 C 0.60789 0.39018 0.15549
 C302 C 0.61844 0.37882 0.11862
 H303 H 0.57658 0.38982 0.34026
 H304 H 0.59896 0.36557 0.26369
 H305 H 0.64377 0.46197 0.18707
 H306 H 0.62139 0.48619 0.26360
 H307 H 0.51901 0.41007 0.22860
 H308 H 0.54137 0.38583 0.15209
 C309 C 0.14295 0.56900 0.27637
 C310 C 0.12959 0.57717 0.22214
 C311 C 0.15474 0.58976 0.18099
 C312 C 0.19079 0.59295 0.19808
 C313 C 0.18087 0.55516 0.21883
 C314 C 0.15572 0.54256 0.25999
 C315 C 0.17757 0.60430 0.29132
 C316 C 0.20273 0.61690 0.25015
 C317 C 0.11579 0.55541 0.32048
 C318 C 0.09321 0.54412 0.35641
 C319 C 0.21777 0.60644 0.15364
 C320 C 0.23977 0.61737 0.11688
 H321 H 0.10273 0.57338 0.21655
 H322 H 0.14942 0.59677 0.14014
 H323 H 0.19259 0.53966 0.20264
 H324 H 0.14589 0.51628 0.27907
 H325 H 0.18195 0.61814 0.33079
 H326 H 0.22867 0.64155 0.25433
 C327 C 0.42782 0.85771 0.27578
 C328 C 0.41358 0.81905 0.29692
 C329 C 0.40081 0.79368 0.25586
 C330 C 0.40353 0.80948 0.19771
 C331 C 0.44350 0.83828 0.19100
 C332 C 0.45627 0.86365 0.23205
 C333 C 0.39632 0.85615 0.24287
 C334 C 0.38355 0.83079 0.20183
 C335 C 0.44156 0.88507 0.31982
 C336 C 0.45289 0.90774 0.35579
 C337 C 0.38980 0.78227 0.15340
 C338 C 0.37855 0.76009 0.11673
 H339 H 0.41354 0.81221 0.34030
 H340 H 0.38982 0.76509 0.26406
 H341 H 0.46031 0.83873 0.15700
 H342 H 0.48400 0.88582 0.23321
 H343 H 0.38504 0.87343 0.25108
 H344 H 0.36133 0.82635 0.17489
 C345 C 0.43031 0.57321 0.27755
 C346 C 0.43892 0.56539 0.21915
 C347 C 0.42637 0.57790 0.17778
 C348 C 0.40644 0.59700 0.19884
 C349 C 0.43332 0.62678 0.23791
 C350 C 0.44587 0.61427 0.27930
 C351 C 0.38916 0.55688 0.27825
 C352 C 0.37660 0.56939 0.23686
 C353 C 0.44388 0.55970 0.32189
 C354 C 0.45520 0.54849 0.35798
 C355 C 0.39299 0.61044 0.15418
 C356 C 0.38206 0.62146 0.11726
 H357 H 0.45357 0.55127 0.21102
 H358 H 0.43028 0.57449 0.13419
 H359 H 0.44173 0.65519 0.23349
 H360 H 0.46503 0.63195 0.31035
 H361 H 0.37145 0.53725 0.30861
 H362 H 0.34813 0.56047 0.23174
   
