data_POSCAR
  _audit_creation_date              2014-09-24
  _audit_creation_method            'ToBaCCo'
  _symmetry_space_group_name_H-M    'P1'
  _symmetry_Int_Tables_number       1
  _symmetry_cell_setting            triclinic
  loop_
  _symmetry_equiv_pos_as_xyz
 x,y,z
_cell_length_a 27.1757
_cell_length_b 27.1971
_cell_length_c 34.6235
_cell_angle_alpha 89.214300
_cell_angle_beta 90.022600
_cell_angle_gamma 84.304500
loop_
  _atom_site_label
  _atom_site_type_symbol
  _atom_site_fract_x
  _atom_site_fract_y
  _atom_site_fract_z
C1 C 0.01783 0.54521 1.02122
 C2 C 0.01636 0.54523 0.97984
 C3 C 0.01401 0.49971 0.96124
 C4 C 0.01266 0.45494 0.98150
 C5 C 0.01458 0.45460 1.02248
 C6 C 0.01903 0.49952 1.04132
 H7 H 0.01747 0.49958 1.07260
 H8 H 0.01628 0.49818 0.93002
 C9 C 0.44975 -0.00266 0.52028
 C10 C 0.44965 -0.00182 0.47949
 C11 C 0.49453 -0.00158 0.45960
 C12 C 0.54032 -0.00307 0.47907
 C13 C 0.54001 -0.00363 0.52030
 C14 C 0.49484 -0.00388 0.54002
 H15 H 0.49456 -0.00304 0.57134
 H16 H 0.49356 -0.00311 0.42834
 C17 C 0.09452 0.00522 0.26364
 H18 H 0.09514 0.01234 0.23283
 C19 C 0.13775 0.00572 0.28529
 H20 H 0.17176 0.01261 0.27083
 C21 C 0.04923 -0.01252 0.31976
 H22 H 0.01451 -0.01897 0.33313
 C23 C 0.09171 -0.01255 0.34253
 H24 H 0.08923 -0.01892 0.37338
 N25 N 0.05149 -0.00410 0.28101
 C26 C -0.04390 -0.06900 0.19913
 H27 H -0.07770 -0.04482 0.20229
 C28 C -0.04370 -0.11171 0.17710
 H29 H -0.07779 -0.12027 0.16375
 C30 C 0.04081 -0.08821 0.21452
 H31 H 0.07358 -0.07937 0.22946
 C32 C 0.04287 -0.13079 0.19234
 H33 H 0.07776 -0.15346 0.18992
 Zn34 Zn -0.00554 -0.00206 0.24946
 N35 N -0.00211 -0.05826 0.21748
 C36 C -0.01152 0.05536 0.18000
 N37 N -0.00767 0.05649 0.21914
 C38 C -0.00249 0.09935 0.23777
 C39 C -0.00154 0.14355 0.21700
 C40 C -0.01064 0.09878 0.15805
 C41 C -0.07205 -0.04456 0.29889
 C42 C -0.11488 -0.04664 0.32093
 C43 C -0.13828 0.03916 0.30473
 C44 C -0.09539 0.03940 0.28266
 N45 N -0.06311 -0.00196 0.28033
 H46 H -0.01470 0.02073 0.16572
 H47 H 0.00115 0.09905 0.26890
 H48 H 0.00199 0.17734 0.23249
 H49 H -0.01291 0.09705 0.12688
 H50 H -0.04608 -0.07714 0.29614
 H51 H -0.12177 -0.08124 0.33472
 H52 H -0.16281 0.07289 0.30676
 H53 H -0.08810 0.07276 0.26740
 C54 C 0.00010 -0.14351 0.17362
 C55 C 0.13669 -0.00324 0.32529
 C56 C -0.14879 -0.00436 0.32406
 C57 C -0.00540 0.14365 0.17655
 C58 C -0.04557 0.09191 0.78925
 H59 H -0.08000 0.08537 0.77580
 C60 C -0.04401 0.13345 0.81221
 H61 H -0.07791 0.15701 0.81684
 C62 C 0.03967 0.06903 0.79994
 H63 H 0.07243 0.04424 0.79445
 C64 C 0.04321 0.11094 0.82233
 H65 H 0.07899 0.11785 0.83359
 N66 N -0.00416 0.06049 0.78359
 C67 C 0.07101 -0.03967 0.70439
 H68 H 0.05617 -0.07355 0.71313
 C69 C 0.11312 -0.04152 0.68117
 H70 H 0.13015 -0.07706 0.67187
 C71 C 0.06621 0.04779 0.70548
 H72 H 0.04776 0.08245 0.71525
 C73 C 0.10838 0.04764 0.68243
 H74 H 0.12247 0.08243 0.67508
 Zn75 Zn -0.00559 0.00542 0.75039
 N76 N 0.04893 0.00450 0.71644
 C77 C -0.06288 0.01478 0.68179
 N78 N -0.06531 0.01082 0.72097
 C79 C -0.10953 0.00943 0.73923
 C80 C -0.15325 0.01036 0.71800
 C81 C -0.10587 0.01646 0.65943
 C82 C 0.04290 -0.06697 0.80056
 C83 C 0.04926 -0.11147 0.82160
 C84 C -0.03197 -0.12881 0.80105
 C85 C -0.03614 -0.08489 0.77962
 N86 N 0.00063 -0.05446 0.78008
 H87 H -0.02751 0.01596 0.66774
 H88 H -0.11073 0.00641 0.77040
 H89 H -0.18799 0.00849 0.73300
 H90 H -0.10322 0.01861 0.62826
 H91 H 0.07226 -0.04296 0.79985
 H92 H 0.08385 -0.12116 0.83663
 H93 H -0.06283 -0.15106 0.80104
 H94 H -0.06887 -0.07570 0.76245
 C95 C 0.13277 0.00251 0.67030
 C96 C 0.00098 0.14411 0.82862
 C97 C 0.01141 -0.14321 0.82215
 C98 C -0.15166 0.01348 0.67756
 C99 C 0.00684 -0.32402 0.08707
 C100 C -0.02215 -0.32578 0.05370
 C101 C -0.01973 -0.36962 0.03260
 C102 C 0.01329 -0.41104 0.04350
 C103 C 0.04127 -0.40851 0.07776
 C104 C 0.03813 -0.36530 0.09956
 C105 C 0.00457 -0.27799 0.10934
 C106 C 0.03316 -0.27652 0.14297
 C107 C 0.03096 -0.23275 0.16403
 C108 C 0.00119 -0.19012 0.15135
 C109 C -0.02728 -0.19237 0.11742
 C110 C -0.02595 -0.23632 0.09646
 C111 C 0.06621 -0.36239 0.13337
 C112 C 0.06358 -0.31882 0.15483
 C113 C -0.05269 -0.28349 0.04191
 C114 C -0.05435 -0.23944 0.06280
 H115 H 0.09047 -0.39405 0.14334
 H116 H 0.08584 -0.31813 0.18075
 H117 H -0.07515 -0.28430 0.01610
 H118 H -0.07811 -0.20758 0.05254
 H119 H -0.04359 -0.37140 0.00768
 H120 H 0.06711 -0.43951 0.08673
 H121 H 0.05219 -0.23210 0.19048
 H122 H -0.04988 -0.15984 0.10699
 C123 C 0.00372 0.32436 0.08893
 C124 C 0.03709 0.35775 0.10007
 C125 C 0.03979 0.40131 0.07837
 C126 C 0.00998 0.41144 0.04517
 C127 C -0.02455 0.37796 0.03541
 C128 C -0.02733 0.33421 0.05681
 C129 C 0.00127 0.27815 0.11133
 C130 C -0.03211 0.24471 0.10019
 C131 C -0.03420 0.20077 0.12157
 C132 C -0.00315 0.19016 0.15387
 C133 C 0.03018 0.22419 0.16451
 C134 C 0.03247 0.26825 0.14340
 C135 C -0.06044 0.29999 0.04662
 C136 C -0.06277 0.25598 0.06793
 C137 C 0.06766 0.34658 0.13239
 C138 C 0.06541 0.30257 0.15367
 H139 H -0.08458 0.30717 0.02184
 H140 H -0.08871 0.23053 0.05903
 H141 H 0.09367 0.37201 0.14124
 H142 H 0.08969 0.29535 0.17836
 H143 H 0.06677 0.42618 0.08639
 H144 H -0.04985 0.38620 0.01148
 H145 H -0.06039 0.17518 0.11340
 H146 H 0.05480 0.21610 0.18890
 C147 C 0.31470 0.00005 0.58434
 C148 C 0.35339 -0.03684 0.59242
 C149 C 0.39767 -0.03715 0.57164
 C150 C 0.40333 -0.00090 0.54303
 C151 C 0.36455 0.03643 0.53584
 C152 C 0.31991 0.03677 0.55614
 C153 C 0.26788 0.00031 0.60589
 C154 C 0.22915 0.03710 0.59777
 C155 C 0.18481 0.03734 0.61853
 C156 C 0.17916 0.00130 0.64743
 C157 C 0.21849 -0.03540 0.65505
 C158 C 0.26285 -0.03613 0.63433
 C159 C 0.28030 0.07291 0.54873
 C160 C 0.23565 0.07303 0.56915
 C161 C 0.34689 -0.07279 0.62099
 C162 C 0.30242 -0.07238 0.64165
 H163 H 0.28381 0.10132 0.52694
 H164 H 0.20603 0.10158 0.56257
 H165 H 0.37644 -0.10145 0.62747
 H166 H 0.29897 -0.10069 0.66353
 H167 H 0.42749 -0.06591 0.57720
 H168 H 0.36912 0.06486 0.51426
 H169 H 0.15464 0.06536 0.61204
 H170 H 0.21496 -0.06283 0.67762
 C171 C -0.32929 0.00554 0.58815
 C172 C -0.36048 -0.03137 0.59657
 C173 C -0.40323 -0.03388 0.57436
 C174 C -0.41505 0.00037 0.54410
 C175 C -0.38408 0.03802 0.53671
 C176 C -0.34066 0.04027 0.55828
 C177 C -0.28379 0.00777 0.61102
 C178 C -0.25207 0.04409 0.60219
 C179 C -0.20861 0.04573 0.62388
 C180 C -0.19736 0.01184 0.65450
 C181 C -0.22974 -0.02414 0.66303
 C182 C -0.27286 -0.02655 0.64123
 C183 C -0.30820 0.07627 0.55044
 C184 C -0.26455 0.07802 0.57193
 C185 C -0.34814 -0.06521 0.62688
 C186 C -0.30515 -0.06273 0.64893
 H187 H -0.31646 0.10315 0.52738
 H188 H -0.24044 0.10626 0.56485
 H189 H -0.37195 -0.09382 0.63365
 H190 H -0.29703 -0.08947 0.67212
 H191 H -0.42706 -0.06281 0.58017
 H192 H -0.39348 0.06491 0.51382
 H193 H -0.18393 0.07369 0.61738
 H194 H -0.22091 -0.05071 0.68624
 C195 C 0.02208 -0.32583 0.91028
 C196 C -0.00564 -0.36354 0.89804
 C197 C -0.00705 -0.40599 0.92112
 C198 C 0.01992 -0.41195 0.95617
 C199 C 0.05005 -0.37458 0.96657
 C200 C 0.04987 -0.33087 0.94448
 C201 C 0.02131 -0.27986 0.88709
 C202 C 0.04702 -0.24103 0.90019
 C203 C 0.04418 -0.19650 0.87885
 C204 C 0.01671 -0.19109 0.84412
 C205 C -0.00708 -0.23152 0.83084
 C206 C -0.00584 -0.27539 0.85255
 C207 C 0.07624 -0.29170 0.95623
 C208 C 0.07444 -0.24736 0.93467
 C209 C -0.03231 -0.35772 0.86324
 C210 C -0.03199 -0.31457 0.84067
 H211 H 0.09771 -0.29498 0.98268
 H212 H 0.09462 -0.21779 0.94511
 H213 H -0.05370 -0.38672 0.85341
 H214 H -0.05314 -0.31151 0.81406
 H215 H -0.03116 -0.43332 0.91244
 H216 H 0.07339 -0.37917 0.99198
 H217 H 0.06236 -0.16588 0.88984
 H218 H -0.02697 -0.22896 0.80367
 C219 C 0.01034 0.32288 0.91535
 C220 C 0.04492 0.32393 0.94539
 C221 C 0.04687 0.36762 0.96619
 C222 C 0.01294 0.40920 0.95825
 C223 C -0.02133 0.40741 0.92790
 C224 C -0.02246 0.36455 0.90612
 C225 C 0.00830 0.27722 0.89317
 C226 C -0.02546 0.27666 0.86256
 C227 C -0.02700 0.23340 0.84132
 C228 C 0.00384 0.19017 0.85109
 C229 C 0.03730 0.19145 0.88220
 C230 C 0.04004 0.23504 0.90304
 C231 C -0.05595 0.36246 0.87542
 C232 C -0.05715 0.31936 0.85381
 C233 C 0.07646 0.28113 0.95421
 C234 C 0.07382 0.23734 0.93358
 H235 H -0.08133 0.39445 0.86797
 H236 H -0.08342 0.31933 0.83026
 H237 H 0.10312 0.28137 0.97747
 H238 H 0.09858 0.20508 0.94149
 H239 H 0.07397 0.36906 0.98902
 H240 H -0.04745 0.43929 0.92159
 H241 H -0.05201 0.23376 0.81693
 H242 H 0.06083 0.15854 0.89056
 C243 C -0.32840 -0.00627 0.41271
 C244 C -0.37134 0.02206 0.39984
 C245 C -0.41458 0.02274 0.42190
 C246 C -0.41559 -0.00486 0.45681
 C247 C -0.37217 -0.03452 0.46834
 C248 C -0.32840 -0.03456 0.44687
 C249 C -0.28255 -0.00630 0.38992
 C250 C -0.23935 -0.03412 0.40302
 C251 C -0.19566 -0.03343 0.38147
 C252 C -0.19515 -0.00557 0.34681
 C253 C -0.23921 0.02151 0.33395
 C254 C -0.28281 0.02161 0.35552
 C255 C -0.28455 -0.06231 0.45892
 C256 C -0.24072 -0.06189 0.43747
 C257 C -0.37013 0.04961 0.36529
 C258 C -0.32666 0.04922 0.34341
 H259 H -0.28401 -0.08423 0.48532
 H260 H -0.20766 -0.08356 0.44792
 H261 H -0.40308 0.07164 0.35504
 H262 H -0.32731 0.07094 0.31691
 H263 H -0.44690 0.04644 0.41249
 H264 H -0.37249 -0.05850 0.49353
 H265 H -0.16200 -0.05395 0.39200
 H266 H -0.23976 0.04226 0.30699
 C267 C 0.31573 -0.00234 0.41430
 C268 C 0.32740 -0.03937 0.44242
 C269 C 0.37160 -0.03955 0.46334
 C270 C 0.40348 -0.00254 0.45670
 C271 C 0.39135 0.03413 0.42827
 C272 C 0.34748 0.03442 0.40696
 C273 C 0.26952 -0.00219 0.39196
 C274 C 0.25816 0.03452 0.36355
 C275 C 0.21449 0.03416 0.34206
 C276 C 0.18226 -0.00254 0.34880
 C277 C 0.19403 -0.03883 0.37769
 C278 C 0.23773 -0.03891 0.39928
 C279 C 0.33467 0.07074 0.37849
 C280 C 0.29077 0.07076 0.35712
 C281 C 0.29463 -0.07542 0.44902
 C282 C 0.25052 -0.07517 0.42783
 H283 H 0.35884 0.09932 0.37261
 H284 H 0.28235 0.09933 0.33533
 H285 H 0.30315 -0.10408 0.47072
 H286 H 0.22631 -0.10369 0.43377
 H287 H 0.38124 -0.06824 0.48484
 H288 H 0.41587 0.06265 0.42316
 H289 H 0.20538 0.06262 0.32028
 H290 H 0.16969 -0.06749 0.38279
   
