data_POSCAR
  _audit_creation_date              2014-09-24
  _audit_creation_method            'ToBaCCo'
  _symmetry_space_group_name_H-M    'P1'
  _symmetry_Int_Tables_number       1
  _symmetry_cell_setting            triclinic
  loop_
  _symmetry_equiv_pos_as_xyz
 x,y,z
_cell_length_a 32.6947
_cell_length_b 32.3304
_cell_length_c 32.1290
_cell_angle_alpha 89.899800
_cell_angle_beta 89.936400
_cell_angle_gamma 89.901800
loop_
  _atom_site_label
  _atom_site_type_symbol
  _atom_site_fract_x
  _atom_site_fract_y
  _atom_site_fract_z
N1 N 0.18125 1.26224 0.14989
 N2 N 0.15042 1.25978 0.17614
 C3 C 0.12472 1.29169 0.16939
 C4 C 0.14052 1.31517 0.13734
 C5 C 0.17621 1.29573 0.12543
 H6 H 0.09595 1.29647 0.18534
 H7 H 0.19591 1.30413 0.09970
 Cu8 Cu 0.14469 1.21341 0.21438
 Cu9 Cu 0.22256 1.21903 0.14628
 Cu10 Cu 0.22084 1.14400 0.22299
 N11 N 0.14851 1.17607 0.26177
 N12 N 0.17867 1.14930 0.26541
 C13 C 0.17233 1.12568 0.29938
 C14 C 0.13649 1.13869 0.31788
 C15 C 0.12195 1.17050 0.29336
 H16 H 0.19124 1.09980 0.30872
 H17 H 0.09344 1.18710 0.29722
 N18 N 0.26539 1.14844 0.18181
 N19 N 0.26605 1.17714 0.15248
 C20 C 0.29866 1.17060 0.12765
 C21 C 0.31927 1.13633 0.14221
 C22 C 0.29756 1.12289 0.17640
 H23 H 0.30593 1.18826 0.10001
 H24 H 0.30379 1.09554 0.19477
 H25 H 0.19157 1.17039 0.17291
 H26 H 0.21843 1.20623 0.20904
 N27 N 0.82382 0.73392 0.15231
 N28 N 0.85419 0.73727 0.17892
 C29 C 0.88054 0.70576 0.17298
 C30 C 0.86572 0.68160 0.14109
 C31 C 0.82984 0.70023 0.12848
 H32 H 0.90914 0.70167 0.18939
 H33 H 0.81069 0.69112 0.10265
 Cu34 Cu 0.85850 0.78419 0.21649
 Cu35 Cu 0.78182 0.77633 0.14742
 Cu36 Cu 0.78108 0.85241 0.22282
 N37 N 0.85328 0.82208 0.26318
 N38 N 0.82264 0.84839 0.26592
 C39 C 0.82806 0.87257 0.29956
 C40 C 0.86381 0.86042 0.31878
 C41 C 0.87924 0.82852 0.29503
 H42 H 0.80860 0.89827 0.30817
 H43 H 0.90795 0.81246 0.29957
 N44 N 0.73728 0.84665 0.18110
 N45 N 0.73756 0.81753 0.15227
 C46 C 0.70526 0.82318 0.12686
 C47 C 0.68385 0.85729 0.14051
 C48 C 0.70479 0.87157 0.17477
 H49 H 0.69873 0.80502 0.09944
 H50 H 0.69782 0.89906 0.19256
 H51 H 0.81159 0.82584 0.17363
 H52 H 0.78475 0.79005 0.21001
 N53 N 0.81769 1.26628 -0.15168
 N54 N 0.84382 1.26797 -0.18282
 C55 C 0.86956 1.29991 -0.17669
 C56 C 0.85871 1.31900 -0.13995
 C57 C 0.82588 1.29699 -0.12472
 H58 H 0.89522 1.30772 -0.19645
 H59 H 0.81024 1.30189 -0.09546
 Cu60 Cu 0.84352 1.22603 -0.22621
 Cu61 Cu 0.77777 1.22198 -0.14633
 Cu62 Cu 0.76943 1.15406 -0.22933
 N63 N 0.84186 1.18461 -0.26999
 N64 N 0.81238 1.15697 -0.27138
 C65 C 0.81951 1.13073 -0.30309
 C66 C 0.85517 1.14283 -0.32246
 C67 C 0.86880 1.17688 -0.30081
 H68 H 0.80122 1.10382 -0.31026
 H69 H 0.89696 1.19361 -0.30609
 N70 N 0.72965 1.15591 -0.18316
 N71 N 0.73322 1.18135 -0.15122
 C72 C 0.70321 1.17328 -0.12363
 C73 C 0.67993 1.14133 -0.13900
 C74 C 0.69737 1.13085 -0.17659
 H75 H 0.69931 1.18851 -0.09395
 H76 H 0.68817 1.10578 -0.19673
 H77 H 0.80570 1.17682 -0.18311
 H78 H 0.77184 1.21519 -0.20965
 N79 N 0.18034 0.73635 -0.15116
 N80 N 0.14967 0.73985 -0.17742
 C81 C 0.12373 0.70805 -0.17159
 C82 C 0.13912 0.68354 -0.14012
 C83 C 0.17491 0.70227 -0.12765
 H84 H 0.09501 0.70399 -0.18774
 H85 H 0.19440 0.69295 -0.10211
 Cu86 Cu 0.14442 0.78729 -0.21439
 Cu87 Cu 0.22195 0.77901 -0.14626
 Cu88 Cu 0.22114 0.85599 -0.22100
 N89 N 0.14867 0.82588 -0.26071
 N90 N 0.17907 0.85237 -0.26358
 C91 C 0.17309 0.87693 -0.29692
 C92 C 0.13722 0.86487 -0.31583
 C93 C 0.12230 0.83261 -0.29220
 H94 H 0.19230 0.90277 -0.30558
 H95 H 0.09370 0.81641 -0.29659
 N96 N 0.26547 0.84998 -0.17987
 N97 N 0.26578 0.82056 -0.15125
 C98 C 0.29830 0.82616 -0.12616
 C99 C 0.31923 0.86055 -0.13983
 C100 C 0.29778 0.87504 -0.17374
 H101 H 0.30528 0.80777 -0.09893
 H102 H 0.30428 0.90277 -0.19139
 H103 H 0.19144 0.82864 -0.17166
 H104 H 0.21818 0.79343 -0.20866
 C105 C 0.56362 1.05513 -0.01034
 H106 H 0.56424 1.05471 0.02333
 C107 C 0.59180 1.07909 -0.03235
 H108 H 0.61414 1.09734 -0.01564
 C109 C 0.53469 1.03071 -0.07335
 H110 H 0.51303 1.01109 -0.08920
 C111 C 0.56239 1.05422 -0.09659
 H112 H 0.56175 1.05294 -0.13027
 N113 N 0.53576 1.03167 -0.03100
 C114 C 0.43914 1.00907 0.05976
 H115 H 0.43881 0.97560 0.05958
 C116 C 0.41053 1.03080 0.08349
 H117 H 0.38814 1.01408 0.10180
 C118 C 0.46761 1.07183 0.03474
 H119 H 0.48921 1.08768 0.01491
 C120 C 0.43946 1.09478 0.05801
 H121 H 0.43970 1.12825 0.05632
 Zn122 Zn 0.50140 0.99751 0.00162
 N123 N 0.46692 1.02974 0.03605
 C124 C 0.53544 0.96456 0.07630
 N125 N 0.53606 0.96335 0.03394
 C126 C 0.56386 0.93987 0.01305
 C127 C 0.59254 0.91627 0.03483
 C128 C 0.56365 0.94141 0.09930
 C129 C 0.43882 0.98625 -0.05591
 C130 C 0.41018 0.96472 -0.07962
 C131 C 0.43937 0.90053 -0.05479
 C132 C 0.46755 0.92329 -0.03152
 N133 N 0.46677 0.96539 -0.03254
 H134 H 0.51381 0.98419 0.09231
 H135 H 0.56414 0.94011 -0.02063
 H136 H 0.61492 0.89812 0.01792
 H137 H 0.56344 0.94300 0.13298
 H138 H 0.43842 1.01971 -0.05552
 H139 H 0.38771 0.98160 -0.09770
 H140 H 0.43972 0.86705 -0.05337
 H141 H 0.48930 0.90730 -0.01197
 C142 C 0.41053 1.07403 0.08238
 C143 C 0.59129 1.07847 -0.07586
 C144 C 0.41031 0.92148 -0.07886
 C145 C 0.59258 0.91726 0.07833
 C146 C -0.00843 0.56084 1.05788
 H147 H 0.02465 0.56116 1.05758
 C148 C -0.02989 0.58968 1.08174
 H149 H -0.01333 0.61224 1.10003
 C150 C -0.07054 0.53219 1.03306
 H151 H -0.08624 0.51045 1.01325
 C152 C -0.09319 0.56056 1.05646
 H153 H -0.12629 0.56034 1.05489
 N154 N -0.02891 0.53285 1.03421
 C155 C 0.05981 0.43476 1.01088
 H156 H 0.05956 0.43456 0.97721
 C157 C 0.08315 0.40570 1.03259
 H158 H 0.10108 0.38309 1.01564
 C159 C 0.03546 0.46338 1.07420
 H160 H 0.01607 0.48523 1.09027
 C161 C 0.05835 0.43479 1.09714
 H162 H 0.05680 0.43493 1.13082
 Zn163 Zn 0.00290 0.49806 0.99965
 N164 N 0.03663 0.46285 1.03184
 C165 C 0.07635 0.53235 0.96648
 N166 N 0.03472 0.53318 0.96544
 C167 C 0.01419 0.56160 0.94217
 C168 C 0.03558 0.59075 0.91863
 C169 C 0.09895 0.56103 0.94338
 C170 C -0.05417 0.43530 0.98792
 C171 C -0.07808 0.40702 0.96604
 C172 C -0.05371 0.43699 0.90167
 C173 C -0.03022 0.46479 0.92478
 N174 N -0.03098 0.46351 0.96714
 H175 H 0.09209 0.51023 0.98596
 H176 H -0.01890 0.56203 0.94256
 H177 H 0.01896 0.61364 0.90067
 H178 H 0.13205 0.56068 0.94486
 H179 H -0.05360 0.43452 1.02158
 H180 H -0.09615 0.38443 0.98285
 H181 H -0.05264 0.43783 0.86797
 H182 H -0.01085 0.48673 0.90883
 C183 C 0.08221 0.40556 1.07610
 C184 C -0.07264 0.58970 1.08080
 C185 C -0.07771 0.40777 0.92253
 C186 C 0.07833 0.59062 0.91946
 C187 C 1.05446 -0.00950 0.56518
 H188 H 1.05409 0.02396 0.56538
 C189 C 1.07787 -0.03107 0.59436
 H190 H 1.09575 -0.01421 0.61705
 C191 C 1.03047 -0.07245 0.53633
 H192 H 1.01125 -0.08843 0.51430
 C193 C 1.05345 -0.09523 0.56502
 H194 H 1.05214 -0.12870 0.56478
 N195 N 1.03147 -0.03035 0.53688
 C196 C 1.01031 0.05837 0.43686
 H197 H 0.97723 0.05814 0.43607
 C198 C 1.03214 0.08160 0.40772
 H199 H 1.01588 0.09948 0.38447
 C200 C 1.07203 0.03403 0.46708
 H201 H 1.08744 0.01468 0.48958
 C202 C 1.09506 0.05682 0.43844
 H203 H 1.12815 0.05524 0.43920
 Zn204 Zn 0.99812 0.00165 0.50108
 N205 N 1.03042 0.03525 0.46579
 C206 C 0.96512 0.07650 0.53382
 N207 N 0.96405 0.03442 0.53543
 C208 C 0.94047 0.01422 0.56383
 C209 C 0.91650 0.03644 0.59200
 C210 C 0.94158 0.09991 0.56149
 C211 C 0.98726 -0.05643 0.43812
 C212 C 0.96605 -0.08032 0.40917
 C213 C 0.90250 -0.05495 0.43803
 C214 C 0.92491 -0.03152 0.46652
 N215 N 0.96654 -0.03272 0.46605
 H216 H 0.98480 0.09198 0.51176
 H217 H 0.94080 -0.01923 0.56489
 H218 H 0.89813 0.02010 0.61477
 H219 H 0.94293 0.13338 0.56040
 H220 H 1.02035 -0.05619 0.43796
 H221 H 0.98281 -0.09868 0.38670
 H222 H 0.86940 -0.05339 0.43812
 H223 H 0.90903 -0.01170 0.48822
 C224 C 1.07489 0.08062 0.40838
 C225 C 1.07722 -0.07430 0.59438
 C226 C 0.92330 -0.07937 0.40898
 C227 C 0.91720 0.07966 0.59092
 C228 C 0.12146 0.34681 1.11725
 C229 C 0.10393 0.37408 1.09883
 C230 C -0.11333 0.64819 1.12076
 C231 C -0.09511 0.62103 1.10294
 C232 C -0.11939 0.35121 0.88114
 C233 C -0.10060 0.37744 0.89960
 C234 C 0.11864 0.64973 0.88004
 C235 C 0.10067 0.62226 0.89765
 C236 C 1.11628 0.11970 0.34956
 C237 C 1.09775 0.10225 0.37687
 C238 C 1.11744 -0.11520 0.65280
 C239 C 1.09940 -0.09690 0.62571
 C240 C 0.88323 -0.11983 0.35039
 C241 C 0.90112 -0.10172 0.37760
 C242 C 0.87569 0.12198 0.64730
 C243 C 0.89435 0.10298 0.62118
 C244 C 0.35246 1.11519 0.12204
 C245 C 0.37943 1.09677 0.10436
 C246 C 0.64778 1.11979 -0.11759
 C247 C 0.62159 1.10122 -0.09893
 C248 C 0.35239 0.88098 -0.11906
 C249 C 0.37931 0.89899 -0.10104
 C250 C 0.65066 0.87759 0.11948
 C251 C 0.62369 0.89531 0.10110
   
