data_POSCAR
  _audit_creation_date              2014-09-24
  _audit_creation_method            'ToBaCCo'
  _symmetry_space_group_name_H-M    'P1'
  _symmetry_Int_Tables_number       1
  _symmetry_cell_setting            triclinic
  loop_
  _symmetry_equiv_pos_as_xyz
 x,y,z
_cell_length_a 16.6875
_cell_length_b 16.7449
_cell_length_c 18.1237
_cell_angle_alpha 90.000000
_cell_angle_beta 90.000000
_cell_angle_gamma 90.000000
loop_
  _atom_site_label
  _atom_site_type_symbol
  _atom_site_fract_x
  _atom_site_fract_y
  _atom_site_fract_z
C1 C 1.24996 0.24997 0.25017
 C2 C 0.74996 -0.25003 0.25017
 C3 C 0.74996 0.24997 -0.24983
 C4 C 1.24996 -0.25003 -0.24983
 C5 C 0.24996 0.24997 0.75017
 C6 C 0.74996 0.74997 0.75017
 C7 C 0.74996 0.24997 0.25017
 C8 C 0.24996 0.74997 0.25017
 O9 O 1.13747 0.04234 0.09300
 O10 O 0.86308 -0.04324 0.09230
 O11 O 0.95797 0.13602 0.09250
 O12 O 1.04416 -0.13765 0.09373
 O13 O 0.84795 0.09114 0.05090
 O14 O 1.15415 -0.09227 0.05246
 O15 O 0.90892 -0.15290 0.05134
 O16 O 1.09279 0.15158 0.05051
 C17 C 1.12731 0.11480 0.10073
 C18 C 0.87353 -0.11560 0.10077
 C19 C 0.88519 0.12624 0.10061
 C20 C 1.11701 -0.12785 0.10209
 O21 O 1.13841 -0.04353 -0.09062
 O22 O 0.86389 0.04201 -0.09184
 O23 O 1.04317 0.13532 -0.09159
 O24 O 0.95845 -0.13852 -0.09078
 O25 O 0.84841 -0.09261 -0.04995
 O26 O 1.15344 0.09093 -0.05000
 O27 O 1.09372 -0.15298 -0.04860
 O28 O 0.90841 0.15154 -0.04989
 Co29 Co 1.13161 -0.00063 0.00120
 Co30 Co 0.87006 -0.00066 0.00035
 Co31 Co 1.00063 0.12940 0.00045
 Co32 Co 1.00128 -0.13137 0.00138
 O33 O 1.00088 -0.00085 0.00086
 C34 C 1.12810 -0.11591 -0.09877
 C35 C 0.87351 0.11458 -0.09984
 C36 C 1.11593 0.12575 -0.09976
 C37 C 0.88578 -0.12794 -0.09942
 O38 O 1.13841 0.54347 0.59095
 O39 O 0.86389 0.45793 0.59218
 O40 O 0.95845 0.63845 0.59111
 O41 O 1.04317 0.36461 0.59192
 O42 O 0.84841 0.59254 0.55028
 O43 O 1.15344 0.40901 0.55034
 O44 O 0.90841 0.34840 0.55022
 O45 O 1.09372 0.65292 0.54893
 C46 C 1.12810 0.61585 0.59910
 C47 C 0.87351 0.38535 0.60017
 C48 C 0.88578 0.62787 0.59975
 C49 C 1.11593 0.37419 0.60010
 O50 O 1.13747 0.45760 0.40733
 O51 O 0.86308 0.54318 0.40804
 O52 O 1.04416 0.63759 0.40661
 O53 O 0.95797 0.36391 0.40783
 O54 O 0.84795 0.40880 0.44944
 O55 O 1.15415 0.59221 0.44788
 O56 O 1.09279 0.34836 0.44983
 O57 O 0.90892 0.65283 0.44899
 Co58 Co 1.13161 0.50057 0.49914
 Co59 Co 0.87006 0.50059 0.49998
 Co60 Co 1.00128 0.63131 0.49895
 Co61 Co 1.00063 0.37054 0.49988
 O62 O 1.00088 0.50079 0.49947
 C63 C 1.12731 0.38514 0.39961
 C64 C 0.87353 0.61554 0.39957
 C65 C 1.11701 0.62779 0.39824
 C66 C 0.88520 0.37370 0.39973
 O67 O 0.63604 0.04201 0.59218
 O68 O 0.36151 -0.04353 0.59095
 O69 O 0.45675 0.13532 0.59192
 O70 O 0.54147 -0.13852 0.59111
 O71 O 0.34648 0.09093 0.55033
 O72 O 0.65152 -0.09261 0.55028
 O73 O 0.40620 -0.15298 0.54893
 O74 O 0.59151 0.15154 0.55022
 C75 C 0.62641 0.11458 0.60018
 C76 C 0.37182 -0.11591 0.59910
 C77 C 0.38399 0.12575 0.60010
 C78 C 0.61415 -0.12794 0.59975
 O79 O 0.63685 -0.04324 0.40804
 O80 O 0.36245 0.04234 0.40733
 O81 O 0.54196 0.13602 0.40783
 O82 O 0.45577 -0.13765 0.40660
 O83 O 0.34577 -0.09227 0.44788
 O84 O 0.65197 0.09114 0.44944
 O85 O 0.59100 -0.15290 0.44899
 O86 O 0.40713 0.15158 0.44983
 Co87 Co 0.62987 -0.00066 0.49998
 Co88 Co 0.36831 -0.00063 0.49913
 Co89 Co 0.49929 0.12940 0.49988
 Co90 Co 0.49864 -0.13137 0.49895
 O91 O 0.49904 -0.00085 0.49947
 C92 C 0.62639 -0.11560 0.39957
 C93 C 0.37261 0.11480 0.39961
 C94 C 0.61473 0.12624 0.39973
 C95 C 0.38291 -0.12785 0.39824
 O96 O 0.63685 0.54318 0.09230
 O97 O 0.36245 0.45759 0.09300
 O98 O 0.45576 0.63759 0.09373
 O99 O 0.54196 0.36391 0.09250
 O100 O 0.34577 0.59221 0.05246
 O101 O 0.65197 0.40880 0.05090
 O102 O 0.40713 0.34836 0.05051
 O103 O 0.59100 0.65283 0.05134
 C104 C 0.62639 0.61554 0.10077
 C105 C 0.37261 0.38514 0.10073
 C106 C 0.38291 0.62779 0.10209
 C107 C 0.61473 0.37370 0.10061
 O108 O 0.63604 0.45793 -0.09184
 O109 O 0.36151 0.54347 -0.09062
 O110 O 0.54147 0.63845 -0.09077
 O111 O 0.45675 0.36461 -0.09159
 O112 O 0.34648 0.40901 -0.05000
 O113 O 0.65152 0.59254 -0.04995
 O114 O 0.59151 0.34840 -0.04989
 O115 O 0.40620 0.65292 -0.04860
 Co116 Co 0.62987 0.50059 0.00035
 Co117 Co 0.36831 0.50057 0.00120
 Co118 Co 0.49864 0.63131 0.00138
 Co119 Co 0.49929 0.37054 0.00045
 O120 O 0.49904 0.50079 0.00087
 C121 C 0.62641 0.38536 -0.09984
 C122 C 0.37182 0.61585 -0.09877
 C123 C 0.61414 0.62787 -0.09942
 C124 C 0.38399 0.37419 -0.09976
 C125 C 1.20097 0.19910 0.20264
 C126 C 1.16565 0.15844 0.15858
 C127 C 1.20100 0.69921 0.70236
 C128 C 1.16596 0.65902 0.65766
 C129 C 0.70084 0.19890 0.70237
 C130 C 0.66533 0.15820 0.65817
 C131 C 0.70091 0.69915 0.20265
 C132 C 0.66529 0.65873 0.15860
 C133 C 0.79901 -0.19921 0.20265
 C134 C 0.83463 -0.15879 0.15859
 C135 C 0.79908 0.30104 0.70237
 C136 C 0.83459 0.34174 0.65817
 C137 C 0.29892 -0.19927 0.70236
 C138 C 0.33396 -0.15908 0.65766
 C139 C 0.29895 0.30084 0.20264
 C140 C 0.33427 0.34150 0.15858
 C141 C 0.79908 0.19890 -0.20204
 C142 C 0.83459 0.15820 -0.15784
 C143 C 0.79901 0.69915 0.29769
 C144 C 0.83463 0.65873 0.34174
 C145 C 0.29895 0.19910 0.29769
 C146 C 0.33428 0.15844 0.34175
 C147 C 0.29892 0.69921 -0.20203
 C148 C 0.33396 0.65902 -0.15732
 C149 C 1.20100 -0.19927 -0.20203
 C150 C 1.16596 -0.15908 -0.15732
 C151 C 1.20097 0.30084 0.29769
 C152 C 1.16565 0.34150 0.34175
 C153 C 0.70091 -0.19921 0.29769
 C154 C 0.66529 -0.15879 0.34174
 C155 C 0.70084 0.30104 -0.20204
 C156 C 0.66533 0.34174 -0.15784
 C157 C 1.19909 0.20085 -0.20209
 C158 C 1.15901 0.16495 -0.15777
 C159 C 1.20143 0.70316 0.29569
 C160 C 1.16078 0.66715 0.34004
 C161 C 0.69888 0.20097 0.29784
 C162 C 0.65827 0.16531 0.34193
 C163 C 0.69868 0.70117 -0.20205
 C164 C 0.65777 0.66617 -0.15769
 C165 C 0.80124 -0.20123 -0.20205
 C166 C 0.84215 -0.16624 -0.15769
 C167 C 0.80105 0.29897 0.29784
 C168 C 0.84165 0.33463 0.34193
 C169 C 0.29849 -0.20322 0.29569
 C170 C 0.33915 -0.16721 0.34004
 C171 C 0.30084 0.29908 -0.20209
 C172 C 0.34091 0.33499 -0.15777
 C173 C 1.20143 -0.20322 0.20464
 C174 C 1.16078 -0.16721 0.16029
 C175 C 1.19909 0.29908 0.70242
 C176 C 1.15901 0.33499 0.65811
 C177 C 0.69868 -0.20123 0.70238
 C178 C 0.65777 -0.16624 0.65803
 C179 C 0.69888 0.29897 0.20249
 C180 C 0.65827 0.33463 0.15841
 C181 C 0.80105 0.20097 0.20249
 C182 C 0.84165 0.16531 0.15841
 C183 C 0.80124 0.70117 0.70238
 C184 C 0.84215 0.66617 0.65803
 C185 C 0.30084 0.20085 0.70242
 C186 C 0.34091 0.16495 0.65811
 C187 C 0.29849 0.70316 0.20464
 C188 C 0.33914 0.66715 0.16029
   
