data_POSCAR
  _audit_creation_date              2014-09-24
  _audit_creation_method            'ToBaCCo'
  _symmetry_space_group_name_H-M    'P1'
  _symmetry_Int_Tables_number       1
  _symmetry_cell_setting            triclinic
  loop_
  _symmetry_equiv_pos_as_xyz
 x,y,z
_cell_length_a 62.5276
_cell_length_b 37.5376
_cell_length_c 21.7747
_cell_angle_alpha 90.078700
_cell_angle_beta 89.932300
_cell_angle_gamma 90.109100
loop_
  _atom_site_label
  _atom_site_type_symbol
  _atom_site_fract_x
  _atom_site_fract_y
  _atom_site_fract_z
C1 C 0.75159 0.25033 0.47066
 C2 C 0.75200 0.25175 0.53329
 C3 C 0.73361 0.26567 0.56915
 C4 C 0.77075 0.23901 0.56878
 C5 C 0.76898 0.23283 0.43529
 C6 C 0.73381 0.26623 0.43475
 C7 C 0.73665 0.29369 0.61051
 C8 C 0.71932 0.30840 0.64205
 C9 C 0.69817 0.29537 0.63351
 C10 C 0.69569 0.26595 0.59300
 C11 C 0.71311 0.25140 0.56167
 C12 C 0.79134 0.25232 0.55688
 C13 C 0.80909 0.23801 0.58691
 C14 C 0.80653 0.21047 0.63003
 C15 C 0.78579 0.19828 0.64370
 C16 C 0.76806 0.21250 0.61345
 C17 C 0.77486 0.19746 0.44750
 C18 C 0.79229 0.18214 0.41735
 C19 C 0.80399 0.20171 0.37365
 C20 C 0.79752 0.23666 0.35983
 C21 C 0.78015 0.25203 0.39027
 C22 C 0.72262 0.24535 0.39204
 C23 C 0.70524 0.25951 0.36005
 C24 C 0.69879 0.29494 0.36992
 C25 C 0.71043 0.31609 0.41156
 C26 C 0.72786 0.30194 0.44332
 H27 H 0.75243 0.30510 0.61681
 H28 H 0.72282 0.33149 0.66987
 H29 H 0.68054 0.25263 0.58654
 H30 H 0.71057 0.22892 0.53127
 H31 H 0.79369 0.27331 0.52345
 H32 H 0.82482 0.24842 0.57631
 H33 H 0.75229 0.20198 0.62339
 H34 H 0.76621 0.18200 0.48140
 H35 H 0.79692 0.15527 0.42939
 H36 H 0.80593 0.25218 0.32554
 H37 H 0.77572 0.27923 0.37982
 H38 H 0.72709 0.21784 0.38433
 H39 H 0.69688 0.24274 0.32745
 H40 H 0.70581 0.34338 0.42060
 H41 H 0.73653 0.31872 0.47526
 H42 H 0.78332 0.17693 0.67635
 C43 C 0.24971 0.74647 0.47070
 C44 C 0.25150 0.74932 0.53297
 C45 C 0.23469 0.76640 0.57116
 C46 C 0.27044 0.73539 0.56613
 C47 C 0.26611 0.72758 0.43350
 C48 C 0.23160 0.76267 0.43663
 C49 C 0.24019 0.79454 0.61057
 C50 C 0.22454 0.81149 0.64579
 C51 C 0.20307 0.80042 0.64268
 C52 C 0.19768 0.77165 0.60418
 C53 C 0.21336 0.75471 0.56892
 C54 C 0.29117 0.74699 0.55125
 C55 C 0.30892 0.73205 0.58032
 C56 C 0.30624 0.70557 0.62533
 C57 C 0.28541 0.69492 0.64151
 C58 C 0.26769 0.70979 0.61230
 C59 C 0.27166 0.69211 0.44616
 C60 C 0.28841 0.67575 0.41432
 C61 C 0.29973 0.69442 0.36864
 C62 C 0.29345 0.72938 0.35425
 C63 C 0.27677 0.74575 0.38628
 C64 C 0.21925 0.74153 0.39707
 C65 C 0.20183 0.75611 0.36589
 C66 C 0.19649 0.79223 0.37342
 C67 C 0.20922 0.81356 0.41205
 C68 C 0.22670 0.79897 0.44300
 H69 H 0.25659 0.80373 0.61336
 H70 H 0.22926 0.83314 0.67579
 H71 H 0.18127 0.76265 0.60052
 H72 H 0.20885 0.73263 0.53955
 H73 H 0.29358 0.76726 0.51657
 H74 H 0.32474 0.74127 0.56772
 H75 H 0.25181 0.70062 0.62450
 H76 H 0.26338 0.67743 0.48178
 H77 H 0.29291 0.64888 0.42676
 H78 H 0.30155 0.74421 0.31847
 H79 H 0.27258 0.77301 0.37542
 H80 H 0.22292 0.71355 0.39100
 H81 H 0.19262 0.73914 0.33558
 H82 H 0.20547 0.84140 0.41921
 H83 H 0.23629 0.81593 0.47238
 H84 H 0.28284 0.67438 0.67559
 C85 C 0.24509 0.26302 -0.47034
 C86 C 0.24435 0.26406 -0.53295
 C87 C 0.26183 0.28015 -0.56991
 C88 C 0.22606 0.24885 -0.56789
 C89 C 0.22822 0.24471 -0.43401
 C90 C 0.26261 0.28027 -0.43487
 C91 C 0.25712 0.30722 -0.61184
 C92 C 0.27333 0.32298 -0.64662
 C93 C 0.29485 0.31188 -0.64089
 C94 C 0.29926 0.28401 -0.59903
 C95 C 0.28296 0.26834 -0.56432
 C96 C 0.20500 0.25952 -0.55587
 C97 C 0.18791 0.24392 -0.58734
 C98 C 0.19141 0.21756 -0.63276
 C99 C 0.21282 0.20805 -0.64580
 C100 C 0.22982 0.22349 -0.61381
 C101 C 0.22340 0.20871 -0.44387
 C102 C 0.20673 0.19233 -0.41165
 C103 C 0.19445 0.21152 -0.36814
 C104 C 0.20009 0.24751 -0.35729
 C105 C 0.21675 0.26372 -0.38962
 C106 C 0.27372 0.26057 -0.39048
 C107 C 0.29017 0.27628 -0.35653
 C108 C 0.29584 0.31207 -0.36625
 C109 C 0.28457 0.33193 -0.41026
 C110 C 0.26796 0.31627 -0.44383
 H111 H 0.24087 0.31675 -0.61667
 H112 H 0.26882 0.34495 -0.67583
 H113 H 0.31513 0.27302 -0.59422
 H114 H 0.28682 0.24676 -0.53328
 H115 H 0.20178 0.27993 -0.52190
 H116 H 0.17205 0.25372 -0.57711
 H117 H 0.24599 0.21491 -0.62384
 H118 H 0.23227 0.19344 -0.47754
 H119 H 0.20301 0.16508 -0.42367
 H120 H 0.19215 0.26329 -0.32257
 H121 H 0.22051 0.29143 -0.38062
 H122 H 0.26979 0.23283 -0.38259
 H123 H 0.29869 0.26027 -0.32326
 H124 H 0.28837 0.35972 -0.41795
 H125 H 0.25923 0.33227 -0.47665
 H126 H 0.21667 0.18733 -0.67850
 C127 C -0.25070 0.74833 -0.47127
 C128 C -0.24933 0.74607 -0.53365
 C129 C -0.23041 0.75971 -0.56751
 C130 C -0.26681 0.73074 -0.57140
 C131 C -0.26906 0.73313 -0.43672
 C132 C -0.23367 0.76593 -0.43461
 C133 C -0.23298 0.78687 -0.61077
 C134 C -0.21524 0.80166 -0.64023
 C135 C -0.19431 0.78941 -0.62774
 C136 C -0.19207 0.76098 -0.58560
 C137 C -0.20989 0.74641 -0.55594
 C138 C -0.28759 0.74447 -0.56844
 C139 C -0.30390 0.72974 -0.60424
 C140 C -0.29987 0.70086 -0.64451
 C141 C -0.27868 0.68777 -0.64752
 C142 C -0.26244 0.70263 -0.61170
 C143 C -0.27473 0.69717 -0.44272
 C144 C -0.29228 0.68338 -0.41073
 C145 C -0.30467 0.70520 -0.37136
 C146 C -0.29844 0.74128 -0.36505
 C147 C -0.28086 0.75488 -0.39701
 C148 C -0.22290 0.74665 -0.38908
 C149 C -0.20574 0.76196 -0.35755
 C150 C -0.19910 0.79694 -0.37078
 C151 C -0.21046 0.81664 -0.41488
 C152 C -0.22768 0.80135 -0.44616
 H153 H -0.24877 0.79712 -0.62092
 H154 H -0.21823 0.82208 -0.67411
 H155 H -0.17654 0.75091 -0.57263
 H156 H -0.20764 0.72520 -0.52292
 H157 H -0.29114 0.76688 -0.53876
 H158 H -0.31942 0.74225 -0.60157
 H159 H -0.24646 0.69165 -0.61451
 H160 H -0.26565 0.67980 -0.47270
 H161 H -0.29645 0.65589 -0.41940
 H162 H -0.30654 0.75911 -0.33375
 H163 H -0.27653 0.78263 -0.39106
 H164 H -0.22744 0.71939 -0.37914
 H165 H -0.19761 0.74635 -0.32297
 H166 H -0.20568 0.84354 -0.42646
 H167 H -0.23604 0.81686 -0.48046
 H168 H -0.27451 0.66497 -0.67537
 O169 O -0.02970 0.93692 0.11302
 O170 O -0.05301 0.96897 0.05365
 C171 C -0.04890 0.94633 0.09698
 O172 O 0.03130 1.06280 0.10246
 O173 O 0.05439 1.02764 0.04743
 C174 C 0.05043 1.05302 0.08630
 O175 O -0.02894 1.05988 0.11122
 O176 O -0.05258 1.02767 0.05289
 C177 C -0.04824 1.05062 0.09559
 O178 O 0.03042 0.93245 0.10591
 O179 O 0.05383 0.96635 0.04962
 C180 C 0.04965 0.94180 0.08971
 Zr181 Zr 0.00041 0.95250 0.07665
 O182 O 0.00271 0.95090 0.17356
 O183 O -0.00104 0.89636 0.07073
 Zr184 Zr 0.00102 1.04279 0.07557
 O185 O 0.00389 1.04327 0.17244
 O186 O -0.00116 1.09906 0.07494
 O187 O -0.01823 0.99803 0.08872
 O188 O 0.01926 0.99744 0.08691
 O189 O 0.02967 0.93049 -0.10652
 O190 O 0.05364 0.96493 -0.05306
 C191 C 0.04905 0.93962 -0.09156
 O192 O -0.02943 1.05920 -0.11340
 O193 O -0.05288 1.02750 -0.05358
 C194 C -0.04867 1.05037 -0.09651
 O195 O 0.03079 1.06096 -0.11025
 O196 O 0.05402 1.02632 -0.05520
 C197 C 0.04997 1.05101 -0.09506
 O198 O -0.03049 0.93563 -0.11234
 O199 O -0.05333 0.96874 -0.05298
 C200 C -0.04956 0.94561 -0.09583
 Zr201 Zr -0.00012 0.95170 -0.07827
 O202 O 0.00212 0.95093 -0.17528
 O203 O -0.00275 0.89549 -0.07692
 Zr204 Zr 0.00062 1.04194 -0.07965
 O205 O 0.00262 1.04150 -0.17670
 O206 O -0.00126 1.09826 -0.07963
 Zr207 Zr -0.03121 0.99783 -0.00058
 Zr208 Zr 0.03222 0.99671 -0.00229
 O209 O 0.01875 0.99635 -0.09079
 O210 O -0.01879 0.99713 -0.09058
 O211 O 0.01920 0.94493 -0.00117
 O212 O -0.01771 1.04920 -0.00161
 O213 O -0.01857 0.94596 -0.00015
 O214 O 0.01995 1.04900 -0.00267
 H215 H 0.02901 0.99762 0.12274
 H216 H -0.02730 1.07017 -0.00144
 H217 H 0.02834 0.99577 -0.12702
 H218 H -0.02853 0.92539 0.00032
 H219 H 0.01052 1.10813 0.04856
 H220 H 0.01121 1.10742 -0.05654
 H221 H -0.00944 1.02697 -0.19218
 H222 H -0.00952 0.96605 -0.19140
 H223 H 0.00737 0.88671 -0.04552
 H224 H -0.00100 0.88757 0.11361
 H225 H -0.00753 0.96858 0.18992
 H226 H -0.00816 1.02922 0.18927
 O227 O 0.47076 0.43191 0.10748
 O228 O 0.44707 0.46316 0.04803
 C229 C 0.45146 0.44014 0.09059
 O230 O 0.52775 0.56194 0.11273
 O231 O 0.55253 0.53046 0.05729
 C232 C 0.54732 0.55415 0.09807
 O233 O 0.46792 0.55440 0.11379
 O234 O 0.44580 0.52188 0.05128
 C235 C 0.44906 0.54413 0.09586
 O236 O 0.53108 0.43214 0.10552
 O237 O 0.55414 0.46852 0.05272
 C238 C 0.55021 0.44293 0.09101
 Zr239 Zr 0.50074 0.45050 0.07513
 O240 O 0.50238 0.44798 0.17211
 O241 O 0.49947 0.39419 0.07023
 Zr242 Zr 0.49864 0.54050 0.07988
 O243 O 0.50021 0.53925 0.17697
 O244 O 0.49494 0.59655 0.08179
 O245 O 0.48060 0.49408 0.08830
 O246 O 0.51814 0.49649 0.09008
 O247 O 0.53244 0.43502 -0.10756
 O248 O 0.55471 0.46985 -0.04932
 C249 C 0.55132 0.44515 -0.08987
 O250 O 0.46999 0.55889 -0.11066
 O251 O 0.44675 0.52423 -0.05512
 C252 C 0.45083 0.54830 -0.09622
 O253 O 0.53006 0.56525 -0.10193
 O254 O 0.55361 0.53190 -0.04560
 C255 C 0.54933 0.55667 -0.08510
 O256 O 0.47245 0.43610 -0.11845
 O257 O 0.44794 0.46545 -0.05872
 C258 C 0.45291 0.44403 -0.10322
 Zr259 Zr 0.50189 0.45329 -0.07983
 O260 O 0.50532 0.45482 -0.17652
 O261 O 0.50037 0.39696 -0.08234
 Zr262 Zr 0.50012 0.54332 -0.07513
 O263 O 0.50319 0.54543 -0.17189
 O264 O 0.49666 0.59938 -0.07118
 Zr265 Zr 0.46864 0.49495 -0.00216
 Zr266 Zr 0.53219 0.49890 0.00230
 O267 O 0.51967 0.49956 -0.08739
 O268 O 0.48210 0.49741 -0.09088
 O269 O 0.52055 0.44615 -0.00143
 O270 O 0.48067 0.54728 0.00142
 O271 O 0.48284 0.44421 -0.00396
 O272 O 0.51834 0.55007 0.00417
 H273 H 0.52747 0.49644 0.12683
 H274 H 0.47048 0.56746 0.00208
 H275 H 0.52963 0.50061 -0.12276
 H276 H 0.47345 0.42295 -0.00588
 H277 H 0.50700 0.60701 0.05853
 H278 H 0.50870 0.60891 -0.04673
 H279 H 0.49173 0.53041 -0.18956
 H280 H 0.49365 0.46981 -0.19283
 H281 H 0.51219 0.38784 -0.05667
 H282 H 0.51249 0.38606 0.04854
 H283 H 0.49064 0.46283 0.18854
 H284 H 0.48868 0.52330 0.19158
 C285 C 0.30708 0.34587 0.26821
 C286 C 0.32336 0.36234 0.23458
 C287 C 0.34455 0.36152 0.25509
 C288 C 0.34914 0.34441 0.31085
 C289 C 0.33291 0.32797 0.34473
 C290 C 0.31145 0.32828 0.32424
 C291 C 0.36124 0.37991 0.21846
 C292 C 0.38189 0.37026 0.21920
 C293 C 0.39914 0.38859 0.18442
 C294 C 0.42041 0.38105 0.20005
 C295 C 0.43734 0.39762 0.16948
 C296 C 0.43342 0.42214 0.12212
 C297 C 0.41214 0.42944 0.10574
 C298 C 0.39517 0.41279 0.13633
 H299 H 0.29125 0.34605 0.24839
 H300 H 0.31940 0.37539 0.19173
 H301 H 0.36515 0.34454 0.32963
 H302 H 0.33730 0.31660 0.38850
 H303 H 0.35599 0.40163 0.18972
 H304 H 0.38666 0.34791 0.24736
 H305 H 0.42399 0.36242 0.23657
 H306 H 0.45352 0.39127 0.18330
 H307 H 0.40854 0.44802 0.06917
 H308 H 0.37912 0.41883 0.12137
 C309 C -0.15690 0.78646 0.33541
 C310 C -0.13921 0.80241 0.30725
 C311 C -0.14011 0.83771 0.28658
 C312 C -0.15904 0.85711 0.29595
 C313 C -0.17679 0.84119 0.32364
 C314 C -0.17619 0.80543 0.34384
 C315 C -0.12086 0.85350 0.25714
 C316 C -0.12151 0.88228 0.22061
 C317 C -0.10246 0.89806 0.19019
 C318 C -0.10567 0.92118 0.14046
 C319 C -0.08832 0.93691 0.11040
 C320 C -0.06728 0.92998 0.12954
 C321 C -0.06402 0.90722 0.17988
 C322 C -0.08140 0.89157 0.21011
 H323 H -0.15550 0.75873 0.34807
 H324 H -0.12480 0.78684 0.30085
 H325 H -0.16017 0.88490 0.28347
 H326 H -0.19061 0.85786 0.33157
 H327 H -0.10589 0.83967 0.26380
 H328 H -0.13678 0.89415 0.20973
 H329 H -0.12169 0.92695 0.12446
 H330 H -0.09146 0.95439 0.07191
 H331 H -0.04803 0.90163 0.19626
 H332 H -0.07816 0.87494 0.24948
 C333 C 0.68801 0.66649 0.26484
 C334 C 0.67170 0.65061 0.23053
 C335 C 0.65035 0.65271 0.24966
 C336 C 0.64556 0.67211 0.30319
 C337 C 0.66182 0.68799 0.33767
 C338 C 0.68349 0.68533 0.31964
 C339 C 0.63368 0.63492 0.21197
 C340 C 0.61430 0.62598 0.23362
 C341 C 0.59763 0.60810 0.19632
 C342 C 0.57620 0.61215 0.21388
 C343 C 0.55990 0.59507 0.18144
 C344 C 0.56469 0.57307 0.13098
 C345 C 0.58618 0.56882 0.11342
 C346 C 0.60251 0.58613 0.14574
 H347 H 0.70404 0.66480 0.24650
 H348 H 0.67583 0.63645 0.18879
 H349 H 0.62928 0.67546 0.31884
 H350 H 0.65716 0.70108 0.37982
 H351 H 0.63780 0.62856 0.16494
 H352 H 0.61007 0.63224 0.28055
 H353 H 0.57203 0.62867 0.25292
 H354 H 0.54355 0.59880 0.19652
 H355 H 0.59043 0.55190 0.07497
 H356 H 0.61888 0.58148 0.13187
 C357 C 0.15360 1.19842 0.36374
 C358 C 0.13668 1.18134 0.33384
 C359 C 0.13947 1.16615 0.27556
 C360 C 0.15958 1.16908 0.24708
 C361 C 0.17658 1.18595 0.27704
 C362 C 0.17402 1.20090 0.33623
 C363 C 0.12086 1.14848 0.24595
 C364 C 0.12236 1.12581 0.19834
 C365 C 0.10361 1.10791 0.16986
 C366 C 0.10697 1.07712 0.13442
 C367 C 0.08977 1.05933 0.10699
 C368 C 0.06879 1.07201 0.11435
 C369 C 0.06546 1.10318 0.14888
 C370 C 0.08264 1.12107 0.17594
 H371 H 0.15064 1.20816 0.40971
 H372 H 0.12135 1.17958 0.35692
 H373 H 0.16228 1.15915 0.20112
 H374 H 0.19146 1.18841 0.25203
 H375 H 0.10540 1.15333 0.26660
 H376 H 0.13795 1.11849 0.18094
 H377 H 0.12295 1.06659 0.12837
 H378 H 0.09292 1.03546 0.08049
 H379 H 0.04954 1.11403 0.15465
 H380 H 0.07934 1.14543 0.20066
 C381 C 0.65975 0.30581 -0.35946
 C382 C 0.64231 0.32218 -0.33100
 C383 C 0.64509 0.34392 -0.27939
 C384 C 0.66589 0.34920 -0.25689
 C385 C 0.68341 0.33288 -0.28515
 C386 C 0.68092 0.31075 -0.33759
 C387 C 0.62596 0.36127 -0.25220
 C388 C 0.62539 0.37592 -0.19594
 C389 C 0.60611 0.39336 -0.17012
 C390 C 0.60872 0.41933 -0.12432
 C391 C 0.59098 0.43634 -0.09855
 C392 C 0.57016 0.42744 -0.11762
 C393 C 0.56753 0.40103 -0.16285
 C394 C 0.58527 0.38410 -0.18870
 H395 H 0.65625 0.29102 -0.40082
 H396 H 0.62649 0.31804 -0.35002
 H397 H 0.66897 0.36620 -0.21781
 H398 H 0.69869 0.33696 -0.26323
 H399 H 0.61172 0.36182 -0.28038
 H400 H 0.63954 0.37603 -0.16752
 H401 H 0.62458 0.42670 -0.10875
 H402 H 0.59362 0.45638 -0.06354
 H403 H 0.55172 0.39322 -0.17813
 H404 H 0.58250 0.36332 -0.22221
 C405 C 0.18664 0.85637 -0.31544
 C406 C 0.17083 0.87399 -0.28173
 C407 C 0.15431 0.85480 -0.25319
 C408 C 0.15426 0.81737 -0.25769
 C409 C 0.17007 0.79975 -0.29146
 C410 C 0.18638 0.81906 -0.32095
 C411 C 0.13770 0.87471 -0.21869
 C412 C 0.11792 0.86200 -0.20892
 C413 C 0.10079 0.88247 -0.17769
 C414 C 0.07945 0.87320 -0.18945
 C415 C 0.06272 0.89174 -0.16155
 C416 C 0.06693 0.91989 -0.12063
 C417 C 0.08833 0.92882 -0.10789
 C418 C 0.10510 0.91027 -0.13598
 H419 H 0.19888 0.87203 -0.33807
 H420 H 0.17133 0.90279 -0.27871
 H421 H 0.14228 0.80148 -0.23452
 H422 H 0.16973 0.77094 -0.29372
 H423 H 0.14157 0.90162 -0.20470
 H424 H 0.11348 0.83642 -0.22808
 H425 H 0.07568 0.85171 -0.22091
 H426 H 0.04645 0.88394 -0.17222
 H427 H 0.09215 0.95012 -0.07613
 H428 H 0.12133 0.91750 -0.12414
 C429 C 0.34309 0.67943 -0.38076
 C430 C 0.36059 0.66258 -0.35360
 C431 C 0.36041 0.65421 -0.29081
 C432 C 0.34255 0.66397 -0.25521
 C433 C 0.32505 0.68083 -0.28238
 C434 C 0.32507 0.68857 -0.34550
 C435 C 0.37935 0.63639 -0.26393
 C436 C 0.37853 0.61673 -0.21255
 C437 C 0.39744 0.59898 -0.18523
 C438 C 0.39416 0.57047 -0.14464
 C439 C 0.41146 0.55369 -0.11633
 C440 C 0.43250 0.56524 -0.12774
 C441 C 0.43580 0.59381 -0.16837
 C442 C 0.41849 0.61062 -0.19656
 H443 H 0.34350 0.68473 -0.42962
 H444 H 0.37421 0.65563 -0.38194
 H445 H 0.34212 0.65926 -0.20624
 H446 H 0.31159 0.68825 -0.25379
 H447 H 0.39418 0.63828 -0.28937
 H448 H 0.36326 0.61206 -0.19052
 H449 H 0.37811 0.56115 -0.13471
 H450 H 0.40831 0.53181 -0.08523
 H451 H 0.45176 0.60364 -0.17771
 H452 H 0.42173 0.63321 -0.22588
 C453 C -0.15620 1.18611 -0.37557
 C454 C -0.13864 1.16934 -0.34861
 C455 C -0.13906 1.15958 -0.28642
 C456 C -0.15728 1.16791 -0.25116
 C457 C -0.17486 1.18465 -0.27817
 C458 C -0.17456 1.19375 -0.34073
 C459 C -0.12006 1.14168 -0.25996
 C460 C -0.12082 1.12123 -0.20948
 C461 C -0.10192 1.10300 -0.18296
 C462 C -0.10530 1.07450 -0.14240
 C463 C -0.08804 1.05713 -0.11493
 C464 C -0.06694 1.06800 -0.12723
 C465 C -0.06352 1.09653 -0.16783
 C466 C -0.08079 1.11399 -0.19513
 H467 H -0.15557 1.19247 -0.42403
 H468 H -0.12476 1.16351 -0.37670
 H469 H -0.15796 1.16212 -0.20257
 H470 H -0.18862 1.19086 -0.24991
 H471 H -0.10522 1.14415 -0.28518
 H472 H -0.13609 1.11618 -0.18767
 H473 H -0.12138 1.06563 -0.13184
 H474 H -0.09128 1.03528 -0.08384
 H475 H -0.04749 1.10586 -0.17778
 H476 H -0.07742 1.13652 -0.22445
 C477 C 0.66035 0.71391 -0.32026
 C478 C 0.64262 0.70036 -0.28881
 C479 C 0.64121 0.66409 -0.27447
 C480 C 0.65773 0.64133 -0.29368
 C481 C 0.67545 0.65473 -0.32541
 C482 C 0.67725 0.69142 -0.33924
 C483 C 0.62200 0.65081 -0.24154
 C484 C 0.62208 0.62129 -0.20684
 C485 C 0.60300 0.60718 -0.17426
 C486 C 0.60613 0.58307 -0.12595
 C487 C 0.58872 0.56743 -0.09606
 C488 C 0.56767 0.57534 -0.11408
 C489 C 0.56448 0.59985 -0.16196
 C490 C 0.58193 0.61551 -0.19193
 H491 H 0.66014 0.74193 -0.33161
 H492 H 0.62990 0.71840 -0.27559
 H493 H 0.65699 0.61298 -0.28503
 H494 H 0.68799 0.63610 -0.33684
 H495 H 0.60770 0.66692 -0.24399
 H496 H 0.63698 0.60723 -0.19995
 H497 H 0.62215 0.57601 -0.11157
 H498 H 0.59183 0.54867 -0.05940
 H499 H 0.54849 0.60632 -0.17737
 H500 H 0.57877 0.63318 -0.22999
 C501 C 0.15985 1.21617 -0.31370
 C502 C 0.14247 1.20037 -0.28387
 C503 C 0.14155 1.16343 -0.27550
 C504 C 0.15828 1.14239 -0.29869
 C505 C 0.17567 1.15809 -0.32873
 C506 C 0.17690 1.19541 -0.33690
 C507 C 0.12256 1.14792 -0.24454
 C508 C 0.12266 1.11612 -0.21647
 C509 C 0.10369 1.10067 -0.18529
 C510 C 0.10686 1.07454 -0.14024
 C511 C 0.08946 1.05870 -0.11057
 C512 C 0.06841 1.06844 -0.12569
 C513 C 0.06520 1.09447 -0.17110
 C514 C 0.08262 1.11032 -0.20077
 H515 H 0.15918 1.24466 -0.32062
 H516 H 0.12961 1.21718 -0.26743
 H517 H 0.15795 1.11368 -0.29461
 H518 H 0.18839 1.14061 -0.34357
 H519 H 0.10834 1.16426 -0.24249
 H520 H 0.13744 1.10130 -0.21342
 H521 H 0.12289 1.06639 -0.12780
 H522 H 0.09256 1.03867 -0.07597
 H523 H 0.04921 1.10236 -0.18430
 H524 H 0.07943 1.12948 -0.23663
 C525 C 0.31504 0.32254 -0.26682
 C526 C 0.33166 0.33781 -0.23292
 C527 C 0.34721 0.35898 -0.26181
 C528 C 0.34547 0.36538 -0.32530
 C529 C 0.32872 0.35034 -0.35913
 C530 C 0.31341 0.32858 -0.33030
 C531 C 0.36450 0.37479 -0.22400
 C532 C 0.38386 0.38313 -0.24645
 C533 C 0.40123 0.39839 -0.20821
 C534 C 0.42255 0.39294 -0.22599
 C535 C 0.43936 0.40732 -0.19158
 C536 C 0.43518 0.42792 -0.13895
 C537 C 0.41378 0.43371 -0.12155
 C538 C 0.39700 0.41917 -0.15578
 H539 H 0.30329 0.30632 -0.24323
 H540 H 0.33249 0.33283 -0.18399
 H541 H 0.35679 0.38240 -0.34883
 H542 H 0.32786 0.35539 -0.40802
 H543 H 0.36145 0.37769 -0.17530
 H544 H 0.38762 0.37688 -0.29380
 H545 H 0.42623 0.37733 -0.26652
 H546 H 0.45562 0.40255 -0.20660
 H547 H 0.40995 0.44971 -0.08161
 H548 H 0.38077 0.42494 -0.14171
 C549 C -0.16184 0.79158 -0.32902
 C550 C -0.14380 0.80627 -0.30082
 C551 C -0.14356 0.84211 -0.28243
 C552 C -0.16172 0.86322 -0.29393
 C553 C -0.17979 0.84848 -0.32199
 C554 C -0.18008 0.81249 -0.33980
 C555 C -0.12393 0.85652 -0.25317
 C556 C -0.12371 0.88589 -0.21798
 C557 C -0.10426 0.90013 -0.18754
 C558 C -0.10687 0.92378 -0.13818
 C559 C -0.08914 0.93834 -0.10837
 C560 C -0.06828 0.92972 -0.12743
 C561 C -0.06561 0.90628 -0.17722
 C562 C -0.08339 0.89175 -0.20719
 H563 H -0.16137 0.76396 -0.34334
 H564 H -0.12997 0.78951 -0.29328
 H565 H -0.16203 0.89123 -0.28241
 H566 H -0.19360 0.86529 -0.32950
 H567 H -0.10944 0.84114 -0.25863
 H568 H -0.13859 0.89941 -0.20813
 H569 H -0.12272 0.93095 -0.12238
 H570 H -0.09184 0.95639 -0.07032
 H571 H -0.04977 0.89941 -0.19351
 H572 H -0.08061 0.87458 -0.24627
 C573 C 0.33685 0.69837 0.32531
 C574 C 0.35464 0.68298 0.29705
 C575 C 0.35451 0.64691 0.28000
 C576 C 0.33617 0.62633 0.29276
 C577 C 0.31833 0.64178 0.32099
 C578 C 0.31845 0.67799 0.33751
 C579 C 0.37401 0.63186 0.25098
 C580 C 0.37425 0.60161 0.21804
 C581 C 0.39378 0.58733 0.18799
 C582 C 0.39141 0.56367 0.13850
 C583 C 0.40932 0.54965 0.10866
 C584 C 0.43008 0.55882 0.12791
 C585 C 0.43247 0.58201 0.17818
 C586 C 0.41455 0.59598 0.20810
 H587 H 0.33765 0.72614 0.33862
 H588 H 0.36861 0.69938 0.28851
 H589 H 0.33555 0.59822 0.28212
 H590 H 0.30439 0.62537 0.32966
 H591 H 0.38849 0.64753 0.25466
 H592 H 0.35944 0.58752 0.20958
 H593 H 0.37563 0.55623 0.12246
 H594 H 0.40685 0.53169 0.07033
 H595 H 0.44821 0.58928 0.19474
 H596 H 0.41713 0.61305 0.24744
 C597 C -0.15855 1.20666 0.33276
 C598 C -0.14053 1.19176 0.30481
 C599 C -0.14047 1.15591 0.28649
 C600 C -0.15876 1.13497 0.29803
 C601 C -0.17680 1.14991 0.32580
 C602 C -0.17693 1.18594 0.34336
 C603 C -0.12096 1.14127 0.25694
 C604 C -0.12114 1.11226 0.22086
 C605 C -0.10195 1.09764 0.18965
 C606 C -0.10504 1.07409 0.14039
 C607 C -0.08763 1.05906 0.10986
 C608 C -0.06658 1.06711 0.12802
 C609 C -0.06341 1.09051 0.17763
 C610 C -0.08089 1.10553 0.20835
 H611 H -0.15796 1.23431 0.34691
 H612 H -0.12659 1.20838 0.29725
 H613 H -0.15919 1.10694 0.28664
 H614 H -0.19071 1.13324 0.33317
 H615 H -0.10629 1.15619 0.26278
 H616 H -0.13621 1.09933 0.21083
 H617 H -0.12104 1.06731 0.12526
 H618 H -0.09073 1.04107 0.07197
 H619 H -0.04742 1.09697 0.19318
 H620 H -0.07775 1.12267 0.24724
 C621 C 0.66145 0.28866 0.32880
 C622 C 0.64353 0.30260 0.29907
 C623 C 0.64358 0.33772 0.27702
 C624 C 0.66192 0.35888 0.28635
 C625 C 0.67986 0.34490 0.31595
 C626 C 0.67985 0.30963 0.33751
 C627 C 0.62401 0.35152 0.24668
 C628 C 0.62401 0.37965 0.20869
 C629 C 0.60459 0.39409 0.17845
 C630 C 0.60731 0.41755 0.12892
 C631 C 0.58968 0.43302 0.10021
 C632 C 0.56880 0.42545 0.12044
 C633 C 0.56599 0.40182 0.16981
 C634 C 0.58368 0.38645 0.19879
 H635 H 0.66076 0.26162 0.34592
 H636 H 0.62955 0.28585 0.29328
 H637 H 0.66246 0.38642 0.27200
 H638 H 0.69380 0.36173 0.32170
 H639 H 0.60936 0.33684 0.25435
 H640 H 0.63905 0.39227 0.19706
 H641 H 0.62319 0.42411 0.11244
 H642 H 0.59246 0.45106 0.06225
 H643 H 0.55013 0.39569 0.18689
 H644 H 0.58077 0.36937 0.23783
 C645 C 0.15862 0.78773 0.33584
 C646 C 0.14086 0.80207 0.30589
 C647 C 0.14169 0.83638 0.28046
 C648 C 0.16065 0.85641 0.28676
 C649 C 0.17842 0.84202 0.31659
 C650 C 0.17764 0.80749 0.34138
 C651 C 0.12230 0.85060 0.24981
 C652 C 0.12274 0.87751 0.20928
 C653 C 0.10347 0.89225 0.17864
 C654 C 0.10639 0.91406 0.12698
 C655 C 0.08893 0.92972 0.09772
 C656 C 0.06803 0.92400 0.11952
 C657 C 0.06502 0.90202 0.17101
 C658 C 0.08253 0.88648 0.20054
 H659 H 0.15734 0.76133 0.35547
 H660 H 0.12641 0.78624 0.30249
 H661 H 0.16182 0.88338 0.26975
 H662 H 0.19286 0.85789 0.31986
 H663 H 0.10737 0.83718 0.25948
 H664 H 0.13797 0.88876 0.19583
 H665 H 0.12230 0.91916 0.10926
 H666 H 0.09185 0.94646 0.05811
 H667 H 0.04916 0.89737 0.18936
 H668 H 0.07949 0.87078 0.24118
   
