data_POSCAR
  _audit_creation_date              2014-09-24
  _audit_creation_method            'ToBaCCo'
  _symmetry_space_group_name_H-M    'P1'
  _symmetry_Int_Tables_number       1
  _symmetry_cell_setting            triclinic
  loop_
  _symmetry_equiv_pos_as_xyz
 x,y,z
_cell_length_a 39.7164
_cell_length_b 39.7168
_cell_length_c 39.7110
_cell_angle_alpha 90.050600
_cell_angle_beta 89.981400
_cell_angle_gamma 90.026600
loop_
  _atom_site_label
  _atom_site_type_symbol
  _atom_site_fract_x
  _atom_site_fract_y
  _atom_site_fract_z
C1 C 0.19836 0.52954 1.03851
 H2 H 0.19980 0.54834 1.01886
 C3 C 0.17272 0.53116 1.06247
 H4 H 0.15454 0.55147 1.06142
 C5 C 0.21902 0.47887 1.06243
 H6 H 0.23637 0.45794 1.06153
 C7 C 0.19368 0.47949 1.08689
 H8 H 0.19189 0.45919 1.10502
 N9 N 0.22062 0.50352 1.03869
 C10 C 0.30046 0.53766 0.97166
 H11 H 0.29909 0.51796 0.95288
 C12 C 0.32604 0.56169 0.97001
 H13 H 0.34429 0.56067 0.94975
 C14 C 0.27970 0.56171 1.02229
 H15 H 0.26233 0.56084 1.04323
 C16 C 0.30500 0.58622 1.02162
 H17 H 0.30681 0.60444 1.04185
 Zn18 Zn 0.24942 0.50016 1.00100
 N19 N 0.27817 0.53788 0.99767
 C20 C 0.21930 0.52133 0.93939
 N21 N 0.22076 0.49676 0.96322
 C22 C 0.19851 0.47071 0.96336
 C23 C 0.17305 0.46898 0.93924
 C24 C 0.19412 0.52057 0.91479
 C25 C 0.30036 0.46263 1.03043
 C26 C 0.32593 0.43861 1.03208
 C27 C 0.30499 0.41417 0.98039
 C28 C 0.27971 0.43866 0.97972
 N29 N 0.27814 0.46245 1.00437
 H30 H 0.23663 0.54229 0.94032
 H31 H 0.19983 0.45196 0.98307
 H32 H 0.15482 0.44869 0.94019
 H33 H 0.19236 0.54077 0.89656
 H34 H 0.29896 0.48230 1.04924
 H35 H 0.34414 0.43961 1.05236
 H36 H 0.30685 0.39599 0.96012
 H37 H 0.26240 0.43956 0.95875
 C38 C 0.32866 0.58584 0.99549
 C39 C 0.17000 0.50562 1.08655
 C40 C 0.32859 0.41451 1.00655
 C41 C 0.17050 0.49441 0.91507
 C42 C 0.80086 0.52995 -0.03695
 H43 H 0.79957 0.54863 -0.01715
 C44 C 0.82638 0.53169 -0.06104
 H45 H 0.84466 0.55192 -0.05998
 C46 C 0.77999 0.47945 -0.06119
 H47 H 0.76262 0.45853 -0.06037
 C48 C 0.80521 0.48022 -0.08576
 H49 H 0.80696 0.46007 -0.10408
 N50 N 0.77856 0.50395 -0.03723
 C51 C 0.69907 0.53783 0.03037
 H52 H 0.70049 0.51806 0.04904
 C53 C 0.67350 0.56182 0.03221
 H54 H 0.65530 0.56073 0.05251
 C55 C 0.71967 0.56204 -0.02022
 H56 H 0.73696 0.56124 -0.04122
 C57 C 0.69439 0.58652 -0.01936
 H58 H 0.69251 0.60479 -0.03950
 Zn59 Zn 0.74993 0.50040 0.00056
 N60 N 0.72127 0.53813 0.00427
 C61 C 0.78043 0.52119 0.06215
 N62 N 0.77876 0.49674 0.03817
 C63 C 0.80095 0.47067 0.03771
 C64 C 0.82659 0.46880 0.06164
 C65 C 0.80578 0.52030 0.08657
 C66 C 0.69881 0.46314 -0.02899
 C67 C 0.67322 0.43914 -0.03079
 C68 C 0.69430 0.41427 0.02059
 C69 C 0.71961 0.43876 0.02142
 N70 N 0.72112 0.46274 -0.00301
 H71 H 0.76313 0.54217 0.06148
 H72 H 0.79947 0.45202 0.01788
 H73 H 0.84477 0.44850 0.06043
 H74 H 0.80771 0.54040 0.10492
 H75 H 0.70017 0.48296 -0.04761
 H76 H 0.65495 0.44028 -0.05101
 H77 H 0.69250 0.39592 0.04068
 H78 H 0.73699 0.43949 0.04233
 C79 C 0.67080 0.58604 0.00683
 C80 C 0.82890 0.50632 -0.08532
 C81 C 0.67062 0.41482 -0.00550
 C82 C 0.82936 0.49412 0.08595
 C83 C -0.02899 0.30147 0.46140
 H84 H -0.04789 0.30001 0.48098
 C85 C -0.03058 0.32706 0.43742
 H86 H -0.05096 0.34519 0.43839
 C87 C 0.02183 0.28091 0.43765
 H88 H 0.04280 0.26360 0.43862
 C89 C 0.02125 0.30621 0.41317
 H90 H 0.04162 0.30802 0.39510
 N91 N -0.00292 0.27928 0.46131
 C92 C -0.03746 0.19947 0.52810
 H93 H -0.01791 0.20087 0.54701
 C94 C -0.06149 0.17388 0.52958
 H95 H -0.06063 0.15566 0.54984
 C96 C -0.06111 0.22015 0.47730
 H97 H -0.06008 0.23749 0.45637
 C98 C -0.08561 0.19485 0.47780
 H99 H -0.10367 0.19300 0.45744
 Zn100 Zn 0.00024 0.25051 0.49900
 N101 N -0.03748 0.22173 0.50208
 C102 C -0.02132 0.28066 0.56053
 N103 N 0.00338 0.27919 0.53681
 C104 C 0.02944 0.30143 0.53681
 C105 C 0.03105 0.32689 0.56098
 C106 C -0.02069 0.30583 0.58518
 C107 C 0.03806 0.19958 0.46976
 C108 C 0.06207 0.17400 0.46829
 C109 C 0.08604 0.19494 0.52020
 C110 C 0.06156 0.22024 0.52068
 N111 N 0.03800 0.22181 0.49584
 H112 H -0.04228 0.26333 0.55950
 H113 H 0.04829 0.30010 0.51719
 H114 H 0.05136 0.34509 0.56015
 H115 H -0.04098 0.30760 0.60333
 H116 H 0.01855 0.20098 0.45080
 H117 H 0.06126 0.15578 0.44799
 H118 H 0.10403 0.19309 0.54061
 H119 H 0.06047 0.23755 0.54166
 C120 C -0.08543 0.17122 0.50392
 C121 C -0.00495 0.32981 0.41341
 C122 C 0.08593 0.17132 0.49402
 C123 C 0.00550 0.32943 0.58505
 C124 C 0.97059 0.69895 0.53749
 H125 H 0.95179 0.70027 0.51781
 C126 C 0.96891 0.67347 0.56159
 H127 H 0.94862 0.65525 0.56066
 C128 C 1.02127 0.71972 0.56137
 H129 H 1.04223 0.73705 0.56041
 C130 C 1.02058 0.69453 0.58595
 H131 H 1.04082 0.69275 0.60414
 N132 N 0.99664 0.72119 0.53759
 C133 C 0.96230 0.80064 0.47035
 H134 H 0.98189 0.79918 0.45148
 C135 C 0.93831 0.82624 0.46877
 H136 H 0.93923 0.84440 0.44845
 C137 C 0.93855 0.78014 0.52120
 H138 H 0.93953 0.76288 0.54220
 C139 C 0.91408 0.80545 0.52060
 H140 H 0.89600 0.80738 0.54093
 Zn141 Zn 0.99996 0.74980 0.49980
 N142 N 0.96222 0.77848 0.49645
 C143 C 0.97871 0.71925 0.43836
 N144 N 1.00333 0.72094 0.46215
 C145 C 1.02941 0.69876 0.46238
 C146 C 1.03114 0.67313 0.43841
 C147 C 0.97946 0.69389 0.41390
 C148 C 1.03752 0.80090 0.52904
 C149 C 1.06151 0.82651 0.53058
 C150 C 1.08585 0.80545 0.47889
 C151 C 1.06138 0.78012 0.47833
 N152 N 1.03766 0.77858 0.50303
 H153 H 0.95772 0.73653 0.43921
 H154 H 1.04819 0.70027 0.48205
 H155 H 1.05146 0.65497 0.43943
 H156 H 0.95923 0.69194 0.39571
 H157 H 1.01789 0.79953 0.54788
 H158 H 1.06055 0.84479 0.55083
 H159 H 1.10398 0.80726 0.45859
 H160 H 1.06045 0.76273 0.45740
 C161 C 0.91434 0.82900 0.49440
 C162 C 0.99441 0.67091 0.58570
 C163 C 1.08555 0.82914 0.50500
 C164 C 1.00566 0.67034 0.41429
 C165 C 0.46221 -0.02962 0.30035
 H166 H 0.48177 -0.04852 0.29892
 C167 C 0.43821 -0.03113 0.32595
 H168 H 0.43907 -0.05141 0.34416
 C169 C 0.43858 0.02122 0.27976
 H170 H 0.43961 0.04218 0.26246
 C171 C 0.41410 0.02069 0.30508
 H172 H 0.39606 0.04105 0.30697
 N173 N 0.46220 -0.00356 0.27814
 C174 C 0.52926 -0.03787 0.19837
 H175 H 0.54810 -0.01824 0.19983
 C176 C 0.53089 -0.06186 0.17275
 H177 H 0.55126 -0.06084 0.15459
 C178 C 0.47850 -0.06175 0.21897
 H179 H 0.45754 -0.06082 0.23630
 C180 C 0.47913 -0.08623 0.19364
 H181 H 0.45881 -0.10436 0.19183
 Zn182 Zn 0.49994 -0.00033 0.24941
 N183 N 0.50319 -0.03802 0.22059
 C184 C 0.56134 -0.02185 0.27968
 N185 N 0.53766 0.00288 0.27815
 C186 C 0.53759 0.02891 0.30043
 C187 C 0.56160 0.03046 0.32601
 C188 C 0.58583 -0.02127 0.30497
 C189 C 0.47063 0.03732 0.19854
 C190 C 0.46895 0.06142 0.17307
 C191 C 0.52065 0.08579 0.19406
 C192 C 0.52134 0.06120 0.21925
 N193 N 0.49669 0.03743 0.22075
 H194 H 0.56035 -0.04279 0.26232
 H195 H 0.51800 0.04778 0.29907
 H196 H 0.56070 0.05074 0.34426
 H197 H 0.60393 -0.04159 0.30679
 H198 H 0.45182 0.01766 0.19989
 H199 H 0.44865 0.06051 0.15488
 H200 H 0.54090 0.10398 0.19226
 H201 H 0.54231 0.06025 0.23656
 C202 C 0.50532 -0.08594 0.17000
 C203 C 0.41428 -0.00547 0.32867
 C204 C 0.49446 0.08554 0.17048
 C205 C 0.58560 0.00487 0.32863
 C206 C 0.53805 -0.02983 0.69910
 H207 H 0.51851 -0.04876 0.70052
 C208 C 0.56207 -0.03134 0.67351
 H209 H 0.56123 -0.05167 0.65531
 C210 C 0.56163 0.02108 0.71970
 H211 H 0.56057 0.04208 0.73699
 C212 C 0.58613 0.02055 0.69440
 H213 H 0.60415 0.04094 0.69252
 N214 N 0.53802 -0.00373 0.72131
 C215 C 0.47087 -0.03795 0.80102
 H216 H 0.45205 -0.01833 0.79955
 C217 C 0.46920 -0.06190 0.82664
 H218 H 0.44887 -0.06091 0.84481
 C219 C 0.52165 -0.06184 0.78049
 H220 H 0.54264 -0.06094 0.76319
 C221 C 0.52095 -0.08627 0.80583
 H222 H 0.54123 -0.10441 0.80775
 Zn223 Zn 0.50025 -0.00048 0.75001
 N224 N 0.49697 -0.03812 0.77883
 C225 C 0.43886 -0.02210 0.71971
 N226 N 0.46255 0.00263 0.72123
 C227 C 0.46264 0.02863 0.69895
 C228 C 0.43860 0.03014 0.67339
 C229 C 0.41434 -0.02157 0.69443
 C230 C 0.52949 0.03732 0.80091
 C231 C 0.53110 0.06147 0.82638
 C232 C 0.47940 0.08570 0.80532
 C233 C 0.47877 0.06107 0.78013
 N234 N 0.50345 0.03734 0.77866
 H235 H 0.43983 -0.04301 0.73707
 H236 H 0.48224 0.04750 0.70032
 H237 H 0.43951 0.05039 0.65515
 H238 H 0.39622 -0.04188 0.69263
 H239 H 0.54832 0.01769 0.79958
 H240 H 0.55138 0.06063 0.84460
 H241 H 0.45913 0.10385 0.80709
 H242 H 0.45783 0.06004 0.76280
 C243 C 0.49474 -0.08594 0.82939
 C244 C 0.58598 -0.00565 0.67080
 C245 C 0.50556 0.08554 0.82894
 C246 C 0.41458 0.00454 0.67078
 C247 C 0.21383 -0.03040 0.50089
 C248 C 0.23155 0.00012 0.49986
 C249 C 0.21395 0.03069 0.49877
 C250 C 0.17870 0.03076 0.49872
 C251 C 0.16103 0.00022 0.49974
 C252 C 0.17858 -0.03036 0.50082
 C253 C 0.26850 0.00004 0.49986
 C254 C 0.28616 -0.00091 0.46930
 C255 C 0.32141 -0.00106 0.46927
 C256 C 0.33901 -0.00023 0.49984
 C257 C 0.32141 0.00072 0.53042
 C258 C 0.28616 0.00085 0.53041
 H259 H 0.22746 -0.05403 0.50171
 H260 H 0.22769 0.05428 0.49797
 H261 H 0.27247 -0.00155 0.44568
 H262 H 0.27248 0.00158 0.55404
 H263 H 0.13373 0.00026 0.49969
 H264 H 0.36632 -0.00035 0.49983
 C265 C 0.78628 -0.03044 0.49853
 C266 C 0.76861 0.00010 0.49942
 C267 C 0.78627 0.03067 0.50018
 C268 C 0.82152 0.03071 0.50008
 C269 C 0.83913 0.00016 0.49919
 C270 C 0.82153 -0.03043 0.49841
 C271 C 0.73166 0.00006 0.49950
 C272 C 0.71405 -0.00101 0.53008
 C273 C 0.67880 -0.00111 0.53017
 C274 C 0.66115 -0.00016 0.49964
 C275 C 0.67870 0.00090 0.46904
 C276 C 0.71395 0.00102 0.46898
 H277 H 0.77261 -0.05407 0.49793
 H278 H 0.77258 0.05428 0.50087
 H279 H 0.72778 -0.00177 0.55367
 H280 H 0.72759 0.00183 0.44534
 H281 H 0.86644 0.00018 0.49910
 H282 H 0.63384 -0.00025 0.49969
 C283 C 0.53017 0.28648 0.99826
 C284 C 0.49967 0.26878 0.99992
 C285 C 0.46914 0.28640 1.00171
 C286 C 0.46909 0.32165 1.00171
 C287 C 0.49962 0.33929 1.00017
 C288 C 0.53017 0.32173 0.99851
 C289 C 0.49970 0.23182 0.99985
 C290 C 0.49817 0.21413 1.03035
 C291 C 0.49836 0.17889 1.03032
 C292 C 0.49983 0.16131 0.99974
 C293 C 0.50124 0.17893 0.96922
 C294 C 0.50130 0.21418 0.96929
 H295 H 0.55377 0.27283 0.99696
 H296 H 0.44555 0.27269 1.00294
 H297 H 0.49700 0.22780 1.05398
 H298 H 0.50243 0.22788 0.94571
 H299 H 0.49960 0.36660 1.00027
 H300 H 0.49988 0.13400 0.99971
 C301 C 0.53025 0.71413 0.00268
 C302 C 0.49974 0.73179 0.00100
 C303 C 0.46921 0.71412 -0.00055
 C304 C 0.46916 0.67887 -0.00030
 C305 C 0.49970 0.66127 0.00126
 C306 C 0.53025 0.67888 0.00269
 C307 C 0.49977 0.76875 0.00087
 C308 C 0.49831 0.78628 -0.02973
 C309 C 0.49849 0.82153 -0.02987
 C310 C 0.49988 0.83926 0.00063
 C311 C 0.50122 0.82179 0.03124
 C312 C 0.50128 0.78654 0.03134
 H313 H 0.55385 0.72782 0.00381
 H314 H 0.44562 0.72780 -0.00179
 H315 H 0.49721 0.77250 -0.05328
 H316 H 0.50234 0.77296 0.05499
 H317 H 0.49969 0.63396 0.00136
 H318 H 0.49993 0.86657 0.00054
 C319 C 1.00217 0.52962 0.28615
 C320 C 1.00069 0.49909 0.26848
 C321 C 0.99919 0.46857 0.28614
 C322 C 0.99928 0.46857 0.32140
 C323 C 1.00064 0.49914 0.33901
 C324 C 1.00202 0.52967 0.32141
 C325 C 1.00066 0.49908 0.23152
 C326 C 1.03116 0.50078 0.21381
 C327 C 1.03113 0.50077 0.17855
 C328 C 1.00057 0.49930 0.16099
 C329 C 0.97005 0.49773 0.17864
 C330 C 0.97011 0.49750 0.21389
 H331 H 1.00325 0.55322 0.27248
 H332 H 0.99809 0.44496 0.27245
 H333 H 1.05477 0.50197 0.22746
 H334 H 0.94653 0.49628 0.22761
 H335 H 1.00061 0.49916 0.36632
 H336 H 1.00053 0.49940 0.13368
 C337 C -0.00162 0.53058 0.71407
 C338 C -0.00006 0.50005 0.73169
 C339 C 0.00152 0.46953 0.71399
 C340 C 0.00140 0.46953 0.67873
 C341 C -0.00003 0.50008 0.66117
 C342 C -0.00148 0.53062 0.67882
 C343 C -0.00010 0.50004 0.76866
 C344 C -0.03063 0.50179 0.78630
 C345 C -0.03070 0.50173 0.82155
 C346 C -0.00018 0.50017 0.83918
 C347 C 0.03037 0.49855 0.82161
 C348 C 0.03040 0.49836 0.78635
 H349 H -0.00278 0.55417 0.72778
 H350 H 0.00265 0.44593 0.72764
 H351 H -0.05421 0.50304 0.77259
 H352 H 0.05401 0.49709 0.77269
 H353 H -0.00003 0.50009 0.63386
 H354 H -0.00022 0.50023 0.86650
 C355 C 0.10816 0.14273 0.49490
 C356 C 0.12559 0.11790 0.49571
 C357 C 0.14484 0.08805 0.49672
 C358 C 0.16056 0.06211 0.49762
 C359 C 0.64219 0.60827 0.00628
 C360 C 0.61735 0.62569 0.00569
 C361 C 0.58750 0.64495 0.00483
 C362 C 0.56157 0.66069 0.00394
 C363 C 0.89213 -0.14238 0.49516
 C364 C 0.87472 -0.11754 0.49585
 C365 C 0.85547 -0.08769 0.49672
 C366 C 0.83974 -0.06175 0.49748
 C367 C 0.35718 0.39226 1.00582
 C368 C 0.38200 0.37482 1.00509
 C369 C 0.41183 0.35555 1.00408
 C370 C 0.43777 0.33982 1.00309
 C371 C 0.89227 0.14265 0.50311
 C372 C 0.87480 0.11783 0.50242
 C373 C 0.85548 0.08800 0.50160
 C374 C 0.83972 0.06206 0.50090
 C375 C 0.35724 0.60813 -0.00382
 C376 C 0.38206 0.62560 -0.00317
 C377 C 0.41190 0.64490 -0.00231
 C378 C 0.43783 0.66066 -0.00146
 C379 C 0.10780 -0.14226 0.50421
 C380 C 0.12525 -0.11743 0.50349
 C381 C 0.14455 -0.08759 0.50261
 C382 C 0.16032 -0.06167 0.50181
 C383 C 0.64204 0.39254 0.99506
 C384 C 0.61722 0.37506 0.99565
 C385 C 0.58740 0.35574 0.99647
 C386 C 0.56147 0.33997 0.99731
 C387 C 0.49509 0.10792 1.14201
 C388 C 0.49568 0.12547 1.11727
 C389 C 0.49647 0.14485 1.08750
 C390 C 0.49725 0.16065 1.06161
 C391 C -0.00493 0.64241 0.60805
 C392 C -0.00430 0.61764 0.62556
 C393 C -0.00346 0.58785 0.64489
 C394 C -0.00263 0.56194 0.66064
 C395 C 0.49537 0.89186 -0.14199
 C396 C 0.49594 0.87447 -0.11713
 C397 C 0.49670 0.85527 -0.08724
 C398 C 0.49745 0.83961 -0.06126
 C399 C 0.99575 0.35685 0.39233
 C400 C 0.99643 0.38160 0.37478
 C401 C 0.99730 0.41137 0.35541
 C402 C 0.99814 0.43727 0.33961
 C403 C 0.50466 0.89297 0.14294
 C404 C 0.50401 0.87540 0.11817
 C405 C 0.50317 0.85598 0.08840
 C406 C 0.50235 0.84012 0.06251
 C407 C 0.00482 0.35788 0.60752
 C408 C 0.00419 0.38260 0.62514
 C409 C 0.00336 0.41235 0.64460
 C410 C 0.00254 0.43823 0.66046
 C411 C 0.50485 0.10796 0.85742
 C412 C 0.50418 0.12553 0.88218
 C413 C 0.50330 0.14493 0.91196
 C414 C 0.50243 0.16073 0.93788
 C415 C 1.00509 0.64171 0.39205
 C416 C 1.00454 0.61685 0.37462
 C417 C 1.00380 0.58697 0.35535
 C418 C 1.00307 0.56102 0.33961
 C419 C 1.14291 0.50488 0.10760
 C420 C 1.11812 0.50413 0.12512
 C421 C 1.08833 0.50311 0.14449
 C422 C 1.06243 0.50212 0.16030
 C423 C 0.60822 -0.00482 0.64219
 C424 C 0.62566 -0.00404 0.61735
 C425 C 0.64492 -0.00306 0.58749
 C426 C 0.66064 -0.00219 0.56153
 C427 C -0.14256 0.50567 0.89234
 C428 C -0.11776 0.50498 0.87484
 C429 C -0.08795 0.50403 0.85550
 C430 C -0.06203 0.50307 0.83974
 C431 C 0.39205 -0.00463 0.35729
 C432 C 0.37462 -0.00386 0.38213
 C433 C 0.35534 -0.00291 0.41198
 C434 C 0.33960 -0.00207 0.43793
 C435 C 0.14203 0.49501 0.89267
 C436 C 0.11729 0.49562 0.87510
 C437 C 0.08754 0.49647 0.85569
 C438 C 0.06166 0.49733 0.83986
 C439 C 0.60788 0.00410 0.35720
 C440 C 0.62535 0.00342 0.38201
 C441 C 0.64467 0.00258 0.41182
 C442 C 0.66045 0.00183 0.43774
 C443 C 0.85800 0.49460 0.10815
 C444 C 0.88286 0.49511 0.12555
 C445 C 0.91274 0.49584 0.14478
 C446 C 0.93870 0.49661 0.16048
 C447 C 0.39226 0.00376 0.64225
 C448 C 0.37475 0.00308 0.61746
 C449 C 0.35541 0.00227 0.58766
 C450 C 0.33963 0.00157 0.56174
   
