data_POSCAR
  _audit_creation_date              2014-09-24
  _audit_creation_method            'ToBaCCo'
  _symmetry_space_group_name_H-M    'P1'
  _symmetry_Int_Tables_number       1
  _symmetry_cell_setting            triclinic
  loop_
  _symmetry_equiv_pos_as_xyz
 x,y,z
_cell_length_a 36.6629
_cell_length_b 36.6873
_cell_length_c 36.6624
_cell_angle_alpha 88.829300
_cell_angle_beta 90.713600
_cell_angle_gamma 88.816800
loop_
  _atom_site_label
  _atom_site_type_symbol
  _atom_site_fract_x
  _atom_site_fract_y
  _atom_site_fract_z
O1 O 0.54951 0.49886 0.03025
 O2 O 0.44891 0.49995 0.03046
 O3 O 0.49967 0.44925 0.03032
 O4 O 0.49876 0.54957 0.03038
 O5 O 0.49784 0.55087 -0.02990
 O6 O 0.49875 0.45055 -0.02997
 O7 O 0.44800 0.50125 -0.02979
 O8 O 0.54859 0.50016 -0.03003
 Cu9 Cu 0.49930 0.49928 0.03640
 Cu10 Cu 0.49820 0.50084 -0.03597
 C11 C 0.56617 0.49935 0.00007
 C12 C 0.43127 0.50074 0.00037
 C13 C 0.49933 0.43284 0.00016
 C14 C 0.49819 0.56728 0.00025
 O15 O -0.02964 0.55192 0.49852
 O16 O -0.02961 0.45144 0.49927
 O17 O -0.02978 0.50105 0.54911
 O18 O -0.02947 0.50229 0.44867
 O19 O 0.03081 0.50104 0.44962
 O20 O 0.03050 0.49980 0.55007
 O21 O 0.03066 0.45018 0.50023
 O22 O 0.03061 0.55067 0.49948
 Cu23 Cu -0.03567 0.50180 0.49879
 Cu24 Cu 0.03669 0.50030 0.49994
 C25 C 0.00048 0.56845 0.49892
 C26 C 0.00052 0.43372 0.49985
 C27 C 0.00031 0.50024 0.56667
 C28 C 0.00072 0.50182 0.43206
 O29 O 0.49987 0.03019 0.55065
 O30 O 0.49951 0.03017 0.45016
 O31 O 0.44953 0.03012 0.49995
 O32 O 0.54986 0.03026 0.50085
 O33 O 0.55122 -0.03000 0.50213
 O34 O 0.45089 -0.03014 0.50123
 O35 O 0.50086 -0.03008 0.45144
 O36 O 0.50122 -0.03004 0.55193
 Cu37 Cu 0.49956 0.03624 0.50028
 Cu38 Cu 0.50119 -0.03612 0.50181
 C39 C 0.50061 0.00008 0.56844
 C40 C 0.50011 0.00004 0.43371
 C41 C 0.43315 -0.00004 0.50042
 C42 C 0.56759 0.00016 0.50163
 C43 C 0.49847 0.09500 -0.06895
 C44 C 0.50088 0.06892 -0.09503
 C45 C 0.50132 0.03542 -0.07680
 N46 N 0.49978 0.04034 -0.04040
 C47 C 0.49816 0.07674 -0.03546
 C48 C 0.50233 0.00128 -0.09411
 C49 C 0.50172 -0.03297 -0.07550
 C50 C 0.49586 -0.06574 -0.09264
 C51 C 0.49566 -0.09238 -0.06591
 C52 C 0.50141 -0.07541 -0.03291
 N53 N 0.50560 -0.03918 -0.03905
 C54 C 0.50172 -0.09395 0.00143
 C55 C 0.50079 -0.07666 0.03558
 C56 C 0.50010 -0.09492 0.06906
 C57 C 0.49782 -0.06883 0.09513
 C58 C 0.49781 -0.03533 0.07692
 N59 N 0.49952 -0.04026 0.04053
 C60 C 0.49712 -0.00120 0.09424
 C61 C 0.49790 0.03303 0.07561
 C62 C 0.50413 0.06576 0.09269
 C63 C 0.50420 0.09240 0.06596
 C64 C 0.49802 0.07547 0.03302
 N65 N 0.49371 0.03926 0.03919
 C66 C 0.49736 0.09403 -0.00131
 H67 H 0.49727 0.12412 -0.07426
 H68 H 0.50204 0.07424 -0.12411
 H69 H 0.48587 0.02044 0.02005
 H70 H 0.49115 -0.07005 -0.12142
 H71 H 0.49079 -0.12096 -0.07034
 H72 H 0.50100 -0.12404 0.07436
 H73 H 0.49645 -0.07414 0.12421
 H74 H 0.50925 0.12095 0.07034
 H75 H 0.51306 -0.02029 -0.01985
 H76 H 0.50912 0.07003 0.12143
 C77 C -0.06599 0.48202 0.90750
 C78 C -0.09232 0.48198 0.93374
 C79 C -0.07588 0.49378 0.96550
 N80 N -0.04040 0.50107 0.95952
 C81 C -0.03428 0.49384 0.92406
 C82 C -0.09396 0.49916 0.99886
 C83 C -0.07514 0.50533 1.03204
 C84 C -0.09124 0.51814 1.06345
 C85 C -0.06449 0.51794 1.09006
 C86 C -0.03261 0.50536 1.07415
 N87 N -0.03941 0.49757 1.03881
 C88 C 0.00088 0.49896 1.09302
 C89 C 0.03453 0.49320 1.07551
 C90 C 0.06739 0.48495 1.09324
 C91 C 0.09375 0.48490 1.06698
 C92 C 0.07613 0.49312 1.03407
 N93 N 0.04003 0.49847 1.03944
 C94 C 0.09372 0.49878 1.00044
 C95 C 0.07472 0.50527 0.96703
 C96 C 0.09050 0.51786 0.93510
 C97 C 0.06372 0.51826 0.90852
 C98 C 0.03234 0.50552 0.92475
 N99 N 0.03929 0.49764 0.96040
 C100 C -0.00091 0.49935 0.90606
 H101 H -0.06977 0.47394 0.87951
 H102 H -0.12028 0.47384 0.92985
 H103 H 0.02209 0.48380 0.97794
 H104 H -0.11940 0.52656 1.06702
 H105 H -0.06830 0.52587 1.11804
 H106 H 0.07209 0.48029 1.12218
 H107 H 0.12266 0.48022 1.07178
 H108 H 0.06716 0.52670 0.88034
 H109 H -0.02185 0.48373 1.02162
 H110 H 0.11849 0.52567 0.93113
 C111 C 0.09518 -0.06898 0.49735
 C112 C 0.06918 -0.09514 0.49976
 C113 C 0.03569 -0.07693 0.50062
 N114 N 0.04056 -0.04050 0.49929
 C115 C 0.07691 -0.03550 0.49743
 C116 C 0.00157 -0.09426 0.50186
 C117 C -0.03267 -0.07555 0.50187
 C118 C -0.06578 -0.09233 0.49629
 C119 C -0.09237 -0.06555 0.49673
 C120 C -0.07502 -0.03287 0.50256
 N121 N -0.03860 -0.03928 0.50619
 C122 C -0.09345 0.00146 0.50346
 C123 C -0.07618 0.03562 0.50252
 C124 C -0.09446 0.06910 0.50225
 C125 C -0.06847 0.09525 0.49971
 C126 C -0.03496 0.07705 0.49915
 N127 N -0.03982 0.04062 0.50077
 C128 C -0.00084 0.09437 0.49801
 C129 C 0.03339 0.07564 0.49830
 C130 C 0.06645 0.09240 0.50426
 C131 C 0.09304 0.06561 0.50396
 C132 C 0.07574 0.03297 0.49780
 N133 N 0.03935 0.03939 0.49388
 C134 C 0.09419 -0.00135 0.49680
 H135 H 0.12426 -0.07424 0.49590
 H136 H 0.07455 -0.12425 0.50069
 H137 H 0.02014 0.02060 0.48617
 H138 H -0.07039 -0.12087 0.49137
 H139 H -0.12120 -0.06970 0.49222
 H140 H -0.12355 0.07437 0.50356
 H141 H -0.07384 0.12435 0.49853
 H142 H 0.12183 0.06973 0.50873
 H143 H -0.01933 -0.02043 0.51358
 H144 H 0.07102 0.12091 0.50933
 N145 N -0.33803 0.49818 1.03174
 C146 C -0.31977 0.49882 0.99979
 N147 N -0.33901 0.49956 0.96794
 N148 N -0.37537 0.49969 0.96803
 C149 C -0.39374 0.49907 0.99998
 N150 N -0.37439 0.49831 1.03183
 C151 C -0.28057 0.49880 0.99969
 C152 C -0.24766 0.49883 0.99957
 C153 C -0.20846 0.49891 0.99939
 N154 N -0.19062 0.51966 0.97463
 N155 N -0.15427 0.51974 0.97444
 C156 C -0.13449 0.49904 0.99901
 N157 N -0.15248 0.47831 1.02380
 N158 N -0.18883 0.47825 1.02398
 N159 N 0.33751 0.50166 0.96867
 C160 C 0.31925 0.50097 1.00060
 N161 N 0.33846 0.50029 1.03246
 N162 N 0.37482 0.50028 1.03240
 C163 C 0.39325 0.50094 1.00045
 N164 N 0.37387 0.50165 0.96859
 C165 C 0.28005 0.50077 1.00067
 C166 C 0.24714 0.50052 1.00070
 C167 C 0.20795 0.50012 1.00069
 N168 N 0.19026 0.46817 1.00435
 N169 N 0.15391 0.46775 1.00424
 C170 C 0.13406 0.49929 1.00042
 N171 N 0.15182 0.53126 0.99686
 N172 N 0.18817 0.53165 0.99696
 N173 N 0.03235 -0.33903 0.49946
 C174 C 0.00045 -0.31965 0.49902
 N175 N -0.03144 -0.33770 0.49845
 N176 N -0.03144 -0.37403 0.49836
 C177 C 0.00047 -0.39358 0.49883
 N178 N 0.03237 -0.37535 0.49937
 C179 C 0.00046 -0.28050 0.49931
 C180 C 0.00052 -0.24763 0.49964
 C181 C 0.00068 -0.20850 0.50012
 N182 N -0.01334 -0.19037 0.52879
 N183 N -0.01301 -0.15407 0.52934
 C184 C 0.00144 -0.13468 0.50127
 N185 N 0.01529 -0.15291 0.47250
 N186 N 0.01496 -0.18921 0.47197
 N187 N 0.03240 0.33782 0.50050
 C188 C 0.00049 0.31978 0.49999
 N189 N -0.03140 0.33918 0.49950
 N190 N -0.03139 0.37551 0.49951
 C191 C 0.00052 0.39367 0.50000
 N192 N 0.03242 0.37415 0.50051
 C193 C 0.00046 0.28064 0.49982
 C194 C 0.00037 0.24776 0.49962
 C195 C 0.00016 0.20862 0.49930
 N196 N -0.01448 0.18948 0.52735
 N197 N -0.01485 0.15317 0.52696
 C198 C -0.00070 0.13480 0.49843
 N199 N 0.01411 0.15405 0.47046
 N200 N 0.01449 0.19035 0.47087
 N201 N 0.50023 0.03202 -0.33902
 C202 C 0.50101 0.00016 -0.31962
 N203 N 0.50166 -0.03174 -0.33766
 N204 N 0.50153 -0.03177 -0.37401
 C205 C 0.50074 0.00010 -0.39358
 N206 N 0.50009 0.03201 -0.37537
 C207 C 0.50118 0.00020 -0.28047
 C208 C 0.50134 0.00029 -0.24758
 C209 C 0.50154 0.00049 -0.20844
 N210 N 0.52999 -0.01463 -0.18912
 N211 N 0.53025 -0.01431 -0.15278
 C212 C 0.50210 0.00123 -0.13456
 N213 N 0.47355 0.01618 -0.15398
 N214 N 0.47331 0.01586 -0.19032
 N215 N 0.49880 0.03186 0.33779
 C216 C 0.49939 -0.00005 0.31975
 N217 N 0.50024 -0.03192 0.33916
 N218 N 0.50049 -0.03189 0.37551
 C219 C 0.49990 0.00001 0.39367
 N220 N 0.49905 0.03189 0.37414
 C221 C 0.49907 -0.00009 0.28060
 C222 C 0.49877 -0.00019 0.24771
 C223 C 0.49840 -0.00039 0.20857
 N224 N 0.52633 -0.01618 0.19034
 N225 N 0.52592 -0.01650 0.15400
 C226 C 0.49751 -0.00114 0.13469
 N227 N 0.46967 0.01481 0.15302
 N228 N 0.47009 0.01513 0.18936
 N229 N 0.49780 -0.33695 -0.03158
 C230 C 0.49836 -0.31895 0.00034
 N231 N 0.49875 -0.33832 0.03223
 N232 N 0.49861 -0.37463 0.03221
 C233 C 0.49807 -0.39275 0.00028
 N234 N 0.49766 -0.37326 -0.03162
 C235 C 0.49875 -0.27989 0.00038
 C236 C 0.49917 -0.24707 0.00046
 C237 C 0.49975 -0.20802 0.00064
 N238 N 0.47151 -0.18867 0.01465
 N239 N 0.47213 -0.15239 0.01497
 C240 C 0.50108 -0.13429 0.00138
 N241 N 0.52925 -0.15374 -0.01280
 N242 N 0.52861 -0.19002 -0.01312
 N243 N 0.49905 0.33846 -0.03187
 C244 C 0.49951 0.31906 0.00001
 N245 N 0.50000 0.33705 0.03195
 N246 N 0.50001 0.37336 0.03200
 C247 C 0.49953 0.39287 0.00011
 N248 N 0.49906 0.37477 -0.03182
 C249 C 0.49932 0.28000 -0.00006
 C250 C 0.49908 0.24717 -0.00018
 C251 C 0.49870 0.20812 -0.00041
 N252 N 0.47016 0.18993 0.01374
 N253 N 0.46971 0.15364 0.01338
 C254 C 0.49777 0.13438 -0.00124
 N255 N 0.52642 0.15267 -0.01522
 N256 N 0.52684 0.18896 -0.01486
 N257 N -0.33656 -0.03157 0.50304
 C258 C -0.31859 0.00036 0.50249
 N259 N -0.33801 0.03221 0.50168
 N260 N -0.37435 0.03215 0.50142
 C261 C -0.39243 0.00022 0.50196
 N262 N -0.37290 -0.03164 0.50278
 C263 C -0.27952 0.00044 0.50271
 C264 C -0.24668 0.00057 0.50286
 C265 C -0.20762 0.00080 0.50301
 N266 N -0.18959 0.01583 0.47456
 N267 N -0.15327 0.01613 0.47471
 C268 C -0.13382 0.00150 0.50338
 N269 N -0.15195 -0.01370 0.53176
 N270 N -0.18827 -0.01400 0.53158
 N271 N 0.33731 0.03169 0.49869
 C272 C 0.31934 -0.00024 0.49915
 N273 N 0.33876 -0.03209 0.50005
 N274 N 0.37509 -0.03203 0.50047
 C275 C 0.39318 -0.00010 0.50000
 N276 N 0.37364 0.03176 0.49911
 C277 C 0.28027 -0.00032 0.49870
 C278 C 0.24743 -0.00045 0.49834
 C279 C 0.20836 -0.00069 0.49795
 N280 N 0.19017 -0.01607 0.52609
 N281 N 0.15384 -0.01638 0.52571
 C282 C 0.13456 -0.00139 0.49711
 N283 N 0.15286 0.01415 0.46903
 N284 N 0.18919 0.01445 0.46943
 N285 N -0.03092 0.50270 1.33637
 C286 C 0.00104 0.50201 1.31816
 N287 N 0.03289 0.50137 1.33736
 N288 N 0.03280 0.50140 1.37371
 C289 C 0.00084 0.50207 1.39204
 N290 N -0.03102 0.50273 1.37271
 C291 C 0.00114 0.50171 1.27904
 C292 C 0.00118 0.50134 1.24618
 C293 C 0.00117 0.50077 1.20707
 N294 N 0.00382 0.46866 1.18953
 N295 N 0.00370 0.46809 1.15320
 C296 C 0.00090 0.49963 1.13327
 N297 N -0.00166 0.53177 1.15087
 N298 N -0.00155 0.53232 1.18720
 N299 N -0.03190 0.50022 0.66136
 C300 C -0.00005 0.49946 0.68059
 N301 N 0.03191 0.49889 0.66239
 N302 N 0.03204 0.49910 0.62604
 C303 C 0.00019 0.49987 0.60670
 N304 N -0.03178 0.50043 0.62501
 C305 C -0.00018 0.49935 0.71971
 C306 C -0.00031 0.49931 0.75258
 C307 C -0.00048 0.49930 0.79170
 N308 N 0.02386 0.47828 0.81125
 N309 N 0.02371 0.47828 0.84759
 C310 C -0.00080 0.49930 0.86560
 N311 N -0.02512 0.52036 0.84591
 N312 N -0.02496 0.52034 0.80957
   
