data_POSCAR
  _audit_creation_date              2014-09-24
  _audit_creation_method            'ToBaCCo'
  _symmetry_space_group_name_H-M    'P1'
  _symmetry_Int_Tables_number       1
  _symmetry_cell_setting            triclinic
  loop_
  _symmetry_equiv_pos_as_xyz
 x,y,z
_cell_length_a 29.8887
_cell_length_b 29.2762
_cell_length_c 35.4800
_cell_angle_alpha 89.942300
_cell_angle_beta 90.179200
_cell_angle_gamma 118.731700
loop_
  _atom_site_label
  _atom_site_type_symbol
  _atom_site_fract_x
  _atom_site_fract_y
  _atom_site_fract_z
C1 C -0.04087 0.53721 1.35397
 C2 C 0.01080 0.55645 1.35739
 C3 C 0.02639 0.53900 1.32617
 N4 N -0.01449 0.50954 1.30418
 C5 C -0.05545 0.50828 1.32109
 C6 C 0.07594 0.54493 1.32018
 C7 C 0.09426 0.54416 1.28305
 C8 C 0.14480 0.55971 1.27366
 C9 C 0.14760 0.55929 1.23506
 C10 C 0.09915 0.54452 1.22139
 N11 N 0.06717 0.53594 1.25062
 C12 C 0.08677 0.54289 1.18271
 C13 C 0.03642 0.52249 1.16848
 C14 C 0.02464 0.52731 1.13139
 C15 C -0.02744 0.50224 1.12868
 C16 C -0.04617 0.48275 1.16427
 N17 N -0.00694 0.49510 1.18853
 C18 C -0.09865 0.45396 1.17374
 C19 C -0.11518 0.44498 1.21193
 C20 C -0.16184 0.40541 1.22443
 C21 C -0.16430 0.41258 1.26250
 C22 C -0.11856 0.45533 1.27254
 N23 N -0.08867 0.47477 1.24171
 C24 C -0.10627 0.47656 1.30918
 H25 H -0.06502 0.54325 1.37376
 H26 H 0.03366 0.58087 1.38031
 H27 H -0.05448 0.50963 1.24053
 H28 H 0.17767 0.57394 1.29201
 H29 H 0.18202 0.57061 1.21891
 H30 H 0.05078 0.54756 1.10864
 H31 H -0.04879 0.50013 1.10346
 H32 H -0.19585 0.38855 1.28082
 H33 H 0.03016 0.52955 1.24806
 H34 H -0.19116 0.37426 1.20797
 C35 C 0.55114 0.51709 1.34977
 C36 C 0.52845 0.54821 1.35059
 C37 C 0.49588 0.53431 1.31978
 N38 N 0.49797 0.49574 1.30018
 C39 C 0.53131 0.48469 1.31873
 C40 C 0.46464 0.55685 1.31009
 C41 C 0.44609 0.55443 1.27294
 C42 C 0.40669 0.56460 1.26307
 C43 C 0.40208 0.56072 1.22458
 C44 C 0.43844 0.54793 1.21187
 N45 N 0.46513 0.54409 1.24150
 C46 C 0.44760 0.54286 1.17351
 C47 C 0.47675 0.51957 1.16131
 C48 C 0.49348 0.52088 1.12474
 C49 C 0.51653 0.49022 1.12423
 C50 C 0.51384 0.47187 1.16068
 N51 N 0.48910 0.48953 1.18316
 C52 C 0.52971 0.43571 1.17213
 C53 C 0.52790 0.42017 1.20998
 C54 C 0.53084 0.37652 1.22170
 C55 C 0.53372 0.37859 1.26039
 C56 C 0.53314 0.42387 1.27125
 N57 N 0.52905 0.44866 1.24034
 C58 C 0.54235 0.44442 1.30823
 H59 H 0.57993 0.51925 1.36932
 H60 H 0.53624 0.57868 1.37092
 H61 H 0.53425 0.48643 1.23974
 H62 H 0.38333 0.57364 1.28161
 H63 H 0.37489 0.56657 1.20786
 H64 H 0.48908 0.54124 1.10076
 H65 H 0.53240 0.48181 1.09953
 H66 H 0.53723 0.35056 1.27833
 H67 H 0.49787 0.54016 1.24013
 H68 H 0.53192 0.34678 1.20424
 C69 C 0.52087 1.01570 1.37923
 C70 C 0.49864 0.96245 1.37804
 C71 C 0.50415 0.94894 1.34147
 N72 N 0.53111 0.99292 1.32095
 C73 C 0.54173 1.03381 1.34397
 C74 C 0.48996 0.89773 1.32821
 C75 C 0.49269 0.88741 1.28937
 C76 C 0.48767 0.84113 1.27455
 C77 C 0.48242 0.84309 1.23609
 C78 C 0.48430 0.89030 1.22834
 N79 N 0.49092 0.91715 1.26076
 C80 C 0.47493 0.90564 1.19276
 C81 C 0.48682 0.95754 1.18532
 C82 C 0.46619 0.97344 1.15648
 C83 C 0.49032 1.02685 1.15786
 C84 C 0.52590 1.04168 1.18682
 N85 N 0.52293 0.99915 1.20405
 C86 C 0.56239 1.09327 1.19655
 C87 C 0.58062 1.10523 1.23418
 C88 C 0.62350 1.15055 1.24561
 C89 C 0.62545 1.14888 1.28414
 C90 C 0.58412 1.10238 1.29548
 N91 N 0.55719 1.07567 1.26485
 C92 C 0.57167 1.08702 1.33354
 H93 H 0.52155 1.03812 1.40362
 H94 H 0.48147 0.93746 1.40205
 H95 H 0.52199 1.04186 1.26523
 H96 H 0.48566 0.80813 1.28967
 H97 H 0.47623 0.81250 1.21628
 H98 H 0.43638 0.94906 1.13689
 H99 H 0.48213 1.05177 1.13983
 H100 H 0.65457 1.17839 1.30182
 H101 H 0.48684 0.95034 1.26352
 H102 H 0.65106 1.18171 1.22826
 C103 C 0.95842 0.51334 0.87394
 C104 C 1.00884 0.54953 0.87615
 C105 C 1.03041 0.54962 0.84149
 N106 N 0.99416 0.51534 0.81791
 C107 C 0.94998 0.49330 0.83768
 C108 C 1.08329 0.57797 0.83322
 C109 C 1.10197 0.58103 0.79590
 C110 C 1.15047 0.58929 0.78689
 C111 C 1.15343 0.58933 0.74831
 C112 C 1.10645 0.58037 0.73439
 N113 N 1.07511 0.57502 0.76364
 C114 C 1.09399 0.57749 0.69547
 C115 C 1.04263 0.55503 0.68283
 C116 C 1.02694 0.56336 0.64786
 C117 C 0.97547 0.53061 0.64550
 C118 C 0.96085 0.50442 0.67959
 N119 N 1.00202 0.51944 0.70237
 C120 C 0.91134 0.46390 0.68806
 C121 C 0.89713 0.44315 0.72472
 C122 C 0.85336 0.39738 0.73365
 C123 C 0.85120 0.39406 0.77240
 C124 C 0.89360 0.43799 0.78604
 N125 N 0.92124 0.46768 0.75678
 C126 C 0.90302 0.45249 0.82440
 H127 H 0.93152 0.50310 0.89682
 H128 H 1.02727 0.57271 0.90084
 H129 H 0.95106 0.50564 0.75857
 H130 H 1.18031 0.59301 0.80599
 H131 H 1.18613 0.59376 0.73243
 H132 H 1.05017 0.58999 0.62604
 H133 H 0.95198 0.52656 0.62118
 H134 H 0.82100 0.36356 0.78864
 H135 H 1.03874 0.57138 0.76170
 H136 H 0.82523 0.36987 0.71435
 C137 C 0.52500 0.55790 0.63817
 C138 C 0.54618 0.52556 0.63712
 C139 C 0.54311 0.50658 0.67338
 N140 N 0.52024 0.52587 0.69637
 C141 C 0.50939 0.55751 0.67498
 C142 C 0.55745 0.46885 0.68397
 C143 C 0.55415 0.45063 0.72129
 C144 C 0.55650 0.40606 0.73137
 C145 C 0.55550 0.40396 0.77009
 C146 C 0.55306 0.44757 0.78269
 N147 N 0.55241 0.47586 0.75273
 C148 C 0.55493 0.46170 0.82102
 C149 C 0.54520 0.50199 0.83358
 C150 C 0.55489 0.52268 0.86969
 C151 C 0.53854 0.55916 0.87066
 C152 C 0.51964 0.55988 0.83505
 N153 N 0.52340 0.52461 0.81255
 C154 C 0.49587 0.58983 0.82487
 C155 C 0.48072 0.59332 0.78753
 C156 C 0.44942 0.61427 0.77754
 C157 C 0.44573 0.61233 0.73884
 C158 C 0.47539 0.59088 0.72608
 N159 N 0.49694 0.57993 0.75593
 C160 C 0.48330 0.58409 0.68760
 H161 H 0.52131 0.57908 0.61441
 H162 H 0.56116 0.51644 0.61222
 H163 H 0.52518 0.56904 0.75474
 H164 H 0.55913 0.37813 0.71282
 H165 H 0.55717 0.37403 0.78703
 H166 H 0.57204 0.51270 0.89296
 H167 H 0.54008 0.58221 0.89495
 H168 H 0.42408 0.62577 0.72203
 H169 H 0.55705 0.51331 0.75369
 H170 H 0.43122 0.62970 0.79603
 C171 C 0.54741 0.02492 0.84368
 C172 C 0.52610 -0.02826 0.84611
 C173 C 0.49143 -0.04875 0.81664
 N174 N 0.49123 -0.00996 0.79613
 C175 C 0.52496 0.03508 0.81288
 C176 C 0.45950 -0.10232 0.80911
 C177 C 0.43928 -0.11985 0.77263
 C178 C 0.39827 -0.16823 0.76450
 C179 C 0.39376 -0.17181 0.72601
 C180 C 0.43192 -0.12523 0.71137
 N181 N 0.45921 -0.09366 0.74021
 C182 C 0.44524 -0.11529 0.67270
 C183 C 0.47366 -0.06366 0.65854
 C184 C 0.48535 -0.04957 0.62089
 C185 C 0.50686 0.00354 0.61918
 C186 C 0.50681 0.02047 0.65553
 N187 N 0.48606 -0.02052 0.67934
 C188 C 0.52076 0.07224 0.66550
 C189 C 0.51836 0.08796 0.70256
 C190 C 0.51982 0.13455 0.71221
 C191 C 0.52287 0.13795 0.75085
 C192 C 0.52381 0.09361 0.76361
 N193 N 0.52049 0.06312 0.73402
 C194 C 0.53358 0.08477 0.80105
 H195 H 0.57678 0.05279 0.86206
 H196 H 0.53585 -0.04933 0.86672
 H197 H 0.52687 0.03119 0.73496
 H198 H 0.37428 -0.19827 0.78418
 H199 H 0.36575 -0.20568 0.71101
 H200 H 0.47680 -0.07426 0.59640
 H201 H 0.51856 0.02662 0.59368
 H202 H 0.52556 0.17017 0.76745
 H203 H 0.49367 -0.05926 0.73802
 H204 H 0.51987 0.16367 0.69338
 O205 O 0.40032 0.66437 0.96576
 O206 O 0.39939 0.75268 0.96038
 C207 C 0.37821 0.78106 0.95880
 O208 O 0.34235 0.77515 0.98069
 O209 O 0.25701 0.69027 0.96498
 C210 C 0.23256 0.64240 0.95592
 O211 O 0.23659 0.60681 0.97380
 O212 O 0.31947 0.60337 0.95683
 C213 C 0.36598 0.62607 0.94748
 O214 O 0.40426 0.67467 1.04157
 O215 O 0.40750 0.76493 1.03639
 C216 C 0.37742 0.77074 1.05898
 O217 O 0.32948 0.74895 1.05399
 O218 O 0.24066 0.66822 1.03942
 C219 C 0.23360 0.62711 1.05641
 O220 O 0.25698 0.60236 1.04764
 O221 O 0.33827 0.59582 1.03049
 C222 C 0.37908 0.62630 1.04803
 Cr223 Cr 0.40022 0.71293 1.00113
 Cr224 Cr 0.29352 0.71911 1.00956
 Cr225 Cr 0.28928 0.60485 1.00228
 O226 O 0.32778 0.67882 1.00443
 O227 O 0.58437 0.32907 0.96193
 O228 O 0.58975 0.24359 0.94911
 C229 C 0.61088 0.21515 0.94684
 O230 O 0.64679 0.22023 0.96865
 O231 O 0.73180 0.30787 0.95763
 C232 C 0.75431 0.35636 0.95054
 O233 O 0.74842 0.38940 0.97040
 O234 O 0.66475 0.39146 0.95470
 C235 C 0.61817 0.36962 0.94551
 O236 O 0.57903 0.30851 1.03633
 O237 O 0.57895 0.22038 1.02321
 C238 C 0.60856 0.21296 1.04524
 O239 O 0.65685 0.23873 1.04314
 O240 O 0.74522 0.32243 1.03282
 C241 C 0.74905 0.36017 1.05269
 O242 O 0.72513 0.38475 1.04496
 O243 O 0.64305 0.38962 1.02889
 C244 C 0.60290 0.35616 1.04560
 Cr245 Cr 0.58562 0.27673 0.99279
 Cr246 Cr 0.69401 0.27380 1.00043
 Cr247 Cr 0.69413 0.38619 0.99967
 O248 O 0.65792 0.31243 0.99759
 O249 O 0.67657 0.41744 0.54775
 O250 O 0.76168 0.41443 0.53814
 C251 C 0.76335 0.38037 0.55950
 O252 O 0.73801 0.33211 0.55278
 O253 O 0.65410 0.24744 0.53708
 C254 C 0.61367 0.24202 0.55273
 O255 O 0.59229 0.26875 0.54387
 O256 O 0.59677 0.35857 0.53208
 C257 C 0.62865 0.39549 0.55283
 O258 O 0.66585 0.42385 0.47330
 O259 O 0.74777 0.41322 0.46258
 C260 C 0.77039 0.38632 0.45804
 O261 O 0.76204 0.34737 0.47862
 O262 O 0.67525 0.26364 0.46355
 C263 C 0.62850 0.24238 0.45423
 O264 O 0.59665 0.25411 0.46910
 O265 O 0.60404 0.34541 0.45696
 C266 C 0.62759 0.39438 0.45318
 Cr267 Cr 0.71163 0.41449 0.50527
 Cr268 Cr 0.70624 0.29935 0.50783
 Cr269 Cr 0.60015 0.30794 0.50057
 O270 O 0.67247 0.34034 0.50436
 O271 O 0.30545 0.55969 0.54145
 O272 O 0.21957 0.56104 0.52748
 C273 C 0.21448 0.59301 0.54874
 O274 O 0.24056 0.64176 0.54463
 O275 O 0.32393 0.72836 0.53399
 C276 C 0.36488 0.73577 0.54988
 O277 O 0.38885 0.71178 0.54077
 O278 O 0.38587 0.62268 0.53116
 C279 C 0.35265 0.58377 0.54977
 O280 O 0.32179 0.55705 0.46792
 O281 O 0.24017 0.56677 0.45332
 C282 C 0.21805 0.59395 0.44752
 O283 O 0.22369 0.63127 0.46890
 O284 O 0.30981 0.71680 0.45926
 C285 C 0.35649 0.73773 0.45014
 O286 O 0.38839 0.72616 0.46550
 O287 O 0.38465 0.63621 0.45519
 C288 C 0.36172 0.58751 0.45006
 Cr289 Cr 0.27317 0.56404 0.49754
 Cr290 Cr 0.27574 0.67787 0.50157
 Cr291 Cr 0.38411 0.67280 0.49811
 O292 O 0.31135 0.63860 0.49896
 C293 C 0.45122 0.58327 0.33736
 C294 C 0.43853 0.56652 0.37282
 C295 C 0.41844 0.59202 0.39821
 C296 C 0.38272 0.56412 0.42356
 H297 H 0.43797 0.53092 0.38204
 H298 H 0.43132 0.63332 0.39497
 H299 H 0.44416 0.61459 0.32814
 H300 H 0.36800 0.52231 0.42484
 C301 C 0.47402 0.85572 0.35380
 C302 C 0.43535 0.84281 0.37787
 C303 C 0.41913 0.79849 0.40410
 C304 C 0.37393 0.77902 0.42132
 H305 H 0.41401 0.86407 0.37740
 H306 H 0.44435 0.78226 0.40959
 H307 H 0.48902 0.82880 0.35086
 H308 H 0.34844 0.79444 0.41427
 C309 C 0.10712 0.55320 0.35250
 C310 C 0.14025 0.53463 0.35667
 C311 C 0.17268 0.54388 0.39058
 C312 C 0.18379 0.58292 0.41493
 H313 H 0.14202 0.50888 0.33558
 H314 H 0.18980 0.51893 0.39439
 H315 H 0.09981 0.56976 0.37724
 H316 H 0.16891 0.60966 0.41050
 C317 C 0.56664 0.42355 0.33516
 C318 C 0.55736 0.41791 0.37214
 C319 C 0.58050 0.39388 0.39607
 C320 C 0.60811 0.41890 0.42626
 H321 H 0.53222 0.43016 0.38521
 H322 H 0.57533 0.35577 0.38854
 H323 H 0.59176 0.40998 0.32369
 H324 H 0.61617 0.45858 0.43173
 C325 C 0.59036 0.12755 0.36067
 C326 C 0.60805 0.12456 0.39485
 C327 C 0.62917 0.16890 0.42141
 C328 C 0.60940 0.20116 0.42541
 H329 H 0.61176 0.09072 0.40252
 H330 H 0.65936 0.17249 0.44017
 H331 H 0.59600 0.16543 0.35182
 H332 H 0.57579 0.19441 0.40947
 C333 C 0.85163 0.46235 0.33667
 C334 C 0.85229 0.44184 0.37022
 C335 C 0.81171 0.42880 0.39827
 C336 C 0.80959 0.40095 0.42873
 H337 H 0.88368 0.43453 0.37713
 H338 H 0.78346 0.44148 0.39390
 H339 H 0.81887 0.46657 0.32840
 H340 H 0.83666 0.38643 0.43168
 C341 C 0.54703 0.41138 1.14319
 C342 C 0.58968 0.44013 1.12350
 C343 C 0.60873 0.42031 1.09267
 C344 C 0.58220 0.37316 1.07684
 H345 H 0.61208 0.48125 1.12999
 H346 H 0.64623 0.44709 1.08193
 H347 H 0.52508 0.36971 1.13942
 H348 H 0.54458 0.34575 1.08679
 C349 C 0.86583 0.43310 1.14361
 C350 C 0.81850 0.42752 1.14436
 C351 C 0.78367 0.40956 1.11152
 C352 C 0.78386 0.37655 1.08539
 H353 H 0.80626 0.44157 1.16829
 H354 H 0.75558 0.42286 1.10979
 H355 H 0.87908 0.42599 1.11704
 H356 H 0.80920 0.35998 1.08837
 C357 C 0.58213 0.13417 1.16954
 C358 C 0.58154 0.12767 1.13211
 C359 C 0.60501 0.17270 1.10661
 C360 C 0.58519 0.17020 1.07249
 H361 H 0.56577 0.08949 1.11944
 H362 H 0.63787 0.20827 1.11604
 H363 H 0.60128 0.17405 1.17950
 H364 H 0.54983 0.13613 1.06456
 C365 C 0.42577 0.56378 1.14512
 C366 C 0.39646 0.53463 1.11661
 C367 C 0.37586 0.55513 1.08723
 C368 C 0.39915 0.60540 1.07721
 H369 H 0.38627 0.49382 1.11505
 H370 H 0.34192 0.52738 1.07235
 H371 H 0.43191 0.60300 1.14934
 H372 H 0.43466 0.63270 1.09058
 C373 C 0.12973 0.56606 1.15561
 C374 C 0.13608 0.53715 1.12914
 C375 C 0.17710 0.55897 1.10075
 C376 C 0.19566 0.60734 1.08693
 H377 H 0.11079 0.49547 1.12866
 H378 H 0.18927 0.53272 1.08880
 H379 H 0.15727 0.60689 1.15878
 H380 H 0.18064 0.63232 1.09667
 C381 C 0.45122 0.86582 1.16257
 C382 C 0.47137 0.87380 1.12791
 C383 C 0.44913 0.83639 1.09650
 C384 C 0.39885 0.80516 1.09204
 H385 H 0.50701 0.90882 1.12242
 H386 H 0.47519 0.83788 1.07478
 H387 H 0.41850 0.82887 1.16961
 H388 H 0.37238 0.80623 1.11235
 C389 C 0.57442 0.44521 0.65419
 C390 C 0.61941 0.47313 0.63707
 C391 C 0.63858 0.45296 0.60656
 C392 C 0.60827 0.41359 0.58374
 H393 H 0.64418 0.51273 0.64635
 H394 H 0.67935 0.47357 0.60167
 H395 H 0.55045 0.40439 0.64773
 H396 H 0.56726 0.39443 0.58716
 C397 C 0.53877 0.11244 0.63582
 C398 C 0.58459 0.12846 0.62015
 C399 C 0.60738 0.16957 0.59134
 C400 C 0.58954 0.20224 0.58208
 H401 H 0.60676 0.10972 0.62847
 H402 H 0.64130 0.17326 0.57764
 H403 H 0.51495 0.12959 0.62863
 H404 H 0.55649 0.20023 0.59591
 C405 C 0.87386 0.43962 0.65693
 C406 C 0.85413 0.46598 0.63862
 C407 C 0.81971 0.44644 0.60545
 C408 C 0.79694 0.39706 0.59299
 H409 H 0.86574 0.50562 0.64728
 H410 H 0.81268 0.47488 0.59082
 H411 H 0.86316 0.39987 0.64961
 H412 H 0.80151 0.36738 0.60795
 C413 C 0.46272 0.60576 0.65868
 C414 C 0.42761 0.57458 0.63382
 C415 C 0.41049 0.59569 0.60268
 C416 C 0.36964 0.56442 0.58203
 H417 H 0.41235 0.53274 0.63595
 H418 H 0.43157 0.63700 0.59646
 H419 H 0.47644 0.64741 0.65815
 H420 H 0.34697 0.52378 0.58977
 C421 C 0.42597 0.84192 0.64779
 C422 C 0.45444 0.83579 0.62123
 C423 C 0.43275 0.79323 0.59348
 C424 C 0.38527 0.77480 0.58000
 H425 H 0.49520 0.86183 0.62022
 H426 H 0.45803 0.78021 0.58159
 H427 H 0.38792 0.81007 0.65211
 H428 H 0.36143 0.79090 0.58974
 C429 C 0.13468 0.59752 0.66911
 C430 C 0.13178 0.57624 0.63507
 C431 C 0.17426 0.59910 0.60795
 C432 C 0.17482 0.57162 0.57802
 H433 H 0.09812 0.54040 0.62723
 H434 H 0.20484 0.63849 0.61232
 H435 H 0.17143 0.62897 0.67780
 H436 H 0.14528 0.53143 0.57500
 C437 C 0.48510 0.61763 0.85550
 C438 C 0.43786 0.60012 0.86866
 C439 C 0.42729 0.62464 0.90126
 C440 C 0.37969 0.60536 0.91422
 H441 H 0.40664 0.56632 0.85554
 H442 H 0.45845 0.65781 0.91496
 H443 H 0.51698 0.65003 0.86924
 H444 H 0.34909 0.57213 0.90009
 C445 C 0.11723 0.59808 0.86436
 C446 C 0.16358 0.64045 0.86357
 C447 C 0.19744 0.65857 0.89711
 C448 C 0.19699 0.62579 0.92375
 H449 H 0.17624 0.66456 0.83857
 H450 H 0.22558 0.69943 0.89846
 H451 H 0.10374 0.57995 0.89153
 H452 H 0.17197 0.58430 0.92074
 C453 C 0.44709 0.85982 0.83762
 C454 C 0.43982 0.86769 0.87370
 C455 C 0.42327 0.82503 0.90109
 C456 C 0.39646 0.82384 0.93140
 H457 H 0.44198 0.90412 0.88257
 H458 H 0.43117 0.79318 0.89550
 H459 H 0.43761 0.82049 0.82941
 H460 H 0.38602 0.85420 0.93556
 C461 C 0.57016 0.43385 0.84892
 C462 C 0.54063 0.40825 0.87833
 C463 C 0.55501 0.38070 0.90688
 C464 C 0.60359 0.39399 0.91497
 H465 H 0.50374 0.40643 0.88131
 H466 H 0.52452 0.35104 0.92348
 H467 H 0.60480 0.43191 0.84338
 H468 H 0.63436 0.42612 0.90030
 C469 C 0.86225 0.42257 0.85225
 C470 C 0.83874 0.44502 0.87056
 C471 C 0.80300 0.42185 0.90245
 C472 C 0.78935 0.37520 0.91808
 H473 H 0.84823 0.48455 0.86304
 H474 H 0.78804 0.44593 0.91414
 H475 H 0.85298 0.38266 0.85761
 H476 H 0.80233 0.34948 0.90653
 C477 C 0.55540 0.13018 0.82717
 C478 C 0.54515 0.12632 0.86393
 C479 C 0.56774 0.17251 0.88812
 C480 C 0.59089 0.17177 0.92004
 H481 H 0.52093 0.08893 0.87686
 H482 H 0.56664 0.20741 0.87928
 H483 H 0.57964 0.16854 0.81550
 H484 H 0.59535 0.13804 0.92683
   
