data_POSCAR
  _audit_creation_date              2014-09-24
  _audit_creation_method            'ToBaCCo'
  _symmetry_space_group_name_H-M    'P1'
  _symmetry_Int_Tables_number       1
  _symmetry_cell_setting            triclinic
  loop_
  _symmetry_equiv_pos_as_xyz
 x,y,z
_cell_length_a 19.8882
_cell_length_b 19.8972
_cell_length_c 19.9284
_cell_angle_alpha 90.400600
_cell_angle_beta 89.612100
_cell_angle_gamma 89.601000
loop_
  _atom_site_label
  _atom_site_type_symbol
  _atom_site_fract_x
  _atom_site_fract_y
  _atom_site_fract_z
C1 C 0.62470 0.32847 -0.02504
 C2 C 0.67337 0.37700 -0.02493
 C3 C 0.64122 0.43744 -0.00978
 N4 N 0.57476 0.42717 -0.00021
 C5 C 0.56441 0.36077 -0.01000
 C6 C 0.67381 0.49972 -0.00069
 C7 C 0.63943 0.56155 0.00952
 C8 C 0.66945 0.62079 0.03060
 C9 C 0.62044 0.66982 0.03020
 C10 C 0.56162 0.63940 0.00889
 N11 N 0.57383 0.57352 -0.00395
 C12 C 0.49998 0.67355 -0.00196
 C13 C 0.43785 0.64073 -0.01098
 C14 C 0.37760 0.67249 -0.02641
 C15 C 0.32908 0.62380 -0.02620
 C16 C 0.36122 0.56388 -0.01071
 N17 N 0.42749 0.57449 -0.00095
 C18 C 0.32860 0.50181 -0.00156
 C19 C 0.36264 0.44021 0.00877
 C20 C 0.33206 0.38130 0.02936
 C21 C 0.38110 0.33223 0.02941
 C22 C 0.44037 0.36245 0.00887
 N23 N 0.42852 0.42812 -0.00403
 C24 C 0.50215 0.32825 -0.00127
 H25 H 0.63290 0.27537 -0.03437
 H26 H 0.72649 0.36865 -0.03414
 H27 H 0.46147 0.46068 -0.02763
 H28 H 0.72150 0.62811 0.04422
 H29 H 0.62750 0.72214 0.04347
 H30 H 0.36933 0.72539 -0.03599
 H31 H 0.27609 0.63176 -0.03562
 H32 H 0.37376 0.28008 0.04248
 H33 H 0.54148 0.54067 -0.02800
 H34 H 0.27968 0.37419 0.04238
 C35 C -0.02558 0.62431 0.67234
 C36 C -0.02564 0.67306 0.62400
 C37 C -0.01048 0.64105 0.56361
 N38 N -0.00072 0.57461 0.57369
 C39 C -0.01042 0.56413 0.63994
 C40 C -0.00155 0.67369 0.50147
 C41 C 0.00867 0.63927 0.43982
 C42 C 0.02971 0.66913 0.38057
 C43 C 0.02949 0.61993 0.33180
 C44 C 0.00835 0.56127 0.36245
 N45 N -0.00463 0.57364 0.42811
 C46 C -0.00231 0.49968 0.32860
 C47 C -0.01146 0.43762 0.36109
 C48 C -0.02677 0.37761 0.32903
 C49 C -0.02679 0.32891 0.37748
 C50 C -0.01150 0.36083 0.43748
 N51 N -0.00166 0.42709 0.42718
 C52 C -0.00254 0.32814 0.49938
 C53 C 0.00801 0.36221 0.56080
 C54 C 0.02889 0.33173 0.61956
 C55 C 0.02929 0.38087 0.66841
 C56 C 0.00863 0.44008 0.63820
 N57 N -0.00468 0.42812 0.57277
 C58 C -0.00144 0.50187 0.67225
 H59 H -0.03487 0.63238 0.72538
 H60 H -0.03498 0.72612 0.63244
 H61 H -0.02853 0.46107 0.54041
 H62 H 0.04321 0.72117 0.37309
 H63 H 0.04278 0.62678 0.27954
 H64 H -0.03614 0.36958 0.27615
 H65 H -0.03619 0.27598 0.36931
 H66 H 0.04266 0.37363 0.72044
 H67 H -0.02870 0.54128 0.46090
 H68 H 0.04193 0.27937 0.62670
 C69 C 0.32853 0.02310 0.62411
 C70 C 0.37699 0.02314 0.67279
 C71 C 0.43756 0.00827 0.64082
 N72 N 0.42744 -0.00129 0.57442
 C73 C 0.36098 0.00824 0.56396
 C74 C 0.49989 -0.00051 0.67348
 C75 C 0.56175 -0.01065 0.63910
 C76 C 0.62110 -0.03156 0.66902
 C77 C 0.67003 -0.03142 0.61999
 C78 C 0.63947 -0.01041 0.56121
 N79 N 0.57359 0.00250 0.57349
 C80 C 0.67356 0.00019 0.49958
 C81 C 0.64080 0.00924 0.43749
 C82 C 0.67272 0.02453 0.37738
 C83 C 0.62410 0.02449 0.32885
 C84 C 0.56404 0.00925 0.36081
 N85 N 0.57450 -0.00053 0.42701
 C86 C 0.50192 0.00043 0.32812
 C87 C 0.44029 -0.00985 0.36216
 C88 C 0.38127 -0.03026 0.33166
 C89 C 0.33231 -0.03058 0.38072
 C90 C 0.36266 -0.01035 0.43995
 N91 N 0.42833 0.00261 0.42804
 C92 C 0.32852 -0.00049 0.50173
 H93 H 0.27536 0.03223 0.63222
 H94 H 0.36851 0.03229 0.72580
 H95 H 0.46095 0.02598 0.46107
 H96 H 0.62853 -0.04495 0.72102
 H97 H 0.72238 -0.04466 0.62700
 H98 H 0.72569 0.03391 0.36921
 H99 H 0.63219 0.03388 0.27599
 H100 H 0.28011 -0.04362 0.37341
 H101 H 0.54068 0.02633 0.54108
 H102 H 0.37404 -0.04303 0.27933
 O103 O 0.44513 -0.00076 -0.09317
 O104 O 0.44558 -0.00016 0.09190
 O105 O 0.44564 0.09206 -0.00033
 O106 O 0.44515 -0.09306 -0.00095
 O107 O 0.55635 -0.09415 -0.00197
 O108 O 0.55684 0.09096 -0.00139
 O109 O 0.55677 -0.00124 0.09086
 O110 O 0.55632 -0.00188 -0.09422
 Cu111 Cu 0.43417 -0.00039 -0.00053
 Cu112 Cu 0.56777 -0.00170 -0.00178
 C113 C 0.50064 -0.00135 -0.12494
 C114 C 0.50125 -0.00058 0.12263
 C115 C 0.50133 0.12276 -0.00079
 C116 C 0.50066 -0.12484 -0.00154
 O117 O -0.09387 0.55611 1.00120
 O118 O 0.09128 0.55659 1.00061
 O119 O -0.00102 0.55657 0.90870
 O120 O -0.00162 0.55605 1.09323
 O121 O -0.00056 0.44487 1.09211
 O122 O 0.00008 0.44539 0.90759
 O123 O 0.09237 0.44542 0.99952
 O124 O -0.09279 0.44493 1.00006
 Cu125 Cu -0.00140 0.56758 1.00107
 Cu126 Cu -0.00010 0.43390 0.99974
 C127 C -0.12457 0.50044 1.00062
 C128 C 0.12306 0.50109 0.99991
 C129 C -0.00043 0.50107 0.87703
 C130 C -0.00122 0.50037 1.12379
 O131 O -0.00008 -0.09411 0.44517
 O132 O -0.00073 0.09094 0.44470
 O133 O 0.09224 -0.00185 0.44530
 O134 O -0.09297 -0.00127 0.44479
 O135 O -0.09403 -0.00019 0.55578
 O136 O 0.09114 -0.00077 0.55629
 O137 O -0.00181 0.09203 0.55569
 O138 O -0.00116 -0.09303 0.55616
 Cu139 Cu -0.00026 -0.00169 0.43378
 Cu140 Cu -0.00155 -0.00039 0.56719
 C141 C -0.00060 -0.12479 0.50074
 C142 C -0.00141 0.12271 0.50011
 C143 C 0.12294 -0.00135 0.50089
 C144 C -0.12475 -0.00063 0.50021
 C145 C -0.25725 0.50002 0.99997
 C146 C -0.19663 0.50024 1.00039
 C147 C 0.25574 0.50151 0.99905
 C148 C 0.19513 0.50130 0.99949
 C149 C -0.00103 -0.25740 0.50115
 C150 C -0.00073 -0.19682 0.50093
 C151 C -0.00209 0.25532 0.49967
 C152 C -0.00176 0.19474 0.49989
 C153 C 0.50021 -0.00098 -0.25759
 C154 C 0.50044 -0.00125 -0.19701
 C155 C 0.50162 0.00002 0.25526
 C156 C 0.50143 -0.00027 0.19470
 C157 C 0.50026 -0.25751 -0.00180
 C158 C 0.50046 -0.19690 -0.00169
 C159 C 0.50180 0.25540 -0.00091
 C160 C 0.50155 0.19482 -0.00077
 C161 C -0.25747 -0.00015 0.49983
 C162 C -0.19683 -0.00039 0.50002
 C163 C 0.25564 -0.00101 0.50138
 C164 C 0.19503 -0.00126 0.50112
 C165 C -0.00185 0.49994 1.25600
 C166 C -0.00154 0.50015 1.19559
 C167 C -0.00085 0.50153 0.74484
 C168 C -0.00055 0.50129 0.80524
   
