data_POSCAR
  _audit_creation_date              2014-09-24
  _audit_creation_method            'ToBaCCo'
  _symmetry_space_group_name_H-M    'P1'
  _symmetry_Int_Tables_number       1
  _symmetry_cell_setting            triclinic
  loop_
  _symmetry_equiv_pos_as_xyz
 x,y,z
_cell_length_a 53.4019
_cell_length_b 38.9284
_cell_length_c 48.4564
_cell_angle_alpha 87.490600
_cell_angle_beta 90.878200
_cell_angle_gamma 93.438400
loop_
  _atom_site_label
  _atom_site_type_symbol
  _atom_site_fract_x
  _atom_site_fract_y
  _atom_site_fract_z
C1 C 0.60722 0.65249 0.62814
 C2 C 0.58303 0.66428 0.62413
 C3 C 0.57485 0.67566 0.59775
 C4 C 0.59129 0.67566 0.57538
 C5 C 0.61551 0.66404 0.57908
 C6 C 0.62356 0.65256 0.60558
 C7 C 0.61505 0.63995 0.65424
 C8 C 0.63923 0.62756 0.65846
 C9 C 0.65553 0.62854 0.63567
 C10 C 0.64777 0.64046 0.60937
 C11 C 0.66352 0.63909 0.58656
 C12 C 0.65538 0.64963 0.55994
 C13 C 0.63152 0.66279 0.55653
 H14 H 0.57031 0.66369 0.64138
 H15 H 0.58518 0.68461 0.55501
 H16 H 0.60235 0.64079 0.67138
 H17 H 0.67381 0.61802 0.63775
 H18 H 0.68173 0.62844 0.58937
 H19 H 0.62520 0.67148 0.53618
 C20 C 0.90914 0.35496 0.12657
 C21 C 0.93331 0.34453 0.12152
 C22 C 0.93965 0.33303 0.09537
 C23 C 0.92094 0.33211 0.07441
 C24 C 0.89663 0.34182 0.07935
 C25 C 0.89071 0.35346 0.10544
 C26 C 0.90301 0.36653 0.15255
 C27 C 0.87856 0.37588 0.15774
 C28 C 0.86031 0.37425 0.13659
 C29 C 0.86621 0.36319 0.11049
 C30 C 0.84786 0.36109 0.08953
 C31 C 0.85354 0.34876 0.06370
 C32 C 0.87798 0.33931 0.05870
 H33 H 0.94734 0.34657 0.13784
 H34 H 0.92469 0.32205 0.05450
 H35 H 0.91704 0.36752 0.16895
 H36 H 0.84149 0.38172 0.14048
 H37 H 0.82893 0.36803 0.09354
 H38 H 0.88240 0.32997 0.03869
 C39 C 0.39218 0.15859 -0.14874
 C40 C 0.41069 0.18307 -0.14008
 C41 C 0.40887 0.19834 -0.11449
 C42 C 0.38762 0.19022 -0.09820
 C43 C 0.36886 0.16608 -0.10673
 C44 C 0.37128 0.14986 -0.13194
 C45 C 0.39489 0.14169 -0.17337
 C46 C 0.37755 0.11487 -0.18135
 C47 C 0.35636 0.10707 -0.16445
 C48 C 0.35320 0.12424 -0.13995
 C49 C 0.33273 0.11511 -0.12270
 C50 C 0.33019 0.13121 -0.09754
 C51 C 0.34828 0.15685 -0.08984
 H52 H 0.42723 0.18881 -0.15255
 H53 H 0.38599 0.20214 -0.07855
 H54 H 0.41062 0.15006 -0.18629
 H55 H 0.34292 0.08616 -0.16907
 H56 H 0.31884 0.09531 -0.12875
 H57 H 0.34683 0.16876 -0.07016
 C58 C 0.09426 0.88932 0.38069
 C59 C 0.07188 0.87050 0.37433
 C60 C 0.06221 0.84327 0.39209
 C61 C 0.07503 0.83671 0.41737
 C62 C 0.09761 0.85518 0.42386
 C63 C 0.10731 0.88149 0.40542
 C64 C 0.10441 0.91468 0.36193
 C65 C 0.12780 0.93182 0.36722
 C66 C 0.14057 0.92424 0.39213
 C67 C 0.13055 0.89910 0.41118
 C68 C 0.14409 0.88994 0.43513
 C69 C 0.13494 0.86303 0.45324
 C70 C 0.11142 0.84629 0.44774
 H71 H 0.06198 0.87750 0.35544
 H72 H 0.06872 0.81548 0.43121
 H73 H 0.09473 0.91978 0.34249
 H74 H 0.15860 0.93738 0.39638
 H75 H 0.16242 0.90251 0.43888
 H76 H 0.10422 0.82560 0.46167
 N77 N 0.12899 0.19288 0.10121
 N78 N 0.11747 0.18177 0.12395
 C79 C 0.09610 0.19814 0.12597
 C80 C 0.09411 0.22074 0.10320
 C81 C 0.11547 0.21677 0.08805
 H82 H 0.08268 0.19321 0.14235
 H83 H 0.12071 0.22977 0.06864
 Cu84 Cu 0.13144 0.14647 0.14830
 Cu85 Cu 0.16020 0.17463 0.08982
 Cu86 Cu 0.17148 0.09508 0.12069
 N87 N 0.14709 0.11067 0.17064
 N88 N 0.16329 0.09120 0.15975
 C89 C 0.17121 0.06851 0.17920
 C90 C 0.15928 0.07391 0.20363
 C91 C 0.14398 0.10078 0.19743
 H92 H 0.18419 0.04894 0.17559
 H93 H 0.13161 0.11227 0.21139
 N94 N 0.18655 0.11201 0.08554
 N95 N 0.18331 0.14305 0.07453
 C96 C 0.19661 0.14744 0.05113
 C97 C 0.20873 0.11760 0.04715
 C98 C 0.20192 0.09573 0.06943
 H99 H 0.19682 0.17028 0.03759
 H100 H 0.20798 0.07004 0.07385
 H101 H 0.14518 0.12824 0.10371
 H102 H 0.17179 0.14621 0.12512
 N103 N 0.37983 0.80432 0.60541
 N104 N 0.39336 0.81835 0.62525
 C105 C 0.41565 0.80397 0.62698
 C106 C 0.41622 0.77954 0.60701
 C107 C 0.39302 0.78051 0.59378
 H108 H 0.43061 0.81166 0.64108
 H109 H 0.38628 0.76558 0.57661
 Cu110 Cu 0.38133 0.85580 0.64557
 Cu111 Cu 0.34692 0.81983 0.59496
 Cu112 Cu 0.32271 0.88100 0.63554
 N113 N 0.37136 0.89963 0.65796
 N114 N 0.34825 0.90917 0.65487
 C115 C 0.34621 0.93906 0.66746
 C116 C 0.36945 0.94893 0.67869
 C117 C 0.38491 0.92327 0.67216
 H118 H 0.32910 0.95244 0.66849
 H119 H 0.40434 0.92119 0.67824
 N120 N 0.30271 0.85659 0.60702
 N121 N 0.31184 0.83264 0.59222
 C122 C 0.29364 0.81983 0.57543
 C123 C 0.27219 0.83697 0.57940
 C124 C 0.27859 0.86031 0.59943
 H125 H 0.29592 0.79995 0.56092
 H126 H 0.26651 0.87835 0.60799
 H127 H 0.35027 0.86951 0.61016
 H128 H 0.33880 0.83326 0.63403
 N129 N 0.89456 0.63950 0.39864
 N130 N 0.90482 0.62208 0.37955
 C131 C 0.92477 0.64069 0.36915
 C132 C 0.92747 0.67117 0.38277
 C133 C 0.90810 0.66951 0.40154
 H134 H 0.93644 0.63269 0.35284
 H135 H 0.90360 0.68922 0.41541
 Cu136 Cu 0.89122 0.57691 0.36968
 Cu137 Cu 0.86338 0.62272 0.41657
 Cu138 Cu 0.83235 0.55251 0.38633
 N139 N 0.87302 0.53988 0.35096
 N140 N 0.84971 0.53074 0.35741
 C141 C 0.84111 0.50535 0.34122
 C142 C 0.86005 0.49814 0.32347
 C143 C 0.88008 0.52071 0.33029
 H144 H 0.82228 0.49357 0.34204
 H145 H 0.89835 0.52326 0.32086
 N146 N 0.81617 0.58162 0.41211
 N147 N 0.82801 0.60764 0.42438
 C148 C 0.81158 0.62258 0.44027
 C149 C 0.78829 0.60533 0.43748
 C150 C 0.79197 0.57955 0.41954
 H151 H 0.81596 0.64518 0.45205
 H152 H 0.77794 0.56078 0.41227
 H153 H 0.86256 0.57102 0.40937
 H154 H 0.85179 0.60016 0.38073
 N155 N 0.60248 0.35272 -0.09515
 N156 N 0.59104 0.37542 -0.11091
 C157 C 0.56630 0.36630 -0.11180
 C158 C 0.56211 0.33653 -0.09540
 C159 C 0.58549 0.32864 -0.08522
 H160 H 0.55239 0.38029 -0.12333
 H161 H 0.58993 0.30657 -0.07210
 Cu162 Cu 0.60999 0.41422 -0.12885
 Cu163 Cu 0.63875 0.35480 -0.09027
 Cu164 Cu 0.66647 0.43673 -0.10162
 N165 N 0.63113 0.45205 -0.14506
 N166 N 0.65315 0.46094 -0.13421
 C167 C 0.66409 0.48702 -0.14969
 C168 C 0.64814 0.49478 -0.17163
 C169 C 0.62733 0.47208 -0.16790
 H170 H 0.68252 0.49883 -0.14551
 H171 H 0.61104 0.46943 -0.18133
 N172 N 0.68230 0.40050 -0.07903
 N173 N 0.67239 0.36867 -0.07638
 C174 C 0.68849 0.34905 -0.06223
 C175 C 0.70952 0.36956 -0.05547
 C176 C 0.70493 0.40211 -0.06632
 H177 H 0.68502 0.32192 -0.05694
 H178 H 0.71753 0.42490 -0.06596
 H179 H 0.63552 0.40569 -0.08706
 H180 H 0.65159 0.39369 -0.11888
 C181 C 0.00141 0.29375 0.10575
 C182 C 0.01051 0.29695 0.07936
 C183 C -0.00241 0.31251 0.05762
 C184 C -0.02584 0.32495 0.06320
 C185 C -0.03606 0.32190 0.09033
 C186 C -0.02166 0.30640 0.11194
 O187 O 0.01607 0.27659 0.12315
 C188 C 0.03486 0.26888 0.10735
 C189 C 0.03241 0.28090 0.08042
 C190 C 0.04962 0.27497 0.06020
 C191 C 0.07013 0.25568 0.06803
 C192 C 0.07299 0.24252 0.09565
 C193 C 0.05506 0.24952 0.11559
 H194 H 0.00516 0.31472 0.03698
 H195 H -0.03556 0.33775 0.04631
 H196 H -0.02869 0.30216 0.13270
 H197 H 0.04717 0.28447 0.03906
 H198 H 0.08337 0.25041 0.05232
 H199 H 0.05656 0.24002 0.13683
 C200 C 0.51373 0.71778 0.60742
 C201 C 0.50033 0.70688 0.58463
 C202 C 0.51007 0.68587 0.56549
 C203 C 0.53463 0.67571 0.57000
 C204 C 0.54890 0.68662 0.59337
 C205 C 0.53813 0.70791 0.61237
 O206 O 0.50116 0.73804 0.62284
 C207 C 0.47936 0.73997 0.60950
 C208 C 0.47787 0.72133 0.58603
 C209 C 0.45679 0.72008 0.56886
 C210 C 0.43646 0.73897 0.57608
 C211 C 0.43752 0.75872 0.60013
 C212 C 0.45940 0.75890 0.61710
 H213 H 0.49917 0.67761 0.54770
 H214 H 0.54244 0.65904 0.55547
 H215 H 0.54858 0.71698 0.63022
 H216 H 0.45607 0.70529 0.55043
 H217 H 0.42012 0.73840 0.56264
 H218 H 0.46106 0.77341 0.63562
 C219 C 1.00590 0.78114 0.39481
 C220 C 1.00221 0.77597 0.36717
 C221 C 1.01681 0.79306 0.34687
 C222 C 1.03623 0.81621 0.35534
 C223 C 1.04117 0.82175 0.38393
 C224 C 1.02529 0.80379 0.40382
 O225 O 0.99016 0.76177 0.41077
 C226 C 0.97641 0.74377 0.39275
 C227 C 0.98319 0.75136 0.36579
 C228 C 0.97232 0.73418 0.34366
 C229 C 0.95381 0.70790 0.34955
 C230 C 0.94630 0.69976 0.37714
 C231 C 0.95757 0.71827 0.39903
 H232 H 1.01369 0.78822 0.32522
 H233 H 1.04823 0.82802 0.33938
 H234 H 1.02753 0.80747 0.42573
 H235 H 0.97822 0.74031 0.32265
 H236 H 0.94529 0.69393 0.33264
 H237 H 0.95250 0.71211 0.42030
 C238 C 0.46475 0.26257 -0.11067
 C239 C 0.47284 0.25593 -0.08398
 C240 C 0.46032 0.23223 -0.06600
 C241 C 0.43873 0.21432 -0.07602
 C242 C 0.43022 0.22013 -0.10366
 C243 C 0.44338 0.24494 -0.12111
 O244 O 0.47994 0.28505 -0.12467
 C245 C 0.49807 0.29258 -0.10648
 C246 C 0.49466 0.27531 -0.08131
 C247 C 0.51219 0.27760 -0.05986
 C248 C 0.53423 0.29833 -0.06462
 C249 C 0.53817 0.31650 -0.09036
 C250 C 0.51963 0.31391 -0.11145
 H251 H 0.46722 0.22716 -0.04519
 H252 H 0.42919 0.19498 -0.06256
 H253 H 0.43746 0.24982 -0.14232
 H254 H 0.50926 0.26335 -0.04038
 H255 H 0.54827 0.30012 -0.04831
 H256 H 0.52239 0.32689 -0.13149
 C257 C 0.13684 -0.00262 0.30769
 C258 C 0.16157 -0.00643 0.30163
 C259 C 0.17653 -0.02845 0.31696
 C260 C 0.16545 -0.04768 0.33922
 C261 C 0.13980 -0.04481 0.34560
 C262 C 0.12544 -0.02151 0.32970
 O263 O 0.12564 0.01850 0.28983
 C264 C 0.14365 0.02805 0.27201
 C265 C 0.16597 0.01341 0.27825
 C266 C 0.18684 0.01816 0.26138
 C267 C 0.18454 0.03862 0.23700
 C268 C 0.16172 0.05404 0.23011
 C269 C 0.14109 0.04898 0.24813
 H270 H 0.19586 -0.03134 0.31158
 H271 H 0.17659 -0.06583 0.35078
 H272 H 0.10582 -0.01882 0.33392
 H273 H 0.20410 0.00598 0.26652
 H274 H 0.20050 0.04234 0.22346
 H275 H 0.12328 0.05979 0.24314
 C276 C 0.63675 0.58090 -0.27258
 C277 C 0.66174 0.58226 -0.26534
 C278 C 0.68011 0.59885 -0.28190
 C279 C 0.67247 0.61438 -0.30709
 C280 C 0.64667 0.61335 -0.31540
 C281 C 0.62864 0.59656 -0.29727
 O282 O 0.62241 0.56232 -0.25469
 C283 C 0.63872 0.55176 -0.23569
 C284 C 0.66303 0.56338 -0.24114
 C285 C 0.68316 0.55451 -0.22431
 C286 C 0.67803 0.53256 -0.20105
 C287 C 0.65311 0.51971 -0.19520
 C288 C 0.63319 0.52985 -0.21278
 H289 H 0.69971 0.59952 -0.27579
 H290 H 0.68681 0.62789 -0.31963
 H291 H 0.60895 0.59357 -0.30275
 H292 H 0.70218 0.56374 -0.22913
 H293 H 0.69360 0.52494 -0.18813
 H294 H 0.61396 0.52071 -0.20904
 C295 C 0.36756 1.05578 0.75981
 C296 C 0.39177 1.05412 0.75117
 C297 C 0.41187 1.07229 0.76322
 C298 C 0.40691 1.09288 0.78528
 C299 C 0.38198 1.09532 0.79515
 C300 C 0.36205 1.07636 0.78155
 O301 O 0.35132 1.03512 0.74639
 C302 C 0.36571 1.01996 0.72903
 C303 C 0.39062 1.03076 0.73114
 C304 C 0.40920 1.01711 0.71592
 C305 C 0.40185 0.99084 0.69808
 C306 C 0.37631 0.97874 0.69578
 C307 C 0.35793 0.99403 0.71120
 H308 H 0.43088 1.06992 0.75642
 H309 H 0.42303 1.10510 0.79540
 H310 H 0.34264 1.07754 0.78720
 H311 H 0.42872 1.02588 0.71811
 H312 H 0.41615 0.97974 0.68630
 H313 H 0.33838 0.98502 0.71032
 C314 C 0.87869 0.42367 0.22395
 C315 C 0.85702 0.40938 0.23578
 C316 C 0.84200 0.38368 0.22361
 C317 C 0.84952 0.37246 0.19807
 C318 C 0.87173 0.38688 0.18534
 C319 C 0.88667 0.41261 0.19869
 O320 O 0.88965 0.44875 0.23838
 C321 C 0.87456 0.45030 0.25977
 C322 C 0.85438 0.42670 0.25917
 C323 C 0.83587 0.42450 0.27910
 C324 C 0.83814 0.44775 0.30044
 C325 C 0.85863 0.47275 0.30145
 C326 C 0.87722 0.47367 0.28081
 H327 H 0.82493 0.37302 0.23323
 H328 H 0.83802 0.35262 0.18811
 H329 H 0.90349 0.42443 0.18924
 H330 H 0.82010 0.40576 0.27813
 H331 H 0.82382 0.44616 0.31605
 H332 H 0.89296 0.49250 0.28060
 C333 C 0.27927 0.13329 -0.04441
 C334 C 0.27366 0.09865 -0.03944
 C335 C 0.28500 0.07347 -0.05352
 C336 C 0.30307 0.08446 -0.07327
 C337 C 0.30952 0.12007 -0.07844
 C338 C 0.29713 0.14476 -0.06392
 O339 O 0.26693 0.15300 -0.02831
 C340 C 0.25330 0.13032 -0.01273
 C341 C 0.25676 0.09671 -0.01864
 C342 C 0.24503 0.06887 -0.00403
 C343 C 0.22914 0.07598 0.01757
 C344 C 0.22521 0.11048 0.02404
 C345 C 0.23742 0.13798 0.00844
 H346 H 0.28044 0.04634 -0.04910
 H347 H 0.31262 0.06521 -0.08385
 H348 H 0.30155 0.17210 -0.06738
 H349 H 0.24818 0.04262 -0.00890
 H350 H 0.21983 0.05458 0.02909
 H351 H 0.23520 0.16457 0.01305
 C352 C 0.71140 0.64255 0.51381
 C353 C 0.69965 0.62992 0.49060
 C354 C 0.67378 0.62427 0.48837
 C355 C 0.65939 0.63167 0.51108
 C356 C 0.67097 0.64446 0.53548
 C357 C 0.69744 0.65021 0.53665
 O358 O 0.73627 0.64468 0.51206
 C359 C 0.74026 0.63299 0.48725
 C360 C 0.71844 0.62360 0.47335
 C361 C 0.71817 0.60915 0.44763
 C362 C 0.74134 0.60384 0.43585
 C363 C 0.76420 0.61307 0.44977
 C364 C 0.76359 0.62834 0.47573
 H365 H 0.66501 0.61386 0.47000
 H366 H 0.63928 0.62633 0.50995
 H367 H 0.70691 0.65986 0.55490
 H368 H 0.70073 0.60172 0.43721
 H369 H 0.74142 0.59247 0.41587
 H370 H 0.78067 0.63515 0.48704
 C371 C 0.79846 0.36550 0.01625
 C372 C 0.79490 0.33413 0.00432
 C373 C 0.81020 0.30701 0.01026
 C374 C 0.82987 0.31239 0.02942
 C375 C 0.83363 0.34431 0.04240
 C376 C 0.81769 0.37126 0.03560
 O377 O 0.78175 0.38777 0.00789
 C378 C 0.76725 0.37001 -0.00959
 C379 C 0.77440 0.33697 -0.01236
 C380 C 0.76125 0.31350 -0.02881
 C381 C 0.73982 0.32452 -0.04292
 C382 C 0.73222 0.35859 -0.04064
 C383 C 0.74630 0.38170 -0.02385
 H384 H 0.80700 0.28253 0.00065
 H385 H 0.84181 0.29148 0.03468
 H386 H 0.82017 0.39588 0.04516
 H387 H 0.76711 0.28755 -0.03049
 H388 H 0.72931 0.30661 -0.05581
 H389 H 0.74075 0.40768 -0.02140
 C390 C 0.18328 0.86009 0.51114
 C391 C 0.18563 0.82515 0.51430
 C392 C 0.17105 0.80137 0.49950
 C393 C 0.15358 0.81413 0.48033
 C394 C 0.15115 0.85014 0.47612
 C395 C 0.16603 0.87336 0.49216
 O396 O 0.19993 0.87833 0.52602
 C397 C 0.21322 0.85438 0.53867
 C398 C 0.20528 0.82143 0.53209
 C399 C 0.21779 0.79263 0.54112
 C400 C 0.23955 0.79805 0.55733
 C401 C 0.24811 0.83176 0.56443
 C402 C 0.23448 0.86028 0.55536
 H403 H 0.17354 0.77402 0.50203
 H404 H 0.14278 0.79601 0.46789
 H405 H 0.16481 0.90095 0.48931
 H406 H 0.21148 0.76702 0.53521
 H407 H 0.24991 0.77607 0.56409
 H408 H 0.24101 0.88633 0.55985
   
