data_POSCAR
  _audit_creation_date              2014-09-24
  _audit_creation_method            'ToBaCCo'
  _symmetry_space_group_name_H-M    'P1'
  _symmetry_Int_Tables_number       1
  _symmetry_cell_setting            triclinic
  loop_
  _symmetry_equiv_pos_as_xyz
 x,y,z
_cell_length_a 15.9432
_cell_length_b 15.8123
_cell_length_c 33.9626
_cell_angle_alpha 88.012900
_cell_angle_beta 92.874300
_cell_angle_gamma 118.930700
loop_
  _atom_site_label
  _atom_site_type_symbol
  _atom_site_fract_x
  _atom_site_fract_y
  _atom_site_fract_z
C1 C 0.05045 0.16427 0.54959
 H2 H 0.11576 0.15926 0.54949
 C3 C 0.04740 0.23519 0.57178
 H4 H 0.11105 0.28452 0.58858
 C5 C -0.10919 0.10963 0.52525
 H6 H -0.16886 0.06222 0.50618
 C7 C -0.11497 0.18054 0.54669
 H8 H -0.18003 0.18631 0.54451
 N9 N -0.02711 0.10309 0.52709
 C10 C 0.04089 -0.12638 0.50454
 H11 H 0.04472 -0.12115 0.47277
 C12 C 0.04196 -0.20458 0.52456
 H13 H 0.04865 -0.25829 0.50805
 C14 C 0.01825 -0.06774 0.56413
 H15 H 0.00329 -0.01768 0.57915
 C16 C 0.01918 -0.14457 0.58532
 H17 H 0.00560 -0.15101 0.61644
 Zn18 Zn -0.00705 0.02104 0.49421
 N19 N 0.02730 -0.06102 0.52438
 C20 C 0.17510 0.10999 0.45688
 N21 N 0.08776 0.10435 0.45963
 C22 C 0.06326 0.16370 0.43812
 C23 C 0.12733 0.23206 0.41235
 C24 C 0.24206 0.17814 0.43143
 C25 C -0.19704 -0.12634 0.48420
 C26 C -0.27285 -0.20358 0.46446
 C27 C -0.18534 -0.14913 0.40446
 C28 C -0.11178 -0.07263 0.42538
 N29 N -0.11819 -0.06343 0.46458
 H30 H 0.19306 0.06235 0.47455
 H31 H -0.00659 0.15782 0.44118
 H32 H 0.10627 0.27862 0.39548
 H33 H 0.31062 0.18059 0.42920
 H34 H -0.19901 -0.11913 0.51566
 H35 H -0.33377 -0.25383 0.48120
 H36 H -0.17377 -0.15440 0.37384
 H37 H -0.04692 -0.02412 0.41062
 C38 C 0.02913 -0.21560 0.56534
 C39 C -0.03613 0.24417 0.57039
 C40 C -0.26736 -0.21800 0.42411
 C41 C 0.21839 0.24095 0.40905
 C42 C 1.21044 0.03356 0.16068
 H43 H 1.22767 0.08559 0.18359
 C44 C 1.28458 0.03594 0.13998
 H45 H 1.35767 0.09046 0.14713
 C46 C 1.09560 -0.10070 0.12406
 H47 H 1.02141 -0.15334 0.11787
 C48 C 1.16798 -0.10053 0.10224
 H49 H 1.14844 -0.15491 0.08002
 N50 N 1.11758 -0.03053 0.15101
 C51 C 0.87896 0.03186 0.14367
 H52 H 0.87652 0.04595 0.17443
 C53 C 0.80803 0.02805 0.11687
 H54 H 0.75139 0.03938 0.12746
 C55 C 0.95141 -0.00836 0.09360
 H56 H 1.00704 -0.02253 0.08441
 C57 C 0.88134 -0.01394 0.06589
 H58 H 0.88342 -0.03308 0.03577
 Zn59 Zn 1.02091 -0.01069 0.17282
 N60 N 0.94622 0.00949 0.13208
 C61 C 1.13480 0.18739 0.18347
 N62 N 1.08331 0.10318 0.20365
 C63 C 1.08835 0.10011 0.24376
 C64 C 1.15466 0.18125 0.26483
 C65 C 1.20122 0.27047 0.20340
 C66 C 0.84285 -0.16859 0.19154
 C67 C 0.77529 -0.23969 0.21550
 C68 C 0.90322 -0.21773 0.26215
 C69 C 0.96878 -0.14717 0.23699
 N70 N 0.93706 -0.12031 0.20341
 H71 H 1.12916 0.18812 0.15160
 H72 H 1.04464 0.03399 0.25955
 H73 H 1.15996 0.17651 0.29665
 H74 H 1.24540 0.33555 0.18674
 H75 H 0.81901 -0.15136 0.16365
 H76 H 0.70106 -0.27594 0.20515
 H77 H 0.92896 -0.23522 0.28969
 H78 H 1.04451 -0.11102 0.24509
 C79 C 0.80733 0.00205 0.07764
 C80 C 1.26374 -0.02851 0.10912
 C81 C 0.80466 -0.26203 0.25223
 C82 C 1.21513 0.26641 0.24432
 C83 C 0.07993 0.96117 0.90304
 H84 H 0.00693 0.91453 0.91150
 C85 C 0.15554 0.96158 0.92582
 H86 H 0.13887 0.91687 0.95213
 C87 C 0.18833 1.07620 0.85863
 H88 H 0.20116 1.11995 0.83224
 C89 C 0.26619 1.07878 0.88055
 H90 H 0.33823 1.12532 0.87082
 N91 N 0.09708 1.01659 0.86973
 C92 C -0.20667 0.91376 0.85521
 H93 H -0.22040 0.87162 0.82891
 C94 C -0.28321 0.91033 0.87494
 H95 H -0.35576 0.86323 0.86396
 C96 C -0.09512 1.02966 0.89998
 H97 H -0.02134 1.07886 0.90859
 C98 C -0.16917 1.02840 0.92068
 H99 H -0.14883 1.07698 0.94516
 Zn100 Zn -0.01128 0.99505 0.83645
 N101 N -0.11486 0.97312 0.86792
 C102 C -0.04576 0.88890 0.76590
 N103 N -0.04202 0.88476 0.80600
 C104 C -0.04716 0.80591 0.82545
 C105 C -0.04819 0.73090 0.80465
 C106 C -0.04685 0.81534 0.74386
 C107 C -0.04240 1.14517 0.80605
 C108 C -0.03552 1.21773 0.77986
 C109 C 0.08834 1.20478 0.74690
 C110 C 0.07898 1.13192 0.77383
 N111 N 0.01338 1.10267 0.80246
 H112 H -0.04355 0.95114 0.75085
 H113 H -0.04540 0.80334 0.85727
 H114 H -0.04764 0.67084 0.82079
 H115 H -0.04370 0.82386 0.71217
 H116 H -0.09396 1.12205 0.82884
 H117 H -0.08008 1.25073 0.78395
 H118 H 0.13963 1.22624 0.72386
 H119 H 0.12150 1.09624 0.77086
 C120 C -0.26559 0.96838 0.90815
 C121 C 0.25037 1.01917 0.91405
 C122 C 0.02894 1.24686 0.74918
 C123 C -0.04520 0.73619 0.76342
 C124 C 0.41456 -0.03749 -0.01522
 C125 C 0.41949 -0.03595 0.02645
 C126 C 0.50678 -0.01530 0.04611
 C127 C 0.58808 0.00339 0.02574
 C128 C 0.58170 -0.00568 -0.01593
 C129 C 0.49425 -0.02539 -0.03583
 H130 H 0.48858 -0.02670 -0.06773
 H131 H 0.51226 -0.01545 0.07801
 C132 C 0.00051 0.43503 0.64631
 C133 C -0.02340 0.42316 0.68624
 C134 C -0.04060 0.49135 0.70405
 C135 C -0.02661 0.57623 0.68405
 C136 C 0.00341 0.59171 0.64461
 C137 C 0.01489 0.51974 0.62601
 H138 H 0.03829 0.53035 0.59601
 H139 H -0.06572 0.47714 0.73385
 C140 C 0.57423 0.57905 0.30811
 C141 C 0.58529 0.58926 0.34977
 C142 C 0.52188 0.51037 0.37311
 C143 C 0.44312 0.42931 0.35629
 C144 C 0.42656 0.42550 0.31492
 C145 C 0.49375 0.49970 0.29142
 H146 H 0.48536 0.49424 0.25957
 H147 H 0.53222 0.51019 0.40478
 C148 C -0.04081 0.32207 0.59152
 C149 C 0.00873 0.35901 0.62537
 H150 H -0.08962 0.34703 0.57976
 H151 H 0.05068 0.32854 0.63932
 C152 C 0.73483 0.66945 0.28047
 C153 C 0.64295 0.64991 0.28036
 H154 H 0.76058 0.63674 0.30316
 H155 H 0.61466 0.68125 0.25827
 C156 C 0.33426 0.02060 -0.06411
 C157 C 0.32835 -0.04692 -0.03762
 H158 H 0.40461 0.08016 -0.07026
 H159 H 0.25990 -0.10789 -0.03084
 C160 C 0.01581 0.69358 0.58500
 C161 C 0.02722 0.68496 0.62407
 H162 H -0.00805 0.63107 0.56652
 H163 H 0.05300 0.74821 0.64220
 C164 C 0.29486 0.35049 0.26436
 C165 C 0.34428 0.34122 0.29581
 H166 H 0.31678 0.42142 0.25146
 H167 H 0.32357 0.27030 0.30839
 C168 C 0.65547 -0.03593 -0.07289
 C169 C 0.66190 0.00828 -0.03682
 H170 H 0.58477 -0.08271 -0.08566
 H171 H 0.73114 0.04736 -0.02217
 C172 C 0.34440 -0.01611 0.08533
 C173 C 0.33498 -0.05413 0.04958
 H174 H 0.41540 0.03324 0.09703
 H175 H 0.26417 -0.09669 0.03633
 C176 C 0.66150 0.70149 0.40678
 C177 C 0.65634 0.67693 0.36686
 H178 H 0.60385 0.65341 0.42530
 H179 H 0.70549 0.73100 0.34725
 C180 C 0.03713 0.32247 0.72025
 C181 C -0.03643 0.33845 0.71022
 H182 H 0.10588 0.36688 0.70714
 H183 H -0.10556 0.29528 0.72306
 C184 C 0.72655 -0.01712 0.04954
 C185 C 0.67642 0.03031 0.05042
 H186 H 0.70725 -0.07289 0.02786
 H187 H 0.69462 0.08500 0.07245
 C188 C 0.28456 0.31523 0.38151
 C189 C 0.37979 0.35117 0.38334
 H190 H 0.25370 0.34540 0.35988
 H191 H 0.41359 0.33017 0.40725
 C192 C -0.03172 0.66277 0.74278
 C193 C -0.04702 0.64652 0.70389
 H194 H -0.00475 0.62254 0.76071
 H195 H -0.07383 0.68632 0.68569
   
