data_POSCAR
  _audit_creation_date              2014-09-24
  _audit_creation_method            'ToBaCCo'
  _symmetry_space_group_name_H-M    'P1'
  _symmetry_Int_Tables_number       1
  _symmetry_cell_setting            triclinic
  loop_
  _symmetry_equiv_pos_as_xyz
 x,y,z
_cell_length_a 50.3496
_cell_length_b 50.3051
_cell_length_c 50.3683
_cell_angle_alpha 93.064300
_cell_angle_beta 89.608500
_cell_angle_gamma 86.988100
loop_
  _atom_site_label
  _atom_site_type_symbol
  _atom_site_fract_x
  _atom_site_fract_y
  _atom_site_fract_z
C1 C 0.20814 0.52402 1.04457
 H2 H 0.20802 0.53992 1.03091
 C3 C 0.18917 0.52471 1.06497
 H4 H 0.17514 0.54168 1.06637
 C5 C 0.22684 0.48271 1.05775
 H6 H 0.24111 0.46605 1.05449
 C7 C 0.20817 0.48244 1.07835
 H8 H 0.20877 0.46553 1.09085
 N9 N 0.22649 0.50332 1.04137
 C10 C 0.28798 0.53471 0.99238
 H11 H 0.28942 0.51906 0.97677
 C12 C 0.30425 0.55626 0.99159
 H13 H 0.31847 0.55653 0.97545
 C14 C 0.26847 0.55208 1.03304
 H15 H 0.25484 0.55013 1.04939
 C16 C 0.28442 0.57400 1.03306
 H17 H 0.28274 0.58893 1.04939
 Zn18 Zn 0.24952 0.50289 1.01153
 N19 N 0.27030 0.53317 1.01268
 C20 C 0.22612 0.52411 0.96571
 N21 N 0.22762 0.50279 0.98119
 C22 C 0.21166 0.48206 0.97689
 C23 C 0.19332 0.48214 0.95620
 C24 C 0.20791 0.52519 0.94499
 C25 C 0.29012 0.47035 1.03157
 C26 C 0.30897 0.44906 1.03217
 C27 C 0.29357 0.43293 0.98924
 C28 C 0.27487 0.45448 0.98960
 N29 N 0.27341 0.47256 1.01066
 H30 H 0.23838 0.54078 0.96991
 H31 H 0.21278 0.46568 0.98998
 H32 H 0.18059 0.46557 0.95399
 H33 H 0.20674 0.54265 0.93326
 H34 H 0.28880 0.48532 1.04784
 H35 H 0.32169 0.44841 1.04928
 H36 H 0.29445 0.41888 0.97214
 H37 H 0.26188 0.45694 0.97284
 C38 C 0.30235 0.57649 1.01200
 C39 C 0.18864 0.50344 1.08219
 C40 C 0.31107 0.42986 1.01066
 C41 C 0.19103 0.50414 0.93998
 C42 C 0.77350 0.51977 -0.05815
 H43 H 0.76001 0.53723 -0.05720
 C44 C 0.79445 0.51774 -0.07664
 H45 H 0.79631 0.53343 -0.09028
 C46 C 0.78781 0.47849 -0.04098
 H47 H 0.78537 0.46360 -0.02656
 C48 C 0.80879 0.47554 -0.05924
 H49 H 0.82243 0.45817 -0.05889
 N50 N 0.77075 0.50034 -0.04070
 C51 C 0.71648 0.55195 0.00356
 H52 H 0.72745 0.55113 0.02188
 C53 C 0.69659 0.57205 0.00089
 H54 H 0.69322 0.58689 0.01703
 C55 C 0.70732 0.53315 -0.03933
 H56 H 0.71133 0.51757 -0.05469
 C57 C 0.68737 0.55289 -0.04288
 H58 H 0.67613 0.55246 -0.06115
 Zn59 Zn 0.74566 0.50360 -0.01266
 N60 N 0.72138 0.53301 -0.01641
 C61 C 0.77922 0.53008 0.02197
 N62 N 0.76573 0.50748 0.01869
 C63 C 0.76945 0.48720 0.03530
 C64 C 0.78768 0.48909 0.05604
 C65 C 0.79726 0.53302 0.04262
 C66 C 0.72467 0.45632 -0.03467
 C67 C 0.70738 0.43550 -0.03569
 C68 C 0.69220 0.44934 0.00879
 C69 C 0.70940 0.47020 0.00871
 N70 N 0.72535 0.47314 -0.01268
 H71 H 0.77649 0.54556 0.00798
 H72 H 0.75925 0.46900 0.03176
 H73 H 0.79043 0.47224 0.06831
 H74 H 0.80805 0.55111 0.04447
 H75 H 0.73684 0.45960 -0.05182
 H76 H 0.70678 0.42266 -0.05364
 H77 H 0.67940 0.44821 0.02594
 H78 H 0.70969 0.48445 0.02556
 C79 C 0.68142 0.57237 -0.02246
 C80 C 0.81269 0.49556 -0.07694
 C81 C 0.69081 0.43168 -0.01381
 C82 C 0.80231 0.51216 0.05969
 C83 C -0.02371 0.28211 0.46113
 H84 H -0.03701 0.28082 0.47792
 C85 C -0.02928 0.30094 0.44237
 H86 H -0.04728 0.31367 0.44488
 C87 C 0.01651 0.26790 0.43886
 H88 H 0.03475 0.25555 0.43814
 C89 C 0.01201 0.28685 0.41980
 H90 H 0.02700 0.28794 0.40455
 N91 N -0.00110 0.26618 0.45918
 C92 C -0.01823 0.20960 0.51897
 H93 H -0.00108 0.21200 0.53153
 C94 C -0.03722 0.19166 0.52529
 H95 H -0.03458 0.18033 0.54287
 C96 C -0.04199 0.22093 0.48040
 H97 H -0.04351 0.23199 0.46262
 C98 C -0.06144 0.20310 0.48592
 H99 H -0.07803 0.20144 0.47256
 Zn100 Zn 0.00702 0.24600 0.48891
 N101 N -0.02094 0.22387 0.49690
 C102 C -0.00388 0.27521 0.53859
 N103 N 0.01243 0.27157 0.51694
 C104 C 0.03244 0.28803 0.51298
 C105 C 0.03686 0.30909 0.53121
 C106 C -0.00036 0.29628 0.55732
 C107 C 0.03894 0.20536 0.46214
 C108 C 0.06058 0.18689 0.45849
 C109 C 0.08015 0.20625 0.49819
 C110 C 0.05822 0.22433 0.50096
 N111 N 0.03814 0.22357 0.48310
 H112 H -0.02012 0.26231 0.54099
 H113 H 0.04479 0.28497 0.49529
 H114 H 0.05286 0.32200 0.52736
 H115 H -0.01406 0.29870 0.57395
 H116 H 0.02248 0.20492 0.44845
 H117 H 0.06016 0.17275 0.44165
 H118 H 0.09564 0.20707 0.51300
 H119 H 0.05692 0.23841 0.51793
 C120 C -0.05898 0.18790 0.50852
 C121 C -0.01100 0.30428 0.42169
 C122 C 0.08155 0.18687 0.47697
 C123 C 0.02020 0.31383 0.55364
 C124 C 0.98995 0.70693 0.53779
 H125 H 0.97327 0.70666 0.52437
 C126 C 0.99209 0.68864 0.55759
 H127 H 0.97690 0.67435 0.55903
 C128 C 1.03114 0.72446 0.55017
 H129 H 1.04676 0.73777 0.54653
 C130 C 1.03418 0.70632 0.57016
 H131 H 1.05200 0.70610 0.58208
 N132 N 1.00934 0.72428 0.53438
 C133 C 0.97004 0.78080 0.48279
 H134 H 0.98364 0.77885 0.46599
 C135 C 0.94809 0.79894 0.48265
 H136 H 0.94471 0.81038 0.46530
 C137 C 0.95816 0.76792 0.52567
 H138 H 0.96251 0.75627 0.54266
 C139 C 0.93593 0.78581 0.52635
 H140 H 0.92317 0.78756 0.54382
 Zn141 Zn 1.00658 0.74410 0.50365
 N142 N 0.97473 0.76584 0.50412
 C143 C 0.98623 0.71442 0.45892
 N144 N 1.00745 0.71833 0.47493
 C145 C 1.02965 0.70179 0.47296
 C146 C 1.03117 0.68023 0.45438
 C147 C 0.98676 0.69286 0.44013
 C148 C 1.03846 0.78560 0.52092
 C149 C 1.05801 0.80414 0.51901
 C150 C 1.07008 0.78409 0.47566
 C151 C 1.05043 0.76587 0.47851
 N152 N 1.03511 0.76690 0.50091
 H153 H 0.96851 0.72744 0.46130
 H154 H 1.04602 0.70506 0.48635
 H155 H 1.04904 0.66720 0.45352
 H156 H 0.96926 0.69022 0.42823
 H157 H 1.02556 0.78636 0.53825
 H158 H 1.05952 0.81896 0.53516
 H159 H 1.08175 0.78306 0.45744
 H160 H 1.04696 0.75140 0.46246
 C161 C 0.93099 0.80200 0.50492
 C162 C 1.01460 0.68800 0.57393
 C163 C 1.07415 0.80370 0.49596
 C164 C 1.00944 0.67510 0.43787
 C165 C 0.47061 -0.01095 0.29112
 H166 H 0.48501 -0.02771 0.28964
 C167 C 0.44903 -0.01113 0.30863
 H168 H 0.44677 -0.02846 0.32009
 C169 C 0.45620 0.03177 0.27751
 H170 H 0.45938 0.04871 0.26580
 C171 C 0.43425 0.03238 0.29473
 H172 H 0.42051 0.04972 0.29591
 N173 N 0.47381 0.01026 0.27601
 C174 C 0.52696 -0.02338 0.21291
 H175 H 0.54356 -0.01080 0.21607
 C176 C 0.52739 -0.04208 0.19143
 H177 H 0.54474 -0.04383 0.17845
 C178 C 0.48394 -0.03510 0.22555
 H179 H 0.46671 -0.03168 0.23843
 C180 C 0.48339 -0.05399 0.20417
 H181 H 0.46554 -0.06479 0.20171
 Zn182 Zn 0.50494 0.00907 0.25461
 N183 N 0.50542 -0.02012 0.22934
 C184 C 0.54995 -0.01654 0.27808
 N185 N 0.53421 0.00624 0.27790
 C186 C 0.53735 0.02676 0.29608
 C187 C 0.55705 0.02496 0.31539
 C188 C 0.56973 -0.01934 0.29720
 C189 C 0.48573 0.04389 0.21752
 C190 C 0.48646 0.06391 0.19946
 C191 C 0.52965 0.07463 0.21629
 C192 C 0.52789 0.05458 0.23430
 N193 N 0.50619 0.03962 0.23447
 H194 H 0.54665 -0.03292 0.26394
 H195 H 0.52409 0.04438 0.29589
 H196 H 0.55828 0.04151 0.32980
 H197 H 0.58170 -0.03788 0.29722
 H198 H 0.46912 0.03109 0.21750
 H199 H 0.47010 0.06588 0.18584
 H200 H 0.54743 0.08587 0.21604
 H201 H 0.54435 0.05028 0.24732
 C202 C 0.50524 -0.05747 0.18629
 C203 C 0.43072 0.01097 0.31088
 C204 C 0.50888 0.07948 0.19834
 C205 C 0.57354 0.00148 0.31635
 C206 C 0.54533 -0.02239 0.72381
 H207 H 0.54477 -0.04033 0.73464
 C208 C 0.56491 -0.02035 0.70424
 H209 H 0.57955 -0.03668 0.70081
 C210 C 0.52645 0.02032 0.71494
 H211 H 0.51107 0.03588 0.71894
 C212 C 0.54567 0.02326 0.69542
 H213 H 0.54502 0.04128 0.68454
 N214 N 0.52657 -0.00221 0.72866
 C215 C 0.48023 -0.05220 0.77372
 H216 H 0.46271 -0.04926 0.76175
 C217 C 0.48094 -0.07178 0.79244
 H218 H 0.46422 -0.08427 0.79378
 C219 C 0.52264 -0.03858 0.78722
 H220 H 0.53836 -0.02487 0.78572
 C221 C 0.52422 -0.05793 0.80605
 H222 H 0.54147 -0.05923 0.81876
 Zn223 Zn 0.49760 -0.00470 0.75238
 N224 N 0.50073 -0.03581 0.77180
 C225 C 0.46319 -0.02445 0.71348
 N226 N 0.46644 -0.00385 0.73153
 C227 C 0.44928 0.01797 0.73282
 C228 C 0.42788 0.01968 0.71540
 C229 C 0.44190 -0.02372 0.69583
 C230 C 0.51632 0.04060 0.78191
 C231 C 0.51590 0.05924 0.80358
 C232 C 0.47370 0.04336 0.81717
 C233 C 0.47514 0.02488 0.79553
 N234 N 0.49617 0.02383 0.77842
 H235 H 0.47756 -0.04125 0.71241
 H236 H 0.45267 0.03454 0.74669
 H237 H 0.41482 0.03754 0.71648
 H238 H 0.44057 -0.04023 0.68138
 H239 H 0.53322 0.03892 0.76846
 H240 H 0.53255 0.07181 0.80584
 H241 H 0.45678 0.04351 0.83062
 H242 H 0.45968 0.01089 0.79261
 C243 C 0.50285 -0.07423 0.80949
 C244 C 0.56499 0.00266 0.68949
 C245 C 0.49443 0.06061 0.82187
 C246 C 0.42394 -0.00120 0.69640
 C247 C 0.22427 -0.03229 0.49919
 C248 C 0.23702 -0.00929 0.49277
 C249 C 0.22224 0.01187 0.48186
 C250 C 0.19472 0.01040 0.47788
 C251 C 0.18249 -0.01308 0.48363
 C252 C 0.19714 -0.03463 0.49403
 C253 C 0.26580 -0.00725 0.49764
 C254 C 0.28293 -0.00104 0.47696
 C255 C 0.31033 0.00087 0.48148
 C256 C 0.32008 -0.00229 0.50720
 C257 C 0.30315 -0.00819 0.52811
 C258 C 0.27614 -0.01132 0.52302
 H259 H 0.23565 -0.04868 0.50752
 H260 H 0.23234 0.02941 0.47682
 H261 H 0.27471 0.00207 0.45753
 H262 H 0.26298 -0.01608 0.53902
 H263 H 0.16127 -0.01416 0.48078
 H264 H 0.34120 -0.00102 0.51072
 C265 C 0.78752 -0.01955 0.50838
 C266 C 0.77075 0.00334 0.50576
 C267 C 0.78175 0.02819 0.50349
 C268 C 0.80935 0.03049 0.50457
 C269 C 0.82594 0.00734 0.50660
 C270 C 0.81533 -0.01778 0.50823
 C271 C 0.74164 0.00127 0.50508
 C272 C 0.72782 -0.00579 0.52771
 C273 C 0.70001 -0.00684 0.52749
 C274 C 0.68633 -0.00245 0.50369
 C275 C 0.70006 0.00414 0.48073
 C276 C 0.72764 0.00667 0.48184
 H277 H 0.77866 -0.03849 0.51018
 H278 H 0.76873 0.04582 0.50146
 H279 H 0.73866 -0.00952 0.54577
 H280 H 0.73837 0.01216 0.46439
 H281 H 0.84733 0.00864 0.50603
 H282 H 0.66499 -0.00389 0.50305
 C283 C 0.53248 0.27897 1.00763
 C284 C 0.50785 0.26775 1.01089
 C285 C 0.48476 0.28434 1.01505
 C286 C 0.48616 0.31222 1.01551
 C287 C 0.51098 0.32315 1.01228
 C288 C 0.53420 0.30666 1.00831
 C289 C 0.50655 0.23858 1.01055
 C290 C 0.50073 0.22614 1.03395
 C291 C 0.50159 0.19828 1.03423
 C292 C 0.50689 0.18290 1.01045
 C293 C 0.51156 0.19526 0.98652
 C294 C 0.51210 0.22313 0.98701
 H295 H 0.55034 0.26608 1.00488
 H296 H 0.46601 0.27537 1.01826
 H297 H 0.49659 0.23816 1.05216
 H298 H 0.51635 0.23295 0.96893
 H299 H 0.51224 0.34462 1.01352
 H300 H 0.50728 0.16142 1.01074
 C301 C 0.50467 0.72783 -0.00153
 C302 C 0.47928 0.74012 -0.00428
 C303 C 0.45734 0.72453 -0.00895
 C304 C 0.46072 0.69657 -0.01073
 C305 C 0.48634 0.68453 -0.00869
 C306 C 0.50849 0.70003 -0.00428
 C307 C 0.47601 0.76936 -0.00312
 C308 C 0.47270 0.78278 -0.02660
 C309 C 0.47152 0.81070 -0.02599
 C310 C 0.47258 0.82520 -0.00135
 C311 C 0.47568 0.81185 0.02244
 C312 C 0.47749 0.78388 0.02125
 H313 H 0.52156 0.74001 0.00196
 H314 H 0.43788 0.73425 -0.01141
 H315 H 0.47190 0.77140 -0.04545
 H316 H 0.48010 0.77330 0.03933
 H317 H 0.48878 0.66298 -0.00983
 H318 H 0.47023 0.84670 -0.00076
 C319 C 0.99139 0.51314 0.27302
 C320 C 0.99192 0.48935 0.25731
 C321 C 0.99324 0.46489 0.26931
 C322 C 0.99402 0.46394 0.29708
 C323 C 0.99359 0.48806 0.31278
 C324 C 0.99224 0.51281 0.30082
 C325 C 0.99063 0.49021 0.22824
 C326 C 1.01311 0.49628 0.21365
 C327 C 1.01178 0.49779 0.18590
 C328 C 0.98742 0.49407 0.17320
 C329 C 0.96453 0.48883 0.18781
 C330 C 0.96653 0.48622 0.21528
 H331 H 0.99018 0.53198 0.26348
 H332 H 0.99361 0.44657 0.25692
 H333 H 1.03129 0.50011 0.22418
 H334 H 0.94911 0.48204 0.22680
 H335 H 0.99429 0.48758 0.33412
 H336 H 0.98653 0.49499 0.15180
 C337 C 0.00643 0.52557 0.72333
 C338 C 0.01066 0.50200 0.73656
 C339 C 0.01458 0.47764 0.72193
 C340 C 0.01384 0.47651 0.69403
 C341 C 0.00992 0.50048 0.68091
 C342 C 0.00663 0.52509 0.69552
 C343 C 0.00989 0.50276 0.76577
 C344 C -0.01402 0.50993 0.77932
 C345 C -0.01530 0.51016 0.80711
 C346 C 0.00810 0.50475 0.82139
 C347 C 0.03233 0.49808 0.80798
 C348 C 0.03289 0.49635 0.78011
 H349 H 0.00332 0.54438 0.73476
 H350 H 0.01736 0.45943 0.73240
 H351 H -0.03184 0.51448 0.76809
 H352 H 0.05138 0.49090 0.76956
 H353 H 0.00828 0.50018 0.65954
 H354 H 0.00750 0.50557 0.84289
 C355 C 0.10326 0.16794 0.47593
 C356 C 0.10712 0.14676 0.45680
 C357 C 0.12831 0.12530 0.45881
 C358 C 0.12481 0.10040 0.44573
 C359 C 0.14326 0.07902 0.44865
 C360 C 0.16567 0.08209 0.46486
 C361 C 0.16998 0.10739 0.47665
 C362 C 0.15158 0.12880 0.47366
 C363 C 0.18461 0.05950 0.47040
 C364 C 0.17782 0.03287 0.46821
 H365 H 0.09308 0.14414 0.44090
 H366 H 0.10740 0.09729 0.43367
 H367 H 0.13974 0.06021 0.43822
 H368 H 0.18738 0.11049 0.48874
 H369 H 0.15577 0.14793 0.48305
 H370 H 0.20337 0.06434 0.47926
 H371 H 0.11735 0.16927 0.49199
 H372 H 0.15805 0.02836 0.46172
 C373 C 0.65885 0.59186 -0.02614
 C374 C 0.64499 0.60577 -0.00515
 C375 C 0.61968 0.62148 -0.00876
 C376 C 0.61143 0.64116 0.01078
 C377 C 0.58692 0.65532 0.00880
 C378 C 0.57011 0.64991 -0.01280
 C379 C 0.57829 0.63010 -0.03221
 C380 C 0.60278 0.61602 -0.03028
 C381 C 0.54339 0.66327 -0.01507
 C382 C 0.53564 0.68767 -0.00203
 H383 H 0.65227 0.60468 0.01492
 H384 H 0.62386 0.64541 0.02779
 H385 H 0.58099 0.66986 0.02460
 H386 H 0.56553 0.62524 -0.04881
 H387 H 0.60785 0.60032 -0.04523
 H388 H 0.52961 0.65392 -0.02858
 H389 H 0.65181 0.59385 -0.04622
 H390 H 0.55021 0.69893 0.00876
 C391 C 0.90832 -0.17794 0.50663
 C392 C 0.90814 -0.15442 0.49304
 C393 C 0.88709 -0.13274 0.49622
 C394 C 0.89313 -0.10710 0.48926
 C395 C 0.87408 -0.08593 0.49193
 C396 C 0.84842 -0.08993 0.50163
 C397 C 0.84206 -0.11572 0.50786
 C398 C 0.86122 -0.13696 0.50532
 C399 C 0.82778 -0.06780 0.50423
 C400 C 0.83429 -0.04131 0.50913
 H401 H 0.92535 -0.15056 0.48112
 H402 H 0.91274 -0.10339 0.48177
 H403 H 0.87944 -0.06661 0.48584
 H404 H 0.82227 -0.11941 0.51486
 H405 H 0.85553 -0.15659 0.51007
 H406 H 0.80724 -0.07276 0.50217
 H407 H 0.89268 -0.18064 0.52092
 H408 H 0.85493 -0.03734 0.51262
 C409 C 0.33017 0.40827 1.00927
 C410 C 0.34879 0.40268 1.02906
 C411 C 0.37037 0.38151 1.02591
 C412 C 0.39294 0.38366 1.04192
 C413 C 0.41430 0.36486 1.03910
 C414 C 0.41356 0.34340 1.02011
 C415 C 0.39053 0.34049 1.00493
 C416 C 0.36912 0.35937 1.00772
 C417 C 0.43641 0.32384 1.01585
 C418 C 0.46257 0.33067 1.02049
 H419 H 0.34909 0.41511 1.04717
 H420 H 0.39423 0.40020 1.05646
 H421 H 0.43125 0.36717 1.05194
 H422 H 0.38927 0.32381 0.99056
 H423 H 0.35170 0.35633 0.99575
 H424 H 0.43265 0.30443 1.00678
 H425 H 0.33091 0.39563 0.99119
 H426 H 0.46623 0.35115 1.02641
 C427 C 0.92190 0.16774 0.51518
 C428 C 0.90453 0.15618 0.49689
 C429 C 0.88824 0.13338 0.50271
 C430 C 0.86671 0.12762 0.48616
 C431 C 0.85194 0.10527 0.48987
 C432 C 0.85850 0.08812 0.51028
 C433 C 0.87995 0.09395 0.52686
 C434 C 0.89468 0.11624 0.52316
 C435 C 0.84496 0.06307 0.51382
 C436 C 0.82058 0.05697 0.50250
 H437 H 0.90308 0.16345 0.47712
 H438 H 0.86154 0.14025 0.47001
 H439 H 0.83604 0.10117 0.47619
 H440 H 0.88569 0.08087 0.54248
 H441 H 0.91161 0.11926 0.53583
 H442 H 0.85466 0.04878 0.52639
 H443 H 0.92266 0.16086 0.53514
 H444 H 0.80882 0.07215 0.49277
 C445 C 0.31949 0.59958 0.01261
 C446 C 0.33209 0.60817 -0.00998
 C447 C 0.35153 0.62927 -0.00910
 C448 C 0.37059 0.62910 -0.02957
 C449 C 0.39017 0.64777 -0.02896
 C450 C 0.39097 0.66716 -0.00786
 C451 C 0.37113 0.66822 0.01191
 C452 C 0.35162 0.64939 0.01141
 C453 C 0.41239 0.68618 -0.00588
 C454 C 0.43815 0.67928 -0.01516
 H455 H 0.32886 0.59811 -0.02910
 H456 H 0.37065 0.61412 -0.04585
 H457 H 0.40461 0.64698 -0.04503
 H458 H 0.37108 0.68328 0.02811
 H459 H 0.33668 0.65080 0.02701
 H460 H 0.40852 0.70480 0.00564
 H461 H 0.32240 0.60985 0.03170
 H462 H 0.44264 0.65930 -0.02362
 C463 C 0.09316 -0.17737 0.49175
 C464 C 0.10052 -0.15765 0.51056
 C465 C 0.11769 -0.13592 0.50374
 C466 C 0.13270 -0.12346 0.52372
 C467 C 0.14798 -0.10194 0.51813
 C468 C 0.14827 -0.09232 0.49242
 C469 C 0.13309 -0.10467 0.47253
 C470 C 0.11801 -0.12626 0.47805
 C471 C 0.16262 -0.06851 0.48600
 C472 C 0.18427 -0.05935 0.50037
 H473 H 0.09436 -0.15819 0.53110
 H474 H 0.13242 -0.13025 0.54376
 H475 H 0.15880 -0.09244 0.53417
 H476 H 0.13264 -0.09736 0.45268
 H477 H 0.10597 -0.13473 0.46236
 H478 H 0.15640 -0.05831 0.46851
 H479 H 0.10289 -0.17813 0.47244
 H480 H 0.19300 -0.07126 0.51565
 C481 C 0.67246 0.41157 0.98405
 C482 C 0.65732 0.40349 1.00526
 C483 C 0.63490 0.38598 1.00130
 C484 C 0.62834 0.36914 1.02137
 C485 C 0.60592 0.35398 1.01905
 C486 C 0.58939 0.35582 0.99676
 C487 C 0.59593 0.37269 0.97671
 C488 C 0.61861 0.38748 0.97880
 C489 C 0.56415 0.34220 0.99510
 C490 C 0.56054 0.31806 1.00665
 H491 H 0.66224 0.40935 1.02553
 H492 H 0.64039 0.36800 1.03905
 H493 H 0.60098 0.34170 1.03519
 H494 H 0.58324 0.37470 0.95957
 H495 H 0.62275 0.40087 0.96335
 H496 H 0.54797 0.35136 0.98416
 H497 H 0.66990 0.40153 0.96472
 H498 H 0.57756 0.30692 1.01428
 C499 C 0.51207 0.09828 1.17899
 C500 C 0.49215 0.10657 1.16152
 C501 C 0.49757 0.12219 1.13820
 C502 C 0.47697 0.13836 1.12793
 C503 C 0.48092 0.15188 1.10480
 C504 C 0.50554 0.14916 1.09131
 C505 C 0.52605 0.13281 1.10145
 C506 C 0.52221 0.11956 1.12475
 C507 C 0.50995 0.16192 1.06600
 C508 C 0.49667 0.18572 1.05954
 H509 H 0.47169 0.10216 1.16502
 H510 H 0.45767 0.14031 1.13768
 H511 H 0.46444 0.16373 1.09711
 H512 H 0.54507 0.13013 1.09119
 H513 H 0.53824 0.10658 1.13163
 H514 H 0.52535 0.15308 1.05268
 H515 H 0.53129 0.10684 1.17737
 H516 H 0.48397 0.19661 1.07427
 C517 C 0.01931 0.66695 0.59305
 C518 C -0.00114 0.65286 0.60353
 C519 C 0.00368 0.62858 0.61849
 C520 C -0.01622 0.62095 0.63572
 C521 C -0.01301 0.59727 0.64892
 C522 C 0.01013 0.58060 0.64490
 C523 C 0.02987 0.58804 0.62740
 C524 C 0.02678 0.61185 0.61440
 C525 C 0.01378 0.55494 0.65779
 C526 C 0.00228 0.55047 0.68233
 H527 H -0.02159 0.65989 0.60086
 H528 H -0.03440 0.63325 0.63880
 H529 H -0.02899 0.59175 0.66165
 H530 H 0.04770 0.57534 0.62371
 H531 H 0.04213 0.61663 0.60058
 H532 H 0.02738 0.53976 0.64851
 H533 H 0.03963 0.66226 0.59881
 H534 H -0.00843 0.56680 0.69332
 C535 C 0.50374 0.90780 -0.16809
 C536 C 0.48109 0.89833 -0.15633
 C537 C 0.48175 0.88484 -0.13087
 C538 C 0.46138 0.86800 -0.12504
 C539 C 0.46075 0.85584 -0.10072
 C540 C 0.48045 0.86050 -0.08161
 C541 C 0.50048 0.87779 -0.08721
 C542 C 0.50122 0.88979 -0.11158
 C543 C 0.48039 0.84829 -0.05549
 C544 C 0.46915 0.82403 -0.05142
 H545 H 0.46190 0.90139 -0.16549
 H546 H 0.44584 0.86431 -0.13934
 H547 H 0.44452 0.84330 -0.09679
 H548 H 0.51565 0.88203 -0.07266
 H549 H 0.51665 0.90345 -0.11486
 H550 H 0.49159 0.85758 -0.03958
 H551 H 0.52291 0.90375 -0.15914
 H552 H 0.46084 0.81300 -0.06815
 C553 C 0.98422 0.32479 0.40572
 C554 C 1.00119 0.33233 0.38555
 C555 C 0.99710 0.35787 0.37228
 C556 C 1.00963 0.36075 0.34770
 C557 C 1.00726 0.38494 0.33521
 C558 C 0.99219 0.40685 0.34709
 C559 C 0.97996 0.40403 0.37181
 C560 C 0.98243 0.37993 0.38434
 C561 C 0.98960 0.43321 0.33516
 C562 C 0.99599 0.43742 0.30872
 H563 H 1.01824 0.31968 0.37905
 H564 H 1.02150 0.34428 0.33823
 H565 H 1.01779 0.38637 0.31662
 H566 H 0.96864 0.42067 0.38167
 H567 H 0.97341 0.37908 0.40379
 H568 H 0.98121 0.44971 0.34769
 H569 H 0.96605 0.33700 0.40929
 H570 H 1.00158 0.42048 0.29537
 C571 C 0.50561 0.92612 0.16404
 C572 C 0.48504 0.90996 0.15564
 C573 C 0.48533 0.89509 0.12938
 C574 C 0.46983 0.87282 0.12589
 C575 C 0.46896 0.85878 0.10121
 C576 C 0.48362 0.86680 0.07940
 C577 C 0.49864 0.88943 0.08275
 C578 C 0.49953 0.90345 0.10742
 C579 C 0.48299 0.85274 0.05280
 C580 C 0.47634 0.82620 0.04890
 H581 H 0.46825 0.90728 0.16848
 H582 H 0.45825 0.86630 0.14231
 H583 H 0.45633 0.84206 0.09926
 H584 H 0.50972 0.89634 0.06617
 H585 H 0.51083 0.92115 0.10894
 H586 H 0.48953 0.86328 0.03598
 H587 H 0.52316 0.92554 0.15141
 H588 H 0.47292 0.81476 0.06607
 C589 C 0.02438 0.33638 0.57060
 C590 C 0.00897 0.34469 0.59307
 C591 C 0.01247 0.37033 0.60830
 C592 C 0.00277 0.37360 0.63452
 C593 C 0.00480 0.39780 0.64919
 C594 C 0.01666 0.41933 0.63788
 C595 C 0.02603 0.41615 0.61155
 C596 C 0.02393 0.39201 0.59687
 C597 C 0.01823 0.44576 0.65217
 C598 C 0.01538 0.44988 0.67973
 H599 H -0.00601 0.33223 0.60032
 H600 H -0.00661 0.35742 0.64363
 H601 H -0.00360 0.39960 0.66904
 H602 H 0.03476 0.43254 0.60216
 H603 H 0.03064 0.39081 0.57640
 H604 H 0.02237 0.46235 0.64030
 H605 H 0.04070 0.34841 0.56558
 H606 H 0.01430 0.43275 0.69171
 C607 C 0.49303 0.07756 0.84508
 C608 C 0.51275 0.09454 0.85385
 C609 C 0.51117 0.10972 0.87996
 C610 C 0.52610 0.13236 0.88392
 C611 C 0.52524 0.14704 0.90834
 C612 C 0.50933 0.13932 0.92941
 C613 C 0.49501 0.11625 0.92563
 C614 C 0.49597 0.10155 0.90131
 C615 C 0.50715 0.15427 0.95564
 C616 C 0.51602 0.17991 0.96075
 H617 H 0.52981 0.09741 0.84143
 H618 H 0.53842 0.13878 0.86800
 H619 H 0.53729 0.16415 0.91049
 H620 H 0.48296 0.10952 0.94161
 H621 H 0.48512 0.08356 0.89963
 H622 H 0.49638 0.14514 0.97109
 H623 H 0.47535 0.07702 0.85734
 H624 H 0.52463 0.19022 0.94479
 C625 C 1.01117 0.65199 0.42075
 C626 C 0.99099 0.64323 0.40394
 C627 C 0.99318 0.61730 0.38840
 C628 C 0.97753 0.61377 0.36568
 C629 C 0.97880 0.58949 0.35073
 C630 C 0.99582 0.56815 0.35826
 C631 C 1.01091 0.57145 0.38139
 C632 C 1.00962 0.59570 0.39635
 C633 C 0.99775 0.54201 0.34311
 C634 C 0.99073 0.53874 0.31638
 H635 H 0.97315 0.65563 0.40130
 H636 H 0.96427 0.62987 0.35945
 H637 H 0.96603 0.58749 0.33365
 H638 H 1.02376 0.55519 0.38795
 H639 H 1.02113 0.59715 0.41436
 H640 H 1.00648 0.52522 0.35309
 H641 H 1.02958 0.63986 0.42087
 H642 H 0.98494 0.55623 0.30577
 C643 C 1.17004 0.50179 0.10153
 C644 C 1.14885 0.52054 0.10731
 C645 C 1.12720 0.51620 0.12644
 C646 C 1.10248 0.52988 0.12341
 C647 C 1.08107 0.52557 0.14012
 C648 C 1.08392 0.50739 0.16030
 C649 C 1.10895 0.49466 0.16418
 C650 C 1.13041 0.49897 0.14745
 C651 C 1.06134 0.50150 0.17765
 C652 C 1.03490 0.50419 0.16950
 H653 H 1.14633 0.53825 0.09624
 H654 H 1.09959 0.54368 0.10776
 H655 H 1.06242 0.53666 0.13721
 H656 H 1.11181 0.48103 0.17998
 H657 H 1.14940 0.48891 0.15123
 H658 H 1.06592 0.49289 0.19641
 H659 H 1.17099 0.48406 0.11284
 H660 H 1.03085 0.50982 0.14943
 C661 C 0.58411 0.00605 0.66752
 C662 C 0.59967 -0.01466 0.65460
 C663 C 0.61550 -0.01089 0.63024
 C664 C 0.63746 -0.02844 0.62368
 C665 C 0.65230 -0.02579 0.60042
 C666 C 0.64528 -0.00555 0.58313
 C667 C 0.62302 0.01163 0.58947
 C668 C 0.60829 0.00904 0.61269
 C669 C 0.65982 -0.00211 0.55793
 C670 C 0.68578 -0.01224 0.55236
 H671 H 0.60030 -0.03439 0.66216
 H672 H 0.64312 -0.04428 0.63660
 H673 H 0.66882 -0.03995 0.59589
 H674 H 0.61689 0.02711 0.57631
 H675 H 0.59089 0.02229 0.61636
 H676 H 0.65012 0.01060 0.54384
 H677 H 0.58490 0.02589 0.66034
 H678 H 0.69693 -0.02230 0.56751
 C679 C -0.16362 0.49277 0.90544
 C680 C -0.15123 0.51439 0.89543
 C681 C -0.12489 0.51155 0.88206
 C682 C -0.11780 0.53070 0.86442
 C683 C -0.09278 0.52888 0.85200
 C684 C -0.07431 0.50786 0.85719
 C685 C -0.08118 0.48915 0.87536
 C686 C -0.10616 0.49091 0.88767
 C687 C -0.04759 0.50498 0.84465
 C688 C -0.04136 0.51579 0.82057
 H689 H -0.16062 0.53421 0.89790
 H690 H -0.13168 0.54710 0.86023
 H691 H -0.08790 0.54420 0.83879
 H692 H -0.06716 0.47303 0.88005
 H693 H -0.11039 0.47642 0.90201
 H694 H -0.03296 0.49182 0.85365
 H695 H -0.15441 0.47294 0.90205
 H696 H -0.05679 0.52630 0.80980
 C697 C 0.40802 0.01223 0.32985
 C698 C 0.40895 -0.00109 0.35350
 C699 C 0.38716 0.00046 0.37350
 C700 C 0.39326 -0.00595 0.39959
 C701 C 0.37337 -0.00543 0.41908
 C702 C 0.34679 0.00150 0.41287
 C703 C 0.34055 0.00741 0.38665
 C704 C 0.36053 0.00703 0.36712
 C705 C 0.32520 0.00114 0.43297
 C706 C 0.32973 0.00556 0.46017
 H707 H 0.42725 -0.01183 0.35857
 H708 H 0.41353 -0.01153 0.40493
 H709 H 0.37887 -0.01119 0.43877
 H710 H 0.32014 0.01230 0.38126
 H711 H 0.35492 0.01129 0.34704
 H712 H 0.30557 -0.00319 0.42595
 H713 H 0.39115 0.02567 0.32606
 H714 H 0.34927 0.01118 0.46643
 C715 C 0.17168 0.50671 0.92013
 C716 C 0.15478 0.48679 0.91168
 C717 C 0.13198 0.49221 0.89406
 C718 C 0.12305 0.47162 0.87706
 C719 C 0.10075 0.47597 0.86113
 C720 C 0.08677 0.50097 0.86228
 C721 C 0.09550 0.52141 0.87957
 C722 C 0.11795 0.51716 0.89521
 C723 C 0.06228 0.50597 0.84694
 C724 C 0.05711 0.49254 0.82272
 H725 H 0.15845 0.46649 0.91725
 H726 H 0.13328 0.45210 0.87619
 H727 H 0.09408 0.45956 0.84856
 H728 H 0.08482 0.54070 0.88108
 H729 H 0.12377 0.53320 0.90876
 H730 H 0.04848 0.52196 0.85430
 H731 H 0.16962 0.52558 0.91071
 H732 H 0.07235 0.47915 0.81334
 C733 C 0.59262 -0.00256 0.33629
 C734 C 0.60007 0.01702 0.35523
 C735 C 0.61743 0.01091 0.37798
 C736 C 0.63268 0.03098 0.38951
 C737 C 0.64815 0.02626 0.41192
 C738 C 0.64839 0.00139 0.42344
 C739 C 0.63292 -0.01857 0.41208
 C740 C 0.61769 -0.01395 0.38951
 C741 C 0.66321 -0.00387 0.44806
 C742 C 0.68595 0.00926 0.45567
 H743 H 0.59397 0.03771 0.35317
 H744 H 0.63245 0.05044 0.38126
 H745 H 0.65921 0.04236 0.42060
 H746 H 0.63246 -0.03776 0.42082
 H747 H 0.60552 -0.02960 0.38169
 H748 H 0.65668 -0.01963 0.45997
 H749 H 0.60239 -0.02223 0.33694
 H750 H 0.69471 0.02241 0.44213
 C751 C 0.82277 0.51481 0.07839
 C752 C 0.83223 0.49491 0.09488
 C753 C 0.85722 0.49690 0.11012
 C754 C 0.86167 0.48069 0.13165
 C755 C 0.88557 0.48117 0.14566
 C756 C 0.90558 0.49797 0.13832
 C757 C 0.90114 0.51398 0.11665
 C758 C 0.87739 0.51338 0.10261
 C759 C 0.93156 0.49919 0.15191
 C760 C 0.93835 0.48623 0.17497
 H761 H 0.82163 0.47698 0.09668
 H762 H 0.84665 0.46746 0.13755
 H763 H 0.88818 0.46810 0.16187
 H764 H 0.91631 0.52682 0.11027
 H765 H 0.87540 0.52535 0.08547
 H766 H 0.94581 0.51192 0.14365
 H767 H 0.83265 0.53344 0.07929
 H768 H 0.92370 0.47546 0.18515
 C769 C 0.40338 0.00205 0.67785
 C770 C 0.39606 -0.01757 0.65892
 C771 C 0.37827 -0.01154 0.63648
 C772 C 0.36385 -0.03195 0.62438
 C773 C 0.34866 -0.02737 0.60174
 C774 C 0.34794 -0.00230 0.59060
 C775 C 0.36227 0.01811 0.60278
 C776 C 0.37720 0.01362 0.62553
 C777 C 0.33457 0.00261 0.56513
 C778 C 0.31370 -0.01199 0.55507
 H779 H 0.40316 -0.03809 0.66037
 H780 H 0.36470 -0.05162 0.63220
 H781 H 0.33845 -0.04377 0.59245
 H782 H 0.36235 0.03747 0.59435
 H783 H 0.38872 0.02958 0.63378
 H784 H 0.34133 0.01880 0.55390
 H785 H 0.39256 0.02126 0.67805
 H786 H 0.30417 -0.02568 0.56748
   
