data_POSCAR
  _audit_creation_date              2014-09-24
  _audit_creation_method            'ToBaCCo'
  _symmetry_space_group_name_H-M    'P1'
  _symmetry_Int_Tables_number       1
  _symmetry_cell_setting            triclinic
  loop_
  _symmetry_equiv_pos_as_xyz
 x,y,z
_cell_length_a 32.1297
_cell_length_b 32.3939
_cell_length_c 32.2164
_cell_angle_alpha 89.753600
_cell_angle_beta 89.838400
_cell_angle_gamma 89.681000
loop_
  _atom_site_label
  _atom_site_type_symbol
  _atom_site_fract_x
  _atom_site_fract_y
  _atom_site_fract_z
C1 C 0.14782 0.18716 0.21359
 C2 C 0.15277 0.22206 0.18802
 C3 C 0.18663 0.22442 0.16145
 C4 C 0.21521 0.19183 0.15926
 C5 C 0.20996 0.15719 0.18359
 C6 C 0.17623 0.15503 0.21129
 C7 C 0.11821 0.17611 0.24257
 N8 N 0.12760 0.13778 0.25768
 C9 C 0.16355 0.12520 0.23886
 C10 C 0.24038 0.12932 0.17212
 N11 N 0.26368 0.14601 0.14081
 C12 C 0.24896 0.18496 0.13403
 C13 C 0.18212 0.25958 0.13796
 N14 N 0.14647 0.27879 0.14968
 C15 C 0.12803 0.25609 0.18005
 H16 H 0.09137 0.19447 0.25137
 H17 H 0.18072 0.09724 0.24607
 H18 H 0.24362 0.09825 0.18424
 H19 H 0.26229 0.20755 0.11312
 H20 H 0.20202 0.26939 0.11263
 H21 H 0.09800 0.26290 0.19381
 C22 C -0.15046 0.81671 0.21468
 C23 C -0.14833 0.78919 0.18104
 C24 C -0.17768 0.79178 0.14975
 C25 C -0.20972 0.82118 0.15183
 C26 C -0.21199 0.84806 0.18485
 C27 C -0.18194 0.84598 0.21642
 C28 C -0.12656 0.82155 0.24979
 N29 N -0.14291 0.85271 0.27325
 C30 C -0.17656 0.86802 0.25241
 C31 C -0.24746 0.87165 0.17946
 N32 N -0.26746 0.85896 0.14447
 C33 C -0.24362 0.82873 0.12700
 C34 C -0.16984 0.76022 0.12243
 N35 N -0.13708 0.73775 0.13674
 C36 C -0.12315 0.75560 0.17218
 H37 H -0.09807 0.80483 0.25646
 H38 H -0.19644 0.89296 0.26300
 H39 H -0.25877 0.89503 0.20066
 H40 H -0.24970 0.81379 0.09765
 H41 H -0.18752 0.75322 0.09480
 H42 H -0.09764 0.74405 0.19087
 C43 C -0.16239 0.18711 -0.22048
 C44 C -0.16312 0.21791 -0.19001
 C45 C -0.19325 0.21717 -0.15933
 C46 C -0.22314 0.18590 -0.15899
 C47 C -0.22261 0.15556 -0.18903
 C48 C -0.19184 0.15613 -0.22007
 C49 C -0.13372 0.17741 -0.25061
 N50 N -0.14416 0.14067 -0.26804
 C51 C -0.18049 0.12812 -0.25019
 C52 C -0.25245 0.12703 -0.17806
 N53 N -0.27022 0.13883 -0.14149
 C54 C -0.25300 0.17547 -0.13047
 C55 C -0.18307 0.24682 -0.13064
 N56 N -0.14725 0.26515 -0.14299
 C57 C -0.13522 0.24825 -0.17968
 H58 H -0.10706 0.19597 -0.25906
 H59 H -0.19602 0.09925 -0.25653
 H60 H -0.25879 0.09848 -0.19415
 H61 H -0.26157 0.19361 -0.10359
 H62 H -0.19912 0.25299 -0.10170
 H63 H -0.10705 0.25603 -0.19642
 C64 C 0.16196 0.81491 -0.22015
 C65 C 0.15928 0.78461 -0.18908
 C66 C 0.18382 0.78737 -0.15390
 C67 C 0.21176 0.82031 -0.14965
 C68 C 0.21405 0.85004 -0.18035
 C69 C 0.18889 0.84748 -0.21564
 C70 C 0.14054 0.82131 -0.25650
 N71 N 0.15359 0.85728 -0.27444
 C72 C 0.18289 0.87359 -0.24883
 C73 C 0.24373 0.87787 -0.16873
 N74 N 0.25929 0.86673 -0.13098
 C75 C 0.24023 0.83086 -0.11953
 C76 C 0.17353 0.75463 -0.12858
 N77 N 0.14397 0.73184 -0.14789
 C78 C 0.13468 0.75025 -0.18463
 H79 H 0.11707 0.80090 -0.26874
 H80 H 0.19664 0.90387 -0.25193
 H81 H 0.25467 0.90318 -0.18782
 H82 H 0.24598 0.81394 -0.09106
 H83 H 0.18617 0.74808 -0.09812
 H84 H 0.11156 0.73945 -0.20637
 C85 C 0.18985 1.15961 0.77624
 C86 C 0.22068 1.16008 0.80703
 C87 C 0.21904 1.18961 0.83787
 C88 C 0.18650 1.21834 0.83886
 C89 C 0.15593 1.21791 0.80891
 C90 C 0.15790 1.18849 0.77697
 C91 C 0.18282 1.13397 0.74307
 N92 N 0.14817 1.14724 0.72261
 C93 C 0.13227 1.18002 0.74398
 C94 C 0.12723 1.24800 0.81962
 N95 N 0.13925 1.26573 0.85601
 C96 C 0.17625 1.24826 0.86700
 C97 C 0.25036 1.18110 0.86549
 N98 N 0.27087 1.14696 0.85232
 C99 C 0.25331 1.13383 0.81650
 H100 H 0.20230 1.10817 0.73389
 H101 H 0.10322 1.19568 0.73711
 H102 H 0.09872 1.25495 0.80311
 H103 H 0.19522 1.25719 0.89315
 H104 H 0.25635 1.19698 0.89436
 H105 H 0.26212 1.10605 0.80004
 C106 C 0.80324 0.83876 0.77598
 C107 C 0.77151 0.83724 0.80586
 C108 C 0.77070 0.80559 0.83487
 C109 C 0.80100 0.77423 0.83343
 C110 C 0.83234 0.77577 0.80404
 C111 C 0.83402 0.80875 0.77570
 C112 C 0.81417 0.86839 0.74727
 N113 N 0.85178 0.85804 0.73088
 C114 C 0.86381 0.82120 0.74757
 C115 C 0.85831 0.74262 0.81127
 N116 N 0.84320 0.72018 0.84386
 C117 C 0.80870 0.74036 0.85822
 C118 C 0.73981 0.81500 0.86316
 N119 N 0.72257 0.85180 0.85221
 C120 C 0.74111 0.86514 0.81674
 H121 H 0.79753 0.89690 0.74101
 H122 H 0.89259 0.80514 0.74045
 H123 H 0.88582 0.73509 0.79330
 H124 H 0.79145 0.73245 0.88602
 H125 H 0.73213 0.79773 0.89096
 H126 H 0.73457 0.89429 0.80146
 C127 C 0.18214 0.83749 1.21880
 C128 C 0.21322 0.83809 1.18821
 C129 C 0.21144 0.81104 1.15519
 C130 C 0.17848 0.78306 1.15251
 C131 C 0.14766 0.78270 1.18263
 C132 C 0.14961 0.81003 1.21607
 C133 C 0.17488 0.86164 1.25295
 N134 N 0.13929 0.84880 1.27206
 C135 C 0.12320 0.81771 1.24885
 C136 C 0.11850 0.75420 1.17085
 N137 N 0.13079 0.73760 1.13422
 C138 C 0.16777 0.75453 1.12311
 C139 C 0.24348 0.82090 1.12849
 N140 N 0.26423 0.85348 1.14451
 C141 C 0.24649 0.86371 1.18139
 H142 H 0.19325 0.88806 1.26185
 H143 H 0.09468 0.80132 1.25554
 H144 H 0.09010 0.74654 1.18726
 H145 H 0.18535 0.74682 1.09546
 H146 H 0.24989 0.80698 1.09864
 H147 H 0.25590 0.88929 1.20067
 C148 C 0.81671 1.15458 1.21701
 C149 C 0.78999 1.15171 1.18301
 C150 C 0.79330 1.17941 1.15036
 C151 C 0.82335 1.21068 1.15165
 C152 C 0.84869 1.21431 1.18604
 C153 C 0.84592 1.18555 1.21863
 C154 C 0.82211 1.13005 1.25139
 N155 N 0.85411 1.14516 1.27425
 C156 C 0.86915 1.17897 1.25395
 C157 C 0.87348 1.24815 1.17969
 N158 N 0.86573 1.26397 1.14123
 C159 C 0.83441 1.24155 1.12427
 C160 C 0.76222 1.17008 1.12263
 N161 N 0.73992 1.13807 1.13837
 C162 C 0.75717 1.12609 1.17480
 H163 H 0.80585 1.10146 1.25751
 H164 H 0.89537 1.19729 1.26385
 H165 H 0.89512 1.26064 1.20197
 H166 H 0.82095 1.24691 1.09394
 H167 H 0.75524 1.18627 1.09399
 H168 H 0.74548 1.10166 1.19463
 O169 O 0.44233 1.07843 1.07926
 O170 O 0.39591 1.04117 1.04073
 C171 C 0.40497 1.06933 1.06773
 O172 O 0.55603 1.07477 0.93016
 O173 O 0.60161 1.03697 0.97008
 C174 C 0.59330 1.06423 0.94157
 O175 O 0.43895 1.07902 0.93576
 O176 O 0.39372 1.03851 0.97207
 C177 C 0.40141 1.06794 0.94609
 O178 O 0.55799 1.07261 1.08029
 O179 O 0.60279 1.03387 1.04078
 C180 C 0.59516 1.06186 1.06846
 Zr181 Zr 0.49905 1.05205 1.05935
 O182 O 0.50019 1.11676 1.06644
 O183 O 0.49571 1.04476 1.12469
 Zr184 Zr 0.49793 1.05487 0.95403
 O185 O 0.50268 1.12004 0.95500
 O186 O 0.49279 1.05610 0.88853
 O187 O 0.46178 1.06227 1.00714
 O188 O 0.53440 1.06064 1.00637
 O189 O 0.55550 0.92601 1.07912
 O190 O 0.60166 0.96424 1.04042
 C191 C 0.59295 0.93638 1.06816
 O192 O 0.43770 0.92861 0.93263
 O193 O 0.39294 0.96866 0.97123
 C194 C 0.40058 0.94062 0.94362
 O195 O 0.55510 0.93095 0.92746
 O196 O 0.60157 0.96616 0.96776
 C197 C 0.59282 0.94071 0.93807
 O198 O 0.43848 0.92646 1.07786
 O199 O 0.39344 0.96753 1.04088
 C200 C 0.40117 0.93880 1.06795
 Zr201 Zr 0.49741 0.94826 1.05719
 O202 O 0.50016 0.88297 1.05562
 O203 O 0.49393 0.94752 1.12282
 Zr204 Zr 0.49693 0.95045 0.95224
 O205 O 0.50106 0.88519 0.95199
 O206 O 0.49179 0.95123 0.88676
 Zr207 Zr 0.43603 1.00259 1.00603
 Zr208 Zr 0.55996 1.00061 1.00493
 O209 O 0.53331 0.94138 1.00417
 O210 O 0.45988 0.94187 1.00489
 O211 O 0.53580 0.99935 1.06589
 O212 O 0.46148 1.00340 0.94579
 O213 O 0.46175 1.00085 1.06596
 O214 O 0.53461 1.00230 0.94461
 H215 H 0.55280 1.08505 1.00643
 H216 H 0.44275 1.00419 0.92146
 H217 H 0.55185 0.91689 1.00325
 H218 H 0.44277 1.00120 1.09026
 H219 H 0.51611 1.03955 0.87715
 H220 H 0.51409 0.96925 0.87591
 H221 H 0.47710 0.87450 0.96802
 H222 H 0.47607 0.87333 1.03933
 H223 H 0.51781 0.96346 1.13339
 H224 H 0.52337 1.03551 1.13461
 H225 H 0.49897 1.12870 1.03822
 H226 H 0.47865 1.13088 0.97095
 O227 O 0.06907 0.55608 -0.08557
 O228 O 0.02806 0.60229 -0.05007
 C229 C 0.05754 0.59341 -0.07632
 O230 O -0.07581 0.43436 -0.07390
 O231 O -0.03399 0.39288 -0.03361
 C232 C -0.06283 0.39831 -0.06133
 O233 O -0.08072 0.55005 -0.08323
 O234 O -0.04348 0.59954 -0.04870
 C235 C -0.07178 0.58821 -0.07492
 O236 O 0.07425 0.44123 -0.07878
 O237 O 0.03924 0.39708 -0.03528
 C238 C 0.06610 0.40468 -0.06447
 Zr239 Zr 0.04874 0.49889 -0.06079
 O240 O 0.04302 0.49215 -0.12592
 O241 O 0.11425 0.50209 -0.06608
 Zr242 Zr -0.05589 0.49459 -0.05790
 O243 O -0.05583 0.48712 -0.12317
 O244 O -0.12176 0.49464 -0.05700
 O245 O -0.00549 0.53344 -0.07000
 O246 O -0.00194 0.46032 -0.06427
 O247 O 0.07754 0.45058 0.06792
 O248 O 0.04031 0.40139 0.03382
 C249 C 0.06932 0.41243 0.05946
 O250 O -0.07556 0.56012 0.06672
 O251 O -0.04099 0.60451 0.02297
 C252 C -0.06679 0.59695 0.05308
 O253 O -0.07453 0.44365 0.07104
 O254 O -0.03224 0.39769 0.03641
 C255 C -0.06121 0.40653 0.06318
 O256 O 0.06847 0.56525 0.06338
 O257 O 0.02812 0.60657 0.02169
 C258 C 0.05605 0.60114 0.05020
 Zr259 Zr 0.05066 0.50553 0.04429
 O260 O 0.05082 0.50504 0.11003
 O261 O 0.11598 0.51312 0.04317
 Zr262 Zr -0.05415 0.50123 0.04667
 O263 O -0.05295 0.50082 0.11238
 O264 O -0.12002 0.50255 0.04751
 Zr265 Zr -0.00548 0.56155 -0.01112
 Zr266 Zr 0.00053 0.43865 -0.00265
 O267 O 0.00019 0.46807 0.05543
 O268 O -0.00335 0.54074 0.05101
 O269 O 0.05981 0.46595 -0.00595
 O270 O -0.06433 0.53337 -0.00776
 O271 O 0.05575 0.53795 -0.01065
 O272 O -0.06134 0.46071 -0.00296
 H273 H -0.00144 0.44025 -0.08739
 H274 H -0.08975 0.55079 -0.00795
 H275 H 0.00168 0.45119 0.08107
 H276 H 0.07973 0.55696 -0.01164
 H277 H -0.13078 0.47223 -0.03813
 H278 H -0.12985 0.47801 0.03233
 H279 H -0.03663 0.52498 0.12132
 H280 H 0.03414 0.52897 0.11953
 H281 H 0.12737 0.49209 0.02408
 H282 H 0.12628 0.48385 -0.04450
 H283 H 0.03131 0.51815 -0.13727
 H284 H -0.04140 0.51119 -0.13541
 O285 O 1.07132 -0.07787 0.44264
 O286 O 1.03013 -0.04180 0.39686
 C287 C 1.05904 -0.06866 0.40544
 O288 O 0.92774 -0.07098 0.56645
 O289 O 0.96820 -0.03060 0.60816
 C290 C 0.93973 -0.05826 0.60275
 O291 O 0.92699 -0.08088 0.44939
 O292 O 0.96013 -0.04107 0.40040
 C293 C 0.93521 -0.07057 0.41114
 O294 O 1.08054 -0.07024 0.55719
 O295 O 1.04189 -0.03228 0.60352
 C296 C 1.07095 -0.05878 0.59442
 Zr297 Zr 1.05240 -0.05390 0.50053
 O298 O 1.04911 -0.11882 0.50806
 O299 O 1.11781 -0.05832 0.49513
 Zr300 Zr 0.94749 -0.05376 0.50579
 O301 O 0.94473 -0.11850 0.51364
 O302 O 0.88162 -0.05137 0.50377
 O303 O 0.99840 -0.06352 0.46649
 O304 O 1.00178 -0.05990 0.53967
 O305 O 1.07684 0.07368 0.55178
 O306 O 1.04085 0.03680 0.60112
 C307 C 1.06796 0.06431 0.59002
 O308 O 0.92380 0.07060 0.44291
 O309 O 0.96034 0.03007 0.39691
 C310 C 0.93317 0.05856 0.40565
 O311 O 0.92540 0.07175 0.55968
 O312 O 0.96874 0.03719 0.60474
 C313 C 0.93891 0.06318 0.59675
 O314 O 1.06857 0.07179 0.43521
 O315 O 1.02959 0.02964 0.39364
 C316 C 1.05664 0.05868 0.39908
 Zr317 Zr 1.05184 0.05071 0.49560
 O318 O 1.05203 0.11602 0.49595
 O319 O 1.11737 0.04958 0.48818
 Zr320 Zr 0.94682 0.05044 0.50104
 O321 O 0.94761 0.11579 0.50270
 O322 O 0.88098 0.05118 0.50009
 Zr323 Zr 0.99698 -0.00422 0.43912
 Zr324 Zr 1.00277 0.00089 0.56236
 O325 O 1.00096 0.05953 0.53396
 O326 O 0.99747 0.05705 0.46095
 O327 O 1.06217 0.00001 0.53446
 O328 O 0.93797 -0.00320 0.46773
 O329 O 1.05825 -0.00305 0.46194
 O330 O 0.94085 -0.00016 0.54077
 H331 H 1.00291 -0.08313 0.55975
 H332 H 0.91281 -0.00421 0.45008
 H333 H 1.00136 0.08452 0.55152
 H334 H 1.08194 -0.00349 0.44225
 H335 H 0.87179 -0.03772 0.52943
 H336 H 0.87131 0.03283 0.52271
 H337 H 0.96103 0.12558 0.47682
 H338 H 1.03203 0.12557 0.47466
 H339 H 1.12951 0.03723 0.51358
 H340 H 1.12929 -0.03232 0.50603
 H341 H 1.03789 -0.13059 0.48212
 H342 H 0.96821 -0.13028 0.49772
 C343 C 1.07338 0.12078 0.35713
 C344 C 1.08890 0.14022 0.32161
 C345 C 1.10704 0.11737 0.28902
 C346 C 1.10601 0.07345 0.29165
 C347 C 1.09243 0.05399 0.32879
 C348 C 1.07525 0.07783 0.36150
 C349 C 1.09691 0.01097 0.33206
 N350 N 1.10926 -0.01148 0.29881
 N351 N 1.11758 0.00636 0.26248
 C352 C 1.11591 0.04793 0.25763
 H353 H 1.05993 0.13952 0.38157
 H354 H 1.08863 0.17362 0.32080
 H355 H 1.09121 -0.00478 0.36089
 H356 H 1.12134 0.06041 0.22696
 C357 C 0.89159 -0.06947 0.34838
 C358 C 0.87148 -0.08812 0.31523
 C359 C 0.87354 -0.13112 0.30902
 C360 C 0.89434 -0.15572 0.33960
 C361 C 0.91585 -0.13635 0.37280
 C362 C 0.91415 -0.09288 0.37720
 C363 C 0.93862 -0.16132 0.40051
 N364 N 0.93695 -0.20297 0.39741
 N365 N 0.91399 -0.22125 0.36859
 C366 C 0.89230 -0.19915 0.34000
 H367 H 0.88981 -0.03617 0.35137
 H368 H 0.85604 -0.06820 0.29297
 H369 H 0.95766 -0.14822 0.42461
 H370 H 0.87269 -0.21590 0.31887
 C371 C 0.87561 0.08211 0.63630
 C372 C 0.85526 0.09949 0.67034
 C373 C 0.87747 0.12011 0.70157
 C374 C 0.92182 0.12023 0.69928
 C375 C 0.94219 0.10422 0.66362
 C376 C 0.91890 0.08432 0.63231
 C377 C 0.98554 0.10876 0.66047
 N378 N 1.00750 0.12403 0.69273
 N379 N 0.98890 0.13506 0.72794
 C380 C 0.94700 0.13319 0.73253
 H381 H 0.85733 0.06665 0.61288
 H382 H 0.82161 0.09838 0.67120
 H383 H 1.00201 0.10061 0.63257
 H384 H 0.93414 0.14066 0.76257
 C385 C 1.07398 -0.11020 0.65025
 C386 C 1.09436 -0.13185 0.68150
 C387 C 1.13635 -0.12405 0.69118
 C388 C 1.15849 -0.09535 0.66554
 C389 C 1.13661 -0.07146 0.63547
 C390 C 1.09393 -0.07877 0.62842
 C391 C 1.15855 -0.04178 0.61229
 N392 N 1.20031 -0.03845 0.61669
 N393 N 1.22147 -0.06309 0.64229
 C394 C 1.20218 -0.09175 0.66626
 H395 H 1.04222 -0.11831 0.64288
 H396 H 1.07613 -0.15372 0.69918
 H397 H 1.14297 -0.02164 0.59033
 H398 H 1.22152 -0.11244 0.68421
 C399 C 0.35722 1.08146 1.12630
 C400 C 0.32139 1.09873 1.14348
 C401 C 0.29680 1.12734 1.12116
 C402 C 0.30881 1.13704 1.07940
 C403 C 0.34707 1.12171 1.06347
 C404 C 0.37019 1.09240 1.08642
 C405 C 0.36077 1.13576 1.02445
 N406 N 0.33561 1.16002 1.00097
 N407 N 0.29754 1.17038 1.01369
 C408 C 0.28296 1.15894 1.05156
 H409 H 0.37477 1.05894 1.14416
 H410 H 0.31376 1.09042 1.17514
 H411 H 0.39097 1.12715 1.01223
 H412 H 0.25090 1.16603 1.05871
 C413 C 0.35612 0.88023 0.92844
 C414 C 0.32022 0.86243 0.91214
 C415 C 0.29096 0.88616 0.88966
 C416 C 0.29739 0.92960 0.88657
 C417 C 0.33517 0.94693 0.90072
 C418 C 0.36422 0.92224 0.92273
 C419 C 0.34272 0.98879 0.89219
 N420 N 0.31262 1.01259 0.87480
 N421 N 0.27531 0.99744 0.86595
 C422 C 0.26643 0.95701 0.87196
 H423 H 0.37780 0.86102 0.94566
 H424 H 0.31647 0.82942 0.91557
 H425 H 0.37232 1.00266 0.89889
 H426 H 0.23500 0.94703 0.86605
 C427 C 0.65454 0.93682 1.11380
 C428 C 0.68811 0.91779 1.13356
 C429 C 0.69631 0.87533 1.12867
 C430 C 0.66706 0.85135 1.10585
 C431 C 0.63395 0.87127 1.08431
 C432 C 0.62795 0.91440 1.08827
 C433 C 0.60743 0.84709 1.05979
 N434 N 0.61162 0.80546 1.05970
 N435 N 0.64031 0.78644 1.08264
 C436 C 0.66767 0.80782 1.10609
 H437 H 0.64917 0.96941 1.11862
 H438 H 0.70893 0.93708 1.15121
 H439 H 0.58317 0.86075 1.04103
 H440 H 0.68850 0.79036 1.12575
 C441 C 0.63317 1.08158 0.87806
 C442 C 0.66785 1.09783 0.85774
 C443 C 0.69937 1.11814 0.87989
 C444 C 0.69687 1.11875 0.92405
 C445 C 0.66049 1.10440 0.94424
 C446 C 0.62887 1.08486 0.92115
 C447 C 0.65688 1.11028 0.98721
 N448 N 0.68951 1.12485 1.00918
 N449 N 0.72549 1.13394 0.99089
 C450 C 0.73047 1.13089 0.94922
 H451 H 0.60953 1.06615 0.86000
 H452 H 0.66894 1.09623 0.82421
 H453 H 0.62824 1.10386 1.00328
 H454 H 0.76094 1.13700 0.93646
 C455 C 0.07509 0.33939 0.08216
 C456 C 0.09238 0.30737 0.10531
 C457 C 0.12843 0.31341 0.12836
 C458 C 0.14850 0.35202 0.12688
 C459 C 0.13181 0.38462 0.10222
 C460 C 0.09304 0.37891 0.08132
 C461 C 0.15570 0.42085 0.09857
 N462 N 0.19140 0.42499 0.12048
 N463 N 0.20542 0.39525 0.14546
 C464 C 0.18521 0.35887 0.14936
 H465 H 0.04670 0.33309 0.06535
 H466 H 0.07758 0.27741 0.10520
 H467 H 0.14777 0.44540 0.07758
 H468 H 0.19808 0.33563 0.16989
 C469 C -0.12548 0.36421 -0.08903
 C470 C -0.14625 0.33214 -0.10861
 C471 C -0.12515 0.29609 -0.12008
 C472 C -0.08247 0.29161 -0.11007
 C473 C -0.06071 0.32489 -0.09161
 C474 C -0.08270 0.36159 -0.08047
 C475 C -0.01749 0.32033 -0.08624
 N476 N 0.00169 0.28413 -0.09552
 N477 N -0.01934 0.25211 -0.11018
 C478 C -0.06075 0.25456 -0.11764
 H479 H -0.14307 0.39165 -0.08085
 H480 H -0.17900 0.33574 -0.11571
 H481 H 0.00153 0.34508 -0.07555
 H482 H -0.07624 0.22736 -0.12897
 C483 C 0.05943 0.66210 -0.11083
 C484 C 0.08024 0.69540 -0.12871
 C485 C 0.12376 0.69584 -0.13123
 C486 C 0.14671 0.66177 -0.11569
 C487 C 0.12566 0.62868 -0.09586
 C488 C 0.08136 0.62808 -0.09497
 C489 C 0.15004 0.59818 -0.07620
 N490 N 0.19209 0.59877 -0.07978
 N491 N 0.21153 0.62810 -0.10126
 C492 C 0.19028 0.65956 -0.11941
 H493 H 0.02594 0.66313 -0.10905
 H494 H 0.06231 0.72147 -0.14007
 H495 H 0.13640 0.57455 -0.05711
 H496 H 0.20771 0.68228 -0.13674
 C497 C -0.06161 0.66587 0.08560
 C498 C -0.07822 0.69949 0.10710
 C499 C -0.12052 0.70099 0.11761
 C500 C -0.14643 0.66739 0.10685
 C501 C -0.12992 0.63391 0.08361
 C502 C -0.08684 0.63272 0.07379
 C503 C -0.15756 0.60319 0.07022
 N504 N -0.19807 0.60443 0.08206
 N505 N -0.21288 0.63443 0.10613
 C506 C -0.18846 0.66582 0.11905
 H507 H -0.02863 0.66558 0.07845
 H508 H -0.05808 0.72492 0.11510
 H509 H -0.14767 0.57861 0.04992
 H510 H -0.20211 0.68889 0.13909
 C511 C 1.11088 0.06527 0.65357
 C512 C 1.13173 0.08556 0.68534
 C513 C 1.13103 0.12892 0.68840
 C514 C 1.11106 0.15207 0.65632
 C515 C 1.08892 0.13127 0.62461
 C516 C 1.08927 0.08750 0.62314
 C517 C 1.06663 0.15522 0.59556
 N518 N 1.06956 0.19691 0.59594
 N519 N 1.09332 0.21627 0.62334
 C520 C 1.11450 0.19534 0.65312
 H521 H 1.11149 0.03183 0.65283
 H522 H 1.14675 0.06691 0.70896
 H523 H 1.04669 0.14137 0.57272
 H524 H 1.13469 0.21280 0.67308
 C525 C 0.87568 -0.08435 0.63594
 C526 C 0.85356 -0.10413 0.66736
 C527 C 0.87370 -0.11871 0.70306
 C528 C 0.91626 -0.10875 0.70914
 C529 C 0.93871 -0.08729 0.67762
 C530 C 0.91843 -0.07648 0.63970
 C531 C 0.98059 -0.07761 0.68563
 N532 N 0.99814 -0.08760 0.72255
 N533 N 0.97672 -0.10644 0.75238
 C534 C 0.93641 -0.11704 0.74710
 H535 H 0.85911 -0.07543 0.60802
 H536 H 0.82085 -0.11045 0.66259
 H537 H 0.99988 -0.06198 0.66354
 H538 H 0.92033 -0.13063 0.77320
 C539 C 1.05775 -0.10897 0.34041
 C540 C 1.07738 -0.13082 0.30867
 C541 C 1.12113 -0.13375 0.30636
 C542 C 1.14505 -0.11610 0.33887
 C543 C 1.12517 -0.09165 0.36949
 C544 C 1.08107 -0.08920 0.37090
 C545 C 1.15039 -0.07012 0.39768
 N546 N 1.19202 -0.07693 0.39843
 N547 N 1.21010 -0.10371 0.37281
 C548 C 1.18802 -0.12389 0.34350
 H549 H 1.02404 -0.10750 0.34119
 H550 H 1.05802 -0.14394 0.28473
 H551 H 1.13761 -0.04765 0.41879
 H552 H 1.20422 -0.14654 0.32493
 C553 C 0.93468 0.10151 0.34243
 C554 C 0.91529 0.12494 0.31165
 C555 C 0.87162 0.12621 0.30811
 C556 C 0.84729 0.10514 0.33853
 C557 C 0.86719 0.08046 0.36916
 C558 C 0.91118 0.07912 0.37121
 C559 C 0.84220 0.05799 0.39710
 N560 N 0.80028 0.06258 0.39641
 N561 N 0.78172 0.08822 0.36982
 C562 C 0.80374 0.10995 0.34127
 H563 H 0.96838 0.10123 0.34410
 H564 H 0.93483 0.14056 0.28919
 H565 H 0.85554 0.03684 0.41947
 H566 H 0.78695 0.13161 0.32192
 C567 C 0.08226 0.36299 -0.12661
 C568 C 0.09791 0.32768 -0.14595
 C569 C 0.11915 0.29695 -0.12320
 C570 C 0.12153 0.30127 -0.07918
 C571 C 0.10802 0.33841 -0.06021
 C572 C 0.08726 0.36896 -0.08392
 C573 C 0.11592 0.34384 -0.01779
 N574 N 0.13165 0.31228 0.00513
 N575 N 0.13975 0.27565 -0.01165
 C576 C 0.13462 0.26887 -0.05281
 H577 H 0.06582 0.38578 -0.14515
 H578 H 0.09496 0.32545 -0.17932
 H579 H 0.11014 0.37305 -0.00296
 H580 H 0.13991 0.23798 -0.06418
 C581 C -0.12133 0.36190 0.07998
 C582 C -0.13865 0.32670 0.09808
 C583 C -0.11442 0.29939 0.12217
 C584 C -0.07161 0.30863 0.12826
 C585 C -0.05527 0.34635 0.11294
 C586 C -0.07961 0.37182 0.08666
 C587 C -0.01498 0.35769 0.12501
 N588 N 0.00848 0.33136 0.14803
 N589 N -0.00511 0.29400 0.15842
 C590 C -0.04392 0.28136 0.14839
 H591 H -0.14055 0.38133 0.06028
 H592 H -0.17137 0.32074 0.09314
 H593 H -0.00203 0.38725 0.11658
 H594 H -0.05219 0.24997 0.15578
 C595 C -0.07397 0.65048 -0.11909
 C596 C -0.09456 0.68224 -0.13989
 C597 C -0.13827 0.68580 -0.13893
 C598 C -0.16129 0.65397 -0.11847
 C599 C -0.13993 0.62282 -0.09551
 C600 C -0.09586 0.62100 -0.09628
 C601 C -0.16363 0.59433 -0.07251
 N602 N -0.20566 0.59442 -0.07568
 N603 N -0.22550 0.62098 -0.10036
 C604 C -0.20481 0.65028 -0.12224
 H605 H -0.04048 0.64890 -0.12079
 H606 H -0.07566 0.70530 -0.15520
 H607 H -0.14927 0.57196 -0.05211
 H608 H -0.22260 0.66932 -0.14332
 C609 C 0.08050 0.63678 0.11294
 C610 C 0.09779 0.67005 0.13370
 C611 C 0.10939 0.70576 0.11214
 C612 C 0.10214 0.70854 0.06892
 C613 C 0.08634 0.67397 0.04738
 C614 C 0.07467 0.63793 0.06983
 C615 C 0.08410 0.67650 0.00391
 N616 N 0.09361 0.71215 -0.01605
 N617 N 0.10556 0.74553 0.00458
 C618 C 0.11000 0.74499 0.04639
 H619 H 0.07174 0.60974 0.13078
 H620 H 0.10306 0.66764 0.16681
 H621 H 0.07584 0.65036 -0.01441
 H622 H 0.11922 0.77317 0.06154
 C623 C 0.37460 1.11072 0.88804
 C624 C 0.34337 1.12871 0.86418
 C625 C 0.30184 1.12541 0.87595
 C626 C 0.29115 1.10351 0.91234
 C627 C 0.32275 1.08557 0.93760
 C628 C 0.36552 1.08877 0.92481
 C629 C 0.30960 1.06584 0.97462
 N630 N 0.26857 1.06305 0.98407
 N631 N 0.23932 1.07869 0.95942
 C632 C 0.24922 1.09884 0.92393
 H633 H 0.40631 1.11370 0.87702
 H634 H 0.35161 1.14574 0.83637
 H635 H 0.33063 1.05375 0.99736
 H636 H 0.22414 1.11083 0.90500
 C637 C 0.36746 0.87606 1.09653
 C638 C 0.33400 0.85496 1.11411
 C639 C 0.29708 0.87573 1.12419
 C640 C 0.29344 0.91846 1.11574
 C641 C 0.32805 0.94042 1.09977
 C642 C 0.36518 0.91871 1.08883
 C643 C 0.32433 0.98358 1.09641
 N644 N 0.28759 1.00262 1.10474
 N645 N 0.25427 0.98147 1.11676
 C646 C 0.25591 0.94005 1.12249
 H647 H 0.39529 0.85877 1.08853
 H648 H 0.33695 0.82219 1.12032
 H649 H 0.35035 1.00257 1.08846
 H650 H 0.22776 0.92447 1.13189
 C651 C 0.66780 1.06056 1.09387
 C652 C 0.70287 1.07875 1.11100
 C653 C 0.70295 1.12068 1.12095
 C654 C 0.66692 1.14485 1.11361
 C655 C 0.63162 1.12676 1.09475
 C656 C 0.63144 1.08359 1.08649
 C657 C 0.59869 1.15316 1.08313
 N658 N 0.59948 1.19368 1.09345
 N659 N 0.63125 1.20982 1.11410
 C660 C 0.66498 1.18680 1.12456
 H661 H 0.66929 1.02821 1.08595
 H662 H 0.73045 1.06010 1.11626
 H663 H 0.57304 1.14260 1.06478
 H664 H 0.68979 1.20156 1.14137
 C665 C 0.62224 0.87836 0.90434
 C666 C 0.65379 0.85620 0.88452
 C667 C 0.69213 0.87451 0.87580
 C668 C 0.69927 0.91567 0.88836
 C669 C 0.66660 0.93898 0.90678
 C670 C 0.62775 0.91980 0.91577
 C671 C 0.67396 0.98099 0.91438
 N672 N 0.71207 0.99740 0.90742
 N673 N 0.74347 0.97467 0.89298
 C674 C 0.73842 0.93435 0.88335
 H675 H 0.59319 0.86280 0.91095
 H676 H 0.64812 0.82463 0.87527
 H677 H 0.64977 1.00122 0.92472
 H678 H 0.76519 0.91730 0.87228
   
