data_POSCAR
  _audit_creation_date              2014-09-24
  _audit_creation_method            'ToBaCCo'
  _symmetry_space_group_name_H-M    'P1'
  _symmetry_Int_Tables_number       1
  _symmetry_cell_setting            triclinic
  loop_
  _symmetry_equiv_pos_as_xyz
 x,y,z
_cell_length_a 35.8849
_cell_length_b 36.1669
_cell_length_c 14.8541
_cell_angle_alpha 90.013500
_cell_angle_beta 90.390800
_cell_angle_gamma 119.542700
loop_
  _atom_site_label
  _atom_site_type_symbol
  _atom_site_fract_x
  _atom_site_fract_y
  _atom_site_fract_z
C1 C 0.11736 0.42268 0.50870
 C2 C 0.13573 0.42315 0.42496
 C3 C 0.17606 0.42550 0.42575
 C4 C 0.19961 0.43206 0.50707
 C5 C 0.18158 0.43577 0.58827
 C6 C 0.14046 0.43139 0.59019
 C7 C 0.24466 0.43942 0.50625
 C8 C 0.26383 0.43237 0.58394
 C9 C 0.30620 0.43986 0.58159
 C10 C 0.32778 0.45165 0.49940
 C11 C 0.31148 0.46252 0.42444
 C12 C 0.26985 0.45614 0.42826
 H13 H 0.08658 0.42144 0.51015
 H14 H 0.18976 0.42412 0.36242
 H15 H 0.20065 0.44422 0.64865
 H16 H 0.24654 0.42183 0.64631
 H17 H 0.35948 0.45538 0.49568
 H18 H 0.25748 0.46455 0.37022
 C19 C 0.55149 -0.32366 0.49335
 C20 C 0.55874 -0.30257 0.41016
 C21 C 0.56185 -0.26218 0.40965
 C22 C 0.55446 -0.24461 0.48899
 C23 C 0.54355 -0.26906 0.56869
 C24 C 0.54180 -0.30868 0.57208
 C25 C 0.55590 -0.20203 0.48824
 C26 C 0.55694 -0.18043 0.56960
 C27 C 0.55493 -0.14256 0.56816
 C28 C 0.55847 -0.12316 0.48494
 C29 C 0.55578 -0.14392 0.40332
 C30 C 0.55325 -0.18378 0.40577
 H31 H 0.55018 -0.35423 0.49540
 H32 H 0.56922 -0.24519 0.34704
 H33 H 0.53607 -0.25754 0.62836
 H34 H 0.55927 -0.19241 0.63437
 H35 H 0.55824 -0.09334 0.48380
 H36 H 0.54685 -0.20115 0.34349
 C37 C 1.30625 0.88693 0.49570
 C38 C 1.29346 0.86205 0.41691
 C39 C 1.25801 0.82055 0.42284
 C40 C 1.23570 0.80461 0.50523
 C41 C 1.25109 0.83062 0.58267
 C42 C 1.28805 0.87046 0.57992
 C43 C 1.19974 0.75937 0.51260
 C44 C 1.18940 0.73722 0.59647
 C45 C 1.15902 0.69373 0.60038
 C46 C 1.14243 0.67224 0.51885
 C47 C 1.14809 0.69333 0.43717
 C48 C 1.17650 0.73717 0.43448
 H49 H 1.33495 0.91766 0.49265
 H50 H 1.24901 0.79995 0.36505
 H51 H 1.23640 0.81921 0.64713
 H52 H 1.20579 0.75266 0.65782
 H53 H 1.12250 0.63792 0.52005
 H54 H 1.18141 0.75347 0.37117
 C55 C 0.89168 0.57610 0.49127
 C56 C 0.87125 0.57553 0.40963
 C57 C 0.83197 0.57526 0.41275
 C58 C 0.81103 0.57144 0.49578
 C59 C 0.83071 0.56690 0.57516
 C60 C 0.87083 0.56900 0.57399
 C61 C 0.76670 0.56683 0.49999
 C62 C 0.74858 0.56739 0.58473
 C63 C 0.70480 0.55367 0.59219
 C64 C 0.68036 0.54406 0.51353
 C65 C 0.69783 0.54973 0.42830
 C66 C 0.74069 0.55907 0.42133
 H67 H 0.92180 0.57598 0.48948
 H68 H 0.81723 0.57571 0.34992
 H69 H 0.81402 0.55953 0.63760
 H70 H 0.76782 0.57781 0.64499
 H71 H 0.64617 0.53166 0.51966
 H72 H 0.75226 0.55840 0.35506
 C73 C 0.43013 0.31783 0.49457
 C74 C 0.42661 0.29700 0.41308
 C75 C 0.42540 0.25780 0.41519
 C76 C 0.43549 0.24307 0.49498
 C77 C 0.44718 0.26948 0.57262
 C78 C 0.44550 0.30773 0.57255
 C79 C 0.43619 0.20171 0.49463
 C80 C 0.43532 0.18054 0.57585
 C81 C 0.43698 0.14241 0.57439
 C82 C 0.43266 0.12260 0.49068
 C83 C 0.43595 0.14347 0.40918
 C84 C 0.43941 0.18369 0.41220
 H85 H 0.42796 0.34670 0.49315
 H86 H 0.41726 0.23950 0.35406
 H87 H 0.45794 0.26057 0.63222
 H88 H 0.43316 0.19333 0.63980
 H89 H 0.43200 0.09234 0.48921
 H90 H 0.44653 0.20137 0.35038
 C91 C 0.68249 0.11718 0.50552
 C92 C 0.69637 0.13944 0.42470
 C93 C 0.73380 0.17935 0.42600
 C94 C 0.75711 0.19715 0.50724
 C95 C 0.73965 0.17444 0.58843
 C96 C 0.70145 0.13542 0.58848
 C97 C 0.79826 0.23964 0.50800
 C98 C 0.81683 0.26122 0.59037
 C99 C 0.85692 0.29848 0.59281
 C100 C 0.87710 0.31553 0.51049
 C101 C 0.85681 0.29941 0.42770
 C102 C 0.81894 0.26000 0.42660
 H103 H 0.65293 0.08711 0.50433
 H104 H 0.74376 0.19643 0.36392
 H105 H 0.75427 0.18693 0.65278
 H106 H 0.79977 0.25062 0.65259
 H107 H 0.90733 0.34503 0.51047
 H108 H 0.80646 0.24592 0.36189
 O109 O 0.98815 0.53732 -0.14981
 O110 O 1.02358 0.55321 0.15996
 O111 O 0.93208 0.51136 0.05520
 O112 O 1.08231 0.57687 -0.04409
 O113 O 0.95113 0.49466 0.17453
 O114 O 1.05799 0.54147 -0.16327
 O115 O 1.08370 0.56292 0.11107
 O116 O 0.92645 0.49284 -0.09850
 C117 C 0.94921 0.52494 -0.14569
 C118 C 1.06312 0.57575 0.15741
 C119 C 0.93440 0.51356 0.13800
 C120 C 1.08002 0.57648 -0.12703
 O121 O 1.02264 0.45864 -0.14667
 O122 O 0.97863 0.43915 0.15625
 O123 O 0.92754 0.41825 -0.05362
 O124 O 1.07383 0.48294 0.07031
 O125 O 1.05055 0.49794 0.18544
 O126 O 0.95327 0.45415 -0.17063
 O127 O 1.08293 0.50193 -0.08452
 O128 O 0.91990 0.43031 0.09927
 Co129 Co 1.00519 0.49782 -0.14058
 Co130 Co 1.00117 0.49628 0.15185
 Co131 Co 0.93377 0.46644 0.00127
 Co132 Co 1.07331 0.52786 0.01268
 O133 O 1.00334 0.49714 0.00614
 C134 C 1.06135 0.47073 -0.13564
 C135 C 0.93929 0.41642 0.14713
 C136 C 0.93143 0.41892 -0.13609
 C137 C 1.06946 0.48045 0.15284
 O138 O 0.51298 0.47017 -0.18267
 O139 O 0.43244 0.48258 0.10472
 O140 O 0.50900 0.42530 0.09124
 O141 O 0.42430 0.48746 -0.05726
 O142 O 0.45446 0.43183 0.11319
 O143 O 0.46577 0.50104 -0.17355
 O144 O 0.43057 0.53906 0.06648
 O145 O 0.50222 0.42260 -0.07894
 C146 C 0.50068 0.43189 -0.15971
 C147 C 0.41864 0.50775 0.12282
 C148 C 0.47266 0.41106 0.12424
 C149 C 0.42842 0.48413 -0.14033
 O150 O 0.53433 0.57501 -0.10714
 O151 O 0.53378 0.49153 0.18137
 O152 O 0.57779 0.48781 -0.08801
 O153 O 0.51273 0.57989 0.05415
 O154 O 0.50882 0.54361 0.17098
 O155 O 0.57861 0.54552 -0.11379
 O156 O 0.47280 0.56564 -0.09360
 O157 O 0.57967 0.49747 0.07792
 Co158 Co 0.52169 0.52152 -0.13439
 Co159 Co 0.48436 0.48847 0.13146
 Co160 Co 0.53858 0.46254 0.00046
 Co161 Co 0.46972 0.53162 0.00193
 O162 O 0.50617 0.50139 -0.00353
 C163 C 0.50821 0.58625 -0.12990
 C164 C 0.57167 0.50144 0.15778
 C165 C 0.59604 0.52378 -0.12181
 C166 C 0.52022 0.57912 0.13573
 O167 O 0.54163 0.04992 -0.17652
 O168 O 0.48880 -0.05225 0.16566
 O169 O 0.56498 0.07840 0.09571
 O170 O 0.48232 -0.08131 -0.10650
 O171 O 0.55141 0.01839 0.15103
 O172 O 0.53116 -0.02173 -0.15711
 O173 O 0.50047 -0.07633 0.04703
 O174 O 0.57800 0.07171 -0.05793
 C175 C 0.57733 0.06832 -0.14057
 C176 C 0.50383 -0.07267 0.12958
 C177 C 0.57625 0.05728 0.14441
 C178 C 0.51578 -0.06092 -0.15193
 O179 O 0.44841 -0.04989 -0.17945
 O180 O 0.49917 0.04951 0.16848
 O181 O 0.50697 0.08071 -0.10306
 O182 O 0.42302 -0.08060 0.09088
 O183 O 0.43674 -0.02084 0.14807
 O184 O 0.45881 0.02149 -0.15801
 O185 O 0.41125 -0.07157 -0.06336
 O186 O 0.48806 0.07485 0.05054
 Co187 Co 0.49495 -0.00011 -0.15110
 Co188 Co 0.49408 -0.00125 0.14150
 Co189 Co 0.53068 0.06895 -0.00404
 Co190 Co 0.45804 -0.07002 -0.00794
 O191 O 0.49447 -0.00061 -0.00520
 C192 C 0.41252 -0.06715 -0.14578
 C193 C 0.48470 0.07069 0.13303
 C194 C 0.47385 0.06052 -0.15041
 C195 C 0.41188 -0.05972 0.14063
 C196 C 1.11939 0.43456 0.34614
 C197 C 1.13382 0.48222 0.35174
 C198 C 1.11828 0.49650 0.28546
 C199 C 1.08915 0.46243 0.21749
 C200 C 1.11654 0.44349 0.18250
 C201 C 1.13246 0.42880 0.24986
 C202 C 1.07009 0.41192 0.34032
 C203 C 1.05471 0.42709 0.27501
 H204 H 1.15526 0.50341 0.40354
 H205 H 1.12643 0.52948 0.28162
 H206 H 1.12190 0.44073 0.11161
 H207 H 1.15060 0.41289 0.23487
 H208 H 1.04881 0.38561 0.38290
 H209 H 1.02088 0.41526 0.26573
 C210 C 0.55335 0.67249 0.32926
 C211 C 0.50593 0.63888 0.32068
 C212 C 0.49684 0.61127 0.25228
 C213 C 0.53548 0.61730 0.19809
 C214 C 0.55484 0.66351 0.16452
 C215 C 0.56440 0.69278 0.23354
 C216 C 0.57810 0.64783 0.33377
 C217 C 0.56881 0.61946 0.26597
 H218 H 0.48061 0.64042 0.35734
 H219 H 0.46419 0.59234 0.22818
 H220 H 0.56136 0.67253 0.09431
 H221 H 0.57953 0.72659 0.22055
 H222 H 0.60452 0.65572 0.38021
 H223 H 0.58869 0.60533 0.25315
 C224 C 0.32103 -0.12077 0.33847
 C225 C 0.31211 -0.14804 0.25199
 C226 C 0.34139 -0.12799 0.18491
 C227 C 0.37676 -0.08256 0.20931
 C228 C 0.35202 -0.05981 0.23644
 C229 C 0.32329 -0.07946 0.30378
 C230 C 0.36764 -0.10816 0.36299
 C231 C 0.39629 -0.08794 0.29696
 H232 H 0.28541 -0.17978 0.24202
 H233 H 0.33907 -0.14281 0.12002
 H234 H 0.35401 -0.03280 0.20060
 H235 H 0.30194 -0.06814 0.32634
 H236 H 0.37732 -0.11542 0.42707
 H237 H 0.42999 -0.07781 0.30589
 C238 C 0.88620 0.56225 0.32575
 C239 C 0.93500 0.58736 0.31373
 C240 C 0.94971 0.57207 0.24780
 C241 C 0.91481 0.53281 0.19862
 C242 C 0.88932 0.50058 0.27224
 C243 C 0.87493 0.51581 0.33791
 C244 C 0.86847 0.56291 0.23022
 C245 C 0.88366 0.54737 0.16327
 H246 H 0.95577 0.61705 0.34840
 H247 H 0.98250 0.58969 0.22495
 H248 H 0.88023 0.46721 0.26923
 H249 H 0.85458 0.49549 0.39128
 H250 H 0.84736 0.57562 0.21543
 H251 H 0.87506 0.54644 0.09280
 C252 C 0.43574 0.32338 0.32790
 C253 C 0.40434 0.34016 0.31175
 C254 C 0.41549 0.36829 0.24267
 C255 C 0.45722 0.37730 0.19534
 C256 C 0.49060 0.39143 0.27084
 C257 C 0.48003 0.36331 0.33832
 C258 C 0.43826 0.30484 0.23556
 C259 C 0.44968 0.33332 0.16624
 H260 H 0.37529 0.33000 0.35019
 H261 H 0.39581 0.38203 0.22258
 H262 H 0.52028 0.42136 0.27167
 H263 H 0.50184 0.36885 0.39418
 H264 H 0.43134 0.27249 0.22403
 H265 H 0.45245 0.32513 0.09726
 C266 C 0.66708 0.12008 0.34238
 C267 C 0.66534 0.07873 0.31005
 C268 C 0.63661 0.05821 0.24223
 C269 C 0.61135 0.08026 0.21330
 C270 C 0.59177 0.08599 0.29984
 C271 C 0.62052 0.10722 0.36586
 C272 C 0.67545 0.14657 0.25556
 C273 C 0.64619 0.12566 0.18824
 H274 H 0.68720 0.06820 0.33413
 H275 H 0.63524 0.03133 0.20701
 H276 H 0.55794 0.07513 0.30818
 H277 H 0.61092 0.11500 0.42910
 H278 H 0.70128 0.17880 0.24661
 H279 H 0.64784 0.14004 0.12318
 C280 C 0.44593 0.12376 -0.34750
 C281 C 0.40687 0.08162 -0.31851
 C282 C 0.41507 0.06127 -0.25051
 C283 C 0.46188 0.08406 -0.21823
 C284 C 0.48866 0.09128 -0.30281
 C285 C 0.48126 0.11252 -0.36865
 C286 C 0.46222 0.14973 -0.25886
 C287 C 0.47059 0.12883 -0.19139
 H288 H 0.37471 0.07041 -0.34457
 H289 H 0.38966 0.03383 -0.21715
 H290 H 0.51301 0.08200 -0.30937
 H291 H 0.50019 0.12182 -0.42973
 H292 H 0.46816 0.18191 -0.24956
 H293 H 0.48261 0.14299 -0.12565
 C294 C 0.68188 0.54800 -0.32516
 C295 C 0.70337 0.55455 -0.23129
 C296 C 0.67560 0.54717 -0.16121
 C297 C 0.62962 0.53432 -0.19214
 C298 C 0.63511 0.57031 -0.25500
 C299 C 0.66231 0.57751 -0.32355
 C300 C 0.64383 0.50233 -0.32065
 C301 C 0.61641 0.49562 -0.25332
 H302 H 0.73658 0.56338 -0.21969
 H303 H 0.68535 0.55005 -0.09108
 H304 H 0.62094 0.59038 -0.24405
 H305 H 0.67071 0.60335 -0.37073
 H306 H 0.63957 0.47675 -0.36549
 H307 H 0.58901 0.46442 -0.24174
 C308 C 0.87390 0.32512 -0.32788
 C309 C 0.92302 0.34613 -0.32064
 C310 C 0.94062 0.37594 -0.25531
 C311 C 0.90827 0.38173 -0.19910
 C312 C 0.88170 0.39100 -0.26730
 C313 C 0.86418 0.36195 -0.33411
 C314 C 0.85886 0.30688 -0.23190
 C315 C 0.87706 0.33683 -0.16419
 H316 H 0.94244 0.33749 -0.36192
 H317 H 0.97473 0.39342 -0.24368
 H318 H 0.87534 0.41728 -0.26102
 H319 H 0.84342 0.36401 -0.38510
 H320 H 0.83771 0.27356 -0.21734
 H321 H 0.87073 0.32905 -0.09338
 C322 C 0.54509 -0.12304 -0.34953
 C323 C 0.52832 -0.14948 -0.26235
 C324 C 0.51940 -0.12909 -0.19484
 C325 C 0.52813 -0.08415 -0.22017
 C326 C 0.57517 -0.06118 -0.24975
 C327 C 0.58384 -0.08108 -0.31783
 C328 C 0.51001 -0.11162 -0.37252
 C329 C 0.50190 -0.09098 -0.30645
 H330 H 0.52290 -0.18153 -0.25416
 H331 H 0.50718 -0.14362 -0.12988
 H332 H 0.60046 -0.03436 -0.21379
 H333 H 0.61617 -0.06991 -0.34165
 H334 H 0.49155 -0.12066 -0.43482
 H335 H 0.47718 -0.08217 -0.31375
 C336 C 0.33402 0.44654 -0.33479
 C337 C 0.31435 0.42911 -0.24127
 C338 C 0.34453 0.44024 -0.17324
 C339 C 0.39114 0.46781 -0.20561
 C340 C 0.39583 0.44177 -0.28161
 C341 C 0.36582 0.42995 -0.34743
 C342 C 0.36179 0.49461 -0.31890
 C343 C 0.39087 0.50548 -0.25168
 H344 H 0.28034 0.40916 -0.22954
 H345 H 0.33606 0.43007 -0.10408
 H346 H 0.42048 0.43279 -0.28299
 H347 H 0.36413 0.40938 -0.40241
 H348 H 0.35662 0.51822 -0.35335
 H349 H 0.40910 0.53799 -0.22757
 C350 C 1.14266 0.66870 -0.31838
 C351 C 1.15375 0.63271 -0.31560
 C352 C 1.13440 0.60426 -0.24882
 C353 C 1.10526 0.61354 -0.18893
 C354 C 1.13483 0.65922 -0.15419
 C355 C 1.15465 0.68843 -0.22236
 C356 C 1.09335 0.64659 -0.31929
 C357 C 1.07429 0.61781 -0.25359
 H358 H 1.17664 0.63087 -0.36024
 H359 H 1.14122 0.57859 -0.23644
 H360 H 1.13958 0.66785 -0.08340
 H361 H 1.17602 0.72182 -0.20834
 H362 H 1.07472 0.65349 -0.36756
 H363 H 1.03984 0.59994 -0.24770
 C364 C 0.89024 0.55815 -0.34446
 C365 C 0.89944 0.52198 -0.36781
 C366 C 0.91944 0.51252 -0.30167
 C367 C 0.92808 0.53901 -0.21558
 C368 C 0.95346 0.58547 -0.24646
 C369 C 0.93388 0.59534 -0.31405
 C370 C 0.86424 0.54298 -0.25609
 C371 C 0.88410 0.53302 -0.18929
 H372 H 0.89056 0.50479 -0.43137
 H373 H 0.92806 0.48790 -0.31001
 H374 H 0.98267 0.60928 -0.21404
 H375 H 0.94714 0.62736 -0.34027
 H376 H 0.83322 0.54015 -0.24457
 H377 H 0.86997 0.52238 -0.12336
 C378 C 0.46118 0.33858 -0.35448
 C379 C 0.48922 0.33466 -0.27956
 C380 C 0.50234 0.36559 -0.21499
 C381 C 0.48638 0.39762 -0.23032
 C382 C 0.50197 0.41502 -0.32491
 C383 C 0.48965 0.38451 -0.38891
 C384 C 0.42446 0.33964 -0.30365
 C385 C 0.43762 0.37013 -0.23862
 H386 H 0.50057 0.31192 -0.27889
 H387 H 0.52359 0.36804 -0.16014
 H388 H 0.52289 0.44837 -0.34008
 H389 H 0.50095 0.39250 -0.45749
 H390 H 0.39080 0.31733 -0.31599
 H391 H 0.41527 0.37361 -0.19534
 C392 C 0.67310 0.11879 -0.32858
 C393 C 0.64029 0.13440 -0.33249
 C394 C 0.61064 0.11902 -0.26682
 C395 C 0.61534 0.08859 -0.20209
 C396 C 0.61612 0.05470 -0.26262
 C397 C 0.64653 0.07006 -0.32668
 C398 C 0.69204 0.13052 -0.23186
 C399 C 0.66150 0.11446 -0.16521
 H400 H 0.64137 0.15725 -0.38138
 H401 H 0.58691 0.12912 -0.25938
 H402 H 0.59402 0.02121 -0.25661
 H403 H 0.65155 0.04908 -0.37104
 H404 H 0.72602 0.14838 -0.21657
 H405 H 0.66950 0.11917 -0.09402
 C406 C 1.12267 0.44092 -0.33166
 C407 C 1.14883 0.45612 -0.24238
 C408 C 1.12845 0.46521 -0.17558
 C409 C 1.08400 0.45810 -0.20323
 C410 C 1.09210 0.48500 -0.28804
 C411 C 1.11265 0.47671 -0.35373
 C412 C 1.07961 0.40284 -0.30268
 C413 C 1.05967 0.41174 -0.23527
 H414 H 1.17992 0.45908 -0.22991
 H415 H 1.14228 0.47551 -0.10885
 H416 H 1.08372 0.50984 -0.29520
 H417 H 1.12194 0.49495 -0.41570
 H418 H 1.06748 0.37077 -0.32832
 H419 H 1.03164 0.38705 -0.20196
 C420 C 0.53155 0.66576 -0.34686
 C421 C 0.57178 0.66679 -0.30710
 C422 C 0.56424 0.64129 -0.23451
 C423 C 0.51692 0.61641 -0.20714
 C424 C 0.50388 0.65050 -0.19284
 C425 C 0.51125 0.67630 -0.26570
 C426 C 0.49984 0.61831 -0.36487
 C427 C 0.49307 0.59281 -0.29296
 H428 H 0.60385 0.68667 -0.33304
 H429 H 0.58992 0.63968 -0.19891
 H430 H 0.48842 0.65293 -0.13234
 H431 H 0.50042 0.69944 -0.26585
 H432 H 0.48408 0.60556 -0.42917
 H433 H 0.47356 0.55862 -0.29820
 C434 C 0.31726 -0.11282 -0.33773
 C435 C 0.34723 -0.06453 -0.33809
 C436 C 0.37763 -0.05056 -0.27299
 C437 C 0.37494 -0.08523 -0.20942
 C438 C 0.32870 -0.10720 -0.17407
 C439 C 0.29822 -0.12180 -0.24162
 C440 C 0.34694 -0.13229 -0.33805
 C441 C 0.37661 -0.11817 -0.27140
 H442 H 0.34461 -0.04271 -0.38443
 H443 H 0.40235 -0.01777 -0.26950
 H444 H 0.32066 -0.11021 -0.10317
 H445 H 0.26425 -0.13664 -0.22756
 H446 H 0.34409 -0.15623 -0.38608
 H447 H 0.39879 -0.13018 -0.26244
 C448 C 0.54443 -0.12722 0.31972
 C449 C 0.57093 -0.07862 0.31282
 C450 C 0.55755 -0.06197 0.24730
 C451 C 0.51962 -0.09482 0.19140
 C452 C 0.53451 -0.12546 0.15625
 C453 C 0.54760 -0.14269 0.22399
 C454 C 0.49761 -0.13767 0.32652
 C455 C 0.48467 -0.12122 0.25979
 H456 H 0.59902 -0.05891 0.35390
 H457 H 0.57356 -0.02830 0.23449
 H458 H 0.53546 -0.13234 0.08546
 H459 H 0.56025 -0.16381 0.21002
 H460 H 0.47569 -0.15818 0.37772
 H461 H 0.45165 -0.12824 0.25368
 C462 C 0.33856 0.47748 0.33987
 C463 C 0.33018 0.50415 0.26942
 C464 C 0.35631 0.51485 0.19563
 C465 C 0.38799 0.49777 0.19936
 C466 C 0.41214 0.51432 0.28866
 C467 C 0.38669 0.50511 0.36104
 C468 C 0.33428 0.43919 0.28668
 C469 C 0.35966 0.44966 0.21331
 H470 H 0.30732 0.51525 0.27781
 H471 H 0.35508 0.53424 0.14120
 H472 H 0.44661 0.53123 0.29585
 H473 H 0.40004 0.51745 0.42726
 H474 H 0.31212 0.40639 0.30406
 H475 H 0.35889 0.42568 0.16814
 C476 C 1.12554 0.66581 0.35540
 C477 C 1.14738 0.64013 0.32886
 C478 C 1.12714 0.61151 0.26212
 C479 C 1.08614 0.61022 0.22715
 C480 C 1.05894 0.60321 0.31148
 C481 C 1.07884 0.63260 0.37665
 C482 C 1.12176 0.68575 0.26613
 C483 C 1.10090 0.65639 0.19883
 H484 H 1.17789 0.64592 0.35661
 H485 H 1.14126 0.59406 0.23204
 H486 H 1.02660 0.57723 0.32027
 H487 H 1.06252 0.63228 0.43821
 H488 H 1.13309 0.71934 0.25670
 H489 H 1.09506 0.66512 0.13248
 C490 C 0.44645 0.12620 0.32533
 C491 C 0.49315 0.13614 0.33171
 C492 C 0.50528 0.11942 0.26437
 C493 C 0.46970 0.09317 0.19583
 C494 C 0.43208 0.06059 0.25169
 C495 C 0.41952 0.07758 0.31780
 C496 C 0.44268 0.14164 0.22987
 C497 C 0.45493 0.12411 0.16160
 H498 H 0.51562 0.15663 0.38294
 H499 H 0.53820 0.12632 0.25766
 H500 H 0.41572 0.02684 0.23853
 H501 H 0.39171 0.05810 0.35886
 H502 H 0.43025 0.16303 0.21648
 H503 H 0.45346 0.13099 0.09098
 C504 C 0.66670 0.53906 0.34958
 C505 C 0.64089 0.49075 0.33373
 C506 C 0.61003 0.47851 0.26913
 C507 C 0.60695 0.51548 0.22658
 C508 C 0.60110 0.53916 0.30529
 C509 C 0.63282 0.55292 0.36730
 C510 C 0.68413 0.55782 0.25638
 C511 C 0.65274 0.54567 0.19183
 H512 H 0.64792 0.46821 0.36736
 H513 H 0.59152 0.44577 0.24663
 H514 H 0.57366 0.54372 0.31339
 H515 H 0.63373 0.57243 0.42377
 H516 H 0.71764 0.57952 0.24254
 H517 H 0.65977 0.55686 0.12291
 C518 C 0.87597 0.32758 0.34481
 C519 C 0.84855 0.31850 0.25808
 C520 C 0.86912 0.34697 0.18996
 C521 C 0.91510 0.38160 0.21464
 C522 C 0.90996 0.40183 0.30071
 C523 C 0.88899 0.37404 0.36704
 C524 C 0.91725 0.32885 0.31276
 C525 C 0.93727 0.35650 0.24415
 H526 H 0.81578 0.29296 0.25077
 H527 H 0.85408 0.34508 0.12520
 H528 H 0.92062 0.43538 0.30828
 H529 H 0.88103 0.38428 0.42923
 H530 H 0.92791 0.30728 0.33715
 H531 H 0.96385 0.35719 0.20840
   
