data_POSCAR
  _audit_creation_date              2014-09-24
  _audit_creation_method            'ToBaCCo'
  _symmetry_space_group_name_H-M    'P1'
  _symmetry_Int_Tables_number       1
  _symmetry_cell_setting            triclinic
  loop_
  _symmetry_equiv_pos_as_xyz
 x,y,z
_cell_length_a 27.5550
_cell_length_b 27.4800
_cell_length_c 32.3556
_cell_angle_alpha 90.000300
_cell_angle_beta 89.999600
_cell_angle_gamma 89.999700
loop_
  _atom_site_label
  _atom_site_type_symbol
  _atom_site_fract_x
  _atom_site_fract_y
  _atom_site_fract_z
C1 C 1.24998 0.25002 0.25010
 C2 C 0.74999 -0.24997 0.25009
 C3 C 0.74998 0.25002 -0.24991
 C4 C 1.24998 -0.24998 -0.24990
 C5 C 0.24998 0.25003 0.75010
 C6 C 0.74998 0.75003 0.75010
 C7 C 0.74998 0.25003 0.25010
 C8 C 0.24998 0.75003 0.25010
 O9 O 1.09287 0.05563 0.02916
 O10 O 0.90812 -0.05669 0.02883
 O11 O 0.94432 0.09224 0.02853
 O12 O 1.05660 -0.09343 0.02954
 O13 O 0.91734 0.02516 0.05156
 O14 O 1.08357 -0.02623 0.05237
 O15 O 0.97497 -0.08358 0.05210
 O16 O 1.02582 0.08307 0.05162
 C17 C 1.06971 0.07721 0.05666
 C18 C 0.93101 -0.07785 0.05671
 C19 C 0.92287 0.06927 0.05624
 C20 C 1.07815 -0.07037 0.05718
 O21 O 1.09309 -0.05712 -0.02748
 O22 O 0.90822 0.05560 -0.02847
 O23 O 1.05682 0.09193 -0.02814
 O24 O 0.94458 -0.09339 -0.02792
 O25 O 0.91789 -0.02625 -0.05111
 O26 O 1.08416 0.02469 -0.05062
 O27 O 1.02619 -0.08417 -0.05052
 O28 O 0.97524 0.08253 -0.05134
 Co29 Co 1.07988 -0.00075 0.00083
 Co30 Co 0.92146 -0.00056 0.00023
 Co31 Co 1.00055 0.07885 0.00019
 Co32 Co 1.00058 -0.08004 0.00078
 O33 O 1.00063 -0.00061 0.00051
 C34 C 1.07013 -0.07842 -0.05526
 C35 C 0.93125 0.07703 -0.05615
 C36 C 1.07841 0.06874 -0.05563
 C37 C 0.92337 -0.07037 -0.05574
 O38 O 1.09308 0.55718 0.52767
 O39 O 0.90822 0.44445 0.52866
 O40 O 0.94458 0.59345 0.52811
 O41 O 1.05682 0.40813 0.52833
 O42 O 0.91789 0.52631 0.55130
 O43 O 1.08416 0.47537 0.55081
 O44 O 0.97524 0.41753 0.55153
 O45 O 1.02619 0.58422 0.55071
 C46 C 1.07013 0.57848 0.55545
 C47 C 0.93125 0.42302 0.55634
 C48 C 0.92337 0.57043 0.55593
 C49 C 1.07841 0.43132 0.55582
 O50 O 1.09287 0.44443 0.47102
 O51 O 0.90812 0.55675 0.47137
 O52 O 1.05660 0.59349 0.47065
 O53 O 0.94432 0.40781 0.47166
 O54 O 0.91734 0.47490 0.44863
 O55 O 1.08356 0.52629 0.44782
 O56 O 1.02581 0.41698 0.44857
 O57 O 0.97496 0.58363 0.44809
 Co58 Co 1.07988 0.50080 0.49935
 Co59 Co 0.92145 0.50062 0.49996
 Co60 Co 1.00058 0.58009 0.49942
 Co61 Co 1.00055 0.42120 0.50000
 O62 O 1.00063 0.50067 0.49968
 C63 C 1.06970 0.42284 0.44353
 C64 C 0.93100 0.57790 0.44348
 C65 C 1.07814 0.57043 0.44301
 C66 C 0.92287 0.43078 0.44396
 O67 O 0.59174 0.05560 0.52866
 O68 O 0.40688 -0.05713 0.52767
 O69 O 0.44314 0.09192 0.52833
 O70 O 0.55538 -0.09340 0.52811
 O71 O 0.41581 0.02468 0.55081
 O72 O 0.58208 -0.02626 0.55130
 O73 O 0.47377 -0.08417 0.55071
 O74 O 0.52472 0.08252 0.55153
 C75 C 0.56871 0.07702 0.55634
 C76 C 0.42983 -0.07843 0.55545
 C77 C 0.42155 0.06873 0.55582
 C78 C 0.57660 -0.07038 0.55593
 O79 O 0.59184 -0.05670 0.47136
 O80 O 0.40709 0.05562 0.47103
 O81 O 0.55564 0.09224 0.47166
 O82 O 0.44336 -0.09344 0.47065
 O83 O 0.41640 -0.02624 0.44782
 O84 O 0.58262 0.02515 0.44863
 O85 O 0.52500 -0.08358 0.44809
 O86 O 0.47415 0.08307 0.44857
 Co87 Co 0.57851 -0.00057 0.49996
 Co88 Co 0.42008 -0.00075 0.49936
 Co89 Co 0.49941 0.07885 0.50001
 Co90 Co 0.49938 -0.08004 0.49941
 O91 O 0.49934 -0.00062 0.49968
 C92 C 0.56896 -0.07785 0.44347
 C93 C 0.43026 0.07721 0.44354
 C94 C 0.57709 0.06927 0.44396
 C95 C 0.42182 -0.07038 0.44301
 O96 O 0.59184 0.55675 0.02883
 O97 O 0.40709 0.44443 0.02917
 O98 O 0.44336 0.59349 0.02955
 O99 O 0.55564 0.40781 0.02853
 O100 O 0.41640 0.52629 0.05237
 O101 O 0.58263 0.47490 0.05156
 O102 O 0.47415 0.41698 0.05162
 O103 O 0.52500 0.58363 0.05210
 C104 C 0.56896 0.57790 0.05672
 C105 C 0.43026 0.42284 0.05666
 C106 C 0.42182 0.57043 0.05718
 C107 C 0.57710 0.43078 0.05623
 O108 O 0.59174 0.44445 -0.02847
 O109 O 0.40688 0.55718 -0.02747
 O110 O 0.55538 0.59345 -0.02792
 O111 O 0.44314 0.40813 -0.02814
 O112 O 0.41581 0.47537 -0.05062
 O113 O 0.58208 0.52631 -0.05111
 O114 O 0.52472 0.41753 -0.05134
 O115 O 0.47377 0.58422 -0.05052
 Co116 Co 0.57851 0.50062 0.00023
 Co117 Co 0.42008 0.50080 0.00084
 Co118 Co 0.49939 0.58009 0.00078
 Co119 Co 0.49941 0.42120 0.00019
 O120 O 0.49934 0.50067 0.00051
 C121 C 0.56871 0.42303 -0.05615
 C122 C 0.42983 0.57848 -0.05525
 C123 C 0.57660 0.57043 -0.05574
 C124 C 0.42155 0.43132 -0.05563
 C125 C 1.21938 0.21946 0.22377
 C126 C 1.19464 0.19524 0.20096
 C127 C 1.16636 0.16804 0.17299
 C128 C 1.14289 0.14575 0.14796
 C129 C 1.11632 0.12079 0.11738
 C130 C 1.09450 0.10039 0.09019
 C131 C 1.21940 0.71946 0.72372
 C132 C 1.19477 0.69534 0.70075
 C133 C 1.16668 0.66830 0.67249
 C134 C 1.14336 0.64622 0.64722
 C135 C 1.11692 0.62152 0.61638
 C136 C 1.09511 0.60137 0.58905
 C137 C 0.71930 0.21942 0.72365
 C138 C 0.69452 0.19529 0.70071
 C139 C 0.66613 0.16816 0.67258
 C140 C 0.64253 0.14592 0.64751
 C141 C 0.61574 0.12090 0.61693
 C142 C 0.59372 0.10040 0.58982
 C143 C 0.71938 0.71946 0.22376
 C144 C 0.69463 0.69526 0.20096
 C145 C 0.66631 0.66809 0.17299
 C146 C 0.64276 0.64588 0.14797
 C147 C 0.61605 0.62105 0.11739
 C148 C 0.59405 0.60082 0.09022
 C149 C 0.78059 -0.21941 0.22376
 C150 C 0.80534 -0.19521 0.20096
 C151 C 0.83366 -0.16804 0.17299
 C152 C 0.85721 -0.14583 0.14797
 C153 C 0.88392 -0.12100 0.11739
 C154 C 0.90592 -0.10077 0.09022
 C155 C 0.78066 0.28063 0.72365
 C156 C 0.80545 0.30476 0.70071
 C157 C 0.83384 0.33188 0.67258
 C158 C 0.85744 0.35412 0.64751
 C159 C 0.88423 0.37914 0.61693
 C160 C 0.90624 0.39964 0.58982
 C161 C 0.28057 -0.21942 0.72371
 C162 C 0.30520 -0.19530 0.70075
 C163 C 0.33329 -0.16826 0.67249
 C164 C 0.35660 -0.14618 0.64722
 C165 C 0.38305 -0.12148 0.61638
 C166 C 0.40486 -0.10133 0.58904
 C167 C 0.28059 0.28059 0.22377
 C168 C 0.30533 0.30480 0.20097
 C169 C 0.33361 0.33201 0.17299
 C170 C 0.35708 0.35430 0.14797
 C171 C 0.38365 0.37926 0.11738
 C172 C 0.40547 0.39966 0.09019
 C173 C 0.78066 0.21942 -0.22346
 C174 C 0.80545 0.19529 -0.20052
 C175 C 0.83384 0.16817 -0.17239
 C176 C 0.85744 0.14593 -0.14732
 C177 C 0.88423 0.12091 -0.11674
 C178 C 0.90624 0.10041 -0.08963
 C179 C 0.78059 0.71946 0.27643
 C180 C 0.80534 0.69526 0.29923
 C181 C 0.83366 0.66809 0.32720
 C182 C 0.85721 0.64588 0.35223
 C183 C 0.88391 0.62105 0.38280
 C184 C 0.90591 0.60082 0.40997
 C185 C 0.28059 0.21946 0.27643
 C186 C 0.30533 0.19524 0.29923
 C187 C 0.33361 0.16804 0.32721
 C188 C 0.35708 0.14575 0.35223
 C189 C 0.38365 0.12078 0.38282
 C190 C 0.40546 0.10039 0.41000
 C191 C 0.28057 0.71947 -0.22352
 C192 C 0.30519 0.69534 -0.20055
 C193 C 0.33329 0.66831 -0.17230
 C194 C 0.35660 0.64622 -0.14703
 C195 C 0.38304 0.62152 -0.11618
 C196 C 0.40486 0.60137 -0.08885
 C197 C 1.21940 -0.21942 -0.22352
 C198 C 1.19477 -0.19529 -0.20056
 C199 C 1.16668 -0.16826 -0.17230
 C200 C 1.14336 -0.14617 -0.14703
 C201 C 1.11692 -0.12147 -0.11619
 C202 C 1.09511 -0.10132 -0.08886
 C203 C 1.21938 0.28059 0.27643
 C204 C 1.19464 0.30480 0.29923
 C205 C 1.16636 0.33201 0.32720
 C206 C 1.14288 0.35430 0.35222
 C207 C 1.11631 0.37927 0.38281
 C208 C 1.09450 0.39966 0.41000
 C209 C 0.71938 -0.21941 0.27642
 C210 C 0.69463 -0.19521 0.29923
 C211 C 0.66631 -0.16804 0.32720
 C212 C 0.64276 -0.14583 0.35222
 C213 C 0.61605 -0.12100 0.38280
 C214 C 0.59405 -0.10077 0.40997
 C215 C 0.71930 0.28063 -0.22346
 C216 C 0.69452 0.30476 -0.20052
 C217 C 0.66613 0.33188 -0.17239
 C218 C 0.64253 0.35413 -0.14732
 C219 C 0.61573 0.37915 -0.11674
 C220 C 0.59372 0.39964 -0.08963
 C221 C 1.21950 0.21929 -0.22348
 C222 C 1.19550 0.19445 -0.20052
 C223 C 1.16860 0.16602 -0.17232
 C224 C 1.14658 0.14241 -0.14715
 C225 C 1.12185 0.11565 -0.11643
 C226 C 1.10158 0.09368 -0.08920
 C227 C 1.22098 0.72085 0.27520
 C228 C 1.19679 0.69605 0.29822
 C229 C 1.16963 0.66776 0.32652
 C230 C 1.14735 0.64427 0.35172
 C231 C 1.12224 0.61756 0.38241
 C232 C 1.10165 0.59556 0.40955
 C233 C 0.71946 0.21932 0.27652
 C234 C 0.69532 0.19462 0.29948
 C235 C 0.66816 0.16641 0.32766
 C236 C 0.64589 0.14298 0.35280
 C237 C 0.62087 0.11637 0.38343
 C238 C 0.60040 0.09441 0.41056
 C239 C 0.71944 0.71936 -0.22349
 C240 C 0.69520 0.69480 -0.20052
 C241 C 0.66787 0.66683 -0.17230
 C242 C 0.64546 0.64364 -0.14711
 C243 C 0.62031 0.61728 -0.11640
 C244 C 0.59981 0.59549 -0.08920
 C245 C 0.78052 -0.21931 -0.22349
 C246 C 0.80477 -0.19474 -0.20052
 C247 C 0.83209 -0.16677 -0.17230
 C248 C 0.85451 -0.14358 -0.14711
 C249 C 0.87965 -0.11723 -0.11640
 C250 C 0.90015 -0.09543 -0.08920
 C251 C 0.78050 0.28073 0.27652
 C252 C 0.80464 0.30544 0.29948
 C253 C 0.83180 0.33364 0.32766
 C254 C 0.85407 0.35707 0.35280
 C255 C 0.87909 0.38368 0.38343
 C256 C 0.89956 0.40564 0.41056
 C257 C 0.27897 -0.22079 0.27520
 C258 C 0.30316 -0.19600 0.29822
 C259 C 0.33032 -0.16770 0.32652
 C260 C 0.35260 -0.14421 0.35172
 C261 C 0.37771 -0.11750 0.38242
 C262 C 0.39830 -0.09550 0.40955
 C263 C 0.28046 0.28077 -0.22348
 C264 C 0.30446 0.30561 -0.20052
 C265 C 0.33136 0.33404 -0.17232
 C266 C 0.35338 0.35765 -0.14715
 C267 C 0.37811 0.38441 -0.11643
 C268 C 0.39839 0.40637 -0.08920
 C269 C 1.22099 -0.22079 0.22499
 C270 C 1.19679 -0.19600 0.20197
 C271 C 1.16963 -0.16770 0.17367
 C272 C 1.14736 -0.14421 0.14847
 C273 C 1.12225 -0.11750 0.11777
 C274 C 1.10166 -0.09550 0.09064
 C275 C 1.21950 0.28077 0.72367
 C276 C 1.19550 0.30561 0.70071
 C277 C 1.16860 0.33403 0.67251
 C278 C 1.14658 0.35765 0.64734
 C279 C 1.12185 0.38440 0.61662
 C280 C 1.10158 0.40637 0.58939
 C281 C 0.71944 -0.21931 0.72368
 C282 C 0.69520 -0.19474 0.70071
 C283 C 0.66787 -0.16678 0.67249
 C284 C 0.64546 -0.14358 0.64730
 C285 C 0.62031 -0.11723 0.61659
 C286 C 0.59981 -0.09544 0.58939
 C287 C 0.71946 0.28073 0.22367
 C288 C 0.69532 0.30543 0.20072
 C289 C 0.66816 0.33364 0.17253
 C290 C 0.64589 0.35707 0.14739
 C291 C 0.62087 0.38368 0.11676
 C292 C 0.60040 0.40564 0.08963
 C293 C 0.78050 0.21932 0.22367
 C294 C 0.80464 0.19462 0.20072
 C295 C 0.83180 0.16641 0.17253
 C296 C 0.85407 0.14298 0.14740
 C297 C 0.87910 0.11637 0.11676
 C298 C 0.89957 0.09441 0.08963
 C299 C 0.78052 0.71936 0.72368
 C300 C 0.80477 0.69480 0.70071
 C301 C 0.83209 0.66683 0.67249
 C302 C 0.85451 0.64363 0.64730
 C303 C 0.87965 0.61728 0.61659
 C304 C 0.90015 0.59549 0.58940
 C305 C 0.28047 0.21929 0.72368
 C306 C 0.30446 0.19445 0.70072
 C307 C 0.33136 0.16602 0.67251
 C308 C 0.35338 0.14241 0.64734
 C309 C 0.37811 0.11565 0.61663
 C310 C 0.39839 0.09368 0.58939
 C311 C 0.27897 0.72085 0.22499
 C312 C 0.30316 0.69605 0.20197
 C313 C 0.33033 0.66776 0.17367
 C314 C 0.35260 0.64426 0.14847
 C315 C 0.37771 0.61756 0.11778
 C316 C 0.39831 0.59555 0.09064
   
