data_POSCAR
  _audit_creation_date              2014-09-24
  _audit_creation_method            'ToBaCCo'
  _symmetry_space_group_name_H-M    'P1'
  _symmetry_Int_Tables_number       1
  _symmetry_cell_setting            triclinic
  loop_
  _symmetry_equiv_pos_as_xyz
 x,y,z
_cell_length_a 24.4019
_cell_length_b 25.0971
_cell_length_c 24.2740
_cell_angle_alpha 89.885100
_cell_angle_beta 90.015300
_cell_angle_gamma 90.023900
loop_
  _atom_site_label
  _atom_site_type_symbol
  _atom_site_fract_x
  _atom_site_fract_y
  _atom_site_fract_z
Si1 Si 0.24606 0.25076 0.25125
 Si2 Si 0.74698 0.74862 0.24915
 Si3 Si 0.75256 0.24922 0.75141
 Si4 Si 0.25471 0.75151 0.74806
 C5 C 0.01926 0.07631 0.07694
 H6 H -0.02475 0.07950 0.07569
 C7 C 0.04897 0.11061 0.11086
 H8 H 0.02733 0.14013 0.13485
 C9 C 0.10086 0.03344 0.04832
 H10 H 0.12103 0.00277 0.02474
 C11 C 0.13216 0.06707 0.08165
 H12 H 0.17628 0.06255 0.08296
 N13 N 0.04540 0.03903 0.04589
 C14 C 0.04463 -0.10237 -0.04414
 H15 H 0.01461 -0.12104 -0.01775
 C16 C 0.07823 -0.13414 -0.07705
 H17 H 0.07365 -0.17706 -0.07610
 C18 C 0.08778 -0.02420 -0.07775
 H19 H 0.09133 0.01877 -0.07769
 C20 C 0.12248 -0.05452 -0.11098
 H21 H 0.15236 -0.03453 -0.13661
 Zn22 Zn 0.00273 -0.00552 -0.00099
 N23 N 0.04955 -0.04834 -0.04537
 C24 C -0.03372 0.04337 -0.10105
 N25 N -0.04327 0.03753 -0.04609
 C26 C -0.08670 0.06192 -0.02163
 C27 C -0.12080 0.09569 -0.05187
 C28 C -0.06703 0.07660 -0.13289
 C29 C -0.03490 -0.05307 0.09783
 C30 C -0.06876 -0.08550 0.12992
 C31 C -0.11794 -0.11064 0.04754
 C32 C -0.08334 -0.07753 0.01702
 N33 N -0.04270 -0.04978 0.04244
 H34 H -0.00027 0.02260 -0.12046
 H35 H -0.09531 0.05477 0.02140
 H36 H -0.15477 0.11502 -0.03147
 H37 H -0.05870 0.08145 -0.17644
 H38 H -0.00226 -0.03078 0.11716
 H39 H -0.06229 -0.08791 0.17400
 H40 H -0.15000 -0.13246 0.02666
 H41 H -0.08871 -0.07394 -0.02707
 C42 C 0.11763 -0.11015 -0.11089
 C43 C 0.10612 0.10634 0.11306
 C44 C -0.11065 -0.11478 0.10467
 C45 C -0.11059 0.10372 -0.10804
 C46 C 0.07640 0.58707 0.52085
 H47 H 0.07474 0.59008 0.47641
 C48 C 0.11007 0.62146 0.55083
 H49 H 0.13445 0.65075 0.52915
 C50 C 0.04625 0.54522 0.60307
 H51 H 0.02084 0.51599 0.62341
 C52 C 0.07955 0.57865 0.63457
 H53 H 0.08001 0.57460 0.67901
 N54 N 0.04583 0.54949 0.54716
 C55 C 0.01871 0.42240 0.42797
 H56 H -0.02552 0.41967 0.42951
 C57 C 0.04841 0.38791 0.39424
 H58 H 0.02673 0.35873 0.36980
 C59 C 0.10062 0.46369 0.45855
 H60 H 0.12088 0.49282 0.48414
 C61 C 0.13189 0.42998 0.42535
 H62 H 0.17613 0.43357 0.42519
 Zn63 Zn 0.00122 0.50451 0.50338
 N64 N 0.04500 0.45974 0.45875
 C65 C -0.04119 0.54528 0.40270
 N66 N -0.04348 0.54864 0.45861
 C67 C -0.07671 0.58457 0.48391
 C68 C -0.11097 0.61754 0.45281
 C69 C -0.07448 0.57774 0.37007
 C70 C -0.01646 0.42264 0.57994
 C71 C -0.04647 0.38789 0.61335
 C72 C -0.12973 0.42913 0.58047
 C73 C -0.09820 0.46300 0.54760
 N74 N -0.04253 0.45968 0.54843
 H75 H -0.01348 0.51759 0.38322
 H76 H -0.07694 0.58717 0.52839
 H77 H -0.13753 0.64545 0.47366
 H78 H -0.07260 0.57455 0.32561
 H79 H 0.02780 0.42020 0.57909
 H80 H -0.02503 0.35890 0.63834
 H81 H -0.17400 0.43224 0.57971
 H82 H -0.11838 0.49157 0.52124
 C83 C 0.10567 0.39175 0.39265
 C84 C 0.11197 0.61714 0.60837
 C85 C -0.10379 0.39118 0.61383
 C86 C -0.11021 0.61392 0.39520
 C87 C 0.57862 0.08207 0.51772
 H88 H 0.57971 0.08319 0.47317
 C89 C 0.61254 0.11583 0.54813
 H90 H 0.63979 0.14283 0.52674
 C91 C 0.54112 0.04576 0.59970
 H92 H 0.51265 0.01908 0.61970
 C93 C 0.57403 0.07910 0.63165
 H94 H 0.57122 0.07745 0.67615
 N95 N 0.54468 0.04716 0.54377
 C96 C 0.51864 -0.07809 0.42238
 H97 H 0.47434 -0.07975 0.42242
 C98 C 0.54855 -0.11261 0.38888
 H99 H 0.52695 -0.14067 0.36301
 C100 C 0.60055 -0.03967 0.45673
 H101 H 0.62077 -0.01196 0.48394
 C102 C 0.63201 -0.07334 0.42373
 H103 H 0.67631 -0.07092 0.42518
 Zn104 Zn 0.50073 0.00228 0.49944
 N105 N 0.54487 -0.04213 0.45491
 C106 C 0.45915 0.04551 0.39938
 N107 N 0.45627 0.04687 0.45533
 C108 C 0.42255 0.08158 0.48173
 C109 C 0.38855 0.11561 0.45167
 C110 C 0.42602 0.07904 0.36774
 C111 C 0.48276 -0.07721 0.57836
 C112 C 0.45257 -0.11158 0.61196
 C113 C 0.36948 -0.07666 0.57159
 C114 C 0.40120 -0.04260 0.53911
 N115 N 0.45679 -0.04291 0.54364
 H116 H 0.48723 0.01867 0.37915
 H117 H 0.42182 0.08243 0.52629
 H118 H 0.36159 0.14255 0.47336
 H119 H 0.42829 0.07749 0.32321
 H120 H 0.52706 -0.07747 0.58022
 H121 H 0.47390 -0.13816 0.63975
 H122 H 0.32525 -0.07598 0.56791
 H123 H 0.38133 -0.01631 0.51007
 C124 C 0.60591 -0.11018 0.38933
 C125 C 0.61060 0.11412 0.60577
 C126 C 0.39523 -0.11117 0.60888
 C127 C 0.38999 0.11421 0.39399
 C128 C 0.59764 0.53940 0.04044
 H129 H 0.61746 0.51132 0.01338
 C130 C 0.62960 0.57252 0.07361
 H131 H 0.67385 0.56934 0.07237
 C132 C 0.51633 0.57915 0.07445
 H133 H 0.47206 0.58149 0.07430
 C134 C 0.54676 0.61313 0.10815
 H135 H 0.52559 0.64150 0.13397
 N136 N 0.54199 0.54272 0.04205
 C137 C 0.53848 0.45414 -0.10200
 H138 H 0.51065 0.48110 -0.12248
 C139 C 0.57178 0.42069 -0.13340
 H140 H 0.56987 0.42249 -0.17795
 C141 C 0.57423 0.41748 -0.01941
 H142 H 0.57461 0.41636 0.02515
 C143 C 0.60842 0.38355 -0.04924
 H144 H 0.63510 0.35639 -0.02736
 Zn145 Zn 0.49729 0.49826 -0.00213
 N146 N 0.54104 0.45267 -0.04600
 C147 C 0.47983 0.57722 -0.08182
 N148 N 0.45360 0.54331 -0.04688
 C149 C 0.39799 0.54320 -0.04264
 C150 C 0.36651 0.57712 -0.07556
 C151 C 0.44990 0.61142 -0.11585
 C152 C 0.45591 0.45637 0.09860
 C153 C 0.42291 0.42333 0.13093
 C154 C 0.38445 0.38601 0.04780
 C155 C 0.41833 0.41959 0.01701
 N156 N 0.45256 0.45440 0.04268
 H157 H 0.52414 0.57735 -0.08347
 H158 H 0.37789 0.51720 -0.01347
 H159 H 0.32227 0.57667 -0.07201
 H160 H 0.47148 0.63776 -0.14369
 H161 H 0.48437 0.48323 0.11829
 H162 H 0.42569 0.42530 0.17542
 H163 H 0.35719 0.35890 0.02668
 H164 H 0.41721 0.41821 -0.02752
 C165 C 0.60764 0.38540 -0.10693
 C166 C 0.60407 0.60970 0.10803
 C167 C 0.38649 0.38797 0.10545
 C168 C 0.39254 0.61126 -0.11303
 C169 C 0.13119 -0.17854 -0.19419
 C170 C 0.17956 -0.15993 -0.23069
 C171 C 0.21388 -0.20706 -0.20938
 C172 C 0.16589 -0.22603 -0.17324
 C173 C 0.23611 -0.17277 -0.16190
 C174 C 0.20153 -0.12524 -0.18292
 C175 C 0.15347 -0.14420 -0.14677
 C176 C 0.18775 -0.19135 -0.12537
 H177 H 0.08770 -0.18070 -0.20741
 H178 H 0.17592 -0.14655 -0.27410
 H179 H 0.15101 -0.26764 -0.16926
 H180 H 0.27931 -0.17039 -0.14795
 H181 H 0.21715 -0.08396 -0.18757
 H182 H 0.19105 -0.20411 -0.08169
 C183 C 0.17775 0.37598 0.31114
 C184 C 0.22318 0.33854 0.33299
 C185 C 0.20193 0.29417 0.29490
 C186 C 0.15682 0.33124 0.27275
 C187 C 0.16336 0.27389 0.34045
 C188 C 0.18430 0.31857 0.37891
 C189 C 0.13918 0.35562 0.35669
 C190 C 0.11783 0.31122 0.31858
 H191 H 0.18347 0.41833 0.29917
 H192 H 0.26677 0.34975 0.33883
 H193 H 0.14556 0.33636 0.22878
 H194 H 0.15752 0.23166 0.35267
 H195 H 0.19544 0.31345 0.42294
 H196 H 0.07459 0.29918 0.31193
 C197 C 0.68440 -0.18362 0.37630
 C198 C 0.66367 -0.22806 0.33745
 C199 C 0.70281 -0.20776 0.29241
 C200 C 0.72385 -0.16363 0.33088
 C201 C 0.65808 -0.17044 0.26992
 C202 C 0.61853 -0.19048 0.31523
 C203 C 0.63967 -0.14632 0.35372
 C204 C 0.67880 -0.12593 0.30870
 H205 H 0.69503 -0.18896 0.42043
 H206 H 0.65753 -0.27031 0.34944
 H207 H 0.76744 -0.15259 0.33708
 H208 H 0.64715 -0.16498 0.22592
 H209 H 0.57532 -0.20237 0.30810
 H210 H 0.68480 -0.08356 0.29698
 C211 C 0.68882 0.31188 -0.11921
 C212 C 0.66815 0.26931 -0.16029
 C213 C 0.70793 0.29116 -0.20398
 C214 C 0.72888 0.33343 -0.16333
 C215 C 0.66378 0.32976 -0.22529
 C216 C 0.62360 0.30824 -0.18130
 C217 C 0.64462 0.35050 -0.14064
 C218 C 0.68442 0.37240 -0.18433
 H219 H 0.69990 0.30388 -0.07565
 H220 H 0.66162 0.22661 -0.15040
 H221 H 0.77247 0.34393 -0.15617
 H222 H 0.65349 0.33703 -0.26918
 H223 H 0.57994 0.29796 -0.18849
 H224 H 0.69102 0.41516 -0.19405
 C225 C -0.12245 0.18656 -0.17677
 C226 C -0.15861 0.16835 -0.22558
 C227 C -0.20510 0.20435 -0.20458
 C228 C -0.16931 0.22288 -0.15612
 C229 C -0.22817 0.15840 -0.16956
 C230 C -0.18136 0.12201 -0.19027
 C231 C -0.14563 0.14059 -0.14178
 C232 C -0.19215 0.17664 -0.12069
 H233 H -0.07860 0.19805 -0.17952
 H234 H -0.14483 0.16509 -0.26899
 H235 H -0.16435 0.26468 -0.14219
 H236 H -0.27191 0.14672 -0.16658
 H237 H -0.18623 0.08016 -0.20414
 H238 H -0.20669 0.18084 -0.07762
 C239 C -0.19119 0.68714 0.38018
 C240 C -0.16984 0.72912 0.33868
 C241 C -0.20904 0.70682 0.29477
 C242 C -0.23065 0.66510 0.33585
 C243 C -0.16468 0.66787 0.27479
 C244 C -0.12508 0.68987 0.31902
 C245 C -0.14676 0.64819 0.36013
 C246 C -0.18597 0.62578 0.31622
 H247 H -0.20292 0.69571 0.42342
 H248 H -0.16325 0.77190 0.34799
 H249 H -0.27435 0.65473 0.34253
 H250 H -0.15389 0.66015 0.23113
 H251 H -0.08130 0.70000 0.31233
 H252 H -0.19251 0.58291 0.30719
 C253 C 0.30952 0.18841 0.38115
 C254 C 0.33057 0.23080 0.33990
 C255 C 0.29076 0.20915 0.29622
 C256 C 0.26943 0.16705 0.33704
 C257 C 0.33470 0.17023 0.27525
 C258 C 0.37491 0.19155 0.31925
 C259 C 0.35348 0.14946 0.36004
 C260 C 0.31365 0.12778 0.31636
 H261 H 0.29838 0.19653 0.42464
 H262 H 0.33742 0.27350 0.34948
 H263 H 0.22579 0.15680 0.34422
 H264 H 0.34516 0.16284 0.23146
 H265 H 0.41867 0.20150 0.31216
 H266 H 0.30677 0.08506 0.30684
 C267 C 0.37978 0.68275 -0.19641
 C268 C 0.33144 0.66360 -0.23257
 C269 C 0.29623 0.70961 -0.21037
 C270 C 0.34417 0.72907 -0.17448
 C271 C 0.27527 0.67416 -0.16308
 C272 C 0.31085 0.62777 -0.18494
 C273 C 0.35880 0.64729 -0.14906
 C274 C 0.32357 0.69325 -0.12680
 H275 H 0.42264 0.68688 -0.21106
 H276 H 0.33472 0.65086 -0.27616
 H277 H 0.35836 0.77081 -0.16996
 H278 H 0.23216 0.67069 -0.14904
 H279 H 0.29728 0.58576 -0.18919
 H280 H 0.32054 0.70536 -0.08296
 C281 C -0.19304 -0.18682 0.11877
 C282 C -0.17174 -0.23088 0.15796
 C283 C -0.20906 -0.20931 0.20381
 C284 C -0.23064 -0.16553 0.16505
 C285 C -0.16310 -0.17224 0.22405
 C286 C -0.12539 -0.19351 0.17787
 C287 C -0.14705 -0.14972 0.13914
 C288 C -0.18435 -0.12810 0.18500
 H289 H -0.20606 -0.19354 0.07555
 H290 H -0.16657 -0.27348 0.14701
 H291 H -0.27418 -0.15389 0.15987
 H292 H -0.15082 -0.16623 0.26760
 H293 H -0.08174 -0.20494 0.18293
 H294 H -0.18944 -0.08547 0.19593
 C295 C -0.11733 0.30961 0.68703
 C296 C -0.15692 0.32923 0.73246
 C297 C -0.20195 0.29276 0.70918
 C298 C -0.16280 0.27285 0.66406
 C299 C -0.22225 0.33777 0.67124
 C300 C -0.17693 0.37462 0.69421
 C301 C -0.13779 0.35465 0.64907
 C302 C -0.18281 0.31817 0.62575
 H303 H -0.07424 0.29731 0.69413
 H304 H -0.14638 0.33357 0.77669
 H305 H -0.15718 0.23072 0.65154
 H306 H -0.26566 0.34935 0.66483
 H307 H -0.18253 0.41684 0.70653
 H308 H -0.19330 0.31370 0.58150
 C309 C 0.31393 -0.12642 0.68100
 C310 C 0.27708 -0.17189 0.65917
 C311 C 0.29740 -0.20794 0.70626
 C312 C 0.33391 -0.16282 0.72839
 C313 C 0.34461 -0.22843 0.67007
 C314 C 0.32465 -0.19199 0.62259
 C315 C 0.36114 -0.14691 0.64481
 C316 C 0.38153 -0.18298 0.69191
 H317 H 0.30143 -0.08413 0.68547
 H318 H 0.23406 -0.16731 0.64521
 H319 H 0.33790 -0.15019 0.77195
 H320 H 0.35761 -0.27051 0.66539
 H321 H 0.32106 -0.20389 0.57872
 H322 H 0.42438 -0.18812 0.70624
 C323 C 0.30659 0.31338 0.12003
 C324 C 0.32865 0.27141 0.16120
 C325 C 0.28935 0.29295 0.20537
 C326 C 0.26701 0.33462 0.16464
 C327 C 0.33327 0.33238 0.22543
 C328 C 0.37296 0.31116 0.18094
 C329 C 0.35056 0.35283 0.14021
 C330 C 0.31124 0.37441 0.18438
 H331 H 0.29484 0.30492 0.07676
 H332 H 0.33572 0.22875 0.15172
 H333 H 0.22316 0.34440 0.15811
 H334 H 0.34426 0.34009 0.26903
 H335 H 0.41690 0.30160 0.18743
 H336 H 0.30416 0.41713 0.19373
 C337 C 0.18394 0.18055 0.12511
 C338 C 0.16280 0.22545 0.16316
 C339 C 0.20211 0.20629 0.20856
 C340 C 0.22357 0.16172 0.17088
 C341 C 0.15777 0.16888 0.23169
 C342 C 0.11803 0.18778 0.18601
 C343 C 0.13959 0.14316 0.14831
 C344 C 0.17890 0.12393 0.19371
 H345 H 0.19454 0.18523 0.08089
 H346 H 0.15627 0.26747 0.15052
 H347 H 0.26722 0.15101 0.16464
 H348 H 0.14696 0.16410 0.27581
 H349 H 0.07471 0.19932 0.19303
 H350 H 0.18534 0.08183 0.20621
 C351 C 0.12790 0.68706 0.69028
 C352 C 0.17551 0.66599 0.72632
 C353 C 0.21186 0.71192 0.70556
 C354 C 0.16463 0.73336 0.66987
 C355 C 0.23234 0.67745 0.65746
 C356 C 0.19566 0.63116 0.67790
 C357 C 0.14844 0.65258 0.64219
 C358 C 0.18478 0.69857 0.62135
 H359 H 0.08458 0.69095 0.70363
 H360 H 0.17159 0.65228 0.76961
 H361 H 0.15145 0.77553 0.66655
 H362 H 0.27541 0.67337 0.64353
 H363 H 0.20836 0.58880 0.68102
 H364 H 0.18920 0.71278 0.57827
 C365 C 0.62513 0.19187 0.67961
 C366 C 0.66340 0.17022 0.72520
 C367 C 0.70882 0.20809 0.70518
 C368 C 0.67095 0.23006 0.65988
 C369 C 0.73060 0.16520 0.66570
 C370 C 0.68489 0.12699 0.68544
 C371 C 0.64697 0.14898 0.64016
 C372 C 0.69242 0.18685 0.61995
 H373 H 0.58139 0.20274 0.68510
 H374 H 0.65120 0.16347 0.76867
 H375 H 0.66534 0.27277 0.64946
 H376 H 0.77429 0.15417 0.66028
 H377 H 0.69054 0.08424 0.69580
 H378 H 0.70507 0.19421 0.57670
 C379 C 0.67728 0.62395 0.18887
 C380 C 0.72286 0.66121 0.16695
 C381 C 0.70248 0.70536 0.20572
 C382 C 0.65723 0.66849 0.22797
 C383 C 0.66361 0.72643 0.16080
 C384 C 0.68367 0.68197 0.12166
 C385 C 0.63840 0.64512 0.14398
 C386 C 0.61794 0.68931 0.18279
 H387 H 0.68266 0.58144 0.20032
 H388 H 0.76627 0.64963 0.16065
 H389 H 0.64645 0.66290 0.27200
 H390 H 0.65816 0.76882 0.14903
 H391 H 0.69435 0.68745 0.07756
 H392 H 0.57491 0.70171 0.19001
   
