data_POSCAR
  _audit_creation_date              2014-09-24
  _audit_creation_method            'ToBaCCo'
  _symmetry_space_group_name_H-M    'P1'
  _symmetry_Int_Tables_number       1
  _symmetry_cell_setting            triclinic
  loop_
  _symmetry_equiv_pos_as_xyz
 x,y,z
_cell_length_a 45.8138
_cell_length_b 46.1494
_cell_length_c 21.7676
_cell_angle_alpha 90.695400
_cell_angle_beta 89.719400
_cell_angle_gamma 120.380600
loop_
  _atom_site_label
  _atom_site_type_symbol
  _atom_site_fract_x
  _atom_site_fract_y
  _atom_site_fract_z
C1 C 0.16887 0.46259 0.51425
 C2 C 0.18135 0.45859 0.45739
 C3 C 0.21156 0.45754 0.45730
 C4 C 0.23106 0.46435 0.51119
 C5 C 0.21864 0.47007 0.56660
 C6 C 0.18663 0.46728 0.56965
 C7 C 0.26464 0.46610 0.50973
 C8 C 0.27720 0.45829 0.56218
 C9 C 0.30959 0.46206 0.56267
 C10 C 0.32867 0.47132 0.50828
 C11 C 0.31629 0.47811 0.45477
 C12 C 0.28482 0.47637 0.45640
 H13 H 0.14500 0.46206 0.51534
 H14 H 0.22086 0.45319 0.41456
 H15 H 0.23333 0.47522 0.60807
 H16 H 0.26190 0.44915 0.60317
 H17 H 0.35377 0.47450 0.50800
 H18 H 0.27621 0.48301 0.41566
 C19 C 0.55985 -0.28984 0.47572
 C20 C 0.56312 -0.27245 0.42102
 C21 C 0.55403 -0.24749 0.42177
 C22 C 0.54051 -0.24086 0.47503
 C23 C 0.53522 -0.26078 0.52729
 C24 C 0.54605 -0.28438 0.52952
 C25 C 0.53281 -0.21272 0.47725
 C26 C 0.53128 -0.19839 0.53416
 C27 C 0.52331 -0.17287 0.53735
 C28 C 0.51923 -0.15952 0.48296
 C29 C 0.52109 -0.17263 0.42545
 C30 C 0.52713 -0.19966 0.42305
 H31 H 0.56483 -0.31037 0.47452
 H32 H 0.55908 -0.23229 0.38141
 H33 H 0.52376 -0.25698 0.56747
 H34 H 0.53684 -0.20625 0.57688
 H35 H 0.51424 -0.13898 0.48572
 H36 H 0.52659 -0.21072 0.37875
 C37 C 1.27412 0.85334 0.48787
 C38 C 1.26438 0.83177 0.43605
 C39 C 1.23949 0.79781 0.44519
 C40 C 1.22332 0.78593 0.50243
 C41 C 1.23547 0.80801 0.55345
 C42 C 1.26217 0.84123 0.54706
 C43 C 1.19531 0.75000 0.50840
 C44 C 1.18789 0.73280 0.56517
 C45 C 1.16361 0.69825 0.56850
 C46 C 1.14686 0.68135 0.51447
 C47 C 1.15356 0.69759 0.45841
 C48 C 1.17655 0.73201 0.45578
 H49 H 1.29144 0.87994 0.48350
 H50 H 1.23391 0.77981 0.40868
 H51 H 1.22509 0.79928 0.59854
 H52 H 1.20223 0.74537 0.60601
 H53 H 1.12702 0.65520 0.51573
 H54 H 1.18019 0.74421 0.41201
 C55 C 0.87420 0.56341 0.50924
 C56 C 0.86199 0.56817 0.45401
 C57 C 0.83642 0.57642 0.45484
 C58 C 0.82073 0.57686 0.51089
 C59 C 0.83242 0.56979 0.56582
 C60 C 0.85920 0.56337 0.56505
 C61 C 0.79039 0.58137 0.51234
 C62 C 0.78090 0.59063 0.56751
 C63 C 0.74971 0.58947 0.57369
 C64 C 0.72961 0.58262 0.52062
 C65 C 0.73941 0.57561 0.46370
 C66 C 0.76942 0.57433 0.46042
 H67 H 0.89462 0.55796 0.50831
 H68 H 0.82821 0.58099 0.41146
 H69 H 0.81979 0.56728 0.60916
 H70 H 0.79810 0.59920 0.60606
 H71 H 0.70487 0.58005 0.52397
 H72 H 0.77593 0.56733 0.41730
 C73 C 0.46103 0.31477 0.48469
 C74 C 0.45838 0.29735 0.43034
 C75 C 0.45427 0.26541 0.43304
 C76 C 0.44931 0.24884 0.48943
 C77 C 0.45253 0.26707 0.54438
 C78 C 0.46034 0.30105 0.54264
 C79 C 0.44217 0.21320 0.48881
 C80 C 0.45135 0.19967 0.53799
 C81 C 0.44903 0.16795 0.53231
 C82 C 0.43788 0.15038 0.47581
 C83 C 0.42821 0.16313 0.42713
 C84 C 0.42847 0.19327 0.43536
 H85 H 0.46361 0.33931 0.48097
 H86 H 0.45464 0.25361 0.39012
 H87 H 0.45034 0.25526 0.58796
 H88 H 0.46262 0.21470 0.57887
 H89 H 0.43626 0.12634 0.46916
 H90 H 0.41884 0.20144 0.39824
 C91 C 0.67953 0.12929 0.52146
 C92 C 0.68810 0.14524 0.46428
 C93 C 0.71835 0.17634 0.45900
 C94 C 0.74063 0.19082 0.50936
 C95 C 0.73202 0.17306 0.56515
 C96 C 0.70111 0.14315 0.57217
 C97 C 0.77207 0.22478 0.50498
 C98 C 0.78552 0.24509 0.55794
 C99 C 0.81617 0.27611 0.55681
 C100 C 0.83209 0.28786 0.49937
 C101 C 0.81787 0.26922 0.44497
 C102 C 0.78863 0.23733 0.44857
 H103 H 0.65521 0.10666 0.52734
 H104 H 0.72419 0.18926 0.41567
 H105 H 0.74906 0.18231 0.60403
 H106 H 0.77258 0.23596 0.60100
 H107 H 0.85440 0.31255 0.49604
 H108 H 0.77923 0.22235 0.40702
 O109 O 0.96623 0.47283 -0.11623
 O110 O 1.02361 0.50152 0.14136
 O111 O 0.95582 0.49647 0.06466
 O112 O 1.05178 0.54460 -0.04189
 O113 O 0.96301 0.46919 0.13484
 O114 O 1.02863 0.50673 -0.11502
 O115 O 1.04065 0.54036 0.07290
 O116 O 0.95372 0.49629 -0.04421
 C117 C 0.95655 0.49262 -0.09976
 C118 C 1.03422 0.53168 0.12744
 C119 C 0.95627 0.49120 0.11990
 C120 C 1.04633 0.53705 -0.09754
 O121 O 1.03268 0.45412 -0.08416
 O122 O 0.96687 0.41804 0.07916
 O123 O 0.92820 0.42897 -0.04839
 O124 O 1.06609 0.50001 0.07933
 O125 O 1.02767 0.44911 0.09225
 O126 O 0.96842 0.41987 -0.07353
 O127 O 1.07046 0.49954 -0.03523
 O128 O 0.92706 0.42804 0.06401
 Co129 Co 0.99850 0.46424 -0.08672
 Co130 Co 0.99540 0.46079 0.10353
 Co131 Co 0.94589 0.46334 0.00946
 Co132 Co 1.05138 0.51675 0.01863
 O133 O 0.99802 0.47642 0.01075
 C134 C 1.06279 0.47465 -0.07055
 C135 C 0.93634 0.40829 0.08230
 C136 C 0.93777 0.41050 -0.07385
 C137 C 1.05760 0.47138 0.09833
 O138 O 0.53670 0.49672 -0.12661
 O139 O 0.46678 0.49905 0.06945
 O140 O 0.53075 0.45975 0.05829
 O141 O 0.46494 0.51111 -0.04267
 O142 O 0.48716 0.46301 0.08122
 O143 O 0.49399 0.51324 -0.12181
 O144 O 0.47642 0.54715 0.05401
 O145 O 0.52752 0.45979 -0.05651
 C146 C 0.52610 0.46663 -0.11131
 C147 C 0.45892 0.52048 0.08114
 C148 C 0.50215 0.44711 0.08195
 C149 C 0.46575 0.50323 -0.09730
 O150 O 0.54155 0.57524 -0.08035
 O151 O 0.54754 0.51295 0.12595
 O152 O 0.58670 0.51555 -0.05805
 O153 O 0.53821 0.58234 0.02912
 O154 O 0.52741 0.55275 0.11243
 O155 O 0.58232 0.55830 -0.07933
 O156 O 0.49583 0.57443 -0.05454
 O157 O 0.58527 0.51772 0.05795
 Co158 Co 0.53751 0.53438 -0.09382
 Co159 Co 0.50858 0.50800 0.08992
 Co160 Co 0.55452 0.49106 -0.00005
 Co161 Co 0.50286 0.54587 -0.00858
 O162 O 0.52598 0.51780 -0.00048
 C163 C 0.52043 0.58421 -0.09339
 C164 C 0.57745 0.52011 0.11239
 C165 C 0.59942 0.54448 -0.07951
 C166 C 0.54181 0.58099 0.08601
 O167 O 0.53707 0.01253 -0.07378
 O168 O 0.47046 -0.03525 0.10928
 O169 O 0.53527 0.05740 0.06000
 O170 O 0.44682 -0.08864 -0.05884
 O171 O 0.49351 0.02530 0.12204
 O172 O 0.49487 -0.04498 -0.07847
 O173 O 0.48515 -0.05474 0.03082
 O174 O 0.54262 0.06066 -0.05556
 C175 C 0.55495 0.04345 -0.07463
 C176 C 0.48511 -0.05025 0.08788
 C177 C 0.52445 0.04683 0.11297
 C178 C 0.47359 -0.07504 -0.09305
 O179 O 0.45115 -0.02875 -0.13095
 O180 O 0.43699 0.01801 0.06554
 O181 O 0.48550 0.06027 -0.06609
 O182 O 0.42218 -0.07915 0.04368
 O183 O 0.41413 -0.03911 0.05441
 O184 O 0.49552 0.02993 -0.13107
 O185 O 0.41778 -0.05392 -0.05593
 O186 O 0.48292 0.06382 0.04956
 Co187 Co 0.49313 -0.00735 -0.09564
 Co188 Co 0.45552 -0.00746 0.08080
 Co189 Co 0.50826 0.05458 -0.00358
 Co190 Co 0.45289 -0.05226 -0.01455
 O191 O 0.47752 -0.00093 -0.00579
 C192 C 0.42162 -0.04548 -0.11068
 C193 C 0.45342 0.04886 0.06964
 C194 C 0.48703 0.05165 -0.12018
 C195 C 0.40424 -0.06883 0.06612
 C196 C 1.13302 0.45747 0.29160
 C197 C 1.14857 0.43811 0.29535
 C198 C 1.16482 0.43843 0.34995
 C199 C 1.16452 0.45706 0.40172
 C200 C 1.14778 0.47546 0.39552
 N201 N 1.13331 0.47561 0.34139
 C202 C 1.11701 0.45972 0.23477
 N203 N 1.12388 0.49054 0.21614
 C204 C 1.10717 0.49466 0.16885
 C205 C 1.08050 0.46659 0.13924
 C206 C 1.07352 0.43448 0.15659
 C207 C 1.09212 0.43096 0.20387
 H208 H 1.17653 0.42315 0.35192
 H209 H 1.14769 0.49135 0.43237
 H210 H 1.11327 0.51987 0.15734
 H211 H 1.05294 0.41222 0.13526
 H212 H 1.14876 0.42351 0.25618
 H213 H 1.08578 0.40612 0.21860
 C214 C 0.58175 0.68623 0.26268
 C215 C 0.60001 0.68987 0.31661
 C216 C 0.59537 0.70526 0.36811
 C217 C 0.57334 0.71818 0.36621
 C218 C 0.55923 0.71806 0.30869
 N219 N 0.56287 0.70141 0.25983
 C220 C 0.57883 0.66282 0.21232
 N221 N 0.56561 0.66412 0.15708
 C222 C 0.55681 0.63995 0.11280
 C223 C 0.55966 0.61164 0.12433
 C224 C 0.57460 0.61053 0.17947
 C225 C 0.58435 0.63598 0.22331
 H226 H 0.60888 0.70668 0.40977
 H227 H 0.54246 0.72799 0.30380
 H228 H 0.54512 0.64152 0.07084
 H229 H 0.57703 0.58899 0.19007
 H230 H 0.61685 0.67996 0.32023
 H231 H 0.59367 0.63295 0.26683
 C232 C 0.31295 -0.13336 0.26361
 C233 C 0.28236 -0.16374 0.26594
 C234 C 0.26583 -0.17496 0.32230
 C235 C 0.28017 -0.15651 0.37744
 C236 C 0.31141 -0.12603 0.37171
 N237 N 0.32638 -0.11547 0.31612
 C238 C 0.33134 -0.12003 0.20580
 N239 N 0.34074 -0.08807 0.19011
 C240 C 0.36163 -0.07245 0.14202
 C241 C 0.37598 -0.08844 0.10882
 C242 C 0.36571 -0.12186 0.12288
 C243 C 0.34299 -0.13792 0.17104
 H244 H 0.24136 -0.19763 0.32127
 H245 H 0.32517 -0.11083 0.41092
 H246 H 0.36857 -0.04681 0.13226
 H247 H 0.37627 -0.13502 0.09841
 H248 H 0.27099 -0.17823 0.22440
 H249 H 0.33623 -0.16323 0.18340
 C250 C 0.90201 0.54295 0.29904
 C251 C 0.90241 0.57367 0.29881
 C252 C 0.88787 0.58179 0.34804
 C253 C 0.87316 0.55932 0.39670
 C254 C 0.87195 0.52838 0.39341
 N255 N 0.88653 0.52131 0.34593
 C256 C 0.91887 0.53322 0.25209
 N257 N 0.92794 0.51040 0.26798
 C258 C 0.94134 0.49788 0.22727
 C259 C 0.94552 0.50767 0.16577
 C260 C 0.93718 0.53184 0.14838
 C261 C 0.92391 0.54477 0.19148
 H262 H 0.88937 0.60597 0.34948
 H263 H 0.86040 0.51023 0.42981
 H264 H 0.94762 0.47948 0.24269
 H265 H 0.94007 0.54006 0.10121
 H266 H 0.91492 0.59174 0.26270
 H267 H 0.91649 0.56243 0.17680
 C268 C 0.46524 0.34541 0.26031
 C269 C 0.48451 0.32989 0.26888
 C270 C 0.48183 0.31354 0.32392
 C271 C 0.46016 0.31282 0.37036
 C272 C 0.44056 0.32768 0.35927
 N273 N 0.44370 0.34354 0.30548
 C274 C 0.47054 0.36662 0.20630
 N275 N 0.49837 0.37659 0.17037
 C276 C 0.50734 0.40019 0.12626
 C277 C 0.48837 0.41601 0.11784
 C278 C 0.45842 0.40457 0.15159
 C279 C 0.44942 0.37988 0.19575
 H280 H 0.49741 0.30238 0.33098
 H281 H 0.42311 0.32706 0.39364
 H282 H 0.53042 0.40801 0.10067
 H283 H 0.44294 0.41598 0.14636
 H284 H 0.50205 0.33106 0.23411
 H285 H 0.42703 0.37246 0.22330
 C286 C 0.61825 0.10009 0.31465
 C287 C 0.62292 0.07967 0.35585
 C288 C 0.64619 0.09446 0.40363
 C289 C 0.66465 0.12957 0.41116
 C290 C 0.65963 0.14910 0.36805
 N291 N 0.63698 0.13408 0.32149
 C292 C 0.59367 0.08551 0.26369
 N293 N 0.60075 0.10215 0.20952
 C294 C 0.57919 0.09016 0.16083
 C295 C 0.54812 0.05999 0.16552
 C296 C 0.54005 0.04275 0.22131
 C297 C 0.56282 0.05528 0.27033
 H298 H 0.64984 0.07834 0.43453
 H299 H 0.67299 0.17619 0.37206
 H300 H 0.58621 0.10441 0.11877
 H301 H 0.51626 0.01952 0.22694
 H302 H 0.60914 0.05260 0.35072
 H303 H 0.55605 0.04181 0.31324
 C304 C 0.46985 0.12077 -0.32300
 C305 C 0.47734 0.11640 -0.38373
 C306 C 0.47129 0.13263 -0.43108
 C307 C 0.45825 0.15400 -0.41894
 C308 C 0.45360 0.15970 -0.35678
 N309 N 0.45890 0.14280 -0.31135
 C310 C 0.47349 0.10199 -0.27153
 N311 N 0.47543 0.11339 -0.21279
 C312 C 0.47900 0.09748 -0.16360
 C313 C 0.48107 0.06835 -0.17220
 C314 C 0.47837 0.05578 -0.23210
 C315 C 0.47426 0.07221 -0.28158
 H316 H 0.47788 0.12897 -0.47718
 H317 H 0.44367 0.17580 -0.34422
 H318 H 0.48083 0.10794 -0.11805
 H319 H 0.47939 0.03315 -0.24082
 H320 H 0.48806 0.10087 -0.39522
 H321 H 0.47136 0.06122 -0.32686
 C322 C 0.70531 0.58771 -0.25498
 C323 C 0.73129 0.58016 -0.25778
 C324 C 0.74731 0.58249 -0.31369
 C325 C 0.73752 0.59220 -0.36756
 C326 C 0.71312 0.60209 -0.36096
 N327 N 0.69777 0.59932 -0.30606
 C328 C 0.68352 0.58047 -0.20031
 N329 N 0.66610 0.59696 -0.19316
 C330 C 0.64130 0.58787 -0.15057
 C331 C 0.63159 0.55957 -0.11394
 C332 C 0.65028 0.54320 -0.11831
 C333 C 0.67635 0.55363 -0.16122
 H334 H 0.76549 0.57410 -0.31481
 H335 H 0.70588 0.61184 -0.39923
 H336 H 0.62766 0.60136 -0.14850
 H337 H 0.64353 0.52119 -0.09109
 H338 H 0.73853 0.57153 -0.21780
 H339 H 0.68887 0.53920 -0.16651
 C340 C 0.86042 0.32668 -0.27540
 C341 C 0.82515 0.30740 -0.28046
 C342 C 0.81049 0.29141 -0.33608
 C343 C 0.83068 0.29433 -0.38762
 C344 C 0.86604 0.31479 -0.38049
 N345 N 0.87966 0.32971 -0.32544
 C346 C 0.87745 0.34394 -0.21733
 N347 N 0.90952 0.35055 -0.20681
 C348 C 0.92801 0.36887 -0.15749
 C349 C 0.91483 0.38299 -0.11617
 C350 C 0.88129 0.37530 -0.12461
 C351 C 0.86250 0.35573 -0.17492
 H352 H 0.78316 0.27755 -0.33851
 H353 H 0.88317 0.31759 -0.41733
 H354 H 0.95379 0.37420 -0.15304
 H355 H 0.87024 0.38599 -0.09440
 H356 H 0.80891 0.30415 -0.24174
 H357 H 0.83736 0.35169 -0.18221
 C358 C 0.50308 -0.13824 -0.29339
 C359 C 0.48887 -0.17287 -0.30399
 C360 C 0.49639 -0.18414 -0.35841
 C361 C 0.51774 -0.16104 -0.40241
 C362 C 0.53201 -0.12667 -0.38939
 N363 N 0.52452 -0.11631 -0.33596
 C364 C 0.49532 -0.12462 -0.23777
 N365 N 0.51872 -0.09336 -0.21754
 C366 C 0.51277 -0.07793 -0.16968
 C367 C 0.48124 -0.09365 -0.14002
 C368 C 0.45685 -0.12615 -0.15915
 C369 C 0.46382 -0.14179 -0.20792
 H370 H 0.48480 -0.21089 -0.36691
 H371 H 0.54890 -0.10808 -0.42184
 H372 H 0.53246 -0.05301 -0.15595
 H373 H 0.43216 -0.13901 -0.13771
 H374 H 0.47226 -0.19106 -0.27073
 H375 H 0.44426 -0.16636 -0.22356
 C376 C 0.35931 0.45978 -0.27267
 C377 C 0.33732 0.47267 -0.27071
 C378 C 0.32004 0.47209 -0.32380
 C379 C 0.32446 0.45872 -0.37904
 C380 C 0.34546 0.44475 -0.37837
 N381 N 0.36239 0.44602 -0.32632
 C382 C 0.38279 0.46486 -0.22142
 N383 N 0.41125 0.46374 -0.23486
 C384 C 0.43667 0.47288 -0.19369
 C385 C 0.43483 0.48500 -0.13520
 C386 C 0.40478 0.48408 -0.11848
 C387 C 0.37861 0.47388 -0.16135
 H388 H 0.30458 0.48369 -0.32233
 H389 H 0.34919 0.43367 -0.41958
 H390 H 0.45917 0.47257 -0.20808
 H391 H 0.40230 0.49306 -0.07365
 H392 H 0.33476 0.48486 -0.23005
 H393 H 0.35605 0.47422 -0.14784
 C394 C 1.12295 0.63863 -0.27518
 C395 C 1.13616 0.67351 -0.26958
 C396 C 1.15249 0.69423 -0.31992
 C397 C 1.15483 0.68006 -0.37605
 C398 C 1.14405 0.64553 -0.37705
 N399 N 1.12821 0.62610 -0.32805
 C400 C 1.10179 0.61416 -0.22788
 N401 N 1.08193 0.58142 -0.24558
 C402 C 1.06260 0.55667 -0.20554
 C403 C 1.06302 0.56417 -0.14295
 C404 C 1.08269 0.59791 -0.12369
 C405 C 1.10207 0.62296 -0.16592
 H406 H 1.16040 0.72062 -0.31633
 H407 H 1.14736 0.63358 -0.41743
 H408 H 1.04794 0.53107 -0.22246
 H409 H 1.08394 0.60483 -0.07565
 H410 H 1.13241 0.68457 -0.22842
 H411 H 1.11783 0.64851 -0.14958
 C412 C 0.89820 0.53793 -0.28018
 C413 C 0.89239 0.56504 -0.27494
 C414 C 0.87825 0.57275 -0.32454
 C415 C 0.87017 0.55363 -0.37893
 C416 C 0.87519 0.52609 -0.38122
 N417 N 0.88914 0.51928 -0.33287
 C418 C 0.91503 0.52926 -0.23201
 N419 N 0.92922 0.51061 -0.24883
 C420 C 0.94383 0.49993 -0.20783
 C421 C 0.94421 0.50742 -0.14519
 C422 C 0.93030 0.52715 -0.12665
 C423 C 0.91569 0.53815 -0.16989
 H424 H 0.87492 0.59434 -0.32140
 H425 H 0.86872 0.51036 -0.42201
 H426 H 0.95426 0.48480 -0.22416
 H427 H 0.92992 0.53333 -0.07860
 H428 H 0.89976 0.58089 -0.23431
 H429 H 0.90411 0.55233 -0.15429
 C430 C 0.48387 0.36477 -0.30060
 C431 C 0.46384 0.32981 -0.29336
 C432 C 0.45628 0.30842 -0.34461
 C433 C 0.46815 0.32166 -0.40361
 C434 C 0.48878 0.35698 -0.40764
 N435 N 0.49569 0.37697 -0.35735
 C436 C 0.49275 0.38944 -0.24956
 N437 N 0.50378 0.42203 -0.26406
 C438 C 0.51395 0.44683 -0.22098
 C439 C 0.51390 0.43962 -0.15861
 C440 C 0.50244 0.40615 -0.14233
 C441 C 0.49186 0.38103 -0.18753
 H442 H 0.43985 0.28176 -0.33786
 H443 H 0.50072 0.36911 -0.45015
 H444 H 0.52245 0.47220 -0.23571
 H445 H 0.50201 0.39943 -0.09471
 H446 H 0.45332 0.31894 -0.24924
 H447 H 0.48406 0.35569 -0.17383
 C448 C 0.65895 0.09973 -0.25417
 C449 C 0.65726 0.07880 -0.30322
 C450 C 0.67255 0.09299 -0.35912
 C451 C 0.68971 0.12793 -0.36634
 C452 C 0.69251 0.14804 -0.31525
 N453 N 0.67674 0.13364 -0.26170
 C454 C 0.63767 0.08606 -0.19859
 N455 N 0.62757 0.10554 -0.16851
 C456 C 0.60361 0.09332 -0.12379
 C457 C 0.58734 0.05919 -0.10860
 C458 C 0.59922 0.03928 -0.13546
 C459 C 0.62451 0.05265 -0.18012
 H460 H 0.66994 0.07663 -0.39740
 H461 H 0.70535 0.17511 -0.31899
 H462 H 0.59557 0.10970 -0.10363
 H463 H 0.58767 0.01290 -0.12455
 H464 H 0.64259 0.05173 -0.30024
 H465 H 0.63254 0.03654 -0.20140
 C466 C 1.14301 0.46662 -0.25838
 C467 C 1.12233 0.44790 -0.30777
 C468 C 1.13670 0.44877 -0.36460
 C469 C 1.17200 0.46789 -0.37299
 C470 C 1.19183 0.48639 -0.32169
 N471 N 1.17699 0.48572 -0.26689
 C472 C 1.12763 0.46717 -0.19896
 N473 N 1.13707 0.49707 -0.17034
 C474 C 1.11911 0.49956 -0.12253
 C475 C 1.08911 0.47108 -0.10323
 C476 C 1.08086 0.43974 -0.12850
 C477 C 1.10009 0.43768 -0.17615
 H478 H 1.11995 0.43305 -0.40097
 H479 H 1.21894 0.50250 -0.32543
 H480 H 1.12635 0.52417 -0.10400
 H481 H 1.05805 0.41712 -0.11460
 H482 H 1.09511 0.43300 -0.30278
 H483 H 1.09228 0.41352 -0.19751
 C484 C 0.53929 0.66398 -0.30629
 C485 C 0.56375 0.66906 -0.35048
 C486 C 0.56585 0.68595 -0.40433
 C487 C 0.54346 0.69787 -0.41567
 C488 C 0.51895 0.69170 -0.37003
 N489 N 0.51746 0.67507 -0.31783
 C490 C 0.53588 0.64575 -0.24862
 N491 N 0.50548 0.63003 -0.21911
 C492 C 0.50020 0.61140 -0.16779
 C493 C 0.52635 0.60745 -0.14405
 C494 C 0.55814 0.62438 -0.17234
 C495 C 0.56311 0.64375 -0.22408
 H496 H 0.58611 0.69062 -0.43571
 H497 H 0.49996 0.69870 -0.37628
 H498 H 0.47534 0.59877 -0.14699
 H499 H 0.57913 0.62236 -0.15483
 H500 H 0.58103 0.65984 -0.34438
 H501 H 0.58805 0.65686 -0.24435
 C502 C 0.31923 -0.10198 -0.29508
 C503 C 0.28397 -0.12255 -0.28962
 C504 C 0.26478 -0.14028 -0.34133
 C505 C 0.28069 -0.13767 -0.39819
 C506 C 0.31594 -0.11613 -0.40133
 N507 N 0.33383 -0.09925 -0.35078
 C508 C 0.34202 -0.08432 -0.24261
 N509 N 0.37336 -0.05805 -0.25532
 C510 C 0.39815 -0.04358 -0.21242
 C511 C 0.39259 -0.05635 -0.15271
 C512 C 0.36000 -0.08233 -0.13733
 C513 C 0.33456 -0.09640 -0.18220
 H514 H 0.23766 -0.15610 -0.33660
 H515 H 0.32975 -0.11367 -0.44324
 H516 H 0.42276 -0.02332 -0.22610
 H517 H 0.35475 -0.09300 -0.09178
 H518 H 0.27135 -0.12500 -0.24623
 H519 H 0.31025 -0.11776 -0.17052
 C520 C 0.51215 -0.12304 0.26766
 C521 C 0.53434 -0.13563 0.26528
 C522 C 0.53662 -0.15286 0.31593
 C523 C 0.51664 -0.15775 0.36841
 C524 C 0.49369 -0.14608 0.36725
 N525 N 0.49245 -0.12892 0.31821
 C526 C 0.51025 -0.10204 0.21899
 N527 N 0.50145 -0.07907 0.23602
 C528 C 0.49597 -0.06058 0.19482
 C529 C 0.49807 -0.06546 0.13154
 C530 C 0.50830 -0.08817 0.11253
 C531 C 0.51464 -0.10644 0.15627
 H532 H 0.55488 -0.16118 0.31497
 H533 H 0.47707 -0.15003 0.40569
 H534 H 0.48828 -0.04333 0.21178
 H535 H 0.50994 -0.09288 0.06414
 H536 H 0.55069 -0.13104 0.22609
 H537 H 0.52113 -0.12488 0.14106
 C538 C 0.37228 0.50026 0.28672
 C539 C 0.35739 0.51934 0.30370
 C540 C 0.33930 0.51239 0.35874
 C541 C 0.33611 0.48662 0.39692
 C542 C 0.35134 0.46819 0.37816
 N543 N 0.36859 0.47526 0.32433
 C544 C 0.39181 0.50599 0.22925
 N545 N 0.39559 0.48047 0.20667
 C546 C 0.41519 0.48407 0.15713
 C547 C 0.43331 0.51519 0.12794
 C548 C 0.42921 0.54174 0.14913
 C549 C 0.40843 0.53726 0.19975
 H550 H 0.32797 0.52726 0.37159
 H551 H 0.34905 0.44777 0.40571
 H552 H 0.41765 0.46294 0.14223
 H553 H 0.44309 0.56624 0.12821
 H554 H 0.35911 0.53899 0.27465
 H555 H 0.40680 0.55846 0.21698
 C556 C 1.09716 0.63140 0.31247
 C557 C 1.11690 0.62383 0.35042
 C558 C 1.13696 0.64667 0.39529
 C559 C 1.13719 0.67696 0.40312
 C560 C 1.11870 0.68466 0.36185
 N561 N 1.09916 0.66181 0.31785
 C562 C 1.07480 0.60639 0.26694
 N563 N 1.07644 0.61522 0.20714
 C564 C 1.06102 0.59177 0.16189
 C565 C 1.04381 0.55739 0.17605
 C566 C 1.03967 0.54810 0.23788
 C567 C 1.05514 0.57255 0.28343
 H568 H 1.15150 0.64020 0.42548
 H569 H 1.11853 0.70795 0.36643
 H570 H 1.06413 0.59993 0.11469
 H571 H 1.02612 0.52191 0.25085
 H572 H 1.11653 0.60024 0.34574
 H573 H 1.05321 0.56502 0.33091
 C574 C 0.42049 0.11671 0.25258
 C575 C 0.43819 0.15185 0.25775
 C576 C 0.43893 0.16700 0.31399
 C577 C 0.42222 0.14726 0.36525
 C578 C 0.40326 0.11227 0.35732
 N579 N 0.40313 0.09806 0.30214
 C580 C 0.42422 0.09985 0.19731
 N581 N 0.45128 0.11718 0.15948
 C582 C 0.45935 0.10187 0.11428
 C583 C 0.44018 0.06689 0.10632
 C584 C 0.41087 0.04887 0.14202
 C585 C 0.40291 0.06522 0.18764
 H586 H 0.45417 0.19408 0.31828
 H587 H 0.38966 0.09620 0.39550
 H588 H 0.48195 0.11675 0.08736
 H589 H 0.39529 0.02184 0.13742
 H590 H 0.45246 0.16743 0.21947
 H591 H 0.38123 0.05067 0.21690
 C592 C 0.67392 0.55330 0.30770
 C593 C 0.69244 0.53686 0.31372
 C594 C 0.71377 0.54403 0.36429
 C595 C 0.71715 0.56794 0.40868
 C596 C 0.69825 0.58398 0.40040
 N597 N 0.67723 0.57615 0.35129
 C598 C 0.65009 0.54558 0.25616
 N599 N 0.62069 0.54551 0.26627
 C600 C 0.59733 0.53782 0.22119
 C601 C 0.60318 0.53003 0.16147
 C602 C 0.63371 0.53073 0.14985
 C603 C 0.65708 0.53829 0.19702
 H604 H 0.72689 0.53020 0.36919
 H605 H 0.70024 0.60289 0.43272
 H606 H 0.57416 0.53759 0.23219
 H607 H 0.63932 0.52491 0.10451
 H608 H 0.68974 0.51792 0.28071
 H609 H 0.68049 0.53874 0.18715
 C610 C 0.86060 0.31524 0.27194
 C611 C 0.82530 0.29672 0.27902
 C612 C 0.81143 0.28108 0.33490
 C613 C 0.83252 0.28377 0.38396
 C614 C 0.86764 0.30169 0.37436
 N615 N 0.88056 0.31671 0.31953
 C616 C 0.87698 0.33456 0.21548
 N617 N 0.90917 0.34224 0.20224
 C618 C 0.92738 0.36310 0.15574
 C619 C 0.91383 0.37892 0.12069
 C620 C 0.88019 0.37029 0.13175
 C621 C 0.86166 0.34808 0.17882
 H622 H 0.78420 0.26762 0.34030
 H623 H 0.88482 0.30396 0.41055
 H624 H 0.95324 0.36902 0.14901
 H625 H 0.86883 0.38214 0.10634
 H626 H 0.80849 0.29436 0.24209
 H627 H 0.83646 0.34337 0.18859
   
