data_POSCAR
  _audit_creation_date              2014-09-24
  _audit_creation_method            'ToBaCCo'
  _symmetry_space_group_name_H-M    'P1'
  _symmetry_Int_Tables_number       1
  _symmetry_cell_setting            triclinic
  loop_
  _symmetry_equiv_pos_as_xyz
 x,y,z
_cell_length_a 24.3116
_cell_length_b 24.3634
_cell_length_c 12.9361
_cell_angle_alpha 89.746200
_cell_angle_beta 90.127100
_cell_angle_gamma 120.070700
loop_
  _atom_site_label
  _atom_site_type_symbol
  _atom_site_fract_x
  _atom_site_fract_y
  _atom_site_fract_z
O1 O 0.42313 0.93939 0.59672
 O2 O 0.48750 1.06313 0.39502
 O3 O 0.42568 0.93966 0.39544
 O4 O 0.48490 1.06276 0.59662
 O5 O 0.57593 1.06293 0.60067
 O6 O 0.51671 0.93983 0.39949
 O7 O 0.57852 1.06330 0.39908
 O8 O 0.51417 0.93956 0.60078
 Cu9 Cu 0.44614 1.00126 0.49549
 Cu10 Cu 0.55554 1.00147 0.50039
 C11 C 0.45784 0.91868 0.63292
 C12 C 0.54380 1.08398 0.36277
 C13 C 0.46120 0.91900 0.36347
 C14 C 0.54033 1.08343 0.63291
 O15 O -0.06409 0.42358 0.39773
 O16 O 0.05954 0.48315 0.59926
 O17 O -0.06410 0.42158 0.59963
 O18 O 0.05955 0.48563 0.39803
 O19 O 0.05954 0.57639 0.40074
 O20 O -0.06409 0.51233 0.60227
 O21 O 0.05955 0.57392 0.60198
 O22 O -0.06410 0.51432 0.40037
 Cu23 Cu -0.00236 0.44429 0.49838
 Cu24 Cu -0.00236 0.55335 0.50163
 C25 C -0.08472 0.45900 0.36459
 C26 C 0.08037 0.53857 0.63470
 C27 C -0.08472 0.45628 0.63542
 C28 C 0.08037 0.54180 0.36531
 O29 O 0.51671 0.57688 0.60051
 O30 O 0.57594 0.51301 0.39933
 O31 O 0.51417 0.57460 0.39923
 O32 O 0.57852 0.51522 0.60093
 O33 O 0.48750 0.42437 0.60498
 O34 O 0.42313 0.48374 0.40328
 O35 O 0.48490 0.42214 0.40338
 O36 O 0.42568 0.48601 0.60456
 Cu37 Cu 0.55554 0.55408 0.49961
 Cu38 Cu 0.44614 0.44488 0.50452
 C39 C 0.46120 0.54220 0.63653
 C40 C 0.54033 0.45690 0.36709
 C41 C 0.45784 0.53916 0.36708
 C42 C 0.54380 0.45982 0.63724
 O43 O 0.42641 0.66945 -0.11800
 O44 O 0.42902 0.77655 -0.08788
 C45 C 0.38928 0.78546 -0.13830
 O46 O 0.33031 0.75671 -0.11927
 O47 O 0.22291 0.65210 -0.08754
 C48 C 0.21393 0.60352 -0.13739
 O49 O 0.24272 0.57346 -0.11807
 O50 O 0.34746 0.57093 -0.08628
 C51 C 0.39623 0.61059 -0.13655
 O52 O 0.42902 0.65247 0.08788
 O53 O 0.42641 0.75696 0.11801
 C54 C 0.39623 0.78563 0.13655
 O55 O 0.34746 0.77653 0.08628
 O56 O 0.24272 0.66927 0.11808
 C57 C 0.21393 0.61041 0.13739
 O58 O 0.22292 0.57081 0.08754
 O59 O 0.33031 0.57360 0.11927
 C60 C 0.38928 0.60382 0.13830
 Cr61 Cr 0.42414 0.71207 0.00000
 Cr62 Cr 0.28764 0.71187 -0.00059
 Cr63 Cr 0.28764 0.57577 0.00059
 O64 O 0.33314 0.66657 0.00001
 O65 O 0.57127 0.34787 -0.08741
 O66 O 0.57400 0.24353 -0.11838
 C67 C 0.60433 0.21505 -0.13744
 O68 O 0.65294 0.22387 -0.08698
 O69 O 0.75768 0.33107 -0.11813
 C70 C 0.78619 0.38986 -0.13785
 O71 O 0.77732 0.42948 -0.08778
 O72 O 0.66995 0.42673 -0.11884
 C73 C 0.61098 0.39652 -0.13784
 O74 O 0.57400 0.33047 0.11838
 O75 O 0.57127 0.22341 0.08741
 C76 C 0.61098 0.21446 0.13785
 O77 O 0.66995 0.24322 0.11885
 O78 O 0.77732 0.34784 0.08778
 C79 C 0.78619 0.39633 0.13785
 O80 O 0.75768 0.42662 0.11814
 O81 O 0.65294 0.42907 0.08699
 C82 C 0.60433 0.38927 0.13744
 Cr83 Cr 0.57621 0.28811 0.00000
 Cr84 Cr 0.71270 0.28829 0.00036
 Cr85 Cr 0.71270 0.42441 -0.00036
 O86 O 0.66721 0.33361 0.00000
 C87 C 0.43317 0.87116 -0.28750
 C88 C 0.41286 0.83173 -0.21982
 C89 C 0.12798 0.56153 -0.28599
 C90 C 0.16752 0.58072 -0.21857
 C91 C 0.43829 0.56679 -0.28444
 C92 C 0.41907 0.58706 -0.21733
 C93 C 0.56295 0.13038 -0.28719
 C94 C 0.58186 0.16931 -0.21919
 C95 C 0.87087 0.43332 -0.28847
 C96 C 0.83196 0.41329 -0.22004
 C97 C 0.56709 0.43826 -0.28724
 C98 C 0.58739 0.41919 -0.21943
 C99 C 0.87087 0.43756 0.28847
 C100 C 0.83196 0.41867 0.22005
 C101 C 0.56709 0.12883 0.28725
 C102 C 0.58739 0.16820 0.21943
 C103 C 0.56295 0.43257 0.28719
 C104 C 0.58186 0.41255 0.21920
 C105 C 0.12798 0.56645 0.28599
 C106 C 0.16752 0.58680 0.21858
 C107 C 0.43829 0.87150 0.28444
 C108 C 0.41907 0.83202 0.21733
 C109 C 0.43317 0.56201 0.28750
 C110 C 0.41286 0.58113 0.21982
   
