data_POSCAR
  _audit_creation_date              2014-09-24
  _audit_creation_method            'ToBaCCo'
  _symmetry_space_group_name_H-M    'P1'
  _symmetry_Int_Tables_number       1
  _symmetry_cell_setting            triclinic
  loop_
  _symmetry_equiv_pos_as_xyz
 x,y,z
_cell_length_a 33.2822
_cell_length_b 32.7216
_cell_length_c 33.4771
_cell_angle_alpha 90.017800
_cell_angle_beta 89.959700
_cell_angle_gamma 90.009200
loop_
  _atom_site_label
  _atom_site_type_symbol
  _atom_site_fract_x
  _atom_site_fract_y
  _atom_site_fract_z
N1 N 0.57689 0.68833 0.60699
 N2 N 0.56286 0.67344 0.64072
 C3 C 0.53083 0.69568 0.65225
 C4 C 0.52409 0.72542 0.62380
 C5 C 0.55366 0.71984 0.59538
 H6 H 0.51327 0.69038 0.67894
 H7 H 0.55845 0.73801 0.56882
 Cu8 Cu 0.58703 0.62556 0.66535
 Cu9 Cu 0.62553 0.66733 0.58198
 Cu10 Cu 0.66975 0.58254 0.62591
 N11 N 0.61094 0.57677 0.68848
 N12 N 0.64464 0.56158 0.67431
 C13 C 0.65607 0.52978 0.69715
 C14 C 0.62747 0.52421 0.72663
 C15 C 0.59911 0.55437 0.72014
 H16 H 0.68265 0.51146 0.69212
 H17 H 0.57238 0.56000 0.73770
 N18 N 0.69058 0.60819 0.57682
 N19 N 0.67485 0.64163 0.56121
 C20 C 0.69702 0.65298 0.52940
 C21 C 0.72743 0.62482 0.52432
 C22 C 0.72244 0.59673 0.55463
 H23 H 0.69111 0.67926 0.51073
 H24 H 0.74117 0.57040 0.56043
 H25 H 0.61832 0.60792 0.60181
 H26 H 0.65056 0.64218 0.63282
 N27 N 0.92353 0.31063 0.10657
 N28 N 0.93713 0.32517 0.14060
 C29 C 0.96866 0.30243 0.15257
 C30 C 0.97564 0.27273 0.12399
 C31 C 0.94660 0.27893 0.09510
 H32 H 0.98584 0.30757 0.17952
 H33 H 0.94204 0.26111 0.06826
 Cu34 Cu 0.91360 0.37375 0.16459
 Cu35 Cu 0.87550 0.33226 0.08098
 Cu36 Cu 0.83157 0.41745 0.12461
 N37 N 0.88951 0.42234 0.18801
 N38 N 0.85622 0.43799 0.17341
 C39 C 0.84485 0.46990 0.19617
 C40 C 0.87300 0.47494 0.22603
 C41 C 0.90105 0.44449 0.21994
 H42 H 0.81867 0.48870 0.19086
 H43 H 0.92746 0.43866 0.23785
 N44 N 0.81115 0.39212 0.07520
 N45 N 0.82675 0.35856 0.05968
 C46 C 0.80476 0.34737 0.02772
 C47 C 0.77460 0.37576 0.02245
 C48 C 0.77956 0.40382 0.05280
 H49 H 0.81054 0.32096 0.00916
 H50 H 0.76090 0.43022 0.05856
 H51 H 0.88294 0.39162 0.10084
 H52 H 0.85024 0.35764 0.13168
 N53 N 0.42270 0.18979 -0.10666
 N54 N 0.43696 0.17462 -0.14018
 C55 C 0.46882 0.19704 -0.15189
 C56 C 0.47521 0.22718 -0.12374
 C57 C 0.44561 0.22166 -0.09534
 H58 H 0.48656 0.19152 -0.17842
 H59 H 0.44064 0.24004 -0.06894
 Cu60 Cu 0.41348 0.12600 -0.16414
 Cu61 Cu 0.37427 0.16851 -0.08144
 Cu62 Cu 0.33071 0.08302 -0.12482
 N63 N 0.38944 0.07738 -0.18752
 N64 N 0.35586 0.06204 -0.17320
 C65 C 0.34445 0.03020 -0.19602
 C66 C 0.37286 0.02490 -0.22563
 C67 C 0.40110 0.05511 -0.21934
 H68 H 0.31800 0.01170 -0.19098
 H69 H 0.42767 0.06078 -0.23710
 N70 N 0.30978 0.10877 -0.07582
 N71 N 0.32520 0.14248 -0.06044
 C72 C 0.30294 0.15385 -0.02870
 C73 C 0.27278 0.12544 -0.02343
 C74 C 0.27803 0.09717 -0.05356
 H75 H 0.30861 0.18034 -0.01022
 H76 H 0.25951 0.07064 -0.05920
 H77 H 0.38183 0.10895 -0.10060
 H78 H 0.34971 0.14270 -0.13222
 N79 N 0.07635 0.81035 0.39294
 N80 N 0.06335 0.82419 0.35842
 C81 C 0.03176 0.80149 0.34656
 C82 C 0.02413 0.77253 0.37568
 C83 C 0.05283 0.77915 0.40481
 H84 H 0.01497 0.80615 0.31929
 H85 H 0.05691 0.76189 0.43206
 Cu86 Cu 0.08750 0.87193 0.33343
 Cu87 Cu 0.12432 0.83202 0.41852
 Cu88 Cu 0.16832 0.91703 0.37499
 N89 N 0.11100 0.92136 0.31109
 N90 N 0.14380 0.93756 0.32622
 C91 C 0.15479 0.96991 0.30389
 C92 C 0.12688 0.97468 0.27379
 C93 C 0.09936 0.94361 0.27927
 H94 H 0.18057 0.98916 0.30965
 H95 H 0.07328 0.93739 0.26101
 N96 N 0.18869 0.89176 0.42438
 N97 N 0.17304 0.85823 0.43989
 C98 C 0.19504 0.84698 0.47181
 C99 C 0.22529 0.87530 0.47705
 C100 C 0.22035 0.90338 0.44673
 H101 H 0.18924 0.82056 0.49032
 H102 H 0.23909 0.92972 0.44094
 H103 H 0.11647 0.89100 0.39763
 H104 H 0.15033 0.85697 0.36799
 C105 C 0.09530 0.15390 0.12485
 N106 N 0.09588 0.12491 0.15384
 C107 C 0.12505 0.09590 0.15403
 N108 N 0.15370 0.09600 0.12513
 C109 C 0.15324 0.12497 0.09609
 N110 N 0.12397 0.15387 0.09599
 C111 C 0.40299 0.84604 0.62466
 N112 N 0.37410 0.84612 0.59603
 C113 C 0.34504 0.87525 0.59620
 N114 N 0.34492 0.90435 0.62512
 C115 C 0.37373 0.90439 0.65383
 N116 N 0.40273 0.87520 0.65352
 C117 C 0.90424 0.65387 0.37538
 N118 N 0.87571 0.65369 0.40437
 C119 C 0.84655 0.62467 0.40437
 N120 N 0.84605 0.59572 0.37530
 C121 C 0.87456 0.59577 0.34625
 N122 N 0.90361 0.62492 0.34634
 C123 C 0.59661 0.34751 -0.12499
 N124 N 0.59700 0.37663 -0.15388
 C125 C 0.62631 0.40547 -0.15436
 N126 N 0.65528 0.40523 -0.12584
 C127 C 0.65499 0.37621 -0.09684
 N128 N 0.62564 0.34738 -0.09650
 N129 N 0.01268 0.21984 0.09127
 C130 C 0.00555 0.24296 0.12423
 N131 N 0.02815 0.23653 0.15742
 N132 N 0.05651 0.20779 0.15776
 C133 C 0.06383 0.18506 0.12465
 N134 N 0.04159 0.19168 0.09134
 N135 N 0.47850 0.77196 0.65902
 C136 C 0.49252 0.75666 0.62400
 N137 N 0.47696 0.77081 0.58918
 N138 N 0.44810 0.79903 0.58940
 C139 C 0.43435 0.81462 0.62442
 N140 N 0.45016 0.80072 0.65921
 N141 N 0.98631 0.72058 0.40896
 C142 C 0.99406 0.74292 0.37563
 N143 N 0.97198 0.73578 0.34222
 N144 N 0.94357 0.70709 0.34203
 C145 C 0.93565 0.68512 0.37548
 N146 N 0.95734 0.69248 0.40901
 N147 N 0.52228 0.27277 -0.08926
 C148 C 0.50672 0.25849 -0.12403
 N149 N 0.52080 0.27359 -0.15910
 N150 N 0.54921 0.30228 -0.15939
 C151 C 0.56505 0.31630 -0.12463
 N152 N 0.55122 0.30092 -0.08957
 N153 N 0.09105 0.02077 0.22840
 C154 C 0.12641 0.00623 0.24272
 N155 N 0.16132 0.02132 0.22782
 N156 N 0.16089 0.04969 0.19927
 C157 C 0.12553 0.06450 0.18521
 N158 N 0.09062 0.04969 0.20040
 N159 N 0.66002 0.47073 -0.23709
 C160 C 0.62721 0.49453 -0.24356
 N161 N 0.59413 0.48883 -0.22042
 N162 N 0.59372 0.46014 -0.19219
 C163 C 0.62666 0.43671 -0.18555
 N164 N 0.65989 0.44260 -0.20832
 N165 N 0.40831 0.97857 0.72884
 C166 C 0.37308 0.99364 0.74299
 N167 N 0.33806 0.97930 0.72768
 N168 N 0.33827 0.95111 0.69894
 C169 C 0.37350 0.93576 0.68506
 N170 N 0.40851 0.94984 0.70063
 N171 N 0.83842 0.52092 0.27258
 C172 C 0.87336 0.50633 0.25728
 N173 N 0.90868 0.52126 0.27133
 N174 N 0.90904 0.55008 0.29945
 C175 C 0.87411 0.56440 0.31502
 N176 N 0.83879 0.54920 0.30123
 N177 N 0.22663 0.16098 0.02188
 C178 C 0.24171 0.12531 0.00761
 N179 N 0.22758 0.08952 0.02253
 N180 N 0.19961 0.08941 0.05102
 C181 C 0.18425 0.12508 0.06502
 N182 N 0.19812 0.16086 0.04983
 N183 N 0.77324 0.66047 0.47876
 C184 C 0.75845 0.62475 0.49322
 N185 N 0.77275 0.58899 0.47837
 N186 N 0.80061 0.58896 0.44976
 C187 C 0.81567 0.62467 0.43558
 N188 N 0.80164 0.66042 0.45070
 N189 N 0.72941 0.41167 -0.02347
 C190 C 0.74361 0.37588 -0.00864
 N191 N 0.72861 0.34020 -0.02296
 N192 N 0.70009 0.34031 -0.05087
 C193 C 0.68615 0.37609 -0.06597
 N194 N 0.70144 0.41177 -0.05192
 N195 N 0.27118 0.83956 0.52238
 C196 C 0.25636 0.87530 0.50805
 N197 N 0.27081 0.91103 0.52281
 N198 N 0.29883 0.91101 0.55122
 C199 C 0.31392 0.87527 0.56528
 N200 N 0.29975 0.83955 0.55024
   
