data_POSCAR
  _audit_creation_date              2014-09-24
  _audit_creation_method            'ToBaCCo'
  _symmetry_space_group_name_H-M    'P1'
  _symmetry_Int_Tables_number       1
  _symmetry_cell_setting            triclinic
  loop_
  _symmetry_equiv_pos_as_xyz
 x,y,z
_cell_length_a 29.5540
_cell_length_b 29.5579
_cell_length_c 22.0919
_cell_angle_alpha 89.853400
_cell_angle_beta 90.020400
_cell_angle_gamma 89.901500
loop_
  _atom_site_label
  _atom_site_type_symbol
  _atom_site_fract_x
  _atom_site_fract_y
  _atom_site_fract_z
C1 C 1.28253 0.20308 0.28189
 C2 C 1.24700 0.22533 0.25274
 C3 C 1.21144 0.20070 0.22796
 C4 C 1.21004 0.15344 0.23293
 C5 C 1.24546 0.13123 0.26450
 C6 C 1.28253 0.15563 0.28928
 C7 C 1.24699 0.27490 0.24738
 C8 C 1.28225 0.29700 0.21769
 C9 C 1.28234 0.34446 0.21054
 C10 C 1.24560 0.36907 0.23612
 C11 C 1.21029 0.34695 0.26794
 C12 C 1.21168 0.29967 0.27274
 H13 H 1.31056 0.22356 0.29705
 H14 H 1.18580 0.21889 0.20271
 H15 H 1.31009 0.27640 0.20196
 H16 H 1.18622 0.28157 0.29827
 H17 H 1.24290 0.09517 0.27156
 H18 H 1.24317 0.40519 0.22944
 C19 C 0.78503 -0.29840 0.27736
 C20 C 0.75019 -0.27507 0.24825
 C21 C 0.71570 -0.29854 0.21921
 C22 C 0.71495 -0.34593 0.21937
 C23 C 0.75048 -0.36938 0.24903
 C24 C 0.78656 -0.34610 0.27818
 C25 C 0.74989 -0.22549 0.24850
 C26 C 0.78475 -0.20182 0.22009
 C27 C 0.78589 -0.15438 0.22113
 C28 C 0.75030 -0.13115 0.25056
 C29 C 0.71455 -0.15474 0.27915
 C30 C 0.71524 -0.20222 0.27800
 H31 H 0.80941 -0.27824 0.30169
 H32 H 0.69018 -0.27931 0.19512
 H33 H 0.81033 -0.22088 0.19605
 H34 H 0.68969 -0.22169 0.30152
 H35 H 0.74999 -0.40577 0.24792
 H36 H 0.75050 -0.09466 0.25127
 C37 C 0.78627 0.20211 -0.22092
 C38 C 0.75147 0.22565 -0.24987
 C39 C 0.71687 0.20223 -0.27913
 C40 C 0.71615 0.15476 -0.27950
 C41 C 0.75189 0.13127 -0.25051
 C42 C 0.78740 0.15464 -0.22117
 C43 C 0.75150 0.27526 -0.25021
 C44 C 0.78624 0.29853 -0.27941
 C45 C 0.78714 0.34625 -0.28136
 C46 C 0.75052 0.36952 -0.25328
 C47 C 0.71510 0.34615 -0.22350
 C48 C 0.71653 0.29878 -0.22211
 H49 H 0.81173 0.22133 -0.19698
 H50 H 0.69133 0.22156 -0.30301
 H51 H 0.81102 0.27829 -0.30299
 H52 H 0.69112 0.27960 -0.19792
 H53 H 0.75206 0.09478 -0.25079
 H54 H 0.74946 0.40589 -0.25316
 C55 C 1.28184 -0.29713 -0.21963
 C56 C 1.24735 -0.27446 -0.25036
 C57 C 1.21277 -0.29851 -0.27833
 C58 C 1.21169 -0.34582 -0.27558
 C59 C 1.24683 -0.36862 -0.24438
 C60 C 1.28292 -0.34478 -0.21618
 C61 C 1.24720 -0.22495 -0.25231
 C62 C 1.28212 -0.20199 -0.28164
 C63 C 1.28352 -0.15455 -0.28203
 C64 C 1.24817 -0.13062 -0.25306
 C65 C 1.21237 -0.15356 -0.22374
 C66 C 1.21273 -0.20101 -0.22350
 H67 H 1.30626 -0.27646 -0.19616
 H68 H 1.18744 -0.27986 -0.30356
 H69 H 1.30756 -0.22164 -0.30509
 H70 H 1.18713 -0.21988 -0.19921
 H71 H 1.24605 -0.40501 -0.24368
 H72 H 1.24860 -0.09412 -0.25310
 C73 C 0.20237 0.28418 0.72014
 C74 C 0.22618 0.24994 0.74949
 C75 C 0.20321 0.21559 0.77997
 C76 C 0.15548 0.21428 0.78180
 C77 C 0.13186 0.25020 0.75230
 C78 C 0.15502 0.28531 0.72143
 C79 C 0.27579 0.25048 0.74931
 C80 C 0.29882 0.28589 0.77729
 C81 C 0.34654 0.28738 0.77855
 C82 C 0.37003 0.25068 0.75109
 C83 C 0.34692 0.21462 0.72263
 C84 C 0.29955 0.21540 0.72189
 H85 H 0.22133 0.30933 0.69511
 H86 H 0.22371 0.19150 0.80457
 H87 H 0.27839 0.31073 0.80041
 H88 H 0.28057 0.18940 0.69868
 H89 H 0.09546 0.25096 0.75191
 H90 H 0.40638 0.24998 0.75041
 C91 C 0.70276 0.78496 0.72653
 C92 C 0.72514 0.74851 0.75312
 C93 C 0.70070 0.71235 0.77680
 C94 C 0.65305 0.71126 0.77398
 C95 C 0.63096 0.74791 0.74407
 C96 C 0.65537 0.78521 0.71977
 C97 C 0.77485 0.74790 0.75522
 C98 C 0.79832 0.78207 0.78527
 C99 C 0.84584 0.78318 0.78506
 C100 C 0.86936 0.74795 0.75505
 C101 C 0.84595 0.71271 0.72507
 C102 C 0.79847 0.71371 0.72524
 H103 H 0.72321 0.81326 0.71205
 H104 H 0.71986 0.68661 0.80035
 H105 H 0.77898 0.80724 0.80963
 H106 H 0.77924 0.68882 0.70029
 H107 H 0.59507 0.74586 0.73588
 H108 H 0.90586 0.74805 0.75477
 C109 C 0.70056 0.28525 0.22055
 C110 C 0.72404 0.25057 0.24983
 C111 C 0.70059 0.21575 0.27870
 C112 C 0.65312 0.21468 0.27830
 C113 C 0.62966 0.25025 0.24888
 C114 C 0.65310 0.28596 0.21994
 C115 C 0.77358 0.25057 0.24988
 C116 C 0.79700 0.28511 0.27914
 C117 C 0.84447 0.28619 0.27885
 C118 C 0.86794 0.25081 0.24926
 C119 C 0.84454 0.21531 0.22001
 C120 C 0.79707 0.21614 0.22035
 H121 H 0.71981 0.31086 0.19680
 H122 H 0.71988 0.19023 0.30272
 H123 H 0.77768 0.31040 0.30333
 H124 H 0.77780 0.19078 0.19631
 H125 H 0.59315 0.25013 0.24844
 H126 H 0.90443 0.25091 0.24897
 C127 C 0.20357 0.78440 0.22237
 C128 C 0.22669 0.74940 0.25122
 C129 C 0.20313 0.71461 0.27964
 C130 C 0.15550 0.71362 0.27994
 C131 C 0.13250 0.74985 0.25050
 C132 C 0.15594 0.78586 0.22133
 C133 C 0.27630 0.74924 0.25187
 C134 C 0.29962 0.78403 0.28079
 C135 C 0.34708 0.78471 0.28166
 C136 C 0.37068 0.74875 0.25351
 C137 C 0.34740 0.71304 0.22452
 C138 C 0.29993 0.71421 0.22376
 H139 H 0.22383 0.80896 0.19836
 H140 H 0.22301 0.68987 0.30404
 H141 H 0.28022 0.80979 0.30396
 H142 H 0.28078 0.68865 0.19995
 H143 H 0.09623 0.75000 0.25030
 H144 H 0.40717 0.74858 0.25414
 O145 O 1.07793 0.02198 0.07815
 O146 O 0.92355 -0.02202 0.07656
 O147 O 0.97686 0.07720 0.07581
 O148 O 1.02546 -0.07627 0.07678
 O149 O 0.91417 0.05367 0.04200
 O150 O 1.08831 -0.05322 0.04319
 O151 O 0.94936 -0.08530 0.04660
 O152 O 1.05313 0.08554 0.04752
 C153 C 1.07617 0.06314 0.08490
 C154 C 0.92511 -0.06329 0.08271
 C155 C 0.93550 0.07702 0.07957
 C156 C 1.06680 -0.07630 0.08099
 O157 O 1.07878 -0.02139 -0.07235
 O158 O 0.92431 0.02265 -0.07364
 O159 O 1.02577 0.07678 -0.07200
 O160 O 0.97754 -0.07695 -0.07178
 O161 O 0.91456 -0.05314 -0.03919
 O162 O 1.08846 0.05410 -0.03740
 O163 O 1.05360 -0.08490 -0.04199
 O164 O 0.94954 0.08591 -0.04302
 Co165 Co 1.07502 0.00039 0.00282
 Co166 Co 0.92749 0.00030 0.00148
 Co167 Co 1.00139 0.07349 0.00198
 Co168 Co 1.00153 -0.07298 0.00247
 O169 O 1.00131 0.00029 0.00216
 C170 C 1.07711 -0.06262 -0.07876
 C171 C 0.92572 0.06393 -0.07966
 C172 C 1.06711 0.07709 -0.07560
 C173 C 0.93619 -0.07688 -0.07610
 O174 O 1.07777 0.52200 0.57368
 O175 O 0.92364 0.47724 0.57369
 O176 O 0.97678 0.57669 0.57382
 O177 O 1.02420 0.42252 0.57181
 O178 O 0.91375 0.55323 0.54111
 O179 O 1.08716 0.44637 0.53919
 O180 O 0.94814 0.41416 0.54154
 O181 O 1.05264 0.58551 0.54317
 C182 C 1.07619 0.56323 0.57998
 C183 C 0.92464 0.43590 0.57885
 C184 C 0.93546 0.57635 0.57863
 C185 C 1.06551 0.42282 0.57644
 O186 O 1.07763 0.47829 0.42320
 O187 O 0.92321 0.52332 0.42427
 O188 O 1.02393 0.57757 0.42494
 O189 O 0.97646 0.42412 0.42334
 O190 O 0.91362 0.44755 0.45701
 O191 O 1.08693 0.55354 0.45772
 O192 O 1.05269 0.41477 0.45324
 O193 O 0.94777 0.58638 0.45589
 Co194 Co 1.07414 0.50004 0.49849
 Co195 Co 0.92681 0.50034 0.49899
 Co196 Co 1.00029 0.57357 0.49932
 Co197 Co 1.00040 0.42686 0.49761
 O198 O 1.00041 0.50020 0.49865
 C199 C 1.07604 0.43715 0.41633
 C200 C 0.92416 0.56461 0.41882
 C201 C 1.06528 0.57697 0.42026
 C202 C 0.93511 0.42446 0.41922
 O203 O 0.57775 0.02340 0.57501
 O204 O 0.42329 -0.02358 0.57522
 O205 O 0.47878 0.07661 0.57721
 O206 O 0.52492 -0.07698 0.57723
 O207 O 0.41518 0.05242 0.54616
 O208 O 0.58724 -0.05225 0.54319
 O209 O 0.44834 -0.08652 0.54386
 O210 O 0.55418 0.08654 0.54258
 C211 C 0.57754 0.06470 0.57980
 C212 C 0.42405 -0.06488 0.58008
 C213 C 0.43746 0.07568 0.58312
 C214 C 0.56637 -0.07565 0.58145
 O215 O 0.57702 -0.02315 0.42592
 O216 O 0.42378 0.02519 0.42666
 O217 O 0.52246 0.07710 0.42657
 O218 O 0.47818 -0.07787 0.42774
 O219 O 0.41496 -0.05171 0.45755
 O220 O 0.58609 0.05278 0.45692
 O221 O 0.55398 -0.08637 0.45936
 O222 O 0.44728 0.08725 0.46191
 Co223 Co 0.57402 0.00027 0.50042
 Co224 Co 0.42730 0.00059 0.50117
 Co225 Co 0.50078 0.07359 0.50194
 Co226 Co 0.50136 -0.07369 0.50222
 O227 O 0.50081 0.00013 0.50144
 C228 C 0.57679 -0.06453 0.42147
 C229 C 0.42389 0.06666 0.42365
 C230 C 0.56369 0.07623 0.42025
 C231 C 0.43691 -0.07631 0.42183
 O232 O 0.57752 0.52373 0.07070
 O233 O 0.42446 0.47394 0.07402
 O234 O 0.47835 0.57670 0.07544
 O235 O 0.52177 0.42189 0.07033
 O236 O 0.41468 0.55096 0.04684
 O237 O 0.58507 0.44779 0.04028
 O238 O 0.44614 0.41235 0.03576
 O239 O 0.55345 0.58694 0.03885
 C240 C 0.57723 0.56503 0.07559
 C241 C 0.42366 0.43248 0.07542
 C242 C 0.43721 0.57484 0.08281
 C243 C 0.56304 0.42352 0.07650
 O244 O 0.57528 0.47687 -0.07831
 O245 O 0.42140 0.52533 -0.07277
 O246 O 0.52042 0.57932 -0.07606
 O247 O 0.47704 0.42530 -0.07951
 O248 O 0.41375 0.44901 -0.04663
 O249 O 0.58404 0.55266 -0.04794
 O250 O 0.55277 0.41374 -0.04532
 O251 O 0.44501 0.58781 -0.03879
 Co252 Co 0.57268 0.50023 -0.00365
 Co253 Co 0.42639 0.49983 0.00032
 Co254 Co 0.49931 0.57432 -0.00036
 Co255 Co 0.49944 0.42676 -0.00445
 O256 O 0.49948 0.50035 -0.00200
 C257 C 0.57564 0.43560 -0.08289
 C258 C 0.42125 0.56669 -0.07609
 C259 C 0.56154 0.57685 -0.08392
 C260 C 0.43567 0.42627 -0.08466
 C261 C 1.18110 0.08466 0.17794
 C262 C 1.17291 0.12792 0.20188
 C263 C 1.13016 0.14803 0.19104
 C264 C 1.09815 0.12705 0.15368
 C265 C 1.10734 0.08463 0.12851
 C266 C 1.14852 0.06309 0.14257
 H267 H 1.21344 0.06807 0.18400
 H268 H 1.12151 0.18049 0.21038
 H269 H 1.06639 0.14401 0.14424
 H270 H 1.15660 0.03029 0.12362
 C271 C 1.18347 0.58642 0.66658
 C272 C 1.17494 0.62907 0.69223
 C273 C 1.13165 0.64856 0.68375
 C274 C 1.09900 0.62721 0.64784
 C275 C 1.10824 0.58508 0.62183
 C276 C 1.15031 0.56443 0.63283
 H277 H 1.21631 0.57046 0.67031
 H278 H 1.12296 0.68063 0.70418
 H279 H 1.06663 0.64355 0.64038
 H280 H 1.15848 0.53201 0.61285
 C281 C 0.63565 0.15009 0.68085
 C282 C 0.67895 0.13031 0.68817
 C283 C 0.68678 0.08765 0.66209
 C284 C 0.65287 0.06582 0.62948
 C285 C 0.61072 0.08665 0.61991
 C286 C 0.60227 0.12893 0.64595
 H287 H 0.62736 0.18211 0.70169
 H288 H 0.71952 0.07141 0.66486
 H289 H 0.66042 0.03327 0.60947
 H290 H 0.56984 0.14541 0.63957
 C291 C 0.68622 0.58756 0.15910
 C292 C 0.67799 0.62972 0.18636
 C293 C 0.63462 0.64938 0.17910
 C294 C 0.60156 0.62865 0.14319
 C295 C 0.61039 0.58688 0.11594
 C296 C 0.65263 0.56613 0.12537
 H297 H 0.71905 0.57148 0.16182
 H298 H 0.62607 0.68103 0.20078
 H299 H 0.56904 0.64501 0.13707
 H300 H 0.66044 0.53393 0.10453
 C301 C 0.86667 -0.14951 0.18273
 C302 C 0.82341 -0.12964 0.18992
 C303 C 0.81589 -0.08659 0.16465
 C304 C 0.85000 -0.06449 0.13274
 C305 C 0.89210 -0.08540 0.12306
 C306 C 0.90031 -0.12802 0.14852
 H307 H 0.87467 -0.18189 0.20301
 H308 H 0.78320 -0.07026 0.16738
 H309 H 0.84257 -0.03169 0.11314
 H310 H 0.93265 -0.14461 0.14200
 C311 C 0.81847 0.41507 0.66944
 C312 C 0.82308 0.36949 0.68809
 C313 C 0.86460 0.34754 0.67372
 C314 C 0.89803 0.36901 0.63918
 C315 C 0.89208 0.41366 0.61995
 C316 C 0.85253 0.43675 0.63677
 H317 H 0.78786 0.43424 0.67654
 H318 H 0.87246 0.31386 0.68951
 H319 H 0.92862 0.35071 0.62764
 H320 H 0.84677 0.47128 0.62208
 C321 C 0.36431 -0.15074 0.67930
 C322 C 0.32119 -0.13051 0.68610
 C323 C 0.31397 -0.08764 0.66017
 C324 C 0.34835 -0.06591 0.62835
 C325 C 0.39040 -0.08707 0.61934
 C326 C 0.39822 -0.12964 0.64513
 H327 H 0.37208 -0.18300 0.70006
 H328 H 0.28138 -0.07108 0.66251
 H329 H 0.34125 -0.03311 0.60858
 H330 H 0.43055 -0.14638 0.63918
 C331 C 0.32954 0.41200 0.18897
 C332 C 0.31847 0.36615 0.17876
 C333 C 0.34497 0.34229 0.13579
 C334 C 0.38042 0.36318 0.10467
 C335 C 0.39049 0.40880 0.11452
 C336 C 0.36492 0.43289 0.15736
 H337 H 0.31195 0.43197 0.22249
 H338 H 0.33731 0.30790 0.12300
 H339 H 0.39879 0.34397 0.07094
 H340 H 0.37185 0.46828 0.16591
 C341 C 0.81710 0.08712 -0.16348
 C342 C 0.82474 0.13003 -0.18905
 C343 C 0.86789 0.14988 -0.18125
 C344 C 0.90127 0.12853 -0.14624
 C345 C 0.89295 0.08603 -0.12056
 C346 C 0.85098 0.06515 -0.13078
 H347 H 0.78448 0.07080 -0.16660
 H348 H 0.87603 0.18214 -0.20170
 H349 H 0.93352 0.14511 -0.13934
 H350 H 0.84345 0.03243 -0.11107
 C351 C 0.86381 0.65286 0.32374
 C352 C 0.82260 0.63070 0.30874
 C353 C 0.81835 0.58501 0.32689
 C354 C 0.85240 0.56345 0.35994
 C355 C 0.89160 0.58676 0.37747
 C356 C 0.89724 0.63150 0.35854
 H357 H 0.87140 0.68666 0.30825
 H358 H 0.78796 0.56571 0.31914
 H359 H 0.84689 0.52883 0.37432
 H360 H 0.92757 0.64996 0.37054
 C361 C 0.34600 0.15749 0.36275
 C362 C 0.31883 0.13370 0.32058
 C363 C 0.32931 0.08759 0.31081
 C364 C 0.36464 0.06637 0.34231
 C365 C 0.39080 0.09042 0.38443
 C366 C 0.38145 0.13630 0.39362
 H367 H 0.33889 0.19210 0.37520
 H368 H 0.31126 0.06762 0.27779
 H369 H 0.37106 0.03080 0.33426
 H370 H 0.40033 0.15552 0.42678
 C371 C 0.31390 0.58741 -0.16423
 C372 C 0.31864 0.63259 -0.18435
 C373 C 0.36008 0.65470 -0.17044
 C374 C 0.39362 0.63357 -0.13560
 C375 C 0.38777 0.58915 -0.11557
 C376 C 0.34805 0.56606 -0.13126
 H377 H 0.28321 0.56833 -0.17067
 H378 H 0.36790 0.68813 -0.18714
 H379 H 0.42437 0.65180 -0.12490
 H380 H 0.34242 0.53170 -0.11585
 C381 C 1.13227 -0.14762 -0.18336
 C382 C 1.17578 -0.12857 -0.19102
 C383 C 1.18459 -0.08635 -0.16439
 C384 C 1.15147 -0.06431 -0.13062
 C385 C 1.10915 -0.08451 -0.12054
 C386 C 1.09965 -0.12625 -0.14738
 H387 H 1.12334 -0.17931 -0.20458
 H388 H 1.21757 -0.07074 -0.16745
 H389 H 1.15983 -0.03221 -0.10994
 H390 H 1.06707 -0.14222 -0.14058
 C391 C 1.13045 0.35244 0.30997
 C392 C 1.17319 0.37249 0.29928
 C393 C 1.18131 0.41563 0.32354
 C394 C 1.14867 0.43714 0.35908
 C395 C 1.10748 0.41566 0.37291
 C396 C 1.09839 0.37335 0.34742
 H397 H 1.12183 0.32009 0.29037
 H398 H 1.21363 0.43218 0.31753
 H399 H 1.15668 0.46986 0.37823
 H400 H 1.06663 0.35643 0.35663
 C401 C 0.63425 -0.14999 0.31959
 C402 C 0.67751 -0.13035 0.31200
 C403 C 0.68550 -0.08781 0.33828
 C404 C 0.65177 -0.06591 0.37116
 C405 C 0.60966 -0.08659 0.38096
 C406 C 0.60105 -0.12878 0.35487
 H407 H 0.62582 -0.18192 0.29867
 H408 H 0.71823 -0.07169 0.33547
 H409 H 0.65944 -0.03343 0.39122
 H410 H 0.56865 -0.14515 0.36148
 C411 C 0.63453 0.35042 -0.18387
 C412 C 0.67751 0.37064 -0.19176
 C413 C 0.68473 0.41361 -0.16634
 C414 C 0.65062 0.43523 -0.13370
 C415 C 0.60892 0.41387 -0.12328
 C416 C 0.60101 0.37135 -0.14883
 H417 H 0.62663 0.31816 -0.20425
 H418 H 0.71719 0.43025 -0.16952
 H419 H 0.65773 0.46805 -0.11426
 H420 H 0.56891 0.35446 -0.14192
 C421 C 1.15513 0.13762 -0.17051
 C422 C 1.13266 0.17860 -0.18640
 C423 C 1.08702 0.18293 -0.16807
 C424 C 1.06574 0.14906 -0.13440
 C425 C 1.08930 0.11001 -0.11635
 C426 C 1.13406 0.10443 -0.13507
 H427 H 1.18890 0.12988 -0.18593
 H428 H 1.06748 0.21315 -0.17644
 H429 H 1.03107 0.15447 -0.12023
 H430 H 1.15269 0.07418 -0.12270
 C431 C 1.15359 0.63621 0.32482
 C432 C 1.13198 0.67794 0.31058
 C433 C 1.08661 0.68313 0.32970
 C434 C 1.06478 0.64931 0.36268
 C435 C 1.08757 0.60951 0.37928
 C436 C 1.13200 0.60302 0.35962
 H437 H 1.18709 0.62806 0.30865
 H438 H 1.06785 0.71407 0.32292
 H439 H 1.03044 0.65542 0.37776
 H440 H 1.15001 0.57219 0.37098
 C441 C 0.64861 0.13413 0.31789
 C442 C 0.62864 0.17732 0.31032
 C443 C 0.58583 0.18496 0.33613
 C444 C 0.56413 0.15105 0.36903
 C445 C 0.58523 0.10908 0.37908
 C446 C 0.62756 0.10074 0.35303
 H447 H 0.68076 0.12601 0.29720
 H448 H 0.56943 0.21761 0.33307
 H449 H 0.53155 0.15854 0.38908
 H450 H 0.64426 0.06846 0.35979
 C451 C 0.64980 0.63350 -0.18234
 C452 C 0.62858 0.67519 -0.19765
 C453 C 0.58285 0.68053 -0.18030
 C454 C 0.56069 0.64738 -0.14627
 C455 C 0.58343 0.60800 -0.12746
 C456 C 0.62785 0.60094 -0.14689
 H457 H 0.68348 0.62512 -0.19763
 H458 H 0.56435 0.71142 -0.18895
 H459 H 0.52626 0.65386 -0.13182
 H460 H 0.64581 0.57036 -0.13422
 C461 C 0.91351 -0.18649 -0.15801
 C462 C 0.87024 -0.17936 -0.18287
 C463 C 0.84992 -0.13639 -0.17484
 C464 C 0.87112 -0.10273 -0.14045
 C465 C 0.91400 -0.11048 -0.11558
 C466 C 0.93534 -0.15229 -0.12587
 H467 H 0.93028 -0.21891 -0.16148
 H468 H 0.81744 -0.12849 -0.19484
 H469 H 0.85420 -0.07061 -0.13361
 H470 H 0.96839 -0.15933 -0.10686
 C471 C 0.91202 0.31577 0.33619
 C472 C 0.86895 0.32338 0.31107
 C473 C 0.84885 0.36643 0.31923
 C474 C 0.87014 0.39973 0.35410
 C475 C 0.91283 0.39147 0.37918
 C476 C 0.93395 0.34961 0.36867
 H477 H 0.92855 0.28323 0.33278
 H478 H 0.81649 0.37460 0.29909
 H479 H 0.85343 0.43194 0.36117
 H480 H 0.96687 0.34221 0.38785
 C481 C 0.41382 -0.18578 0.34060
 C482 C 0.37139 -0.17793 0.31375
 C483 C 0.35171 -0.13452 0.32018
 C484 C 0.37277 -0.10100 0.35496
 C485 C 0.41484 -0.10949 0.38179
 C486 C 0.43553 -0.15181 0.37309
 H487 H 0.42996 -0.21859 0.33855
 H488 H 0.31984 -0.12626 0.29875
 H489 H 0.35638 -0.06847 0.36063
 H490 H 0.46792 -0.15945 0.39368
 C491 C 0.41556 0.32016 -0.17484
 C492 C 0.36963 0.32392 -0.19215
 C493 C 0.34725 0.36518 -0.17769
 C494 C 0.36866 0.39906 -0.14402
 C495 C 0.41364 0.39385 -0.12595
 C496 C 0.43715 0.35469 -0.14322
 H497 H 0.43519 0.28989 -0.18204
 H498 H 0.31322 0.37245 -0.19252
 H499 H 0.34999 0.42932 -0.13204
 H500 H 0.47195 0.34947 -0.12942
 C501 C 1.08741 -0.18283 0.17122
 C502 C 1.13284 -0.17822 0.19039
 C503 C 1.15485 -0.13680 0.17600
 C504 C 1.13354 -0.10334 0.14118
 C505 C 1.08900 -0.10921 0.12168
 C506 C 1.06587 -0.14873 0.13830
 H507 H 1.06833 -0.21349 0.17799
 H508 H 1.18843 -0.12904 0.19211
 H509 H 1.15181 -0.07273 0.12978
 H510 H 1.03143 -0.15437 0.12335
 C511 C 1.08799 0.31433 0.66186
 C512 C 1.13047 0.32231 0.68837
 C513 C 1.15037 0.36542 0.68010
 C514 C 1.12959 0.39840 0.64378
 C515 C 1.08755 0.38977 0.61714
 C516 C 1.06654 0.34785 0.62769
 H517 H 1.07168 0.28172 0.66550
 H518 H 1.18226 0.37382 0.70126
 H519 H 1.14614 0.43067 0.63688
 H520 H 1.03409 0.34021 0.60742
 C521 C 0.58733 -0.16805 0.69764
 C522 C 0.63354 -0.17844 0.68835
 C523 C 0.65746 -0.15145 0.64591
 C524 C 0.63622 -0.11654 0.61400
 C525 C 0.59016 -0.10758 0.62232
 C526 C 0.56605 -0.13332 0.66501
 H527 H 0.56729 -0.18589 0.73091
 H528 H 0.69217 -0.15844 0.63379
 H529 H 0.65553 -0.09796 0.58053
 H530 H 0.53035 -0.12711 0.67249
 C531 C 0.58647 0.31471 0.15989
 C532 C 0.62864 0.32299 0.18709
 C533 C 0.64802 0.36643 0.18011
 C534 C 0.62689 0.39961 0.14450
 C535 C 0.58509 0.39070 0.11732
 C536 C 0.56471 0.34833 0.12646
 H537 H 0.57064 0.28181 0.16239
 H538 H 0.67971 0.37494 0.20173
 H539 H 0.64304 0.43218 0.13842
 H540 H 0.53258 0.34038 0.10548
 C541 C 0.84932 0.13503 0.17987
 C542 C 0.86906 0.17824 0.18748
 C543 C 0.91178 0.18610 0.16156
 C544 C 0.93377 0.15229 0.12896
 C545 C 0.91304 0.11022 0.11918
 C546 C 0.87065 0.10175 0.14493
 H547 H 0.81724 0.12671 0.20059
 H548 H 0.92799 0.21878 0.16453
 H549 H 0.96644 0.15982 0.10923
 H550 H 0.85427 0.06937 0.13842
 C551 C 0.91304 0.68397 0.66540
 C552 C 0.87034 0.67597 0.69136
 C553 C 0.85028 0.63305 0.68225
 C554 C 0.87115 0.60035 0.64577
 C555 C 0.91343 0.60899 0.61978
 C556 C 0.93456 0.65069 0.63111
 H557 H 0.92955 0.71642 0.66960
 H558 H 0.81825 0.62452 0.70293
 H559 H 0.85445 0.56826 0.63823
 H560 H 0.96717 0.65840 0.61131
 C561 C 0.35230 0.13365 0.68509
 C562 C 0.37177 0.17708 0.69145
 C563 C 0.41434 0.18484 0.66501
 C564 C 0.43632 0.15080 0.63284
 C565 C 0.41569 0.10856 0.62391
 C566 C 0.37357 0.10011 0.65048
 H567 H 0.32033 0.12545 0.70622
 H568 H 0.43033 0.21767 0.66689
 H569 H 0.46873 0.15839 0.61239
 H570 H 0.35721 0.06765 0.64453
 C571 C 0.35210 0.63242 0.18541
 C572 C 0.37205 0.67553 0.19303
 C573 C 0.41499 0.68303 0.16758
 C574 C 0.43676 0.64916 0.13484
 C575 C 0.41565 0.60732 0.12449
 C576 C 0.37325 0.59905 0.15037
 H577 H 0.31986 0.62436 0.20585
 H578 H 0.43142 0.71559 0.17066
 H579 H 0.46942 0.65666 0.11504
 H580 H 0.35650 0.56690 0.14342
   
