data_POSCAR
  _audit_creation_date              2014-09-24
  _audit_creation_method            'ToBaCCo'
  _symmetry_space_group_name_H-M    'P1'
  _symmetry_Int_Tables_number       1
  _symmetry_cell_setting            triclinic
  loop_
  _symmetry_equiv_pos_as_xyz
 x,y,z
_cell_length_a 35.3578
_cell_length_b 34.7664
_cell_length_c 34.7384
_cell_angle_alpha 90.533600
_cell_angle_beta 89.892400
_cell_angle_gamma 89.642800
loop_
  _atom_site_label
  _atom_site_type_symbol
  _atom_site_fract_x
  _atom_site_fract_y
  _atom_site_fract_z
N1 N 0.34291 0.35908 0.34916
 N2 N 0.35122 0.85793 -0.14901
 N3 N 0.84699 0.34782 -0.14287
 N4 N 0.84882 0.85210 0.35468
 N5 N 0.64922 0.65634 0.35481
 N6 N 0.65552 0.15052 -0.14849
 N7 N 0.15435 0.64351 -0.15538
 N8 N 0.14756 0.14856 0.34756
 N9 N 0.64821 0.34992 0.64512
 N10 N 0.64358 0.84413 1.15060
 N11 N 0.14634 0.35609 1.15152
 N12 N 0.15138 0.85434 0.65926
 N13 N 0.35533 0.64585 0.65656
 N14 N 0.34917 0.14839 1.15694
 N15 N 0.85623 0.66084 1.15261
 N16 N 0.85023 0.15976 0.64277
 N17 N 0.35791 0.33988 0.64572
 N18 N 0.34955 0.84642 0.14776
 N19 N 0.85231 0.35809 0.15346
 N20 N 0.86129 0.85296 0.64659
 N21 N 0.65145 0.65137 0.65191
 N22 N 0.64823 0.15317 0.15444
 N23 N 0.14491 0.65238 0.14595
 N24 N 0.14805 0.15181 0.65043
 N25 N 0.34838 0.65157 0.35596
 N26 N 0.35459 0.15463 0.85596
 N27 N 0.85309 0.64637 0.84729
 N28 N 0.85231 0.14575 0.34464
 N29 N 0.64935 0.35798 0.34782
 N30 N 0.65981 0.85530 0.84622
 N31 N 0.15126 0.35107 0.85194
 N32 N 0.15339 0.85118 0.35924
 O33 O 0.25845 1.02650 0.32216
 O34 O 0.31234 0.95502 0.26907
 O35 O 0.31117 1.02925 0.26829
 O36 O 0.24590 0.95486 0.30394
 O37 O 0.20889 0.96687 0.25418
 O38 O 0.27304 1.03858 0.21881
 O39 O 0.27573 0.96247 0.21820
 O40 O 0.22166 1.03792 0.27219
 Cu41 Cu 0.28523 0.99054 0.29552
 Cu42 Cu 0.24192 1.00173 0.23633
 C43 C 0.23108 1.04439 0.30710
 C44 C 0.30414 0.94675 0.23465
 C45 C 0.30299 1.04624 0.23691
 C46 C 0.21544 0.94923 0.28509
 O47 O 0.23820 0.53079 0.79047
 O48 O 0.30403 0.45370 0.75894
 O49 O 0.30579 0.52758 0.76095
 O50 O 0.23845 0.45576 0.79400
 O51 O 0.20990 0.45616 0.73741
 O52 O 0.27763 0.52824 0.70416
 O53 O 0.27581 0.45243 0.70226
 O54 O 0.21033 0.52927 0.73355
 Cu55 Cu 0.27424 0.49186 0.78187
 Cu56 Cu 0.24104 0.49115 0.71332
 C57 C 0.21288 0.54283 0.76744
 C58 C 0.30120 0.44023 0.72495
 C59 C 0.30308 0.54021 0.72702
 C60 C 0.21230 0.44446 0.77182
 O61 O 0.69574 0.04015 0.24515
 O62 O 0.73220 -0.03491 0.31143
 O63 O 0.73390 0.03898 0.30959
 O64 O 0.67684 -0.03152 0.25953
 O65 O 0.72391 -0.04681 0.22029
 O66 O 0.78225 0.02775 0.27048
 O67 O 0.77897 -0.04729 0.27086
 O68 O 0.74247 0.02507 0.20554
 Cu69 Cu 0.70546 0.00386 0.28457
 Cu70 Cu 0.76122 -0.01128 0.23781
 C71 C 0.71352 0.04513 0.21359
 C72 C 0.76264 -0.05296 0.30264
 C73 C 0.76779 0.04494 0.29981
 C74 C 0.68995 -0.05159 0.23199
 O75 O 0.78774 0.52618 0.77106
 O76 O 0.72832 0.45472 0.71896
 O77 O 0.74853 0.52535 0.70510
 O78 O 0.78151 0.45054 0.77057
 O79 O 0.73445 0.46427 0.81031
 O80 O 0.70174 0.54152 0.74426
 O81 O 0.68069 0.47100 0.75713
 O82 O 0.73901 0.53869 0.80927
 Cu83 Cu 0.76607 0.48849 0.73788
 Cu84 Cu 0.70986 0.50474 0.78358
 C85 C 0.77322 0.54359 0.80011
 C86 C 0.69392 0.45113 0.72953
 C87 C 0.71987 0.54609 0.71283
 C88 C 0.76418 0.44484 0.80188
 O89 O 0.18901 0.53266 0.25417
 O90 O 0.25912 0.46321 0.28905
 O91 O 0.24099 0.53315 0.30792
 O92 O 0.20621 0.46181 0.23795
 O93 O 0.24748 0.48231 0.19502
 O94 O 0.28235 0.55387 0.26521
 O95 O 0.30094 0.48409 0.24683
 O96 O 0.23085 0.55332 0.21188
 Cu97 Cu 0.21962 0.49576 0.27667
 Cu98 Cu 0.26953 0.52052 0.22535
 C99 C 0.19806 0.55455 0.22666
 C100 C 0.29187 0.46198 0.27409
 C101 C 0.26791 0.55524 0.29869
 C102 C 0.22083 0.45994 0.20462
 O103 O 0.73745 1.04517 0.77571
 O104 O 0.79540 0.97378 0.71993
 O105 O 0.79021 1.04952 0.72184
 O106 O 0.75935 0.97422 0.78638
 O107 O 0.71063 0.96046 0.74917
 O108 O 0.74135 1.03880 0.68383
 O109 O 0.74628 0.96464 0.68183
 O110 O 0.68928 1.03164 0.73774
 Cu111 Cu 0.77476 1.01179 0.75418
 Cu112 Cu 0.71739 0.99766 0.70989
 C113 C 0.70283 1.04960 0.76628
 C114 C 0.78025 0.95763 0.69062
 C115 C 0.77161 1.05715 0.69181
 C116 C 0.72985 0.95489 0.77973
 O117 O 0.71390 0.47898 0.27154
 O118 O 0.77285 0.55303 0.22128
 O119 O 0.75191 0.48178 0.20519
 O120 O 0.71805 0.55431 0.27245
 O121 O 0.76449 0.54135 0.31281
 O122 O 0.79903 0.46702 0.24396
 O123 O 0.81934 0.53863 0.26100
 O124 O 0.76246 0.46810 0.31003
 Cu125 Cu 0.73492 0.51801 0.23883
 Cu126 Cu 0.79074 0.50271 0.28468
 C127 C 0.72851 0.46196 0.30058
 C128 C 0.80664 0.55824 0.23335
 C129 C 0.78088 0.46187 0.21265
 C130 C 0.73437 0.55975 0.30430
 O131 O 0.26678 -0.03727 0.79151
 O132 O 0.19703 0.03177 0.75569
 O133 O 0.21378 -0.03897 0.74092
 O134 O 0.24971 0.03348 0.80871
 O135 O 0.29071 0.05340 0.76526
 O136 O 0.25428 -0.01929 0.69683
 O137 O 0.23829 0.05198 0.71258
 O138 O 0.30815 -0.01736 0.74837
 Cu139 Cu 0.22769 -0.00450 0.77877
 Cu140 Cu 0.27703 0.01918 0.72633
 C141 C 0.29927 -0.03904 0.77608
 C142 C 0.20561 0.05312 0.72761
 C143 C 0.22768 -0.04133 0.70732
 C144 C 0.27656 0.05540 0.79886
 O145 O 0.25112 0.30670 0.97980
 O146 O 0.28817 0.23843 1.05244
 O147 O 0.30694 0.25694 0.98187
 O148 O 0.23581 0.29194 1.05129
 O149 O 0.19493 0.24915 1.02957
 O150 O 0.26655 0.21359 0.96038
 O151 O 0.24768 0.19511 1.03124
 O152 O 0.21119 0.26287 0.95838
 Cu153 Cu 0.27457 0.27774 1.01844
 Cu154 Cu 0.22626 0.22552 0.99306
 C155 C 0.22478 0.29652 0.95694
 C156 C 0.27397 0.20496 1.05417
 C157 C 0.29874 0.22959 0.95904
 C158 C 0.20314 0.27715 1.05177
 O159 O 0.25279 0.80644 0.48610
 O160 O 0.29220 0.73685 0.55517
 O161 O 0.30705 0.75505 0.48380
 O162 O 0.23879 0.78926 0.55718
 O163 O 0.19720 0.74663 0.53665
 O164 O 0.26553 0.71217 0.46362
 O165 O 0.25097 0.69384 0.53471
 O166 O 0.21189 0.76313 0.46546
 Cu167 Cu 0.27688 0.77617 0.52262
 Cu168 Cu 0.22730 0.72446 0.49834
 C169 C 0.22570 0.79668 0.46413
 C170 C 0.27833 0.70329 0.55643
 C171 C 0.29775 0.72788 0.46108
 C172 C 0.20621 0.77425 0.55896
 O173 O 0.29420 0.76834 -0.04088
 O174 O 0.25722 0.70213 0.03295
 O175 O 0.26092 0.70095 -0.04099
 O176 O 0.29294 0.76734 0.03465
 O177 O 0.23830 0.79848 0.03277
 O178 O 0.20570 0.73097 -0.04280
 O179 O 0.20250 0.73317 0.03276
 O180 O 0.23896 0.79834 -0.04135
 Cu181 Cu 0.28193 0.73183 -0.00355
 Cu182 Cu 0.21576 0.76812 -0.00496
 C183 C 0.27281 0.79507 -0.05319
 C184 C 0.22357 0.70644 0.04535
 C185 C 0.22770 0.70413 -0.05426
 C186 C 0.27131 0.79418 0.04652
 O187 O 0.17977 0.25893 0.47038
 O188 O 0.23856 0.31065 0.53865
 O189 O 0.23213 0.31151 0.46617
 O190 O 0.19984 0.24513 0.54276
 O191 O 0.24589 0.20525 0.52582
 O192 O 0.27891 0.27138 0.45191
 O193 O 0.28602 0.27031 0.52787
 O194 O 0.22676 0.21940 0.45539
 Cu195 Cu 0.20778 0.28448 0.50619
 Cu196 Cu 0.26398 0.23825 0.48967
 C197 C 0.19269 0.23080 0.45099
 C198 C 0.27232 0.30016 0.54452
 C199 C 0.26178 0.30298 0.44671
 C200 C 0.21759 0.21336 0.54685
 O201 O 0.74357 0.79529 0.96247
 O202 O 0.79424 0.73949 1.03822
 O203 O 0.80782 0.75417 0.96520
 O204 O 0.75613 0.80525 1.03594
 O205 O 0.71109 0.76164 1.03766
 O206 O 0.76518 0.70837 0.96026
 O207 O 0.74965 0.69559 1.03281
 O208 O 0.70058 0.74957 0.96339
 Cu209 Cu 0.77903 0.77689 1.00041
 Cu210 Cu 0.72808 0.72540 0.99818
 C211 C 0.71181 0.78149 0.95139
 C212 C 0.77991 0.70708 1.04770
 C213 C 0.79726 0.72273 0.95089
 C214 C 0.72521 0.79371 1.04923
 O215 O 0.77483 0.21637 0.46025
 O216 O 0.72093 0.27304 0.53420
 O217 O 0.70782 0.25326 0.46326
 O218 O 0.77366 0.22192 0.53597
 O219 O 0.81107 0.27102 0.52411
 O220 O 0.74400 0.30269 0.44917
 O221 O 0.75664 0.32305 0.52033
 O222 O 0.81020 0.26750 0.44984
 Cu223 Cu 0.74096 0.23602 0.49875
 Cu224 Cu 0.78332 0.29518 0.48489
 C225 C 0.80280 0.23245 0.44357
 C226 C 0.73015 0.30817 0.53964
 C227 C 0.71385 0.28339 0.44431
 C228 C 0.80351 0.24052 0.54250
 O229 O 0.77282 0.28931 0.03791
 O230 O 0.72036 0.23079 -0.03510
 O231 O 0.70593 0.25338 0.03558
 O232 O 0.77096 0.28397 -0.03721
 O233 O 0.80983 0.23565 -0.02455
 O234 O 0.74276 0.20424 0.05049
 O235 O 0.75791 0.18197 -0.02085
 O236 O 0.80939 0.23874 0.04870
 Cu237 Cu 0.73910 0.26881 -0.00020
 Cu238 Cu 0.78265 0.21058 0.01475
 C239 C 0.80138 0.27377 0.05437
 C240 C 0.73103 0.19592 -0.04031
 C241 C 0.71236 0.22369 0.05511
 C242 C 0.80155 0.26604 -0.04312
 O243 O 0.70363 0.76847 0.46763
 O244 O 0.77207 0.79639 0.54221
 O245 O 0.77175 0.79539 0.46681
 O246 O 0.70615 0.76198 0.54095
 O247 O 0.73421 0.70497 0.53927
 O248 O 0.79955 0.73822 0.46503
 O249 O 0.79983 0.73933 0.53870
 O250 O 0.73117 0.71126 0.46417
 Cu251 Cu 0.73597 0.78650 0.50500
 Cu252 Cu 0.76862 0.71750 0.50166
 C253 C 0.70580 0.73492 0.45326
 C254 C 0.79780 0.77316 0.55268
 C255 C 0.79685 0.77253 0.45349
 C256 C 0.70881 0.72745 0.55223
 O257 O 0.96297 0.27044 0.20376
 O258 O 1.03702 0.20237 0.23484
 O259 O 0.96390 0.20200 0.23448
 O260 O 1.03697 0.27047 0.20392
 O261 O 1.03573 0.29820 0.26144
 O262 O 0.96244 0.22987 0.29188
 O263 O 1.03705 0.23018 0.29230
 O264 O 0.96359 0.29829 0.26122
 Cu265 Cu 1.00021 0.23367 0.21341
 Cu266 Cu 0.99958 0.26649 0.28275
 C267 C 0.95128 0.29635 0.22699
 C268 C 1.04962 0.20483 0.26895
 C269 C 0.95080 0.20428 0.26845
 C270 C 1.04842 0.29620 0.22727
 O271 O 0.47346 0.22711 0.69173
 O272 O 0.54933 0.19969 0.76003
 O273 O 0.47896 0.17785 0.74892
 O274 O 0.54617 0.22945 0.69088
 O275 O 0.53711 0.28253 0.72526
 O276 O 0.46555 0.22960 0.78376
 O277 O 0.53617 0.25161 0.79472
 O278 O 0.46289 0.27914 0.72724
 Cu279 Cu 0.51291 0.20381 0.72024
 Cu280 Cu 0.49954 0.26538 0.76096
 C281 C 0.45572 0.25866 0.69796
 C282 C 0.55540 0.22131 0.78928
 C283 C 0.46041 0.19405 0.77573
 C284 C 0.55303 0.26453 0.69721
 O285 O 0.03234 0.24717 0.80825
 O286 O -0.03742 0.19864 0.75658
 O287 O 0.03448 0.21022 0.73916
 O288 O -0.03959 0.26603 0.79413
 O289 O -0.03506 0.30967 0.74874
 O290 O 0.03247 0.25732 0.69713
 O291 O -0.03946 0.24207 0.71077
 O292 O 0.03682 0.29375 0.76594
 Cu293 Cu -0.00238 0.22746 0.77775
 Cu294 Cu -0.00112 0.27891 0.72773
 C295 C 0.04672 0.27830 0.79797
 C296 C -0.05058 0.21004 0.72518
 C297 C 0.04486 0.22507 0.70704
 C298 C -0.04946 0.29853 0.77963
 O299 O 0.45733 0.29800 0.26470
 O300 O 0.53305 0.24348 0.21004
 O301 O 0.46111 0.25986 0.19755
 O302 O 0.52916 0.31297 0.24626
 O303 O 0.53483 0.27101 0.29306
 O304 O 0.46016 0.21411 0.24110
 O305 O 0.53189 0.20190 0.25758
 O306 O 0.46282 0.25288 0.30846
 Cu307 Cu 0.49530 0.28175 0.22667
 Cu308 Cu 0.49759 0.23220 0.27844
 C309 C 0.44762 0.28341 0.29717
 C310 C 0.54403 0.21163 0.22522
 C311 C 0.44901 0.22810 0.20882
 C312 C 0.54403 0.30302 0.27734
 O313 O 1.03557 0.80761 0.77120
 O314 O 0.95912 0.74016 0.79902
 O315 O 1.03030 0.75090 0.82015
 O316 O 0.96383 0.80916 0.76685
 O317 O 0.97284 0.77345 0.71469
 O318 O 1.04365 0.71532 0.76892
 O319 O 0.97339 0.70441 0.74815
 O320 O 1.04711 0.77109 0.72006
 Cu321 Cu 0.99580 0.77965 0.79450
 Cu322 Cu 1.00976 0.73791 0.73309
 C323 C 1.05377 0.80084 0.74002
 C324 C 0.95370 0.71032 0.77806
 C325 C 1.04870 0.72375 0.80437
 C326 C 0.95743 0.80227 0.73176
 O327 O 0.53254 0.77346 0.22422
 O328 O 0.45942 0.72182 0.28007
 O329 O 0.53387 0.72311 0.28014
 O330 O 0.45851 0.77298 0.22430
 O331 O 0.46030 0.72590 0.18119
 O332 O 0.53380 0.67631 0.23673
 O333 O 0.46118 0.67502 0.23665
 O334 O 0.53241 0.72634 0.18108
 Cu335 Cu 0.49592 0.75256 0.25661
 Cu336 Cu 0.49695 0.69617 0.20475
 C337 C 0.54416 0.75880 0.19266
 C338 C 0.44853 0.68911 0.26797
 C339 C 0.54623 0.69081 0.26788
 C340 C 0.44748 0.75824 0.19263
 O341 O -0.02472 0.82694 0.24958
 O342 O 0.04292 0.77234 0.19409
 O343 O -0.02845 0.77432 0.19601
 O344 O 0.04654 0.80431 0.26475
 O345 O 0.03197 0.75448 0.30050
 O346 O -0.04021 0.72486 0.23359
 O347 O 0.03410 0.72082 0.22976
 O348 O -0.03780 0.77719 0.28626
 Cu349 Cu 0.01075 0.79925 0.22405
 Cu350 Cu -0.00318 0.73952 0.26594
 C351 C -0.04371 0.81210 0.27636
 C352 C 0.04931 0.73732 0.20077
 C353 C -0.04661 0.74354 0.20335
 C354 C 0.05155 0.78406 0.29486
 O355 O 0.46534 0.79664 0.76684
 O356 O 0.53899 0.74030 0.71178
 O357 O 0.46707 0.75771 0.70022
 O358 O 0.53717 0.80914 0.74860
 O359 O 0.54216 0.76715 0.79544
 O360 O 0.46552 0.71184 0.74357
 O361 O 0.53741 0.69852 0.75916
 O362 O 0.46989 0.75155 0.81078
 Cu363 Cu 0.50225 0.77913 0.72872
 Cu364 Cu 0.50374 0.72935 0.78060
 C365 C 0.45576 0.78263 0.79955
 C366 C 0.54953 0.70826 0.72678
 C367 C 0.45440 0.72610 0.71137
 C368 C 0.55192 0.79902 0.77973
 C369 C 0.37357 0.33176 0.34609
 C370 C 0.38660 0.30994 0.37625
 C371 C 0.41624 0.28966 0.36147
 C372 C 0.41939 0.30070 0.32345
 O373 O 0.39347 0.32635 0.31392
 H374 H 0.37637 0.30929 0.40559
 H375 H 0.43378 0.26921 0.37671
 C376 C 0.38319 0.83232 0.84860
 C377 C 0.39862 0.81372 0.87973
 C378 C 0.42833 0.79351 0.86504
 C379 C 0.42903 0.80150 0.82613
 O380 O 0.40165 0.82519 0.81595
 H381 H 0.38965 0.81501 0.90951
 H382 H 0.44735 0.77493 0.88082
 C383 C -0.12282 0.34610 0.82942
 C384 C -0.10961 0.37725 0.80930
 C385 C -0.07999 0.36317 0.78841
 C386 C -0.07718 0.32464 0.79760
 O387 O -0.10318 0.31413 0.82243
 H388 H -0.11964 0.40670 0.81030
 H389 H -0.06221 0.37917 0.76893
 C390 C -0.11989 0.85334 0.32799
 C391 C -0.10734 0.88641 0.31056
 C392 C -0.07680 0.87517 0.28926
 C393 C -0.07294 0.83611 0.29521
 O394 O -0.09913 0.82273 0.31861
 H395 H -0.11868 0.91527 0.31343
 H396 H -0.05921 0.89335 0.27164
 C397 C 0.61829 0.65372 0.32764
 C398 C 0.60767 0.61979 0.30976
 C399 C 0.57942 0.62960 0.28527
 C400 C 0.57443 0.66871 0.28996
 O401 O 0.59791 0.68361 0.31581
 H402 H 0.61926 0.59124 0.31385
 H403 H 0.56401 0.61044 0.26631
 C404 C 0.62787 0.18043 0.84477
 C405 C 0.61605 0.20777 0.87142
 C406 C 0.58791 0.22775 0.85349
 C407 C 0.58439 0.21088 0.81758
 O408 O 0.60856 0.18234 0.81220
 H409 H 0.62531 0.21189 0.90079
 H410 H 0.57097 0.25090 0.86566
 C411 C 1.12097 0.66763 0.84573
 C412 C 1.10458 0.68114 0.87937
 C413 C 1.07533 0.70380 0.86797
 C414 C 1.07566 0.70218 0.82825
 O415 O 1.10340 0.68026 0.81453
 H416 H 1.11305 0.67527 0.90867
 H417 H 1.05595 0.71965 0.88644
 C418 C 1.12119 0.15331 0.31614
 C419 C 1.11422 0.12657 0.28727
 C420 C 1.08693 0.14286 0.26483
 C421 C 1.07894 0.17790 0.28191
 O422 O 1.09963 0.18435 0.31284
 H423 H 1.12645 0.09827 0.28319
 H424 H 1.07360 0.13023 0.23975
 C425 C 0.62022 0.31997 0.64774
 C426 C 0.60948 0.29644 0.61749
 C427 C 0.58292 0.27272 0.63246
 C428 C 0.57881 0.28385 0.67045
 O429 O 0.60135 0.31258 0.67992
 H430 H 0.61912 0.29672 0.58795
 H431 H 0.56784 0.25018 0.61739
 C432 C 0.61311 0.81675 0.14984
 C433 C 0.60049 0.79840 0.11686
 C434 C 0.57306 0.77412 0.12891
 C435 C 0.57064 0.77972 0.16817
 O436 O 0.59472 0.80577 0.18108
 H437 H 0.60998 0.80225 0.08752
 H438 H 0.55637 0.75495 0.11115
 C439 C 1.11800 0.35078 0.18109
 C440 C 1.10720 0.37807 0.20834
 C441 C 1.08031 0.36065 0.23018
 C442 C 1.07620 0.32446 0.21433
 O443 O 1.09889 0.31837 0.18464
 H444 H 1.11675 0.40737 0.21172
 H445 H 1.06466 0.37324 0.25401
 C446 C 1.12328 0.85140 0.68946
 C447 C 1.11146 0.88135 0.71325
 C448 C 1.08475 0.86593 0.73688
 C449 C 1.08196 0.82800 0.72557
 O450 O 1.10512 0.81914 0.69682
 H451 H 1.12019 0.91110 0.71289
 H452 H 1.06818 0.88088 0.75861
 C453 C 0.38542 0.67334 0.66047
 C454 C 0.40043 0.69323 0.62999
 C455 C 0.42825 0.71494 0.64561
 C456 C 0.42851 0.70661 0.68446
 O457 O 0.40245 0.68125 0.69372
 H458 H 0.39248 0.69175 0.59995
 H459 H 0.44655 0.73451 0.63038
 C460 C 0.37943 0.17563 0.15953
 C461 C 0.39515 0.19364 0.12824
 C462 C 0.42362 0.21504 0.14311
 C463 C 0.42343 0.20818 0.18225
 O464 O 0.39660 0.18422 0.19243
 H465 H 0.38737 0.19098 0.09824
 H466 H 0.44258 0.23345 0.12728
 C467 C -0.11523 0.69042 0.15445
 C468 C -0.10249 0.71144 0.12331
 C469 C -0.07608 0.73597 0.13789
 C470 C -0.07441 0.72782 0.17652
 O471 O -0.09791 0.70020 0.18664
 H472 H -0.11051 0.70868 0.09339
 H473 H -0.05886 0.75601 0.12202
 C474 C -0.12078 0.16198 0.67176
 C475 C -0.10807 0.13113 0.69288
 C476 C -0.08019 0.14563 0.71543
 C477 C -0.07757 0.18411 0.70618
 O478 O -0.10219 0.19422 0.67964
 H479 H -0.11721 0.10151 0.69156
 H480 H -0.06325 0.12984 0.73594
 C481 C 0.34134 0.39034 0.32238
 C482 C 0.37232 0.40668 0.30462
 C483 C 0.35782 0.43559 0.28275
 C484 C 0.31936 0.43472 0.28927
 O485 O 0.30933 0.40740 0.31312
 H486 H 0.40189 0.39920 0.30791
 H487 H 0.37343 0.45558 0.26520
 C488 C 0.34910 -0.11057 0.82441
 C489 C 0.37989 -0.09399 0.80651
 C490 C 0.36517 -0.06522 0.78465
 C491 C 0.32677 -0.06633 0.79124
 O492 O 0.31694 -0.09376 0.81512
 H493 H 0.40951 -0.10130 0.80962
 H494 H 0.38060 -0.04512 0.76704
 C495 C 0.81604 0.37512 0.85316
 C496 C 0.79093 0.38529 0.88219
 C497 C 0.76720 0.41194 0.86641
 C498 C 0.77959 0.41637 0.82907
 O499 O 0.80924 0.39416 0.82097
 H500 H 0.79045 0.37543 0.91161
 H501 H 0.74439 0.42725 0.88080
 C502 C 0.81870 -0.11960 0.35252
 C503 C 0.79663 -0.10740 0.38330
 C504 C 0.77150 -0.08164 0.36838
 C505 C 0.78029 -0.07969 0.32982
 O506 O 0.80901 -0.10245 0.32012
 H507 H 0.79888 -0.11551 0.41319
 H508 H 0.75019 -0.06527 0.38396
 C509 C 0.35248 0.61465 0.68339
 C510 C 0.38125 0.60218 0.70730
 C511 C 0.36614 0.57273 0.72764
 C512 C 0.32978 0.56906 0.71405
 O513 O 0.32134 0.59434 0.68736
 H514 H 0.40995 0.61253 0.70938
 H515 H 0.38016 0.55537 0.74909
 C516 C 0.34852 1.11750 0.18441
 C517 C 0.37984 1.10427 0.20441
 C518 C 0.36661 1.07645 0.22812
 C519 C 0.32851 1.07449 0.22045
 O520 O 0.31741 1.09915 0.19394
 H521 H 0.40894 1.11334 0.20178
 H522 H 0.38293 1.05883 0.24761
 C523 C 0.85367 0.63140 0.18172
 C524 C 0.88367 0.61935 0.20400
 C525 C 0.86967 0.59058 0.22606
 C526 C 0.83215 0.58686 0.21576
 O527 O 0.82228 0.61162 0.18871
 H528 H 0.91250 0.62953 0.20371
 H529 H 0.88514 0.57380 0.24694
 C530 C 0.82085 1.13081 0.64458
 C531 C 0.79716 1.12070 0.61449
 C532 C 0.77443 1.09243 0.62852
 C533 C 0.78612 1.08698 0.66590
 O534 O 0.81420 1.11014 0.67570
 H535 H 0.79689 1.13169 0.58548
 H536 H 0.75278 1.07683 0.61299
 C537 C 0.67859 0.62727 0.35361
 C538 C 0.69820 0.61366 0.38521
 C539 C 0.72335 0.58731 0.37073
 C540 C 0.71686 0.58665 0.33164
 O541 O 0.68970 0.61060 0.32122
 H542 H 0.69424 0.62134 0.41521
 H543 H 0.74296 0.56966 0.38682
 C544 C 0.65673 1.11825 0.82516
 C545 C 0.62499 1.10121 0.80968
 C546 C 0.63845 1.07317 0.78577
 C547 C 0.67735 1.07497 0.78856
 O548 O 0.68867 1.10218 0.81275
 H549 H 0.59563 1.10839 0.81515
 H550 H 0.62184 1.05348 0.76850
 C551 C 0.15996 0.61535 0.81416
 C552 C 0.13321 0.60514 0.78694
 C553 C 0.15012 0.57733 0.76480
 C554 C 0.18557 0.57220 0.78043
 O555 O 0.19165 0.59520 0.81018
 H556 H 0.10455 0.61565 0.78390
 H557 H 0.13763 0.56165 0.74102
 C558 C 0.17414 1.11693 0.34860
 C559 C 0.18963 1.10271 0.38210
 C560 C 0.21312 1.07375 0.37063
 C561 C 0.21015 1.07224 0.33108
 O562 O 0.18650 1.09839 0.31749
 H563 H 0.18425 1.11208 0.41140
 H564 H 0.23009 1.05550 0.38895
 C565 C 0.64886 0.38001 0.67394
 C566 C 0.61726 0.39383 0.69310
 C567 C 0.63025 0.42233 0.71656
 C568 C 0.66869 0.42393 0.70988
 O569 O 0.68014 0.39837 0.68393
 H570 H 0.58820 0.38483 0.68988
 H571 H 0.61362 0.44022 0.73593
 C572 C 0.64481 -0.12570 0.17951
 C573 C 0.61374 -0.11255 0.19995
 C574 C 0.62686 -0.08323 0.22235
 C575 C 0.66490 -0.08036 0.21391
 O576 O 0.67596 -0.10614 0.18791
 H577 H 0.58484 -0.12239 0.19818
 H578 H 0.61048 -0.06553 0.24212
 C579 C 0.17333 0.38710 0.15404
 C580 C 0.19357 0.40142 0.12327
 C581 C 0.21499 0.43041 0.13827
 C582 C 0.20607 0.43173 0.17689
 O583 O 0.18098 0.40549 0.18655
 H584 H 0.19243 0.39240 0.09341
 H585 H 0.23416 0.44890 0.12281
 C586 C 0.17833 -0.11462 0.65983
 C587 C 0.19702 -0.10064 0.62789
 C588 C 0.21910 -0.07146 0.64151
 C589 C 0.21199 -0.06978 0.68051
 O590 O 0.18739 -0.09585 0.69167
 H591 H 0.19439 -0.10995 0.59821
 H592 H 0.23743 -0.05305 0.62494
 C593 C 0.31328 0.35499 0.37777
 C594 C 0.29002 0.38464 0.39055
 C595 C 0.26662 0.36866 0.41711
 C596 C 0.27739 0.33056 0.41899
 O597 O 0.30579 0.32216 0.39528
 H598 H 0.29050 0.41458 0.38237
 H599 H 0.24517 0.38334 0.43409
 C600 C 0.32130 0.85118 -0.12131
 C601 C 0.29384 0.87782 -0.11083
 C602 C 0.27164 0.85970 -0.08471
 C603 C 0.28733 0.82361 -0.08051
 O604 O 0.31755 0.81828 -0.10256
 H605 H 0.29054 0.90723 -0.12012
 H606 H 0.24748 0.87176 -0.06958
 C607 C 0.84712 0.31973 -0.11268
 C608 C 0.87909 0.30164 -0.09830
 C609 C 0.86611 0.27696 -0.07110
 C610 C 0.82752 0.28225 -0.07091
 O611 O 0.81596 0.30810 -0.09586
 H612 H 0.90835 0.30633 -0.10604
 H613 H 0.88279 0.25874 -0.05250
 C614 C 0.84614 0.82161 0.38241
 C615 C 0.87507 0.79666 0.39263
 C616 C 0.85981 0.77340 0.41988
 C617 C 0.82325 0.78647 0.42467
 O618 O 0.81487 0.81542 0.40209
 H619 H 0.90406 0.79587 0.38273
 H620 H 0.87403 0.75077 0.43554
 C621 C 0.67537 0.35047 0.61393
 C622 C 0.69292 0.38337 0.60114
 C623 C 0.71566 0.37156 0.57168
 C624 C 0.71032 0.33241 0.56838
 O625 O 0.68584 0.31940 0.59400
 H626 H 0.68931 0.41257 0.61161
 H627 H 0.73383 0.38945 0.55439
 C628 C 0.67237 0.84161 1.12128
 C629 C 0.69304 0.87252 1.10856
 C630 C 0.71532 0.85805 1.08007
 C631 C 0.70639 0.81951 1.07708
 O632 O 0.68026 0.80930 1.10206
 H633 H 0.69149 0.90222 1.11798
 H634 H 0.73536 0.87389 1.06286
 C635 C 0.14996 0.32803 1.12084
 C636 C 0.12041 0.30740 1.10503
 C637 C 0.13654 0.28467 1.07719
 C638 C 0.17454 0.29333 1.07802
 O639 O 0.18274 0.31965 1.10433
 H640 H 0.09068 0.30915 1.11229
 H641 H 0.12224 0.26485 1.05803
 C642 C 0.15482 0.82465 0.63008
 C643 C 0.12545 0.80216 0.61674
 C644 C 0.14098 0.77942 0.58853
 C645 C 0.17854 0.78977 0.58677
 O646 O 0.18697 0.81722 0.61183
 H647 H 0.09612 0.80289 0.62561
 H648 H 0.12647 0.75857 0.57067
 C649 C 0.32784 0.64988 0.62598
 C650 C 0.30756 0.61988 0.60992
 C651 C 0.28575 0.63617 0.58211
 C652 C 0.29447 0.67476 0.58292
 O653 O 0.32007 0.68321 0.60941
 H654 H 0.30897 0.58965 0.61682
 H655 H 0.26641 0.62153 0.56291
 C656 C 0.32039 0.15272 1.12753
 C657 C 0.29682 0.12375 1.11477
 C658 C 0.27594 0.13968 1.08587
 C659 C 0.28824 0.17713 1.08287
 O660 O 0.31520 0.18513 1.10813
 H661 H 0.29558 0.09431 1.12444
 H662 H 0.25471 0.12543 1.06856
 C663 C 0.82971 0.66138 1.12140
 C664 C 0.81190 0.62927 1.10669
 C665 C 0.79092 0.64255 1.07687
 C666 C 0.79787 0.68156 1.07546
 O667 O 0.82131 0.69316 1.10245
 H668 H 0.81444 0.59972 1.11589
 H669 H 0.77304 0.62576 1.05795
 C670 C 0.84973 0.18859 0.61330
 C671 C 0.88118 0.20788 0.59981
 C672 C 0.86776 0.23210 0.57230
 C673 C 0.82946 0.22527 0.57102
 O674 O 0.81849 0.19904 0.59571
 H675 H 0.91043 0.20399 0.60810
 H676 H 0.88408 0.25088 0.55408
 C677 C 0.65379 0.68823 0.38126
 C678 C 0.62750 0.71690 0.38907
 C679 C 0.64400 0.73960 0.41667
 C680 C 0.67867 0.72271 0.42380
 O681 O 0.68463 0.69194 0.40234
 H682 H 0.59949 0.72057 0.37722
 H683 H 0.63177 0.76463 0.43078
 C684 C 0.68073 0.15123 -0.11584
 C685 C 0.69863 0.11895 -0.10162
 C686 C 0.71937 0.13172 -0.07127
 C687 C 0.71267 0.17082 -0.06900
 O688 O 0.68917 0.18288 -0.09604
 H689 H 0.69668 0.08957 -0.11195
 H690 H 0.73733 0.11454 -0.05290
 C691 C 0.18272 0.64903 -0.12590
 C692 C 0.20838 0.62143 -0.11390
 C693 C 0.22929 0.63899 -0.08602
 C694 C 0.21449 0.67562 -0.08252
 O695 O 0.18617 0.68182 -0.10647
 H696 H 0.21115 0.59179 -0.12316
 H697 H 0.25183 0.62625 -0.06928
 C698 C 0.14782 0.17633 0.37870
 C699 C 0.11600 0.19452 0.39333
 C700 C 0.12887 0.21748 0.42234
 C701 C 0.16746 0.21140 0.42351
 O702 O 0.17910 0.18626 0.39720
 H703 H 0.08689 0.19105 0.38448
 H704 H 0.11208 0.23609 0.44086
 C705 C 0.35312 0.36781 0.67665
 C706 C 0.37998 0.37703 0.70413
 C707 C 0.36343 0.40459 0.72690
 C708 C 0.32813 0.41072 0.71131
 O709 O 0.32179 0.38857 0.68092
 H710 H 0.40857 0.36626 0.70688
 H711 H 0.37607 0.41950 0.75110
 C712 C 0.34896 0.87647 0.17674
 C713 C 0.38018 0.88799 0.19762
 C714 C 0.36713 0.91587 0.22204
 C715 C 0.32914 0.91974 0.21394
 O716 O 0.31793 0.89595 0.18645
 H717 H 0.40899 0.87759 0.19532
 H718 H 0.38340 0.93181 0.24311
 C719 C 0.82445 0.38819 0.15868
 C720 C 0.80079 0.40169 0.13014
 C721 C 0.78057 0.43076 0.14701
 C722 C 0.79362 0.43303 0.18435
 O723 O 0.82002 0.40717 0.19159
 H724 H 0.79903 0.39233 0.10042
 H725 H 0.75959 0.44890 0.13344
 C726 C 0.83613 0.88585 0.64628
 C727 C 0.81817 0.89925 0.61376
 C728 C 0.79546 0.92843 0.62638
 C729 C 0.80169 0.93120 0.66548
 O730 O 0.82639 0.90541 0.67781
 H731 H 0.82087 0.88873 0.58447
 H732 H 0.77627 0.94553 0.60923
 C733 C 0.67844 0.62047 0.65796
 C734 C 0.70380 0.60694 0.63064
 C735 C 0.72286 0.57767 0.64797
 C736 C 0.70770 0.57510 0.68448
 O737 O 0.68065 0.60098 0.69066
 H738 H 0.70758 0.61639 0.60133
 H739 H 0.74480 0.55977 0.63523
 C740 C 0.67326 0.12058 0.15983
 C741 C 0.69702 0.10567 0.13170
 C742 C 0.71507 0.07559 0.14846
 C743 C 0.70092 0.07394 0.18544
 O744 O 0.67540 0.10115 0.19251
 H745 H 0.70055 0.11498 0.10231
 H746 H 0.73589 0.05674 0.13519
 C747 C 0.14739 0.62290 0.17471
 C748 C 0.11694 0.60796 0.19453
 C749 C 0.13204 0.58078 0.21815
 C750 C 0.17032 0.58116 0.21064
 O751 O 0.17969 0.60666 0.18451
 H752 H 0.08731 0.61528 0.19151
 H753 H 0.11692 0.56213 0.23755
 C754 C 0.15229 0.12073 0.67720
 C755 C 0.12258 0.10336 0.69617
 C756 C 0.13889 0.07617 0.71872
 C757 C 0.17710 0.07880 0.71150
 O758 O 0.18539 0.10571 0.68633
 H759 H 0.09264 0.10933 0.69344
 H760 H 0.12462 0.05612 0.73735
 C761 C 0.31847 0.62369 0.35215
 C762 C 0.29719 0.60948 0.38221
 C763 C 0.27420 0.58252 0.36588
 C764 C 0.28341 0.58212 0.32729
 O765 O 0.31025 0.60692 0.31889
 H766 H 0.29906 0.61665 0.41251
 H767 H 0.25413 0.56436 0.38052
 C768 C 0.32583 0.12553 0.85183
 C769 C 0.30419 0.11144 0.88170
 C770 C 0.28205 0.08381 0.86545
 C771 C 0.29200 0.08282 0.82706
 O772 O 0.31864 0.10795 0.81868
 H773 H 0.30511 0.11936 0.91186
 H774 H 0.26185 0.06574 0.88002
 C775 C 0.82989 0.61250 0.84596
 C776 C 0.81557 0.59504 0.87839
 C777 C 0.79331 0.56631 0.86491
 C778 C 0.79600 0.56802 0.82540
 O779 O 0.81819 0.59604 0.81357
 H780 H 0.82028 0.60277 0.90824
 H781 H 0.77667 0.54658 0.88178
 C782 C 0.82614 0.11403 0.34421
 C783 C 0.80907 0.09986 0.37688
 C784 C 0.78560 0.07176 0.36410
 C785 C 0.79022 0.07050 0.32467
 O786 O 0.81489 0.09609 0.31234
 H787 H 0.81304 0.10906 0.40643
 H788 H 0.76717 0.05418 0.38144
 C789 C 0.67330 0.39149 0.34652
 C790 C 0.69023 0.40732 0.37864
 C791 C 0.71189 0.43635 0.36518
 C792 C 0.70642 0.43660 0.32586
 O793 O 0.68277 0.40939 0.31421
 H794 H 0.68750 0.39841 0.40828
 H795 H 0.73009 0.45491 0.38201
 C796 C 0.68750 0.88451 0.83791
 C797 C 0.71294 0.89884 0.86448
 C798 C 0.73261 0.92624 0.84550
 C799 C 0.71768 0.92705 0.80888
 O800 O 0.69010 0.90186 0.80410
 H801 H 0.71623 0.89131 0.89441
 H802 H 0.75448 0.94447 0.85733
 C803 C 0.15685 0.37957 0.82262
 C804 C 0.12886 0.39345 0.79849
 C805 C 0.14660 0.41851 0.77479
 C806 C 0.18367 0.41865 0.78679
 O807 O 0.19004 0.39531 0.81583
 H808 H 0.09899 0.38701 0.79852
 H809 H 0.13381 0.43585 0.75256
 C810 C 0.15930 0.88166 0.33212
 C811 C 0.13134 0.89780 0.30955
 C812 C 0.14926 0.92461 0.28809
 C813 C 0.18652 0.92329 0.29962
 O814 O 0.19279 0.89743 0.32643
 H815 H 0.10142 0.89152 0.30914
 H816 H 0.13651 0.94363 0.26725
 C817 C 0.38538 0.30900 0.64832
 C818 C 0.39643 0.28507 0.61818
 C819 C 0.42353 0.26135 0.63315
 C820 C 0.42710 0.27277 0.67103
 O821 O 0.40407 0.30146 0.68025
 H822 H 0.38695 0.28544 0.58860
 H823 H 0.43991 0.23966 0.61792
 C824 C 0.37923 0.81749 0.14797
 C825 C 0.39205 0.79811 0.11553
 C826 C 0.41870 0.77297 0.12841
 C827 C 0.42074 0.77907 0.16764
 O828 O 0.39697 0.80628 0.17969
 H829 H 0.38348 0.80206 0.08595
 H830 H 0.43539 0.75313 0.11111
 C831 C 0.88176 0.35235 0.18173
 C832 C 0.89455 0.38000 0.20743
 C833 C 0.92162 0.36206 0.22869
 C834 C 0.92394 0.32522 0.21394
 O835 O 0.89998 0.31919 0.18543
 H836 H 0.88621 0.40987 0.21005
 H837 H 0.93859 0.37467 0.25136
 C838 C 0.89141 0.85118 0.67449
 C839 C 0.90500 0.88261 0.69468
 C840 C 0.93160 0.86810 0.71884
 C841 C 0.93284 0.82913 0.71108
 O842 O 0.90849 0.81868 0.68428
 H843 H 0.89661 0.91247 0.69224
 H844 H 0.94831 0.88408 0.73952
 C845 C 0.61741 0.35423 0.32252
 C846 C 0.60080 0.38456 0.30355
 C847 C 0.57076 0.36898 0.28497
 C848 C 0.57106 0.33036 0.29410
 O849 O 0.59948 0.32119 0.31677
 H850 H 0.60906 0.41447 0.30371
 H851 H 0.55074 0.38402 0.26689
 C852 C 0.62672 0.85085 0.82252
 C853 C 0.60909 0.88090 0.80412
 C854 C 0.57840 0.86501 0.78708
 C855 C 0.57918 0.82643 0.79648
 O856 O 0.60854 0.81762 0.81829
 H857 H 0.61716 0.91086 0.80372
 H858 H 0.55772 0.87981 0.76957
 C859 C 0.11953 0.32544 0.84868
 C860 C 0.10301 0.30718 0.87941
 C861 C 0.07339 0.28771 0.86401
 C862 C 0.07373 0.29573 0.82510
 O863 O 0.10181 0.31855 0.81560
 H864 H 0.11101 0.30843 0.90943
 H865 H 0.05353 0.26991 0.87939
 C866 C 0.12384 0.82353 0.35209
 C867 C 0.10955 0.79846 0.37900
 C868 C 0.08095 0.77970 0.36064
 C869 C 0.07969 0.79487 0.32408
 O870 O 0.10571 0.82128 0.31876
 H871 H 0.11789 0.79494 0.40868
 H872 H 0.06241 0.75833 0.37282
 C873 C 0.61925 0.65536 0.67696
 C874 C 0.60054 0.62485 0.69315
 C875 C 0.57145 0.64116 0.71309
 C876 C 0.57432 0.68031 0.70723
 O877 O 0.60339 0.68914 0.68535
 H878 H 0.60696 0.59448 0.69037
 H879 H 0.55047 0.62630 0.73002
 C880 C 0.61500 0.15787 0.17795
 C881 C 0.59525 0.12771 0.19347
 C882 C 0.56547 0.14445 0.21187
 C883 C 0.56898 0.18354 0.20595
 O884 O 0.59915 0.19192 0.18537
 H885 H 0.60148 0.09725 0.19134
 H886 H 0.54373 0.12993 0.22811
 C887 C 0.11486 0.68042 0.14899
 C888 C 0.10075 0.70114 0.11850
 C889 C 0.07401 0.72477 0.13425
 C890 C 0.07331 0.71630 0.17300
 O891 O 0.09800 0.68929 0.18214
 H892 H 0.10873 0.69921 0.08846
 H893 H 0.05686 0.74571 0.11926
 C894 C 0.11552 0.17643 0.65438
 C895 C 0.09727 0.19344 0.62391
 C896 C 0.06772 0.21270 0.64013
 C897 C 0.06991 0.20572 0.67919
 O898 O 0.09893 0.18359 0.68805
 H899 H 0.10431 0.19168 0.59362
 H900 H 0.04699 0.23013 0.62528
 C901 C 0.37951 0.64969 0.32901
 C902 C 0.39194 0.61596 0.31171
 C903 C 0.41931 0.62669 0.28661
 C904 C 0.42193 0.66606 0.29058
 O905 O 0.39793 0.68029 0.31649
 H906 H 0.38206 0.58702 0.31658
 H907 H 0.43569 0.60800 0.26777
 C908 C 0.38721 0.15337 0.83093
 C909 C 0.40161 0.11986 0.81495
 C910 C 0.43113 0.13105 0.79277
 C911 C 0.43290 0.17054 0.79692
 O912 O 0.40624 0.18434 0.82020
 H913 H 0.39172 0.09076 0.81895
 H914 H 0.44913 0.11257 0.77531
 C915 C 0.88134 0.65398 0.81824
 C916 C 0.89315 0.62804 0.79026
 C917 C 0.92141 0.64620 0.77098
 C918 C 0.92492 0.68175 0.78860
 O919 O 0.90065 0.68658 0.81722
 H920 H 0.88336 0.59906 0.78505
 H921 H 0.93822 0.63444 0.74756
 C922 C 0.87965 0.15110 0.31412
 C923 C 0.88883 0.12427 0.28590
 C924 C 0.91620 0.14116 0.26419
 C925 C 0.92211 0.17667 0.28102
 O926 O 0.90002 0.18280 0.31116
 H927 H 0.87796 0.09553 0.28194
 H928 H 0.93100 0.12864 0.23976
 C929 C 0.33251 0.34148 0.61336
 C930 C 0.31701 0.37507 0.59925
 C931 C 0.29267 0.36365 0.57123
 C932 C 0.29557 0.32411 0.56988
 O933 O 0.31975 0.31041 0.59534
 H934 H 0.32239 0.40430 0.60857
 H935 H 0.27480 0.38190 0.55380
 C936 C 0.31955 0.84362 0.11960
 C937 C 0.29457 0.87285 0.11003
 C938 C 0.27194 0.85765 0.08205
 C939 C 0.28515 0.82072 0.07621
 O940 O 0.31385 0.81212 0.09885
 H941 H 0.29342 0.90207 0.12088
 H942 H 0.24952 0.87219 0.06665
 C943 C 0.84988 0.33205 0.12100
 C944 C 0.88079 0.31403 0.10431
 C945 C 0.86620 0.29046 0.07681
 C946 C 0.82758 0.29619 0.07827
 O947 O 0.81740 0.32152 0.10503
 H948 H 0.91034 0.31732 0.11155
 H949 H 0.88179 0.27114 0.05790
 C950 C 0.85408 0.82108 0.62064
 C951 C 0.87971 0.79231 0.61095
 C952 C 0.86130 0.76938 0.58510
 C953 C 0.82618 0.78608 0.58057
 O954 O 0.82169 0.81733 0.60198
 H955 H 0.90868 0.78889 0.62021
 H956 H 0.87267 0.74447 0.57006
 C957 C 0.34615 0.68083 0.38568
 C958 C 0.37573 0.70381 0.39767
 C959 C 0.36141 0.72545 0.42745
 C960 C 0.32437 0.71388 0.43145
 O961 O 0.31508 0.68703 0.40613
 H962 H 0.40443 0.70416 0.38688
 H963 H 0.37635 0.74650 0.44468
 C964 C 0.35072 0.18375 0.88560
 C965 C 0.37981 0.20606 0.89990
 C966 C 0.36401 0.22717 0.92922
 C967 C 0.32669 0.21596 0.93067
 O968 O 0.31856 0.18986 0.90422
 H969 H 0.40916 0.20612 0.89109
 H970 H 0.37821 0.24745 0.94797
 C971 C 0.84889 0.67217 0.87968
 C972 C 0.87868 0.69058 0.89736
 C973 C 0.86271 0.71107 0.92657
 C974 C 0.82443 0.70346 0.92492
 O975 O 0.81581 0.67950 0.89658
 H976 H 0.90845 0.68893 0.89024
 H977 H 0.87728 0.72947 0.94695
 C978 C 0.85048 0.17339 0.37595
 C979 C 0.88149 0.19226 0.39088
 C980 C 0.86725 0.21668 0.41811
 C981 C 0.82877 0.21048 0.41843
 O982 O 0.81835 0.18399 0.39303
 H983 H 0.91094 0.18868 0.38304
 H984 H 0.88305 0.23648 0.43603
 C985 C 0.65653 0.32894 0.37630
 C986 C 0.62963 0.30429 0.39096
 C987 C 0.64820 0.28295 0.41758
 C988 C 0.68475 0.29651 0.41760
 O989 O 0.68995 0.32445 0.39275
 H990 H 0.59982 0.30266 0.38437
 H991 H 0.63620 0.26108 0.43588
 C992 C 0.66289 0.83262 0.88047
 C993 C 0.63210 0.81890 0.90043
 C994 C 0.64702 0.79904 0.93016
 C995 C 0.68573 0.80234 0.92638
 O996 O 0.69566 0.82276 0.89621
 H997 H 0.60238 0.82281 0.89406
 H998 H 0.63156 0.78355 0.95197
 C999 C 0.17785 0.34767 0.88348
 C1000 C 0.19934 0.37763 0.89778
 C1001 C 0.22001 0.36228 0.92705
 C1002 C 0.20964 0.32415 0.92868
 O1003 O 0.18395 0.31517 0.90234
 H1004 H 0.19956 0.40724 0.88852
 H1005 H 0.23992 0.37721 0.94539
 C1006 C 0.17829 0.84810 0.39202
 C1007 C 0.19734 0.87873 0.40842
 C1008 C 0.21805 0.86336 0.43757
 C1009 C 0.20993 0.82464 0.43699
 O1010 O 0.18581 0.81523 0.40943
 H1011 H 0.19614 0.90869 0.40036
 H1012 H 0.23653 0.87860 0.45718
 C1013 C 0.65614 0.67908 0.62160
 C1014 C 0.62746 0.70239 0.60761
 C1015 C 0.64404 0.72474 0.58060
 C1016 C 0.68122 0.71295 0.57960
 O1017 O 0.68878 0.68525 0.60424
 H1018 H 0.59784 0.70279 0.61544
 H1019 H 0.63041 0.74601 0.56269
 C1020 C 0.65540 0.18065 0.12459
 C1021 C 0.62804 0.20398 0.10832
 C1022 C 0.64642 0.22419 0.08089
 C1023 C 0.68336 0.21137 0.08213
 O1024 O 0.68901 0.18501 0.10856
 H1025 H 0.59810 0.20538 0.11465
 H1026 H 0.63412 0.24478 0.06128
 C1027 C 0.17417 0.65592 0.11687
 C1028 C 0.20007 0.62741 0.10709
 C1029 C 0.22269 0.64310 0.07966
 C1030 C 0.20864 0.67964 0.07408
 O1031 O 0.17924 0.68758 0.09652
 H1032 H 0.20216 0.59842 0.11789
 H1033 H 0.24602 0.62923 0.06471
 C1034 C 0.17561 0.15836 0.62034
 C1035 C 0.20175 0.13139 0.60761
 C1036 C 0.22110 0.14885 0.57880
 C1037 C 0.20536 0.18509 0.57571
 O1038 O 0.17766 0.19101 0.60085
 H1039 H 0.20589 0.10223 0.61736
 H1040 H 0.24366 0.13641 0.56155
   
