data_POSCAR
  _audit_creation_date              2014-09-24
  _audit_creation_method            'ToBaCCo'
  _symmetry_space_group_name_H-M    'P1'
  _symmetry_Int_Tables_number       1
  _symmetry_cell_setting            triclinic
  loop_
  _symmetry_equiv_pos_as_xyz
 x,y,z
_cell_length_a 21.7678
_cell_length_b 22.0787
_cell_length_c 21.6820
_cell_angle_alpha 89.849300
_cell_angle_beta 89.808900
_cell_angle_gamma 90.126300
loop_
  _atom_site_label
  _atom_site_type_symbol
  _atom_site_fract_x
  _atom_site_fract_y
  _atom_site_fract_z
N1 N 0.56238 0.12365 0.03262
 N2 N 0.61029 0.15355 0.05394
 N3 N 0.43343 0.11982 -0.02684
 N4 N 0.39497 0.16156 -0.04705
 N5 N 0.43344 0.11841 0.03374
 N6 N 0.39491 0.15885 0.05612
 N7 N 0.56249 0.12393 -0.02796
 N8 N 0.61067 0.15373 -0.04936
 C9 C 0.64038 0.17162 0.00230
 C10 C 0.37105 0.18524 0.00529
 N11 N 0.43927 -0.03179 -0.12100
 N12 N 0.39267 -0.05519 -0.15157
 N13 N 0.56535 0.03321 -0.12308
 N14 N 0.61363 0.05665 -0.15158
 N15 N 0.56878 -0.02600 -0.12177
 N16 N 0.62342 -0.04458 -0.14920
 N17 N 0.43607 0.02755 -0.12077
 N18 N 0.38710 0.04613 -0.15114
 Mn19 Mn 0.49924 0.07661 -0.07528
 C20 C 0.36010 -0.00613 -0.16961
 C21 C 0.64949 0.00856 -0.16686
 N22 N 0.43786 0.02516 0.12653
 N23 N 0.38918 0.04348 0.15761
 N24 N 0.57176 -0.02755 0.12424
 N25 N 0.62223 -0.04503 0.15305
 N26 N 0.56596 0.03147 0.12678
 N27 N 0.61358 0.05606 0.16119
 N28 N 0.44144 -0.03416 0.12683
 N29 N 0.39493 -0.05782 0.15794
 Mn30 Mn 0.49980 0.07507 0.08034
 C31 C 0.36238 -0.00882 0.17642
 C32 C 0.64784 0.00679 0.17541
 N33 N 0.57329 -0.11923 -0.02988
 N34 N 0.61147 -0.15980 -0.05262
 N35 N 0.44465 -0.12531 0.03238
 N36 N 0.39731 -0.15652 0.05375
 N37 N 0.44431 -0.12451 -0.02816
 N38 N 0.39702 -0.15526 -0.04959
 N39 N 0.57381 -0.12069 0.03067
 N40 N 0.61204 -0.16286 0.05048
 Mn41 Mn 0.50646 -0.07570 -0.07573
 Mn42 Mn 0.50811 -0.07741 0.07925
 Cl43 Cl 0.50339 -0.00041 0.00219
 C44 C 0.63545 -0.18666 -0.00209
 C45 C 0.36771 -0.17453 0.00198
 N46 N 0.13181 0.44701 0.03378
 N47 N 0.17077 0.40711 0.05642
 N48 N 0.12148 0.57261 -0.02927
 N49 N 0.15478 0.61795 -0.05106
 N50 N 0.12028 0.57372 0.03125
 N51 N 0.15267 0.61976 0.05222
 N52 N 0.13251 0.44581 -0.02677
 N53 N 0.17207 0.40514 -0.04697
 C54 C 0.19582 0.38161 0.00551
 C55 C 0.17304 0.64766 0.00034
 N56 N -0.03083 0.55795 -0.12356
 N57 N -0.05623 0.60275 -0.15454
 N58 N 0.03997 0.43580 -0.12121
 N59 N 0.06487 0.38980 -0.15108
 N60 N -0.02014 0.43126 -0.12139
 N61 N -0.03780 0.38238 -0.15124
 N62 N 0.02908 0.56337 -0.12331
 N63 N 0.04598 0.61560 -0.15549
 Mn64 Mn 0.08131 0.50439 -0.07580
 C65 C -0.00908 0.63850 -0.17370
 C66 C 0.01562 0.35649 -0.16899
 N67 N 0.02574 0.56704 0.12424
 N68 N 0.04168 0.61497 0.15688
 N69 N -0.02224 0.43342 0.12574
 N70 N -0.03942 0.38597 0.15876
 N71 N 0.03772 0.43997 0.12717
 N72 N 0.06299 0.39755 0.16173
 N73 N -0.03408 0.56014 0.12482
 N74 N -0.06022 0.60251 0.15844
 Mn75 Mn 0.07939 0.50707 0.07968
 C76 C -0.01272 0.63732 0.17745
 C77 C 0.01432 0.36400 0.18054
 N78 N -0.11391 0.42418 -0.02863
 N79 N -0.14532 0.37747 -0.04966
 N80 N -0.12616 0.55160 0.03017
 N81 N -0.16590 0.59218 0.05038
 N82 N -0.12481 0.55118 -0.03036
 N83 N -0.16331 0.59149 -0.05295
 N84 N -0.11482 0.42489 0.03183
 N85 N -0.14726 0.37903 0.05355
 Mn86 Mn -0.07284 0.49115 -0.07653
 Mn87 Mn -0.07479 0.49242 0.07871
 Cl88 Cl 0.00332 0.49875 0.00154
 C89 C -0.16505 0.34902 0.00223
 C90 C -0.18904 0.61644 -0.00214
 N91 N 0.03873 0.12007 0.43826
 N92 N 0.06301 0.15319 0.39362
 N93 N -0.02090 0.12504 0.56813
 N94 N -0.03937 0.15744 0.61573
 N95 N 0.03917 0.12011 0.56789
 N96 N 0.06324 0.14922 0.61514
 N97 N -0.02142 0.12435 0.43806
 N98 N -0.03983 0.16016 0.39295
 C99 C 0.01337 0.17722 0.36544
 C100 C 0.01359 0.17174 0.64496
 N101 N -0.12604 -0.01851 0.57023
 N102 N -0.15566 -0.03735 0.61981
 N103 N -0.12226 0.03971 0.43938
 N104 N -0.15032 0.06203 0.39039
 N105 N -0.12679 -0.01955 0.44043
 N106 N -0.15791 -0.03919 0.39239
 N107 N -0.12148 0.04074 0.56991
 N108 N -0.14778 0.06380 0.61958
 Mn109 Mn -0.07212 0.08309 0.50380
 C110 C -0.16855 0.01436 0.65056
 C111 C -0.17195 0.01208 0.36124
 N112 N 0.12428 0.02092 0.56762
 N113 N 0.15719 0.04009 0.61460
 N114 N 0.11925 -0.03866 0.43810
 N115 N 0.14951 -0.06166 0.39074
 N116 N 0.12368 0.02067 0.43806
 N117 N 0.15679 0.03963 0.39080
 N118 N 0.11998 -0.03841 0.56814
 N119 N 0.15007 -0.06123 0.61560
 Mn120 Mn 0.08206 0.07083 0.50296
 C121 C 0.17247 -0.01152 0.64448
 C122 C 0.17206 -0.01208 0.36125
 N123 N -0.04174 -0.11838 0.44080
 N124 N -0.06687 -0.15314 0.39852
 N125 N 0.01904 -0.12374 0.56934
 N126 N 0.03644 -0.16309 0.61178
 N127 N -0.04084 -0.11745 0.57037
 N128 N -0.06535 -0.15162 0.61389
 N129 N 0.01819 -0.12414 0.44013
 N130 N 0.03500 -0.16360 0.39768
 Mn131 Mn -0.08441 -0.06877 0.50549
 Mn132 Mn 0.06980 -0.08179 0.50388
 Cl133 Cl -0.00114 0.00080 0.50399
 C134 C -0.01879 -0.18144 0.37166
 C135 C -0.01691 -0.18033 0.63953
 C136 C -0.25856 0.20812 0.04931
 C137 C -0.30340 0.20954 0.00179
 C138 C -0.29635 0.25056 -0.04704
 C139 C -0.24938 0.29314 -0.04706
 C140 C -0.20800 0.29685 0.00210
 C141 C -0.21095 0.25280 0.05005
 C142 C -0.25854 0.16227 0.09496
 C143 C -0.21520 0.16236 0.14206
 C144 C -0.17030 0.20700 0.14406
 C145 C -0.16695 0.25084 0.09783
 H146 H -0.29046 0.12484 0.09404
 H147 H -0.21574 0.12703 0.17667
 H148 H -0.13691 0.20673 0.18090
 H149 H -0.12860 0.28173 0.09957
 H150 H -0.32920 0.25161 -0.08446
 H151 H -0.24744 0.32556 -0.08462
 C152 C 0.26503 0.79059 -0.04275
 C153 C 0.31251 0.78616 0.00199
 C154 C 0.30893 0.74116 0.04740
 C155 C 0.26218 0.69831 0.04684
 C156 C 0.21730 0.69866 0.00073
 C157 C 0.21718 0.74615 -0.04363
 C158 C 0.26255 0.83926 -0.08520
 C159 C 0.21552 0.84311 -0.12851
 C160 C 0.16932 0.79955 -0.12969
 C161 C 0.16953 0.75190 -0.08738
 H162 H 0.29547 0.87586 -0.08443
 H163 H 0.21435 0.88071 -0.16065
 H164 H 0.13242 0.80336 -0.16283
 H165 H 0.13113 0.72090 -0.08853
 H166 H 0.34412 0.73754 0.08244
 H167 H 0.26262 0.66295 0.08159
 C168 C 0.33907 0.28868 0.04593
 C169 C 0.32951 0.23812 0.00657
 C170 C 0.27963 0.23814 -0.03389
 C171 C 0.23740 0.28535 -0.03382
 C172 C 0.24375 0.33425 0.00667
 C173 C 0.29570 0.33711 0.04607
 C174 C 0.39220 0.29381 0.08298
 C175 C 0.40151 0.34418 0.12039
 C176 C 0.35919 0.39116 0.12068
 C177 C 0.30724 0.38825 0.08348
 H178 H 0.42814 0.26027 0.08243
 H179 H 0.44243 0.34728 0.14846
 H180 H 0.36728 0.43067 0.14900
 H181 H 0.27756 0.42732 0.08339
 H182 H 0.27274 0.20060 -0.06512
 H183 H 0.19861 0.28305 -0.06495
 C184 C -0.33022 0.71153 -0.04609
 C185 C -0.32300 0.76024 -0.00380
 C186 C -0.27541 0.75810 0.03933
 C187 C -0.23318 0.71088 0.03935
 C188 C -0.23716 0.66383 -0.00362
 C189 C -0.28682 0.66302 -0.04610
 C190 C -0.38118 0.70810 -0.08632
 C191 C -0.38807 0.65979 -0.12688
 C192 C -0.34576 0.61287 -0.12709
 C193 C -0.29625 0.61375 -0.08661
 H194 H -0.41748 0.74119 -0.08600
 H195 H -0.42729 0.65810 -0.15741
 H196 H -0.35212 0.57481 -0.15781
 H197 H -0.26704 0.57440 -0.08660
 H198 H -0.27025 0.79407 0.07273
 H199 H -0.19613 0.71186 0.07252
 C200 C -0.07552 -0.28464 0.23868
 C201 C -0.01839 -0.31099 0.22127
 C202 C 0.03511 -0.29169 0.25094
 C203 C 0.03297 -0.24977 0.29842
 C204 C -0.02298 -0.22695 0.32075
 C205 C -0.07876 -0.24658 0.29203
 C206 C -0.12958 -0.29444 0.20404
 C207 C -0.18643 -0.27465 0.22523
 C208 C -0.19077 -0.24455 0.28108
 C209 C -0.13787 -0.23030 0.31407
 H210 H -0.12874 -0.31550 0.15932
 H211 H -0.22738 -0.28311 0.19835
 H212 H -0.23532 -0.23074 0.29829
 H213 H -0.14559 -0.20770 0.35706
 H214 H 0.07948 -0.30994 0.23810
 H215 H 0.07620 -0.23619 0.31880
 C216 C -0.02456 0.25372 0.79584
 C217 C 0.01903 0.30168 0.79189
 C218 C 0.06432 0.30000 0.74594
 C219 C 0.06351 0.25546 0.70069
 C220 C 0.01721 0.21135 0.69972
 C221 C -0.02569 0.20835 0.74909
 C222 C -0.06601 0.24880 0.84598
 C223 C -0.10855 0.20158 0.84907
 C224 C -0.10988 0.15760 0.80329
 C225 C -0.06856 0.16038 0.75409
 H226 H -0.06494 0.28002 0.88422
 H227 H -0.13999 0.19856 0.88778
 H228 H -0.14235 0.12050 0.80649
 H229 H -0.06965 0.12370 0.72123
 H230 H 0.09866 0.33548 0.74282
 H231 H 0.09742 0.25763 0.66405
 C232 C 0.00459 0.25275 0.20714
 C233 C 0.01854 0.31310 0.22417
 C234 C 0.03453 0.32617 0.28512
 C235 C 0.03390 0.28099 0.32997
 C236 C 0.01703 0.22168 0.31504
 C237 C 0.00328 0.20661 0.25320
 C238 C -0.00673 0.23699 0.14520
 C239 C -0.01924 0.17707 0.12910
 C240 C -0.02165 0.13215 0.17432
 C241 C -0.01070 0.14659 0.23594
 H242 H -0.00533 0.27063 0.10880
 H243 H -0.02771 0.16553 0.08139
 H244 H -0.03184 0.08585 0.16156
 H245 H -0.01225 0.11036 0.26965
 H246 H 0.04592 0.37211 0.29844
 H247 H 0.04512 0.29273 0.37712
 C248 C -0.07330 -0.28838 0.76964
 C249 C -0.01528 -0.31191 0.78932
 C250 C 0.03823 -0.28540 0.76466
 C251 C 0.03553 -0.24275 0.71764
 C252 C -0.02043 -0.22558 0.69101
 C253 C -0.07607 -0.25003 0.71626
 C254 C -0.12869 -0.30034 0.80216
 C255 C -0.18538 -0.28392 0.77799
 C256 C -0.18840 -0.25500 0.72128
 C257 C -0.13466 -0.23800 0.69068
 H258 H -0.12923 -0.32009 0.84770
 H259 H -0.22718 -0.29420 0.80319
 H260 H -0.23268 -0.24418 0.70155
 H261 H -0.14099 -0.21665 0.64669
 H262 H 0.08347 -0.29902 0.78009
 H263 H 0.07858 -0.22429 0.70076
 C264 C 0.25535 0.03124 0.79366
 C265 C 0.30554 -0.00966 0.78995
 C266 C 0.30531 -0.05470 0.74453
 C267 C 0.25977 -0.05652 0.69981
 C268 C 0.21301 -0.01323 0.69891
 C269 C 0.20876 0.02953 0.74751
 C270 C 0.24909 0.07237 0.84311
 C271 C 0.19895 0.11151 0.84634
 C272 C 0.15389 0.11020 0.80106
 C273 C 0.15823 0.06936 0.75239
 H274 H 0.28152 0.07360 0.88068
 H275 H 0.19436 0.14234 0.88475
 H276 H 0.11473 0.14022 0.80428
 H277 H 0.12068 0.06825 0.71993
 H278 H 0.34244 -0.08720 0.74170
 H279 H 0.26303 -0.09013 0.66362
 C280 C -0.25442 -0.03558 0.21285
 C281 C -0.30147 0.00956 0.21162
 C282 C -0.29554 0.05971 0.25139
 C283 C -0.25163 0.06085 0.29771
 C284 C -0.21014 0.01329 0.30479
 C285 C -0.20806 -0.03292 0.25949
 C286 C -0.24812 -0.07938 0.16555
 C287 C -0.19863 -0.11932 0.16470
 C288 C -0.15388 -0.11637 0.21000
 C289 C -0.15845 -0.07402 0.25714
 H290 H -0.27856 -0.08118 0.12647
 H291 H -0.19375 -0.15154 0.12753
 H292 H -0.11465 -0.14632 0.20785
 H293 H -0.12090 -0.07186 0.28953
 H294 H -0.32826 0.09664 0.25045
 H295 H -0.25226 0.09797 0.33030
 C296 C 0.25797 0.03017 0.21260
 C297 C 0.30705 -0.01206 0.21631
 C298 C 0.30520 -0.05743 0.26157
 C299 C 0.25905 -0.05850 0.30606
 C300 C 0.21330 -0.01410 0.30696
 C301 C 0.21083 0.02932 0.25855
 C302 C 0.25348 0.07205 0.16337
 C303 C 0.20508 0.11319 0.16049
 C304 C 0.15947 0.11267 0.20550
 C305 C 0.16166 0.07080 0.25368
 H306 H 0.28596 0.07255 0.12564
 H307 H 0.20244 0.14502 0.12252
 H308 H 0.12162 0.14422 0.20246
 H309 H 0.12361 0.07044 0.28581
 H310 H 0.34156 -0.09075 0.26450
 H311 H 0.26108 -0.09250 0.34213
 C312 C -0.25245 -0.03413 0.79802
 C313 C -0.29732 0.01306 0.80067
 C314 C -0.28720 0.06555 0.76493
 C315 C -0.24270 0.06654 0.71870
 C316 C -0.20485 0.01645 0.70850
 C317 C -0.20559 -0.03187 0.75176
 C318 C -0.24948 -0.08063 0.84320
 C319 C -0.20338 -0.12426 0.84163
 C320 C -0.15801 -0.12175 0.79658
 C321 C -0.15876 -0.07614 0.75215
 H322 H -0.28000 -0.08212 0.88247
 H323 H -0.20170 -0.15908 0.87686
 H324 H -0.12102 -0.15437 0.79713
 H325 H -0.12045 -0.07433 0.72040
 H326 H -0.31786 0.10406 0.76784
 H327 H -0.24070 0.10537 0.68810
   
