data_POSCAR
  _audit_creation_date              2014-09-24
  _audit_creation_method            'ToBaCCo'
  _symmetry_space_group_name_H-M    'P1'
  _symmetry_Int_Tables_number       1
  _symmetry_cell_setting            triclinic
  loop_
  _symmetry_equiv_pos_as_xyz
 x,y,z
_cell_length_a 60.2865
_cell_length_b 31.5182
_cell_length_c 24.0890
_cell_angle_alpha 90.249400
_cell_angle_beta 89.911100
_cell_angle_gamma 89.988900
loop_
  _atom_site_label
  _atom_site_type_symbol
  _atom_site_fract_x
  _atom_site_fract_y
  _atom_site_fract_z
O1 O 0.76042 0.19093 0.54999
 O2 O 0.72089 0.23038 0.44634
 O3 O 0.76006 0.19552 0.44283
 O4 O 0.72123 0.22690 0.55406
 O5 O 0.73662 0.29035 0.55712
 O6 O 0.77620 0.25811 0.44858
 O7 O 0.73688 0.29328 0.44904
 O8 O 0.77547 0.25463 0.55629
 Cu9 Cu 0.73905 0.20464 0.49798
 Cu10 Cu 0.75783 0.28046 0.50308
 C11 C 0.77476 0.21590 0.57064
 C12 C 0.72210 0.26850 0.42981
 C13 C 0.77508 0.22120 0.42725
 C14 C 0.72216 0.26419 0.57425
 O15 O 0.27637 0.76127 0.45072
 O16 O 0.23686 0.79369 0.55916
 O17 O 0.27560 0.75751 0.55840
 O18 O 0.23705 0.79630 0.45107
 O19 O 0.22108 0.73338 0.44827
 O20 O 0.26034 0.69398 0.55239
 O21 O 0.22126 0.73052 0.55599
 O22 O 0.26026 0.69857 0.44523
 Cu23 Cu 0.25802 0.78355 0.50517
 Cu24 Cu 0.23912 0.70782 0.50017
 C25 C 0.27522 0.72433 0.42965
 C26 C 0.22224 0.76783 0.57626
 C27 C 0.27476 0.71883 0.57290
 C28 C 0.22231 0.77149 0.43172
 O29 O 0.26082 0.30499 -0.55554
 O30 O 0.22179 0.26958 -0.44753
 O31 O 0.26106 0.30446 -0.44757
 O32 O 0.22155 0.27001 -0.55524
 O33 O 0.23719 0.20684 -0.55682
 O34 O 0.27648 0.24100 -0.44873
 O35 O 0.23725 0.20615 -0.44860
 O36 O 0.27644 0.24178 -0.55609
 Cu37 Cu 0.23976 0.29360 -0.50138
 Cu38 Cu 0.25833 0.21756 -0.50270
 C39 C 0.27554 0.27964 -0.57393
 C40 C 0.22275 0.23173 -0.42978
 C41 C 0.27566 0.27872 -0.43004
 C42 C 0.22249 0.23240 -0.57439
 O43 O -0.23997 0.80563 -0.55332
 O44 O -0.27892 0.77164 -0.44390
 O45 O -0.23989 0.80846 -0.44602
 O46 O -0.27903 0.77040 -0.55173
 O47 O -0.26292 0.70757 -0.55121
 O48 O -0.22451 0.74495 -0.44233
 O49 O -0.26319 0.70853 -0.44306
 O50 O -0.22372 0.74297 -0.55013
 Cu51 Cu -0.26108 0.79531 -0.49878
 Cu52 Cu -0.24203 0.71966 -0.49657
 C53 C -0.22495 0.78021 -0.56984
 C54 C -0.27788 0.73403 -0.42505
 C55 C -0.22542 0.78341 -0.42643
 C56 C -0.27770 0.73257 -0.56973
 O57 O -0.03044 0.92950 0.10397
 O58 O -0.05482 0.96667 0.04985
 C59 C -0.05039 0.94029 0.08948
 O60 O 0.03161 1.08039 0.09568
 O61 O 0.05608 1.03894 0.04663
 C62 C 0.05160 1.06876 0.08220
 O63 O -0.03058 1.07655 0.10078
 O64 O -0.05486 1.03747 0.04828
 C65 C -0.05051 1.06508 0.08679
 O66 O 0.03171 0.92594 0.09914
 O67 O 0.05614 0.96588 0.04838
 C68 C 0.05169 0.93722 0.08520
 Zr69 Zr 0.00059 0.94897 0.07153
 O70 O 0.00290 0.94945 0.15921
 O71 O -0.00186 0.88194 0.07121
 Zr72 Zr 0.00050 1.05635 0.06905
 O73 O 0.00281 1.05908 0.15666
 O74 O -0.00208 1.12329 0.06530
 O75 O -0.01922 1.00278 0.08116
 O76 O 0.01972 1.00288 0.08075
 O77 O 0.03210 0.92277 -0.09425
 O78 O 0.05636 0.96424 -0.04484
 C79 C 0.05203 0.93432 -0.08034
 O80 O -0.03013 1.07123 -0.10548
 O81 O -0.05475 1.03609 -0.04937
 C82 C -0.05011 1.06106 -0.09039
 O83 O 0.03197 1.07703 -0.09786
 O84 O 0.05629 1.03739 -0.04659
 C85 C 0.05191 1.06603 -0.08348
 O86 O -0.02998 0.92814 -0.10233
 O87 O -0.05468 0.96492 -0.04782
 C88 C -0.04998 0.93871 -0.08776
 Zr89 Zr 0.00089 0.94661 -0.06812
 O90 O 0.00384 0.94217 -0.15549
 O91 O -0.00199 0.87975 -0.06313
 Zr92 Zr 0.00079 1.05396 -0.07061
 O93 O 0.00372 1.05536 -0.15813
 O94 O -0.00217 1.12092 -0.06879
 Zr95 Zr -0.03253 1.00136 0.00024
 Zr96 Zr 0.03373 1.00156 0.00068
 O97 O 0.02004 1.00016 -0.07961
 O98 O -0.01883 1.00004 -0.08047
 O99 O 0.02064 0.93954 0.00206
 O100 O -0.01884 1.06278 -0.00118
 O101 O -0.01873 0.94003 0.00165
 O102 O 0.02054 1.06351 -0.00082
 H103 H 0.02957 1.00346 0.11362
 H104 H -0.02906 1.08739 -0.00201
 H105 H 0.03000 0.99962 -0.11237
 H106 H -0.02890 0.91534 0.00190
 H107 H 0.01104 1.13393 0.04495
 H108 H 0.01134 1.13244 -0.05102
 H109 H -0.00675 1.03412 -0.17323
 H110 H -0.00649 0.96312 -0.17158
 H111 H 0.01157 0.86889 -0.04499
 H112 H 0.01115 0.87067 0.05090
 H113 H -0.00895 0.96828 0.17346
 H114 H -0.00878 1.04018 0.17181
 O115 O 0.46933 0.43019 0.10427
 O116 O 0.44511 0.46765 0.05006
 C117 C 0.44943 0.44127 0.08976
 O118 O 0.53206 0.58014 0.09443
 O119 O 0.55628 0.53819 0.04541
 C120 C 0.55198 0.56815 0.08088
 O121 O 0.46991 0.57733 0.10028
 O122 O 0.44540 0.53857 0.04811
 C123 C 0.44991 0.56617 0.08650
 O124 O 0.53137 0.42569 0.09935
 O125 O 0.55590 0.46510 0.04825
 C126 C 0.55137 0.43661 0.08525
 Zr127 Zr 0.50038 0.44922 0.07168
 O128 O 0.50279 0.45054 0.15934
 O129 O 0.49764 0.38224 0.07216
 Zr130 Zr 0.50082 0.55661 0.06817
 O131 O 0.50327 0.56006 0.15570
 O132 O 0.49853 0.62356 0.06354
 O133 O 0.48085 0.50343 0.08093
 O134 O 0.51979 0.50287 0.08018
 O135 O 0.53159 0.42156 -0.09405
 O136 O 0.55609 0.46299 -0.04534
 C137 C 0.55158 0.43294 -0.08050
 O138 O 0.46970 0.57083 -0.10556
 O139 O 0.44500 0.53635 -0.04876
 C140 C 0.44968 0.56109 -0.09002
 O141 O 0.53207 0.57620 -0.09874
 O142 O 0.55637 0.53617 -0.04777
 C143 C 0.55201 0.56498 -0.08449
 O144 O 0.46948 0.42622 -0.09998
 O145 O 0.44519 0.46597 -0.04816
 C146 C 0.44957 0.43817 -0.08646
 Zr147 Zr 0.50052 0.44619 -0.06809
 O148 O 0.50313 0.44316 -0.15567
 O149 O 0.49768 0.37930 -0.06408
 Zr150 Zr 0.50082 0.55348 -0.07149
 O151 O 0.50360 0.55404 -0.15906
 O152 O 0.49811 0.62047 -0.07115
 Zr153 Zr 0.46748 0.50188 0.00010
 Zr154 Zr 0.53369 0.50093 -0.00001
 O155 O 0.51989 0.49938 -0.08017
 O156 O 0.48097 0.49982 -0.08076
 O157 O 0.52032 0.43914 0.00207
 O158 O 0.48142 0.56306 -0.00192
 O159 O 0.48099 0.44033 0.00198
 O160 O 0.52075 0.56307 -0.00197
 H161 H 0.52968 0.50345 0.11299
 H162 H 0.47129 0.58782 -0.00284
 H163 H 0.52984 0.49857 -0.11292
 H164 H 0.47077 0.41572 0.00262
 H165 H 0.51183 0.63389 0.04364
 H166 H 0.51138 0.63195 -0.05218
 H167 H 0.49298 0.53286 -0.17365
 H168 H 0.49133 0.46137 -0.17118
 H169 H 0.51069 0.36850 -0.04357
 H170 H 0.51055 0.37062 0.05177
 H171 H 0.49073 0.46893 0.17346
 H172 H 0.49192 0.54078 0.17117
 C173 C 0.32419 0.32350 0.31287
 C174 C 0.32478 0.28165 0.33262
 C175 C 0.30844 0.26685 0.36885
 C176 C 0.29116 0.29372 0.38683
 C177 C 0.29035 0.33540 0.36601
 C178 C 0.30660 0.35001 0.32933
 C179 C 0.34220 0.33976 0.27684
 N180 N 0.34012 0.37747 0.25023
 N181 N 0.35663 0.39262 0.21929
 C182 C 0.37595 0.37081 0.21389
 N183 N 0.37800 0.33305 0.24034
 N184 N 0.36146 0.31781 0.27106
 C185 C 0.39460 0.38823 0.18097
 C186 C 0.41600 0.37089 0.18578
 C187 C 0.43376 0.38804 0.15610
 C188 C 0.43051 0.42264 0.12041
 C189 C 0.40905 0.43958 0.11493
 C190 C 0.39132 0.42274 0.14514
 H191 H 0.33801 0.26029 0.32043
 H192 H 0.30967 0.23451 0.38359
 H193 H 0.27730 0.35708 0.37853
 H194 H 0.30565 0.38244 0.31487
 H195 H 0.41912 0.34439 0.21313
 H196 H 0.45005 0.37412 0.16112
 H197 H 0.40596 0.46619 0.08776
 H198 H 0.37504 0.43674 0.14033
 C199 C -0.17525 0.82323 0.31477
 C200 C -0.17345 0.78327 0.34004
 C201 C -0.18985 0.76894 0.37641
 C202 C -0.20839 0.79435 0.38872
 C203 C -0.21043 0.83399 0.36271
 C204 C -0.19409 0.84820 0.32594
 C205 C -0.15725 0.83920 0.27844
 N206 N -0.15998 0.87503 0.24804
 N207 N -0.14351 0.88996 0.21674
 C208 C -0.12360 0.86979 0.21471
 N209 N -0.12092 0.83390 0.24495
 N210 N -0.13740 0.81889 0.27606
 C211 C -0.10502 0.88706 0.18137
 C212 C -0.08339 0.87125 0.18814
 C213 C -0.06571 0.88836 0.15812
 C214 C -0.06925 0.92143 0.12021
 C215 C -0.09094 0.93678 0.11273
 C216 C -0.10861 0.91995 0.14320
 H217 H -0.15923 0.76311 0.33215
 H218 H -0.18777 0.73825 0.39576
 H219 H -0.22454 0.85428 0.37123
 H220 H -0.19600 0.87914 0.30720
 H221 H -0.08003 0.84599 0.21726
 H222 H -0.04924 0.87567 0.16478
 H223 H -0.09428 0.96215 0.08378
 H224 H -0.12507 0.93275 0.13681
 C225 C 0.67442 0.68821 0.31082
 C226 C 0.69244 0.66241 0.32602
 C227 C 0.70814 0.67687 0.36440
 C228 C 0.70625 0.71754 0.38809
 C229 C 0.68848 0.74360 0.37203
 C230 C 0.67273 0.72908 0.33401
 C231 C 0.65711 0.67233 0.27234
 N232 N 0.63800 0.69443 0.26497
 N233 N 0.62206 0.67960 0.23202
 C234 C 0.62454 0.64207 0.20482
 N235 N 0.64373 0.62010 0.21178
 N236 N 0.65966 0.63488 0.24491
 C237 C 0.60636 0.62474 0.17013
 C238 C 0.60980 0.58884 0.13639
 C239 C 0.59230 0.57123 0.10606
 C240 C 0.57090 0.58887 0.10924
 C241 C 0.56758 0.62532 0.14200
 C242 C 0.58512 0.64316 0.17189
 H243 H 0.69423 0.63074 0.30900
 H244 H 0.72167 0.65607 0.37582
 H245 H 0.68653 0.77512 0.38945
 H246 H 0.65914 0.74988 0.32309
 H247 H 0.62597 0.57400 0.13384
 H248 H 0.59544 0.54315 0.08120
 H249 H 0.55134 0.63983 0.14517
 H250 H 0.58188 0.67084 0.19740
 C251 C 0.17474 1.19024 0.30873
 C252 C 0.19219 1.16352 0.32506
 C253 C 0.20808 1.17754 0.36314
 C254 C 0.20705 1.21885 0.38559
 C255 C 0.18985 1.24591 0.36801
 C256 C 0.17386 1.23169 0.33032
 C257 C 0.15721 1.17451 0.27077
 N258 N 0.13809 1.19666 0.26384
 N259 N 0.12195 1.18168 0.23151
 C260 C 0.12429 1.14401 0.20453
 N261 N 0.14350 1.12206 0.21104
 N262 N 0.15959 1.13695 0.24354
 C263 C 0.10598 1.12641 0.17047
 C264 C 0.10949 1.09071 0.13639
 C265 C 0.09196 1.07274 0.10656
 C266 C 0.07046 1.08979 0.11052
 C267 C 0.06703 1.12600 0.14371
 C268 C 0.08461 1.14422 0.17314
 H269 H 0.19337 1.13138 0.30927
 H270 H 0.22106 1.15571 0.37528
 H271 H 0.18844 1.27797 0.38404
 H272 H 0.16070 1.25317 0.31836
 H273 H 0.12575 1.07633 0.13314
 H274 H 0.09520 1.04488 0.08137
 H275 H 0.05070 1.14003 0.14750
 H276 H 0.08133 1.17171 0.19897
 C277 C 0.67405 0.30600 -0.30498
 C278 C 0.69284 0.33079 -0.31684
 C279 C 0.70860 0.31688 -0.35539
 C280 C 0.70605 0.27770 -0.38271
 C281 C 0.68759 0.25235 -0.36982
 C282 C 0.67172 0.26642 -0.33152
 C283 C 0.65665 0.32209 -0.26673
 N284 N 0.63687 0.30179 -0.26207
 N285 N 0.62084 0.31739 -0.22976
 C286 C 0.62393 0.35391 -0.20060
 N287 N 0.64380 0.37397 -0.20482
 N288 N 0.65980 0.35843 -0.23724
 C289 C 0.60572 0.37247 -0.16692
 C290 C 0.60950 0.40815 -0.13299
 C291 C 0.59204 0.42713 -0.10379
 C292 C 0.57036 0.41106 -0.10818
 C293 C 0.56667 0.37482 -0.14111
 C294 C 0.58416 0.35567 -0.16998
 H295 H 0.69518 0.36142 -0.29719
 H296 H 0.72269 0.33708 -0.36422
 H297 H 0.68515 0.22201 -0.39016
 H298 H 0.65750 0.24644 -0.32320
 H299 H 0.62592 0.42182 -0.12948
 H300 H 0.59548 0.45499 -0.07879
 H301 H 0.55020 0.36147 -0.14518
 H302 H 0.58064 0.32821 -0.19565
 C303 C 0.17495 0.80923 -0.30487
 C304 C 0.19257 0.83569 -0.32080
 C305 C 0.20828 0.82183 -0.35946
 C306 C 0.20694 0.78090 -0.38298
 C307 C 0.18961 0.75398 -0.36576
 C308 C 0.17375 0.76808 -0.32742
 C309 C 0.15755 0.82513 -0.26650
 N310 N 0.13826 0.80351 -0.25965
 N311 N 0.12219 0.81892 -0.22730
 C312 C 0.12477 0.85652 -0.20027
 N313 N 0.14416 0.87788 -0.20663
 N314 N 0.16019 0.86255 -0.23912
 C315 C 0.10648 0.87479 -0.16660
 C316 C 0.11002 0.91093 -0.13336
 C317 C 0.09247 0.92962 -0.10418
 C318 C 0.07093 0.91282 -0.10799
 C319 C 0.06748 0.87616 -0.14029
 C320 C 0.08506 0.85726 -0.16905
 H321 H 0.19400 0.86758 -0.30429
 H322 H 0.22138 0.84355 -0.37124
 H323 H 0.18799 0.72222 -0.38263
 H324 H 0.16045 0.74681 -0.31580
 H325 H 0.12633 0.92514 -0.13032
 H326 H 0.09572 0.95781 -0.07965
 H327 H 0.05111 0.86225 -0.14387
 H328 H 0.08173 0.82946 -0.19424
 C329 C 0.32426 0.67054 -0.31621
 C330 C 0.31439 0.64399 -0.35605
 C331 C 0.29778 0.65947 -0.39080
 C332 C 0.29114 0.70211 -0.38739
 C333 C 0.30092 0.72868 -0.34738
 C334 C 0.31714 0.71284 -0.31149
 C335 C 0.34248 0.65441 -0.28136
 N336 N 0.34543 0.66885 -0.22867
 N337 N 0.36207 0.65434 -0.19770
 C338 C 0.37655 0.62531 -0.21855
 N339 N 0.37362 0.61104 -0.27128
 N340 N 0.35684 0.62512 -0.30196
 C341 C 0.39530 0.60979 -0.18507
 C342 C 0.41551 0.59955 -0.21088
 C343 C 0.43334 0.58467 -0.17960
 C344 C 0.43108 0.57864 -0.12219
 C345 C 0.41082 0.58851 -0.09632
 C346 C 0.39316 0.60460 -0.12743
 H347 H 0.31954 0.61121 -0.36031
 H348 H 0.29058 0.63841 -0.42153
 H349 H 0.29603 0.76166 -0.34392
 H350 H 0.32459 0.73395 -0.28124
 H351 H 0.41758 0.60345 -0.25524
 H352 H 0.44875 0.57696 -0.20051
 H353 H 0.40873 0.58413 -0.05204
 H354 H 0.37768 0.61212 -0.10670
 C355 C -0.17565 1.16831 -0.31815
 C356 C -0.18531 1.14165 -0.35819
 C357 C -0.20196 1.15687 -0.39307
 C358 C -0.20883 1.19937 -0.38958
 C359 C -0.19926 1.22604 -0.34938
 C360 C -0.18301 1.21046 -0.31338
 C361 C -0.15741 1.15250 -0.28309
 N362 N -0.15459 1.16709 -0.23042
 N363 N -0.13792 1.15292 -0.19925
 C364 C -0.12328 1.12410 -0.21988
 N365 N -0.12608 1.10968 -0.27259
 N366 N -0.14288 1.12341 -0.30346
 C367 C -0.10451 1.10894 -0.18615
 C368 C -0.08425 1.09876 -0.21175
 C369 C -0.06641 1.08416 -0.18024
 C370 C -0.06871 1.07837 -0.12279
 C371 C -0.08902 1.08821 -0.09713
 C372 C -0.10669 1.10402 -0.12847
 H373 H -0.17997 1.10898 -0.36251
 H374 H -0.20900 1.13574 -0.42394
 H375 H -0.20433 1.25891 -0.34585
 H376 H -0.17573 1.23167 -0.28298
 H377 H -0.08214 1.10246 -0.25613
 H378 H -0.05096 1.07647 -0.20098
 H379 H -0.09113 1.08401 -0.05282
 H380 H -0.12219 1.11150 -0.10788
 C381 C 0.67479 0.69059 -0.30802
 C382 C 0.69244 0.66443 -0.32489
 C383 C 0.70817 0.67895 -0.36294
 C384 C 0.70681 0.72024 -0.38487
 C385 C 0.68944 0.74682 -0.36670
 C386 C 0.67358 0.73208 -0.32899
 C387 C 0.65738 0.67412 -0.27030
 N388 N 0.63812 0.69573 -0.26258
 N389 N 0.62206 0.67995 -0.23073
 C390 C 0.62460 0.64196 -0.20508
 N391 N 0.64395 0.62056 -0.21232
 N392 N 0.65998 0.63626 -0.24433
 C393 C 0.60632 0.62349 -0.17176
 C394 C 0.60986 0.58717 -0.13921
 C395 C 0.59234 0.56867 -0.10988
 C396 C 0.57086 0.58583 -0.11291
 C397 C 0.56741 0.62250 -0.14475
 C398 C 0.58495 0.64121 -0.17361
 H399 H 0.69388 0.63229 -0.30960
 H400 H 0.72130 0.65746 -0.37550
 H401 H 0.68779 0.77884 -0.38234
 H402 H 0.66025 0.75315 -0.31660
 H403 H 0.62614 0.57280 -0.13670
 H404 H 0.59556 0.54042 -0.08576
 H405 H 0.55108 0.63667 -0.14771
 H406 H 0.58162 0.66913 -0.19828
 C407 C 0.17459 1.18791 -0.31086
 C408 C 0.19287 1.16243 -0.32534
 C409 C 0.20866 1.17683 -0.36344
 C410 C 0.20661 1.21715 -0.38759
 C411 C 0.18861 1.24299 -0.37219
 C412 C 0.17275 1.22849 -0.33442
 C413 C 0.15717 1.17182 -0.27287
 N414 N 0.13779 1.19323 -0.26631
 N415 N 0.12176 1.17802 -0.23393
 C416 C 0.12444 1.14081 -0.20653
 N417 N 0.14391 1.11956 -0.21266
 N418 N 0.15992 1.13471 -0.24520
 C419 C 0.10620 1.12304 -0.17246
 C420 C 0.10977 1.08749 -0.13855
 C421 C 0.09227 1.06960 -0.10853
 C422 C 0.07076 1.08661 -0.11220
 C423 C 0.06729 1.12259 -0.14531
 C424 C 0.08481 1.14070 -0.17488
 H425 H 0.19480 1.13100 -0.30803
 H426 H 0.22237 1.15620 -0.37432
 H427 H 0.18655 1.27422 -0.39004
 H428 H 0.15893 1.24902 -0.32405
 H429 H 0.12606 1.07320 -0.13554
 H430 H 0.09552 1.04187 -0.08343
 H431 H 0.05095 1.13662 -0.14883
 H432 H 0.08146 1.16806 -0.20056
 C433 C 0.32510 0.32180 -0.31390
 C434 C 0.30683 0.34762 -0.32698
 C435 C 0.29058 0.33343 -0.36402
 C436 C 0.29216 0.29298 -0.38850
 C437 C 0.31014 0.26678 -0.37440
 C438 C 0.32645 0.28107 -0.33768
 C439 C 0.34298 0.33765 -0.27705
 N440 N 0.36223 0.31566 -0.27158
 N441 N 0.37862 0.33051 -0.24000
 C442 C 0.37645 0.36795 -0.21238
 N443 N 0.35714 0.38980 -0.21750
 N444 N 0.34077 0.37500 -0.24923
 C445 C 0.39496 0.38506 -0.17858
 C446 C 0.39184 0.42089 -0.14450
 C447 C 0.40948 0.43770 -0.11389
 C448 C 0.43068 0.41925 -0.11701
 C449 C 0.43376 0.38324 -0.15075
 C450 C 0.41609 0.36623 -0.18097
 H451 H 0.30527 0.37917 -0.30942
 H452 H 0.27691 0.35434 -0.37394
 H453 H 0.31185 0.23545 -0.39254
 H454 H 0.34023 0.26026 -0.32834
 H455 H 0.37578 0.43614 -0.14160
 H456 H 0.40656 0.46561 -0.08852
 H457 H 0.44987 0.36821 -0.15395
 H458 H 0.41909 0.33865 -0.20686
 C459 C -0.17578 0.83021 -0.31435
 C460 C -0.18300 0.78794 -0.31075
 C461 C -0.19929 0.77259 -0.34698
 C462 C -0.20904 0.79963 -0.38618
 C463 C -0.20234 0.84224 -0.38841
 C464 C -0.18565 0.85724 -0.35334
 C465 C -0.15744 0.84580 -0.27934
 N466 N -0.14289 0.87473 -0.29961
 N467 N -0.12600 0.88836 -0.26881
 C468 C -0.12315 0.87399 -0.21627
 N469 N -0.13781 0.84531 -0.19573
 N470 N -0.15456 0.83123 -0.22685
 C471 C -0.10433 0.88915 -0.18262
 C472 C -0.10655 0.89512 -0.12506
 C473 C -0.08887 0.91136 -0.09395
 C474 C -0.06853 0.92056 -0.11971
 C475 C -0.06617 0.91358 -0.17699
 C476 C -0.08401 0.89858 -0.20829
 H477 H -0.17555 0.76647 -0.28116
 H478 H -0.20423 0.73961 -0.34446
 H479 H -0.20951 0.86366 -0.41851
 H480 H -0.18042 0.89000 -0.35673
 H481 H -0.12211 0.88824 -0.10445
 H482 H -0.09103 0.91651 -0.04977
 H483 H -0.05069 0.92079 -0.19781
 H484 H -0.08189 0.89407 -0.25258
 C485 C 0.32501 0.68323 0.31282
 C486 C 0.32682 0.72273 0.33974
 C487 C 0.31038 0.73648 0.37658
 C488 C 0.29181 0.71092 0.38771
 C489 C 0.28977 0.67177 0.36005
 C490 C 0.30614 0.65815 0.32283
 C491 C 0.34303 0.66776 0.27601
 N492 N 0.34026 0.63247 0.24419
 N493 N 0.35673 0.61785 0.21253
 C494 C 0.37671 0.63780 0.21151
 N495 N 0.37944 0.67318 0.24314
 N496 N 0.36295 0.68788 0.27463
 C497 C 0.39530 0.62067 0.17786
 C498 C 0.41699 0.63606 0.18528
 C499 C 0.43468 0.61870 0.15527
 C500 C 0.43107 0.58579 0.11676
 C501 C 0.40930 0.57105 0.10848
 C502 C 0.39165 0.58812 0.13888
 H503 H 0.34106 0.74295 0.33278
 H504 H 0.31246 0.76681 0.39722
 H505 H 0.27564 0.65139 0.36764
 H506 H 0.30422 0.62755 0.30282
 H507 H 0.42040 0.66107 0.21501
 H508 H 0.45121 0.63092 0.16257
 H509 H 0.40589 0.54588 0.07899
 H510 H 0.37514 0.57568 0.13191
 C511 C -0.17604 1.18093 0.31189
 C512 C -0.19394 1.15435 0.32541
 C513 C -0.21027 1.16784 0.36277
 C514 C -0.20922 1.20846 0.38727
 C515 C -0.19162 1.23550 0.37225
 C516 C -0.17519 1.22180 0.33530
 C517 C -0.15798 1.16563 0.27510
 N518 N -0.13852 1.18718 0.27150
 N519 N -0.12194 1.17259 0.24017
 C520 C -0.12414 1.13590 0.21092
 N521 N -0.14367 1.11453 0.21413
 N522 N -0.16021 1.12902 0.24565
 C523 C -0.10546 1.11892 0.17752
 C524 C -0.10880 1.08522 0.14007
 C525 C -0.09105 1.06832 0.10989
 C526 C -0.06947 1.08439 0.11690
 C527 C -0.06616 1.11839 0.15392
 C528 C -0.08396 1.13559 0.18368
 H529 H -0.19510 1.12267 0.30811
 H530 H -0.22357 1.14607 0.37292
 H531 H -0.19019 1.26706 0.38988
 H532 H -0.16171 1.24320 0.32545
 H533 H -0.12516 1.07176 0.13412
 H534 H -0.09422 1.04224 0.08161
 H535 H -0.04977 1.13163 0.16018
 H536 H -0.08079 1.16149 0.21224
 C537 C 0.67372 0.31478 0.31333
 C538 C 0.69196 0.34011 0.32853
 C539 C 0.70782 0.32502 0.36593
 C540 C 0.70588 0.28416 0.38858
 C541 C 0.68788 0.25859 0.37254
 C542 C 0.67197 0.27376 0.33553
 C543 C 0.65628 0.33130 0.27584
 N544 N 0.63694 0.30982 0.26898
 N545 N 0.62094 0.32514 0.23676
 C546 C 0.62359 0.36255 0.20979
 N547 N 0.64301 0.38390 0.21625
 N548 N 0.65900 0.36864 0.24867
 C549 C 0.60541 0.38025 0.17558
 C550 C 0.60907 0.41555 0.14128
 C551 C 0.59165 0.43319 0.11084
 C552 C 0.57013 0.41621 0.11447
 C553 C 0.56656 0.38052 0.14808
 C554 C 0.58401 0.36263 0.17805
 H555 H 0.69380 0.37189 0.31227
 H556 H 0.72152 0.34547 0.37737
 H557 H 0.68588 0.22696 0.38921
 H558 H 0.65820 0.25332 0.32460
 H559 H 0.62537 0.42979 0.13822
 H560 H 0.59498 0.46068 0.08535
 H561 H 0.55021 0.36654 0.15163
 H562 H 0.58059 0.33547 0.20405
 C563 C 0.17411 0.81723 0.31447
 C564 C 0.19217 0.84286 0.33014
 C565 C 0.20798 0.82796 0.36781
 C566 C 0.20615 0.78703 0.39027
 C567 C 0.18834 0.76117 0.37373
 C568 C 0.17249 0.77612 0.33645
 C569 C 0.15670 0.83349 0.27671
 N570 N 0.13753 0.81159 0.26933
 N571 N 0.12153 0.82665 0.23688
 C572 C 0.12403 0.86421 0.21020
 N573 N 0.14328 0.88600 0.21720
 N574 N 0.15927 0.87099 0.24984
 C575 C 0.10585 0.88161 0.17579
 C576 C 0.10938 0.91713 0.14181
 C577 C 0.09193 0.93452 0.11124
 C578 C 0.07050 0.91705 0.11444
 C579 C 0.06707 0.88112 0.14769
 C580 C 0.08455 0.86349 0.17778
 H581 H 0.19391 0.87471 0.31404
 H582 H 0.22154 0.84862 0.37965
 H583 H 0.18643 0.72946 0.39022
 H584 H 0.15887 0.75545 0.32513
 H585 H 0.12559 0.93174 0.13912
 H586 H 0.09514 0.96222 0.08606
 H587 H 0.05080 0.86677 0.15089
 H588 H 0.08124 0.83613 0.20352
   
