data_POSCAR
  _audit_creation_date              2014-09-24
  _audit_creation_method            'ToBaCCo'
  _symmetry_space_group_name_H-M    'P1'
  _symmetry_Int_Tables_number       1
  _symmetry_cell_setting            triclinic
  loop_
  _symmetry_equiv_pos_as_xyz
 x,y,z
_cell_length_a 44.3076
_cell_length_b 44.3076
_cell_length_c 44.3076
_cell_angle_alpha 89.998300
_cell_angle_beta 89.976400
_cell_angle_gamma 89.998700
loop_
  _atom_site_label
  _atom_site_type_symbol
  _atom_site_fract_x
  _atom_site_fract_y
  _atom_site_fract_z
Zn1 Zn 0.77392 0.72615 0.77380
 Zn2 Zn 0.77394 0.77380 0.72617
 Zn3 Zn 0.72630 0.72616 0.72617
 Zn4 Zn 0.72628 0.77380 0.77382
 O5 O 0.75011 0.74998 0.74999
 O6 O 0.81340 0.73233 0.76762
 O7 O 0.76778 0.76763 0.68670
 O8 O 0.73248 0.68669 0.73234
 O9 O 0.81341 0.76762 0.73235
 O10 O 0.76775 0.68668 0.76761
 O11 O 0.73250 0.73235 0.68670
 O12 O 0.68682 0.76762 0.76763
 O13 O 0.76776 0.81327 0.73236
 O14 O 0.68683 0.73235 0.73235
 O15 O 0.73247 0.81327 0.76764
 O16 O 0.73245 0.76760 0.81328
 O17 O 0.76772 0.73232 0.81327
 C18 C 0.82751 0.74998 0.74999
 C19 C 0.75014 0.74999 0.67260
 C20 C 0.75011 0.67259 0.74997
 C21 C 0.67272 0.74998 0.74999
 C22 C 0.75012 0.82737 0.75000
 C23 C 0.75008 0.74996 0.82738
 Zn24 Zn 0.22631 0.72615 0.72618
 Zn25 Zn 0.22629 0.77381 0.77381
 Zn26 Zn 0.27393 0.72617 0.77382
 Zn27 Zn 0.27395 0.77379 0.72616
 O28 O 0.25012 0.74998 0.74999
 O29 O 0.18684 0.73233 0.73236
 O30 O 0.23245 0.76763 0.81328
 O31 O 0.26776 0.68669 0.76765
 O32 O 0.18682 0.76762 0.76763
 O33 O 0.23249 0.68669 0.73237
 O34 O 0.26773 0.73236 0.81328
 O35 O 0.31342 0.76761 0.73234
 O36 O 0.23247 0.81327 0.76761
 O37 O 0.31340 0.73235 0.76763
 O38 O 0.26776 0.81327 0.73234
 O39 O 0.26778 0.76760 0.68669
 O40 O 0.23250 0.73232 0.68671
 C41 C 0.17273 0.74997 0.75000
 C42 C 0.25009 0.74999 0.82738
 C43 C 0.25013 0.67259 0.75001
 C44 C 0.32751 0.74998 0.74999
 C45 C 0.25012 0.82737 0.74997
 C46 C 0.25014 0.74996 0.67260
 Zn47 Zn 0.72630 0.22617 0.77384
 Zn48 Zn 0.77395 0.22616 0.72620
 Zn49 Zn 0.72631 0.27380 0.72619
 Zn50 Zn 0.77393 0.27381 0.77383
 O51 O 0.75012 0.24998 0.75001
 O52 O 0.73248 0.18670 0.76767
 O53 O 0.76778 0.23232 0.68673
 O54 O 0.68684 0.26762 0.73238
 O55 O 0.76777 0.18669 0.73239
 O56 O 0.68683 0.23235 0.76767
 O57 O 0.73250 0.26760 0.68672
 O58 O 0.76775 0.31328 0.76764
 O59 O 0.81342 0.23234 0.73237
 O60 O 0.73249 0.31326 0.73236
 O61 O 0.81341 0.26763 0.76764
 O62 O 0.76774 0.26763 0.81330
 O63 O 0.73247 0.23236 0.81331
 C64 C 0.75012 0.17259 0.75003
 C65 C 0.75014 0.24996 0.67262
 C66 C 0.67273 0.24999 0.75003
 C67 C 0.75012 0.32737 0.74999
 C68 C 0.82751 0.24998 0.75000
 C69 C 0.75010 0.25000 0.82740
 Zn70 Zn 0.27396 0.22617 0.72618
 Zn71 Zn 0.22630 0.22615 0.77383
 Zn72 Zn 0.27394 0.27380 0.77384
 Zn73 Zn 0.22631 0.27381 0.72620
 O74 O 0.25013 0.24998 0.75001
 O75 O 0.26778 0.18670 0.73235
 O76 O 0.23247 0.23232 0.81330
 O77 O 0.31341 0.26762 0.76766
 O78 O 0.23249 0.18668 0.76763
 O79 O 0.31342 0.23236 0.73236
 O80 O 0.26774 0.26760 0.81331
 O81 O 0.23250 0.31328 0.73239
 O82 O 0.18683 0.23233 0.76765
 O83 O 0.26776 0.31327 0.76767
 O84 O 0.18684 0.26763 0.73239
 O85 O 0.23250 0.26764 0.68673
 O86 O 0.26778 0.23237 0.68672
 C87 C 0.25014 0.17259 0.74999
 C88 C 0.25010 0.24995 0.82740
 C89 C 0.32752 0.24999 0.75001
 C90 C 0.25013 0.32737 0.75003
 C91 C 0.17274 0.24998 0.75003
 C92 C 0.25014 0.25000 0.67262
 Zn93 Zn 0.72617 0.72604 0.22617
 Zn94 Zn 0.77381 0.77368 0.22617
 Zn95 Zn 0.72617 0.77367 0.27382
 Zn96 Zn 0.77381 0.72603 0.27380
 O97 O 0.74999 0.74985 0.24999
 O98 O 0.73236 0.73223 0.18670
 O99 O 0.76763 0.81315 0.23236
 O100 O 0.68670 0.76749 0.26765
 O101 O 0.76763 0.76751 0.18670
 O102 O 0.68670 0.73222 0.23237
 O103 O 0.73235 0.81314 0.26765
 O104 O 0.76763 0.73221 0.31327
 O105 O 0.81328 0.76750 0.23233
 O106 O 0.73235 0.76748 0.31329
 O107 O 0.81328 0.73221 0.26761
 O108 O 0.76763 0.68656 0.26761
 O109 O 0.73236 0.68657 0.23235
 C110 C 0.75000 0.74987 0.17260
 C111 C 0.74999 0.82724 0.25001
 C112 C 0.67260 0.74986 0.25001
 C113 C 0.74999 0.74985 0.32738
 C114 C 0.82738 0.74986 0.24997
 C115 C 0.75000 0.67246 0.24997
 Zn116 Zn 0.27381 0.77368 0.22616
 Zn117 Zn 0.22617 0.72604 0.22618
 Zn118 Zn 0.27380 0.72603 0.27380
 Zn119 Zn 0.22616 0.77368 0.27382
 O120 O 0.24998 0.74986 0.24999
 O121 O 0.26763 0.76750 0.18670
 O122 O 0.23234 0.68657 0.23236
 O123 O 0.31327 0.73221 0.26761
 O124 O 0.23235 0.73222 0.18671
 O125 O 0.31328 0.76750 0.23234
 O126 O 0.26761 0.68656 0.26763
 O127 O 0.23234 0.76750 0.31329
 O128 O 0.18670 0.73223 0.23237
 O129 O 0.26762 0.73222 0.31327
 O130 O 0.18669 0.76750 0.26765
 O131 O 0.23234 0.81315 0.26763
 O132 O 0.26762 0.81315 0.23234
 C133 C 0.24999 0.74986 0.17260
 C134 C 0.24997 0.67247 0.25000
 C135 C 0.32737 0.74986 0.24997
 C136 C 0.24998 0.74987 0.32738
 C137 C 0.17259 0.74987 0.25001
 C138 C 0.24998 0.82725 0.24998
 Zn139 Zn 0.72618 0.27366 0.22620
 Zn140 Zn 0.77382 0.22602 0.22619
 Zn141 Zn 0.77382 0.27367 0.27382
 Zn142 Zn 0.72618 0.22603 0.27385
 O143 O 0.75000 0.24984 0.25001
 O144 O 0.73237 0.26747 0.18673
 O145 O 0.81329 0.23220 0.23236
 O146 O 0.76764 0.31314 0.26763
 O147 O 0.76764 0.23219 0.18672
 O148 O 0.73236 0.31313 0.23237
 O149 O 0.81329 0.26748 0.26763
 O150 O 0.73236 0.23222 0.31331
 O151 O 0.76764 0.18655 0.23238
 O152 O 0.76764 0.26749 0.31329
 O153 O 0.73236 0.18656 0.26768
 O154 O 0.68671 0.23220 0.26768
 O155 O 0.68671 0.26748 0.23239
 C156 C 0.75001 0.24983 0.17262
 C157 C 0.82739 0.24983 0.24999
 C158 C 0.75000 0.32724 0.24999
 C159 C 0.75000 0.24985 0.32740
 C160 C 0.75000 0.17245 0.25003
 C161 C 0.67261 0.24984 0.25004
 Zn162 Zn 0.22617 0.27367 0.22621
 Zn163 Zn 0.27381 0.22603 0.22619
 Zn164 Zn 0.27381 0.27367 0.27383
 Zn165 Zn 0.22617 0.22603 0.27384
 O166 O 0.24999 0.24985 0.25002
 O167 O 0.23236 0.26749 0.18673
 O168 O 0.31328 0.23220 0.23236
 O169 O 0.26762 0.31314 0.26765
 O170 O 0.26764 0.23222 0.18672
 O171 O 0.23234 0.31314 0.23239
 O172 O 0.31328 0.26749 0.26763
 O173 O 0.23236 0.23220 0.31331
 O174 O 0.26763 0.18656 0.23236
 O175 O 0.26763 0.26748 0.31330
 O176 O 0.23235 0.18656 0.26766
 O177 O 0.18671 0.23220 0.26768
 O178 O 0.18670 0.26748 0.23240
 C179 C 0.25000 0.24986 0.17263
 C180 C 0.32738 0.24984 0.24999
 C181 C 0.24998 0.32724 0.25002
 C182 C 0.24999 0.24984 0.32741
 C183 C 0.24999 0.17246 0.25000
 C184 C 0.17260 0.24984 0.25004
 C185 C -0.09133 0.76929 0.73067
 C186 C -0.07550 0.74996 0.74998
 C187 C -0.09135 0.73063 0.76929
 C188 C -0.12290 0.73061 0.76932
 C189 C -0.13905 0.74997 0.74999
 C190 C -0.12288 0.76932 0.73065
 C191 C -0.04301 0.74995 0.74998
 C192 C -0.01581 0.74994 0.74998
 C193 C 0.01604 0.74992 0.74999
 C194 C 0.04325 0.74992 0.75000
 C195 C 0.07573 0.74994 0.74999
 C196 C 0.09155 0.76928 0.76930
 C197 C 0.12311 0.76932 0.76933
 C198 C 0.13928 0.74997 0.75000
 C199 C 0.12314 0.73060 0.73066
 C200 C 0.09159 0.73062 0.73068
 H201 H -0.07928 0.78435 0.71563
 H202 H -0.07931 0.71557 0.78434
 H203 H -0.13463 0.71544 0.78448
 H204 H -0.13460 0.78450 0.71549
 H205 H 0.07950 0.78433 0.78435
 H206 H 0.13482 0.78449 0.78449
 H207 H 0.13487 0.71544 0.71550
 H208 H 0.07956 0.71555 0.71564
 C209 C 0.76944 -0.09147 0.73068
 C210 C 0.75010 -0.07564 0.74999
 C211 C 0.73077 -0.09147 0.76931
 C212 C 0.73075 -0.12303 0.76934
 C213 C 0.75011 -0.13919 0.75000
 C214 C 0.76947 -0.12303 0.73066
 C215 C 0.75009 -0.04315 0.74998
 C216 C 0.75008 -0.01595 0.74999
 C217 C 0.75007 0.01591 0.75002
 C218 C 0.75007 0.04311 0.75003
 C219 C 0.75009 0.07560 0.75004
 C220 C 0.73076 0.09144 0.76935
 C221 C 0.73075 0.12300 0.76938
 C222 C 0.75011 0.13915 0.75004
 C223 C 0.76946 0.12298 0.73070
 C224 C 0.76943 0.09143 0.73072
 H225 H 0.78450 -0.07943 0.71563
 H226 H 0.71571 -0.07943 0.78436
 H227 H 0.71558 -0.13475 0.78450
 H228 H 0.78465 -0.13475 0.71550
 H229 H 0.71570 0.07940 0.78440
 H230 H 0.71558 0.13472 0.78454
 H231 H 0.78464 0.13470 0.71553
 H232 H 0.78448 0.07938 0.71567
 C233 C 0.76935 0.73059 -0.09147
 C234 C 0.75002 0.74990 -0.07563
 C235 C 0.73071 0.76923 -0.09146
 C236 C 0.73070 0.76928 -0.12301
 C237 C 0.75006 0.74994 -0.13918
 C238 C 0.76940 0.73058 -0.12303
 C239 C 0.75000 0.74988 -0.04314
 C240 C 0.74999 0.74988 -0.01594
 C241 C 0.75000 0.74988 0.01592
 C242 C 0.74999 0.74989 0.04312
 C243 C 0.74999 0.74989 0.07561
 C244 C 0.73067 0.73057 0.09145
 C245 C 0.73065 0.73054 0.12301
 C246 C 0.75000 0.74988 0.13916
 C247 C 0.76934 0.76923 0.12299
 C248 C 0.76931 0.76921 0.09144
 H249 H 0.78439 0.71553 -0.07943
 H250 H 0.71565 0.78428 -0.07941
 H251 H 0.71555 0.78445 -0.13473
 H252 H 0.78457 0.71542 -0.13475
 H253 H 0.71562 0.71552 0.07941
 H254 H 0.71549 0.71537 0.13473
 H255 H 0.78451 0.78439 0.13471
 H256 H 0.78436 0.78426 0.07939
 C257 C 0.59155 0.76928 0.76932
 C258 C 0.57573 0.74996 0.74999
 C259 C 0.59158 0.73066 0.73065
 C260 C 0.62314 0.73064 0.73063
 C261 C 0.63928 0.74998 0.74999
 C262 C 0.62311 0.76931 0.76935
 C263 C 0.54325 0.74995 0.74998
 C264 C 0.51604 0.74993 0.74997
 C265 C 0.48419 0.74992 0.74997
 C266 C 0.45699 0.74992 0.74998
 C267 C 0.42450 0.74994 0.74998
 C268 C 0.40868 0.76926 0.73065
 C269 C 0.37712 0.76930 0.73063
 C270 C 0.36095 0.74997 0.74999
 C271 C 0.37709 0.73063 0.76935
 C272 C 0.40865 0.73064 0.76932
 H273 H 0.57950 0.78431 0.78438
 H274 H 0.57955 0.71562 0.71559
 H275 H 0.63487 0.71549 0.71546
 H276 H 0.63482 0.78446 0.78452
 H277 H 0.42073 0.78429 0.71559
 H278 H 0.36541 0.78446 0.71545
 H279 H 0.36536 0.71548 0.78452
 H280 H 0.42068 0.71560 0.78438
 C281 C 0.26945 -0.09148 0.73064
 C282 C 0.25012 -0.07564 0.74995
 C283 C 0.23078 -0.09147 0.76927
 C284 C 0.23076 -0.12303 0.76930
 C285 C 0.25012 -0.13919 0.74997
 C286 C 0.26948 -0.12303 0.73062
 C287 C 0.25010 -0.04315 0.74994
 C288 C 0.25011 -0.01594 0.74993
 C289 C 0.25014 0.01591 0.74992
 C290 C 0.25015 0.04311 0.74992
 C291 C 0.25015 0.07560 0.74994
 C292 C 0.23082 0.09142 0.76927
 C293 C 0.23079 0.12298 0.76931
 C294 C 0.25014 0.13915 0.74997
 C295 C 0.26950 0.12300 0.73062
 C296 C 0.26948 0.09145 0.73063
 H297 H 0.28451 -0.07944 0.71559
 H298 H 0.21572 -0.07942 0.78431
 H299 H 0.21559 -0.13474 0.78447
 H300 H 0.28466 -0.13475 0.71546
 H301 H 0.21576 0.07937 0.78431
 H302 H 0.21561 0.13469 0.78447
 H303 H 0.28468 0.13473 0.71547
 H304 H 0.28454 0.07941 0.71558
 C305 C 0.26936 0.73065 -0.09146
 C306 C 0.25002 0.74996 -0.07562
 C307 C 0.23072 0.76929 -0.09146
 C308 C 0.23072 0.76933 -0.12301
 C309 C 0.25007 0.74999 -0.13917
 C310 C 0.26941 0.73064 -0.12302
 C311 C 0.24999 0.74992 -0.04314
 C312 C 0.24997 0.74990 -0.01593
 C313 C 0.24996 0.74989 0.01592
 C314 C 0.24995 0.74990 0.04312
 C315 C 0.24996 0.74989 0.07561
 C316 C 0.23065 0.73057 0.09145
 C317 C 0.23063 0.73053 0.12301
 C318 C 0.24998 0.74987 0.13916
 C319 C 0.26932 0.76922 0.12299
 C320 C 0.26929 0.76921 0.09144
 H321 H 0.28440 0.71559 -0.07943
 H322 H 0.21566 0.78433 -0.07941
 H323 H 0.21556 0.78450 -0.13473
 H324 H 0.28458 0.71548 -0.13474
 H325 H 0.21559 0.71552 0.07942
 H326 H 0.21547 0.71537 0.13474
 H327 H 0.28449 0.78439 0.13471
 H328 H 0.28433 0.78426 0.07939
 C329 C -0.09133 0.23064 0.73069
 C330 C -0.07549 0.24996 0.75000
 C331 C -0.09133 0.26930 0.76931
 C332 C -0.12289 0.26934 0.76933
 C333 C -0.13904 0.24998 0.75000
 C334 C -0.12288 0.23062 0.73066
 C335 C -0.04301 0.24994 0.75000
 C336 C -0.01580 0.24994 0.75002
 C337 C 0.01605 0.24995 0.75003
 C338 C 0.04325 0.24997 0.75002
 C339 C 0.07574 0.24998 0.75003
 C340 C 0.09157 0.23065 0.76934
 C341 C 0.12313 0.23063 0.76937
 C342 C 0.13929 0.24998 0.75003
 C343 C 0.12314 0.26934 0.73070
 C344 C 0.09158 0.26931 0.73072
 H345 H -0.07928 0.21558 0.71565
 H346 H -0.07929 0.28435 0.78435
 H347 H -0.13461 0.28451 0.78449
 H348 H -0.13460 0.21545 0.71550
 H349 H 0.07953 0.21559 0.78438
 H350 H 0.13484 0.21545 0.78452
 H351 H 0.13486 0.28451 0.71554
 H352 H 0.07955 0.28437 0.71568
 C353 C 0.73080 0.59144 0.73063
 C354 C 0.75010 0.57560 0.74995
 C355 C 0.76941 0.59142 0.76929
 C356 C 0.76944 0.62298 0.76932
 C357 C 0.75011 0.63914 0.74997
 C358 C 0.73078 0.62300 0.73061
 C359 C 0.75009 0.54311 0.74995
 C360 C 0.75008 0.51591 0.74994
 C361 C 0.75008 0.48405 0.74994
 C362 C 0.75009 0.45685 0.74994
 C363 C 0.75010 0.42437 0.74995
 C364 C 0.76941 0.40854 0.76929
 C365 C 0.76944 0.37698 0.76933
 C366 C 0.75011 0.36082 0.74998
 C367 C 0.73078 0.37696 0.73062
 C368 C 0.73080 0.40852 0.73063
 H369 H 0.71576 0.57941 0.71557
 H370 H 0.78444 0.57938 0.78434
 H371 H 0.78459 0.63469 0.78449
 H372 H 0.71563 0.63472 0.71544
 H373 H 0.78444 0.42059 0.78434
 H374 H 0.78460 0.36527 0.78450
 H375 H 0.71563 0.36523 0.71545
 H376 H 0.71576 0.42055 0.71557
 C377 C 0.76939 0.26931 -0.09143
 C378 C 0.75006 0.24998 -0.07560
 C379 C 0.73075 0.23066 -0.09144
 C380 C 0.73073 0.23065 -0.12300
 C381 C 0.75009 0.25000 -0.13915
 C382 C 0.76942 0.26934 -0.12299
 C383 C 0.75005 0.24997 -0.04312
 C384 C 0.75004 0.24994 -0.01591
 C385 C 0.75004 0.24990 0.01594
 C386 C 0.75004 0.24987 0.04315
 C387 C 0.75004 0.24986 0.07563
 C388 C 0.73071 0.26918 0.09148
 C389 C 0.73068 0.26919 0.12303
 C390 C 0.75002 0.24984 0.13918
 C391 C 0.76937 0.23050 0.12302
 C392 C 0.76935 0.23053 0.09146
 H393 H 0.78443 0.28435 -0.07939
 H394 H 0.71569 0.21561 -0.07940
 H395 H 0.71557 0.21548 -0.13472
 H396 H 0.78459 0.28451 -0.13471
 H397 H 0.71567 0.28423 0.07944
 H398 H 0.71551 0.28435 0.13476
 H399 H 0.78453 0.21533 0.13473
 H400 H 0.78440 0.21549 0.07941
 C401 C 0.59157 0.23067 0.76937
 C402 C 0.57574 0.24997 0.75003
 C403 C 0.59158 0.26928 0.73070
 C404 C 0.62313 0.26931 0.73068
 C405 C 0.63929 0.24998 0.75003
 C406 C 0.62313 0.23065 0.76939
 C407 C 0.54325 0.24994 0.75002
 C408 C 0.51605 0.24994 0.75002
 C409 C 0.48420 0.24996 0.75002
 C410 C 0.45699 0.24996 0.75001
 C411 C 0.42451 0.24998 0.75000
 C412 C 0.40868 0.23067 0.73067
 C413 C 0.37712 0.23066 0.73064
 C414 C 0.36096 0.24999 0.75000
 C415 C 0.37711 0.26932 0.76936
 C416 C 0.40867 0.26929 0.76934
 H417 H 0.57953 0.21562 0.78443
 H418 H 0.57954 0.28431 0.71564
 H419 H 0.63486 0.28447 0.71550
 H420 H 0.63485 0.21550 0.78457
 H421 H 0.42072 0.21563 0.71561
 H422 H 0.36540 0.21550 0.71547
 H423 H 0.36539 0.28448 0.78454
 H424 H 0.42071 0.28432 0.78440
 C425 C 0.23083 0.59143 0.73069
 C426 C 0.25014 0.57560 0.75003
 C427 C 0.26944 0.59144 0.76935
 C428 C 0.26946 0.62299 0.76937
 C429 C 0.25013 0.63915 0.75002
 C430 C 0.23080 0.62299 0.73067
 C431 C 0.25014 0.54311 0.75002
 C432 C 0.25014 0.51591 0.75003
 C433 C 0.25015 0.48406 0.75003
 C434 C 0.25014 0.45685 0.75004
 C435 C 0.25014 0.42437 0.75004
 C436 C 0.26944 0.40853 0.76937
 C437 C 0.26946 0.37697 0.76939
 C438 C 0.25013 0.36082 0.75004
 C439 C 0.23081 0.37698 0.73068
 C440 C 0.23084 0.40853 0.73071
 H441 H 0.21580 0.57939 0.71564
 H442 H 0.28448 0.57940 0.78441
 H443 H 0.28461 0.63472 0.78454
 H444 H 0.21565 0.63470 0.71549
 H445 H 0.28448 0.42056 0.78442
 H446 H 0.28462 0.36525 0.78456
 H447 H 0.21565 0.36526 0.71551
 H448 H 0.21580 0.42058 0.71565
 C449 C 0.26938 0.26924 -0.09143
 C450 C 0.25005 0.24991 -0.07560
 C451 C 0.23074 0.23060 -0.09145
 C452 C 0.23073 0.23059 -0.12300
 C453 C 0.25008 0.24994 -0.13915
 C454 C 0.26942 0.26928 -0.12299
 C455 C 0.25003 0.24989 -0.04312
 C456 C 0.25001 0.24987 -0.01591
 C457 C 0.24999 0.24985 0.01594
 C458 C 0.24999 0.24985 0.04315
 C459 C 0.25000 0.24986 0.07563
 C460 C 0.23068 0.26918 0.09148
 C461 C 0.23066 0.26921 0.12303
 C462 C 0.25000 0.24986 0.13918
 C463 C 0.26935 0.23052 0.12302
 C464 C 0.26932 0.23054 0.09146
 H465 H 0.28442 0.28428 -0.07938
 H466 H 0.21568 0.21554 -0.07941
 H467 H 0.21557 0.21543 -0.13473
 H468 H 0.28459 0.28445 -0.13470
 H469 H 0.21563 0.28423 0.07944
 H470 H 0.21549 0.28437 0.13476
 H471 H 0.28451 0.21535 0.13473
 H472 H 0.28437 0.21549 0.07941
 C473 C -0.09146 0.76919 0.23065
 C474 C -0.07563 0.74987 0.24997
 C475 C -0.09147 0.73055 0.26929
 C476 C -0.12303 0.73052 0.26931
 C477 C -0.13918 0.74986 0.24997
 C478 C -0.12302 0.76921 0.23062
 C479 C -0.04314 0.74986 0.24996
 C480 C -0.01594 0.74986 0.24997
 C481 C 0.01591 0.74986 0.25000
 C482 C 0.04312 0.74986 0.25001
 C483 C 0.07560 0.74987 0.25001
 C484 C 0.09143 0.76920 0.26933
 C485 C 0.12299 0.76922 0.26935
 C486 C 0.13915 0.74987 0.25001
 C487 C 0.12300 0.73053 0.23067
 C488 C 0.09144 0.73055 0.23069
 H489 H -0.07941 0.78424 0.21560
 H490 H -0.07943 0.71550 0.28433
 H491 H -0.13475 0.71535 0.28448
 H492 H -0.13473 0.78438 0.21546
 H493 H 0.07938 0.78425 0.28438
 H494 H 0.13470 0.78438 0.28452
 H495 H 0.13473 0.71536 0.21550
 H496 H 0.07941 0.71550 0.21564
 C497 C 0.76934 -0.09160 0.23073
 C498 C 0.75002 -0.07577 0.25006
 C499 C 0.73069 -0.09161 0.26938
 C500 C 0.73065 -0.12316 0.26938
 C501 C 0.75000 -0.13931 0.25002
 C502 C 0.76935 -0.12315 0.23068
 C503 C 0.75001 -0.04328 0.25007
 C504 C 0.75003 -0.01608 0.25007
 C505 C 0.75002 0.01577 0.25008
 C506 C 0.75003 0.04298 0.25007
 C507 C 0.75003 0.07546 0.25007
 C508 C 0.73070 0.09130 0.26939
 C509 C 0.73066 0.12286 0.26940
 C510 C 0.75001 0.13901 0.25005
 C511 C 0.76936 0.12285 0.23070
 C512 C 0.76935 0.09130 0.23074
 H513 H 0.78439 -0.07955 0.21568
 H514 H 0.71564 -0.07957 0.28444
 H515 H 0.71548 -0.13489 0.28455
 H516 H 0.78452 -0.13487 0.21551
 H517 H 0.71565 0.07926 0.28445
 H518 H 0.71549 0.13458 0.28457
 H519 H 0.78453 0.13457 0.21553
 H520 H 0.78440 0.07925 0.21569
 C521 C 0.73083 0.73067 0.59145
 C522 C 0.75015 0.74999 0.57560
 C523 C 0.76947 0.76932 0.59143
 C524 C 0.76949 0.76934 0.62299
 C525 C 0.75014 0.74999 0.63915
 C526 C 0.73080 0.73065 0.62301
 C527 C 0.75015 0.74999 0.54312
 C528 C 0.75013 0.74998 0.51591
 C529 C 0.75011 0.74995 0.48406
 C530 C 0.75008 0.74992 0.45686
 C531 C 0.75006 0.74990 0.42437
 C532 C 0.73072 0.76921 0.40855
 C533 C 0.73068 0.76922 0.37699
 C534 C 0.75001 0.74986 0.36082
 C535 C 0.76937 0.73053 0.37697
 C536 C 0.76936 0.73057 0.40853
 H537 H 0.71578 0.71562 0.57941
 H538 H 0.78451 0.78437 0.57939
 H539 H 0.78465 0.78451 0.63471
 H540 H 0.71564 0.71548 0.63473
 H541 H 0.71568 0.78427 0.42059
 H542 H 0.71550 0.78438 0.36528
 H543 H 0.78453 0.71536 0.36524
 H544 H 0.78442 0.71553 0.42056
 C545 C 0.59143 0.76921 0.26931
 C546 C 0.57560 0.74987 0.25001
 C547 C 0.59145 0.73053 0.23071
 C548 C 0.62300 0.73050 0.23068
 C549 C 0.63915 0.74986 0.25001
 C550 C 0.62299 0.76923 0.26934
 C551 C 0.54312 0.74986 0.25001
 C552 C 0.51591 0.74986 0.25000
 C553 C 0.48406 0.74986 0.24997
 C554 C 0.45686 0.74986 0.24996
 C555 C 0.42437 0.74987 0.24997
 C556 C 0.40854 0.76921 0.23067
 C557 C 0.37698 0.76923 0.23065
 C558 C 0.36082 0.74986 0.24997
 C559 C 0.37697 0.73050 0.26930
 C560 C 0.40853 0.73052 0.26927
 H561 H 0.57939 0.78427 0.28434
 H562 H 0.57941 0.71547 0.21567
 H563 H 0.63473 0.71532 0.21553
 H564 H 0.63470 0.78441 0.28449
 H565 H 0.42059 0.78427 0.21564
 H566 H 0.36527 0.78441 0.21550
 H567 H 0.36525 0.71531 0.28444
 H568 H 0.42056 0.71546 0.28430
 C569 C 0.26927 -0.09160 0.23062
 C570 C 0.24993 -0.07576 0.24994
 C571 C 0.23062 -0.09160 0.26927
 C572 C 0.23061 -0.12315 0.26932
 C573 C 0.24997 -0.13931 0.24997
 C574 C 0.26931 -0.12316 0.23062
 C575 C 0.24991 -0.04328 0.24992
 C576 C 0.24991 -0.01607 0.24991
 C577 C 0.24990 0.01578 0.24993
 C578 C 0.24991 0.04298 0.24994
 C579 C 0.24993 0.07547 0.24996
 C580 C 0.23062 0.09130 0.26929
 C581 C 0.23061 0.12286 0.26934
 C582 C 0.24997 0.13901 0.24999
 C583 C 0.26931 0.12286 0.23064
 C584 C 0.26927 0.09130 0.23065
 H585 H 0.28431 -0.07956 0.21556
 H586 H 0.21556 -0.07956 0.28432
 H587 H 0.21545 -0.13487 0.28449
 H588 H 0.28448 -0.13487 0.21545
 H589 H 0.21556 0.07926 0.28434
 H590 H 0.21545 0.13458 0.28451
 H591 H 0.28449 0.13457 0.21547
 H592 H 0.28431 0.07926 0.21559
 C593 C 0.23083 0.73061 0.59146
 C594 C 0.25014 0.74993 0.57561
 C595 C 0.26946 0.76925 0.59143
 C596 C 0.26949 0.76929 0.62299
 C597 C 0.25015 0.74995 0.63916
 C598 C 0.23080 0.73059 0.62302
 C599 C 0.25013 0.74992 0.54312
 C600 C 0.25011 0.74990 0.51592
 C601 C 0.25007 0.74990 0.48407
 C602 C 0.25004 0.74990 0.45686
 C603 C 0.25003 0.74990 0.42438
 C604 C 0.23070 0.76921 0.40855
 C605 C 0.23066 0.76923 0.37699
 C606 C 0.25000 0.74988 0.36083
 C607 C 0.26935 0.73054 0.37697
 C608 C 0.26934 0.73057 0.40853
 H609 H 0.21578 0.71555 0.57943
 H610 H 0.28451 0.78430 0.57937
 H611 H 0.28466 0.78446 0.63469
 H612 H 0.21564 0.71543 0.63475
 H613 H 0.21565 0.78427 0.42060
 H614 H 0.21549 0.78439 0.36528
 H615 H 0.28451 0.71537 0.36524
 H616 H 0.28440 0.71553 0.42056
 C617 C -0.09146 0.23048 0.23066
 C618 C -0.07562 0.24979 0.24997
 C619 C -0.09145 0.26913 0.26929
 C620 C -0.12301 0.26917 0.26932
 C621 C -0.13917 0.24982 0.24998
 C622 C -0.12302 0.23047 0.23063
 C623 C -0.04314 0.24977 0.24998
 C624 C -0.01593 0.24975 0.24999
 C625 C 0.01592 0.24974 0.25002
 C626 C 0.04312 0.24975 0.25003
 C627 C 0.07561 0.24978 0.25004
 C628 C 0.09145 0.23047 0.26936
 C629 C 0.12301 0.23047 0.26939
 C630 C 0.13916 0.24982 0.25005
 C631 C 0.12300 0.26916 0.23070
 C632 C 0.09144 0.26912 0.23073
 H633 H -0.07942 0.21542 0.21561
 H634 H -0.07941 0.28417 0.28434
 H635 H -0.13473 0.28434 0.28448
 H636 H -0.13474 0.21530 0.21547
 H637 H 0.07941 0.21541 0.28441
 H638 H 0.13473 0.21531 0.28456
 H639 H 0.13472 0.28433 0.21554
 H640 H 0.07940 0.28416 0.21567
 C641 C 0.73068 0.59131 0.23064
 C642 C 0.75002 0.57547 0.24993
 C643 C 0.76936 0.59130 0.26923
 C644 C 0.76937 0.62285 0.26927
 C645 C 0.75001 0.63902 0.24996
 C646 C 0.73065 0.62287 0.23063
 C647 C 0.75002 0.54298 0.24992
 C648 C 0.75003 0.51577 0.24991
 C649 C 0.75002 0.48392 0.24991
 C650 C 0.75003 0.45672 0.24991
 C651 C 0.75003 0.42423 0.24993
 C652 C 0.76936 0.40840 0.26924
 C653 C 0.76938 0.37684 0.26929
 C654 C 0.75001 0.36068 0.24998
 C655 C 0.73065 0.37683 0.23065
 C656 C 0.73069 0.40839 0.23065
 H657 H 0.71562 0.57927 0.21560
 H658 H 0.78442 0.57925 0.28425
 H659 H 0.78455 0.63457 0.28442
 H660 H 0.71547 0.63459 0.21549
 H661 H 0.78443 0.42045 0.28426
 H662 H 0.78455 0.36513 0.28444
 H663 H 0.71547 0.36511 0.21551
 H664 H 0.71562 0.42042 0.21561
 C665 C 0.76943 0.23059 0.59146
 C666 C 0.75010 0.24989 0.57563
 C667 C 0.73079 0.26923 0.59147
 C668 C 0.73078 0.26928 0.62303
 C669 C 0.75013 0.24994 0.63918
 C670 C 0.76947 0.23059 0.62302
 C671 C 0.75006 0.24986 0.54315
 C672 C 0.75004 0.24984 0.51594
 C673 C 0.75003 0.24983 0.48409
 C674 C 0.75003 0.24984 0.45688
 C675 C 0.75003 0.24984 0.42440
 C676 C 0.76934 0.26917 0.40855
 C677 C 0.76936 0.26920 0.37699
 C678 C 0.75001 0.24985 0.36085
 C679 C 0.73067 0.23050 0.37702
 C680 C 0.73071 0.23052 0.40857
 H681 H 0.78447 0.21553 0.57942
 H682 H 0.71573 0.28427 0.57943
 H683 H 0.71562 0.28445 0.63475
 H684 H 0.78464 0.21543 0.63474
 H685 H 0.78439 0.28422 0.42058
 H686 H 0.78452 0.28437 0.36527
 H687 H 0.71550 0.21534 0.36531
 H688 H 0.71566 0.21547 0.42062
 C689 C 0.59145 0.23046 0.26934
 C690 C 0.57561 0.24979 0.25003
 C691 C 0.59145 0.26914 0.23073
 C692 C 0.62301 0.26918 0.23071
 C693 C 0.63916 0.24983 0.25004
 C694 C 0.62301 0.23046 0.26937
 C695 C 0.54313 0.24976 0.25001
 C696 C 0.51592 0.24974 0.25000
 C697 C 0.48407 0.24974 0.25001
 C698 C 0.45686 0.24975 0.25001
 C699 C 0.42438 0.24978 0.25000
 C700 C 0.40854 0.23045 0.23070
 C701 C 0.37698 0.23045 0.23067
 C702 C 0.36083 0.24983 0.24999
 C703 C 0.37699 0.26918 0.26931
 C704 C 0.40854 0.26914 0.26929
 H705 H 0.57941 0.21539 0.28437
 H706 H 0.57941 0.28420 0.21569
 H707 H 0.63473 0.28437 0.21556
 H708 H 0.63473 0.21528 0.28452
 H709 H 0.42058 0.21537 0.21567
 H710 H 0.36526 0.21527 0.21552
 H711 H 0.36527 0.28437 0.28446
 H712 H 0.42059 0.28419 0.28433
 C713 C 0.23060 0.59131 0.23071
 C714 C 0.24993 0.57547 0.25001
 C715 C 0.26927 0.59130 0.26930
 C716 C 0.26931 0.62286 0.26932
 C717 C 0.24996 0.63902 0.25000
 C718 C 0.23059 0.62287 0.23068
 C719 C 0.24992 0.54298 0.25001
 C720 C 0.24991 0.51578 0.25002
 C721 C 0.24991 0.48393 0.25002
 C722 C 0.24993 0.45672 0.25002
 C723 C 0.24994 0.42424 0.25003
 C724 C 0.26928 0.40840 0.26932
 C725 C 0.26932 0.37685 0.26935
 C726 C 0.24996 0.36068 0.25002
 C727 C 0.23059 0.37683 0.23071
 C728 C 0.23060 0.40839 0.23073
 H729 H 0.21553 0.57928 0.21568
 H730 H 0.28433 0.57925 0.28433
 H731 H 0.28450 0.63457 0.28447
 H732 H 0.21541 0.63460 0.21554
 H733 H 0.28434 0.42045 0.28435
 H734 H 0.28451 0.36513 0.28449
 H735 H 0.21542 0.36511 0.21556
 H736 H 0.21553 0.42043 0.21570
 C737 C 0.26943 0.23065 0.59146
 C738 C 0.25010 0.24995 0.57563
 C739 C 0.23079 0.26929 0.59147
 C740 C 0.23079 0.26934 0.62303
 C741 C 0.25014 0.25000 0.63918
 C742 C 0.26948 0.23065 0.62302
 C743 C 0.25005 0.24991 0.54315
 C744 C 0.25002 0.24988 0.51594
 C745 C 0.24999 0.24985 0.48409
 C746 C 0.24998 0.24984 0.45688
 C747 C 0.24999 0.24984 0.42440
 C748 C 0.26931 0.26916 0.40856
 C749 C 0.26934 0.26918 0.37700
 C750 C 0.24999 0.24984 0.36085
 C751 C 0.23065 0.23049 0.37701
 C752 C 0.23067 0.23051 0.40857
 H753 H 0.28447 0.21559 0.57941
 H754 H 0.21573 0.28433 0.57944
 H755 H 0.21563 0.28451 0.63476
 H756 H 0.28466 0.21549 0.63473
 H757 H 0.28436 0.28421 0.42059
 H758 H 0.28450 0.28435 0.36527
 H759 H 0.21548 0.21532 0.36530
 H760 H 0.21562 0.21546 0.42062
   
