data_POSCAR
  _audit_creation_date              2014-09-24
  _audit_creation_method            'ToBaCCo'
  _symmetry_space_group_name_H-M    'P1'
  _symmetry_Int_Tables_number       1
  _symmetry_cell_setting            triclinic
  loop_
  _symmetry_equiv_pos_as_xyz
 x,y,z
_cell_length_a 41.9763
_cell_length_b 41.9818
_cell_length_c 42.0120
_cell_angle_alpha 89.994200
_cell_angle_beta 89.998700
_cell_angle_gamma 89.979500
loop_
  _atom_site_label
  _atom_site_type_symbol
  _atom_site_fract_x
  _atom_site_fract_y
  _atom_site_fract_z
C1 C 0.32964 0.36958 1.37295
 C2 C 0.34250 0.38434 1.34570
 C3 C 0.36975 0.37212 1.33061
 C4 C 0.38449 0.34483 1.34320
 C5 C 0.37227 0.32949 1.37041
 C6 C 0.34491 0.34226 1.38513
 H7 H 0.33109 0.40529 1.33589
 H8 H 0.40541 0.33533 1.33147
 H9 H 0.33522 0.33066 1.40601
 C10 C 1.17367 0.62833 0.87192
 C11 C 1.16113 0.61351 0.84452
 C12 C 1.13386 0.62556 0.82927
 C13 C 1.11884 0.65268 0.84187
 C14 C 1.13080 0.66793 0.86912
 C15 C 1.15809 0.65551 0.88402
 H16 H 1.17277 0.59267 0.83473
 H17 H 1.09793 0.66223 0.83017
 H18 H 1.16739 0.66733 0.90495
 C19 C 0.66934 -0.13094 0.13020
 C20 C 0.65668 -0.11601 0.15745
 C21 C 0.62944 -0.12807 0.17273
 C22 C 0.61458 -0.15538 0.16032
 C23 C 0.62666 -0.17071 0.13316
 C24 C 0.65390 -0.15822 0.11823
 H25 H 0.66821 -0.09506 0.16710
 H26 H 0.59370 -0.16495 0.17204
 H27 H 0.66332 -0.17012 0.09738
 C28 C -0.17220 1.13310 -0.37407
 C29 C -0.15667 1.16029 -0.38617
 C30 C -0.12921 1.17257 -0.37141
 C31 C -0.11710 1.15720 -0.34428
 C32 C -0.13207 1.13005 -0.33173
 C33 C -0.15944 1.11813 -0.34686
 H34 H -0.16612 1.17221 -0.40698
 H35 H -0.09608 1.16662 -0.33268
 H36 H -0.17104 1.09728 -0.33709
 C37 C 0.67309 0.63427 0.63061
 C38 C 0.65803 0.66158 0.61842
 C39 C 0.63072 0.67442 0.63314
 C40 C 0.61849 0.65911 0.66038
 C41 C 0.63319 0.63177 0.67296
 C42 C 0.66040 0.61952 0.65782
 H43 H 0.66789 0.67301 0.59752
 H44 H 0.59759 0.66863 0.67212
 H45 H 0.67195 0.59856 0.66745
 C46 C 0.83166 0.36627 0.12835
 C47 C 0.84470 0.38090 0.15543
 C48 C 0.87186 0.36836 0.17041
 C49 C 0.88620 0.34084 0.15779
 C50 C 0.87363 0.32567 0.13062
 C51 C 0.84636 0.33882 0.11606
 H52 H 0.83342 0.40196 0.16512
 H53 H 0.90706 0.33109 0.16941
 H54 H 0.83621 0.32749 0.09525
 C55 C 0.32523 0.13071 0.87340
 C56 C 0.34042 0.15789 0.88597
 C57 C 0.36792 0.17052 0.87163
 C58 C 0.38043 0.15553 0.84447
 C59 C 0.36578 0.12844 0.83144
 C60 C 0.33834 0.11615 0.84614
 H61 H 0.33068 0.16951 0.90682
 H62 H 0.40149 0.16523 0.83319
 H63 H 0.32701 0.09533 0.83600
 C64 C 0.17197 0.87169 0.36919
 C65 C 0.15683 0.84445 0.38165
 C66 C 0.12963 0.83153 0.36706
 C67 C 0.11727 0.84636 0.33976
 C68 C 0.13183 0.87359 0.32683
 C69 C 0.15906 0.88611 0.34176
 H70 H 0.16642 0.83293 0.40263
 H71 H 0.09641 0.83644 0.32831
 H72 H 0.17036 0.90701 0.33172
 Zn73 Zn 0.01615 0.98994 -0.04139
 Zn74 Zn -0.01009 0.95849 0.01653
 Zn75 Zn 0.02191 1.02208 0.02206
 Zn76 Zn -0.04171 1.01631 -0.00983
 O77 O -0.00340 0.99675 -0.00311
 O78 O 0.02390 0.94870 -0.04906
 O79 O 0.00938 0.95604 0.05423
 O80 O 0.05847 1.03329 0.00277
 O81 O 0.00443 0.92531 -0.00604
 O82 O 0.05388 1.00937 -0.04400
 O83 O 0.03321 1.00291 0.05864
 O84 O -0.04424 1.05409 0.00952
 O85 O -0.05132 0.95074 0.02432
 O86 O 0.00266 1.05868 0.03326
 O87 O -0.07483 0.99369 0.00475
 O88 O -0.04951 1.02398 -0.05104
 O89 O -0.00654 1.00440 -0.07450
 C90 C 0.01831 0.92385 -0.03282
 C91 C 0.02667 0.97548 0.06958
 C92 C 0.06931 1.02668 -0.02466
 C93 C -0.02481 1.06954 0.02673
 C94 C -0.07622 0.96693 0.01870
 C95 C -0.03334 1.01831 -0.07591
 Zn96 Zn 0.49196 -0.03742 0.48289
 Zn97 Zn 0.51836 -0.00542 0.54035
 Zn98 Zn 0.52384 0.02623 0.47654
 Zn99 Zn 0.46035 0.02053 0.50881
 O100 O 0.49869 0.00103 0.50209
 O101 O 0.50652 -0.07042 0.50572
 O102 O 0.55600 0.01418 0.54268
 O103 O 0.53489 0.00674 0.43995
 O104 O 0.52630 -0.04656 0.54832
 O105 O 0.51129 -0.04017 0.44522
 O106 O 0.56055 0.03756 0.49560
 O107 O 0.45783 0.05830 0.48956
 O108 O 0.49562 0.00895 0.57346
 O109 O 0.50449 0.06286 0.46533
 O110 O 0.45243 0.02803 0.55000
 O111 O 0.42727 -0.00204 0.49414
 O112 O 0.45076 -0.04523 0.47510
 C113 C 0.52058 -0.07159 0.53242
 C114 C 0.57142 0.03126 0.52311
 C115 C 0.52834 -0.02087 0.42945
 C116 C 0.47709 0.07375 0.47217
 C117 C 0.46863 0.02248 0.57488
 C118 C 0.42589 -0.02891 0.48041
 Zn119 Zn 0.96265 0.48280 0.49174
 Zn120 Zn 1.02622 0.47620 0.52376
 Zn121 Zn 1.02074 0.50867 0.46039
 Zn122 Zn 0.99473 0.54015 0.51835
 O123 O 1.00114 0.50190 0.49862
 O124 O 0.95976 0.44508 0.51097
 O125 O 1.06288 0.46494 0.50450
 O126 O 0.99823 0.49411 0.42723
 O127 O 1.00660 0.43962 0.53466
 O128 O 0.95495 0.47510 0.45054
 O129 O 1.05849 0.48932 0.45793
 O130 O 1.00925 0.57330 0.49576
 O131 O 1.03751 0.49516 0.56051
 O132 O 1.02836 0.54989 0.45259
 O133 O 1.01425 0.54234 0.55602
 O134 O 0.95358 0.54822 0.52618
 O135 O 0.92967 0.50571 0.50622
 C136 C 0.97898 0.42920 0.52803
 C137 C 1.07386 0.47183 0.47717
 C138 C 0.97134 0.48042 0.42574
 C139 C 1.02284 0.57475 0.46883
 C140 C 1.03125 0.52268 0.57143
 C141 C 0.92852 0.53240 0.52033
 Zn142 Zn 0.48271 0.49193 0.96234
 Zn143 Zn 0.47633 0.52394 1.02589
 Zn144 Zn 0.50872 0.46048 1.02029
 Zn145 Zn 0.54019 0.51845 0.99426
 O146 O 0.50193 0.49876 1.00075
 O147 O 0.44499 0.51121 0.95958
 O148 O 0.46516 0.50464 1.06254
 O149 O 0.49407 0.42734 0.99781
 O150 O 0.43968 0.53490 1.00640
 O151 O 0.47497 0.45072 0.95462
 O152 O 0.48948 0.45801 1.05805
 O153 O 0.57337 0.49579 1.00865
 O154 O 0.49537 0.56069 1.03715
 O155 O 0.54996 0.45261 1.02779
 O156 O 0.54248 0.55612 1.01379
 O157 O 0.54814 0.52635 0.95314
 O158 O 0.50552 0.50646 0.92934
 C159 C 0.42918 0.52828 0.97882
 C160 C 0.47205 0.47728 1.07347
 C161 C 0.48031 0.42588 0.97097
 C162 C 0.57483 0.46883 1.02221
 C163 C 0.52289 0.57157 1.03083
 C164 C 0.53221 0.52056 0.92814
 N165 N 1.25984 0.41844 0.38831
 C166 C 1.24702 0.40372 0.41398
 N167 N 1.26186 0.37783 0.42627
 N168 N 1.28869 0.36698 0.41321
 C169 C 1.30169 0.38152 0.38731
 N170 N 1.28664 0.40758 0.37527
 C171 C 1.21753 0.41490 0.42718
 C172 C 1.19246 0.42464 0.43728
 C173 C 1.16231 0.43674 0.44796
 N174 N 1.15074 0.42921 0.47716
 N175 N 1.12253 0.44038 0.48665
 C176 C 1.10502 0.45942 0.46720
 N177 N 1.11674 0.46688 0.43801
 N178 N 1.14488 0.45573 0.42856
 N179 N 0.24371 0.58004 0.88794
 C180 C 0.25613 0.59484 0.91377
 N181 N 0.24093 0.62058 0.92593
 N182 N 0.21416 0.63123 0.91258
 C183 C 0.20157 0.61661 0.88653
 N184 N 0.21696 0.59069 0.87461
 C185 C 0.28556 0.58391 0.92730
 C186 C 0.31059 0.57442 0.93769
 C187 C 0.34074 0.56262 0.94868
 N188 N 0.35873 0.54412 0.92932
 N189 N 0.38687 0.53323 0.93908
 C190 C 0.39803 0.54046 0.96853
 N191 N 0.37996 0.55901 0.98795
 N192 N 0.35176 0.56993 0.97816
 N193 N -0.26337 0.87669 0.07626
 C194 C -0.24823 0.90251 0.08830
 N195 N -0.26069 0.91742 0.11405
 N196 N -0.28743 0.90678 0.12741
 C197 C -0.30276 0.88078 0.11559
 N198 N -0.29011 0.86606 0.08963
 C199 C -0.21891 0.91342 0.07455
 C200 C -0.19403 0.92250 0.06346
 C201 C -0.16415 0.93331 0.05090
 N202 N -0.16221 0.96142 0.03513
 N203 N -0.13423 0.97195 0.02445
 C204 C -0.10726 0.95470 0.02920
 N205 N -0.10931 0.92650 0.04490
 N206 N -0.13729 0.91599 0.05557
 N207 N 0.75981 0.12555 0.57277
 C208 C 0.74483 0.09974 0.58505
 N209 N 0.75763 0.08486 0.61064
 N210 N 0.78454 0.09548 0.62362
 C211 C 0.79973 0.12146 0.61160
 N212 N 0.78676 0.13617 0.58578
 C213 C 0.71524 0.08874 0.57194
 C214 C 0.69009 0.07904 0.56202
 C215 C 0.65987 0.06687 0.55164
 N216 N 0.64237 0.04840 0.57147
 N217 N 0.61422 0.03709 0.56225
 C218 C 0.60256 0.04386 0.53288
 N219 N 0.62014 0.06239 0.51300
 N220 N 0.64836 0.07372 0.52225
 N221 N 0.42583 0.26183 0.37856
 C222 C 0.41351 0.24688 0.40435
 N223 N 0.38775 0.25959 0.41905
 N224 N 0.37464 0.28639 0.40825
 C225 C 0.38670 0.30154 0.38228
 N226 N 0.41269 0.28865 0.36777
 C227 C 0.42679 0.21740 0.41548
 C228 C 0.43695 0.19234 0.42516
 C229 C 0.44768 0.16220 0.43721
 N230 N 0.42827 0.14467 0.45610
 N231 N 0.43778 0.11654 0.46721
 C232 C 0.46705 0.10491 0.45981
 N233 N 0.48651 0.12251 0.44088
 N234 N 0.47697 0.15071 0.42975
 N235 N 0.92552 0.24129 0.62039
 C236 C 0.91356 0.25631 0.59446
 N237 N 0.88787 0.24376 0.57949
 N238 N 0.87450 0.21704 0.59014
 C239 C 0.88628 0.20187 0.61620
 N240 N 0.91213 0.21455 0.63104
 C241 C 0.92712 0.28571 0.58353
 C242 C 0.93755 0.31073 0.57405
 C243 C 0.94861 0.34084 0.56227
 N244 N 0.92928 0.35889 0.54380
 N245 N 0.93910 0.38700 0.53294
 C246 C 0.96860 0.39809 0.54018
 N247 N 0.98799 0.37996 0.55870
 N248 N 0.97814 0.35178 0.56959
 N249 N 0.07596 0.73657 -0.12274
 C250 C 0.08797 0.75172 -0.09692
 N251 N 0.11373 0.73928 -0.08197
 N252 N 0.12714 0.71254 -0.09257
 C253 C 0.11531 0.69725 -0.11853
 N254 N 0.08938 0.70982 -0.13333
 C255 C 0.07417 0.78105 -0.08606
 C256 C 0.06307 0.80593 -0.07702
 C257 C 0.05049 0.83584 -0.06627
 N258 N 0.03477 0.83785 -0.03815
 N259 N 0.02410 0.86586 -0.02768
 C260 C 0.02879 0.89278 -0.04499
 N261 N 0.04443 0.89065 -0.07321
 N262 N 0.05510 0.86265 -0.08367
 N263 N 0.61006 0.75815 1.08387
 C264 C 0.58485 0.74502 1.09913
 N265 N 0.57300 0.75964 1.12535
 N266 N 0.58604 0.78656 1.13598
 C267 C 0.61143 0.79981 1.12084
 N268 N 0.62308 0.78504 1.09451
 C269 C 0.57173 0.71543 1.08813
 C270 C 0.56181 0.69028 1.07844
 C271 C 0.55142 0.66006 1.06631
 N272 N 0.52201 0.64855 1.07318
 N273 N 0.51275 0.62033 1.06189
 C274 C 0.53264 0.60273 1.04338
 N275 N 0.56203 0.61438 1.03658
 N276 N 0.57125 0.64254 1.04785
 N277 N 0.41939 0.38853 1.25964
 C278 C 0.40439 0.41398 1.24663
 N279 N 0.37826 0.42602 1.26126
 N280 N 0.36745 0.41295 1.28809
 C281 C 0.38232 0.38733 1.30123
 N282 N 0.40857 0.37548 1.28644
 C283 C 0.41552 0.42718 1.21714
 C284 C 0.42519 0.43729 1.19207
 C285 C 0.43721 0.44799 1.16193
 N286 N 0.42967 0.47724 1.15041
 N287 N 0.44077 0.48675 1.12221
 C288 C 0.45973 0.46728 1.10463
 N289 N 0.46720 0.43805 1.11629
 N290 N 0.45613 0.42858 1.14443
 N291 N 0.58016 -0.11113 0.24381
 C292 C 0.59522 -0.08560 0.25655
 N293 N 0.62128 -0.07368 0.24169
 N294 N 0.63196 -0.08697 0.21493
 C295 C 0.61703 -0.11268 0.20206
 N296 N 0.59085 -0.12441 0.21706
 C297 C 0.58424 -0.07215 0.28597
 C298 C 0.57471 -0.06182 0.31100
 C299 C 0.56286 -0.05088 0.34112
 N300 N 0.57007 -0.02138 0.35215
 N301 N 0.55910 -0.01163 0.38033
 C302 C 0.54059 -0.03113 0.39835
 N303 N 0.53345 -0.06061 0.38716
 N304 N 0.54440 -0.07032 0.35906
 N305 N -0.12388 1.07553 -0.26291
 C306 C -0.09793 1.08750 -0.24793
 N307 N -0.08291 1.11313 -0.26053
 N308 N -0.09357 1.12645 -0.28728
 C309 C -0.11966 1.11465 -0.30241
 N310 N -0.13453 1.08885 -0.28966
 C311 C -0.08700 1.07380 -0.21861
 C312 C -0.07789 1.06277 -0.19373
 C313 C -0.06706 1.05027 -0.16384
 N314 N -0.03892 1.03452 -0.16187
 N315 N -0.02837 1.02391 -0.13389
 C316 C -0.04560 1.02871 -0.10695
 N317 N -0.07383 1.04439 -0.10903
 N318 N -0.08438 1.05498 -0.13701
 N319 N 1.08439 0.60913 0.75824
 C320 C 1.09974 0.58405 0.74493
 N321 N 1.12607 0.57223 0.75940
 N322 N 1.13674 0.58517 0.78635
 C323 C 1.12151 0.61043 0.79978
 N324 N 1.09507 0.62205 0.78515
 C325 C 1.08870 0.57105 0.71532
 C326 C 1.07898 0.56122 0.69016
 C327 C 1.06681 0.55093 0.65994
 N328 N 1.07361 0.52153 0.64837
 N329 N 1.06229 0.51237 0.62015
 C330 C 1.04382 0.53234 0.60260
 N331 N 1.03709 0.56172 0.61430
 N332 N 1.04839 0.57086 0.64247
 N333 N 0.74211 0.62529 0.57643
 C334 C 0.75686 0.59928 0.58858
 N335 N 0.74406 0.58452 0.61425
 N336 N 0.71734 0.59547 0.62741
 C337 C 0.70244 0.62161 0.61542
 N338 N 0.71538 0.63624 0.58960
 C339 C 0.78614 0.58798 0.57504
 C340 C 0.81098 0.57852 0.56416
 C341 C 0.84082 0.56725 0.55188
 N342 N 0.84248 0.53915 0.53606
 N343 N 0.87040 0.52821 0.52563
 C344 C 0.89758 0.54501 0.53068
 N345 N 0.89581 0.57320 0.54643
 N346 N 0.86789 0.58413 0.55686
 N347 N 0.76088 0.41652 1.11283
 C348 C 0.74757 0.40176 1.08743
 N349 N 0.76195 0.37561 1.07513
 N350 N 0.78881 0.36453 1.08791
 C351 C 0.80225 0.37915 1.11348
 N352 N 0.78772 0.40543 1.12560
 C353 C 0.71810 0.41315 1.07440
 C354 C 0.69309 0.42268 1.06400
 C355 C 0.66305 0.43403 1.05231
 N356 N 0.63616 0.41682 1.05715
 N357 N 0.60807 0.42778 1.04724
 C358 C 0.60593 0.45631 1.03216
 N359 N 0.63294 0.47345 1.02726
 N360 N 0.66103 0.46249 1.03718
 N361 N 0.25695 1.12193 -0.07402
 C362 C 0.24228 1.09614 -0.08670
 N363 N 0.25537 1.08168 -0.11238
 N364 N 0.28226 1.09271 -0.12506
 C365 C 0.29715 1.11866 -0.11263
 N366 N 0.28388 1.13295 -0.08673
 C367 C 0.21276 1.08472 -0.07383
 C368 C 0.18769 1.07476 -0.06399
 C369 C 0.15758 1.06242 -0.05353
 N370 N 0.14022 1.04363 -0.07317
 N371 N 0.11213 1.03224 -0.06386
 C372 C 0.10041 1.03927 -0.03456
 N373 N 0.11786 1.05810 -0.01488
 N374 N 0.14600 1.06951 -0.02422
 N375 N 0.24162 -0.07922 0.38448
 C376 C 0.25420 -0.09368 0.41043
 N377 N 0.23926 -0.11941 0.42287
 N378 N 0.21258 -0.13041 0.40970
 C379 C 0.19980 -0.11616 0.38354
 N380 N 0.21493 -0.09024 0.37131
 C381 C 0.28346 -0.08244 0.42402
 C382 C 0.30828 -0.07321 0.43508
 C383 C 0.33812 -0.06237 0.44771
 N384 N 0.36493 -0.07986 0.44342
 N385 N 0.39286 -0.06939 0.45426
 C386 C 0.39489 -0.04109 0.46977
 N387 N 0.36796 -0.02368 0.47415
 N388 N 0.34003 -0.03416 0.46330
 N389 N 0.57702 -0.25813 0.62476
 C390 C 0.58930 -0.24321 0.59894
 N391 N 0.61513 -0.25584 0.58430
 N392 N 0.62834 -0.28255 0.59521
 C393 C 0.61629 -0.29767 0.62121
 N394 N 0.59025 -0.28485 0.63566
 C395 C 0.57568 -0.21394 0.58770
 C396 C 0.56475 -0.18911 0.57828
 C397 C 0.55238 -0.15928 0.56707
 N398 N 0.53661 -0.15760 0.53895
 N399 N 0.52609 -0.12968 0.52807
 C400 C 0.53101 -0.10253 0.54496
 N401 N 0.54672 -0.10433 0.57316
 N402 N 0.55722 -0.13224 0.58403
 N403 N 1.11406 0.76055 0.41695
 C404 C 1.08853 0.74741 0.40222
 N405 N 1.07617 0.76197 0.37621
 N406 N 1.08901 0.78884 0.36523
 C407 C 1.11470 0.80211 0.37982
 N408 N 1.12689 0.78740 0.40596
 C409 C 1.07542 0.71795 0.41350
 C410 C 1.06496 0.69296 0.42296
 C411 C 1.05318 0.66293 0.43423
 N412 N 1.03802 0.66091 0.46265
 N413 N 1.02802 0.63283 0.47355
 C414 C 1.03288 0.60584 0.45639
 N415 N 1.04799 0.60798 0.42788
 N416 N 1.05798 0.63606 0.41700
 N417 N -0.11221 1.25580 0.08163
 C418 C -0.08653 1.24267 0.09609
 N419 N -0.07383 1.25732 0.12187
 N420 N -0.08652 1.28427 0.13288
 C421 C -0.11242 1.29757 0.11859
 N422 N -0.12487 1.28271 0.09264
 C423 C -0.07370 1.21312 0.08468
 C424 C -0.06391 1.18803 0.07473
 C425 C -0.05350 1.15789 0.06240
 N426 N -0.02415 1.14629 0.06940
 N427 N -0.01486 1.11812 0.05801
 C428 C -0.03465 1.10066 0.03928
 N429 N -0.06398 1.11240 0.03235
 N430 N -0.07324 1.14052 0.04372
 N431 N 0.38393 0.24175 0.92107
 C432 C 0.41008 0.25412 0.90674
 N433 N 0.42265 0.23897 0.88119
 N434 N 0.40942 0.21229 0.87025
 C435 C 0.38312 0.19977 0.88442
 N436 N 0.37071 0.21506 0.91012
 C437 C 0.42372 0.28338 0.91790
 C438 C 0.43483 0.30821 0.92705
 C439 C 0.44752 0.33806 0.93778
 N440 N 0.46315 0.34003 0.96596
 N441 N 0.47403 0.36798 0.97634
 C442 C 0.46966 0.39487 0.95888
 N443 N 0.45410 0.39276 0.93062
 N444 N 0.44322 0.36482 0.92024
 N445 N 0.58369 0.61529 0.74401
 C446 C 0.59841 0.58947 0.75662
 N447 N 0.62430 0.57727 0.74170
 N448 N 0.63517 0.59053 0.71501
 C449 C 0.62059 0.61650 0.70226
 N450 N 0.59457 0.62853 0.71733
 C451 C 0.58721 0.57582 0.78586
 C452 C 0.57784 0.56485 0.81067
 C453 C 0.56670 0.55244 0.84048
 N454 N 0.58370 0.55732 0.86748
 N455 N 0.57289 0.54678 0.89538
 C456 C 0.54471 0.53101 0.89721
 N457 N 0.52779 0.52606 0.87009
 N458 N 0.53861 0.53661 0.84219
 N459 N 0.41604 0.11292 0.76073
 C460 C 0.40126 0.08753 0.74740
 N461 N 0.37509 0.07524 0.76174
 N462 N 0.36400 0.08802 0.78858
 C463 C 0.37865 0.11357 0.80205
 N464 N 0.40495 0.12569 0.78756
 C465 C 0.41266 0.07450 0.71796
 C466 C 0.42223 0.06413 0.69298
 C467 C 0.43363 0.05246 0.66298
 N468 N 0.41646 0.05730 0.63609
 N469 N 0.42747 0.04742 0.60803
 C470 C 0.45605 0.03240 0.60593
 N471 N 0.47316 0.02750 0.63294
 N472 N 0.46213 0.03739 0.66100
 N473 N 0.08162 0.88885 0.25606
 C474 C 0.09644 0.91412 0.24256
 N475 N 0.12266 0.92644 0.25679
 N476 N 0.13374 0.91379 0.28371
 C477 C 0.11904 0.88834 0.29734
 N478 N 0.09270 0.87621 0.28295
 C479 C 0.08496 0.92689 0.21302
 C480 C 0.07495 0.93663 0.18795
 C481 C 0.06256 0.94697 0.15784
 N482 N 0.06957 0.97627 0.14616
 N483 N 0.05812 0.98550 0.11802
 C484 C 0.03930 0.96570 0.10067
 N485 N 0.03236 0.93642 0.11248
 N486 N 0.04379 0.92721 0.14058
 N487 N 0.92135 0.38431 0.24161
 C488 C 0.90702 0.41045 0.25399
 N489 N 0.88145 0.42304 0.23886
 N490 N 0.87050 0.40984 0.21219
 C491 C 0.88467 0.38354 0.19966
 N492 N 0.91039 0.37111 0.21493
 C493 C 0.91819 0.42407 0.28324
 C494 C 0.92735 0.43515 0.30808
 C495 C 0.93810 0.44779 0.33792
 N496 N 0.92052 0.44352 0.36465
 N497 N 0.93092 0.45435 0.39259
 C498 C 0.95924 0.46983 0.39472
 N499 N 0.97674 0.47418 0.36787
 N500 N 0.96633 0.46334 0.33993
   
