data_POSCAR
  _audit_creation_date              2014-09-24
  _audit_creation_method            'ToBaCCo'
  _symmetry_space_group_name_H-M    'P1'
  _symmetry_Int_Tables_number       1
  _symmetry_cell_setting            triclinic
  loop_
  _symmetry_equiv_pos_as_xyz
 x,y,z
_cell_length_a 25.1317
_cell_length_b 26.5756
_cell_length_c 24.8950
_cell_angle_alpha 89.539200
_cell_angle_beta 89.867700
_cell_angle_gamma 90.087400
loop_
  _atom_site_label
  _atom_site_type_symbol
  _atom_site_fract_x
  _atom_site_fract_y
  _atom_site_fract_z
C1 C 0.31452 0.37913 1.39733
 N2 N 0.33939 0.40693 1.35843
 C3 C 0.38057 0.38776 1.32974
 N4 N 0.39660 0.33978 1.33939
 C5 C 0.37162 0.31073 1.37691
 N6 N 0.33082 0.33098 1.40530
 C7 C 1.18004 0.63171 0.89164
 N8 N 1.16566 0.67971 0.90345
 C9 C 1.12686 0.70406 0.87557
 N10 N 1.10149 0.67949 0.83544
 C11 C 1.11571 0.63194 0.82220
 N12 N 1.15536 0.60859 0.84986
 C13 C 0.68349 -0.12388 0.10080
 N14 N 0.66113 -0.09646 0.14078
 C15 C 0.62288 -0.11619 0.17324
 N16 N 0.60423 -0.16327 0.16368
 C17 C 0.62656 -0.19172 0.12447
 N18 N 0.66675 -0.17200 0.09418
 C19 C -0.17546 1.13466 -0.39368
 N20 N -0.14943 1.11003 -0.35365
 C21 C -0.10946 1.13225 -0.32606
 N22 N -0.09636 1.18074 -0.33752
 C23 C -0.12328 1.20710 -0.37578
 N24 N -0.16258 1.18366 -0.40369
 C25 C 0.67277 0.63632 0.60508
 N26 N 0.65799 0.61521 0.65248
 C27 C 0.61807 0.63533 0.68187
 N28 N 0.59245 0.67680 0.66304
 C29 C 0.60583 0.69828 0.61503
 N30 N 0.64696 0.67785 0.58671
 C31 C 0.81257 0.36851 0.11527
 N32 N 0.83704 0.39608 0.15392
 C33 C 0.88179 0.37917 0.17852
 N34 N 0.90161 0.33352 0.16502
 C35 C 0.87850 0.30541 0.12626
 N36 N 0.83480 0.32407 0.10087
 C37 C 0.32716 0.13242 0.88726
 N38 N 0.34307 0.17876 0.90345
 C39 C 0.38044 0.20530 0.87570
 N40 N 0.40380 0.18432 0.83200
 C41 C 0.38946 0.13749 0.81601
 N42 N 0.35033 0.11270 0.84292
 C43 C 0.18178 0.88459 0.39771
 N44 N 0.16392 0.83712 0.40782
 C45 C 0.12559 0.81578 0.37689
 N46 N 0.10573 0.84188 0.33434
 C47 C 0.12440 0.88855 0.32245
 N48 N 0.16104 0.90986 0.35495
 Zn49 Zn 0.01973 1.07024 -0.03260
 Zn50 Zn -0.02926 0.96841 -0.05056
 Zn51 Zn 0.06984 0.97871 0.01354
 Zn52 Zn -0.03068 1.01527 0.05922
 O53 O 0.00709 1.00823 -0.00285
 O54 O -0.00754 1.07597 -0.09816
 O55 O 0.00806 0.91272 -0.06962
 O56 O 0.12569 1.01384 -0.00964
 O57 O -0.04364 1.00118 -0.11256
 O58 O 0.08913 1.08335 -0.04215
 O59 O 0.07753 0.91935 -0.01654
 O60 O 0.00366 0.99383 0.11832
 O61 O -0.09249 0.94729 -0.02354
 O62 O 0.07945 0.96829 0.08312
 O63 O -0.09159 0.98112 0.05730
 O64 O -0.04729 1.07935 0.07257
 O65 O -0.00826 1.12071 0.00555
 C66 C -0.03204 1.04550 -0.12823
 C67 C 0.05257 0.89619 -0.05267
 C68 C 0.12958 1.05613 -0.03315
 C69 C 0.05003 0.97576 0.12357
 C70 C -0.11416 0.95421 0.02204
 C71 C -0.03556 1.12017 0.04850
 Zn72 Zn 0.51984 0.07333 0.52110
 Zn73 Zn 0.46447 -0.02470 0.54242
 Zn74 Zn 0.46826 0.01776 0.43126
 Zn75 Zn 0.56672 -0.02203 0.48174
 O76 O 0.50478 0.01115 0.49419
 O77 O 0.49302 0.08142 0.58665
 O78 O 0.40064 -0.04162 0.51671
 O79 O 0.45069 0.08165 0.41727
 O80 O 0.45252 0.00893 0.60353
 O81 O 0.49179 0.12362 0.48181
 O82 O 0.40643 -0.01543 0.43252
 O83 O 0.57672 -0.03520 0.41228
 O84 O 0.49446 -0.08346 0.56086
 O85 O 0.50423 -0.00477 0.37379
 O86 O 0.57021 -0.08124 0.51638
 O87 O 0.62387 0.01250 0.50285
 O88 O 0.58969 0.08453 0.52988
 C89 C 0.46656 0.05278 0.61768
 C90 C 0.38127 -0.03798 0.46991
 C91 C 0.46181 0.12247 0.44086
 C92 C 0.54931 -0.02605 0.37058
 C93 C 0.53835 -0.10367 0.54825
 C94 C 0.62936 0.05565 0.52346
 Zn95 Zn 0.93117 0.48186 0.48299
 Zn96 Zn 1.03166 0.47213 0.54725
 Zn97 Zn 1.03296 0.51888 0.43712
 Zn98 Zn 0.98302 0.57324 0.52754
 O99 O 0.99476 0.51140 0.49893
 O100 O 0.92155 0.42478 0.51951
 O101 O 1.09428 0.45026 0.52020
 O102 O 0.99996 0.49456 0.37938
 O103 O 0.99420 0.41733 0.56861
 O104 O 0.92505 0.46508 0.41384
 O105 O 1.09402 0.48557 0.43962
 O106 O 1.01082 0.62349 0.48835
 O107 O 1.04768 0.50521 0.60798
 O108 O 1.04966 0.58294 0.42195
 O109 O 1.01092 0.57958 0.59307
 O110 O 0.91404 0.58693 0.53476
 O111 O 0.87479 0.52025 0.49971
 C112 C 0.94835 0.40162 0.55492
 C113 C 1.11613 0.45784 0.47473
 C114 C 0.95630 0.47123 0.37422
 C115 C 1.03801 0.62370 0.44534
 C116 C 1.03671 0.54954 0.62307
 C117 C 0.87230 0.56291 0.52214
 Zn118 Zn 0.46533 0.49935 0.94150
 Zn119 Zn 0.45971 0.54860 1.05018
 Zn120 Zn 0.50954 0.44663 1.03719
 Zn121 Zn 0.56375 0.53654 0.99239
 O122 O 0.49927 0.50790 1.00551
 O123 O 0.40285 0.53037 0.94031
 O124 O 0.44331 0.51741 1.11292
 O125 O 0.48067 0.39585 1.00091
 O126 O 0.39675 0.56724 1.01971
 O127 O 0.44978 0.43479 0.92843
 O128 O 0.48242 0.44338 1.10311
 O129 O 0.61904 0.49772 1.01150
 O130 O 0.49605 0.60463 1.07048
 O131 O 0.57781 0.43080 1.04452
 O132 O 0.57210 0.59330 1.02769
 O133 O 0.57403 0.55227 0.92376
 O134 O 0.50193 0.52296 0.88437
 C135 C 0.37699 0.55605 0.97418
 C136 C 0.45624 0.47433 1.13117
 C137 C 0.45700 0.39511 0.95610
 C138 C 0.62023 0.45414 1.03257
 C139 C 0.54367 0.61813 1.05999
 C140 C 0.54694 0.54462 0.88179
 C141 C 1.20062 0.46339 0.42494
 C142 C 1.24914 0.44534 0.40698
 C143 C 1.26973 0.39907 0.42523
 C144 C 1.24147 0.37348 0.46763
 C145 C 1.18948 0.39009 0.48271
 C146 C 1.16912 0.43598 0.46133
 C147 C 1.15964 0.35946 0.51815
 N148 N 1.18232 0.31880 0.54180
 N149 N 1.23273 0.30654 0.53245
 C150 C 1.26313 0.33262 0.49686
 H151 H 1.18699 0.49909 0.40879
 H152 H 1.26954 0.46768 0.37671
 H153 H 1.11844 0.36658 0.52720
 H154 H 1.30434 0.32203 0.49405
 C155 C 0.30727 0.62192 0.96739
 C156 C 0.25895 0.63999 0.94770
 C157 C 0.22337 0.60874 0.91928
 C158 C 0.23496 0.55611 0.91759
 C159 C 0.28506 0.53818 0.93628
 C160 C 0.32220 0.57193 0.95961
 C161 C 0.29563 0.48626 0.93293
 N162 N 0.25827 0.45436 0.91388
 N163 N 0.21055 0.47060 0.89890
 C164 C 0.19740 0.51995 0.90087
 H165 H 0.33448 0.64797 0.98631
 H166 H 0.25127 0.67981 0.95226
 H167 H 0.33254 0.47029 0.94667
 H168 H 0.15687 0.52946 0.89198
 C169 C -0.19785 0.95911 0.07318
 C170 C -0.24667 0.94141 0.09106
 C171 C -0.26896 0.89682 0.07120
 C172 C -0.24181 0.87196 0.02843
 C173 C -0.18968 0.88822 0.01276
 C174 C -0.16763 0.93274 0.03534
 C175 C -0.16143 0.85840 -0.02415
 N176 N -0.18540 0.81860 -0.04766
 N177 N -0.23559 0.80629 -0.03675
 C178 C -0.26462 0.83167 0.00004
 H179 H -0.18305 0.99369 0.09046
 H180 H -0.26622 0.96266 0.12233
 H181 H -0.12044 0.86536 -0.03439
 H182 H -0.30567 0.82091 0.00476
 C183 C 0.69601 0.12332 0.53442
 C184 C 0.74419 0.14241 0.55279
 C185 C 0.78155 0.11140 0.57905
 C186 C 0.77131 0.05842 0.58099
 C187 C 0.72050 0.03964 0.56575
 C188 C 0.68276 0.07253 0.54149
 C189 C 0.70919 -0.01150 0.57648
 N190 N 0.74801 -0.04265 0.59434
 N191 N 0.79729 -0.02624 0.60256
 C192 C 0.81039 0.02288 0.59601
 H193 H 0.66815 0.14896 0.51549
 H194 H 0.75065 0.18256 0.54859
 H195 H 0.67003 -0.02736 0.57165
 H196 H 0.85168 0.03291 0.60080
 C197 C 0.46681 0.20566 0.39610
 C198 C 0.44404 0.25064 0.37863
 C199 C 0.38988 0.26140 0.38810
 C200 C 0.35724 0.22284 0.41148
 C201 C 0.38095 0.17730 0.42975
 C202 C 0.43612 0.16920 0.42231
 C203 C 0.34843 0.14086 0.45496
 N204 N 0.29526 0.14824 0.45865
 N205 N 0.27239 0.18934 0.43853
 C206 C 0.30123 0.22643 0.41463
 H207 H 0.50893 0.19946 0.38957
 H208 H 0.47014 0.27834 0.36021
 H209 H 0.36463 0.10636 0.47139
 H210 H 0.27945 0.25712 0.39668
 C211 C 0.96201 0.31841 0.59866
 C212 C 0.94449 0.27132 0.61615
 C213 C 0.89055 0.25761 0.61298
 C214 C 0.85272 0.29524 0.59833
 C215 C 0.87057 0.34419 0.58271
 C216 C 0.92618 0.35465 0.57947
 C217 C 0.83179 0.38165 0.57346
 N218 N 0.77937 0.37049 0.57778
 N219 N 0.76272 0.32482 0.59208
 C220 C 0.79734 0.28720 0.60319
 H221 H 1.00443 0.32576 0.59828
 H222 H 0.97425 0.24417 0.62858
 H223 H 0.84197 0.42035 0.56527
 H224 H 0.78077 0.25236 0.61809
 C225 C 0.04129 0.81463 -0.09904
 C226 C 0.05930 0.76842 -0.11761
 C227 C 0.11273 0.75397 -0.11178
 C228 C 0.14994 0.79005 -0.09251
 C229 C 0.13173 0.83761 -0.07379
 C230 C 0.07602 0.84911 -0.07509
 C231 C 0.17070 0.87250 -0.05680
 N232 N 0.22306 0.86082 -0.05881
 N233 N 0.23991 0.81713 -0.07784
 C234 C 0.20544 0.78189 -0.09551
 H235 H -0.00085 0.82271 -0.10195
 H236 H 0.03013 0.74248 -0.13358
 H237 H 0.16152 0.90979 -0.04373
 H238 H 0.22239 0.74907 -0.11400
 C239 C 0.53333 0.70297 1.10060
 C240 C 0.55377 0.74916 1.11712
 C241 C 0.60877 0.75877 1.11580
 C242 C 0.64412 0.71823 1.10506
 C243 C 0.62321 0.67019 1.09157
 C244 C 0.56720 0.66382 1.08505
 C245 C 0.65921 0.62961 1.08746
 N246 N 0.71210 0.63725 1.09373
 N247 N 0.73171 0.68233 1.10528
 C248 C 0.69972 0.72277 1.11182
 H249 H 0.49055 0.69861 1.09791
 H250 H 0.52595 0.77890 1.12675
 H251 H 0.64622 0.59135 1.08188
 H252 H 0.71828 0.75725 1.12459
 C253 C 0.38722 0.46346 1.20145
 C254 C 0.36908 0.44254 1.24968
 C255 C 0.40388 0.41677 1.28428
 C256 C 0.45901 0.41595 1.27192
 C257 C 0.47741 0.43693 1.22263
 C258 C 0.44065 0.45905 1.18626
 C259 C 0.53245 0.43594 1.21188
 N260 N 0.56637 0.41526 1.24806
 N261 N 0.54916 0.39591 1.29442
 C262 C 0.49682 0.39578 1.30772
 H263 H 0.35874 0.48078 1.17445
 H264 H 0.32690 0.44414 1.25859
 H265 H 0.54909 0.45236 1.17569
 H266 H 0.48563 0.38107 1.34672
 C267 C 0.53386 -0.06470 0.28172
 C268 C 0.55181 -0.08751 0.23483
 C269 C 0.60616 -0.08914 0.22233
 C270 C 0.64327 -0.06641 0.25792
 C271 C 0.62461 -0.04114 0.30435
 C272 C 0.56967 -0.04250 0.31760
 C273 C 0.66187 -0.01522 0.33608
 N274 N 0.71447 -0.01801 0.32456
 N275 N 0.73238 -0.04486 0.28348
 C276 C 0.69882 -0.06939 0.25011
 H277 H 0.49174 -0.06605 0.29101
 H278 H 0.52299 -0.10485 0.20844
 H279 H 0.64985 0.00787 0.36948
 H280 H 0.71641 -0.09156 0.21870
 C281 C -0.10031 1.05583 -0.19856
 C282 C -0.11883 1.07701 -0.24628
 C283 C -0.08510 1.10555 -0.27973
 C284 C -0.03037 1.10951 -0.26643
 C285 C -0.01159 1.08823 -0.21749
 C286 C -0.04753 1.06270 -0.18256
 C287 C 0.04308 1.09207 -0.20587
 N288 N 0.07631 1.11571 -0.24086
 N289 N 0.05879 1.13531 -0.28689
 C290 C 0.00680 1.13277 -0.30102
 H291 H -0.12812 1.03592 -0.17268
 H292 H -0.16062 1.07286 -0.25590
 H293 H 0.06009 1.07557 -0.17002
 H294 H -0.00443 1.14777 -0.33978
 C295 C 1.07705 0.61634 0.67769
 C296 C 1.09560 0.63637 0.72558
 C297 C 1.09287 0.60871 0.77359
 C298 C 1.06918 0.56028 0.77347
 C299 C 1.05053 0.53951 0.72445
 C300 C 1.05527 0.56780 0.67595
 C301 C 1.02574 0.49198 0.72637
 N302 N 1.02047 0.46718 0.77391
 N303 N 1.03758 0.48687 0.81975
 C304 C 1.06133 0.53266 0.82120
 H305 H 1.08057 0.63881 0.64133
 H306 H 1.11318 0.67363 0.72493
 H307 H 1.00946 0.47456 0.69100
 H308 H 1.07250 0.54759 0.85979
 C309 C 0.81649 0.60285 0.59037
 C310 C 0.76837 0.61983 0.61062
 C311 C 0.72227 0.61908 0.57928
 C312 C 0.72501 0.60140 0.52584
 C313 C 0.77428 0.58369 0.50507
 C314 C 0.82020 0.58380 0.53822
 C315 C 0.77581 0.56736 0.45150
 N316 N 0.73075 0.56752 0.42160
 N317 N 0.68440 0.58301 0.44151
 C318 C 0.67996 0.59990 0.49258
 H319 H 0.85098 0.60332 0.61643
 H320 H 0.76714 0.63370 0.65140
 H321 H 0.81234 0.55509 0.43281
 H322 H 0.64132 0.61192 0.50667
 C323 C 0.70889 0.46001 1.07350
 C324 C 0.75429 0.43851 1.09543
 C325 C 0.76496 0.38654 1.09122
 C326 C 0.72714 0.35583 1.06307
 C327 C 0.68193 0.37889 1.03871
 C328 C 0.67183 0.43077 1.04623
 C329 C 0.64754 0.34909 1.00764
 N330 N 0.65509 0.29882 1.00477
 N331 N 0.69444 0.27632 1.03116
 C332 C 0.73005 0.30268 1.06058
 H333 H 0.70176 0.49977 1.07963
 H334 H 0.78142 0.46354 1.11595
 H335 H 0.61486 0.36528 0.98527
 H336 H 0.75834 0.28075 1.08287
 C337 C 0.20125 1.11961 -0.03596
 C338 C 0.25071 1.13701 -0.05314
 C339 C 0.28328 1.10820 -0.08748
 C340 C 0.26661 1.05804 -0.09961
 C341 C 0.21456 1.04205 -0.08509
 C342 C 0.18228 1.07286 -0.05226
 C343 C 0.19604 0.99575 -0.10485
 N344 N 0.22947 0.96498 -0.13180
 N345 N 0.28009 0.97739 -0.14024
 C346 C 0.29996 1.02238 -0.12458
 H347 H 0.17718 1.14327 -0.01031
 H348 H 0.26206 1.17458 -0.04110
 H349 H 0.15527 0.98376 -0.09940
 H350 H 0.34200 1.02854 -0.13019
 C351 C 0.29673 -0.03163 0.42133
 C352 C 0.24732 -0.04898 0.40537
 C353 C 0.22572 -0.09431 0.42575
 C354 C 0.25327 -0.11858 0.46909
 C355 C 0.30581 -0.10262 0.48265
 C356 C 0.32759 -0.05855 0.45820
 C357 C 0.33484 -0.13218 0.51958
 N358 N 0.31101 -0.17110 0.54559
 N359 N 0.26027 -0.18271 0.53711
 C360 C 0.23057 -0.15768 0.50029
 H361 H 0.31156 0.00296 0.40337
 H362 H 0.22725 -0.02718 0.37458
 H363 H 0.37628 -0.12551 0.52797
 H364 H 0.18909 -0.16751 0.49788
 C365 C 0.59148 -0.18139 0.53994
 C366 C 0.60629 -0.22996 0.55416
 C367 C 0.58201 -0.25585 0.59728
 C368 C 0.53804 -0.23189 0.62346
 C369 C 0.52656 -0.18019 0.61233
 C370 C 0.55250 -0.15509 0.56864
 C371 C 0.48962 -0.15579 0.64599
 N372 N 0.46093 -0.18258 0.68238
 N373 N 0.46673 -0.23204 0.68779
 C374 C 0.50372 -0.25760 0.65936
 H375 H 0.61159 -0.16408 0.50596
 H376 H 0.63846 -0.24658 0.53140
 H377 H 0.48367 -0.11571 0.64518
 H378 H 0.50391 -0.29792 0.66378
 C379 C 1.07306 0.70894 0.46150
 C380 C 1.09545 0.75443 0.44525
 C381 C 1.10457 0.76514 0.39085
 C382 C 1.09116 0.72840 0.35190
 C383 C 1.06614 0.68270 0.36834
 C384 C 1.05841 0.67239 0.42399
 C385 C 1.04892 0.64945 0.32812
 N386 N 1.05989 0.65944 0.27578
 N387 N 1.08660 0.70049 0.26078
 C388 C 1.10277 0.73512 0.29693
 H389 H 1.06770 0.70209 0.50414
 H390 H 1.10516 0.78184 0.47569
 H391 H 1.02604 0.61609 0.33723
 H392 H 1.12529 0.76695 0.28214
 C393 C -0.08823 1.19757 0.03879
 C394 C -0.11084 1.24137 0.05862
 C395 C -0.10026 1.25819 0.11112
 C396 C -0.06768 1.22724 0.14517
 C397 C -0.04394 1.18293 0.12404
 C398 C -0.05495 1.16804 0.07076
 C399 C -0.00978 1.15452 0.15715
 N400 N -0.00266 1.16754 0.20908
 N401 N -0.02769 1.20676 0.23020
 C402 C -0.06026 1.23653 0.20050
 H403 H -0.09741 1.18626 -0.00188
 H404 H -0.13560 1.26308 0.03146
 H405 H 0.01132 1.12201 0.14234
 H406 H -0.08125 1.26555 0.22164
 C407 C 0.46976 0.31456 0.90941
 C408 C 0.45074 0.26937 0.88890
 C409 C 0.39685 0.25599 0.89400
 C410 C 0.36117 0.29008 0.91922
 C411 C 0.38135 0.33461 0.94266
 C412 C 0.43566 0.34723 0.93646
 C413 C 0.34632 0.36528 0.97186
 N414 N 0.29379 0.35390 0.97402
 N415 N 0.27404 0.31412 0.94874
 C416 C 0.30572 0.28215 0.92107
 H417 H 0.51148 0.32393 0.90453
 H418 H 0.47871 0.24422 0.86972
 H419 H 0.36032 0.39802 0.99313
 H420 H 0.28678 0.25181 0.89985
 C421 C 0.53107 0.58350 0.79264
 C422 C 0.54832 0.60723 0.74565
 C423 C 0.60267 0.61220 0.73404
 C424 C 0.64050 0.59260 0.77106
 C425 C 0.62284 0.56587 0.81741
 C426 C 0.56755 0.56325 0.82940
 C427 C 0.66144 0.54221 0.84989
 N428 N 0.71390 0.54895 0.83935
 N429 N 0.73046 0.57748 0.79846
 C430 C 0.69569 0.59972 0.76423
 H431 H 0.48874 0.58196 0.80087
 H432 H 0.51878 0.62168 0.71794
 H433 H 0.65076 0.51765 0.88294
 H434 H 0.71177 0.62350 0.73287
 C435 C 0.39714 0.06746 0.68562
 C436 C 0.37862 0.08860 0.73299
 C437 C 0.41306 0.11442 0.76751
 C438 C 0.46820 0.11662 0.75496
 C439 C 0.48696 0.09551 0.70617
 C440 C 0.45066 0.07171 0.67088
 C441 C 0.54195 0.09740 0.69529
 N442 N 0.57558 0.11895 0.73086
 N443 N 0.55813 0.13821 0.77681
 C444 C 0.50583 0.13746 0.79027
 H445 H 0.36898 0.04906 0.65932
 H446 H 0.33652 0.08577 0.74209
 H447 H 0.55887 0.08100 0.65955
 H448 H 0.49477 0.15204 0.82901
 C449 C 0.03474 0.93599 0.21235
 C450 C 0.05320 0.91344 0.25941
 C451 C 0.10734 0.91465 0.27268
 C452 C 0.14364 0.94021 0.23792
 C453 C 0.12426 0.96533 0.19145
 C454 C 0.06981 0.96085 0.17726
 C455 C 0.16030 0.99416 0.16051
 N456 N 0.21276 0.99424 0.17283
 N457 N 0.23163 0.96753 0.21396
 C458 C 0.19912 0.94029 0.24658
 H459 H -0.00699 0.93224 0.20226
 H460 H 0.02498 0.89413 0.28532
 H461 H 0.14734 1.01723 0.12709
 H462 H 0.21753 0.91839 0.27802
 C463 C 0.88749 0.45268 0.30671
 C464 C 0.86966 0.43157 0.25911
 C465 C 0.90493 0.40749 0.22404
 C466 C 0.96012 0.40718 0.23629
 C467 C 0.97813 0.42680 0.28605
 C468 C 0.94122 0.45025 0.32137
 C469 C 1.03233 0.42060 0.29910
 N470 N 1.06637 0.40023 0.26303
 N471 N 1.05005 0.38520 0.21496
 C472 C 0.99827 0.38811 0.20030
 H473 H 0.85869 0.47040 0.33290
 H474 H 0.82740 0.43253 0.25068
 H475 H 1.04831 0.43084 0.33762
 H476 H 0.98784 0.37630 0.16029
   
