data_POSCAR
  _audit_creation_date              2014-09-24
  _audit_creation_method            'ToBaCCo'
  _symmetry_space_group_name_H-M    'P1'
  _symmetry_Int_Tables_number       1
  _symmetry_cell_setting            triclinic
  loop_
  _symmetry_equiv_pos_as_xyz
 x,y,z
_cell_length_a 69.0718
_cell_length_b 69.0843
_cell_length_c 19.6831
_cell_angle_alpha 89.987300
_cell_angle_beta 90.019100
_cell_angle_gamma 119.940400
loop_
  _atom_site_label
  _atom_site_type_symbol
  _atom_site_fract_x
  _atom_site_fract_y
  _atom_site_fract_z
C1 C 0.23197 0.49837 0.46497
 C2 C 0.23267 0.49935 0.53754
 C3 C 0.25126 0.50055 0.57127
 C4 C 0.26903 0.50060 0.53615
 C5 C 0.26805 0.49938 0.46415
 C6 C 0.24959 0.49803 0.43011
 H7 H 0.24941 0.49743 0.37503
 H8 H 0.25177 0.50107 0.62632
 C9 C 0.50122 -0.26655 0.46506
 C10 C 0.50318 -0.26541 0.53724
 C11 C 0.50335 -0.24757 0.57205
 C12 C 0.50071 -0.23112 0.53814
 C13 C 0.49851 -0.23240 0.46627
 C14 C 0.49836 -0.25016 0.43131
 H15 H 0.49784 -0.25005 0.37626
 H16 H 0.50395 -0.24744 0.62711
 C17 C 1.26808 0.76724 0.46159
 C18 C 1.26812 0.76653 0.53392
 C19 C 1.25025 0.74882 0.56826
 C20 C 1.23219 0.73181 0.53289
 C21 C 1.23181 0.73256 0.46126
 C22 C 1.24956 0.75027 0.42665
 H23 H 1.24918 0.75034 0.37157
 H24 H 1.25021 0.74846 0.62336
 C25 C 0.76952 0.50229 0.46172
 C26 C 0.76899 0.50014 0.53365
 C27 C 0.75061 0.49879 0.56917
 C28 C 0.73368 0.50097 0.53602
 C29 C 0.73424 0.50255 0.46380
 C30 C 0.75222 0.50338 0.42826
 H31 H 0.75229 0.50388 0.37317
 H32 H 0.75074 0.49840 0.62420
 C33 C 0.49545 0.26581 0.46229
 C34 C 0.49771 0.26755 0.53415
 C35 C 0.49901 0.25055 0.56993
 C36 C 0.49667 0.23132 0.53721
 C37 C 0.49480 0.23008 0.46503
 C38 C 0.49407 0.24724 0.42920
 H39 H 0.49344 0.24669 0.37413
 H40 H 0.49950 0.25120 0.62495
 C41 C 0.73355 0.23117 0.46187
 C42 C 0.73242 0.23164 0.53339
 C43 C 0.74978 0.24925 0.56947
 C44 C 0.76879 0.26623 0.53626
 C45 C 0.76944 0.26600 0.46378
 C46 C 0.75193 0.24832 0.42808
 H47 H 0.75218 0.24828 0.37299
 H48 H 0.74906 0.24870 0.62450
 O49 O 0.96925 0.51519 -0.13057
 O50 O 0.94465 0.48612 -0.06355
 C51 C 0.94913 0.50030 -0.11254
 O52 O 1.03215 0.47814 -0.11452
 O53 O 1.05655 0.50952 -0.05538
 C54 C 1.05220 0.49347 -0.09769
 O55 O 0.96979 0.44829 -0.12184
 O56 O 0.94494 0.45373 -0.05935
 C57 C 0.94960 0.44318 -0.10511
 O58 O 1.03187 0.54890 -0.12245
 O59 O 1.05650 0.54305 -0.05969
 C60 C 1.05199 0.55390 -0.10491
 Zr61 Zr 1.00053 0.52237 -0.08962
 O62 O 1.00299 0.52354 -0.19689
 O63 O 0.99911 0.55221 -0.08618
 Zr64 Zr 1.00086 0.47366 -0.08370
 O65 O 1.00354 0.47404 -0.19092
 O66 O 0.99861 0.44197 -0.07949
 O67 O 0.98077 0.48781 -0.10044
 O68 O 1.02012 0.50770 -0.09898
 O69 O 1.03119 0.55102 0.11238
 O70 O 1.05606 0.54431 0.05455
 C71 C 1.05138 0.55588 0.09649
 O72 O 0.96933 0.45108 0.12823
 O73 O 0.94470 0.45471 0.05843
 C74 C 0.94924 0.44541 0.10838
 O75 O 1.03219 0.48056 0.12137
 O76 O 1.05662 0.51119 0.05905
 C77 C 1.05225 0.49589 0.10422
 O78 O 0.96881 0.51784 0.11797
 O79 O 0.94450 0.48709 0.05606
 C80 C 0.94880 0.50230 0.10148
 Zr81 Zr 1.00016 0.52384 0.08118
 O82 O 1.00243 0.52590 0.18850
 O83 O 0.99785 0.55324 0.07658
 Zr84 Zr 1.00067 0.47524 0.08759
 O85 O 1.00322 0.47726 0.19481
 O86 O 0.99819 0.44343 0.08999
 Zr87 Zr 0.96711 0.48182 -0.00174
 Zr88 Zr 1.03390 0.51559 -0.00073
 O89 O 1.01981 0.50950 0.09718
 O90 O 0.98044 0.48958 0.09744
 O91 O 1.02034 0.53694 -0.00440
 O92 O 0.98132 0.46106 0.00213
 O93 O 0.98071 0.51668 -0.00506
 O94 O 1.02078 0.48074 0.00266
 H95 H 1.03021 0.51241 -0.13887
 H96 H 0.97133 0.44465 0.00347
 H97 H 1.02979 0.51499 0.13731
 H98 H 0.97049 0.52286 -0.00662
 H99 H 1.01106 0.44349 -0.05088
 H100 H 1.01122 0.44465 0.06529
 H101 H 0.99140 0.48012 0.21169
 H102 H 0.98968 0.51212 0.20703
 H103 H 1.00848 0.56297 0.04136
 H104 H 0.99926 0.55672 -0.13407
 H105 H 0.99192 0.50859 -0.21408
 H106 H 0.99091 0.47523 -0.20991
 O107 O 0.54968 0.51774 0.12671
 O108 O 0.54538 0.48916 0.05727
 C109 C 0.55500 0.50305 0.10688
 O110 O 0.45005 0.48116 0.11575
 O111 O 0.45678 0.51252 0.05690
 C112 C 0.44527 0.49650 0.09951
 O113 O 0.48253 0.45118 0.11997
 O114 O 0.51273 0.45686 0.05643
 C115 C 0.49773 0.44630 0.10267
 O116 O 0.52097 0.55180 0.12051
 O117 O 0.49050 0.54625 0.05854
 C118 C 0.50602 0.55708 0.10328
 Zr119 Zr 0.52575 0.52532 0.08652
 O120 O 0.52462 0.52653 0.19380
 O121 O 0.55775 0.55435 0.08640
 Zr122 Zr 0.47672 0.47667 0.08324
 O123 O 0.47541 0.47752 0.19063
 O124 O 0.44728 0.44500 0.08113
 O125 O 0.51104 0.49079 0.09760
 O126 O 0.49158 0.51074 0.09797
 O127 O 0.52129 0.55286 -0.11747
 O128 O 0.49094 0.54709 -0.05415
 C129 C 0.50635 0.55799 -0.09902
 O130 O 0.48373 0.45319 -0.12847
 O131 O 0.51306 0.45754 -0.06288
 C132 C 0.49857 0.44779 -0.11103
 O133 O 0.45092 0.48312 -0.11996
 O134 O 0.45762 0.51399 -0.05802
 C135 C 0.44639 0.49857 -0.10258
 O136 O 0.55113 0.52002 -0.12440
 O137 O 0.54573 0.48994 -0.06082
 C138 C 0.55612 0.50486 -0.10745
 Zr139 Zr 0.52640 0.52649 -0.08474
 O140 O 0.52647 0.52911 -0.19188
 O141 O 0.55819 0.55575 -0.07962
 Zr142 Zr 0.47729 0.47784 -0.08801
 O143 O 0.47624 0.47969 -0.19521
 O144 O 0.44789 0.44612 -0.08889
 Zr145 Zr 0.51809 0.48467 -0.00185
 Zr146 Zr 0.48512 0.51848 0.00019
 O147 O 0.49233 0.51205 -0.09838
 O148 O 0.51175 0.49216 -0.10043
 O149 O 0.52004 0.53984 0.00166
 O150 O 0.48313 0.46389 -0.00324
 O151 O 0.53928 0.51955 0.00058
 O152 O 0.46332 0.48363 -0.00204
 H153 H 0.48644 0.51557 0.13815
 H154 H 0.47672 0.44747 -0.00430
 H155 H 0.48751 0.51731 -0.13830
 H156 H 0.55566 0.52568 0.00116
 H157 H 0.43624 0.44637 0.05261
 H158 H 0.43630 0.44743 -0.06319
 H159 H 0.49044 0.48154 -0.21308
 H160 H 0.52313 0.51450 -0.21076
 H161 H 0.55630 0.56739 -0.05628
 H162 H 0.55652 0.56608 0.06117
 H163 H 0.52094 0.51163 0.21107
 H164 H 0.48899 0.47793 0.20858
 O165 O 0.51823 -0.03054 0.12213
 O166 O 0.48828 -0.05526 0.05829
 C167 C 0.50320 -0.05068 0.10495
 O168 O 0.48022 0.03118 0.12328
 O169 O 0.50976 0.05580 0.05756
 C170 C 0.49485 0.05125 0.10424
 O171 O 0.45090 -0.03146 0.12742
 O172 O 0.45593 -0.05594 0.06111
 C173 C 0.44601 -0.05152 0.10957
 O174 O 0.55075 0.03208 0.11479
 O175 O 0.54356 0.05636 0.05535
 C176 C 0.55522 0.05210 0.09815
 Zr177 Zr 0.52412 0.00057 0.08360
 O178 O 0.52606 0.00297 0.19090
 O179 O 0.55358 -0.00167 0.08039
 Zr180 Zr 0.47475 -0.00000 0.08684
 O181 O 0.47300 0.00046 0.19401
 O182 O 0.44315 -0.00205 0.08116
 O183 O 0.48980 -0.01949 0.09903
 O184 O 0.50908 0.01964 0.09763
 O185 O 0.54913 0.03166 -0.12082
 O186 O 0.54302 0.05624 -0.05887
 C187 C 0.55404 0.05178 -0.10359
 O188 O 0.44934 -0.03122 -0.12323
 O189 O 0.45483 -0.05561 -0.05836
 C190 C 0.44445 -0.05127 -0.10558
 O191 O 0.47827 0.03127 -0.11593
 O192 O 0.50944 0.05602 -0.05634
 C193 C 0.49346 0.05144 -0.09928
 O194 O 0.51652 -0.03126 -0.12537
 O195 O 0.48678 -0.05581 -0.06009
 C196 C 0.50141 -0.05134 -0.10764
 Zr197 Zr 0.52292 0.00022 -0.08778
 O198 O 0.52311 0.00246 -0.19511
 O199 O 0.55241 -0.00195 -0.09062
 Zr200 Zr 0.47383 0.00003 -0.08378
 O201 O 0.47271 0.00209 -0.19082
 O202 O 0.44276 -0.00129 -0.07277
 Zr203 Zr 0.48255 -0.03307 0.00010
 Zr204 Zr 0.51541 0.03350 -0.00066
 O205 O 0.50787 0.01948 -0.09863
 O206 O 0.48847 -0.01976 -0.09903
 O207 O 0.53721 0.02040 -0.00264
 O208 O 0.46110 -0.01967 0.00185
 O209 O 0.51747 -0.01902 -0.00205
 O210 O 0.48052 0.02008 0.00165
 H211 H 0.51445 0.02974 0.13747
 H212 H 0.44474 -0.03008 0.00277
 H213 H 0.51253 0.02947 -0.13873
 H214 H 0.52389 -0.02903 -0.00272
 H215 H 0.44518 0.01144 0.05720
 H216 H 0.43738 -0.00132 -0.11947
 H217 H 0.47816 -0.00757 -0.20977
 H218 H 0.50943 -0.01078 -0.21217
 H219 H 0.56374 0.01039 -0.06260
 H220 H 0.56478 0.01112 0.05346
 H221 H 0.51194 -0.00939 0.20925
 H222 H 0.48789 0.00433 0.21157
 C223 C 1.18053 0.49973 0.35004
 C224 C 1.19071 0.51467 0.40421
 C225 C 1.20773 0.51437 0.44189
 C226 C 1.21517 0.49926 0.42589
 C227 C 1.20558 0.48504 0.36947
 C228 C 1.18823 0.48502 0.33284
 C229 C 1.16177 0.49925 0.31225
 N230 N 1.14638 0.48032 0.28040
 N231 N 1.12925 0.47972 0.24737
 C232 C 1.12692 0.49810 0.24429
 N233 N 1.14239 0.51707 0.27579
 N234 N 1.15940 0.51761 0.30940
 C235 C 1.10787 0.49743 0.20775
 C236 C 1.10957 0.51711 0.18131
 C237 C 1.09159 0.51651 0.14675
 C238 C 1.07138 0.49629 0.13926
 C239 C 1.06960 0.47664 0.16612
 C240 C 1.08777 0.47716 0.19935
 H241 H 1.18522 0.52631 0.41833
 H242 H 1.21527 0.52620 0.48312
 H243 H 1.21073 0.47312 0.35554
 H244 H 1.18082 0.47345 0.29092
 H245 H 1.12488 0.53296 0.18676
 H246 H 1.09339 0.53195 0.12688
 H247 H 1.05423 0.46082 0.16084
 H248 H 1.08596 0.46175 0.21947
 C249 C 0.50551 0.68368 0.34877
 C250 C 0.51963 0.69370 0.40485
 C251 C 0.51846 0.71023 0.44252
 C252 C 0.50296 0.71712 0.42577
 C253 C 0.48941 0.70757 0.36792
 C254 C 0.49056 0.69099 0.33038
 C255 C 0.50620 0.66554 0.31028
 N256 N 0.49179 0.65503 0.25820
 N257 N 0.49210 0.63844 0.22460
 C258 C 0.50684 0.63164 0.24158
 N259 N 0.52130 0.64221 0.29348
 N260 N 0.52097 0.65878 0.32711
 C261 C 0.50692 0.61288 0.20502
 C262 C 0.52260 0.60630 0.22163
 C263 C 0.52242 0.58835 0.18827
 C264 C 0.50652 0.57647 0.13752
 C265 C 0.49094 0.58315 0.12052
 C266 C 0.49116 0.60115 0.15379
 H267 H 0.53161 0.68875 0.41992
 H268 H 0.53011 0.71795 0.48405
 H269 H 0.47712 0.71214 0.35318
 H270 H 0.47948 0.68372 0.28731
 H271 H 0.53501 0.61496 0.26071
 H272 H 0.53469 0.58370 0.20269
 H273 H 0.47845 0.57440 0.08169
 H274 H 0.47883 0.60573 0.13964
 C275 C 0.32154 -0.18072 0.35082
 C276 C 0.29927 -0.18829 0.33221
 C277 C 0.28172 -0.20587 0.36738
 C278 C 0.28596 -0.21580 0.42373
 C279 C 0.30839 -0.20844 0.44111
 C280 C 0.32594 -0.19121 0.40487
 C281 C 0.34006 -0.16174 0.31467
 N282 N 0.36073 -0.15950 0.31227
 N283 N 0.37743 -0.14227 0.28014
 C284 C 0.37418 -0.12645 0.24982
 N285 N 0.35353 -0.12865 0.25248
 N286 N 0.33678 -0.14599 0.28399
 C287 C 0.39273 -0.10721 0.21467
 C288 C 0.39272 -0.08695 0.20833
 C289 C 0.41024 -0.06872 0.17522
 C290 C 0.42785 -0.07056 0.14639
 C291 C 0.42781 -0.09085 0.15235
 C292 C 0.41055 -0.10892 0.18687
 H293 H 0.29540 -0.18061 0.29036
 H294 H 0.26476 -0.21090 0.35241
 H295 H 0.31245 -0.21631 0.48193
 H296 H 0.34296 -0.18584 0.41999
 H297 H 0.37926 -0.08512 0.22960
 H298 H 0.40983 -0.05330 0.17112
 H299 H 0.44124 -0.09267 0.13087
 H300 H 0.41095 -0.12435 0.19084
 C301 C 0.82076 0.50041 0.34267
 C302 C 0.81730 0.51878 0.33858
 C303 C 0.80023 0.51906 0.37582
 C304 C 0.78662 0.50120 0.41891
 C305 C 0.78970 0.48263 0.42209
 C306 C 0.80657 0.48219 0.38408
 C307 C 0.83939 0.50052 0.30517
 N308 N 0.83955 0.48123 0.29335
 N309 N 0.85653 0.48144 0.26053
 C310 C 0.87412 0.50097 0.23869
 N311 N 0.87396 0.52025 0.25059
 N312 N 0.85692 0.52002 0.28296
 C313 C 0.89319 0.50129 0.20326
 C314 C 0.91395 0.52110 0.19965
 C315 C 0.93206 0.52139 0.16705
 C316 C 0.92969 0.50197 0.13633
 C317 C 0.90888 0.48220 0.13940
 C318 C 0.89087 0.48182 0.17302
 H319 H 0.82783 0.53298 0.30672
 H320 H 0.79802 0.53349 0.37260
 H321 H 0.77922 0.46862 0.45469
 H322 H 0.80883 0.46781 0.38832
 H323 H 0.91630 0.53635 0.22274
 H324 H 0.94787 0.53689 0.16529
 H325 H 0.90659 0.46694 0.11652
 H326 H 0.87506 0.46632 0.17480
 C327 C 0.49805 0.31917 0.34272
 C328 C 0.47949 0.29748 0.33876
 C329 C 0.47897 0.28003 0.37611
 C330 C 0.49678 0.28405 0.41920
 C331 C 0.51554 0.30556 0.42223
 C332 C 0.51622 0.32296 0.38409
 C333 C 0.49818 0.33782 0.30524
 N334 N 0.51762 0.35707 0.29313
 N335 N 0.51763 0.37397 0.26047
 C336 C 0.49819 0.37238 0.23908
 N337 N 0.47876 0.35314 0.25124
 N338 N 0.47877 0.33619 0.28345
 C339 C 0.49811 0.39128 0.20393
 C340 C 0.47850 0.39267 0.20118
 C341 C 0.47843 0.41064 0.16881
 C342 C 0.49787 0.42740 0.13746
 C343 C 0.51744 0.42595 0.13968
 C344 C 0.51761 0.40817 0.17309
 H345 H 0.46533 0.29400 0.30693
 H346 H 0.46440 0.26350 0.37301
 H347 H 0.52951 0.30891 0.45482
 H348 H 0.53073 0.33948 0.38825
 H349 H 0.46324 0.37998 0.22476
 H350 H 0.46308 0.41128 0.16770
 H351 H 0.53271 0.43870 0.11628
 H352 H 0.53296 0.40753 0.17420
 C353 C 0.68083 0.17871 0.34522
 C354 C 0.67655 0.19294 0.38567
 C355 C 0.69369 0.21003 0.42352
 C356 C 0.71543 0.21334 0.42099
 C357 C 0.71986 0.19945 0.37978
 C358 C 0.70267 0.18215 0.34270
 C359 C 0.66259 0.16027 0.30634
 N360 N 0.66468 0.14282 0.28384
 N361 N 0.64816 0.12607 0.24969
 C362 C 0.62892 0.12615 0.23616
 N363 N 0.62687 0.14367 0.25833
 N364 N 0.64334 0.16035 0.29290
 C365 C 0.61042 0.10739 0.19902
 C366 C 0.59346 0.11001 0.16852
 C367 C 0.57579 0.09217 0.13456
 C368 C 0.57449 0.07123 0.13133
 C369 C 0.59148 0.06863 0.16160
 C370 C 0.60935 0.08657 0.19461
 H371 H 0.65990 0.19068 0.38885
 H372 H 0.69001 0.22068 0.45486
 H373 H 0.73656 0.20179 0.37729
 H374 H 0.70653 0.17155 0.31175
 H375 H 0.59387 0.12587 0.17076
 H376 H 0.56289 0.09467 0.11199
 H377 H 0.59098 0.05272 0.15970
 H378 H 0.62212 0.08401 0.21774
 C379 C 0.49280 0.17801 -0.34373
 C380 C 0.50767 0.20035 -0.32609
 C381 C 0.50869 0.21786 -0.36452
 C382 C 0.49513 0.21354 -0.42251
 C383 C 0.47971 0.19110 -0.43846
 C384 C 0.47865 0.17363 -0.39990
 C385 C 0.49223 0.15938 -0.30453
 N386 N 0.47726 0.13782 -0.32020
 N387 N 0.47704 0.12104 -0.28623
 C388 C 0.49180 0.12507 -0.23513
 N389 N 0.50673 0.14663 -0.21925
 N390 N 0.50693 0.16342 -0.25320
 C391 C 0.49187 0.10630 -0.19861
 C392 C 0.50809 0.11034 -0.14890
 C393 C 0.50851 0.09257 -0.11619
 C394 C 0.49267 0.07034 -0.13229
 C395 C 0.47628 0.06633 -0.18132
 C396 C 0.47590 0.08407 -0.21410
 H397 H 0.51876 0.20436 -0.28294
 H398 H 0.52089 0.23481 -0.35038
 H399 H 0.46806 0.18695 -0.48012
 H400 H 0.46674 0.15664 -0.41443
 H401 H 0.52065 0.12724 -0.13568
 H402 H 0.52137 0.09629 -0.07865
 H403 H 0.46380 0.04944 -0.19499
 H404 H 0.46313 0.08031 -0.25198
 C405 C 0.68355 0.50468 -0.34834
 C406 C 0.69356 0.51884 -0.40427
 C407 C 0.71031 0.51793 -0.44137
 C408 C 0.71740 0.50262 -0.42428
 C409 C 0.70803 0.48917 -0.36619
 C410 C 0.69120 0.49005 -0.32916
 C411 C 0.66502 0.50498 -0.31111
 N412 N 0.65443 0.49058 -0.25912
 N413 N 0.63746 0.49057 -0.22686
 C414 C 0.63035 0.50495 -0.24524
 N415 N 0.64099 0.51939 -0.29708
 N416 N 0.65793 0.51939 -0.32933
 C417 C 0.61132 0.50485 -0.20992
 C418 C 0.60448 0.52021 -0.22813
 C419 C 0.58656 0.52017 -0.19505
 C420 C 0.57500 0.50474 -0.14295
 C421 C 0.58177 0.48932 -0.12484
 C422 C 0.59973 0.48939 -0.15788
 H423 H 0.68841 0.53062 -0.41983
 H424 H 0.71794 0.52954 -0.48304
 H425 H 0.71287 0.47711 -0.35109
 H426 H 0.68396 0.47900 -0.28604
 H427 H 0.61299 0.53235 -0.26798
 H428 H 0.58181 0.53228 -0.21038
 H429 H 0.57326 0.47719 -0.08493
 H430 H 0.60450 0.47730 -0.14259
 C431 C 0.82270 0.31573 -0.34712
 C432 C 0.80046 0.30794 -0.32744
 C433 C 0.78276 0.29134 -0.36491
 C434 C 0.78678 0.28231 -0.42393
 C435 C 0.80915 0.28955 -0.44168
 C436 C 0.82682 0.30608 -0.40410
 C437 C 0.84148 0.33405 -0.30927
 N438 N 0.86299 0.34123 -0.32747
 N439 N 0.87986 0.35805 -0.29466
 C440 C 0.87597 0.36846 -0.24229
 N441 N 0.85447 0.36124 -0.22392
 N442 N 0.83759 0.34440 -0.25670
 C443 C 0.89479 0.38746 -0.20664
 C444 C 0.89076 0.39903 -0.15485
 C445 C 0.90852 0.41711 -0.12195
 C446 C 0.93075 0.42402 -0.13994
 C447 C 0.93476 0.41240 -0.19155
 C448 C 0.91701 0.39437 -0.22452
 H449 H 0.79667 0.31489 -0.28354
 H450 H 0.76588 0.28641 -0.34932
 H451 H 0.81309 0.28218 -0.48420
 H452 H 0.84374 0.31137 -0.42011
 H453 H 0.87386 0.39419 -0.13980
 H454 H 0.90480 0.42565 -0.08239
 H455 H 0.95165 0.41725 -0.20674
 H456 H 0.92075 0.38585 -0.26412
 C457 C 0.49891 -0.17962 -0.34875
 C458 C 0.48356 -0.19051 -0.40143
 C459 C 0.48402 -0.20754 -0.43841
 C460 C 0.49972 -0.21430 -0.42325
 C461 C 0.51442 -0.20396 -0.36826
 C462 C 0.51426 -0.18658 -0.33231
 C463 C 0.49909 -0.16088 -0.31178
 N464 N 0.51811 -0.14484 -0.28193
 N465 N 0.51844 -0.12768 -0.25000
 C466 C 0.49973 -0.12595 -0.24609
 N467 N 0.48067 -0.14208 -0.27552
 N468 N 0.48039 -0.15913 -0.30803
 C469 C 0.50014 -0.10685 -0.21080
 C470 C 0.48049 -0.10885 -0.18298
 C471 C 0.48095 -0.09086 -0.14895
 C472 C 0.50096 -0.07036 -0.14344
 C473 C 0.52055 -0.06826 -0.17204
 C474 C 0.52019 -0.08640 -0.20471
 H475 H 0.47138 -0.18563 -0.41484
 H476 H 0.47168 -0.21576 -0.47797
 H477 H 0.52682 -0.20854 -0.35492
 H478 H 0.52617 -0.17860 -0.29151
 H479 H 0.46481 -0.12443 -0.18671
 H480 H 0.46558 -0.09290 -0.12765
 H481 H 0.53621 -0.05267 -0.16828
 H482 H 0.53557 -0.08435 -0.22596
 C483 C 0.32222 0.50198 -0.35119
 C484 C 0.32680 0.51607 -0.40755
 C485 C 0.30937 0.51573 -0.44478
 C486 C 0.28691 0.50148 -0.42599
 C487 C 0.28253 0.48802 -0.36777
 C488 C 0.29993 0.48801 -0.33160
 C489 C 0.34053 0.50162 -0.31321
 N490 N 0.33680 0.48302 -0.27880
 N491 N 0.35327 0.48253 -0.24507
 C492 C 0.37410 0.50070 -0.24377
 N493 N 0.37782 0.51936 -0.27788
 N494 N 0.36139 0.51977 -0.31221
 C495 C 0.39239 0.50011 -0.20647
 C496 C 0.41056 0.51988 -0.18138
 C497 C 0.42787 0.51929 -0.14630
 C498 C 0.42760 0.49899 -0.13702
 C499 C 0.40949 0.47923 -0.16236
 C500 C 0.39192 0.47975 -0.19604
 H501 H 0.34386 0.52715 -0.42350
 H502 H 0.31355 0.52709 -0.48727
 H503 H 0.26554 0.47667 -0.35178
 H504 H 0.29591 0.47708 -0.28805
 H505 H 0.41131 0.53579 -0.18841
 H506 H 0.44172 0.53480 -0.12766
 H507 H 0.40885 0.46336 -0.15573
 H508 H 0.37816 0.46426 -0.21506
 C509 C 1.17870 0.67865 -0.35471
 C510 C 1.18289 0.70071 -0.34918
 C511 C 1.20051 0.71800 -0.38497
 C512 C 1.21397 0.71350 -0.42793
 C513 C 1.20985 0.69153 -0.43378
 C514 C 1.19246 0.67426 -0.39711
 C515 C 1.16007 0.66035 -0.31660
 N516 N 1.15986 0.64090 -0.30408
 N517 N 1.14310 0.62447 -0.26968
 C518 C 1.12578 0.62672 -0.24679
 N519 N 1.12595 0.64614 -0.25951
 N520 N 1.14279 0.66264 -0.29345
 C521 C 1.10701 0.60834 -0.20929
 C522 C 1.08616 0.60723 -0.20536
 C523 C 1.06828 0.58956 -0.17146
 C524 C 1.07099 0.57285 -0.13969
 C525 C 1.09194 0.57415 -0.14264
 C526 C 1.10970 0.59160 -0.17759
 H527 H 1.17266 0.70463 -0.31672
 H528 H 1.20346 0.73488 -0.38001
 H529 H 1.22013 0.68780 -0.46669
 H530 H 1.18959 0.65744 -0.40267
 H531 H 1.08355 0.61984 -0.22946
 H532 H 1.05235 0.58903 -0.16986
 H533 H 1.09451 0.56145 -0.11898
 H534 H 1.12559 0.59204 -0.17945
 C535 C 0.82220 0.50047 -0.35625
 C536 C 0.79989 0.48623 -0.33692
 C537 C 0.78239 0.48635 -0.37244
 C538 C 0.78673 0.50044 -0.42910
 C539 C 0.80919 0.51521 -0.44654
 C540 C 0.82662 0.51512 -0.41103
 C541 C 0.84084 0.50016 -0.31984
 N542 N 0.86235 0.51430 -0.33821
 N543 N 0.87917 0.51402 -0.30609
 C544 C 0.87523 0.49955 -0.25423
 N545 N 0.85371 0.48538 -0.23580
 N546 N 0.83687 0.48567 -0.26794
 C547 C 0.89406 0.49940 -0.21851
 C548 C 0.89013 0.48413 -0.16578
 C549 C 0.90797 0.48428 -0.13172
 C550 C 0.93016 0.49972 -0.14956
 C551 C 0.93407 0.51485 -0.20263
 C552 C 0.91625 0.51469 -0.23668
 H553 H 0.79587 0.47482 -0.29465
 H554 H 0.76541 0.47469 -0.35710
 H555 H 0.81347 0.52744 -0.48646
 H556 H 0.84361 0.52666 -0.42656
 H557 H 0.87325 0.47209 -0.15058
 H558 H 0.90434 0.47235 -0.09117
 H559 H 0.95093 0.52696 -0.21781
 H560 H 0.91993 0.52667 -0.27708
 C561 C 0.49761 0.32056 -0.35597
 C562 C 0.48298 0.31043 -0.41084
 C563 C 0.48285 0.29291 -0.44640
 C564 C 0.49755 0.28511 -0.42887
 C565 C 0.51167 0.29482 -0.37226
 C566 C 0.51183 0.31243 -0.33671
 C567 C 0.49792 0.33946 -0.31930
 N568 N 0.51246 0.34991 -0.26747
 N569 N 0.51276 0.36698 -0.23503
 C570 C 0.49854 0.37434 -0.25304
 N571 N 0.48401 0.36388 -0.30482
 N572 N 0.48372 0.34683 -0.33726
 C573 C 0.49875 0.39329 -0.21700
 C574 C 0.48341 0.40022 -0.23452
 C575 C 0.48342 0.41794 -0.20035
 C576 C 0.49878 0.42919 -0.14783
 C577 C 0.51423 0.42236 -0.13055
 C578 C 0.51420 0.40461 -0.16471
 H579 H 0.47147 0.31595 -0.42636
 H580 H 0.47062 0.28501 -0.48635
 H581 H 0.52331 0.28944 -0.35691
 H582 H 0.52325 0.31977 -0.29442
 H583 H 0.47129 0.39191 -0.27456
 H584 H 0.47130 0.42275 -0.21507
 H585 H 0.52634 0.43068 -0.09043
 H586 H 0.52629 0.39976 -0.14999
 C587 C 0.67934 0.17811 -0.35363
 C588 C 0.69226 0.17378 -0.39982
 C589 C 0.70948 0.19116 -0.43634
 C590 C 0.71406 0.21321 -0.42794
 C591 C 0.70138 0.21767 -0.38150
 C592 C 0.68414 0.20028 -0.34480
 C593 C 0.66106 0.15958 -0.31498
 N594 N 0.64861 0.16355 -0.26966
 N595 N 0.63214 0.14682 -0.23527
 C596 C 0.62742 0.12542 -0.24473
 N597 N 0.63990 0.12148 -0.28999
 N598 N 0.65635 0.13819 -0.32433
 C599 C 0.60895 0.10670 -0.20722
 C600 C 0.60391 0.08459 -0.21888
 C601 C 0.58624 0.06684 -0.18481
 C602 C 0.57317 0.07074 -0.13810
 C603 C 0.57834 0.09286 -0.12582
 C604 C 0.59602 0.11064 -0.16004
 H605 H 0.68914 0.15695 -0.40771
 H606 H 0.71936 0.18741 -0.47094
 H607 H 0.70474 0.23461 -0.37409
 H608 H 0.67457 0.20423 -0.30959
 H609 H 0.61352 0.08091 -0.25475
 H610 H 0.58278 0.05003 -0.19547
 H611 H 0.56861 0.09648 -0.09024
 H612 H 0.59945 0.12746 -0.14973
 C613 C 1.17909 0.49418 -0.34256
 C614 C 1.17482 0.48026 -0.39924
 C615 C 1.19239 0.48175 -0.43831
 C616 C 1.21474 0.49737 -0.42218
 C617 C 1.21894 0.51071 -0.36379
 C618 C 1.20136 0.50926 -0.32491
 C619 C 1.16042 0.49324 -0.30284
 N620 N 1.16440 0.50797 -0.25167
 N621 N 1.14758 0.50752 -0.21729
 C622 C 1.12606 0.49231 -0.23257
 N623 N 1.12210 0.47751 -0.28346
 N624 N 1.13891 0.47798 -0.31789
 C625 C 1.10727 0.49218 -0.19585
 C626 C 1.08511 0.47582 -0.21035
 C627 C 1.06731 0.47609 -0.17779
 C628 C 1.07120 0.49276 -0.12996
 C629 C 1.09337 0.50895 -0.11462
 C630 C 1.11121 0.50865 -0.14716
 H631 H 1.15787 0.46822 -0.41381
 H632 H 1.18841 0.47037 -0.48063
 H633 H 1.23584 0.52303 -0.34964
 H634 H 1.20526 0.52017 -0.28139
 H635 H 1.08145 0.46284 -0.24736
 H636 H 1.05047 0.46332 -0.19077
 H637 H 1.09697 0.52201 -0.07795
 H638 H 1.12807 0.52150 -0.13472
 C639 C 0.50177 0.68158 -0.34374
 C640 C 0.51742 0.70395 -0.32939
 C641 C 0.51789 0.72115 -0.36809
 C642 C 0.50246 0.71627 -0.42099
 C643 C 0.48617 0.69390 -0.43321
 C644 C 0.48612 0.67670 -0.39584
 C645 C 0.50212 0.66336 -0.30586
 N646 N 0.49656 0.64377 -0.33725
 N647 N 0.49745 0.62748 -0.30386
 C648 C 0.50368 0.63004 -0.23756
 N649 N 0.50902 0.64954 -0.20589
 N650 N 0.50841 0.66596 -0.23957
 C651 C 0.50487 0.61202 -0.20117
 C652 C 0.49961 0.60825 -0.13175
 C653 C 0.50005 0.59062 -0.09823
 C654 C 0.50642 0.57697 -0.13321
 C655 C 0.51217 0.58109 -0.20218
 C656 C 0.51110 0.59827 -0.23610
 H657 H 0.52970 0.70811 -0.28955
 H658 H 0.53054 0.73825 -0.35746
 H659 H 0.47370 0.68974 -0.47240
 H660 H 0.47371 0.65957 -0.40726
 H661 H 0.49468 0.61862 -0.10389
 H662 H 0.49556 0.58773 -0.04497
 H663 H 0.51695 0.57064 -0.23029
 H664 H 0.51533 0.60093 -0.28956
 C665 C 0.31897 -0.17929 -0.34932
 C666 C 0.30621 -0.17537 -0.39726
 C667 C 0.28942 -0.19302 -0.43419
 C668 C 0.28522 -0.21490 -0.42450
 C669 C 0.29748 -0.21900 -0.37548
 C670 C 0.31425 -0.20135 -0.33834
 C671 C 0.33729 -0.16043 -0.31193
 N672 N 0.34935 -0.16407 -0.26427
 N673 N 0.36605 -0.14705 -0.23155
 C674 C 0.37143 -0.12566 -0.24518
 N675 N 0.35935 -0.12203 -0.29275
 N676 N 0.34264 -0.13904 -0.32541
 C677 C 0.39012 -0.10667 -0.20930
 C678 C 0.39625 -0.08456 -0.22616
 C679 C 0.41389 -0.06662 -0.19260
 C680 C 0.42580 -0.07034 -0.14123
 C681 C 0.41965 -0.09244 -0.12426
 C682 C 0.40204 -0.11040 -0.15799
 H683 H 0.30925 -0.15863 -0.40668
 H684 H 0.27987 -0.18958 -0.47102
 H685 H 0.29438 -0.23581 -0.36708
 H686 H 0.32369 -0.20498 -0.30167
 H687 H 0.38746 -0.08105 -0.26547
 H688 H 0.41815 -0.04982 -0.20701
 H689 H 0.42842 -0.09593 -0.08482
 H690 H 0.39776 -0.12721 -0.14364
 C691 C 0.50117 -0.17835 0.35004
 C692 C 0.48360 -0.20037 0.34041
 C693 C 0.48286 -0.21799 0.37755
 C694 C 0.49959 -0.21388 0.42517
 C695 C 0.51745 -0.19203 0.43356
 C696 C 0.51818 -0.17443 0.39669
 C697 C 0.50170 -0.15952 0.31239
 N698 N 0.51789 -0.13815 0.32506
 N699 N 0.51823 -0.12115 0.29208
 C700 C 0.50240 -0.12480 0.24494
 N701 N 0.48624 -0.14618 0.23211
 N702 N 0.48588 -0.16318 0.26518
 C703 C 0.50270 -0.10584 0.20874
 C704 C 0.48702 -0.10966 0.15747
 C705 C 0.48726 -0.09178 0.12362
 C706 C 0.50312 -0.06963 0.14042
 C707 C 0.51883 -0.06581 0.19161
 C708 C 0.51864 -0.08370 0.22530
 H709 H 0.47029 -0.20401 0.30470
 H710 H 0.46902 -0.23477 0.37010
 H711 H 0.53074 -0.18858 0.46921
 H712 H 0.53205 -0.15773 0.40501
 H713 H 0.47454 -0.12649 0.14330
 H714 H 0.47496 -0.09535 0.08427
 H715 H 0.53129 -0.04897 0.20585
 H716 H 0.53096 -0.08013 0.26456
 C717 C 0.31845 0.49599 0.34487
 C718 C 0.31326 0.51300 0.33365
 C719 C 0.29670 0.51388 0.37194
 C720 C 0.28512 0.49789 0.42244
 C721 C 0.28988 0.48060 0.43285
 C722 C 0.30645 0.47970 0.39461
 C723 C 0.33651 0.49547 0.30571
 N724 N 0.34168 0.47916 0.31659
 N725 N 0.35821 0.47896 0.28245
 C726 C 0.37031 0.49506 0.23596
 N727 N 0.36509 0.51132 0.22486
 N728 N 0.34855 0.51152 0.25900
 C729 C 0.38907 0.49511 0.19927
 C730 C 0.40203 0.51212 0.15255
 C731 C 0.42013 0.51248 0.11960
 C732 C 0.42569 0.49582 0.13262
 C733 C 0.41255 0.47867 0.17868
 C734 C 0.39447 0.47832 0.21158
 H735 H 0.32210 0.52577 0.29568
 H736 H 0.29318 0.52729 0.36305
 H737 H 0.28089 0.46795 0.47104
 H738 H 0.30994 0.46632 0.40442
 H739 H 0.39834 0.52531 0.14179
 H740 H 0.42988 0.52593 0.08438
 H741 H 0.41629 0.46554 0.18983
 H742 H 0.38485 0.46494 0.24710
 C743 C 1.17769 0.68143 0.34503
 C744 C 1.17356 0.69373 0.39418
 C745 C 1.19113 0.71043 0.43172
 C746 C 1.21312 0.71506 0.42116
 C747 C 1.21735 0.70302 0.37174
 C748 C 1.19981 0.68634 0.33411
 C749 C 1.15905 0.66353 0.30572
 N750 N 1.16297 0.65152 0.25865
 N751 N 1.14620 0.63522 0.22396
 C752 C 1.12479 0.63024 0.23481
 N753 N 1.12087 0.64230 0.28173
 N754 N 1.13764 0.65859 0.31643
 C755 C 1.10607 0.61177 0.19735
 C756 C 1.08390 0.60643 0.20964
 C757 C 1.06619 0.58852 0.17613
 C758 C 1.07022 0.57552 0.12950
 C759 C 1.09241 0.58110 0.11633
 C760 C 1.11013 0.59900 0.14988
 H761 H 1.15676 0.69046 0.40375
 H762 H 1.18759 0.71978 0.46892
 H763 H 1.23423 0.70639 0.36284
 H764 H 1.20361 0.67724 0.29667
 H765 H 1.08015 0.61593 0.24572
 H766 H 1.04931 0.58474 0.18741
 H767 H 1.09614 0.57147 0.08065
 H768 H 1.12699 0.60267 0.13904
 C769 C 0.49745 0.17853 0.34909
 C770 C 0.51286 0.18955 0.40158
 C771 C 0.51240 0.20667 0.43801
 C772 C 0.49596 0.21248 0.42444
 C773 C 0.48073 0.20161 0.37130
 C774 C 0.48160 0.18494 0.33356
 C775 C 0.49760 0.16011 0.31169
 N776 N 0.49139 0.15627 0.24535
 N777 N 0.49121 0.13939 0.21202
 C778 C 0.49692 0.12554 0.24403
 N779 N 0.50306 0.12936 0.31039
 N780 N 0.50351 0.14640 0.34347
 C781 C 0.49620 0.10651 0.20779
 C782 C 0.49059 0.08669 0.24284
 C783 C 0.48967 0.06854 0.20868
 C784 C 0.49496 0.07012 0.13932
 C785 C 0.50081 0.09001 0.10433
 C786 C 0.50110 0.10796 0.13810
 H787 H 0.52540 0.18508 0.41393
 H788 H 0.52471 0.21519 0.47745
 H789 H 0.46794 0.20581 0.35968
 H790 H 0.46950 0.17662 0.29343
 H791 H 0.48664 0.08515 0.29652
 H792 H 0.48528 0.05341 0.23677
 H793 H 0.50491 0.09157 0.05076
 H794 H 0.50556 0.12312 0.11009
 C795 C 0.67957 0.49930 0.34906
 C796 C 0.67546 0.48392 0.40140
 C797 C 0.69321 0.48450 0.43717
 C798 C 0.71535 0.50103 0.42308
 C799 C 0.71944 0.51616 0.36987
 C800 C 0.70171 0.51518 0.33280
 C801 C 0.66082 0.49910 0.31258
 N802 N 0.66293 0.50540 0.24640
 N803 N 0.64610 0.50555 0.21385
 C804 C 0.62662 0.49969 0.24650
 N805 N 0.62454 0.49347 0.31274
 N806 N 0.64127 0.49305 0.34504
 C807 C 0.60817 0.50036 0.21091
 C808 C 0.59381 0.50568 0.24647
 C809 C 0.57668 0.50687 0.21242
 C810 C 0.57325 0.50215 0.14269
 C811 C 0.58736 0.49645 0.10734
 C812 C 0.60488 0.49587 0.14099
 H813 H 0.65853 0.47134 0.41427
 H814 H 0.68964 0.47226 0.47672
 H815 H 0.73634 0.52903 0.35787
 H816 H 0.70529 0.52725 0.29272
 H817 H 0.59609 0.50930 0.30035
 H818 H 0.56590 0.51116 0.24075
 H819 H 0.58506 0.49281 0.05345
 H820 H 0.61568 0.49164 0.11257
 C821 C 0.82113 0.32060 0.34991
 C822 C 0.81448 0.29842 0.33265
 C823 C 0.79763 0.28072 0.36938
 C824 C 0.78686 0.28486 0.42326
 C825 C 0.79282 0.30705 0.43832
 C826 C 0.81009 0.32476 0.40286
 C827 C 0.83979 0.33930 0.31373
 N828 N 0.85339 0.35876 0.34650
 N829 N 0.87058 0.37547 0.31440
 C830 C 0.87469 0.37346 0.24808
 N831 N 0.86099 0.35407 0.21516
 N832 N 0.84395 0.33726 0.24748
 C833 C 0.89376 0.39194 0.21252
 C834 C 0.89254 0.39518 0.14258
 C835 C 0.91053 0.41277 0.10895
 C836 C 0.93026 0.42704 0.14431
 C837 C 0.93160 0.42365 0.21406
 C838 C 0.91337 0.40643 0.24810
 H839 H 0.82277 0.29479 0.29206
 H840 H 0.79330 0.26378 0.35661
 H841 H 0.78437 0.31067 0.47843
 H842 H 0.81472 0.34172 0.41650
 H843 H 0.87757 0.38429 0.11410
 H844 H 0.90915 0.41501 0.05503
 H845 H 0.94661 0.43453 0.24240
 H846 H 0.91473 0.40420 0.30202
   
