data_POSCAR
  _audit_creation_date              2014-09-24
  _audit_creation_method            'ToBaCCo'
  _symmetry_space_group_name_H-M    'P1'
  _symmetry_Int_Tables_number       1
  _symmetry_cell_setting            triclinic
  loop_
  _symmetry_equiv_pos_as_xyz
 x,y,z
_cell_length_a 46.0074
_cell_length_b 45.1498
_cell_length_c 46.2374
_cell_angle_alpha 90.310200
_cell_angle_beta 90.065600
_cell_angle_gamma 90.000500
loop_
  _atom_site_label
  _atom_site_type_symbol
  _atom_site_fract_x
  _atom_site_fract_y
  _atom_site_fract_z
C1 C 0.60390 0.64520 0.62494
 C2 C 0.60397 0.62323 0.64632
 C3 C 0.62616 0.60165 0.64752
 C4 C 0.64824 0.60257 0.62636
 C5 C 0.64817 0.62416 0.60462
 C6 C 0.62601 0.64545 0.60413
 H7 H 0.58706 0.62380 0.66257
 H8 H 0.66519 0.58596 0.62598
 H9 H 0.62599 0.66227 0.58749
 C10 C 0.89690 0.35255 0.12502
 C11 C 0.89555 0.37431 0.14704
 C12 C 0.87387 0.39621 0.14702
 C13 C 0.85295 0.39626 0.12498
 C14 C 0.85363 0.37483 0.10296
 C15 C 0.87562 0.35328 0.10299
 H16 H 0.91189 0.37508 0.16389
 H17 H 0.83611 0.41305 0.12495
 H18 H 0.87536 0.33654 0.08615
 C19 C 0.39606 0.14680 -0.12406
 C20 C 0.39587 0.12493 -0.14576
 C21 C 0.37437 0.10286 -0.14622
 C22 C 0.35292 0.10279 -0.12465
 C23 C 0.35279 0.12451 -0.10280
 C24 C 0.37443 0.14644 -0.10266
 H25 H 0.41249 0.12509 -0.16235
 H26 H 0.33626 0.08583 -0.12488
 H27 H 0.37443 0.16328 -0.08587
 C28 C 0.10313 0.85307 0.37470
 C29 C 0.12468 0.85375 0.39648
 C30 C 0.14676 0.87521 0.39644
 C31 C 0.14726 0.89659 0.37459
 C32 C 0.12608 0.89659 0.35279
 C33 C 0.10432 0.87478 0.35285
 H34 H 0.12506 0.83705 0.41318
 H35 H 0.16417 0.91330 0.37457
 H36 H 0.08779 0.87559 0.33620
 N37 N 0.09083 0.17118 0.11213
 N38 N 0.08076 0.16043 0.13651
 C39 C 0.05764 0.17661 0.14496
 C40 C 0.05283 0.19843 0.12461
 C41 C 0.07427 0.19427 0.10404
 H42 H 0.04489 0.17256 0.16416
 H43 H 0.07784 0.20738 0.08487
 Cu44 Cu 0.09836 0.12570 0.15403
 Cu45 Cu 0.12518 0.15506 0.09313
 Cu46 Cu 0.15752 0.09386 0.12493
 N47 N 0.11635 0.09120 0.17160
 N48 N 0.13967 0.07903 0.16023
 C49 C 0.14763 0.05565 0.17634
 C50 C 0.12815 0.05285 0.19897
 C51 C 0.10857 0.07582 0.19523
 H52 H 0.16590 0.04138 0.17158
 H53 H 0.09014 0.08101 0.20882
 N54 N 0.17226 0.11218 0.08920
 N55 N 0.16012 0.13563 0.07729
 C56 C 0.17552 0.14328 0.05373
 C57 C 0.19836 0.12361 0.05053
 C58 C 0.19556 0.10415 0.07337
 H59 H 0.17040 0.16168 0.03978
 H60 H 0.20981 0.08585 0.07839
 H61 H 0.12023 0.11221 0.10780
 H62 H 0.14393 0.13723 0.12977
 N63 N 0.40912 0.82739 0.61111
 N64 N 0.41993 0.83898 0.63493
 C65 C 0.44339 0.82320 0.64300
 C66 C 0.44758 0.80055 0.62312
 C67 C 0.42540 0.80397 0.60314
 H68 H 0.45665 0.82802 0.66175
 H69 H 0.42114 0.79019 0.58442
 Cu70 Cu 0.40241 0.87366 0.65296
 Cu71 Cu 0.37454 0.84326 0.59244
 Cu72 Cu 0.34333 0.90556 0.62374
 N73 N 0.38511 0.90907 0.66984
 N74 N 0.36177 0.92117 0.65854
 C75 C 0.35404 0.94485 0.67457
 C76 C 0.37370 0.94791 0.69709
 C77 C 0.39316 0.92481 0.69334
 H78 H 0.33568 0.95901 0.66995
 H79 H 0.41154 0.91963 0.70699
 N80 N 0.32786 0.88651 0.58850
 N81 N 0.33950 0.86258 0.57680
 C82 C 0.32378 0.85468 0.55341
 C83 C 0.30125 0.87469 0.55010
 C84 C 0.30457 0.89459 0.57273
 H85 H 0.32856 0.83596 0.53955
 H86 H 0.29074 0.91331 0.57759
 H87 H 0.38039 0.88633 0.60669
 H88 H 0.35647 0.86214 0.62904
 N89 N 0.90805 0.67297 0.38785
 N90 N 0.91726 0.66285 0.36278
 C91 C 0.94033 0.67897 0.35431
 C92 C 0.94599 0.70016 0.37529
 C93 C 0.92510 0.69565 0.39631
 H94 H 0.95247 0.67528 0.33461
 H95 H 0.92223 0.70826 0.41605
 Cu96 Cu 0.89902 0.62900 0.34390
 Cu97 Cu 0.87413 0.65664 0.40710
 Cu98 Cu 0.84184 0.59531 0.37534
 N99 N 0.88168 0.59327 0.32769
 N100 N 0.85915 0.58045 0.33977
 C101 C 0.85165 0.55644 0.32407
 C102 C 0.87065 0.55389 0.30100
 C103 C 0.88945 0.57766 0.30404
 H104 H 0.83405 0.54157 0.32939
 H105 H 0.90735 0.58324 0.28996
 N106 N 0.82744 0.61356 0.41135
 N107 N 0.83957 0.63712 0.42330
 C108 C 0.82445 0.64469 0.44714
 C109 C 0.80181 0.62484 0.45050
 C110 C 0.80443 0.60537 0.42743
 H111 H 0.82964 0.66316 0.46119
 H112 H 0.79026 0.58695 0.42243
 H113 H 0.87982 0.61424 0.39078
 H114 H 0.85436 0.63903 0.37069
 N115 N 0.59033 0.32954 -0.11093
 N116 N 0.57895 0.34158 -0.13414
 C117 C 0.55510 0.32615 -0.14190
 C118 C 0.55124 0.30330 -0.12241
 C119 C 0.57403 0.30621 -0.10301
 H120 H 0.54144 0.33124 -0.16024
 H121 H 0.57875 0.29206 -0.08482
 Cu122 Cu 0.59662 0.37605 -0.15204
 Cu123 Cu 0.62586 0.34449 -0.09314
 Cu124 Cu 0.65824 0.40539 -0.12526
 N125 N 0.61470 0.41051 -0.16956
 N126 N 0.63930 0.42127 -0.15954
 C127 C 0.64758 0.44422 -0.17606
 C128 C 0.62691 0.44826 -0.19743
 C129 C 0.60631 0.42652 -0.19261
 H130 H 0.66693 0.45734 -0.17251
 H131 H 0.58695 0.42243 -0.20528
 N132 N 0.67399 0.38620 -0.09041
 N133 N 0.66185 0.36284 -0.07838
 C134 C 0.67766 0.35490 -0.05515
 C135 C 0.70076 0.37432 -0.05227
 C136 C 0.69771 0.39389 -0.07499
 H137 H 0.67247 0.33668 -0.04100
 H138 H 0.71187 0.41224 -0.08002
 H139 H 0.62125 0.38781 -0.10671
 H140 H 0.64307 0.36259 -0.13032
 C141 C -0.03702 0.28713 0.12489
 C142 C -0.04822 0.29727 0.09853
 C143 C -0.07029 0.31868 0.09867
 C144 C -0.08097 0.33063 0.12499
 C145 C -0.06899 0.32015 0.15126
 C146 C -0.04734 0.29829 0.15130
 C147 C -0.01401 0.26437 0.12483
 C148 C -0.00329 0.25369 0.15124
 C149 C 0.01839 0.23185 0.15105
 C150 C 0.02972 0.22118 0.12471
 C151 C 0.01892 0.23234 0.09843
 C152 C -0.00317 0.25374 0.09836
 C153 C -0.03595 0.28719 0.17731
 C154 C -0.01439 0.26517 0.17728
 C155 C -0.03696 0.28595 0.07247
 C156 C -0.01473 0.26466 0.07238
 H157 H -0.04381 0.29553 0.19787
 H158 H -0.00627 0.25717 0.19780
 H159 H -0.04534 0.29369 0.05194
 H160 H -0.00660 0.25659 0.05182
 H161 H -0.07807 0.32690 0.07811
 H162 H -0.07731 0.32790 0.17185
 H163 H 0.02681 0.22357 0.17136
 H164 H 0.02732 0.22401 0.07806
 C165 C 0.53726 0.71148 0.62406
 C166 C 0.54470 0.69690 0.59820
 C167 C 0.56662 0.67531 0.59856
 C168 C 0.58084 0.66813 0.62459
 C169 C 0.57304 0.68293 0.65033
 C170 C 0.55132 0.70471 0.65017
 C171 C 0.51430 0.73428 0.62379
 C172 C 0.50707 0.74905 0.64959
 C173 C 0.48530 0.77078 0.64922
 C174 C 0.47064 0.77763 0.62332
 C175 C 0.47813 0.76248 0.59766
 C176 C 0.50003 0.74086 0.59776
 C177 C 0.54342 0.71990 0.67557
 C178 C 0.52170 0.74173 0.67528
 C179 C 0.53000 0.70417 0.57254
 C180 C 0.50801 0.72574 0.57233
 H181 H 0.55414 0.71489 0.69584
 H182 H 0.51629 0.75294 0.69533
 H183 H 0.53551 0.69306 0.55245
 H184 H 0.49720 0.73064 0.55209
 H185 H 0.57236 0.66379 0.57874
 H186 H 0.58417 0.67776 0.67036
 H187 H 0.47956 0.78201 0.66916
 H188 H 0.46724 0.76773 0.57755
 C189 C 1.03660 0.78808 0.37497
 C190 C 1.04661 0.79925 0.34856
 C191 C 1.06845 0.82091 0.34857
 C192 C 1.08089 0.83124 0.37479
 C193 C 1.07053 0.81929 0.40111
 C194 C 1.04830 0.79803 0.40129
 C195 C 1.01339 0.76554 0.37506
 C196 C 1.00290 0.75486 0.40154
 C197 C 0.98063 0.73364 0.40150
 C198 C 0.96927 0.72274 0.37523
 C199 C 0.98024 0.73349 0.34887
 C200 C 1.00213 0.75511 0.34867
 C201 C 1.03737 0.78668 0.42736
 C202 C 1.01497 0.76556 0.42749
 C203 C 1.03470 0.78838 0.32258
 C204 C 1.01292 0.76660 0.32263
 H205 H 1.04613 0.79426 0.44787
 H206 H 1.00711 0.75747 0.44806
 H207 H 1.04231 0.79674 0.30201
 H208 H 1.00439 0.75878 0.30212
 H209 H 1.07652 0.82862 0.32794
 H210 H 1.07866 0.82738 0.42166
 H211 H 0.97251 0.72527 0.42187
 H212 H 0.97141 0.72545 0.32856
 C213 C 0.46196 0.21384 -0.12325
 C214 C 0.44760 0.20699 -0.14926
 C215 C 0.42611 0.18497 -0.14942
 C216 C 0.41882 0.17003 -0.12376
 C217 C 0.43333 0.17729 -0.09784
 C218 C 0.45503 0.19911 -0.09749
 C219 C 0.48472 0.23685 -0.12300
 C220 C 0.49934 0.24343 -0.09708
 C221 C 0.52112 0.26517 -0.09702
 C222 C 0.52814 0.28044 -0.12258
 C223 C 0.51309 0.27365 -0.14834
 C224 C 0.49146 0.25176 -0.14870
 C225 C 0.47003 0.20642 -0.07194
 C226 C 0.49185 0.22816 -0.07176
 C227 C 0.45499 0.22235 -0.17455
 C228 C 0.47651 0.24440 -0.17427
 H229 H 0.46492 0.19519 -0.05194
 H230 H 0.50294 0.23307 -0.05161
 H231 H 0.44404 0.21730 -0.19474
 H232 H 0.48154 0.25572 -0.19425
 H233 H 0.41479 0.17968 -0.16936
 H234 H 0.42801 0.16565 -0.07810
 H235 H 0.53232 0.27040 -0.07701
 H236 H 0.51849 0.28498 -0.16820
 C237 C 0.12707 -0.03665 0.28731
 C238 C 0.10094 -0.04318 0.30158
 C239 C 0.10073 -0.06515 0.32290
 C240 C 0.12645 -0.08035 0.33010
 C241 C 0.15250 -0.07341 0.31567
 C242 C 0.15291 -0.05165 0.29414
 C243 C 0.12739 -0.01367 0.26476
 C244 C 0.15343 -0.00736 0.25025
 C245 C 0.15356 0.01439 0.22869
 C246 C 0.12794 0.02994 0.22180
 C247 C 0.10205 0.02340 0.23673
 C248 C 0.10163 0.00153 0.25813
 C249 C 0.17858 -0.04463 0.27924
 C250 C 0.17883 -0.02290 0.25763
 C251 C 0.07558 -0.02757 0.29429
 C252 C 0.07593 -0.00555 0.27297
 H253 H 0.19864 -0.05607 0.28429
 H254 H 0.19907 -0.01821 0.24662
 H255 H 0.05530 -0.03238 0.30518
 H256 H 0.05590 0.00599 0.26803
 H257 H 0.08069 -0.07016 0.33418
 H258 H 0.17230 -0.08523 0.32097
 H259 H 0.17367 0.01941 0.21759
 H260 H 0.08213 0.03495 0.23143
 C261 C 0.62649 0.53640 -0.28689
 C262 C 0.65296 0.54664 -0.29803
 C263 C 0.65275 0.56796 -0.31998
 C264 C 0.62627 0.57970 -0.33058
 C265 C 0.59990 0.56907 -0.31872
 C266 C 0.59992 0.54732 -0.29718
 C267 C 0.62661 0.51379 -0.26397
 C268 C 0.60009 0.50303 -0.25331
 C269 C 0.60032 0.48135 -0.23170
 C270 C 0.62682 0.47090 -0.22041
 C271 C 0.65321 0.48214 -0.23115
 C272 C 0.65323 0.50339 -0.25316
 C273 C 0.57381 0.53614 -0.28585
 C274 C 0.57390 0.51427 -0.26438
 C275 C 0.67918 0.53555 -0.28680
 C276 C 0.67931 0.51439 -0.26466
 H277 H 0.55313 0.54430 -0.29370
 H278 H 0.55329 0.50620 -0.25630
 H279 H 0.69978 0.54337 -0.29514
 H280 H 0.70000 0.50651 -0.25656
 H281 H 0.67339 0.57628 -0.32771
 H282 H 0.57918 0.57663 -0.32700
 H283 H 0.57992 0.47303 -0.22333
 H284 H 0.67369 0.47397 -0.22276
 C285 C 0.37408 1.03674 0.78699
 C286 C 0.40018 1.04350 0.80135
 C287 C 0.40018 1.06524 0.82313
 C288 C 0.37426 1.07995 0.83071
 C289 C 0.34826 1.07278 0.81618
 C290 C 0.34807 1.05127 0.79418
 C291 C 0.37399 1.01401 0.76395
 C292 C 0.34797 1.00750 0.74936
 C293 C 0.34803 0.98596 0.72739
 C294 C 0.37381 0.97079 0.72017
 C295 C 0.39968 0.97754 0.73516
 C296 C 0.39992 0.99924 0.75697
 C297 C 0.32244 1.04407 0.77918
 C298 C 0.32240 1.02259 0.75710
 C299 C 0.42573 1.02833 0.79368
 C300 C 0.42559 1.00653 0.77191
 H301 H 0.30224 1.05515 0.78450
 H302 H 0.30217 1.01773 0.74603
 H303 H 0.44599 1.03331 0.80463
 H304 H 0.44575 0.99532 0.76670
 H305 H 0.42019 1.07046 0.83445
 H306 H 0.32832 1.08426 0.82172
 H307 H 0.32793 0.98075 0.71625
 H308 H 0.41971 0.96626 0.72961
 C309 C 0.87245 0.46334 0.21280
 C310 C 0.84675 0.44802 0.20601
 C311 C 0.84729 0.42613 0.18437
 C312 C 0.87337 0.41935 0.16985
 C313 C 0.89897 0.43482 0.17705
 C314 C 0.89861 0.45696 0.19842
 C315 C 0.87198 0.48652 0.23539
 C316 C 0.89758 0.50211 0.24190
 C317 C 0.89698 0.52426 0.26327
 C318 C 0.87108 0.53062 0.27831
 C319 C 0.84563 0.51462 0.27160
 C320 C 0.84592 0.49266 0.25002
 C321 C 0.92382 0.47294 0.20564
 C322 C 0.92330 0.49518 0.22696
 C323 C 0.82106 0.45487 0.22103
 C324 C 0.82067 0.47676 0.24272
 H325 H 0.94412 0.46825 0.19467
 H326 H 0.94322 0.50702 0.23182
 H327 H 0.80110 0.44318 0.21602
 H328 H 0.80042 0.48131 0.25382
 H329 H 0.82759 0.41410 0.17904
 H330 H 0.91902 0.42990 0.16570
 H331 H 0.91676 0.53617 0.26847
 H332 H 0.82553 0.51953 0.28282
 C333 C 0.28689 0.12407 -0.03745
 C334 C 0.30140 0.09761 -0.04441
 C335 C 0.32286 0.09784 -0.06593
 C336 C 0.33001 0.12435 -0.08019
 C337 C 0.31534 0.15070 -0.07283
 C338 C 0.29364 0.15066 -0.05156
 C339 C 0.26420 0.12392 -0.01495
 C340 C 0.24945 0.15030 -0.00824
 C341 C 0.22780 0.15002 0.01308
 C342 C 0.22109 0.12368 0.02786
 C343 C 0.23622 0.09746 0.02093
 C344 C 0.25770 0.09743 -0.00057
 C345 C 0.27850 0.17663 -0.04417
 C346 C 0.25673 0.17644 -0.02292
 C347 C 0.29421 0.07150 -0.02965
 C348 C 0.27277 0.07142 -0.00805
 H349 H 0.28347 0.19727 -0.05493
 H350 H 0.24553 0.19694 -0.01790
 H351 H 0.30527 0.05096 -0.03479
 H352 H 0.26793 0.05082 0.00284
 H353 H 0.33430 0.07756 -0.07132
 H354 H 0.32056 0.17109 -0.08396
 H355 H 0.21656 0.17039 0.01844
 H356 H 0.23104 0.07702 0.03194
 C357 C 0.71412 0.62437 0.53931
 C358 C 0.70719 0.65089 0.55376
 C359 C 0.68553 0.65072 0.57508
 C360 C 0.67109 0.62423 0.58214
 C361 C 0.67844 0.59781 0.56757
 C362 C 0.69985 0.59778 0.54601
 C363 C 0.73669 0.62446 0.51668
 C364 C 0.74330 0.59805 0.50194
 C365 C 0.76459 0.59831 0.48026
 C366 C 0.77941 0.62468 0.47348
 C367 C 0.77262 0.65093 0.48866
 C368 C 0.75115 0.65098 0.51017
 C369 C 0.70719 0.57176 0.53091
 C370 C 0.72851 0.57190 0.50920
 C371 C 0.72209 0.67700 0.54658
 C372 C 0.74374 0.67703 0.52521
 H373 H 0.69632 0.55111 0.53586
 H374 H 0.73345 0.55136 0.49802
 H375 H 0.71698 0.69759 0.55760
 H376 H 0.75472 0.69764 0.52036
 H377 H 0.68011 0.67106 0.58642
 H378 H 0.66715 0.57743 0.57271
 H379 H 0.76984 0.57793 0.46896
 H380 H 0.78365 0.67141 0.48344
 C381 C 0.78864 0.37460 0.03656
 C382 C 0.80294 0.40117 0.04360
 C383 C 0.82410 0.40116 0.06546
 C384 C 0.83116 0.37478 0.07998
 C385 C 0.81670 0.34831 0.07255
 C386 C 0.79530 0.34813 0.05093
 C387 C 0.76623 0.37451 0.01372
 C388 C 0.75164 0.34804 0.00697
 C389 C 0.73019 0.34813 -0.01460
 C390 C 0.72350 0.37437 -0.02957
 C391 C 0.73852 0.40067 -0.02263
 C392 C 0.75980 0.40090 -0.00088
 C393 C 0.78035 0.32205 0.04346
 C394 C 0.75884 0.32202 0.02190
 C395 C 0.79583 0.42715 0.02858
 C396 C 0.77468 0.42701 0.00667
 H397 H 0.78526 0.30150 0.05442
 H398 H 0.74777 0.30145 0.01685
 H399 H 0.80675 0.44778 0.03378
 H400 H 0.76988 0.44753 -0.00440
 H401 H 0.83537 0.42152 0.07095
 H402 H 0.82184 0.32802 0.08388
 H403 H 0.71901 0.32770 -0.01995
 H404 H 0.73335 0.42105 -0.03377
 C405 C 0.21265 0.87500 0.46197
 C406 C 0.19851 0.90163 0.45513
 C407 C 0.17704 0.90161 0.43358
 C408 C 0.16951 0.87514 0.41915
 C409 C 0.18382 0.84861 0.42638
 C410 C 0.20552 0.84844 0.44770
 C411 C 0.23536 0.87493 0.48451
 C412 C 0.24973 0.84838 0.49112
 C413 C 0.27140 0.84845 0.51248
 C414 C 0.27851 0.87478 0.52739
 C415 C 0.26377 0.90119 0.52053
 C416 C 0.24226 0.90141 0.49901
 C417 C 0.22030 0.82229 0.45498
 C418 C 0.24207 0.82226 0.47629
 C419 C 0.20611 0.92772 0.47002
 C420 C 0.22757 0.92760 0.49164
 H421 H 0.21502 0.80166 0.44410
 H422 H 0.25297 0.80162 0.48122
 H423 H 0.19533 0.94840 0.46497
 H424 H 0.23273 0.94819 0.50264
 H425 H 0.16589 0.92203 0.42827
 H426 H 0.17834 0.82825 0.41510
 H427 H 0.28236 0.82795 0.51776
 H428 H 0.26926 0.92164 0.53161
   
