data_POSCAR
  _audit_creation_date              2014-09-24
  _audit_creation_method            'ToBaCCo'
  _symmetry_space_group_name_H-M    'P1'
  _symmetry_Int_Tables_number       1
  _symmetry_cell_setting            triclinic
  loop_
  _symmetry_equiv_pos_as_xyz
 x,y,z
_cell_length_a 46.8504
_cell_length_b 49.6057
_cell_length_c 45.4970
_cell_angle_alpha 91.335400
_cell_angle_beta 89.078000
_cell_angle_gamma 91.051400
loop_
  _atom_site_label
  _atom_site_type_symbol
  _atom_site_fract_x
  _atom_site_fract_y
  _atom_site_fract_z
C1 C 0.19556 0.20605 0.23054
 C2 C 0.22383 0.19851 0.22343
 C3 C 0.24048 0.21185 0.20189
 C4 C 0.22816 0.23357 0.18754
 C5 C 0.20010 0.24148 0.19393
 C6 C 0.18402 0.22771 0.21536
 H7 H 0.23188 0.18034 0.23262
 H8 H 0.24062 0.24523 0.17198
 H9 H 0.16261 0.23438 0.22035
 C10 C -0.19142 0.79872 0.21298
 C11 C -0.21308 0.81173 0.19770
 C12 C -0.22352 0.80132 0.17096
 C13 C -0.21231 0.77740 0.15913
 C14 C -0.19071 0.76391 0.17355
 C15 C -0.18042 0.77461 0.20038
 H16 H -0.22079 0.83111 0.20538
 H17 H -0.22078 0.76902 0.13880
 H18 H -0.16416 0.76369 0.21147
 C19 C -0.22796 0.20674 -0.25826
 C20 C -0.25576 0.19859 -0.24921
 C21 C -0.27104 0.21251 -0.22674
 C22 C -0.25799 0.23557 -0.21377
 C23 C -0.23033 0.24401 -0.22190
 C24 C -0.21559 0.22970 -0.24419
 H25 H -0.26430 0.17961 -0.25753
 H26 H -0.26950 0.24774 -0.19768
 H27 H -0.19452 0.23688 -0.25057
 C28 C 0.18496 0.80254 -0.20740
 C29 C 0.17713 0.77600 -0.20041
 C30 C 0.19100 0.76264 -0.17801
 C31 C 0.21315 0.77602 -0.16279
 C32 C 0.22154 0.80274 -0.16924
 C33 C 0.20714 0.81562 -0.19192
 H34 H 0.15952 0.76609 -0.21171
 H35 H 0.22457 0.76486 -0.14673
 H36 H 0.21228 0.83631 -0.19713
 C37 C 0.21801 1.20504 0.75495
 C38 C 0.24513 1.19576 0.76205
 C39 C 0.25818 1.20404 0.78850
 C40 C 0.24389 1.22214 0.80767
 C41 C 0.21679 1.23153 0.80081
 C42 C 0.20430 1.22322 0.77426
 H43 H 0.25572 1.18150 0.74737
 H44 H 0.25317 1.22789 0.82861
 H45 H 0.18362 1.23090 0.76865
 C46 C 0.81451 0.80173 0.77979
 C47 C 0.79203 0.81517 0.79465
 C48 C 0.77980 0.80507 0.82061
 C49 C 0.78995 0.78108 0.83191
 C50 C 0.81238 0.76698 0.81788
 C51 C 0.82426 0.77761 0.79178
 H52 H 0.78347 0.83339 0.78599
 H53 H 0.77929 0.77297 0.85112
 H54 H 0.84315 0.76849 0.78236
 C55 C 0.19970 0.78883 1.22717
 C56 C 0.18904 0.76418 1.21539
 C57 C 0.19818 0.75410 1.18785
 C58 C 0.21926 0.76830 1.17205
 C59 C 0.23084 0.79263 1.18338
 C60 C 0.22104 0.80267 1.21084
 H61 H 0.17409 0.75199 1.22793
 H62 H 0.22638 0.76059 1.15075
 H63 H 0.22887 0.82226 1.21827
 C64 C 0.80082 1.20606 1.26392
 C65 C 0.77465 1.19546 1.25345
 C66 C 0.75997 1.20808 1.23106
 C67 C 0.77141 1.23182 1.21904
 C68 C 0.79758 1.24305 1.22873
 C69 C 0.81144 1.23023 1.25174
 H70 H 0.76643 1.17627 1.26098
 H71 H 0.76031 1.24062 1.20107
 H72 H 0.82985 1.24006 1.26151
 O73 O 0.52526 0.97410 0.96539
 O74 O 0.47485 0.97657 1.04497
 O75 O 0.56147 1.00168 1.02456
 O76 O 0.44189 1.00284 0.97933
 O77 O 0.52933 0.97912 1.05033
 O78 O 0.47427 0.97393 0.97126
 O79 O 0.44205 1.00398 1.03226
 O80 O 0.55800 1.00380 0.97068
 C81 C 0.55105 0.97981 0.96549
 C82 C 0.44915 0.98106 1.04081
 C83 C 0.55452 0.98241 1.04110
 C84 C 0.44855 0.97896 0.97368
 O85 O 0.47236 1.02276 0.94502
 O86 O 0.52584 1.03021 1.06515
 O87 O 0.53787 1.05345 0.97507
 O88 O 0.46521 1.05477 1.03142
 O89 O 0.47291 1.02736 1.06562
 O90 O 0.52368 1.02448 0.94178
 O91 O 0.46769 1.05267 0.97886
 O92 O 0.54783 1.05270 1.03027
 Co93 Co 0.49904 1.00014 0.95985
 Co94 Co 0.50047 1.00422 1.05145
 Co95 Co 0.54639 1.02678 1.00032
 Co96 Co 0.45803 1.02739 1.00528
 O97 O 0.50121 1.01454 1.00455
 C98 C 0.46721 1.04666 0.95235
 C99 C 0.54182 1.04949 1.05690
 C100 C 0.53224 1.04800 0.94887
 C101 C 0.46621 1.05045 1.05801
 O102 O 0.02769 0.46963 0.03576
 O103 O 0.02457 0.50951 -0.06950
 O104 O -0.00017 0.42981 -0.03731
 O105 O 0.03775 0.51698 0.02038
 O106 O 0.02339 0.45894 -0.06451
 O107 O 0.00822 0.51408 0.05455
 O108 O 0.04558 0.51845 -0.02941
 O109 O 0.01056 0.43394 0.01504
 C110 C 0.02969 0.44515 0.03007
 C111 C 0.04585 0.51869 -0.05646
 C112 C 0.01997 0.43544 -0.05527
 C113 C 0.03160 0.52318 0.04613
 O114 O -0.04002 0.50396 0.03202
 O115 O -0.03189 0.45955 -0.06663
 O116 O -0.04245 0.45436 0.02608
 O117 O -0.00678 0.54071 -0.03800
 O118 O -0.03023 0.51058 -0.06471
 O119 O -0.01925 0.46875 0.06430
 O120 O -0.01644 0.53848 0.01464
 O121 O -0.05228 0.45157 -0.02523
 Co122 Co -0.00640 0.48594 0.03205
 Co123 Co -0.00345 0.48473 -0.06116
 Co124 Co -0.01946 0.44614 -0.00586
 Co125 Co 0.01360 0.52552 -0.00823
 O126 O -0.00298 0.48650 -0.01266
 C127 C -0.03872 0.52872 0.02689
 C128 C -0.05311 0.45111 -0.05244
 C129 C -0.03788 0.45191 0.05331
 C130 C -0.02639 0.53455 -0.05600
 O131 O 1.05991 0.02093 0.47555
 O132 O 0.94345 0.00095 0.53153
 O133 O 0.98356 0.00865 0.44569
 O134 O 1.02377 0.03861 0.54108
 O135 O 0.96211 0.02194 0.48504
 O136 O 1.06323 0.01992 0.53055
 O137 O 0.97559 0.02974 0.53768
 O138 O 1.03469 -0.00041 0.44188
 C139 C 1.05188 0.01845 0.44945
 C140 C 0.95049 0.02296 0.54279
 C141 C 0.96814 0.02555 0.45880
 C142 C 1.05007 0.04008 0.53944
 O143 O 1.06030 -0.03192 0.52920
 O144 O 0.93563 -0.02309 0.48005
 O145 O 1.02355 -0.05078 0.46261
 O146 O 0.98246 -0.02243 0.55789
 O147 O 0.96700 -0.04340 0.51843
 O148 O 1.06318 -0.03129 0.47362
 O149 O 1.03333 -0.01169 0.56252
 O150 O 0.97399 -0.04272 0.46488
 Co151 Co 1.05665 -0.00564 0.50221
 Co152 Co 0.96629 -0.01087 0.50072
 Co153 Co 1.00431 -0.01994 0.45785
 Co154 Co 1.00402 0.00732 0.54625
 O155 O 1.00960 -0.00628 0.50287
 C156 C 1.05138 -0.02953 0.55529
 C157 C 0.94763 -0.03923 0.46097
 C158 C 1.04993 -0.05130 0.46334
 C159 C 0.97146 -0.04329 0.54557
 C160 C 1.13323 0.17339 0.26980
 C161 C 1.14711 0.15939 0.29155
 C162 C 1.17670 0.16185 0.29399
 C163 C 1.19252 0.17764 0.27439
 C164 C 1.17911 0.19139 0.25161
 C165 C 1.14897 0.18934 0.25011
 C166 C 1.13138 0.14187 0.31102
 C167 C 1.11920 0.12671 0.32758
 C168 C 1.10603 0.10860 0.34732
 C169 C 1.09563 0.09300 0.36458
 C170 C 1.08419 0.07440 0.38577
 C171 C 1.09382 0.07581 0.41471
 C172 C 1.08337 0.05755 0.43536
 C173 C 1.06314 0.03750 0.42732
 C174 C 1.05349 0.03625 0.39817
 C175 C 1.06398 0.05460 0.37752
 H176 H 1.11027 0.17155 0.26764
 H177 H 1.18766 0.15138 0.31102
 H178 H 1.21528 0.17945 0.27779
 H179 H 1.13738 0.19869 0.23283
 H180 H 1.10949 0.09101 0.42133
 H181 H 1.09119 0.05914 0.45762
 H182 H 1.03780 0.02117 0.39134
 H183 H 1.05641 0.05330 0.35516
 C184 C 0.81354 -0.15951 0.28265
 C185 C 0.84185 -0.16332 0.29039
 C186 C 0.85879 -0.18093 0.27352
 C187 C 0.84770 -0.19413 0.24854
 C188 C 0.81938 -0.18973 0.23964
 C189 C 0.80238 -0.17256 0.25772
 C190 C 0.85378 -0.14817 0.31483
 C191 C 0.86383 -0.13492 0.33482
 C192 C 0.87603 -0.11899 0.35770
 C193 C 0.88715 -0.10530 0.37673
 C194 C 0.90164 -0.08910 0.39880
 C195 C 0.93065 -0.09316 0.40349
 C196 C 0.94538 -0.07706 0.42396
 C197 C 0.93132 -0.05658 0.44010
 C198 C 0.90209 -0.05273 0.43556
 C199 C 0.88732 -0.06892 0.41495
 H200 H 0.80008 -0.14618 0.29574
 H201 H 0.88084 -0.18395 0.27925
 H202 H 0.86213 -0.20644 0.23546
 H203 H 0.78011 -0.16942 0.25319
 H204 H 0.94198 -0.10865 0.39113
 H205 H 0.96787 -0.08059 0.42701
 H206 H 0.89078 -0.03707 0.44764
 H207 H 0.86487 -0.06554 0.41142
 C208 C 0.83250 0.17411 0.69989
 C209 C 0.81771 0.15796 0.67944
 C210 C 0.78797 0.15885 0.67868
 C211 C 0.77298 0.17532 0.69868
 C212 C 0.78743 0.19131 0.72016
 C213 C 0.81764 0.19067 0.71994
 C214 C 0.83302 0.13994 0.65982
 C215 C 0.84609 0.12470 0.64378
 C216 C 0.86191 0.10688 0.62544
 C217 C 0.87611 0.09193 0.61016
 C218 C 0.89417 0.07463 0.59241
 C219 C 0.88405 0.04962 0.58155
 C220 C 0.90221 0.03271 0.56507
 C221 C 0.93068 0.04070 0.55938
 C222 C 0.94052 0.06593 0.57019
 C223 C 0.92240 0.08273 0.58656
 H224 H 0.85558 0.17348 0.70078
 H225 H 0.77628 0.14668 0.66269
 H226 H 0.75003 0.17584 0.69662
 H227 H 0.83008 0.20166 0.73620
 H228 H 0.86224 0.04311 0.58600
 H229 H 0.89412 0.01337 0.55702
 H230 H 0.96235 0.07262 0.56618
 H231 H 0.93049 0.10199 0.59488
 C232 C 1.14801 -0.14201 0.75248
 C233 C 1.14182 -0.15485 0.72557
 C234 C 1.14913 -0.18187 0.72075
 C235 C 1.16285 -0.19589 0.74267
 C236 C 1.16953 -0.18299 0.76963
 C237 C 1.16173 -0.15596 0.77437
 C238 C 1.12860 -0.13999 0.70278
 C239 C 1.11788 -0.12704 0.68390
 C240 C 1.10573 -0.11137 0.66196
 C241 C 1.09568 -0.09765 0.64333
 C242 C 1.08407 -0.08096 0.62112
 C243 C 1.06320 -0.06207 0.62865
 C244 C 1.05250 -0.04535 0.60725
 C245 C 1.06258 -0.04730 0.57798
 C246 C 1.08343 -0.06649 0.57059
 C247 C 1.09410 -0.08316 0.59204
 H248 H 1.14238 -0.12114 0.75649
 H249 H 1.14451 -0.19200 0.69997
 H250 H 1.16877 -0.21662 0.73833
 H251 H 1.16613 -0.14562 0.79507
 H252 H 1.05529 -0.06017 0.65110
 H253 H 1.03641 -0.03086 0.61364
 H254 H 1.09159 -0.06856 0.54826
 H255 H 1.11029 -0.09768 0.58597
 C256 C 0.30595 1.19524 1.15698
 C257 C 0.32130 1.18028 1.17679
 C258 C 0.31092 1.17729 1.20548
 C259 C 0.28482 1.18843 1.21409
 C260 C 0.26828 1.20269 1.19403
 C261 C 0.27984 1.20644 1.16545
 C262 C 0.34637 1.16619 1.16684
 C263 C 0.36642 1.15357 1.15745
 C264 C 0.38865 1.13801 1.14499
 C265 C 0.40641 1.12422 1.13289
 C266 C 0.42589 1.10733 1.11646
 C267 C 0.43278 1.08183 1.12660
 C268 C 0.44760 1.06369 1.10820
 C269 C 0.45533 1.07081 1.07938
 C270 C 0.44971 1.09700 1.07005
 C271 C 0.43507 1.11510 1.08847
 H272 H 0.31368 1.19745 1.13457
 H273 H 0.32275 1.16589 1.22109
 H274 H 0.27799 1.18601 1.23672
 H275 H 0.26810 1.21643 1.14872
 H276 H 0.42558 1.07554 1.14817
 H277 H 0.45162 1.04365 1.11595
 H278 H 0.45555 1.10312 1.04802
 H279 H 0.42974 1.13470 1.08033
 C280 C 0.28085 0.85140 0.85051
 C281 C 0.28619 0.84436 0.87942
 C282 C 0.27058 0.82329 0.89214
 C283 C 0.24953 0.80940 0.87611
 C284 C 0.24350 0.81638 0.84686
 C285 C 0.25981 0.83764 0.83439
 C286 C 0.30739 0.85917 0.89605
 C287 C 0.32509 0.87215 0.90944
 C288 C 0.34579 0.88809 0.92429
 C289 C 0.36348 0.90239 0.93606
 C290 C 0.38459 0.92034 0.94880
 C291 C 0.41342 0.91340 0.94806
 C292 C 0.43428 0.93215 0.95722
 C293 C 0.42650 0.95813 0.96703
 C294 C 0.39740 0.96454 0.96880
 C295 C 0.37659 0.94575 0.95971
 H296 H 0.29303 0.86757 0.84035
 H297 H 0.27439 0.81783 0.91465
 H298 H 0.23721 0.79408 0.88744
 H299 H 0.25727 0.84328 0.81178
 H300 H 0.41985 0.89381 0.93957
 H301 H 0.45652 0.92661 0.95573
 H302 H 0.39075 0.98432 0.97644
 H303 H 0.35434 0.95134 0.96033
 C304 C 0.73672 0.83458 1.10983
 C305 C 0.71413 0.84647 1.12556
 C306 C 0.71139 0.84285 1.15589
 C307 C 0.73137 0.82777 1.17055
 C308 C 0.75442 0.81608 1.15506
 C309 C 0.75674 0.81943 1.12447
 C310 C 0.69413 0.86303 1.11093
 C311 C 0.67720 0.87730 1.09950
 C312 C 0.65708 0.89436 1.08712
 C313 C 0.63956 0.90912 1.07746
 C314 C 0.61814 0.92687 1.06712
 C315 C 0.59003 0.92421 1.07760
 C316 C 0.56931 0.94213 1.06892
 C317 C 0.57645 0.96308 1.04964
 C318 C 0.60472 0.96540 1.03889
 C319 C 0.62543 0.94739 1.04761
 H320 H 0.73909 0.83732 1.08636
 H321 H 0.69395 0.85193 1.16826
 H322 H 0.72884 0.82526 1.19404
 H323 H 0.77444 0.81093 1.11202
 H324 H 0.58418 0.90845 1.09277
 H325 H 0.54777 0.93972 1.07756
 H326 H 0.61088 0.98124 1.02396
 H327 H 0.64716 0.94965 1.03941
 C328 C 0.65916 1.17412 0.77704
 C329 C 0.65114 1.17875 0.80639
 C330 C 0.66771 1.19596 0.82414
 C331 C 0.69276 1.20780 0.81302
 C332 C 0.70203 1.20255 0.78370
 C333 C 0.68421 1.18597 0.76573
 C334 C 0.62765 1.16393 0.81936
 C335 C 0.60935 1.15092 0.83178
 C336 C 0.58975 1.13513 0.84812
 C337 C 0.57476 1.12129 0.86363
 C338 C 0.55926 1.10447 0.88392
 C339 C 0.55758 1.11248 0.91357
 C340 C 0.54742 1.09447 0.93456
 C341 C 0.53887 1.06812 0.92617
 C342 C 0.53894 1.06074 0.89613
 C343 C 0.54928 1.07880 0.87512
 H344 H 0.64638 1.16088 0.76303
 H345 H 0.66187 1.19940 0.84705
 H346 H 0.70561 1.21949 0.82836
 H347 H 0.68925 1.18218 0.74274
 H348 H 0.56539 1.13224 0.92065
 H349 H 0.54734 1.10085 0.95749
 H350 H 0.53232 1.04063 0.88901
 H351 H 0.55066 1.07233 0.85224
 C352 C 0.15842 0.30418 0.17696
 C353 C 0.16285 0.30586 0.14654
 C354 C 0.17970 0.28674 0.13172
 C355 C 0.19194 0.26595 0.14718
 C356 C 0.18746 0.26396 0.17773
 C357 C 0.17064 0.28338 0.19247
 C358 C 0.14931 0.32658 0.13031
 C359 C 0.13746 0.34345 0.11651
 C360 C 0.12278 0.36259 0.10021
 C361 C 0.10937 0.37829 0.08630
 C362 C 0.09205 0.39611 0.06985
 C363 C 0.09030 0.42349 0.07782
 C364 C 0.07099 0.43997 0.06382
 C365 C 0.05306 0.42913 0.04184
 C366 C 0.05583 0.40188 0.03318
 C367 C 0.07518 0.38552 0.04710
 H368 H 0.14537 0.31885 0.18866
 H369 H 0.18312 0.28771 0.10816
 H370 H 0.20446 0.25112 0.13513
 H371 H 0.16709 0.28259 0.21602
 H372 H 0.10320 0.43190 0.09546
 H373 H 0.06924 0.46085 0.07102
 H374 H 0.04237 0.39296 0.01630
 H375 H 0.07631 0.36437 0.04075
 C376 C -0.18713 0.30831 -0.20612
 C377 C -0.19012 0.31075 -0.17549
 C378 C -0.20634 0.29156 -0.16018
 C379 C -0.21945 0.27000 -0.17534
 C380 C -0.21655 0.26728 -0.20611
 C381 C -0.20025 0.28671 -0.22136
 C382 C -0.17587 0.33238 -0.15951
 C383 C -0.16358 0.34999 -0.14573
 C384 C -0.14850 0.37003 -0.12938
 C385 C -0.13479 0.38659 -0.11550
 C386 C -0.11710 0.40559 -0.09930
 C387 C -0.11727 0.40582 -0.06849
 C388 C -0.09746 0.42186 -0.05296
 C389 C -0.07710 0.43769 -0.06814
 C390 C -0.07800 0.43825 -0.09903
 C391 C -0.09783 0.42229 -0.11446
 H392 H -0.17456 0.32302 -0.21820
 H393 H -0.20863 0.29311 -0.13647
 H394 H -0.23147 0.25517 -0.16290
 H395 H -0.19785 0.28531 -0.24505
 H396 H -0.13202 0.39289 -0.05652
 H397 H -0.09723 0.42092 -0.02921
 H398 H -0.06265 0.45026 -0.11135
 H399 H -0.09744 0.42225 -0.13828
 C400 C 0.16613 0.68929 -0.18336
 C401 C 0.16425 0.68270 -0.15363
 C402 C 0.17129 0.70209 -0.13201
 C403 C 0.18006 0.72799 -0.13999
 C404 C 0.18196 0.73491 -0.16979
 C405 C 0.17494 0.71525 -0.19142
 C406 C 0.15392 0.65653 -0.14491
 C407 C 0.14454 0.63522 -0.13651
 C408 C 0.13250 0.61114 -0.12546
 C409 C 0.12111 0.59150 -0.11508
 C410 C 0.10594 0.56939 -0.10162
 C411 C 0.10912 0.56488 -0.07161
 C412 C 0.09076 0.54684 -0.05716
 C413 C 0.06885 0.53320 -0.07260
 C414 C 0.06698 0.53657 -0.10313
 C415 C 0.08536 0.55465 -0.11751
 H416 H 0.16061 0.67445 -0.20027
 H417 H 0.16965 0.69729 -0.10892
 H418 H 0.18485 0.74277 -0.12280
 H419 H 0.17644 0.71990 -0.21454
 H420 H 0.12485 0.57631 -0.05905
 H421 H 0.09272 0.54471 -0.03365
 H422 H 0.05033 0.52638 -0.11561
 H423 H 0.08259 0.55810 -0.14071
 C424 C -0.16298 0.71310 0.11683
 C425 C -0.15785 0.69081 0.13414
 C426 C -0.16304 0.69247 0.16453
 C427 C -0.17349 0.71629 0.17751
 C428 C -0.17890 0.73874 0.16020
 C429 C -0.17340 0.73687 0.12972
 C430 C -0.14672 0.66657 0.12053
 C431 C -0.13689 0.64683 0.10842
 C432 C -0.12449 0.62449 0.09356
 C433 C -0.11285 0.60621 0.08048
 C434 C -0.09733 0.58555 0.06457
 C435 C -0.09849 0.55869 0.07349
 C436 C -0.08061 0.53954 0.06000
 C437 C -0.06120 0.54720 0.03766
 C438 C -0.06120 0.57392 0.02798
 C439 C -0.07914 0.59291 0.04132
 H440 H -0.15883 0.71215 0.09333
 H441 H -0.15908 0.67537 0.17817
 H442 H -0.17778 0.71701 0.20096
 H443 H -0.17693 0.75390 0.11585
 H444 H -0.11244 0.55276 0.09153
 H445 H -0.08094 0.51915 0.06803
 H446 H -0.04656 0.58041 0.01078
 H447 H -0.07803 0.61360 0.03420
 C448 C 1.20293 0.18058 0.67680
 C449 C 1.17379 0.17397 0.67906
 C450 C 1.15925 0.17769 0.70586
 C451 C 1.17369 0.18786 0.73038
 C452 C 1.20296 0.19457 0.72848
 C453 C 1.21748 0.19084 0.70141
 C454 C 1.15878 0.16193 0.65463
 C455 C 1.14529 0.15085 0.63540
 C456 C 1.12883 0.13654 0.61437
 C457 C 1.11460 0.12300 0.59767
 C458 C 1.09784 0.10510 0.57928
 C459 C 1.11158 0.08619 0.56102
 C460 C 1.09576 0.06578 0.54686
 C461 C 1.06595 0.06398 0.55088
 C462 C 1.05211 0.08392 0.56800
 C463 C 1.06803 0.10431 0.58226
 H464 H 1.21442 0.17758 0.65616
 H465 H 1.13679 0.17232 0.70793
 H466 H 1.16203 0.18995 0.75103
 H467 H 1.23996 0.19598 0.69926
 H468 H 1.13464 0.08651 0.55872
 H469 H 1.10699 0.05080 0.53365
 H470 H 1.02919 0.08302 0.57150
 H471 H 1.05722 0.11875 0.59656
 C472 C 0.84292 -0.14874 0.72495
 C473 C 0.85731 -0.16573 0.70503
 C474 C 0.85654 -0.19354 0.70905
 C475 C 0.84196 -0.20432 0.73324
 C476 C 0.82786 -0.18745 0.75419
 C477 C 0.82828 -0.15939 0.74917
 C478 C 0.87374 -0.15441 0.68117
 C479 C 0.88778 -0.14426 0.66179
 C480 C 0.90434 -0.13136 0.63988
 C481 C 0.91838 -0.11921 0.62194
 C482 C 0.93474 -0.10313 0.60158
 C483 C 0.92813 -0.10350 0.57166
 C484 C 0.94141 -0.08504 0.55281
 C485 C 0.96123 -0.06585 0.56383
 C486 C 0.96877 -0.06658 0.59359
 C487 C 0.95560 -0.08509 0.61231
 H488 H 0.84356 -0.12710 0.72214
 H489 H 0.86738 -0.20693 0.69358
 H490 H 0.84133 -0.22604 0.73491
 H491 H 0.81879 -0.14520 0.76466
 H492 H 0.91193 -0.11732 0.56315
 H493 H 0.93511 -0.08488 0.53001
 H494 H 0.98403 -0.05213 0.60269
 H495 H 0.96085 -0.08459 0.63543
 C496 C 1.14895 -0.19584 0.28963
 C497 C 1.16508 -0.17766 0.30663
 C498 C 1.19295 -0.17086 0.29783
 C499 C 1.20459 -0.18203 0.27187
 C500 C 1.18850 -0.20031 0.25411
 C501 C 1.16041 -0.20704 0.26374
 C502 C 1.15216 -0.16489 0.33209
 C503 C 1.14033 -0.15382 0.35260
 C504 C 1.12560 -0.14016 0.37554
 C505 C 1.11254 -0.12761 0.39414
 C506 C 1.09671 -0.11134 0.41499
 C507 C 1.11111 -0.09252 0.43297
 C508 C 1.09575 -0.07385 0.45000
 C509 C 1.06574 -0.07370 0.44913
 C510 C 1.05138 -0.09358 0.43216
 C511 C 1.06682 -0.11224 0.41509
 H512 H 1.12715 -0.20089 0.29600
 H513 H 1.20564 -0.15676 0.31091
 H514 H 1.22650 -0.17674 0.26641
 H515 H 1.14635 -0.21983 0.25070
 H516 H 1.13424 -0.09157 0.43294
 H517 H 1.10740 -0.05884 0.46292
 H518 H 1.02830 -0.09394 0.43100
 H519 H 1.05548 -0.12663 0.40110
 C520 C 0.86256 0.18146 0.30672
 C521 C 0.84888 0.16397 0.32620
 C522 C 0.81921 0.16072 0.32563
 C523 C 0.80323 0.17473 0.30543
 C524 C 0.81668 0.19239 0.28528
 C525 C 0.84677 0.19550 0.28653
 C526 C 0.86559 0.14863 0.34588
 C527 C 0.87998 0.13549 0.36171
 C528 C 0.89701 0.11961 0.37955
 C529 C 0.91139 0.10543 0.39427
 C530 C 0.92804 0.08758 0.41130
 C531 C 0.92221 0.08481 0.44135
 C532 C 0.93629 0.06541 0.45721
 C533 C 0.95627 0.04844 0.44312
 C534 C 0.96284 0.05211 0.41319
 C535 C 0.94875 0.07156 0.39739
 H536 H 0.88560 0.18385 0.30671
 H537 H 0.80838 0.14726 0.34075
 H538 H 0.78027 0.17213 0.30641
 H539 H 0.85866 0.20767 0.27100
 H540 H 0.90618 0.09708 0.45231
 H541 H 0.93077 0.06303 0.48023
 H542 H 0.97816 0.03938 0.40177
 H543 H 0.95340 0.07352 0.37412
 C544 C 0.15536 0.26111 -0.15513
 C545 C 0.16815 0.28418 -0.14252
 C546 C 0.19739 0.28932 -0.14699
 C547 C 0.21362 0.27173 -0.16471
 C548 C 0.20062 0.24903 -0.17831
 C549 C 0.17146 0.24363 -0.17287
 C550 C 0.15057 0.30340 -0.12698
 C551 C 0.13486 0.31946 -0.11527
 C552 C 0.11571 0.33836 -0.10300
 C553 C 0.09903 0.35476 -0.09365
 C554 C 0.07908 0.37481 -0.08375
 C555 C 0.05752 0.36851 -0.06323
 C556 C 0.03792 0.38810 -0.05420
 C557 C 0.03971 0.41420 -0.06565
 C558 C 0.06141 0.42024 -0.08633
 C559 C 0.08090 0.40066 -0.09531
 H560 H 0.13276 0.25697 -0.15185
 H561 H 0.20745 0.30723 -0.13744
 H562 H 0.23602 0.27635 -0.16865
 H563 H 0.16103 0.22604 -0.18269
 H564 H 0.05588 0.34851 -0.05422
 H565 H 0.02156 0.38289 -0.03813
 H566 H 0.06345 0.44015 -0.09549
 H567 H 0.09743 0.40570 -0.11129
 C568 C -0.14691 0.29172 0.20042
 C569 C -0.16358 0.30990 0.18567
 C570 C -0.19326 0.30657 0.18577
 C571 C -0.20623 0.28488 0.20028
 C572 C -0.18969 0.26595 0.21505
 C573 C -0.15969 0.27005 0.21492
 C574 C -0.14985 0.33121 0.16950
 C575 C -0.13742 0.34836 0.15570
 C576 C -0.12200 0.36764 0.13923
 C577 C -0.10825 0.38347 0.12485
 C578 C -0.09135 0.40164 0.10724
 C579 C -0.09657 0.40344 0.07717
 C580 C -0.07931 0.42003 0.05966
 C581 C -0.05656 0.43502 0.07205
 C582 C -0.05160 0.43332 0.10233
 C583 C -0.06891 0.41669 0.11982
 H584 H -0.12385 0.29392 0.20017
 H585 H -0.20641 0.32067 0.17450
 H586 H -0.22929 0.28360 0.20043
 H587 H -0.14557 0.25583 0.22459
 H588 H -0.11380 0.39179 0.06719
 H589 H -0.08365 0.42096 0.03640
 H590 H -0.03418 0.44459 0.11242
 H591 H -0.06459 0.41533 0.14306
 C592 C -0.15053 0.70106 -0.17567
 C593 C -0.15175 0.69751 -0.14533
 C594 C -0.16582 0.71627 -0.12721
 C595 C -0.17819 0.73884 -0.13928
 C596 C -0.17654 0.74326 -0.16990
 C597 C -0.16279 0.72359 -0.18787
 C598 C -0.13747 0.67522 -0.13275
 C599 C -0.12485 0.65684 -0.12242
 C600 C -0.10939 0.63566 -0.11055
 C601 C -0.09567 0.61782 -0.10061
 C602 C -0.07876 0.59679 -0.08895
 C603 C -0.05748 0.60320 -0.06859
 C604 C -0.04044 0.58295 -0.05784
 C605 C -0.04449 0.55597 -0.06734
 C606 C -0.06607 0.54970 -0.08768
 C607 C -0.08306 0.57002 -0.09843
 H608 H -0.13988 0.68649 -0.18995
 H609 H -0.16667 0.71379 -0.10361
 H610 H -0.18754 0.75342 -0.12414
 H611 H -0.16195 0.72503 -0.21156
 H612 H -0.05395 0.62389 -0.06115
 H613 H -0.02405 0.58844 -0.04217
 H614 H -0.06977 0.52912 -0.09537
 H615 H -0.09945 0.56486 -0.11424
 C616 C 0.18809 0.68522 0.15074
 C617 C 0.15851 0.68137 0.15389
 C618 C 0.14203 0.70140 0.16753
 C619 C 0.15499 0.72509 0.17824
 C620 C 0.18471 0.72910 0.17553
 C621 C 0.20116 0.70901 0.16148
 C622 C 0.14465 0.65725 0.14272
 C623 C 0.13202 0.63764 0.13322
 C624 C 0.11637 0.61544 0.12156
 C625 C 0.10255 0.59719 0.11073
 C626 C 0.08585 0.57632 0.09637
 C627 C 0.05933 0.56813 0.10811
 C628 C 0.04188 0.54993 0.09231
 C629 C 0.05082 0.53997 0.06457
 C630 C 0.07784 0.54767 0.05343
 C631 C 0.09522 0.56573 0.06924
 H632 H 0.20102 0.66985 0.14008
 H633 H 0.11910 0.69873 0.16984
 H634 H 0.14170 0.74040 0.18850
 H635 H 0.22410 0.71150 0.15926
 H636 H 0.05181 0.57637 0.12903
 H637 H 0.02111 0.54436 0.10128
 H638 H 0.08526 0.54030 0.03209
 H639 H 0.11561 0.57204 0.05989
 C640 C 0.31506 1.15280 0.80302
 C641 C 0.33535 1.16860 0.81811
 C642 C 0.33118 1.19631 0.82217
 C643 C 0.30648 1.20807 0.81178
 C644 C 0.28559 1.19220 0.79727
 C645 C 0.29038 1.16448 0.79266
 C646 C 0.35904 1.15582 0.83151
 C647 C 0.37779 1.14434 0.84371
 C648 C 0.39833 1.13007 0.85915
 C649 C 0.41451 1.11723 0.87338
 C650 C 0.43197 1.10118 0.89166
 C651 C 0.43720 1.10972 0.92063
 C652 C 0.45001 1.09241 0.94006
 C653 C 0.45760 1.06623 0.93077
 C654 C 0.45371 1.05832 0.90119
 C655 C 0.44084 1.07569 0.88178
 H656 H 0.31791 1.13128 0.80004
 H657 H 0.34668 1.20871 0.83397
 H658 H 0.30353 1.22950 0.81541
 H659 H 0.27453 1.15160 0.78205
 H660 H 0.43029 1.12935 0.92856
 H661 H 0.45289 1.09912 0.96266
 H662 H 0.45950 1.03834 0.89338
 H663 H 0.43676 1.06882 0.85944
 C664 C 0.26853 0.82724 1.11959
 C665 C 0.29155 0.84004 1.13375
 C666 C 0.29513 0.83677 1.16394
 C667 C 0.27565 0.82104 1.17998
 C668 C 0.25224 0.80834 1.16603
 C669 C 0.24901 0.81147 1.13559
 C670 C 0.31117 0.85707 1.11763
 C671 C 0.32775 0.87168 1.10477
 C672 C 0.34744 0.88914 1.09060
 C673 C 0.36459 0.90431 1.07937
 C674 C 0.38557 0.92266 1.06719
 C675 C 0.41457 0.91659 1.06833
 C676 C 0.43523 0.93532 1.05902
 C677 C 0.42716 0.96049 1.04854
 C678 C 0.39793 0.96611 1.04661
 C679 C 0.37727 0.94730 1.05593
 H680 H 0.26548 0.82972 1.09626
 H681 H 0.31289 0.84654 1.17513
 H682 H 0.27887 0.81877 1.20330
 H683 H 0.23101 0.80226 1.12430
 H684 H 0.42125 0.89761 1.07704
 H685 H 0.45755 0.93032 1.06063
 H686 H 0.39104 0.98524 1.03850
 H687 H 0.35488 0.95223 1.05498
 C688 C 0.70606 1.18068 1.17612
 C689 C 0.68530 1.16910 1.19459
 C690 C 0.68857 1.17073 1.22512
 C691 C 0.71266 1.18372 1.23709
 C692 C 0.73375 1.19523 1.21862
 C693 C 0.73010 1.19362 1.18800
 C694 C 0.66136 1.15478 1.18179
 C695 C 0.64217 1.14262 1.16972
 C696 C 0.62087 1.12822 1.15395
 C697 C 0.60385 1.11582 1.13904
 C698 C 0.58517 1.10096 1.11945
 C699 C 0.56904 1.07877 1.12922
 C700 C 0.55371 1.06259 1.10908
 C701 C 0.55464 1.06834 1.07892
 C702 C 0.57001 1.09132 1.06960
 C703 C 0.58514 1.10746 1.08972
 H704 H 0.70387 1.17936 1.15245
 H705 H 0.67267 1.16178 1.23963
 H706 H 0.71482 1.18478 1.26075
 H707 H 0.74618 1.20178 1.17316
 H708 H 0.56902 1.07347 1.15219
 H709 H 0.54211 1.04503 1.11693
 H710 H 0.57107 1.09641 1.04658
 H711 H 0.59761 1.12453 1.08189
 C712 C 0.71248 0.84503 0.83558
 C713 C 0.71299 0.84815 0.86624
 C714 C 0.73514 0.83701 0.88196
 C715 C 0.75676 0.82291 0.86712
 C716 C 0.75654 0.81977 0.83629
 C717 C 0.73411 0.83094 0.82068
 C718 C 0.69116 0.86328 0.88150
 C719 C 0.67309 0.87631 0.89417
 C720 C 0.65218 0.89209 0.90870
 C721 C 0.63451 0.90611 0.92067
 C722 C 0.61368 0.92359 0.93423
 C723 C 0.58475 0.91598 0.93488
 C724 C 0.56432 0.93396 0.94591
 C725 C 0.57263 0.95984 0.95622
 C726 C 0.60182 0.96698 0.95628
 C727 C 0.62219 0.94897 0.94534
 H728 H 0.69542 0.85357 0.82319
 H729 H 0.73583 0.83942 0.90567
 H730 H 0.77393 0.81483 0.87970
 H731 H 0.73316 0.82857 0.79700
 H732 H 0.57793 0.89639 0.92630
 H733 H 0.54201 0.92788 0.94565
 H734 H 0.60888 0.98671 0.96423
 H735 H 0.64451 0.95508 0.94495
   
