data_POSCAR
  _audit_creation_date              2014-09-24
  _audit_creation_method            'ToBaCCo'
  _symmetry_space_group_name_H-M    'P1'
  _symmetry_Int_Tables_number       1
  _symmetry_cell_setting            triclinic
  loop_
  _symmetry_equiv_pos_as_xyz
 x,y,z
_cell_length_a 29.5636
_cell_length_b 31.1302
_cell_length_c 29.9218
_cell_angle_alpha 89.703900
_cell_angle_beta 89.649400
_cell_angle_gamma 120.753700
loop_
  _atom_site_label
  _atom_site_type_symbol
  _atom_site_fract_x
  _atom_site_fract_y
  _atom_site_fract_z
C1 C -0.02168 0.40322 -0.00298
 C2 C -0.01175 0.38858 0.03859
 C3 C 0.01424 0.36134 0.03890
 C4 C 0.03344 0.35125 -0.00050
 C5 C 0.01933 0.36369 -0.04159
 C6 C -0.00958 0.38833 -0.04346
 C7 C 0.06477 0.32502 0.00172
 C8 C 0.07810 0.30799 -0.03730
 C9 C 0.10739 0.28409 -0.03492
 C10 C 0.12341 0.27635 0.00658
 C11 C 0.10982 0.29132 0.04570
 C12 C 0.08272 0.31720 0.04321
 H13 H -0.04027 0.42550 -0.00397
 H14 H 0.01529 0.34463 0.07013
 H15 H 0.02652 0.35070 -0.07244
 H16 H 0.06658 0.31268 -0.07016
 H17 H 0.14656 0.25838 0.00852
 H18 H 0.07638 0.33068 0.07432
 C19 C 0.38573 0.82433 0.50160
 C20 C 0.41736 0.84044 0.53972
 C21 C 0.46969 0.85184 0.53667
 C22 C 0.48953 0.84229 0.49737
 C23 C 0.45682 0.82578 0.45951
 C24 C 0.40553 0.81750 0.46133
 C25 C 0.54102 0.84353 0.49776
 C26 C 0.56755 0.84550 0.45758
 C27 C 0.61057 0.83819 0.45805
 C28 C 0.63047 0.83329 0.49873
 C29 C 0.60562 0.83211 0.53881
 C30 C 0.56084 0.83645 0.53835
 H31 H 0.34481 0.81414 0.50394
 H32 H 0.49354 0.86560 0.56629
 H33 H 0.46924 0.81628 0.42898
 H34 H 0.55363 0.84985 0.42554
 H35 H 0.66269 0.82606 0.49894
 H36 H 0.54005 0.83071 0.56967
 C37 C 1.02907 0.61565 -0.00311
 C38 C 1.00476 0.61485 0.03789
 C39 C 0.96117 0.62172 0.03708
 C40 C 0.94538 0.63467 -0.00242
 C41 C 0.97005 0.63438 -0.04271
 C42 C 1.01117 0.62394 -0.04398
 C43 C 0.90773 0.65373 -0.00107
 C44 C 0.88219 0.65553 -0.04019
 C45 C 0.85549 0.68191 -0.04115
 C46 C 0.84834 0.70153 -0.00177
 C47 C 0.87077 0.69818 0.03807
 C48 C 0.90105 0.67518 0.03826
 H49 H 1.06530 0.61488 -0.00297
 H50 H 0.94046 0.61815 0.06805
 H51 H 0.95816 0.64325 -0.07370
 H52 H 0.88411 0.63831 -0.07081
 H53 H 0.82607 0.72043 -0.00231
 H54 H 0.92055 0.67606 0.06895
 C55 C 0.61383 0.17996 0.49788
 C56 C 0.58868 0.17587 0.53878
 C57 C 0.53834 0.17002 0.53929
 C58 C 0.51420 0.17240 0.49948
 C59 C 0.54055 0.17623 0.45870
 C60 C 0.58947 0.17897 0.45764
 C61 C 0.46508 0.17600 0.50066
 C62 C 0.43647 0.17100 0.46123
 C63 C 0.39540 0.18110 0.46121
 C64 C 0.37965 0.19275 0.50106
 C65 C 0.40591 0.19663 0.54071
 C66 C 0.44859 0.18882 0.54051
 H67 H 0.65362 0.18667 0.49741
 H68 H 0.51984 0.16580 0.57150
 H69 H 0.52519 0.17965 0.42717
 H70 H 0.44616 0.16072 0.42979
 H71 H 0.34767 0.20032 0.50095
 H72 H 0.46948 0.19508 0.57146
 C73 C 0.69545 -0.11294 -0.00111
 C74 C 0.69034 -0.09275 0.03914
 C75 C 0.68207 -0.05210 0.03691
 C76 C 0.68872 -0.02581 -0.00358
 C77 C 0.69617 -0.04609 -0.04324
 C78 C 0.69809 -0.09005 -0.04205
 C79 C 0.69451 0.02518 -0.00355
 C80 C 0.69273 0.04826 -0.04376
 C81 C 0.71060 0.09980 -0.04600
 C82 C 0.72172 0.12624 -0.00564
 C83 C 0.71942 0.10313 0.03509
 C84 C 0.70763 0.05361 0.03598
 H85 H 0.70135 -0.14457 -0.00083
 H86 H 0.67204 -0.04045 0.06748
 H87 H 0.70314 -0.02717 -0.07509
 H88 H 0.67835 0.02667 -0.07393
 H89 H 0.73530 0.16584 -0.00568
 H90 H 0.71117 0.03891 0.06766
 C91 C 0.18752 0.34386 0.51084
 C92 C 0.17181 0.35661 0.55035
 C93 C 0.15014 0.38760 0.54816
 C94 C 0.14951 0.41046 0.50740
 C95 C 0.16609 0.39705 0.46813
 C96 C 0.18425 0.36346 0.46973
 C97 C 0.13831 0.45245 0.50635
 C98 C 0.12588 0.46727 0.46583
 C99 C 0.13278 0.51516 0.46081
 C100 C 0.14180 0.54449 0.49887
 C101 C 0.14822 0.52803 0.54065
 C102 C 0.14794 0.48293 0.54407
 H103 H 0.20328 0.31916 0.51208
 H104 H 0.13585 0.39512 0.57876
 H105 H 0.16745 0.41394 0.43614
 H106 H 0.11538 0.44377 0.43669
 H107 H 0.14666 0.58133 0.49571
 H108 H 0.15848 0.47386 0.57579
 C109 C 0.29888 1.11962 0.00416
 C110 C 0.28637 1.09207 0.04393
 C111 C 0.27959 1.04422 0.04418
 C112 C 0.28798 1.02399 0.00510
 C113 C 0.30098 1.05269 -0.03480
 C114 C 0.30587 1.10018 -0.03584
 C115 C 0.28438 0.97396 0.00606
 C116 C 0.27692 0.94693 -0.03368
 C117 C 0.27811 0.90227 -0.03421
 C118 C 0.28063 0.88155 0.00706
 C119 C 0.28474 0.90598 0.04726
 C120 C 0.28842 0.95262 0.04652
 H121 H 0.30125 1.15554 0.00431
 H122 H 0.26762 1.02342 0.07528
 H123 H 0.30959 1.03957 -0.06522
 H124 H 0.26828 0.95942 -0.06449
 H125 H 0.27996 0.84643 0.00829
 H126 H 0.29452 0.97157 0.07798
 C127 C 0.79509 0.65408 0.49923
 C128 C 0.79524 0.62999 0.53868
 C129 C 0.80844 0.59274 0.53711
 C130 C 0.82699 0.58276 0.49717
 C131 C 0.82796 0.60877 0.45797
 C132 C 0.81056 0.64308 0.45873
 C133 C 0.84357 0.54449 0.49645
 C134 C 0.84270 0.52020 0.45656
 C135 C 0.85513 0.48237 0.45631
 C136 C 0.86544 0.46616 0.49663
 C137 C 0.86629 0.48939 0.53681
 C138 C 0.85769 0.52974 0.53616
 H139 H 0.78301 0.68162 0.49999
 H140 H 0.80421 0.57221 0.56759
 H141 H 0.84159 0.60259 0.42643
 H142 H 0.83076 0.52898 0.42544
 H143 H 0.87047 0.43402 0.49690
 H144 H 0.86037 0.54802 0.56746
 O145 O 0.24424 0.28009 0.20591
 O146 O 0.31840 0.25238 0.28789
 O147 O 0.29345 0.23188 0.20479
 O148 O 0.26965 0.30235 0.29072
 O149 O 0.19747 0.23317 0.31213
 O150 O 0.21926 0.16335 0.22404
 O151 O 0.24547 0.18286 0.30734
 O152 O 0.17085 0.21278 0.22809
 Cu153 Cu 0.28868 0.27393 0.24549
 Cu154 Cu 0.20081 0.19136 0.27010
 C155 C 0.19514 0.24989 0.20170
 C156 C 0.29472 0.21237 0.31104
 C157 C 0.26033 0.18573 0.19957
 C158 C 0.23039 0.27942 0.31702
 O159 O 0.76570 0.84182 0.21433
 O160 O 0.80356 0.77834 0.29694
 O161 O 0.81985 0.79726 0.21151
 O162 O 0.75117 0.82408 0.30038
 O163 O 0.67810 0.75336 0.28582
 O164 O 0.74646 0.72646 0.19746
 O165 O 0.73044 0.70730 0.28297
 O166 O 0.69230 0.77107 0.20092
 Cu167 Cu 0.79245 0.81762 0.25705
 Cu168 Cu 0.70458 0.73235 0.24034
 C169 C 0.72243 0.81759 0.19371
 C170 C 0.77321 0.73188 0.30423
 C171 C 0.79461 0.75757 0.18894
 C172 C 0.70311 0.79261 0.30895
 O173 O 0.79082 0.35636 0.27181
 O174 O 0.74702 0.25540 0.18964
 O175 O 0.71370 0.26542 0.26908
 O176 O 0.82078 0.34761 0.19227
 O177 O 0.87186 0.32335 0.22282
 O178 O 0.76463 0.24182 0.30110
 O179 O 0.79778 0.23117 0.22122
 O180 O 0.84216 0.33248 0.30267
 Cu181 Cu 0.76261 0.30822 0.22766
 Cu182 Cu 0.82394 0.27942 0.26509
 C183 C 0.82375 0.36140 0.30147
 C184 C 0.76709 0.22776 0.19019
 C185 C 0.72145 0.24140 0.29948
 C186 C 0.86425 0.34871 0.19358
 O187 O 0.25647 0.74540 0.19670
 O188 O 0.19532 0.63354 0.26877
 O189 O 0.17470 0.65708 0.19013
 O190 O 0.27721 0.72057 0.27538
 O191 O 0.22883 0.74665 0.30866
 O192 O 0.12617 0.68217 0.22420
 O193 O 0.14686 0.65892 0.30205
 O194 O 0.20835 0.77169 0.22972
 Cu195 Cu 0.23080 0.68672 0.22932
 Cu196 Cu 0.17291 0.71786 0.26922
 C197 C 0.24214 0.77733 0.20017
 C198 C 0.16188 0.62740 0.29867
 C199 C 0.13281 0.65888 0.19247
 C200 C 0.26921 0.74222 0.30773
 O201 O 0.72019 0.27345 0.71958
 O202 O 0.82335 0.34513 0.80172
 O203 O 0.80098 0.36328 0.72196
 O204 O 0.74112 0.25576 0.79920
 O205 O 0.79179 0.22982 0.77104
 O206 O 0.84871 0.33537 0.69100
 O207 O 0.87320 0.31916 0.77141
 O208 O 0.76861 0.24531 0.69030
 Cu209 Cu 0.76671 0.31232 0.76359
 Cu210 Cu 0.82562 0.27978 0.72800
 C211 C 0.72667 0.24716 0.69078
 C212 C 0.86569 0.34395 0.80108
 C213 C 0.83400 0.36718 0.69246
 C214 C 0.75656 0.22446 0.79882
 O215 O 0.29645 0.75338 0.72846
 O216 O 0.18474 0.67083 0.80318
 O217 O 0.22048 0.66064 0.72424
 O218 O 0.26266 0.75917 0.80792
 O219 O 0.21458 0.78624 0.77568
 O220 O 0.17360 0.68776 0.69039
 O221 O 0.13674 0.69637 0.76892
 O222 O 0.24797 0.77941 0.69602
 Cu223 Cu 0.24575 0.70793 0.76879
 Cu224 Cu 0.18818 0.73975 0.72944
 C225 C 0.29108 0.78015 0.69905
 C226 C 0.14249 0.67195 0.80025
 C227 C 0.19230 0.65897 0.69174
 C228 C 0.24436 0.78814 0.80707
 O229 O 0.26676 0.30268 0.72245
 O230 O 0.31487 0.24665 0.80380
 O231 O 0.33031 0.26839 0.71809
 O232 O 0.25271 0.28187 0.80745
 O233 O 0.18577 0.20664 0.79306
 O234 O 0.26249 0.19412 0.70218
 O235 O 0.24917 0.17209 0.78775
 O236 O 0.19842 0.22837 0.70875
 Cu237 Cu 0.29805 0.28232 0.76434
 Cu238 Cu 0.21741 0.19268 0.74630
 C239 C 0.22377 0.27541 0.70228
 C240 C 0.29020 0.19980 0.81034
 C241 C 0.30915 0.22949 0.69416
 C242 C 0.20633 0.24627 0.81604
 O243 O 0.73827 0.80750 0.69559
 O244 O 0.80109 0.77264 0.78314
 O245 O 0.78276 0.75448 0.69912
 O246 O 0.76204 0.83020 0.78043
 O247 O 0.68687 0.76387 0.80148
 O248 O 0.70382 0.68952 0.71397
 O249 O 0.72483 0.70495 0.79801
 O250 O 0.66089 0.74442 0.71665
 Cu251 Cu 0.77854 0.79807 0.73769
 Cu252 Cu 0.68603 0.71939 0.75935
 C253 C 0.68878 0.78079 0.69043
 C254 C 0.77390 0.73202 0.80487
 C255 C 0.74726 0.70941 0.69253
 C256 C 0.72254 0.80938 0.80657
 C257 C 0.22541 0.12816 0.13582
 C258 C 0.23173 0.10630 0.09764
 C259 C 0.28116 0.11396 0.08583
 C260 C 0.32479 0.14270 0.11374
 C261 C 0.31836 0.16463 0.15287
 C262 C 0.26842 0.15847 0.16312
 C263 C 0.36213 0.19120 0.18078
 N264 N 0.40921 0.19659 0.16926
 N265 N 0.41548 0.17702 0.13192
 C266 C 0.37492 0.15025 0.10380
 H267 H 0.18694 0.12282 0.14319
 H268 H 0.19803 0.08405 0.07662
 H269 H 0.35931 0.20695 0.21203
 H270 H 0.38216 0.13488 0.07412
 C271 C 0.72045 0.65871 0.62402
 C272 C 0.73286 0.64072 0.58618
 C273 C 0.78208 0.64459 0.58167
 C274 C 0.81865 0.66492 0.61711
 C275 C 0.80530 0.68192 0.65604
 C276 C 0.75694 0.68099 0.65839
 C277 C 0.84115 0.69971 0.69153
 N278 N 0.88833 0.70268 0.68724
 N279 N 0.90202 0.68905 0.64984
 C280 C 0.86904 0.67058 0.61459
 H281 H 0.68330 0.65770 0.62533
 H282 H 0.70450 0.62519 0.55945
 H283 H 0.83167 0.71053 0.72281
 H284 H 0.88290 0.66089 0.58505
 C285 C 0.67810 0.81360 0.12300
 C286 C 0.67133 0.83544 0.08506
 C287 C 0.69545 0.88766 0.08049
 C288 C 0.72572 0.91814 0.11707
 C289 C 0.72924 0.89516 0.15712
 C290 C 0.70841 0.84273 0.15872
 C291 C 0.75431 0.92580 0.19414
 N292 N 0.77950 0.97617 0.18974
 N293 N 0.78144 0.99795 0.15086
 C294 C 0.75626 0.97085 0.11435
 H295 H 0.66089 0.77339 0.12352
 H296 H 0.64702 0.81083 0.05873
 H297 H 0.75362 0.91041 0.22672
 H298 H 0.76186 0.99115 0.08357
 C299 C 0.17200 0.26683 0.63474
 C300 C 0.15957 0.28641 0.59816
 C301 C 0.17996 0.33792 0.59362
 C302 C 0.21094 0.37006 0.62860
 C303 C 0.22097 0.34960 0.66734
 C304 C 0.20440 0.29784 0.66888
 C305 C 0.24725 0.38199 0.70310
 N306 N 0.26612 0.43169 0.69867
 N307 N 0.26033 0.45129 0.66107
 C308 C 0.23373 0.42233 0.62586
 H309 H 0.15791 0.22715 0.63516
 H310 H 0.13559 0.26121 0.57202
 H311 H 0.25191 0.36850 0.73501
 H312 H 0.23108 0.44076 0.59623
 C313 C 0.88384 0.37657 0.11515
 C314 C 0.91416 0.38620 0.07672
 C315 C 0.96531 0.39376 0.07864
 C316 C 0.98856 0.39998 0.12166
 C317 C 0.95737 0.39029 0.16094
 C318 C 0.90337 0.37464 0.15716
 C319 C 0.98168 0.39768 0.20275
 N320 N 1.03375 0.41389 0.20500
 N321 N 1.06323 0.42362 0.16832
 C322 C 1.04261 0.41761 0.12690
 H323 H 0.84298 0.36585 0.11125
 H324 H 0.89447 0.38160 0.04521
 H325 H 0.96039 0.39257 0.23366
 H326 H 1.06906 0.42824 0.09850
 C327 C 0.36591 0.78878 0.65450
 C328 C 0.39521 0.80227 0.61504
 C329 C 0.39304 0.83541 0.58446
 C330 C 0.36490 0.85929 0.59625
 C331 C 0.33560 0.84620 0.63699
 C332 C 0.33307 0.80771 0.66474
 C333 C 0.31042 0.87268 0.64857
 N334 N 0.31303 0.90828 0.62054
 N335 N 0.33943 0.91956 0.58190
 C336 C 0.36554 0.89639 0.56885
 H337 H 0.36611 0.76040 0.67543
 H338 H 0.41717 0.78410 0.60701
 H339 H 0.29014 0.86674 0.68018
 H340 H 0.38734 0.90781 0.53763
 C341 C 0.06336 0.66065 0.14908
 C342 C 0.03192 0.64994 0.11180
 C343 C 0.02871 0.61594 0.07931
 C344 C 0.05384 0.58811 0.08840
 C345 C 0.08627 0.59921 0.12682
 C346 C 0.09308 0.63785 0.15622
 C347 C 0.10921 0.56994 0.13504
 N348 N 0.10063 0.53272 0.10677
 N349 N 0.06950 0.52164 0.07152
 C350 C 0.04512 0.54735 0.06189
 H351 H 0.06693 0.68975 0.17107
 H352 H 0.01388 0.67233 0.10674
 H353 H 0.13233 0.57470 0.16431
 H354 H 0.01801 0.53473 0.03434
 C355 C 0.66008 0.24623 0.64119
 C356 C 0.62694 0.22920 0.60462
 C357 C 0.61891 0.18731 0.58084
 C358 C 0.64259 0.16029 0.59607
 C359 C 0.67602 0.17724 0.63395
 C360 C 0.68647 0.22198 0.65559
 C361 C 0.69663 0.14793 0.64928
 N362 N 0.68568 0.10570 0.62737
 N363 N 0.65517 0.09043 0.59146
 C364 C 0.63311 0.11615 0.57517
 H365 H 0.66696 0.28023 0.65709
 H366 H 0.60919 0.25039 0.59353
 H367 H 0.72011 0.15716 0.67906
 H368 H 0.60769 0.10140 0.54652
 C369 C 0.71314 0.19097 0.87202
 C370 C 0.70354 0.16183 0.91010
 C371 C 0.71804 0.12530 0.91256
 C372 C 0.74061 0.11690 0.87347
 C373 C 0.74598 0.14397 0.83326
 C374 C 0.73631 0.18426 0.83376
 C375 C 0.76187 0.13014 0.79411
 N376 N 0.77798 0.09655 0.79625
 N377 N 0.77931 0.07589 0.83485
 C378 C 0.76204 0.08543 0.87347
 H379 H 0.70396 0.22047 0.87339
 H380 H 0.68472 0.16849 0.93819
 H381 H 0.76074 0.14476 0.76163
 H382 H 0.76671 0.06917 0.90369
 C383 C 0.11136 0.58511 0.36782
 C384 C 0.10634 0.55995 0.40784
 C385 C 0.13558 0.53675 0.41554
 C386 C 0.16822 0.53645 0.38049
 C387 C 0.16895 0.55760 0.33806
 C388 C 0.14461 0.58680 0.33319
 C389 C 0.19540 0.54966 0.30259
 N390 N 0.22453 0.52818 0.31053
 N391 N 0.22882 0.51377 0.35140
 C392 C 0.20215 0.51757 0.38664
 H393 H 0.09093 0.60560 0.36500
 H394 H 0.08097 0.56045 0.43386
 H395 H 0.19209 0.55860 0.26839
 H396 H 0.20864 0.50651 0.41903
 C397 C 0.23098 0.79702 0.88622
 C398 C 0.23992 0.82431 0.92504
 C399 C 0.27292 0.87670 0.92515
 C400 C 0.29857 0.90128 0.88404
 C401 C 0.28772 0.87304 0.84412
 C402 C 0.25401 0.82068 0.84566
 C403 C 0.31293 0.89787 0.80413
 N404 N 0.34847 0.94756 0.80434
 N405 N 0.36090 0.97376 0.84190
 C406 C 0.33789 0.95236 0.88165
 H407 H 0.20516 0.75675 0.88778
 H408 H 0.21885 0.80393 0.95491
 H409 H 0.30528 0.87809 0.77288
 H410 H 0.35199 0.97537 0.91100
 C411 C 0.79604 0.40373 0.35450
 C412 C 0.80314 0.43197 0.39241
 C413 C 0.85155 0.45597 0.41431
 C414 C 0.89458 0.45353 0.39616
 C415 C 0.88748 0.42495 0.35721
 C416 C 0.83711 0.39849 0.33719
 C417 C 0.93154 0.42491 0.33915
 N418 N 0.97885 0.45068 0.35949
 N419 N 0.98525 0.47692 0.39633
 C420 C 0.94493 0.47950 0.41520
 H421 H 0.75725 0.38387 0.33979
 H422 H 0.76992 0.43370 0.40569
 H423 H 0.92931 0.40568 0.30859
 H424 H 0.95288 0.50236 0.44450
 C425 C 0.18129 0.29882 0.85826
 C426 C 0.15617 0.30775 0.89330
 C427 C 0.12477 0.26987 0.92404
 C428 C 0.11655 0.22123 0.91796
 C429 C 0.14366 0.21242 0.88323
 C430 C 0.17622 0.25182 0.85293
 C431 C 0.13849 0.16486 0.88137
 N432 N 0.10567 0.12820 0.91027
 N433 N 0.07800 0.13581 0.94116
 C434 C 0.08224 0.18098 0.94594
 H435 H 0.20576 0.32931 0.83545
 H436 H 0.16301 0.34517 0.89749
 H437 H 0.16056 0.15628 0.85796
 H438 H 0.05854 0.18493 0.97135
 C439 C 0.68906 0.85130 0.35420
 C440 C 0.66575 0.86266 0.38926
 C441 C 0.62812 0.82475 0.41691
 C442 C 0.61282 0.77435 0.40868
 C443 C 0.63817 0.76282 0.37447
 C444 C 0.67612 0.80183 0.34633
 C445 C 0.62587 0.71276 0.37114
 N446 N 0.58826 0.67689 0.39799
 N447 N 0.56245 0.68749 0.42835
 C448 C 0.57346 0.73492 0.43464
 H449 H 0.71797 0.88157 0.33328
 H450 H 0.67806 0.90136 0.39556
 H451 H 0.64620 0.70149 0.34844
 H452 H 0.55123 0.74138 0.45975
 C453 C 0.76417 0.68548 0.87464
 C454 C 0.78335 0.67320 0.91173
 C455 C 0.83717 0.69182 0.91630
 C456 C 0.87249 0.72250 0.88199
 C457 C 0.85287 0.73410 0.84330
 C458 C 0.79801 0.71679 0.84047
 C459 C 0.88924 0.76235 0.80905
 N460 N 0.94127 0.77974 0.81442
 N461 N 0.95972 0.77083 0.85156
 C462 C 0.92725 0.74304 0.88553
 H463 H 0.72228 0.67152 0.87360
 H464 H 0.75599 0.64995 0.93781
 H465 H 0.87750 0.77036 0.77766
 H466 H 0.94477 0.73749 0.91491
 C467 C 0.36170 0.24222 0.36978
 C468 C 0.38540 0.23453 0.40641
 C469 C 0.37295 0.18630 0.41898
 C470 C 0.33773 0.14510 0.39276
 C471 C 0.31371 0.15290 0.35506
 C472 C 0.32433 0.20185 0.34471
 C473 C 0.28043 0.11131 0.32878
 N474 N 0.27054 0.06516 0.34065
 N475 N 0.29179 0.05775 0.37683
 C476 C 0.32497 0.09611 0.40333
 H477 H 0.37096 0.27995 0.36227
 H478 H 0.41264 0.26648 0.42605
 H479 H 0.26299 0.11500 0.29848
 H480 H 0.34128 0.08801 0.43219
 C481 C 0.67206 0.83753 0.85156
 C482 C 0.66667 0.86318 0.88733
 C483 C 0.70821 0.88982 0.91692
 C484 C 0.75663 0.89183 0.90978
 C485 C 0.76198 0.86513 0.87391
 C486 C 0.71922 0.83805 0.84434
 C487 C 0.80949 0.86503 0.87012
 N488 N 0.84927 0.89178 0.89894
 N489 N 0.84479 0.91831 0.93156
 C490 C 0.79990 0.91924 0.93799
 H491 H 0.63902 0.81681 0.82950
 H492 H 0.62928 0.86100 0.89279
 H493 H 0.81543 0.84350 0.84514
 H494 H 0.79848 0.94142 0.96507
 C495 C 0.17218 0.29861 0.36111
 C496 C 0.16115 0.31962 0.39748
 C497 C 0.20023 0.34854 0.42838
 C498 C 0.25214 0.35839 0.42136
 C499 C 0.26342 0.33667 0.38453
 C500 C 0.22273 0.30623 0.35425
 C501 C 0.31473 0.34480 0.38051
 N502 N 0.35224 0.37431 0.41015
 N503 N 0.34198 0.39601 0.44375
 C504 C 0.29331 0.38913 0.45034
 H505 H 0.14065 0.27543 0.33845
 H506 H 0.12126 0.31168 0.40250
 H507 H 0.32560 0.32788 0.35449
 H508 H 0.28731 0.40788 0.47807
 C509 C 0.27732 0.12415 0.84985
 C510 C 0.28114 0.09939 0.88710
 C511 C 0.31313 0.12603 0.92318
 C512 C 0.34826 0.17842 0.91785
 C513 C 0.34596 0.20382 0.87884
 C514 C 0.30658 0.17657 0.84605
 C515 C 0.38402 0.25519 0.87431
 N516 N 0.42043 0.27895 0.90645
 N517 N 0.42237 0.25511 0.94269
 C518 C 0.38806 0.20574 0.94923
 H519 H 0.24871 0.10173 0.82481
 H520 H 0.25475 0.05927 0.88935
 H521 H 0.38774 0.27691 0.84508
 H522 H 0.39335 0.18805 0.97828
 C523 C 0.74399 0.67263 0.36748
 C524 C 0.75311 0.65217 0.40525
 C525 C 0.80424 0.66484 0.41682
 C526 C 0.84708 0.69784 0.38885
 C527 C 0.83774 0.71828 0.34982
 C528 C 0.78572 0.70669 0.33999
 C529 C 0.88093 0.74905 0.32173
 N530 N 0.93006 0.76023 0.33320
 N531 N 0.93898 0.74261 0.37068
 C532 C 0.89925 0.71192 0.39892
 H533 H 0.70398 0.66309 0.36066
 H534 H 0.71991 0.62671 0.42615
 H535 H 0.87622 0.76365 0.29039
 H536 H 0.90888 0.69889 0.42892
 C537 C 0.07882 0.67887 0.84776
 C538 C 0.04806 0.66837 0.88592
 C539 C 0.03844 0.62889 0.91510
 C540 C 0.05844 0.59738 0.90258
 C541 C 0.09111 0.60905 0.86370
 C542 C 0.10240 0.65110 0.83676
 C543 C 0.10966 0.57696 0.85224
 N544 N 0.09594 0.53577 0.87750
 N545 N 0.06411 0.52387 0.91287
 C546 C 0.04429 0.55267 0.92580
 H547 H 0.08700 0.71150 0.82817
 H548 H 0.03506 0.69425 0.89398
 H549 H 0.13353 0.58314 0.82276
 H550 H 0.01643 0.53940 0.95325
 C551 C 0.65801 0.24441 0.35073
 C552 C 0.62720 0.23024 0.38928
 C553 C 0.61876 0.18883 0.41465
 C554 C 0.63999 0.15963 0.39926
 C555 C 0.67176 0.17425 0.35982
 C556 C 0.68206 0.21802 0.33614
 C557 C 0.69100 0.14372 0.34499
 N558 N 0.67968 0.10192 0.36843
 N559 N 0.65015 0.08838 0.40544
 C560 C 0.62976 0.11562 0.42154
 H561 H 0.66533 0.27810 0.33346
 H562 H 0.61145 0.25313 0.40036
 H563 H 0.71379 0.15184 0.31449
 H564 H 0.60512 0.10216 0.45117
 C565 C 0.88342 0.36809 0.88010
 C566 C 0.91387 0.37938 0.91819
 C567 C 0.96643 0.39042 0.91601
 C568 C 0.99002 0.39716 0.87276
 C569 C 0.95860 0.38559 0.83372
 C570 C 0.90394 0.36777 0.83793
 C571 C 0.98348 0.39391 0.79169
 N572 N 1.03613 0.41280 0.78896
 N573 N 1.06570 0.42449 0.82532
 C574 C 1.04463 0.41782 0.86693
 H575 H 0.84206 0.35564 0.88433
 H576 H 0.89371 0.37400 0.94989
 H577 H 0.96218 0.38743 0.76089
 H578 H 1.07107 0.43036 0.89501
 C579 C 0.32434 0.80886 0.36133
 C580 C 0.35657 0.82678 0.39872
 C581 C 0.37065 0.79639 0.42219
 C582 C 0.35109 0.74656 0.40820
 C583 C 0.31842 0.72828 0.37006
 C584 C 0.30558 0.76015 0.34608
 C585 C 0.29805 0.67789 0.35844
 N586 N 0.31026 0.64852 0.38296
 N587 N 0.34113 0.66584 0.41853
 C588 C 0.36179 0.71370 0.43207
 H589 H 0.31408 0.83330 0.34400
 H590 H 0.37085 0.86478 0.40938
 H591 H 0.27204 0.66111 0.33060
 H592 H 0.38576 0.72532 0.46172
 C593 C 0.22571 0.83403 0.15401
 C594 C 0.23562 0.86454 0.11661
 C595 C 0.28093 0.88053 0.09040
 C596 C 0.31912 0.86888 0.10434
 C597 C 0.30969 0.83865 0.14308
 C598 C 0.26103 0.81876 0.16674
 C599 C 0.34984 0.83007 0.15695
 N600 N 0.39513 0.84900 0.13279
 N601 N 0.40330 0.87626 0.09593
 C602 C 0.36695 0.88696 0.08095
 H603 H 0.18844 0.81978 0.17144
 H604 H 0.20618 0.87349 0.10661
 H605 H 0.34653 0.80979 0.18735
 H606 H 0.37607 0.91012 0.05132
 C607 C 0.81536 0.42182 0.64619
 C608 C 0.82284 0.45090 0.60849
 C609 C 0.86626 0.46582 0.58008
 C610 C 0.90514 0.45421 0.59208
 C611 C 0.89797 0.42497 0.63114
 C612 C 0.85105 0.40645 0.65718
 C613 C 0.93860 0.41619 0.64292
 N614 N 0.98215 0.43393 0.61658
 N615 N 0.98825 0.46040 0.57960
 C616 C 0.95148 0.47146 0.56662
 H617 H 0.77940 0.40877 0.66541
 H618 H 0.79265 0.45941 0.60004
 H619 H 0.93713 0.39671 0.67332
 H620 H 0.95923 0.49428 0.53697
 C621 C 0.70502 0.15849 0.14188
 C622 C 0.69357 0.12813 0.10453
 C623 C 0.73393 0.13266 0.07654
 C624 C 0.78698 0.16751 0.08685
 C625 C 0.79879 0.19832 0.12488
 C626 C 0.75719 0.19364 0.15257
 C627 C 0.85198 0.23413 0.13277
 N628 N 0.89023 0.23776 0.10500
 N629 N 0.87906 0.20815 0.06979
 C630 C 0.82881 0.17315 0.05978
 H631 H 0.67289 0.15493 0.16234
 H632 H 0.65281 0.10181 0.09669
 H633 H 0.86374 0.25952 0.16044
 H634 H 0.82204 0.15017 0.03072
 C635 C 0.13250 0.59846 0.63573
 C636 C 0.12193 0.56719 0.59920
 C637 C 0.16149 0.56108 0.57985
 C638 C 0.21320 0.58803 0.59691
 C639 C 0.22430 0.62034 0.63384
 C640 C 0.18307 0.62480 0.65397
 C641 C 0.27700 0.64871 0.64788
 N642 N 0.31503 0.64385 0.62717
 N643 N 0.30432 0.61299 0.59303
 C644 C 0.25486 0.58512 0.57708
 H645 H 0.10084 0.60213 0.64992
 H646 H 0.08252 0.54764 0.58580
 H647 H 0.28896 0.67543 0.67444
 H648 H 0.24883 0.56155 0.54865
 C649 C 0.81229 0.69824 0.14957
 C650 C 0.83202 0.68409 0.11384
 C651 C 0.86090 0.71807 0.07952
 C652 C 0.87285 0.76825 0.08273
 C653 C 0.85196 0.78257 0.11867
 C654 C 0.82096 0.74684 0.15222
 C655 C 0.86117 0.83169 0.11848
 N656 N 0.89148 0.86448 0.08590
 N657 N 0.91284 0.85153 0.05327
 C658 C 0.90459 0.80461 0.05056
 H659 H 0.78885 0.67053 0.17491
 H660 H 0.82239 0.64558 0.11181
 H661 H 0.84433 0.84448 0.14339
 H662 H 0.92307 0.79620 0.02342
 C663 C 0.34007 0.18108 0.65223
 C664 C 0.36485 0.17366 0.61586
 C665 C 0.38861 0.21004 0.58217
 C666 C 0.38943 0.25578 0.58619
 C667 C 0.36362 0.26317 0.62288
 C668 C 0.33867 0.22524 0.65615
 C669 C 0.36201 0.30762 0.62386
 N670 N 0.38673 0.34286 0.59144
 N671 N 0.41259 0.33663 0.55794
 C672 C 0.41482 0.29438 0.55420
 H673 H 0.32108 0.15173 0.67727
 H674 H 0.36367 0.13841 0.61305
 H675 H 0.34098 0.31471 0.64960
 H676 H 0.43656 0.29143 0.52635
 C677 C 0.18237 0.30701 0.15275
 C678 C 0.16140 0.31744 0.11553
 C679 C 0.12389 0.27874 0.08925
 C680 C 0.10501 0.22847 0.10207
 C681 C 0.12761 0.21760 0.13892
 C682 C 0.16685 0.25762 0.16466
 C683 C 0.11135 0.16698 0.14712
 N684 N 0.07286 0.13044 0.12225
 N685 N 0.04975 0.14075 0.08933
 C686 C 0.06447 0.18845 0.07842
 H687 H 0.21220 0.33801 0.17175
 H688 H 0.17615 0.35604 0.10606
 H689 H 0.12886 0.15548 0.17233
 H690 H 0.04418 0.19467 0.05151
 C691 C 0.68176 0.84179 0.64208
 C692 C 0.66112 0.85446 0.60602
 C693 C 0.62139 0.81729 0.58006
 C694 C 0.60153 0.76635 0.59071
 C695 C 0.62360 0.75323 0.62641
 C696 C 0.66369 0.79159 0.65282
 C697 C 0.60606 0.70209 0.63287
 N698 N 0.56732 0.66709 0.60707
 N699 N 0.54518 0.67951 0.57486
 C700 C 0.56099 0.72787 0.56575
 H701 H 0.71256 0.87153 0.66151
 H702 H 0.67698 0.89355 0.59774
 H703 H 0.62309 0.68915 0.65732
 H704 H 0.54169 0.73577 0.53915
   
