data_POSCAR
  _audit_creation_date              2014-09-24
  _audit_creation_method            'ToBaCCo'
  _symmetry_space_group_name_H-M    'P1'
  _symmetry_Int_Tables_number       1
  _symmetry_cell_setting            triclinic
  loop_
  _symmetry_equiv_pos_as_xyz
 x,y,z
_cell_length_a 35.5546
_cell_length_b 37.5180
_cell_length_c 35.1325
_cell_angle_alpha 87.474000
_cell_angle_beta 89.278900
_cell_angle_gamma 90.470700
loop_
  _atom_site_label
  _atom_site_type_symbol
  _atom_site_fract_x
  _atom_site_fract_y
  _atom_site_fract_z
C1 C 0.22649 0.18124 0.23935
 C2 C 0.26233 0.17140 0.22659
 C3 C 0.28050 0.18972 0.19568
 C4 C 0.26218 0.21897 0.17769
 C5 C 0.22648 0.22938 0.19015
 C6 C 0.20882 0.21052 0.22089
 H7 H 0.27589 0.14854 0.24038
 H8 H 0.27463 0.23359 0.15349
 H9 H 0.18032 0.21737 0.22830
 C10 C -0.16572 0.82597 0.21177
 C11 C -0.19436 0.84247 0.18999
 C12 C -0.21519 0.82316 0.16416
 C13 C -0.20673 0.78727 0.15904
 C14 C -0.17772 0.77047 0.17944
 C15 C -0.15817 0.78967 0.20663
 H16 H -0.20185 0.86997 0.19357
 H17 H -0.22162 0.77275 0.13781
 H18 H -0.13663 0.77667 0.22357
 C19 C -0.18456 0.20063 -0.22011
 C20 C -0.22159 0.19306 -0.20695
 C21 C -0.23768 0.21185 -0.17690
 C22 C -0.21601 0.23824 -0.16012
 C23 C -0.17892 0.24542 -0.17203
 C24 C -0.16364 0.22699 -0.20237
 H25 H -0.23700 0.17143 -0.21859
 H26 H -0.22762 0.25261 -0.13661
 H27 H -0.13531 0.23324 -0.21240
 C28 C 0.20337 0.80281 -0.25998
 C29 C 0.18884 0.77019 -0.24456
 C30 C 0.20768 0.75119 -0.21532
 C31 C 0.24189 0.76474 -0.20199
 C32 C 0.25625 0.79793 -0.21605
 C33 C 0.23700 0.81621 -0.24554
 H34 H 0.16226 0.75983 -0.25400
 H35 H 0.25745 0.74899 -0.18132
 H36 H 0.24778 0.84173 -0.25683
 C37 C 0.13731 1.18510 0.78786
 C38 C 0.16904 1.16809 0.80303
 C39 C 0.19324 1.18563 0.82751
 C40 C 0.18598 1.22118 0.83591
 C41 C 0.15414 1.23889 0.82106
 C42 C 0.12992 1.22045 0.79716
 H43 H 0.17498 1.14109 0.79525
 H44 H 0.20467 1.23413 0.85507
 H45 H 0.10487 1.23352 0.78656
 C46 C 0.78945 0.77297 0.75778
 C47 C 0.75959 0.79029 0.77601
 C48 C 0.74509 0.77690 0.81131
 C49 C 0.76118 0.74645 0.82881
 C50 C 0.79160 0.72920 0.81184
 C51 C 0.80427 0.74191 0.77550
 H52 H 0.74862 0.81496 0.76408
 H53 H 0.75092 0.73711 0.85674
 H54 H 0.82641 0.72835 0.76076
 C55 C 0.18084 0.81148 1.26517
 C56 C 0.16848 0.78038 1.24802
 C57 C 0.18833 0.76617 1.21766
 C58 C 0.22137 0.78323 1.20412
 C59 C 0.23392 0.81486 1.21983
 C60 C 0.21389 0.82874 1.25070
 H61 H 0.14264 0.76723 1.25793
 H62 H 0.23619 0.77329 1.17970
 H63 H 0.22408 0.85292 1.26269
 C64 C 0.80261 1.19741 1.22562
 C65 C 0.77624 1.17634 1.20251
 C66 C 0.76379 1.18814 1.16674
 C67 C 0.77560 1.22129 1.15079
 C68 C 0.80029 1.24401 1.16949
 C69 C 0.81387 1.23330 1.20574
 H70 H 0.76702 1.15043 1.21414
 H71 H 0.76612 1.22914 1.12246
 H72 H 0.83366 1.24956 1.22045
 O73 O 0.51023 0.95770 0.91494
 O74 O 0.46714 0.95228 1.05095
 O75 O 0.56696 0.95064 0.99894
 O76 O 0.43894 0.94517 0.98109
 O77 O 0.53612 0.95997 1.05233
 O78 O 0.44533 0.96199 0.92428
 O79 O 0.41820 0.98032 1.03312
 O80 O 0.56346 0.97722 0.93140
 C81 C 0.54470 0.95493 0.91490
 C82 C 0.43246 0.95672 1.05464
 C83 C 0.55976 0.94249 1.03335
 C84 C 0.43601 0.93779 0.94774
 O85 O 0.44776 1.03266 0.92921
 O86 O 0.52436 1.03268 1.05002
 O87 O 0.56128 1.03983 0.95603
 O88 O 0.44089 1.04019 0.99821
 O89 O 0.45965 1.02514 1.05405
 O90 O 0.51805 1.03097 0.91280
 O91 O 0.40056 1.00418 0.95998
 O92 O 0.57324 1.01374 1.02269
 Co93 Co 0.48236 0.99607 0.92635
 Co94 Co 0.49688 0.99202 1.04664
 Co95 Co 0.55946 0.99509 0.97811
 Co96 Co 0.44196 0.99300 0.98767
 O97 O 0.49760 0.99316 0.98652
 C98 C 0.41206 1.02737 0.93308
 C99 C 0.55804 1.03643 1.04210
 C100 C 0.54552 1.04876 0.92525
 C101 C 0.44554 1.04816 1.03161
 O102 O 0.06934 0.46554 0.07113
 O103 O 0.03756 0.53466 -0.06277
 O104 O 0.06821 0.44812 0.00141
 O105 O 0.05513 0.57444 0.04998
 O106 O 0.05199 0.47106 -0.05268
 O107 O 0.07873 0.52624 0.07341
 O108 O 0.06357 0.56676 -0.01983
 O109 O 0.03274 0.42398 0.05955
 C110 C 0.06056 0.43385 0.07707
 C111 C 0.06239 0.55675 -0.05320
 C112 C 0.07496 0.45322 -0.03308
 C113 C 0.08051 0.55894 0.06794
 O114 O 0.00535 0.53756 0.09221
 O115 O -0.02113 0.45806 -0.03204
 O116 O -0.02785 0.45145 0.03678
 O117 O -0.00909 0.57023 -0.02737
 O118 O -0.03450 0.51989 -0.03770
 O119 O -0.00676 0.47240 0.08936
 O120 O -0.01660 0.57055 0.04419
 O121 O 0.00797 0.41242 -0.00741
 Co122 Co 0.03532 0.50051 0.07652
 Co123 Co 0.00995 0.49676 -0.04081
 Co124 Co 0.02004 0.45188 0.01772
 Co125 Co 0.02326 0.56421 0.01212
 O126 O 0.02338 0.50572 0.01794
 C127 C -0.01665 0.56143 0.07906
 C128 C -0.01372 0.42524 -0.03381
 C129 C -0.03240 0.45667 0.07152
 C130 C -0.03608 0.55282 -0.03941
 O131 O 1.03812 0.05359 0.46942
 O132 O 0.90133 0.03870 0.52950
 O133 O 0.97495 0.05844 0.45070
 O134 O 1.00017 0.02913 0.58462
 O135 O 0.91728 0.04165 0.45880
 O136 O 1.02277 0.06166 0.53658
 O137 O 0.93238 0.01765 0.57989
 O138 O 1.02578 0.02668 0.41697
 C139 C 1.04765 0.04825 0.43514
 C140 C 0.90749 0.03772 0.56483
 C141 C 0.94093 0.06466 0.44689
 C142 C 1.01245 0.05879 0.57072
 O143 O 1.05151 -0.00056 0.55538
 O144 O 0.92121 -0.03047 0.46267
 O145 O 1.01092 -0.03217 0.45238
 O146 O 0.94604 -0.05021 0.56315
 O147 O 0.90017 -0.02959 0.52970
 O148 O 1.05628 -0.01519 0.48720
 O149 O 1.01118 -0.04112 0.56209
 O150 O 0.95655 -0.00179 0.42201
 Co151 Co 1.03598 0.02274 0.51157
 Co152 Co 0.91638 0.00533 0.49581
 Co153 Co 0.99294 0.01264 0.45431
 Co154 Co 0.97344 -0.00957 0.56732
 O155 O 0.97635 0.00609 0.50905
 C156 C 1.04397 -0.03177 0.56544
 C157 C 0.93300 -0.02604 0.42936
 C158 C 1.04297 -0.03730 0.46510
 C159 C 0.91301 -0.05240 0.55270
 C160 C 1.20860 0.15976 0.26810
 C161 C 1.17454 0.16793 0.28585
 C162 C 1.15356 0.14160 0.31045
 C163 C 1.13012 0.15364 0.33946
 C164 C 1.10845 0.12946 0.36190
 C165 C 1.10954 0.09277 0.35533
 C166 C 1.13250 0.08079 0.32591
 C167 C 1.15454 0.10492 0.30377
 C168 C 1.08551 0.06689 0.37735
 C169 C 1.07475 0.07198 0.41490
 H170 H 1.16311 0.19451 0.28301
 H171 H 1.12841 0.18185 0.34461
 H172 H 1.09007 0.13970 0.38357
 H173 H 1.13326 0.05270 0.31998
 H174 H 1.17139 0.09494 0.28075
 H175 H 1.07664 0.04284 0.36388
 H176 H 1.22203 0.13502 0.27714
 H177 H 1.08626 0.09404 0.42998
 C178 C 0.85529 -0.15581 0.23875
 C179 C 0.85520 -0.11875 0.24237
 C180 C 0.87560 -0.10073 0.27268
 C181 C 0.88702 -0.06506 0.26621
 C182 C 0.90455 -0.04658 0.29488
 C183 C 0.91021 -0.06312 0.33089
 C184 C 0.89931 -0.09905 0.33728
 C185 C 0.88210 -0.11765 0.30848
 C186 C 0.92710 -0.04217 0.36115
 C187 C 0.91860 -0.04873 0.39969
 H188 H 0.84171 -0.10162 0.22122
 H189 H 0.88222 -0.05138 0.23892
 H190 H 0.91287 -0.01899 0.28920
 H191 H 0.90406 -0.11290 0.36444
 H192 H 0.87304 -0.14491 0.31472
 H193 H 0.94422 -0.01907 0.35266
 H194 H 0.87392 -0.17136 0.25699
 H195 H 0.89920 -0.06999 0.40847
 C196 C 0.83323 0.18174 0.75101
 C197 C 0.81570 0.15653 0.72879
 C198 C 0.83687 0.13450 0.70212
 C199 C 0.81807 0.12049 0.67118
 C200 C 0.83689 0.09862 0.64614
 C201 C 0.87494 0.09017 0.65178
 C202 C 0.89354 0.10364 0.68311
 C203 C 0.87478 0.12562 0.70805
 C204 C 0.89561 0.06635 0.62664
 C205 C 0.88580 0.06129 0.58893
 H206 H 0.78546 0.15346 0.72924
 H207 H 0.78868 0.12640 0.66643
 H208 H 0.82127 0.08778 0.62304
 H209 H 0.92270 0.09706 0.68838
 H210 H 0.88982 0.13480 0.73239
 H211 H 0.92066 0.05356 0.63778
 H212 H 0.86274 0.18742 0.74526
 H213 H 0.86286 0.07606 0.57609
 C214 C 1.18343 -0.17483 0.71084
 C215 C 1.15259 -0.18612 0.69005
 C216 C 1.13120 -0.16170 0.66418
 C217 C 1.09332 -0.16953 0.65738
 C218 C 1.07166 -0.14633 0.63467
 C219 C 1.08739 -0.11483 0.61801
 C220 C 1.12582 -0.10766 0.62352
 C221 C 1.14748 -0.13087 0.64632
 C222 C 1.06251 -0.09040 0.59572
 C223 C 1.07202 -0.05551 0.58335
 H224 H 1.14198 -0.21308 0.69431
 H225 H 1.08018 -0.19329 0.67039
 H226 H 1.04226 -0.15278 0.63065
 H227 H 1.13951 -0.08438 0.61031
 H228 H 1.17700 -0.12466 0.64951
 H229 H 1.03419 -0.09980 0.59055
 H230 H 1.19309 -0.14751 0.70657
 H231 H 1.09965 -0.04453 0.58816
 C232 C 0.31514 1.17640 1.18297
 C233 C 0.33607 1.18981 1.15138
 C234 C 0.36668 1.16892 1.13456
 C235 C 0.37230 1.17120 1.09496
 C236 C 0.39660 1.14772 1.07739
 C237 C 0.41573 1.12147 1.09929
 C238 C 0.41274 1.12146 1.13913
 C239 C 0.38854 1.14501 1.15668
 C240 C 0.43694 1.09241 1.08194
 C241 C 0.43094 1.08188 1.04492
 H242 H 0.32720 1.21332 1.13524
 H243 H 0.35646 1.19002 1.07738
 H244 H 0.39947 1.14982 1.04672
 H245 H 0.42792 1.10214 1.15672
 H246 H 0.38637 1.14374 1.18745
 H247 H 0.45465 1.07600 1.10035
 H248 H 0.32508 1.15226 1.19742
 H249 H 0.41314 1.09715 1.02570
 C250 C 0.28845 0.81424 0.79876
 C251 C 0.30669 0.80298 0.83230
 C252 C 0.33691 0.82455 0.84887
 C253 C 0.34017 0.82488 0.88861
 C254 C 0.36605 0.84761 0.90520
 C255 C 0.38956 0.87019 0.88215
 C256 C 0.38767 0.86824 0.84239
 C257 C 0.36173 0.84566 0.82587
 C258 C 0.41446 0.89780 0.89768
 C259 C 0.41789 0.90467 0.93626
 H260 H 0.29585 0.78069 0.84973
 H261 H 0.32162 0.80850 0.90692
 H262 H 0.36659 0.84790 0.93591
 H263 H 0.40571 0.88497 0.82390
 H264 H 0.36095 0.84509 0.79512
 H265 H 0.42896 0.91562 0.87715
 H266 H 0.29800 0.83908 0.78481
 H267 H 0.40552 0.88714 0.95827
 C268 C 0.75588 0.84170 1.14109
 C269 C 0.72330 0.82476 1.12910
 C270 C 0.69551 0.84369 1.10499
 C271 C 0.65700 0.83636 1.11042
 C272 C 0.63030 0.85496 1.08857
 C273 C 0.64190 0.88059 1.06035
 C274 C 0.68045 0.88667 1.05382
 C275 C 0.70704 0.86866 1.07614
 C276 C 0.61479 0.90188 1.03766
 C277 C 0.58089 0.91371 1.05286
 H278 H 0.71684 0.79780 1.13961
 H279 H 0.64759 0.81679 1.13214
 H280 H 0.60074 0.84914 1.09359
 H281 H 0.69001 0.90604 1.03195
 H282 H 0.73661 0.87409 1.07063
 H283 H 0.62426 0.91286 1.01010
 H284 H 0.75948 0.87009 1.13493
 H285 H 0.57245 0.90541 1.08163
 C286 C 0.72659 1.20358 0.83909
 C287 C 0.70128 1.17857 0.82532
 C288 C 0.66955 1.16309 0.84849
 C289 C 0.64139 1.14392 0.83036
 C290 C 0.61387 1.12480 0.85168
 C291 C 0.61405 1.12448 0.89175
 C292 C 0.64135 1.14476 0.90977
 C293 C 0.66888 1.16374 0.88851
 C294 C 0.58958 1.10043 0.91590
 C295 C 0.56027 1.07966 0.90240
 H296 H 0.70490 1.16888 0.79702
 H297 H 0.64147 1.14268 0.79961
 H298 H 0.59381 1.10916 0.83653
 H299 H 0.64241 1.14470 0.94059
 H300 H 0.69057 1.17721 0.90383
 H301 H 0.59715 1.09667 0.94561
 H302 H 0.71846 1.21702 0.86453
 H303 H 0.54968 1.08423 0.87392
 C304 C 0.20639 0.25768 0.16824
 C305 C 0.17901 0.27874 0.18469
 C306 C 0.15486 0.30306 0.16194
 C307 C 0.14084 0.33369 0.17839
 C308 C 0.11706 0.35666 0.15786
 C309 C 0.10638 0.34896 0.12070
 C310 C 0.11948 0.31777 0.10465
 C311 C 0.14380 0.29512 0.12494
 C312 C 0.08143 0.37286 0.09840
 C313 C 0.08363 0.40974 0.10066
 H314 H 0.17567 0.27805 0.21540
 H315 H 0.14845 0.33993 0.20713
 H316 H 0.10655 0.38007 0.17131
 H317 H 0.11120 0.31116 0.07622
 H318 H 0.15321 0.27106 0.11198
 H319 H 0.06327 0.36148 0.07748
 H320 H 0.21346 0.26209 0.13831
 H321 H 0.10455 0.42151 0.11851
 C322 C -0.15685 0.27210 -0.15184
 C323 C -0.11773 0.27073 -0.14873
 C324 C -0.09590 0.29591 -0.12625
 C325 C -0.06043 0.28571 -0.11272
 C326 C -0.03935 0.30861 -0.09082
 C327 C -0.05307 0.34237 -0.08251
 C328 C -0.08855 0.35267 -0.09624
 C329 C -0.10955 0.32985 -0.11817
 C330 C -0.03031 0.36574 -0.05876
 C331 C -0.03508 0.40255 -0.05877
 H332 H -0.10273 0.24874 -0.16064
 H333 H -0.04920 0.25976 -0.11871
 H334 H -0.01219 0.29998 -0.08045
 H335 H -0.10067 0.37805 -0.08971
 H336 H -0.13629 0.33912 -0.12886
 H337 H -0.00847 0.35368 -0.04136
 H338 H -0.17239 0.29130 -0.13594
 H339 H -0.05470 0.41567 -0.07789
 C340 C 0.19034 0.71777 -0.19866
 C341 C 0.19732 0.70504 -0.16139
 C342 C 0.17783 0.67422 -0.14162
 C343 C 0.19071 0.66293 -0.10550
 C344 C 0.17155 0.63641 -0.08380
 C345 C 0.13906 0.62031 -0.09765
 C346 C 0.12663 0.63066 -0.13434
 C347 C 0.14583 0.65736 -0.15614
 C348 C 0.11719 0.59589 -0.07138
 C349 C 0.08792 0.57357 -0.08216
 H350 H 0.21707 0.71945 -0.14453
 H351 H 0.21522 0.67535 -0.09351
 H352 H 0.18164 0.62910 -0.05557
 H353 H 0.10124 0.61945 -0.14571
 H354 H 0.13451 0.66539 -0.18354
 H355 H 0.12352 0.59676 -0.04132
 H356 H 0.16978 0.70449 -0.21558
 H357 H 0.08253 0.56951 -0.11190
 C358 C -0.16770 0.73362 0.16981
 C359 C -0.13214 0.71891 0.17575
 C360 C -0.11890 0.68682 0.15661
 C361 C -0.08800 0.66811 0.17154
 C362 C -0.07191 0.64032 0.15182
 C363 C -0.08634 0.63089 0.11650
 C364 C -0.11767 0.64913 0.10196
 C365 C -0.13386 0.67674 0.12173
 C366 C -0.06718 0.60524 0.09215
 C367 C -0.04131 0.58002 0.10549
 H368 H -0.11199 0.73237 0.19302
 H369 H -0.07560 0.67569 0.19804
 H370 H -0.04717 0.62759 0.16351
 H371 H -0.12896 0.64275 0.07455
 H372 H -0.15681 0.69118 0.10852
 H373 H -0.07259 0.60741 0.06184
 H374 H -0.18801 0.71895 0.15381
 H375 H -0.03756 0.57501 0.13576
 C376 C 1.11197 0.16420 0.76393
 C377 C 1.08691 0.17906 0.73745
 C378 C 1.06458 0.15643 0.71238
 C379 C 1.05597 0.16923 0.67541
 C380 C 1.03794 0.14715 0.65005
 C381 C 1.02794 0.11183 0.66141
 C382 C 1.03425 0.09997 0.69920
 C383 C 1.05243 0.12194 0.72442
 C384 C 1.01257 0.08608 0.63463
 C385 C 1.01890 0.08898 0.59530
 H386 H 1.08647 0.20768 0.73211
 H387 H 1.06431 0.19598 0.66572
 H388 H 1.03228 0.15779 0.62162
 H389 H 1.02620 0.07315 0.70894
 H390 H 1.05722 0.11171 0.75322
 H391 H 0.99998 0.06165 0.64674
 H392 H 1.11524 0.13550 0.76542
 H393 H 1.03256 0.11246 0.58243
 C394 C 0.80740 -0.21333 0.72412
 C395 C 0.79812 -0.18166 0.70396
 C396 C 0.82359 -0.16433 0.67477
 C397 C 0.80885 -0.13936 0.64819
 C398 C 0.83256 -0.12014 0.62251
 C399 C 0.87174 -0.12545 0.62301
 C400 C 0.88638 -0.15071 0.64933
 C401 C 0.86270 -0.16989 0.67496
 C402 C 0.89846 -0.10307 0.59941
 C403 C 0.88790 -0.08080 0.56858
 H404 H 0.77193 -0.16838 0.70963
 H405 H 0.77893 -0.13413 0.64782
 H406 H 0.82004 -0.10027 0.60354
 H407 H 0.91645 -0.15493 0.65081
 H408 H 0.87549 -0.18785 0.69585
 H409 H 0.92758 -0.10260 0.60815
 H410 H 0.83139 -0.22782 0.71376
 H411 H 0.85960 -0.08187 0.55778
 C412 C 1.15832 -0.17556 0.29479
 C413 C 1.16588 -0.14536 0.31555
 C414 C 1.13833 -0.13156 0.34330
 C415 C 1.15118 -0.11133 0.37324
 C416 C 1.12572 -0.09649 0.39871
 C417 C 1.08668 -0.10143 0.39455
 C418 C 1.07391 -0.12168 0.36460
 C419 C 1.09932 -0.13656 0.33925
 C420 C 1.05847 -0.08290 0.41794
 C421 C 1.06677 -0.06612 0.45155
 H422 H 1.19272 -0.13175 0.31263
 H423 H 1.18103 -0.10663 0.37667
 H424 H 1.13687 -0.08015 0.42056
 H425 H 1.04403 -0.12531 0.36021
 H426 H 1.08813 -0.15083 0.31576
 H427 H 1.03055 -0.07968 0.40628
 H428 H 1.13281 -0.19038 0.30226
 H429 H 1.09370 -0.07006 0.46499
 C430 C 0.81554 0.18017 0.26539
 C431 C 0.84270 0.19334 0.28928
 C432 C 0.85380 0.17220 0.32390
 C433 C 0.88801 0.17953 0.34160
 C434 C 0.90037 0.15776 0.37233
 C435 C 0.87849 0.12834 0.38600
 C436 C 0.84343 0.12225 0.36949
 C437 C 0.83127 0.14374 0.33873
 C438 C 0.89135 0.10249 0.41612
 C439 C 0.92906 0.09700 0.42515
 H440 H 0.85793 0.21772 0.28111
 H441 H 0.90567 0.20154 0.33100
 H442 H 0.92706 0.16398 0.38498
 H443 H 0.82583 0.10003 0.37966
 H444 H 0.80442 0.13764 0.32622
 H445 H 0.87058 0.08391 0.42842
 H446 H 0.81144 0.19236 0.24590
 H447 H 0.95083 0.11430 0.41273
 C448 C 0.14376 0.27570 -0.16883
 C449 C 0.16638 0.29865 -0.14833
 C450 C 0.15314 0.33365 -0.13552
 C451 C 0.16898 0.34775 -0.10293
 C452 C 0.15533 0.37936 -0.08835
 C453 C 0.12555 0.39765 -0.10632
 C454 C 0.11138 0.38471 -0.14024
 C455 C 0.12494 0.35309 -0.15472
 C456 C 0.10679 0.42869 -0.08969
 C457 C 0.10677 0.43501 -0.05077
 H458 H 0.19381 0.29017 -0.13894
 H459 H 0.19129 0.33370 -0.08803
 H460 H 0.16792 0.38899 -0.06287
 H461 H 0.08884 0.39851 -0.15502
 H462 H 0.11310 0.34402 -0.18083
 H463 H 0.08677 0.44309 -0.10745
 H464 H 0.11600 0.28455 -0.17698
 H465 H 0.12535 0.42029 -0.03184
 C466 C -0.18807 0.27601 0.14992
 C467 C -0.16556 0.30269 0.16501
 C468 C -0.14925 0.33296 0.14144
 C469 C -0.13772 0.36389 0.15929
 C470 C -0.11920 0.39167 0.13855
 C471 C -0.11130 0.38883 0.09942
 C472 C -0.12393 0.35836 0.08140
 C473 C -0.14248 0.33065 0.10210
 C474 C -0.08793 0.41535 0.07683
 C475 C -0.06487 0.44095 0.09280
 H476 H -0.15987 0.30229 0.19515
 H477 H -0.14259 0.36637 0.18956
 H478 H -0.11080 0.41487 0.15358
 H479 H -0.11816 0.35530 0.05136
 H480 H -0.14996 0.30695 0.08738
 H481 H -0.08479 0.41131 0.04659
 H482 H -0.19741 0.28043 0.12089
 H483 H -0.06650 0.44558 0.12289
 C484 C -0.19035 0.70150 -0.16709
 C485 C -0.15493 0.68807 -0.17645
 C486 C -0.13271 0.66598 -0.14936
 C487 C -0.09381 0.67206 -0.14829
 C488 C -0.07165 0.65282 -0.12240
 C489 C -0.08768 0.62630 -0.09784
 C490 C -0.12657 0.61946 -0.09929
 C491 C -0.14905 0.63942 -0.12475
 C492 C -0.06283 0.60731 -0.07065
 C493 C -0.06681 0.57126 -0.05966
 H494 H -0.13976 0.69833 -0.20143
 H495 H -0.08063 0.69235 -0.16700
 H496 H -0.04174 0.65852 -0.12176
 H497 H -0.13964 0.59935 -0.08032
 H498 H -0.17896 0.63392 -0.12540
 H499 H -0.03756 0.62135 -0.06264
 H500 H -0.20262 0.69273 -0.13983
 H501 H -0.09036 0.55583 -0.06947
 C502 C 0.17128 0.73612 0.19799
 C503 C 0.19123 0.71339 0.17485
 C504 C 0.17131 0.68849 0.15050
 C505 C 0.18626 0.65476 0.14396
 C506 C 0.16693 0.63095 0.12136
 C507 C 0.13276 0.64103 0.10440
 C508 C 0.11877 0.67528 0.10983
 C509 C 0.13766 0.69869 0.13277
 C510 C 0.11052 0.61709 0.08097
 C511 C 0.11048 0.57991 0.08524
 H512 H 0.22167 0.71328 0.17505
 H513 H 0.21253 0.64666 0.15686
 H514 H 0.17892 0.60503 0.11695
 H515 H 0.09273 0.68381 0.09672
 H516 H 0.12608 0.72497 0.13627
 H517 H 0.08977 0.62960 0.06252
 H518 H 0.14118 0.73209 0.20137
 H519 H 0.13003 0.56634 0.10413
 C520 C 0.22613 1.16717 0.84465
 C521 C 0.22631 1.13024 0.85216
 C522 C 0.25814 1.11016 0.86916
 C523 C 0.25094 1.07586 0.88521
 C524 C 0.27992 1.05541 0.90093
 C525 C 0.31699 1.06850 0.90054
 C526 C 0.32445 1.10287 0.88434
 C527 C 0.29527 1.12350 0.86871
 C528 C 0.34634 1.04580 0.91851
 C529 C 0.38502 1.05059 0.91275
 H530 H 0.20087 1.11517 0.84725
 H531 H 0.22267 1.06483 0.88577
 H532 H 0.27332 1.02912 0.91335
 H533 H 0.35251 1.11418 0.88407
 H534 H 0.30207 1.14955 0.85595
 H535 H 0.33676 1.02342 0.93675
 H536 H 0.24940 1.18332 0.85379
 H537 H 0.39589 1.07134 0.89319
 C538 C 0.26706 0.83329 1.20183
 C539 C 0.27045 0.87042 1.19831
 C540 C 0.29847 0.88891 1.17253
 C541 C 0.29032 0.92321 1.15754
 C542 C 0.31475 0.94067 1.13125
 C543 C 0.34824 0.92451 1.11970
 C544 C 0.35697 0.89046 1.13542
 C545 C 0.33244 0.87293 1.16169
 C546 C 0.37239 0.94369 1.09057
 C547 C 0.40987 0.93534 1.08281
 H548 H 0.24883 0.88650 1.21090
 H549 H 0.26447 0.93623 1.16548
 H550 H 0.30730 0.96688 1.11969
 H551 H 0.38222 0.87682 1.12709
 H552 H 0.34024 0.84692 1.17334
 H553 H 0.36038 0.96655 1.07535
 H554 H 0.28622 0.81716 1.18591
 H555 H 0.42377 0.91414 1.09883
 C556 C 0.74014 1.16343 1.14548
 C557 C 0.71251 1.17444 1.11979
 C558 C 0.68881 1.14821 1.10065
 C559 C 0.65093 1.15581 1.09342
 C560 C 0.62764 1.13045 1.07721
 C561 C 0.64213 1.09721 1.06746
 C562 C 0.68041 1.09037 1.07310
 C563 C 0.70351 1.11547 1.08971
 C564 C 0.61855 1.06931 1.05088
 C565 C 0.57992 1.06574 1.05769
 H566 H 0.70588 1.20250 1.11627
 H567 H 0.63917 1.18110 1.10107
 H568 H 0.59854 1.13707 1.07208
 H569 H 0.69238 1.06523 1.06521
 H570 H 0.73290 1.10928 1.09381
 H571 H 0.63268 1.04929 1.03473
 H572 H 0.74280 1.13516 1.15253
 H573 H 0.56541 1.08414 1.07552
 C574 C 0.71624 0.79639 0.83280
 C575 C 0.69108 0.82049 0.81583
 C576 C 0.66687 0.84397 0.83826
 C577 C 0.67759 0.85495 0.87435
 C578 C 0.65560 0.87903 0.89385
 C579 C 0.62236 0.89255 0.87794
 C580 C 0.61149 0.88154 0.84190
 C581 C 0.63372 0.85762 0.82220
 C582 C 0.60133 0.91963 0.89874
 C583 C 0.56329 0.92708 0.89344
 H584 H 0.68860 0.82204 0.78513
 H585 H 0.70357 0.84598 0.88713
 H586 H 0.66484 0.88748 0.92134
 H587 H 0.58659 0.89213 0.82830
 H588 H 0.62520 0.85002 0.79418
 H589 H 0.61634 0.93362 0.92031
 H590 H 0.71478 0.79138 0.86337
 H591 H 0.54654 0.91151 0.87464
   
