data_POSCAR
  _audit_creation_date              2014-09-24
  _audit_creation_method            'ToBaCCo'
  _symmetry_space_group_name_H-M    'P1'
  _symmetry_Int_Tables_number       1
  _symmetry_cell_setting            triclinic
  loop_
  _symmetry_equiv_pos_as_xyz
 x,y,z
_cell_length_a 53.8629
_cell_length_b 54.0060
_cell_length_c 24.1997
_cell_angle_alpha 89.976300
_cell_angle_beta 90.018500
_cell_angle_gamma 120.383100
loop_
  _atom_site_label
  _atom_site_type_symbol
  _atom_site_fract_x
  _atom_site_fract_y
  _atom_site_fract_z
C1 C 0.48993 0.97348 0.53034
 C2 C 0.48364 0.97353 0.47338
 C3 C 0.49371 0.99970 0.44569
 C4 C 0.51081 1.02636 0.47206
 C5 C 0.51663 1.02655 0.52973
 C6 C 0.50690 1.00008 0.55690
 H7 H 0.50984 1.00014 0.60120
 H8 H 0.49022 0.99902 0.40146
 C9 C 0.02619 0.51583 0.52820
 C10 C 0.02629 0.51477 0.46994
 C11 C 0.00004 0.50141 0.44132
 C12 C -0.02666 0.48920 0.46897
 C13 C -0.02652 0.49023 0.52781
 C14 C -0.00016 0.50353 0.55622
 H15 H -0.00016 0.50400 0.60103
 H16 H 0.00069 0.50150 0.39654
 C17 C 0.48698 0.51316 0.53114
 C18 C 0.48711 0.51312 0.47239
 C19 C 0.49913 0.49901 0.44420
 C20 C 0.51134 0.48501 0.47218
 C21 C 0.51185 0.48517 0.53091
 C22 C 0.49950 0.49921 0.55903
 H23 H 0.49965 0.49929 0.60380
 H24 H 0.49899 0.49893 0.39936
 O25 O 0.37814 0.66020 -0.04493
 O26 O 0.37748 0.70767 -0.06107
 C27 C 0.36440 0.72118 -0.07107
 O28 O 0.34220 0.71682 -0.04431
 O29 O 0.29482 0.66867 -0.06476
 C30 C 0.28121 0.64211 -0.07596
 O31 O 0.28488 0.62393 -0.04924
 O32 O 0.33365 0.62567 -0.06615
 C33 C 0.36059 0.63901 -0.07443
 O34 O 0.37538 0.66683 0.06501
 O35 O 0.37742 0.71568 0.04883
 C36 C 0.35937 0.71952 0.07576
 O37 O 0.33269 0.70602 0.06493
 O38 O 0.28421 0.65896 0.04455
 C39 C 0.27982 0.63675 0.07113
 O40 O 0.29314 0.62354 0.06059
 O41 O 0.34052 0.62260 0.04364
 C42 C 0.36190 0.63994 0.07306
 Cr43 Cr 0.37554 0.68681 0.00190
 Cr44 Cr 0.31425 0.68683 0.00009
 Cr45 Cr 0.31384 0.62549 -0.00271
 O46 O 0.33453 0.66639 -0.00023
 O47 O 0.62178 0.33879 -0.04615
 O48 O 0.62316 0.29165 -0.06161
 C49 C 0.63656 0.27837 -0.07083
 O50 O 0.65862 0.28295 -0.04326
 O51 O 0.70587 0.33137 -0.06288
 C52 C 0.71925 0.35793 -0.07416
 O53 O 0.71513 0.37594 -0.04793
 O54 O 0.66624 0.37371 -0.06626
 C55 C 0.63937 0.36015 -0.07524
 O56 O 0.62383 0.33213 0.06394
 O57 O 0.62250 0.28358 0.04839
 C58 C 0.64047 0.27994 0.07610
 O59 O 0.66724 0.29368 0.06611
 O60 O 0.71564 0.34105 0.04658
 C61 C 0.71972 0.36325 0.07276
 O62 O 0.70620 0.37620 0.06164
 O63 O 0.65861 0.37653 0.04330
 C64 C 0.63709 0.35900 0.07220
 Cr65 Cr 0.62439 0.31234 0.00112
 Cr66 Cr 0.68605 0.31304 0.00159
 Cr67 Cr 0.68576 0.37403 -0.00223
 O68 O 0.66542 0.33313 0.00017
 C69 C 0.48326 0.92057 -0.36225
 C70 C 0.45501 0.89830 -0.37069
 C71 C 0.43839 0.90063 -0.41248
 C72 C 0.44989 0.92520 -0.44557
 C73 C 0.47843 0.94793 -0.43775
 C74 C 0.49484 0.94518 -0.39519
 C75 C 0.44277 0.87358 -0.33503
 C76 C 0.43254 0.85322 -0.30431
 C77 C 0.42060 0.82978 -0.26738
 C78 C 0.41044 0.81010 -0.23504
 C79 C 0.39835 0.78704 -0.19549
 C80 C 0.37321 0.78068 -0.16699
 C81 C 0.36197 0.75905 -0.12698
 C82 C 0.37579 0.74346 -0.11483
 C83 C 0.40089 0.74979 -0.14423
 C84 C 0.41208 0.77146 -0.18424
 H85 H 0.49632 0.91900 -0.32992
 H86 H 0.41631 0.88369 -0.41879
 H87 H 0.43586 0.92685 -0.47545
 H88 H 0.51697 0.96178 -0.38805
 H89 H 0.36243 0.79264 -0.17533
 H90 H 0.34261 0.75473 -0.10526
 H91 H 0.41206 0.73822 -0.13599
 H92 H 0.43159 0.77625 -0.20600
 C93 C 0.09927 0.57133 -0.41537
 C94 C 0.10340 0.55545 -0.37436
 C95 C 0.08244 0.52667 -0.36569
 C96 C 0.05742 0.51382 -0.39767
 C97 C 0.05310 0.52958 -0.43887
 C98 C 0.07420 0.55849 -0.44742
 C99 C 0.12872 0.56867 -0.34011
 C100 C 0.14950 0.57920 -0.31028
 C101 C 0.17332 0.59093 -0.27407
 C102 C 0.19320 0.60045 -0.24208
 C103 C 0.21636 0.61124 -0.20261
 C104 C 0.22244 0.59217 -0.17492
 C105 C 0.24387 0.60227 -0.13440
 C106 C 0.25951 0.63165 -0.12091
 C107 C 0.25357 0.65073 -0.14971
 C108 C 0.23210 0.64056 -0.19022
 H109 H 0.11528 0.59367 -0.42223
 H110 H 0.08538 0.51420 -0.33399
 H111 H 0.04142 0.49152 -0.39044
 H112 H 0.07111 0.57112 -0.47849
 H113 H 0.21035 0.56942 -0.18410
 H114 H 0.24789 0.58698 -0.11318
 H115 H 0.26519 0.67347 -0.14042
 H116 H 0.22752 0.65550 -0.21133
 C117 C 0.44716 0.52632 -0.35712
 C118 C 0.45116 0.55305 -0.37239
 C119 C 0.46723 0.56684 -0.41958
 C120 C 0.47915 0.55386 -0.45157
 C121 C 0.47498 0.52667 -0.43714
 C122 C 0.45903 0.51332 -0.38889
 C123 C 0.43911 0.56632 -0.33869
 C124 C 0.42890 0.57682 -0.30911
 C125 C 0.41693 0.58852 -0.27299
 C126 C 0.40680 0.59811 -0.24096
 C127 C 0.39497 0.60920 -0.20134
 C128 C 0.41332 0.63359 -0.17037
 C129 C 0.40209 0.64352 -0.12966
 C130 C 0.37228 0.62913 -0.11925
 C131 C 0.35395 0.60488 -0.15126
 C132 C 0.36526 0.59498 -0.19197
 H133 H 0.43477 0.51545 -0.32062
 H134 H 0.47085 0.58777 -0.43130
 H135 H 0.49252 0.56571 -0.48634
 H136 H 0.45480 0.49226 -0.37650
 H137 H 0.43636 0.64471 -0.17717
 H138 H 0.41683 0.66228 -0.10594
 H139 H 0.33092 0.59332 -0.14440
 H140 H 0.35087 0.57602 -0.21560
 C141 C 0.53280 0.09759 -0.41264
 C142 C 0.55162 0.10109 -0.36958
 C143 C 0.55906 0.08013 -0.36017
 C144 C 0.54771 0.05569 -0.39352
 C145 C 0.52882 0.05184 -0.43747
 C146 C 0.52140 0.07318 -0.44615
 C147 C 0.56285 0.12583 -0.33412
 C148 C 0.57228 0.14622 -0.30357
 C149 C 0.58336 0.16971 -0.26682
 C150 C 0.59289 0.18942 -0.23459
 C151 C 0.60435 0.21250 -0.19511
 C152 C 0.62945 0.21933 -0.16597
 C153 C 0.64010 0.24097 -0.12602
 C154 C 0.62575 0.25610 -0.11457
 C155 C 0.60070 0.24931 -0.14463
 C156 C 0.59007 0.22763 -0.18458
 H157 H 0.52661 0.11354 -0.41985
 H158 H 0.57363 0.08264 -0.32692
 H159 H 0.55441 0.04018 -0.38572
 H160 H 0.50602 0.07062 -0.47768
 H161 H 0.64064 0.20773 -0.17374
 H162 H 0.65945 0.24565 -0.10379
 H163 H 0.58912 0.26053 -0.13691
 H164 H 0.57059 0.22247 -0.20686
 C165 C 0.91681 0.47728 -0.36538
 C166 C 0.89727 0.44793 -0.37222
 C167 C 0.90254 0.43232 -0.41202
 C168 C 0.92730 0.44603 -0.44481
 C169 C 0.94691 0.47553 -0.43828
 C170 C 0.94153 0.49099 -0.39809
 C171 C 0.87215 0.43395 -0.33755
 C172 C 0.85147 0.42286 -0.30750
 C173 C 0.82771 0.41057 -0.27118
 C174 C 0.80783 0.40067 -0.23918
 C175 C 0.78462 0.38957 -0.19980
 C176 C 0.76934 0.36027 -0.18710
 C177 C 0.74772 0.34983 -0.14687
 C178 C 0.74118 0.36863 -0.11868
 C179 C 0.75640 0.39799 -0.13244
 C180 C 0.77796 0.40835 -0.17267
 H181 H 0.91298 0.48954 -0.33460
 H182 H 0.88763 0.40958 -0.41746
 H183 H 0.93127 0.43366 -0.47508
 H184 H 0.95641 0.51372 -0.39234
 H185 H 0.77436 0.34555 -0.20779
 H186 H 0.73644 0.32712 -0.13735
 H187 H 0.75192 0.41307 -0.11170
 H188 H 0.78969 0.43108 -0.18212
 C189 C 0.53199 0.43172 -0.42009
 C190 C 0.54836 0.44568 -0.37330
 C191 C 0.55243 0.47245 -0.35820
 C192 C 0.54034 0.48533 -0.38973
 C193 C 0.52408 0.47180 -0.43759
 C194 C 0.51984 0.44456 -0.45185
 C195 C 0.56061 0.43252 -0.33979
 C196 C 0.57097 0.42210 -0.31035
 C197 C 0.58308 0.41048 -0.27436
 C198 C 0.59328 0.40092 -0.24238
 C199 C 0.60514 0.38984 -0.20276
 C200 C 0.63479 0.40436 -0.19262
 C201 C 0.64607 0.39448 -0.15177
 C202 C 0.62776 0.36995 -0.12038
 C203 C 0.59802 0.35525 -0.13161
 C204 C 0.58683 0.36516 -0.17246
 H205 H 0.52831 0.41074 -0.43166
 H206 H 0.56506 0.48345 -0.32200
 H207 H 0.54463 0.50642 -0.37750
 H208 H 0.50624 0.43259 -0.48629
 H209 H 0.64915 0.42355 -0.21573
 H210 H 0.66904 0.40630 -0.14427
 H211 H 0.58330 0.33628 -0.10838
 H212 H 0.56383 0.35380 -0.17985
 C213 C 0.92027 0.44967 0.35640
 C214 C 0.89751 0.45372 0.37126
 C215 C 0.89971 0.46951 0.41864
 C216 C 0.92460 0.48119 0.45114
 C217 C 0.94771 0.47707 0.43703
 C218 C 0.94515 0.46131 0.38867
 C219 C 0.87222 0.44201 0.33698
 C220 C 0.85151 0.43205 0.30702
 C221 C 0.82780 0.42022 0.27058
 C222 C 0.80801 0.41001 0.23837
 C223 C 0.78495 0.39769 0.19869
 C224 C 0.77859 0.37237 0.17120
 C225 C 0.75713 0.36097 0.13077
 C226 C 0.74171 0.37479 0.11716
 C227 C 0.74800 0.40005 0.14563
 C228 C 0.76951 0.41142 0.18607
 H229 H 0.91879 0.43746 0.31976
 H230 H 0.88237 0.47314 0.43009
 H231 H 0.92610 0.49443 0.48596
 H232 H 0.96202 0.45711 0.37649
 H233 H 0.79045 0.36160 0.18058
 H234 H 0.75284 0.34148 0.10981
 H235 H 0.73655 0.41123 0.13624
 H236 H 0.77431 0.43108 0.20702
 C237 C 0.56571 0.09777 0.41401
 C238 C 0.55014 0.10092 0.37111
 C239 C 0.52167 0.07943 0.36148
 C240 C 0.50870 0.05490 0.39468
 C241 C 0.52393 0.05150 0.43875
 C242 C 0.55283 0.07327 0.44735
 C243 C 0.56343 0.12599 0.33636
 C244 C 0.57423 0.14674 0.30659
 C245 C 0.58645 0.17068 0.27085
 C246 C 0.59646 0.19077 0.23946
 C247 C 0.60786 0.21425 0.20080
 C248 C 0.58916 0.22072 0.17262
 C249 C 0.59984 0.24247 0.13286
 C250 C 0.62946 0.25807 0.12062
 C251 C 0.64818 0.25177 0.14998
 C252 C 0.63741 0.22996 0.18974
 H253 H 0.58792 0.11412 0.42138
 H254 H 0.50941 0.08166 0.32832
 H255 H 0.48639 0.03903 0.38684
 H256 H 0.56584 0.07106 0.47888
 H257 H 0.56624 0.20867 0.18081
 H258 H 0.58482 0.24675 0.11118
 H259 H 0.67107 0.26334 0.14161
 H260 H 0.65207 0.22510 0.21127
 C261 C 0.56719 0.47000 0.41041
 C262 C 0.55064 0.44891 0.37126
 C263 C 0.52138 0.43970 0.36530
 C264 C 0.50868 0.45147 0.39829
 C265 C 0.52508 0.47249 0.43787
 C266 C 0.55450 0.48183 0.44349
 C267 C 0.56358 0.43700 0.33626
 C268 C 0.57389 0.42688 0.30594
 C269 C 0.58547 0.41500 0.26932
 C270 C 0.59505 0.40494 0.23710
 C271 C 0.60624 0.39319 0.19752
 C272 C 0.59204 0.36357 0.18807
 C273 C 0.60223 0.35233 0.14780
 C274 C 0.62676 0.37064 0.11632
 C275 C 0.64108 0.40037 0.12671
 C276 C 0.63086 0.41152 0.16698
 H277 H 0.58989 0.47739 0.41515
 H278 H 0.50840 0.42348 0.33501
 H279 H 0.48600 0.44407 0.39325
 H280 H 0.56756 0.49827 0.47331
 H281 H 0.57291 0.34919 0.21140
 H282 H 0.59071 0.32936 0.14093
 H283 H 0.66005 0.41508 0.10339
 H284 H 0.64198 0.43450 0.17388
 C285 C 0.08352 0.55926 0.36441
 C286 C 0.10338 0.55016 0.37263
 C287 C 0.09834 0.52976 0.41352
 C288 C 0.07337 0.51835 0.44575
 C289 C 0.05330 0.52734 0.43743
 C290 C 0.05860 0.54789 0.39654
 C291 C 0.12843 0.56127 0.33782
 C292 C 0.14892 0.57075 0.30734
 C293 C 0.17236 0.58202 0.27029
 C294 C 0.19192 0.59177 0.23759
 C295 C 0.21475 0.60354 0.19741
 C296 C 0.22994 0.58950 0.18527
 C297 C 0.25133 0.60042 0.14460
 C298 C 0.25776 0.62554 0.11541
 C299 C 0.24255 0.63965 0.12842
 C300 C 0.22120 0.62869 0.16909
 H301 H 0.08717 0.57498 0.33282
 H302 H 0.11351 0.52246 0.42004
 H303 H 0.06950 0.50226 0.47662
 H304 H 0.04340 0.55511 0.38952
 H305 H 0.22507 0.56997 0.20687
 H306 H 0.26263 0.58904 0.13570
 H307 H 0.24695 0.65904 0.10691
 H308 H 0.20954 0.63970 0.17808
 C309 C 0.46914 0.90400 0.40610
 C310 C 0.44541 0.89759 0.37268
 C311 C 0.43405 0.91588 0.37246
 C312 C 0.44640 0.94051 0.40544
 C313 C 0.47016 0.94702 0.43924
 C314 C 0.48153 0.92863 0.43907
 C315 C 0.43318 0.87268 0.33754
 C316 C 0.42315 0.85207 0.30745
 C317 C 0.41169 0.82828 0.27138
 C318 C 0.40217 0.80830 0.23976
 C319 C 0.39115 0.78494 0.20091
 C320 C 0.41008 0.77868 0.17308
 C321 C 0.39969 0.75702 0.13316
 C322 C 0.37013 0.74131 0.12040
 C323 C 0.35119 0.74742 0.14939
 C324 C 0.36166 0.76912 0.18931
 H325 H 0.47822 0.89010 0.40631
 H326 H 0.41577 0.91118 0.34657
 H327 H 0.43738 0.95445 0.40483
 H328 H 0.50010 0.93348 0.46417
 H329 H 0.43296 0.79082 0.18168
 H330 H 0.41487 0.75289 0.11174
 H331 H 0.32833 0.73576 0.14065
 H332 H 0.34681 0.77382 0.21055
 C333 C 0.47653 0.55814 0.36560
 C334 C 0.44732 0.54901 0.37217
 C335 C 0.43097 0.52806 0.41172
 C336 C 0.44383 0.51630 0.44457
 C337 C 0.47320 0.52556 0.43833
 C338 C 0.48939 0.54644 0.39836
 C339 C 0.43423 0.56087 0.33740
 C340 C 0.42386 0.57100 0.30723
 C341 C 0.41229 0.58295 0.27072
 C342 C 0.40278 0.59311 0.23855
 C343 C 0.39177 0.60507 0.19898
 C344 C 0.36728 0.58692 0.16797
 C345 C 0.35734 0.59830 0.12755
 C346 C 0.37182 0.62807 0.11748
 C347 C 0.39621 0.64619 0.14950
 C348 C 0.40611 0.63473 0.18991
 H349 H 0.48935 0.57425 0.33500
 H350 H 0.40832 0.52073 0.41694
 H351 H 0.43092 0.49996 0.47472
 H352 H 0.51203 0.55377 0.39284
 H353 H 0.35605 0.56392 0.17456
 H354 H 0.33848 0.58372 0.10381
 H355 H 0.40785 0.66918 0.14290
 H356 H 0.42515 0.64897 0.21360
   
