data_POSCAR
  _audit_creation_date              2014-09-24
  _audit_creation_method            'ToBaCCo'
  _symmetry_space_group_name_H-M    'P1'
  _symmetry_Int_Tables_number       1
  _symmetry_cell_setting            triclinic
  loop_
  _symmetry_equiv_pos_as_xyz
 x,y,z
_cell_length_a 38.7413
_cell_length_b 38.7362
_cell_length_c 51.0339
_cell_angle_alpha 89.940700
_cell_angle_beta 89.993800
_cell_angle_gamma 90.117900
loop_
  _atom_site_label
  _atom_site_type_symbol
  _atom_site_fract_x
  _atom_site_fract_y
  _atom_site_fract_z
C1 C 1.20260 0.25937 0.29098
 H2 H 1.20281 0.23145 0.29139
 C3 C 1.18272 0.27762 0.30907
 H4 H 1.16742 0.26374 0.32342
 C5 C 1.22323 0.31167 0.27241
 H6 H 1.23965 0.32483 0.25850
 C7 C 1.20372 0.33092 0.29020
 H8 H 1.20493 0.35885 0.28977
 N9 N 1.22226 0.27653 0.27309
 C10 C 1.24070 0.20158 0.21094
 H11 H 1.26863 0.20181 0.21057
 C12 C 1.22242 0.18183 0.19274
 H13 H 1.23626 0.16667 0.17835
 C14 C 1.18847 0.22208 0.22948
 H15 H 1.17535 0.23841 0.24341
 C16 C 1.16918 0.20270 0.21159
 H17 H 1.14125 0.20393 0.21195
 Zn18 Zn 1.25064 0.24952 0.25100
 N19 N 1.22359 0.22113 0.22885
 C20 C 1.27808 0.18738 0.27245
 N21 N 1.27899 0.22250 0.27315
 C22 C 1.29854 0.23964 0.29108
 C23 C 1.31837 0.22141 0.30924
 C24 C 1.29752 0.16809 0.29028
 C25 C 1.26066 0.29756 0.21097
 C26 C 1.27899 0.31740 0.19282
 C27 C 1.33219 0.29652 0.21176
 C28 C 1.31286 0.27704 0.22959
 N29 N 1.27773 0.27796 0.22890
 H30 H 1.26175 0.17424 0.25849
 H31 H 1.29827 0.26757 0.29147
 H32 H 1.33351 0.23544 0.32359
 H33 H 1.29624 0.14013 0.28976
 H34 H 1.23274 0.29730 0.21055
 H35 H 1.26518 0.33261 0.17842
 H36 H 1.36012 0.29531 0.21217
 H37 H 1.32594 0.26067 0.24354
 C38 C 1.18634 0.18254 0.19299
 C39 C 1.18341 0.31370 0.30875
 C40 C 1.31506 0.31673 0.19315
 C41 C 1.31774 0.18527 0.30894
 C42 C 0.70169 -0.23988 0.29004
 H43 H 0.70198 -0.26780 0.29052
 C44 C 0.68173 -0.22162 0.30807
 H45 H 0.66648 -0.23547 0.32246
 C46 C 0.72221 -0.18761 0.27136
 H47 H 0.73863 -0.17446 0.25745
 C48 C 0.70263 -0.16834 0.28907
 H49 H 0.70379 -0.14040 0.28860
 N50 N 0.72133 -0.22273 0.27214
 C51 C 0.74024 -0.29764 0.21017
 H52 H 0.76816 -0.29722 0.20982
 C53 C 0.72210 -0.31761 0.19204
 H54 H 0.73605 -0.33275 0.17770
 C55 C 0.68786 -0.27741 0.22866
 H56 H 0.67463 -0.26111 0.24255
 C57 C 0.66871 -0.29702 0.21085
 H58 H 0.64077 -0.29599 0.21121
 Zn59 Zn 0.74984 -0.24969 0.25017
 N60 N 0.72298 -0.27814 0.22803
 C61 C 0.77703 -0.31182 0.27170
 N62 N 0.77806 -0.27669 0.27237
 C63 C 0.79758 -0.25958 0.29034
 C64 C 0.81727 -0.27788 0.30853
 C65 C 0.79635 -0.33112 0.28958
 C66 C 0.75986 -0.20179 0.21010
 C67 C 0.77817 -0.18190 0.19199
 C68 C 0.83138 -0.20245 0.21112
 C69 C 0.81206 -0.22198 0.22892
 N70 N 0.77694 -0.22124 0.22811
 H71 H 0.76070 -0.32493 0.25773
 H72 H 0.79740 -0.23166 0.29073
 H73 H 0.83245 -0.26406 0.32295
 H74 H 0.79509 -0.35906 0.28917
 H75 H 0.73194 -0.20220 0.20961
 H76 H 0.76436 -0.16681 0.17752
 H77 H 0.85932 -0.20350 0.21162
 H78 H 0.82516 -0.23825 0.24293
 C79 C 0.68603 -0.31716 0.19232
 C80 C 0.68235 -0.18554 0.30765
 C81 C 0.81424 -0.18237 0.19243
 C82 C 0.81650 -0.31397 0.30822
 C83 C 0.70275 0.26059 -0.21058
 H84 H 0.70288 0.23267 -0.21021
 C85 C 0.68299 0.27885 -0.19243
 H86 H 0.66770 0.26499 -0.17808
 C87 C 0.72347 0.31286 -0.22914
 H88 H 0.73987 0.32600 -0.24307
 C89 C 0.70407 0.33213 -0.21129
 H90 H 0.70535 0.36007 -0.21169
 N91 N 0.72239 0.27773 -0.22849
 C92 C 0.74022 0.20270 -0.29067
 H93 H 0.76815 0.20277 -0.29108
 C94 C 0.72177 0.18297 -0.30878
 H95 H 0.73549 0.16765 -0.32314
 C96 C 0.68816 0.22354 -0.27207
 H97 H 0.67517 0.23999 -0.25815
 C98 C 0.66871 0.20419 -0.28987
 H99 H 0.64078 0.20554 -0.28945
 Zn100 Zn 0.75057 0.25063 -0.25067
 N101 N 0.72328 0.22239 -0.27275
 C102 C 0.77773 0.18831 -0.22920
 N103 N 0.77887 0.22344 -0.22858
 C104 C 0.79859 0.24050 -0.21071
 C105 C 0.81836 0.22216 -0.19257
 C106 C 0.79713 0.16896 -0.21137
 C107 C 0.76060 0.29867 -0.29070
 C108 C 0.77888 0.31849 -0.30890
 C109 C 0.83215 0.29738 -0.29011
 C110 C 0.81281 0.27795 -0.27224
 N111 N 0.77769 0.27899 -0.27284
 H112 H 0.76127 0.17523 -0.24310
 H113 H 0.79851 0.26842 -0.21034
 H114 H 0.83370 0.23597 -0.17824
 H115 H 0.79578 0.14103 -0.21174
 H116 H 0.73268 0.29851 -0.29102
 H117 H 0.76489 0.33373 -0.32320
 H118 H 0.86009 0.29599 -0.28966
 H119 H 0.82590 0.26152 -0.25833
 C120 C 0.68570 0.18386 -0.30846
 C121 C 0.68378 0.31494 -0.19272
 C122 C 0.81501 0.31772 -0.30870
 C123 C 0.81749 0.18608 -0.19282
 C124 C 1.20241 -0.24018 -0.20979
 H125 H 1.20247 -0.26810 -0.20933
 C126 C 1.18279 -0.22176 -0.19165
 H127 H 1.16753 -0.23550 -0.17721
 C128 C 1.22323 -0.18806 -0.22855
 H129 H 1.23963 -0.17505 -0.24254
 C130 C 1.20398 -0.16864 -0.21072
 H131 H 1.20536 -0.14071 -0.21119
 N132 N 1.22203 -0.22319 -0.22779
 C133 C 1.23982 -0.29836 -0.28973
 H134 H 1.26774 -0.29811 -0.29021
 C135 C 1.22142 -0.31827 -0.30774
 H136 H 1.23516 -0.33352 -0.32213
 C137 C 1.18771 -0.27779 -0.27101
 H138 H 1.17469 -0.26138 -0.25708
 C139 C 1.16830 -0.29733 -0.28871
 H140 H 1.14037 -0.29614 -0.28822
 Zn141 Zn 1.25008 -0.25042 -0.24988
 N142 N 1.22282 -0.27873 -0.27182
 C143 C 1.27705 -0.31265 -0.22842
 N144 N 1.27830 -0.27752 -0.22782
 C145 C 1.29809 -0.26046 -0.21001
 C146 C 1.31786 -0.27880 -0.19190
 C147 C 1.29643 -0.33200 -0.21061
 C148 C 1.26004 -0.20268 -0.28999
 C149 C 1.27830 -0.18292 -0.30820
 C150 C 1.33157 -0.20392 -0.28943
 C151 C 1.31230 -0.22331 -0.27152
 N152 N 1.27718 -0.22227 -0.27210
 H153 H 1.26050 -0.32571 -0.24226
 H154 H 1.29808 -0.23253 -0.20968
 H155 H 1.33326 -0.26501 -0.17759
 H156 H 1.29501 -0.35993 -0.21094
 H157 H 1.23212 -0.20286 -0.29030
 H158 H 1.26445 -0.16767 -0.32255
 H159 H 1.35950 -0.20516 -0.28910
 H160 H 1.32542 -0.23970 -0.25760
 C161 C 1.18536 -0.31761 -0.30729
 C162 C 1.18372 -0.18569 -0.19206
 C163 C 1.31437 -0.18367 -0.30798
 C164 C 1.31687 -0.31487 -0.19213
 C165 C 0.25933 0.20131 0.71021
 H166 H 0.23140 0.20164 0.70987
 C167 C 0.27743 0.18145 0.69203
 H168 H 0.26346 0.16630 0.67768
 C169 C 0.31174 0.22168 0.72868
 H170 H 0.32500 0.23800 0.74258
 C171 C 0.33086 0.20218 0.71082
 H172 H 0.35880 0.20331 0.71115
 N173 N 0.27661 0.22084 0.72808
 C174 C 0.20203 0.23945 0.79038
 H175 H 0.20238 0.26737 0.79075
 C176 C 0.18220 0.22121 0.80858
 H177 H 0.16713 0.23517 0.82297
 C178 C 0.22228 0.18717 0.77176
 H179 H 0.23854 0.17403 0.75779
 C180 C 0.20284 0.16790 0.78964
 H181 H 0.20399 0.13995 0.78919
 Zn182 Zn 0.24980 0.24927 0.75022
 N183 N 0.22147 0.22229 0.77243
 C184 C 0.18759 0.27668 0.72894
 N185 N 0.22272 0.27760 0.72815
 C186 C 0.23980 0.29714 0.71015
 C187 C 0.22149 0.31696 0.69205
 C188 C 0.16827 0.29613 0.71115
 C189 C 0.29797 0.25923 0.79010
 C190 C 0.31787 0.27755 0.80818
 C191 C 0.29698 0.33077 0.78923
 C192 C 0.27745 0.31145 0.77147
 N193 N 0.27835 0.27632 0.77220
 H194 H 0.17449 0.26033 0.74294
 H195 H 0.26772 0.29687 0.70967
 H196 H 0.23530 0.33216 0.67761
 H197 H 0.14034 0.29497 0.71165
 H198 H 0.29768 0.23131 0.79054
 H199 H 0.33309 0.26374 0.82257
 H200 H 0.29579 0.35870 0.78880
 H201 H 0.26105 0.32455 0.75755
 C202 C 0.18274 0.18511 0.80829
 C203 C 0.31351 0.18203 0.69227
 C204 C 0.31722 0.31363 0.80782
 C205 C 0.18541 0.31632 0.69248
 C206 C 0.75853 0.70247 0.71008
 H207 H 0.73061 0.70260 0.70972
 C208 C 0.77681 0.68272 0.69193
 H209 H 0.76296 0.66744 0.67758
 C210 C 0.81077 0.72318 0.72860
 H211 H 0.82390 0.73958 0.74251
 C212 C 0.83006 0.70380 0.71076
 H213 H 0.85799 0.70509 0.71115
 N214 N 0.77564 0.72210 0.72798
 C215 C 0.70078 0.74032 0.79029
 H216 H 0.70106 0.76824 0.79068
 C217 C 0.68101 0.72200 0.80849
 H218 H 0.66590 0.73590 0.82289
 C219 C 0.72118 0.68812 0.77164
 H220 H 0.73748 0.67504 0.75767
 C221 C 0.70179 0.66878 0.78952
 H222 H 0.70303 0.64083 0.78906
 Zn223 Zn 0.74864 0.75037 0.75015
 N224 N 0.72028 0.72325 0.77232
 C225 C 0.68643 0.77779 0.72883
 N226 N 0.72155 0.77879 0.72809
 C227 C 0.73862 0.79843 0.71014
 C228 C 0.72029 0.81823 0.69201
 C229 C 0.66710 0.79722 0.71102
 C230 C 0.79671 0.76019 0.79011
 C231 C 0.81671 0.77841 0.80818
 C232 C 0.79598 0.83173 0.78930
 C233 C 0.77635 0.81251 0.77154
 N234 N 0.77713 0.77737 0.77223
 H235 H 0.67334 0.76138 0.74279
 H236 H 0.76654 0.79823 0.70968
 H237 H 0.73410 0.83346 0.67759
 H238 H 0.63917 0.79595 0.71147
 H239 H 0.79635 0.73227 0.79052
 H240 H 0.83193 0.76452 0.82253
 H241 H 0.79492 0.85967 0.78888
 H242 H 0.75999 0.82568 0.75764
 C243 C 0.68165 0.68589 0.80820
 C244 C 0.81289 0.68352 0.69220
 C245 C 0.81622 0.81449 0.80785
 C246 C 0.68421 0.81748 0.69238
 C247 C 0.76092 0.20196 0.20970
 H248 H 0.73300 0.20204 0.20931
 C249 C 0.77927 0.18224 0.19159
 H250 H 0.76549 0.16693 0.17722
 C251 C 0.81309 0.22279 0.22828
 H252 H 0.82615 0.23924 0.24220
 C253 C 0.83245 0.20344 0.21048
 H254 H 0.86037 0.20479 0.21089
 N255 N 0.77797 0.22163 0.22760
 C256 C 0.70295 0.23958 0.28962
 H257 H 0.70312 0.26751 0.29000
 C258 C 0.68311 0.22122 0.30772
 H259 H 0.66780 0.23499 0.32207
 C260 C 0.72364 0.18742 0.27108
 H261 H 0.74007 0.17438 0.25717
 C262 C 0.70417 0.16805 0.28888
 H263 H 0.70541 0.14011 0.28848
 Zn264 Zn 0.75083 0.24976 0.24966
 N265 N 0.72259 0.22254 0.27174
 C266 C 0.68857 0.27680 0.22824
 N267 N 0.72369 0.27796 0.22757
 C268 C 0.74075 0.29767 0.20966
 C269 C 0.72242 0.31743 0.19153
 C270 C 0.66922 0.29618 0.21042
 C271 C 0.79867 0.25982 0.28966
 C272 C 0.81845 0.27814 0.30780
 C273 C 0.79748 0.33135 0.28887
 C274 C 0.77807 0.31202 0.27104
 N275 N 0.77907 0.27690 0.27174
 H276 H 0.67550 0.26033 0.24216
 H277 H 0.76867 0.29758 0.20927
 H278 H 0.73621 0.33276 0.17717
 H279 H 0.64129 0.29484 0.21082
 H280 H 0.79846 0.23189 0.29007
 H281 H 0.83365 0.26434 0.32220
 H282 H 0.79622 0.35928 0.28847
 H283 H 0.76169 0.32510 0.25710
 C284 C 0.68385 0.18514 0.30741
 C285 C 0.81533 0.18313 0.19192
 C286 C 0.81770 0.31422 0.30747
 C287 C 0.68634 0.31654 0.19185
 C288 C 0.26121 0.70271 0.21054
 H289 H 0.23329 0.70282 0.21018
 C290 C 0.27950 0.68297 0.19239
 H291 H 0.26566 0.66769 0.17804
 C292 C 0.31343 0.72346 0.22906
 H293 H 0.32655 0.73987 0.24298
 C294 C 0.33274 0.70409 0.21121
 H295 H 0.36067 0.70540 0.21159
 N296 N 0.27831 0.72236 0.22844
 C297 C 0.20314 0.74042 0.29057
 H298 H 0.20335 0.76835 0.29096
 C299 C 0.18323 0.72207 0.30866
 H300 H 0.16795 0.73585 0.32301
 C301 C 0.22375 0.68826 0.27201
 H302 H 0.24017 0.67519 0.25810
 C303 C 0.20422 0.66889 0.28979
 H304 H 0.20542 0.64096 0.28938
 Zn305 Zn 0.25115 0.75059 0.25057
 N306 N 0.22279 0.72338 0.27269
 C307 C 0.18887 0.77758 0.22903
 N308 N 0.22399 0.77882 0.22842
 C309 C 0.24104 0.79857 0.21053
 C310 C 0.22269 0.81825 0.19234
 C311 C 0.16951 0.79688 0.21115
 C312 C 0.29907 0.76076 0.29060
 C313 C 0.31877 0.77909 0.30880
 C314 C 0.29754 0.83231 0.28999
 C315 C 0.27824 0.81292 0.27211
 N316 N 0.27940 0.77780 0.27271
 H317 H 0.17580 0.76109 0.24294
 H318 H 0.26896 0.79857 0.21018
 H319 H 0.23648 0.83361 0.17799
 H320 H 0.14159 0.79545 0.21152
 H321 H 0.29901 0.73283 0.29093
 H322 H 0.33403 0.76513 0.32311
 H323 H 0.29607 0.86026 0.28953
 H324 H 0.26180 0.82597 0.25818
 C325 C 0.18391 0.68598 0.30834
 C326 C 0.31558 0.68379 0.19265
 C327 C 0.31787 0.81522 0.30860
 C328 C 0.18661 0.81726 0.19258
 O329 O 1.06640 0.04022 0.01814
 O330 O 0.93484 -0.03972 0.01774
 O331 O 0.96076 0.06594 0.01763
 O332 O 1.04045 -0.06548 0.01824
 O333 O 0.94141 0.01829 0.03209
 O334 O 1.05959 -0.01777 0.03268
 O335 O 0.98236 -0.05877 0.03249
 O336 O 1.01869 0.05945 0.03239
 C337 C 1.04985 0.05512 0.03572
 C338 C 0.95116 -0.05448 0.03554
 C339 C 0.94578 0.04947 0.03526
 C340 C 1.05533 -0.04898 0.03590
 O341 O 1.06648 -0.03975 -0.01793
 O342 O 0.93520 0.04009 -0.01865
 O343 O 1.04092 0.06592 -0.01819
 O344 O 0.96079 -0.06559 -0.01826
 O345 O 0.94189 -0.01797 -0.03297
 O346 O 1.06013 0.01826 -0.03253
 O347 O 1.01887 -0.05895 -0.03251
 O348 O 0.98300 0.05931 -0.03292
 Co349 Co 1.05711 0.00023 0.00007
 Co350 Co 0.94438 0.00018 -0.00042
 Co351 Co 1.00083 0.05662 -0.00026
 Co352 Co 1.00063 -0.05615 -0.00002
 O353 O 1.00074 0.00022 -0.00016
 C354 C 1.05007 -0.05465 -0.03561
 C355 C 0.95181 0.05505 -0.03623
 C356 C 1.05583 0.04943 -0.03579
 C357 C 0.94606 -0.04919 -0.03603
 O358 O 1.06511 0.53979 0.51830
 O359 O 0.93359 0.45979 0.51880
 O360 O 0.95951 0.56550 0.51857
 O361 O 1.03925 0.43409 0.51858
 O362 O 0.94039 0.51782 0.53317
 O363 O 1.05859 0.48180 0.53288
 O364 O 0.98127 0.44065 0.53321
 O365 O 1.01754 0.55887 0.53291
 C366 C 1.04873 0.55456 0.53603
 C367 C 0.95008 0.44490 0.53644
 C368 C 0.94460 0.54904 0.53627
 C369 C 1.05427 0.45062 0.53615
 O370 O 1.06492 0.45983 0.48224
 O371 O 0.93358 0.53965 0.48247
 O372 O 1.03926 0.56552 0.48217
 O373 O 0.95921 0.43401 0.48260
 O374 O 0.94005 0.48163 0.46808
 O375 O 1.05828 0.51786 0.46767
 O376 O 1.01718 0.44054 0.46797
 O377 O 0.98123 0.55877 0.46786
 Co378 Co 1.05569 0.49982 0.50029
 Co379 Co 0.94294 0.49973 0.50061
 Co380 Co 0.99938 0.55612 0.50039
 Co381 Co 0.99924 0.44336 0.50058
 O382 O 0.99931 0.49975 0.50047
 C383 C 1.04837 0.44481 0.46469
 C384 C 0.95002 0.55453 0.46476
 C385 C 1.05409 0.54907 0.46449
 C386 C 0.94440 0.45046 0.46490
 O387 O 0.55773 0.01831 0.53230
 O388 O 0.43945 -0.01793 0.53159
 O389 O 0.48070 0.05922 0.53199
 O390 O 0.51657 -0.05899 0.53205
 O391 O 0.43313 0.04011 0.51724
 O392 O 0.56438 -0.03967 0.51787
 O393 O 0.45865 -0.06553 0.51716
 O394 O 0.53883 0.06601 0.51775
 C395 C 0.55362 0.04952 0.53545
 C396 C 0.44374 -0.04911 0.53480
 C397 C 0.44949 0.05485 0.53504
 C398 C 0.54773 -0.05463 0.53543
 O399 O 0.55830 -0.01772 0.46715
 O400 O 0.44018 0.01849 0.46652
 O401 O 0.51727 0.05948 0.46701
 O402 O 0.48108 -0.05882 0.46668
 O403 O 0.43329 -0.03961 0.48083
 O404 O 0.56479 0.04027 0.48166
 O405 O 0.53894 -0.06541 0.48153
 O406 O 0.45919 0.06608 0.48125
 Co407 Co 0.55527 0.00030 0.49971
 Co408 Co 0.44254 0.00026 0.49908
 Co409 Co 0.49899 0.05664 0.49949
 Co410 Co 0.49882 -0.05615 0.49936
 O411 O 0.49891 0.00026 0.49941
 C412 C 0.55395 -0.04891 0.46392
 C413 C 0.44445 0.04972 0.46346
 C414 C 0.54846 0.05514 0.46392
 C415 C 0.44991 -0.05457 0.46331
 O416 O 0.56615 0.53991 0.01775
 O417 O 0.43478 0.45976 0.01843
 O418 O 0.46050 0.56550 0.01832
 O419 O 0.54047 0.43419 0.01775
 O420 O 0.44151 0.51777 0.03288
 O421 O 0.55975 0.48186 0.03214
 O422 O 0.48256 0.44056 0.03261
 O423 O 0.51861 0.55885 0.03253
 C424 C 0.54982 0.55460 0.03555
 C425 C 0.45141 0.44485 0.03599
 C426 C 0.44572 0.54899 0.03604
 C427 C 0.55548 0.45066 0.03535
 O428 O 0.56587 0.46016 -0.01859
 O429 O 0.43448 0.53971 -0.01777
 O430 O 0.54011 0.56578 -0.01824
 O431 O 0.46019 0.43409 -0.01792
 O432 O 0.44087 0.48172 -0.03228
 O433 O 0.55904 0.51823 -0.03296
 O434 O 0.51808 0.44083 -0.03276
 O435 O 0.48204 0.55901 -0.03243
 Co436 Co 0.55667 0.50003 -0.00038
 Co437 Co 0.44394 0.49976 0.00028
 Co438 Co 0.50031 0.55624 0.00004
 Co439 Co 0.50033 0.44346 -0.00007
 O440 O 0.50031 0.49986 -0.00003
 C441 C 0.54924 0.44520 -0.03613
 C442 C 0.45084 0.55462 -0.03550
 C443 C 0.55480 0.54945 -0.03604
 C444 C 0.44520 0.45055 -0.03552
 C445 C 1.13282 0.13140 0.13525
 C446 C 1.09364 0.13723 0.13578
 C447 C 1.07651 0.12118 0.11588
 C448 C 1.10024 0.10089 0.09739
 C449 C 1.12015 0.07597 0.11523
 C450 C 1.13729 0.09202 0.13515
 C451 C 1.14433 0.14322 0.10789
 C452 C 1.12722 0.12720 0.08801
 C453 C 1.15145 0.14896 0.15644
 C454 C 1.16715 0.16397 0.17337
 C455 C 1.08195 0.08391 0.07576
 C456 C 1.06717 0.07050 0.05764
 H457 H 1.08051 0.15255 0.15052
 H458 H 1.04869 0.12276 0.11356
 H459 H 1.12070 0.04819 0.11249
 H460 H 1.15253 0.07798 0.14947
 H461 H 1.16421 0.16249 0.10443
 H462 H 1.13245 0.13276 0.06753
 C463 C 1.13177 0.63089 0.63532
 C464 C 1.09261 0.63681 0.63578
 C465 C 1.07551 0.62068 0.61591
 C466 C 1.09927 0.60024 0.59754
 C467 C 1.11907 0.57537 0.61550
 C468 C 1.13618 0.59151 0.63539
 C469 C 1.14340 0.64253 0.60795
 C470 C 1.12633 0.62642 0.58811
 C471 C 1.15036 0.64855 0.65645
 C472 C 1.16607 0.66368 0.67328
 C473 C 1.08102 0.58321 0.57597
 C474 C 1.06620 0.56983 0.55787
 H475 H 1.07947 0.65224 0.65045
 H476 H 1.04771 0.62229 0.61354
 H477 H 1.11957 0.54757 0.61286
 H478 H 1.15134 0.57753 0.64979
 H479 H 1.16333 0.66174 0.60446
 H480 H 1.13163 0.63184 0.56762
 C481 C 0.63246 0.13152 0.63427
 C482 C 0.63711 0.09218 0.63500
 C483 C 0.62041 0.07538 0.61525
 C484 C 0.60071 0.09956 0.59670
 C485 C 0.62773 0.12567 0.58708
 C486 C 0.64440 0.14246 0.60681
 C487 C 0.59323 0.13717 0.63429
 C488 C 0.57653 0.12035 0.61452
 C489 C 0.65074 0.14977 0.65531
 C490 C 0.66638 0.16511 0.67210
 C491 C 0.58307 0.08156 0.57523
 C492 C 0.56926 0.06690 0.55723
 H493 H 0.65213 0.07871 0.64976
 H494 H 0.62114 0.04750 0.61308
 H495 H 0.63328 0.13057 0.56656
 H496 H 0.66423 0.16172 0.60318
 H497 H 0.57977 0.15294 0.64857
 H498 H 0.54876 0.12172 0.61187
 C499 C 0.63289 0.63110 0.13479
 C500 C 0.63750 0.59174 0.13480
 C501 C 0.62043 0.57555 0.11492
 C502 C 0.60046 0.60035 0.09701
 C503 C 0.62736 0.62669 0.08757
 C504 C 0.64439 0.64285 0.10742
 C505 C 0.59369 0.63681 0.13530
 C506 C 0.57663 0.62063 0.11543
 C507 C 0.65140 0.64883 0.15593
 C508 C 0.66698 0.66402 0.17280
 C509 C 0.58222 0.58327 0.07544
 C510 C 0.56737 0.56986 0.05737
 H511 H 0.65277 0.57782 0.14916
 H512 H 0.62107 0.54776 0.11224
 H513 H 0.63259 0.63217 0.06708
 H514 H 0.66422 0.66217 0.10392
 H515 H 0.58050 0.65215 0.15000
 H516 H 0.54882 0.62211 0.11310
 C517 C 0.86779 -0.13086 0.13487
 C518 C 0.90695 -0.13677 0.13537
 C519 C 0.92409 -0.12064 0.11549
 C520 C 0.90038 -0.10019 0.09707
 C521 C 0.88054 -0.07533 0.11497
 C522 C 0.86338 -0.09147 0.13486
 C523 C 0.85622 -0.14249 0.10750
 C524 C 0.87334 -0.12638 0.08764
 C525 C 0.84916 -0.14853 0.15602
 C526 C 0.83346 -0.16366 0.17290
 C527 C 0.91870 -0.08315 0.07548
 C528 C 0.93359 -0.06975 0.05739
 H529 H 0.92006 -0.15221 0.15007
 H530 H 0.95190 -0.12225 0.11316
 H531 H 0.88004 -0.04753 0.11228
 H532 H 0.84818 -0.07750 0.14922
 H533 H 0.83630 -0.16170 0.10401
 H534 H 0.86808 -0.13179 0.06716
 C535 C 0.86690 0.36769 0.63558
 C536 C 0.90610 0.36204 0.63622
 C537 C 0.92327 0.37831 0.61640
 C538 C 0.89954 0.39863 0.59790
 C539 C 0.87942 0.42333 0.61576
 C540 C 0.86225 0.40705 0.63558
 C541 C 0.85559 0.35602 0.60816
 C542 C 0.87272 0.37227 0.58838
 C543 C 0.84823 0.34989 0.65668
 C544 C 0.83247 0.33468 0.67351
 C545 C 0.91787 0.41584 0.57637
 C546 C 0.93268 0.42941 0.55830
 H547 H 0.91923 0.34667 0.65095
 H548 H 0.95110 0.37688 0.61417
 H549 H 0.87875 0.45113 0.61309
 H550 H 0.84687 0.42091 0.64989
 H551 H 0.83581 0.33669 0.60460
 H552 H 0.86763 0.36684 0.56787
 C553 C 0.36668 -0.13126 0.63434
 C554 C 0.35449 -0.14247 0.60703
 C555 C 0.37075 -0.12564 0.58710
 C556 C 0.39764 -0.09924 0.59641
 C557 C 0.42225 -0.11970 0.61415
 C558 C 0.40595 -0.13655 0.63411
 C559 C 0.36166 -0.09197 0.63493
 C560 C 0.37795 -0.07512 0.61498
 C561 C 0.34883 -0.14953 0.65556
 C562 C 0.33346 -0.16491 0.67248
 C563 C 0.41483 -0.08122 0.57477
 C564 C 0.42833 -0.06652 0.55664
 H565 H 0.33480 -0.16194 0.60363
 H566 H 0.36500 -0.13070 0.56664
 H567 H 0.45000 -0.12081 0.61130
 H568 H 0.41973 -0.15211 0.64837
 H569 H 0.34669 -0.07856 0.64974
 H570 H 0.37694 -0.04727 0.61269
 C571 C 0.36863 0.36816 0.13552
 C572 C 0.40781 0.36235 0.13604
 C573 C 0.42493 0.37849 0.11614
 C574 C 0.40118 0.39885 0.09768
 C575 C 0.38126 0.42369 0.11556
 C576 C 0.36414 0.40754 0.13546
 C577 C 0.35711 0.35646 0.10815
 C578 C 0.37420 0.37258 0.08829
 C579 C 0.35001 0.35050 0.15669
 C580 C 0.33430 0.33540 0.17359
 C581 C 0.41944 0.41593 0.07607
 C582 C 0.43416 0.42941 0.05793
 H583 H 0.42095 0.34697 0.15075
 H584 H 0.45274 0.37694 0.11382
 H585 H 0.38070 0.45148 0.11285
 H586 H 0.34890 0.42150 0.14980
 H587 H 0.33724 0.33720 0.10468
 H588 H 0.36897 0.36711 0.06780
 C589 C 0.86994 0.13328 -0.13539
 C590 C 0.90929 0.13791 -0.13623
 C591 C 0.92612 0.12138 -0.11641
 C592 C 0.90195 0.10185 -0.09770
 C593 C 0.88096 0.07752 -0.11533
 C594 C 0.86412 0.09405 -0.13516
 C595 C 0.85920 0.14547 -0.10798
 C596 C 0.87600 0.12897 -0.08819
 C597 C 0.85165 0.15138 -0.15650
 C598 C 0.83627 0.16688 -0.17334
 C599 C 0.91995 0.08438 -0.07615
 C600 C 0.93457 0.07066 -0.05809
 H601 H 0.92275 0.15280 -0.15111
 H602 H 0.95400 0.12212 -0.11431
 H603 H 0.87949 0.04977 -0.11251
 H604 H 0.84822 0.08046 -0.14933
 H605 H 0.84004 0.16534 -0.10442
 H606 H 0.87124 0.13471 -0.06769
 C607 C 0.86847 0.63307 0.36572
 C608 C 0.86306 0.59379 0.36555
 C609 C 0.87973 0.57713 0.38539
 C610 C 0.90016 0.60142 0.40343
 C611 C 0.87377 0.62812 0.41293
 C612 C 0.85713 0.64474 0.39312
 C613 C 0.90778 0.63813 0.36529
 C614 C 0.92444 0.62149 0.38512
 C615 C 0.85038 0.65128 0.34461
 C616 C 0.83515 0.66685 0.32775
 C617 C 0.91801 0.58385 0.42496
 C618 C 0.93262 0.57010 0.44299
 H619 H 0.84755 0.58025 0.35111
 H620 H 0.87851 0.54933 0.38796
 H621 H 0.86860 0.63349 0.43343
 H622 H 0.83770 0.66435 0.39666
 H623 H 0.92133 0.65339 0.35068
 H624 H 0.95228 0.62248 0.38750
 C625 C 0.36765 0.13336 0.36453
 C626 C 0.40704 0.13786 0.36440
 C627 C 0.42327 0.12063 0.38418
 C628 C 0.39849 0.10060 0.40213
 C629 C 0.37791 0.07695 0.38372
 C630 C 0.36169 0.09417 0.36395
 C631 C 0.35619 0.14472 0.39198
 C632 C 0.37239 0.12752 0.41173
 C633 C 0.34990 0.15207 0.34349
 C634 C 0.33471 0.16783 0.32669
 C635 C 0.41563 0.08220 0.42362
 C636 C 0.42910 0.06728 0.44165
 H637 H 0.42096 0.15319 0.35003
 H638 H 0.45108 0.12119 0.38676
 H639 H 0.37627 0.04912 0.38598
 H640 H 0.34616 0.08110 0.34928
 H641 H 0.33703 0.16457 0.39560
 H642 H 0.36710 0.13264 0.43225
 C643 C 0.36899 0.63237 -0.13468
 C644 C 0.36349 0.59310 -0.13463
 C645 C 0.38023 0.57659 -0.11474
 C646 C 0.40079 0.60102 -0.09690
 C647 C 0.37451 0.62785 -0.08746
 C648 C 0.35781 0.64432 -0.10731
 C649 C 0.40830 0.63735 -0.13525
 C650 C 0.42503 0.62086 -0.11538
 C651 C 0.35084 0.65043 -0.15580
 C652 C 0.33556 0.66594 -0.17266
 C653 C 0.41870 0.58363 -0.07534
 C654 C 0.43337 0.57003 -0.05728
 H655 H 0.34788 0.57947 -0.14895
 H656 H 0.37897 0.54882 -0.11202
 H657 H 0.36946 0.63342 -0.06697
 H658 H 0.33844 0.66401 -0.10382
 H659 H 0.42181 0.65245 -0.14998
 H660 H 0.45288 0.62182 -0.11308
 C661 C 1.13178 -0.13273 -0.13465
 C662 C 1.09235 -0.13265 -0.13765
 C663 C 1.07565 -0.11610 -0.11781
 C664 C 1.10003 -0.10127 -0.09693
 C665 C 1.12522 -0.07801 -0.11208
 C666 C 1.14193 -0.09456 -0.13193
 C667 C 1.13846 -0.14857 -0.10755
 C668 C 1.12178 -0.13204 -0.08773
 C669 C 1.14989 -0.15086 -0.15575
 C670 C 1.16512 -0.16642 -0.17259
 C671 C 1.08215 -0.08382 -0.07539
 C672 C 1.06751 -0.07015 -0.05736
 H673 H 1.07876 -0.14449 -0.15394
 H674 H 1.04774 -0.11376 -0.11710
 H675 H 1.12952 -0.05093 -0.10764
 H676 H 1.16054 -0.08168 -0.14450
 H677 H 1.15487 -0.17084 -0.10421
 H678 H 1.12391 -0.14015 -0.06743
 C679 C 1.13062 0.36641 0.36594
 C680 C 1.13620 0.40567 0.36596
 C681 C 1.11928 0.42224 0.38570
 C682 C 1.09845 0.39789 0.40347
 C683 C 1.12455 0.37099 0.41312
 C684 C 1.14145 0.35446 0.39341
 C685 C 1.09130 0.36154 0.36514
 C686 C 1.07438 0.37809 0.38487
 C687 C 1.14901 0.34830 0.34493
 C688 C 1.16449 0.33282 0.32816
 C689 C 1.08036 0.41539 0.42492
 C690 C 1.06568 0.42915 0.44292
 H691 H 1.15201 0.41926 0.35171
 H692 H 1.12058 0.45001 0.38837
 H693 H 1.12936 0.36541 0.43365
 H694 H 1.16073 0.33472 0.39706
 H695 H 1.07792 0.34647 0.35035
 H696 H 1.04650 0.37720 0.38699
 C697 C 0.63071 -0.13201 0.36494
 C698 C 0.63664 -0.09282 0.36433
 C699 C 0.62047 -0.07566 0.38412
 C700 C 0.59997 -0.09939 0.40258
 C701 C 0.62612 -0.12630 0.41213
 C702 C 0.64227 -0.14343 0.39237
 C703 C 0.59133 -0.13656 0.36487
 C704 C 0.57515 -0.11939 0.38468
 C705 C 0.64841 -0.15065 0.34388
 C706 C 0.66358 -0.16636 0.32708
 C707 C 0.58288 -0.08108 0.42408
 C708 C 0.56939 -0.06627 0.44211
 H709 H 0.65211 -0.07970 0.34962
 H710 H 0.62209 -0.04783 0.38638
 H711 H 0.63149 -0.13146 0.43265
 H712 H 0.66146 -0.16327 0.39595
 H713 H 0.57738 -0.15186 0.35053
 H714 H 0.54734 -0.11998 0.38731
 C715 C 0.63121 0.36748 -0.13533
 C716 C 0.63654 0.40677 -0.13531
 C717 C 0.61966 0.42321 -0.11548
 C718 C 0.59912 0.39871 -0.09763
 C719 C 0.62548 0.37197 -0.08812
 C720 C 0.64233 0.35557 -0.10791
 C721 C 0.59191 0.36235 -0.13595
 C722 C 0.57504 0.37877 -0.11613
 C723 C 0.64954 0.34948 -0.15642
 C724 C 0.66496 0.33405 -0.17325
 C725 C 0.58108 0.41607 -0.07609
 C726 C 0.56646 0.42969 -0.05801
 H727 H 0.65214 0.42048 -0.14962
 H728 H 0.62079 0.45099 -0.11280
 H729 H 0.63049 0.36641 -0.06761
 H730 H 0.66176 0.33596 -0.10435
 H731 H 0.57852 0.34720 -0.15069
 H732 H 0.54718 0.37770 -0.11389
 C733 C 1.13236 0.13259 -0.13514
 C734 C 1.13920 0.09357 -0.13513
 C735 C 1.12309 0.07640 -0.11525
 C736 C 1.10173 0.09996 -0.09735
 C737 C 1.07677 0.11888 -0.11577
 C738 C 1.09289 0.13606 -0.13566
 C739 C 1.14317 0.14493 -0.10777
 C740 C 1.12708 0.12778 -0.08792
 C741 C 1.14999 0.15124 -0.15629
 C742 C 1.16510 0.16696 -0.17317
 C743 C 1.08469 0.08164 -0.07576
 C744 C 1.07124 0.06682 -0.05767
 H745 H 1.15523 0.08057 -0.14950
 H746 H 1.12531 0.04869 -0.11258
 H747 H 1.04891 0.11877 -0.11342
 H748 H 1.07885 0.15066 -0.15035
 H749 H 1.16183 0.16536 -0.10429
 H750 H 1.13195 0.13354 -0.06743
 C751 C 1.13183 0.63233 0.36562
 C752 C 1.13704 0.59306 0.36480
 C753 C 1.12064 0.57590 0.38456
 C754 C 1.10064 0.59969 0.40319
 C755 C 1.07612 0.62025 0.38545
 C756 C 1.09253 0.63741 0.36569
 C757 C 1.14370 0.64327 0.39307
 C758 C 1.12733 0.62613 0.41280
 C759 C 1.14976 0.65098 0.34458
 C760 C 1.16506 0.66672 0.32779
 C761 C 1.08330 0.58136 0.42466
 C762 C 1.06965 0.56652 0.44268
 H763 H 1.15221 0.57990 0.35000
 H764 H 1.12177 0.54803 0.38668
 H765 H 1.04834 0.62119 0.38815
 H766 H 1.07880 0.65307 0.35145
 H767 H 1.16327 0.66279 0.39671
 H768 H 1.13287 0.63098 0.43333
 C769 C 0.63115 0.13251 0.36478
 C770 C 0.63637 0.09323 0.36491
 C771 C 0.61941 0.07683 0.38477
 C772 C 0.59892 0.10136 0.40252
 C773 C 0.57492 0.12122 0.38393
 C774 C 0.59187 0.13761 0.36408
 C775 C 0.64226 0.14451 0.39216
 C776 C 0.62533 0.12815 0.41198
 C777 C 0.64953 0.15048 0.34367
 C778 C 0.66499 0.16594 0.32685
 C779 C 0.58078 0.08408 0.42406
 C780 C 0.56599 0.07053 0.44213
 H781 H 0.65196 0.07951 0.35065
 H782 H 0.62046 0.04906 0.38754
 H783 H 0.54706 0.12226 0.38614
 H784 H 0.57855 0.15269 0.34928
 H785 H 0.66175 0.16415 0.39567
 H786 H 0.63032 0.13376 0.43248
 C787 C 0.63126 0.63316 -0.13527
 C788 C 0.63672 0.59393 -0.13607
 C789 C 0.62059 0.57669 -0.11623
 C790 C 0.60058 0.60037 -0.09753
 C791 C 0.57578 0.62074 -0.11518
 C792 C 0.59192 0.63798 -0.13503
 C793 C 0.64327 0.64422 -0.10787
 C794 C 0.62716 0.62700 -0.08806
 C795 C 0.64892 0.65189 -0.15639
 C796 C 0.66403 0.66767 -0.17326
 C797 C 0.58352 0.58195 -0.07597
 C798 C 0.57010 0.56702 -0.05790
 H799 H 0.65187 0.58084 -0.15093
 H800 H 0.62192 0.54883 -0.11410
 H801 H 0.54802 0.62150 -0.11236
 H802 H 0.57798 0.65353 -0.14921
 H803 H 0.66273 0.66388 -0.10434
 H804 H 0.63283 0.63192 -0.06756
 C805 C 0.86843 -0.13222 -0.13488
 C806 C 0.90787 -0.13605 -0.13553
 C807 C 0.92429 -0.11897 -0.11576
 C808 C 0.89963 -0.09976 -0.09729
 C809 C 0.87408 -0.12733 -0.08769
 C810 C 0.85770 -0.14437 -0.10742
 C811 C 0.86196 -0.09313 -0.13496
 C812 C 0.87837 -0.07606 -0.11519
 C813 C 0.85048 -0.15076 -0.15592
 C814 C 0.83514 -0.16639 -0.17271
 C815 C 0.91697 -0.08151 -0.07582
 C816 C 0.93058 -0.06669 -0.05781
 H817 H 0.92168 -0.15082 -0.15023
 H818 H 0.95215 -0.11911 -0.11352
 H819 H 0.86929 -0.13299 -0.06716
 H820 H 0.83888 -0.16463 -0.10380
 H821 H 0.84596 -0.08001 -0.14930
 H822 H 0.87642 -0.04832 -0.11261
 C823 C 0.86870 0.36764 0.36521
 C824 C 0.90804 0.36289 0.36555
 C825 C 0.92401 0.37996 0.38553
 C826 C 0.89904 0.40007 0.40317
 C827 C 0.87247 0.37330 0.41245
 C828 C 0.85654 0.35626 0.39250
 C829 C 0.86314 0.40686 0.36454
 C830 C 0.87910 0.42392 0.38452
 C831 C 0.85123 0.34909 0.34397
 C832 C 0.83625 0.33342 0.32704
 C833 C 0.91590 0.41829 0.42484
 C834 C 0.92919 0.43306 0.44300
 H835 H 0.92210 0.34752 0.35135
 H836 H 0.95176 0.37923 0.38845
 H837 H 0.86669 0.36815 0.43290
 H838 H 0.83710 0.33651 0.39588
 H839 H 0.84806 0.42006 0.34968
 H840 H 0.87770 0.45175 0.38677
 C841 C 0.36835 -0.13340 0.36425
 C842 C 0.40770 -0.13794 0.36355
 C843 C 0.42445 -0.12126 0.38335
 C844 C 0.40021 -0.10169 0.40190
 C845 C 0.37417 -0.12882 0.41145
 C846 C 0.35744 -0.14547 0.39168
 C847 C 0.36260 -0.09418 0.36428
 C848 C 0.37936 -0.07750 0.38409
 C849 C 0.35016 -0.15166 0.34317
 C850 C 0.33483 -0.16730 0.32636
 C851 C 0.41813 -0.08407 0.42342
 C852 C 0.43269 -0.07026 0.44147
 H853 H 0.42122 -0.15288 0.34879
 H854 H 0.45232 -0.12192 0.38554
 H855 H 0.36927 -0.13447 0.43196
 H856 H 0.33823 -0.16537 0.39527
 H857 H 0.34681 -0.08071 0.34999
 H858 H 0.37792 -0.04974 0.38677
 C859 C 0.36865 0.36727 -0.13470
 C860 C 0.40798 0.36249 -0.13449
 C861 C 0.42410 0.37969 -0.11464
 C862 C 0.39928 0.39995 -0.09697
 C863 C 0.37275 0.37325 -0.08749
 C864 C 0.35666 0.35608 -0.10731
 C865 C 0.36312 0.40649 -0.13549
 C866 C 0.37923 0.42368 -0.11564
 C867 C 0.35101 0.34859 -0.15582
 C868 C 0.33591 0.33286 -0.17267
 C869 C 0.41632 0.41830 -0.07542
 C870 C 0.42977 0.43314 -0.05735
 H871 H 0.42194 0.34701 -0.14868
 H872 H 0.45187 0.37895 -0.11182
 H873 H 0.36710 0.36824 -0.06700
 H874 H 0.33723 0.33638 -0.10378
 H875 H 0.34794 0.41960 -0.15034
 H876 H 0.37786 0.45153 -0.11350
 C877 C 1.13368 -0.13064 0.13507
 C878 C 1.09445 -0.13639 0.13501
 C879 C 1.07784 -0.11966 0.11516
 C880 C 1.10212 -0.09884 0.09734
 C881 C 1.12914 -0.12491 0.08785
 C882 C 1.14571 -0.14161 0.10766
 C883 C 1.13839 -0.09129 0.13570
 C884 C 1.12180 -0.07457 0.11586
 C885 C 1.15185 -0.14880 0.15619
 C886 C 1.16740 -0.16407 0.17305
 C887 C 1.08460 -0.08094 0.07579
 C888 C 1.07088 -0.06632 0.05772
 H889 H 1.08091 -0.15216 0.14931
 H890 H 1.05008 -0.12110 0.11246
 H891 H 1.13476 -0.12983 0.06735
 H892 H 1.16553 -0.16083 0.10412
 H893 H 1.15339 -0.07775 0.15044
 H894 H 1.12258 -0.04670 0.11362
 C895 C 1.13258 0.36875 0.63516
 C896 C 1.14448 0.35772 0.60774
 C897 C 1.12794 0.37450 0.58796
 C898 C 1.10109 0.40070 0.59749
 C899 C 1.12094 0.42488 0.61598
 C900 C 1.13750 0.40808 0.63579
 C901 C 1.09332 0.36320 0.63518
 C902 C 1.07675 0.38001 0.61536
 C903 C 1.15071 0.35050 0.65623
 C904 C 1.16623 0.33513 0.67304
 C905 C 1.08360 0.41867 0.57598
 C906 C 1.06987 0.43330 0.55794
 H907 H 1.16418 0.33839 0.60417
 H908 H 1.13348 0.36954 0.56745
 H909 H 1.12185 0.45274 0.61373
 H910 H 1.15261 0.42154 0.65051
 H911 H 1.07974 0.34750 0.64950
 H912 H 1.04897 0.37872 0.61270
 C913 C 0.63059 -0.13120 0.63483
 C914 C 0.64191 -0.14296 0.60745
 C915 C 0.62479 -0.12688 0.58761
 C916 C 0.59798 -0.10057 0.59706
 C917 C 0.61810 -0.07571 0.61485
 C918 C 0.63525 -0.09183 0.63472
 C919 C 0.59138 -0.13700 0.63548
 C920 C 0.57423 -0.12089 0.61561
 C921 C 0.64924 -0.14883 0.65597
 C922 C 0.66497 -0.16390 0.67285
 C923 C 0.57969 -0.08352 0.57548
 C924 C 0.56496 -0.07006 0.55736
 H925 H 0.66168 -0.16224 0.60394
 H926 H 0.62989 -0.13239 0.56712
 H927 H 0.61878 -0.04792 0.61210
 H928 H 0.65063 -0.07784 0.64899
 H929 H 0.57824 -0.15234 0.65025
 H930 H 0.54640 -0.12243 0.61338
 C931 C 0.63357 0.36881 0.13443
 C932 C 0.59433 0.36320 0.13437
 C933 C 0.57781 0.37999 0.11451
 C934 C 0.60219 0.40071 0.09670
 C935 C 0.62911 0.37455 0.08722
 C936 C 0.64560 0.35779 0.10704
 C937 C 0.63844 0.40814 0.13507
 C938 C 0.62193 0.42492 0.11522
 C939 C 0.65166 0.35061 0.15554
 C940 C 0.66716 0.33528 0.17238
 C941 C 0.58476 0.41866 0.07516
 C942 C 0.57107 0.43330 0.05712
 H943 H 0.58072 0.34748 0.14866
 H944 H 0.55004 0.37865 0.11179
 H945 H 0.63473 0.36959 0.06672
 H946 H 0.66535 0.33849 0.10352
 H947 H 0.65347 0.42163 0.14983
 H948 H 0.62281 0.45279 0.11298
 C949 C 0.86805 0.13106 0.13448
 C950 C 0.85601 0.14223 0.10711
 C951 C 0.87245 0.12555 0.08726
 C952 C 0.89934 0.09930 0.09669
 C953 C 0.87958 0.07503 0.11520
 C954 C 0.86312 0.09174 0.13508
 C955 C 0.90731 0.13661 0.13439
 C956 C 0.92378 0.11989 0.11450
 C957 C 0.85002 0.14919 0.15561
 C958 C 0.83453 0.16446 0.17245
 C959 C 0.91670 0.08142 0.07512
 C960 C 0.93031 0.06682 0.05706
 H961 H 0.83630 0.16158 0.10362
 H962 H 0.86682 0.13060 0.06677
 H963 H 0.87865 0.04718 0.11292
 H964 H 0.84808 0.07821 0.14983
 H965 H 0.92096 0.15224 0.14869
 H966 H 0.95154 0.12119 0.11176
 C967 C 0.86585 0.63112 0.63494
 C968 C 0.86088 0.59180 0.63559
 C969 C 0.87755 0.57498 0.61586
 C970 C 0.89754 0.59914 0.59741
 C971 C 0.92179 0.61979 0.61533
 C972 C 0.90512 0.63662 0.63507
 C973 C 0.85413 0.64218 0.60746
 C974 C 0.87078 0.62538 0.58775
 C975 C 0.84762 0.64938 0.65595
 C976 C 0.83206 0.66474 0.67274
 C977 C 0.91515 0.58114 0.57597
 C978 C 0.92896 0.56646 0.55799
 H979 H 0.84567 0.57834 0.65028
 H980 H 0.87661 0.54712 0.61364
 H981 H 0.94959 0.62105 0.61276
 H982 H 0.91863 0.65229 0.64942
 H983 H 0.83447 0.66152 0.60380
 H984 H 0.86537 0.63036 0.56722
 C985 C 0.36656 0.13075 0.63452
 C986 C 0.35486 0.14241 0.60718
 C987 C 0.37186 0.12640 0.58728
 C988 C 0.39893 0.10027 0.59663
 C989 C 0.37916 0.07531 0.61460
 C990 C 0.36212 0.09135 0.63454
 C991 C 0.40573 0.13679 0.63491
 C992 C 0.42276 0.12076 0.61498
 C993 C 0.34807 0.14832 0.65573
 C994 C 0.33252 0.16338 0.67267
 C995 C 0.41714 0.08334 0.57500
 C996 C 0.43196 0.07003 0.55689
 H997 H 0.33493 0.16156 0.60375
 H998 H 0.36650 0.13183 0.56681
 H999 H 0.37862 0.04751 0.61192
 H1000 H 0.34699 0.07730 0.64895
 H1001 H 0.41893 0.15224 0.64956
 H1002 H 0.45055 0.12247 0.61256
 C1003 C 0.36814 0.63125 0.13521
 C1004 C 0.35608 0.64222 0.10779
 C1005 C 0.37247 0.62535 0.08799
 C1006 C 0.39933 0.59912 0.09750
 C1007 C 0.37955 0.57503 0.11614
 C1008 C 0.36315 0.59193 0.13596
 C1009 C 0.40741 0.63671 0.13505
 C1010 C 0.42382 0.61981 0.11521
 C1011 C 0.35015 0.64959 0.15632
 C1012 C 0.33472 0.66500 0.17316
 C1013 C 0.41667 0.58104 0.07595
 C1014 C 0.43026 0.56635 0.05789
 H1015 H 0.33640 0.66158 0.10424
 H1016 H 0.36681 0.63027 0.06749
 H1017 H 0.37857 0.54717 0.11398
 H1018 H 0.34811 0.57853 0.15079
 H1019 H 0.42111 0.65242 0.14927
 H1020 H 0.45158 0.62104 0.11244
   
