data_POSCAR
  _audit_creation_date              2014-09-24
  _audit_creation_method            'ToBaCCo'
  _symmetry_space_group_name_H-M    'P1'
  _symmetry_Int_Tables_number       1
  _symmetry_cell_setting            triclinic
  loop_
  _symmetry_equiv_pos_as_xyz
 x,y,z
_cell_length_a 35.8608
_cell_length_b 38.6355
_cell_length_c 35.2543
_cell_angle_alpha 89.817100
_cell_angle_beta 88.612800
_cell_angle_gamma 89.060500
loop_
  _atom_site_label
  _atom_site_type_symbol
  _atom_site_fract_x
  _atom_site_fract_y
  _atom_site_fract_z
N1 N 0.21342 0.23809 0.19874
 N2 N -0.20048 0.78962 0.23210
 N3 N -0.20253 0.20494 -0.18173
 N4 N 0.23695 0.76968 -0.23931
 N5 N 0.21450 1.21377 0.80939
 N6 N 0.75956 0.77786 0.75325
 N7 N 0.20229 0.76870 1.21623
 N8 N 0.78340 1.21255 1.20275
 O9 O 0.51881 0.95732 0.93672
 O10 O 0.45423 0.96364 1.08974
 O11 O 0.57247 0.93953 1.04963
 O12 O 0.44664 0.93916 0.97623
 O13 O 0.52328 0.95341 1.08836
 O14 O 0.45280 0.97734 0.93499
 O15 O 0.44638 0.93324 1.04113
 O16 O 0.56281 0.94589 0.97709
 C17 C 0.54773 0.94066 0.94600
 C18 C 0.44449 0.93568 1.07589
 C19 C 0.55377 0.93605 1.08189
 C20 C 0.44227 0.94790 0.94317
 O21 O 0.46951 1.03729 0.96315
 O22 O 0.53077 1.02238 1.07553
 O23 O 0.57320 0.99674 0.99876
 O24 O 0.41806 0.99959 1.05031
 O25 O 0.46373 1.03000 1.06873
 O26 O 0.53827 1.02093 0.95446
 O27 O 0.42095 1.00818 0.98354
 O28 O 0.57083 0.99966 1.03549
 Co29 Co 0.49477 0.99720 0.95341
 Co30 Co 0.49269 0.99168 1.07438
 Co31 Co 0.54160 0.96307 1.02119
 Co32 Co 0.43709 0.97103 1.01274
 O33 O 0.49215 0.98433 1.01328
 C34 C 0.43529 1.03621 0.97152
 C35 C 0.56313 1.02121 1.06189
 C36 C 0.56921 1.01733 0.97000
 C37 C 0.42986 1.02771 1.06265
 O38 O 0.02014 0.48006 0.05532
 O39 O 0.02318 0.54160 -0.09604
 O40 O 0.00116 0.43861 -0.05318
 O41 O 0.04614 0.55135 0.01805
 O42 O 0.02756 0.47800 -0.08671
 O43 O 0.00693 0.54310 0.06181
 O44 O 0.05137 0.56034 -0.04754
 O45 O 0.03546 0.45566 0.00294
 C46 C 0.04273 0.46152 0.03640
 C47 C 0.04989 0.55704 -0.08236
 C48 C 0.02653 0.44728 -0.07592
 C49 C 0.03875 0.55199 0.05211
 O50 O -0.06061 0.53522 0.03700
 O51 O -0.04744 0.47696 -0.08285
 O52 O -0.02553 0.42482 0.01676
 O53 O -0.02046 0.58274 -0.05173
 O54 O -0.04750 0.54292 -0.08647
 O55 O -0.05306 0.47126 0.04112
 O56 O -0.02669 0.57852 0.01795
 O57 O -0.06144 0.46339 -0.02518
 Co58 Co -0.01989 0.50766 0.04213
 Co59 Co -0.01089 0.50954 -0.08149
 Co60 Co -0.01255 0.46218 -0.01053
 Co61 Co 0.01090 0.56383 -0.01545
 O62 O -0.00675 0.51272 -0.01949
 C63 C -0.05648 0.56720 0.03318
 C64 C -0.06911 0.46273 -0.05938
 C65 C -0.04768 0.43850 0.04310
 C66 C -0.04441 0.57400 -0.07603
 O67 O 1.08670 0.04108 0.46138
 O68 O 0.95655 0.06110 0.52886
 O69 O 0.97338 0.06726 0.45890
 O70 O 1.04919 0.02217 0.57812
 O71 O 0.92861 0.03525 0.47048
 O72 O 1.08440 0.04391 0.53250
 O73 O 0.98379 0.04078 0.57755
 O74 O 1.03765 0.07103 0.45104
 C75 C 1.07197 0.06795 0.44876
 C76 C 0.96514 0.06448 0.56253
 C77 C 0.93994 0.06148 0.45410
 C78 C 1.07499 0.04211 0.56687
 O79 O 1.08168 -0.02307 0.53536
 O80 O 0.95424 -0.02417 0.48531
 O81 O 1.04291 0.00490 0.42290
 O82 O 0.96445 -0.02388 0.55401
 O83 O 0.91709 0.00737 0.53677
 O84 O 1.07561 -0.02457 0.46416
 O85 O 1.02791 -0.04108 0.55274
 O86 O 0.97556 -0.00077 0.43295
 Co87 Co 1.07551 0.01015 0.49876
 Co88 Co 0.95779 0.01805 0.50821
 Co89 Co 1.00763 0.03417 0.44606
 Co90 Co 1.00689 0.00123 0.56020
 O91 O 1.01435 0.01707 0.50179
 C92 C 1.06206 -0.04573 0.55080
 C93 C 0.95944 -0.02561 0.44995
 C94 C 1.06398 -0.02061 0.43118
 C95 C 0.93035 -0.01583 0.55956
 C96 C 1.18241 0.24570 0.26218
 C97 C 1.16590 0.23160 0.29503
 C98 C 1.16739 0.19585 0.30150
 C99 C 1.18591 0.17432 0.27484
 C100 C 1.20151 0.18823 0.24161
 C101 C 1.19949 0.22407 0.23450
 N102 N 1.14827 0.18148 0.33393
 N103 N 1.15694 0.15148 0.34620
 C104 C 1.13673 0.13441 0.37614
 C105 C 1.15292 0.10508 0.39265
 C106 C 1.13243 0.08476 0.41811
 C107 C 1.09488 0.09303 0.42699
 C108 C 1.07901 0.12335 0.41157
 C109 C 1.09989 0.14405 0.38644
 H110 H 1.18107 0.27345 0.25791
 H111 H 1.15177 0.24851 0.31537
 H112 H 1.18713 0.14655 0.27902
 H113 H 1.21421 0.17075 0.22095
 H114 H 1.18121 0.09731 0.38477
 H115 H 1.14552 0.06159 0.42939
 H116 H 1.05014 0.13033 0.41780
 H117 H 1.08673 0.16651 0.37370
 C118 C 0.82906 -0.15488 0.24550
 C119 C 0.84980 -0.13383 0.26886
 C120 C 0.86286 -0.14642 0.30343
 C121 C 0.85567 -0.18084 0.31410
 C122 C 0.83544 -0.20220 0.29026
 C123 C 0.82167 -0.18915 0.25606
 N124 N 0.88303 -0.12342 0.32688
 N125 N 0.89037 -0.12972 0.36140
 C126 C 0.91037 -0.10527 0.38337
 C127 C 0.90985 -0.10789 0.42305
 C128 C 0.92652 -0.08249 0.44503
 C129 C 0.94445 -0.05433 0.42747
 C130 C 0.94629 -0.05269 0.38762
 C131 C 0.92928 -0.07773 0.36583
 H132 H 0.81874 -0.14458 0.21907
 H133 H 0.85525 -0.10741 0.26031
 H134 H 0.86571 -0.19113 0.34063
 H135 H 0.82990 -0.22863 0.29866
 H136 H 0.89548 -0.12903 0.43697
 H137 H 0.92476 -0.08451 0.47567
 H138 H 0.96004 -0.03148 0.37315
 H139 H 0.93048 -0.07527 0.33522
 C140 C 0.79387 0.17885 0.75443
 C141 C 0.81099 0.16702 0.72071
 C142 C 0.84965 0.16932 0.71502
 C143 C 0.87103 0.18437 0.74336
 C144 C 0.85386 0.19650 0.77699
 C145 C 0.81513 0.19358 0.78303
 N146 N 0.86652 0.15462 0.68126
 N147 N 0.90176 0.15248 0.67606
 C148 C 0.91867 0.13589 0.64341
 C149 C 0.95657 0.12675 0.64424
 C150 C 0.97264 0.10551 0.61607
 C151 C 0.95124 0.09372 0.58603
 C152 C 0.91401 0.10522 0.58345
 C153 C 0.89767 0.12589 0.61217
 H154 H 0.76397 0.17650 0.75826
 H155 H 0.79418 0.15539 0.69922
 H156 H 0.90098 0.18636 0.73974
 H157 H 0.87089 0.20752 0.79868
 H158 H 0.97311 0.13434 0.66803
 H159 H 1.00134 0.09694 0.61866
 H160 H 0.89681 0.09607 0.56084
 H161 H 0.86837 0.13281 0.61076
 C162 C 1.23398 -0.21282 0.69344
 C163 C 1.21639 -0.19446 0.66439
 C164 C 1.18289 -0.17624 0.67182
 C165 C 1.16742 -0.17616 0.70886
 C166 C 1.18541 -0.19381 0.73797
 C167 C 1.21861 -0.21244 0.73038
 N168 N 1.16580 -0.15675 0.64205
 N169 N 1.13181 -0.14686 0.64481
 C170 C 1.11445 -0.12507 0.61721
 C171 C 1.07585 -0.11950 0.61992
 C172 C 1.05842 -0.09514 0.59664
 C173 C 1.07953 -0.07545 0.57058
 C174 C 1.11812 -0.08213 0.56675
 C175 C 1.13546 -0.10689 0.58977
 H176 H 1.25969 -0.22702 0.68734
 H177 H 1.22875 -0.19450 0.63606
 H178 H 1.14187 -0.16188 0.71544
 H179 H 1.17350 -0.19319 0.76648
 H180 H 1.05939 -0.13330 0.64104
 H181 H 1.02867 -0.09056 0.60038
 H182 H 1.13509 -0.06738 0.54690
 H183 H 1.16539 -0.11068 0.58728
 C184 C 0.27867 1.21687 1.19800
 C185 C 0.30735 1.19644 1.18175
 C186 C 0.30211 1.17927 1.14741
 C187 C 0.26839 1.18424 1.12840
 C188 C 0.23993 1.20516 1.14434
 C189 C 0.24457 1.22096 1.17967
 N190 N 0.33041 1.15545 1.13374
 N191 N 0.32430 1.13373 1.10761
 C192 C 0.35189 1.10886 1.09482
 C193 C 0.34091 1.08162 1.07178
 C194 C 0.36631 1.05536 1.06119
 C195 C 0.40350 1.05629 1.07283
 C196 C 0.41483 1.08430 1.09493
 C197 C 0.38917 1.11024 1.10612
 H198 H 0.28256 1.22876 1.22536
 H199 H 0.33316 1.19282 1.19670
 H200 H 0.26372 1.17136 1.10175
 H201 H 0.21365 1.20781 1.13005
 H202 H 0.31229 1.08024 1.06287
 H203 H 0.35675 1.03417 1.04412
 H204 H 0.44331 1.08575 1.10429
 H205 H 0.39836 1.13113 1.12383
 C206 C 0.25235 0.79497 0.82251
 C207 C 0.27571 0.81430 0.84504
 C208 C 0.30737 0.82988 0.82915
 C209 C 0.31551 0.82599 0.79018
 C210 C 0.29239 0.80617 0.76765
 C211 C 0.26087 0.79013 0.78376
 N212 N 0.33076 0.84910 0.85344
 N213 N 0.35684 0.86832 0.84098
 C214 C 0.37979 0.88682 0.86645
 C215 C 0.40148 0.91412 0.85260
 C216 C 0.42237 0.93383 0.87741
 C217 C 0.42236 0.92598 0.91636
 C218 C 0.40165 0.89779 0.92994
 C219 C 0.38034 0.87854 0.90528
 H220 H 0.22767 0.78359 0.83529
 H221 H 0.26902 0.81733 0.87498
 H222 H 0.33988 0.83785 0.77731
 H223 H 0.29928 0.80300 0.73780
 H224 H 0.40142 0.92067 0.82272
 H225 H 0.43824 0.95535 0.86623
 H226 H 0.40114 0.89116 0.95982
 H227 H 0.36410 0.85734 0.91662
 C228 C 0.74041 0.81997 1.25112
 C229 C 0.70604 0.83500 1.24179
 C230 C 0.69196 0.83089 1.20547
 C231 C 0.71232 0.81076 1.17876
 C232 C 0.74693 0.79631 1.18776
 C233 C 0.76182 0.80113 1.22392
 N234 N 0.65915 0.84995 1.19485
 N235 N 0.64299 0.84326 1.16406
 C236 C 0.61318 0.86389 1.14922
 C237 C 0.59845 0.85385 1.11472
 C238 C 0.57599 0.87665 1.09440
 C239 C 0.56751 0.90981 1.10854
 C240 C 0.57952 0.91900 1.14466
 C241 C 0.60248 0.89612 1.16498
 H242 H 0.75086 0.82401 1.27928
 H243 H 0.69079 0.85057 1.26261
 H244 H 0.70233 0.80753 1.15028
 H245 H 0.76266 0.78266 1.16575
 H246 H 0.60665 0.82922 1.10222
 H247 H 0.56722 0.86926 1.06639
 H248 H 0.57375 0.94473 1.15567
 H249 H 0.61378 0.90449 1.19156
 C250 C 0.73389 1.19982 0.84560
 C251 C 0.70626 1.18053 0.86409
 C252 C 0.71305 1.14590 0.87391
 C253 C 0.74772 1.13040 0.86421
 C254 C 0.77519 1.14957 0.84505
 C255 C 0.76854 1.18450 0.83592
 N256 N 0.68392 1.12705 0.89280
 N257 N 0.68935 1.09786 0.90880
 C258 C 0.65914 1.07918 0.92619
 C259 C 0.66676 1.04948 0.94779
 C260 C 0.63757 1.02988 0.96335
 C261 C 0.60027 1.03953 0.95703
 C262 C 0.59277 1.06969 0.93594
 C263 C 0.62186 1.08942 0.92087
 H264 H 0.72834 1.22672 0.83872
 H265 H 0.67959 1.19269 0.87119
 H266 H 0.75345 1.10357 0.87122
 H267 H 0.80189 1.13746 0.83797
 H268 H 0.69536 1.04126 0.95211
 H269 H 0.64413 1.00661 0.97921
 H270 H 0.56432 1.07786 0.93067
 H271 H 0.61514 1.11221 0.90428
 C272 C 0.15459 0.26901 0.18302
 C273 C 0.13574 0.29680 0.16636
 C274 C 0.15524 0.32141 0.14498
 C275 C 0.19414 0.31795 0.14029
 C276 C 0.21322 0.29049 0.15776
 C277 C 0.19369 0.26593 0.17976
 N278 N 0.13466 0.34965 0.12884
 N279 N 0.14738 0.36853 0.10201
 C280 C 0.12504 0.39625 0.08709
 C281 C 0.12870 0.40507 0.04864
 C282 C 0.10313 0.42809 0.03224
 C283 C 0.07425 0.44337 0.05446
 C284 C 0.07258 0.43662 0.09362
 C285 C 0.09747 0.41293 0.10973
 H286 H 0.13856 0.24999 0.19869
 H287 H 0.10571 0.29903 0.16982
 H288 H 0.20974 0.33675 0.12385
 H289 H 0.24330 0.28869 0.15461
 H290 H 0.14988 0.39247 0.03090
 H291 H 0.10498 0.43281 0.00195
 H292 H 0.05050 0.44785 0.11138
 H293 H 0.09446 0.40677 0.13962
 C294 C -0.18850 0.23762 -0.12372
 C295 C -0.17851 0.26816 -0.10573
 C296 C -0.17154 0.29814 -0.12689
 C297 C -0.17465 0.29723 -0.16659
 C298 C -0.18451 0.26659 -0.18467
 C299 C -0.19149 0.23646 -0.16339
 N300 N -0.15963 0.32848 -0.10757
 N301 N -0.15394 0.35703 -0.12470
 C302 C -0.13954 0.38659 -0.10578
 C303 C -0.12925 0.41539 -0.12751
 C304 C -0.10899 0.44201 -0.11146
 C305 C -0.09895 0.44034 -0.07317
 C306 C -0.11217 0.41289 -0.05055
 C307 C -0.13213 0.38608 -0.06677
 H308 H -0.19356 0.21473 -0.10669
 H309 H -0.17592 0.26842 -0.07519
 H310 H -0.16918 0.32003 -0.18362
 H311 H -0.18701 0.26643 -0.21521
 H312 H -0.13493 0.41620 -0.15753
 H313 H -0.09923 0.46284 -0.12958
 H314 H -0.10473 0.41078 -0.02104
 H315 H -0.14005 0.36420 -0.04927
 C316 C 0.24382 0.71721 -0.19880
 C317 C 0.22845 0.68802 -0.18134
 C318 C 0.19330 0.67658 -0.19144
 C319 C 0.17449 0.69356 -0.22082
 C320 C 0.18954 0.72304 -0.23791
 C321 C 0.22367 0.73635 -0.22586
 N322 N 0.17575 0.65003 -0.16925
 N323 N 0.14549 0.63636 -0.17926
 C324 C 0.12538 0.61261 -0.15554
 C325 C 0.09484 0.59575 -0.17044
 C326 C 0.07140 0.57616 -0.14692
 C327 C 0.07785 0.57354 -0.10781
 C328 C 0.10943 0.58936 -0.09313
 C329 C 0.13314 0.60864 -0.11685
 H330 H 0.27089 0.72562 -0.18992
 H331 H 0.24345 0.67493 -0.15903
 H332 H 0.14735 0.68504 -0.22937
 H333 H 0.17348 0.73605 -0.25943
 H334 H 0.08845 0.59878 -0.20014
 H335 H 0.04729 0.56435 -0.15912
 H336 H 0.11514 0.58776 -0.06314
 H337 H 0.15649 0.62166 -0.10464
 C338 C -0.14769 0.76988 0.19079
 C339 C -0.13133 0.74560 0.16602
 C340 C -0.14857 0.71403 0.15950
 C341 C -0.18226 0.70657 0.17884
 C342 C -0.19876 0.73098 0.20367
 C343 C -0.18187 0.76308 0.20947
 N344 N -0.13125 0.69054 0.13278
 N345 N -0.14379 0.66068 0.12555
 C346 C -0.12495 0.63826 0.09862
 C347 C -0.13437 0.60324 0.09709
 C348 C -0.11355 0.58016 0.07404
 C349 C -0.08314 0.59191 0.05182
 C350 C -0.07539 0.62749 0.05161
 C351 C -0.09592 0.65038 0.07488
 H352 H -0.13421 0.79447 0.19441
 H353 H -0.10534 0.75161 0.15136
 H354 H -0.19603 0.68225 0.17435
 H355 H -0.22508 0.72523 0.21782
 H356 H -0.15683 0.59355 0.11502
 H357 H -0.12023 0.55293 0.07488
 H358 H -0.05230 0.63750 0.03477
 H359 H -0.08837 0.67739 0.07506
 C360 C 1.15774 0.20319 0.77545
 C361 C 1.13882 0.18457 0.74830
 C362 C 1.15807 0.16105 0.72472
 C363 C 1.19675 0.15643 0.72826
 C364 C 1.21567 0.17448 0.75590
 C365 C 1.19644 0.19799 0.78019
 N366 N 1.13760 0.14122 0.69841
 N367 N 1.15378 0.12502 0.67117
 C368 C 1.13357 0.10409 0.64571
 C369 C 1.14958 0.09623 0.61021
 C370 C 1.13039 0.07620 0.58452
 C371 C 1.09518 0.06292 0.59443
 C372 C 1.07960 0.07000 0.63056
 C373 C 1.09843 0.09086 0.65587
 H374 H 1.14175 0.22035 0.79410
 H375 H 1.10895 0.18816 0.74590
 H376 H 1.21217 0.13825 0.71034
 H377 H 1.24541 0.17008 0.75848
 H378 H 1.17677 0.10610 0.60226
 H379 H 1.14325 0.07087 0.55700
 H380 H 1.05273 0.05977 0.63904
 H381 H 1.08582 0.09629 0.68348
 C382 C 0.80242 -0.21392 0.69811
 C383 C 0.82262 -0.19230 0.67362
 C384 C 0.81863 -0.15631 0.67640
 C385 C 0.79417 -0.14200 0.70403
 C386 C 0.77448 -0.16354 0.72894
 C387 C 0.77827 -0.19977 0.72618
 N388 N 0.84110 -0.13484 0.65229
 N389 N 0.83480 -0.10248 0.64887
 C390 C 0.85880 -0.08107 0.62628
 C391 C 0.84645 -0.04795 0.61560
 C392 C 0.86961 -0.02655 0.59366
 C393 C 0.90573 -0.03785 0.58292
 C394 C 0.91826 -0.07084 0.59427
 C395 C 0.89490 -0.09239 0.61547
 H396 H 0.80599 -0.24170 0.69560
 H397 H 0.84162 -0.20359 0.65258
 H398 H 0.79111 -0.11422 0.70709
 H399 H 0.75699 -0.15182 0.75098
 H400 H 0.81876 -0.03888 0.62402
 H401 H 0.85945 -0.00114 0.58538
 H402 H 0.94601 -0.08019 0.58635
 H403 H 0.90520 -0.11773 0.62378
 C404 C 1.16977 -0.22365 0.27686
 C405 C 1.15235 -0.20187 0.30369
 C406 C 1.15049 -0.16613 0.29750
 C407 C 1.16725 -0.15209 0.26466
 C408 C 1.18531 -0.17367 0.23817
 C409 C 1.18640 -0.20989 0.24356
 N410 N 1.13210 -0.14451 0.32523
 N411 N 1.12255 -0.11337 0.31796
 C412 C 1.10572 -0.09134 0.34630
 C413 C 1.09073 -0.05917 0.33559
 C414 C 1.07594 -0.03638 0.36302
 C415 C 1.07667 -0.04534 0.40165
 C416 C 1.09117 -0.07789 0.41221
 C417 C 1.10537 -0.10077 0.38479
 H418 H 1.17061 -0.25128 0.28217
 H419 H 1.13983 -0.21290 0.32915
 H420 H 1.16644 -0.12445 0.25952
 H421 H 1.19729 -0.16220 0.21269
 H422 H 1.09090 -0.05163 0.30598
 H423 H 1.06499 -0.01143 0.35416
 H424 H 1.09184 -0.08556 0.44177
 H425 H 1.11688 -0.12546 0.39377
 C426 C 0.84143 0.20503 0.23670
 C427 C 0.86089 0.19149 0.26734
 C428 C 0.84237 0.17286 0.29585
 C429 C 0.80367 0.16855 0.29397
 C430 C 0.78397 0.18232 0.26350
 C431 C 0.80250 0.20058 0.23395
 N432 N 0.86384 0.15741 0.32536
 N433 N 0.84970 0.13717 0.35015
 C434 C 0.87193 0.12082 0.37853
 C435 C 0.85605 0.09507 0.40144
 C436 C 0.87790 0.07639 0.42696
 C437 C 0.91600 0.08349 0.43016
 C438 C 0.93155 0.11032 0.40828
 C439 C 0.90976 0.12875 0.38254
 H440 H 0.85731 0.21773 0.21434
 H441 H 0.89080 0.19469 0.26833
 H442 H 0.78869 0.15434 0.31584
 H443 H 0.75409 0.17878 0.26310
 H444 H 0.82694 0.08873 0.39865
 H445 H 0.86521 0.05586 0.44351
 H446 H 0.96084 0.11635 0.41020
 H447 H 0.92266 0.14867 0.36526
 C448 C 0.19583 0.27197 -0.20925
 C449 C 0.18035 0.30421 -0.19937
 C450 C 0.17366 0.31255 -0.16128
 C451 C 0.18562 0.28956 -0.13295
 C452 C 0.20145 0.25752 -0.14267
 C453 C 0.20523 0.24746 -0.18104
 N454 N 0.15080 0.34217 -0.15201
 N455 N 0.13567 0.34497 -0.11917
 C456 C 0.11030 0.37231 -0.10867
 C457 C 0.09063 0.36925 -0.07424
 C458 C 0.06318 0.39352 -0.06402
 C459 C 0.05534 0.42176 -0.08788
 C460 C 0.07593 0.42556 -0.12200
 C461 C 0.10306 0.40069 -0.13262
 H462 H 0.19928 0.26563 -0.23905
 H463 H 0.17149 0.32182 -0.22147
 H464 H 0.18101 0.29561 -0.10322
 H465 H 0.20781 0.23960 -0.11997
 H466 H 0.09606 0.34748 -0.05563
 H467 H 0.04836 0.39029 -0.03718
 H468 H 0.07057 0.44731 -0.14066
 H469 H 0.11807 0.40346 -0.15944
 C470 C -0.20395 0.24162 0.14282
 C471 C -0.18800 0.26889 0.12258
 C472 C -0.17285 0.29681 0.14156
 C473 C -0.17498 0.29794 0.18134
 C474 C -0.19064 0.27045 0.20182
 C475 C -0.20450 0.24131 0.18291
 N476 N -0.15264 0.32180 0.11972
 N477 N -0.14101 0.35004 0.13324
 C478 C -0.11831 0.37245 0.11030
 C479 C -0.11361 0.40695 0.12109
 C480 C -0.09094 0.42883 0.09907
 C481 C -0.07197 0.41609 0.06654
 C482 C -0.07649 0.38139 0.05612
 C483 C -0.09964 0.35989 0.07755
 H484 H -0.21380 0.21973 0.12702
 H485 H -0.18629 0.26772 0.09190
 H486 H -0.16341 0.31938 0.19657
 H487 H -0.19146 0.27166 0.23252
 H488 H -0.12768 0.41690 0.14639
 H489 H -0.08789 0.45548 0.10769
 H490 H -0.06244 0.37082 0.03111
 H491 H -0.10248 0.33325 0.06880
 C492 C -0.23368 0.71719 -0.22537
 C493 C -0.21385 0.69133 -0.20613
 C494 C -0.17963 0.69864 -0.18983
 C495 C -0.16493 0.73200 -0.19375
 C496 C -0.18447 0.75767 -0.21334
 C497 C -0.21911 0.75054 -0.22908
 N498 N -0.16030 0.67195 -0.16952
 N499 N -0.13218 0.67843 -0.14952
 C500 C -0.11197 0.65193 -0.12981
 C501 C -0.08327 0.66145 -0.10596
 C502 C -0.06189 0.63620 -0.08757
 C503 C -0.06872 0.60086 -0.09312
 C504 C -0.09802 0.59141 -0.11662
 C505 C -0.11954 0.61670 -0.13472
 H506 H -0.26045 0.71138 -0.23717
 H507 H -0.22543 0.66571 -0.20338
 H508 H -0.13846 0.73826 -0.18158
 H509 H -0.17306 0.78339 -0.21549
 H510 H -0.07718 0.68854 -0.10195
 H511 H -0.03951 0.64434 -0.06972
 H512 H -0.10407 0.56442 -0.12141
 H513 H -0.14158 0.60870 -0.15304
 C514 C 0.14350 0.73988 0.20602
 C515 C 0.12383 0.71162 0.19313
 C516 C 0.14266 0.68303 0.17748
 C517 C 0.18183 0.68230 0.17606
 C518 C 0.20178 0.71034 0.18971
 C519 C 0.18300 0.74010 0.20432
 N520 N 0.12105 0.65628 0.16129
 N521 N 0.13522 0.63273 0.14006
 C522 C 0.11218 0.60788 0.12230
 C523 C 0.12635 0.58993 0.09058
 C524 C 0.10275 0.57020 0.06864
 C525 C 0.06472 0.56758 0.07867
 C526 C 0.05115 0.58342 0.11213
 C527 C 0.07463 0.60372 0.13363
 H528 H 0.12749 0.76217 0.21602
 H529 H 0.09362 0.71256 0.19404
 H530 H 0.19696 0.66020 0.16429
 H531 H 0.23195 0.70867 0.18892
 H532 H 0.15521 0.59289 0.08158
 H533 H 0.11389 0.55805 0.04304
 H534 H 0.02194 0.58183 0.12042
 H535 H 0.06312 0.61717 0.15825
 C536 C 0.23065 1.15931 0.83971
 C537 C 0.25397 1.13980 0.86275
 C538 C 0.28566 1.15436 0.87785
 C539 C 0.29382 1.18912 0.87008
 C540 C 0.27015 1.20902 0.84736
 C541 C 0.23822 1.19436 0.83155
 N542 N 0.30927 1.13267 0.90009
 N543 N 0.34111 1.14164 0.91138
 C544 C 0.36371 1.11772 0.93221
 C545 C 0.40206 1.12322 0.93456
 C546 C 0.42550 1.09738 0.94918
 C547 C 0.41066 1.06583 0.96202
 C548 C 0.37184 1.06153 0.96214
 C549 C 0.34860 1.08716 0.94732
 H550 H 0.20596 1.14718 0.82916
 H551 H 0.24745 1.11302 0.86870
 H552 H 0.31837 1.20081 0.88148
 H553 H 0.27717 1.23568 0.84145
 H554 H 0.41403 1.14673 0.92316
 H555 H 0.45530 1.10151 0.94900
 H556 H 0.35950 1.03761 0.97191
 H557 H 0.31896 1.08248 0.94631
 C558 C 0.24275 0.77365 1.15994
 C559 C 0.27478 0.78711 1.14236
 C560 C 0.30048 0.80542 1.16337
 C561 C 0.29486 0.80865 1.20271
 C562 C 0.26309 0.79504 1.22042
 C563 C 0.23583 0.77805 1.19928
 N564 N 0.33013 0.82291 1.14372
 N565 N 0.35133 0.84385 1.16038
 C566 C 0.37906 0.86327 1.14003
 C567 C 0.39698 0.89010 1.15859
 C568 C 0.41996 0.91283 1.13817
 C569 C 0.42550 0.90881 1.09883
 C570 C 0.40935 0.88051 1.08076
 C571 C 0.38621 0.85803 1.10112
 H572 H 0.22234 0.76176 1.14223
 H573 H 0.27870 0.78469 1.11193
 H574 H 0.31448 0.82249 1.21964
 H575 H 0.25938 0.79839 1.25078
 H576 H 0.39170 0.89438 1.18860
 H577 H 0.43212 0.93432 1.15284
 H578 H 0.41320 0.87662 1.05049
 H579 H 0.37288 0.83736 1.08615
 C580 C 0.72238 1.21101 1.17457
 C581 C 0.69392 1.19228 1.15819
 C582 C 0.69706 1.15632 1.15468
 C583 C 0.72834 1.13897 1.16923
 C584 C 0.75638 1.15749 1.18653
 C585 C 0.75420 1.19394 1.18891
 N586 N 0.66836 1.13789 1.13621
 N587 N 0.67464 1.10814 1.12180
 C588 C 0.64616 1.08856 1.10446
 C589 C 0.65657 1.05947 1.08294
 C590 C 0.62946 1.03841 1.06767
 C591 C 0.59139 1.04585 1.07427
 C592 C 0.58093 1.07546 1.09529
 C593 C 0.60812 1.09684 1.11004
 H594 H 0.71954 1.23891 1.17627
 H595 H 0.66978 1.20591 1.14734
 H596 H 0.73115 1.11110 1.16708
 H597 H 0.78066 1.14344 1.19642
 H598 H 0.68580 1.05279 1.07853
 H599 H 0.63831 1.01555 1.05197
 H600 H 0.55177 1.08175 1.10085
 H601 H 0.59944 1.11915 1.12674
 C602 C 0.69630 0.80394 0.74687
 C603 C 0.66452 0.81952 0.76372
 C604 C 0.65912 0.81863 0.80315
 C605 C 0.68470 0.80001 0.82533
 C606 C 0.71657 0.78495 0.80867
 C607 C 0.72351 0.78787 0.76941
 N608 N 0.63045 0.83984 0.82069
 N609 N 0.62630 0.83990 0.85660
 C610 C 0.60168 0.86278 0.87722
 C611 C 0.60192 0.86073 0.91670
 C612 C 0.58342 0.88566 0.93870
 C613 C 0.56392 0.91314 0.92157
 C614 C 0.56173 0.91424 0.88183
 C615 C 0.58090 0.88927 0.85962
 H616 H 0.70072 0.80606 0.71647
 H617 H 0.64503 0.83365 0.74624
 H618 H 0.68123 0.79873 0.85589
 H619 H 0.73685 0.77283 0.82692
 H620 H 0.61792 0.84048 0.93047
 H621 H 0.58501 0.88379 0.96929
 H622 H 0.54668 0.93511 0.86805
 H623 H 0.58056 0.89133 0.82900
   
