data_POSCAR
  _audit_creation_date              2014-09-24
  _audit_creation_method            'ToBaCCo'
  _symmetry_space_group_name_H-M    'P1'
  _symmetry_Int_Tables_number       1
  _symmetry_cell_setting            triclinic
  loop_
  _symmetry_equiv_pos_as_xyz
 x,y,z
_cell_length_a 17.2132
_cell_length_b 17.0912
_cell_length_c 17.0946
_cell_angle_alpha 62.933300
_cell_angle_beta 69.800900
_cell_angle_gamma 106.541300
loop_
  _atom_site_label
  _atom_site_type_symbol
  _atom_site_fract_x
  _atom_site_fract_y
  _atom_site_fract_z
O1 O 0.55149 0.45187 0.09813
 O2 O 0.33141 0.41755 0.09485
 O3 O 0.43087 0.32950 0.09063
 O4 O 0.44365 0.53459 0.11599
 O5 O 0.53789 0.65304 -0.05776
 O6 O 0.52441 0.44715 -0.08306
 O7 O 0.42467 0.53765 -0.07814
 O8 O 0.64400 0.57136 -0.07522
 Cu9 Cu 0.43052 0.42270 0.11717
 Cu10 Cu 0.54191 0.56396 -0.09081
 C11 C 0.63520 0.51546 0.01155
 C12 C 0.34049 0.47272 0.00744
 C13 C 0.47619 0.35341 -0.00074
 C14 C 0.49133 0.62789 0.03408
 O15 O -0.07936 0.56456 0.52812
 O16 O -0.06318 0.34125 0.56620
 O17 O -0.06282 0.42758 0.65761
 O18 O -0.08931 0.47159 0.43935
 O19 O 0.07054 0.57273 0.32682
 O20 O 0.09650 0.53627 0.54419
 O21 O 0.09670 0.44357 0.45441
 O22 O 0.07912 0.66793 0.40845
 Cu23 Cu -0.08939 0.44145 0.55815
 Cu24 Cu 0.10181 0.56474 0.42250
 C25 C -0.00234 0.65429 0.46377
 C26 C 0.01954 0.35472 0.51545
 C27 C 0.02065 0.47756 0.63770
 C28 C -0.01392 0.52710 0.34645
 O29 O 0.52482 0.10253 0.55010
 O30 O 0.56768 0.08592 0.33244
 O31 O 0.43997 0.09231 0.45457
 O32 O 0.65980 0.08813 0.42824
 O33 O 0.57380 -0.08285 0.53341
 O34 O 0.35117 -0.07575 0.58436
 O35 O 0.47518 -0.08423 0.45070
 O36 O 0.46816 -0.06420 0.65703
 Cu37 Cu 0.55883 0.10964 0.43009
 Cu38 Cu 0.45565 -0.09373 0.56887
 C39 C 0.49524 0.02277 0.63888
 C40 C 0.52398 -0.00278 0.35579
 C41 C 0.35767 0.00801 0.52368
 C42 C 0.65446 0.00194 0.47562
 C43 C 0.50167 -0.03653 0.04170
 C44 C 0.49635 0.03614 -0.03312
 C45 C 0.50072 0.03849 -0.12382
 C46 C 0.48534 0.11686 -0.02635
 C47 C 0.51348 -0.02803 0.12039
 C48 C 0.49379 -0.12963 0.05087
 C49 C 0.55621 0.00709 -0.17024
 C50 C 0.54904 -0.00377 -0.24383
 C51 C 0.49801 0.03107 -0.28483
 C52 C 0.45330 0.07588 -0.25007
 C53 C 0.45087 0.07518 -0.16691
 C54 C 0.54948 0.22169 -0.11423
 C55 C 0.54463 0.29855 -0.10697
 C56 C 0.47533 0.27189 -0.01118
 C57 C 0.40829 0.16661 0.07580
 C58 C 0.41242 0.08983 0.06782
 C59 C 0.45119 -0.11359 0.22786
 C60 C 0.45714 -0.10594 0.30360
 C61 C 0.52547 -0.01222 0.27360
 C62 C 0.59044 0.07265 0.16563
 C63 C 0.58540 0.06431 0.08954
 C64 C 0.41261 -0.19806 0.06439
 C65 C 0.41089 -0.27910 0.06176
 C66 C 0.49025 -0.29240 0.04540
 C67 C 0.56950 -0.22695 0.03625
 C68 C 0.57063 -0.14690 0.04056
 H69 H 0.60468 -0.01043 -0.14937
 H70 H 0.58838 -0.03379 -0.27350
 H71 H 0.41478 0.10484 -0.28203
 H72 H 0.40938 0.10284 -0.13600
 H73 H 0.60466 0.24382 -0.18780
 H74 H 0.59705 0.37891 -0.17548
 H75 H 0.36024 0.00927 0.13598
 H76 H 0.39600 -0.18575 0.25351
 H77 H 0.40592 -0.17274 0.38612
 H78 H 0.64440 0.14558 0.14014
 H79 H 0.63625 0.13055 0.00677
 H80 H 0.35217 -0.18672 0.07383
 H81 H 0.34899 -0.32962 0.06946
 H82 H 0.63097 -0.23685 0.02408
 H83 H 0.63353 -0.09523 0.03063
 H84 H 0.35329 0.14358 0.15035
 C85 C -0.02610 0.49991 0.96977
 C86 C 0.01445 0.49425 1.02587
 C87 C 0.09386 0.47257 1.01167
 C88 C -0.01241 0.51657 1.10201
 C89 C -0.11064 0.51293 0.99193
 C90 C 0.00536 0.48571 0.88760
 C91 C 0.08247 0.39307 1.10115
 C92 C 0.16336 0.38994 1.09886
 C93 C 0.25761 0.46537 1.00607
 C94 C 0.26752 0.53919 0.91393
 C95 C 0.18682 0.54418 0.91745
 C96 C -0.09192 0.43788 1.20727
 C97 C -0.09790 0.44627 1.28654
 C98 C -0.02290 0.53209 1.26178
 C99 C 0.05242 0.61422 1.15544
 C100 C 0.05717 0.60674 1.07616
 C101 C -0.10084 0.60281 0.91550
 C102 C -0.18360 0.60612 0.92447
 C103 C -0.27745 0.51966 1.01048
 C104 C -0.28677 0.43155 1.08911
 C105 C -0.20411 0.42774 1.07905
 C106 C 0.07830 0.57205 0.78192
 C107 C 0.09043 0.56581 0.70020
 C108 C 0.02696 0.47435 0.72285
 C109 C -0.04290 0.38653 0.82883
 C110 C -0.05309 0.39203 0.91062
 H111 H 0.01158 0.33747 1.17522
 H112 H 0.15224 0.33094 1.17114
 H113 H 0.33875 0.59843 0.84103
 H114 H 0.19865 0.60894 0.84902
 H115 H -0.14404 0.36588 1.22973
 H116 H -0.15600 0.38122 1.36810
 H117 H 0.12007 0.66727 0.99565
 H118 H -0.02934 0.66835 0.84625
 H119 H -0.17430 0.67468 0.86212
 H120 H -0.35814 0.36289 1.15439
 H121 H -0.21327 0.35584 1.13541
 H122 H 0.12077 0.64641 0.76211
 H123 H 0.14311 0.63527 0.61915
 H124 H -0.09344 0.31556 0.84814
 H125 H -0.11155 0.32552 0.99149
 H126 H 0.11115 0.68110 1.13434
 C127 C 0.02844 -0.02804 0.49796
 C128 C -0.01731 0.02470 0.49622
 C129 C -0.09784 0.00650 0.48048
 C130 C 0.00828 0.10419 0.51190
 C131 C 0.10857 -0.00876 0.51444
 C132 C 0.00770 -0.10315 0.47582
 C133 C -0.08426 0.08495 0.38849
 C134 C -0.16464 0.08196 0.38411
 C135 C -0.25945 -0.00057 0.47118
 C136 C -0.27244 -0.08126 0.56103
 C137 C -0.19250 -0.07661 0.56646
 C138 C 0.08648 0.20589 0.42626
 C139 C 0.09549 0.28690 0.43152
 C140 C 0.02431 0.26772 0.52113
 C141 C -0.05107 0.16524 0.60887
 C142 C -0.05862 0.08401 0.60444
 C143 C 0.09564 -0.08642 0.60629
 C144 C 0.17607 -0.07898 0.61257
 C145 C 0.27041 0.00663 0.52701
 C146 C 0.28222 0.08597 0.43708
 C147 C 0.20225 0.07752 0.43031
 C148 C -0.07695 -0.20239 0.55159
 C149 C -0.08472 -0.28066 0.54168
 C150 C -0.00519 -0.26260 0.45924
 C151 C 0.07717 -0.16134 0.38026
 C152 C 0.08284 -0.08238 0.38795
 H153 H -0.01185 0.15151 0.32272
 H154 H -0.15303 0.14563 0.31451
 H155 H -0.34501 -0.14392 0.63036
 H156 H -0.20525 -0.13376 0.64070
 H157 H 0.13592 0.22393 0.35234
 H158 H 0.15312 0.36542 0.36201
 H159 H -0.12066 0.00629 0.67036
 H160 H 0.02399 -0.15516 0.67070
 H161 H 0.16501 -0.14194 0.68226
 H162 H 0.35426 0.15112 0.36868
 H163 H 0.21443 0.13459 0.35648
 H164 H -0.13372 -0.22206 0.62269
 H165 H -0.14903 -0.35766 0.60449
 H166 H 0.13941 -0.14384 0.31481
 H167 H 0.14917 -0.00653 0.32890
 H168 H -0.10713 0.14862 0.67857
   
