data_POSCAR
  _audit_creation_date              2014-09-24
  _audit_creation_method            'ToBaCCo'
  _symmetry_space_group_name_H-M    'P1'
  _symmetry_Int_Tables_number       1
  _symmetry_cell_setting            triclinic
  loop_
  _symmetry_equiv_pos_as_xyz
 x,y,z
_cell_length_a 42.8735
_cell_length_b 47.1878
_cell_length_c 42.8756
_cell_angle_alpha 89.929800
_cell_angle_beta 90.020400
_cell_angle_gamma 89.983900
loop_
  _atom_site_label
  _atom_site_type_symbol
  _atom_site_fract_x
  _atom_site_fract_y
  _atom_site_fract_z
C1 C 0.30693 0.27202 0.22663
 H2 H 0.31794 0.25687 0.24198
 C3 C 0.32542 0.29013 0.20868
 H4 H 0.35056 0.28841 0.21027
 C5 C 0.26095 0.29316 0.20662
 H6 H 0.23575 0.29430 0.20620
 C7 C 0.27853 0.31167 0.18827
 H8 H 0.26657 0.32694 0.17368
 N9 N 0.27529 0.27363 0.22503
 C10 C 0.19247 0.27210 0.27287
 H11 H 0.18140 0.25700 0.25756
 C12 C 0.17406 0.29020 0.29088
 H13 H 0.14892 0.28853 0.28937
 C14 C 0.23854 0.29311 0.29275
 H15 H 0.26375 0.29420 0.29311
 C16 C 0.22104 0.31161 0.31116
 H17 H 0.23307 0.32682 0.32572
 Zn18 Zn 0.24966 0.24983 0.24970
 N19 N 0.22412 0.27365 0.27438
 C20 C 0.27281 0.22754 0.30694
 N21 N 0.27433 0.22597 0.27530
 C22 C 0.29270 0.20647 0.26093
 C23 C 0.31113 0.18798 0.27848
 C24 C 0.29084 0.20945 0.32541
 C25 C 0.22646 0.22768 0.19248
 C26 C 0.20842 0.20963 0.17403
 C27 C 0.18811 0.18813 0.22098
 C28 C 0.20654 0.20659 0.23851
 N29 N 0.22494 0.22608 0.22412
 H30 H 0.25750 0.24267 0.31798
 H31 H 0.29306 0.20536 0.23573
 H32 H 0.32570 0.17275 0.26650
 H33 H 0.28934 0.21115 0.35054
 H34 H 0.24179 0.24280 0.18143
 H35 H 0.20994 0.21136 0.14890
 H36 H 0.17352 0.17290 0.23298
 H37 H 0.20618 0.20545 0.26371
 C38 C 0.18831 0.31026 0.31044
 C39 C 0.31126 0.31027 0.18909
 C40 C 0.18883 0.18955 0.18825
 C41 C 0.31042 0.18937 0.31121
 C42 C 0.80775 0.77288 0.22617
 H43 H 0.81884 0.75776 0.24150
 C44 C 0.82616 0.79099 0.20813
 H45 H 0.85128 0.78917 0.20977
 C46 C 0.76167 0.79389 0.20629
 H47 H 0.73647 0.79496 0.20596
 C48 C 0.77912 0.81241 0.18784
 H49 H 0.76688 0.82757 0.17333
 N50 N 0.77612 0.77442 0.22468
 C51 C 0.69338 0.77278 0.27262
 H52 H 0.68233 0.75765 0.25733
 C53 C 0.67493 0.79084 0.29064
 H54 H 0.64979 0.78911 0.28916
 C55 C 0.73941 0.79389 0.29246
 H56 H 0.76461 0.79503 0.29280
 C57 C 0.72188 0.81235 0.31088
 H58 H 0.73388 0.82759 0.32543
 Zn59 Zn 0.75060 0.75059 0.24944
 N60 N 0.72502 0.77439 0.27411
 C61 C 0.77377 0.72836 0.30668
 N62 N 0.77533 0.72681 0.27505
 C63 C 0.79374 0.70732 0.26070
 C64 C 0.81209 0.68878 0.27827
 C65 C 0.79173 0.71023 0.32517
 C66 C 0.72738 0.72830 0.19229
 C67 C 0.70938 0.71017 0.17390
 C68 C 0.68919 0.68871 0.22092
 C69 C 0.70758 0.70724 0.23839
 N70 N 0.72590 0.72675 0.22393
 H71 H 0.75843 0.74348 0.31771
 H72 H 0.79413 0.70622 0.23550
 H73 H 0.82667 0.67354 0.26630
 H74 H 0.79015 0.71190 0.35030
 H75 H 0.74265 0.74344 0.18118
 H76 H 0.71087 0.71184 0.14876
 H77 H 0.67467 0.67346 0.23298
 H78 H 0.70725 0.70615 0.26359
 C79 C 0.68915 0.81093 0.31020
 C80 C 0.81195 0.81116 0.18846
 C81 C 0.68987 0.69006 0.18819
 C82 C 0.81130 0.69012 0.31100
 C83 C 0.80768 0.27167 0.72766
 H84 H 0.81878 0.25651 0.74294
 C85 C 0.82608 0.28980 0.70963
 H86 H 0.85122 0.28810 0.71110
 C87 C 0.76159 0.29277 0.70786
 H88 H 0.73639 0.29387 0.70754
 C89 C 0.77907 0.31130 0.68944
 H90 H 0.76702 0.32656 0.67491
 N91 N 0.77604 0.27324 0.72620
 C92 C 0.69327 0.27161 0.77402
 H93 H 0.68221 0.25650 0.75870
 C94 C 0.67482 0.28972 0.79197
 H95 H 0.64968 0.28805 0.79042
 C96 C 0.73930 0.29263 0.79395
 H97 H 0.76450 0.29373 0.79434
 C98 C 0.72177 0.31115 0.81231
 H99 H 0.73377 0.32638 0.82686
 Zn100 Zn 0.75049 0.24938 0.75088
 N101 N 0.72491 0.27316 0.77557
 C102 C 0.77366 0.22704 0.80806
 N103 N 0.77520 0.22554 0.77645
 C104 C 0.79359 0.20608 0.76207
 C105 C 0.81198 0.18752 0.77957
 C106 C 0.79162 0.20891 0.82654
 C107 C 0.72737 0.22724 0.69364
 C108 C 0.70938 0.20919 0.67515
 C109 C 0.68901 0.18765 0.72205
 C110 C 0.70741 0.20610 0.73963
 N111 N 0.72581 0.22562 0.72527
 H112 H 0.75832 0.24215 0.81910
 H113 H 0.79396 0.20503 0.73687
 H114 H 0.82644 0.17242 0.76721
 H115 H 0.78982 0.21082 0.85165
 H116 H 0.74271 0.24238 0.68262
 H117 H 0.71093 0.21093 0.65002
 H118 H 0.67443 0.17240 0.73402
 H119 H 0.70701 0.20495 0.76483
 C120 C 0.68904 0.30981 0.81153
 C121 C 0.81180 0.30993 0.69010
 C122 C 0.68978 0.18909 0.68933
 C123 C 0.81136 0.18867 0.81246
 C124 C 0.30686 0.77231 0.72699
 H125 H 0.31788 0.75718 0.74236
 C126 C 0.32534 0.79039 0.70899
 H127 H 0.35048 0.78867 0.71057
 C128 C 0.26087 0.79342 0.70696
 H129 H 0.23567 0.79455 0.70654
 C130 C 0.27844 0.81190 0.68856
 H131 H 0.26648 0.82714 0.67394
 N132 N 0.27522 0.77391 0.72540
 C133 C 0.19238 0.77235 0.77315
 H134 H 0.18134 0.75724 0.75783
 C135 C 0.17391 0.79045 0.79110
 H136 H 0.14877 0.78877 0.78953
 C137 C 0.23839 0.79339 0.79312
 H138 H 0.26359 0.79449 0.79353
 C139 C 0.22083 0.81190 0.81147
 H140 H 0.23282 0.82713 0.82605
 Zn141 Zn 0.24961 0.75011 0.75008
 N142 N 0.22402 0.77391 0.77473
 C143 C 0.27283 0.72784 0.80732
 N144 N 0.27430 0.72627 0.77568
 C145 C 0.29265 0.70677 0.76128
 C146 C 0.31108 0.68826 0.77881
 C147 C 0.29086 0.70974 0.82576
 C148 C 0.22648 0.72789 0.69286
 C149 C 0.20851 0.70979 0.67442
 C150 C 0.18819 0.68830 0.72137
 C151 C 0.20656 0.70681 0.73890
 N152 N 0.22494 0.72632 0.72450
 H153 H 0.25753 0.74298 0.81838
 H154 H 0.29297 0.70567 0.73608
 H155 H 0.32563 0.67303 0.76680
 H156 H 0.28939 0.71143 0.85090
 H157 H 0.24180 0.74303 0.68180
 H158 H 0.21006 0.71148 0.64928
 H159 H 0.17363 0.67305 0.73338
 H160 H 0.20618 0.70570 0.76410
 C161 C 0.18810 0.81054 0.81067
 C162 C 0.31117 0.81049 0.68936
 C163 C 0.18896 0.68968 0.68864
 C164 C 0.31041 0.68964 0.81153
 C165 C 0.04218 0.04354 0.01078
 H166 H 0.04253 0.04468 -0.01443
 C167 C 0.06058 0.06202 0.02830
 H168 H 0.07514 0.07727 0.01629
 C169 C 0.02232 0.02241 0.05681
 H170 H 0.00701 0.00727 0.06787
 C171 C 0.04032 0.04049 0.07525
 H172 H 0.03882 0.03876 0.10039
 N173 N 0.02382 0.02402 0.02518
 C174 C 0.01038 -0.04304 -0.04347
 H175 H -0.01483 -0.04416 -0.04386
 C176 C 0.02793 -0.06153 -0.06183
 H177 H 0.01595 -0.07676 -0.07640
 C178 C 0.05638 -0.02197 -0.02352
 H179 H 0.06742 -0.00685 -0.00820
 C180 C 0.07485 -0.04005 -0.04149
 H181 H 0.09999 -0.03835 -0.03994
 Zn182 Zn -0.00086 0.00022 -0.00039
 N183 N 0.02474 -0.02355 -0.02508
 C184 C -0.02406 0.02251 -0.05761
 N185 N -0.02560 0.02403 -0.02597
 C186 C -0.04401 0.04350 -0.01158
 C187 C -0.06241 0.06202 -0.02912
 C188 C -0.04207 0.04063 -0.07606
 C189 C -0.01194 -0.04314 0.04269
 C190 C -0.02941 -0.06168 0.06110
 C191 C -0.07642 -0.04024 0.04085
 C192 C -0.05803 -0.02210 0.02282
 N193 N -0.02639 -0.02364 0.02432
 H194 H -0.00873 0.00740 -0.06866
 H195 H -0.04438 0.04457 0.01362
 H196 H -0.07699 0.07724 -0.01712
 H197 H -0.04053 0.03898 -0.10120
 H198 H 0.01327 -0.04423 0.04303
 H199 H -0.01736 -0.07692 0.07566
 H200 H -0.10157 -0.03857 0.03935
 H201 H -0.06913 -0.00697 0.00752
 C202 C 0.06066 -0.06014 -0.06106
 C203 C 0.05988 0.06060 0.06103
 C204 C -0.06214 -0.06034 0.06040
 C205 C -0.06165 0.06070 -0.06185
 C206 C 0.04296 0.54307 0.51123
 H207 H 0.04332 0.54418 0.48602
 C208 C 0.06134 0.56158 0.52874
 H209 H 0.07589 0.57683 0.51672
 C210 C 0.02306 0.52200 0.55728
 H211 H 0.00775 0.50687 0.56835
 C212 C 0.04104 0.54011 0.57571
 H213 H 0.03951 0.53842 0.60085
 N214 N 0.02459 0.52357 0.52564
 C215 C 0.01103 0.45647 0.45708
 H216 H -0.01417 0.45536 0.45674
 C217 C 0.02854 0.43798 0.43867
 H218 H 0.01652 0.42275 0.42413
 C219 C 0.05709 0.47754 0.47691
 H220 H 0.06816 0.49266 0.49220
 C221 C 0.07552 0.45945 0.45889
 H222 H 0.10065 0.46115 0.46038
 Zn223 Zn -0.00011 0.49976 0.50010
 N224 N 0.02545 0.47596 0.47542
 C225 C -0.02325 0.52203 0.44287
 N226 N -0.02483 0.52357 0.47450
 C227 C -0.04323 0.54307 0.48886
 C228 C -0.06157 0.56161 0.47129
 C229 C -0.04120 0.54017 0.42438
 C230 C -0.01119 0.45644 0.54321
 C231 C -0.02867 0.43793 0.56166
 C232 C -0.07568 0.45940 0.54145
 C233 C -0.05729 0.47751 0.52339
 N234 N -0.02564 0.47594 0.52485
 H235 H -0.00792 0.50691 0.43184
 H236 H -0.04363 0.54415 0.51406
 H237 H -0.07614 0.57685 0.48326
 H238 H -0.03962 0.53851 0.39925
 H239 H 0.01401 0.45534 0.54353
 H240 H -0.01661 0.42269 0.57622
 H241 H -0.10082 0.46109 0.53998
 H242 H -0.06839 0.49265 0.50808
 C243 C 0.06127 0.43936 0.43935
 C244 C 0.06059 0.56022 0.56147
 C245 C -0.06140 0.43930 0.56100
 C246 C -0.06077 0.56028 0.43856
 C247 C 0.54350 0.04324 0.51141
 H248 H 0.54390 0.04440 0.48621
 C249 C 0.56188 0.06168 0.52899
 H250 H 0.57648 0.07693 0.51703
 C251 C 0.52351 0.02209 0.55738
 H252 H 0.50816 0.00695 0.56839
 C253 C 0.54150 0.04013 0.57588
 H254 H 0.53994 0.03838 0.60101
 N255 N 0.52508 0.02372 0.52574
 C256 C 0.51162 -0.04326 0.45701
 H257 H 0.48641 -0.04437 0.45664
 C258 C 0.52915 -0.06171 0.43859
 H259 H 0.51715 -0.07691 0.42399
 C260 C 0.55764 -0.02223 0.47696
 H261 H 0.56869 -0.00713 0.49230
 C262 C 0.57609 -0.04028 0.45893
 H263 H 0.60123 -0.03858 0.46046
 Zn264 Zn 0.50041 -0.00002 0.50010
 N265 N 0.52600 -0.02380 0.47542
 C266 C 0.47729 0.02230 0.44286
 N267 N 0.47576 0.02385 0.47450
 C268 C 0.45736 0.04333 0.48887
 C269 C 0.43894 0.06182 0.47132
 C270 C 0.45927 0.04039 0.42440
 C271 C 0.48911 -0.04339 0.54313
 C272 C 0.47153 -0.06189 0.56150
 C273 C 0.42464 -0.04033 0.54110
 C274 C 0.44314 -0.02224 0.52313
 N275 N 0.47478 -0.02385 0.52472
 H276 H 0.49262 0.00718 0.43182
 H277 H 0.45698 0.04442 0.51407
 H278 H 0.42434 0.07704 0.48331
 H279 H 0.46079 0.03870 0.39926
 H280 H 0.51432 -0.04453 0.54355
 H281 H 0.48349 -0.07715 0.57609
 H282 H 0.39951 -0.03860 0.53952
 H283 H 0.43213 -0.00708 0.50779
 C284 C 0.56188 -0.06032 0.43932
 C285 C 0.56110 0.06023 0.56172
 C286 C 0.43880 -0.06046 0.56070
 C287 C 0.43966 0.06046 0.43860
 C288 C 0.54354 0.54333 0.01120
 H289 H 0.54387 0.54442 -0.01401
 C290 C 0.56194 0.56185 0.02867
 H291 H 0.57649 0.57708 0.01662
 C292 C 0.52368 0.52230 0.05729
 H293 H 0.50837 0.50718 0.06839
 C294 C 0.54169 0.54042 0.07568
 H295 H 0.54020 0.53874 0.10083
 N296 N 0.52517 0.52385 0.02565
 C297 C 0.51158 0.45672 -0.04288
 H298 H 0.48637 0.45564 -0.04327
 C299 C 0.52909 0.43817 -0.06121
 H300 H 0.51708 0.42294 -0.07575
 C301 C 0.55763 0.47774 -0.02297
 H302 H 0.56869 0.49286 -0.00767
 C303 C 0.57606 0.45959 -0.04090
 H304 H 0.60120 0.46125 -0.03935
 Zn305 Zn 0.50044 0.50005 0.00013
 N306 N 0.52599 0.47621 -0.02452
 C307 C 0.47719 0.52229 -0.05711
 N308 N 0.47575 0.52388 -0.02547
 C309 C 0.45742 0.54340 -0.01108
 C310 C 0.43898 0.56191 -0.02860
 C311 C 0.45915 0.54039 -0.07555
 C312 C 0.48919 0.45678 0.04330
 C313 C 0.47162 0.43828 0.06168
 C314 C 0.42471 0.45979 0.04124
 C315 C 0.44320 0.47788 0.02326
 N316 N 0.47484 0.47628 0.02485
 H317 H 0.49247 0.50714 -0.06817
 H318 H 0.45711 0.54452 0.01413
 H319 H 0.42445 0.57716 -0.01659
 H320 H 0.46060 0.53868 -0.10069
 H321 H 0.51439 0.45565 0.04371
 H322 H 0.48358 0.42303 0.07629
 H323 H 0.39958 0.46150 0.03965
 H324 H 0.43218 0.49300 0.00789
 C325 C 0.56183 0.43950 -0.06043
 C326 C 0.56124 0.56050 0.06140
 C327 C 0.43889 0.43968 0.06086
 C328 C 0.43962 0.56050 -0.06133
 C329 C 0.13386 -0.13442 -0.13475
 N330 N 0.16547 -0.13308 -0.13388
 N331 N 0.18267 -0.15054 -0.15119
 C332 C 0.16896 -0.17003 -0.17006
 N333 N 0.13730 -0.17130 -0.17086
 N334 N 0.12009 -0.15385 -0.15355
 C335 C 0.11490 -0.11517 -0.11566
 N336 N 0.08329 -0.11651 -0.11652
 N337 N 0.06610 -0.09905 -0.09921
 C338 C 0.07981 -0.07957 -0.08034
 N339 N 0.11147 -0.07829 -0.07954
 N340 N 0.12868 -0.09574 -0.09685
 C341 C 0.13425 0.36521 0.36530
 N342 N 0.16585 0.36655 0.36607
 N343 N 0.18299 0.34912 0.34867
 C344 C 0.16922 0.32966 0.32980
 N345 N 0.13756 0.32839 0.32910
 N346 N 0.12041 0.34581 0.34650
 C347 C 0.11534 0.38442 0.38449
 N348 N 0.08373 0.38308 0.38373
 N349 N 0.06659 0.40050 0.40114
 C350 C 0.08036 0.41996 0.42000
 N351 N 0.11202 0.42124 0.42069
 N352 N 0.12918 0.40382 0.40329
 C353 C 0.63499 -0.13427 0.36514
 N354 N 0.66659 -0.13288 0.36591
 N355 N 0.68376 -0.15026 0.34847
 C356 C 0.67003 -0.16971 0.32958
 N357 N 0.63837 -0.17104 0.32888
 N358 N 0.62118 -0.15366 0.34631
 C359 C 0.61605 -0.11512 0.38437
 N360 N 0.58444 -0.11650 0.38359
 N361 N 0.56727 -0.09912 0.40103
 C362 C 0.58100 -0.07968 0.41993
 N363 N 0.61266 -0.07836 0.42064
 N364 N 0.62985 -0.09573 0.40321
 C365 C 0.63489 0.36498 -0.13396
 N366 N 0.66650 0.36627 -0.13310
 N367 N 0.68366 0.34877 -0.15038
 C368 C 0.66992 0.32928 -0.16922
 N369 N 0.63826 0.32804 -0.17002
 N370 N 0.62108 0.34554 -0.15274
 C371 C 0.61596 0.38428 -0.11491
 N372 N 0.58435 0.38300 -0.11578
 N373 N 0.56719 0.40051 -0.09850
 C374 C 0.58093 0.42000 -0.07967
 N375 N 0.61260 0.42123 -0.07887
 N376 N 0.62977 0.40372 -0.09614
 C377 C -0.13550 0.13513 -0.13495
 N378 N -0.15432 0.15453 -0.12116
 N379 N -0.17167 0.17201 -0.13834
 C380 C -0.17098 0.17089 -0.17007
 N381 N -0.15202 0.15135 -0.18371
 N382 N -0.13466 0.13386 -0.16654
 C383 C -0.11637 0.11585 -0.11601
 N384 N -0.09755 0.09644 -0.12981
 N385 N -0.08020 0.07895 -0.11263
 C386 C -0.08097 0.08017 -0.08097
 N387 N -0.09986 0.09963 -0.06724
 N388 N -0.11721 0.11713 -0.08441
 C389 C -0.13424 0.63487 0.36529
 N390 N -0.15303 0.65434 0.37905
 N391 N -0.17030 0.67186 0.36182
 C392 C -0.16947 0.67063 0.33016
 N393 N -0.15061 0.65111 0.31647
 N394 N -0.13334 0.63358 0.33369
 C395 C -0.11521 0.61555 0.38427
 N396 N -0.09642 0.59608 0.37052
 N397 N -0.07917 0.57856 0.38774
 C398 C -0.08000 0.57978 0.41940
 N399 N -0.09885 0.59930 0.43309
 N400 N -0.11612 0.61683 0.41588
 C401 C 0.36542 0.13450 0.36543
 N402 N 0.34657 0.15389 0.37921
 N403 N 0.32912 0.17129 0.36201
 C404 C 0.32982 0.16998 0.33035
 N405 N 0.34874 0.15053 0.31663
 N406 N 0.36619 0.13313 0.33382
 C407 C 0.38467 0.11533 0.38438
 N408 N 0.40353 0.09594 0.37060
 N409 N 0.42097 0.07854 0.38780
 C410 C 0.42027 0.07984 0.41946
 N411 N 0.40135 0.09929 0.43317
 N412 N 0.38390 0.11669 0.41598
 C413 C 0.36540 0.63468 -0.13435
 N414 N 0.34660 0.65410 -0.12054
 N415 N 0.32916 0.67153 -0.13770
 C416 C 0.32981 0.67023 -0.16936
 N417 N 0.34866 0.65075 -0.18311
 N418 N 0.36611 0.63332 -0.16596
 C419 C 0.38463 0.61547 -0.11544
 N420 N 0.40342 0.59604 -0.12926
 N421 N 0.42087 0.57861 -0.11209
 C422 C 0.42022 0.57992 -0.08043
 N423 N 0.40137 0.59940 -0.06668
 N424 N 0.38393 0.61683 -0.08383
 C425 C -0.13500 -0.13471 0.13447
 N426 N -0.16660 -0.13341 0.13370
 N427 N -0.18371 -0.15088 0.15112
 C428 C -0.16996 -0.17038 0.17005
 N429 N -0.13826 -0.17158 0.17071
 N430 N -0.12114 -0.15412 0.15329
 C431 C -0.11613 -0.11545 0.11528
 N432 N -0.08451 -0.11676 0.11605
 N433 N -0.06740 -0.09928 0.09864
 C434 C -0.08120 -0.07980 0.07977
 N435 N -0.11287 -0.07856 0.07906
 N436 N -0.12999 -0.09603 0.09646
 C437 C -0.13423 0.36500 0.63518
 N438 N -0.16584 0.36634 0.63446
 N439 N -0.18294 0.34888 0.65188
 C440 C -0.16914 0.32938 0.67073
 N441 N -0.13748 0.32810 0.67139
 N442 N -0.12036 0.34556 0.65397
 C443 C -0.11536 0.38425 0.61596
 N444 N -0.08375 0.38291 0.61669
 N445 N -0.06664 0.40037 0.59925
 C446 C -0.08045 0.41986 0.58040
 N447 N -0.11211 0.42114 0.57974
 N448 N -0.12923 0.40369 0.59717
 C449 C 0.36548 -0.13460 0.63459
 N450 N 0.33388 -0.13320 0.63372
 N451 N 0.31666 -0.15062 0.65110
 C452 C 0.33034 -0.17012 0.67003
 N453 N 0.36200 -0.17145 0.67083
 N454 N 0.37923 -0.15404 0.65346
 C455 C 0.38448 -0.11540 0.61544
 N456 N 0.41608 -0.11680 0.61630
 N457 N 0.43330 -0.09937 0.59894
 C458 C 0.41963 -0.07986 0.58001
 N459 N 0.38797 -0.07853 0.57921
 N460 N 0.37073 -0.09595 0.59657
 C461 C 0.36558 0.36535 0.13454
 N462 N 0.33398 0.36672 0.13363
 N463 N 0.31676 0.34925 0.15094
 C464 C 0.33044 0.32971 0.16983
 N465 N 0.36209 0.32841 0.17067
 N466 N 0.37933 0.34588 0.15337
 C467 C 0.38458 0.38461 0.11546
 N468 N 0.41618 0.38325 0.11636
 N469 N 0.43340 0.40072 0.09904
 C470 C 0.41972 0.42024 0.08014
 N471 N 0.38806 0.42154 0.07931
 N472 N 0.37083 0.40408 0.09662
 C473 C 0.13393 0.13469 0.13410
 N474 N 0.15276 0.15411 0.12029
 N475 N 0.17017 0.17151 0.13747
 C476 C 0.16946 0.17018 0.16913
 N477 N 0.15057 0.15070 0.18287
 N478 N 0.13315 0.13330 0.16571
 C479 C 0.11474 0.11550 0.11517
 N480 N 0.09592 0.09607 0.12898
 N481 N 0.07852 0.07867 0.11180
 C482 C 0.07924 0.07999 0.08014
 N483 N 0.09811 0.09948 0.06640
 N484 N 0.11552 0.11689 0.08356
 C485 C 0.13433 0.63458 0.63450
 N486 N 0.15312 0.65403 0.62069
 N487 N 0.17044 0.67150 0.63787
 C488 C 0.16967 0.67023 0.66953
 N489 N 0.15082 0.65072 0.68327
 N490 N 0.13350 0.63324 0.66611
 C491 C 0.11523 0.61531 0.61558
 N492 N 0.09645 0.59586 0.62940
 N493 N 0.07912 0.57839 0.61223
 C494 C 0.07988 0.57967 0.58057
 N495 N 0.09873 0.59917 0.56682
 N496 N 0.11606 0.61665 0.58397
 C497 C 0.63502 0.13424 0.63503
 N498 N 0.65386 0.15368 0.62128
 N499 N 0.67123 0.17107 0.63850
 C500 C 0.67045 0.16972 0.67016
 N501 N 0.65155 0.15022 0.68385
 N502 N 0.63417 0.13282 0.66663
 C503 C 0.61587 0.11507 0.61604
 N504 N 0.59702 0.09563 0.62978
 N505 N 0.57965 0.07824 0.61255
 C506 C 0.58043 0.07960 0.58089
 N507 N 0.59934 0.09909 0.56721
 N508 N 0.61671 0.11648 0.58443
 C509 C 0.63514 0.63490 0.13423
 N510 N 0.65390 0.65434 0.12036
 N511 N 0.67126 0.67183 0.13748
 C512 C 0.67056 0.67058 0.16914
 N513 N 0.65174 0.65109 0.18295
 N514 N 0.63437 0.63359 0.16584
 C515 C 0.61600 0.61562 0.11537
 N516 N 0.59723 0.59619 0.12924
 N517 N 0.57987 0.57871 0.11212
 C518 C 0.58057 0.57996 0.08046
 N519 N 0.59940 0.59945 0.06665
 N520 N 0.61677 0.61694 0.08376
   
