data_POSCAR
  _audit_creation_date              2014-09-24
  _audit_creation_method            'ToBaCCo'
  _symmetry_space_group_name_H-M    'P1'
  _symmetry_Int_Tables_number       1
  _symmetry_cell_setting            triclinic
  loop_
  _symmetry_equiv_pos_as_xyz
 x,y,z
_cell_length_a 24.8952
_cell_length_b 24.8723
_cell_length_c 24.7387
_cell_angle_alpha 89.825800
_cell_angle_beta 89.930100
_cell_angle_gamma 89.930700
loop_
  _atom_site_label
  _atom_site_type_symbol
  _atom_site_fract_x
  _atom_site_fract_y
  _atom_site_fract_z
C1 C 0.17561 0.17307 0.24396
 C2 C 0.15259 0.21907 0.22074
 C3 C 0.17566 0.24230 0.17463
 C4 C 0.22179 0.21955 0.15161
 C5 C 0.24494 0.17351 0.17474
 C6 C 0.22180 0.15026 0.22094
 H7 H 0.11690 0.23688 0.23848
 H8 H 0.23959 0.23773 0.11592
 H9 H 0.23971 0.11465 0.23895
 C10 C -0.17448 0.82506 0.24625
 C11 C -0.22052 0.84813 0.22320
 C12 C -0.24373 0.82509 0.17722
 C13 C -0.22092 0.77899 0.15425
 C14 C -0.17493 0.75588 0.17721
 C15 C -0.15170 0.77891 0.22320
 H16 H -0.23832 0.88381 0.24094
 H17 H -0.23892 0.76113 0.11868
 H18 H -0.11610 0.76089 0.24093
 C19 C -0.17448 0.17523 -0.24598
 C20 C -0.22053 0.15228 -0.22280
 C21 C -0.24373 0.17539 -0.17674
 C22 C -0.22090 0.22141 -0.15383
 C23 C -0.17493 0.24439 -0.17691
 C24 C -0.15170 0.22132 -0.22296
 H25 H -0.23835 0.11665 -0.24049
 H26 H -0.23890 0.23932 -0.11821
 H27 H -0.11610 0.23927 -0.24078
 C28 C 0.17500 0.82617 -0.24472
 C29 C 0.15203 0.78015 -0.22152
 C30 C 0.17506 0.75693 -0.17540
 C31 C 0.22105 0.77971 -0.15239
 C32 C 0.24407 0.82570 -0.17552
 C33 C 0.22106 0.84896 -0.22167
 H34 H 0.11643 0.76233 -0.23927
 H35 H 0.23891 0.76166 -0.11671
 H36 H 0.23902 0.88456 -0.23955
 C37 C 0.17445 1.17482 0.75377
 C38 C 0.22052 1.15194 0.77697
 C39 C 0.24350 1.17507 0.82304
 C40 C 0.22041 1.22108 0.84595
 C41 C 0.17439 1.24400 0.82284
 C42 C 0.15141 1.22088 0.77678
 H43 H 0.23852 1.11633 0.75928
 H44 H 0.23823 1.23901 0.88157
 H45 H 0.11579 1.23875 0.75894
 C46 C 0.82627 0.82503 0.75592
 C47 C 0.78024 0.84796 0.77905
 C48 C 0.75708 0.82480 0.82518
 C49 C 0.77993 0.77867 0.84830
 C50 C 0.82598 0.75559 0.82530
 C51 C 0.84915 0.77883 0.77908
 H52 H 0.76236 0.88365 0.76123
 H53 H 0.76182 0.76081 0.88400
 H54 H 0.88476 0.76098 0.76117
 C55 C 0.17427 0.82446 1.24559
 C56 C 0.15141 0.77843 1.22254
 C57 C 0.17458 0.75535 1.17645
 C58 C 0.22062 0.77833 1.15339
 C59 C 0.24350 0.82434 1.17638
 C60 C 0.22032 0.84738 1.22245
 H61 H 0.11579 0.76054 1.24036
 H62 H 0.23860 0.76046 1.11775
 H63 H 0.23816 0.88298 1.24020
 C64 C 0.82566 1.17528 1.24441
 C65 C 0.77954 1.15253 1.22146
 C66 C 0.75632 1.17578 1.17542
 C67 C 0.77924 1.22184 1.15221
 C68 C 0.82538 1.24473 1.17503
 C69 C 0.84857 1.22139 1.22115
 H70 H 0.76165 1.11690 1.23936
 H71 H 0.76111 1.23977 1.11658
 H72 H 0.88425 1.23909 1.23891
 N73 N 0.44334 0.94238 1.09626
 N74 N 0.40257 0.93536 1.12974
 N75 N 0.55656 0.90521 1.05900
 N76 N 0.59726 0.87187 1.06610
 N77 N 0.55641 0.94258 1.09641
 N78 N 0.59700 0.93573 1.13003
 N79 N 0.44356 0.90506 1.05880
 N80 N 0.40298 0.87160 1.06571
 C81 C 0.37799 0.89111 1.11005
 C82 C 0.62191 0.89153 1.11049
 N83 N 0.55694 0.94246 0.90492
 N84 N 0.59771 0.93554 0.87146
 N85 N 0.44386 0.90504 0.94239
 N86 N 0.40320 0.87172 0.93555
 N87 N 0.44391 0.94237 0.90473
 N88 N 0.40331 0.93554 0.87119
 N89 N 0.55689 0.90515 0.94261
 N90 N 0.59761 0.87177 0.93587
 Mn91 Mn 0.50022 0.90448 1.00070
 C92 C 0.62250 0.89135 0.89140
 C93 C 0.37851 0.89138 0.89103
 N94 N 0.55616 1.05845 1.09601
 N95 N 0.59686 1.06537 1.12946
 N96 N 0.44302 1.09557 1.05823
 N97 N 0.40218 1.12881 1.06501
 N98 N 0.44307 1.05823 1.09590
 N99 N 0.40229 1.06500 1.12937
 N100 N 0.55611 1.09577 1.05832
 N101 N 0.59676 1.12913 1.06505
 Mn102 Mn 0.49975 1.00041 1.09680
 C103 C 0.62160 1.10957 1.10953
 C104 C 0.37736 1.10912 1.10949
 N105 N 0.44356 1.05813 0.90431
 N106 N 0.40298 1.06493 0.87065
 N107 N 0.55639 1.09567 0.94184
 N108 N 0.59700 1.12907 0.93476
 N109 N 0.55657 1.05826 0.90448
 N110 N 0.59726 1.06512 0.87092
 N111 N 0.44332 1.09549 0.94173
 N112 N 0.40256 1.12877 0.93459
 Mn113 Mn 0.50025 1.00031 0.90398
 Mn114 Mn 0.49970 1.09628 1.00003
 Cl115 Cl 0.49998 1.00038 1.00039
 C116 C 0.37798 1.10909 0.89017
 C117 C 0.62191 1.10938 0.89042
 N118 N -0.09582 0.44284 0.05809
 N119 N -0.12922 0.40217 0.06499
 N120 N -0.05842 0.55564 0.09618
 N121 N -0.06517 0.59615 0.12989
 N122 N -0.09575 0.55605 0.05869
 N123 N -0.12896 0.59685 0.06582
 N124 N -0.05846 0.44247 0.09555
 N125 N -0.06538 0.40156 0.12898
 C126 C -0.10961 0.37697 0.10930
 C127 C -0.10927 0.62126 0.11034
 N128 N 0.09459 0.55580 0.05832
 N129 N 0.12789 0.59645 0.06531
 N130 N 0.05731 0.44237 0.09530
 N131 N 0.06439 0.40143 0.12865
 N132 N 0.09457 0.44271 0.05766
 N133 N 0.12805 0.40204 0.06430
 N134 N 0.05732 0.55555 0.09595
 N135 N 0.06421 0.59606 0.12962
 Mn136 Mn -0.00057 0.49900 0.09640
 C137 C 0.10834 0.62099 0.10988
 C138 C 0.10859 0.37687 0.10865
 N139 N -0.09578 0.55716 -0.05785
 N140 N -0.12909 0.59799 -0.06467
 N141 N -0.05852 0.44423 -0.09602
 N142 N -0.06528 0.40376 -0.12972
 N143 N -0.09583 0.44394 -0.05844
 N144 N -0.12907 0.40324 -0.06550
 N145 N -0.05844 0.55735 -0.09542
 N146 N -0.06528 0.59827 -0.12884
 Mn147 Mn -0.09645 0.50000 0.00012
 C148 C -0.10943 0.62307 -0.10905
 C149 C -0.10939 0.37878 -0.11007
 N150 N 0.09448 0.44359 -0.05869
 N151 N 0.12776 0.40285 -0.06584
 N152 N 0.05723 0.55707 -0.09555
 N153 N 0.06422 0.59798 -0.12893
 N154 N 0.09452 0.55667 -0.05804
 N155 N 0.12797 0.59728 -0.06482
 N156 N 0.05716 0.44395 -0.09617
 N157 N 0.06398 0.40346 -0.12990
 Mn158 Mn 0.09516 0.49969 -0.00019
 Mn159 Mn -0.00065 0.50065 -0.09643
 Cl160 Cl -0.00064 0.49984 -0.00001
 C161 C 0.10812 0.37840 -0.11035
 C162 C 0.10842 0.62246 -0.10911
 N163 N 0.90495 -0.05799 0.44351
 N164 N 0.87153 -0.06503 0.40275
 N165 N 0.94238 -0.09505 0.55742
 N166 N 0.93549 -0.12847 0.59839
 N167 N 0.90503 -0.05769 0.55733
 N168 N 0.87164 -0.06467 0.59829
 N169 N 0.94225 -0.09539 0.44370
 N170 N 0.93527 -0.12896 0.40307
 C171 C 0.89108 -0.10939 0.37811
 C172 C 0.89130 -0.10891 0.62333
 N173 N 1.09533 -0.05783 0.55688
 N174 N 1.12881 -0.06465 0.59766
 N175 N 1.05793 -0.09555 0.44348
 N176 N 1.06481 -0.12914 0.40283
 N177 N 1.09527 -0.05830 0.44318
 N178 N 1.12864 -0.06546 0.40230
 N179 N 1.05805 -0.09515 0.55721
 N180 N 1.06510 -0.12845 0.59826
 Mn181 Mn 1.00015 -0.09592 0.50046
 C182 C 1.10933 -0.10877 0.62289
 C183 C 1.10900 -0.10974 0.37771
 N184 N 0.90504 0.05822 0.55648
 N185 N 0.87164 0.06535 0.59734
 N186 N 0.94237 0.09516 0.44240
 N187 N 0.93539 0.12860 0.40144
 N188 N 0.90499 0.05792 0.44268
 N189 N 0.87152 0.06497 0.40188
 N190 N 0.94234 0.09554 0.55618
 N191 N 0.93537 0.12911 0.59684
 Mn192 Mn 0.90435 0.00012 0.50000
 C193 C 0.89118 0.10965 0.62194
 C194 C 0.89113 0.10915 0.37671
 N195 N 1.09538 0.05744 0.44251
 N196 N 1.12891 0.06413 0.40167
 N197 N 1.05809 0.09532 0.55603
 N198 N 1.06504 0.12885 0.59669
 N199 N 1.09538 0.05792 0.55621
 N200 N 1.12877 0.06492 0.59701
 N201 N 1.05814 0.09489 0.44223
 N202 N 1.06528 0.12816 0.40116
 Mn203 Mn 1.09596 -0.00019 0.49969
 Mn204 Mn 1.00023 0.09587 0.49920
 Cl205 Cl 1.00016 -0.00002 0.49984
 C206 C 1.10951 0.10831 0.37644
 C207 C 1.10922 0.10926 0.62169
 C208 C 1.15318 0.15083 0.28899
 C209 C 1.13320 0.13140 0.32890
 C210 C 0.84793 -0.15265 0.29109
 C211 C 0.86767 -0.13290 0.33081
 C212 C 0.84796 0.15292 0.70911
 C213 C 0.86775 0.13319 0.66932
 C214 C 1.15270 -0.15153 0.71028
 C215 C 1.13287 -0.13198 0.67039
 C216 C 0.28997 1.15156 1.15248
 C217 C 0.32986 1.13221 1.13281
 C218 C 0.29147 0.84889 0.84800
 C219 C 0.33121 0.86826 0.86768
 C220 C 0.70890 0.84863 1.15372
 C221 C 0.66919 0.86826 1.13401
 C222 C 0.70890 1.15204 0.84696
 C223 C 0.66919 1.13259 0.86685
 C224 C 0.15204 0.28971 0.15118
 C225 C 0.13217 0.32949 0.13176
 C226 C -0.15173 0.29179 -0.15338
 C227 C -0.13241 0.33151 -0.13360
 C228 C 0.15157 0.70955 -0.15188
 C229 C 0.13186 0.66980 -0.13233
 C230 C -0.15169 0.70841 0.15365
 C231 C -0.13231 0.66862 0.13389
 C232 C 1.15222 0.15246 0.70885
 C233 C 1.13258 0.13272 0.66906
 C234 C 0.84850 -0.15246 0.71085
 C235 C 0.86801 -0.13250 0.67092
 C236 C 1.15193 -0.15319 0.29052
 C237 C 1.13229 -0.13335 0.33032
 C238 C 0.84801 0.15272 0.28938
 C239 C 0.86768 0.13276 0.32923
 C240 C 0.15088 0.29139 -0.15367
 C241 C 0.13131 0.33111 -0.13393
 C242 C -0.15250 0.28970 0.15255
 C243 C -0.13296 0.32952 0.13274
 C244 C -0.15201 0.71053 -0.15228
 C245 C -0.13262 0.67062 -0.13247
 C246 C 0.15118 0.70797 0.15295
 C247 C 0.13159 0.66826 0.13332
 C248 C 0.29091 1.15172 0.84672
 C249 C 0.33065 1.13225 0.86656
 C250 C 0.29092 0.84787 1.15288
 C251 C 0.33066 0.86764 1.13334
 C252 C 0.70881 1.15243 1.15211
 C253 C 0.66900 1.13285 1.13268
 C254 C 0.70965 0.84830 0.84863
 C255 C 0.66987 0.86798 0.86816
   
