data_POSCAR
  _audit_creation_date              2014-09-24
  _audit_creation_method            'ToBaCCo'
  _symmetry_space_group_name_H-M    'P1'
  _symmetry_Int_Tables_number       1
  _symmetry_cell_setting            triclinic
  loop_
  _symmetry_equiv_pos_as_xyz
 x,y,z
_cell_length_a 43.6297
_cell_length_b 44.1413
_cell_length_c 44.1390
_cell_angle_alpha 90.022000
_cell_angle_beta 89.998100
_cell_angle_gamma 90.041400
loop_
  _atom_site_label
  _atom_site_type_symbol
  _atom_site_fract_x
  _atom_site_fract_y
  _atom_site_fract_z
C1 C 0.27555 0.23569 0.23728
 C2 C 0.26264 0.22293 0.26343
 C3 C 0.23699 0.23597 0.27647
 C4 C 0.22407 0.26210 0.26370
 C5 C 0.23683 0.27469 0.23791
 C6 C 0.26280 0.26147 0.22468
 C7 C 0.30030 0.22777 0.21963
 N8 N 0.30294 0.24825 0.19683
 C9 C 0.28016 0.26897 0.19975
 C10 C 0.21950 0.29962 0.23042
 N11 N 0.19672 0.30255 0.25118
 C12 C 0.19935 0.27976 0.27166
 C13 C 0.22932 0.21870 0.30131
 N14 N 0.24983 0.19571 0.30373
 C15 C 0.27033 0.19813 0.28071
 H16 H 0.31539 0.20864 0.22320
 H17 H 0.27641 0.28802 0.18475
 H18 H 0.22326 0.31462 0.21138
 H19 H 0.18428 0.27620 0.29082
 H20 H 0.21034 0.22267 0.31660
 H21 H 0.28932 0.18286 0.27675
 C22 C 0.72416 -0.23646 0.23691
 C23 C 0.73699 -0.22377 0.26314
 C24 C 0.76246 -0.23697 0.27635
 C25 C 0.77530 -0.26317 0.26364
 C26 C 0.76266 -0.27567 0.23774
 C27 C 0.73681 -0.26233 0.22440
 C28 C 0.69956 -0.22839 0.21915
 N29 N 0.69678 -0.24894 0.19635
 C30 C 0.71947 -0.26981 0.19944
 C31 C 0.78001 -0.30061 0.23025
 N32 N 0.80270 -0.30368 0.25114
 C33 C 0.79991 -0.28091 0.27171
 C34 C 0.77010 -0.21974 0.30123
 N35 N 0.74974 -0.19661 0.30353
 C36 C 0.72936 -0.19890 0.28039
 H37 H 0.68463 -0.20913 0.22275
 H38 H 0.72321 -0.28898 0.18456
 H39 H 0.77628 -0.31546 0.21107
 H40 H 0.81483 -0.27730 0.29099
 H41 H 0.78897 -0.22382 0.31662
 H42 H 0.71050 -0.18350 0.27632
 C43 C 0.72454 0.23694 0.76242
 C44 C 0.73742 0.22421 0.73625
 C45 C 0.76287 0.23745 0.72301
 C46 C 0.77565 0.26374 0.73566
 C47 C 0.76296 0.27627 0.76151
 C48 C 0.73712 0.26289 0.77487
 C49 C 0.69995 0.22883 0.78019
 N50 N 0.69712 0.24942 0.80294
 C51 C 0.71977 0.27037 0.79981
 C52 C 0.78024 0.30127 0.76896
 N53 N 0.80296 0.30437 0.74809
 C54 C 0.80024 0.28154 0.72757
 C55 C 0.77055 0.22015 0.69820
 N56 N 0.75022 0.19695 0.69597
 C57 C 0.72983 0.19927 0.71909
 H58 H 0.68507 0.20950 0.77664
 H59 H 0.72347 0.28958 0.81464
 H60 H 0.77646 0.31615 0.78811
 H61 H 0.81521 0.27794 0.70833
 H62 H 0.78942 0.22422 0.68279
 H63 H 0.71100 0.18383 0.72322
 C64 C 0.27560 -0.23636 0.76378
 C65 C 0.26279 -0.22367 0.73756
 C66 C 0.23726 -0.23685 0.72439
 C67 C 0.22435 -0.26301 0.73714
 C68 C 0.23698 -0.27550 0.76302
 C69 C 0.26289 -0.26219 0.77633
 C70 C 0.30026 -0.22831 0.78150
 N71 N 0.30301 -0.24884 0.80431
 C72 C 0.28024 -0.26967 0.80127
 C73 C 0.21956 -0.30040 0.77053
 N74 N 0.19684 -0.30347 0.74965
 C75 C 0.19969 -0.28071 0.72909
 C76 C 0.22965 -0.21966 0.69950
 N77 N 0.25009 -0.19657 0.69715
 C78 C 0.27048 -0.19886 0.72027
 H79 H 0.31525 -0.20908 0.77787
 H80 H 0.27646 -0.28882 0.81615
 H81 H 0.22326 -0.31525 0.78971
 H82 H 0.18477 -0.27711 0.70981
 H83 H 0.21076 -0.22374 0.68413
 H84 H 0.28940 -0.18349 0.72430
 C85 C 0.72415 -0.23626 0.76349
 C86 C 0.73698 -0.22357 0.73727
 C87 C 0.76246 -0.23676 0.72406
 C88 C 0.77530 -0.26296 0.73675
 C89 C 0.76266 -0.27546 0.76264
 C90 C 0.73680 -0.26213 0.77599
 C91 C 0.69954 -0.22820 0.78125
 N92 N 0.69677 -0.24875 0.80404
 C93 C 0.71947 -0.26962 0.80094
 C94 C 0.78002 -0.30039 0.77011
 N95 N 0.80271 -0.30347 0.74922
 C96 C 0.79992 -0.28069 0.72867
 C97 C 0.77010 -0.21954 0.69919
 N98 N 0.74973 -0.19642 0.69689
 C99 C 0.72935 -0.19871 0.72003
 H100 H 0.68461 -0.20895 0.77767
 H101 H 0.72321 -0.28878 0.81579
 H102 H 0.77629 -0.31525 0.78928
 H103 H 0.81484 -0.27708 0.70939
 H104 H 0.78897 -0.22362 0.68379
 H105 H 0.71049 -0.18331 0.72410
 C106 C 0.27610 0.23646 0.76260
 C107 C 0.26301 0.22352 0.73662
 C108 C 0.23740 0.23658 0.72354
 C109 C 0.22471 0.26292 0.73612
 C110 C 0.23766 0.27571 0.76173
 C111 C 0.26362 0.26248 0.77496
 C112 C 0.30082 0.22849 0.78025
 N113 N 0.30379 0.24921 0.80286
 C114 C 0.28115 0.27013 0.79974
 C115 C 0.22044 0.30075 0.76911
 N116 N 0.19754 0.30355 0.74848
 C117 C 0.19999 0.28058 0.72816
 C118 C 0.22956 0.21914 0.69886
 N119 N 0.24995 0.19603 0.69656
 C120 C 0.27051 0.19852 0.71952
 H121 H 0.31563 0.20912 0.77675
 H122 H 0.27754 0.28941 0.81450
 H123 H 0.22432 0.31589 0.78804
 H124 H 0.18475 0.27685 0.70916
 H125 H 0.21059 0.22310 0.68356
 H126 H 0.28946 0.18321 0.72352
 C127 C 0.27563 -0.23655 0.23668
 C128 C 0.26281 -0.22387 0.26292
 C129 C 0.23729 -0.23705 0.27608
 C130 C 0.22439 -0.26321 0.26332
 C131 C 0.23701 -0.27570 0.23742
 C132 C 0.26292 -0.26238 0.22412
 C133 C 0.30028 -0.22849 0.21897
 N134 N 0.30303 -0.24901 0.19614
 C135 C 0.28027 -0.26986 0.19917
 C136 C 0.21959 -0.30061 0.22989
 N137 N 0.19688 -0.30367 0.25076
 C138 C 0.19972 -0.28092 0.27135
 C139 C 0.22967 -0.21985 0.30098
 N140 N 0.25011 -0.19676 0.30335
 C141 C 0.27050 -0.19905 0.28022
 H142 H 0.31526 -0.20926 0.22261
 H143 H 0.27649 -0.28900 0.18427
 H144 H 0.22330 -0.31545 0.21069
 H145 H 0.18479 -0.27732 0.29063
 H146 H 0.21078 -0.22393 0.31636
 H147 H 0.28941 -0.18367 0.27619
 C148 C 0.72515 0.23616 0.23736
 C149 C 0.73783 0.22362 0.26371
 C150 C 0.76331 0.23683 0.27693
 C151 C 0.77630 0.26293 0.26410
 C152 C 0.76382 0.27525 0.23807
 C153 C 0.73800 0.26187 0.22469
 C154 C 0.70054 0.22808 0.21958
 N155 N 0.69805 0.24842 0.19665
 C156 C 0.72083 0.26919 0.19960
 C157 C 0.78121 0.30015 0.23053
 N158 N 0.80377 0.30341 0.25152
 C159 C 0.80088 0.28075 0.27220
 C160 C 0.77082 0.21971 0.30190
 N161 N 0.75037 0.19663 0.30424
 C162 C 0.73006 0.19886 0.28104
 H163 H 0.68539 0.20898 0.22320
 H164 H 0.72465 0.28818 0.18454
 H165 H 0.77755 0.31490 0.21126
 H166 H 0.81568 0.27733 0.29160
 H167 H 0.78968 0.22380 0.31732
 H168 H 0.71119 0.18345 0.27695
 O169 O 0.22469 0.02889 0.47082
 O170 O 0.22477 -0.03026 0.52964
 O171 O 0.22466 0.02891 0.52964
 O172 O 0.22477 -0.03029 0.47081
 O173 O 0.27541 -0.03000 0.47063
 O174 O 0.27530 0.02884 0.52982
 O175 O 0.27541 -0.02998 0.52983
 O176 O 0.27533 0.02882 0.47065
 Cu177 Cu 0.21963 -0.00070 0.50022
 Cu178 Cu 0.28045 -0.00057 0.50023
 C179 C 0.25000 0.03888 0.46070
 C180 C 0.25010 -0.04013 0.53978
 C181 C 0.24996 0.03890 0.53976
 C182 C 0.25010 -0.04017 0.46068
 O183 O 0.72482 0.02921 0.52977
 O184 O 0.72468 -0.02964 0.47060
 O185 O 0.72468 -0.02961 0.52979
 O186 O 0.72480 0.02919 0.47062
 O187 O 0.77544 0.02930 0.47079
 O188 O 0.77532 -0.02986 0.52961
 O189 O 0.77533 -0.02988 0.47077
 O190 O 0.77547 0.02932 0.52959
 Cu191 Cu 0.71966 -0.00022 0.50020
 Cu192 Cu 0.78048 -0.00030 0.50019
 C193 C 0.75017 0.03931 0.53969
 C194 C 0.74998 -0.03979 0.46065
 C195 C 0.74998 -0.03975 0.53974
 C196 C 0.75014 0.03929 0.46069
 O197 O 0.47064 0.22288 0.02858
 O198 O 0.53013 0.22315 -0.03064
 O199 O 0.53017 0.22288 0.02856
 O200 O 0.47068 0.22315 -0.03065
 O201 O 0.47048 0.27320 -0.03015
 O202 O 0.53035 0.27294 0.02865
 O203 O 0.53039 0.27321 -0.03014
 O204 O 0.47053 0.27293 0.02866
 Cu205 Cu 0.50040 0.21798 -0.00105
 Cu206 Cu 0.50044 0.27810 -0.00073
 C207 C 0.46046 0.24787 0.03867
 C208 C 0.54040 0.24823 -0.04042
 C209 C 0.54040 0.24787 0.03864
 C210 C 0.46045 0.24823 -0.04044
 O211 O 0.52996 0.72677 0.02957
 O212 O 0.47005 0.72678 -0.02919
 O213 O 0.52996 0.72681 -0.02921
 O214 O 0.47005 0.72675 0.02957
 O215 O 0.47029 0.77681 0.02985
 O216 O 0.52976 0.77686 -0.02939
 O217 O 0.47028 0.77684 -0.02938
 O218 O 0.52976 0.77683 0.02985
 Cu219 Cu 0.50001 0.72175 0.00018
 Cu220 Cu 0.50003 0.78187 0.00024
 C221 C 0.54001 0.75180 0.03974
 C222 C 0.46002 0.75181 -0.03932
 C223 C 0.54000 0.75184 -0.03934
 C224 C 0.46002 0.75176 0.03974
 O225 O 0.02944 0.47096 0.22694
 O226 O -0.03032 0.52983 0.22691
 O227 O 0.02962 0.52977 0.22678
 O228 O -0.03039 0.47107 0.22708
 O229 O -0.02998 0.47090 0.27714
 O230 O 0.02942 0.53026 0.27683
 O231 O -0.03006 0.53015 0.27696
 O232 O 0.02950 0.47105 0.27700
 Cu233 Cu -0.00042 0.50041 0.22190
 Cu234 Cu -0.00027 0.50062 0.28202
 C235 C 0.03958 0.46096 0.25197
 C236 C -0.04034 0.54001 0.25192
 C237 C 0.03967 0.54004 0.25175
 C238 C -0.04031 0.46093 0.25215
 O239 O 0.02940 0.53048 0.72335
 O240 O -0.03000 0.47114 0.72294
 O241 O -0.03007 0.53038 0.72321
 O242 O 0.02950 0.47128 0.72308
 O243 O 0.02943 0.47115 0.77313
 O244 O -0.03034 0.53001 0.77327
 O245 O -0.03044 0.47126 0.77299
 O246 O 0.02959 0.52995 0.77341
 Cu247 Cu -0.00028 0.50084 0.71811
 Cu248 Cu -0.00045 0.50058 0.77823
 C249 C 0.03965 0.54024 0.74845
 C250 C -0.04036 0.46116 0.74790
 C251 C -0.04035 0.54022 0.74826
 C252 C 0.03960 0.46119 0.74809
 C253 C 0.36948 0.24787 0.12970
 N254 N 0.36532 0.22328 0.14770
 N255 N 0.34402 0.22342 0.16933
 C256 C 0.32594 0.24809 0.17361
 N257 N 0.33004 0.27264 0.15552
 N258 N 0.35148 0.27257 0.13403
 C259 C 0.39307 0.24782 0.10599
 N260 N 0.40062 0.27382 0.09136
 N261 N 0.42215 0.27384 0.06996
 C262 C 0.43675 0.24781 0.06224
 N263 N 0.42913 0.22177 0.07678
 N264 N 0.40775 0.22180 0.09834
 C265 C 0.63129 0.75157 0.13046
 N266 N 0.63332 0.77472 0.15061
 N267 N 0.65465 0.77451 0.17221
 C268 C 0.67497 0.75127 0.17432
 N269 N 0.67298 0.72819 0.15400
 N270 N 0.65147 0.72828 0.13259
 C271 C 0.60762 0.75166 0.10683
 N272 N 0.60121 0.72606 0.09098
 N273 N 0.57958 0.72608 0.06967
 C274 C 0.56377 0.75177 0.06326
 N275 N 0.57027 0.77740 0.07901
 N276 N 0.59171 0.77732 0.10050
 C277 C 0.63165 0.24878 -0.13117
 N278 N 0.63371 0.22562 -0.15129
 N279 N 0.65504 0.22587 -0.17289
 C280 C 0.67531 0.24918 -0.17503
 N281 N 0.67328 0.27227 -0.15474
 N282 N 0.65178 0.27214 -0.13332
 C283 C 0.60799 0.24861 -0.10753
 N284 N 0.60158 0.27417 -0.09163
 N285 N 0.57995 0.27408 -0.07032
 C286 C 0.56415 0.24835 -0.06394
 N287 N 0.57066 0.22276 -0.07974
 N288 N 0.59209 0.22292 -0.10124
 C289 C 0.36861 0.75162 -0.12992
 N290 N 0.36662 0.77476 -0.15007
 N291 N 0.34525 0.77456 -0.17163
 C292 C 0.32486 0.75135 -0.17370
 N293 N 0.32681 0.72829 -0.15339
 N294 N 0.34836 0.72836 -0.13201
 C295 C 0.39233 0.75170 -0.10633
 N296 N 0.39871 0.72610 -0.09051
 N297 N 0.42037 0.72611 -0.06923
 C298 C 0.43624 0.75179 -0.06282
 N299 N 0.42976 0.77743 -0.07853
 N300 N 0.40829 0.77735 -0.10000
 C301 C 0.13034 0.36978 0.25169
 N302 N 0.14829 0.36541 0.22695
 N303 N 0.16968 0.34389 0.22683
 C304 C 0.17377 0.32579 0.25137
 N305 N 0.15574 0.33011 0.27608
 N306 N 0.13449 0.35177 0.27628
 C307 C 0.10681 0.39354 0.25181
 N308 N 0.09223 0.40121 0.27787
 N309 N 0.07090 0.42281 0.27796
 C310 C 0.06325 0.43735 0.25195
 N311 N 0.07776 0.42961 0.22587
 N312 N 0.09924 0.40817 0.22582
 C313 C 0.13113 0.63082 0.74908
 N314 N 0.13323 0.65096 0.72594
 N315 N 0.15463 0.67250 0.72618
 C316 C 0.17496 0.67457 0.74944
 N317 N 0.17289 0.65426 0.77251
 N318 N 0.15131 0.63290 0.77239
 C319 C 0.10739 0.60724 0.74891
 N320 N 0.10094 0.59134 0.77445
 N321 N 0.07925 0.57007 0.77434
 C322 C 0.06344 0.56374 0.74861
 N323 N 0.06999 0.57955 0.72304
 N324 N 0.09148 0.60100 0.72322
 C325 C -0.13174 0.63056 0.25165
 N326 N -0.15192 0.63265 0.22835
 N327 N -0.17345 0.65403 0.22826
 C328 C -0.17547 0.67433 0.25135
 N329 N -0.15514 0.67224 0.27460
 N330 N -0.13379 0.65068 0.27482
 C331 C -0.10803 0.60697 0.25176
 N332 N -0.09210 0.60068 0.27742
 N333 N -0.07063 0.57923 0.27752
 C334 C -0.06412 0.56349 0.25188
 N335 N -0.07995 0.56987 0.22619
 N336 N -0.10162 0.59113 0.22616
 C337 C -0.13162 0.37036 0.74769
 N338 N -0.15186 0.36821 0.77094
 N339 N -0.17335 0.34676 0.77098
 C340 C -0.17526 0.32644 0.74791
 N341 N -0.15488 0.32859 0.72470
 N342 N -0.13357 0.35022 0.72453
 C343 C -0.10796 0.39402 0.74769
 N344 N -0.09195 0.40040 0.72209
 N345 N -0.07052 0.42193 0.72210
 C346 C -0.06412 0.43763 0.74779
 N347 N -0.08003 0.43116 0.77341
 N348 N -0.10166 0.40984 0.77333
 C349 C 0.24989 0.12932 0.37021
 N350 N 0.27466 0.13327 0.35202
 N351 N 0.27460 0.15452 0.33059
 C352 C 0.24985 0.17276 0.32672
 N353 N 0.22512 0.16887 0.34500
 N354 N 0.22510 0.14747 0.36628
 C355 C 0.24992 0.10581 0.39374
 N356 N 0.22366 0.09842 0.40850
 N357 N 0.22366 0.07700 0.42977
 C358 C 0.24997 0.06238 0.43720
 N359 N 0.27625 0.06985 0.42252
 N360 N 0.27620 0.09111 0.40110
 C361 C 0.75027 0.13019 0.62981
 N362 N 0.72555 0.13409 0.64807
 N363 N 0.72558 0.15546 0.66939
 C364 C 0.75024 0.17388 0.67308
 N365 N 0.77493 0.17004 0.65473
 N366 N 0.77498 0.14852 0.63356
 C367 C 0.75026 0.10655 0.60640
 N368 N 0.77651 0.09917 0.59162
 N369 N 0.77651 0.07764 0.57045
 C370 C 0.75021 0.06289 0.56314
 N371 N 0.72395 0.07034 0.57784
 N372 N 0.72400 0.09171 0.59917
 C373 C 0.25015 -0.13034 0.63051
 N374 N 0.22541 -0.14859 0.63441
 N375 N 0.22543 -0.16994 0.65574
 C376 C 0.25011 -0.17366 0.67412
 N377 N 0.27481 -0.15532 0.67027
 N378 N 0.27487 -0.13412 0.64879
 C379 C 0.25015 -0.10690 0.60691
 N380 N 0.27640 -0.09209 0.59955
 N381 N 0.27641 -0.07090 0.57807
 C382 C 0.25013 -0.06359 0.56332
 N383 N 0.22386 -0.07832 0.57076
 N384 N 0.22389 -0.09967 0.59209
 C385 C 0.74982 -0.13020 0.37005
 N386 N 0.77451 -0.14849 0.36620
 N387 N 0.77445 -0.16989 0.34490
 C388 C 0.74976 -0.17365 0.32653
 N389 N 0.72511 -0.15526 0.33032
 N390 N 0.72509 -0.13401 0.35177
 C391 C 0.74986 -0.10670 0.39360
 N392 N 0.72363 -0.09187 0.40093
 N393 N 0.72364 -0.07063 0.42238
 C394 C 0.74993 -0.06328 0.43712
 N395 N 0.77618 -0.07803 0.42972
 N396 N 0.77612 -0.09943 0.40842
 C397 C 0.63127 0.75170 -0.13008
 N398 N 0.63329 0.77486 -0.15020
 N399 N 0.65462 0.77467 -0.17180
 C400 C 0.67495 0.75144 -0.17394
 N401 N 0.67297 0.72836 -0.15364
 N402 N 0.65146 0.72842 -0.13223
 C403 C 0.60760 0.75177 -0.10644
 N404 N 0.60120 0.72617 -0.09063
 N405 N 0.57957 0.72616 -0.06932
 C406 C 0.56375 0.75184 -0.06286
 N407 N 0.57025 0.77749 -0.07857
 N408 N 0.59168 0.77742 -0.10008
 C409 C 0.36935 0.24874 -0.13133
 N410 N 0.34929 0.27212 -0.13355
 N411 N 0.32778 0.27221 -0.15497
 C412 C 0.32567 0.24905 -0.17517
 N413 N 0.34588 0.22573 -0.17297
 N414 N 0.36722 0.22552 -0.15138
 C415 C 0.39299 0.24859 -0.10766
 N416 N 0.40880 0.22289 -0.10131
 N417 N 0.43020 0.22273 -0.07977
 C418 C 0.43673 0.24834 -0.06399
 N419 N 0.42101 0.27408 -0.07043
 N420 N 0.39943 0.27417 -0.09179
 C421 C 0.36863 0.75149 0.13036
 N422 N 0.36663 0.77462 0.15053
 N423 N 0.34526 0.77441 0.17209
 C424 C 0.32488 0.75119 0.17415
 N425 N 0.32684 0.72814 0.15381
 N426 N 0.34838 0.72822 0.13242
 C427 C 0.39234 0.75159 0.10676
 N428 N 0.39872 0.72600 0.09090
 N429 N 0.42039 0.72603 0.06962
 C430 C 0.43625 0.75172 0.06324
 N431 N 0.42976 0.77735 0.07900
 N432 N 0.40829 0.77725 0.10047
 C433 C 0.63157 0.24791 0.12948
 N434 N 0.64962 0.27260 0.13375
 N435 N 0.67107 0.27270 0.15522
 C436 C 0.67511 0.24820 0.17338
 N437 N 0.65698 0.22353 0.16916
 N438 N 0.63567 0.22335 0.14754
 C439 C 0.60793 0.24783 0.10581
 N440 N 0.59318 0.22182 0.09822
 N441 N 0.57175 0.22179 0.07671
 C442 C 0.56414 0.24782 0.06217
 N443 N 0.57882 0.27385 0.06983
 N444 N 0.60040 0.27383 0.09118
 C445 C -0.13172 0.63078 0.74865
 N446 N -0.13377 0.65091 0.72551
 N447 N -0.15513 0.67246 0.72574
 C448 C -0.17546 0.67455 0.74899
 N449 N -0.17344 0.65425 0.77206
 N450 N -0.15191 0.63287 0.77195
 C451 C -0.10802 0.60719 0.74852
 N452 N -0.10161 0.59133 0.77409
 N453 N -0.07995 0.57007 0.77404
 C454 C -0.06412 0.56370 0.74834
 N455 N -0.07063 0.57946 0.72272
 N456 N -0.09209 0.60091 0.72285
 C457 C -0.13108 0.36966 0.25209
 N458 N -0.15112 0.36728 0.22870
 N459 N -0.17250 0.34573 0.22859
 C460 C -0.17450 0.32553 0.25175
 N461 N -0.15432 0.32789 0.27510
 N462 N -0.13311 0.34962 0.27532
 C463 C -0.10756 0.39345 0.25218
 N464 N -0.09171 0.39998 0.27784
 N465 N -0.07040 0.42162 0.27789
 C466 C -0.06398 0.43732 0.25221
 N467 N -0.07974 0.43071 0.22653
 N468 N -0.10124 0.40926 0.22655
 C469 C 0.13087 0.37049 0.74813
 N470 N 0.13497 0.35243 0.72357
 N471 N 0.15634 0.33087 0.72370
 C472 C 0.17453 0.32674 0.74832
 N473 N 0.17048 0.34490 0.77284
 N474 N 0.14898 0.36631 0.77278
 C475 C 0.10718 0.39411 0.74809
 N476 N 0.09959 0.40872 0.77409
 N477 N 0.07799 0.43004 0.77411
 C478 C 0.06335 0.43767 0.74807
 N479 N 0.07102 0.42314 0.72203
 N480 N 0.09247 0.40167 0.72206
 C481 C 0.13117 0.63062 0.25126
 N482 N 0.13326 0.65075 0.27442
 N483 N 0.15466 0.67229 0.27421
 C484 C 0.17499 0.67436 0.25095
 N485 N 0.17293 0.65406 0.22787
 N486 N 0.15135 0.63270 0.22795
 C487 C 0.10743 0.60703 0.25140
 N488 N 0.09151 0.60078 0.27708
 N489 N 0.07001 0.57932 0.27723
 C490 C 0.06347 0.56354 0.25163
 N491 N 0.07929 0.56988 0.22591
 N492 N 0.10098 0.59114 0.22583
 C493 C 0.74981 -0.13006 0.63037
 N494 N 0.72509 -0.13386 0.64866
 N495 N 0.72510 -0.15509 0.67010
 C496 C 0.74976 -0.17347 0.67390
 N497 N 0.77444 -0.16973 0.65553
 N498 N 0.77451 -0.14834 0.63423
 C499 C 0.74985 -0.10659 0.60681
 N500 N 0.77611 -0.09933 0.59199
 N501 N 0.77618 -0.07796 0.57069
 C502 C 0.74993 -0.06322 0.56328
 N503 N 0.72364 -0.07055 0.57802
 N504 N 0.72362 -0.09177 0.59948
 C505 C 0.25016 -0.13048 0.36999
 N506 N 0.22542 -0.14874 0.36609
 N507 N 0.22545 -0.17010 0.34476
 C508 C 0.25013 -0.17384 0.32638
 N509 N 0.27483 -0.15549 0.33022
 N510 N 0.27488 -0.13427 0.35170
 C511 C 0.25016 -0.10702 0.39358
 N512 N 0.27640 -0.09220 0.40093
 N513 N 0.27641 -0.07098 0.42241
 C514 C 0.25013 -0.06365 0.43715
 N515 N 0.22386 -0.07839 0.42972
 N516 N 0.22390 -0.09976 0.40840
 C517 C 0.75025 0.13009 0.37057
 N518 N 0.77499 0.14838 0.36679
 N519 N 0.77498 0.16984 0.34558
 C520 C 0.75031 0.17367 0.32721
 N521 N 0.72561 0.15530 0.33094
 N522 N 0.72554 0.13398 0.35230
 C523 C 0.75023 0.10649 0.39399
 N524 N 0.72396 0.09166 0.40124
 N525 N 0.72391 0.07031 0.42257
 C526 C 0.75018 0.06285 0.43726
 N527 N 0.77648 0.07759 0.42993
 N528 N 0.77648 0.09910 0.40876
 C529 C 0.24986 0.12941 0.63026
 N530 N 0.27462 0.13336 0.64845
 N531 N 0.27460 0.15467 0.66983
 C532 C 0.24989 0.17297 0.67367
 N533 N 0.22515 0.16907 0.65539
 N534 N 0.22510 0.14761 0.63415
 C535 C 0.24987 0.10588 0.60674
 N536 N 0.22362 0.09848 0.59196
 N537 N 0.22362 0.07706 0.57069
 C538 C 0.24993 0.06241 0.56327
 N539 N 0.27620 0.06988 0.57797
 N540 N 0.27615 0.09115 0.59940
   
