data_POSCAR
  _audit_creation_date              2014-09-24
  _audit_creation_method            'ToBaCCo'
  _symmetry_space_group_name_H-M    'P1'
  _symmetry_Int_Tables_number       1
  _symmetry_cell_setting            triclinic
  loop_
  _symmetry_equiv_pos_as_xyz
 x,y,z
_cell_length_a 35.4041
_cell_length_b 35.7868
_cell_length_c 36.2186
_cell_angle_alpha 90.041400
_cell_angle_beta 89.733500
_cell_angle_gamma 89.714700
loop_
  _atom_site_label
  _atom_site_type_symbol
  _atom_site_fract_x
  _atom_site_fract_y
  _atom_site_fract_z
C1 C 0.33007 0.37684 1.37756
 N2 N 0.34350 0.34334 1.38948
 C3 C 0.37206 0.32547 1.37134
 N4 N 0.38688 0.34137 1.34044
 C5 C 0.37419 0.37512 1.32848
 N6 N 0.34600 0.39275 1.34724
 C7 C 1.16356 0.62048 0.88121
 N8 N 1.14796 0.65248 0.89455
 C9 C 1.11804 0.66907 0.87761
 N10 N 1.10384 0.65324 0.84643
 C11 C 1.11922 0.62117 0.83265
 N12 N 1.14889 0.60504 0.85025
 C13 C 0.66973 -0.12369 0.11680
 N14 N 0.65750 -0.10797 0.14892
 C15 C 0.62687 -0.12159 0.16701
 N16 N 0.60858 -0.15162 0.15298
 C17 C 0.62027 -0.16782 0.12090
 N18 N 0.65077 -0.15350 0.10293
 C19 C -0.16895 1.12523 -0.37643
 N20 N -0.15365 1.10995 -0.34552
 C21 C -0.12318 1.12590 -0.32928
 N22 N -0.10827 1.15742 -0.34416
 C23 C -0.12304 1.17293 -0.37514
 N24 N -0.15345 1.15658 -0.39108
 C25 C 0.65448 0.61258 0.61632
 N26 N 0.63890 0.64363 0.60111
 C27 C 0.60848 0.66074 0.61690
 N28 N 0.59370 0.64624 0.64850
 C29 C 0.60888 0.61502 0.66407
 N30 N 0.63937 0.59849 0.64788
 C31 C 0.83355 0.38294 0.12289
 N32 N 0.84824 0.35011 0.11002
 C33 C 0.87820 0.33360 0.12709
 N34 N 0.89329 0.35040 0.15722
 C35 C 0.87924 0.38315 0.17032
 N36 N 0.84933 0.39918 0.15311
 C37 C 0.33738 0.12495 0.87650
 N38 N 0.35196 0.10836 0.84569
 C39 C 0.38451 0.12114 0.83008
 N40 N 0.40247 0.15079 0.84558
 C41 C 0.38846 0.16731 0.87650
 N42 N 0.35595 0.15432 0.89155
 C43 C 0.16531 0.87645 0.37856
 N44 N 0.15404 0.89077 0.34564
 C45 C 0.12272 0.87771 0.32841
 N46 N 0.10256 0.84965 0.34429
 C47 C 0.11340 0.83509 0.37728
 N48 N 0.14469 0.84866 0.39412
 Zn49 Zn -0.02107 1.01084 0.04344
 Zn50 Zn -0.02614 0.97528 -0.03170
 Zn51 Zn 0.01125 1.04980 -0.02172
 Zn52 Zn 0.04824 0.98144 0.00703
 O53 O 0.00293 1.00426 -0.00082
 O54 O -0.06588 0.98840 0.04458
 O55 O -0.03772 0.99890 -0.07431
 O56 O -0.00760 1.08785 0.00480
 O57 O -0.07048 0.96248 -0.01072
 O58 O -0.03059 1.05901 0.05391
 O59 O -0.01022 1.05357 -0.06571
 O60 O 0.08759 1.00751 -0.01001
 O61 O -0.00316 0.93184 -0.04448
 O62 O 0.06031 1.05944 -0.02970
 O63 O 0.05131 0.93750 -0.01544
 O64 O 0.05723 0.97202 0.05476
 O65 O 0.00492 0.99237 0.08177
 C66 C -0.08411 0.96935 0.02113
 C67 C -0.02958 1.03160 -0.08543
 C68 C -0.02448 1.08873 0.03576
 C69 C 0.08965 1.03956 -0.02478
 C70 C 0.02921 0.91907 -0.03592
 C71 C 0.03724 0.97697 0.08355
 Zn72 Zn 0.47644 0.00608 0.45294
 Zn73 Zn 0.47021 -0.03076 0.52756
 Zn74 Zn 0.54478 -0.02585 0.48815
 Zn75 Zn 0.50993 0.04266 0.51870
 O76 O 0.50015 -0.00207 0.49692
 O77 O 0.43132 -0.01571 0.45142
 O78 O 0.49201 -0.07519 0.53892
 O79 O 0.55397 -0.03365 0.44025
 O80 O 0.42553 -0.04194 0.50651
 O81 O 0.50245 -0.01133 0.41385
 O82 O 0.54645 -0.07051 0.50912
 O83 O 0.55921 0.05094 0.52624
 O84 O 0.45948 -0.00768 0.57106
 O85 O 0.58479 -0.00143 0.50546
 O86 O 0.48891 0.04610 0.56305
 O87 O 0.49197 0.08158 0.49333
 O88 O 0.46763 0.05463 0.44396
 C89 C 0.41243 -0.03457 0.47466
 C90 C 0.52388 -0.08878 0.52942
 C91 C 0.53460 -0.02704 0.41161
 C92 C 0.58792 0.03030 0.52067
 C93 C 0.46897 0.02448 0.58274
 C94 C 0.47468 0.08367 0.46279
 Zn95 Zn 1.04182 0.52766 0.51086
 Zn96 Zn 0.96679 0.53094 0.47246
 Zn97 Zn 1.01019 0.45876 0.47861
 Zn98 Zn 0.97562 0.49180 0.54573
 O99 O 0.99842 0.50243 0.50178
 O100 O 1.04145 0.57262 0.49051
 O101 O 0.95719 0.50879 0.42843
 O102 O 1.05982 0.45215 0.47144
 O103 O 0.98645 0.57652 0.46194
 O104 O 1.08320 0.50467 0.49358
 O105 O 0.98967 0.45615 0.43417
 O106 O 0.96977 0.44275 0.55369
 O107 O 0.92133 0.53925 0.49436
 O108 O 0.99375 0.41837 0.50260
 O109 O 0.92938 0.51064 0.54796
 O110 O 0.99991 0.51011 0.58504
 O111 O 1.05001 0.53557 0.55884
 C112 C 1.01791 0.59076 0.47116
 C113 C 0.96841 0.47753 0.41553
 C114 C 1.08771 0.47321 0.47802
 C115 C 0.97736 0.41465 0.53356
 C116 C 0.90898 0.52934 0.52593
 C117 C 1.03078 0.52776 0.58740
 Zn118 Zn 0.52070 0.51345 1.04535
 Zn119 Zn 0.53010 0.47388 0.97209
 Zn120 Zn 0.45522 0.47606 1.01131
 Zn121 Zn 0.48558 0.54559 0.97867
 O122 O 0.49810 0.50211 1.00171
 O123 O 0.56681 0.49402 1.04769
 O124 O 0.51068 0.42832 0.96094
 O125 O 0.44791 0.46695 1.05929
 O126 O 0.57527 0.46516 0.99413
 O127 O 0.49606 0.49598 1.08496
 O128 O 0.45575 0.43164 0.99007
 O129 O 0.43579 0.55146 0.97237
 O130 O 0.53967 0.49644 0.92814
 O131 O 0.41333 0.49877 0.99524
 O132 O 0.50574 0.54825 0.93394
 O133 O 0.50168 0.58645 1.00214
 O134 O 0.52651 0.56253 1.05278
 C135 C 0.58721 0.47476 1.02586
 C136 C 0.47922 0.41389 0.97011
 C137 C 0.46640 0.47644 1.08765
 C138 C 0.40825 0.53009 0.97963
 C139 C 0.52756 0.52732 0.91521
 C140 C 0.51834 0.59046 1.03278
 C141 C 1.23346 0.42443 0.42691
 C142 C 1.25342 0.44478 0.40021
 C143 C 1.28588 0.42937 0.38426
 C144 C 1.29893 0.39385 0.39518
 C145 C 1.27867 0.37509 0.42308
 N146 N 1.24661 0.39033 0.43748
 C147 C 1.19704 0.43792 0.44177
 N148 N 1.16907 0.41278 0.44826
 C149 C 1.13419 0.42333 0.46025
 C150 C 1.12600 0.46118 0.46673
 C151 C 1.15477 0.48746 0.46124
 C152 C 1.19024 0.47598 0.44852
 H153 H 1.30033 0.44516 0.36301
 H154 H 1.28737 0.34772 0.43260
 H155 H 1.11289 0.40216 0.46455
 H156 H 1.14961 0.51693 0.46601
 H157 H 1.24327 0.47166 0.39066
 H158 H 1.21210 0.49658 0.44416
 C159 C 0.26192 0.57597 0.92912
 C160 C 0.24344 0.55577 0.90146
 C161 C 0.21058 0.57025 0.88581
 C162 C 0.19558 0.60463 0.89805
 C163 C 0.21455 0.62334 0.92670
 N164 N 0.24706 0.60906 0.94079
 C165 C 0.29847 0.56331 0.94401
 N166 N 0.32571 0.58905 0.95092
 C167 C 0.36070 0.57917 0.96285
 C168 C 0.36973 0.54144 0.96883
 C169 C 0.34167 0.51456 0.96297
 C170 C 0.30610 0.52535 0.95030
 H171 H 0.19721 0.55457 0.86392
 H172 H 0.20437 0.64990 0.93717
 H173 H 0.38146 0.60077 0.96744
 H174 H 0.34751 0.48515 0.96730
 H175 H 0.25499 0.52971 0.89107
 H176 H 0.28481 0.50429 0.94554
 C177 C -0.22989 0.91495 0.06710
 C178 C -0.24955 0.88523 0.05081
 C179 C -0.28326 0.87284 0.06678
 C180 C -0.29753 0.88976 0.09912
 C181 C -0.27719 0.91985 0.11403
 N182 N -0.24445 0.93120 0.09805
 C183 C -0.19285 0.92832 0.05327
 N184 N -0.17151 0.94946 0.07633
 C185 C -0.13707 0.96277 0.06660
 C186 C -0.12187 0.95502 0.03154
 C187 C -0.14344 0.93361 0.00699
 C188 C -0.17893 0.92028 0.01767
 H189 H -0.29763 0.84951 0.05409
 H190 H -0.28676 0.93409 0.13876
 H191 H -0.12162 0.97932 0.08641
 H192 H -0.13295 0.92722 -0.02044
 H193 H -0.23879 0.87079 0.02673
 H194 H -0.19514 0.90438 -0.00201
 C195 C 0.73099 0.07981 0.57609
 C196 C 0.75334 0.05733 0.59916
 C197 C 0.78614 0.07201 0.61460
 C198 C 0.79693 0.10884 0.60676
 C199 C 0.77394 0.13024 0.58328
 N200 N 0.74182 0.11553 0.56908
 C201 C 0.69508 0.06627 0.56058
 N202 N 0.66610 0.09092 0.55584
 C203 C 0.63190 0.08028 0.54265
 C204 C 0.62552 0.04285 0.53303
 C205 C 0.65537 0.01718 0.53677
 C206 C 0.69009 0.02872 0.55066
 H207 H 0.80297 0.05460 0.63267
 H208 H 0.78101 0.15889 0.57678
 H209 H 0.60974 0.10102 0.53990
 H210 H 0.65169 -0.01196 0.52961
 H211 H 0.74510 0.02909 0.60606
 H212 H 0.71279 0.00854 0.55331
 C213 C 0.41610 0.22410 0.41166
 C214 C 0.38880 0.24350 0.43233
 C215 C 0.37372 0.27673 0.41869
 C216 C 0.38617 0.29122 0.38464
 C217 C 0.41345 0.27056 0.36470
 N218 N 0.42725 0.23787 0.37838
 C219 C 0.43247 0.18876 0.42521
 N220 N 0.43888 0.16018 0.40113
 C221 C 0.45279 0.12656 0.41232
 C222 C 0.46153 0.12053 0.44963
 C223 C 0.45612 0.15003 0.47465
 C224 C 0.44137 0.18405 0.46261
 H225 H 0.35269 0.29123 0.43521
 H226 H 0.42376 0.28015 0.33818
 H227 H 0.45688 0.10458 0.39212
 H228 H 0.46249 0.14654 0.50367
 H229 H 0.37882 0.23282 0.45857
 H230 H 0.43718 0.20650 0.48230
 C231 C 0.92301 0.27201 0.58187
 C232 C 0.89506 0.25320 0.56197
 C233 C 0.87965 0.22041 0.57619
 C234 C 0.89247 0.20580 0.61000
 C235 C 0.92096 0.22547 0.62874
 N236 N 0.93489 0.25781 0.61465
 C237 C 0.93861 0.30774 0.56875
 N238 N 0.94562 0.33537 0.59361
 C239 C 0.95861 0.36947 0.58315
 C240 C 0.96573 0.37706 0.54576
 C241 C 0.95979 0.34855 0.51984
 C242 C 0.94597 0.31397 0.53118
 H243 H 0.85777 0.20655 0.56057
 H244 H 0.93176 0.21570 0.65495
 H245 H 0.96315 0.39064 0.60401
 H246 H 0.96489 0.35330 0.49071
 H247 H 0.88450 0.26424 0.53615
 H248 H 0.94123 0.29232 0.51085
 C249 C 0.07831 0.77300 -0.08339
 C250 C 0.10583 0.75329 -0.06347
 C251 C 0.11841 0.71871 -0.07611
 C252 C 0.10347 0.70300 -0.10849
 C253 C 0.07451 0.72286 -0.12665
 N254 N 0.06301 0.75694 -0.11393
 C255 C 0.06627 0.81100 -0.07196
 N256 N 0.03075 0.82347 -0.07978
 C257 C 0.01822 0.85796 -0.06919
 C258 C 0.04206 0.88204 -0.04948
 C259 C 0.07902 0.86995 -0.04212
 C260 C 0.09122 0.83478 -0.05339
 H261 H 0.14015 0.70453 -0.06042
 H262 H 0.06161 0.71186 -0.15139
 H263 H -0.01040 0.86630 -0.07573
 H264 H 0.09869 0.88768 -0.02755
 H265 H 0.11764 0.76433 -0.03824
 H266 H 0.12012 0.82664 -0.04790
 C267 C 0.56933 0.73398 1.08177
 C268 C 0.55834 0.74856 1.11607
 C269 C 0.57431 0.78176 1.12858
 C270 C 0.60209 0.80009 1.10743
 C271 C 0.61189 0.78456 1.07292
 N272 N 0.59542 0.75250 1.06113
 C273 C 0.55422 0.69805 1.06857
 N274 N 0.54546 0.67078 1.09333
 C275 C 0.53344 0.63646 1.08259
 C276 C 0.52927 0.62820 1.04496
 C277 C 0.53731 0.65618 1.01903
 C278 C 0.55024 0.69099 1.03072
 H279 H 0.56554 0.79239 1.15531
 H280 H 0.63276 0.79764 1.05530
 H281 H 0.52729 0.61564 1.10341
 H282 H 0.53463 0.65078 0.98973
 H283 H 0.53759 0.73441 1.13303
 H284 H 0.55706 0.71217 1.01043
 C285 C 0.41695 0.42299 1.22903
 C286 C 0.40325 0.44654 1.25708
 C287 C 0.38941 0.43093 1.28970
 C288 C 0.38993 0.39205 1.29466
 C289 C 0.40450 0.36955 1.26618
 N290 N 0.41698 0.38534 1.23430
 C291 C 0.42976 0.43799 1.19327
 N292 N 0.42140 0.41890 1.16188
 C293 C 0.43223 0.43106 1.12795
 C294 C 0.45349 0.46385 1.12435
 C295 C 0.46290 0.48371 1.15639
 C296 C 0.45075 0.47107 1.19090
 H297 H 0.37831 0.44921 1.31104
 H298 H 0.40504 0.33943 1.26883
 H299 H 0.42480 0.41474 1.10390
 H300 H 0.47940 0.50906 1.15471
 H301 H 0.40224 0.47655 1.25341
 H302 H 0.45832 0.48653 1.21546
 C303 C 0.59081 -0.07545 0.27028
 C304 C 0.62691 -0.06696 0.25656
 C305 C 0.63848 -0.08150 0.22257
 C306 C 0.61434 -0.10473 0.20235
 C307 C 0.57824 -0.11202 0.21679
 N308 N 0.56748 -0.09728 0.24983
 C309 C 0.57756 -0.06153 0.30650
 N310 N 0.54013 -0.05417 0.31160
 C311 C 0.52591 -0.04237 0.34458
 C312 C 0.54978 -0.03822 0.37514
 C313 C 0.58842 -0.04591 0.37052
 C314 C 0.60243 -0.05735 0.33627
 H315 H 0.66651 -0.07500 0.21242
 H316 H 0.55856 -0.12943 0.20191
 H317 H 0.49589 -0.03701 0.34706
 H318 H 0.60779 -0.04318 0.39340
 H319 H 0.64589 -0.04904 0.27172
 H320 H 0.63220 -0.06384 0.33347
 C321 C -0.07865 1.08370 -0.22787
 C322 C -0.05883 1.11119 -0.24757
 C323 C -0.07313 1.12443 -0.28083
 C324 C -0.10692 1.11015 -0.29500
 C325 C -0.12507 1.08150 -0.27531
 N326 N -0.11077 1.06929 -0.24260
 C327 C -0.06569 1.07069 -0.19123
 N328 N -0.07500 1.03582 -0.17923
 C329 C -0.06399 1.02254 -0.14569
 C330 C -0.04249 1.04499 -0.12197
 C331 C -0.03323 1.08119 -0.13367
 C332 C -0.04482 1.09413 -0.16799
 H333 H -0.05772 1.14604 -0.29532
 H334 H -0.15101 1.06940 -0.28539
 H335 H -0.07199 0.99455 -0.13765
 H336 H -0.01709 1.09976 -0.11624
 H337 H -0.03246 1.12241 -0.23761
 H338 H -0.03802 1.12250 -0.17574
 C339 C 1.08244 0.57734 0.72920
 C340 C 1.11743 0.56626 0.74357
 C341 C 1.12893 0.58002 0.77764
 C342 C 1.10587 0.60510 0.79741
 C343 C 1.07074 0.61502 0.78237
 N344 N 1.05994 0.60092 0.74914
 C345 C 1.06992 0.56412 0.69269
 N346 N 1.03280 0.55625 0.68714
 C347 C 1.01976 0.54398 0.65402
 C348 C 1.04458 0.53979 0.62391
 C349 C 1.08283 0.54826 0.62898
 C350 C 1.09563 0.56017 0.66333
 H351 H 1.15624 0.57149 0.78814
 H352 H 1.05195 0.63399 0.79689
 H353 H 0.98996 0.53813 0.65107
 H354 H 1.10287 0.54556 0.60644
 H355 H 1.13564 0.54699 0.72873
 H356 H 1.12519 0.56695 0.66664
 C357 C 0.75867 0.56885 0.57406
 C358 C 0.73849 0.54862 0.60088
 C359 C 0.70408 0.56240 0.61403
 C360 C 0.68927 0.59599 0.60024
 C361 C 0.70932 0.61433 0.57203
 N362 N 0.74313 0.60065 0.56004
 C363 C 0.79692 0.55730 0.56166
 N364 N 0.81031 0.56927 0.52836
 C365 C 0.84574 0.56070 0.51605
 C366 C 0.87014 0.53918 0.53799
 C367 C 0.85690 0.52692 0.57250
 C368 C 0.82061 0.53594 0.58442
 H369 H 0.68932 0.54695 0.63532
 H370 H 0.69881 0.64012 0.56027
 H371 H 0.85482 0.57086 0.48933
 H372 H 0.87470 0.51050 0.59060
 H373 H 0.74903 0.52250 0.61183
 H374 H 0.81185 0.52701 0.61164
 C375 C 0.73407 0.42859 1.07766
 C376 C 0.75387 0.44839 1.10482
 C377 C 0.78708 0.43357 1.11925
 C378 C 0.80144 0.39920 1.10641
 C379 C 0.78189 0.38134 1.07757
 N380 N 0.74905 0.39609 1.06442
 C381 C 0.69673 0.44164 1.06418
 N382 N 0.68408 0.43049 1.03041
 C383 C 0.64957 0.44086 1.01718
 C384 C 0.62539 0.46349 1.03857
 C385 C 0.63789 0.47492 1.07350
 C386 C 0.67317 0.46401 1.08639
 H387 H 0.80124 0.44911 1.14076
 H388 H 0.79193 0.35511 1.06621
 H389 H 0.64099 0.43120 0.99018
 H390 H 0.62021 0.49204 1.09127
 H391 H 0.74395 0.47508 1.11509
 H392 H 0.68121 0.47234 1.11395
 C393 C 0.23330 1.09072 -0.07845
 C394 C 0.25130 1.12230 -0.06418
 C395 C 0.28608 1.13315 -0.07864
 C396 C 0.30297 1.11303 -0.10788
 C397 C 0.28398 1.08124 -0.12109
 N398 N 0.25030 1.07092 -0.10606
 C399 C 0.19638 1.07852 -0.06385
 N400 N 0.18941 1.04138 -0.05995
 C401 C 0.15593 1.02845 -0.04672
 C402 C 0.12674 1.05350 -0.03735
 C403 C 0.13319 1.09189 -0.04160
 C404 C 0.16807 1.10452 -0.05451
 H405 H 0.29932 1.15773 -0.06712
 H406 H 0.29580 1.06450 -0.14325
 H407 H 0.15187 0.99859 -0.04428
 H408 H 0.11133 1.11208 -0.03488
 H409 H 0.23883 1.13821 -0.04175
 H410 H 0.17255 1.13422 -0.05792
 C411 C 0.26636 -0.08651 0.42752
 C412 C 0.24501 -0.11445 0.44496
 C413 C 0.21122 -0.12631 0.42910
 C414 C 0.19849 -0.11071 0.39567
 C415 C 0.22060 -0.08254 0.37942
 N416 N 0.25338 -0.07159 0.39539
 C417 C 0.30340 -0.07361 0.44164
 N418 N 0.32596 -0.05373 0.41842
 C419 C 0.36048 -0.04102 0.42843
 C420 C 0.37451 -0.04813 0.46396
 C421 C 0.35169 -0.06822 0.48865
 C422 C 0.31613 -0.08090 0.47771
 H423 H 0.19550 -0.14818 0.44286
 H424 H 0.21227 -0.06943 0.35377
 H425 H 0.37694 -0.02550 0.40846
 H426 H 0.36124 -0.07406 0.51643
 H427 H 0.25439 -0.12790 0.47001
 H428 H 0.29901 -0.09573 0.49757
 C429 C 0.56966 -0.23645 0.57486
 C430 C 0.59715 -0.25696 0.55538
 C431 C 0.60941 -0.29129 0.56892
 C432 C 0.59407 -0.30592 0.60173
 C433 C 0.56500 -0.28541 0.61928
 N434 N 0.55395 -0.25159 0.60576
 C435 C 0.55824 -0.19842 0.56299
 N436 N 0.52348 -0.18474 0.57238
 C437 C 0.51172 -0.14988 0.56233
 C438 C 0.53566 -0.12655 0.54172
 C439 C 0.57180 -0.13998 0.53249
 C440 C 0.58320 -0.17556 0.54314
 H441 H 0.63123 -0.30608 0.55369
 H442 H 0.55176 -0.29558 0.64430
 H443 H 0.48371 -0.14055 0.57026
 H444 H 0.59152 -0.12291 0.51708
 H445 H 0.60930 -0.24675 0.52987
 H446 H 0.61160 -0.18457 0.53638
 C447 C 1.06246 0.73780 0.42367
 C448 C 1.08317 0.76205 0.44628
 C449 C 1.09866 0.79437 0.43134
 C450 C 1.09307 0.80321 0.39405
 C451 C 1.06995 0.77965 0.37296
 N452 N 1.05578 0.74771 0.38796
 C453 C 1.05004 0.70076 0.43729
 N454 N 1.01930 0.68382 0.42223
 C455 C 1.00781 0.64910 0.43288
 C456 C 1.02820 0.62915 0.45968
 C457 C 1.05999 0.64618 0.47526
 C458 C 1.07097 0.68166 0.46419
 H459 H 1.11559 0.81213 0.44888
 H460 H 1.06458 0.78567 0.34417
 H461 H 0.98325 0.63691 0.41999
 H462 H 1.07677 0.63192 0.49589
 H463 H 1.08796 0.75596 0.47514
 H464 H 1.09635 0.69336 0.47591
 C465 C -0.07888 1.22986 0.09077
 C466 C -0.06511 1.24577 0.12333
 C467 C -0.07892 1.28035 0.13499
 C468 C -0.10704 1.29914 0.11467
 C469 C -0.11989 1.28213 0.08199
 N470 N -0.10544 1.24860 0.07089
 C471 C -0.06465 1.19336 0.07751
 N472 N -0.05894 1.18795 0.04071
 C473 C -0.04555 1.15507 0.02691
 C474 C -0.03786 1.12495 0.05062
 C475 C -0.04413 1.12977 0.08859
 C476 C -0.05719 1.16401 0.10216
 H477 H -0.06774 1.29201 0.16026
 H478 H -0.14119 1.29545 0.06509
 H479 H -0.04154 1.15229 -0.00261
 H480 H -0.03872 1.10718 0.10775
 H481 H -0.04346 1.23188 0.13936
 H482 H -0.06206 1.16726 0.13153
 C483 C 0.43549 0.26678 0.92211
 C484 C 0.41278 0.24358 0.94413
 C485 C 0.39837 0.21072 0.92944
 C486 C 0.40704 0.20024 0.89307
 C487 C 0.43190 0.22285 0.87269
 N488 N 0.44500 0.25537 0.88737
 C489 C 0.44726 0.30415 0.93532
 N490 N 0.47949 0.32017 0.92209
 C491 C 0.49078 0.35491 0.93285
 C492 C 0.46879 0.37574 0.95798
 C493 C 0.43537 0.35971 0.97147
 C494 C 0.42453 0.32428 0.96022
 H495 H 0.38003 0.19372 0.94648
 H496 H 0.43964 0.21554 0.84465
 H497 H 0.51662 0.36632 0.92156
 H498 H 0.41723 0.37465 0.99065
 H499 H 0.40573 0.25084 0.97234
 H500 H 0.39800 0.31336 0.97034
 C501 C 0.56846 0.57609 0.76872
 C502 C 0.54765 0.60312 0.74918
 C503 C 0.56051 0.61538 0.71485
 C504 C 0.59375 0.60050 0.69947
 C505 C 0.61286 0.57235 0.71914
 N506 N 0.60003 0.56118 0.75282
 C507 C 0.55734 0.56393 0.80636
 N508 N 0.56943 0.53017 0.81933
 C509 C 0.56061 0.51771 0.85386
 C510 C 0.53848 0.53988 0.87766
 C511 C 0.52632 0.57497 0.86493
 C512 C 0.53575 0.58710 0.82963
 H513 H 0.54446 0.63666 0.70047
 H514 H 0.63845 0.55981 0.70823
 H515 H 0.57076 0.49056 0.86258
 H516 H 0.50959 0.59333 0.88235
 H517 H 0.52163 0.61476 0.76001
 H518 H 0.52676 0.61471 0.82122
 C519 C 0.42520 0.07643 0.72758
 C520 C 0.44753 0.10159 0.74760
 C521 C 0.43453 0.11554 0.78126
 C522 C 0.39949 0.10426 0.79552
 C523 C 0.37876 0.07770 0.77550
 N524 N 0.39185 0.06478 0.74242
 C525 C 0.43675 0.06327 0.69036
 N526 N 0.42479 0.02945 0.67768
 C527 C 0.43447 0.01626 0.64356
 C528 C 0.45725 0.03773 0.61991
 C529 C 0.46920 0.07288 0.63236
 C530 C 0.45900 0.08572 0.66725
 H531 H 0.45187 0.13543 0.79593
 H532 H 0.35177 0.06788 0.78561
 H533 H 0.42440 -0.01089 0.63499
 H534 H 0.48647 0.09071 0.61509
 H535 H 0.47482 0.11055 0.73750
 H536 H 0.46795 0.11331 0.67557
 C537 C 0.09008 0.92251 0.22369
 C538 C 0.12639 0.92951 0.23733
 C539 C 0.13689 0.91508 0.27155
 C540 C 0.11146 0.89344 0.29223
 C541 C 0.07530 0.88730 0.27770
 N542 N 0.06558 0.90198 0.24440
 C543 C 0.07767 0.93727 0.18756
 N544 N 0.04061 0.94622 0.18263
 C545 C 0.02725 0.95957 0.15002
 C546 C 0.05165 0.96396 0.11965
 C547 C 0.08989 0.95455 0.12405
 C548 C 0.10302 0.94138 0.15792
 H549 H 0.16503 0.92069 0.28168
 H550 H 0.05468 0.87110 0.29285
 H551 H -0.00252 0.96613 0.14771
 H552 H 0.10964 0.95728 0.10131
 H553 H 0.14632 0.94644 0.22208
 H554 H 0.13249 0.93369 0.16052
 C555 C 0.92323 0.42731 0.27105
 C556 C 0.94436 0.40101 0.25072
 C557 C 0.93028 0.38725 0.21759
 C558 C 0.89547 0.39997 0.20407
 C559 C 0.87611 0.42776 0.22417
 N560 N 0.89013 0.44035 0.25684
 C561 C 0.93562 0.44017 0.30799
 N562 N 0.92348 0.47383 0.32133
 C563 C 0.93348 0.48664 0.35537
 C564 C 0.95684 0.46494 0.37825
 C565 C 0.96915 0.43003 0.36509
 C566 C 0.95856 0.41755 0.33032
 H567 H 0.94660 0.36641 0.20270
 H568 H 0.84933 0.43864 0.21458
 H569 H 0.92314 0.51363 0.36450
 H570 H 0.98682 0.41201 0.38179
 H571 H 0.97151 0.39095 0.26013
 H572 H 0.96765 0.39001 0.32163
   
