data_POSCAR
  _audit_creation_date              2014-09-24
  _audit_creation_method            'ToBaCCo'
  _symmetry_space_group_name_H-M    'P1'
  _symmetry_Int_Tables_number       1
  _symmetry_cell_setting            triclinic
  loop_
  _symmetry_equiv_pos_as_xyz
 x,y,z
_cell_length_a 62.3238
_cell_length_b 62.3231
_cell_length_c 22.0347
_cell_angle_alpha 90.000000
_cell_angle_beta 90.000000
_cell_angle_gamma 120.000000
loop_
  _atom_site_label
  _atom_site_type_symbol
  _atom_site_fract_x
  _atom_site_fract_y
  _atom_site_fract_z
C1 C 0.17729 0.48008 0.50055
 C2 C 0.18719 0.47996 0.44222
 C3 C 0.21134 0.47936 0.44386
 C4 C 0.22569 0.47947 0.49976
 C5 C 0.21177 0.47958 0.55588
 C6 C 0.18771 0.48004 0.55797
 C7 C 0.25405 0.47948 0.49975
 C8 C 0.26828 0.47935 0.55565
 C9 C 0.29303 0.47995 0.55728
 C10 C 0.30305 0.48008 0.49894
 C11 C 0.29260 0.48005 0.44153
 C12 C 0.26807 0.47959 0.44363
 H13 H 0.15928 0.47834 0.50204
 H14 H 0.21932 0.47910 0.40052
 H15 H 0.21987 0.47939 0.59912
 H16 H 0.26004 0.47909 0.59899
 H17 H 0.31932 0.47834 0.49744
 H18 H 0.25978 0.47940 0.40039
 C19 C 0.51968 -0.30272 0.50001
 C20 C 0.51968 -0.29245 0.44235
 C21 C 0.52008 -0.26787 0.44433
 C22 C 0.52008 -0.25377 0.50046
 C23 C 0.52008 -0.26795 0.55627
 C24 C 0.51967 -0.29249 0.55776
 C25 C 0.52010 -0.22540 0.50072
 C26 C 0.52026 -0.21106 0.55667
 C27 C 0.51969 -0.18689 0.55834
 C28 C 0.51957 -0.17698 0.50003
 C29 C 0.51957 -0.18740 0.44260
 C30 C 0.52000 -0.21148 0.44464
 H31 H 0.52105 -0.31927 0.49993
 H32 H 0.52030 -0.25962 0.40102
 H33 H 0.52028 -0.25978 0.59970
 H34 H 0.52052 -0.21906 0.59997
 H35 H 0.52133 -0.15896 0.49855
 H36 H 0.52017 -0.21957 0.40138
 C37 C 1.30375 0.82302 0.49938
 C38 C 1.29370 0.81310 0.44107
 C39 C 1.26897 0.78893 0.44277
 C40 C 1.25479 0.77460 0.49872
 C41 C 1.26882 0.78853 0.55479
 C42 C 1.29333 0.81261 0.55682
 C43 C 1.22645 0.74623 0.49897
 C44 C 1.21234 0.73212 0.55509
 C45 C 1.18816 0.70754 0.55705
 C46 C 1.17790 0.69728 0.49937
 C47 C 1.18814 0.70752 0.44164
 C48 C 1.21228 0.73207 0.44315
 H49 H 1.32000 0.84105 0.50084
 H50 H 1.26071 0.78093 0.39947
 H51 H 1.26057 0.78044 0.59806
 H52 H 1.22037 0.74036 0.59841
 H53 H 1.15998 0.68074 0.49942
 H54 H 1.22024 0.74024 0.39973
 C55 C 0.82226 0.51929 0.50100
 C56 C 0.81200 0.51928 0.44329
 C57 C 0.78782 0.51965 0.44508
 C58 C 0.77367 0.51963 0.50106
 C59 C 0.78781 0.51964 0.55701
 C60 C 0.81198 0.51927 0.55870
 C61 C 0.74532 0.51962 0.50098
 C62 C 0.73108 0.51974 0.55679
 C63 C 0.70635 0.51914 0.55829
 C64 C 0.69634 0.51903 0.49994
 C65 C 0.70679 0.51905 0.44254
 C66 C 0.73132 0.51951 0.44477
 H67 H 0.84019 0.52070 0.50100
 H68 H 0.77983 0.51986 0.40170
 H69 H 0.77981 0.51984 0.60039
 H70 H 0.73931 0.51999 0.60014
 H71 H 0.68007 0.52078 0.49841
 H72 H 0.73963 0.51970 0.40156
 C73 C 0.48040 0.30299 0.50048
 C74 C 0.48038 0.29254 0.44311
 C75 C 0.47995 0.26801 0.44547
 C76 C 0.47986 0.25403 0.50176
 C77 C 0.47972 0.26828 0.55749
 C78 C 0.48030 0.29299 0.55886
 C79 C 0.47990 0.22569 0.50192
 C80 C 0.47980 0.21135 0.55776
 C81 C 0.48044 0.18723 0.55930
 C82 C 0.48056 0.17732 0.50096
 C83 C 0.48051 0.18772 0.44355
 C84 C 0.48002 0.21178 0.44574
 H85 H 0.47862 0.31924 0.49892
 H86 H 0.47977 0.25970 0.40229
 H87 H 0.47948 0.26007 0.60088
 H88 H 0.47953 0.21933 0.60111
 H89 H 0.47883 0.15931 0.49945
 H90 H 0.47982 0.21987 0.40251
 C91 C 0.69704 0.17733 0.50158
 C92 C 0.70750 0.18775 0.44419
 C93 C 0.73206 0.21182 0.44655
 C94 C 0.74606 0.22569 0.50284
 C95 C 0.73181 0.21133 0.55857
 C96 C 0.70706 0.18722 0.55994
 C97 C 0.77444 0.25404 0.50300
 C98 C 0.78880 0.26824 0.55886
 C99 C 0.81295 0.29297 0.56041
 C100 C 0.82287 0.30301 0.50208
 C101 C 0.81246 0.29258 0.44466
 C102 C 0.78837 0.26806 0.44683
 H103 H 0.68077 0.15932 0.50002
 H104 H 0.74038 0.21994 0.40336
 H105 H 0.74002 0.21928 0.60195
 H106 H 0.78081 0.26000 0.60219
 H107 H 0.84090 0.31926 0.50058
 H108 H 0.78027 0.25979 0.40360
 N109 N 0.97218 0.52547 0.07332
 N110 N 0.95485 0.53158 0.08918
 N111 N 1.02769 0.53816 0.11589
 N112 N 1.04444 0.55130 0.15970
 N113 N 1.02807 0.55341 0.07309
 N114 N 1.04538 0.57685 0.08878
 N115 N 0.97263 0.51064 0.11612
 N116 N 0.95590 0.50702 0.16005
 C117 C 0.94409 0.51993 0.14396
 C118 C 1.05619 0.57600 0.14346
 N119 N 1.02820 0.47383 0.07355
 N120 N 1.04565 0.46785 0.08928
 N121 N 0.97264 0.46116 0.11636
 N122 N 0.95593 0.44811 0.16032
 N123 N 0.97222 0.44585 0.07371
 N124 N 0.95492 0.42243 0.08968
 N125 N 1.02770 0.48862 0.11639
 N126 N 1.04442 0.49224 0.16036
 Mn127 Mn 1.00017 0.49965 0.11495
 C128 C 1.05636 0.47944 0.14419
 C129 C 0.94415 0.42338 0.14436
 N130 N 1.02807 0.55341 -0.07230
 N131 N 1.04536 0.57684 -0.08831
 N132 N 0.97254 0.51052 -0.11476
 N133 N 0.95579 0.50688 -0.15864
 N134 N 0.97214 0.52541 -0.07206
 N135 N 0.95483 0.53154 -0.08789
 N136 N 1.02763 0.53809 -0.11498
 N137 N 1.04433 0.55118 -0.15899
 Mn138 Mn 1.00011 0.53936 0.00052
 C139 C 1.05613 0.57593 -0.14308
 C140 C 0.94403 0.51983 -0.14256
 N141 N 0.97204 0.44573 -0.07166
 N142 N 0.95456 0.42231 -0.08722
 N143 N 1.02758 0.48857 -0.11458
 N144 N 1.04432 0.49221 -0.15846
 N145 N 1.02800 0.47370 -0.07183
 N146 N 1.04530 0.46758 -0.08764
 N147 N 0.97255 0.46099 -0.11462
 N148 N 0.95580 0.44787 -0.15849
 Mn149 Mn 1.00011 0.45983 0.00093
 Mn150 Mn 1.00008 0.49954 -0.11349
 Cl151 Cl 1.00012 0.49960 0.00073
 C152 C 0.94386 0.42316 -0.14214
 C153 C 1.05608 0.47927 -0.14233
 N154 N 0.47388 0.44580 0.07146
 N155 N 0.46776 0.42237 0.08745
 N156 N 0.46125 0.48864 0.11397
 N157 N 0.44815 0.49229 0.15785
 N158 N 0.44596 0.47376 0.07125
 N159 N 0.42253 0.46762 0.08709
 N160 N 0.48875 0.46111 0.11416
 N161 N 0.49239 0.44804 0.15815
 C162 C 0.47946 0.42331 0.14220
 C163 C 0.42345 0.47932 0.14175
 N164 N 0.52563 0.55344 0.07158
 N165 N 0.53180 0.57689 0.08757
 N166 N 0.53821 0.51055 0.11426
 N167 N 0.55127 0.50690 0.15824
 N168 N 0.55352 0.52540 0.07156
 N169 N 0.57694 0.53152 0.08750
 N170 N 0.51073 0.53815 0.11425
 N171 N 0.50713 0.55125 0.15824
 Mn172 Mn 0.49973 0.49961 0.11291
 C173 C 0.52012 0.57600 0.14231
 C174 C 0.57599 0.51983 0.14222
 N175 N 0.44589 0.47377 -0.07412
 N176 N 0.42246 0.46781 -0.08982
 N177 N 0.48870 0.46103 -0.11684
 N178 N 0.49235 0.44792 -0.16069
 N179 N 0.47394 0.44577 -0.07393
 N180 N 0.46800 0.42235 -0.08945
 N181 N 0.46117 0.48855 -0.11697
 N182 N 0.44807 0.49217 -0.16094
 Mn183 Mn 0.45997 0.45982 -0.00135
 C184 C 0.42334 0.47938 -0.14476
 C185 C 0.47959 0.42322 -0.14432
 N186 N 0.55356 0.52532 -0.07379
 N187 N 0.57698 0.53126 -0.08939
 N188 N 0.51075 0.53809 -0.11658
 N189 N 0.50713 0.55122 -0.16039
 N190 N 0.52564 0.55334 -0.07381
 N191 N 0.53177 0.57679 -0.08952
 N192 N 0.53829 0.51058 -0.11674
 N193 N 0.55140 0.50696 -0.16065
 Mn194 Mn 0.53953 0.53932 -0.00114
 Mn195 Mn 0.49973 0.49957 -0.11555
 Cl196 Cl 0.49974 0.49958 -0.00129
 C197 C 0.57611 0.51971 -0.14432
 C198 C 0.52009 0.57593 -0.14418
 N199 N 0.44638 -0.02784 0.07236
 N200 N 0.42295 -0.04532 0.08803
 N201 N 0.48923 0.02773 0.11523
 N202 N 0.49285 0.04443 0.15919
 N203 N 0.47435 0.02814 0.07253
 N204 N 0.46820 0.04542 0.08846
 N205 N 0.46165 -0.02732 0.11527
 N206 N 0.44855 -0.04405 0.15922
 C207 C 0.42383 -0.05601 0.14297
 C208 C 0.47989 0.05619 0.14318
 N209 N 0.55403 0.02817 0.07256
 N210 N 0.57746 0.04545 0.08859
 N211 N 0.51117 -0.02729 0.11502
 N212 N 0.50750 -0.04403 0.15890
 N213 N 0.52606 -0.02770 0.07232
 N214 N 0.53218 -0.04500 0.08818
 N215 N 0.53872 0.02774 0.11523
 N216 N 0.55179 0.04443 0.15925
 Mn217 Mn 0.50020 0.00022 0.11394
 C218 C 0.57653 0.05620 0.14333
 C219 C 0.52046 -0.05579 0.14282
 N220 N 0.47451 0.02831 -0.07283
 N221 N 0.46852 0.04576 -0.08845
 N222 N 0.46187 -0.02720 -0.11571
 N223 N 0.44880 -0.04394 -0.15960
 N224 N 0.44656 -0.02763 -0.07300
 N225 N 0.42314 -0.04494 -0.08885
 N226 N 0.48929 0.02783 -0.11573
 N227 N 0.49290 0.04456 -0.15963
 Mn228 Mn 0.46050 0.00024 -0.00025
 C229 C 0.48010 0.05647 -0.14334
 C230 C 0.42408 -0.05571 -0.14352
 N231 N 0.52610 -0.02777 -0.07304
 N232 N 0.53203 -0.04526 -0.08871
 N233 N 0.53888 0.02782 -0.11573
 N234 N 0.55202 0.04456 -0.15958
 N235 N 0.55412 0.02828 -0.07281
 N236 N 0.57756 0.04574 -0.08832
 N237 N 0.51136 -0.02723 -0.11596
 N238 N 0.50773 -0.04395 -0.15992
 Mn239 Mn 0.54002 0.00024 -0.00025
 Mn240 Mn 0.50035 0.00031 -0.11454
 Cl241 Cl 0.50027 0.00026 -0.00028
 C242 C 0.52047 -0.05594 -0.14367
 C243 C 0.57671 0.05646 -0.14319
 C244 C 1.13515 0.48301 0.33548
 C245 C 1.13905 0.47537 0.28040
 C246 C 1.15881 0.47021 0.27512
 C247 C 1.17459 0.47253 0.32648
 C248 C 1.17146 0.47951 0.38664
 C249 C 1.15076 0.48512 0.38835
 O250 O 1.11591 0.48771 0.33197
 C251 C 1.10715 0.48281 0.27368
 C252 C 1.12060 0.47499 0.24016
 C253 C 1.11401 0.46847 0.17860
 C254 C 1.09366 0.46990 0.15076
 C255 C 1.07876 0.47822 0.18131
 C256 C 1.08647 0.48485 0.24547
 H257 H 1.16220 0.46440 0.23163
 H258 H 1.18903 0.46802 0.31891
 H259 H 1.14678 0.49177 0.42963
 H260 H 1.12433 0.46214 0.15182
 H261 H 1.08966 0.46454 0.10358
 H262 H 1.07650 0.49127 0.27326
 C263 C 0.51517 0.65094 0.33217
 C264 C 0.52622 0.66335 0.27964
 C265 C 0.53421 0.68906 0.27588
 C266 C 0.53123 0.70244 0.32628
 C267 C 0.52040 0.69131 0.38353
 C268 C 0.51212 0.66435 0.38407
 O269 O 0.50854 0.62645 0.32729
 C270 C 0.51554 0.62310 0.27073
 C271 C 0.52658 0.64523 0.23971
 C272 C 0.53549 0.64579 0.18029
 C273 C 0.53319 0.62375 0.15191
 C274 C 0.52178 0.59972 0.17988
 C275 C 0.51276 0.60017 0.24197
 H276 H 0.54287 0.69896 0.23450
 H277 H 0.53813 0.72207 0.32063
 H278 H 0.50322 0.65360 0.42422
 H279 H 0.54430 0.66312 0.15558
 H280 H 0.54047 0.62561 0.10642
 H281 H 0.50389 0.58311 0.26770
 C282 C 0.34872 -0.13484 0.33426
 C283 C 0.33715 -0.13875 0.27921
 C284 C 0.31224 -0.15852 0.27396
 C285 C 0.29882 -0.17431 0.32535
 C286 C 0.30894 -0.17118 0.38547
 C287 C 0.33525 -0.15046 0.38713
 O288 O 0.37265 -0.11559 0.33071
 C289 C 0.37648 -0.10683 0.27244
 C290 C 0.35520 -0.12029 0.23895
 C291 C 0.35524 -0.11370 0.17741
 C292 C 0.37700 -0.09333 0.14954
 C293 C 0.40022 -0.07842 0.18007
 C294 C 0.39917 -0.08614 0.24421
 H295 H 0.30302 -0.16192 0.23050
 H296 H 0.27987 -0.18876 0.31782
 H297 H 0.34590 -0.14648 0.42838
 H298 H 0.33859 -0.12402 0.15066
 H299 H 0.37563 -0.08933 0.10237
 H300 H 0.41557 -0.07616 0.27197
 C301 C 0.86413 0.51485 0.33339
 C302 C 0.86277 0.52589 0.28085
 C303 C 0.84505 0.53386 0.27700
 C304 C 0.82866 0.53086 0.32735
 C305 C 0.82896 0.52002 0.38457
 C306 C 0.84765 0.51176 0.38521
 O307 O 0.88201 0.50825 0.32859
 C308 C 0.89236 0.51526 0.27208
 C309 C 0.88128 0.52629 0.24100
 C310 C 0.88963 0.53521 0.18161
 C311 C 0.90939 0.53294 0.15331
 C312 C 0.92202 0.52155 0.18137
 C313 C 0.91254 0.51252 0.24341
 H314 H 0.84383 0.54253 0.23560
 H315 H 0.81593 0.53775 0.32168
 H316 H 0.84949 0.50286 0.42537
 H317 H 0.88110 0.54400 0.15687
 H318 H 0.91483 0.54022 0.10783
 H319 H 0.92074 0.50366 0.26917
 C320 C 0.48485 0.34883 0.33220
 C321 C 0.47350 0.33626 0.28007
 C322 C 0.46534 0.31051 0.27673
 C323 C 0.46845 0.29725 0.32720
 C324 C 0.47960 0.30858 0.38402
 C325 C 0.48807 0.33558 0.38409
 O326 O 0.49158 0.37333 0.32697
 C327 C 0.48435 0.37652 0.27060
 C328 C 0.47306 0.35429 0.24002
 C329 C 0.46389 0.35356 0.18083
 C330 C 0.46619 0.37556 0.15224
 C331 C 0.47782 0.39967 0.17982
 C332 C 0.48710 0.39938 0.24165
 H333 H 0.45642 0.30049 0.23566
 H334 H 0.46138 0.27758 0.32199
 H335 H 0.49723 0.34645 0.42390
 H336 H 0.45489 0.33616 0.15648
 H337 H 0.45872 0.37360 0.10695
 H338 H 0.49617 0.41653 0.26703
 C339 C 0.65113 0.13600 0.33332
 C340 C 0.66368 0.13719 0.28118
 C341 C 0.68944 0.15474 0.27782
 C342 C 0.70273 0.17110 0.32828
 C343 C 0.69143 0.17095 0.38512
 C344 C 0.66442 0.15246 0.38521
 O345 O 0.62662 0.11827 0.32812
 C346 C 0.62340 0.10784 0.27174
 C347 C 0.64562 0.11874 0.24114
 C348 C 0.64632 0.11029 0.18195
 C349 C 0.62430 0.09063 0.15337
 C350 C 0.60019 0.07819 0.18097
 C351 C 0.60051 0.08776 0.24281
 H352 H 0.69945 0.15583 0.23674
 H353 H 0.72241 0.18367 0.32304
 H354 H 0.65356 0.15076 0.42503
 H355 H 0.66372 0.11867 0.15758
 H356 H 0.62624 0.08510 0.10807
 H357 H 0.58337 0.07971 0.26820
 C358 C 0.48360 0.13526 -0.33418
 C359 C 0.47589 0.13910 -0.27911
 C360 C 0.47067 0.15880 -0.27375
 C361 C 0.47298 0.17459 -0.32506
 C362 C 0.48001 0.17152 -0.38518
 C363 C 0.48571 0.15089 -0.38696
 O364 O 0.48836 0.11606 -0.33074
 C365 C 0.48343 0.10727 -0.27251
 C366 C 0.47554 0.12065 -0.23895
 C367 C 0.46899 0.11402 -0.17744
 C368 C 0.47045 0.09368 -0.14968
 C369 C 0.47884 0.07886 -0.18030
 C370 C 0.48551 0.08662 -0.24440
 H371 H 0.46481 0.16214 -0.23026
 H372 H 0.46841 0.18899 -0.31747
 H373 H 0.49242 0.14697 -0.42822
 H374 H 0.46260 0.12429 -0.15065
 H375 H 0.46507 0.08963 -0.10253
 H376 H 0.49197 0.07669 -0.27220
 C377 C 0.65128 0.51608 -0.33519
 C378 C 0.66283 0.52376 -0.28012
 C379 C 0.68774 0.52894 -0.27476
 C380 C 0.70120 0.52661 -0.32608
 C381 C 0.69109 0.51960 -0.38620
 C382 C 0.66478 0.51395 -0.38798
 O383 O 0.62735 0.51137 -0.33174
 C384 C 0.62349 0.51630 -0.27350
 C385 C 0.64476 0.52415 -0.23995
 C386 C 0.64470 0.53069 -0.17843
 C387 C 0.62292 0.52927 -0.15066
 C388 C 0.59972 0.52092 -0.18128
 C389 C 0.60079 0.51426 -0.24538
 H390 H 0.69694 0.53478 -0.23128
 H391 H 0.72016 0.53114 -0.31851
 H392 H 0.65415 0.50726 -0.42924
 H393 H 0.66135 0.53704 -0.15164
 H394 H 0.62427 0.53465 -0.10349
 H395 H 0.58440 0.50783 -0.27317
 C396 C 0.86499 0.34802 -0.33301
 C397 C 0.86112 0.33645 -0.27796
 C398 C 0.84138 0.31154 -0.27263
 C399 C 0.82558 0.29809 -0.32395
 C400 C 0.82868 0.30822 -0.38406
 C401 C 0.84935 0.33453 -0.38580
 O402 O 0.88422 0.37195 -0.32954
 C403 C 0.89301 0.37579 -0.27131
 C404 C 0.87960 0.35451 -0.23778
 C405 C 0.88622 0.35456 -0.17627
 C406 C 0.90658 0.37634 -0.14849
 C407 C 0.92144 0.39955 -0.17909
 C408 C 0.91369 0.39849 -0.24318
 H409 H 0.83803 0.30233 -0.22916
 H410 H 0.81115 0.27914 -0.31639
 H411 H 0.85329 0.34518 -0.42704
 H412 H 0.87593 0.33791 -0.14950
 H413 H 0.91063 0.37498 -0.10134
 H414 H 0.92365 0.41488 -0.27097
 C415 C 0.51674 -0.13481 -0.33490
 C416 C 0.52439 -0.13871 -0.27984
 C417 C 0.52952 -0.15849 -0.27457
 C418 C 0.52717 -0.17428 -0.32593
 C419 C 0.52018 -0.17116 -0.38607
 C420 C 0.51459 -0.15044 -0.38776
 O421 O 0.51207 -0.11555 -0.33138
 C422 C 0.51700 -0.10678 -0.27311
 C423 C 0.52481 -0.12024 -0.23960
 C424 C 0.53135 -0.11365 -0.17805
 C425 C 0.52996 -0.09328 -0.15021
 C426 C 0.52166 -0.07836 -0.18076
 C427 C 0.51500 -0.08608 -0.24491
 H428 H 0.53534 -0.16188 -0.23109
 H429 H 0.53166 -0.18874 -0.31838
 H430 H 0.50793 -0.14645 -0.42902
 H431 H 0.53767 -0.12397 -0.15128
 H432 H 0.53534 -0.08927 -0.10304
 H433 H 0.50859 -0.07610 -0.27269
 C434 C 0.34813 0.48299 -0.33601
 C435 C 0.33658 0.47534 -0.28092
 C436 C 0.31167 0.47019 -0.27563
 C437 C 0.29821 0.47251 -0.32699
 C438 C 0.30830 0.47949 -0.38715
 C439 C 0.33462 0.48510 -0.38887
 O440 O 0.37206 0.48768 -0.33250
 C441 C 0.37592 0.48277 -0.27422
 C442 C 0.35465 0.47495 -0.24069
 C443 C 0.35472 0.46843 -0.17913
 C444 C 0.37650 0.46985 -0.15130
 C445 C 0.39972 0.47817 -0.18186
 C446 C 0.39863 0.48481 -0.24602
 H447 H 0.30247 0.46438 -0.23214
 H448 H 0.27926 0.46801 -0.31942
 H449 H 0.34525 0.49175 -0.43015
 H450 H 0.33808 0.46211 -0.15235
 H451 H 0.37514 0.46449 -0.10412
 H452 H 0.41502 0.49122 -0.27382
 C453 C 1.13604 0.65091 -0.33287
 C454 C 1.13741 0.66329 -0.28030
 C455 C 1.15514 0.68900 -0.27650
 C456 C 1.17151 0.70240 -0.32689
 C457 C 1.17120 0.69129 -0.38416
 C458 C 1.15251 0.66432 -0.38475
 O459 O 1.11817 0.62641 -0.32803
 C460 C 1.10783 0.62305 -0.27147
 C461 C 1.11892 0.64517 -0.24041
 C462 C 1.11058 0.64572 -0.18097
 C463 C 1.09083 0.62367 -0.15262
 C464 C 1.07819 0.59965 -0.18064
 C465 C 1.08766 0.60011 -0.24274
 H466 H 1.15637 0.69889 -0.23509
 H467 H 1.18424 0.72202 -0.32120
 H468 H 1.15065 0.65359 -0.42493
 H469 H 1.11910 0.66303 -0.15622
 H470 H 1.08542 0.62552 -0.10712
 H471 H 1.07947 0.58306 -0.26850
 C472 C 0.86403 0.51475 -0.33158
 C473 C 0.86276 0.52587 -0.27910
 C474 C 0.84509 0.53391 -0.27521
 C475 C 0.82869 0.53090 -0.32549
 C476 C 0.82892 0.51999 -0.38263
 C477 C 0.84754 0.51165 -0.38332
 O478 O 0.88187 0.50809 -0.32683
 C479 C 0.89228 0.51515 -0.27039
 C480 C 0.88127 0.52626 -0.23933
 C481 C 0.88967 0.53523 -0.18002
 C482 C 0.90942 0.53294 -0.15179
 C483 C 0.92197 0.52147 -0.17987
 C484 C 0.91244 0.51239 -0.24181
 H485 H 0.84394 0.54264 -0.23385
 H486 H 0.81600 0.53785 -0.31983
 H487 H 0.84931 0.50269 -0.42343
 H488 H 0.88121 0.54409 -0.15530
 H489 H 0.91492 0.54026 -0.10636
 H490 H 0.92058 0.50347 -0.26754
 C491 C 0.48333 0.34806 -0.33481
 C492 C 0.47561 0.33650 -0.27976
 C493 C 0.47042 0.31159 -0.27433
 C494 C 0.47278 0.29813 -0.32559
 C495 C 0.47982 0.30825 -0.38569
 C496 C 0.48549 0.33456 -0.38754
 O497 O 0.48804 0.37199 -0.33143
 C498 C 0.48308 0.37584 -0.27324
 C499 C 0.47520 0.35457 -0.23966
 C500 C 0.46861 0.35463 -0.17818
 C501 C 0.47002 0.37641 -0.15048
 C502 C 0.47839 0.39961 -0.18116
 C503 C 0.48510 0.39854 -0.24520
 H504 H 0.46455 0.30240 -0.23084
 H505 H 0.46823 0.27917 -0.31799
 H506 H 0.49221 0.34519 -0.42879
 H507 H 0.46224 0.33799 -0.15138
 H508 H 0.46461 0.37508 -0.10335
 H509 H 0.49155 0.41493 -0.27301
 C510 C 0.65195 0.13527 -0.33370
 C511 C 0.66351 0.13907 -0.27865
 C512 C 0.68843 0.15875 -0.27324
 C513 C 0.70191 0.17456 -0.32450
 C514 C 0.69179 0.17151 -0.38460
 C515 C 0.66546 0.15090 -0.38643
 O516 O 0.62800 0.11608 -0.33031
 C517 C 0.62414 0.10726 -0.27212
 C518 C 0.64542 0.12062 -0.23855
 C519 C 0.64535 0.11396 -0.17707
 C520 C 0.62355 0.09363 -0.14937
 C521 C 0.60034 0.07884 -0.18003
 C522 C 0.60142 0.08662 -0.24407
 H523 H 0.69763 0.16206 -0.22976
 H524 H 0.72088 0.18894 -0.31692
 H525 H 0.65483 0.14702 -0.42768
 H526 H 0.66200 0.12421 -0.15028
 H527 H 0.62487 0.08954 -0.10223
 H528 H 0.58502 0.07671 -0.27187
 C529 C 1.13599 0.48464 -0.33153
 C530 C 1.13709 0.47319 -0.27946
 C531 C 1.15459 0.46493 -0.27602
 C532 C 1.17099 0.46804 -0.32637
 C533 C 1.17091 0.47929 -0.38309
 C534 C 1.15249 0.48787 -0.38327
 O535 O 1.11828 0.49144 -0.32642
 C536 C 1.10779 0.48415 -0.27017
 C537 C 1.11862 0.47276 -0.23957
 C538 C 1.11010 0.46353 -0.18049
 C539 C 1.09042 0.46587 -0.15204
 C540 C 1.07807 0.47760 -0.17971
 C541 C 1.08770 0.48694 -0.24139
 H542 H 1.15560 0.45594 -0.23498
 H543 H 1.18353 0.46089 -0.32115
 H544 H 1.15087 0.49711 -0.42303
 H545 H 1.11843 0.45446 -0.15613
 H546 H 1.08482 0.45835 -0.10680
 H547 H 1.07970 0.49608 -0.26676
 C548 C 0.51508 0.65090 -0.33278
 C549 C 0.52623 0.66328 -0.28030
 C550 C 0.53432 0.68899 -0.27633
 C551 C 0.53132 0.70241 -0.32655
 C552 C 0.52038 0.69128 -0.38367
 C553 C 0.51199 0.66432 -0.38444
 O554 O 0.50839 0.62640 -0.32810
 C555 C 0.51545 0.62303 -0.27172
 C556 C 0.52660 0.64514 -0.24061
 C557 C 0.53559 0.64569 -0.18134
 C558 C 0.53326 0.62363 -0.15319
 C559 C 0.52176 0.59964 -0.18134
 C560 C 0.51266 0.60010 -0.24323
 H561 H 0.54307 0.69885 -0.23497
 H562 H 0.53830 0.72205 -0.32087
 H563 H 0.50300 0.65360 -0.42456
 H564 H 0.54447 0.66301 -0.15660
 H565 H 0.54060 0.62543 -0.10779
 H566 H 0.50372 0.58304 -0.26898
 C567 C 0.34961 -0.13564 -0.33272
 C568 C 0.33706 -0.13677 -0.28064
 C569 C 0.31130 -0.15430 -0.27718
 C570 C 0.29803 -0.17070 -0.32753
 C571 C 0.30936 -0.17059 -0.38426
 C572 C 0.33635 -0.15214 -0.38447
 O573 O 0.37411 -0.11791 -0.32762
 C574 C 0.37731 -0.10743 -0.27136
 C575 C 0.35509 -0.11829 -0.24075
 C576 C 0.35436 -0.10979 -0.18166
 C577 C 0.37637 -0.09010 -0.15321
 C578 C 0.40045 -0.07772 -0.18089
 C579 C 0.40018 -0.08733 -0.24258
 H580 H 0.30130 -0.15533 -0.23613
 H581 H 0.27834 -0.18326 -0.32231
 H582 H 0.34721 -0.15050 -0.42425
 H583 H 0.33696 -0.11815 -0.15730
 H584 H 0.37444 -0.08451 -0.10797
 H585 H 0.41732 -0.07930 -0.26796
 C586 C 0.51502 -0.13568 0.33208
 C587 C 0.52646 -0.13681 0.28002
 C588 C 0.53470 -0.15433 0.27658
 C589 C 0.53158 -0.17072 0.32694
 C590 C 0.52034 -0.17061 0.38366
 C591 C 0.51178 -0.15217 0.38384
 O592 O 0.50824 -0.11796 0.32696
 C593 C 0.51553 -0.10748 0.27070
 C594 C 0.52690 -0.11833 0.24010
 C595 C 0.53613 -0.10984 0.18102
 C596 C 0.53381 -0.09015 0.15255
 C597 C 0.52210 -0.07778 0.18021
 C598 C 0.51276 -0.08739 0.24189
 H599 H 0.54368 -0.15535 0.23555
 H600 H 0.53870 -0.18328 0.32175
 H601 H 0.50256 -0.15053 0.42361
 H602 H 0.54519 -0.11819 0.15669
 H603 H 0.54133 -0.08456 0.10731
 H604 H 0.50364 -0.07937 0.26725
 C605 C 0.34891 0.48467 0.33099
 C606 C 0.33635 0.47322 0.27893
 C607 C 0.31059 0.46495 0.27550
 C608 C 0.29730 0.46805 0.32586
 C609 C 0.30864 0.47931 0.38258
 C610 C 0.33564 0.48790 0.38274
 O611 O 0.37342 0.49148 0.32587
 C612 C 0.37662 0.48419 0.26962
 C613 C 0.35440 0.47279 0.23903
 C614 C 0.35368 0.46356 0.17995
 C615 C 0.37570 0.46591 0.15149
 C616 C 0.39979 0.47765 0.17914
 C617 C 0.39950 0.48699 0.24082
 H618 H 0.30059 0.45595 0.23447
 H619 H 0.27761 0.46090 0.32066
 H620 H 0.34650 0.49714 0.42251
 H621 H 0.33628 0.45448 0.15561
 H622 H 0.37378 0.45839 0.10626
 H623 H 0.41665 0.49614 0.26618
 C624 C 1.13615 0.65094 0.33212
 C625 C 1.13738 0.66333 0.27965
 C626 C 1.15501 0.68904 0.27570
 C627 C 1.17142 0.70245 0.32593
 C628 C 1.17122 0.69130 0.38305
 C629 C 1.15265 0.66434 0.38379
 O630 O 1.11834 0.62644 0.32741
 C631 C 1.10792 0.62308 0.27103
 C632 C 1.11888 0.64520 0.23994
 C633 C 1.11045 0.64576 0.18066
 C634 C 1.09072 0.62370 0.15249
 C635 C 1.07822 0.59970 0.18063
 C636 C 1.08777 0.60015 0.24252
 H637 H 1.15612 0.69890 0.23435
 H638 H 1.18408 0.72209 0.32028
 H639 H 1.15092 0.65362 0.42389
 H640 H 1.11889 0.66308 0.15594
 H641 H 1.08519 0.62550 0.10709
 H642 H 1.07966 0.58310 0.26825
 C643 C 0.48513 0.13600 0.33285
 C644 C 0.47374 0.13716 0.28073
 C645 C 0.46550 0.15468 0.27734
 C646 C 0.46858 0.17105 0.32776
 C647 C 0.47977 0.17092 0.38454
 C648 C 0.48833 0.15247 0.38468
 O649 O 0.49193 0.11828 0.32768
 C650 C 0.48469 0.10783 0.27135
 C651 C 0.47333 0.11870 0.24076
 C652 C 0.46415 0.11023 0.18161
 C653 C 0.46651 0.09056 0.15308
 C654 C 0.47820 0.07817 0.18071
 C655 C 0.48749 0.08775 0.24248
 H656 H 0.45655 0.15573 0.23628
 H657 H 0.46145 0.18361 0.32254
 H658 H 0.49752 0.15081 0.42447
 H659 H 0.45511 0.11859 0.15725
 H660 H 0.45902 0.08501 0.10780
 H661 H 0.49660 0.07972 0.26785
 C662 C 0.65049 0.51448 0.33184
 C663 C 0.66305 0.52588 0.27974
 C664 C 0.68881 0.53410 0.27635
 C665 C 0.70208 0.53100 0.32677
 C666 C 0.69075 0.51980 0.38353
 C667 C 0.66375 0.51126 0.38366
 O668 O 0.62598 0.50771 0.32668
 C669 C 0.62279 0.51496 0.27036
 C670 C 0.64501 0.52631 0.23977
 C671 C 0.64574 0.53550 0.18064
 C672 C 0.62373 0.53317 0.15211
 C673 C 0.59963 0.52148 0.17974
 C674 C 0.59992 0.51218 0.24149
 H675 H 0.69882 0.54306 0.23530
 H676 H 0.72177 0.53812 0.32156
 H677 H 0.65289 0.50207 0.42345
 H678 H 0.66314 0.54454 0.15629
 H679 H 0.62567 0.54066 0.10684
 H680 H 0.58277 0.50308 0.26686
 C681 C 0.86425 0.34889 0.33399
 C682 C 0.86307 0.33633 0.28188
 C683 C 0.84551 0.31058 0.27847
 C684 C 0.82913 0.29731 0.32887
 C685 C 0.82927 0.30863 0.38567
 C686 C 0.84776 0.33563 0.38582
 O687 O 0.88200 0.37339 0.32884
 C688 C 0.89245 0.37659 0.27252
 C689 C 0.88155 0.35436 0.24191
 C690 C 0.89002 0.35364 0.18277
 C691 C 0.90971 0.37565 0.15425
 C692 C 0.92214 0.39974 0.18188
 C693 C 0.91256 0.39946 0.24365
 H694 H 0.84444 0.30057 0.23740
 H695 H 0.81654 0.27763 0.32364
 H696 H 0.84944 0.34649 0.42562
 H697 H 0.88163 0.33624 0.15840
 H698 H 0.91526 0.37371 0.10898
 H699 H 0.92061 0.41660 0.26904
   
