data_POSCAR
  _audit_creation_date              2014-09-24
  _audit_creation_method            'ToBaCCo'
  _symmetry_space_group_name_H-M    'P1'
  _symmetry_Int_Tables_number       1
  _symmetry_cell_setting            triclinic
  loop_
  _symmetry_equiv_pos_as_xyz
 x,y,z
_cell_length_a 40.9484
_cell_length_b 42.1263
_cell_length_c 39.0628
_cell_angle_alpha 91.783300
_cell_angle_beta 90.072500
_cell_angle_gamma 92.639000
loop_
  _atom_site_label
  _atom_site_type_symbol
  _atom_site_fract_x
  _atom_site_fract_y
  _atom_site_fract_z
C1 C 0.19992 0.52369 1.04303
 H2 H 0.19995 0.54286 1.02523
 C3 C 0.17711 0.52256 1.06957
 H4 H 0.15964 0.54102 1.07096
 C5 C 0.22121 0.47527 1.05973
 H6 H 0.23801 0.45655 1.05550
 C7 C 0.19888 0.47313 1.08659
 H8 H 0.20047 0.45329 1.10329
 N9 N 0.22123 0.50017 1.03849
 C10 C 0.29889 0.53903 0.97362
 H11 H 0.29799 0.52099 0.95327
 C12 C 0.32204 0.56430 0.97263
 H13 H 0.33864 0.56569 0.95113
 C14 C 0.27803 0.55895 1.02619
 H15 H 0.26115 0.55645 1.04727
 C16 C 0.30096 0.58463 1.02632
 H17 H 0.30161 0.60159 1.04773
 Zn18 Zn 0.24793 0.50087 0.99904
 N19 N 0.27739 0.53686 1.00000
 C20 C 0.22120 0.52690 0.93961
 N21 N 0.21937 0.50208 0.96107
 C22 C 0.19530 0.47884 0.95770
 C23 C 0.17178 0.48001 0.93191
 C24 C 0.19821 0.52901 0.91349
 C25 C 0.29596 0.46154 1.02142
 C26 C 0.31563 0.43536 1.02135
 C27 C 0.28859 0.41547 0.96948
 C28 C 0.26934 0.44206 0.97059
 N29 N 0.27313 0.46426 0.99651
 H30 H 0.23997 0.54556 0.94315
 H31 H 0.19400 0.45974 0.97561
 H32 H 0.15236 0.46171 0.93016
 H33 H 0.20009 0.54896 0.89667
 H34 H 0.29883 0.47982 1.04141
 H35 H 0.33388 0.43387 1.04124
 H36 H 0.28500 0.39786 0.94888
 H37 H 0.25149 0.44492 0.95067
 C38 C 0.32352 0.58743 0.99937
 C39 C 0.17569 0.49665 1.09176
 C40 C 0.31204 0.41182 0.99518
 C41 C 0.17287 0.50555 0.90961
 C42 C 0.80070 0.52389 -0.03604
 H43 H 0.80140 0.54078 -0.01458
 C44 C 0.82343 0.52709 -0.06236
 H45 H 0.84173 0.54647 -0.06088
 C46 C 0.77671 0.47732 -0.06306
 H47 H 0.75882 0.45767 -0.06291
 C48 C 0.79910 0.47957 -0.08996
 H49 H 0.79780 0.46189 -0.11070
 N50 N 0.77778 0.49950 -0.03697
 C51 C 0.70260 0.53534 0.03085
 H52 H 0.70132 0.51701 0.04966
 C53 C 0.68199 0.56079 0.03357
 H54 H 0.66518 0.56208 0.05489
 C55 C 0.72596 0.55564 -0.01991
 H56 H 0.74254 0.55316 -0.04120
 C57 C 0.70576 0.58146 -0.01822
 H58 H 0.70706 0.59856 -0.03836
 Zn59 Zn 0.74970 0.49696 0.00123
 N60 N 0.72412 0.53327 0.00449
 C61 C 0.77826 0.51733 0.06541
 N62 N 0.77712 0.49460 0.03987
 C63 C 0.79775 0.47023 0.03954
 C64 C 0.82052 0.46780 0.06576
 C65 C 0.80079 0.51588 0.09216
 C66 C 0.69943 0.45893 -0.02946
 C67 C 0.67617 0.43374 -0.03273
 C68 C 0.69678 0.41267 0.01946
 C69 C 0.71978 0.43822 0.02165
 N70 N 0.72068 0.46071 -0.00264
 H71 H 0.76222 0.53695 0.06476
 H72 H 0.79678 0.45291 0.01848
 H73 H 0.83712 0.44852 0.06464
 H74 H 0.80138 0.53410 0.11235
 H75 H 0.70040 0.47735 -0.04817
 H76 H 0.65962 0.43275 -0.05441
 H77 H 0.69586 0.39555 0.03958
 H78 H 0.73628 0.44046 0.04327
 C79 C 0.68323 0.58420 0.00867
 C80 C 0.82282 0.50475 -0.08980
 C81 C 0.67436 0.41033 -0.00785
 C82 C 0.82237 0.49090 0.09247
 C83 C -0.03255 0.28574 0.47848
 H84 H -0.05121 0.28705 0.49800
 C85 C -0.03325 0.30558 0.45061
 H86 H -0.05243 0.32234 0.45002
 C87 C 0.01633 0.26388 0.45850
 H88 H 0.03594 0.24800 0.46196
 C89 C 0.01672 0.28338 0.43023
 H90 H 0.03617 0.28071 0.41183
 N91 N -0.00806 0.26545 0.48193
 C92 C -0.04981 0.19756 0.55369
 H93 H -0.03240 0.20027 0.57454
 C94 C -0.07621 0.17548 0.55561
 H95 H -0.07918 0.16159 0.57835
 C96 C -0.06661 0.21208 0.49849
 H97 H -0.06229 0.22570 0.47584
 C98 C -0.09321 0.19018 0.49925
 H99 H -0.10896 0.18722 0.47699
 Zn100 Zn -0.00759 0.24247 0.52268
 N101 N -0.04550 0.21528 0.52542
 C102 C -0.02968 0.27608 0.58249
 N103 N -0.00564 0.27338 0.55870
 C104 C 0.01991 0.29506 0.55748
 C105 C 0.02193 0.32093 0.58055
 C106 C -0.02869 0.30179 0.60607
 C107 C 0.03150 0.19410 0.49867
 C108 C 0.05873 0.17541 0.49690
 C109 C 0.08055 0.20359 0.54731
 C110 C 0.05290 0.22182 0.54806
 N111 N 0.02937 0.21717 0.52356
 H112 H -0.05023 0.25906 0.58242
 H113 H 0.03838 0.29257 0.53793
 H114 H 0.04244 0.33797 0.57898
 H115 H -0.04858 0.30426 0.62406
 H116 H 0.01215 0.19056 0.47986
 H117 H 0.05997 0.15718 0.47685
 H118 H 0.09937 0.20805 0.56659
 H119 H 0.05043 0.23975 0.56813
 C120 C -0.09812 0.17124 0.52793
 C121 C -0.00811 0.30513 0.42587
 C122 C 0.08388 0.18025 0.52125
 C123 C -0.00291 0.32492 0.60483
 C124 C 0.98445 0.71058 0.51739
 H125 H 0.96690 0.70713 0.49673
 C126 C 0.98278 0.69078 0.54532
 H127 H 0.96396 0.67188 0.54584
 C128 C 1.03118 0.73866 0.54086
 H129 H 1.05032 0.75698 0.53873
 C130 C 1.03046 0.71931 0.56927
 H131 H 1.04880 0.72334 0.58911
 N132 N 1.00820 0.73410 0.51578
 C133 C 0.96618 0.79986 0.44603
 H134 H 0.98427 0.80039 0.42588
 C135 C 0.93921 0.81889 0.44433
 H136 H 0.93649 0.83373 0.42247
 C137 C 0.94818 0.78025 0.49933
 H138 H 0.95222 0.76593 0.52124
 C139 C 0.92093 0.79892 0.49870
 H140 H 0.90434 0.79867 0.52025
 Zn141 Zn 1.00888 0.75840 0.47597
 N142 N 0.97016 0.78106 0.47325
 C143 C 0.98780 0.72411 0.41536
 N144 N 1.01231 0.72917 0.43871
 C145 C 1.03858 0.71061 0.43875
 C146 C 1.04068 0.68535 0.41508
 C147 C 0.98881 0.69891 0.39130
 C148 C 1.04382 0.81123 0.50295
 C149 C 1.06875 0.83479 0.50595
 C150 C 1.09466 0.81158 0.45621
 C151 C 1.06913 0.78836 0.45415
 N152 N 1.04451 0.78853 0.47752
 H153 H 0.96670 0.73858 0.41639
 H154 H 1.05741 0.71482 0.45803
 H155 H 1.06165 0.67064 0.41585
 H156 H 0.96837 0.69433 0.37397
 H157 H 1.02378 0.81092 0.52099
 H158 H 1.06788 0.85241 0.52667
 H159 H 1.11382 0.81145 0.43714
 H160 H 1.06885 0.77054 0.43366
 C161 C 0.91632 0.81884 0.47111
 C162 C 1.00601 0.69500 0.57171
 C163 C 1.09455 0.83528 0.48229
 C164 C 1.01517 0.67870 0.39149
 C165 C 0.46078 -0.01305 0.29558
 H166 H 0.47878 -0.03105 0.29598
 C167 C 0.43569 -0.01316 0.31975
 H168 H 0.43464 -0.03132 0.33879
 C169 C 0.44152 0.03346 0.27133
 H170 H 0.44424 0.05195 0.25287
 C171 C 0.41605 0.03427 0.29505
 H172 H 0.39898 0.05309 0.29406
 N173 N 0.46324 0.01001 0.27200
 C174 C 0.52269 -0.02825 0.18936
 H175 H 0.54106 -0.00905 0.18783
 C176 C 0.52372 -0.05448 0.16676
 H177 H 0.54269 -0.05412 0.14756
 C178 C 0.47477 -0.04974 0.21520
 H179 H 0.45565 -0.04774 0.23407
 C180 C 0.47475 -0.07646 0.19305
 H181 H 0.45593 -0.09489 0.19659
 Zn182 Zn 0.49998 0.01021 0.24260
 N183 N 0.49879 -0.02653 0.21328
 C184 C 0.55813 -0.01340 0.26947
 N185 N 0.53747 0.01097 0.27120
 C186 C 0.54129 0.03466 0.29554
 C187 C 0.56651 0.03425 0.31966
 C188 C 0.58363 -0.01474 0.29303
 C189 C 0.47600 0.04641 0.19066
 C190 C 0.47523 0.07098 0.16758
 C191 C 0.52495 0.09405 0.19310
 C192 C 0.52480 0.06893 0.21571
 N193 N 0.50044 0.04585 0.21418
 H194 H 0.55437 -0.03239 0.25049
 H195 H 0.52410 0.05341 0.29680
 H196 H 0.56857 0.05282 0.33944
 H197 H 0.59969 -0.03444 0.29129
 H198 H 0.45713 0.02756 0.18977
 H199 H 0.45532 0.07111 0.14932
 H200 H 0.54476 0.11198 0.19434
 H201 H 0.54439 0.06769 0.23410
 C202 C 0.49968 -0.07958 0.16830
 C203 C 0.41304 0.01089 0.31989
 C204 C 0.50000 0.09518 0.16847
 C205 C 0.58779 0.00902 0.31891
 C206 C 0.54201 -0.03648 0.70564
 H207 H 0.52251 -0.05471 0.70472
 C208 C 0.56767 -0.03780 0.68229
 H209 H 0.56763 -0.05712 0.66335
 C210 C 0.56459 0.01169 0.73045
 H211 H 0.56294 0.03124 0.74884
 C212 C 0.59073 0.01136 0.70743
 H213 H 0.60938 0.03044 0.70880
 N214 N 0.54095 -0.01210 0.72918
 C215 C 0.47560 -0.05065 0.80769
 H216 H 0.45674 -0.03347 0.80804
 C217 C 0.47397 -0.07574 0.83033
 H218 H 0.45347 -0.07797 0.84770
 C219 C 0.52540 -0.06828 0.78484
 H220 H 0.54586 -0.06490 0.76773
 C221 C 0.52472 -0.09371 0.80696
 H222 H 0.54477 -0.10960 0.80651
 Zn223 Zn 0.50318 -0.01160 0.75712
 N224 N 0.50098 -0.04744 0.78545
 C225 C 0.44205 -0.03413 0.72669
 N226 N 0.46717 -0.01183 0.72662
 C227 C 0.46837 0.01160 0.70346
 C228 C 0.44320 0.01395 0.67978
 C229 C 0.41626 -0.03271 0.70328
 C230 C 0.52741 0.03059 0.80989
 C231 C 0.52717 0.05698 0.83255
 C232 C 0.47717 0.07218 0.80604
 C233 C 0.47838 0.04562 0.78394
 N234 N 0.50331 0.02551 0.78606
 H235 H 0.44187 -0.05294 0.74488
 H236 H 0.48894 0.02866 0.70360
 H237 H 0.44475 0.03279 0.66154
 H238 H 0.39611 -0.05024 0.70403
 H239 H 0.54663 0.01392 0.81150
 H240 H 0.54629 0.06038 0.85166
 H241 H 0.45722 0.08797 0.80365
 H242 H 0.45901 0.04090 0.76546
 C243 C 0.49883 -0.09766 0.83024
 C244 C 0.59243 -0.01359 0.68284
 C245 C 0.50166 0.07809 0.83092
 C246 C 0.41651 -0.00820 0.67964
 C247 C 0.22973 0.04855 0.50739
 C248 C 0.25169 0.04346 0.53834
 C249 C 0.26948 0.01692 0.53496
 C250 C 0.26370 -0.00217 0.50106
 C251 C 0.25277 0.04895 0.47650
 C252 C 0.27055 0.02239 0.47326
 C253 C 0.20882 0.01774 0.50287
 C254 C 0.22646 -0.00872 0.49955
 H255 H 0.25407 0.06003 0.56018
 H256 H 0.27807 -0.02385 0.49836
 H257 H 0.25536 0.06868 0.45929
 H258 H 0.18224 0.01689 0.50247
 C259 C 0.77439 -0.04493 0.49156
 C260 C 0.75216 -0.04703 0.52308
 C261 C 0.73360 -0.02114 0.52787
 C262 C 0.73889 0.00443 0.50087
 C263 C 0.75143 -0.03954 0.46154
 C264 C 0.73283 -0.01374 0.46645
 C265 C 0.79444 -0.01363 0.49671
 C266 C 0.77597 0.01212 0.50163
 H267 H 0.75088 -0.06723 0.53973
 H268 H 0.72384 0.02553 0.50476
 H269 H 0.74904 -0.05545 0.43915
 H270 H 0.82102 -0.01207 0.49736
 C271 C 0.45490 0.27626 0.99485
 C272 C 0.45763 0.25228 0.96472
 C273 C 0.48553 0.23573 0.96547
 C274 C 0.50820 0.24474 0.99606
 C275 C 0.45819 0.25660 1.02698
 C276 C 0.48608 0.24003 1.02751
 C277 C 0.48619 0.29735 0.99370
 C278 C 0.51401 0.28099 0.99432
 H279 H 0.43833 0.24732 0.94593
 H280 H 0.53104 0.23148 0.99658
 H281 H 0.43910 0.25405 1.04613
 H282 H 0.48636 0.32310 0.99238
 C283 C 0.54152 0.72158 0.00592
 C284 C 0.53929 0.74178 -0.02596
 C285 C 0.51186 0.75906 -0.02665
 C286 C 0.48913 0.75446 0.00436
 C287 C 0.53893 0.74518 0.03636
 C288 C 0.51154 0.76245 0.03543
 C289 C 0.50969 0.70124 0.00621
 C290 C 0.48235 0.71828 0.00539
 H291 H 0.55853 0.74379 -0.04500
 H292 H 0.46670 0.76832 0.00374
 H293 H 0.55808 0.74947 0.05545
 H294 H 0.50883 0.67540 0.00644
 C295 C 0.99864 0.44752 0.28233
 C296 C 0.96852 0.44906 0.25927
 C297 C 0.96947 0.47486 0.23903
 C298 C 1.00034 0.49681 0.24355
 C299 C 1.02792 0.44880 0.25794
 C300 C 1.02874 0.47464 0.23771
 C301 C 1.00072 0.47933 0.30245
 C302 C 1.00163 0.50506 0.28212
 H303 H 0.94859 0.43110 0.25851
 H304 H 1.00103 0.51784 0.22703
 H305 H 1.04621 0.43091 0.25669
 H306 H 1.00190 0.48135 0.33023
 C307 C -0.00042 0.55414 0.71812
 C308 C -0.03053 0.55239 0.74135
 C309 C -0.03186 0.52632 0.76123
 C310 C -0.00314 0.50440 0.75622
 C311 C 0.02892 0.55256 0.74230
 C312 C 0.02740 0.52649 0.76219
 C313 C -0.00156 0.52256 0.69760
 C314 C -0.00299 0.49661 0.71756
 H315 H -0.04872 0.57037 0.74248
 H316 H -0.00432 0.48316 0.77243
 H317 H 0.04874 0.57061 0.74396
 H318 H -0.00095 0.52086 0.66979
 C319 C 0.16635 0.12089 0.51573
 C320 C 0.15380 0.13328 0.48589
 C321 C 0.12742 0.15315 0.48776
 C322 C 0.11317 0.16079 0.51955
 C323 C 0.12653 0.14891 0.54951
 C324 C 0.15290 0.12899 0.54757
 C325 C 0.19068 0.09739 0.51328
 C326 C 0.20943 0.07622 0.51082
 H327 H 0.16387 0.12697 0.46110
 H328 H 0.11798 0.16232 0.46431
 H329 H 0.11588 0.15410 0.57430
 H330 H 0.16218 0.11919 0.57078
 C331 C 0.61538 0.65923 0.00950
 C332 C 0.64797 0.66563 0.00023
 C333 C 0.67025 0.64138 0.00041
 C334 C 0.66015 0.61045 0.00983
 C335 C 0.62740 0.60445 0.01942
 C336 C 0.60524 0.62866 0.01924
 C337 C 0.59165 0.68333 0.00806
 C338 C 0.57004 0.70178 0.00697
 H339 H 0.65607 0.68921 -0.00738
 H340 H 0.69537 0.64684 -0.00676
 H341 H 0.61866 0.58084 0.02622
 H342 H 0.58002 0.62339 0.02624
 C343 C 0.83878 -0.11583 0.47683
 C344 C 0.86920 -0.10634 0.46335
 C345 C 0.89410 -0.12782 0.46065
 C346 C 0.88894 -0.15920 0.47146
 C347 C 0.85800 -0.16875 0.48427
 C348 C 0.83309 -0.14716 0.48698
 C349 C 0.81435 -0.09268 0.48182
 C350 C 0.79535 -0.07193 0.48621
 H351 H 0.87392 -0.08207 0.45564
 H352 H 0.91773 -0.11953 0.45123
 H353 H 0.85316 -0.19284 0.49244
 H354 H 0.80964 -0.15474 0.49749
 C355 C 0.37750 0.33483 0.99362
 C356 C 0.36877 0.34867 0.96300
 C357 C 0.34677 0.37311 0.96333
 C358 C 0.33334 0.38417 0.99438
 C359 C 0.34157 0.36947 1.02489
 C360 C 0.36354 0.34502 1.02449
 C361 C 0.40298 0.31239 0.99380
 C362 C 0.42563 0.29509 0.99419
 H363 H 0.37971 0.34121 0.93899
 H364 H 0.34123 0.38416 0.93947
 H365 H 0.33129 0.37713 1.04913
 H366 H 0.37025 0.33461 1.04838
 C367 C 0.82864 0.09484 0.52146
 C368 C 0.82183 0.12458 0.50891
 C369 C 0.84513 0.14990 0.51211
 C370 C 0.87562 0.14565 0.52772
 C371 C 0.88170 0.11589 0.54114
 C372 C 0.85838 0.09074 0.53803
 C373 C 0.80692 0.06753 0.51483
 C374 C 0.79122 0.04307 0.50890
 H375 H 0.79894 0.12798 0.49589
 H376 H 0.83953 0.17262 0.50189
 H377 H 0.90504 0.11156 0.55274
 H378 H 0.86405 0.06771 0.54751
 C379 C 0.39937 0.66168 0.00102
 C380 C 0.40586 0.63091 -0.01071
 C381 C 0.38118 0.60697 -0.01134
 C382 C 0.34941 0.61339 -0.00030
 C383 C 0.34297 0.64447 0.01137
 C384 C 0.36786 0.66850 0.01204
 C385 C 0.42601 0.68520 0.00291
 C386 C 0.45057 0.70212 0.00417
 H387 H 0.43024 0.62527 -0.01895
 H388 H 0.38720 0.58324 -0.01979
 H389 H 0.31870 0.65022 0.01977
 H390 H 0.36261 0.69221 0.02134
 C391 C 0.16895 -0.08947 0.48951
 C392 C 0.17771 -0.12053 0.48135
 C393 C 0.15354 -0.14517 0.47872
 C394 C 0.12045 -0.13890 0.48436
 C395 C 0.11204 -0.10754 0.49223
 C396 C 0.13609 -0.08310 0.49481
 C397 C 0.19288 -0.06347 0.49243
 C398 C 0.21007 -0.03955 0.49545
 H399 H 0.20309 -0.12570 0.47715
 H400 H 0.16074 -0.16914 0.47283
 H401 H 0.08676 -0.10183 0.49607
 H402 H 0.12902 -0.05910 0.50090
 C403 C 0.59713 0.33744 0.99041
 C404 C 0.59117 0.36814 0.98007
 C405 C 0.61636 0.39159 0.98020
 C406 C 0.64809 0.38472 0.99063
 C407 C 0.65403 0.35363 1.00060
 C408 C 0.62865 0.33013 1.00052
 C409 C 0.57008 0.31445 0.99194
 C410 C 0.54552 0.29761 0.99311
 H411 H 0.56680 0.37415 0.97249
 H412 H 0.61074 0.41535 0.97302
 H413 H 0.67824 0.34750 1.00846
 H414 H 0.63352 0.30646 1.00867
 C415 C 0.49735 0.17044 1.09661
 C416 C 0.50681 0.17730 1.13060
 C417 C 0.50813 0.15282 1.15394
 C418 C 0.49984 0.12117 1.14358
 C419 C 0.49081 0.11452 1.10923
 C420 C 0.48957 0.13898 1.08597
 C421 C 0.49449 0.19559 1.07277
 C422 C 0.49117 0.21613 1.05237
 H423 H 0.51275 0.20159 1.13916
 H424 H 0.51487 0.15874 1.18026
 H425 H 0.48480 0.09037 1.10030
 H426 H 0.48226 0.13337 1.05973
 C427 C 0.00349 0.62860 0.65285
 C428 C 0.03347 0.63908 0.63910
 C429 C 0.03441 0.66137 0.61332
 C430 C 0.00530 0.67332 0.60090
 C431 C -0.02465 0.66322 0.61553
 C432 C -0.02552 0.64097 0.64131
 C433 C 0.00227 0.60355 0.67699
 C434 C 0.00111 0.58170 0.69616
 H435 H 0.05604 0.62944 0.64769
 H436 H 0.05778 0.66839 0.60228
 H437 H -0.04741 0.67232 0.60678
 H438 H -0.04886 0.63293 0.65175
 C439 C 0.50089 0.82728 -0.09752
 C440 C 0.51001 0.82161 -0.13161
 C441 C 0.50878 0.84581 -0.15524
 C442 C 0.49845 0.87610 -0.14510
 C443 C 0.48882 0.88139 -0.11089
 C444 C 0.49009 0.85715 -0.08729
 C445 C 0.50390 0.80288 -0.07278
 C446 C 0.50714 0.78273 -0.05190
 H447 H 0.51841 0.79859 -0.13984
 H448 H 0.51596 0.84083 -0.18146
 H449 H 0.48117 0.90452 -0.10213
 H450 H 0.48315 0.86188 -0.06093
 C451 C 0.99506 0.37280 0.34735
 C452 C 0.96517 0.36307 0.36165
 C453 C 0.96394 0.34025 0.38685
 C454 C 0.99276 0.32665 0.39850
 C455 C 1.02264 0.33615 0.38278
 C456 C 1.02369 0.35905 0.35764
 C457 C 0.99650 0.39816 0.32357
 C458 C 0.99757 0.42010 0.30450
 H459 H 0.94277 0.37343 0.35362
 H460 H 0.94010 0.33301 0.39649
 H461 H 1.04573 0.32756 0.39105
 H462 H 1.04704 0.36665 0.34688
 C463 C 0.50300 0.83908 0.10097
 C464 C 0.47337 0.84738 0.11562
 C465 C 0.47214 0.87403 0.13783
 C466 C 0.50067 0.89316 0.14583
 C467 C 0.53040 0.88412 0.13070
 C468 C 0.53145 0.85748 0.10862
 C469 C 0.50458 0.81176 0.07804
 C470 C 0.50708 0.78913 0.05870
 H471 H 0.45110 0.83340 0.10968
 H472 H 0.44840 0.88005 0.14743
 H473 H 0.55340 0.89666 0.13672
 H474 H 0.55463 0.85108 0.09767
 C475 C -0.00306 0.41018 0.66806
 C476 C 0.00640 0.41142 0.63375
 C477 C 0.00650 0.38368 0.61338
 C478 C -0.00280 0.35413 0.62706
 C479 C -0.01238 0.35302 0.66162
 C480 C -0.01246 0.38096 0.68204
 C481 C -0.00349 0.43933 0.68811
 C482 C -0.00344 0.46491 0.70274
 H483 H 0.01348 0.43395 0.62261
 H484 H 0.01333 0.38546 0.58672
 H485 H -0.01949 0.33059 0.67287
 H486 H -0.01989 0.37978 0.70860
 C487 C 0.49619 0.15894 0.90054
 C488 C 0.52646 0.15061 0.88718
 C489 C 0.52840 0.12416 0.86475
 C490 C 0.50003 0.10577 0.85534
 C491 C 0.46982 0.11423 0.86920
 C492 C 0.46795 0.14060 0.89158
 C493 C 0.49374 0.18629 0.92332
 C494 C 0.49057 0.20898 0.94244
 H495 H 0.54849 0.16464 0.89391
 H496 H 0.55196 0.11843 0.85429
 H497 H 0.44761 0.10029 0.86297
 H498 H 0.44442 0.14671 0.90189
 C499 C 1.01091 0.59254 0.32946
 C500 C 1.00073 0.62077 0.31574
 C501 C 1.00267 0.64908 0.33556
 C502 C 1.01481 0.64938 0.36933
 C503 C 1.02530 0.62089 0.38259
 C504 C 1.02338 0.59275 0.36279
 C505 C 1.00747 0.56282 0.31040
 C506 C 1.00471 0.53694 0.29642
 H507 H 0.99097 0.62083 0.28995
 H508 H 0.99463 0.67067 0.32456
 H509 H 1.03410 0.62009 0.40869
 H510 H 1.03108 0.57098 0.37375
 C511 C 1.10122 0.48754 0.16720
 C512 C 1.11648 0.46071 0.15446
 C513 C 1.14116 0.46370 0.12999
 C514 C 1.15125 0.49379 0.11752
 C515 C 1.13559 0.52071 0.13105
 C516 C 1.11090 0.51754 0.15560
 C517 C 1.07552 0.48399 0.19204
 C518 C 1.05409 0.48016 0.21281
 H519 H 1.10898 0.43730 0.16312
 H520 H 1.15097 0.44195 0.11993
 H521 H 1.14286 0.54454 0.12375
 H522 H 1.09941 0.53856 0.16558
 C523 C 0.66725 -0.01576 0.60569
 C524 C 0.65697 -0.04368 0.62179
 C525 C 0.63312 -0.04287 0.64734
 C526 C 0.61917 -0.01407 0.65715
 C527 C 0.63009 0.01399 0.64124
 C528 C 0.65394 0.01312 0.61564
 C529 C 0.69086 -0.01702 0.57843
 C530 C 0.71040 -0.01863 0.55544
 H531 H 0.66717 -0.06615 0.61438
 H532 H 0.62556 -0.06480 0.65940
 H533 H 0.61955 0.03646 0.64791
 H534 H 0.66166 0.03487 0.60329
 C535 C -0.10431 0.51363 0.83171
 C536 C -0.11347 0.48361 0.84385
 C537 C -0.13760 0.48057 0.86899
 C538 C -0.15275 0.50759 0.88234
 C539 C -0.14366 0.53757 0.86958
 C540 C -0.11960 0.54054 0.84445
 C541 C -0.07882 0.51713 0.80667
 C542 C -0.05740 0.52089 0.78590
 H543 H -0.10171 0.46264 0.83418
 H544 H -0.14383 0.45724 0.87860
 H545 H -0.15520 0.55873 0.87901
 H546 H -0.11275 0.56387 0.83512
 C547 C 0.33931 0.01493 0.39811
 C548 C 0.34696 -0.01438 0.38305
 C549 C 0.37077 -0.01575 0.35744
 C550 C 0.38720 0.01223 0.34652
 C551 C 0.37920 0.04157 0.36176
 C552 C 0.35544 0.04287 0.38735
 C553 C 0.31501 0.01657 0.42463
 C554 C 0.29473 0.01875 0.44683
 H555 H 0.33456 -0.03615 0.39111
 H556 H 0.37612 -0.03865 0.34596
 H557 H 0.39174 0.06347 0.35436
 H558 H 0.34977 0.06568 0.39889
 C559 C 0.09774 0.51415 0.83400
 C560 C 0.11013 0.48439 0.83990
 C561 C 0.13463 0.48149 0.86445
 C562 C 0.14707 0.50840 0.88331
 C563 C 0.13437 0.53818 0.87717
 C564 C 0.10990 0.54100 0.85268
 C565 C 0.07273 0.51746 0.80866
 C566 C 0.05195 0.52112 0.78749
 H567 H 0.10093 0.46347 0.82548
 H568 H 0.14413 0.45832 0.86839
 H569 H 0.14302 0.55924 0.89166
 H570 H 0.10041 0.56414 0.84836
 C571 C 0.66138 0.00129 0.39658
 C572 C 0.65563 0.03099 0.38321
 C573 C 0.63163 0.03366 0.35799
 C574 C 0.61323 0.00659 0.34576
 C575 C 0.61911 -0.02307 0.35959
 C576 C 0.64300 -0.02566 0.38475
 C577 C 0.68655 -0.00212 0.42181
 C578 C 0.70763 -0.00655 0.44249
 H579 H 0.66981 0.05200 0.39208
 H580 H 0.62783 0.05677 0.34768
 H581 H 0.60498 -0.04426 0.35122
 H582 H 0.64720 -0.04876 0.39494
 C583 C 0.89676 0.48539 0.16940
 C584 C 0.87896 0.45792 0.15805
 C585 C 0.85440 0.45979 0.13346
 C586 C 0.84731 0.48923 0.11986
 C587 C 0.86499 0.51682 0.13180
 C588 C 0.88962 0.51488 0.15641
 C589 C 0.92261 0.48296 0.19398
 C590 C 0.94413 0.47987 0.21449
 H591 H 0.88422 0.43499 0.16804
 H592 H 0.84092 0.43821 0.12510
 H593 H 0.86035 0.53976 0.12151
 H594 H 0.90331 0.53628 0.16500
 C595 C 0.33927 0.00103 0.60641
 C596 C 0.35001 -0.02914 0.61360
 C597 C 0.37480 -0.03234 0.63784
 C598 C 0.38920 -0.00534 0.65502
 C599 C 0.37784 0.02478 0.64791
 C600 C 0.35310 0.02791 0.62379
 C601 C 0.31442 0.00492 0.58095
 C602 C 0.29384 0.00963 0.55983
 H603 H 0.33948 -0.05011 0.60027
 H604 H 0.38322 -0.05581 0.64256
 H605 H 0.38804 0.04597 0.66109
 H606 H 0.34488 0.05136 0.61856
   
