data_POSCAR
  _audit_creation_date              2014-09-24
  _audit_creation_method            'ToBaCCo'
  _symmetry_space_group_name_H-M    'P1'
  _symmetry_Int_Tables_number       1
  _symmetry_cell_setting            triclinic
  loop_
  _symmetry_equiv_pos_as_xyz
 x,y,z
_cell_length_a 31.8955
_cell_length_b 27.9817
_cell_length_c 27.9697
_cell_angle_alpha 89.962100
_cell_angle_beta 89.982900
_cell_angle_gamma 89.988500
loop_
  _atom_site_label
  _atom_site_type_symbol
  _atom_site_fract_x
  _atom_site_fract_y
  _atom_site_fract_z
C1 C 0.31373 0.31420 0.22568
 H2 H 0.31523 0.31909 0.26401
 C3 C 0.34165 0.33856 0.19597
 H4 H 0.36479 0.36205 0.21177
 C5 C 0.28272 0.27600 0.15887
 H6 H 0.26008 0.25109 0.14462
 C7 C 0.31012 0.29955 0.12784
 H8 H 0.30775 0.29316 0.08976
 N9 N 0.28487 0.28387 0.20679
 C10 C 0.18571 0.27393 0.31368
 H11 H 0.18470 0.23564 0.31902
 C12 C 0.15756 0.30343 0.33796
 H13 H 0.13476 0.28753 0.36184
 C14 C 0.21573 0.34082 0.27456
 H15 H 0.23802 0.35522 0.24931
 C16 C 0.18807 0.37163 0.29797
 H17 H 0.18997 0.40966 0.29114
 Zn18 Zn 0.25001 0.25027 0.24992
 N19 N 0.21428 0.29297 0.28303
 C20 C 0.28354 0.22537 0.34098
 N21 N 0.28573 0.21764 0.29303
 C22 C 0.31513 0.18800 0.27403
 C23 C 0.34320 0.16379 0.30367
 C24 C 0.31115 0.20203 0.37194
 C25 C 0.18491 0.22546 0.18812
 C26 C 0.15745 0.19553 0.16340
 C27 C 0.19309 0.12739 0.19748
 C28 C 0.21962 0.15865 0.22191
 N29 N 0.21536 0.20671 0.21649
 H30 H 0.26067 0.24992 0.35535
 H31 H 0.31680 0.18336 0.23568
 H32 H 0.36657 0.14062 0.28783
 H33 H 0.30866 0.20819 0.41005
 H34 H 0.18179 0.26384 0.18507
 H35 H 0.13294 0.21134 0.14179
 H36 H 0.19759 0.08927 0.20163
 H37 H 0.24347 0.14435 0.24526
 C38 C 0.15849 0.35301 0.33018
 C39 C 0.34014 0.33128 0.14633
 C40 C 0.16135 0.14568 0.16779
 C41 C 0.34141 0.17066 0.35335
 C42 C 0.81276 0.81592 0.22356
 H43 H 0.81390 0.82189 0.26175
 C44 C 0.83979 0.84099 0.19336
 H45 H 0.86207 0.86507 0.20970
 C46 C 0.78386 0.77426 0.15784
 H47 H 0.76222 0.74795 0.14414
 C48 C 0.81058 0.79814 0.12629
 H49 H 0.80734 0.79058 0.08858
 N50 N 0.78513 0.78381 0.20543
 C51 C 0.68660 0.77471 0.31324
 H52 H 0.68579 0.73645 0.31880
 C53 C 0.65851 0.80418 0.33764
 H54 H 0.63594 0.78824 0.36178
 C55 C 0.71598 0.84153 0.27340
 H56 H 0.73790 0.85592 0.24774
 C57 C 0.68843 0.87232 0.29700
 H58 H 0.69014 0.91032 0.28995
 Zn59 Zn 0.75032 0.75070 0.24913
 N60 N 0.71485 0.79373 0.28218
 C61 C 0.78443 0.72664 0.34010
 N62 N 0.78595 0.71800 0.29228
 C63 C 0.81445 0.68716 0.27344
 C64 C 0.84238 0.66277 0.30313
 C65 C 0.81186 0.70309 0.37111
 C66 C 0.68639 0.72604 0.18584
 C67 C 0.65844 0.69632 0.16160
 C68 C 0.68951 0.62836 0.20145
 C69 C 0.71693 0.65941 0.22490
 N70 N 0.71511 0.70724 0.21644
 H71 H 0.76223 0.75206 0.35433
 H72 H 0.81551 0.68167 0.23517
 H73 H 0.86510 0.63872 0.28737
 H74 H 0.80987 0.71000 0.40912
 H75 H 0.68511 0.76431 0.18050
 H76 H 0.63549 0.71207 0.13782
 H77 H 0.69173 0.59034 0.20821
 H78 H 0.73933 0.64522 0.25013
 C79 C 0.65918 0.85372 0.32963
 C80 C 0.83926 0.83252 0.14356
 C81 C 0.65977 0.64674 0.16929
 C82 C 0.84131 0.67061 0.35270
 C83 C 0.81463 0.31215 0.72665
 H84 H 0.81564 0.31766 0.76491
 C85 C 0.84256 0.33656 0.69697
 H86 H 0.86523 0.36065 0.71274
 C87 C 0.78472 0.27262 0.65998
 H88 H 0.76256 0.24718 0.64574
 C89 C 0.81216 0.29619 0.62898
 H90 H 0.81021 0.28928 0.59096
 N91 N 0.78618 0.28128 0.70780
 C92 C 0.68700 0.27372 0.81475
 H93 H 0.68584 0.23548 0.82033
 C94 C 0.65908 0.30351 0.83897
 H95 H 0.63626 0.28783 0.86296
 C96 C 0.71720 0.34019 0.77507
 H97 H 0.73943 0.35428 0.74958
 C98 C 0.68982 0.37132 0.79852
 H99 H 0.69193 0.40930 0.79151
 Zn100 Zn 0.75052 0.24876 0.75105
 N101 N 0.71550 0.29240 0.78380
 C102 C 0.78513 0.22647 0.84199
 N103 N 0.78533 0.21562 0.79471
 C104 C 0.81196 0.18231 0.77688
 C105 C 0.83884 0.15712 0.80713
 C106 C 0.81193 0.20278 0.87358
 C107 C 0.68681 0.22501 0.68684
 C108 C 0.65859 0.19571 0.66248
 C109 C 0.68776 0.12749 0.70369
 C110 C 0.71543 0.15812 0.72728
 N111 N 0.71478 0.20588 0.71815
 H112 H 0.76424 0.25372 0.85544
 H113 H 0.81243 0.17544 0.73881
 H114 H 0.86034 0.13245 0.79035
 H115 H 0.80886 0.21157 0.91102
 H116 H 0.68634 0.26324 0.68105
 H117 H 0.63627 0.21175 0.63812
 H118 H 0.68914 0.08952 0.71099
 H119 H 0.73703 0.14363 0.75321
 C120 C 0.66023 0.35305 0.83096
 C121 C 0.84154 0.32873 0.64739
 C122 C 0.65883 0.14620 0.67077
 C123 C 0.83963 0.16681 0.85688
 C124 C 0.31516 0.81194 0.72573
 H125 H 0.31688 0.81656 0.76408
 C126 C 0.34320 0.83616 0.69605
 H127 H 0.36660 0.85931 0.71186
 C128 C 0.28347 0.77467 0.65882
 H129 H 0.26056 0.75017 0.64448
 C130 C 0.31106 0.79801 0.62782
 H131 H 0.30853 0.79189 0.58971
 N132 N 0.28572 0.78237 0.70678
 C133 C 0.18501 0.77492 0.81192
 H134 H 0.18180 0.73655 0.81502
 C135 C 0.15767 0.80498 0.83670
 H136 H 0.13316 0.78928 0.85840
 C137 C 0.21982 0.84157 0.77796
 H138 H 0.24366 0.85576 0.75452
 C139 C 0.19342 0.87295 0.80244
 H140 H 0.19801 0.91105 0.79824
 Zn141 Zn 0.24999 0.74984 0.74997
 N142 N 0.21546 0.79353 0.78344
 C143 C 0.28273 0.72404 0.84097
 N144 N 0.28485 0.71618 0.79305
 C145 C 0.31370 0.68582 0.77411
 C146 C 0.34164 0.66144 0.80377
 C147 C 0.31014 0.70046 0.87196
 C148 C 0.18559 0.72622 0.68633
 C149 C 0.15740 0.69673 0.66213
 C150 C 0.18790 0.62853 0.70214
 C151 C 0.21560 0.65933 0.72548
 N152 N 0.21418 0.70717 0.71696
 H153 H 0.26011 0.74896 0.85526
 H154 H 0.31518 0.68094 0.73578
 H155 H 0.36476 0.63795 0.78794
 H156 H 0.30779 0.70685 0.91004
 H157 H 0.18460 0.76450 0.68095
 H158 H 0.13459 0.71263 0.63827
 H159 H 0.18978 0.59051 0.70900
 H160 H 0.23790 0.64493 0.75070
 C161 C 0.16169 0.85480 0.83225
 C162 C 0.34134 0.82935 0.64637
 C163 C 0.15830 0.64715 0.66996
 C164 C 0.34015 0.66872 0.85342
 C165 C -0.00018 0.00031 -0.00015
 C166 C -0.00054 0.49992 0.50016
 C167 C 0.50005 0.00006 0.49996
 C168 C 0.50043 0.49999 -0.00013
 C169 C 0.11869 -0.06998 -0.16397
 C170 C 0.13257 -0.11246 -0.14213
 C171 C 0.11808 -0.12368 -0.09591
 C172 C 0.08972 -0.09345 -0.07228
 C173 C 0.07603 -0.05105 -0.09468
 C174 C 0.09094 -0.03944 -0.14035
 C175 C 0.04752 -0.02100 -0.07120
 C176 C 0.03022 -0.03378 -0.02647
 C177 C 0.04623 -0.07495 -0.00358
 C178 C 0.07511 -0.10470 -0.02644
 H179 H 0.12905 -0.15575 -0.07812
 H180 H 0.08065 -0.00708 -0.15814
 H181 H 0.03856 0.01232 -0.08808
 H182 H 0.08607 -0.13649 -0.00816
 H183 H 0.12869 -0.06067 -0.19976
 H184 H 0.03651 -0.08425 0.03230
 C185 C 0.10906 0.42279 0.33027
 C186 C 0.12837 0.38497 0.35501
 C187 C 0.11857 0.37766 0.40349
 C188 C 0.08969 0.40745 0.42684
 C189 C 0.07018 0.44500 0.40151
 C190 C 0.08027 0.45255 0.35330
 C191 C 0.04108 0.47457 0.42475
 C192 C 0.02977 0.46637 0.47295
 C193 C 0.05154 0.43034 0.49819
 C194 C 0.08048 0.40076 0.47529
 H195 H 0.13379 0.34916 0.42320
 H196 H 0.06565 0.48124 0.33329
 H197 H 0.02789 0.50437 0.40521
 H198 H 0.09586 0.37283 0.49562
 H199 H 0.11571 0.42890 0.29280
 H200 H 0.04586 0.42486 0.53596
 C201 C 0.60987 -0.07636 0.33002
 C202 C 0.62911 -0.11435 0.35459
 C203 C 0.61922 -0.12188 0.40304
 C204 C 0.59031 -0.09220 0.42647
 C205 C 0.57095 -0.05444 0.40130
 C206 C 0.58113 -0.04664 0.35317
 C207 C 0.54187 -0.02493 0.42463
 C208 C 0.53034 -0.03345 0.47271
 C209 C 0.55189 -0.06976 0.49779
 C210 C 0.58089 -0.09922 0.47482
 H211 H 0.63437 -0.15049 0.42265
 H212 H 0.56660 -0.01781 0.33329
 H213 H 0.52884 0.00507 0.40525
 H214 H 0.59614 -0.12733 0.49503
 H215 H 0.61652 -0.07008 0.29258
 H216 H 0.54605 -0.07550 0.53548
 C217 C 0.61145 0.42347 -0.16894
 C218 C 0.63026 0.38527 -0.14428
 C219 C 0.61992 0.37767 -0.09597
 C220 C 0.59091 0.40742 -0.07280
 C221 C 0.57194 0.44536 -0.09807
 C222 C 0.58264 0.45329 -0.14604
 C223 C 0.54274 0.47491 -0.07500
 C224 C 0.53071 0.46626 -0.02710
 C225 C 0.55188 0.42976 -0.00189
 C226 C 0.58099 0.40025 -0.02460
 H227 H 0.63475 0.34890 -0.07627
 H228 H 0.56842 0.48227 -0.16599
 H229 H 0.52996 0.50503 -0.09442
 H230 H 0.59594 0.37199 -0.00431
 H231 H 0.61847 0.42982 -0.20629
 H232 H 0.54569 0.42392 0.03572
 C233 C -0.12190 0.16239 -0.06797
 C234 C -0.13377 0.14289 -0.11280
 C235 C -0.11680 0.09759 -0.12503
 C236 C -0.08899 0.07353 -0.09448
 C237 C -0.07698 0.09452 -0.05088
 C238 C -0.09387 0.13869 -0.03780
 C239 C -0.04837 0.07097 -0.02093
 C240 C -0.03037 0.02683 -0.03435
 C241 C -0.04550 0.00473 -0.07634
 C242 C -0.07362 0.02822 -0.10650
 H243 H -0.12653 0.07915 -0.15714
 H244 H -0.08492 0.15540 -0.00437
 H245 H -0.04005 0.08714 0.01294
 H246 H -0.08358 0.01070 -0.13912
 H247 H -0.13191 0.19745 -0.05656
 H248 H -0.03555 -0.03090 -0.08611
 C249 C -0.10966 0.67010 0.42287
 C250 C -0.12885 0.64556 0.38487
 C251 C -0.11916 0.59707 0.37756
 C252 C -0.09047 0.57355 0.40747
 C253 C -0.07109 0.59870 0.44519
 C254 C -0.08110 0.64689 0.45278
 C255 C -0.04215 0.57532 0.47485
 C256 C -0.03080 0.52717 0.46657
 C257 C -0.05245 0.50209 0.43038
 C258 C -0.08128 0.52512 0.40072
 H259 H -0.13429 0.57749 0.34893
 H260 H -0.06657 0.66676 0.48159
 H261 H -0.02906 0.59473 0.50478
 H262 H -0.09657 0.50492 0.37266
 H263 H -0.11622 0.70757 0.42899
 H264 H -0.04677 0.46435 0.42483
 C265 C 0.39013 0.17004 0.42376
 C266 C 0.37129 0.14567 0.38543
 C267 C 0.38138 0.09736 0.37767
 C268 C 0.41012 0.07384 0.40748
 C269 C 0.42924 0.09882 0.44549
 C270 C 0.41883 0.14684 0.45352
 C271 C 0.45828 0.07542 0.47501
 C272 C 0.46986 0.02741 0.46639
 C273 C 0.44841 0.00246 0.42995
 C274 C 0.41958 0.02554 0.40035
 H275 H 0.36649 0.07795 0.34876
 H276 H 0.43312 0.16657 0.48258
 H277 H 0.47124 0.09468 0.50512
 H278 H 0.40447 0.00547 0.37208
 H279 H 0.38319 0.20736 0.43023
 H280 H 0.45425 -0.03520 0.42415
 C281 C 0.38896 0.66858 -0.07623
 C282 C 0.37025 0.64400 -0.11451
 C283 C 0.38081 0.59583 -0.12233
 C284 C 0.40990 0.57268 -0.09266
 C285 C 0.42881 0.59787 -0.05466
 C286 C 0.41792 0.64573 -0.04655
 C287 C 0.45811 0.57483 -0.02520
 C288 C 0.47021 0.52700 -0.03391
 C289 C 0.44907 0.50185 -0.07044
 C290 C 0.41994 0.52456 -0.09994
 H291 H 0.36606 0.57622 -0.15120
 H292 H 0.43207 0.66562 -0.01750
 H293 H 0.47087 0.59419 0.00495
 H294 H 0.40502 0.50432 -0.12823
 H295 H 0.38173 0.70583 -0.06973
 H296 H 0.45528 0.46427 -0.07632
 C297 C -0.12048 -0.16296 0.06817
 C298 C -0.13312 -0.14270 0.11220
 C299 C -0.11720 -0.09705 0.12416
 C300 C -0.08927 -0.07300 0.09375
 C301 C -0.07651 -0.09441 0.05056
 C302 C -0.09255 -0.13918 0.03793
 C303 C -0.04794 -0.07074 0.02065
 C304 C -0.03045 -0.02628 0.03389
 C305 C -0.04611 -0.00400 0.07554
 C306 C -0.07443 -0.02743 0.10552
 H307 H -0.12750 -0.07896 0.15629
 H308 H -0.08302 -0.15622 0.00487
 H309 H -0.03920 -0.08711 -0.01300
 H310 H -0.08489 -0.00972 0.13784
 H311 H -0.13041 -0.19833 0.05753
 H312 H -0.03645 0.03177 0.08518
 C313 C -0.10938 0.32941 0.57724
 C314 C -0.12866 0.35387 0.61525
 C315 C -0.11906 0.40239 0.62261
 C316 C -0.09038 0.42599 0.59275
 C317 C -0.07091 0.40092 0.55503
 C318 C -0.08082 0.35272 0.54738
 C319 C -0.04198 0.42440 0.52542
 C320 C -0.03074 0.47256 0.53375
 C321 C -0.05249 0.49756 0.56995
 C322 C -0.08130 0.47444 0.59956
 H323 H -0.13427 0.42190 0.65125
 H324 H -0.06622 0.33291 0.51856
 H325 H -0.02881 0.40504 0.49548
 H326 H -0.09666 0.49457 0.62762
 H327 H -0.11586 0.29194 0.57107
 H328 H -0.04689 0.53531 0.57553
 C329 C 0.39005 -0.16996 0.57593
 C330 C 0.37117 -0.14561 0.61426
 C331 C 0.38119 -0.09730 0.62202
 C332 C 0.40993 -0.07374 0.59222
 C333 C 0.42912 -0.09871 0.55424
 C334 C 0.41876 -0.14673 0.54619
 C335 C 0.45820 -0.07529 0.52476
 C336 C 0.46975 -0.02728 0.53343
 C337 C 0.44819 -0.00234 0.56981
 C338 C 0.41933 -0.02543 0.59935
 H339 H 0.36626 -0.07790 0.65093
 H340 H 0.43310 -0.16644 0.51713
 H341 H 0.47123 -0.09455 0.49468
 H342 H 0.40415 -0.00537 0.62760
 H343 H 0.38315 -0.20728 0.56946
 H344 H 0.45399 0.03533 0.57562
 C345 C 0.38895 0.33140 0.07596
 C346 C 0.37021 0.35600 0.11422
 C347 C 0.38071 0.40418 0.12200
 C348 C 0.40979 0.42733 0.09231
 C349 C 0.42876 0.40212 0.05434
 C350 C 0.41792 0.35425 0.04626
 C351 C 0.45808 0.42516 0.02489
 C352 C 0.47013 0.47299 0.03358
 C353 C 0.44892 0.49817 0.07007
 C354 C 0.41978 0.47546 0.09956
 H355 H 0.36593 0.42380 0.15085
 H356 H 0.43210 0.33435 0.01724
 H357 H 0.47090 0.40577 -0.00523
 H358 H 0.40481 0.49571 0.12783
 H359 H 0.38176 0.29414 0.06949
 H360 H 0.45511 0.53574 0.07593
 C361 C 0.11817 0.07063 0.16401
 C362 C 0.13212 0.11309 0.14220
 C363 C 0.11762 0.12440 0.09601
 C364 C 0.08924 0.09425 0.07236
 C365 C 0.07551 0.05184 0.09471
 C366 C 0.09037 0.04017 0.14039
 C367 C 0.04706 0.02180 0.07117
 C368 C 0.02993 0.03454 0.02635
 C369 C 0.04587 0.07581 0.00358
 C370 C 0.07467 0.10556 0.02653
 H371 H 0.12863 0.15646 0.07825
 H372 H 0.08005 0.00781 0.15814
 H373 H 0.03807 -0.01152 0.08802
 H374 H 0.08563 0.13738 0.00831
 H375 H 0.12816 0.06126 0.19979
 H376 H 0.03622 0.08513 -0.03231
 C377 C 0.10889 0.57736 0.66997
 C378 C 0.12816 0.61519 0.64520
 C379 C 0.11833 0.62247 0.59672
 C380 C 0.08948 0.59264 0.57342
 C381 C 0.07003 0.55507 0.59878
 C382 C 0.08013 0.54756 0.64699
 C383 C 0.04098 0.52544 0.57557
 C384 C 0.02966 0.53357 0.52737
 C385 C 0.05136 0.56965 0.50211
 C386 C 0.08024 0.59930 0.52497
 H387 H 0.13352 0.65097 0.57698
 H388 H 0.06556 0.51887 0.66702
 H389 H 0.02784 0.49561 0.59514
 H390 H 0.09558 0.62724 0.50462
 H391 H 0.11556 0.57128 0.70744
 H392 H 0.04568 0.57510 0.46434
 C393 C 0.60922 0.07655 0.67031
 C394 C 0.62868 0.11441 0.64576
 C395 C 0.61900 0.12188 0.59725
 C396 C 0.59011 0.09227 0.57375
 C397 C 0.57058 0.05460 0.59889
 C398 C 0.58053 0.04687 0.64709
 C399 C 0.54158 0.02510 0.57546
 C400 C 0.53025 0.03357 0.52732
 C401 C 0.55192 0.06982 0.50230
 C402 C 0.58088 0.09924 0.52534
 H403 H 0.63431 0.15039 0.57764
 H404 H 0.56586 0.01813 0.66695
 H405 H 0.52845 -0.00486 0.59483
 H406 H 0.59625 0.12729 0.50517
 H407 H 0.61569 0.07033 0.70780
 H408 H 0.54622 0.07554 0.46457
 C409 C 0.61107 0.57630 0.16899
 C410 C 0.62985 0.61458 0.14444
 C411 C 0.61956 0.62230 0.09614
 C412 C 0.59066 0.59254 0.07285
 C413 C 0.57170 0.55452 0.09801
 C414 C 0.58232 0.54650 0.14598
 C415 C 0.54258 0.52499 0.07484
 C416 C 0.53064 0.53369 0.02693
 C417 C 0.55183 0.57024 0.00181
 C418 C 0.58084 0.59977 0.02463
 H419 H 0.63438 0.65115 0.07654
 H420 H 0.56811 0.51745 0.16585
 H421 H 0.52979 0.49482 0.09419
 H422 H 0.59580 0.62808 0.00442
 H423 H 0.61806 0.56987 0.20632
 H424 H 0.54573 0.57612 -0.03581
   
