data_POSCAR
  _audit_creation_date              2014-09-24
  _audit_creation_method            'ToBaCCo'
  _symmetry_space_group_name_H-M    'P1'
  _symmetry_Int_Tables_number       1
  _symmetry_cell_setting            triclinic
  loop_
  _symmetry_equiv_pos_as_xyz
 x,y,z
_cell_length_a 35.0494
_cell_length_b 33.7956
_cell_length_c 14.3092
_cell_angle_alpha 89.688800
_cell_angle_beta 89.783700
_cell_angle_gamma 118.924000
loop_
  _atom_site_label
  _atom_site_type_symbol
  _atom_site_fract_x
  _atom_site_fract_y
  _atom_site_fract_z
C1 C 0.35973 0.47186 0.48716
 C2 C 0.35568 0.46632 0.58229
 C3 C 0.31131 0.44649 0.60292
 N4 N 0.28871 0.44050 0.52307
 C5 C 0.31811 0.45618 0.45280
 C6 C 0.29042 0.43050 0.69075
 C7 C 0.24454 0.40850 0.69389
 C8 C 0.21795 0.36920 0.74312
 C9 C 0.17622 0.36299 0.73667
 C10 C 0.17899 0.39932 0.68557
 N11 N 0.22047 0.42576 0.65615
 C12 C 0.14569 0.41122 0.67480
 C13 C 0.14171 0.42776 0.58566
 C14 C 0.11131 0.44075 0.55800
 C15 C 0.11728 0.44950 0.46359
 C16 C 0.15133 0.44229 0.43640
 N17 N 0.16597 0.42889 0.51059
 C18 C 0.16466 0.44252 0.34304
 C19 C 0.20274 0.44059 0.31791
 C20 C 0.21214 0.43141 0.22890
 C21 C 0.25245 0.43382 0.23313
 C22 C 0.26656 0.44456 0.32445
 N23 N 0.23633 0.44919 0.37541
 C24 C 0.30730 0.45183 0.35759
 H25 H 0.38989 0.48533 0.44763
 H26 H 0.38298 0.47480 0.62766
 H27 H 0.23977 0.46099 0.44357
 H28 H 0.22785 0.34787 0.78090
 H29 H 0.14731 0.33558 0.76814
 H30 H 0.08620 0.44261 0.59828
 H31 H 0.09804 0.45914 0.41950
 H32 H 0.26955 0.42862 0.17541
 H33 H 0.23272 0.45714 0.62257
 H34 H 0.19211 0.42384 0.16719
 C35 C 0.56943 -0.31856 0.54543
 C36 C 0.56769 -0.31608 0.44990
 C37 C 0.56880 -0.27525 0.42821
 N38 N 0.57326 -0.25219 0.50780
 C39 C 0.57348 -0.27853 0.57920
 C40 C 0.56466 -0.25986 0.33788
 C41 C 0.55866 -0.22118 0.32539
 C42 C 0.53285 -0.21762 0.25594
 C43 C 0.53135 -0.17831 0.27099
 C44 C 0.55658 -0.15817 0.34883
 N45 N 0.57339 -0.18448 0.38151
 C46 C 0.56221 -0.11703 0.38778
 C47 C 0.58592 -0.09763 0.46974
 C48 C 0.59488 -0.05565 0.50445
 C49 C 0.60646 -0.05481 0.59606
 C50 C 0.60493 -0.09586 0.61311
 N51 N 0.59384 -0.12119 0.53531
 C52 C 0.60882 -0.11206 0.70090
 C53 C 0.61557 -0.14961 0.70657
 C54 C 0.64084 -0.15586 0.77284
 C55 C 0.63146 -0.20020 0.76636
 C56 C 0.60153 -0.21895 0.69490
 N57 N 0.59254 -0.18787 0.65744
 C58 C 0.57928 -0.26508 0.67344
 H59 H 0.57047 -0.34559 0.58404
 H60 H 0.56610 -0.34194 0.40378
 H61 H 0.56707 -0.19470 0.61152
 H62 H 0.51486 -0.24211 0.20258
 H63 H 0.51300 -0.16647 0.22984
 H64 H 0.59084 -0.02952 0.46913
 H65 H 0.61400 -0.02773 0.64496
 H66 H 0.64416 -0.21722 0.81039
 H67 H 0.59516 -0.17731 0.43626
 H68 H 0.66278 -0.13137 0.82225
 C69 C 1.12789 0.63338 0.40090
 C70 C 1.12773 0.62839 0.49666
 C71 C 1.14611 0.67151 0.53328
 N72 N 1.15699 0.70238 0.46369
 C73 C 1.14623 0.67946 0.38252
 C74 C 1.15567 0.68348 0.62795
 C75 C 1.18204 0.72907 0.65170
 C76 C 1.17896 0.74817 0.73492
 C77 C 1.21643 0.78893 0.74176
 C78 C 1.24148 0.79282 0.66337
 N79 N 1.21951 0.75705 0.60691
 C80 C 1.28576 0.82523 0.65045
 C81 C 1.30022 0.84174 0.55868
 C82 C 1.34209 0.87232 0.52944
 C83 C 1.33958 0.87913 0.43494
 C84 C 1.29642 0.85163 0.40909
 N85 N 1.27277 0.82953 0.48511
 C86 C 1.27754 0.85076 0.32104
 C87 C 1.23452 0.81657 0.29843
 C88 C 1.21039 0.81727 0.22210
 C89 C 1.17483 0.77485 0.21535
 C90 C 1.17844 0.74864 0.28576
 N91 N 1.21414 0.77461 0.33771
 C92 C 1.15290 0.70082 0.29388
 H93 H 1.11710 0.60600 0.35168
 H94 H 1.11692 0.59684 0.53418
 H95 H 1.22732 0.76234 0.38794
 H96 H 1.15349 0.73294 0.78741
 H97 H 1.22545 0.81186 0.80020
 H98 H 1.37138 0.88860 0.57068
 H99 H 1.36655 0.90224 0.39138
 H100 H 1.15003 0.76411 0.16208
 H101 H 1.23249 0.74856 0.54949
 H102 H 1.21803 0.84446 0.17294
 C103 C 0.66971 0.57474 0.44723
 C104 C 0.66444 0.56402 0.54134
 C105 C 0.69166 0.54611 0.56149
 N106 N 0.71301 0.54540 0.48259
 C107 C 0.70019 0.56331 0.41273
 C108 C 0.69793 0.53112 0.65027
 C109 C 0.73040 0.51782 0.65955
 C110 C 0.72834 0.48520 0.72201
 C111 C 0.76872 0.48820 0.72224
 C112 C 0.79375 0.52136 0.65754
 N113 N 0.77004 0.53854 0.61736
 C114 C 0.83840 0.53680 0.64160
 C115 C 0.85504 0.54462 0.54990
 C116 C 0.89763 0.55787 0.52338
 C117 C 0.89867 0.56050 0.42753
 C118 C 0.85697 0.54989 0.39934
 N119 N 0.83036 0.53967 0.47412
 C120 C 0.84400 0.54934 0.30608
 C121 C 0.80479 0.54903 0.28041
 C122 C 0.79041 0.54596 0.18931
 C123 C 0.75389 0.55130 0.19239
 C124 C 0.74650 0.55701 0.28553
 N125 N 0.77771 0.55562 0.33866
 C126 C 0.71393 0.56724 0.31767
 H127 H 0.65278 0.58912 0.40872
 H128 H 0.64343 0.56949 0.58888
 H129 H 0.78270 0.56376 0.40900
 H130 H 0.70092 0.46263 0.76538
 H131 H 0.77879 0.46849 0.76526
 H132 H 0.92515 0.56512 0.56761
 H133 H 0.92716 0.57022 0.38383
 H134 H 0.73535 0.55168 0.13240
 H135 H 0.78228 0.56693 0.57365
 H136 H 0.80540 0.54163 0.12671
 C137 C 0.47313 0.13183 0.45316
 C138 C 0.45396 0.11734 0.53994
 C139 C 0.44111 0.14829 0.56973
 N140 N 0.45139 0.18049 0.50278
 C141 C 0.47137 0.17094 0.43241
 C142 C 0.41831 0.14690 0.65349
 C143 C 0.40830 0.18232 0.66796
 C144 C 0.37021 0.17846 0.70620
 C145 C 0.37840 0.22165 0.72722
 C146 C 0.42084 0.25054 0.69867
 N147 N 0.43828 0.22646 0.66000
 C148 C 0.44418 0.29772 0.71241
 C149 C 0.47714 0.32529 0.64775
 C150 C 0.51012 0.36946 0.66102
 C151 C 0.53095 0.38451 0.57688
 C152 C 0.51136 0.34853 0.51605
 N153 N 0.47856 0.31254 0.55942
 C154 C 0.52012 0.34955 0.42000
 C155 C 0.50583 0.30918 0.36955
 C156 C 0.50514 0.30587 0.27309
 C157 C 0.49490 0.26202 0.25339
 C158 C 0.49001 0.23996 0.33843
 N159 N 0.49610 0.26877 0.40875
 C160 C 0.48726 0.19706 0.34963
 H161 H 0.48671 0.11532 0.41033
 H162 H 0.44944 0.08682 0.57406
 H163 H 0.49992 0.26296 0.47880
 H164 H 0.34005 0.14763 0.71974
 H165 H 0.35583 0.23075 0.75975
 H166 H 0.51929 0.38920 0.72422
 H167 H 0.55765 0.41802 0.56378
 H168 H 0.49318 0.24843 0.18426
 H169 H 0.47089 0.23908 0.64042
 H170 H 0.51283 0.33253 0.22223
 C171 C 0.64870 0.08235 0.39728
 C172 C 0.64155 0.08668 0.49014
 C173 C 0.67468 0.12853 0.51736
 N174 N 0.70153 0.14992 0.44490
 C175 C 0.68552 0.12209 0.37114
 C176 C 0.67529 0.15010 0.60107
 C177 C 0.71194 0.18988 0.63226
 C178 C 0.71070 0.21681 0.70367
 C179 C 0.75242 0.25117 0.71478
 C180 C 0.77849 0.24400 0.65133
 N181 N 0.75344 0.20659 0.60058
 C182 C 0.82425 0.27226 0.64118
 C183 C 0.84497 0.27713 0.55344
 C184 C 0.88951 0.30139 0.53610
 C185 C 0.89511 0.29937 0.44153
 C186 C 0.85397 0.27337 0.40454
 N187 N 0.82337 0.25984 0.47274
 C188 C 0.84488 0.26547 0.30860
 C189 C 0.80341 0.23474 0.27358
 C190 C 0.78932 0.23633 0.18384
 C191 C 0.74876 0.19948 0.17496
 C192 C 0.73917 0.17609 0.25928
 N193 N 0.77264 0.19803 0.31944
 C194 C 0.70028 0.13549 0.27886
 H195 H 0.62806 0.05411 0.35336
 H196 H 0.61418 0.06268 0.53186
 H197 H 0.77628 0.18658 0.38484
 H198 H 0.68264 0.21249 0.74355
 H199 H 0.76213 0.27894 0.76291
 H200 H 0.91546 0.31869 0.58575
 H201 H 0.92592 0.31524 0.40417
 H202 H 0.72844 0.19162 0.11373
 H203 H 0.76458 0.19141 0.55241
 H204 H 0.80625 0.26175 0.13038
 O205 O 0.95465 0.50047 -0.19532
 O206 O 1.04997 0.53974 0.14276
 O207 O 0.91447 0.46721 0.10106
 O208 O 1.08709 0.53013 -0.11668
 O209 O 0.97597 0.52035 0.13443
 O210 O 1.03740 0.54094 -0.18077
 O211 O 1.06538 0.56093 0.00646
 O212 O 0.91890 0.49741 -0.06377
 C213 C 0.92893 0.50997 -0.14783
 C214 C 1.06825 0.57183 0.08800
 C215 C 0.93643 0.50591 0.13059
 C216 C 1.07703 0.55243 -0.17230
 O217 O 1.03675 0.45991 -0.18571
 O218 O 0.95404 0.42911 0.15254
 O219 O 0.90527 0.42208 -0.12815
 O220 O 1.09622 0.50570 0.06815
 O221 O 1.03247 0.45388 0.12710
 O222 O 0.95887 0.42073 -0.19425
 O223 O 1.05056 0.44893 -0.04382
 O224 O 0.91339 0.39601 0.03208
 Co225 Co 0.99653 0.48104 -0.17566
 Co226 Co 1.00130 0.48470 0.12394
 Co227 Co 0.92003 0.44881 -0.01469
 Co228 Co 1.05452 0.50306 -0.01191
 O229 O 0.99100 0.47973 -0.02594
 C230 C 1.05102 0.44141 -0.12890
 C231 C 0.92867 0.39371 0.10919
 C232 C 0.91975 0.40091 -0.17295
 C233 C 1.07414 0.47235 0.12772
 O234 O 0.48324 0.44996 -0.14466
 O235 O 0.46840 0.48885 0.17434
 O236 O 0.51430 0.45752 0.15164
 O237 O 0.41803 0.50660 -0.01948
 O238 O 0.54203 0.51558 0.24559
 O239 O 0.44372 0.49603 -0.15370
 O240 O 0.44772 0.53584 0.13706
 O241 O 0.48446 0.42453 -0.00313
 C242 C 0.47169 0.41755 -0.08629
 C243 C 0.43930 0.49932 0.17475
 C244 C 0.53512 0.47475 0.22642
 C245 C 0.41195 0.48997 -0.10029
 O246 O 0.52420 0.57192 -0.17484
 O247 O 0.57959 0.57170 0.11326
 O248 O 0.55957 0.47651 -0.08165
 O249 O 0.51665 0.60582 0.05161
 O250 O 0.52126 0.57976 0.18516
 O251 O 0.56030 0.52911 -0.16443
 O252 O 0.47605 0.57799 -0.09704
 O253 O 0.58928 0.51678 0.06933
 Co254 Co 0.50296 0.51199 -0.14551
 Co255 Co 0.52397 0.53017 0.13877
 Co256 Co 0.53448 0.47398 0.03144
 Co257 Co 0.46900 0.55399 0.01840
 O258 O 0.50745 0.52008 0.00435
 C259 C 0.50831 0.59549 -0.14885
 C260 C 0.60470 0.55608 0.10094
 C261 C 0.57866 0.50786 -0.13892
 C262 C 0.52826 0.61313 0.13455
 O263 O 0.54270 0.03746 -0.17296
 O264 O 0.47795 -0.02463 0.19954
 O265 O 0.56283 0.07270 0.00399
 O266 O 0.49642 -0.08260 -0.04218
 O267 O 0.53843 0.05036 0.14482
 O268 O 0.51145 -0.04298 -0.17077
 O269 O 0.50386 -0.05489 0.11138
 O270 O 0.53137 0.09089 -0.13892
 C271 C 0.55070 0.07668 -0.18886
 C272 C 0.49843 -0.04559 0.19081
 C273 C 0.56996 0.06770 0.08759
 C274 C 0.51551 -0.07061 -0.11887
 O275 O 0.43118 -0.05519 -0.18370
 O276 O 0.47451 0.07096 0.10069
 O277 O 0.45780 0.06036 -0.06076
 O278 O 0.41650 -0.07459 0.10746
 O279 O 0.42020 -0.00833 0.12036
 O280 O 0.45974 0.02888 -0.19181
 O281 O 0.41628 -0.09794 -0.05701
 O282 O 0.52687 0.12056 0.01738
 Co283 Co 0.48591 -0.00693 -0.16572
 Co284 Co 0.47883 0.02011 0.12604
 Co285 Co 0.50954 0.06461 -0.02625
 Co286 Co 0.46018 -0.07090 0.02746
 O287 O 0.48256 -0.00266 -0.01571
 C288 C 0.40724 -0.09101 -0.13871
 C289 C 0.50500 0.11123 0.09460
 C290 C 0.44544 0.05032 -0.14338
 C291 C 0.39901 -0.05051 0.12796
 C292 C 1.13312 0.43651 0.26926
 C293 C 1.09977 0.39460 0.24560
 C294 C 1.07435 0.40304 0.18644
 C295 C 1.09431 0.44946 0.17792
 O296 O 1.13005 0.47017 0.22862
 H297 H 1.09384 0.36201 0.27184
 H298 H 1.04408 0.37841 0.15516
 C299 C 0.56212 0.71442 0.25786
 C300 C 0.57675 0.73282 0.16975
 C301 C 0.56768 0.69724 0.11321
 C302 C 0.54795 0.65954 0.17001
 O303 O 0.54490 0.66974 0.25776
 H304 H 0.59276 0.76814 0.14936
 H305 H 0.57469 0.69864 0.03931
 C306 C 0.30242 -0.11553 0.25466
 C307 C 0.29122 -0.08477 0.21720
 C308 C 0.32601 -0.05611 0.16320
 C309 C 0.35548 -0.07191 0.17073
 O310 O 0.34159 -0.10745 0.22690
 H311 H 0.26225 -0.08202 0.23152
 H312 H 0.32979 -0.02689 0.12421
 C313 C 0.87435 0.55057 0.23253
 C314 C 0.90583 0.59000 0.19159
 C315 C 0.93334 0.57833 0.14671
 C316 C 0.91629 0.53265 0.16313
 O317 O 0.88067 0.51569 0.21562
 H318 H 0.90969 0.62360 0.19871
 H319 H 0.96274 0.60051 0.10820
 C320 C 0.54056 0.39367 0.37041
 C321 C 0.58145 0.42913 0.38922
 C322 C 0.58428 0.46491 0.33933
 C323 C 0.54545 0.44825 0.29236
 O324 O 0.51893 0.40504 0.31025
 H325 H 0.60575 0.42917 0.43575
 H326 H 0.61147 0.49882 0.33627
 C327 C 0.67053 0.11053 0.20096
 C328 C 0.68345 0.10131 0.11625
 C329 C 0.64705 0.08343 0.06214
 C330 C 0.61454 0.08223 0.11850
 O331 O 0.62853 0.09845 0.20266
 H332 H 0.71588 0.10836 0.09553
 H333 H 0.64453 0.07300 -0.00999
 C334 C 0.41032 0.11480 -0.27312
 C335 C 0.38992 0.11272 -0.18803
 C336 C 0.39616 0.08368 -0.13273
 C337 C 0.42026 0.07000 -0.18568
 O338 O 0.42873 0.08843 -0.27046
 H339 H 0.37537 0.13241 -0.16319
 H340 H 0.38787 0.07684 -0.05929
 C341 C 0.67327 0.52919 -0.26815
 C342 C 0.68866 0.53187 -0.17769
 C343 C 0.65513 0.52385 -0.11948
 C344 C 0.62169 0.51832 -0.17681
 O345 O 0.63247 0.52228 -0.26728
 H346 H 0.72086 0.53891 -0.15590
 H347 H 0.65518 0.52266 -0.04389
 C348 C 0.84823 0.29839 -0.28132
 C349 C 0.83770 0.28493 -0.18889
 C350 C 0.86444 0.32124 -0.13700
 C351 C 0.89031 0.35410 -0.20053
 O352 O 0.88101 0.34045 -0.28823
 H353 H 0.81262 0.25268 -0.16225
 H354 H 0.86421 0.32375 -0.06175
 C355 C 0.59061 -0.10017 -0.21608
 C356 C 0.59018 -0.11473 -0.12508
 C357 C 0.56189 -0.10553 -0.07749
 C358 C 0.54677 -0.08621 -0.14203
 O359 O 0.56411 -0.08265 -0.22565
 H360 H 0.60639 -0.13205 -0.09586
 H361 H 0.55286 -0.11263 -0.00442
 C362 C 0.31410 0.43767 -0.22513
 C363 C 0.29639 0.43107 -0.13561
 C364 C 0.33086 0.44817 -0.07634
 C365 C 0.36709 0.46388 -0.13317
 O366 O 0.35714 0.45747 -0.22245
 H367 H 0.26274 0.41839 -0.11506
 H368 H 0.32982 0.45074 -0.00108
 C369 C 1.14488 0.65085 -0.30061
 C370 C 1.17307 0.65554 -0.22868
 C371 C 1.15178 0.61791 -0.17515
 C372 C 1.11161 0.59349 -0.21592
 O373 O 1.10729 0.61279 -0.29322
 H374 H 1.20581 0.68289 -0.21770
 H375 H 1.16349 0.60991 -0.11177
 C376 C 0.86472 0.54144 -0.28078
 C377 C 0.85856 0.55570 -0.19443
 C378 C 0.88622 0.55065 -0.13615
 C379 C 0.90698 0.53303 -0.19027
 O380 O 0.89455 0.52801 -0.27869
 H381 H 0.83544 0.56699 -0.17566
 H382 H 0.88837 0.55562 -0.06125
 C383 C 0.43586 0.31801 -0.20986
 C384 C 0.42047 0.29787 -0.12326
 C385 C 0.42858 0.33273 -0.06410
 C386 C 0.44713 0.37108 -0.11950
 O387 O 0.45039 0.36199 -0.20720
 H388 H 0.40966 0.26315 -0.10292
 H389 H 0.42495 0.33086 0.01119
 C390 C 0.63306 0.13625 -0.35291
 C391 C 0.60975 0.15895 -0.36610
 C392 C 0.57533 0.13884 -0.30642
 C393 C 0.58009 0.10508 -0.26260
 O394 O 0.61509 0.10315 -0.29065
 H395 H 0.61783 0.18762 -0.41173
 H396 H 0.54995 0.14787 -0.29523
 C397 C 1.11905 0.40839 -0.24679
 C398 C 1.12464 0.39753 -0.15565
 C399 C 1.09628 0.40396 -0.10155
 C400 C 1.07574 0.41926 -0.16159
 O401 O 1.08926 0.42191 -0.24907
 H402 H 1.14883 0.38967 -0.12810
 H403 H 1.09388 0.40185 -0.02606
 C404 C 0.56040 0.70352 -0.25234
 C405 C 0.54765 0.71426 -0.16856
 C406 C 0.52469 0.67462 -0.12194
 C407 C 0.52624 0.64265 -0.17817
 O408 O 0.54715 0.65962 -0.25802
 H409 H 0.55190 0.74672 -0.14643
 H410 H 0.50880 0.66959 -0.05459
 C411 C 0.31375 -0.16157 -0.27067
 C412 C 0.30504 -0.18810 -0.19066
 C413 C 0.33857 -0.16477 -0.13199
 C414 C 0.36609 -0.12567 -0.17936
 O415 O 0.35160 -0.12361 -0.26408
 H416 H 0.27809 -0.22155 -0.17716
 H417 H 0.34282 -0.17537 -0.06306
 C418 C 0.53476 -0.09752 0.35367
 C419 C 0.50625 -0.09145 0.41118
 C420 C 0.49011 -0.06969 0.35802
 C421 C 0.50931 -0.06477 0.27157
 O422 O 0.53629 -0.08185 0.26804
 H423 H 0.49884 -0.10112 0.48399
 H424 H 0.46651 -0.05942 0.37902
 C425 C 0.33881 0.44956 0.29234
 C426 C 0.34280 0.41117 0.28266
 C427 C 0.38104 0.42483 0.23583
 C428 C 0.39741 0.47051 0.22065
 O429 O 0.37200 0.48580 0.25506
 H430 H 0.32154 0.37785 0.31121
 H431 H 0.39581 0.40430 0.21687
 C432 C 1.13436 0.67322 0.20723
 C433 C 1.15189 0.68667 0.11833
 C434 C 1.12719 0.65158 0.06121
 C435 C 1.09708 0.61843 0.11886
 O436 O 1.10116 0.63134 0.20727
 H437 H 1.18053 0.71761 0.09745
 H438 H 1.13207 0.64952 -0.01279
 C439 C 0.50640 0.18223 0.27415
 C440 C 0.54722 0.20998 0.23667
 C441 C 0.55137 0.18677 0.16402
 C442 C 0.51303 0.14639 0.16295
 O443 O 0.48555 0.14310 0.23022
 H444 H 0.57066 0.24368 0.25867
 H445 H 0.57907 0.19784 0.11726
 C446 C 0.69237 0.58179 0.24670
 C447 C 0.69832 0.62507 0.23837
 C448 C 0.66893 0.62242 0.17287
 C449 C 0.64769 0.57783 0.14515
 O450 O 0.66195 0.55321 0.19002
 H451 H 0.71963 0.65426 0.27928
 H452 H 0.66133 0.64882 0.15353
 C453 C 0.87878 0.29416 0.24022
 C454 C 0.89109 0.27743 0.16492
 C455 C 0.91365 0.31361 0.10716
 C456 C 0.91378 0.34953 0.15238
 O457 O 0.89272 0.33801 0.23301
 H458 H 0.88172 0.24249 0.15076
 H459 H 0.92654 0.31353 0.03835
   
