data_POSCAR
  _audit_creation_date              2014-09-24
  _audit_creation_method            'ToBaCCo'
  _symmetry_space_group_name_H-M    'P1'
  _symmetry_Int_Tables_number       1
  _symmetry_cell_setting            triclinic
  loop_
  _symmetry_equiv_pos_as_xyz
 x,y,z
_cell_length_a 42.8575
_cell_length_b 42.8644
_cell_length_c 43.2603
_cell_angle_alpha 90.034900
_cell_angle_beta 89.963100
_cell_angle_gamma 89.947100
loop_
  _atom_site_label
  _atom_site_type_symbol
  _atom_site_fract_x
  _atom_site_fract_y
  _atom_site_fract_z
C1 C 0.33366 0.37980 1.35679
 C2 C 0.35552 0.38072 1.33267
 C3 C 0.37903 0.35854 1.33119
 C4 C 0.38097 0.33519 1.35380
 C5 C 0.35936 0.33430 1.37764
 C6 C 0.33557 0.35672 1.37914
 C7 C 0.30773 0.39761 1.36340
 N8 N 0.29415 0.38579 1.38912
 C9 C 0.31077 0.36083 1.39900
 C10 C 0.36622 0.30866 1.39556
 N11 N 0.39138 0.29423 1.38308
 C12 C 0.40065 0.31004 1.35758
 C13 C 0.39613 0.36446 1.30488
 N14 N 0.38351 0.38959 1.29063
 C15 C 0.35871 0.39977 1.30724
 H16 H 0.29910 0.41731 1.35025
 H17 H 0.30495 0.34649 1.41878
 H18 H 0.35363 0.30081 1.41583
 H19 H 0.41990 0.30347 1.34270
 H20 H 0.41593 0.35124 1.29645
 H21 H 0.34389 0.41924 1.30100
 C22 C 1.16681 0.62199 0.85826
 C23 C 1.14422 0.62079 0.83486
 C24 C 1.12102 0.64328 0.83354
 C25 C 1.12012 0.66725 0.85559
 C26 C 1.14246 0.66845 0.87873
 C27 C 1.16595 0.64568 0.88008
 C28 C 1.19259 0.60390 0.86453
 N29 N 1.20714 0.61612 0.88954
 C30 C 1.19126 0.64163 0.89930
 C31 C 1.13653 0.69471 0.89614
 N32 N 1.11122 0.70917 0.88404
 C33 C 1.10094 0.69278 0.85929
 C34 C 1.10305 0.63692 0.80792
 N35 N 1.11489 0.61124 0.79393
 C36 C 1.14001 0.60113 0.81003
 H37 H 1.20047 0.58371 0.85163
 H38 H 1.19789 0.65633 0.91858
 H39 H 1.14986 0.70294 0.91578
 H40 H 1.08135 0.69923 0.84483
 H41 H 1.08320 0.65021 0.79975
 H42 H 1.15438 0.58129 0.80382
 C43 C 0.66775 -0.12285 0.14144
 C44 C 0.64541 -0.12152 0.16509
 C45 C 0.62146 -0.14319 0.16601
 C46 C 0.61955 -0.16644 0.14327
 C47 C 0.64162 -0.16774 0.11987
 C48 C 0.66588 -0.14582 0.11895
 C49 C 0.69417 -0.10560 0.13548
 N50 N 0.70810 -0.11762 0.11001
 C51 C 0.69121 -0.14218 0.09965
 C52 C 0.63466 -0.19326 0.10178
 N53 N 0.60900 -0.20718 0.11376
 C54 C 0.59951 -0.19118 0.13908
 C55 C 0.60396 -0.13701 0.19200
 N56 N 0.61677 -0.11220 0.20662
 C57 C 0.64209 -0.10249 0.19055
 H58 H 0.70290 -0.08615 0.14893
 H59 H 0.69719 -0.15659 0.07993
 H60 H 0.64755 -0.20140 0.08179
 H61 H 0.57987 -0.19739 0.15360
 H62 H 0.58375 -0.14984 0.19999
 H63 H 0.65717 -0.08338 0.19720
 C64 C -0.16779 1.12021 -0.35603
 C65 C -0.14587 1.11948 -0.33200
 C66 C -0.12244 1.14171 -0.33073
 C67 C -0.12065 1.16492 -0.35349
 C68 C -0.14231 1.16563 -0.37726
 C69 C -0.16603 1.14316 -0.37853
 C70 C -0.19364 1.10228 -0.36247
 N71 N -0.20732 1.11390 -0.38823
 C72 C -0.19083 1.13884 -0.39831
 C73 C -0.13556 1.19116 -0.39536
 N74 N -0.11043 1.20569 -0.38305
 C75 C -0.10105 1.19005 -0.35749
 C76 C -0.10523 1.13595 -0.30448
 N77 N -0.11771 1.11087 -0.29005
 C78 C -0.14252 1.10056 -0.30649
 H79 H -0.20214 1.08262 -0.34919
 H80 H -0.19673 1.15302 -0.41819
 H81 H -0.14823 1.19887 -0.41564
 H82 H -0.08178 1.19674 -0.34272
 H83 H -0.08543 1.14923 -0.29623
 H84 H -0.15724 1.08108 -0.30009
 C85 C 0.66669 0.62338 0.64200
 C86 C 0.64432 0.62218 0.66563
 C87 C 0.62042 0.64395 0.66653
 C88 C 0.61860 0.66718 0.64379
 C89 C 0.64071 0.66836 0.62041
 C90 C 0.66491 0.64633 0.61952
 C91 C 0.69307 0.60603 0.63608
 N92 N 0.70709 0.61796 0.61065
 C93 C 0.69025 0.64256 0.60027
 C94 C 0.63384 0.69388 0.60231
 N95 N 0.60820 0.70793 0.61424
 C96 C 0.59862 0.69201 0.63956
 C97 C 0.60288 0.63787 0.69251
 N98 N 0.61563 0.61302 0.70713
 C99 C 0.64093 0.60319 0.69108
 H100 H 0.70176 0.58657 0.64951
 H101 H 0.69633 0.65690 0.58057
 H102 H 0.64677 0.70192 0.58233
 H103 H 0.57898 0.69833 0.65404
 H104 H 0.58270 0.65079 0.70049
 H105 H 0.65597 0.58402 0.69773
 C106 C 0.83194 0.37932 0.14462
 C107 C 0.85391 0.37991 0.16861
 C108 C 0.87728 0.35757 0.16977
 C109 C 0.87896 0.33438 0.14696
 C110 C 0.85725 0.33380 0.12323
 C111 C 0.83359 0.35639 0.12206
 C112 C 0.80614 0.39739 0.13825
 N113 N 0.79240 0.38587 0.11248
 C114 C 0.80879 0.36086 0.10232
 C115 C 0.86390 0.30826 0.10504
 N116 N 0.88903 0.29361 0.11726
 C117 C 0.89849 0.30917 0.14284
 C118 C 0.89459 0.36323 0.19598
 N119 N 0.88222 0.38836 0.21050
 C120 C 0.85739 0.39880 0.19415
 H121 H 0.79774 0.41709 0.15158
 H122 H 0.80282 0.34675 0.08241
 H123 H 0.85118 0.30065 0.08477
 H124 H 0.91779 0.30239 0.15755
 H125 H 0.91438 0.34986 0.20416
 H126 H 0.84276 0.41836 0.20062
 C127 C 0.33251 0.11988 0.85624
 C128 C 0.35439 0.11903 0.83214
 C129 C 0.37788 0.14119 0.83078
 C130 C 0.37978 0.16445 0.85351
 C131 C 0.35817 0.16528 0.87733
 C132 C 0.33439 0.14288 0.87871
 C133 C 0.30661 0.10206 0.86278
 N134 N 0.29301 0.11380 0.88856
 C135 C 0.30960 0.13870 0.89856
 C136 C 0.36503 0.19084 0.89537
 N137 N 0.39018 0.20529 0.88298
 C138 C 0.39944 0.18954 0.85743
 C139 C 0.39501 0.13536 0.80447
 N140 N 0.38242 0.11029 0.79008
 C141 C 0.35762 0.10007 0.80661
 H142 H 0.29801 0.08240 0.84954
 H143 H 0.30377 0.15297 0.91842
 H144 H 0.35245 0.19866 0.91566
 H145 H 0.41871 0.19615 0.84261
 H146 H 0.41481 0.14858 0.79613
 H147 H 0.34282 0.08064 0.80026
 C148 C 0.16692 0.87862 0.35789
 C149 C 0.14427 0.87979 0.33456
 C150 C 0.12110 0.85729 0.33330
 C151 C 0.12033 0.83335 0.35536
 C152 C 0.14274 0.83219 0.37842
 C153 C 0.16618 0.85496 0.37971
 C154 C 0.19269 0.89673 0.36408
 N155 N 0.20734 0.88454 0.38904
 C156 C 0.19154 0.85904 0.39885
 C157 C 0.13691 0.80594 0.39583
 N158 N 0.11162 0.79143 0.38381
 C159 C 0.10125 0.80781 0.35911
 C160 C 0.10306 0.86358 0.30772
 N161 N 0.11481 0.88925 0.29369
 C162 C 0.13995 0.89940 0.30972
 H163 H 0.20049 0.91691 0.35115
 H164 H 0.19827 0.84436 0.41810
 H165 H 0.15030 0.79771 0.41542
 H166 H 0.08163 0.80131 0.34472
 H167 H 0.08324 0.85026 0.29959
 H168 H 0.15427 0.91922 0.30345
 Zn169 Zn 0.03779 0.98182 0.00814
 Zn170 Zn 0.00690 1.03862 -0.01748
 Zn171 Zn -0.02437 0.97635 -0.02306
 Zn172 Zn -0.01912 1.00764 0.03867
 O173 O 0.00027 1.00108 0.00154
 O174 O 0.07022 1.00404 -0.00580
 O175 O -0.01247 1.04134 -0.05394
 O176 O -0.00524 0.94088 -0.03454
 O177 O 0.04730 1.04607 -0.02515
 O178 O 0.04053 0.94499 -0.01103
 O179 O -0.03588 0.99543 -0.05819
 O180 O -0.05594 0.98828 0.04120
 O181 O -0.00711 1.07104 0.00468
 O182 O -0.05988 0.96473 -0.00428
 O183 O -0.02679 1.04803 0.04620
 O184 O 0.00309 0.99358 0.07081
 O185 O 0.04526 0.97418 0.04817
 C186 C 0.07155 1.03015 -0.01943
 C187 C -0.02960 1.02235 -0.06860
 C188 C 0.02163 0.93028 -0.02817
 C189 C -0.07057 0.97105 0.02234
 C190 C -0.02088 1.07232 0.03058
 C191 C 0.02928 0.97994 0.07217
 Zn192 Zn 0.48173 0.00769 0.46050
 Zn193 Zn 0.47491 -0.02350 0.52214
 Zn194 Zn 0.53770 -0.01886 0.49205
 Zn195 Zn 0.50709 0.03834 0.51717
 O196 O 0.50032 0.00090 0.49799
 O197 O 0.44451 -0.01087 0.45749
 O198 O 0.49308 -0.05954 0.53332
 O199 O 0.54580 -0.02654 0.45217
 O200 O 0.43931 -0.03406 0.50300
 O201 O 0.50428 -0.00685 0.42870
 O202 O 0.53946 -0.05588 0.51090
 O203 O 0.54746 0.04539 0.52525
 O204 O 0.46352 -0.00451 0.55740
 O205 O 0.57019 0.00292 0.50654
 O206 O 0.48742 0.04118 0.55350
 O207 O 0.49370 0.07092 0.49492
 O208 O 0.47484 0.04820 0.45286
 C209 C 0.42913 -0.02754 0.47625
 C210 C 0.51987 -0.07055 0.52731
 C211 C 0.53036 -0.02078 0.42787
 C212 C 0.57161 0.02915 0.51999
 C213 C 0.47003 0.02229 0.56800
 C214 C 0.48056 0.07239 0.46873
 Zn215 Zn 0.98158 0.49154 0.53910
 Zn216 Zn 1.00769 0.46049 0.48295
 Zn217 Zn 0.97626 0.52272 0.47735
 Zn218 Zn 1.03842 0.51736 0.50858
 O219 O 1.00096 0.49805 0.50196
 O220 O 0.97401 0.45116 0.54664
 O221 O 0.98833 0.45769 0.44648
 O222 O 0.94072 0.53434 0.49611
 O223 O 0.99376 0.42810 0.50512
 O224 O 0.94471 0.51088 0.54160
 O225 O 0.96479 0.50356 0.44223
 O226 O 1.04106 0.55415 0.48938
 O227 O 1.04812 0.45306 0.47531
 O228 O 0.99529 0.55817 0.46585
 O229 O 1.07091 0.49514 0.49468
 O230 O 1.04584 0.52511 0.54861
 O231 O 1.00372 0.50569 0.57125
 C232 C 0.97997 0.42685 0.53101
 C233 C 0.97113 0.47663 0.43182
 C234 C 0.93005 0.52807 0.52273
 C235 C 1.02213 0.56880 0.47221
 C236 C 1.07232 0.46901 0.48105
 C237 C 1.02987 0.51940 0.57261
 Zn238 Zn 0.48155 0.49301 0.96121
 Zn239 Zn 0.53761 0.51948 0.99259
 Zn240 Zn 0.47489 0.52428 1.02288
 Zn241 Zn 0.50708 0.46239 1.01778
 O242 O 0.50024 0.49982 0.99864
 O243 O 0.50398 0.50751 0.92934
 O244 O 0.53940 0.55653 1.01142
 O245 O 0.43922 0.53488 1.00383
 O246 O 0.54559 0.52712 0.95269
 O247 O 0.44431 0.51162 0.95831
 O248 O 0.49309 0.56032 1.03399
 O249 O 0.48749 0.45960 1.05415
 O250 O 0.57015 0.49768 1.00702
 O251 O 0.46361 0.50533 1.05817
 O252 O 0.54747 0.45529 1.02579
 O253 O 0.49365 0.42980 0.99556
 O254 O 0.47465 0.45252 0.95357
 C255 C 0.53006 0.52139 0.92844
 C256 C 0.51987 0.57127 1.02788
 C257 C 0.42897 0.52834 0.97711
 C258 C 0.47015 0.47852 1.06872
 C259 C 0.57160 0.47148 1.02049
 C260 C 0.48043 0.42833 0.96941
 C261 C 1.15723 0.43776 0.45082
 C262 C 1.16662 0.40643 0.45541
 C263 C 1.19555 0.39579 0.44322
 C264 C 1.21491 0.41656 0.42649
 C265 C 1.20574 0.44801 0.42231
 C266 C 1.17683 0.45865 0.43452
 C267 C 1.16813 0.49019 0.42996
 C268 C 1.18744 0.51063 0.41381
 C269 C 1.21570 0.50021 0.40185
 C270 C 1.22486 0.46929 0.40597
 C271 C 1.20438 0.36434 0.44801
 C272 C 1.18519 0.34397 0.46439
 C273 C 1.15690 0.35437 0.47631
 C274 C 1.14760 0.38522 0.47193
 C275 C 1.24396 0.40543 0.41314
 C276 C 1.26792 0.39612 0.40178
 C277 C 1.12717 0.44838 0.46223
 C278 C 1.10213 0.45755 0.47116
 H279 H 1.14639 0.49941 0.43885
 H280 H 1.18043 0.53467 0.41055
 H281 H 1.23062 0.51618 0.38932
 H282 H 1.24707 0.46230 0.39626
 H283 H 1.22618 0.35516 0.43921
 H284 H 1.19231 0.31999 0.46786
 H285 H 1.14208 0.33846 0.48902
 H286 H 1.12541 0.39223 0.48167
 C287 C 0.34439 0.56102 0.94756
 C288 C 0.32792 0.58437 0.96403
 C289 C 0.29902 0.59575 0.95248
 C290 C 0.28676 0.58370 0.92452
 C291 C 0.30310 0.56015 0.90820
 C292 C 0.33199 0.54878 0.91975
 C293 C 0.34792 0.52528 0.90296
 C294 C 0.33566 0.51336 0.87557
 C295 C 0.30741 0.52448 0.86429
 C296 C 0.29122 0.54760 0.88031
 C297 C 0.28301 0.61915 0.96930
 C298 C 0.29520 0.63095 0.99677
 C299 C 0.32345 0.61982 1.00807
 C300 C 0.33973 0.59680 0.99198
 C301 C 0.25757 0.59571 0.91230
 C302 C 0.23349 0.60549 0.90163
 C303 C 0.37424 0.54978 0.95891
 C304 C 0.39917 0.54017 0.96765
 H305 H 0.36996 0.51585 0.91080
 H306 H 0.34815 0.49539 0.86304
 H307 H 0.29798 0.51515 0.84300
 H308 H 0.26933 0.55547 0.87059
 H309 H 0.26095 0.62852 0.96144
 H310 H 0.28266 0.64884 1.00936
 H311 H 0.33282 0.62907 1.02943
 H312 H 0.36160 0.58886 1.00169
 C313 C -0.15371 0.93500 0.05194
 C314 C -0.18056 0.93507 0.03288
 C315 C -0.20939 0.92364 0.04455
 C316 C -0.21119 0.91220 0.07520
 C317 C -0.18424 0.91177 0.09413
 C318 C -0.15542 0.92319 0.08247
 C319 C -0.12883 0.92258 0.10186
 C320 C -0.13065 0.91102 0.13191
 C321 C -0.15882 0.89986 0.14331
 C322 C -0.18539 0.90018 0.12475
 C323 C -0.23592 0.92402 0.02510
 C324 C -0.23404 0.93538 -0.00502
 C325 C -0.20586 0.94656 -0.01642
 C326 C -0.17935 0.94648 0.00221
 C327 C -0.24077 0.90123 0.08745
 C328 C -0.26519 0.89223 0.09805
 C329 C -0.12445 0.94757 0.04048
 C330 C -0.09996 0.95820 0.03171
 H331 H -0.10637 0.93097 0.09405
 H332 H -0.11007 0.91072 0.14641
 H333 H -0.16012 0.89090 0.16666
 H334 H -0.20676 0.89123 0.13467
 H335 H -0.25835 0.91555 0.03293
 H336 H -0.25456 0.93549 -0.01960
 H337 H -0.20452 0.95535 -0.03984
 H338 H -0.15794 0.95538 -0.00769
 C339 C 0.65623 0.06060 0.55060
 C340 C 0.67502 0.04054 0.56877
 C341 C 0.70383 0.05146 0.58089
 C342 C 0.71369 0.08236 0.57476
 C343 C 0.69512 0.10227 0.55622
 C344 C 0.66630 0.09135 0.54410
 C345 C 0.64807 0.11171 0.52574
 C346 C 0.65805 0.14199 0.51949
 C347 C 0.68624 0.15267 0.53132
 C348 C 0.70465 0.13314 0.54949
 C349 C 0.72215 0.03103 0.59910
 C350 C 0.71230 0.00067 0.60514
 C351 C 0.68414 -0.01002 0.59327
 C352 C 0.66562 0.00958 0.57529
 C353 C 0.74265 0.09382 0.58796
 C354 C 0.76653 0.10336 0.59922
 C355 C 0.62630 0.04973 0.53913
 C356 C 0.60136 0.04049 0.53010
 H357 H 0.62599 0.10446 0.51599
 H358 H 0.64384 0.15725 0.50538
 H359 H 0.69389 0.17620 0.52639
 H360 H 0.72641 0.14249 0.55815
 H361 H 0.74425 0.03826 0.60882
 H362 H 0.72661 -0.01465 0.61910
 H363 H 0.67660 -0.03363 0.59802
 H364 H 0.64392 0.00018 0.56656
 C365 C 0.45195 0.15744 0.43653
 C366 C 0.45646 0.16597 0.40523
 C367 C 0.44468 0.19491 0.39419
 C368 C 0.42845 0.21513 0.41451
 C369 C 0.42441 0.20684 0.44594
 C370 C 0.43620 0.17792 0.45698
 C371 C 0.43176 0.17009 0.48848
 C372 C 0.41614 0.19026 0.50848
 C373 C 0.40460 0.21853 0.49767
 C374 C 0.40861 0.22684 0.46678
 C375 C 0.44938 0.20288 0.36278
 C376 C 0.46526 0.18283 0.34285
 C377 C 0.47677 0.15454 0.35365
 C378 C 0.47247 0.14607 0.38446
 C379 C 0.41533 0.24413 0.40298
 C380 C 0.40405 0.26805 0.39348
 C381 C 0.46281 0.12734 0.44757
 C382 C 0.47125 0.10227 0.45703
 H383 H 0.44034 0.14838 0.49799
 H384 H 0.41297 0.18391 0.53249
 H385 H 0.39247 0.23412 0.51330
 H386 H 0.39924 0.24910 0.45948
 H387 H 0.44089 0.22465 0.35332
 H388 H 0.46866 0.18930 0.31890
 H389 H 0.48909 0.13905 0.33808
 H390 H 0.48188 0.12384 0.39179
 C391 C 0.95038 0.34216 0.56315
 C392 C 0.93421 0.32196 0.54281
 C393 C 0.92226 0.29313 0.55388
 C394 C 0.92657 0.28465 0.58522
 C395 C 0.94318 0.30462 0.60544
 C396 C 0.95511 0.33347 0.59437
 C397 C 0.97152 0.35311 0.61504
 C398 C 0.97603 0.34448 0.64577
 C399 C 0.96437 0.31628 0.65659
 C400 C 0.94810 0.29649 0.63677
 C401 C 0.90605 0.27339 0.53314
 C402 C 0.90179 0.28187 0.50234
 C403 C 0.91349 0.31006 0.49151
 C404 C 0.92952 0.32996 0.51140
 C405 C 0.91341 0.25571 0.59677
 C406 C 0.90216 0.23183 0.60638
 C407 C 0.96152 0.37213 0.55209
 C408 C 0.97025 0.39710 0.54265
 H409 H 0.98105 0.37526 0.60769
 H410 H 0.98864 0.35977 0.66127
 H411 H 0.96794 0.30968 0.68048
 H412 H 0.93951 0.27478 0.64625
 H413 H 0.89654 0.25121 0.54047
 H414 H 0.88935 0.26649 0.48679
 H415 H 0.91013 0.31654 0.46756
 H416 H 0.93821 0.35161 0.50188
 C417 C 0.05211 0.84717 -0.06358
 C418 C 0.03308 0.82018 -0.06335
 C419 C 0.04507 0.79138 -0.07459
 C420 C 0.07602 0.78975 -0.08597
 C421 C 0.09493 0.81682 -0.08652
 C422 C 0.08294 0.84561 -0.07530
 C423 C 0.10232 0.87234 -0.07602
 C424 C 0.13266 0.87068 -0.08751
 C425 C 0.14438 0.84253 -0.09847
 C426 C 0.12585 0.81584 -0.09803
 C427 C 0.02564 0.76471 -0.07408
 C428 C -0.00478 0.76644 -0.06279
 C429 C -0.01649 0.79459 -0.05179
 C430 C 0.00212 0.82123 -0.05201
 C431 C 0.08854 0.76024 -0.09690
 C432 C 0.09925 0.73586 -0.10596
 C433 C 0.04030 0.87641 -0.05127
 C434 C 0.03126 0.90090 -0.04083
 H435 H 0.09426 0.89479 -0.06778
 H436 H 0.14714 0.89135 -0.08790
 H437 H 0.16796 0.84135 -0.10738
 H438 H 0.13602 0.79449 -0.10684
 H439 H 0.03371 0.74230 -0.08240
 H440 H -0.01933 0.74581 -0.06257
 H441 H -0.04013 0.79580 -0.04305
 H442 H -0.00803 0.84260 -0.04325
 C443 C 0.54736 0.65659 1.06025
 C444 C 0.54404 0.66464 1.09182
 C445 C 0.55598 0.69352 1.10283
 C446 C 0.57118 0.71416 1.08219
 C447 C 0.57393 0.70639 1.05048
 C448 C 0.56198 0.67752 1.03948
 C449 C 0.56514 0.67021 1.00771
 C450 C 0.57969 0.69081 0.98740
 C451 C 0.59138 0.71903 0.99817
 C452 C 0.58861 0.72684 1.02932
 C453 C 0.55252 0.70099 1.13452
 C454 C 0.53768 0.68052 1.15476
 C455 C 0.52602 0.65229 1.14400
 C456 C 0.52910 0.64431 1.11291
 C457 C 0.58461 0.74302 1.09366
 C458 C 0.59613 0.76680 1.10321
 C459 C 0.53666 0.62642 1.04925
 C460 C 0.52853 0.60127 1.03975
 H461 H 0.55639 0.64856 0.99821
 H462 H 0.58189 0.68485 0.96317
 H463 H 0.60266 0.73496 0.98230
 H464 H 0.59805 0.74908 1.03658
 H465 H 0.56118 0.72269 1.14398
 H466 H 0.53522 0.68661 1.17893
 H467 H 0.51451 0.63647 1.15982
 H468 H 0.51961 0.62211 1.10562
 C469 C 0.43501 0.44856 1.15145
 C470 C 0.43527 0.46786 1.17802
 C471 C 0.42426 0.45609 1.20675
 C472 C 0.41307 0.42508 1.20873
 C473 C 0.41247 0.40590 1.18208
 C474 C 0.42347 0.41767 1.15336
 C475 C 0.42271 0.39801 1.12705
 C476 C 0.41142 0.36760 1.12906
 C477 C 0.40068 0.35609 1.15714
 C478 C 0.40115 0.37491 1.18341
 C479 C 0.42483 0.47580 1.23300
 C480 C 0.43595 0.50627 1.23094
 C481 C 0.44671 0.51777 1.20286
 C482 C 0.44644 0.49889 1.17662
 C483 C 0.40244 0.41276 1.23819
 C484 C 0.39368 0.40218 1.26251
 C485 C 0.44716 0.46014 1.12229
 C486 C 0.45751 0.46901 1.09792
 H487 H 0.43078 0.40589 1.10468
 H488 H 0.41100 0.35290 1.10871
 H489 H 0.39192 0.33246 1.15858
 H490 H 0.39253 0.36489 1.20472
 H491 H 0.41669 0.46791 1.25535
 H492 H 0.43621 0.52104 1.25125
 H493 H 0.45532 0.54146 1.20138
 H494 H 0.45502 0.50888 1.15529
 C495 C 0.56431 -0.05242 0.34520
 C496 C 0.56737 -0.03240 0.31936
 C497 C 0.57843 -0.04443 0.29074
 C498 C 0.58635 -0.07641 0.28813
 C499 C 0.58349 -0.09638 0.31405
 C500 C 0.57246 -0.08435 0.34267
 C501 C 0.56980 -0.10478 0.36824
 C502 C 0.57779 -0.13619 0.36561
 C503 C 0.58855 -0.14795 0.33763
 C504 C 0.59141 -0.12840 0.31206
 C505 C 0.58126 -0.02398 0.26522
 C506 C 0.57340 0.00746 0.26789
 C507 C 0.56258 0.01921 0.29587
 C508 C 0.55955 -0.00038 0.32139
 C509 C 0.59727 -0.08885 0.25882
 C510 C 0.60629 -0.09952 0.23462
 C511 C 0.55246 -0.04037 0.37432
 C512 C 0.54246 -0.03100 0.39867
 H513 H 0.56156 -0.09674 0.39051
 H514 H 0.57562 -0.15147 0.38541
 H515 H 0.59472 -0.17237 0.33570
 H516 H 0.59990 -0.13865 0.29080
 H517 H 0.58958 -0.03204 0.24298
 H518 H 0.57571 0.02278 0.24814
 H519 H 0.55650 0.04365 0.29783
 H520 H 0.55106 0.00984 0.34268
 C521 C -0.06511 1.05229 -0.15116
 C522 C -0.06479 1.03301 -0.17774
 C523 C -0.07602 1.04472 -0.20640
 C524 C -0.08751 1.07565 -0.20829
 C525 C -0.08814 1.09482 -0.18163
 C526 C -0.07692 1.08311 -0.15298
 C527 C -0.07772 1.10275 -0.12666
 C528 C -0.08929 1.13308 -0.12859
 C529 C -0.10025 1.14453 -0.15660
 C530 C -0.09974 1.12573 -0.18289
 C531 C -0.07539 1.02503 -0.23266
 C532 C -0.06400 0.99464 -0.23068
 C533 C -0.05301 0.98319 -0.20267
 C534 C -0.05334 1.00206 -0.17642
 C535 C -0.09837 1.08789 -0.23768
 C536 C -0.10732 1.09840 -0.26196
 C537 C -0.05278 1.04076 -0.12207
 C538 C -0.04231 1.03189 -0.09775
 H539 H -0.06948 1.09491 -0.10434
 H540 H -0.08974 1.14777 -0.10822
 H541 H -0.10921 1.16811 -0.15798
 H542 H -0.10854 1.13570 -0.20414
 H543 H -0.08370 1.03288 -0.25496
 H544 H -0.06369 0.97989 -0.25100
 H545 H -0.04418 0.95957 -0.20125
 H546 H -0.04457 0.99211 -0.15514
 C547 C 1.06144 0.54962 0.65665
 C548 C 1.04067 0.56599 0.67632
 C549 C 1.05148 0.57808 0.70498
 C550 C 1.08299 0.57369 0.71382
 C551 C 1.10364 0.55692 0.69436
 C552 C 1.09283 0.54485 0.66568
 C553 C 1.11392 0.52828 0.64657
 C554 C 1.14482 0.52372 0.65553
 C555 C 1.15539 0.53551 0.68356
 C556 C 1.13514 0.55194 0.70285
 C557 C 1.03033 0.59448 0.72419
 C558 C 0.99936 0.59880 0.71535
 C559 C 0.98878 0.58697 0.68734
 C560 C 1.00909 0.57074 0.66795
 C561 C 1.09428 0.58687 0.74265
 C562 C 1.10376 0.59806 0.76643
 C563 C 1.05062 0.53826 0.62690
 C564 C 1.04136 0.52934 0.60212
 H565 H 1.10678 0.51864 0.62456
 H566 H 1.16064 0.51098 0.64063
 H567 H 1.17941 0.53191 0.69042
 H568 H 1.14445 0.56064 0.72444
 H569 H 1.03745 0.60410 0.74621
 H570 H 0.98349 0.61138 0.73033
 H571 H 0.96470 0.59037 0.68058
 H572 H 0.99974 0.56196 0.64641
 C573 C 0.84683 0.56421 0.55222
 C574 C 0.84510 0.57624 0.58267
 C575 C 0.81627 0.58776 0.59427
 C576 C 0.78933 0.58720 0.57535
 C577 C 0.79114 0.57553 0.54477
 C578 C 0.81998 0.56400 0.53317
 C579 C 0.82121 0.55236 0.50257
 C580 C 0.79469 0.55214 0.48394
 C581 C 0.76650 0.56341 0.49527
 C582 C 0.76460 0.57500 0.52532
 C583 C 0.81511 0.59957 0.62483
 C584 C 0.84168 0.60001 0.64338
 C585 C 0.86987 0.58876 0.63204
 C586 C 0.87170 0.57698 0.60207
 C587 C 0.75973 0.59830 0.58752
 C588 C 0.73532 0.60741 0.59805
 C589 C 0.87612 0.55159 0.54081
 C590 C 0.90063 0.54093 0.53208
 H591 H 0.84263 0.54337 0.49272
 H592 H 0.79604 0.54317 0.46058
 H593 H 0.74597 0.56319 0.48070
 H594 H 0.74216 0.58354 0.53310
 H595 H 0.79373 0.60860 0.63469
 H596 H 0.84037 0.60914 0.66668
 H597 H 0.89045 0.58916 0.64654
 H598 H 0.89417 0.56852 0.59430
 C599 C 0.65619 0.43993 1.05122
 C600 C 0.66723 0.40990 1.04303
 C601 C 0.69600 0.39886 1.05520
 C602 C 0.71355 0.41792 1.07549
 C603 C 0.70273 0.44813 1.08334
 C604 C 0.67397 0.45917 1.07117
 C605 C 0.66359 0.48941 1.07943
 C606 C 0.68112 0.50821 1.09914
 C607 C 0.70923 0.49740 1.11105
 C608 C 0.72002 0.46773 1.10333
 C609 C 0.70651 0.36872 1.04675
 C610 C 0.68910 0.35002 1.02685
 C611 C 0.66096 0.36081 1.01496
 C612 C 0.65003 0.39038 1.02289
 C613 C 0.74245 0.40630 1.08870
 C614 C 0.76630 0.39660 1.09995
 C615 C 0.62630 0.45085 1.03968
 C616 C 0.60137 0.46012 1.03060
 H617 H 0.64189 0.49888 1.07073
 H618 H 0.67284 0.53128 1.10520
 H619 H 0.72276 0.51209 1.12636
 H620 H 0.74204 0.46038 1.11317
 H621 H 0.72826 0.35932 1.05538
 H622 H 0.69749 0.32703 1.02061
 H623 H 0.64753 0.34619 0.99951
 H624 H 0.62803 0.39776 1.01303
 C625 C 0.15633 1.06153 -0.04973
 C626 C 0.17599 1.04067 -0.06608
 C627 C 0.20485 1.05137 -0.07831
 C628 C 0.21390 1.08285 -0.07409
 C629 C 0.19447 1.10357 -0.05733
 C630 C 0.16559 1.09288 -0.04511
 C631 C 0.14651 1.11405 -0.02855
 C632 C 0.15570 1.14491 -0.02414
 C633 C 0.18393 1.15537 -0.03607
 C634 C 0.20318 1.13505 -0.05250
 C635 C 0.22404 1.03014 -0.09469
 C636 C 0.21499 0.99920 -0.09884
 C637 C 0.18679 0.98872 -0.08687
 C638 C 0.16741 1.00912 -0.07067
 C639 C 0.24290 1.09403 -0.08745
 C640 C 0.26682 1.10340 -0.09880
 C641 C 0.12632 1.05084 -0.03830
 C642 C 0.10132 1.04164 -0.02935
 H643 H 0.12436 1.10699 -0.01879
 H644 H 0.14082 1.16079 -0.01139
 H645 H 0.19096 1.17936 -0.03258
 H646 H 0.22494 1.14427 -0.06131
 H647 H 0.24621 1.03717 -0.10442
 H648 H 0.22996 0.98327 -0.11141
 H649 H 0.17986 0.96466 -0.09014
 H650 H 0.14572 0.99985 -0.06177
 C651 C 0.34460 -0.06024 0.44672
 C652 C 0.33193 -0.04778 0.41912
 C653 C 0.30305 -0.05919 0.40763
 C654 C 0.28698 -0.08298 0.42380
 C655 C 0.29951 -0.09525 0.45154
 C656 C 0.32840 -0.08383 0.46303
 C657 C 0.34049 -0.09648 0.49077
 C658 C 0.32448 -0.11975 0.50670
 C659 C 0.29623 -0.13092 0.49546
 C660 C 0.28378 -0.11890 0.46820
 C661 C 0.29090 -0.04642 0.37996
 C662 C 0.30682 -0.02305 0.36409
 C663 C 0.33506 -0.01190 0.37532
 C664 C 0.34759 -0.02403 0.40250
 C665 C 0.25779 -0.09501 0.41165
 C666 C 0.23371 -0.10481 0.40105
 C667 C 0.37445 -0.04897 0.45800
 C668 C 0.39936 -0.03935 0.46673
 H669 H 0.36237 -0.08853 0.50043
 H670 H 0.33405 -0.12917 0.52789
 H671 H 0.28389 -0.14900 0.50793
 H672 H 0.26173 -0.12831 0.46038
 H673 H 0.26900 -0.05431 0.37029
 H674 H 0.29719 -0.01355 0.34297
 H675 H 0.34735 0.00626 0.36291
 H676 H 0.36961 -0.01456 0.41030
 C677 C 0.54713 -0.15580 0.56007
 C678 C 0.56175 -0.17693 0.53944
 C679 C 0.57357 -0.20580 0.55062
 C680 C 0.57067 -0.21337 0.58234
 C681 C 0.55548 -0.19253 0.60284
 C682 C 0.54368 -0.16366 0.59167
 C683 C 0.52874 -0.14313 0.61262
 C684 C 0.52552 -0.15091 0.64373
 C685 C 0.53705 -0.17915 0.65465
 C686 C 0.55189 -0.19981 0.63455
 C687 C 0.58825 -0.22645 0.52959
 C688 C 0.59115 -0.21883 0.49841
 C689 C 0.57960 -0.19061 0.48748
 C690 C 0.56506 -0.16981 0.50765
 C691 C 0.58397 -0.24224 0.59398
 C692 C 0.59540 -0.26604 0.60363
 C693 C 0.53655 -0.12566 0.54889
 C694 C 0.52849 -0.10052 0.53928
 H695 H 0.51935 -0.12092 0.60519
 H696 H 0.51400 -0.13495 0.65944
 H697 H 0.53448 -0.18509 0.67884
 H698 H 0.56043 -0.22151 0.64413
 H699 H 0.59758 -0.24870 0.53698
 H700 H 0.60243 -0.23491 0.48265
 H701 H 0.58190 -0.18480 0.46324
 H702 H 0.55641 -0.14817 0.49803
 C703 C 1.05233 0.65191 0.43680
 C704 C 1.08311 0.65348 0.42496
 C705 C 1.09500 0.68227 0.41375
 C706 C 1.07604 0.70934 0.41441
 C707 C 1.04514 0.70769 0.42591
 C708 C 1.03325 0.67888 0.43715
 C709 C 1.00234 0.67782 0.44861
 C710 C 0.98367 0.70446 0.44895
 C711 C 0.99528 0.73262 0.43796
 C712 C 1.02565 0.73436 0.42655
 C713 C 1.12587 0.68327 0.40211
 C714 C 1.14445 0.65659 0.40155
 C715 C 1.13284 0.62843 0.41252
 C716 C 1.10255 0.62675 0.42412
 C717 C 1.08844 0.73886 0.40348
 C718 C 1.09906 0.76324 0.39441
 C719 C 1.04063 0.62266 0.44911
 C720 C 1.03168 0.59817 0.45954
 H721 H 0.99226 0.65644 0.45737
 H722 H 0.96007 0.70323 0.45778
 H723 H 0.98068 0.75324 0.43827
 H724 H 1.03363 0.75678 0.41824
 H725 H 1.13596 0.70462 0.39331
 H726 H 1.16800 0.65777 0.39256
 H727 H 1.14737 0.60776 0.41203
 H728 H 1.09457 0.60430 0.43235
 C729 C -0.05048 1.15703 0.06292
 C730 C -0.04545 1.16578 0.09408
 C731 C -0.05733 1.19464 0.10526
 C732 C -0.07419 1.21457 0.08521
 C733 C -0.07881 1.20604 0.05391
 C734 C -0.06691 1.17720 0.04273
 C735 C -0.07191 1.16914 0.01138
 C736 C -0.08819 1.18901 -0.00836
 C737 C -0.09984 1.21720 0.00258
 C738 C -0.09528 1.22574 0.03334
 C739 C -0.05210 1.20283 0.13653
 C740 C -0.03558 1.18308 0.15620
 C741 C -0.02397 1.15486 0.14527
 C742 C -0.02878 1.14618 0.11459
 C743 C -0.08728 1.24354 0.09688
 C744 C -0.09846 1.26744 0.10658
 C745 C -0.03936 1.12706 0.05174
 C746 C -0.03063 1.10209 0.04224
 H747 H -0.06327 1.14748 0.00177
 H748 H -0.09178 1.18249 -0.03227
 H749 H -0.11247 1.23256 -0.01284
 H750 H -0.10477 1.24792 0.04075
 H751 H -0.06065 1.22455 0.14610
 H752 H -0.03178 1.18971 0.18005
 H753 H -0.01115 1.13960 0.16064
 H754 H -0.01927 1.12402 0.10715
 C755 C 0.45171 0.34332 0.93724
 C756 C 0.43598 0.32290 0.95770
 C757 C 0.42412 0.29402 0.94665
 C758 C 0.42807 0.28572 0.91520
 C759 C 0.44429 0.30588 0.89487
 C760 C 0.45614 0.33478 0.90592
 C761 C 0.47215 0.35462 0.88514
 C762 C 0.47637 0.34614 0.85431
 C763 C 0.46479 0.31789 0.84350
 C764 C 0.44891 0.29790 0.86344
 C765 C 0.40834 0.27406 0.96751
 C766 C 0.40442 0.28239 0.99841
 C767 C 0.41603 0.31061 1.00923
 C768 C 0.43164 0.33073 0.98922
 C769 C 0.41489 0.25677 0.90366
 C770 C 0.40358 0.23290 0.89409
 C771 C 0.46262 0.37340 0.94828
 C772 C 0.47110 0.39846 0.95773
 H773 H 0.48161 0.37681 0.89248
 H774 H 0.48869 0.36158 0.83873
 H775 H 0.46813 0.31141 0.81954
 H776 H 0.44037 0.27616 0.85396
 H777 H 0.39892 0.25184 0.96020
 H778 H 0.39231 0.26684 1.01405
 H779 H 0.41294 0.31697 1.03326
 H780 H 0.44028 0.35241 0.99874
 C781 C 0.56358 0.55312 0.84570
 C782 C 0.57268 0.58479 0.84351
 C783 C 0.58355 0.59689 0.81488
 C784 C 0.58529 0.57723 0.78861
 C785 C 0.57640 0.54551 0.79086
 C786 C 0.56550 0.53341 0.81949
 C787 C 0.55669 0.50165 0.82117
 C788 C 0.55860 0.48236 0.79529
 C789 C 0.56926 0.49417 0.76730
 C790 C 0.57809 0.52537 0.76497
 C791 C 0.59244 0.62865 0.81324
 C792 C 0.59067 0.64790 0.83916
 C793 C 0.58007 0.63608 0.86715
 C794 C 0.57114 0.60491 0.86944
 C795 C 0.59612 0.58973 0.75931
 C796 C 0.60513 0.60039 0.73512
 C797 C 0.55190 0.54102 0.87484
 C798 C 0.54202 0.53163 0.89921
 H799 H 0.54828 0.49139 0.84244
 H800 H 0.55178 0.45811 0.79697
 H801 H 0.57071 0.47909 0.74726
 H802 H 0.58623 0.53349 0.74270
 H803 H 0.60085 0.63895 0.79198
 H804 H 0.59757 0.67213 0.83749
 H805 H 0.57874 0.65112 0.88722
 H806 H 0.56307 0.59681 0.89174
 C807 C 0.43459 0.05203 0.65075
 C808 C 0.42313 0.08297 0.65284
 C809 C 0.41197 0.09458 0.68158
 C810 C 0.41230 0.07519 0.70807
 C811 C 0.42341 0.04414 0.70590
 C812 C 0.43459 0.03253 0.67715
 C813 C 0.44567 0.00146 0.67556
 C814 C 0.44570 -0.01762 0.70164
 C815 C 0.43477 -0.00628 0.72974
 C816 C 0.42373 0.02423 0.73198
 C817 C 0.40074 0.12562 0.68310
 C818 C 0.40053 0.14463 0.65699
 C819 C 0.41143 0.13328 0.62889
 C820 C 0.42264 0.10283 0.62670
 C821 C 0.40153 0.08734 0.73755
 C822 C 0.39267 0.09781 0.76191
 C823 C 0.44688 0.04059 0.62157
 C824 C 0.45732 0.03179 0.59719
 H825 H 0.45438 -0.00842 0.65421
 H826 H 0.45425 -0.04134 0.70002
 H827 H 0.43484 -0.02119 0.74992
 H828 H 0.41545 0.03200 0.75434
 H829 H 0.39200 0.13552 0.70443
 H830 H 0.39185 0.16831 0.65857
 H831 H 0.41122 0.14814 0.60866
 H832 H 0.43085 0.09508 0.60432
 C833 C 0.06105 0.95016 0.15627
 C834 C 0.04032 0.93396 0.17608
 C835 C 0.05120 0.92206 0.20479
 C836 C 0.08273 0.92644 0.21352
 C837 C 0.10333 0.94305 0.19393
 C838 C 0.09246 0.95494 0.16521
 C839 C 0.11351 0.97134 0.14595
 C840 C 0.14442 0.97590 0.15482
 C841 C 0.15505 0.96430 0.18290
 C842 C 0.13485 0.94803 0.20232
 C843 C 0.03009 0.90583 0.22413
 C844 C -0.00090 0.90151 0.21539
 C845 C -0.01154 0.91316 0.18733
 C846 C 0.00872 0.92921 0.16781
 C847 C 0.09409 0.91341 0.24238
 C848 C 0.10363 0.90232 0.26617
 C849 C 0.05016 0.96134 0.12649
 C850 C 0.04084 0.97013 0.10169
 H851 H 0.10631 0.98084 0.12391
 H852 H 0.16021 0.98852 0.13982
 H853 H 0.17909 0.96791 0.18969
 H854 H 0.14421 0.93948 0.22394
 H855 H 0.03726 0.89636 0.24619
 H856 H -0.01674 0.88906 0.23047
 H857 H -0.03564 0.90975 0.18064
 H858 H -0.00067 0.93785 0.14624
 C859 C 0.93550 0.44665 0.34930
 C860 C 0.92399 0.41575 0.34739
 C861 C 0.91264 0.40409 0.31876
 C862 C 0.91285 0.42340 0.29221
 C863 C 0.92404 0.45441 0.29421
 C864 C 0.93540 0.46607 0.32284
 C865 C 0.94655 0.49710 0.32425
 C866 C 0.94648 0.51610 0.29812
 C867 C 0.93537 0.50471 0.27013
 C868 C 0.92426 0.47423 0.26805
 C869 C 0.90135 0.37309 0.31741
 C870 C 0.90124 0.35416 0.34358
 C871 C 0.91233 0.36556 0.37157
 C872 C 0.92360 0.39597 0.37359
 C873 C 0.90182 0.41122 0.26284
 C874 C 0.89274 0.40078 0.23858
 C875 C 0.94790 0.45817 0.37838
 C876 C 0.95841 0.46704 0.40269
 H877 H 0.95540 0.50701 0.34552
 H878 H 0.95508 0.53979 0.29961
 H879 H 0.93535 0.51956 0.24990
 H880 H 0.91584 0.46643 0.24578
 H881 H 0.89247 0.36316 0.29616
 H882 H 0.89251 0.33051 0.34213
 H883 H 0.91219 0.35076 0.39185
 H884 H 0.93195 0.40377 0.39589
   
