data_POSCAR
  _audit_creation_date              2014-09-24
  _audit_creation_method            'ToBaCCo'
  _symmetry_space_group_name_H-M    'P1'
  _symmetry_Int_Tables_number       1
  _symmetry_cell_setting            triclinic
  loop_
  _symmetry_equiv_pos_as_xyz
 x,y,z
_cell_length_a 19.4674
_cell_length_b 19.2169
_cell_length_c 19.1478
_cell_angle_alpha 90.299900
_cell_angle_beta 89.987400
_cell_angle_gamma 90.012600
loop_
  _atom_site_label
  _atom_site_type_symbol
  _atom_site_fract_x
  _atom_site_fract_y
  _atom_site_fract_z
C1 C 0.53384 1.00766 -0.71929
 C2 C 0.46374 1.00893 -0.71754
 C3 C 0.44447 0.99467 -0.64929
 N4 N 0.50106 0.98612 -0.60909
 C5 C 0.55588 0.99484 -0.65169
 C6 C 0.37579 0.98694 -0.62578
 C7 C 0.36028 0.97728 -0.55404
 C8 C 0.30177 0.94471 -0.52851
 C9 C 0.30430 0.94965 -0.45705
 C10 C 0.36512 0.98335 -0.44070
 N11 N 0.39945 0.99941 -0.49990
 C12 C 0.38503 1.00275 -0.37266
 C13 C 0.45395 1.01770 -0.35539
 C14 C 0.47554 1.04993 -0.29442
 C15 C 0.54593 1.04906 -0.29563
 C16 C 0.56515 1.01635 -0.35751
 N17 N 0.50865 0.99762 -0.39419
 C18 C 0.63357 1.00093 -0.37776
 C19 C 0.64904 0.98082 -0.44772
 C20 C 0.70628 0.94317 -0.46910
 C21 C 0.70419 0.93958 -0.54078
 C22 C 0.64439 0.97269 -0.56142
 N23 N 0.61073 0.99719 -0.50447
 C24 C 0.62507 0.98463 -0.63146
 H25 H 0.56417 1.01391 -0.76607
 H26 H 0.43123 1.01871 -0.76221
 H27 H 0.56803 1.02991 -0.50503
 H28 H 0.26140 0.91955 -0.55816
 H29 H 0.26595 0.93023 -0.42113
 H30 H 0.44398 1.07190 -0.25334
 H31 H 0.57899 1.07071 -0.25562
 H32 H 0.74218 0.91462 -0.57365
 H33 H 0.44317 1.03054 -0.50312
 H34 H 0.74555 0.92001 -0.43673
 C35 C -0.69650 1.54847 -0.05870
 C36 C -0.69886 1.47732 -0.06310
 C37 C -0.64162 1.45241 -0.02822
 N38 N -0.60347 1.50639 -0.00412
 C39 C -0.63674 1.56547 -0.02276
 C40 C -0.62575 1.38092 -0.01802
 C41 C -0.55736 1.35797 -0.00543
 C42 C -0.53931 1.29091 0.01417
 C43 C -0.46903 1.28802 0.01544
 C44 C -0.44511 1.35396 -0.00099
 N45 N -0.49943 1.39610 -0.01432
 C46 C -0.37479 1.37231 -0.00837
 C47 C -0.35181 1.44202 -0.01224
 C48 C -0.28498 1.46219 -0.02700
 C49 C -0.28305 1.53338 -0.02085
 C50 C -0.34861 1.55445 -0.00198
 N51 N -0.39038 1.49848 0.00368
 C52 C -0.36806 1.62390 0.01286
 C53 C -0.43683 1.64350 0.02744
 C54 C -0.45593 1.70628 0.05711
 C55 C -0.52596 1.71049 0.05224
 C56 C -0.54920 1.64833 0.02269
 N57 N -0.49377 1.60808 0.00763
 C58 C -0.61749 1.63346 -0.00041
 H59 H -0.73501 1.58302 -0.07973
 H60 H -0.73817 1.44749 -0.08971
 H61 H -0.49404 1.56400 -0.02402
 H62 H -0.57287 1.24763 0.02583
 H63 H -0.43986 1.24162 0.02654
 H64 H -0.24183 1.42914 -0.04019
 H65 H -0.23826 1.56574 -0.02887
 H66 H -0.55386 1.75702 0.06564
 H67 H -0.49700 1.44558 -0.03578
 H68 H -0.42279 1.74687 0.07727
 C69 C -0.01414 0.54301 0.28421
 C70 C -0.00464 0.47250 0.28288
 C71 C 0.00010 0.45098 0.35195
 N72 N -0.00811 0.50641 0.39507
 C73 C -0.01707 0.56268 0.35384
 C74 C 0.01339 0.38186 0.37439
 C75 C 0.02285 0.36587 0.44622
 C76 C 0.06402 0.31234 0.47043
 C77 C 0.05678 0.31066 0.54152
 C78 C 0.01260 0.36459 0.55986
 N79 N -0.00711 0.39873 0.50119
 C80 C -0.01417 0.37661 0.62801
 C81 C -0.03725 0.44366 0.64924
 C82 C -0.05623 0.46297 0.71676
 C83 C -0.06396 0.53323 0.71708
 C84 C -0.04556 0.55616 0.65135
 N85 N -0.03123 0.50130 0.60944
 C86 C -0.04251 0.62708 0.63174
 C87 C -0.05014 0.64800 0.56133
 C88 C -0.07423 0.71249 0.53991
 C89 C -0.07042 0.71322 0.46856
 C90 C -0.04304 0.64979 0.44778
 N91 N -0.03159 0.60993 0.50463
 C92 C -0.02906 0.63156 0.37742
 H93 H -0.01951 0.57553 0.23860
 H94 H -0.00161 0.44174 0.23560
 H95 H -0.00545 0.56288 0.50537
 H96 H 0.09615 0.27770 0.43993
 H97 H 0.08184 0.27340 0.57500
 H98 H -0.06039 0.43217 0.76345
 H99 H -0.08019 0.56391 0.76167
 H100 H -0.08681 0.75579 0.43577
 H101 H -0.04525 0.43666 0.49800
 H102 H -0.09448 0.75457 0.57139
 O103 O -0.17206 1.00603 -0.09301
 O104 O 0.18255 0.99662 -0.09608
 O105 O 0.00409 1.09172 -0.18212
 O106 O 0.00564 0.90752 -0.18026
 O107 O 0.00641 0.82330 -0.09507
 O108 O 0.00045 1.17855 -0.09854
 O109 O 0.09796 0.99634 -0.18045
 O110 O -0.08882 1.00439 -0.17894
 Zr111 Zr 0.00500 1.00071 -0.12308
 O112 O 0.06789 0.93811 -0.06427
 O113 O -0.05686 1.06469 -0.06363
 C114 C -0.15226 1.00679 -0.15775
 C115 C 0.16168 0.99451 -0.16042
 C116 C 0.00003 1.15593 -0.16271
 C117 C 0.00664 0.84367 -0.15964
 H118 H 0.09712 1.09307 -0.09551
 O119 O 0.06810 1.06403 -0.06487
 H120 H -0.08712 0.90975 -0.09229
 O121 O -0.05742 0.93939 -0.06265
 O122 O 0.18367 1.00554 0.09252
 O123 O -0.16961 1.00252 0.09717
 O124 O 0.09950 1.18143 -0.00243
 O125 O 0.09721 0.82265 -0.00376
 O126 O -0.08698 0.82356 0.00299
 O127 O -0.08562 1.18219 -0.00426
 O128 O 0.01039 1.09889 0.17788
 O129 O 0.00508 0.90943 0.17886
 O130 O 0.00999 1.18258 0.09181
 O131 O 0.00275 0.82425 0.09351
 O132 O 0.18314 1.09631 -0.00105
 O133 O -0.17055 1.09838 0.00074
 O134 O -0.17136 0.90798 0.00313
 O135 O 0.18225 0.90643 -0.00111
 O136 O 0.10046 1.00601 0.17829
 O137 O -0.08401 1.00080 0.18063
 Zr138 Zr 0.12724 1.00171 -0.00157
 Zr139 Zr -0.11555 1.00304 0.00107
 Zr140 Zr 0.00657 1.12471 -0.00217
 Zr141 Zr 0.00531 0.88037 -0.00044
 Zr142 Zr 0.00739 1.00366 0.12202
 O143 O -0.05612 0.94032 0.06362
 O144 O 0.06927 1.06603 0.06142
 C145 C 0.16380 1.00701 0.15718
 C146 C -0.14775 1.00089 0.16134
 C147 C 0.16302 1.16079 -0.00129
 C148 C 0.16085 0.84228 -0.00264
 C149 C -0.15049 0.84357 0.00389
 C150 C -0.14927 1.16252 -0.00218
 C151 C 0.01134 1.16300 0.15655
 C152 C 0.00256 0.84499 0.15794
 H153 H -0.08363 1.09627 0.09265
 O154 O -0.05496 1.06615 0.06247
 H155 H 0.09746 0.91034 0.09202
 O156 O 0.06834 0.93990 0.06207
 C157 C 0.32309 0.98482 0.32320
 C158 C 0.25901 1.00896 0.33354
 C159 C 0.20519 1.00861 0.27904
 C160 C 0.21844 1.00857 0.21024
 H161 H 0.24435 1.03058 0.38365
 H162 H 0.15251 1.01097 0.29709
 H163 H 0.33627 0.96599 0.27173
 H164 H 0.27078 1.01032 0.19137
 C165 C -0.32056 0.98142 0.31398
 C166 C -0.30908 1.03468 0.27054
 C167 C -0.25932 1.03151 0.21256
 C168 C -0.19863 0.99956 0.21798
 H169 H -0.34067 1.08094 0.27438
 H170 H -0.27122 1.06081 0.16591
 H171 H -0.28982 0.93464 0.30986
 H172 H -0.18354 0.97647 0.26716
 C173 C -0.31547 1.00152 -0.32460
 C174 C -0.24836 1.01514 -0.33489
 C175 C -0.19486 1.01356 -0.27952
 C176 C -0.20739 1.00959 -0.21063
 H177 H -0.23033 1.02906 -0.38639
 H178 H -0.14216 1.01664 -0.29738
 H179 H -0.33291 0.99324 -0.27184
 H180 H -0.25936 1.00908 -0.19097
 C181 C 0.33003 1.00794 -0.31895
 C182 C 0.33539 0.97845 -0.25591
 C183 C 0.28112 0.98190 -0.20195
 C184 C 0.21412 0.99088 -0.21593
 H185 H 0.38267 0.95237 -0.24179
 H186 H 0.29752 0.97402 -0.14853
 H187 H 0.28308 1.03405 -0.33389
 H188 H 0.19649 0.99429 -0.26939
 C189 C 0.32224 1.32912 -0.02219
 C190 C 0.25685 1.33834 -0.00122
 C191 C 0.20384 1.28286 -0.00209
 C192 C 0.21754 1.21430 -0.00141
 H193 H 0.24040 1.38831 0.01899
 H194 H 0.15094 1.30019 -0.00007
 H195 H 0.33725 1.27769 -0.03922
 H196 H 0.27002 1.19598 0.00035
 C197 C 0.33306 0.68718 -0.00645
 C198 C 0.31899 0.73355 0.04430
 C199 C 0.27004 0.79161 0.03575
 C200 C 0.21203 0.78612 -0.00129
 H201 H 0.34359 0.72952 0.09473
 H202 H 0.27955 0.83847 0.06597
 H203 H 0.30191 0.68854 -0.05312
 H204 H 0.19815 0.73685 -0.02512
 C205 C -0.31297 0.67787 0.01641
 C206 C -0.31907 0.73974 -0.01558
 C207 C -0.26789 0.79669 -0.01138
 C208 C -0.20165 0.78699 0.00451
 H209 H -0.36555 0.75088 -0.04452
 H210 H -0.28538 0.84818 -0.02572
 H211 H -0.26705 0.66535 0.04549
 H212 H -0.18252 0.73507 0.01409
 C213 C -0.32222 1.31624 -0.01407
 C214 C -0.30981 1.27152 0.03795
 C215 C -0.26022 1.21351 0.03227
 C216 C -0.20067 1.21872 -0.00222
 H217 H -0.33984 1.27489 0.08547
 H218 H -0.27095 1.16704 0.06218
 H219 H -0.29269 1.31310 -0.06191
 H220 H -0.18642 1.26767 -0.02603
 C221 C 0.02218 1.32913 0.32278
 C222 C 0.00572 1.26177 0.33266
 C223 C 0.01013 1.20686 0.27819
 C224 C 0.01225 1.21918 0.20929
 H225 H -0.01416 1.24496 0.38259
 H226 H 0.00738 1.15366 0.29637
 H227 H 0.03911 1.34422 0.27156
 H228 H 0.01158 1.27184 0.18977
 C229 C -0.00872 1.32271 -0.32232
 C230 C -0.05792 1.30809 -0.27537
 C231 C -0.04783 1.25992 -0.21662
 C232 C -0.00496 1.20590 -0.21958
 H233 H -0.10680 1.33488 -0.27734
 H234 H -0.07964 1.26745 -0.17073
 H235 H 0.03686 1.29093 -0.32291
 H236 H 0.02117 1.19278 -0.26775
 C237 C -0.03501 0.67924 -0.31629
 C238 C 0.00230 0.67017 -0.25774
 C239 C 0.00820 0.72308 -0.20237
 C240 C 0.00579 0.79120 -0.21524
 H241 H 0.02859 0.62158 -0.24805
 H242 H 0.01618 0.70471 -0.14960
 H243 H -0.05566 0.73031 -0.32573
 H244 H 0.00282 0.80988 -0.26839
 C245 C -0.03073 0.68758 0.32417
 C246 C 0.00793 0.74508 0.33078
 C247 C 0.00918 0.80131 0.27866
 C248 C -0.00051 0.78962 0.21046
 H249 H 0.03845 0.75262 0.37752
 H250 H 0.02254 0.85300 0.29695
 H251 H -0.06294 0.68028 0.27867
 H252 H -0.00871 0.73706 0.19154
   
