data_POSCAR
  _audit_creation_date              2014-09-24
  _audit_creation_method            'ToBaCCo'
  _symmetry_space_group_name_H-M    'P1'
  _symmetry_Int_Tables_number       1
  _symmetry_cell_setting            triclinic
  loop_
  _symmetry_equiv_pos_as_xyz
 x,y,z
_cell_length_a 24.4862
_cell_length_b 24.5076
_cell_length_c 34.7866
_cell_angle_alpha 89.834700
_cell_angle_beta 88.252600
_cell_angle_gamma 89.307400
loop_
  _atom_site_label
  _atom_site_type_symbol
  _atom_site_fract_x
  _atom_site_fract_y
  _atom_site_fract_z
C1 C -0.00106 0.50429 0.98085
 C2 C 0.00121 0.50351 1.01997
 C3 C 0.00594 0.55460 1.04249
 C4 C -0.00111 0.45171 1.04222
 C5 C 0.00095 0.45332 0.95781
 C6 C -0.00519 0.55638 0.95914
 C7 C 0.04810 0.59145 1.03440
 C8 C 0.05162 0.63988 1.05522
 C9 C 0.01409 0.65194 1.08590
 C10 C -0.02877 0.61470 1.09311
 C11 C -0.03225 0.56648 1.07212
 C12 C 0.03919 0.43972 1.06880
 C13 C 0.03735 0.39131 1.09000
 C14 C -0.00497 0.35367 1.08537
 C15 C -0.04582 0.36641 1.05893
 C16 C -0.04394 0.41497 1.03777
 C17 C -0.03951 0.44350 0.93117
 C18 C -0.03800 0.39583 0.90929
 C19 C 0.00438 0.35697 0.91310
 C20 C 0.04509 0.36727 0.93991
 C21 C 0.04352 0.41508 0.96174
 C22 C -0.04762 0.59391 0.96729
 C23 C -0.05033 0.64351 0.94746
 C24 C -0.01069 0.65653 0.91871
 C25 C 0.03111 0.61798 0.91029
 C26 C 0.03368 0.56846 0.93010
 H27 H 0.07801 0.58302 1.01155
 H28 H 0.08327 0.66786 1.04623
 H29 H -0.06014 0.62309 1.11499
 H30 H -0.06551 0.53882 1.07851
 H31 H 0.07239 0.46772 1.07290
 H32 H 0.06918 0.38313 1.11026
 H33 H -0.07615 0.42408 1.01799
 H34 H -0.07266 0.47257 0.92760
 H35 H -0.07013 0.38917 0.88916
 H36 H 0.07830 0.33907 0.94462
 H37 H 0.07565 0.42232 0.98177
 H38 H -0.07858 0.58484 0.98921
 H39 H -0.08361 0.67084 0.95518
 H40 H 0.06215 0.62648 0.88830
 H41 H 0.06662 0.53989 0.92324
 H42 H -0.07973 0.33988 1.05432
 C43 C 0.50135 -0.00809 0.48026
 C44 C 0.49782 -0.00754 0.51943
 C45 C 0.44428 -0.00426 0.54057
 C46 C 0.54727 -0.01011 0.54311
 C47 C 0.55480 -0.00534 0.45903
 C48 C 0.45192 -0.01129 0.45667
 C49 C 0.40734 0.03860 0.53376
 C50 C 0.35673 0.04096 0.55344
 C51 C 0.34198 0.00039 0.58055
 C52 C 0.37997 -0.04180 0.58770
 C53 C 0.43051 -0.04400 0.56807
 C54 C 0.55541 0.02989 0.57097
 C55 C 0.60194 0.02823 0.59315
 C56 C 0.64126 -0.01387 0.58845
 C57 C 0.63262 -0.05412 0.56044
 C58 C 0.58593 -0.05243 0.53831
 C59 C 0.56939 -0.04565 0.43205
 C60 C 0.61980 -0.04387 0.41228
 C61 C 0.65685 -0.00156 0.41877
 C62 C 0.64126 0.03957 0.44536
 C63 C 0.59079 0.03763 0.46517
 C64 C 0.41429 -0.05350 0.46220
 C65 C 0.36745 -0.05564 0.44030
 C66 C 0.35760 -0.01590 0.41183
 C67 C 0.39601 0.02597 0.40630
 C68 C 0.44269 0.02807 0.42826
 H69 H 0.41780 0.07035 0.51320
 H70 H 0.33018 0.07497 0.54715
 H71 H 0.37032 -0.07331 0.60864
 H72 H 0.45867 -0.07719 0.57397
 H73 H 0.52601 0.06288 0.57517
 H74 H 0.60744 0.06013 0.61412
 H75 H 0.58001 -0.08413 0.51726
 H76 H 0.54196 -0.07893 0.42665
 H77 H 0.63008 -0.07579 0.39175
 H78 H 0.66704 0.07371 0.45110
 H79 H 0.57967 0.06982 0.48530
 H80 H 0.42112 -0.08476 0.48365
 H81 H 0.33955 -0.08841 0.44634
 H82 H 0.38966 0.05735 0.38485
 H83 H 0.47131 0.06094 0.42347
 H84 H 0.66145 -0.08691 0.55488
 C85 C 0.12357 0.00689 0.25946
 H86 H 0.12447 0.01240 0.22857
 C87 C 0.17237 0.00482 0.27917
 H88 H 0.20993 0.00993 0.26267
 C89 C 0.07206 -0.00435 0.31755
 H90 H 0.03292 -0.00734 0.33250
 C91 C 0.11984 -0.00668 0.33842
 H92 H 0.11682 -0.01159 0.36936
 N93 N 0.07482 0.00107 0.27866
 C94 C -0.03196 -0.07040 0.19486
 H95 H -0.06582 -0.04160 0.19554
 C96 C -0.03343 -0.11636 0.17124
 H97 H -0.06947 -0.12233 0.15473
 C98 C 0.05364 -0.09833 0.21837
 H99 H 0.08689 -0.09208 0.23748
 C100 C 0.05381 -0.14482 0.19537
 H101 H 0.08742 -0.17373 0.19725
 Zn102 Zn 0.01119 0.00095 0.24907
 N103 N 0.01162 -0.06168 0.21723
 C104 C 0.00736 0.06416 0.18024
 N105 N 0.01093 0.06564 0.21913
 C106 C 0.01498 0.11380 0.23804
 C107 C 0.01270 0.16321 0.21804
 C108 C 0.00493 0.11259 0.15910
 C109 C -0.06117 -0.04694 0.30309
 C110 C -0.10771 -0.05090 0.32717
 C111 C -0.13620 0.03830 0.30540
 C112 C -0.08929 0.04045 0.28173
 N113 N -0.05249 -0.00152 0.28136
 H114 H 0.00603 0.02554 0.16548
 H115 H 0.01931 0.11373 0.26890
 H116 H 0.01655 0.20029 0.23427
 H117 H 0.00165 0.11054 0.12816
 H118 H -0.03168 -0.08017 0.30176
 H119 H -0.11258 -0.08762 0.34395
 H120 H -0.16479 0.07237 0.30543
 H121 H -0.08261 0.07567 0.26358
 C122 C 0.01066 -0.15400 0.17040
 C123 C 0.17119 -0.00348 0.31928
 C124 C -0.14619 -0.00767 0.32877
 C125 C 0.00604 0.16328 0.17796
 C126 C -0.01916 0.11820 0.76089
 H127 H -0.02472 0.11805 0.73015
 C128 C -0.01736 0.16768 0.78060
 H129 H -0.02260 0.20467 0.76424
 C130 C -0.00747 0.06873 0.81864
 H131 H -0.00414 0.03014 0.83347
 C132 C -0.00540 0.11719 0.83948
 H133 H -0.00032 0.11525 0.87028
 N134 N -0.01293 0.07011 0.77989
 C135 C 0.06111 -0.04335 0.69671
 H136 H 0.03274 -0.07681 0.69874
 C137 C 0.10767 -0.04759 0.67259
 H138 H 0.11372 -0.08478 0.65651
 C139 C 0.08653 0.04484 0.71650
 H140 H 0.07883 0.08048 0.73407
 C141 C 0.13340 0.04243 0.69275
 H142 H 0.16094 0.07670 0.69211
 Zn143 Zn -0.01219 0.00522 0.75042
 N144 N 0.05111 0.00257 0.71771
 C145 C -0.07359 -0.00150 0.68244
 N146 N -0.07624 0.00496 0.72124
 C147 C -0.12499 0.01163 0.74046
 C148 C -0.17388 0.00942 0.72090
 C149 C -0.12143 -0.00401 0.66174
 C150 C 0.03499 -0.06622 0.80358
 C151 C 0.03866 -0.11200 0.82746
 C152 C -0.05067 -0.13870 0.80749
 C153 C -0.05254 -0.09257 0.78400
 N154 N -0.01035 -0.05703 0.78281
 H155 H -0.03448 -0.00520 0.66744
 H156 H -0.12584 0.01795 0.77125
 H157 H -0.21144 0.01510 0.73742
 H158 H -0.11847 -0.00981 0.63089
 H159 H 0.06844 -0.03781 0.80154
 H160 H 0.07544 -0.11744 0.84332
 H161 H -0.08485 -0.16637 0.80810
 H162 H -0.08768 -0.08555 0.76659
 C163 C 0.14476 -0.00409 0.67016
 C164 C -0.00899 0.16784 0.82049
 C165 C -0.00480 -0.14915 0.82989
 C166 C -0.17275 0.00018 0.68093
 C167 C 0.01531 -0.29730 0.10749
 C168 C 0.06669 -0.26683 0.10548
 C169 C 0.06411 -0.21633 0.12610
 C170 C 0.01142 -0.20595 0.14595
 C171 C -0.02844 -0.20853 0.11546
 C172 C -0.02638 -0.25874 0.09457
 C173 C 0.00426 -0.30436 0.14885
 C174 C 0.00162 -0.25426 0.16977
 H175 H 0.10566 -0.28269 0.09461
 H176 H 0.09950 -0.19039 0.12834
 H177 H -0.05169 -0.17403 0.10490
 H178 H -0.04996 -0.26461 0.06897
 H179 H 0.00171 -0.34366 0.16329
 H180 H -0.00466 -0.25310 0.20081
 C181 C -0.00492 0.30178 0.10974
 C182 C -0.05072 0.25997 0.10409
 C183 C -0.04739 0.21543 0.12743
 C184 C 0.00146 0.21553 0.15426
 C185 C 0.05159 0.22366 0.12731
 C186 C 0.04821 0.26823 0.10411
 C187 C -0.00852 0.31456 0.15300
 C188 C -0.00532 0.26998 0.17623
 H189 H -0.08342 0.26379 0.08403
 H190 H -0.07730 0.18311 0.12703
 H191 H 0.08682 0.19631 0.12641
 H192 H 0.08042 0.27852 0.08330
 H193 H -0.01565 0.35530 0.16442
 H194 H -0.01103 0.27408 0.20705
 C195 C 0.28746 0.00053 0.60303
 C196 C 0.29526 0.00520 0.64656
 C197 C 0.24825 0.00199 0.66817
 C198 C 0.19661 -0.00503 0.64470
 C199 C 0.19794 0.04241 0.61566
 C200 C 0.24500 0.04555 0.59396
 C201 C 0.25604 -0.05288 0.59814
 C202 C 0.20891 -0.05607 0.61979
 H203 H 0.33472 0.01053 0.65938
 H204 H 0.24785 0.00415 0.69935
 H205 H 0.16384 0.07039 0.61169
 H206 H 0.24931 0.07626 0.57174
 H207 H 0.26932 -0.08523 0.57862
 H208 H 0.18327 -0.09153 0.61803
 C209 C -0.30848 -0.01314 0.61333
 C210 C -0.32351 -0.01011 0.65654
 C211 C -0.27994 -0.00573 0.67966
 C212 C -0.22422 -0.00483 0.65760
 C213 C -0.22423 -0.05727 0.63338
 C214 C -0.26783 -0.06176 0.61029
 C215 C -0.27330 0.03738 0.60527
 C216 C -0.22973 0.04178 0.62830
 H217 H -0.36501 -0.01347 0.66814
 H218 H -0.28579 -0.00622 0.71060
 H219 H -0.19346 -0.08935 0.63534
 H220 H -0.27310 -0.09825 0.59346
 H221 H -0.28194 0.06726 0.58310
 H222 H -0.20155 0.07556 0.62587
 C223 C -0.01076 -0.28980 0.89633
 C224 C 0.04215 -0.25771 0.90138
 C225 C 0.04572 -0.21122 0.88000
 C226 C -0.00443 -0.20020 0.85510
 C227 C -0.00995 -0.25257 0.83136
 C228 C -0.01359 -0.29894 0.85273
 C229 C -0.05672 -0.24763 0.90549
 C230 C -0.05312 -0.20118 0.88408
 H231 H 0.07387 -0.27010 0.92085
 H232 H 0.08082 -0.18514 0.88198
 H233 H -0.01094 -0.25309 0.80018
 H234 H -0.01815 -0.33878 0.83971
 H235 H -0.08918 -0.25215 0.92699
 H236 H -0.08210 -0.16758 0.88783
 C237 C 0.00379 0.30574 0.88827
 C238 C 0.05208 0.26484 0.89085
 C239 C 0.04780 0.22053 0.86769
 C240 C -0.00416 0.22004 0.84390
 C241 C -0.05143 0.22691 0.87362
 C242 C -0.04722 0.27122 0.89671
 C243 C 0.00180 0.31923 0.84511
 C244 C -0.00237 0.27492 0.82195
 H245 H 0.08802 0.27009 0.90770
 H246 H 0.07959 0.18931 0.86557
 H247 H -0.08549 0.19906 0.87630
 H248 H -0.07753 0.28082 0.91918
 H249 H 0.00566 0.36026 0.83357
 H250 H -0.00116 0.27968 0.79102
 C251 C -0.28874 -0.00186 0.39615
 C252 C -0.29687 0.00213 0.35259
 C253 C -0.24988 -0.00148 0.33090
 C254 C -0.19796 -0.00819 0.35432
 C255 C -0.20022 0.03969 0.38282
 C256 C -0.24724 0.04322 0.40460
 C257 C -0.25610 -0.05525 0.40155
 C258 C -0.20902 -0.05884 0.37980
 H259 H -0.33652 0.00728 0.33982
 H260 H -0.24969 0.00017 0.29970
 H261 H -0.16672 0.06768 0.38639
 H262 H -0.25210 0.07425 0.42651
 H263 H -0.26864 -0.08735 0.42138
 H264 H -0.18273 -0.09444 0.38174
 C265 C 0.30715 -0.01564 0.38712
 C266 C 0.27159 0.03579 0.39377
 C267 C 0.22792 0.03972 0.37069
 C268 C 0.22268 -0.00822 0.34274
 C269 C 0.27836 -0.01115 0.32067
 C270 C 0.32203 -0.01501 0.34384
 C271 C 0.26682 -0.06342 0.39164
 C272 C 0.22313 -0.05942 0.36847
 H273 H 0.28002 0.06659 0.41510
 H274 H 0.19944 0.07400 0.37221
 H275 H 0.28410 -0.01361 0.28977
 H276 H 0.36352 -0.01973 0.33230
 H277 H 0.27211 -0.09889 0.40976
 H278 H 0.19245 -0.09098 0.36759
   
