data_POSCAR
  _audit_creation_date              2014-09-24
  _audit_creation_method            'ToBaCCo'
  _symmetry_space_group_name_H-M    'P1'
  _symmetry_Int_Tables_number       1
  _symmetry_cell_setting            triclinic
  loop_
  _symmetry_equiv_pos_as_xyz
 x,y,z
_cell_length_a 66.1195
_cell_length_b 66.4916
_cell_length_c 66.5954
_cell_angle_alpha 90.030100
_cell_angle_beta 89.943200
_cell_angle_gamma 90.039400
loop_
  _atom_site_label
  _atom_site_type_symbol
  _atom_site_fract_x
  _atom_site_fract_y
  _atom_site_fract_z
N1 N 0.28210 0.24152 0.22673
 N2 N 0.27388 0.25769 0.21889
 C3 C 0.28466 0.26325 0.20264
 C4 C 0.30054 0.24984 0.20010
 C5 C 0.29835 0.23625 0.21575
 H6 H 0.28118 0.27611 0.19338
 H7 H 0.30783 0.22343 0.21901
 Cu8 Cu 0.24992 0.26987 0.23074
 Cu9 Cu 0.27116 0.22850 0.25059
 Cu10 Cu 0.22845 0.24994 0.27196
 N11 N 0.22595 0.28177 0.24288
 N12 N 0.21765 0.27389 0.25898
 C13 C 0.20143 0.28491 0.26427
 C14 C 0.19937 0.30065 0.25076
 C15 C 0.21527 0.29810 0.23738
 H16 H 0.19191 0.28164 0.27704
 H17 H 0.21885 0.30743 0.22459
 N18 N 0.24162 0.22571 0.28287
 N19 N 0.25786 0.21755 0.27475
 C20 C 0.26320 0.20131 0.28560
 C21 C 0.24968 0.19907 0.30137
 C22 C 0.23621 0.21487 0.29909
 H23 H 0.27603 0.19185 0.28222
 H24 H 0.22338 0.21829 0.30853
 H25 H 0.24164 0.23782 0.24653
 H26 H 0.25803 0.25395 0.26271
 N27 N 0.71752 -0.24167 0.22578
 N28 N 0.72600 -0.25753 0.21760
 C29 C 0.71522 -0.26306 0.20135
 C30 C 0.69902 -0.24992 0.19914
 C31 C 0.70109 -0.23653 0.21505
 H32 H 0.71898 -0.27573 0.19192
 H33 H 0.69144 -0.22395 0.21870
 Cu34 Cu 0.75030 -0.26947 0.22898
 Cu35 Cu 0.72838 -0.22882 0.24974
 Cu36 Cu 0.77111 -0.25024 0.27090
 N37 N 0.77400 -0.28162 0.24136
 N38 N 0.78205 -0.27403 0.25772
 C39 C 0.79812 -0.28519 0.26307
 C40 C 0.80041 -0.30077 0.24932
 C41 C 0.78469 -0.29791 0.23575
 H42 H 0.80737 -0.28207 0.27606
 H43 H 0.78121 -0.30696 0.22273
 N44 N 0.75784 -0.22614 0.28203
 N45 N 0.74158 -0.21799 0.27398
 C46 C 0.73617 -0.20184 0.28493
 C47 C 0.74967 -0.19963 0.30070
 C48 C 0.76320 -0.21537 0.29831
 H49 H 0.72333 -0.19239 0.28162
 H50 H 0.77604 -0.21879 0.30771
 H51 H 0.75803 -0.23772 0.24568
 H52 H 0.74168 -0.25448 0.26129
 N53 N 0.71801 0.24197 0.77344
 N54 N 0.72660 0.25776 0.78167
 C55 C 0.71583 0.26330 0.79793
 C56 C 0.69957 0.25026 0.80007
 C57 C 0.70152 0.23691 0.78418
 H58 H 0.71959 0.27588 0.80749
 H59 H 0.69169 0.22445 0.78056
 Cu60 Cu 0.75099 0.26962 0.77033
 Cu61 Cu 0.72881 0.22912 0.74944
 Cu62 Cu 0.77167 0.25042 0.72829
 N63 N 0.77472 0.28170 0.75789
 N64 N 0.78272 0.27414 0.74149
 C65 C 0.79880 0.28530 0.73608
 C66 C 0.80114 0.30086 0.74985
 C67 C 0.78546 0.29799 0.76348
 H68 H 0.80801 0.28221 0.72305
 H69 H 0.78199 0.30703 0.77651
 N70 N 0.75829 0.22638 0.71713
 N71 N 0.74197 0.21829 0.72518
 C72 C 0.73652 0.20214 0.71423
 C73 C 0.75006 0.19988 0.69848
 C74 C 0.76365 0.21559 0.70086
 H75 H 0.72364 0.19272 0.71756
 H76 H 0.77654 0.21894 0.69149
 H77 H 0.75852 0.23787 0.75351
 H78 H 0.74227 0.25476 0.73800
 N79 N 0.28241 -0.24169 0.77388
 N80 N 0.27382 -0.25750 0.78209
 C81 C 0.28457 -0.26302 0.79834
 C82 C 0.30081 -0.24997 0.80050
 C83 C 0.29887 -0.23662 0.78462
 H84 H 0.28080 -0.27561 0.80789
 H85 H 0.30869 -0.22414 0.78102
 Cu86 Cu 0.24946 -0.26937 0.77072
 Cu87 Cu 0.27166 -0.22886 0.74989
 Cu88 Cu 0.22886 -0.25019 0.72870
 N89 N 0.22575 -0.28147 0.75828
 N90 N 0.21779 -0.27391 0.74188
 C91 C 0.20171 -0.28506 0.73648
 C92 C 0.19933 -0.30061 0.75023
 C93 C 0.21499 -0.29774 0.76387
 H94 H 0.19252 -0.28196 0.72345
 H95 H 0.21842 -0.30677 0.77690
 N96 N 0.24226 -0.22615 0.71757
 N97 N 0.25855 -0.21804 0.72563
 C98 C 0.26402 -0.20190 0.71470
 C99 C 0.25054 -0.19966 0.69892
 C100 C 0.23695 -0.21537 0.70129
 H101 H 0.27689 -0.19247 0.71804
 H102 H 0.22409 -0.21875 0.69189
 H103 H 0.24193 -0.23763 0.75394
 H104 H 0.25824 -0.25451 0.73841
 N105 N 0.71841 -0.24153 0.77376
 N106 N 0.72693 -0.25737 0.78193
 C107 C 0.71616 -0.26290 0.79819
 C108 C 0.69998 -0.24980 0.80039
 C109 C 0.70197 -0.23643 0.78454
 H110 H 0.71986 -0.27554 0.80767
 H111 H 0.69223 -0.22389 0.78100
 Cu112 Cu 0.75125 -0.26927 0.77052
 Cu113 Cu 0.72919 -0.22869 0.74978
 Cu114 Cu 0.77188 -0.25010 0.72846
 N115 N 0.77488 -0.28141 0.75799
 N116 N 0.78286 -0.27384 0.74159
 C117 C 0.79891 -0.28501 0.73614
 C118 C 0.80124 -0.30058 0.74987
 C119 C 0.78558 -0.29770 0.76354
 H120 H 0.80811 -0.28190 0.72310
 H121 H 0.78213 -0.30674 0.77656
 N122 N 0.75857 -0.22604 0.71739
 N123 N 0.74232 -0.21790 0.72551
 C124 C 0.73689 -0.20175 0.71459
 C125 C 0.75035 -0.19955 0.69878
 C126 C 0.76390 -0.21528 0.70110
 H127 H 0.72405 -0.19230 0.71797
 H128 H 0.77672 -0.21869 0.69165
 H129 H 0.74251 -0.25437 0.73825
 H130 H 0.75889 -0.23753 0.75376
 N131 N 0.28263 0.24201 0.77329
 N132 N 0.27465 0.25838 0.78097
 C133 C 0.28543 0.26390 0.79721
 C134 C 0.30107 0.25027 0.79988
 C135 C 0.29874 0.23657 0.78434
 H136 H 0.28208 0.27688 0.80638
 H137 H 0.30803 0.22358 0.78121
 Cu138 Cu 0.25093 0.27088 0.76905
 Cu139 Cu 0.27155 0.22892 0.74957
 Cu140 Cu 0.22871 0.25024 0.72854
 N141 N 0.22657 0.28232 0.75735
 N142 N 0.21798 0.27419 0.74154
 C143 C 0.20154 0.28500 0.73656
 C144 C 0.19963 0.30084 0.74999
 C145 C 0.21585 0.29858 0.76299
 H146 H 0.19175 0.28151 0.72406
 H147 H 0.21963 0.30805 0.77563
 N148 N 0.24183 0.22601 0.71756
 N149 N 0.25814 0.21790 0.72556
 C150 C 0.26346 0.20167 0.71469
 C151 C 0.24986 0.19937 0.69902
 C152 C 0.23636 0.21514 0.70138
 H153 H 0.27635 0.19226 0.71796
 H154 H 0.22348 0.21853 0.69202
 H155 H 0.25844 0.25427 0.73723
 H156 H 0.24217 0.23861 0.75402
 N157 N 0.28259 -0.24126 0.22656
 N158 N 0.27435 -0.25741 0.21867
 C159 C 0.28511 -0.26294 0.20240
 C160 C 0.30101 -0.24953 0.19993
 C161 C 0.29885 -0.23597 0.21561
 H162 H 0.28164 -0.27581 0.19313
 H163 H 0.30833 -0.22315 0.21889
 Cu164 Cu 0.25035 -0.26959 0.23045
 Cu165 Cu 0.27170 -0.22830 0.25045
 Cu166 Cu 0.22893 -0.24974 0.27173
 N167 N 0.22636 -0.28147 0.24254
 N168 N 0.21806 -0.27361 0.25866
 C169 C 0.20181 -0.28460 0.26389
 C170 C 0.19971 -0.30030 0.25032
 C171 C 0.21563 -0.29776 0.23697
 H172 H 0.19225 -0.28131 0.27663
 H173 H 0.21921 -0.30709 0.22417
 N174 N 0.24216 -0.22557 0.28273
 N175 N 0.25843 -0.21742 0.27464
 C176 C 0.26383 -0.20124 0.28556
 C177 C 0.25033 -0.19903 0.30134
 C178 C 0.23680 -0.21479 0.29900
 H179 H 0.27669 -0.19179 0.28222
 H180 H 0.22397 -0.21823 0.30844
 H181 H 0.25848 -0.25377 0.26246
 H182 H 0.24214 -0.23757 0.24633
 N183 N 0.71723 0.24131 0.22641
 N184 N 0.72550 0.25744 0.21851
 C185 C 0.71477 0.26298 0.20226
 C186 C 0.69885 0.24960 0.19979
 C187 C 0.70097 0.23604 0.21547
 H188 H 0.71828 0.27583 0.19299
 H189 H 0.69146 0.22324 0.21874
 Cu190 Cu 0.74950 0.26959 0.23028
 Cu191 Cu 0.72808 0.22834 0.25029
 Cu192 Cu 0.77086 0.24974 0.27152
 N193 N 0.77350 0.28144 0.24234
 N194 N 0.78177 0.27359 0.25846
 C195 C 0.79802 0.28459 0.26369
 C196 C 0.80014 0.30027 0.25012
 C197 C 0.78424 0.29774 0.23678
 H198 H 0.80755 0.28131 0.27643
 H199 H 0.78067 0.30706 0.22399
 N200 N 0.75758 0.22560 0.28253
 N201 N 0.74131 0.21746 0.27446
 C202 C 0.73590 0.20127 0.28536
 C203 C 0.74940 0.19905 0.30112
 C204 C 0.76294 0.21481 0.29878
 H205 H 0.72304 0.19183 0.28203
 H206 H 0.77577 0.21823 0.30819
 H207 H 0.74129 0.25381 0.26230
 H208 H 0.75763 0.23757 0.24615
 C209 C 0.24049 -0.01050 0.43882
 C210 C 0.24033 0.01013 0.43879
 C211 C 0.24624 0.01616 0.45783
 N212 N 0.25007 -0.00005 0.46944
 C213 C 0.24650 -0.01637 0.45787
 C214 C 0.24919 0.03632 0.46383
 C215 C 0.25263 0.04205 0.48399
 C216 C 0.25971 0.06075 0.48999
 C217 C 0.25978 0.06076 0.51063
 C218 C 0.25276 0.04206 0.51669
 N219 N 0.24838 0.03076 0.50036
 C220 C 0.24947 0.03636 0.53688
 C221 C 0.24660 0.01621 0.54298
 C222 C 0.24088 0.01025 0.56210
 C223 C 0.24101 -0.01038 0.56212
 C224 C 0.24684 -0.01632 0.54302
 N225 N 0.25032 -0.00004 0.53136
 C226 C 0.25001 -0.03643 0.53696
 C227 C 0.25346 -0.04208 0.51678
 C228 C 0.26083 -0.06064 0.51072
 C229 C 0.26078 -0.06064 0.49007
 C230 C 0.25337 -0.04208 0.48408
 N231 N 0.24890 -0.03087 0.50044
 C232 C 0.24979 -0.03646 0.46392
 H233 H 0.23670 -0.02008 0.42623
 H234 H 0.23638 0.01959 0.42618
 H235 H 0.24102 -0.01736 0.50047
 H236 H 0.26424 0.07316 0.48048
 H237 H 0.26436 0.07319 0.52010
 H238 H 0.23707 0.01976 0.57474
 H239 H 0.23732 -0.01991 0.57478
 H240 H 0.26553 -0.07297 0.48057
 H241 H 0.24077 0.01709 0.50041
 H242 H 0.26564 -0.07296 0.52018
 C243 C 0.74937 -0.01048 0.56314
 C244 C 0.75050 0.01010 0.56315
 C245 C 0.75065 0.01609 0.54321
 N246 N 0.74981 -0.00019 0.53109
 C247 C 0.74907 -0.01647 0.54320
 C248 C 0.75100 0.03635 0.53672
 C249 C 0.75057 0.04254 0.51635
 C250 C 0.74760 0.06227 0.51026
 C251 C 0.74755 0.06224 0.48967
 C252 C 0.75049 0.04250 0.48358
 N253 N 0.75265 0.03062 0.49997
 C254 C 0.75082 0.03625 0.46322
 C255 C 0.75046 0.01599 0.45672
 C256 C 0.75020 0.01000 0.43677
 C257 C 0.74909 -0.01058 0.43676
 C258 C 0.74891 -0.01657 0.45670
 N259 N 0.74972 -0.00029 0.46883
 C260 C 0.74856 -0.03683 0.46319
 C261 C 0.74895 -0.04303 0.48356
 C262 C 0.75189 -0.06276 0.48965
 C263 C 0.75193 -0.06273 0.51025
 C264 C 0.74902 -0.04298 0.51633
 N265 N 0.74687 -0.03110 0.49994
 C266 C 0.74869 -0.03673 0.53669
 H267 H 0.74895 -0.01992 0.57637
 H268 H 0.75103 0.01954 0.57638
 H269 H 0.74282 -0.01606 0.49996
 H270 H 0.74531 0.07535 0.51967
 H271 H 0.74521 0.07530 0.48025
 H272 H 0.75064 0.01944 0.42354
 H273 H 0.74858 -0.02002 0.42353
 H274 H 0.75424 -0.07579 0.51966
 H275 H 0.75674 0.01559 0.49995
 H276 H 0.75417 -0.07584 0.48024
 C277 C 0.43786 0.24133 -0.01035
 C278 C 0.43784 0.24132 0.01025
 C279 C 0.45700 0.24731 0.01621
 N280 N 0.46869 0.25104 -0.00003
 C281 C 0.45704 0.24733 -0.01628
 C282 C 0.46307 0.25039 0.03630
 C283 C 0.48338 0.25389 0.04192
 C284 C 0.48946 0.26113 0.06050
 C285 C 0.51025 0.26116 0.06047
 C286 C 0.51632 0.25394 0.04187
 N287 N 0.49985 0.24951 0.03067
 C288 C 0.53664 0.25048 0.03620
 C289 C 0.54274 0.24745 0.01610
 C290 C 0.56193 0.24154 0.01014
 C291 C 0.56196 0.24160 -0.01046
 C292 C 0.54278 0.24755 -0.01638
 N293 N 0.53109 0.25118 -0.00013
 C294 C 0.53671 0.25068 -0.03646
 C295 C 0.51638 0.25412 -0.04207
 C296 C 0.51029 0.26139 -0.06062
 C297 C 0.48950 0.26133 -0.06059
 C298 C 0.48344 0.25403 -0.04202
 N299 N 0.49992 0.24964 -0.03083
 C300 C 0.46314 0.25047 -0.03637
 H301 H 0.42518 0.23745 -0.01985
 H302 H 0.42514 0.23742 0.01975
 H303 H 0.49994 0.24185 -0.01731
 H304 H 0.47990 0.26579 0.07286
 H305 H 0.51981 0.26584 0.07280
 H306 H 0.57462 0.23765 0.01963
 H307 H 0.57466 0.23778 -0.01998
 H308 H 0.47993 0.26601 -0.07290
 H309 H 0.49987 0.24176 0.01711
 H310 H 0.51983 0.26612 -0.07296
 C311 C 0.56245 0.73950 -0.01022
 C312 C 0.56244 0.73953 0.01038
 C313 C 0.54326 0.74546 0.01633
 N314 N 0.53158 0.74912 0.00009
 C315 C 0.54326 0.74542 -0.01616
 C316 C 0.53717 0.74859 0.03642
 C317 C 0.51685 0.75210 0.04205
 C318 C 0.51076 0.75942 0.06060
 C319 C 0.48997 0.75946 0.06058
 C320 C 0.48391 0.75215 0.04202
 N321 N 0.50039 0.74767 0.03083
 C322 C 0.46360 0.74868 0.03638
 C323 C 0.45752 0.74551 0.01630
 C324 C 0.43833 0.73956 0.01039
 C325 C 0.43833 0.73951 -0.01021
 C326 C 0.45752 0.74542 -0.01618
 N327 N 0.46920 0.74914 0.00004
 C328 C 0.46361 0.74846 -0.03629
 C329 C 0.48394 0.75192 -0.04193
 C330 C 0.49004 0.75915 -0.06050
 C331 C 0.51083 0.75917 -0.06049
 C332 C 0.51688 0.75195 -0.04191
 N333 N 0.50039 0.74753 -0.03069
 C334 C 0.53719 0.74849 -0.03625
 H335 H 0.57515 0.73565 -0.01973
 H336 H 0.57514 0.73570 0.01987
 H337 H 0.50038 0.73979 -0.01714
 H338 H 0.52031 0.76414 0.07293
 H339 H 0.48041 0.76420 0.07290
 H340 H 0.42562 0.73574 0.01991
 H341 H 0.42563 0.73563 -0.01969
 H342 H 0.52041 0.76385 -0.07283
 H343 H 0.50039 0.73986 0.01730
 H344 H 0.48051 0.76382 -0.07285
 C345 C -0.01067 0.43848 0.24012
 C346 C 0.01007 0.43850 0.24024
 C347 C 0.01601 0.45767 0.24593
 N348 N -0.00038 0.46932 0.24934
 C349 C -0.01671 0.45764 0.24572
 C350 C 0.03622 0.46378 0.24906
 C351 C 0.04186 0.48403 0.25237
 C352 C 0.06051 0.49017 0.25966
 C353 C 0.06048 0.51084 0.25950
 C354 C 0.04181 0.51678 0.25211
 N355 N 0.03057 0.50034 0.24776
 C356 C 0.03612 0.53694 0.24847
 C357 C 0.01591 0.54295 0.24518
 C358 C 0.00996 0.56199 0.23915
 C359 C -0.01078 0.56198 0.23899
 C360 C -0.01681 0.54292 0.24494
 N361 N -0.00048 0.53133 0.24877
 C362 C -0.03708 0.53688 0.24792
 C363 C -0.04280 0.51669 0.25142
 C364 C -0.06158 0.51067 0.25851
 C365 C -0.06155 0.49000 0.25869
 C366 C -0.04275 0.48393 0.25172
 N367 N -0.03142 0.50029 0.24727
 C368 C -0.03697 0.46371 0.24857
 H369 H -0.02021 0.42578 0.23641
 H370 H 0.01967 0.42583 0.23663
 H371 H -0.01768 0.50024 0.23969
 H372 H 0.07292 0.48073 0.26448
 H373 H 0.07286 0.52041 0.26418
 H374 H 0.01956 0.57462 0.23534
 H375 H -0.02033 0.57458 0.23504
 H376 H -0.07402 0.48051 0.26332
 H377 H 0.01698 0.50025 0.23994
 H378 H -0.07407 0.52019 0.26299
 C379 C -0.01026 0.56206 0.74108
 C380 C 0.01049 0.56207 0.74122
 C381 C 0.01642 0.54300 0.74720
 N382 N 0.00003 0.53139 0.75078
 C383 C -0.01630 0.54298 0.74698
 C384 C 0.03664 0.53697 0.75042
 C385 C 0.04227 0.51677 0.75400
 C386 C 0.06093 0.51076 0.76135
 C387 C 0.06089 0.49008 0.76147
 C388 C 0.04220 0.48402 0.75420
 N389 N 0.03096 0.50038 0.74964
 C390 C 0.03650 0.46380 0.75084
 C391 C 0.01628 0.45771 0.74770
 C392 C 0.01034 0.43856 0.74196
 C393 C -0.01041 0.43854 0.74182
 C394 C -0.01644 0.45769 0.74746
 N395 N -0.00010 0.46936 0.75112
 C396 C -0.03670 0.46377 0.75028
 C397 C -0.04242 0.48401 0.75351
 C398 C -0.06122 0.49010 0.76045
 C399 C -0.06117 0.51077 0.76038
 C400 C -0.04235 0.51676 0.75337
 N401 N -0.03102 0.50035 0.74917
 C402 C -0.03656 0.53695 0.74994
 H403 H -0.01980 0.57468 0.73716
 H404 H 0.02009 0.57470 0.73743
 H405 H -0.01727 0.50030 0.74162
 H406 H 0.07336 0.52028 0.76602
 H407 H 0.07327 0.48059 0.76626
 H408 H 0.01993 0.42589 0.73832
 H409 H -0.01996 0.42586 0.73807
 H410 H -0.07365 0.52031 0.76487
 H411 H 0.01736 0.50034 0.74184
 H412 H -0.07374 0.48063 0.76500
 C413 C 0.33130 0.26508 0.15427
 C414 C 0.34636 0.25032 0.15407
 C415 C 0.34648 0.23541 0.16886
 C416 C 0.33162 0.23523 0.18382
 C417 C 0.31636 0.25001 0.18420
 C418 C 0.31642 0.26495 0.16920
 C419 C 0.36166 0.25045 0.13867
 C420 C 0.37448 0.25053 0.12579
 C421 C 0.38949 0.25059 0.11070
 C422 C 0.40230 0.25062 0.09780
 C423 C 0.41759 0.25061 0.08239
 C424 C 0.43281 0.23597 0.08248
 C425 C 0.44761 0.23590 0.06748
 C426 C 0.44732 0.25049 0.05224
 C427 C 0.43207 0.26518 0.05225
 C428 C 0.41726 0.26522 0.06726
 H429 H 0.33106 0.27670 0.14287
 H430 H 0.35807 0.22389 0.16885
 H431 H 0.33219 0.22348 0.19501
 H432 H 0.30502 0.27659 0.16888
 H433 H 0.43321 0.22460 0.09413
 H434 H 0.45927 0.22447 0.06768
 H435 H 0.43169 0.27659 0.04066
 H436 H 0.40557 0.27663 0.06706
 C437 C 0.66900 0.73504 0.15399
 C438 C 0.65375 0.74957 0.15408
 C439 C 0.65346 0.76425 0.16910
 C440 C 0.66835 0.76444 0.18399
 C441 C 0.68391 0.74989 0.18413
 C442 C 0.68394 0.73516 0.16884
 C443 C 0.63842 0.74945 0.13874
 C444 C 0.62560 0.74936 0.12588
 C445 C 0.61061 0.74926 0.11080
 C446 C 0.59782 0.74918 0.09791
 C447 C 0.58257 0.74907 0.08250
 C448 C 0.56736 0.73440 0.08265
 C449 C 0.55258 0.73424 0.06765
 C450 C 0.55290 0.74876 0.05235
 C451 C 0.56814 0.76349 0.05230
 C452 C 0.58292 0.76361 0.06730
 H453 H 0.66938 0.72359 0.14242
 H454 H 0.64169 0.77559 0.16932
 H455 H 0.66750 0.77609 0.19528
 H456 H 0.69543 0.72362 0.16814
 H457 H 0.56694 0.72308 0.09434
 H458 H 0.54092 0.72279 0.06790
 H459 H 0.56854 0.77485 0.04066
 H460 H 0.59460 0.77504 0.06705
 C461 C 0.65373 0.23568 -0.16860
 C462 C 0.65352 0.25092 -0.15413
 C463 C 0.66829 0.26597 -0.15460
 C464 C 0.68324 0.26580 -0.16946
 C465 C 0.68365 0.25052 -0.18413
 C466 C 0.66866 0.23546 -0.18349
 C467 C 0.63817 0.25107 -0.13878
 C468 C 0.62532 0.25115 -0.12592
 C469 C 0.61029 0.25119 -0.11085
 C470 C 0.59747 0.25118 -0.09796
 C471 C 0.58217 0.25112 -0.08257
 C472 C 0.58248 0.26570 -0.06739
 C473 C 0.56767 0.26560 -0.05238
 C474 C 0.55244 0.25085 -0.05241
 C475 C 0.55217 0.23630 -0.06769
 C476 C 0.56698 0.23643 -0.08270
 H477 H 0.64237 0.22393 -0.16838
 H478 H 0.66827 0.27786 -0.14346
 H479 H 0.69439 0.27769 -0.16939
 H480 H 0.66840 0.22341 -0.19438
 H481 H 0.59415 0.27714 -0.06715
 H482 H 0.56804 0.27698 -0.04075
 H483 H 0.54053 0.22483 -0.06792
 H484 H 0.56659 0.22508 -0.09437
 C485 C 0.34662 0.76464 -0.16822
 C486 C 0.34682 0.74941 -0.15375
 C487 C 0.33204 0.73436 -0.15420
 C488 C 0.31710 0.73453 -0.16905
 C489 C 0.31671 0.74980 -0.18371
 C490 C 0.33170 0.76485 -0.18308
 C491 C 0.36217 0.74924 -0.13843
 C492 C 0.37502 0.74913 -0.12559
 C493 C 0.39005 0.74902 -0.11055
 C494 C 0.40287 0.74895 -0.09769
 C495 C 0.41815 0.74886 -0.08230
 C496 C 0.43331 0.73416 -0.08244
 C497 C 0.44811 0.73403 -0.06746
 C498 C 0.44787 0.74862 -0.05220
 C499 C 0.43269 0.76337 -0.05217
 C500 C 0.41788 0.76347 -0.06715
 H501 H 0.35800 0.77637 -0.16801
 H502 H 0.33205 0.72248 -0.14307
 H503 H 0.30594 0.72265 -0.16896
 H504 H 0.33199 0.77688 -0.19398
 H505 H 0.43367 0.72280 -0.09410
 H506 H 0.45973 0.72256 -0.06769
 H507 H 0.43234 0.77478 -0.04056
 H508 H 0.40624 0.77493 -0.06692
 C509 C 0.16886 0.34670 0.23569
 C510 C 0.15385 0.34697 0.25049
 C511 C 0.15368 0.33215 0.26538
 C512 C 0.16844 0.31711 0.26549
 C513 C 0.18365 0.31665 0.25066
 C514 C 0.18365 0.33168 0.23575
 C515 C 0.13860 0.36242 0.25039
 C516 C 0.12580 0.37533 0.25032
 C517 C 0.11078 0.39041 0.25022
 C518 C 0.09792 0.40325 0.25012
 C519 C 0.08252 0.41855 0.24997
 C520 C 0.06734 0.41854 0.26465
 C521 C 0.05228 0.43329 0.26440
 C522 C 0.05227 0.44816 0.24943
 C523 C 0.06757 0.44816 0.23480
 C524 C 0.08262 0.43340 0.23506
 H525 H 0.16913 0.35811 0.22407
 H526 H 0.14212 0.33221 0.27693
 H527 H 0.16783 0.30591 0.27722
 H528 H 0.19501 0.33194 0.22407
 H529 H 0.06713 0.40714 0.27626
 H530 H 0.04063 0.43315 0.27585
 H531 H 0.06777 0.45953 0.22316
 H532 H 0.09430 0.43355 0.22364
 C533 C 0.15464 0.66828 0.73541
 C534 C 0.15450 0.65376 0.75056
 C535 C 0.16921 0.65431 0.76560
 C536 C 0.18403 0.66934 0.76552
 C537 C 0.18440 0.68416 0.75034
 C538 C 0.16941 0.68334 0.73526
 C539 C 0.13922 0.63831 0.75069
 C540 C 0.12640 0.62541 0.75077
 C541 C 0.11134 0.61034 0.75083
 C542 C 0.09844 0.59752 0.75084
 C543 C 0.08299 0.58224 0.75082
 C544 C 0.06774 0.58249 0.76542
 C545 C 0.05266 0.56774 0.76533
 C546 C 0.05269 0.55262 0.75060
 C547 C 0.06805 0.55239 0.73603
 C548 C 0.08313 0.56715 0.73614
 H549 H 0.14330 0.66799 0.72368
 H550 H 0.16925 0.64312 0.77742
 H551 H 0.19508 0.66915 0.77746
 H552 H 0.16889 0.69423 0.72324
 H553 H 0.06749 0.59409 0.77686
 H554 H 0.04095 0.56807 0.77672
 H555 H 0.06829 0.54083 0.72456
 H556 H 0.09486 0.56681 0.72478
 C557 C -0.16964 0.65410 0.23387
 C558 C -0.15483 0.65359 0.24882
 C559 C -0.15486 0.66816 0.26394
 C560 C -0.16961 0.68321 0.26416
 C561 C -0.18469 0.68399 0.24917
 C562 C -0.18443 0.66912 0.23401
 C563 C -0.13956 0.63816 0.24862
 C564 C -0.12675 0.62527 0.24847
 C565 C -0.11169 0.61023 0.24834
 C566 C -0.09879 0.59742 0.24825
 C567 C -0.08334 0.58217 0.24819
 C568 C -0.06823 0.58232 0.26292
 C569 C -0.05318 0.56756 0.26285
 C570 C -0.05308 0.55255 0.24801
 C571 C -0.06828 0.55243 0.23331
 C572 C -0.08334 0.56719 0.23340
 H573 H -0.16975 0.64288 0.22207
 H574 H -0.14344 0.66792 0.27560
 H575 H -0.16900 0.69415 0.27615
 H576 H -0.19556 0.66890 0.22214
 H577 H -0.06810 0.59382 0.27445
 H578 H -0.04161 0.56781 0.27435
 H579 H -0.06841 0.54095 0.22177
 H580 H -0.09495 0.56694 0.22193
 C581 C -0.15420 0.33204 0.73501
 C582 C -0.15412 0.34659 0.75016
 C583 C -0.16885 0.34600 0.76521
 C584 C -0.18363 0.33095 0.76514
 C585 C -0.18395 0.31611 0.74995
 C586 C -0.16894 0.31695 0.73487
 C587 C -0.13890 0.36209 0.75027
 C588 C -0.12613 0.37504 0.75035
 C589 C -0.11114 0.39017 0.75042
 C590 C -0.09830 0.40306 0.75047
 C591 C -0.08292 0.41839 0.75051
 C592 C -0.06817 0.41863 0.76559
 C593 C -0.05313 0.43342 0.76555
 C594 C -0.05272 0.44811 0.75042
 C595 C -0.06759 0.44788 0.73538
 C596 C -0.08261 0.43306 0.73542
 H597 H -0.14285 0.33235 0.72327
 H598 H -0.16892 0.35720 0.77704
 H599 H -0.19469 0.33111 0.77710
 H600 H -0.16839 0.30605 0.72285
 H601 H -0.06828 0.40737 0.77735
 H602 H -0.04180 0.43344 0.77729
 H603 H -0.06747 0.45911 0.72361
 H604 H -0.09393 0.43301 0.72367
 C605 C 0.23471 0.16829 0.34718
 C606 C 0.24961 0.15338 0.34723
 C607 C 0.26453 0.15334 0.33233
 C608 C 0.26457 0.16816 0.31744
 C609 C 0.24966 0.18328 0.31720
 C610 C 0.23471 0.18313 0.33230
 C611 C 0.24958 0.13812 0.36256
 C612 C 0.24954 0.12534 0.37540
 C613 C 0.24950 0.11036 0.39042
 C614 C 0.24947 0.09755 0.40323
 C615 C 0.24944 0.08223 0.41849
 C616 C 0.23451 0.08223 0.43343
 C617 C 0.23444 0.06729 0.44821
 C618 C 0.24930 0.05221 0.44815
 C619 C 0.26428 0.05232 0.43319
 C620 C 0.26433 0.06726 0.41842
 H621 H 0.22307 0.16846 0.35864
 H622 H 0.27614 0.14186 0.33223
 H623 H 0.27634 0.16766 0.30617
 H624 H 0.22296 0.19441 0.33275
 H625 H 0.22293 0.09374 0.43363
 H626 H 0.22279 0.06741 0.45965
 H627 H 0.27590 0.04085 0.43299
 H628 H 0.27596 0.06713 0.40695
 C629 C 0.76495 0.16909 0.65263
 C630 C 0.75009 0.15411 0.65264
 C631 C 0.73520 0.15407 0.66757
 C632 C 0.73516 0.16892 0.68245
 C633 C 0.75005 0.18409 0.68263
 C634 C 0.76495 0.18396 0.66748
 C635 C 0.75015 0.13877 0.63737
 C636 C 0.75020 0.12591 0.62461
 C637 C 0.75028 0.11083 0.60968
 C638 C 0.75037 0.09793 0.59695
 C639 C 0.75049 0.08250 0.58178
 C640 C 0.73283 0.07163 0.57762
 C641 C 0.73297 0.05659 0.56294
 C642 C 0.75081 0.05228 0.55234
 C643 C 0.76846 0.06324 0.55649
 C644 C 0.76830 0.07828 0.57117
 H645 H 0.77656 0.16927 0.64114
 H646 H 0.72362 0.14253 0.66773
 H647 H 0.72343 0.16839 0.69375
 H648 H 0.77667 0.19529 0.66700
 H649 H 0.71897 0.07478 0.58572
 H650 H 0.71922 0.04829 0.55982
 H651 H 0.78230 0.06009 0.54838
 H652 H 0.78204 0.08660 0.57426
 C653 C 0.26557 -0.15394 0.66799
 C654 C 0.25071 -0.15398 0.65306
 C655 C 0.23581 -0.16891 0.65306
 C656 C 0.23574 -0.18375 0.66793
 C657 C 0.25061 -0.18389 0.68307
 C658 C 0.26554 -0.16877 0.68287
 C659 C 0.25074 -0.13867 0.63778
 C660 C 0.25075 -0.12583 0.62500
 C661 C 0.25074 -0.11078 0.61005
 C662 C 0.25070 -0.09791 0.59730
 C663 C 0.25061 -0.08253 0.58210
 C664 C 0.23569 -0.08259 0.56718
 C665 C 0.23552 -0.06759 0.55247
 C666 C 0.25025 -0.05238 0.55258
 C667 C 0.26523 -0.05243 0.56752
 C668 C 0.26539 -0.06743 0.58222
 H669 H 0.27719 -0.14245 0.66813
 H670 H 0.22422 -0.16908 0.64157
 H671 H 0.22399 -0.19505 0.66745
 H672 H 0.27725 -0.16825 0.69417
 H673 H 0.22419 -0.09421 0.56694
 H674 H 0.22387 -0.06777 0.54105
 H675 H 0.27676 -0.04085 0.56774
 H676 H 0.27701 -0.06725 0.59367
 C677 C 0.73470 -0.15402 0.33184
 C678 C 0.74958 -0.15407 0.34674
 C679 C 0.76450 -0.16897 0.34664
 C680 C 0.76455 -0.18377 0.33171
 C681 C 0.74964 -0.18390 0.31661
 C682 C 0.73470 -0.16879 0.31689
 C683 C 0.74955 -0.13883 0.36211
 C684 C 0.74950 -0.12606 0.37496
 C685 C 0.74941 -0.11107 0.38999
 C686 C 0.74931 -0.09824 0.40279
 C687 C 0.74917 -0.08289 0.41804
 C688 C 0.76684 -0.07206 0.42229
 C689 C 0.76667 -0.05706 0.43701
 C690 C 0.74880 -0.05276 0.44756
 C691 C 0.73115 -0.06369 0.44334
 C692 C 0.73134 -0.07870 0.42862
 H693 H 0.72307 -0.14255 0.33177
 H694 H 0.77611 -0.16915 0.35811
 H695 H 0.77631 -0.19504 0.33211
 H696 H 0.72296 -0.16827 0.30562
 H697 H 0.78071 -0.07519 0.41421
 H698 H 0.78041 -0.04878 0.44019
 H699 H 0.71728 -0.06055 0.45142
 H700 H 0.71759 -0.08699 0.42547
 C701 C 0.66924 0.73504 -0.15376
 C702 C 0.65399 0.74960 -0.15379
 C703 C 0.65372 0.76434 -0.16875
 C704 C 0.66863 0.76455 -0.18364
 C705 C 0.68409 0.74997 -0.18379
 C706 C 0.68417 0.73520 -0.16863
 C707 C 0.63864 0.74944 -0.13845
 C708 C 0.62580 0.74932 -0.12560
 C709 C 0.61078 0.74919 -0.11055
 C710 C 0.59796 0.74909 -0.09767
 C711 C 0.58268 0.74897 -0.08227
 C712 C 0.58290 0.76361 -0.06715
 C713 C 0.56809 0.76348 -0.05217
 C714 C 0.55294 0.74867 -0.05216
 C715 C 0.55275 0.73404 -0.06738
 C716 C 0.56757 0.73420 -0.08237
 H717 H 0.66959 0.72355 -0.14224
 H718 H 0.64197 0.77570 -0.16890
 H719 H 0.66795 0.77617 -0.19496
 H720 H 0.69572 0.72372 -0.16815
 H721 H 0.59452 0.77511 -0.06696
 H722 H 0.56838 0.77492 -0.04058
 H723 H 0.54117 0.72252 -0.06758
 H724 H 0.56725 0.72281 -0.09400
 C725 C 0.33193 0.26552 -0.15442
 C726 C 0.34671 0.25049 -0.15403
 C727 C 0.34661 0.23539 -0.16864
 C728 C 0.33179 0.23529 -0.18361
 C729 C 0.31682 0.25034 -0.18418
 C730 C 0.31710 0.26547 -0.16936
 C731 C 0.36197 0.25057 -0.13865
 C732 C 0.37476 0.25062 -0.12577
 C733 C 0.38972 0.25066 -0.11068
 C734 C 0.40250 0.25068 -0.09779
 C735 C 0.41775 0.25067 -0.08240
 C736 C 0.43294 0.23601 -0.08250
 C737 C 0.44772 0.23594 -0.06751
 C738 C 0.44742 0.25055 -0.05228
 C739 C 0.43220 0.26527 -0.05229
 C740 C 0.41742 0.26531 -0.06728
 H741 H 0.33188 0.27730 -0.14317
 H742 H 0.35799 0.22367 -0.16848
 H743 H 0.33218 0.22338 -0.19465
 H744 H 0.30592 0.27732 -0.16920
 H745 H 0.43334 0.22463 -0.09414
 H746 H 0.45937 0.22450 -0.06771
 H747 H 0.43182 0.27670 -0.04069
 H748 H 0.40574 0.27674 -0.06708
 C749 C 0.33127 0.73581 0.15361
 C750 C 0.34685 0.75003 0.15396
 C751 C 0.34750 0.76439 0.16930
 C752 C 0.33262 0.76455 0.18423
 C753 C 0.31684 0.75031 0.18405
 C754 C 0.31637 0.73593 0.16851
 C755 C 0.36216 0.74989 0.13860
 C756 C 0.37499 0.74976 0.12574
 C757 C 0.39000 0.74963 0.11067
 C758 C 0.40281 0.74949 0.09778
 C759 C 0.41810 0.74933 0.08240
 C760 C 0.43321 0.73458 0.08255
 C761 C 0.44802 0.73437 0.06756
 C762 C 0.44784 0.74892 0.05229
 C763 C 0.43270 0.76372 0.05224
 C764 C 0.41789 0.76390 0.06723
 H765 H 0.33062 0.72463 0.14179
 H766 H 0.35951 0.77548 0.16972
 H767 H 0.33362 0.77585 0.19586
 H768 H 0.30452 0.72476 0.16773
 H769 H 0.43351 0.72324 0.09422
 H770 H 0.45960 0.72285 0.06780
 H771 H 0.43241 0.77510 0.04061
 H772 H 0.40627 0.77539 0.06699
 C773 C 0.66870 0.26431 0.15349
 C774 C 0.65312 0.25008 0.15381
 C775 C 0.65243 0.23570 0.16911
 C776 C 0.66727 0.23553 0.18405
 C777 C 0.68306 0.24977 0.18391
 C778 C 0.68356 0.26417 0.16841
 C779 C 0.63784 0.25024 0.13844
 C780 C 0.62505 0.25035 0.12557
 C781 C 0.61008 0.25047 0.11049
 C782 C 0.59729 0.25055 0.09761
 C783 C 0.58203 0.25059 0.08223
 C784 C 0.56685 0.23589 0.08225
 C785 C 0.55207 0.23586 0.06726
 C786 C 0.55235 0.25054 0.05212
 C787 C 0.56755 0.26530 0.05221
 C788 C 0.58234 0.26530 0.06719
 H789 H 0.66937 0.27551 0.14170
 H790 H 0.64042 0.22462 0.16950
 H791 H 0.66624 0.22423 0.19567
 H792 H 0.69540 0.27536 0.16766
 H793 H 0.56647 0.22445 0.09382
 H794 H 0.54044 0.22438 0.06740
 H795 H 0.56792 0.27678 0.04068
 H796 H 0.59400 0.27676 0.06706
 C797 C -0.15415 0.66832 0.73494
 C798 C -0.15406 0.65377 0.75008
 C799 C -0.16878 0.65432 0.76513
 C800 C -0.18355 0.66935 0.76510
 C801 C -0.18388 0.68419 0.74993
 C802 C -0.16888 0.68338 0.73483
 C803 C -0.13883 0.63832 0.75016
 C804 C -0.12605 0.62542 0.75019
 C805 C -0.11103 0.61035 0.75020
 C806 C -0.09816 0.59753 0.75019
 C807 C -0.08275 0.58226 0.75018
 C808 C -0.06774 0.58233 0.76500
 C809 C -0.05270 0.56756 0.76495
 C810 C -0.05254 0.55263 0.75003
 C811 C -0.06765 0.55259 0.73523
 C812 C -0.08269 0.56736 0.73531
 H813 H -0.14279 0.66803 0.72320
 H814 H -0.16884 0.64311 0.77694
 H815 H -0.19461 0.66916 0.77705
 H816 H -0.16833 0.69429 0.72283
 H817 H -0.06766 0.59378 0.77658
 H818 H -0.04120 0.56774 0.77651
 H819 H -0.06772 0.54117 0.72363
 H820 H -0.09423 0.56718 0.72377
 C821 C -0.15469 0.33231 0.26514
 C822 C -0.15428 0.34655 0.24970
 C823 C -0.16871 0.34571 0.23439
 C824 C -0.18351 0.33069 0.23450
 C825 C -0.18411 0.31625 0.24997
 C826 C -0.16947 0.31727 0.26529
 C827 C -0.13904 0.36202 0.24957
 C828 C -0.12627 0.37496 0.24947
 C829 C -0.11130 0.39008 0.24935
 C830 C -0.09847 0.40296 0.24926
 C831 C -0.08311 0.41830 0.24916
 C832 C -0.06829 0.41859 0.26417
 C833 C -0.05327 0.43339 0.26400
 C834 C -0.05296 0.44802 0.24881
 C835 C -0.06790 0.44773 0.23385
 C836 C -0.08290 0.43291 0.23402
 H837 H -0.14357 0.33283 0.27708
 H838 H -0.16852 0.35666 0.22235
 H839 H -0.19440 0.33047 0.22240
 H840 H -0.16937 0.30655 0.27749
 H841 H -0.06834 0.40737 0.27597
 H842 H -0.04188 0.43347 0.27569
 H843 H -0.06785 0.45893 0.22205
 H844 H -0.09429 0.43281 0.22233
 C845 C 0.15348 0.33193 0.73611
 C846 C 0.15385 0.34686 0.75090
 C847 C 0.16910 0.34677 0.76542
 C848 C 0.18396 0.33183 0.76517
 C849 C 0.18379 0.31671 0.75034
 C850 C 0.16832 0.31697 0.73581
 C851 C 0.13859 0.36227 0.75114
 C852 C 0.12581 0.37518 0.75129
 C853 C 0.11082 0.39027 0.75141
 C854 C 0.09801 0.40315 0.75146
 C855 C 0.08267 0.41848 0.75143
 C856 C 0.06759 0.41850 0.76622
 C857 C 0.05258 0.43329 0.76608
 C858 C 0.05251 0.44817 0.75112
 C859 C 0.06771 0.44814 0.73639
 C860 C 0.08272 0.43335 0.73654
 H861 H 0.14173 0.33186 0.72478
 H862 H 0.16952 0.35827 0.77695
 H863 H 0.19552 0.33223 0.77662
 H864 H 0.16758 0.30568 0.72414
 H865 H 0.06743 0.40708 0.77781
 H866 H 0.04100 0.43317 0.77760
 H867 H 0.06785 0.45951 0.72475
 H868 H 0.09431 0.43346 0.72503
 C869 C 0.16849 0.65435 0.23450
 C870 C 0.15399 0.65356 0.24978
 C871 C 0.15439 0.66780 0.26523
 C872 C 0.16923 0.68278 0.26543
 C873 C 0.18393 0.68376 0.25013
 C874 C 0.18335 0.66932 0.23465
 C875 C 0.13868 0.63818 0.24958
 C876 C 0.12583 0.62531 0.24943
 C877 C 0.11075 0.61029 0.24928
 C878 C 0.09784 0.59749 0.24915
 C879 C 0.08238 0.58225 0.24902
 C880 C 0.06710 0.58247 0.26359
 C881 C 0.05203 0.56771 0.26344
 C882 C 0.05212 0.55262 0.24867
 C883 C 0.06750 0.55244 0.23413
 C884 C 0.08257 0.56720 0.23431
 H885 H 0.16831 0.64340 0.22245
 H886 H 0.14323 0.66732 0.27715
 H887 H 0.16910 0.69351 0.27764
 H888 H 0.19428 0.66951 0.22258
 H889 H 0.06683 0.59403 0.27506
 H890 H 0.04032 0.56800 0.27481
 H891 H 0.06777 0.54090 0.22265
 H892 H 0.09433 0.56689 0.22297
 C893 C 0.76509 -0.16889 0.65284
 C894 C 0.75015 -0.15402 0.65282
 C895 C 0.73528 -0.15398 0.66775
 C896 C 0.73532 -0.16875 0.68268
 C897 C 0.75028 -0.18383 0.68290
 C898 C 0.76518 -0.18369 0.66775
 C899 C 0.75009 -0.13878 0.63748
 C900 C 0.75000 -0.12599 0.62467
 C901 C 0.74987 -0.11098 0.60970
 C902 C 0.74972 -0.09814 0.59695
 C903 C 0.74950 -0.08277 0.58175
 C904 C 0.73159 -0.07850 0.57138
 C905 C 0.73134 -0.06349 0.55670
 C906 C 0.74899 -0.05263 0.55231
 C907 C 0.76694 -0.05701 0.56265
 C908 C 0.76718 -0.07201 0.57735
 H909 H 0.77669 -0.16906 0.64133
 H910 H 0.72364 -0.14252 0.66787
 H911 H 0.72359 -0.16824 0.69398
 H912 H 0.77695 -0.19494 0.66730
 H913 H 0.71784 -0.08675 0.57467
 H914 H 0.71741 -0.06029 0.54877
 H915 H 0.78068 -0.04878 0.55934
 H916 H 0.78111 -0.07522 0.58527
 C917 C 0.23551 -0.16841 0.34729
 C918 C 0.25047 -0.15354 0.34739
 C919 C 0.26538 -0.15348 0.33249
 C920 C 0.26536 -0.16824 0.31753
 C921 C 0.25037 -0.18332 0.31724
 C922 C 0.23544 -0.18319 0.33235
 C923 C 0.25050 -0.13832 0.36275
 C924 C 0.25051 -0.12556 0.37561
 C925 C 0.25049 -0.11060 0.39063
 C926 C 0.25046 -0.09779 0.40344
 C927 C 0.25038 -0.08247 0.41870
 C928 C 0.26510 -0.06732 0.41853
 C929 C 0.26496 -0.05236 0.43328
 C930 C 0.25004 -0.05240 0.44830
 C931 C 0.23535 -0.06766 0.44846
 C932 C 0.23552 -0.08262 0.43371
 H933 H 0.22388 -0.16859 0.35877
 H934 H 0.27704 -0.14202 0.33242
 H935 H 0.27711 -0.16773 0.30626
 H936 H 0.22365 -0.19444 0.33275
 H937 H 0.27667 -0.06708 0.40700
 H938 H 0.27644 -0.04073 0.43301
 H939 H 0.22375 -0.06789 0.45995
 H940 H 0.22406 -0.09428 0.43398
 C941 C 0.76425 0.16840 0.34697
 C942 C 0.74936 0.15346 0.34702
 C943 C 0.73448 0.15337 0.33212
 C944 C 0.73446 0.16817 0.31722
 C945 C 0.74937 0.18331 0.31698
 C946 C 0.76428 0.18322 0.33209
 C947 C 0.74940 0.13819 0.36232
 C948 C 0.74948 0.12539 0.37512
 C949 C 0.74961 0.11039 0.39010
 C950 C 0.74976 0.09756 0.40287
 C951 C 0.74998 0.08223 0.41809
 C952 C 0.73231 0.07145 0.42250
 C953 C 0.73256 0.05647 0.43722
 C954 C 0.75050 0.05215 0.44760
 C955 C 0.76815 0.06302 0.44321
 C956 C 0.76788 0.07800 0.42849
 H957 H 0.77586 0.16860 0.35844
 H958 H 0.72287 0.14186 0.33202
 H959 H 0.72273 0.16763 0.30594
 H960 H 0.77602 0.19452 0.33253
 H961 H 0.71839 0.07461 0.41456
 H962 H 0.71883 0.04822 0.44053
 H963 H 0.78207 0.05986 0.45116
 H964 H 0.78162 0.08626 0.42520
 C965 C 0.23488 0.16861 0.65323
 C966 C 0.24976 0.15367 0.65318
 C967 C 0.26465 0.15361 0.66806
 C968 C 0.26470 0.16843 0.68296
 C969 C 0.24982 0.18358 0.68320
 C970 C 0.23489 0.18345 0.66811
 C971 C 0.24973 0.13840 0.63786
 C972 C 0.24973 0.12561 0.62504
 C973 C 0.24972 0.11060 0.61005
 C974 C 0.24972 0.09777 0.59727
 C975 C 0.24972 0.08240 0.58205
 C976 C 0.23453 0.08210 0.56740
 C977 C 0.23448 0.06712 0.55266
 C978 C 0.24958 0.05229 0.55250
 C979 C 0.26481 0.05269 0.56718
 C980 C 0.26487 0.06769 0.58189
 H981 H 0.22327 0.16879 0.64177
 H982 H 0.27624 0.14210 0.66816
 H983 H 0.27645 0.16790 0.69423
 H984 H 0.22317 0.19476 0.66767
 H985 H 0.22274 0.09340 0.56740
 H986 H 0.22264 0.06701 0.54143
 H987 H 0.27661 0.04140 0.56719
 H988 H 0.27669 0.06781 0.59314
   
