data_POSCAR
  _audit_creation_date              2014-09-24
  _audit_creation_method            'ToBaCCo'
  _symmetry_space_group_name_H-M    'P1'
  _symmetry_Int_Tables_number       1
  _symmetry_cell_setting            triclinic
  loop_
  _symmetry_equiv_pos_as_xyz
 x,y,z
_cell_length_a 34.9023
_cell_length_b 34.8613
_cell_length_c 12.2663
_cell_angle_alpha 89.931400
_cell_angle_beta 90.059900
_cell_angle_gamma 119.958400
loop_
  _atom_site_label
  _atom_site_type_symbol
  _atom_site_fract_x
  _atom_site_fract_y
  _atom_site_fract_z
O1 O 0.19278 0.45862 0.39370
 O2 O 0.26849 0.45952 0.60452
 O3 O 0.19282 0.45836 0.60550
 O4 O 0.26823 0.45982 0.39445
 O5 O 0.30407 0.53306 0.39470
 O6 O 0.22851 0.53157 0.60607
 O7 O 0.30434 0.53273 0.60506
 O8 O 0.22846 0.53182 0.39395
 Cu9 Cu 0.22688 0.45171 0.49963
 Cu10 Cu 0.26982 0.53969 0.50014
 C11 C 0.19759 0.49504 0.35883
 C12 C 0.29982 0.49623 0.63850
 C13 C 0.19757 0.49470 0.64044
 C14 C 0.29937 0.49663 0.36056
 O15 O 0.54111 -0.19208 0.60806
 O16 O 0.53989 -0.26799 0.39754
 O17 O 0.54105 -0.19253 0.39614
 O18 O 0.53998 -0.26787 0.60759
 O19 O 0.46684 -0.30376 0.60774
 O20 O 0.46792 -0.22826 0.39600
 O21 O 0.46674 -0.30388 0.39739
 O22 O 0.46801 -0.22781 0.60822
 Cu23 Cu 0.54787 -0.22639 0.50253
 Cu24 Cu 0.45999 -0.26940 0.50256
 C25 C 0.50479 -0.19675 0.64277
 C26 C 0.50316 -0.29921 0.36339
 C27 C 0.50469 -0.19748 0.36086
 C28 C 0.50327 -0.29920 0.64131
 O29 O 1.19152 0.73441 0.60101
 O30 O 1.26714 0.80975 0.39078
 O31 O 1.19200 0.73504 0.38966
 O32 O 1.26622 0.80919 0.60246
 O33 O 1.30274 0.77249 0.60301
 O34 O 1.22834 0.69815 0.38995
 O35 O 1.30359 0.77300 0.39104
 O36 O 1.22790 0.69756 0.60159
 Cu37 Cu 1.22559 0.77582 0.49582
 Cu38 Cu 1.26935 0.73161 0.49634
 C39 C 1.19666 0.70300 0.63600
 C40 C 1.29844 0.80443 0.35624
 C41 C 1.19723 0.70371 0.35498
 C42 C 1.29723 0.80363 0.63800
 O43 O 0.80777 0.54053 0.39561
 O44 O 0.73265 0.54166 0.60493
 O45 O 0.80718 0.54054 0.60539
 O46 O 0.73374 0.54213 0.39293
 O47 O 0.69619 0.46892 0.39244
 O48 O 0.76985 0.46730 0.60512
 O49 O 0.69519 0.46848 0.60477
 O50 O 0.77034 0.46730 0.39510
 Cu51 Cu 0.77396 0.54860 0.49990
 Cu52 Cu 0.72894 0.46060 0.49948
 C53 C 0.80229 0.50375 0.36173
 C54 C 0.70094 0.50528 0.63944
 C55 C 0.80165 0.50371 0.63897
 C56 C 0.70238 0.50583 0.35734
 O57 O 0.45994 0.19111 0.60447
 O58 O 0.45934 0.26660 0.39468
 O59 O 0.45984 0.19191 0.39449
 O60 O 0.45843 0.26549 0.60656
 O61 O 0.53156 0.30284 0.60754
 O62 O 0.53300 0.22898 0.39525
 O63 O 0.53246 0.30382 0.39533
 O64 O 0.53307 0.22831 0.60556
 Cu65 Cu 0.45202 0.22515 0.50007
 Cu66 Cu 0.53991 0.26989 0.50113
 C67 C 0.49658 0.19634 0.63859
 C68 C 0.49579 0.29814 0.36007
 C69 C 0.49657 0.19742 0.36077
 C70 C 0.49472 0.29689 0.64199
 O71 O 0.80804 0.26854 0.60591
 O72 O 0.73242 0.19293 0.39636
 O73 O 0.80766 0.26784 0.39543
 O74 O 0.73312 0.19328 0.60658
 O75 O 0.69646 0.22987 0.60653
 O76 O 0.77127 0.30469 0.39512
 O77 O 0.69587 0.22961 0.39599
 O78 O 0.77157 0.30529 0.60592
 Cu79 Cu 0.77401 0.22697 0.50111
 Cu80 Cu 0.73012 0.27110 0.50089
 C81 C 0.80313 0.30020 0.63974
 C82 C 0.70083 0.19794 0.36247
 C83 C 0.80263 0.29937 0.36124
 C84 C 0.70163 0.19836 0.64037
 O85 O 0.93898 0.40362 0.20024
 O86 O 0.88956 0.41254 0.09467
 C87 C 0.89920 0.39345 0.17193
 O88 O 1.06201 0.60006 0.19083
 O89 O 1.11105 0.58888 0.08997
 C90 C 1.10169 0.60981 0.16291
 O91 O 0.93853 0.53516 0.20048
 O92 O 0.88935 0.47637 0.09604
 C93 C 0.89881 0.50521 0.17291
 O94 O 1.06227 0.46194 0.19013
 O95 O 1.11120 0.52281 0.09077
 C96 C 1.10195 0.49232 0.16336
 Zr97 Zr 1.00041 0.45126 0.13331
 O98 O 1.00167 0.44532 0.30471
 O99 O 0.99918 0.39050 0.11231
 Zr100 Zr 1.00014 0.54832 0.13583
 O101 O 1.00426 0.55110 0.30814
 O102 O 0.99539 0.60655 0.13112
 O103 O 0.96110 0.48008 0.15660
 O104 O 1.03851 0.51895 0.15479
 O105 O 1.06179 0.46200 -0.19500
 O106 O 1.11093 0.52269 -0.09546
 C107 C 1.10150 0.49221 -0.16793
 O108 O 0.93819 0.53460 -0.20420
 O109 O 0.88914 0.47668 -0.09715
 C110 C 0.89851 0.50517 -0.17483
 O111 O 1.06158 0.59989 -0.19604
 O112 O 1.11086 0.58877 -0.09596
 C113 C 1.10134 0.60960 -0.16908
 O114 O 0.93817 0.40295 -0.20301
 O115 O 0.88917 0.41269 -0.09840
 C116 C 0.89848 0.39319 -0.17520
 Zr117 Zr 0.99994 0.45186 -0.13975
 O118 O 1.00397 0.45307 -0.31212
 O119 O 0.99584 0.38920 -0.13542
 Zr120 Zr 0.99983 0.54908 -0.13734
 O121 O 1.00220 0.55664 -0.30853
 O122 O 0.99520 0.60715 -0.12123
 Zr123 Zr 0.93367 0.46682 -0.00162
 Zr124 Zr 1.06634 0.53337 -0.00243
 O125 O 1.03801 0.51958 -0.15934
 O126 O 0.96068 0.48086 -0.16033
 O127 O 1.04017 0.46422 -0.00345
 O128 O 0.96093 0.53600 -0.00053
 O129 O 0.96110 0.42506 -0.00282
 O130 O 1.03997 0.57621 -0.00097
 H131 H 1.05807 0.52878 0.21958
 H132 H 0.94048 0.54799 -0.00023
 H133 H 1.05725 0.52917 -0.22466
 H134 H 0.94087 0.39258 -0.00274
 H135 H 1.02193 0.62968 0.09318
 H136 H 1.02450 0.63149 -0.09814
 H137 H 1.00024 0.52959 -0.33949
 H138 H 0.97983 0.45733 -0.34073
 H139 H 1.02091 0.39225 -0.09106
 H140 H 0.99835 0.37900 0.18667
 H141 H 1.00779 0.47395 0.33578
 H142 H 0.98154 0.52185 0.33626
 O143 O 0.40386 0.46535 0.19948
 O144 O 0.41298 0.52383 0.09411
 C145 C 0.39386 0.49512 0.17131
 O146 O 0.60059 0.53896 0.18852
 O147 O 0.58922 0.47843 0.08886
 C148 C 0.61021 0.50884 0.16138
 O149 O 0.53488 0.59659 0.19958
 O150 O 0.47667 0.58769 0.09372
 C151 C 0.50521 0.60672 0.17137
 O152 O 0.46308 0.40086 0.19171
 O153 O 0.52339 0.41221 0.09094
 C154 C 0.49329 0.39135 0.16451
 Zr155 Zr 0.45252 0.45229 0.13564
 O156 O 0.45257 0.44840 0.30798
 O157 O 0.39147 0.39261 0.12348
 Zr158 Zr 0.54945 0.54966 0.13138
 O159 O 0.55764 0.55448 0.30240
 O160 O 0.60714 0.61253 0.11473
 O161 O 0.48138 0.52056 0.15551
 O162 O 0.52022 0.48205 0.15406
 O163 O 0.46152 0.39939 -0.19222
 O164 O 0.52275 0.41162 -0.09408
 C165 C 0.49200 0.39016 -0.16558
 O166 O 0.53469 0.59713 -0.20477
 O167 O 0.47614 0.58746 -0.09944
 C168 C 0.50486 0.60694 -0.17633
 O169 O 0.59935 0.53783 -0.19836
 O170 O 0.58858 0.47772 -0.09706
 C171 C 0.60917 0.50781 -0.17086
 O172 O 0.40334 0.46485 -0.20442
 O173 O 0.41239 0.52328 -0.09920
 C174 C 0.39317 0.49451 -0.17633
 Zr175 Zr 0.45099 0.45098 -0.13729
 O176 O 0.44749 0.44366 -0.30859
 O177 O 0.38850 0.39272 -0.12252
 Zr178 Zr 0.54790 0.54829 -0.14205
 O179 O 0.55048 0.54653 -0.31442
 O180 O 0.60608 0.61118 -0.13918
 Zr181 Zr 0.46686 0.53343 -0.00291
 Zr182 Zr 0.53356 0.46740 -0.00303
 O183 O 0.51849 0.48051 -0.16019
 O184 O 0.47963 0.51914 -0.16150
 O185 O 0.46456 0.42437 -0.00048
 O186 O 0.53594 0.57532 -0.00525
 O187 O 0.42525 0.46426 -0.00061
 O188 O 0.57624 0.53657 -0.00558
 H189 H 0.53003 0.47258 0.21944
 H190 H 0.54787 0.60776 -0.00529
 H191 H 0.52783 0.47056 -0.22540
 H192 H 0.39280 0.45209 -0.00035
 H193 H 0.63147 0.60777 0.09042
 H194 H 0.62920 0.60781 -0.10095
 H195 H 0.52291 0.54414 -0.34344
 H196 H 0.46601 0.47357 -0.33936
 H197 H 0.39302 0.37031 -0.08402
 H198 H 0.38172 0.38284 0.19934
 H199 H 0.45834 0.47728 0.33700
 H200 H 0.52911 0.53207 0.33390
 O201 O 0.46473 0.06146 0.19960
 O202 O 0.52346 0.11055 0.09498
 C203 C 0.49467 0.10115 0.17169
 O204 O 0.53755 -0.06254 0.19194
 O205 O 0.47721 -0.11164 0.09165
 C206 C 0.50746 -0.10226 0.16471
 O207 O 0.59574 0.06099 0.20231
 O208 O 0.58720 0.11038 0.09555
 C209 C 0.60610 0.10083 0.17354
 O210 O 0.39996 -0.06208 0.19222
 O211 O 0.41144 -0.11136 0.09305
 C212 C 0.39046 -0.10188 0.16572
 Zr213 Zr 0.45161 -0.00038 0.13611
 O214 O 0.44724 -0.00418 0.30838
 O215 O 0.39215 0.00135 0.12209
 Zr216 Zr 0.54868 -0.00053 0.13425
 O217 O 0.55316 -0.00368 0.30544
 O218 O 0.61138 0.00417 0.11908
 O219 O 0.51977 0.03875 0.15713
 O220 O 0.48109 -0.03861 0.15580
 O221 O 0.39949 -0.06206 -0.19280
 O222 O 0.41103 -0.11135 -0.09355
 C223 C 0.38999 -0.10183 -0.16596
 O224 O 0.59691 0.06141 -0.20165
 O225 O 0.58720 0.11052 -0.09718
 C226 C 0.60672 0.10112 -0.17354
 O227 O 0.53751 -0.06244 -0.19514
 O228 O 0.47716 -0.11155 -0.09481
 C229 C 0.50738 -0.10221 -0.16796
 O230 O 0.46512 0.06126 -0.20444
 O231 O 0.52326 0.11052 -0.09844
 C232 C 0.49471 0.10106 -0.17612
 Zr233 Zr 0.45091 -0.00029 -0.13668
 O234 O 0.44388 -0.00388 -0.30806
 O235 O 0.39280 0.00428 -0.12297
 Zr236 Zr 0.54794 -0.00049 -0.13900
 O237 O 0.54675 -0.00486 -0.31134
 O238 O 0.61065 0.00386 -0.13433
 Zr239 Zr 0.53304 0.06607 -0.00134
 Zr240 Zr 0.46664 -0.06681 -0.00119
 O241 O 0.48026 -0.03859 -0.15831
 O242 O 0.51905 0.03889 -0.15986
 O243 O 0.42390 -0.04041 -0.00005
 O244 O 0.57471 0.03853 -0.00227
 O245 O 0.46398 0.03886 -0.00030
 O246 O 0.53575 -0.04058 -0.00236
 H247 H 0.47146 -0.05779 0.22134
 H248 H 0.60713 0.05887 -0.00191
 H249 H 0.47046 -0.05788 -0.22358
 H250 H 0.45194 0.05929 -0.00056
 H251 H 0.60652 -0.02503 0.09523
 H252 H 0.60706 -0.02276 -0.09621
 H253 H 0.54410 0.02015 -0.34078
 H254 H 0.47343 0.00538 -0.33833
 H255 H 0.37023 -0.02269 -0.08512
 H256 H 0.38225 0.00158 0.19764
 H257 H 0.47608 0.01872 0.33787
 H258 H 0.53040 0.00208 0.33628
 C259 C 1.16599 0.49449 0.28277
 C260 C 1.13769 0.49364 0.22454
 C261 C 0.50297 0.66874 0.28973
 C262 C 0.50356 0.64082 0.23300
 C263 C 0.32824 -0.16568 0.28500
 C264 C 0.35589 -0.13752 0.22687
 C265 C 0.83440 0.50348 0.28927
 C266 C 0.86305 0.50388 0.23356
 C267 C 0.49539 0.32936 0.28408
 C268 C 0.49464 0.35691 0.22582
 C269 C 0.66860 0.16552 0.29007
 C270 C 0.64046 0.13668 0.23444
 C271 C 0.49666 0.16568 -0.29305
 C272 C 0.49615 0.13693 -0.23714
 C273 C 0.67128 0.50584 -0.28970
 C274 C 0.64369 0.50662 -0.23192
 C275 C 0.83377 0.33065 -0.29162
 C276 C 0.86256 0.35874 -0.23573
 C277 C 0.50538 -0.16647 -0.28638
 C278 C 0.50619 -0.13802 -0.22873
 C279 C 0.33048 0.49634 -0.29301
 C280 C 0.35870 0.49586 -0.23713
 C281 C 1.16509 0.67171 -0.28842
 C282 C 1.13688 0.64411 -0.23039
 C283 C 0.83378 0.50340 -0.28912
 C284 C 0.86263 0.50386 -0.23439
 C285 C 0.49398 0.32788 -0.28264
 C286 C 0.49310 0.35548 -0.22541
 C287 C 0.66955 0.16600 -0.28758
 C288 C 0.64132 0.13704 -0.23282
 C289 C 1.16570 0.49401 -0.28478
 C290 C 1.13721 0.49322 -0.22785
 C291 C 0.50309 0.67004 -0.29075
 C292 C 0.50353 0.64162 -0.23575
 C293 C 0.32810 -0.16532 -0.28535
 C294 C 0.35553 -0.13733 -0.22688
 C295 C 0.50530 -0.16609 0.28439
 C296 C 0.50616 -0.13789 0.22592
 C297 C 0.33142 0.49690 0.28752
 C298 C 0.35951 0.49645 0.23167
 C299 C 1.16572 0.67242 0.27974
 C300 C 1.13740 0.64462 0.22261
 C301 C 0.49673 0.16560 0.28764
 C302 C 0.49614 0.13695 0.23186
 C303 C 0.67181 0.50664 0.28070
 C304 C 0.64456 0.50758 0.22228
 C305 C 0.83477 0.33122 0.28834
 C306 C 0.86352 0.35918 0.23258
   
