data_POSCAR
  _audit_creation_date              2014-09-24
  _audit_creation_method            'ToBaCCo'
  _symmetry_space_group_name_H-M    'P1'
  _symmetry_Int_Tables_number       1
  _symmetry_cell_setting            triclinic
  loop_
  _symmetry_equiv_pos_as_xyz
 x,y,z
_cell_length_a 57.3127
_cell_length_b 57.5513
_cell_length_c 57.3800
_cell_angle_alpha 89.998600
_cell_angle_beta 89.965900
_cell_angle_gamma 89.976200
loop_
  _atom_site_label
  _atom_site_type_symbol
  _atom_site_fract_x
  _atom_site_fract_y
  _atom_site_fract_z
N1 N 0.15321 0.16941 0.21808
 N2 N 0.16955 0.15334 0.21789
 C3 C 0.16619 0.13889 0.23607
 C4 C 0.14665 0.14631 0.24817
 C5 C 0.13887 0.16573 0.23629
 H6 H 0.17696 0.12401 0.24016
 H7 H 0.12373 0.17618 0.24040
 Cu8 Cu 0.19343 0.15316 0.19363
 Cu9 Cu 0.15096 0.19290 0.19373
 Cu10 Cu 0.19486 0.19428 0.15222
 N11 N 0.21750 0.15301 0.16958
 N12 N 0.21796 0.16932 0.15352
 C13 C 0.23619 0.16557 0.13920
 C14 C 0.24783 0.14588 0.14668
 C15 C 0.23551 0.13833 0.16603
 H16 H 0.24066 0.17636 0.12442
 H17 H 0.23947 0.12335 0.17670
 N18 N 0.16978 0.21786 0.15392
 N19 N 0.15317 0.21752 0.16990
 C20 C 0.13866 0.23560 0.16625
 C21 C 0.14647 0.24778 0.14703
 C22 C 0.16620 0.23611 0.13965
 H23 H 0.12338 0.23952 0.17658
 H24 H 0.17696 0.24052 0.12482
 H25 H 0.16845 0.17554 0.16740
 H26 H 0.18613 0.19423 0.18717
 N27 N -0.15271 0.83116 0.21709
 N28 N -0.16919 0.84706 0.21704
 C29 C -0.16580 0.86154 0.23520
 C30 C -0.14621 0.85421 0.24718
 C31 C -0.13834 0.83491 0.23524
 H32 H -0.17670 0.87628 0.23946
 H33 H -0.12331 0.82438 0.23949
 Cu34 Cu -0.19330 0.84711 0.19313
 Cu35 Cu -0.15118 0.80657 0.19384
 Cu36 Cu -0.19432 0.80626 0.15139
 N37 N -0.21735 0.84701 0.16913
 N38 N -0.21761 0.83091 0.15287
 C39 C -0.23578 0.83472 0.13850
 C40 C -0.24754 0.85427 0.14617
 C41 C -0.23539 0.86166 0.16565
 H42 H -0.24007 0.82411 0.12355
 H43 H -0.23940 0.87658 0.17639
 N44 N -0.16919 0.78285 0.15284
 N45 N -0.15270 0.78307 0.16891
 C46 C -0.13825 0.76496 0.16529
 C47 C -0.14601 0.75283 0.14606
 C48 C -0.16561 0.76460 0.13856
 H49 H -0.12323 0.76076 0.17588
 H50 H -0.17642 0.76011 0.12381
 H51 H -0.16797 0.82454 0.16753
 H52 H -0.18644 0.80577 0.18655
 N53 N -0.15263 0.16944 -0.21723
 N54 N -0.16903 0.15347 -0.21710
 C55 C -0.16562 0.13898 -0.23526
 C56 C -0.14606 0.14634 -0.24729
 C57 C -0.13826 0.16568 -0.23540
 H58 H -0.17647 0.12421 -0.23948
 H59 H -0.12324 0.17623 -0.23967
 Cu60 Cu -0.19313 0.15333 -0.19312
 Cu61 Cu -0.15108 0.19400 -0.19394
 Cu62 Cu -0.19391 0.19393 -0.15115
 N63 N -0.21714 0.15338 -0.16904
 N64 N -0.21728 0.16935 -0.15264
 C65 C -0.23547 0.16556 -0.13827
 C66 C -0.24739 0.14616 -0.14607
 C67 C -0.23530 0.13886 -0.16565
 H68 H -0.23971 0.17612 -0.12326
 H69 H -0.23945 0.12410 -0.17655
 N70 N -0.16882 0.21739 -0.15258
 N71 N -0.15253 0.21740 -0.16887
 C72 C -0.13815 0.23557 -0.16529
 C73 C -0.14576 0.24753 -0.14586
 C74 C -0.16520 0.23557 -0.13822
 H75 H -0.12326 0.23992 -0.17602
 H76 H -0.17591 0.23991 -0.12332
 H77 H -0.16751 0.17581 -0.16774
 H78 H -0.18627 0.19465 -0.18642
 N79 N 0.15315 0.83123 -0.21706
 N80 N 0.16970 0.84706 -0.21708
 C81 C 0.16635 0.86151 -0.23526
 C82 C 0.14671 0.85427 -0.24721
 C83 C 0.13878 0.83503 -0.23522
 H84 H 0.17732 0.87618 -0.23957
 H85 H 0.12373 0.82453 -0.23947
 Cu86 Cu 0.19382 0.84706 -0.19315
 Cu87 Cu 0.15162 0.80659 -0.19384
 Cu88 Cu 0.19514 0.80593 -0.15175
 N89 N 0.21802 0.84687 -0.16927
 N90 N 0.21842 0.83061 -0.15316
 C91 C 0.23656 0.83444 -0.13875
 C92 C 0.24817 0.85416 -0.14623
 C93 C 0.23593 0.86162 -0.16564
 H94 H 0.24095 0.82374 -0.12389
 H95 H 0.23978 0.87670 -0.17622
 N96 N 0.16995 0.78255 -0.15312
 N97 N 0.15324 0.78300 -0.16895
 C98 C 0.13862 0.76505 -0.16513
 C99 C 0.14650 0.75281 -0.14600
 C100 C 0.16635 0.76434 -0.13879
 H101 H 0.12337 0.76109 -0.17547
 H102 H 0.17727 0.75977 -0.12414
 H103 H 0.16856 0.82435 -0.16754
 H104 H 0.18678 0.80570 -0.18688
 N105 N 0.16956 1.15320 0.78259
 N106 N 0.15339 1.16942 0.78280
 C107 C 0.13872 1.16584 0.76480
 C108 C 0.14616 1.14637 0.75279
 C109 C 0.16576 1.13877 0.76453
 H110 H 0.12380 1.17657 0.76065
 H111 H 0.17661 1.12406 0.76005
 Cu112 Cu 0.15332 1.19360 0.80664
 Cu113 Cu 0.19505 1.15302 0.80493
 Cu114 Cu 0.19397 1.19421 0.84888
 N115 N 0.15355 1.21761 0.83060
 N116 N 0.16943 1.21758 0.84715
 C117 C 0.16558 1.23563 0.86156
 C118 C 0.14627 1.24761 0.85364
 C119 C 0.13903 1.23575 0.83397
 H120 H 0.17604 1.23976 0.87668
 H121 H 0.12424 1.23999 0.82309
 N122 N 0.21735 1.16908 0.84736
 N123 N 0.21764 1.15317 0.83077
 C124 C 0.23577 1.13872 0.83441
 C125 C 0.24743 1.14598 0.85414
 C126 C 0.23534 1.16520 0.86195
 H127 H 0.24039 1.12416 0.82342
 H128 H 0.23954 1.17567 0.87701
 H129 H 0.17632 1.16821 0.83150
 H130 H 0.19498 1.18798 0.81372
 N131 N 0.83108 0.84643 0.78240
 N132 N 0.84745 0.83040 0.78281
 C133 C 0.86220 0.83399 0.76488
 C134 C 0.85463 0.85330 0.75268
 C135 C 0.83488 0.86076 0.76426
 H136 H 0.87729 0.82342 0.76091
 H137 H 0.82417 0.87560 0.75987
 Cu138 Cu 0.84752 0.80657 0.80689
 Cu139 Cu 0.80631 0.84788 0.80558
 Cu140 Cu 0.80696 0.80594 0.84908
 N141 N 0.84757 0.78275 0.83097
 N142 N 0.83164 0.78278 0.84749
 C143 C 0.83533 0.76461 0.86178
 C144 C 0.85459 0.75259 0.85380
 C145 C 0.86196 0.76452 0.83423
 H146 H 0.82476 0.76038 0.87680
 H147 H 0.87663 0.76014 0.82322
 N148 N 0.78336 0.83076 0.84745
 N149 N 0.78292 0.84652 0.83073
 C150 C 0.76465 0.86081 0.83430
 C151 C 0.75309 0.85363 0.85413
 C152 C 0.76535 0.83457 0.86204
 H153 H 0.76006 0.87543 0.82338
 H154 H 0.76131 0.82424 0.87725
 H155 H 0.82481 0.83211 0.83206
 H156 H 0.80603 0.81282 0.81393
 N157 N 0.16947 0.84647 1.21717
 N158 N 0.15314 0.83041 1.21681
 C159 C 0.13839 0.83402 1.23476
 C160 C 0.14601 0.85329 1.24695
 C161 C 0.16572 0.86077 1.23533
 H162 H 0.12337 0.82338 1.23886
 H163 H 0.17653 0.87551 1.23978
 Cu164 Cu 0.15332 0.80623 1.19310
 Cu165 Cu 0.19445 0.84776 1.19421
 Cu166 Cu 0.19313 0.80638 1.15051
 N167 N 0.15347 0.78232 1.16906
 N168 N 0.16956 0.78218 1.15270
 C169 C 0.16587 0.76403 1.13839
 C170 C 0.14642 0.75221 1.14621
 C171 C 0.13893 0.76424 1.16567
 H172 H 0.17633 0.75993 1.12325
 H173 H 0.12403 0.76006 1.17647
 N174 N 0.21778 0.83007 1.15271
 N175 N 0.21807 0.84603 1.16926
 C176 C 0.23631 0.86031 1.16567
 C177 C 0.24800 0.85296 1.14599
 C178 C 0.23588 0.83376 1.13820
 H179 H 0.24070 0.87511 1.17641
 H180 H 0.23982 0.82351 1.12290
 H181 H 0.17548 0.83242 1.16809
 H182 H 0.19451 0.81286 1.18575
 N183 N 0.83101 1.15395 1.21732
 N184 N 0.84722 1.17012 1.21704
 C185 C 0.86197 1.16653 1.23497
 C186 C 0.85453 1.14710 1.24704
 C187 C 0.83488 1.13955 1.23538
 H188 H 0.87700 1.17715 1.23898
 H189 H 0.82421 1.12467 1.23973
 Cu190 Cu 0.84723 1.19404 1.19306
 Cu191 Cu 0.80620 1.15258 1.19420
 Cu192 Cu 0.80612 1.19522 1.15142
 N193 N 0.84709 1.21800 1.16915
 N194 N 0.83089 1.21828 1.15292
 C195 C 0.83467 1.23637 1.13856
 C196 C 0.85428 1.24801 1.14619
 C197 C 0.86177 1.23594 1.16561
 H198 H 0.82398 1.24075 1.12367
 H199 H 0.87679 1.23996 1.17627
 N200 N 0.78259 1.17033 1.15299
 N201 N 0.78260 1.15412 1.16928
 C202 C 0.76457 1.13960 1.16551
 C203 C 0.75272 1.14707 1.14598
 C204 C 0.76454 1.16655 1.13846
 H205 H 0.76037 1.12462 1.17608
 H206 H 0.76029 1.17710 1.12346
 H207 H 0.82438 1.16889 1.16760
 H208 H 0.80573 1.18769 1.18642
 N209 N 0.47573 0.95899 0.97497
 N210 N 0.45796 0.94467 0.97206
 N211 N 0.52488 0.97513 0.95885
 N212 N 0.54267 0.97223 0.94453
 N213 N 0.52485 0.95901 0.97504
 N214 N 0.54260 0.94469 0.97220
 N215 N 0.47574 0.97512 0.95879
 N216 N 0.45798 0.97223 0.94442
 C217 C 0.44707 0.95316 0.95293
 C218 C 0.55351 0.95317 0.95311
 N219 N 0.52493 1.04132 0.97503
 N220 N 0.54269 1.05565 0.97213
 N221 N 0.47586 1.02517 0.95881
 N222 N 0.45810 1.02803 0.94447
 N223 N 0.47582 1.04128 0.97501
 N224 N 0.45805 1.05557 0.97215
 N225 N 0.52497 1.02518 0.95885
 N226 N 0.54276 1.02808 0.94450
 Mn227 Mn 0.50036 1.00015 0.95854
 C228 C 0.55363 1.04716 0.95302
 C229 C 0.44721 1.04707 0.95303
 N230 N 0.52489 0.95902 1.02520
 N231 N 0.54267 0.94471 1.02810
 N232 N 0.47576 0.97513 1.04134
 N233 N 0.45797 0.97222 1.05566
 N234 N 0.47580 0.95902 1.02514
 N235 N 0.45806 0.94469 1.02797
 N236 N 0.52487 0.97516 1.04138
 N237 N 0.54264 0.97227 1.05574
 Mn238 Mn 0.50032 0.95873 1.00009
 C239 C 0.55355 0.95320 1.04723
 C240 C 0.44715 0.95317 1.04707
 N241 N 0.47559 1.04131 1.02519
 N242 N 0.45781 1.05563 1.02811
 N243 N 0.52474 1.02521 1.04139
 N244 N 0.54252 1.02810 1.05571
 N245 N 0.52472 1.04133 1.02520
 N246 N 0.54247 1.05565 1.02804
 N247 N 0.47560 1.02517 1.04138
 N248 N 0.45781 1.02806 1.05574
 Mn249 Mn 0.50026 1.04159 1.00011
 Mn250 Mn 0.50024 1.00017 1.04166
 Cl251 Cl 0.50030 1.00016 1.00010
 C252 C 0.44690 1.04713 1.04723
 C253 C 0.55336 1.04716 1.04714
 N254 N -0.04111 0.47580 0.02523
 N255 N -0.05543 0.45807 0.02806
 N256 N -0.02489 0.52466 0.04144
 N257 N -0.02773 0.54240 0.05576
 N258 N -0.04109 0.52469 0.02526
 N259 N -0.05540 0.54244 0.02812
 N260 N -0.02492 0.47578 0.04141
 N261 N -0.02775 0.45805 0.05570
 C262 C -0.04685 0.44721 0.04713
 C263 C -0.04683 0.55328 0.04721
 N264 N 0.04153 0.52456 0.02529
 N265 N 0.05581 0.54232 0.02812
 N266 N 0.02530 0.47566 0.04144
 N267 N 0.02812 0.45793 0.05577
 N268 N 0.04152 0.47564 0.02527
 N269 N 0.05584 0.45789 0.02815
 N270 N 0.02531 0.52456 0.04146
 N271 N 0.02810 0.54230 0.05575
 Mn272 Mn 0.00020 0.50017 0.04172
 C273 C 0.04719 0.55317 0.04720
 C274 C 0.04724 0.44704 0.04725
 N275 N -0.04106 0.52468 -0.02489
 N276 N -0.05536 0.54244 -0.02772
 N277 N -0.02487 0.47576 -0.04111
 N278 N -0.02771 0.45804 -0.05543
 N279 N -0.04109 0.47577 -0.02494
 N280 N -0.05542 0.45804 -0.02780
 N281 N -0.02484 0.52467 -0.04107
 N282 N -0.02765 0.54242 -0.05535
 Mn283 Mn -0.04137 0.50023 0.00016
 C284 C -0.04676 0.55330 -0.04679
 C285 C -0.04684 0.44718 -0.04690
 N286 N 0.04157 0.47570 -0.02494
 N287 N 0.05586 0.45793 -0.02779
 N288 N 0.02538 0.52467 -0.04107
 N289 N 0.02819 0.54247 -0.05532
 N290 N 0.04159 0.52465 -0.02490
 N291 N 0.05587 0.54243 -0.02770
 N292 N 0.02538 0.47574 -0.04112
 N293 N 0.02820 0.45801 -0.05543
 Mn294 Mn 0.04184 0.50014 0.00018
 Mn295 Mn 0.00026 0.50021 -0.04138
 Cl296 Cl 0.00024 0.50018 0.00017
 C297 C 0.04729 0.44710 -0.04689
 C298 C 0.04728 0.55334 -0.04676
 N299 N 1.02559 0.04142 0.52417
 N300 N 1.02844 0.05572 0.54192
 N301 N 1.04174 0.02523 0.47511
 N302 N 1.05609 0.02810 0.45734
 N303 N 1.02554 0.04137 0.47513
 N304 N 1.02841 0.05567 0.45738
 N305 N 1.04180 0.02529 0.52417
 N306 N 1.05614 0.02817 0.54194
 C307 C 1.04756 0.04723 0.55280
 C308 C 1.04753 0.04716 0.44648
 N309 N 1.02549 -0.04092 0.47525
 N310 N 1.02829 -0.05525 0.45752
 N311 N 1.04179 -0.02475 0.52424
 N312 N 1.05615 -0.02762 0.54199
 N313 N 1.02557 -0.04086 0.52428
 N314 N 1.02844 -0.05514 0.54205
 N315 N 1.04171 -0.02481 0.47517
 N316 N 1.05602 -0.02774 0.45737
 Mn317 Mn 1.04205 0.00024 0.49967
 C318 C 1.04740 -0.04680 0.44657
 C319 C 1.04759 -0.04665 0.55290
 N320 N 0.97533 0.04141 0.47523
 N321 N 0.97248 0.05571 0.45748
 N322 N 0.95916 0.02534 0.52431
 N323 N 0.94484 0.02823 0.54210
 N324 N 0.97537 0.04146 0.52427
 N325 N 0.97253 0.05578 0.54202
 N326 N 0.95911 0.02530 0.47525
 N327 N 0.94476 0.02820 0.45748
 Mn328 Mn 1.00046 0.04169 0.49970
 C329 C 0.95335 0.04724 0.44660
 C330 C 0.95341 0.04729 0.55294
 N331 N 0.97536 -0.04083 0.52437
 N332 N 0.97252 -0.05514 0.54211
 N333 N 0.95909 -0.02474 0.47533
 N334 N 0.94473 -0.02761 0.45759
 N335 N 0.97529 -0.04088 0.47533
 N336 N 0.97241 -0.05519 0.45759
 N337 N 0.95914 -0.02471 0.52441
 N338 N 0.94481 -0.02761 0.54220
 Mn339 Mn 1.00043 -0.04115 0.49981
 Mn340 Mn 0.95883 0.00030 0.49982
 Cl341 Cl 1.00044 0.00027 0.49975
 C342 C 0.95340 -0.04667 0.55304
 C343 C 0.95328 -0.04668 0.44672
 C344 C 1.11720 0.11669 0.30632
 N345 N 1.10766 0.13594 0.29654
 N346 N 1.11722 0.14553 0.27768
 C347 C 1.13669 0.13624 0.26790
 N348 N 1.14620 0.11694 0.27768
 N349 N 1.13664 0.10735 0.29654
 C350 C 1.10670 0.10619 0.32717
 N351 N 1.11623 0.08695 0.33701
 N352 N 1.10672 0.07747 0.35595
 C353 C 1.08732 0.08687 0.36573
 N354 N 1.07778 0.10611 0.35590
 N355 N 1.08730 0.11560 0.33696
 C356 C 1.07688 0.07646 0.38665
 N357 N 1.05755 0.08594 0.39652
 N358 N 1.04816 0.07656 0.41557
 C359 C 1.05776 0.05737 0.42542
 N360 N 1.07704 0.04785 0.41555
 N361 N 1.08644 0.05723 0.39650
 C362 C 0.88348 -0.11607 0.30670
 N363 N 0.86409 -0.10665 0.29691
 N364 N 0.85460 -0.11611 0.27796
 C365 C 0.86417 -0.13533 0.26811
 N366 N 0.88354 -0.14476 0.27790
 N367 N 0.89302 -0.13530 0.29685
 C368 C 0.89400 -0.10562 0.32754
 N369 N 0.91339 -0.11507 0.33730
 N370 N 0.92295 -0.10559 0.35620
 C371 C 0.91347 -0.08631 0.36603
 N372 N 0.89409 -0.07687 0.35628
 N373 N 0.88453 -0.08634 0.33737
 C374 C 0.92394 -0.07591 0.38692
 N375 N 0.91440 -0.05668 0.39678
 N376 N 0.92380 -0.04732 0.41582
 C377 C 0.94306 -0.05687 0.42568
 N378 N 0.95264 -0.07607 0.41581
 N379 N 0.94325 -0.08542 0.39677
 C380 C 0.88365 0.11662 0.69314
 N381 N 0.86427 0.10720 0.70296
 N382 N 0.85478 0.11666 0.72192
 C383 C 0.86433 0.13588 0.73176
 N384 N 0.88369 0.14530 0.72195
 N385 N 0.89318 0.13585 0.70299
 C386 C 0.89416 0.10620 0.67226
 N387 N 0.91353 0.11566 0.66246
 N388 N 0.92308 0.10620 0.64353
 C389 C 0.91362 0.08692 0.63371
 N390 N 0.89426 0.07747 0.64350
 N391 N 0.88470 0.08693 0.66242
 C392 C 0.92409 0.07653 0.61280
 N393 N 0.91456 0.05730 0.60295
 N394 N 0.92396 0.04794 0.58389
 C395 C 0.94321 0.05749 0.57400
 N396 N 0.95278 0.07668 0.58385
 N397 N 0.94339 0.08604 0.60291
 C398 C 1.11719 -0.11606 0.69311
 N399 N 1.13661 -0.10671 0.70288
 N400 N 1.14605 -0.11616 0.72187
 C401 C 1.13641 -0.13530 0.73178
 N402 N 1.11701 -0.14467 0.72200
 N403 N 1.10757 -0.13522 0.70302
 C404 C 1.10672 -0.10562 0.67222
 N405 N 1.08731 -0.11501 0.66246
 N406 N 1.07778 -0.10552 0.64354
 C407 C 1.08731 -0.08629 0.63368
 N408 N 1.10672 -0.07691 0.64343
 N409 N 1.11625 -0.08639 0.66235
 C410 C 1.07687 -0.07588 0.61277
 N411 N 1.08645 -0.05669 0.60288
 N412 N 1.07708 -0.04733 0.58381
 C413 C 1.05779 -0.05683 0.57396
 N414 N 1.04817 -0.07599 0.58386
 N415 N 1.05754 -0.08535 0.60292
 C416 C 0.30636 1.11649 1.11739
 N417 N 0.29667 1.13590 1.10806
 N418 N 0.27772 1.14541 1.11757
 C419 C 0.26770 1.13587 1.13679
 N420 N 0.27740 1.11644 1.14612
 N421 N 0.29637 1.10693 1.13661
 C422 C 0.32731 1.10603 1.10685
 N423 N 0.33712 1.08667 1.11619
 N424 N 0.35609 1.07722 1.10661
 C425 C 0.36595 1.08677 1.08733
 N426 N 0.35615 1.10614 1.07800
 N427 N 0.33719 1.11558 1.08758
 C428 C 0.38693 1.07638 1.07680
 N429 N 0.39683 1.08595 1.05754
 N430 N 0.41590 1.07660 1.04808
 C431 C 0.42578 1.05735 1.05754
 N432 N 0.41589 1.04775 1.07676
 N433 N 0.39682 1.05709 1.08622
 C434 C 0.30658 0.88369 0.88306
 N435 N 0.29658 0.89321 0.86384
 N436 N 0.27763 0.88368 0.85435
 C437 C 0.26796 0.86425 0.86371
 N438 N 0.27798 0.85475 0.88294
 N439 N 0.29691 0.86428 0.89243
 C440 C 0.32754 0.89415 0.89355
 N441 N 0.33743 0.88463 0.91282
 N442 N 0.35638 0.89409 0.92235
 C443 C 0.36617 0.91344 0.91298
 N444 N 0.35629 0.92296 0.89370
 N445 N 0.33733 0.91350 0.88416
 C446 C 0.38714 0.92386 0.92347
 N447 N 0.39700 0.94313 0.91401
 N448 N 0.41606 0.95250 0.92343
 C449 C 0.42597 0.94293 0.94266
 N450 N 0.41610 0.92369 0.95215
 N451 N 0.39704 0.91432 0.94273
 C452 C 0.69394 0.88371 1.11706
 N453 N 0.70387 0.89315 1.13635
 N454 N 0.72285 0.88363 1.14579
 C455 C 0.73262 0.86431 1.13631
 N456 N 0.72267 0.85488 1.11702
 N457 N 0.70370 0.86440 1.10758
 C458 C 0.67302 0.89419 1.10658
 N459 N 0.66318 0.88471 1.08727
 N460 N 0.64423 0.89419 1.07773
 C461 C 0.63442 0.91351 1.08715
 N462 N 0.64425 0.92298 1.10647
 N463 N 0.66319 0.91350 1.11601
 C464 C 0.61347 0.92393 1.07666
 N465 N 0.60358 0.94319 1.08614
 N466 N 0.58452 0.95255 1.07673
 C467 C 0.57464 0.94299 1.05749
 N468 N 0.58453 0.92377 1.04797
 N469 N 0.60360 0.91441 1.05739
 C470 C 0.69404 1.11677 0.88306
 N471 N 0.70389 1.13599 0.89262
 N472 N 0.72285 1.14550 0.88316
 C473 C 0.73272 1.13618 0.86376
 N474 N 0.72285 1.11696 0.85419
 N475 N 0.70388 1.10743 0.86366
 C476 C 0.67311 1.10628 0.89357
 N477 N 0.66326 1.08700 0.88412
 N478 N 0.64432 1.07751 0.89368
 C479 C 0.63451 1.08694 0.91305
 N480 N 0.64435 1.10622 0.92249
 N481 N 0.66329 1.11570 0.91294
 C482 C 0.61355 1.07650 0.92355
 N483 N 0.60366 1.08600 0.94284
 N484 N 0.58460 1.07663 0.95227
 C485 C 0.57473 1.05741 0.94275
 N486 N 0.58462 1.04788 0.92349
 N487 N 0.60368 1.05725 0.91406
 C488 C 0.11642 0.30691 0.11695
 N489 N 0.10676 0.29699 0.13614
 N490 N 0.11631 0.27814 0.14570
 C491 C 0.13587 0.26853 0.13644
 N492 N 0.14551 0.27844 0.11724
 N493 N 0.13596 0.29728 0.10767
 C494 C 0.10598 0.32777 0.10645
 N495 N 0.11565 0.33766 0.08725
 N496 N 0.10621 0.35658 0.07774
 C497 C 0.08675 0.36632 0.08708
 N498 N 0.07709 0.35644 0.10629
 N499 N 0.08652 0.33752 0.11580
 C500 C 0.07638 0.38723 0.07662
 N501 N 0.05702 0.39708 0.08606
 N502 N 0.04770 0.41612 0.07666
 C503 C 0.05741 0.42599 0.05748
 N504 N 0.07672 0.41613 0.04800
 N505 N 0.08604 0.39710 0.05741
 C506 C -0.11623 0.30719 -0.11644
 N507 N -0.10672 0.29736 -0.13574
 N508 N -0.11614 0.27837 -0.14513
 C509 C -0.13542 0.26853 -0.13556
 N510 N -0.14496 0.27838 -0.11628
 N511 N -0.13554 0.29736 -0.10689
 C512 C -0.10579 0.32806 -0.10600
 N513 N -0.11528 0.33783 -0.08665
 N514 N -0.10578 0.35671 -0.07714
 C515 C -0.08643 0.36651 -0.08661
 N516 N -0.07694 0.35675 -0.10596
 N517 N -0.08644 0.33786 -0.11548
 C518 C -0.07602 0.38739 -0.07617
 N519 N -0.05673 0.39727 -0.08570
 N520 N -0.04740 0.41630 -0.07633
 C521 C -0.05701 0.42614 -0.05709
 N522 N -0.07626 0.41625 -0.04752
 N523 N -0.08560 0.39722 -0.05689
 C524 C 0.11671 0.69337 -0.11633
 N525 N 0.10702 0.70340 -0.13544
 N526 N 0.11650 0.72233 -0.14488
 C527 C 0.13602 0.73193 -0.13557
 N528 N 0.14571 0.72191 -0.11646
 N529 N 0.13623 0.70298 -0.10702
 C530 C 0.10626 0.67250 -0.10588
 N531 N 0.11587 0.66260 -0.08667
 N532 N 0.10637 0.64372 -0.07716
 C533 C 0.08690 0.63404 -0.08649
 N534 N 0.07730 0.64393 -0.10571
 N535 N 0.08679 0.66282 -0.11523
 C536 C 0.07647 0.61316 -0.07603
 N537 N 0.05712 0.60336 -0.08548
 N538 N 0.04777 0.58433 -0.07610
 C539 C 0.05744 0.57442 -0.05693
 N540 N 0.07675 0.58424 -0.04743
 N541 N 0.08610 0.60327 -0.05682
 C542 C -0.11628 0.69329 0.11660
 N543 N -0.10672 0.70321 0.13583
 N544 N -0.11621 0.72216 0.14523
 C545 C -0.13560 0.73188 0.13575
 N546 N -0.14517 0.72195 0.11655
 N547 N -0.13568 0.70300 0.10715
 C548 C -0.10579 0.67246 0.10617
 N549 N -0.11531 0.66263 0.08689
 N550 N -0.10580 0.64374 0.07740
 C551 C -0.08641 0.63399 0.08684
 N552 N -0.07689 0.64382 0.10612
 N553 N -0.08640 0.66271 0.11561
 C554 C -0.07601 0.61310 0.07643
 N555 N -0.05671 0.60324 0.08595
 N556 N -0.04737 0.58419 0.07660
 C557 C -0.05700 0.57433 0.05739
 N558 N -0.07626 0.58420 0.04783
 N559 N -0.08560 0.60325 0.05719
 C560 C 1.11666 0.11700 0.69300
 N561 N 1.13602 0.10758 0.70281
 N562 N 1.14541 0.11696 0.72184
 C563 C 1.13578 0.13610 0.73177
 N564 N 1.11646 0.14558 0.72193
 N565 N 1.10706 0.13620 0.70289
 C566 C 1.10626 0.10654 0.67210
 N567 N 1.08687 0.11589 0.66227
 N568 N 1.07742 0.10633 0.64334
 C569 C 1.08701 0.08708 0.63358
 N570 N 1.10641 0.07774 0.64340
 N571 N 1.11586 0.08729 0.66232
 C572 C 1.07665 0.07660 0.61267
 N573 N 1.08629 0.05738 0.60285
 N574 N 1.07699 0.04797 0.58379
 C575 C 1.05772 0.05745 0.57386
 N576 N 1.04804 0.07662 0.58369
 N577 N 1.05734 0.08603 0.60275
 C578 C 0.88451 -0.11687 0.69326
 N579 N 0.86510 -0.10752 0.70306
 N580 N 0.85562 -0.11703 0.72200
 C581 C 0.86521 -0.13624 0.73184
 N582 N 0.88464 -0.14559 0.72207
 N583 N 0.89412 -0.13608 0.70312
 C584 C 0.89490 -0.10635 0.67237
 N585 N 0.91428 -0.11565 0.66246
 N586 N 0.92368 -0.10606 0.64352
 C587 C 0.91404 -0.08681 0.63380
 N588 N 0.89465 -0.07751 0.64369
 N589 N 0.88525 -0.08711 0.66263
 C590 C 0.92436 -0.07626 0.61288
 N591 N 0.91469 -0.05703 0.60314
 N592 N 0.92398 -0.04754 0.58409
 C593 C 0.94326 -0.05695 0.57410
 N594 N 0.95297 -0.07614 0.58386
 N595 N 0.94369 -0.08562 0.60291
 C596 C 1.11632 -0.11702 0.30648
 N597 N 1.13572 -0.10767 0.29668
 N598 N 1.14517 -0.11716 0.27772
 C599 C 1.13555 -0.13633 0.26786
 N600 N 1.11613 -0.14568 0.27763
 N601 N 1.10668 -0.13619 0.29661
 C602 C 1.10592 -0.10650 0.32734
 N603 N 1.08652 -0.11580 0.33722
 N604 N 1.07709 -0.10619 0.35614
 C605 C 1.08672 -0.08694 0.36585
 N606 N 1.10611 -0.07765 0.35597
 N607 N 1.11554 -0.08726 0.33706
 C608 C 1.07639 -0.07640 0.38674
 N609 N 1.08606 -0.05717 0.39648
 N610 N 1.07678 -0.04769 0.41553
 C611 C 1.05751 -0.05709 0.42551
 N612 N 1.04780 -0.07628 0.41577
 N613 N 1.05708 -0.08576 0.39672
 C614 C 0.88432 0.11738 0.30651
 N615 N 0.86497 0.10798 0.29668
 N616 N 0.85552 0.11745 0.27773
 C617 C 0.86507 0.13668 0.26789
 N618 N 0.88444 0.14609 0.27770
 N619 N 0.89389 0.13661 0.29667
 C620 C 0.89471 0.10688 0.32740
 N621 N 0.91408 0.11620 0.33728
 N622 N 0.92351 0.10661 0.35619
 C623 C 0.91391 0.08733 0.36591
 N624 N 0.89454 0.07802 0.35604
 N625 N 0.88511 0.08761 0.33713
 C626 C 0.92426 0.07679 0.38680
 N627 N 0.91461 0.05756 0.39657
 N628 N 0.92392 0.04809 0.41561
 C629 C 0.94320 0.05751 0.42555
 N630 N 0.95288 0.07669 0.41577
 N631 N 0.94358 0.08616 0.39673
 C632 C 0.11649 0.30708 -0.11671
 N633 N 0.10711 0.29740 -0.13614
 N634 N 0.11657 0.27845 -0.14560
 C635 C 0.13576 0.26850 -0.13597
 N636 N 0.14517 0.27821 -0.11657
 N637 N 0.13571 0.29715 -0.10712
 C638 C 0.10606 0.32794 -0.10621
 N639 N 0.11553 0.33761 -0.08681
 N640 N 0.10607 0.35650 -0.07725
 C641 C 0.08679 0.36641 -0.08673
 N642 N 0.07733 0.35676 -0.10614
 N643 N 0.08679 0.33787 -0.11570
 C644 C 0.07640 0.38729 -0.07624
 N645 N 0.05716 0.39724 -0.08577
 N646 N 0.04784 0.41628 -0.07637
 C647 C 0.05744 0.42604 -0.05710
 N648 N 0.07664 0.41609 -0.04753
 N649 N 0.08596 0.39705 -0.05693
 C650 C -0.11596 0.30735 0.11658
 N651 N -0.10638 0.29748 0.13582
 N652 N -0.11584 0.27855 0.14527
 C653 C -0.13521 0.26883 0.13581
 N654 N -0.14478 0.27869 0.11657
 N655 N -0.13532 0.29761 0.10712
 C656 C -0.10556 0.32817 0.10614
 N657 N -0.11513 0.33796 0.08686
 N658 N -0.10568 0.35685 0.07734
 C659 C -0.08631 0.36663 0.08677
 N660 N -0.07675 0.35685 0.10605
 N661 N -0.08620 0.33796 0.11557
 C662 C -0.07595 0.38747 0.07634
 N663 N -0.05666 0.39732 0.08585
 N664 N -0.04734 0.41635 0.07649
 C665 C -0.05699 0.42620 0.05729
 N666 N -0.07624 0.41634 0.04773
 N667 N -0.08556 0.39730 0.05710
 C668 C -0.11581 0.69314 -0.11656
 N669 N -0.13504 0.70307 -0.10699
 N670 N -0.14447 0.72199 -0.11648
 C671 C -0.13503 0.73166 -0.13588
 N672 N -0.11580 0.72174 -0.14547
 N673 N -0.10636 0.70281 -0.13598
 C674 C -0.10540 0.67235 -0.10604
 N675 N -0.08611 0.66244 -0.11551
 N676 N -0.07667 0.64355 -0.10594
 C677 C -0.08619 0.63391 -0.08655
 N678 N -0.10548 0.64382 -0.07707
 N679 N -0.11491 0.66271 -0.08664
 C680 C -0.07584 0.61306 -0.07608
 N681 N -0.08543 0.60329 -0.05678
 N682 N -0.07612 0.58426 -0.04739
 C683 C -0.05689 0.57433 -0.05697
 N684 N -0.04726 0.58411 -0.07622
 N685 N -0.05657 0.60314 -0.08561
 C686 C 0.11642 0.69302 0.11657
 N687 N 0.13568 0.70284 0.10694
 N688 N 0.14523 0.72171 0.11639
 C689 C 0.13586 0.73143 0.13581
 N690 N 0.11658 0.72165 0.14542
 N691 N 0.10703 0.70278 0.13596
 C692 C 0.10595 0.67222 0.10615
 N693 N 0.08668 0.66238 0.11572
 N694 N 0.07719 0.64349 0.10623
 C695 C 0.08663 0.63378 0.08684
 N696 N 0.10591 0.64362 0.07728
 N697 N 0.11540 0.66251 0.08676
 C698 C 0.07625 0.61293 0.07643
 N699 N 0.08582 0.60315 0.05712
 N700 N 0.07650 0.58412 0.04775
 C701 C 0.05730 0.57421 0.05736
 N702 N 0.04769 0.58400 0.07662
 N703 N 0.05700 0.60303 0.08600
 C704 C 0.30726 1.11664 0.88351
 N705 N 0.29723 1.13569 0.89322
 N706 N 0.27817 1.14506 0.88384
 C707 C 0.26846 1.13570 0.86442
 N708 N 0.27852 1.11668 0.85468
 N709 N 0.29758 1.10731 0.86406
 C710 C 0.32813 1.10622 0.89394
 N711 N 0.33802 1.08703 0.88435
 N712 N 0.35692 1.07750 0.89388
 C713 C 0.36659 1.08680 0.91334
 N714 N 0.35670 1.10599 0.92293
 N715 N 0.33780 1.11552 0.91340
 C716 C 0.38744 1.07636 0.92377
 N717 N 0.39723 1.08578 0.94312
 N718 N 0.41628 1.07639 0.95249
 C719 C 0.42619 1.05725 0.94284
 N720 N 0.41638 1.04779 0.92354
 N721 N 0.39734 1.05718 0.91416
 C722 C 0.30707 0.88320 1.11600
 N723 N 0.29739 0.89239 1.13552
 N724 N 0.27854 0.88276 1.14506
 C725 C 0.26871 0.86359 1.13542
 N726 N 0.27836 0.85441 1.11587
 N727 N 0.29722 0.86404 1.10633
 C728 C 0.32790 0.89373 1.10560
 N729 N 0.33771 0.88446 1.08617
 N730 N 0.35666 0.89402 1.07676
 C731 C 0.36646 0.91320 1.08644
 N732 N 0.35666 0.92246 1.10586
 N733 N 0.33771 0.91290 1.11528
 C734 C 0.38735 0.92369 1.07611
 N735 N 0.39714 0.94287 1.08579
 N736 N 0.41620 0.95233 1.07649
 C737 C 0.42612 0.94292 1.05719
 N738 N 0.41632 0.92378 1.04749
 N739 N 0.39726 0.91432 1.05678
 C740 C 0.69348 1.11705 1.11612
 N741 N 0.70335 1.10762 1.13543
 N742 N 0.72225 1.11717 1.14492
 C743 C 0.73196 1.13649 1.13544
 N744 N 0.72212 1.14591 1.11611
 N745 N 0.70321 1.13636 1.10662
 C746 C 0.67261 1.10656 1.10573
 N747 N 0.66270 1.11597 1.08643
 N748 N 0.64376 1.10641 1.07700
 C749 C 0.63406 1.08711 1.08654
 N750 N 0.64395 1.07772 1.10585
 N751 N 0.66289 1.08727 1.11528
 C752 C 0.61317 1.07662 1.07621
 N753 N 0.60341 1.05737 1.08581
 N754 N 0.58436 1.04792 1.07650
 C755 C 0.57441 1.05740 1.05727
 N756 N 0.58417 1.07660 1.04763
 N757 N 0.60322 1.08605 1.05694
 C758 C 0.69360 0.88336 0.88386
 N759 N 0.70327 0.89263 0.86437
 N760 N 0.72223 0.88314 0.85488
 C761 C 0.73220 0.86405 0.86456
 N762 N 0.72254 0.85477 0.88406
 N763 N 0.70357 0.86426 0.89354
 C764 C 0.67275 0.89383 0.89429
 N765 N 0.66299 0.88453 0.91373
 N766 N 0.64406 0.89408 0.92321
 C767 C 0.63422 0.91327 0.91359
 N768 N 0.64397 0.92256 0.89415
 N769 N 0.66290 0.91301 0.88467
 C770 C 0.61333 0.92374 0.92397
 N771 N 0.60350 0.94293 0.91433
 N772 N 0.58444 0.95237 0.92366
 C773 C 0.57455 0.94294 0.94295
 N774 N 0.58439 0.92378 0.95263
 N775 N 0.60345 0.91435 0.94330
   
