data_POSCAR
  _audit_creation_date              2014-09-24
  _audit_creation_method            'ToBaCCo'
  _symmetry_space_group_name_H-M    'P1'
  _symmetry_Int_Tables_number       1
  _symmetry_cell_setting            triclinic
  loop_
  _symmetry_equiv_pos_as_xyz
 x,y,z
_cell_length_a 49.2857
_cell_length_b 45.8784
_cell_length_c 46.4184
_cell_angle_alpha 91.827300
_cell_angle_beta 91.806100
_cell_angle_gamma 89.465200
loop_
  _atom_site_label
  _atom_site_type_symbol
  _atom_site_fract_x
  _atom_site_fract_y
  _atom_site_fract_z
N1 N 0.20520 1.25407 0.18355
 N2 N 0.18570 1.25190 0.20196
 C3 C 0.16505 1.26969 0.19434
 C4 C 0.17193 1.28408 0.16969
 C5 C 0.19784 1.27368 0.16375
 H6 H 0.14637 1.27154 0.20586
 H7 H 0.21013 1.27883 0.14575
 Cu8 Cu 0.18875 1.22546 0.23382
 Cu9 Cu 0.23759 1.22942 0.18569
 Cu10 Cu 0.22656 1.16555 0.22148
 N11 N 0.18696 1.19206 0.25825
 N12 N 0.20136 1.16838 0.25300
 C13 C 0.19423 1.14761 0.27105
 C14 C 0.17413 1.15883 0.28876
 C15 C 0.17031 1.18734 0.28001
 H16 H 0.20270 1.12581 0.27062
 H17 H 0.15554 1.20309 0.28761
 N18 N 0.25659 1.17017 0.19487
 N19 N 0.26091 1.19460 0.18153
 C20 C 0.28181 1.19054 0.16384
 C21 C 0.29128 1.16219 0.16628
 C22 C 0.27491 1.15000 0.18631
 H23 H 0.28906 1.20680 0.14965
 H24 H 0.27557 1.12771 0.19320
 H25 H 0.21118 1.19824 0.19542
 H26 H 0.23535 1.20872 0.22561
 N27 N 0.82435 0.73991 0.16864
 N28 N 0.84274 0.74304 0.18958
 C29 C 0.86426 0.72581 0.18383
 C30 C 0.85907 0.71091 0.15784
 C31 C 0.83345 0.72034 0.14890
 H32 H 0.88255 0.72479 0.19725
 H33 H 0.82284 0.71458 0.12881
 Cu34 Cu 0.83770 0.77090 0.22120
 Cu35 Cu 0.79148 0.76391 0.16704
 Cu36 Cu 0.78718 0.82041 0.21838
 N37 N 0.83814 0.80551 0.24615
 N38 N 0.81815 0.82461 0.24553
 C39 C 0.82422 0.84692 0.26410
 C40 C 0.84968 0.84173 0.27687
 C41 C 0.85772 0.81502 0.26483
 H42 H 0.81150 0.86603 0.26700
 H43 H 0.87658 0.80341 0.26874
 N44 N 0.75834 0.81223 0.18873
 N45 N 0.76010 0.79079 0.16920
 C46 C 0.73873 0.79244 0.15053
 C47 C 0.72273 0.81611 0.15853
 C48 C 0.73573 0.82802 0.18299
 H49 H 0.73561 0.77809 0.13183
 H50 H 0.73002 0.84776 0.19469
 H51 H 0.81031 0.79925 0.18778
 H52 H 0.78917 0.77593 0.21033
 N53 N 0.79534 1.24163 -0.15108
 N54 N 0.80835 1.24468 -0.17505
 C55 C 0.82812 1.26452 -0.17039
 C56 C 0.82755 1.27433 -0.14184
 C57 C 0.80636 1.25934 -0.13035
 H58 H 0.84262 1.27026 -0.18623
 H59 H 0.79984 1.26060 -0.10833
 Cu60 Cu 0.79995 1.22038 -0.20915
 Cu61 Cu 0.76664 1.21321 -0.14770
 Cu62 Cu 0.75860 1.16278 -0.20413
 N63 N 0.79941 1.18865 -0.23787
 N64 N 0.78363 1.16599 -0.23555
 C65 C 0.78915 1.14618 -0.25659
 C66 C 0.80965 1.15689 -0.27314
 C67 C 0.81542 1.18415 -0.26057
 H68 H 0.77937 1.12523 -0.25897
 H69 H 0.83104 1.19906 -0.26634
 N70 N 0.73553 1.16352 -0.17014
 N71 N 0.73880 1.18270 -0.14855
 C72 C 0.72154 1.17653 -0.12774
 C73 C 0.70664 1.15225 -0.13658
 C74 C 0.71598 1.14469 -0.16367
 H75 H 0.72031 1.18847 -0.10738
 H76 H 0.70986 1.12606 -0.17709
 H77 H 0.78535 1.18429 -0.17606
 H78 H 0.75624 1.20622 -0.19108
 N79 N 0.18586 0.75767 -0.19053
 N80 N 0.16677 0.75795 -0.21093
 C81 C 0.14824 0.73756 -0.20586
 C82 C 0.15611 0.72359 -0.18089
 C83 C 0.18020 0.73688 -0.17183
 H84 H 0.13005 0.73377 -0.21900
 H85 H 0.19196 0.73281 -0.15229
 Cu86 Cu 0.16670 0.78634 -0.24093
 Cu87 Cu 0.21486 0.78647 -0.18812
 Cu88 Cu 0.20947 0.84273 -0.23633
 N89 N 0.16073 0.82037 -0.26405
 N90 N 0.17796 0.84205 -0.26284
 C91 C 0.16874 0.86305 -0.28029
 C92 C 0.14406 0.85430 -0.29296
 C93 C 0.13977 0.82690 -0.28204
 H94 H 0.17876 0.88368 -0.28243
 H95 H 0.12261 0.81277 -0.28636
 N96 N 0.23965 0.83940 -0.20767
 N97 N 0.24182 0.81797 -0.18939
 C98 C 0.26327 0.82308 -0.17128
 C99 C 0.27504 0.84911 -0.17831
 C100 C 0.25956 0.85871 -0.20159
 H101 H 0.26898 0.80973 -0.15326
 H102 H 0.26206 0.87881 -0.21268
 H103 H 0.19054 0.81831 -0.20623
 H104 H 0.21424 0.79836 -0.23068
 C105 C 0.46730 0.96561 -0.01145
 C106 C 0.48235 0.98177 0.00950
 C107 C 0.46905 1.00066 0.02885
 C108 C 0.44073 1.00402 0.02690
 C109 C 0.42585 0.98797 0.00565
 C110 C 0.43893 0.96857 -0.01348
 C111 C 0.51215 0.98035 0.00992
 C112 C 0.52645 0.99804 -0.00834
 C113 C 0.55491 0.99725 -0.00808
 C114 C 0.56888 0.97799 0.01015
 C115 C 0.55476 0.95996 0.02831
 C116 C 0.52629 0.96151 0.02839
 H117 H 0.47774 0.95125 -0.02651
 H118 H 0.48081 1.01335 0.04480
 H119 H 0.51539 1.01284 -0.02227
 H120 H 0.51515 0.94773 0.04233
 H121 H 0.40393 0.99014 0.00443
 H122 H 0.59086 0.97707 0.01025
 C123 C 0.00142 0.46306 0.97039
 C124 C 0.02128 0.47889 0.98629
 C125 C 0.04032 0.46427 1.00378
 C126 C 0.03915 0.43387 1.00603
 C127 C 0.01912 0.41821 0.99006
 C128 C 0.00024 0.43261 0.97208
 C129 C 0.02061 0.51094 0.98652
 C130 C 0.00180 0.52605 1.00355
 C131 C 0.00070 0.55661 1.00410
 C132 C 0.01820 0.57189 0.98682
 C133 C 0.03685 0.55697 0.96931
 C134 C 0.03827 0.52638 0.96961
 H135 H -0.01353 0.47459 0.95733
 H136 H 0.05526 0.47668 1.01651
 H137 H -0.01161 0.51396 1.01677
 H138 H 0.05247 0.51456 0.95613
 H139 H 0.01844 0.39469 0.99141
 H140 H 0.01719 0.59550 0.98686
 C141 C 0.96970 0.01630 0.46476
 C142 C 0.98810 0.03265 0.48216
 C143 C 1.00925 0.04740 0.46952
 C144 C 1.01229 0.04562 0.43953
 C145 C 0.99415 0.02856 0.42240
 C146 C 0.97285 0.01379 0.43485
 C147 C 0.98652 0.03205 0.51373
 C148 C 1.00566 0.01572 0.52948
 C149 C 1.00314 0.01264 0.55923
 C150 C 0.98158 0.02667 0.57324
 C151 C 0.96273 0.04381 0.55782
 C152 C 0.96518 0.04620 0.52792
 H153 H 0.95377 0.00438 0.47469
 H154 H 1.02360 0.05977 0.48308
 H155 H 1.02192 0.00451 0.51835
 H156 H 0.95040 0.05879 0.51568
 H157 H 0.99637 0.02708 0.39924
 H158 H 0.97991 0.02487 0.59634
 C159 C 0.12843 0.30914 1.16048
 C160 C 0.11190 0.32707 1.14348
 C161 C 0.12216 0.34020 1.11943
 C162 C 0.14941 0.33548 1.11260
 C163 C 0.16596 0.31726 1.12936
 C164 C 0.15568 0.30351 1.15347
 N165 N 0.10416 0.35718 1.10174
 N166 N 0.11240 0.37247 1.08139
 C167 C 0.09379 0.38827 1.06324
 C168 C 0.10385 0.40840 1.04428
 C169 C 0.08611 0.42363 1.02589
 C170 C 0.05806 0.41846 1.02589
 C171 C 0.04802 0.39825 1.04492
 C172 C 0.06569 0.38339 1.06354
 H173 H 0.11938 0.29928 1.17866
 H174 H 0.09088 0.33052 1.14892
 H175 H 0.15778 0.34541 1.09403
 H176 H 0.18675 0.31404 1.12314
 H177 H 0.12546 0.41228 1.04376
 H178 H 0.09432 0.43900 1.01130
 H179 H 0.02645 0.39410 1.04550
 H180 H 0.05741 0.36785 1.07790
 C181 C -0.09404 0.69266 1.14753
 C182 C -0.07624 0.67525 1.13150
 C183 C -0.08618 0.65608 1.10973
 C184 C -0.11432 0.65433 1.10418
 C185 C -0.13216 0.67196 1.12001
 C186 C -0.12219 0.69141 1.14178
 N187 N -0.06722 0.63938 1.09311
 N188 N -0.07462 0.61960 1.07475
 C189 C -0.05539 0.60375 1.05768
 C190 C -0.06418 0.57979 1.04056
 C191 C -0.04592 0.56420 1.02334
 C192 C -0.01862 0.57266 1.02272
 C193 C -0.00985 0.59674 1.03989
 C194 C -0.02803 0.61209 1.05733
 H195 H -0.08563 0.70757 1.16391
 H196 H -0.05458 0.67686 1.13589
 H197 H -0.12247 0.63969 1.08740
 H198 H -0.15373 0.67033 1.11521
 H199 H -0.08522 0.57322 1.04055
 H200 H -0.05322 0.54585 1.01013
 H201 H 0.01114 0.60354 1.03999
 H202 H -0.02075 0.63060 1.07030
 C203 C -0.15069 0.29441 0.90403
 C204 C -0.13187 0.31239 0.91879
 C205 C -0.11530 0.33075 0.90372
 C206 C -0.11781 0.33109 0.87349
 C207 C -0.13654 0.31292 0.85863
 C208 C -0.15314 0.29429 0.87376
 N209 N -0.09573 0.34818 0.91968
 N210 N -0.08095 0.36676 0.90798
 C211 C -0.06108 0.38338 0.92445
 C212 C -0.04699 0.40533 0.91113
 C213 C -0.02722 0.42159 0.92662
 C214 C -0.02106 0.41587 0.95569
 C215 C -0.03528 0.39385 0.96902
 C216 C -0.05516 0.37781 0.95360
 H217 H -0.16286 0.28018 0.91643
 H218 H -0.13003 0.31188 0.94208
 H219 H -0.10516 0.34511 0.86137
 H220 H -0.13804 0.31353 0.83535
 H221 H -0.05130 0.40978 0.88867
 H222 H -0.01642 0.43828 0.91577
 H223 H -0.03117 0.38923 0.99149
 H224 H -0.06574 0.36094 0.96442
 C225 C 0.11266 0.69826 0.82870
 C226 C 0.09776 0.67852 0.84397
 C227 C 0.11052 0.66142 0.86486
 C228 C 0.13862 0.66406 0.87026
 C229 C 0.15356 0.68405 0.85516
 C230 C 0.14069 0.70150 0.83431
 N231 N 0.09419 0.64259 0.88101
 N232 N 0.10415 0.62444 0.89871
 C233 C 0.08699 0.60687 0.91536
 C234 C 0.09853 0.58477 0.93204
 C235 C 0.08223 0.56802 0.94921
 C236 C 0.05417 0.57352 0.95023
 C237 C 0.04264 0.59552 0.93328
 C238 C 0.05884 0.61197 0.91592
 H239 H 0.10200 0.71150 0.81306
 H240 H 0.07609 0.67676 0.83975
 H241 H 0.14890 0.65110 0.88642
 H242 H 0.17514 0.68586 0.85984
 H243 H 0.12019 0.58067 0.93187
 H244 H 0.09159 0.55128 0.96221
 H245 H 0.02102 0.59997 0.93345
 H246 H 0.04940 0.62894 0.90329
 C247 C 1.16306 0.11375 0.31290
 C248 C 1.14693 0.09868 0.33158
 C249 C 1.12711 0.11336 0.34743
 C250 C 1.12390 0.14360 0.34490
 C251 C 1.13977 0.15872 0.32600
 C252 C 1.15935 0.14397 0.30927
 N253 N 1.10955 0.09685 0.36460
 N254 N 1.09283 0.10891 0.38171
 C255 C 1.07417 0.09224 0.39740
 C256 C 1.05864 0.10632 0.41850
 C257 C 1.03903 0.09098 0.43286
 C258 C 1.03439 0.06137 0.42595
 C259 C 1.05029 0.04717 0.40509
 C260 C 1.07011 0.06241 0.39103
 H261 H 1.17780 0.10128 0.30081
 H262 H 1.14958 0.07534 0.33335
 H263 H 1.10867 0.15545 0.35697
 H264 H 1.13632 0.18193 0.32450
 H265 H 1.06149 0.12932 0.42351
 H266 H 1.02689 0.10245 0.44871
 H267 H 1.04724 0.02429 0.39956
 H268 H 1.08178 0.05105 0.37472
 C269 C 1.10048 -0.13999 0.68060
 C270 C 1.08283 -0.12352 0.66333
 C271 C 1.09097 -0.09678 0.65308
 C272 C 1.11715 -0.08658 0.66023
 C273 C 1.13474 -0.10278 0.67786
 C274 C 1.12666 -0.12973 0.68852
 N275 N 1.07203 -0.08009 0.63620
 N276 N 1.07905 -0.05768 0.62287
 C277 C 1.05976 -0.04058 0.60685
 C278 C 1.06914 -0.01963 0.58836
 C279 C 1.05076 -0.00246 0.57262
 C280 C 1.02268 -0.00567 0.57562
 C281 C 1.01330 -0.02653 0.59435
 C282 C 1.03167 -0.04400 0.60971
 H283 H 1.09311 -0.16042 0.68814
 H284 H 1.06265 -0.13158 0.65798
 H285 H 1.12388 -0.06589 0.65258
 H286 H 1.15465 -0.09398 0.68291
 H287 H 1.09073 -0.01671 0.58607
 H288 H 1.05845 0.01362 0.55845
 H289 H 0.99174 -0.02953 0.59685
 H290 H 1.02394 -0.05994 0.62400
 C291 C 0.89175 -0.14702 0.30452
 C292 C 0.90706 -0.12835 0.32279
 C293 C 0.89577 -0.10247 0.33379
 C294 C 0.86874 -0.09534 0.32641
 C295 C 0.85341 -0.11381 0.30778
 C296 C 0.86471 -0.13994 0.29636
 N297 N 0.91253 -0.08358 0.35170
 N298 N 0.90325 -0.06155 0.36566
 C299 C 0.92085 -0.04272 0.38274
 C300 C 0.90963 -0.02233 0.40215
 C301 C 0.92648 -0.00395 0.41927
 C302 C 0.95480 -0.00538 0.41674
 C303 C 0.96597 -0.02561 0.39700
 C304 C 0.94919 -0.04423 0.38027
 H305 H 0.90159 -0.16665 0.29650
 H306 H 0.92791 -0.13403 0.32832
 H307 H 0.85961 -0.07534 0.33466
 H308 H 0.83273 -0.10740 0.30249
 H309 H 0.88783 -0.02088 0.40420
 H310 H 0.91741 0.01158 0.43425
 H311 H 0.98776 -0.02731 0.39486
 H312 H 0.95836 -0.05970 0.36532
 C313 C 0.81760 0.11295 0.69653
 C314 C 0.83240 0.09804 0.67543
 C315 C 0.85256 0.11221 0.66086
 C316 C 0.85752 0.14182 0.66724
 C317 C 0.84303 0.15673 0.68863
 C318 C 0.82308 0.14243 0.70400
 N319 N 0.86878 0.09566 0.64106
 N320 N 0.88521 0.10762 0.62453
 C321 C 0.90273 0.09079 0.60626
 C322 C 0.91765 0.10499 0.58580
 C323 C 0.93648 0.08949 0.56922
 C324 C 0.94096 0.05959 0.57326
 C325 C 0.92558 0.04526 0.59339
 C326 C 0.90650 0.06067 0.60965
 H327 H 0.80252 0.10085 0.70746
 H328 H 0.82842 0.07517 0.67071
 H329 H 0.87308 0.15325 0.65627
 H330 H 0.84781 0.17941 0.69307
 H331 H 0.91503 0.12821 0.58309
 H332 H 0.94826 0.10106 0.55400
 H333 H 0.92857 0.02218 0.59676
 H334 H 0.89530 0.04922 0.62542
 C335 C 0.31837 1.15692 0.12162
 C336 C 0.33667 1.14143 0.10443
 C337 C 0.34951 1.11623 0.11446
 C338 C 0.34411 1.10679 0.14219
 C339 C 0.32551 1.12204 0.15926
 C340 C 0.31227 1.14712 0.14904
 N341 N 0.36666 1.09980 0.09550
 N342 N 0.38161 1.07881 0.10405
 C343 C 0.39738 1.06150 0.08442
 C344 C 0.41674 1.04187 0.09536
 C345 C 0.43142 1.02365 0.07666
 C346 C 0.42652 1.02446 0.04672
 C347 C 0.40728 1.04434 0.03577
 C348 C 0.39294 1.06284 0.05443
 H349 H 0.30834 1.17599 0.11300
 H350 H 0.34057 1.14882 0.08304
 H351 H 0.35372 1.08727 0.15036
 H352 H 0.32139 1.11409 0.18038
 H353 H 0.42025 1.04054 0.11843
 H354 H 0.44604 1.00836 0.08558
 H355 H 0.40331 1.04549 0.01275
 H356 H 0.37799 1.07771 0.04544
 C357 C 0.68718 1.13978 -0.08936
 C358 C 0.66964 1.12372 -0.07310
 C359 C 0.65144 1.10409 -0.08661
 C360 C 0.65076 1.10079 -0.11683
 C361 C 0.66850 1.11668 -0.13316
 C362 C 0.68701 1.13625 -0.11957
 N363 N 0.63473 1.08711 -0.06901
 N364 N 0.61610 1.07046 -0.07936
 C365 C 0.60045 1.05296 -0.06111
 C366 C 0.57811 1.03759 -0.07290
 C367 C 0.56295 1.01978 -0.05563
 C368 C 0.57022 1.01679 -0.02635
 C369 C 0.59256 1.03234 -0.01455
 C370 C 0.60748 1.05035 -0.03171
 H371 H 0.70133 1.15437 -0.07811
 H372 H 0.67043 1.12633 -0.04982
 H373 H 0.63687 1.08565 -0.12774
 H374 H 0.66772 1.11361 -0.15638
 H375 H 0.57253 1.03934 -0.09554
 H376 H 0.54591 1.00787 -0.06526
 H377 H 0.59840 1.03066 0.00803
 H378 H 0.62469 1.06194 -0.02206
 C379 C 0.29980 0.89529 -0.16480
 C380 C 0.31933 0.91065 -0.14819
 C381 C 0.33665 0.89614 -0.12891
 C382 C 0.33455 0.86577 -0.12668
 C383 C 0.31485 0.85036 -0.14314
 C384 C 0.29707 0.86500 -0.16219
 N385 N 0.35515 0.91298 -0.11092
 N386 N 0.37287 0.90141 -0.09422
 C387 C 0.39022 0.91880 -0.07537
 C388 C 0.41108 0.90522 -0.05946
 C389 C 0.42742 0.92148 -0.03981
 C390 C 0.42284 0.95157 -0.03554
 C391 C 0.40213 0.96521 -0.05181
 C392 C 0.38603 0.94902 -0.07164
 H393 H 0.28635 0.90737 -0.17900
 H394 H 0.32068 0.93407 -0.14998
 H395 H 0.34771 0.85408 -0.11184
 H396 H 0.31345 0.82703 -0.14079
 H397 H 0.41445 0.88194 -0.06206
 H398 H 0.44312 0.91042 -0.02737
 H399 H 0.39837 0.98842 -0.04913
 H400 H 0.37001 0.96004 -0.08363
 C401 C 0.69481 0.82084 0.11281
 C402 C 0.67406 0.83418 0.09671
 C403 C 0.65712 0.85506 0.10958
 C404 C 0.66074 0.86210 0.13912
 C405 C 0.68167 0.84892 0.15527
 C406 C 0.69919 0.82842 0.14218
 N407 N 0.63778 0.87007 0.09167
 N408 N 0.62026 0.88796 0.10162
 C409 C 0.60250 0.90401 0.08276
 C410 C 0.58169 0.92126 0.09440
 C411 C 0.56540 0.93876 0.07659
 C412 C 0.57007 0.93956 0.04693
 C413 C 0.59055 0.92177 0.03522
 C414 C 0.60654 0.90406 0.05291
 H415 H 0.70796 0.80539 0.10188
 H416 H 0.67155 0.82871 0.07392
 H417 H 0.64790 0.87829 0.14952
 H418 H 0.68431 0.85506 0.17788
 H419 H 0.57842 0.92151 0.11737
 H420 H 0.54981 0.95244 0.08610
 H421 H 0.59437 0.92185 0.01237
 H422 H 0.62251 0.89100 0.04335
   
