data_POSCAR
  _audit_creation_date              2014-09-24
  _audit_creation_method            'ToBaCCo'
  _symmetry_space_group_name_H-M    'P1'
  _symmetry_Int_Tables_number       1
  _symmetry_cell_setting            triclinic
  loop_
  _symmetry_equiv_pos_as_xyz
 x,y,z
_cell_length_a 39.6833
_cell_length_b 43.2070
_cell_length_c 39.8056
_cell_angle_alpha 90.470800
_cell_angle_beta 90.213400
_cell_angle_gamma 89.862600
loop_
  _atom_site_label
  _atom_site_type_symbol
  _atom_site_fract_x
  _atom_site_fract_y
  _atom_site_fract_z
Si1 Si 1.25107 0.25027 0.24817
 Si2 Si 0.75357 -0.24962 0.24875
 Si3 Si 0.75250 0.25087 -0.24985
 Si4 Si 1.25145 -0.24843 -0.24997
 Si5 Si 0.24734 0.24847 0.75158
 Si6 Si 0.74849 0.74921 0.75124
 Si7 Si 0.74882 0.24993 0.24960
 Si8 Si 0.24678 0.74973 0.25034
 N9 N 1.05950 0.03200 0.03714
 N10 N 1.08199 0.05379 0.04323
 N11 N 1.03630 -0.03297 0.06009
 N12 N 1.04298 -0.05400 0.08308
 N13 N 1.05969 -0.03303 0.03683
 N14 N 1.08290 -0.05410 0.04336
 N15 N 1.03613 0.03208 0.06039
 N16 N 1.04205 0.05395 0.08298
 C17 C 1.07057 0.06741 0.07173
 C18 C 1.07194 -0.06718 0.07208
 N19 N 0.94027 -0.03277 0.03611
 N20 N 0.91771 -0.05448 0.04172
 N21 N 0.96352 0.03221 0.06007
 N22 N 0.95722 0.05378 0.08288
 N23 N 0.94020 0.03223 0.03658
 N24 N 0.91740 0.05380 0.04275
 N25 N 0.96362 -0.03283 0.05958
 N26 N 0.95758 -0.05458 0.08183
 Mn27 Mn 0.99988 -0.00038 0.06039
 C28 C 0.92903 -0.06800 0.07015
 C29 C 0.92856 0.06720 0.07153
 N30 N 1.05959 -0.03317 -0.03554
 N31 N 1.08222 -0.05492 -0.04153
 N32 N 1.03624 0.03185 -0.05865
 N33 N 1.04251 0.05330 -0.08119
 N34 N 1.05960 0.03184 -0.03519
 N35 N 1.08241 0.05327 -0.04113
 N36 N 1.03626 -0.03317 -0.05902
 N37 N 1.04238 -0.05493 -0.08166
 Mn38 Mn 1.05993 -0.00059 0.00080
 C39 C 1.07095 -0.06844 -0.07020
 C40 C 1.07121 0.06661 -0.06971
 N41 N 0.94021 0.03210 -0.03580
 N42 N 0.91721 0.05342 -0.04210
 N43 N 0.96366 -0.03303 -0.05943
 N44 N 0.95747 -0.05463 -0.08226
 N45 N 0.94027 -0.03292 -0.03619
 N46 N 0.91753 -0.05444 -0.04253
 N47 N 0.96359 0.03202 -0.05906
 N48 N 0.95713 0.05329 -0.08184
 Mn49 Mn 0.93990 -0.00033 0.00018
 Mn50 Mn 0.99995 -0.00058 -0.05939
 Cl51 Cl 0.99992 -0.00047 0.00050
 C52 C 0.92831 0.06661 -0.07071
 C53 C 0.92879 -0.06793 -0.07117
 N54 N 1.06065 0.53285 0.53659
 N55 N 1.08351 0.55422 0.54313
 N56 N 1.03765 0.46779 0.55946
 N57 N 1.04437 0.44670 0.58236
 N58 N 1.06102 0.46783 0.53619
 N59 N 1.08427 0.44677 0.54262
 N60 N 1.03732 0.53282 0.55991
 N61 N 1.04368 0.55418 0.58295
 C62 C 1.07238 0.56749 0.57193
 C63 C 1.07333 0.43360 0.57130
 N64 N 0.94152 0.46756 0.53590
 N65 N 0.91824 0.44669 0.54240
 N66 N 0.96462 0.53267 0.55979
 N67 N 0.95775 0.55363 0.58311
 N68 N 0.94124 0.53259 0.53635
 N69 N 0.91785 0.55349 0.54308
 N70 N 0.96490 0.46762 0.55935
 N71 N 0.95813 0.44678 0.58244
 Mn72 Mn 1.00113 0.50022 0.55995
 C73 C 0.92916 0.43370 0.57130
 C74 C 0.92871 0.56663 0.57211
 N75 N 1.06094 0.46773 0.46377
 N76 N 1.08412 0.44659 0.45725
 N77 N 1.03737 0.53269 0.44068
 N78 N 1.04433 0.55331 0.41739
 N79 N 1.06076 0.53276 0.46412
 N80 N 1.08422 0.55341 0.45741
 N81 N 1.03756 0.46764 0.44033
 N82 N 1.04420 0.44643 0.41722
 Mn83 Mn 1.06115 0.50029 0.50018
 C84 C 1.07312 0.43332 0.42834
 C85 C 1.07341 0.56628 0.42840
 N86 N 0.94124 0.53248 0.46395
 N87 N 0.91806 0.55362 0.45764
 N88 N 0.96483 0.46749 0.44013
 N89 N 0.95821 0.44633 0.41691
 N90 N 0.94153 0.46747 0.46348
 N91 N 0.91846 0.44632 0.45680
 N92 N 0.96458 0.53253 0.44064
 N93 N 0.95791 0.55371 0.41783
 Mn94 Mn 0.94108 0.50003 0.49991
 Mn95 Mn 1.00108 0.50009 0.44012
 Cl96 Cl 1.00111 0.50016 0.50003
 C97 C 0.92901 0.56684 0.42901
 C98 C 0.92941 0.43314 0.42788
 N99 N 0.46549 -0.03357 0.55870
 N100 N 0.44393 -0.04068 0.58263
 N101 N 0.53618 -0.05468 0.53477
 N102 N 0.55794 -0.07681 0.54195
 N103 N 0.53623 -0.03327 0.55841
 N104 N 0.55801 -0.04039 0.58235
 N105 N 0.46545 -0.05497 0.53505
 N106 N 0.44387 -0.07710 0.54221
 C107 C 0.43033 -0.06767 0.57169
 C108 C 0.57169 -0.06737 0.57141
 N109 N 0.53525 -0.03396 0.43888
 N110 N 0.55720 -0.04097 0.41511
 N111 N 0.46482 -0.05551 0.46266
 N112 N 0.44331 -0.07788 0.45548
 N113 N 0.46444 -0.03441 0.43908
 N114 N 0.44267 -0.04198 0.41518
 N115 N 0.53559 -0.05508 0.46244
 N116 N 0.55779 -0.07692 0.45540
 Mn117 Mn 0.50051 -0.05525 0.49873
 C118 C 0.57134 -0.06761 0.42608
 C119 C 0.42936 -0.06894 0.42606
 N120 N 0.53573 0.03374 0.55859
 N121 N 0.55757 0.04122 0.58244
 N122 N 0.46458 0.05451 0.53534
 N123 N 0.44271 0.07658 0.54265
 N124 N 0.46494 0.03339 0.55889
 N125 N 0.44334 0.04062 0.58290
 N126 N 0.53534 0.05487 0.53505
 N127 N 0.55691 0.07719 0.54221
 Mn128 Mn 0.50060 0.00007 0.55895
 C129 C 0.57090 0.06815 0.57158
 C130 C 0.42935 0.06739 0.57212
 N131 N 0.46393 0.03261 0.43934
 N132 N 0.44193 0.03957 0.41556
 N133 N 0.53471 0.05439 0.46266
 N134 N 0.55621 0.07660 0.45548
 N135 N 0.53469 0.03303 0.43898
 N136 N 0.55616 0.04025 0.41499
 N137 N 0.46398 0.05402 0.46298
 N138 N 0.44199 0.07599 0.45598
 Mn139 Mn 0.49957 -0.00068 0.43876
 Mn140 Mn 0.49965 0.05464 0.49900
 Cl141 Cl 0.50008 -0.00031 0.49886
 C142 C 0.42813 0.06646 0.42661
 C143 C 0.56970 0.06727 0.42595
 N144 N 0.55872 0.53319 0.03704
 N145 N 0.58191 0.55425 0.04368
 N146 N 0.53493 0.46855 0.06038
 N147 N 0.54118 0.44747 0.08342
 N148 N 0.55839 0.46813 0.03719
 N149 N 0.58124 0.44676 0.04384
 N150 N 0.53523 0.53359 0.06021
 N151 N 0.54180 0.55493 0.08322
 C152 C 0.57079 0.56780 0.07236
 C153 C 0.56996 0.43389 0.07257
 N154 N 0.43887 0.46897 0.03656
 N155 N 0.41595 0.44769 0.04279
 N156 N 0.46247 0.53411 0.05996
 N157 N 0.45547 0.55491 0.08344
 N158 N 0.43907 0.53404 0.03652
 N159 N 0.41555 0.55480 0.04346
 N160 N 0.46228 0.46905 0.05997
 N161 N 0.45596 0.44785 0.08275
 Mn162 Mn 0.49873 0.50134 0.06043
 C163 C 0.42716 0.43456 0.07152
 C164 C 0.42635 0.56787 0.07258
 N165 N 0.55861 0.46742 -0.03536
 N166 N 0.58193 0.44644 -0.04211
 N167 N 0.53550 0.53240 -0.05889
 N168 N 0.54212 0.55328 -0.08195
 N169 N 0.55891 0.53250 -0.03548
 N170 N 0.58211 0.55345 -0.04201
 N171 N 0.53520 0.46735 -0.05878
 N172 N 0.54196 0.44632 -0.08206
 Mn173 Mn 0.55898 0.50031 0.00086
 C174 C 0.57097 0.43325 -0.07111
 C175 C 0.57107 0.56641 -0.07089
 N176 N 0.43938 0.53334 -0.03606
 N177 N 0.41667 0.55486 -0.04264
 N178 N 0.46249 0.46787 -0.05910
 N179 N 0.45590 0.44656 -0.08214
 N180 N 0.43898 0.46827 -0.03595
 N181 N 0.41577 0.44724 -0.04264
 N182 N 0.46288 0.53290 -0.05921
 N183 N 0.45682 0.55411 -0.08214
 Mn184 Mn 0.43875 0.50116 0.00026
 Mn185 Mn 0.49901 0.50012 -0.05929
 Cl186 Cl 0.49887 0.50074 0.00057
 C187 C 0.42811 0.56778 -0.07128
 C188 C 0.42688 0.43370 -0.07134
 N189 N 1.20428 0.21182 0.16808
 C190 C 1.18143 0.19265 0.18218
 N191 N 1.17943 0.19113 0.21611
 N192 N 1.19967 0.20828 0.23539
 C193 C 1.22258 0.22742 0.22134
 N194 N 1.22453 0.22899 0.18738
 C195 C 1.16062 0.17318 0.16156
 C196 C 1.14354 0.15611 0.14462
 C197 C 1.12381 0.13493 0.12497
 N198 N 1.09412 0.12417 0.13684
 N199 N 1.07676 0.10303 0.11951
 C200 C 1.08858 0.09195 0.08980
 N201 N 1.11821 0.10289 0.07787
 N202 N 1.13556 0.12404 0.09520
 N203 N 1.20614 0.71124 0.67005
 C204 C 1.18467 0.69079 0.68420
 N205 N 1.18338 0.68872 0.71814
 N206 N 1.20294 0.70660 0.73737
 C207 C 1.22443 0.72705 0.72326
 N208 N 1.22571 0.72912 0.68930
 C209 C 1.16408 0.67106 0.66358
 C210 C 1.14700 0.65402 0.64655
 C211 C 1.12706 0.63313 0.62666
 N212 N 1.09719 0.62259 0.63834
 N213 N 1.07941 0.60204 0.62058
 C214 C 1.09095 0.59136 0.59058
 N215 N 1.12077 0.60207 0.57886
 N216 N 1.13855 0.62262 0.59662
 N217 N 0.67522 0.20501 0.70627
 C218 C 0.69081 0.18420 0.68585
 N219 N 0.72496 0.18380 0.68460
 N220 N 0.74294 0.20351 0.70328
 C221 C 0.72736 0.22429 0.72374
 N222 N 0.69321 0.22472 0.72495
 C223 C 0.67140 0.16296 0.66574
 C224 C 0.65485 0.14533 0.64882
 C225 C 0.63467 0.12483 0.62854
 N226 N 0.62476 0.09700 0.64052
 N227 N 0.60493 0.07857 0.62212
 C228 C 0.59441 0.08737 0.59113
 N229 N 0.60453 0.11516 0.57915
 N230 N 0.62434 0.13357 0.59753
 N231 N 0.70628 0.67661 0.20782
 C232 C 0.68448 0.68940 0.18556
 N233 N 0.68327 0.72063 0.18265
 N234 N 0.70332 0.73852 0.20139
 C235 C 0.72517 0.72572 0.22362
 N236 N 0.72632 0.69449 0.22655
 C237 C 0.66341 0.67001 0.16502
 C238 C 0.64611 0.65324 0.14788
 C239 C 0.62602 0.63264 0.12774
 N240 N 0.59581 0.62258 0.13903
 N241 N 0.57788 0.60230 0.12104
 C242 C 0.58960 0.59141 0.09119
 N243 N 0.61978 0.60164 0.07986
 N244 N 0.63770 0.62193 0.09785
 N245 N 0.83305 -0.21194 0.20110
 C246 C 0.81844 -0.19266 0.17863
 N247 N 0.78436 -0.19094 0.17698
 N248 N 0.76544 -0.20799 0.19725
 C249 C 0.78002 -0.22722 0.21983
 N250 N 0.81411 -0.22898 0.22136
 C251 C 0.83876 -0.17319 0.15804
 C252 C 0.85567 -0.15616 0.14131
 C253 C 0.87543 -0.13509 0.12209
 N254 N 0.86372 -0.12424 0.09239
 N255 N 0.88118 -0.10324 0.07547
 C256 C 0.91089 -0.09239 0.08775
 N257 N 0.92266 -0.10342 0.11739
 N258 N 0.90519 -0.12443 0.13431
 N259 N 0.83121 0.29339 0.70579
 C260 C 0.81631 0.31206 0.68288
 N261 N 0.78223 0.31213 0.68011
 N262 N 0.76363 0.29407 0.69968
 C263 C 0.77851 0.27541 0.72266
 N264 N 0.81259 0.27535 0.72533
 C265 C 0.83638 0.33202 0.66238
 C266 C 0.85329 0.34904 0.64554
 C267 C 0.87334 0.36972 0.62589
 N268 N 0.86196 0.37998 0.59580
 N269 N 0.88004 0.40003 0.57813
 C270 C 0.91011 0.41046 0.58996
 N271 N 0.92153 0.40005 0.62002
 N272 N 0.90344 0.38000 0.63769
 N273 N 0.32838 -0.20284 0.70668
 C274 C 0.31258 -0.18251 0.68611
 N275 N 0.27845 -0.18239 0.68457
 N276 N 0.26066 -0.20192 0.70313
 C277 C 0.27642 -0.22222 0.72376
 N278 N 0.31057 -0.22238 0.72526
 C279 C 0.33172 -0.16148 0.66612
 C280 C 0.34794 -0.14400 0.64921
 C281 C 0.36766 -0.12370 0.62888
 N282 N 0.37735 -0.13272 0.59769
 N283 N 0.39678 -0.11448 0.57922
 C284 C 0.40713 -0.08660 0.59129
 N285 N 0.39724 -0.07751 0.62247
 N286 N 0.37779 -0.09577 0.64097
 N287 N 0.28263 0.31343 0.18132
 C288 C 0.31668 0.31094 0.18229
 N289 N 0.33111 0.29004 0.20315
 N290 N 0.31204 0.27215 0.22243
 C291 C 0.27796 0.27464 0.22149
 N292 N 0.26359 0.29555 0.20060
 C293 C 0.33709 0.33071 0.16202
 C294 C 0.35387 0.34782 0.14519
 C295 C 0.37341 0.36881 0.12551
 N296 N 0.40339 0.37947 0.13716
 N297 N 0.42082 0.40008 0.11962
 C298 C 0.40881 0.41071 0.08988
 N299 N 0.37886 0.39989 0.07819
 N300 N 0.36143 0.37928 0.09573
 N301 N 0.83158 0.21082 -0.20269
 C302 C 0.81678 0.19080 -0.18128
 N303 N 0.78267 0.18921 -0.18029
 N304 N 0.76394 0.20708 -0.20014
 C305 C 0.77872 0.22709 -0.22161
 N306 N 0.81283 0.22869 -0.22252
 C307 C 0.83695 0.17079 -0.16078
 C308 C 0.85381 0.15355 -0.14397
 C309 C 0.87364 0.13245 -0.12445
 N310 N 0.86205 0.12191 -0.09466
 N311 N 0.87979 0.10127 -0.07724
 C312 C 0.90969 0.09049 -0.08903
 N313 N 0.92132 0.10119 -0.11878
 N314 N 0.90358 0.12183 -0.13621
 N315 N 0.83181 0.70769 0.29435
 C316 C 0.81676 0.68963 0.31754
 N317 N 0.78270 0.69003 0.32014
 N318 N 0.76425 0.70798 0.30011
 C319 C 0.77929 0.72604 0.27685
 N320 N 0.81335 0.72562 0.27435
 C321 C 0.83663 0.66969 0.33835
 C322 C 0.85347 0.65260 0.35534
 C323 C 0.87349 0.63178 0.37496
 N324 N 0.86203 0.62127 0.40480
 N325 N 0.88005 0.60092 0.42235
 C326 C 0.91010 0.59045 0.41061
 N327 N 0.92160 0.60113 0.38081
 N328 N 0.90358 0.62148 0.36327
 N329 N 0.32681 0.20177 0.29108
 C330 C 0.31048 0.18216 0.31184
 N331 N 0.27640 0.18333 0.31357
 N332 N 0.25916 0.20346 0.29499
 C333 C 0.27545 0.22307 0.27418
 N334 N 0.30955 0.22190 0.27251
 C335 C 0.32910 0.16067 0.33199
 C336 C 0.34506 0.14293 0.34903
 C337 C 0.36467 0.12245 0.36948
 N338 N 0.37490 0.09455 0.35736
 N339 N 0.39454 0.07627 0.37587
 C340 C 0.40454 0.08531 0.40709
 N341 N 0.39407 0.11315 0.41921
 N342 N 0.37444 0.13141 0.40072
 N343 N 0.31965 0.72201 -0.18189
 C344 C 0.31837 0.69075 -0.18502
 N345 N 0.29722 0.67791 -0.20801
 N346 N 0.27786 0.69577 -0.22724
 C347 C 0.27906 0.72702 -0.22411
 N348 N 0.30027 0.73987 -0.20114
 C349 C 0.33876 0.67134 -0.16404
 C350 C 0.35548 0.65445 -0.14669
 C351 C 0.37492 0.63360 -0.12647
 N352 N 0.36275 0.62344 -0.09676
 N353 N 0.38001 0.60283 -0.07881
 C354 C 0.40999 0.59171 -0.09002
 N355 N 0.42219 0.60204 -0.11969
 N356 N 0.40494 0.62265 -0.13763
 N357 N 1.20581 -0.17675 -0.20346
 C358 C 1.18432 -0.19054 -0.18187
 N359 N 1.18321 -0.22188 -0.18065
 N360 N 1.20300 -0.23891 -0.20052
 C361 C 1.22445 -0.22510 -0.22218
 N362 N 1.22557 -0.19377 -0.22331
 C363 C 1.16300 -0.17201 -0.16082
 C364 C 1.14548 -0.15559 -0.14361
 C365 C 1.12524 -0.13503 -0.12373
 N366 N 1.13675 -0.12439 -0.09369
 N367 N 1.11903 -0.10360 -0.07625
 C368 C 1.08927 -0.09275 -0.08832
 N369 N 1.07768 -0.10359 -0.11829
 N370 N 1.09542 -0.12438 -0.13574
 N371 N 1.20983 0.32440 0.29462
 C372 C 1.18695 0.31175 0.31563
 N373 N 1.18364 0.28054 0.31649
 N374 N 1.20262 0.26253 0.29686
 C375 C 1.22547 0.27517 0.27579
 N376 N 1.22880 0.30638 0.27499
 C377 C 1.16627 0.33124 0.33637
 C378 C 1.14902 0.34803 0.35347
 C379 C 1.12880 0.36860 0.37341
 N380 N 1.14020 0.37906 0.40356
 N381 N 1.12211 0.39931 0.42140
 C382 C 1.09204 0.40975 0.40963
 N383 N 1.08060 0.39912 0.37952
 N384 N 1.09869 0.37887 0.36169
 N385 N 0.68835 -0.21325 0.31584
 C386 C 0.69238 -0.18228 0.31232
 N387 N 0.71479 -0.17166 0.28956
 N388 N 0.73267 -0.19143 0.27091
 C389 C 0.72866 -0.22240 0.27440
 N390 N 0.70623 -0.23302 0.29717
 C391 C 0.67301 -0.16105 0.33232
 C392 C 0.65644 -0.14349 0.34920
 C393 C 0.63616 -0.12319 0.36943
 N394 N 0.62538 -0.09563 0.35729
 N395 N 0.60525 -0.07748 0.37562
 C396 C 0.59528 -0.08635 0.40668
 N397 N 0.60628 -0.11386 0.41882
 N398 N 0.62640 -0.13197 0.40051
 N399 N 0.68338 0.28093 -0.18274
 C400 C 0.68484 0.31219 -0.18528
 N401 N 0.70651 0.32491 -0.20750
 N402 N 0.72614 0.30695 -0.22655
 C403 C 0.72473 0.27569 -0.22401
 N404 N 0.70303 0.26297 -0.20180
 C405 C 0.66399 0.33168 -0.16455
 C406 C 0.64678 0.34846 -0.14730
 C407 C 0.62666 0.36902 -0.12706
 N408 N 0.59641 0.37927 -0.13844
 N409 N 0.57837 0.39936 -0.12031
 C410 C 0.58999 0.40987 -0.09019
 N411 N 0.62022 0.39946 -0.07877
 N412 N 0.63824 0.37936 -0.09691
 N413 N 1.16772 0.20942 -0.20217
 C414 C 1.18231 0.19032 -0.17948
 N415 N 1.21639 0.18908 -0.17734
 N416 N 1.23532 0.20642 -0.19733
 C417 C 1.22077 0.22547 -0.22011
 N418 N 1.18667 0.22674 -0.22214
 C419 C 1.16199 0.17073 -0.15894
 C420 C 1.14511 0.15371 -0.14213
 C421 C 1.12533 0.13275 -0.12270
 N422 N 1.13705 0.12209 -0.09291
 N423 N 1.11945 0.10138 -0.07568
 C424 C 1.08960 0.09064 -0.08771
 N425 N 1.07783 0.10147 -0.11745
 N426 N 1.09543 0.12218 -0.13468
 N427 N 1.17038 0.70790 0.29478
 C428 C 1.18587 0.68812 0.31616
 N429 N 1.22003 0.68745 0.31740
 N430 N 1.23812 0.70598 0.29786
 C431 C 1.22266 0.72581 0.27642
 N432 N 1.18848 0.72641 0.27527
 C433 C 1.16625 0.66777 0.33672
 C434 C 1.14955 0.65056 0.35360
 C435 C 1.12957 0.62978 0.37329
 N436 N 1.14096 0.61958 0.40341
 N437 N 1.12281 0.59966 0.42121
 C438 C 1.09265 0.58930 0.40951
 N439 N 1.08125 0.59964 0.37941
 N440 N 1.09939 0.61956 0.36161
 N441 N 0.67194 0.20360 0.29223
 C442 C 0.68774 0.18302 0.31250
 N443 N 0.72187 0.18294 0.31408
 N444 N 0.73967 0.20275 0.29583
 C445 C 0.72390 0.22330 0.27550
 N446 N 0.68975 0.22341 0.27397
 C447 C 0.66856 0.16173 0.33221
 C448 C 0.65227 0.14409 0.34892
 C449 C 0.63245 0.12365 0.36907
 N450 N 0.62230 0.09579 0.35679
 N451 N 0.60280 0.07743 0.37515
 C452 C 0.59289 0.08634 0.40639
 N453 N 0.60326 0.11415 0.41865
 N454 N 0.62273 0.13249 0.40031
 N455 N 0.66845 0.70906 -0.20406
 C456 C 0.68288 0.68824 -0.18310
 N457 N 0.71694 0.68586 -0.18202
 N458 N 0.73599 0.70379 -0.20126
 C459 C 0.72161 0.72463 -0.22224
 N460 N 0.68753 0.72699 -0.22331
 C461 C 0.66242 0.66853 -0.16272
 C462 C 0.64555 0.65159 -0.14575
 C463 C 0.62580 0.63088 -0.12586
 N464 N 0.63762 0.62063 -0.09592
 N465 N 0.61990 0.60042 -0.07809
 C466 C 0.58980 0.58981 -0.08963
 N467 N 0.57795 0.60023 -0.11953
 N468 N 0.59566 0.62043 -0.13735
 N469 N 0.81955 -0.19105 -0.21652
 C470 C 0.81715 -0.19221 -0.18259
 N471 N 0.79416 -0.21129 -0.16854
 N472 N 0.77417 -0.22869 -0.18788
 C473 C 0.77652 -0.22748 -0.22183
 N474 N 0.79956 -0.20844 -0.23584
 C475 C 0.83786 -0.17264 -0.16193
 C476 C 0.85493 -0.15558 -0.14493
 C477 C 0.87478 -0.13452 -0.12516
 N478 N 0.86311 -0.12374 -0.09531
 N479 N 0.88069 -0.10289 -0.07776
 C480 C 0.91046 -0.09212 -0.08954
 N481 N 0.92218 -0.10308 -0.11936
 N482 N 0.90460 -0.12394 -0.13690
 N483 N 0.81688 0.31281 0.28155
 C484 C 0.81557 0.31083 0.31549
 N485 N 0.79400 0.29045 0.32966
 N486 N 0.77439 0.27257 0.31043
 C487 C 0.77570 0.27457 0.27647
 N488 N 0.79729 0.29493 0.26234
 C489 C 0.83632 0.33049 0.33609
 C490 C 0.85360 0.34744 0.35307
 C491 C 0.87381 0.36819 0.37293
 N492 N 0.86261 0.37862 0.40311
 N493 N 0.88066 0.39895 0.42090
 C494 C 0.91051 0.40952 0.40910
 N495 N 0.92177 0.39894 0.37895
 N496 N 0.90370 0.37860 0.36115
 N497 N 0.31090 -0.18521 0.27862
 C498 C 0.30840 -0.18509 0.31259
 N499 N 0.28720 -0.20535 0.32747
 N500 N 0.26899 -0.22504 0.30895
 C501 C 0.27145 -0.22518 0.27495
 N502 N 0.29269 -0.20490 0.26011
 C503 C 0.32811 -0.16388 0.33254
 C504 C 0.34489 -0.14628 0.34931
 C505 C 0.36532 -0.12576 0.36941
 N506 N 0.37574 -0.13441 0.40042
 N507 N 0.39566 -0.11597 0.41867
 C508 C 0.40582 -0.08824 0.40656
 N509 N 0.39521 -0.07953 0.37555
 N510 N 0.37528 -0.09799 0.35729
 N511 N 0.32812 0.28907 -0.20466
 C512 C 0.31413 0.31041 -0.18374
 N513 N 0.28010 0.31303 -0.18245
 N514 N 0.26064 0.29485 -0.20146
 C515 C 0.27459 0.27351 -0.22239
 N516 N 0.30863 0.27087 -0.22367
 C517 C 0.33498 0.33033 -0.16350
 C518 C 0.35208 0.34747 -0.14655
 C519 C 0.37196 0.36843 -0.12657
 N520 N 0.36018 0.37924 -0.09675
 N521 N 0.37797 0.39969 -0.07884
 C522 C 0.40811 0.41001 -0.09017
 N523 N 0.41992 0.39905 -0.11996
 N524 N 0.40213 0.37859 -0.13786
 N525 N 1.16912 -0.20975 0.20582
 C526 C 1.18403 -0.19070 0.18347
 N527 N 1.21814 -0.19029 0.18148
 N528 N 1.23674 -0.20834 0.20127
 C529 C 1.22187 -0.22738 0.22374
 N530 N 1.18774 -0.22779 0.22560
 C531 C 1.16399 -0.17056 0.16291
 C532 C 1.14715 -0.15330 0.14605
 C533 C 1.12724 -0.13227 0.12643
 N534 N 1.13876 -0.12182 0.09658
 N535 N 1.12085 -0.10141 0.07898
 C536 C 1.09083 -0.09078 0.09066
 N537 N 1.07929 -0.10138 0.12049
 N538 N 1.09720 -0.12179 0.13808
 N539 N 1.16949 0.29123 0.70529
 C540 C 1.18481 0.31017 0.68310
 N541 N 1.21894 0.31033 0.68142
 N542 N 1.23718 0.29210 0.70134
 C543 C 1.22187 0.27316 0.72358
 N544 N 1.18774 0.27301 0.72519
 C545 C 1.16512 0.33037 0.66234
 C546 C 1.14847 0.34764 0.64535
 C547 C 1.12863 0.36862 0.62568
 N548 N 1.14024 0.37915 0.59589
 N549 N 1.12233 0.39952 0.57826
 C550 C 1.09223 0.41003 0.58984
 N551 N 1.08059 0.39935 0.61960
 N552 N 1.09850 0.37898 0.63722
 N553 N 0.67250 -0.20320 0.70735
 C554 C 0.68877 -0.18330 0.68685
 N555 N 0.72290 -0.18402 0.68558
 N556 N 0.74022 -0.20397 0.70432
 C557 C 0.72398 -0.22386 0.72487
 N558 N 0.68984 -0.22314 0.72609
 C559 C 0.67008 -0.16192 0.66658
 C560 C 0.65410 -0.14422 0.64947
 C561 C 0.63453 -0.12371 0.62894
 N562 N 0.62443 -0.09574 0.64097
 N563 N 0.60497 -0.07737 0.62235
 C564 C 0.59502 -0.08639 0.59111
 N565 N 0.60535 -0.11432 0.57908
 N566 N 0.62480 -0.13266 0.59768
 N567 N 0.70264 0.32378 0.20821
 C568 C 0.68116 0.31104 0.18545
 N569 N 0.67984 0.27978 0.18223
 N570 N 0.69946 0.26184 0.20117
 C571 C 0.72100 0.27460 0.22389
 N572 N 0.72224 0.30584 0.22712
 C573 C 0.66047 0.33054 0.16480
 C574 C 0.64353 0.34749 0.14768
 C575 C 0.62386 0.36836 0.12764
 N576 N 0.63574 0.37850 0.09779
 N577 N 0.61826 0.39901 0.07993
 C578 C 0.58834 0.41009 0.09134
 N579 N 0.57642 0.39980 0.12116
 N580 N 0.59391 0.37928 0.13902
 N581 N 0.81900 0.18959 0.21666
 C582 C 0.81660 0.19131 0.18275
 N583 N 0.79384 0.21093 0.16889
 N584 N 0.77405 0.22832 0.18840
 C585 C 0.77639 0.22654 0.22234
 N586 N 0.79922 0.20697 0.23615
 C587 C 0.83719 0.17181 0.16192
 C588 C 0.85427 0.15479 0.14490
 C589 C 0.87421 0.13377 0.12521
 N590 N 0.86264 0.12307 0.09522
 N591 N 0.88032 0.10223 0.07778
 C592 C 0.91011 0.09139 0.08979
 N593 N 0.92174 0.10226 0.11975
 N594 N 0.90405 0.12310 0.13718
 N595 N 0.81573 0.68550 0.71930
 C596 C 0.81414 0.68751 0.68535
 N597 N 0.79254 0.70805 0.67122
 N598 N 0.77319 0.72609 0.69048
 C599 C 0.77479 0.72409 0.72444
 N600 N 0.79638 0.70353 0.73854
 C601 C 0.83481 0.66788 0.66470
 C602 C 0.85209 0.65107 0.64761
 C603 C 0.87241 0.63057 0.62761
 N604 N 0.86112 0.62024 0.59736
 N605 N 0.87938 0.60022 0.57938
 C606 C 0.90953 0.58990 0.59107
 N607 N 0.92085 0.60040 0.62129
 N608 N 0.90259 0.62041 0.63927
 N609 N 0.31318 0.21319 0.68422
 C610 C 0.30952 0.18215 0.68749
 N611 N 0.28727 0.17117 0.71020
 N612 N 0.26918 0.19063 0.72904
 C613 C 0.27281 0.22168 0.72579
 N614 N 0.29508 0.23266 0.70307
 C615 C 0.32900 0.16118 0.66719
 C616 C 0.34555 0.14375 0.65010
 C617 C 0.36568 0.12345 0.62965
 N618 N 0.37623 0.09572 0.64154
 N619 N 0.39602 0.07746 0.62295
 C620 C 0.40585 0.08636 0.59186
 N621 N 0.39508 0.11405 0.57997
 N622 N 0.37531 0.13228 0.59854
 N623 N 0.32589 0.70960 0.20819
 C624 C 0.31177 0.68900 0.18646
 N625 N 0.27770 0.68715 0.18449
 N626 N 0.25836 0.70534 0.20360
 C627 C 0.27244 0.72598 0.22534
 N628 N 0.30654 0.72780 0.22731
 C629 C 0.33257 0.66912 0.16603
 C630 C 0.34980 0.65215 0.14897
 C631 C 0.37001 0.63153 0.12881
 N632 N 0.35860 0.62126 0.09856
 N633 N 0.37681 0.60132 0.08038
 C634 C 0.40706 0.59100 0.09183
 N635 N 0.41849 0.60142 0.12206
 N636 N 0.40028 0.62135 0.14024
   
