data_POSCAR
  _audit_creation_date              2014-09-24
  _audit_creation_method            'ToBaCCo'
  _symmetry_space_group_name_H-M    'P1'
  _symmetry_Int_Tables_number       1
  _symmetry_cell_setting            triclinic
  loop_
  _symmetry_equiv_pos_as_xyz
 x,y,z
_cell_length_a 35.1034
_cell_length_b 34.9231
_cell_length_c 34.9232
_cell_angle_alpha 90.002300
_cell_angle_beta 90.002700
_cell_angle_gamma 90.001800
loop_
  _atom_site_label
  _atom_site_type_symbol
  _atom_site_fract_x
  _atom_site_fract_y
  _atom_site_fract_z
C1 C 0.20946 1.23877 0.18232
 C2 C 0.23766 1.21034 0.18267
 C3 C 0.23741 1.18240 0.21086
 C4 C 0.20895 1.18257 0.23903
 C5 C 0.18106 1.21068 0.23869
 C6 C 0.18132 1.23894 0.21017
 C7 C 0.20113 1.26773 0.15688
 N8 N 0.16884 1.28525 0.16885
 C9 C 0.15632 1.26800 0.20123
 C10 C 0.15571 1.20224 0.26760
 N11 N 0.16778 1.16990 0.28525
 C12 C 0.20012 1.15747 0.26814
 C13 C 0.26635 1.15710 0.20258
 N14 N 0.28394 1.16919 0.17026
 C15 C 0.26675 1.20156 0.15771
 H16 H 0.21664 1.27471 0.13099
 H17 H 0.13037 1.27523 0.21637
 H18 H 0.12984 1.21768 0.27445
 H19 H 0.21533 1.13151 0.27550
 H20 H 0.27331 1.13118 0.21810
 H21 H 0.27409 1.21677 0.13172
 C22 C 0.79140 0.76059 0.18238
 C23 C 0.76297 0.78879 0.18244
 C24 C 0.76286 0.81688 0.21048
 C25 C 0.79118 0.81710 0.23880
 C26 C 0.81929 0.78922 0.23874
 C27 C 0.81941 0.76080 0.21037
 C28 C 0.80010 0.73157 0.15713
 N29 N 0.83248 0.71439 0.16935
 C30 C 0.84469 0.73191 0.20171
 C31 C 0.84443 0.79802 0.26772
 N32 N 0.83203 0.83035 0.28515
 C33 C 0.79967 0.84242 0.26782
 C34 C 0.73375 0.84190 0.20191
 N35 N 0.71642 0.82948 0.16957
 C36 C 0.73393 0.79719 0.15729
 H37 H 0.78478 0.72433 0.13119
 H38 H 0.87063 0.72498 0.21702
 H39 H 0.87040 0.78282 0.27478
 H40 H 0.78422 0.86831 0.27496
 H41 H 0.72651 0.86784 0.21726
 H42 H 0.72685 0.78178 0.13134
 C43 C 0.79052 1.23880 -0.18188
 C44 C 0.76216 1.21052 -0.18186
 C45 C 0.76204 1.18245 -0.20991
 C46 C 0.79027 1.18233 -0.23832
 C47 C 0.81831 1.21028 -0.23834
 C48 C 0.81844 1.23868 -0.20995
 C49 C 0.79921 1.26784 -0.15664
 N50 N 0.83150 1.28512 -0.16896
 C51 C 0.84367 1.26765 -0.20135
 C52 C 0.84337 1.20156 -0.26742
 N53 N 0.83098 1.16921 -0.28482
 C54 C 0.79871 1.15704 -0.26738
 C55 C 0.73303 1.15734 -0.20126
 N56 N 0.71577 1.16969 -0.16886
 C57 C 0.73323 1.20202 -0.15661
 H58 H 0.78394 1.27502 -0.13066
 H59 H 0.86954 1.27467 -0.21674
 H60 H 0.86927 1.21683 -0.27456
 H61 H 0.78330 1.13113 -0.27449
 H62 H 0.72581 1.13139 -0.21659
 H63 H 0.72620 1.21741 -0.13064
 C64 C 0.20909 0.76156 -0.18301
 C65 C 0.23742 0.78987 -0.18299
 C66 C 0.23744 0.81802 -0.21096
 C67 C 0.20912 0.81822 -0.23928
 C68 C 0.18111 0.79024 -0.23930
 C69 C 0.18109 0.76175 -0.21101
 C70 C 0.20049 0.73244 -0.15785
 N71 N 0.16817 0.71517 -0.17014
 C72 C 0.15590 0.73274 -0.20244
 C73 C 0.15594 0.79904 -0.26827
 N74 N 0.16825 0.83146 -0.28560
 C75 C 0.20057 0.84359 -0.26822
 C76 C 0.26645 0.84313 -0.20232
 N77 N 0.28383 0.83070 -0.17001
 C78 C 0.26643 0.79832 -0.15781
 H79 H 0.21583 0.72517 -0.13194
 H80 H 0.13000 0.72575 -0.21778
 H81 H 0.13003 0.78378 -0.27538
 H82 H 0.21594 0.86955 -0.27529
 H83 H 0.27361 0.86913 -0.21760
 H84 H 0.27356 0.78286 -0.13190
 C85 C 0.55823 1.05245 -0.01126
 H86 H 0.55915 1.05236 0.01971
 C87 C 0.58414 1.07462 -0.03195
 H88 H 0.60503 1.09182 -0.01692
 C89 C 0.53065 1.02926 -0.06878
 H90 H 0.51031 1.01095 -0.08303
 C91 C 0.55607 1.05102 -0.09058
 H92 H 0.55501 1.04967 -0.12155
 N93 N 0.53206 1.03051 -0.02984
 C94 C 0.44179 1.01130 0.05375
 H95 H 0.44089 0.98034 0.05370
 C96 C 0.41587 1.03201 0.07590
 H97 H 0.39500 1.01699 0.09312
 C98 C 0.46931 1.06881 0.03047
 H99 H 0.48962 1.08305 0.01212
 C100 C 0.44388 1.09062 0.05220
 H101 H 0.44491 1.12159 0.05079
 Zn102 Zn 0.49997 0.99941 0.00062
 N103 N 0.46792 1.02987 0.03177
 C104 C 0.53076 0.96954 0.06997
 N105 N 0.53208 0.96827 0.03102
 C106 C 0.55819 0.94631 0.01239
 C107 C 0.58414 0.92414 0.03302
 C108 C 0.55624 0.94780 0.09171
 C109 C 0.44168 0.98765 -0.05240
 C110 C 0.41574 0.96702 -0.07459
 C111 C 0.44370 0.90833 -0.05104
 C112 C 0.46917 0.93006 -0.02927
 N113 N 0.46782 0.96901 -0.03048
 H114 H 0.51047 0.98786 0.08425
 H115 H 0.55903 0.94638 -0.01858
 H116 H 0.60500 0.90694 0.01795
 H117 H 0.55527 0.94918 0.12268
 H118 H 0.44082 1.01862 -0.05229
 H119 H 0.39488 0.98210 -0.09177
 H120 H 0.44471 0.87735 -0.04972
 H121 H 0.48949 0.91577 -0.01098
 C122 C 0.41687 1.07202 0.07503
 C123 C 0.58310 1.07382 -0.07196
 C124 C 0.41671 0.92701 -0.07382
 C125 C 0.58322 0.92499 0.07304
 C126 C -0.01128 0.55855 1.05245
 H127 H 0.01953 0.55953 1.05238
 C128 C -0.03191 0.58451 1.07467
 H129 H -0.01700 0.60551 1.09191
 C130 C -0.06845 0.53074 1.02922
 H131 H -0.08259 0.51029 1.01089
 C132 C -0.09018 0.55622 1.05102
 H133 H -0.12100 0.55509 1.04967
 N134 N -0.02971 0.53223 1.03048
 C135 C 0.05352 0.44152 1.01142
 H136 H 0.05350 0.44057 0.98045
 C137 C 0.07558 0.41553 1.03218
 H138 H 0.09276 0.39455 1.01721
 C139 C 0.03027 0.46924 1.06887
 H140 H 0.01199 0.48965 1.08307
 C141 C 0.05191 0.44373 1.09073
 H142 H 0.05049 0.44482 1.12170
 Zn143 Zn 0.00065 0.49999 0.99941
 N144 N 0.03161 0.46779 1.02993
 C145 C 0.06968 0.53090 0.96960
 N146 N 0.03094 0.53227 0.96831
 C147 C 0.01244 0.55852 0.94633
 C148 C 0.03301 0.58456 0.92413
 C149 C 0.09135 0.55646 0.94782
 C150 C -0.05207 0.44139 0.98754
 C151 C -0.07416 0.41537 0.96685
 C152 C -0.05066 0.44356 0.90822
 C153 C -0.02899 0.46910 0.93001
 N154 N -0.03024 0.46768 0.96895
 H155 H 0.08387 0.51050 0.98794
 H156 H -0.01837 0.55940 0.94639
 H157 H 0.01804 0.60551 0.90689
 H158 H 0.12217 0.55543 0.94919
 H159 H -0.05199 0.44047 1.01850
 H160 H -0.09129 0.39439 0.98187
 H161 H -0.04934 0.44463 0.87724
 H162 H -0.01078 0.48953 0.91576
 C163 C 0.07468 0.41660 1.07219
 C164 C -0.07172 0.58338 1.07386
 C165 C -0.07337 0.41642 0.92683
 C166 C 0.07281 0.58356 0.92497
 C167 C 1.05215 -0.01138 0.55850
 H168 H 1.05209 0.01958 0.55948
 C169 C 1.07423 -0.03214 0.58448
 H170 H 1.09139 -0.01716 0.60547
 C171 C 1.02900 -0.06884 0.53070
 H172 H 1.01076 -0.08304 0.51026
 C173 C 1.05067 -0.09070 0.55619
 H174 H 1.04931 -0.12167 0.55506
 N175 N 1.03028 -0.02990 0.53219
 C176 C 1.01130 0.05375 0.44146
 H177 H 0.98049 0.05371 0.44052
 C178 C 1.03194 0.07594 0.41548
 H179 H 1.01703 0.09321 0.39451
 C180 C 1.06847 0.03042 0.46918
 H181 H 1.08260 0.01205 0.48960
 C182 C 1.09021 0.05219 0.44369
 H183 H 1.12102 0.05078 0.44478
 Zn184 Zn 0.99938 0.00062 0.49995
 N185 N 1.02973 0.03173 0.46774
 C186 C 0.96974 0.07002 0.53085
 N187 N 0.96844 0.03107 0.53222
 C188 C 0.94657 0.01249 0.55848
 C189 C 0.92451 0.03319 0.58452
 C190 C 0.94811 0.09181 0.55641
 C191 C 0.98758 -0.05238 0.44135
 C192 C 0.96701 -0.07460 0.41534
 C193 C 0.90866 -0.05102 0.44352
 C194 C 0.93033 -0.02921 0.46906
 N195 N 0.96908 -0.03044 0.46764
 H196 H 0.98800 0.08426 0.51045
 H197 H 0.94660 -0.01847 0.55936
 H198 H 0.90735 0.01816 0.60548
 H199 H 0.94950 0.12279 0.55538
 H200 H 1.01838 -0.05228 0.44043
 H201 H 0.98197 -0.09182 0.39437
 H202 H 0.87785 -0.04971 0.44460
 H203 H 0.91615 -0.01091 0.48949
 C204 C 1.07174 0.07507 0.41656
 C205 C 1.07341 -0.07215 0.58335
 C206 C 0.92720 -0.07384 0.41639
 C207 C 0.92537 0.07320 0.58353
 C208 C 0.15058 0.31266 1.15004
 C209 C 0.13373 0.33725 1.13271
 C210 C 0.11360 0.36546 1.11203
 C211 C 0.09605 0.38905 1.09404
 C212 C -0.14892 0.68705 1.15078
 C213 C -0.13177 0.66252 1.13366
 C214 C -0.11128 0.63439 1.11323
 C215 C -0.09344 0.61086 1.09546
 C216 C -0.14995 0.31252 0.84959
 C217 C -0.13288 0.33710 0.86671
 C218 C -0.11253 0.36530 0.88720
 C219 C -0.09485 0.38888 0.90507
 C220 C 0.14968 0.68770 0.84835
 C221 C 0.13262 0.66306 0.86539
 C222 C 0.11223 0.63479 0.88573
 C223 C 0.09446 0.61115 0.90344
 C224 C 1.14910 0.15151 0.31265
 C225 C 1.13188 0.13454 0.33724
 C226 C 1.11134 0.11426 0.36544
 C227 C 1.09347 0.09659 0.38902
 C228 C 1.14980 -0.14983 0.68706
 C229 C 1.13280 -0.13257 0.66253
 C230 C 1.11251 -0.11195 0.63438
 C231 C 1.09486 -0.09399 0.61084
 C232 C 0.85045 -0.15097 0.31254
 C233 C 0.86745 -0.13378 0.33711
 C234 C 0.88780 -0.11328 0.36530
 C235 C 0.90556 -0.09547 0.38887
 C236 C 0.84932 0.15058 0.68771
 C237 C 0.86623 0.13340 0.66306
 C238 C 0.88642 0.11286 0.63478
 C239 C 0.90399 0.09497 0.61113
 C240 C 0.31296 1.14949 0.15100
 C241 C 0.33756 1.13227 0.13416
 C242 C 0.36578 1.11171 0.11401
 C243 C 0.38936 1.09380 0.09644
 C244 C 0.68681 1.15024 -0.14925
 C245 C 0.66226 1.13326 -0.13211
 C246 C 0.63410 1.11297 -0.11160
 C247 C 0.61056 1.09531 -0.09373
 C248 C 0.31284 0.85013 -0.15046
 C249 C 0.33743 0.86714 -0.13340
 C250 C 0.36563 0.88752 -0.11305
 C251 C 0.38921 0.90531 -0.09534
 C252 C 0.68733 0.84884 0.15005
 C253 C 0.66268 0.86574 0.13298
 C254 C 0.63441 0.88595 0.11256
 C255 C 0.61078 0.90355 0.09474
   
