data_POSCAR
  _audit_creation_date              2014-09-24
  _audit_creation_method            'ToBaCCo'
  _symmetry_space_group_name_H-M    'P1'
  _symmetry_Int_Tables_number       1
  _symmetry_cell_setting            triclinic
  loop_
  _symmetry_equiv_pos_as_xyz
 x,y,z
_cell_length_a 31.4010
_cell_length_b 31.3613
_cell_length_c 30.9581
_cell_angle_alpha 89.648500
_cell_angle_beta 90.199800
_cell_angle_gamma 89.287500
loop_
  _atom_site_label
  _atom_site_type_symbol
  _atom_site_fract_x
  _atom_site_fract_y
  _atom_site_fract_z
C1 C 0.75367 0.60707 0.99292
 C2 C 0.72323 0.37237 0.51350
 C3 C 0.25401 -0.14151 -0.00494
 C4 C 0.22691 0.12384 0.49686
 C5 C 0.11463 0.51591 0.25794
 C6 C -0.11746 0.02168 0.22626
 C7 C 0.40106 0.49928 0.76495
 C8 C 0.65017 0.99990 0.72418
 C9 C 0.00519 0.23398 -0.09101
 C10 C 0.50181 0.26182 0.14924
 C11 C 1.00259 0.73097 0.62160
 C12 C 0.49797 0.75716 0.36835
 C13 C 0.38366 -0.05855 0.30105
 H14 H 0.35925 -0.04544 0.32167
 C15 C 0.40815 -0.09327 0.31581
 H16 H 0.40194 -0.10623 0.34760
 C17 C 0.42245 -0.05665 0.23574
 H18 H 0.42894 -0.04172 0.20507
 C19 C 0.44763 -0.09126 0.24919
 H20 H 0.47209 -0.10300 0.22768
 N21 N 0.39074 -0.04120 0.26133
 C22 C 0.37902 0.08138 0.19747
 H23 H 0.34712 0.07911 0.18447
 C24 C 0.40478 0.11538 0.18547
 H25 H 0.39228 0.13881 0.16286
 C26 C 0.43358 0.05306 0.24266
 H27 H 0.44436 0.02891 0.26539
 C28 C 0.46038 0.08662 0.23169
 H29 H 0.49155 0.08770 0.24649
 Zn30 Zn 0.35717 0.00619 0.24085
 N31 N 0.39380 0.05105 0.22544
 C32 C 0.32724 0.06452 0.30298
 N33 N 0.32012 0.02553 0.28553
 C34 C 0.28928 -0.00021 0.30153
 C35 C 0.26486 0.01263 0.33698
 C36 C 0.30373 0.07852 0.33847
 C37 C 0.35036 -0.01957 0.15494
 C38 C 0.33117 -0.03412 0.11726
 C39 C 0.26251 -0.02470 0.15088
 C40 C 0.28318 -0.01083 0.18839
 N41 N 0.32652 -0.00967 0.19016
 H42 H 0.35195 0.08455 0.29011
 H43 H 0.28453 -0.03136 0.28760
 H44 H 0.24138 -0.00893 0.34982
 H45 H 0.31031 0.10954 0.35188
 H46 H 0.38445 -0.01614 0.15590
 H47 H 0.35095 -0.04278 0.09003
 H48 H 0.22813 -0.02687 0.15045
 H49 H 0.26452 -0.00159 0.21609
 C50 C 0.44613 0.11844 0.20267
 C51 C 0.44063 -0.11022 0.28970
 C52 C 0.28678 -0.03757 0.11516
 C53 C 0.27237 0.05227 0.35631
 C54 C 0.05152 1.01963 0.81319
 H55 H 0.04942 0.98628 0.82187
 C56 C 0.03194 1.05020 0.83923
 H57 H 0.01355 1.03937 0.86651
 C58 C 0.08037 1.07352 0.76860
 H59 H 0.10044 1.08257 0.74187
 C60 C 0.06162 1.10525 0.79407
 H61 H 0.06738 1.13828 0.78609
 N62 N 0.07576 1.03162 0.77901
 C63 C 0.09634 0.91859 0.69886
 H64 H 0.12812 0.92618 0.68827
 C65 C 0.07697 0.88191 0.68345
 H66 H 0.09477 0.86164 0.66174
 C67 C 0.03515 0.93656 0.73948
 H68 H 0.01864 0.95798 0.76098
 C69 C 0.01443 0.90011 0.72473
 H70 H -0.01778 0.89450 0.73532
 Zn71 Zn 0.10934 0.98931 0.75073
 N72 N 0.07597 0.94440 0.72748
 C73 C 0.17201 0.93081 0.77991
 N74 N 0.14797 0.96507 0.79184
 C75 C 0.14961 0.98016 0.83298
 C76 C 0.17354 0.95864 0.86461
 C77 C 0.19656 0.90861 0.81030
 C78 C 0.11700 1.02917 0.67022
 C79 C 0.13783 1.04435 0.63357
 C80 C 0.20519 1.02686 0.66770
 C81 C 0.18310 1.01266 0.70400
 N82 N 0.13978 1.01361 0.70438
 H83 H 0.17154 0.91997 0.74694
 H84 H 0.13148 1.00821 0.84180
 H85 H 0.17267 0.96997 0.89754
 H86 H 0.21477 0.88105 0.79992
 H87 H 0.08257 1.02912 0.67127
 H88 H 0.11917 1.05615 0.60646
 H89 H 0.23966 1.02573 0.66787
 H90 H 0.20060 1.00033 0.73155
 C91 C 0.03572 0.87157 0.69705
 C92 C 0.03792 1.09380 0.83072
 C93 C 0.18247 1.04272 0.63185
 C94 C 0.19626 0.92149 0.85363
 C95 C 0.62491 0.59644 0.27846
 H96 H 0.65920 0.59938 0.27910
 C97 C 0.59924 0.63122 0.28944
 H98 H 0.61407 0.66085 0.29849
 C99 C 0.56416 0.55417 0.26572
 H100 H 0.55068 0.52395 0.25672
 C101 C 0.53718 0.58848 0.27591
 H102 H 0.50303 0.58422 0.27517
 N103 N 0.60720 0.55851 0.26795
 C104 C 0.61343 0.44767 0.20145
 H105 H 0.63028 0.46468 0.17647
 C106 C 0.59333 0.40951 0.19161
 H107 H 0.59532 0.39745 0.15901
 C108 C 0.59151 0.44235 0.27444
 H109 H 0.59144 0.45527 0.30676
 C110 C 0.57104 0.40400 0.26605
 H111 H 0.55462 0.38810 0.29210
 Zn112 Zn 0.64438 0.51150 0.25698
 N113 N 0.61259 0.46299 0.24243
 C114 C 0.69635 0.45885 0.30883
 N115 N 0.67617 0.49747 0.30739
 C116 C 0.67489 0.52309 0.34269
 C117 C 0.69382 0.50996 0.38137
 C118 C 0.71533 0.44424 0.34706
 C119 C 0.67370 0.56133 0.18779
 C120 C 0.69740 0.57049 0.15111
 C121 C 0.73645 0.50438 0.16151
 C122 C 0.71227 0.49671 0.19851
 N123 N 0.68120 0.52483 0.21060
 H124 H 0.69570 0.43826 0.28099
 H125 H 0.65766 0.55295 0.34185
 H126 H 0.69065 0.53017 0.40939
 H127 H 0.72998 0.41282 0.34798
 H128 H 0.64806 0.58266 0.19677
 H129 H 0.68946 0.59895 0.13271
 H130 H 0.76023 0.48117 0.15162
 H131 H 0.71728 0.46753 0.21653
 C132 C 0.57226 0.38681 0.22427
 C133 C 0.55481 0.62728 0.28881
 C134 C 0.72875 0.54148 0.13711
 C135 C 0.71348 0.46967 0.38414
 C136 C 0.96831 0.42268 0.76793
 H137 H 0.98624 0.44768 0.75249
 C138 C 0.98945 0.38650 0.78454
 H139 H 1.02379 0.38431 0.78236
 C140 C 0.90178 0.39516 0.78989
 H141 H 0.86752 0.39877 0.79162
 C142 C 0.92151 0.35888 0.80714
 H143 H 0.90208 0.33459 0.82195
 N144 N 0.92526 0.42645 0.77146
 C145 C 0.91688 0.53368 0.68635
 H146 H 0.89241 0.51955 0.66672
 C147 C 0.93695 0.57056 0.67171
 H148 H 0.92849 0.58330 0.64024
 C149 C 0.95563 0.53565 0.75204
 H150 H 0.96158 0.52266 0.78398
 C151 C 0.97639 0.57257 0.73872
 H152 H 0.99849 0.58724 0.76078
 Zn153 Zn 0.89296 0.47344 0.75074
 N154 N 0.92634 0.51712 0.72602
 C155 C 0.83445 0.53014 0.78528
 N156 N 0.86303 0.49908 0.79654
 C157 C 0.86911 0.48729 0.83851
 C158 C 0.84425 0.50571 0.87093
 C159 C 0.80821 0.54843 0.81638
 C160 C 0.86712 0.43712 0.67194
 C161 C 0.83810 0.42183 0.64164
 C162 C 0.78150 0.43425 0.69286
 C163 C 0.81151 0.44939 0.72200
 N164 N 0.85323 0.45181 0.71069
 H165 H 0.83102 0.53948 0.75174
 H166 H 0.89289 0.46340 0.84684
 H167 H 0.84866 0.49562 0.90419
 H168 H 0.78470 0.57223 0.80677
 H169 H 0.90068 0.43813 0.66427
 H170 H 0.84970 0.41179 0.61041
 H171 H 0.74852 0.43283 0.70268
 H172 H 0.80131 0.45880 0.75384
 C173 C 0.96671 0.59096 0.69827
 C174 C 0.96592 0.35431 0.80493
 C175 C 0.79450 0.42101 0.65175
 C176 C 0.81270 0.53580 0.85962
 C177 C 0.29071 0.39274 -0.07116
 H178 H 0.29480 0.35881 -0.06578
 C179 C 0.30578 0.41125 -0.10921
 H180 H 0.32136 0.39123 -0.13289
 C181 C 0.26515 0.45969 -0.04673
 H182 H 0.24947 0.47846 -0.02216
 C183 C 0.27944 0.47949 -0.08456
 H184 H 0.27503 0.51358 -0.08828
 N185 N 0.27097 0.41701 -0.04072
 C186 C 0.24496 0.43617 0.08887
 H187 H 0.27680 0.42441 0.09559
 C188 C 0.22146 0.45565 0.12184
 H189 H 0.23548 0.45849 0.15367
 C190 C 0.18684 0.44378 0.04033
 H191 H 0.17300 0.43761 0.00896
 C192 C 0.16227 0.46325 0.07227
 H193 H 0.12988 0.47290 0.06466
 Zn194 Zn 0.25105 0.38945 0.01031
 N195 N 0.22671 0.42906 0.04962
 C196 C 0.33781 0.36280 0.02474
 N197 N 0.29688 0.35983 0.03886
 C198 C 0.28773 0.33797 0.07571
 C199 C 0.32008 0.31906 0.10034
 C200 C 0.37127 0.34385 0.04830
 C201 C 0.18362 0.33372 0.02850
 C202 C 0.14925 0.30728 0.01990
 C203 C 0.16089 0.31825 -0.05633
 C204 C 0.19554 0.34401 -0.04626
 N205 N 0.20660 0.35096 -0.00433
 H206 H 0.34493 0.38108 -0.00393
 H207 H 0.25551 0.33663 0.08727
 H208 H 0.31185 0.30248 0.12987
 H209 H 0.40372 0.34755 0.03729
 H210 H 0.19070 0.34179 0.06153
 H211 H 0.13121 0.29440 0.04660
 H212 H 0.15263 0.31308 -0.08985
 H213 H 0.21289 0.35902 -0.07210
 C214 C 0.17886 0.46758 0.11421
 C215 C 0.30025 0.45521 -0.11636
 C216 C 0.13744 0.29938 -0.02295
 C217 C 0.36251 0.32243 0.08711
 C218 C 0.77584 0.07514 1.03631
 H219 H 0.79000 0.06749 1.00561
 C220 C 0.79051 0.05408 1.07364
 H221 H 0.81533 0.03004 1.07077
 C222 C 0.72813 0.11694 1.07771
 H223 H 0.70536 0.14286 1.07990
 C224 C 0.74175 0.09676 1.11564
 H225 H 0.72840 0.10755 1.14583
 N226 N 0.74526 0.10618 1.03889
 C227 C 0.67972 0.11039 0.92032
 H228 H 0.65402 0.12827 0.93490
 C229 C 0.67300 0.09101 0.88034
 H230 H 0.64208 0.09392 0.86495
 C231 C 0.75174 0.08711 0.92088
 H232 H 0.78287 0.08713 0.93577
 C233 C 0.74656 0.06780 0.88075
 H234 H 0.77356 0.05176 0.86615
 Zn235 Zn 0.73004 0.14120 0.99016
 N236 N 0.71876 0.10849 0.93965
 C237 C 0.79085 0.18338 0.93788
 N238 N 0.77699 0.17714 0.97899
 C239 C 0.79917 0.19221 1.01336
 C240 C 0.83816 0.21236 1.00720
 C241 C 0.82982 0.20304 0.93028
 C242 C 0.64615 0.15200 1.01812
 C243 C 0.61068 0.17361 1.03436
 C244 C 0.64596 0.24028 1.02038
 C245 C 0.68117 0.21728 1.00486
 N246 N 0.68089 0.17390 1.00479
 H247 H 0.77244 0.17183 0.91092
 H248 H 0.78757 0.18674 1.04575
 H249 H 0.85619 0.22218 1.03519
 H250 H 0.84091 0.20649 0.89739
 H251 H 0.64680 0.11750 1.01779
 H252 H 0.58392 0.15548 1.04608
 H253 H 0.64728 0.27472 1.02180
 H254 H 0.70918 0.23401 0.99417
 C255 C 0.70699 0.07025 0.85964
 C256 C 0.77393 0.06532 1.11420
 C257 C 0.61063 0.21826 1.03642
 C258 C 0.85455 0.21681 0.96528
 C259 C 0.32665 0.55854 0.54217
 H260 H 0.33788 0.55729 0.50920
 C261 C 0.35116 0.54022 0.57535
 H262 H 0.38072 0.52409 0.56730
 C263 C 0.27560 0.58304 0.59270
 H264 H 0.24711 0.60128 0.59969
 C265 C 0.29897 0.56485 0.62685
 H266 H 0.28780 0.56905 0.65960
 N267 N 0.29001 0.58010 0.55136
 C268 C 0.21756 0.60197 0.43273
 H269 H 0.21116 0.63534 0.43886
 C270 C 0.19986 0.58285 0.39662
 H271 H 0.17999 0.60200 0.37521
 C272 C 0.25240 0.53737 0.45290
 H273 H 0.27290 0.51991 0.47506
 C274 C 0.23574 0.51696 0.41634
 H275 H 0.24332 0.48369 0.41069
 Zn276 Zn 0.26422 0.61276 0.50616
 N277 N 0.24319 0.57929 0.46009
 C278 C 0.31889 0.64596 0.44222
 N279 N 0.30644 0.64965 0.48409
 C280 C 0.32533 0.67783 0.51109
 C281 C 0.35769 0.70424 0.49599
 C282 C 0.35134 0.67139 0.42595
 C283 C 0.18359 0.62236 0.54313
 C284 C 0.14642 0.64352 0.55598
 C285 C 0.17792 0.71020 0.53444
 C286 C 0.21475 0.68779 0.52251
 N287 N 0.21695 0.64463 0.52712
 H288 H 0.30413 0.62286 0.42142
 H289 H 0.31537 0.67959 0.54446
 H290 H 0.37257 0.72616 0.51810
 H291 H 0.36058 0.66796 0.39249
 H292 H 0.18572 0.58796 0.54536
 H293 H 0.12015 0.62509 0.56828
 H294 H 0.17678 0.74451 0.53054
 H295 H 0.24108 0.70484 0.50857
 C296 C 0.20885 0.53986 0.38789
 C297 C 0.33791 0.54416 0.61847
 C298 C 0.14315 0.68800 0.55136
 C299 C 0.37120 0.70100 0.45293
 C300 C 0.83060 0.91631 0.43649
 H301 H 0.84214 0.91532 0.46946
 C302 C 0.85303 0.93879 0.40509
 H303 H 0.88143 0.95553 0.41461
 C304 C 0.77923 0.89572 0.38472
 H305 H 0.75086 0.87826 0.37675
 C306 C 0.80063 0.91800 0.35223
 H307 H 0.78828 0.91749 0.31957
 N308 N 0.79429 0.89561 0.42600
 C309 C 0.72269 0.88389 0.54530
 H310 H 0.71663 0.85004 0.54400
 C311 C 0.70630 0.90804 0.57913
 H312 H 0.68738 0.89219 0.60334
 C313 C 0.75443 0.94496 0.51437
 H314 H 0.77300 0.95920 0.48891
 C315 C 0.73878 0.97039 0.54786
 H316 H 0.74623 1.00394 0.54777
 Zn317 Zn 0.76731 0.86509 0.47112
 N318 N 0.74669 0.90241 0.51414
 C319 C 0.82024 0.83332 0.53807
 N320 N 0.80839 0.82734 0.49626
 C321 C 0.82766 0.79696 0.47166
 C322 C 0.86023 0.77115 0.48907
 C323 C 0.85258 0.80841 0.55665
 C324 C 0.68636 0.85984 0.43472
 C325 C 0.64749 0.84122 0.42450
 C326 C 0.67641 0.77319 0.44804
 C327 C 0.71490 0.79306 0.45745
 N328 N 0.71904 0.83572 0.45091
 H329 H 0.80540 0.85815 0.55698
 H330 H 0.81822 0.79332 0.43825
 H331 H 0.87570 0.74781 0.46866
 H332 H 0.86131 0.81399 0.58996
 H333 H 0.69014 0.89391 0.43098
 H334 H 0.62165 0.86119 0.41247
 H335 H 0.67371 0.73925 0.45371
 H336 H 0.74088 0.77466 0.47137
 C337 C 0.71455 0.95191 0.58108
 C338 C 0.83817 0.93982 0.36224
 C339 C 0.64194 0.79746 0.43183
 C340 C 0.87339 0.77708 0.53204
 C341 C -0.07960 0.32156 0.42388
 H342 H -0.05990 0.34756 0.41330
 C343 C -0.11793 0.33045 0.44486
 H344 H -0.12730 0.36341 0.44942
 C345 C -0.09143 0.24739 0.43003
 H346 H -0.08120 0.21502 0.42402
 C347 C -0.12998 0.25482 0.45115
 H348 H -0.14853 0.22781 0.46151
 N349 N -0.06782 0.28057 0.41551
 C350 C 0.05653 0.22534 0.38850
 H351 H 0.05470 0.22413 0.35363
 C352 C 0.09145 0.20725 0.40997
 H353 H 0.11652 0.19240 0.39124
 C354 C 0.02606 0.24712 0.45489
 H355 H 0.00037 0.26273 0.47206
 C356 C 0.06064 0.22965 0.47773
 H357 H 0.06099 0.23157 0.51261
 Zn358 Zn -0.02070 0.26889 0.37900
 N359 N 0.02487 0.24488 0.41108
 C360 C 0.03928 0.33121 0.35621
 N361 N -0.00228 0.32011 0.35198
 C362 C -0.03081 0.34634 0.33141
 C363 C -0.01814 0.38609 0.31561
 C364 C 0.05349 0.36997 0.33981
 C365 C -0.03775 0.18677 0.35249
 C366 C -0.05097 0.15403 0.32568
 C367 C -0.06232 0.20578 0.26856
 C368 C -0.04892 0.23777 0.29671
 N369 N -0.03744 0.22776 0.33800
 H370 H 0.06151 0.31045 0.37300
 H371 H -0.06376 0.33702 0.32867
 H372 H -0.04129 0.40703 0.30008
 H373 H 0.08659 0.37839 0.34396
 H374 H -0.02760 0.17939 0.38512
 H375 H -0.05063 0.12172 0.33814
 H376 H -0.07208 0.21440 0.23608
 H377 H -0.04817 0.27050 0.28569
 C378 C 0.09393 0.20948 0.45516
 C379 C -0.14434 0.29683 0.45763
 C380 C -0.06384 0.16331 0.28320
 C381 C 0.02449 0.39818 0.31989
 C382 C 1.04745 0.80273 0.05572
 H383 H 1.02267 0.82699 0.05512
 C384 C 1.08753 0.81155 0.03863
 H385 H 1.09283 0.84247 0.02409
 C386 C 1.07092 0.73362 0.07697
 H387 H 1.06474 0.70363 0.09290
 C388 C 1.11132 0.74105 0.06030
 H389 H 1.13555 0.71646 0.06387
 N390 N 1.04035 0.76470 0.07554
 C391 C 0.91198 0.72110 0.10013
 H392 H 0.91218 0.72250 0.13504
 C393 C 0.87733 0.70383 0.07861
 H394 H 0.85073 0.69221 0.09726
 C395 C 0.94671 0.73481 0.03366
 H396 H 0.97408 0.74677 0.01652
 C397 C 0.91233 0.71817 0.01070
 H398 H 0.91363 0.71699 -0.02420
 Zn399 Zn 0.99144 0.75739 0.11006
 N400 N 0.94582 0.73588 0.07755
 C401 C 0.93464 0.82539 0.13086
 N402 N 0.97570 0.81114 0.13356
 C403 C 1.00694 0.83655 0.14913
 C404 C 0.99750 0.87806 0.16236
 C405 C 0.92373 0.86655 0.14417
 C406 C 0.99956 0.67513 0.14569
 C407 C 1.01984 0.64357 0.17055
 C408 C 1.05276 0.69889 0.21252
 C409 C 1.03188 0.72939 0.18688
 N410 N 1.00671 0.71712 0.15351
 H411 H 0.91031 0.80530 0.11754
 H412 H 1.03956 0.82510 0.14989
 H413 H 1.02295 0.89762 0.17456
 H414 H 0.89099 0.87742 0.14122
 H415 H 0.98071 0.66594 0.11808
 H416 H 1.01550 0.61046 0.16217
 H417 H 1.07351 0.70949 0.23816
 H418 H 1.03768 0.76277 0.19226
 C419 C 0.87730 0.70209 0.03336
 C420 C 1.12048 0.78089 0.04201
 C421 C 1.04811 0.65538 0.20342
 C422 C 0.95547 0.89363 0.15966
 C423 C 0.51141 0.29967 0.57889
 H424 H 0.48032 0.31406 0.58374
 C425 C 0.54209 0.32125 0.55517
 H426 H 0.53426 0.35239 0.54195
 C427 C 0.55979 0.24248 0.59259
 H428 H 0.56666 0.21208 0.60787
 C429 C 0.59167 0.26325 0.56953
 H430 H 0.62282 0.24836 0.56671
 N431 N 0.52064 0.26102 0.59688
 C432 C 0.39703 0.20365 0.61942
 H433 H 0.39898 0.19694 0.65369
 C434 C 0.36128 0.19130 0.59586
 H435 H 0.33556 0.17557 0.61251
 C436 C 0.42867 0.23181 0.55620
 H437 H 0.45543 0.24654 0.54053
 C438 C 0.39345 0.22025 0.53148
 H439 H 0.39370 0.22644 0.49706
 Zn440 Zn 0.47875 0.23671 0.63247
 N441 N 0.42975 0.22363 0.59940
 C442 C 0.42625 0.29505 0.67914
 N443 N 0.46612 0.27824 0.67465
 C444 C 0.50001 0.29547 0.69523
 C445 C 0.49487 0.33184 0.72042
 C446 C 0.41963 0.33151 0.70414
 C447 C 0.49958 0.15112 0.63021
 C448 C 0.51729 0.11224 0.64336
 C449 C 0.53755 0.14449 0.71094
 C450 C 0.51861 0.18279 0.69677
 N451 N 0.50059 0.18543 0.65676
 H452 H 0.39985 0.28155 0.66170
 H453 H 0.53158 0.28234 0.69003
 H454 H 0.52295 0.34546 0.73473
 H455 H 0.38779 0.34485 0.70628
 H456 H 0.48565 0.15425 0.59834
 H457 H 0.51688 0.08568 0.62120
 H458 H 0.55244 0.14285 0.74251
 H459 H 0.51915 0.21042 0.71738
 C460 C 0.35923 0.19953 0.55123
 C461 C 0.58293 0.30321 0.55063
 C462 C 0.53695 0.10870 0.68397
 C463 C 0.45442 0.35118 0.72426
 C464 C 0.47557 0.78319 0.94807
 H465 H 0.50312 0.76983 0.96438
 C466 C 0.44048 0.79600 0.97241
 H467 H 0.44194 0.79239 1.00713
 C468 C 0.44101 0.80488 0.88338
 H469 H 0.44150 0.80827 0.84859
 C470 C 0.40506 0.81791 0.90645
 H471 H 0.37800 0.83075 0.88878
 N472 N 0.47469 0.78635 0.90423
 C473 C 0.60026 0.75202 0.91528
 H474 H 0.60964 0.78073 0.89854
 C475 C 0.63019 0.72920 0.94000
 H476 H 0.66243 0.74080 0.94217
 C477 C 0.54708 0.70169 0.93225
 H478 H 0.51480 0.69071 0.92818
 C479 C 0.57581 0.67800 0.95720
 H480 H 0.56499 0.64872 0.97182
 Zn481 Zn 0.52014 0.76183 0.87213
 N482 N 0.55989 0.73737 0.91115
 C483 C 0.53649 0.84527 0.84147
 N484 N 0.54774 0.80339 0.83807
 C485 C 0.58123 0.79083 0.81327
 C486 C 0.60586 0.82104 0.79187
 C487 C 0.55983 0.87648 0.82002
 C488 C 0.45790 0.70978 0.83029
 C489 C 0.44326 0.67021 0.81641
 C490 C 0.51576 0.64372 0.81751
 C491 C 0.52918 0.68406 0.83009
 N492 N 0.50016 0.71566 0.83806
 H493 H 0.51030 0.85472 0.86194
 H494 H 0.58977 0.75741 0.81136
 H495 H 0.63281 0.81048 0.77284
 H496 H 0.55102 0.90971 0.82393
 H497 H 0.43500 0.73457 0.83738
 H498 H 0.40938 0.66513 0.81280
 H499 H 0.53881 0.61791 0.81463
 H500 H 0.56248 0.68896 0.83723
 C501 C 0.61828 0.69112 0.96055
 C502 C 0.40401 0.81238 0.95155
 C503 C 0.47230 0.63640 0.81168
 C504 C 0.59550 0.86450 0.79555
 N505 N 0.50455 -0.15918 0.28685
 N506 N 0.51922 -0.19335 0.30743
 C507 C 0.49191 -0.20390 0.33916
 C508 C 0.45790 -0.17505 0.33814
 C509 C 0.46717 -0.14709 0.30461
 H510 H 0.42981 -0.17503 0.35821
 H511 H 0.52044 -0.14460 0.26127
 H512 H 0.54750 -0.20935 0.29959
 N513 N 1.02576 0.30107 0.81462
 N514 N 1.03555 0.26927 0.84125
 C515 C 1.00353 0.26404 0.86979
 C516 C 0.97184 0.29396 0.86018
 C517 C 0.98716 0.31684 0.82530
 H518 H 0.94265 0.30004 0.87767
 H519 H 1.04564 0.31192 0.79003
 H520 H 1.06465 0.25277 0.84096
 N521 N 0.00883 1.11804 0.90201
 N522 N 0.00095 1.15424 0.92210
 C523 C 0.00924 1.18728 0.89539
 C524 C 0.02263 1.17069 0.85599
 C525 C 0.02233 1.12664 0.86162
 H526 H 0.03186 1.18793 0.82734
 H527 H 0.00588 1.08822 0.91672
 H528 H -0.01018 1.15595 0.95378
 N529 N 0.48748 0.67143 0.29006
 N530 N 0.47289 0.70533 0.31079
 C531 C 0.50289 0.71860 0.33885
 C532 C 0.53859 0.69241 0.33459
 C533 C 0.52748 0.66291 0.30372
 H534 H 0.56859 0.69418 0.35171
 H535 H 0.47041 0.65499 0.26658
 H536 H 0.44280 0.71910 0.30579
 N537 N 0.54276 0.31552 0.24476
 N538 N 0.52537 0.28268 0.22523
 C539 C 0.52398 0.29021 0.18216
 C540 C 0.54066 0.33040 0.17460
 C541 C 0.55246 0.34522 0.21489
 H542 H 0.54264 0.34752 0.14441
 H543 H 0.54763 0.31717 0.27807
 H544 H 0.51349 0.25628 0.24173
 N545 N -0.02101 0.81539 0.69855
 N546 N -0.02910 0.77893 0.67916
 C547 C 0.00188 0.77045 0.65027
 C548 C 0.03133 0.80311 0.65201
 C549 C 0.01557 0.83124 0.68274
 H550 H 0.06022 0.80594 0.63347
 H551 H -0.04032 0.82849 0.72254
 H552 H -0.05560 0.76015 0.68561
 N553 N 1.02104 0.64890 0.70329
 N554 N 1.02973 0.68522 0.68362
 C555 C 1.00116 0.69228 0.65166
 C556 C 0.97258 0.65876 0.65151
 C557 C 0.98644 0.63174 0.68461
 H558 H 0.94536 0.65476 0.63054
 H559 H 1.03923 0.63620 0.72865
 H560 H 1.05530 0.70467 0.69169
 N561 N 0.51570 0.15733 0.20014
 N562 N 0.52989 0.19446 0.18636
 C563 C 0.49749 0.21685 0.16810
 C564 C 0.46101 0.19229 0.17026
 C565 C 0.47375 0.15489 0.19105
 H566 H 0.42946 0.20089 0.15886
 H567 H 0.53494 0.13430 0.21525
 H568 H 0.56137 0.20436 0.18969
 N569 N 0.30528 0.51408 -0.17159
 N570 N 0.33098 0.52487 -0.20348
 C571 C 0.36012 0.49346 -0.20945
 C572 C 0.35224 0.46122 -0.17953
 C573 C 0.31753 0.47563 -0.15592
 H574 H 0.37181 0.43333 -0.17275
 H575 H 0.28085 0.53370 -0.15997
 H576 H 0.33023 0.55457 -0.21892
 N577 N 0.90338 0.97367 0.33162
 N578 N 0.91441 0.99496 0.29660
 C579 C 0.88025 0.99965 0.27036
 C580 C 0.84608 0.97886 0.28939
 C581 C 0.86193 0.96345 0.32853
 H582 H 0.81427 0.97511 0.27663
 H583 H 0.92448 0.96572 0.35660
 H584 H 0.94514 1.00592 0.29067
 N585 N 0.77594 0.05379 1.19458
 N586 N 0.80435 0.04192 1.22395
 C587 C 0.83932 0.02619 1.20415
 C588 C 0.83268 0.02920 1.15973
 C589 C 0.79234 0.04733 1.15490
 H590 H 0.85617 0.02406 1.13475
 H591 H 0.74692 0.06837 1.20222
 H592 H 0.80099 0.04799 1.25690
 N593 N 0.40910 0.52801 0.65142
 N594 N 0.42513 0.51748 0.68951
 C595 C 0.39317 0.51243 0.71802
 C596 C 0.35471 0.52006 0.69657
 C597 C 0.36632 0.53003 0.65437
 H598 H 0.32284 0.51854 0.70954
 H599 H 0.42756 0.53487 0.62433
 H600 H 0.45767 0.51406 0.69594
 N601 N 0.20874 0.49033 0.32397
 N602 N 0.18512 0.48489 0.28887
 C603 C 0.15116 0.51172 0.29048
 C604 C 0.15260 0.53345 0.32928
 C605 C 0.19005 0.52023 0.34892
 H606 H 0.12983 0.55688 0.34085
 H607 H 0.23769 0.47461 0.32995
 H608 H 0.19222 0.46280 0.26481
 N609 N 0.73412 0.04905 0.78696
 N610 N 0.71927 0.03204 0.75114
 C611 C 0.67714 0.02518 0.75564
 C612 C 0.66494 0.03822 0.79667
 C613 C 0.70203 0.05314 0.81546
 H614 H 0.63387 0.03530 0.81133
 H615 H 0.76589 0.05740 0.79156
 H616 H 0.73839 0.02394 0.72484
 N617 N 0.69898 1.02066 0.61989
 N618 N 0.68262 1.03274 0.65719
 C619 C 0.67164 0.99791 0.68017
 C620 C 0.68092 0.96205 0.65576
 C621 C 0.69853 0.97771 0.61786
 H622 H 0.67528 0.92918 0.66435
 H623 H 0.70957 1.04192 0.59633
 H624 H 0.67885 1.06447 0.66663
 N625 N 0.10822 0.47080 0.15039
 N626 N 0.09214 0.48139 0.18814
 C627 C 0.12340 0.49628 0.21384
 C628 C 0.16117 0.49621 0.19027
 C629 C 0.15017 0.47918 0.15036
 H630 H 0.19203 0.50747 0.20041
 H631 H 0.09052 0.45718 0.12554
 H632 H 0.05989 0.47889 0.19575
 N633 N -0.21950 0.27748 0.47615
 N634 N -0.25431 0.29685 0.49034
 C635 C -0.24512 0.33775 0.49966
 C636 C -0.20247 0.34435 0.49042
 C637 C -0.18728 0.30552 0.47563
 H638 H -0.18555 0.37408 0.49278
 H639 H -0.21875 0.24604 0.46529
 H640 H -0.28384 0.28211 0.49202
 N641 N 0.35688 0.80752 1.01675
 N642 N 0.31778 0.81893 1.02769
 C643 C 0.29941 0.84037 0.99448
 C644 C 0.32881 0.84329 0.96120
 C645 C 0.36467 0.82172 0.97634
 H646 H 0.32440 0.85878 0.93018
 H647 H 0.37707 0.78933 1.03660
 H648 H 0.30381 0.81172 1.05738
 N649 N 1.19566 0.76210 0.02148
 N650 N 1.23082 0.78228 0.01090
 C651 C 1.22347 0.82485 0.01214
 C652 C 1.18103 0.83145 0.02311
 C653 C 1.16461 0.79109 0.02900
 H654 H 1.16380 0.86122 0.02553
 H655 H 1.19305 0.72895 0.02192
 H656 H 1.25864 0.76665 0.00103
 N657 N 0.60906 0.35742 0.49790
 N658 N 0.64543 0.37553 0.48779
 C659 C 0.67730 0.35676 0.51083
 C660 C 0.65974 0.32538 0.53694
 C661 C 0.61652 0.32696 0.52787
 H662 H 0.67593 0.30628 0.56132
 H663 H 0.57960 0.36678 0.48503
 H664 H 0.64727 0.40166 0.46692
 N665 N 0.31054 0.20253 0.48678
 N666 N 0.27644 0.18253 0.47271
 C667 C 0.26588 0.15197 0.50146
 C668 C 0.29433 0.15345 0.53591
 C669 C 0.32227 0.18564 0.52523
 H670 H 0.29466 0.13405 0.56489
 H671 H 0.32471 0.22786 0.47047
 H672 H 0.26040 0.19006 0.44399
 N673 N 0.82874 0.69192 -0.03016
 N674 N 0.79612 0.66760 -0.04020
 C675 C 0.78716 0.64192 -0.00628
 C676 C 0.81571 0.65067 0.02674
 C677 C 0.84128 0.68245 0.01044
 H678 H 0.81888 0.63516 0.05786
 H679 H 0.84197 0.71446 -0.05095
 H680 H 0.78115 0.66784 -0.07037
 N681 N 0.64082 0.63014 1.00819
 N682 N 0.67593 0.60795 1.01615
 C683 C 0.70917 0.62701 0.99660
 C684 C 0.69381 0.66286 0.97468
 C685 C 0.65033 0.66350 0.98253
 H686 H 0.71109 0.68334 0.95293
 H687 H 0.61082 0.62120 1.01914
 H688 H 0.67621 0.57896 1.03290
 N689 N 0.14452 0.20351 0.51773
 N690 N 0.17912 0.18136 0.52819
 C691 C 0.18845 0.15389 0.49608
 C692 C 0.15856 0.15957 0.46333
 C693 C 0.13116 0.19110 0.47842
 H694 H 0.15695 0.14321 0.43274
 H695 H 0.13115 0.22733 0.53700
 H696 H 0.19624 0.18522 0.55686
 N697 N 0.54661 0.02977 0.68173
 N698 N 0.57610 0.00140 0.69268
 C699 C 0.60688 0.02066 0.71571
 C700 C 0.59628 0.06375 0.71909
 C701 C 0.55801 0.06815 0.69682
 H702 H 0.61587 0.08904 0.73158
 H703 H 0.52020 0.02302 0.66246
 H704 H 0.57642 -0.03014 0.68200
 N705 N 1.11316 0.63157 0.24393
 N706 N 1.13081 0.59557 0.25770
 C707 C 1.10423 0.56299 0.24947
 C708 C 1.06877 0.57938 0.22772
 C709 C 1.07526 0.62305 0.22564
 H710 H 1.04234 0.56169 0.21472
 H711 H 1.12815 0.66105 0.24535
 H712 H 1.16147 0.59372 0.27073
 N713 N 0.97295 0.96987 0.17464
 N714 N 0.95384 1.00382 0.19102
 C715 C 0.91288 0.99435 0.19969
 C716 C 0.90592 0.95231 0.18812
 C717 C 0.94485 0.93780 0.17275
 H718 H 0.87735 0.93408 0.19340
 H719 H 1.00502 0.96878 0.16587
 H720 H 0.96956 1.03211 0.19800
 N721 N 0.48079 0.41352 0.76697
 N722 N 0.46749 0.45226 0.77711
 C723 C 0.42685 0.45763 0.76353
 C724 C 0.41411 0.42033 0.74355
 C725 C 0.44934 0.39313 0.74603
 H726 H 0.38415 0.41522 0.72717
 H727 H 0.51158 0.40231 0.77344
 H728 H 0.48712 0.47479 0.79140
 N729 N 0.45960 0.56420 0.84108
 N730 N 0.44028 0.52897 0.82939
 C731 C 0.42576 0.53362 0.78851
 C732 C 0.43517 0.57467 0.77421
 C733 C 0.45700 0.59252 0.80839
 H734 H 0.42686 0.58973 0.74374
 H735 H 0.47331 0.56909 0.87141
 H736 H 0.43697 0.50218 0.84927
 N737 N -0.07823 0.12961 0.21128
 N738 N -0.09173 0.09259 0.19675
 C739 C -0.10076 0.06692 0.23060
 C740 C -0.09325 0.08926 0.26835
 C741 C -0.07852 0.12858 0.25479
 H742 H -0.09822 0.07862 0.30121
 H743 H -0.06821 0.15457 0.19146
 H744 H -0.09414 0.08492 0.16406
 N745 N 0.01651 0.47680 0.30667
 N746 N 0.04011 0.50823 0.29168
 C747 C 0.07793 0.49191 0.27860
 C748 C 0.07842 0.44837 0.28672
 C749 C 0.03899 0.44005 0.30418
 H750 H 0.10402 0.42588 0.28030
 H751 H -0.01399 0.48082 0.31948
 H752 H 0.03032 0.54013 0.29147
 N753 N 0.66446 0.89262 0.76772
 N754 N 0.67857 0.92799 0.74969
 C755 C 0.64567 0.95558 0.74401
 C756 C 0.60919 0.93716 0.76080
 C757 C 0.62236 0.89712 0.77488
 H758 H 0.57747 0.95083 0.76264
 H759 H 0.68375 0.86637 0.77576
 H760 H 0.71034 0.93309 0.74143
 N761 N 0.75893 0.51663 0.06704
 N762 N 0.76506 0.53350 0.02833
 C763 C 0.76028 0.57630 0.03089
 C764 C 0.75191 0.58672 0.07349
 C765 C 0.74980 0.54814 0.09506
 H766 H 0.74295 0.61788 0.08551
 H767 H 0.75702 0.48389 0.07296
 H768 H 0.76898 0.51537 0.00044
 N769 N 0.24337 1.04259 0.57981
 N770 N 0.25449 1.06342 0.54446
 C771 C 0.22405 1.09269 0.53467
 C772 C 0.19146 1.08922 0.56471
 C773 C 0.20520 1.05756 0.59297
 H774 H 0.16217 1.10761 0.56650
 H775 H 0.26162 1.01832 0.59423
 H776 H 0.28281 1.05801 0.52765
 N777 N 0.22399 0.85211 0.88223
 N778 N 0.23814 0.83609 0.91905
 C779 C 0.24014 0.86734 0.94871
 C780 C 0.22683 0.90540 0.92939
 C781 C 0.21657 0.89418 0.88721
 H782 H 0.22439 0.93661 0.94385
 H783 H 0.21809 0.83375 0.85491
 H784 H 0.24574 0.80389 0.92387
 N785 N 0.73496 0.47621 0.46169
 N786 N 0.73649 0.45105 0.49603
 C787 C 0.72918 0.41058 0.48356
 C788 C 0.72443 0.41007 0.43903
 C789 C 0.72702 0.45239 0.42655
 H790 H 0.71564 0.38311 0.41939
 H791 H 0.73776 0.50931 0.46290
 H792 H 0.74087 0.46217 0.52742
 N793 N 0.72113 0.41978 0.62012
 N794 N 0.70263 0.40674 0.58431
 C795 C 0.73154 0.38572 0.55996
 C796 C 0.77040 0.38588 0.58155
 C797 C 0.76251 0.40789 0.61940
 H798 H 0.80069 0.37353 0.57062
 H799 H 0.70583 0.43851 0.64326
 H800 H 0.67113 0.41407 0.57590
 N801 N 0.22724 -0.04919 0.06202
 N802 N 0.21907 -0.07567 0.02997
 C803 C 0.25298 -0.10202 0.02416
 C804 C 0.28441 -0.09036 0.05345
 C805 C 0.26678 -0.05741 0.07702
 H806 H 0.31515 -0.10527 0.05910
 H807 H 0.20582 -0.02619 0.07346
 H808 H 0.19044 -0.07556 0.01279
 N809 N 0.21088 0.05002 0.40807
 N810 N 0.19931 0.06878 0.44438
 C811 C 0.22917 0.09720 0.45582
 C812 C 0.26147 0.09593 0.42524
 C813 C 0.24859 0.06583 0.39538
 H814 H 0.29085 0.11353 0.42521
 H815 H 0.19281 0.02706 0.39237
 H816 H 0.17134 0.06209 0.46114
 N817 N 0.74236 0.56230 0.88536
 N818 N 0.72634 0.58018 0.92029
 C819 C 0.75757 0.58365 0.95019
 C820 C 0.79490 0.56630 0.93350
 C821 C 0.78387 0.55359 0.89234
 H822 H 0.82611 0.56528 0.94845
 H823 H 0.72501 0.55648 0.85720
 H824 H 0.69467 0.59035 0.92273
 N825 N 0.08982 0.74812 0.54638
 N826 N 0.05318 0.75892 0.56443
 C827 C 0.04293 0.72925 0.59426
 C828 C 0.07433 0.69758 0.59419
 C829 C 0.10356 0.71090 0.56375
 H830 H 0.07596 0.66882 0.61360
 H831 H 0.10448 0.76572 0.52199
 H832 H 0.03544 0.78623 0.55632
 N833 N 0.56335 0.28173 1.05121
 N834 N 0.53455 0.29280 1.08030
 C835 C 0.52813 0.25969 1.10761
 C836 C 0.55351 0.22571 1.09394
 C837 C 0.57561 0.24108 1.05872
 H838 H 0.55771 0.19472 1.10887
 H839 H 0.57459 0.30200 1.02704
 H840 H 0.51996 0.32285 1.08137
 N841 N 0.92043 0.25635 0.98659
 N842 N 0.95982 0.26058 0.97236
 C843 C 0.96402 0.23917 0.93486
 C844 C 0.92495 0.22157 0.92445
 C845 C 0.89835 0.23258 0.95834
 H846 H 0.91781 0.20148 0.89713
 H847 H 0.90927 0.26940 1.01541
 H848 H 0.98328 0.27765 0.98853
 N849 N 0.41767 0.76561 0.45254
 N850 N 0.45020 0.78019 0.43010
 C851 C 0.46031 0.75202 0.39887
 C852 C 0.43283 0.71774 0.40206
 C853 C 0.40621 0.72767 0.43626
 H854 H 0.43292 0.68883 0.38324
 H855 H 0.40362 0.78175 0.47832
 H856 H 0.46551 0.80888 0.43640
 N857 N 0.58681 0.74134 0.44252
 N858 N 0.54915 0.73164 0.42653
 C859 C 0.53763 0.76109 0.39659
 C860 C 0.56943 0.79149 0.39426
 C861 C 0.60027 0.77743 0.42342
 H862 H 0.57098 0.81901 0.37316
 H863 H 0.60277 0.72325 0.46607
 H864 H 0.53212 0.70450 0.43518
 N865 N 0.08669 0.24046 -0.00705
 N866 N 0.05262 0.22350 -0.02483
 C867 C 0.04343 0.24415 -0.06222
 C868 C 0.07349 0.27600 -0.06799
 C869 C 0.10033 0.27236 -0.03255
 H870 H 0.07515 0.29967 -0.09342
 H871 H 0.10027 0.23001 0.02205
 H872 H 0.03561 0.19871 -0.01079
 N873 N 0.39419 0.30405 0.15882
 N874 N 0.43042 0.28899 0.17465
 C875 C 0.45755 0.28098 0.14190
 C876 C 0.43721 0.29158 0.10316
 C877 C 0.39711 0.30612 0.11548
 H878 H 0.44923 0.28834 0.07064
 H879 H 0.36829 0.31333 0.17778
 H880 H 0.43628 0.28401 0.20753
 N881 N 0.92469 0.71474 0.53588
 N882 N 0.95795 0.70275 0.55955
 C883 C 0.96483 0.73213 0.59040
 C884 C 0.93443 0.76440 0.58563
 C885 C 0.90953 0.75220 0.55091
 H886 H 0.93186 0.79373 0.60364
 H887 H 0.91293 0.69736 0.50988
 H888 H 0.97611 0.67519 0.55411
   
