data_POSCAR
  _audit_creation_date              2014-09-24
  _audit_creation_method            'ToBaCCo'
  _symmetry_space_group_name_H-M    'P1'
  _symmetry_Int_Tables_number       1
  _symmetry_cell_setting            triclinic
  loop_
  _symmetry_equiv_pos_as_xyz
 x,y,z
_cell_length_a 37.2040
_cell_length_b 37.2412
_cell_length_c 37.2560
_cell_angle_alpha 90.148200
_cell_angle_beta 89.957100
_cell_angle_gamma 90.615000
loop_
  _atom_site_label
  _atom_site_type_symbol
  _atom_site_fract_x
  _atom_site_fract_y
  _atom_site_fract_z
C1 C 0.19892 0.53452 1.04103
 H2 H 0.20404 0.55590 1.02203
 C3 C 0.17111 0.53772 1.06591
 H4 H 0.15652 0.56265 1.06640
 C5 C 0.21280 0.47668 1.06270
 H6 H 0.22799 0.45223 1.06018
 C7 C 0.18522 0.47867 1.08809
 H8 H 0.18011 0.45515 1.10432
 N9 N 0.21881 0.50424 1.03958
 C10 C 0.29965 0.54281 0.96420
 H11 H 0.29371 0.52489 0.94204
 C12 C 0.32761 0.56787 0.96124
 H13 H 0.34233 0.56969 0.93622
 C14 C 0.28830 0.56099 1.02410
 H15 H 0.27382 0.55711 1.04899
 C16 C 0.31642 0.58614 1.02247
 H17 H 0.32311 0.60150 1.04629
 Zn18 Zn 0.24986 0.49951 0.99978
 N19 N 0.28083 0.53967 0.99533
 C20 C 0.21168 0.52376 0.93897
 N21 N 0.21938 0.49474 0.95953
 C22 C 0.20101 0.46324 0.95567
 C23 C 0.17344 0.46006 0.93046
 C24 C 0.18394 0.52192 0.91373
 C25 C 0.29895 0.45687 1.03587
 C26 C 0.32626 0.43177 1.03933
 C27 C 0.31532 0.41301 0.97815
 C28 C 0.28781 0.43818 0.97604
 N29 N 0.28039 0.45965 1.00462
 H30 H 0.22564 0.54897 0.94353
 H31 H 0.20696 0.44091 0.97311
 H32 H 0.15911 0.43473 0.92803
 H33 H 0.17708 0.54590 0.89900
 H34 H 0.29327 0.47504 1.05781
 H35 H 0.34067 0.43017 1.06449
 H36 H 0.32194 0.39748 0.95450
 H37 H 0.27380 0.44190 0.95094
 C38 C 0.33707 0.58928 0.99096
 C39 C 0.16286 0.50914 1.08950
 C40 C 0.33548 0.41003 1.00991
 C41 C 0.16385 0.48995 0.90973
 C42 C 0.79932 0.53390 -0.04777
 H43 H 0.79366 0.55790 -0.03244
 C44 C 0.82699 0.53425 -0.07313
 H45 H 0.84235 0.55873 -0.07746
 C46 C 0.78841 0.47193 -0.05834
 H47 H 0.77430 0.44740 -0.05136
 C48 C 0.81618 0.47097 -0.08352
 H49 H 0.82271 0.44578 -0.09644
 N50 N 0.78076 0.50302 -0.04083
 C51 C 0.70283 0.54684 0.03447
 H52 H 0.70904 0.53010 0.05727
 C53 C 0.67528 0.57181 0.03698
 H54 H 0.66119 0.57481 0.06223
 C55 C 0.71262 0.56172 -0.02658
 H56 H 0.72611 0.55643 -0.05172
 C57 C 0.68495 0.58681 -0.02536
 H58 H 0.67772 0.60082 -0.04969
 Zn59 Zn 0.75041 0.50143 -0.00023
 N60 N 0.72072 0.54212 0.00302
 C61 C 0.78996 0.52726 0.05982
 N62 N 0.78146 0.49791 0.03962
 C63 C 0.79919 0.46647 0.04366
 C64 C 0.82700 0.46371 0.06856
 C65 C 0.81785 0.52578 0.08488
 C66 C 0.69997 0.45755 -0.03408
 C67 C 0.67192 0.43252 -0.03644
 C68 C 0.68233 0.41670 0.02552
 C69 C 0.71049 0.44183 0.02658
 N70 N 0.71848 0.46183 -0.00291
 H71 H 0.77648 0.55239 0.05515
 H72 H 0.79250 0.44383 0.02659
 H73 H 0.84092 0.43847 0.07108
 H74 H 0.82531 0.54990 0.09946
 H75 H 0.70635 0.47443 -0.05685
 H76 H 0.65749 0.42972 -0.06152
 H77 H 0.67532 0.40226 0.04975
 H78 H 0.72471 0.44664 0.05146
 C79 C 0.66527 0.59151 0.00654
 C80 C 0.83626 0.50227 -0.09065
 C81 C 0.66214 0.41228 -0.00612
 C82 C 0.83731 0.49388 0.08896
 C83 C -0.03341 0.30074 0.45791
 H84 H -0.05509 0.29535 0.47656
 C85 C -0.03651 0.32847 0.43308
 H86 H -0.06164 0.34274 0.43228
 C87 C 0.02502 0.28752 0.43700
 H88 H 0.04959 0.27256 0.43977
 C89 C 0.02311 0.31504 0.41163
 H90 H 0.04682 0.32039 0.39566
 N91 N -0.00288 0.28124 0.45976
 C92 C -0.04226 0.19926 0.53307
 H93 H -0.02488 0.20517 0.55564
 C94 C -0.06718 0.17113 0.53523
 H95 H -0.06941 0.15617 0.56002
 C96 C -0.05938 0.21115 0.47305
 H97 H -0.05520 0.22601 0.44847
 C98 C -0.08438 0.18286 0.47388
 H99 H -0.09932 0.17636 0.44976
 Zn100 Zn 0.00099 0.25025 0.49957
 N101 N -0.03867 0.21844 0.50228
 C102 C -0.02800 0.28757 0.55853
 N103 N 0.00279 0.28063 0.54020
 C104 C 0.03347 0.29985 0.54639
 C105 C 0.03392 0.32749 0.57179
 C106 C -0.02889 0.31533 0.58376
 C107 C 0.04564 0.20162 0.46535
 C108 C 0.07057 0.17401 0.46311
 C109 C 0.08693 0.18548 0.52485
 C110 C 0.06194 0.21326 0.52576
 N111 N 0.04165 0.22047 0.49635
 H112 H -0.05243 0.27292 0.55218
 H113 H 0.05719 0.29469 0.53045
 H114 H 0.05820 0.34335 0.57556
 H115 H -0.05389 0.32134 0.59732
 H116 H 0.02835 0.20710 0.44273
 H117 H 0.07301 0.15924 0.43819
 H118 H 0.10142 0.17896 0.54912
 H119 H 0.05723 0.22750 0.55060
 C120 C -0.08799 0.16189 0.50506
 C121 C -0.00761 0.33703 0.40990
 C122 C 0.09090 0.16483 0.49345
 C123 C 0.00218 0.33606 0.59013
 C124 C 0.96279 0.70130 0.54544
 H125 H 0.93995 0.70788 0.52885
 C126 C 0.95988 0.67370 0.57055
 H127 H 0.93432 0.65993 0.57379
 C128 C 1.02422 0.71032 0.55996
 H129 H 1.04961 0.72362 0.55452
 C130 C 1.02262 0.68260 0.58513
 H131 H 1.04694 0.67508 0.59900
 N132 N 0.99461 0.71888 0.54054
 C133 C 0.95403 0.79667 0.46419
 H134 H 0.97086 0.78986 0.44153
 C135 C 0.92889 0.82399 0.46101
 H136 H 0.92590 0.83733 0.43542
 C137 C 0.93888 0.78845 0.52543
 H138 H 0.94406 0.77558 0.55085
 C139 C 0.91367 0.81593 0.52355
 H140 H 0.89953 0.82371 0.54770
 Zn141 Zn 0.99870 0.74929 0.50028
 N142 N 0.95861 0.77960 0.49603
 C143 C 0.97319 0.70942 0.44056
 N144 N 1.00267 0.71825 0.46039
 C145 C 1.03422 0.70070 0.45607
 C146 C 1.03698 0.67283 0.43116
 C147 C 0.97467 0.68151 0.41549
 C148 C 1.04348 0.79823 0.53568
 C149 C 1.06856 0.82622 0.53841
 C150 C 1.08381 0.81717 0.47601
 C151 C 1.05864 0.78907 0.47458
 N152 N 1.03890 0.78042 0.50411
 H153 H 0.94796 0.72269 0.44553
 H154 H 1.05694 0.70754 0.47295
 H155 H 1.06230 0.65904 0.42839
 H156 H 0.95045 0.67383 0.40119
 H157 H 1.02668 0.79150 0.55845
 H158 H 1.07155 0.84017 0.56377
 H159 H 1.09798 0.82473 0.45175
 H160 H 1.05349 0.77552 0.44938
 C161 C 0.90893 0.83464 0.49118
 C162 C 0.99029 0.66333 0.59017
 C163 C 1.08851 0.83669 0.50807
 C164 C 1.00669 0.66229 0.41105
 C165 C 0.45310 -0.03563 0.29801
 H166 H 0.46992 -0.05837 0.29196
 C167 C 0.42811 -0.03792 0.32586
 H168 H 0.42514 -0.06298 0.34026
 C169 C 0.43814 0.02514 0.28767
 H170 H 0.44344 0.05015 0.27389
 C171 C 0.41309 0.02416 0.31565
 H172 H 0.39914 0.04853 0.32277
 N173 N 0.45777 -0.00442 0.27968
 C174 C 0.53306 -0.04206 0.19854
 H175 H 0.55483 -0.02342 0.20423
 C176 C 0.53626 -0.06654 0.17038
 H177 H 0.56153 -0.06710 0.15607
 C178 C 0.47433 -0.06326 0.21146
 H179 H 0.44963 -0.06072 0.22649
 C180 C 0.47634 -0.08833 0.18353
 H181 H 0.45259 -0.10433 0.17793
 Zn182 Zn 0.49852 -0.00093 0.24957
 N183 N 0.50233 -0.04050 0.21807
 C184 C 0.55756 -0.02798 0.28879
 N185 N 0.53816 0.00172 0.28098
 C186 C 0.54294 0.03289 0.29946
 C187 C 0.56791 0.03505 0.32728
 C188 C 0.58248 -0.02719 0.31687
 C189 C 0.46610 0.04638 0.20137
 C190 C 0.46561 0.07208 0.17415
 C191 C 0.52876 0.08365 0.18479
 C192 C 0.52793 0.05811 0.21215
 N193 N 0.49696 0.03989 0.21969
 H194 H 0.55237 -0.05281 0.27451
 H195 H 0.52650 0.05584 0.29324
 H196 H 0.57118 0.06021 0.34157
 H197 H 0.59631 -0.05162 0.32380
 H198 H 0.44223 0.03050 0.20691
 H199 H 0.44115 0.07609 0.15900
 H200 H 0.55385 0.09715 0.17832
 H201 H 0.55248 0.05147 0.22601
 C202 C 0.50728 -0.08970 0.16147
 C203 C 0.40841 -0.00746 0.33576
 C204 C 0.49746 0.09039 0.16504
 C205 C 0.58740 0.00447 0.33706
 C206 C 0.54970 -0.03086 0.70235
 H207 H 0.53491 -0.05515 0.70887
 C208 C 0.57522 -0.03126 0.67485
 H209 H 0.58020 -0.05604 0.66051
 C210 C 0.55871 0.03171 0.71081
 H211 H 0.55108 0.05640 0.72393
 C212 C 0.58404 0.03262 0.68315
 H213 H 0.59639 0.05798 0.67567
 N214 N 0.54199 0.00031 0.71968
 C215 C 0.46692 -0.04509 0.79750
 H216 H 0.44378 -0.02906 0.79089
 C217 C 0.46462 -0.07021 0.82513
 H218 H 0.43924 -0.07405 0.83890
 C219 C 0.52854 -0.05795 0.78872
 H220 H 0.55379 -0.05177 0.77564
 C221 C 0.52751 -0.08321 0.81641
 H222 H 0.55208 -0.09649 0.82404
 Zn223 Zn 0.50141 0.00142 0.75009
 N224 N 0.49854 -0.03933 0.78005
 C225 C 0.44202 -0.02554 0.71028
 N226 N 0.46135 0.00436 0.71921
 C227 C 0.45633 0.03603 0.70197
 C228 C 0.43127 0.03846 0.67428
 C229 C 0.41682 -0.02438 0.68252
 C230 C 0.53558 0.04669 0.79909
 C231 C 0.53784 0.07152 0.82710
 C232 C 0.47485 0.08430 0.81888
 C233 C 0.47388 0.05942 0.79073
 N234 N 0.50395 0.04104 0.78165
 H235 H 0.44749 -0.05078 0.72336
 H236 H 0.47276 0.05915 0.70895
 H237 H 0.42796 0.06390 0.66074
 H238 H 0.40292 -0.04887 0.67474
 H239 H 0.55882 0.03098 0.79196
 H240 H 0.56330 0.07541 0.84070
 H241 H 0.45024 0.09741 0.82677
 H242 H 0.44871 0.05346 0.77739
 C243 C 0.49541 -0.08901 0.83558
 C244 C 0.59208 0.00095 0.66443
 C245 C 0.50700 0.09009 0.83798
 C246 C 0.41171 0.00777 0.66358
 C247 C 0.21113 -0.03129 0.50438
 C248 C 0.23013 0.00124 0.50152
 C249 C 0.21155 0.03363 0.49888
 C250 C 0.17379 0.03381 0.49909
 C251 C 0.15501 0.00094 0.50205
 C252 C 0.17339 -0.03177 0.50465
 C253 C 0.26961 0.00135 0.50112
 C254 C 0.28807 -0.00145 0.46848
 C255 C 0.32582 -0.00153 0.46778
 C256 C 0.34473 0.00134 0.50038
 C257 C 0.32647 0.00409 0.53333
 C258 C 0.28873 0.00405 0.53340
 H259 H 0.22586 -0.05612 0.50677
 H260 H 0.22659 0.05855 0.49614
 H261 H 0.27293 -0.00408 0.44376
 H262 H 0.27412 0.00652 0.55844
 H263 H 0.12592 0.00081 0.50224
 H264 H 0.37383 0.00136 0.50012
 C265 C 0.78774 -0.03440 0.49479
 C266 C 0.76951 -0.00186 0.49824
 C267 C 0.78885 0.03050 0.50095
 C268 C 0.82658 0.03068 0.50010
 C269 C 0.84459 -0.00216 0.49663
 C270 C 0.82547 -0.03486 0.49406
 C271 C 0.73006 -0.00156 0.49904
 C272 C 0.71191 -0.00151 0.53198
 C273 C 0.67431 0.00031 0.53295
 C274 C 0.65505 0.00155 0.50060
 C275 C 0.67293 0.00146 0.46731
 C276 C 0.71066 -0.00010 0.46686
 H277 H 0.77244 -0.05922 0.49240
 H278 H 0.77439 0.05541 0.50410
 H279 H 0.72710 -0.00214 0.55679
 H280 H 0.72512 0.00059 0.44162
 H281 H 0.87368 -0.00230 0.49604
 H282 H 0.62595 0.00192 0.50150
 C283 C 0.53079 0.28898 0.99841
 C284 C 0.49842 0.26983 1.00231
 C285 C 0.46604 0.28823 1.00642
 C286 C 0.46570 0.32595 1.00632
 C287 C 0.49842 0.34486 1.00254
 C288 C 0.53113 0.32667 0.99875
 C289 C 0.49860 0.23039 1.00216
 C290 C 0.49680 0.21155 1.03460
 C291 C 0.49907 0.17400 1.03478
 C292 C 0.50202 0.15544 1.00208
 C293 C 0.50326 0.17400 0.96927
 C294 C 0.50187 0.21169 0.96964
 H295 H 0.55562 0.27441 0.99497
 H296 H 0.44124 0.27309 1.00981
 H297 H 0.49483 0.22618 1.05970
 H298 H 0.50370 0.22661 0.94477
 H299 H 0.49844 0.37393 1.00255
 H300 H 0.50262 0.12636 1.00229
 C301 C 0.53414 0.71224 0.00209
 C302 C 0.50181 0.73079 -0.00157
 C303 C 0.46934 0.71177 -0.00530
 C304 C 0.46882 0.67405 -0.00500
 C305 C 0.50152 0.65573 -0.00147
 C306 C 0.53434 0.67454 0.00191
 C307 C 0.50196 0.77024 -0.00136
 C308 C 0.49921 0.78914 -0.03369
 C309 C 0.49968 0.82686 -0.03378
 C310 C 0.50273 0.84532 -0.00092
 C311 C 0.50512 0.82661 0.03170
 C312 C 0.50484 0.78893 0.03121
 H313 H 0.55905 0.72727 0.00526
 H314 H 0.44458 0.72648 -0.00851
 H315 H 0.49650 0.77438 -0.05866
 H316 H 0.50705 0.77409 0.05608
 H317 H 0.50144 0.62667 -0.00134
 H318 H 0.50315 0.87441 -0.00067
 C319 C 1.00365 0.53134 0.28865
 C320 C 1.00048 0.49900 0.26957
 C321 C 0.99689 0.46645 0.28806
 C322 C 0.99633 0.46603 0.32573
 C323 C 0.99914 0.49867 0.34460
 C324 C 1.00287 0.53151 0.32633
 C325 C 1.00070 0.49936 0.23014
 C326 C 1.03322 0.50337 0.21155
 C327 C 1.03363 0.50429 0.17389
 C328 C 1.00094 0.50146 0.15514
 C329 C 0.96811 0.49739 0.17350
 C330 C 0.96831 0.49621 0.21117
 H331 H 1.00686 0.55630 0.27403
 H332 H 0.99432 0.44157 0.27308
 H333 H 1.05811 0.50602 0.22647
 H334 H 0.94336 0.49277 0.22586
 H335 H 0.99846 0.49847 0.37366
 H336 H 1.00110 0.50239 0.12609
 C337 C -0.00460 0.53197 0.71162
 C338 C -0.00067 0.49951 0.73008
 C339 C 0.00162 0.46716 0.71099
 C340 C -0.00081 0.46698 0.67345
 C341 C -0.00442 0.49964 0.65513
 C342 C -0.00612 0.53239 0.67393
 C343 C -0.00024 0.49914 0.76951
 C344 C -0.03258 0.50160 0.78858
 C345 C -0.03271 0.49936 0.82612
 C346 C 0.00001 0.49579 0.84446
 C347 C 0.03276 0.49379 0.82568
 C348 C 0.03227 0.49511 0.78798
 H349 H -0.00677 0.55676 0.72673
 H350 H 0.00411 0.44208 0.72544
 H351 H -0.05769 0.50408 0.77410
 H352 H 0.05703 0.49272 0.77287
 H353 H -0.00510 0.49946 0.62606
 H354 H -0.00014 0.49533 0.87353
 C355 C 0.10208 0.10114 0.47470
 C356 C 0.11360 0.13214 0.49323
 C357 C 0.14591 0.13089 0.51275
 C358 C 0.16577 0.09920 0.51425
 C359 C 0.15382 0.06808 0.49620
 C360 C 0.12201 0.06964 0.47599
 H361 H 0.07706 0.10080 0.45989
 H362 H 0.15577 0.15434 0.52704
 H363 H 0.19003 0.09885 0.53027
 H364 H 0.11233 0.04639 0.46125
 C365 C 0.60194 0.60310 0.02630
 C366 C 0.63268 0.61434 0.00722
 C367 C 0.63125 0.64647 -0.01246
 C368 C 0.59959 0.66640 -0.01363
 C369 C 0.56867 0.65467 0.00486
 C370 C 0.57042 0.62306 0.02525
 H371 H 0.60181 0.57824 0.04129
 H372 H 0.65452 0.65608 -0.02717
 H373 H 0.59905 0.69050 -0.02981
 H374 H 0.54729 0.61356 0.04025
 C375 C 0.89666 -0.10286 0.46978
 C376 C 0.88575 -0.13309 0.48972
 C377 C 0.85369 -0.13133 0.50965
 C378 C 0.83363 -0.09977 0.51041
 C379 C 0.84514 -0.06929 0.49120
 C380 C 0.87654 -0.07146 0.47037
 H381 H 0.92144 -0.10297 0.45453
 H382 H 0.84428 -0.15424 0.52498
 H383 H 0.80968 -0.09890 0.52692
 H384 H 0.88584 -0.04869 0.45478
 C385 C 0.36871 0.35388 0.99269
 C386 C 0.36773 0.38675 1.01133
 C387 C 0.39868 0.39830 1.02991
 C388 C 0.42997 0.37799 1.02922
 C389 C 0.43137 0.34581 1.00954
 C390 C 0.40020 0.33369 0.99172
 H391 H 0.34526 0.34393 0.97848
 H392 H 0.39923 0.42368 1.04412
 H393 H 0.45326 0.38780 1.04380
 H394 H 0.40043 0.30913 0.97612
 C395 C 0.90012 0.09808 0.52344
 C396 C 0.88883 0.12906 0.50532
 C397 C 0.85614 0.12776 0.48640
 C398 C 0.83565 0.09604 0.48510
 C399 C 0.84732 0.06495 0.50278
 C400 C 0.87955 0.06655 0.52237
 H401 H 0.92540 0.09780 0.53779
 H402 H 0.84644 0.15120 0.47246
 H403 H 0.81108 0.09566 0.46953
 H404 H 0.88904 0.04332 0.53681
 C405 C 0.37141 0.64530 0.00878
 C406 C 0.36991 0.61249 -0.00997
 C407 C 0.40081 0.60100 -0.02832
 C408 C 0.43249 0.62142 -0.02746
 C409 C 0.43432 0.65368 -0.00788
 C410 C 0.40326 0.66560 0.00989
 H411 H 0.34804 0.65518 0.02286
 H412 H 0.40095 0.57565 -0.04258
 H413 H 0.45568 0.61172 -0.04197
 H414 H 0.40379 0.69018 0.02546
 C415 C 0.10095 -0.10012 0.52853
 C416 C 0.11178 -0.13055 0.50905
 C417 C 0.14394 -0.12866 0.48925
 C418 C 0.16430 -0.09686 0.48832
 C419 C 0.15300 -0.06624 0.50722
 C420 C 0.12137 -0.06847 0.52776
 H421 H 0.07609 -0.10034 0.54364
 H422 H 0.15327 -0.15169 0.47425
 H423 H 0.18840 -0.09597 0.47202
 H424 H 0.11220 -0.04559 0.54310
 C425 C 0.59863 0.39971 0.97455
 C426 C 0.62948 0.38887 0.99327
 C427 C 0.62816 0.35647 1.01255
 C428 C 0.59650 0.33589 1.01376
 C429 C 0.56548 0.34720 0.99565
 C430 C 0.56713 0.37906 0.97559
 H431 H 0.59842 0.42474 0.95986
 H432 H 0.65153 0.34714 1.02694
 H433 H 0.59604 0.31161 1.02969
 H434 H 0.54391 0.38825 0.96086
 C435 C 0.47229 0.13945 1.12672
 C436 C 0.49882 0.11361 1.13288
 C437 C 0.52584 0.10855 1.10708
 C438 C 0.52593 0.12837 1.07535
 C439 C 0.49929 0.15399 1.06901
 C440 C 0.47275 0.15977 1.09516
 H441 H 0.45121 0.14379 1.14626
 H442 H 0.54632 0.08849 1.11101
 H443 H 0.54679 0.12365 1.05565
 H444 H 0.45190 0.17933 1.09073
 C445 C -0.03091 0.60039 0.60271
 C446 C -0.01089 0.63085 0.61334
 C447 C 0.00937 0.62917 0.64514
 C448 C 0.01035 0.59751 0.66523
 C449 C -0.00900 0.56682 0.65405
 C450 C -0.03011 0.56887 0.62288
 H451 H -0.04640 0.60043 0.57813
 H452 H 0.02477 0.65224 0.65434
 H453 H 0.02709 0.59677 0.68897
 H454 H -0.04580 0.54594 0.61381
 C455 C 0.47540 0.89861 -0.10131
 C456 C 0.49481 0.88794 -0.13187
 C457 C 0.51485 0.85618 -0.13031
 C458 C 0.51596 0.83597 -0.09871
 C459 C 0.49709 0.84711 -0.06799
 C460 C 0.47645 0.87841 -0.06984
 H461 H 0.46013 0.92319 -0.10132
 H462 H 0.52985 0.84705 -0.15345
 H463 H 0.53231 0.81211 -0.09806
 H464 H 0.46119 0.88744 -0.04683
 C465 C 1.01332 0.37063 0.35636
 C466 C 0.99141 0.36780 0.38729
 C467 C 0.96954 0.39746 0.39596
 C468 C 0.97061 0.42880 0.37553
 C469 C 0.99330 0.43166 0.34562
 C470 C 1.01413 0.40204 0.33583
 H471 H 1.02958 0.34850 0.34728
 H472 H 0.95294 0.39781 0.41977
 H473 H 0.95399 0.45115 0.38351
 H474 H 1.03182 0.40348 0.31276
 C475 C 0.53066 0.89709 0.10083
 C476 C 0.50847 0.88800 0.13038
 C477 C 0.48653 0.85690 0.12717
 C478 C 0.48616 0.83651 0.09558
 C479 C 0.50742 0.84662 0.06612
 C480 C 0.52999 0.87682 0.06927
 H481 H 0.54726 0.92108 0.10077
 H482 H 0.46998 0.84755 0.14918
 H483 H 0.46852 0.81324 0.09390
 H484 H 0.54691 0.88508 0.04704
 C485 C 0.02729 0.37561 0.63891
 C486 C 0.00066 0.36852 0.61305
 C487 C -0.02673 0.39362 0.60780
 C488 C -0.02714 0.42553 0.62751
 C489 C -0.00048 0.43274 0.65325
 C490 C 0.02651 0.40733 0.65914
 H491 H 0.04866 0.35663 0.64340
 H492 H -0.04731 0.38897 0.58772
 H493 H -0.04834 0.44464 0.62270
 H494 H 0.04739 0.41242 0.67880
 C495 C 0.48711 0.14448 0.87282
 C496 C 0.50771 0.11310 0.87069
 C497 C 0.52789 0.10283 0.90080
 C498 C 0.52708 0.12304 0.93238
 C499 C 0.50580 0.15389 0.93485
 C500 C 0.48614 0.16463 0.90456
 H501 H 0.47155 0.15336 0.85003
 H502 H 0.54363 0.07856 0.90040
 H503 H 0.54300 0.11433 0.95500
 H504 H 0.46926 0.18810 0.90565
 C505 C 1.02649 0.59920 0.39903
 C506 C 1.00765 0.62974 0.38786
 C507 C 0.98838 0.62814 0.35543
 C508 C 0.98734 0.59651 0.33510
 C509 C 1.00556 0.56578 0.34674
 C510 C 1.02556 0.56769 0.37867
 H511 H 1.04118 0.59924 0.42410
 H512 H 0.97388 0.65128 0.34588
 H513 H 0.97148 0.59584 0.31075
 H514 H 1.04035 0.54468 0.38810
 C515 C 1.12942 0.48843 0.14327
 C516 C 1.13205 0.51006 0.11220
 C517 C 1.10212 0.53148 0.10347
 C518 C 1.07070 0.53017 0.12395
 C519 C 1.06803 0.50766 0.15393
 C520 C 1.09793 0.48733 0.16379
 H521 H 1.15177 0.47258 0.15245
 H522 H 1.10161 0.54788 0.07961
 H523 H 1.04816 0.54648 0.11593
 H524 H 1.09669 0.46979 0.18690
 C525 C 0.64178 -0.02381 0.62636
 C526 C 0.61512 0.00205 0.63203
 C527 C 0.60903 0.02798 0.60547
 C528 C 0.62857 0.02755 0.57349
 C529 C 0.65491 0.00148 0.56760
 C530 C 0.66177 -0.02387 0.59452
 H531 H 0.64695 -0.04404 0.64648
 H532 H 0.58835 0.04793 0.60900
 H533 H 0.62300 0.04751 0.55319
 H534 H 0.68189 -0.04430 0.59047
 C535 C -0.10577 0.47380 0.89215
 C536 C -0.13121 0.50080 0.88650
 C537 C -0.12442 0.52706 0.86028
 C538 C -0.09269 0.52630 0.84008
 C539 C -0.06696 0.49971 0.84634
 C540 C -0.07387 0.47340 0.87244
 H541 H -0.11016 0.45351 0.91251
 H542 H -0.14367 0.54812 0.85546
 H543 H -0.08785 0.54692 0.82014
 H544 H -0.05454 0.45248 0.87753
 C545 C 0.39687 -0.02654 0.39933
 C546 C 0.38569 -0.00775 0.36867
 C547 C 0.35376 0.01207 0.37050
 C548 C 0.33399 0.01367 0.40243
 C549 C 0.34565 -0.00459 0.43324
 C550 C 0.37703 -0.02513 0.43109
 H551 H 0.42159 -0.04161 0.39919
 H552 H 0.34417 0.02657 0.34731
 H553 H 0.31006 0.02993 0.40324
 H554 H 0.38646 -0.04001 0.45410
 C555 C 0.12993 0.50831 0.85427
 C556 C 0.13133 0.48873 0.88646
 C557 C 0.10055 0.46939 0.89739
 C558 C 0.06903 0.47021 0.87713
 C559 C 0.06723 0.49075 0.84561
 C560 C 0.09823 0.50939 0.83414
 H561 H 0.15324 0.52314 0.84479
 H562 H 0.10032 0.45444 0.92226
 H563 H 0.04590 0.45499 0.88643
 H564 H 0.09773 0.52569 0.81013
 C565 C 0.60036 0.02481 0.40007
 C566 C 0.61057 0.00493 0.36964
 C567 C 0.64217 -0.01540 0.37128
 C568 C 0.66263 -0.01631 0.40277
 C569 C 0.65209 0.00327 0.43329
 C570 C 0.62096 0.02421 0.43132
 H571 H 0.57590 0.04028 0.40016
 H572 H 0.65109 -0.03072 0.34827
 H573 H 0.68630 -0.03296 0.40342
 H574 H 0.61236 0.04015 0.45404
 C575 C 0.90052 0.47427 0.10066
 C576 C 0.86987 0.49292 0.11208
 C577 C 0.87136 0.51189 0.14474
 C578 C 0.90298 0.51280 0.16506
 C579 C 0.93381 0.49475 0.15317
 C580 C 0.93201 0.47507 0.12099
 H581 H 0.90058 0.45981 0.07541
 H582 H 0.84814 0.52625 0.15448
 H583 H 0.90357 0.52843 0.18960
 H584 H 0.95509 0.46042 0.11135
 C585 C 0.39917 0.02829 0.60077
 C586 C 0.38840 0.00859 0.63117
 C587 C 0.35623 -0.01152 0.62957
 C588 C 0.33575 -0.01248 0.59808
 C589 C 0.34699 0.00665 0.56749
 C590 C 0.37867 0.02743 0.56941
 H591 H 0.42403 0.04365 0.60081
 H592 H 0.34699 -0.02671 0.65259
 H593 H 0.31159 -0.02894 0.59739
 H594 H 0.38780 0.04290 0.54652
   
