data_POSCAR
  _audit_creation_date              2014-09-24
  _audit_creation_method            'ToBaCCo'
  _symmetry_space_group_name_H-M    'P1'
  _symmetry_Int_Tables_number       1
  _symmetry_cell_setting            triclinic
  loop_
  _symmetry_equiv_pos_as_xyz
 x,y,z
_cell_length_a 35.4610
_cell_length_b 35.0388
_cell_length_c 35.3350
_cell_angle_alpha 89.852100
_cell_angle_beta 90.770800
_cell_angle_gamma 90.032300
loop_
  _atom_site_label
  _atom_site_type_symbol
  _atom_site_fract_x
  _atom_site_fract_y
  _atom_site_fract_z
N1 N 0.20507 1.20568 0.19907
 N2 N 0.80303 0.79559 0.20751
 N3 N 0.78759 1.20028 -0.20902
 N4 N 0.20496 0.79529 -0.20010
 C5 C 0.53239 1.06594 -0.02695
 H6 H 0.51325 1.08097 -0.00875
 C7 C 0.55702 1.08665 -0.04972
 H8 H 0.55602 1.11753 -0.04935
 C9 C 0.55772 1.00761 -0.04893
 H10 H 0.55817 0.97675 -0.04791
 C11 C 0.58269 1.02716 -0.07224
 H12 H 0.60248 1.01109 -0.08897
 N13 N 0.53304 1.02711 -0.02713
 C14 C 0.47045 1.03055 0.07174
 H15 H 0.49004 1.01260 0.08724
 C16 C 0.44476 1.05299 0.09147
 H17 H 0.44491 1.05199 0.12209
 C18 C 0.44482 1.05178 0.01311
 H19 H 0.44480 1.05072 -0.01749
 C20 C 0.41881 1.07472 0.03163
 H21 H 0.39926 1.09176 0.01496
 Zn22 Zn 0.50191 0.99813 0.00519
 N23 N 0.47003 1.03041 0.03324
 C24 C 0.55944 0.98960 0.05928
 N25 N 0.53439 0.96975 0.03752
 C26 C 0.53464 0.93093 0.03687
 C27 C 0.56085 0.91058 0.05879
 C28 C 0.58609 0.97041 0.08166
 C29 C 0.46975 0.96560 -0.06167
 C30 C 0.44425 0.94280 -0.08191
 C31 C 0.41978 0.91973 -0.02261
 C32 C 0.44563 0.94306 -0.00353
 N33 N 0.47004 0.96525 -0.02318
 H34 H 0.55898 1.02048 0.05881
 H35 H 0.51526 0.91565 0.01858
 H36 H 0.56123 0.87973 0.05710
 H37 H 0.60567 0.98679 0.09888
 H38 H 0.48859 0.98424 -0.07680
 H39 H 0.44383 0.94424 -0.11252
 H40 H 0.40085 0.90206 -0.00636
 H41 H 0.44611 0.94375 0.02708
 C42 C 0.41827 1.07529 0.07138
 C43 C 0.58263 1.06723 -0.07274
 C44 C 0.41863 0.91961 -0.06237
 C45 C 0.58727 0.93033 0.08135
 C46 C -0.01799 0.55360 1.04826
 H47 H 0.01250 0.55367 1.04740
 C48 C -0.03666 0.57916 1.07170
 H49 H -0.02031 0.59891 1.08879
 C50 C -0.07623 0.52903 1.02541
 H51 H -0.09157 0.51004 1.00675
 C52 C -0.09609 0.55435 1.04825
 H53 H -0.12662 0.55403 1.04748
 N54 N -0.03786 0.52898 1.02598
 C55 C 0.03985 0.43660 1.00038
 H56 H 0.03686 0.43626 0.96988
 C57 C 0.06112 0.40846 1.01876
 H58 H 0.07480 0.38659 1.00225
 C59 C 0.02459 0.46484 1.05912
 H60 H 0.00943 0.48612 1.07486
 C61 C 0.04616 0.43761 1.07861
 H62 H 0.04758 0.43831 1.10924
 Zn63 Zn -0.00986 0.49760 0.99309
 N64 N 0.02187 0.46386 1.02068
 C65 C 0.05716 0.53034 0.96334
 N66 N 0.01880 0.53079 0.96265
 C67 C -0.00072 0.55750 0.94251
 C68 C 0.01833 0.58554 0.92224
 C69 C 0.07741 0.55805 0.94355
 C70 C -0.06463 0.44155 0.98105
 C71 C -0.08736 0.41633 0.96045
 C72 C -0.06311 0.44339 0.90270
 C73 C -0.04107 0.46837 0.92442
 N74 N -0.04225 0.46702 0.96288
 H75 H 0.07208 0.50929 0.98019
 H76 H -0.03122 0.55739 0.94284
 H77 H 0.00216 0.60652 0.90640
 H78 H 0.10790 0.55803 0.94542
 H79 H -0.06434 0.44050 1.01165
 H80 H -0.10450 0.39581 0.97544
 H81 H -0.06171 0.44465 0.87213
 H82 H -0.02241 0.48815 0.91051
 C83 C 0.06425 0.40868 1.05837
 C84 C -0.07624 0.57987 1.07175
 C85 C -0.08653 0.41685 0.92075
 C86 C 0.05794 0.58650 0.92309
 C87 C 1.05839 0.00043 0.56094
 H88 H 1.05796 0.03130 0.56007
 C89 C 1.07951 -0.01838 0.58881
 H90 H 1.09591 -0.00164 0.60880
 C91 C 1.03713 -0.05854 0.53583
 H92 H 1.01976 -0.07400 0.51574
 C93 C 1.05765 -0.07857 0.56350
 H94 H 1.05579 -0.10939 0.56432
 N95 N 1.03785 -0.01972 0.53513
 C96 C 1.01892 0.06398 0.44539
 H97 H 0.98842 0.06429 0.44420
 C98 C 1.03948 0.08477 0.41892
 H99 H 1.02448 0.10097 0.39737
 C100 C 1.07530 0.04001 0.47323
 H101 H 1.08919 0.02158 0.49359
 C102 C 1.09694 0.06040 0.44739
 H103 H 1.12737 0.05816 0.44890
 Zn104 Zn 1.00721 0.00913 0.50152
 N105 N 1.03701 0.04186 0.47157
 C106 C 0.97401 0.07543 0.53456
 N107 N 0.97374 0.03668 0.53226
 C108 C 0.95172 0.01517 0.55515
 C109 C 0.92903 0.03244 0.58203
 C110 C 0.95181 0.09396 0.56134
 C111 C 1.00120 -0.04487 0.44408
 C112 C 0.98355 -0.06687 0.41616
 C113 C 0.92334 -0.04315 0.43697
 C114 C 0.94217 -0.02165 0.46461
 N115 N 0.98044 -0.02289 0.46760
 H116 H 0.99243 0.09190 0.51667
 H117 H 0.95248 -0.01562 0.55302
 H118 H 0.91176 0.01465 0.59993
 H119 H 0.95334 0.12472 0.56374
 H120 H 1.03163 -0.04484 0.44673
 H121 H 1.00064 -0.08429 0.39785
 H122 H 0.89296 -0.04096 0.43434
 H123 H 0.92624 -0.00314 0.48282
 C124 C 1.07904 0.08255 0.41924
 C125 C 1.07894 -0.05843 0.59074
 C126 C 0.94410 -0.06588 0.41203
 C127 C 0.92942 0.07231 0.58597
 C128 C 0.14272 0.29008 1.13978
 C129 C 0.12522 0.25549 1.14941
 C130 C 0.14557 0.22794 1.16958
 C131 C 0.18327 0.23467 1.17984
 C132 C 0.19969 0.26962 1.16997
 N133 N 0.17919 0.29629 1.15067
 C134 C 0.12228 0.31993 1.11826
 N135 N 0.12922 0.35734 1.12605
 C136 C 0.11110 0.38612 1.10737
 C137 C 0.08477 0.37785 1.07855
 C138 C 0.07774 0.33952 1.06960
 C139 C 0.09625 0.31050 1.08949
 H140 H 0.13219 0.20113 1.17671
 H141 H 0.22873 0.27562 1.17766
 H142 H 0.11747 0.41540 1.11479
 H143 H 0.05751 0.33205 1.04760
 H144 H 0.09606 0.24995 1.14182
 H145 H 0.09066 0.28106 1.08207
 C146 C -0.15099 0.69686 1.15669
 C147 C -0.15034 0.70030 1.19631
 C148 C -0.16626 0.73239 1.21309
 C149 C -0.18300 0.76093 1.19062
 C150 C -0.18422 0.75579 1.15125
 N151 N -0.16833 0.72442 1.13553
 C152 C -0.13267 0.66472 1.13697
 N153 N -0.14427 0.65599 1.10113
 C154 C -0.12750 0.62837 1.08031
 C155 C -0.09651 0.60811 1.09515
 C156 C -0.08414 0.61649 1.13209
 C157 C -0.10210 0.64467 1.15307
 H158 H -0.16530 0.73517 1.24360
 H159 H -0.19678 0.77722 1.13295
 H160 H -0.13763 0.62315 1.05176
 H161 H -0.06040 0.60144 1.14464
 H162 H -0.13785 0.67857 1.21428
 H163 H -0.09119 0.65136 1.18100
 C164 C -0.16613 0.29915 0.83934
 C165 C -0.20544 0.29521 0.83663
 C166 C -0.22092 0.26274 0.81972
 C167 C -0.19749 0.23381 0.80532
 C168 C -0.15815 0.23991 0.80741
 N169 N -0.14386 0.27170 0.82422
 C170 C -0.14790 0.33167 0.85900
 N171 N -0.11195 0.34126 0.84980
 C172 C -0.09240 0.36913 0.86819
 C173 C -0.10870 0.38865 0.89850
 C174 C -0.14578 0.37939 0.90840
 C175 C -0.16550 0.35106 0.88872
 H176 H -0.25132 0.26026 0.81774
 H177 H -0.13864 0.21860 0.79739
 H178 H -0.06369 0.37505 0.85998
 H179 H -0.15938 0.39385 0.93157
 H180 H -0.22417 0.31696 0.84720
 H181 H -0.19361 0.34362 0.89770
 C182 C 0.13906 0.70802 0.84972
 C183 C 0.12136 0.74098 0.83536
 C184 C 0.14297 0.76948 0.81868
 C185 C 0.18216 0.76526 0.81588
 C186 C 0.19873 0.73159 0.82983
 N187 N 0.17708 0.70417 0.84611
 C188 C 0.11744 0.67740 0.86859
 N189 N 0.13118 0.64110 0.86876
 C190 C 0.11284 0.61169 0.88577
 C191 C 0.07852 0.61804 0.90416
 C192 C 0.06426 0.65539 0.90482
 C193 C 0.08354 0.68502 0.88721
 H194 H 0.12912 0.79508 0.80839
 H195 H 0.22884 0.72723 0.82786
 H196 H 0.12486 0.58335 0.88449
 H197 H 0.03852 0.66190 0.91963
 H198 H 0.09113 0.74475 0.83661
 H199 H 0.07232 0.71364 0.88907
 C200 C 1.15817 0.15124 0.29500
 C201 C 1.17727 0.12938 0.26803
 C202 C 1.19301 0.14729 0.23671
 C203 C 1.18984 0.18693 0.23200
 C204 C 1.17032 0.20774 0.25940
 N205 N 1.15509 0.18964 0.28968
 C206 C 1.13977 0.13351 0.32809
 N207 N 1.11034 0.15188 0.34443
 C208 C 1.09114 0.13674 0.37397
 C209 C 1.10126 0.10090 0.38883
 C210 C 1.13215 0.08197 0.37303
 C211 C 1.15152 0.09817 0.34291
 H212 H 1.20696 0.13006 0.21572
 H213 H 1.16716 0.23834 0.25667
 H214 H 1.06793 0.15265 0.38569
 H215 H 1.14083 0.05415 0.38331
 H216 H 1.17919 0.09866 0.27026
 H217 H 1.17542 0.08305 0.33160
 C218 C 1.15662 -0.13897 0.71099
 C219 C 1.17385 -0.12048 0.74194
 C220 C 1.19046 -0.14210 0.77080
 C221 C 1.19017 -0.18206 0.76891
 C222 C 1.17366 -0.19946 0.73704
 N223 N 1.15752 -0.17779 0.70924
 C224 C 1.13710 -0.11731 0.68055
 N225 N 1.13479 -0.13238 0.64511
 C226 C 1.11668 -0.11421 0.61605
 C227 C 1.09920 -0.07875 0.62192
 C228 C 1.10081 -0.06310 0.65845
 C229 C 1.11967 -0.08216 0.68770
 H230 H 1.20286 -0.12768 0.79501
 H231 H 1.17324 -0.23023 0.73459
 H232 H 1.11633 -0.12731 0.58836
 H233 H 1.08679 -0.03645 0.66470
 H234 H 1.17464 -0.08968 0.74391
 H235 H 1.11962 -0.06988 0.71576
 C236 C 0.86714 -0.14743 0.29232
 C237 C 0.88553 -0.16383 0.26136
 C238 C 0.86446 -0.18266 0.23354
 C239 C 0.82517 -0.18552 0.23652
 C240 C 0.80788 -0.16927 0.26809
 N241 N 0.82899 -0.15099 0.29487
 C242 C 0.88805 -0.12673 0.32248
 N243 N 0.87255 -0.12386 0.35741
 C244 C 0.88987 -0.10493 0.38637
 C245 C 0.92495 -0.08723 0.38098
 C246 C 0.94121 -0.08951 0.34505
 C247 C 0.92292 -0.10908 0.31582
 H248 H 0.87877 -0.19479 0.20952
 H249 H 0.77765 -0.17123 0.27143
 H250 H 0.87636 -0.10407 0.41363
 H251 H 0.96770 -0.07542 0.33926
 H252 H 0.91585 -0.16269 0.25870
 H253 H 0.93565 -0.10941 0.28819
 C254 C 0.84497 0.14348 0.70489
 C255 C 0.82752 0.12232 0.73351
 C256 C 0.80810 0.14116 0.76189
 C257 C 0.80559 0.18131 0.76211
 C258 C 0.82274 0.20128 0.73216
 N259 N 0.84158 0.18217 0.70479
 C260 C 0.86693 0.12467 0.67488
 N261 N 0.86995 0.14179 0.64039
 C262 C 0.88971 0.12590 0.61167
 C263 C 0.90800 0.09066 0.61688
 C264 C 0.90588 0.07306 0.65252
 C265 C 0.88552 0.08988 0.68146
 H266 H 0.79601 0.12426 0.78438
 H267 H 0.82085 0.23206 0.73036
 H268 H 0.89060 0.14050 0.58467
 H269 H 0.92052 0.04653 0.65830
 H270 H 0.82862 0.09147 0.73407
 H271 H 0.88511 0.07604 0.70885
 C272 C 0.30225 1.15865 0.14860
 C273 C 0.30228 1.16544 0.18781
 C274 C 0.27067 1.18194 0.20432
 C275 C 0.23911 1.19166 0.18198
 C276 C 0.24055 1.18523 0.14287
 N277 N 0.27143 1.16879 0.12749
 C278 C 0.33344 1.13848 0.12964
 N279 N 0.32583 1.12046 0.09633
 C280 C 0.35235 1.10057 0.07728
 C281 C 0.38938 1.09787 0.09162
 C282 C 0.39806 1.11666 0.12571
 C283 C 0.37028 1.13703 0.14474
 H284 H 0.27043 1.18645 0.23462
 H285 H 0.21663 1.19201 0.12475
 H286 H 0.34416 1.08622 0.05137
 H287 H 0.42642 1.11599 0.13744
 H288 H 0.32567 1.15696 0.20587
 H289 H 0.37788 1.15178 0.17058
 C290 C 0.69476 1.14757 -0.15850
 C291 C 0.69851 1.14628 -0.19798
 C292 C 0.72904 1.16439 -0.21490
 C293 C 0.75603 1.18421 -0.19282
 C294 C 0.75027 1.18576 -0.15341
 N295 N 0.72047 1.16760 -0.13765
 C296 C 0.66414 1.12739 -0.13851
 N297 N 0.65513 1.13892 -0.10299
 C298 C 0.62871 1.12082 -0.08196
 C299 C 0.60996 1.08853 -0.09625
 C300 C 0.61872 1.07614 -0.13282
 C301 C 0.64571 1.09540 -0.15401
 H302 H 0.73145 1.16320 -0.24539
 H303 H 0.77033 1.19994 -0.13489
 H304 H 0.62323 1.13103 -0.05369
 H305 H 0.60480 1.05145 -0.14499
 H306 H 0.67809 1.13178 -0.21582
 H307 H 0.65267 1.08450 -0.18164
 C308 C 0.30274 0.83762 -0.14429
 C309 C 0.30262 0.83328 -0.18384
 C310 C 0.27084 0.81813 -0.20210
 C311 C 0.23930 0.80721 -0.18117
 C312 C 0.24085 0.81117 -0.14169
 N313 N 0.27189 0.82642 -0.12457
 C314 C 0.33402 0.85675 -0.12360
 N315 N 0.32651 0.87366 -0.08990
 C316 C 0.35306 0.89313 -0.06970
 C317 C 0.38993 0.89668 -0.08331
 C318 C 0.39855 0.87877 -0.11764
 C319 C 0.37080 0.85874 -0.13778
 H320 H 0.27042 0.81573 -0.23264
 H321 H 0.21685 0.80355 -0.12466
 H322 H 0.34495 0.90669 -0.04357
 H323 H 0.42682 0.88004 -0.12879
 H324 H 0.32597 0.84282 -0.20081
 H325 H 0.37833 0.84482 -0.16389
 C326 C 0.70591 0.84900 0.16026
 C327 C 0.70561 0.80942 0.16702
 C328 C 0.73736 0.79192 0.18317
 C329 C 0.76937 0.81361 0.19255
 C330 C 0.76844 0.85304 0.18565
 N331 N 0.73734 0.86941 0.16970
 C332 C 0.67410 0.86914 0.14133
 N333 N 0.68108 0.90319 0.12415
 C334 C 0.65388 0.92332 0.10547
 C335 C 0.61682 0.90931 0.10312
 C336 C 0.60877 0.87455 0.12116
 C337 C 0.63720 0.85447 0.14036
 H338 H 0.73719 0.76140 0.18800
 H339 H 0.79276 0.87065 0.19207
 H340 H 0.66153 0.94978 0.09171
 H341 H 0.58042 0.86306 0.12073
 H342 H 0.68178 0.79181 0.15903
 H343 H 0.63002 0.82813 0.15455
   
