data_POSCAR
  _audit_creation_date              2014-09-24
  _audit_creation_method            'ToBaCCo'
  _symmetry_space_group_name_H-M    'P1'
  _symmetry_Int_Tables_number       1
  _symmetry_cell_setting            triclinic
  loop_
  _symmetry_equiv_pos_as_xyz
 x,y,z
_cell_length_a 29.4292
_cell_length_b 29.4294
_cell_length_c 29.4294
_cell_angle_alpha 74.732700
_cell_angle_beta 105.257900
_cell_angle_gamma 74.738600
loop_
  _atom_site_label
  _atom_site_type_symbol
  _atom_site_fract_x
  _atom_site_fract_y
  _atom_site_fract_z
O1 O 0.57566 0.48036 0.04850
 O2 O 0.44273 0.50065 0.03338
 O3 O 0.52052 0.42366 0.04961
 O4 O 0.49785 0.55733 0.03220
 O5 O 0.47798 0.57625 -0.05010
 O6 O 0.50066 0.44259 -0.03270
 O7 O 0.42284 0.51955 -0.04891
 O8 O 0.55578 0.49928 -0.03380
 Cu9 Cu 0.51116 0.48862 0.04922
 Cu10 Cu 0.48734 0.51129 -0.04967
 C11 C 0.58804 0.48695 0.00977
 C12 C 0.41045 0.51298 -0.01018
 C13 C 0.51387 0.41068 0.01125
 C14 C 0.48465 0.58923 -0.01174
 O15 O -0.04859 0.57729 0.48026
 O16 O -0.03349 0.44436 0.50054
 O17 O -0.03232 0.49946 0.55721
 O18 O -0.04971 0.52215 0.42354
 O19 O 0.03259 0.50227 0.44247
 O20 O 0.04999 0.47958 0.57613
 O21 O 0.04881 0.42445 0.51943
 O22 O 0.03370 0.55739 0.49916
 Cu23 Cu -0.04932 0.51279 0.48851
 Cu24 Cu 0.04956 0.48895 0.51116
 C25 C -0.00986 0.58967 0.48685
 C26 C 0.01007 0.41208 0.51288
 C27 C 0.01163 0.48625 0.58912
 C28 C -0.01136 0.51548 0.41056
 O29 O 0.50074 0.03324 0.55744
 O30 O 0.48047 0.04835 0.42451
 O31 O 0.42377 0.04948 0.47965
 O32 O 0.55744 0.03207 0.50232
 O33 O 0.57635 -0.05023 0.52221
 O34 O 0.44269 -0.03283 0.49953
 O35 O 0.49937 -0.03395 0.44442
 O36 O 0.51963 -0.04905 0.57735
 Cu37 Cu 0.48874 0.04908 0.48901
 Cu38 Cu 0.51139 -0.04981 0.51286
 C39 C 0.51305 -0.01032 0.58972
 C40 C 0.48703 0.00961 0.41214
 C41 C 0.41078 0.01112 0.48630
 C42 C 0.58934 -0.01188 0.51552
 C43 C 0.50486 -0.00833 -0.04418
 C44 C 0.49369 -0.04303 -0.00980
 C45 C 0.48875 -0.03460 0.03363
 C46 C 0.49471 0.00806 0.04319
 C47 C 0.50585 0.04277 0.00880
 C48 C 0.51081 0.03433 -0.03463
 H49 H 0.51923 0.06119 -0.06121
 H50 H 0.48033 -0.06145 0.06021
 C51 C -0.00887 0.50662 1.04290
 C52 C -0.04324 0.49545 1.00821
 C53 C -0.03369 0.48950 0.96555
 C54 C 0.00974 0.49446 0.95710
 C55 C 0.04412 0.50561 0.99180
 C56 C 0.03456 0.51157 1.03446
 H57 H 0.06114 0.51999 1.06132
 H58 H -0.06026 0.48108 0.93870
 C59 C 0.04281 0.00881 0.49420
 C60 C 0.00810 0.04319 0.50534
 C61 C -0.03456 0.03363 0.51130
 C62 C -0.04299 -0.00980 0.50636
 C63 C -0.00829 -0.04417 0.49519
 C64 C 0.03437 -0.03461 0.48924
 H65 H 0.06123 -0.06119 0.48082
 H66 H -0.06141 0.06021 0.51973
 C67 C -0.36085 0.48200 1.01499
 C68 C -0.31845 0.47951 1.01845
 C69 C -0.26853 0.47822 1.02124
 C70 C -0.24630 0.45826 0.99075
 C71 C -0.19928 0.46004 0.99082
 C72 C -0.17423 0.48180 1.02136
 C73 C -0.19604 0.50103 1.05249
 C74 C -0.24313 0.49926 1.05241
 C75 C -0.12735 0.48624 1.01882
 C76 C -0.08872 0.49035 1.01495
 H77 H -0.26570 0.44216 0.96631
 H78 H -0.18285 0.44524 0.96646
 H79 H -0.17707 0.51809 1.07613
 H80 H -0.26009 0.51505 1.07594
 C81 C 0.36208 0.51775 0.98489
 C82 C 0.31962 0.52046 0.98140
 C83 C 0.26963 0.52201 0.97864
 C84 C 0.24400 0.50116 0.94741
 C85 C 0.19686 0.49961 0.94737
 C86 C 0.17523 0.51887 0.97860
 C87 C 0.20051 0.54044 1.00918
 C88 C 0.24758 0.54200 1.00921
 C89 C 0.12830 0.51461 0.98119
 C90 C 0.08964 0.51062 0.98509
 H91 H 0.26083 0.48535 0.92382
 H92 H 0.17771 0.48269 0.92370
 H93 H 0.18421 0.55526 1.03362
 H94 H 0.26716 0.55796 1.03370
 C95 C -0.01480 -0.36198 0.48217
 C96 C -0.01833 -0.31953 0.47957
 C97 C -0.02118 -0.26956 0.47818
 C98 C -0.05232 -0.24417 0.49926
 C99 C -0.05245 -0.19706 0.50096
 C100 C -0.02139 -0.17521 0.48162
 C101 C 0.00911 -0.20024 0.45983
 C102 C 0.00922 -0.24730 0.45811
 C103 C -0.01887 -0.12831 0.48602
 C104 C -0.01501 -0.08966 0.49011
 H105 H -0.07579 -0.26117 0.51513
 H106 H -0.07605 -0.17810 0.51805
 H107 H 0.03342 -0.18378 0.44494
 H108 H 0.03364 -0.26669 0.44198
 C109 C 0.01528 0.36096 0.51793
 C110 C 0.01869 0.31854 0.52053
 C111 C 0.02138 0.26860 0.52198
 C112 C -0.00933 0.24662 0.54179
 C113 C -0.00935 0.19958 0.54016
 C114 C 0.02133 0.17426 0.51869
 C115 C 0.05268 0.19582 0.49959
 C116 C 0.05269 0.24293 0.50121
 C117 C 0.01872 0.12735 0.51439
 C118 C 0.01482 0.08870 0.51037
 H119 H -0.03388 0.26623 0.55768
 H120 H -0.03389 0.18334 0.55486
 H121 H 0.07643 0.17664 0.48276
 H122 H 0.07639 0.25969 0.48554
 C123 C 0.51775 -0.01524 -0.36192
 C124 C 0.52037 -0.01873 -0.31948
 C125 C 0.52180 -0.02151 -0.26952
 C126 C 0.50083 -0.05269 -0.24401
 C127 C 0.49915 -0.05274 -0.19690
 C128 C 0.51839 -0.02155 -0.17520
 C129 C 0.54007 0.00900 -0.20035
 C130 C 0.54176 0.00903 -0.24739
 C131 C 0.51401 -0.01896 -0.12830
 C132 C 0.50994 -0.01506 -0.08967
 H133 H 0.48503 -0.07626 -0.26090
 H134 H 0.48215 -0.07638 -0.17785
 H135 H 0.55488 0.03341 -0.18400
 H136 H 0.55781 0.03349 -0.26688
 C137 C 0.48200 0.01483 0.36102
 C138 C 0.47942 0.01828 0.31860
 C139 C 0.47801 0.02104 0.26865
 C140 C 0.45819 -0.00962 0.24660
 C141 C 0.45984 -0.00955 0.19954
 C142 C 0.48132 0.02116 0.17428
 C143 C 0.50043 0.05246 0.19592
 C144 C 0.49879 0.05238 0.24304
 C145 C 0.48565 0.01862 0.12736
 C146 C 0.48967 0.01476 0.08870
 H147 H 0.44228 -0.03419 0.26616
 H148 H 0.44514 -0.03405 0.18324
 H149 H 0.51727 0.07622 0.17679
 H150 H 0.51446 0.07605 0.25987
 C151 C 0.47890 -0.35937 -0.01784
 C152 C 0.47590 -0.31674 -0.02192
 C153 C 0.47422 -0.26663 -0.02528
 C154 C 0.45193 -0.24320 0.00316
 C155 C 0.45378 -0.19621 0.00311
 C156 C 0.47794 -0.17245 -0.02535
 C157 C 0.49939 -0.19539 -0.05460
 C158 C 0.49755 -0.24244 -0.05454
 C159 C 0.48297 -0.12598 -0.02216
 C160 C 0.48770 -0.08782 -0.01756
 H161 H 0.43408 -0.26170 0.02615
 H162 H 0.43730 -0.17890 0.02605
 H163 H 0.51835 -0.17742 -0.07657
 H164 H 0.51517 -0.26038 -0.07643
 C165 C 0.51972 0.35926 0.01732
 C166 C 0.52284 0.31663 0.02135
 C167 C 0.52467 0.26650 0.02459
 C168 C 0.50160 0.24202 0.05396
 C169 C 0.49992 0.19496 0.05392
 C170 C 0.52127 0.17227 0.02446
 C171 C 0.54517 0.19632 -0.00412
 C172 C 0.54686 0.24332 -0.00407
 C173 C 0.51640 0.12578 0.02119
 C174 C 0.51176 0.08759 0.01655
 H175 H 0.48406 0.25976 0.07602
 H176 H 0.48116 0.17677 0.07599
 H177 H 0.56158 0.17920 -0.02722
 H178 H 0.56452 0.26204 -0.02715
 C179 C -0.35927 -0.01797 0.52126
 C180 C -0.31665 -0.02205 0.52425
 C181 C -0.26654 -0.02538 0.52591
 C182 C -0.24237 -0.05459 0.50253
 C183 C -0.19534 -0.05463 0.50067
 C184 C -0.17238 -0.02541 0.52215
 C185 C -0.19612 0.00301 0.54635
 C186 C -0.24310 0.00304 0.54822
 C187 C -0.12593 -0.02219 0.51711
 C188 C -0.08777 -0.01758 0.51236
 H189 H -0.26032 -0.07646 0.48489
 H190 H -0.17739 -0.07657 0.48168
 H191 H -0.17880 0.02593 0.56286
 H192 H -0.26158 0.02599 0.56611
 C193 C 0.35937 0.01721 0.48045
 C194 C 0.31672 0.02125 0.47731
 C195 C 0.26659 0.02452 0.47546
 C196 C 0.24340 -0.00412 0.45325
 C197 C 0.19638 -0.00415 0.45492
 C198 C 0.17234 0.02444 0.47882
 C199 C 0.19503 0.05388 0.50018
 C200 C 0.24211 0.05390 0.49852
 C201 C 0.12583 0.02118 0.48367
 C202 C 0.08763 0.01656 0.48830
 H203 H 0.26211 -0.02721 0.43561
 H204 H 0.17925 -0.02724 0.43851
 H205 H 0.17685 0.07596 0.51893
 H206 H 0.25986 0.07595 0.51607
 C207 C -0.01743 0.52125 1.35916
 C208 C -0.02146 0.52429 1.31654
 C209 C -0.02471 0.52599 1.26644
 C210 C -0.05399 0.50277 1.24213
 C211 C -0.05395 0.50095 1.19510
 C212 C -0.02457 0.52232 1.17230
 C213 C 0.00392 0.54638 1.19618
 C214 C 0.00387 0.54821 1.24315
 C215 C -0.02129 0.51732 1.12585
 C216 C -0.01664 0.51260 1.08769
 H217 H -0.07599 0.48520 1.25996
 H218 H -0.07595 0.48207 1.17704
 H219 H 0.02696 0.56280 1.17898
 H220 H 0.02688 0.56598 1.26174
 C221 C 0.01773 0.48042 0.64053
 C222 C 0.02181 0.47733 0.68317
 C223 C 0.02515 0.47553 0.73331
 C224 C -0.00339 0.45329 0.75663
 C225 C -0.00334 0.45500 0.80366
 C226 C 0.02524 0.47898 0.82758
 C227 C 0.05459 0.50038 0.80475
 C228 C 0.05452 0.49867 0.75767
 C229 C 0.02206 0.48388 0.87409
 C230 C 0.01747 0.48854 0.91229
 H231 H -0.02646 0.43557 0.73801
 H232 H -0.02635 0.43856 0.82088
 H233 H 0.07665 0.51919 0.82284
 H234 H 0.07650 0.51625 0.73982
   
