data_POSCAR
  _audit_creation_date              2014-09-24
  _audit_creation_method            'ToBaCCo'
  _symmetry_space_group_name_H-M    'P1'
  _symmetry_Int_Tables_number       1
  _symmetry_cell_setting            triclinic
  loop_
  _symmetry_equiv_pos_as_xyz
 x,y,z
_cell_length_a 21.9722
_cell_length_b 21.8287
_cell_length_c 22.3921
_cell_angle_alpha 89.571000
_cell_angle_beta 89.790200
_cell_angle_gamma 89.530300
loop_
  _atom_site_label
  _atom_site_type_symbol
  _atom_site_fract_x
  _atom_site_fract_y
  _atom_site_fract_z
C1 C 0.47010 1.00106 -0.55567
 C2 C 0.53435 0.99007 -0.55770
 C3 C 0.56648 0.99064 -0.50303
 C4 C 0.53868 0.99725 -0.44649
 C5 C 0.47418 0.99626 -0.44454
 C6 C 0.44195 1.00122 -0.49860
 H7 H 0.39265 1.00261 -0.49571
 H8 H 0.61569 0.98665 -0.50457
 C9 C -0.54992 1.46515 0.00986
 C10 C -0.55373 1.52616 -0.01190
 C11 C -0.50042 1.56014 -0.01941
 C12 C -0.44248 1.53603 -0.00645
 C13 C -0.43858 1.47491 0.01451
 C14 C -0.49185 1.44098 0.02236
 H15 H -0.48702 1.39280 0.03361
 H16 H -0.50512 1.60828 -0.03087
 C17 C -0.01411 0.46399 0.44603
 C18 C -0.02247 0.52862 0.44251
 C19 C -0.02394 0.56285 0.49548
 C20 C -0.01942 0.53547 0.55225
 C21 C -0.01975 0.47099 0.55608
 C22 C -0.01595 0.43677 0.50342
 H23 H -0.01565 0.38724 0.50773
 H24 H -0.02676 0.61244 0.49227
 O25 O -0.15405 1.00431 -0.07961
 O26 O 0.16057 0.99797 -0.08072
 O27 O 0.00035 1.08368 -0.15525
 O28 O 0.00432 0.91570 -0.15301
 O29 O 0.00076 0.84260 -0.07800
 O30 O 0.00422 1.15751 -0.08203
 O31 O 0.08713 0.99607 -0.15441
 O32 O -0.08071 1.00332 -0.15381
 Zr33 Zr 0.00319 0.99997 -0.10645
 O34 O 0.05766 0.94378 -0.05430
 O35 O -0.05134 1.05672 -0.05543
 C36 C -0.13700 1.00452 -0.13510
 C37 C 0.14338 0.99632 -0.13601
 C38 C 0.00109 1.14014 -0.13708
 C39 C 0.00260 0.85938 -0.13364
 H40 H 0.08502 1.08001 -0.08098
 O41 O 0.05886 1.05401 -0.05544
 H42 H -0.07883 0.92062 -0.07813
 O43 O -0.05236 0.94662 -0.05350
 O44 O 0.16065 0.99703 0.07930
 O45 O -0.15414 1.00364 0.08018
 O46 O 0.08627 1.15570 -0.00064
 O47 O 0.08191 0.84168 -0.00039
 O48 O -0.07998 0.84561 0.00650
 O49 O -0.07548 1.15936 -0.00558
 O50 O 0.00609 1.08538 0.15262
 O51 O -0.00073 0.91757 0.15502
 O52 O 0.00527 1.15850 0.07756
 O53 O 0.00026 0.84361 0.08175
 O54 O 0.16030 1.08032 0.00296
 O55 O -0.15154 1.08725 -0.00167
 O56 O -0.15392 0.92111 0.00297
 O57 O 0.15792 0.91387 -0.00463
 O58 O 0.08724 1.00218 0.15334
 O59 O -0.08082 1.00018 0.15392
 Zr60 Zr 0.11020 0.99822 -0.00055
 Zr61 Zr -0.10367 1.00301 0.00017
 Zr62 Zr 0.00464 1.10712 -0.00164
 Zr63 Zr 0.00175 0.89396 0.00132
 Zr64 Zr 0.00325 1.00112 0.10610
 O65 O -0.05275 0.94695 0.05535
 O66 O 0.05916 1.05490 0.05356
 C67 C 0.14354 1.00002 0.13471
 C68 C -0.13708 1.00146 0.13549
 C69 C 0.14212 1.13700 0.00210
 C70 C 0.13816 0.85804 -0.00375
 C71 C -0.13584 0.86449 0.00595
 C72 C -0.13178 1.14301 -0.00424
 C73 C 0.00617 1.14175 0.13321
 C74 C -0.00160 0.86113 0.13683
 H75 H -0.07660 1.08385 0.07859
 O76 O -0.05084 1.05689 0.05361
 H77 H 0.08316 0.91775 0.08004
 O78 O 0.05748 0.94470 0.05471
 C79 C 0.33891 1.00772 0.30591
 C80 C 0.33381 1.04708 0.35473
 C81 C 0.38003 1.04733 0.39750
 C82 C 0.43070 1.00678 0.39399
 C83 C 0.43585 0.96876 0.34322
 C84 C 0.39012 0.96935 0.29901
 C85 C 0.28878 1.00560 0.26205
 C86 C 0.29376 0.96652 0.21281
 C87 C 0.24594 0.96483 0.17124
 C88 C 0.19278 1.00057 0.17972
 C89 C 0.18826 1.03877 0.22986
 C90 C 0.23650 1.04213 0.27069
 C91 C 0.39335 0.93084 0.24898
 C92 C 0.34630 0.92979 0.20646
 C93 C 0.28159 1.08419 0.36102
 C94 C 0.23361 1.08147 0.31995
 H95 H 0.43247 0.90099 0.24276
 H96 H 0.35076 0.89936 0.16867
 H97 H 0.27726 1.11482 0.39868
 H98 H 0.19385 1.11025 0.32695
 H99 H 0.37579 1.07863 0.43471
 H100 H 0.47279 0.93585 0.33978
 H101 H 0.24964 0.93519 0.13273
 H102 H 0.14793 1.06689 0.23619
 C103 C -0.33653 0.98609 0.30257
 C104 C -0.38654 1.02644 0.29739
 C105 C -0.43292 1.02524 0.34131
 C106 C -0.42923 0.98364 0.38996
 C107 C -0.38069 0.94047 0.39083
 C108 C -0.33369 0.94261 0.34871
 C109 C -0.28502 0.99074 0.26014
 C110 C -0.23360 0.95265 0.26774
 C111 C -0.18398 0.95844 0.22846
 C112 C -0.18655 1.00015 0.18043
 C113 C -0.23881 1.03747 0.17290
 C114 C -0.28776 1.03376 0.21338
 C115 C -0.28248 0.90389 0.35372
 C116 C -0.23305 0.90919 0.31424
 C117 C -0.38751 1.06895 0.24986
 C118 C -0.33931 1.07214 0.20831
 H119 H -0.27991 0.87017 0.38940
 H120 H -0.19401 0.87917 0.32033
 H121 H -0.42563 1.10036 0.24498
 H122 H -0.34199 1.10565 0.17244
 H123 H -0.46882 1.05953 0.33994
 H124 H -0.37787 0.90685 0.42668
 H125 H -0.14425 0.92927 0.23402
 H126 H -0.24106 1.06953 0.13578
 C127 C -0.33134 1.00958 -0.30772
 C128 C -0.32339 1.04230 -0.36105
 C129 C -0.36910 1.04104 -0.40417
 C130 C -0.42217 1.00514 -0.39648
 C131 C -0.43047 0.97446 -0.34115
 C132 C -0.38501 0.97660 -0.29669
 C133 C -0.28168 1.00864 -0.26331
 C134 C -0.28939 0.97614 -0.20964
 C135 C -0.24193 0.97537 -0.16769
 C136 C -0.18638 1.00520 -0.18002
 C137 C -0.17923 1.03685 -0.23447
 C138 C -0.22708 1.03954 -0.27586
 C139 C -0.39095 0.94467 -0.24220
 C140 C -0.34421 0.94479 -0.19931
 C141 C -0.26895 1.07422 -0.37129
 C142 C -0.22146 1.07253 -0.32960
 H143 H -0.43193 0.91903 -0.23275
 H144 H -0.35075 0.91945 -0.15803
 H145 H -0.26250 1.09975 -0.41248
 H146 H -0.17992 1.09703 -0.33966
 H147 H -0.36263 1.06751 -0.44486
 H148 H -0.46944 0.94531 -0.33401
 H149 H -0.24782 0.95089 -0.12584
 H150 H -0.13697 1.06029 -0.24404
 C151 C 0.34308 0.98979 -0.30320
 C152 C 0.38673 1.03663 -0.30280
 C153 C 0.43306 1.03708 -0.34661
 C154 C 0.43602 0.99043 -0.38969
 C155 C 0.39371 0.94222 -0.38707
 C156 C 0.34655 0.94224 -0.34483
 C157 C 0.29146 0.99169 -0.26066
 C158 C 0.24615 0.94661 -0.26336
 C159 C 0.19633 0.94953 -0.22386
 C160 C 0.19270 0.99607 -0.18094
 C161 C 0.23890 1.04042 -0.17824
 C162 C 0.28795 1.03903 -0.21871
 C163 C 0.30127 0.89709 -0.34516
 C164 C 0.25177 0.89942 -0.30536
 C165 C 0.38159 1.08318 -0.25997
 C166 C 0.33341 1.08405 -0.21836
 H167 H 0.30348 0.86024 -0.37726
 H168 H 0.21748 0.86413 -0.30767
 H169 H 0.41486 1.11951 -0.25884
 H170 H 0.33124 1.12085 -0.18620
 H171 H 0.46478 1.07478 -0.34899
 H172 H 0.39544 0.90663 -0.42061
 H173 H 0.16142 0.91479 -0.22523
 H174 H 0.23620 1.07620 -0.14497
 C175 C 0.31169 1.33318 0.01420
 C176 C 0.30817 1.38107 -0.02790
 C177 C 0.35234 1.42691 -0.02758
 C178 C 0.39954 1.42565 0.01508
 C179 C 0.39922 1.37916 0.05953
 C180 C 0.35666 1.33214 0.05832
 C181 C 0.26871 1.28213 0.01083
 C182 C 0.27421 1.23263 0.05110
 C183 C 0.23405 1.18341 0.04661
 C184 C 0.18792 1.18492 0.00348
 C185 C 0.18250 1.23495 -0.03598
 C186 C 0.22339 1.28341 -0.03312
 C187 C 0.35968 1.28292 0.09906
 C188 C 0.31936 1.23368 0.09523
 C189 C 0.26203 1.38078 -0.07112
 C190 C 0.21992 1.33298 -0.07330
 H191 H 0.39434 1.28181 0.13336
 H192 H 0.32369 1.19610 0.12686
 H193 H 0.25867 1.41757 -0.10372
 H194 H 0.18493 1.33440 -0.10719
 H195 H 0.35232 1.46027 -0.06356
 H196 H 0.43324 1.37858 0.09450
 H197 H 0.23725 1.14512 0.07763
 H198 H 0.14656 1.23586 -0.06895
 C199 C 0.30013 0.65318 -0.01742
 C200 C 0.33730 0.64617 -0.06802
 C201 C 0.38045 0.59889 -0.06877
 C202 C 0.38871 0.56110 -0.01816
 C203 C 0.34895 0.56636 0.03083
 C204 C 0.30428 0.61245 0.03138
 C205 C 0.25865 0.70618 -0.01401
 C206 C 0.22200 0.71363 0.03694
 C207 C 0.18318 0.76448 0.04027
 C208 C 0.18248 0.80825 -0.00593
 C209 C 0.21976 0.80097 -0.05636
 C210 C 0.25761 0.74932 -0.06100
 C211 C 0.26619 0.62093 0.08115
 C212 C 0.22527 0.67046 0.08364
 C213 C 0.33338 0.68885 -0.11514
 C214 C 0.29436 0.73984 -0.11155
 H215 H 0.26876 0.58965 0.11888
 H216 H 0.19699 0.67578 0.12298
 H217 H 0.36197 0.68376 -0.15434
 H218 H 0.29347 0.77245 -0.14828
 H219 H 0.41124 0.59461 -0.10651
 H220 H 0.35572 0.53772 0.07005
 H221 H 0.15372 0.77038 0.07873
 H222 H 0.21785 0.83445 -0.09237
 C223 C -0.30473 0.66836 -0.00709
 C224 C -0.34842 0.66910 -0.05250
 C225 C -0.39077 0.62201 -0.05480
 C226 C -0.39196 0.57555 -0.01047
 C227 C -0.34585 0.57430 0.03336
 C228 C -0.30210 0.62054 0.03510
 C229 C -0.26219 0.71963 -0.00258
 C230 C -0.21814 0.71890 0.04272
 C231 C -0.17738 0.76756 0.04630
 C232 C -0.18192 0.81700 0.00600
 C233 C -0.22686 0.81789 -0.03824
 C234 C -0.26673 0.76875 -0.04334
 C235 C -0.25736 0.62134 0.07978
 C236 C -0.21571 0.66953 0.08324
 C237 C -0.35051 0.71809 -0.09349
 C238 C -0.31050 0.76739 -0.08875
 H239 H -0.25480 0.58464 0.11255
 H240 H -0.18188 0.66855 0.11834
 H241 H -0.38416 0.71894 -0.12875
 H242 H -0.31397 0.80478 -0.12070
 H243 H -0.42396 0.62249 -0.09053
 H244 H -0.34657 0.54062 0.06908
 H245 H -0.14215 0.76716 0.08013
 H246 H -0.22907 0.85558 -0.06997
 C247 C -0.29259 1.34789 0.01455
 C248 C -0.29768 1.38953 -0.03338
 C249 C -0.34219 1.43570 -0.03095
 C250 C -0.38088 1.44001 0.01901
 C251 C -0.37154 1.40136 0.06872
 C252 C -0.32856 1.35407 0.06613
 C253 C -0.25149 1.29481 0.00921
 C254 C -0.24970 1.25089 0.05542
 C255 C -0.21230 1.19930 0.04913
 C256 C -0.17616 1.19259 -0.00211
 C257 C -0.17735 1.23710 -0.04765
 C258 C -0.21595 1.28809 -0.04267
 C259 C -0.32378 1.31052 0.11238
 C260 C -0.28517 1.25948 0.10696
 C261 C -0.26076 1.38185 -0.08416
 C262 C -0.22008 1.33219 -0.08850
 H263 H -0.35145 1.31497 0.15230
 H264 H -0.28362 1.22613 0.14304
 H265 H -0.26409 1.41386 -0.12124
 H266 H -0.19270 1.32751 -0.12858
 H267 H -0.34981 1.46510 -0.06949
 H268 H -0.40147 1.40496 0.10719
 H269 H -0.20957 1.16548 0.08474
 H270 H -0.14841 1.23178 -0.08666
 C271 C 0.00387 1.33510 0.30650
 C272 C -0.03209 1.38774 0.29673
 C273 C -0.03639 1.43249 0.34165
 C274 C -0.00484 1.42475 0.39623
 C275 C 0.03369 1.37272 0.40290
 C276 C 0.03720 1.32755 0.35919
 C277 C 0.00533 1.28599 0.26153
 C278 C 0.03922 1.23222 0.27286
 C279 C 0.03866 1.18469 0.23109
 C280 C 0.00584 1.19134 0.17766
 C281 C -0.02706 1.24598 0.16644
 C282 C -0.02814 1.29319 0.20869
 C283 C 0.07208 1.27401 0.36816
 C284 C 0.07275 1.22696 0.32589
 C285 C -0.06476 1.39335 0.24304
 C286 C -0.06253 1.34708 0.19965
 H287 H 0.09810 1.26786 0.40882
 H288 H 0.09939 1.18598 0.33498
 H289 H -0.09268 1.43362 0.23467
 H290 H -0.08864 1.35318 0.15906
 H291 H -0.06783 1.47036 0.33544
 H292 H 0.06082 1.36676 0.44292
 H293 H 0.06432 1.14297 0.23967
 H294 H -0.05283 1.25110 0.12546
 C295 C -0.01888 1.34257 -0.30088
 C296 C 0.02793 1.38613 -0.30394
 C297 C 0.02516 1.43275 -0.34758
 C298 C -0.02403 1.43550 -0.38752
 C299 C -0.07229 1.39384 -0.38120
 C300 C -0.06949 1.34660 -0.33872
 C301 C -0.01340 1.29006 -0.25933
 C302 C -0.05859 1.24476 -0.25872
 C303 C -0.05231 1.19409 -0.22023
 C304 C -0.00200 1.18946 -0.18193
 C305 C 0.04259 1.23534 -0.18264
 C306 C 0.03756 1.28546 -0.22193
 C307 C -0.11461 1.30139 -0.33568
 C308 C -0.10916 1.25120 -0.29647
 C309 C 0.07796 1.38014 -0.26538
 C310 C 0.08249 1.33088 -0.22483
 H311 H -0.15382 1.30410 -0.36481
 H312 H -0.14451 1.21686 -0.29613
 H313 H 0.11433 1.41333 -0.26712
 H314 H 0.12207 1.32772 -0.19630
 H315 H 0.06279 1.46411 -0.35312
 H316 H -0.10978 1.39559 -0.41257
 H317 H -0.08725 1.15934 -0.21862
 H318 H 0.08116 1.23169 -0.15285
 C319 C -0.00315 0.66625 -0.30689
 C320 C -0.04437 0.61775 -0.29960
 C321 C -0.04867 0.57312 -0.34448
 C322 C -0.01131 0.57662 -0.39567
 C323 C 0.03156 0.62418 -0.40052
 C324 C 0.03505 0.66964 -0.35704
 C325 C -0.00107 0.71539 -0.26202
 C326 C 0.03800 0.76536 -0.27105
 C327 C 0.03827 0.81304 -0.22938
 C328 C 0.00121 0.80999 -0.17819
 C329 C -0.03690 0.75906 -0.16917
 C330 C -0.03894 0.71201 -0.21153
 C331 C 0.07473 0.71942 -0.36373
 C332 C 0.07590 0.76669 -0.32165
 C333 C -0.08147 0.61599 -0.24835
 C334 C -0.07848 0.66204 -0.20487
 H335 H 0.10439 0.72242 -0.40239
 H336 H 0.10654 0.80470 -0.32892
 H337 H -0.11332 0.57887 -0.24192
 H338 H -0.10800 0.65895 -0.16611
 H339 H -0.08237 0.53734 -0.34065
 H340 H 0.06085 0.62692 -0.43953
 H341 H 0.06790 0.85193 -0.23616
 H342 H -0.06584 0.75685 -0.12988
 C343 C -0.01848 0.65857 0.30044
 C344 C -0.07256 0.64982 0.33281
 C345 C -0.07517 0.60267 0.37545
 C346 C -0.02394 0.56519 0.38659
 C347 C 0.02911 0.57265 0.35208
 C348 C 0.03215 0.61963 0.30889
 C349 C -0.01390 0.71117 0.25895
 C350 C 0.04061 0.72082 0.22748
 C351 C 0.04482 0.77118 0.18841
 C352 C -0.00455 0.81201 0.18175
 C353 C -0.05871 0.80208 0.21371
 C354 C -0.06375 0.75146 0.25235
 C355 C 0.08566 0.63045 0.27604
 C356 C 0.08974 0.68005 0.23590
 C357 C -0.12190 0.69025 0.32405
 C358 C -0.11759 0.74021 0.28446
 H359 H 0.12503 0.60086 0.28206
 H360 H 0.13204 0.68711 0.21197
 H361 H -0.16386 0.68386 0.34880
 H362 H -0.15647 0.77064 0.27944
 H363 H -0.11566 0.59740 0.40279
 H364 H 0.06891 0.54459 0.36153
 H365 H 0.08628 0.77879 0.16321
 H366 H -0.09717 0.83274 0.20718
   
