data_POSCAR
  _audit_creation_date              2014-09-24
  _audit_creation_method            'ToBaCCo'
  _symmetry_space_group_name_H-M    'P1'
  _symmetry_Int_Tables_number       1
  _symmetry_cell_setting            triclinic
  loop_
  _symmetry_equiv_pos_as_xyz
 x,y,z
_cell_length_a 48.0484
_cell_length_b 49.9737
_cell_length_c 49.0864
_cell_angle_alpha 89.170000
_cell_angle_beta 89.694600
_cell_angle_gamma 88.198300
loop_
  _atom_site_label
  _atom_site_type_symbol
  _atom_site_fract_x
  _atom_site_fract_y
  _atom_site_fract_z
N1 N 0.29852 0.23623 0.21524
 N2 N 0.28307 0.25183 0.19928
 C3 C 0.29865 0.26022 0.17810
 C4 C 0.32541 0.24939 0.18115
 C5 C 0.32446 0.23429 0.20497
 H6 H 0.29109 0.27327 0.16181
 H7 H 0.34118 0.22206 0.21372
 Cu8 Cu 0.24416 0.25981 0.20786
 Cu9 Cu 0.28346 0.21790 0.24689
 Cu10 Cu 0.21867 0.23955 0.26912
 N11 N 0.21096 0.27628 0.22401
 N12 N 0.20156 0.26909 0.24815
 C13 C 0.17935 0.28493 0.25460
 C14 C 0.17451 0.30292 0.23326
 C15 C 0.19500 0.29677 0.21422
 H16 H 0.16761 0.28344 0.27338
 H17 H 0.19864 0.30698 0.19502
 N18 N 0.23988 0.20973 0.28692
 N19 N 0.26472 0.20162 0.27831
 C20 C 0.27369 0.18065 0.29369
 C21 C 0.25356 0.17510 0.31309
 C22 C 0.23237 0.19408 0.30814
 H23 H 0.29335 0.17005 0.29065
 H24 H 0.21274 0.19617 0.31885
 H25 H 0.24069 0.22131 0.23828
 H26 H 0.25668 0.25085 0.25479
 N27 N 0.71389 -0.22468 0.21448
 N28 N 0.72501 -0.24678 0.20444
 C29 C 0.70990 -0.25412 0.18290
 C30 C 0.68806 -0.23552 0.17907
 C31 C 0.69150 -0.21707 0.19961
 H32 H 0.71463 -0.27165 0.17092
 H33 H 0.67837 -0.19974 0.20407
 Cu34 Cu 0.75842 -0.26355 0.22038
 Cu35 Cu 0.72807 -0.20818 0.24710
 Cu36 Cu 0.78707 -0.23795 0.27621
 N37 N 0.79183 -0.27981 0.23683
 N38 N 0.80340 -0.26909 0.25807
 C39 C 0.82658 -0.28344 0.26478
 C40 C 0.82977 -0.30465 0.24693
 C41 C 0.80712 -0.30162 0.22948
 H42 H 0.83968 -0.27896 0.28182
 H43 H 0.80232 -0.31397 0.21237
 N44 N 0.76756 -0.20636 0.29161
 N45 N 0.74543 -0.19463 0.28027
 C46 C 0.73659 -0.17412 0.29597
 C47 C 0.75382 -0.17307 0.31840
 C48 C 0.77323 -0.19378 0.31490
 H49 H 0.71832 -0.16152 0.29201
 H50 H 0.79009 -0.19942 0.32851
 H51 H 0.76882 -0.22123 0.24169
 H52 H 0.74641 -0.24263 0.26362
 N53 N 0.73038 0.23266 0.78639
 N54 N 0.74369 0.25244 0.79721
 C55 C 0.73138 0.25891 0.82108
 C56 C 0.70906 0.24239 0.82528
 C57 C 0.70920 0.22594 0.80284
 H58 H 0.73747 0.27509 0.83391
 H59 H 0.69471 0.21046 0.79854
 Cu60 Cu 0.77434 0.26898 0.77782
 Cu61 Cu 0.74005 0.21796 0.75100
 Cu62 Cu 0.79351 0.24783 0.71552
 N63 N 0.80492 0.28506 0.75788
 N64 N 0.81170 0.27713 0.73327
 C65 C 0.83225 0.29222 0.72345
 C66 C 0.83898 0.31081 0.74295
 C67 C 0.82111 0.30546 0.76463
 H68 H 0.84149 0.28968 0.70351
 H69 H 0.81938 0.31601 0.78363
 N70 N 0.77274 0.21778 0.70110
 N71 N 0.75281 0.20598 0.71488
 C72 C 0.74313 0.18589 0.69994
 C73 C 0.75755 0.18510 0.67548
 C74 C 0.77614 0.20563 0.67695
 H75 H 0.72649 0.17306 0.70617
 H76 H 0.79131 0.21107 0.66168
 H77 H 0.78126 0.22864 0.75093
 H78 H 0.75557 0.25299 0.73514
 N79 N 0.27815 -0.22642 0.79759
 N80 N 0.26776 -0.24786 0.80906
 C81 C 0.28212 -0.25401 0.83192
 C82 C 0.30257 -0.23536 0.83506
 C83 C 0.29930 -0.21810 0.81287
 H84 H 0.27817 -0.27097 0.84513
 H85 H 0.31203 -0.20132 0.80762
 Cu86 Cu 0.23742 -0.26642 0.79220
 Cu87 Cu 0.26472 -0.21191 0.76277
 Cu88 Cu 0.21139 -0.24551 0.73204
 N89 N 0.20664 -0.28440 0.77537
 N90 N 0.19700 -0.27640 0.75155
 C91 C 0.17649 -0.29243 0.74409
 C92 C 0.17288 -0.31176 0.76437
 C93 C 0.19252 -0.30585 0.78394
 H94 H 0.16508 -0.28993 0.72529
 H95 H 0.19661 -0.31649 0.80287
 N96 N 0.22854 -0.21379 0.71553
 N97 N 0.24837 -0.20057 0.72744
 C98 C 0.25522 -0.17971 0.71126
 C99 C 0.23905 -0.17993 0.68799
 C100 C 0.22241 -0.20183 0.69147
 H101 H 0.27114 -0.16567 0.71583
 H102 H 0.20669 -0.20835 0.67762
 H103 H 0.22490 -0.22593 0.76613
 H104 H 0.25115 -0.24763 0.74815
 N105 N 0.71054 -0.22438 0.79177
 N106 N 0.72519 -0.24211 0.80615
 C107 C 0.70964 -0.25061 0.82731
 C108 C 0.68376 -0.23757 0.82600
 C109 C 0.68520 -0.22103 0.80318
 H110 H 0.71644 -0.26568 0.84206
 H111 H 0.66903 -0.20751 0.79539
 Cu112 Cu 0.76260 -0.25352 0.79510
 Cu113 Cu 0.72518 -0.20702 0.75925
 Cu114 Cu 0.78586 -0.23484 0.73292
 N115 N 0.79359 -0.27228 0.77732
 N116 N 0.80160 -0.26578 0.75254
 C117 C 0.82204 -0.28296 0.74456
 C118 C 0.82746 -0.30126 0.76559
 C119 C 0.80894 -0.29364 0.78615
 H120 H 0.83242 -0.28178 0.72503
 H121 H 0.80600 -0.30335 0.80573
 N122 N 0.76677 -0.20322 0.71644
 N123 N 0.74359 -0.19252 0.72658
 C124 C 0.73590 -0.17095 0.71135
 C125 C 0.75523 -0.16784 0.69058
 C126 C 0.77450 -0.18873 0.69451
 H127 H 0.71779 -0.15823 0.71538
 H128 H 0.79279 -0.19314 0.68229
 H129 H 0.74713 -0.24185 0.74952
 H130 H 0.76749 -0.21461 0.76528
 N131 N 0.28528 0.23015 0.79561
 N132 N 0.27533 0.25407 0.80186
 C133 C 0.28940 0.26326 0.82320
 C134 C 0.30942 0.24410 0.83081
 C135 C 0.30610 0.22327 0.81284
 H136 H 0.28549 0.28260 0.83227
 H137 H 0.31853 0.20491 0.81172
 Cu138 Cu 0.24599 0.27163 0.78077
 Cu139 Cu 0.27156 0.21082 0.76442
 Cu140 Cu 0.21446 0.23940 0.73044
 N141 N 0.21085 0.28456 0.76583
 N142 N 0.19907 0.27279 0.74528
 C143 C 0.17560 0.28673 0.73845
 C144 C 0.17240 0.30806 0.75602
 C145 C 0.19513 0.30600 0.77311
 H146 H 0.16158 0.28143 0.72237
 H147 H 0.20009 0.31939 0.78938
 N148 N 0.23322 0.20556 0.71920
 N149 N 0.25468 0.19458 0.73234
 C150 C 0.26284 0.17188 0.71976
 C151 C 0.24571 0.16828 0.69761
 C152 C 0.22714 0.19008 0.69794
 H153 H 0.28007 0.15897 0.72625
 H154 H 0.21072 0.19462 0.68349
 H155 H 0.25551 0.24298 0.74179
 H156 H 0.23162 0.22763 0.76733
 N157 N 0.27693 -0.22655 0.21861
 N158 N 0.26731 -0.24884 0.20898
 C159 C 0.28276 -0.25635 0.18725
 C160 C 0.30300 -0.23764 0.18288
 C161 C 0.29862 -0.21898 0.20317
 H162 H 0.27942 -0.27395 0.17530
 H163 H 0.31073 -0.20153 0.20682
 Cu164 Cu 0.23527 -0.26561 0.22558
 Cu165 Cu 0.26150 -0.20959 0.25119
 Cu166 Cu 0.20568 -0.24044 0.28209
 N167 N 0.20369 -0.28251 0.24296
 N168 N 0.19241 -0.27257 0.26521
 C169 C 0.17114 -0.28776 0.27313
 C170 C 0.16880 -0.30838 0.25483
 C171 C 0.18984 -0.30438 0.23590
 H172 H 0.15811 -0.28383 0.29072
 H173 H 0.19485 -0.31661 0.21847
 N174 N 0.22189 -0.20777 0.29617
 N175 N 0.24297 -0.19579 0.28442
 C176 C 0.24908 -0.17411 0.29905
 C177 C 0.23094 -0.17235 0.32111
 C178 C 0.21405 -0.19411 0.31848
 H179 H 0.26563 -0.16072 0.29405
 H180 H 0.19732 -0.19981 0.33190
 H181 H 0.24651 -0.24417 0.26825
 H182 H 0.22186 -0.22334 0.24695
 N183 N 0.73151 0.22949 0.20443
 N184 N 0.74407 0.25041 0.19431
 C185 C 0.73041 0.25928 0.17191
 C186 C 0.70812 0.24298 0.16764
 C187 C 0.70953 0.22422 0.18870
 H188 H 0.73625 0.27632 0.15961
 H189 H 0.69527 0.20831 0.19269
 Cu190 Cu 0.77671 0.26460 0.21146
 Cu191 Cu 0.74410 0.21124 0.23767
 Cu192 Cu 0.80093 0.23729 0.27010
 N193 N 0.80806 0.27922 0.23044
 N194 N 0.81719 0.26878 0.25354
 C195 C 0.83829 0.28329 0.26261
 C196 C 0.84271 0.30393 0.24410
 C197 C 0.82312 0.30068 0.22395
 H198 H 0.84959 0.27910 0.28124
 H199 H 0.81961 0.31343 0.20625
 N200 N 0.78175 0.20550 0.28370
 N201 N 0.76000 0.19564 0.27150
 C202 C 0.75147 0.17422 0.28590
 C203 C 0.76878 0.17032 0.30817
 C204 C 0.78771 0.19055 0.30607
 H205 H 0.73408 0.16222 0.28048
 H206 H 0.80434 0.19438 0.32008
 H207 H 0.76138 0.24457 0.25434
 H208 H 0.78523 0.22165 0.23469
 C209 C 0.24438 -0.01136 0.50453
 C210 C 0.24407 0.01570 0.50519
 C211 C 0.24211 0.03041 0.53105
 C212 C 0.24300 0.03222 0.47999
 C213 C 0.24515 -0.02575 0.47846
 C214 C 0.24471 -0.02800 0.52975
 C215 C 0.21697 0.03160 0.54568
 C216 C 0.21410 0.04805 0.56839
 C217 C 0.23638 0.06351 0.57681
 C218 C 0.26180 0.06153 0.56254
 C219 C 0.26459 0.04518 0.53981
 C220 C 0.21736 0.03805 0.46745
 C221 C 0.21563 0.05609 0.44547
 C222 C 0.23951 0.06894 0.43589
 C223 C 0.26530 0.06253 0.44824
 C224 C 0.26702 0.04425 0.47003
 C225 C 0.27055 -0.03604 0.46834
 C226 C 0.27120 -0.05167 0.44493
 C227 C 0.24638 -0.05744 0.43148
 C228 C 0.22102 -0.04649 0.44139
 C229 C 0.22043 -0.03077 0.46471
 C230 C 0.26739 -0.02785 0.54762
 C231 C 0.26825 -0.04488 0.57050
 C232 C 0.24641 -0.06235 0.57591
 C233 C 0.22350 -0.06200 0.55815
 C234 C 0.22277 -0.04513 0.53522
 H235 H 0.19937 0.02040 0.53902
 H236 H 0.19437 0.04897 0.57915
 H237 H 0.27924 0.07339 0.56833
 H238 H 0.28415 0.04447 0.52878
 H239 H 0.19858 0.02906 0.47509
 H240 H 0.19554 0.06020 0.43616
 H241 H 0.28697 0.04003 0.47958
 H242 H 0.28978 -0.03243 0.47892
 H243 H 0.29099 -0.06006 0.43795
 H244 H 0.20162 -0.05036 0.43127
 H245 H 0.20065 -0.02304 0.47241
 H246 H 0.28468 -0.01498 0.54348
 H247 H 0.28636 -0.04488 0.58353
 H248 H 0.20607 -0.07475 0.56199
 H249 H 0.20503 -0.04544 0.52173
 H250 H 0.28403 0.07231 0.44170
 C251 C 0.72817 -0.00942 0.50077
 C252 C 0.72904 0.01766 0.49924
 C253 C 0.73019 0.03213 0.47273
 C254 C 0.73048 0.03438 0.52385
 C255 C 0.72798 -0.02415 0.52714
 C256 C 0.72904 -0.02604 0.47604
 C257 C 0.75319 0.02878 0.45525
 C258 C 0.75500 0.04417 0.43134
 C259 C 0.73383 0.06314 0.42457
 C260 C 0.71063 0.06609 0.44195
 C261 C 0.70893 0.05083 0.46591
 C262 C 0.75345 0.05058 0.52718
 C263 C 0.75490 0.06748 0.54943
 C264 C 0.73316 0.06888 0.56870
 C265 C 0.71025 0.05231 0.56553
 C266 C 0.70892 0.03519 0.54325
 C267 C 0.70583 -0.04081 0.53334
 C268 C 0.70620 -0.05647 0.55710
 C269 C 0.72895 -0.05601 0.57494
 C270 C 0.75104 -0.03908 0.56883
 C271 C 0.75055 -0.02325 0.54510
 C272 C 0.70693 -0.02544 0.45748
 C273 C 0.70788 -0.04209 0.43476
 C274 C 0.73106 -0.05945 0.43019
 C275 C 0.75333 -0.05947 0.44870
 C276 C 0.75217 -0.04315 0.47150
 H277 H 0.76999 0.01471 0.46047
 H278 H 0.77304 0.04142 0.41825
 H279 H 0.69423 0.08082 0.43745
 H280 H 0.69119 0.05383 0.47935
 H281 H 0.77035 0.05011 0.51248
 H282 H 0.77313 0.07945 0.55155
 H283 H 0.69088 0.02300 0.54083
 H284 H 0.68839 -0.04192 0.51954
 H285 H 0.68910 -0.06961 0.56108
 H286 H 0.76875 -0.03826 0.58230
 H287 H 0.76803 -0.01079 0.54039
 H288 H 0.68883 -0.01244 0.46085
 H289 H 0.69024 -0.04177 0.42114
 H290 H 0.77180 -0.07202 0.44553
 H291 H 0.76949 -0.04370 0.48556
 H292 H 0.69304 0.05309 0.57986
 C293 C 0.51011 0.24019 -0.01686
 C294 C 0.51114 0.24268 0.01061
 C295 C 0.48552 0.24551 0.02747
 C296 C 0.53785 0.24126 0.02565
 C297 C 0.53565 0.23782 -0.03379
 C298 C 0.48340 0.23894 -0.03170
 C299 C 0.46614 0.26677 0.02321
 C300 C 0.44282 0.26968 0.04025
 C301 C 0.43868 0.25149 0.06193
 C302 C 0.45798 0.23008 0.06583
 C303 C 0.48120 0.22721 0.04887
 C304 C 0.54415 0.26176 0.04360
 C305 C 0.56751 0.25931 0.06035
 C306 C 0.58486 0.23615 0.05964
 C307 C 0.57884 0.21588 0.04120
 C308 C 0.55549 0.21839 0.02439
 C309 C 0.54013 0.21500 -0.04965
 C310 C 0.56238 0.21348 -0.06794
 C311 C 0.58032 0.23501 -0.07118
 C312 C 0.57632 0.25755 -0.05457
 C313 C 0.55414 0.25893 -0.03597
 C314 C 0.46464 0.21857 -0.02607
 C315 C 0.44071 0.21632 -0.04187
 C316 C 0.43521 0.23437 -0.06356
 C317 C 0.45390 0.25491 -0.06887
 C318 C 0.47780 0.25708 -0.05316
 H319 H 0.46936 0.28132 0.00703
 H320 H 0.42842 0.28650 0.03693
 H321 H 0.45510 0.21546 0.08202
 H322 H 0.49586 0.21063 0.05242
 H323 H 0.53057 0.27940 0.04509
 H324 H 0.57137 0.27508 0.07461
 H325 H 0.55065 0.20210 0.01108
 H326 H 0.52607 0.19851 -0.04813
 H327 H 0.56524 0.19557 -0.07993
 H328 H 0.58958 0.27458 -0.05675
 H329 H 0.55074 0.27683 -0.02407
 H330 H 0.46888 0.20409 -0.00988
 H331 H 0.42660 0.20039 -0.03725
 H332 H 0.45047 0.26884 -0.08571
 H333 H 0.49221 0.27273 -0.05799
 H334 H 0.59196 0.19790 0.04009
 C335 C 0.49753 0.73764 0.02156
 C336 C 0.49653 0.73842 -0.00612
 C337 C 0.52216 0.73951 -0.02301
 C338 C 0.46995 0.73887 -0.02130
 C339 C 0.47203 0.73757 0.03895
 C340 C 0.52446 0.73791 0.03616
 C341 C 0.52582 0.76148 -0.04059
 C342 C 0.54919 0.76250 -0.05751
 C343 C 0.56924 0.74139 -0.05747
 C344 C 0.56561 0.71943 -0.03966
 C345 C 0.54222 0.71849 -0.02259
 C346 C 0.45070 0.76048 -0.01931
 C347 C 0.42662 0.76128 -0.03527
 C348 C 0.42138 0.74039 -0.05328
 C349 C 0.44060 0.71870 -0.05492
 C350 C 0.46474 0.71806 -0.03924
 C351 C 0.45103 0.71903 0.03531
 C352 C 0.42755 0.71926 0.05234
 C353 C 0.42487 0.73768 0.07370
 C354 C 0.44625 0.75582 0.07755
 C355 C 0.46942 0.75582 0.06034
 C356 C 0.53256 0.71598 0.05272
 C357 C 0.55683 0.71666 0.06820
 C358 C 0.57313 0.73952 0.06775
 C359 C 0.56509 0.76141 0.05095
 C360 C 0.54098 0.76057 0.03517
 H361 H 0.51056 0.77790 -0.04112
 H362 H 0.55161 0.77993 -0.07057
 H363 H 0.58051 0.70272 -0.03939
 H364 H 0.53950 0.70118 -0.00942
 H365 H 0.45462 0.77688 -0.00582
 H366 H 0.41209 0.77819 -0.03360
 H367 H 0.47953 0.70138 -0.04121
 H368 H 0.45286 0.70425 0.01944
 H369 H 0.41147 0.70507 0.04869
 H370 H 0.44536 0.76979 0.09419
 H371 H 0.48546 0.77012 0.06382
 H372 H 0.51987 0.69846 0.05388
 H373 H 0.56237 0.69967 0.08123
 H374 H 0.57736 0.77922 0.05021
 H375 H 0.53481 0.77779 0.02272
 H376 H 0.43730 0.70255 -0.06890
 C377 C 0.01685 0.50000 0.23884
 C378 C -0.01124 0.50010 0.23573
 C379 C -0.02678 0.47505 0.23399
 C380 C -0.02823 0.52526 0.23401
 C381 C 0.03242 0.52520 0.23867
 C382 C 0.03378 0.47469 0.24167
 C383 C -0.02131 0.45673 0.21308
 C384 C -0.03681 0.43361 0.21127
 C385 C -0.05800 0.42848 0.23035
 C386 C -0.06333 0.44687 0.25126
 C387 C -0.04797 0.47001 0.25295
 C388 C -0.04177 0.53224 0.20962
 C389 C -0.06018 0.55439 0.20838
 C390 C -0.06606 0.56958 0.23177
 C391 C -0.05190 0.56275 0.25610
 C392 C -0.03301 0.54087 0.25714
 C393 C 0.05037 0.53036 0.26026
 C394 C 0.06716 0.55264 0.25932
 C395 C 0.06649 0.57013 0.23662
 C396 C 0.04829 0.56506 0.21509
 C397 C 0.03146 0.54274 0.21607
 C398 C 0.02777 0.45537 0.26176
 C399 C 0.04414 0.43179 0.26408
 C400 C 0.06705 0.42727 0.24658
 C401 C 0.07327 0.44694 0.22689
 C402 C 0.05682 0.47033 0.22447
 H403 H -0.00525 0.46049 0.19807
 H404 H -0.03221 0.41970 0.19502
 H405 H -0.07980 0.44364 0.26597
 H406 H -0.05258 0.48401 0.26912
 H407 H -0.03826 0.52032 0.19159
 H408 H -0.07004 0.55938 0.18912
 H409 H -0.02296 0.53546 0.27622
 H410 H 0.05171 0.51682 0.27768
 H411 H 0.08130 0.55573 0.27600
 H412 H 0.04722 0.57825 0.19741
 H413 H 0.01827 0.53875 0.19888
 H414 H 0.01047 0.45857 0.27568
 H415 H 0.03874 0.41701 0.27940
 H416 H 0.09114 0.44444 0.21354
 H417 H 0.06204 0.48509 0.20905
 H418 H -0.05614 0.57364 0.27463
 C419 C 0.01486 0.50422 0.73943
 C420 C -0.01347 0.50480 0.74130
 C421 C -0.02914 0.47976 0.74410
 C422 C -0.03048 0.53029 0.74158
 C423 C 0.03104 0.52904 0.73987
 C424 C 0.03148 0.47863 0.73796
 C425 C -0.04944 0.47400 0.72481
 C426 C -0.06546 0.45133 0.72797
 C427 C -0.06177 0.43422 0.75072
 C428 C -0.04144 0.44003 0.77007
 C429 C -0.02520 0.46260 0.76675
 C430 C -0.02619 0.55099 0.72247
 C431 C -0.04283 0.57445 0.72290
 C432 C -0.06484 0.57738 0.74182
 C433 C -0.06946 0.55628 0.76042
 C434 C -0.05236 0.53323 0.76047
 C435 C 0.02987 0.54599 0.76244
 C436 C 0.04643 0.56850 0.76316
 C437 C 0.06425 0.57449 0.74125
 C438 C 0.06523 0.55754 0.71866
 C439 C 0.04897 0.53488 0.71811
 C440 C 0.05400 0.47421 0.75569
 C441 C 0.07018 0.45061 0.75451
 C442 C 0.06413 0.43068 0.73568
 C443 C 0.04174 0.43524 0.71767
 C444 C 0.02573 0.45909 0.71863
 H445 H -0.05294 0.48719 0.70738
 H446 H -0.08123 0.44751 0.71295
 H447 H -0.03814 0.42709 0.78772
 H448 H -0.00988 0.46696 0.78204
 H449 H -0.01011 0.54898 0.70705
 H450 H -0.03837 0.59027 0.70840
 H451 H -0.05642 0.51749 0.77522
 H452 H 0.01644 0.54154 0.77960
 H453 H 0.04527 0.58131 0.78077
 H454 H 0.07905 0.56151 0.70167
 H455 H 0.05036 0.52184 0.70068
 H456 H 0.05907 0.48910 0.77054
 H457 H 0.08771 0.44818 0.76818
 H458 H 0.03646 0.42031 0.70296
 H459 H 0.00891 0.46232 0.70426
 H460 H -0.08664 0.55726 0.77475
 C461 C 0.37663 0.24636 0.17234
 C462 C 0.34957 0.25177 0.16253
 C463 C 0.34583 0.25817 0.13476
 C464 C 0.36874 0.25799 0.11682
 C465 C 0.39571 0.25179 0.12690
 C466 C 0.39948 0.24645 0.15473
 C467 C 0.41843 0.25046 0.10895
 C468 C 0.41468 0.25486 0.08085
 C469 C 0.38791 0.26164 0.07103
 C470 C 0.36512 0.26322 0.08888
 H471 H 0.32509 0.26231 0.12689
 H472 H 0.42006 0.24186 0.16280
 H473 H 0.43907 0.24572 0.11684
 H474 H 0.34461 0.26802 0.08076
 H475 H 0.38022 0.24187 0.19369
 H476 H 0.38448 0.26501 0.04946
 C477 C 0.64731 0.78606 0.15697
 C478 C 0.66679 0.76441 0.15928
 C479 C 0.66418 0.74259 0.14161
 C480 C 0.64238 0.74214 0.12267
 C481 C 0.62310 0.76399 0.12078
 C482 C 0.62588 0.78589 0.13788
 C483 C 0.60105 0.76337 0.10220
 C484 C 0.59763 0.74089 0.08582
 C485 C 0.61694 0.71926 0.08778
 C486 C 0.63924 0.71995 0.10590
 H487 H 0.67854 0.72551 0.14283
 H488 H 0.61127 0.80283 0.13670
 H489 H 0.58600 0.77998 0.10110
 H490 H 0.65380 0.70297 0.10706
 H491 H 0.64846 0.80343 0.16972
 H492 H 0.61474 0.70180 0.07526
 C493 C 0.69444 0.25476 -0.12718
 C494 C 0.68830 0.24319 -0.15230
 C495 C 0.66195 0.23244 -0.15605
 C496 C 0.64202 0.23314 -0.13513
 C497 C 0.64840 0.24459 -0.10985
 C498 C 0.67471 0.25535 -0.10609
 C499 C 0.62834 0.24509 -0.08888
 C500 C 0.60194 0.23441 -0.09298
 C501 C 0.59588 0.22339 -0.11841
 C502 C 0.61573 0.22266 -0.13920
 H503 H 0.65665 0.22386 -0.17540
 H504 H 0.68000 0.26426 -0.08688
 H505 H 0.63338 0.25353 -0.06936
 H506 H 0.61042 0.21403 -0.15855
 H507 H 0.71462 0.26309 -0.12370
 H508 H 0.57555 0.21562 -0.12242
 C509 C 0.33968 0.78816 -0.13962
 C510 C 0.32436 0.76503 -0.14361
 C511 C 0.33048 0.74208 -0.12752
 C512 C 0.35197 0.74202 -0.10825
 C513 C 0.36741 0.76531 -0.10466
 C514 C 0.36092 0.78833 -0.12028
 C515 C 0.38947 0.76497 -0.08599
 C516 C 0.39659 0.74148 -0.07116
 C517 C 0.38086 0.71855 -0.07465
 C518 C 0.35868 0.71884 -0.09293
 H519 H 0.31912 0.72397 -0.13041
 H520 H 0.37253 0.80638 -0.11780
 H521 H 0.40170 0.78265 -0.08369
 H522 H 0.34703 0.70082 -0.09536
 H523 H 0.33531 0.80623 -0.15144
 H524 H 0.38583 0.70032 -0.06325
 C525 C 0.14501 0.33524 0.20580
 C526 C 0.15298 0.32473 0.23140
 C527 C 0.14084 0.33570 0.25506
 C528 C 0.12161 0.35741 0.25317
 C529 C 0.11408 0.36798 0.22729
 C530 C 0.12562 0.35655 0.20375
 C531 C 0.09555 0.39014 0.22534
 C532 C 0.08480 0.40244 0.24891
 C533 C 0.09203 0.39149 0.27457
 C534 C 0.11020 0.36913 0.27668
 H535 H 0.14695 0.32794 0.27494
 H536 H 0.11997 0.36434 0.18375
 H537 H 0.08973 0.39800 0.20540
 H538 H 0.11575 0.36135 0.29671
 H539 H 0.15373 0.32698 0.18725
 H540 H 0.08428 0.40068 0.29308
 C541 C 0.15178 0.64990 0.78761
 C542 C 0.15387 0.66720 0.76475
 C543 C 0.13661 0.66278 0.74214
 C544 C 0.11820 0.64152 0.74219
 C545 C 0.11646 0.62444 0.76526
 C546 C 0.13323 0.62890 0.78788
 C547 C 0.09832 0.60294 0.76513
 C548 C 0.08224 0.59802 0.74200
 C549 C 0.08409 0.61518 0.71918
 C550 C 0.10177 0.63683 0.71933
 H551 H 0.13759 0.67547 0.72415
 H552 H 0.13221 0.61597 0.80575
 H553 H 0.09726 0.58961 0.78271
 H554 H 0.10278 0.64974 0.70146
 H555 H 0.16432 0.65244 0.80555
 H556 H 0.07171 0.61187 0.70124
 C557 C -0.12535 0.67703 0.26362
 C558 C -0.14890 0.67523 0.24675
 C559 C -0.15067 0.65275 0.22986
 C560 C -0.12975 0.63249 0.23011
 C561 C -0.10622 0.63480 0.24691
 C562 C -0.10419 0.65719 0.26349
 C563 C -0.08524 0.61457 0.24703
 C564 C -0.08773 0.59162 0.23100
 C565 C -0.11153 0.58948 0.21465
 C566 C -0.13217 0.60977 0.21403
 H567 H -0.16856 0.65043 0.21691
 H568 H -0.08631 0.65930 0.27656
 H569 H -0.06697 0.61681 0.25954
 H570 H -0.15023 0.60749 0.20124
 H571 H -0.12277 0.69394 0.27675
 H572 H -0.11457 0.57184 0.20262
 C573 C -0.12692 0.33558 0.71599
 C574 C -0.14121 0.33106 0.74075
 C575 C -0.13547 0.34754 0.76305
 C576 C -0.11644 0.36822 0.76049
 C577 C -0.10299 0.37281 0.73528
 C578 C -0.10818 0.35624 0.71329
 C579 C -0.08479 0.39407 0.73238
 C580 C -0.07965 0.41080 0.75442
 C581 C -0.09250 0.40566 0.77966
 C582 C -0.11081 0.38459 0.78265
 H583 H -0.14564 0.34449 0.78252
 H584 H -0.09791 0.35940 0.69385
 H585 H -0.07465 0.39768 0.71294
 H586 H -0.12080 0.38131 0.80221
 H587 H -0.13042 0.32362 0.69825
 H588 H -0.08897 0.41840 0.79688
 C589 C 0.27736 0.13489 0.33513
 C590 C 0.25456 0.15330 0.33408
 C591 C 0.23290 0.15068 0.35328
 C592 C 0.23413 0.13026 0.37326
 C593 C 0.25723 0.11208 0.37408
 C594 C 0.27866 0.11452 0.35488
 C595 C 0.25866 0.09186 0.39421
 C596 C 0.23739 0.08964 0.41384
 C597 C 0.21441 0.10780 0.41272
 C598 C 0.21275 0.12784 0.39259
 H599 H 0.21514 0.16455 0.35295
 H600 H 0.29656 0.10077 0.35520
 H601 H 0.27632 0.07782 0.39451
 H602 H 0.19488 0.14163 0.39235
 H603 H 0.29441 0.13606 0.32076
 H604 H 0.19792 0.10690 0.42780
 C605 C 0.76280 0.17363 0.62624
 C606 C 0.75389 0.16652 0.65261
 C607 C 0.74172 0.14154 0.65693
 C608 C 0.73888 0.12377 0.63526
 C609 C 0.74799 0.13121 0.60889
 C610 C 0.75976 0.15621 0.60458
 C611 C 0.74546 0.11344 0.58728
 C612 C 0.73442 0.08797 0.59160
 C613 C 0.72521 0.08082 0.61788
 C614 C 0.72735 0.09858 0.63950
 H615 H 0.73497 0.13566 0.67718
 H616 H 0.76680 0.16224 0.58446
 H617 H 0.75212 0.11951 0.56705
 H618 H 0.72032 0.09248 0.65959
 H619 H 0.77192 0.19282 0.62223
 H620 H 0.71686 0.06127 0.62186
 C621 C 0.22867 -0.16878 0.63912
 C622 C 0.23937 -0.16110 0.66435
 C623 C 0.24999 -0.13532 0.66680
 C624 C 0.24950 -0.11734 0.64449
 C625 C 0.23858 -0.12535 0.61932
 C626 C 0.22837 -0.15113 0.61682
 C627 C 0.23790 -0.10743 0.59707
 C628 C 0.24768 -0.08133 0.59956
 C629 C 0.25858 -0.07359 0.62469
 C630 C 0.25953 -0.09143 0.64693
 H631 H 0.25813 -0.12901 0.68614
 H632 H 0.22000 -0.15762 0.59764
 H633 H 0.22993 -0.11392 0.57772
 H634 H 0.26791 -0.08488 0.66608
 H635 H 0.22069 -0.18857 0.63645
 H636 H 0.26598 -0.05356 0.62731
 C637 C 0.76222 -0.16282 0.36732
 C638 C 0.75119 -0.15489 0.34190
 C639 C 0.73764 -0.12962 0.33918
 C640 C 0.73548 -0.11238 0.36152
 C641 C 0.74660 -0.12070 0.38696
 C642 C 0.75981 -0.14597 0.38967
 C643 C 0.74453 -0.10357 0.40927
 C644 C 0.73206 -0.07781 0.40655
 C645 C 0.72105 -0.06973 0.38112
 C646 C 0.72263 -0.08689 0.35886
 H647 H 0.72922 -0.12318 0.31964
 H648 H 0.76843 -0.15265 0.40905
 H649 H 0.75260 -0.11042 0.42882
 H650 H 0.71409 -0.08010 0.33948
 H651 H 0.77243 -0.18228 0.37011
 H652 H 0.71164 -0.04993 0.37827
 C653 C 0.63269 0.76732 -0.16425
 C654 C 0.65951 0.75915 -0.15557
 C655 C 0.66292 0.74814 -0.12919
 C656 C 0.63991 0.74577 -0.11161
 C657 C 0.61314 0.75427 -0.12060
 C658 C 0.60973 0.76483 -0.14699
 C659 C 0.59020 0.75230 -0.10301
 C660 C 0.59356 0.74227 -0.07627
 C661 C 0.62024 0.73361 -0.06758
 C662 C 0.64320 0.73530 -0.08511
 H663 H 0.68346 0.74189 -0.12211
 H664 H 0.58932 0.77133 -0.15424
 H665 H 0.56968 0.75857 -0.11018
 H666 H 0.66357 0.72871 -0.07783
 H667 H 0.62929 0.77548 -0.18453
 H668 H 0.62347 0.72605 -0.04703
 C669 C 0.33725 0.27159 -0.13762
 C670 C 0.33094 0.24636 -0.14789
 C671 C 0.34578 0.22351 -0.13810
 C672 C 0.36692 0.22589 -0.11873
 C673 C 0.37336 0.25143 -0.10899
 C674 C 0.35824 0.27409 -0.11838
 C675 C 0.39512 0.25396 -0.09039
 C676 C 0.41075 0.23131 -0.08142
 C677 C 0.40376 0.20591 -0.09071
 C678 C 0.38204 0.20322 -0.10920
 H679 H 0.34100 0.20389 -0.14556
 H680 H 0.36291 0.29383 -0.11113
 H681 H 0.40006 0.27361 -0.08306
 H682 H 0.37739 0.18347 -0.11640
 H683 H 0.32643 0.28959 -0.14486
 H684 H 0.41567 0.18819 -0.08431
 C685 C 0.33682 0.78630 0.15308
 C686 C 0.32492 0.76223 0.16156
 C687 C 0.33438 0.73806 0.14983
 C688 C 0.35588 0.73788 0.13032
 C689 C 0.36770 0.76223 0.12203
 C690 C 0.35787 0.78633 0.13335
 C691 C 0.38949 0.76207 0.10291
 C692 C 0.40032 0.73781 0.09238
 C693 C 0.38822 0.71371 0.10065
 C694 C 0.36612 0.71376 0.11931
 H695 H 0.32557 0.71932 0.15637
 H696 H 0.36668 0.80519 0.12720
 H697 H 0.39814 0.78089 0.09639
 H698 H 0.35740 0.69488 0.12551
 H699 H 0.32972 0.80521 0.16156
 H700 H 0.39630 0.69468 0.09325
 C701 C 0.68299 0.27000 0.13147
 C702 C 0.68697 0.24563 0.14582
 C703 C 0.67041 0.22391 0.13936
 C704 C 0.65003 0.22657 0.11904
 C705 C 0.64600 0.25128 0.10503
 C706 C 0.66268 0.27281 0.11130
 C707 C 0.62514 0.25414 0.08521
 C708 C 0.60816 0.23261 0.07920
 C709 C 0.61269 0.20799 0.09294
 C710 C 0.63343 0.20499 0.11267
 H711 H 0.67341 0.20491 0.14999
 H712 H 0.65987 0.29191 0.10078
 H713 H 0.62205 0.27313 0.07453
 H714 H 0.63622 0.18590 0.12321
 H715 H 0.69522 0.28715 0.13611
 H716 H 0.59964 0.19122 0.08895
 C717 C -0.14685 0.66279 0.79014
 C718 C -0.15295 0.67709 0.76581
 C719 C -0.13918 0.66909 0.74165
 C720 C -0.12032 0.64706 0.74169
 C721 C -0.11429 0.63320 0.76629
 C722 C -0.12752 0.64133 0.79041
 C723 C -0.09550 0.61116 0.76635
 C724 C -0.08334 0.60194 0.74189
 C725 C -0.08968 0.61590 0.71747
 C726 C -0.10773 0.63838 0.71742
 H727 H -0.14359 0.67929 0.72249
 H728 H -0.12318 0.63085 0.80947
 H729 H -0.09051 0.60117 0.78551
 H730 H -0.11227 0.64864 0.69828
 H731 H -0.15657 0.66829 0.80925
 H732 H -0.08120 0.60917 0.69819
 C733 C -0.12542 0.33204 0.27109
 C734 C -0.13690 0.32544 0.24587
 C735 C -0.12922 0.33992 0.22237
 C736 C -0.11077 0.36101 0.22408
 C737 C -0.09983 0.36784 0.24964
 C738 C -0.10710 0.35309 0.27297
 C739 C -0.08213 0.38952 0.25147
 C740 C -0.07518 0.40451 0.22808
 C741 C -0.08565 0.39715 0.20269
 C742 C -0.10332 0.37560 0.20070
 H743 H -0.13755 0.33482 0.20272
 H744 H -0.09887 0.35803 0.29272
 H745 H -0.07384 0.39482 0.27111
 H746 H -0.11147 0.37060 0.18094
 H747 H -0.13106 0.32136 0.28953
 H748 H -0.08080 0.40855 0.18444
 C749 C 0.14226 0.34052 0.78160
 C750 C 0.15004 0.32898 0.75667
 C751 C 0.13740 0.33850 0.73250
 C752 C 0.11807 0.36018 0.73316
 C753 C 0.11069 0.37182 0.75837
 C754 C 0.12255 0.36156 0.78249
 C755 C 0.09219 0.39402 0.75905
 C756 C 0.08154 0.40554 0.73480
 C757 C 0.08865 0.39357 0.70983
 C758 C 0.10660 0.37099 0.70903
 H759 H 0.14348 0.32983 0.71316
 H760 H 0.11708 0.37023 0.80198
 H761 H 0.08646 0.40260 0.77852
 H762 H 0.11209 0.36243 0.68950
 H763 H 0.15153 0.33329 0.80048
 H764 H 0.08102 0.40212 0.69080
 C765 C 0.13361 0.66436 0.27970
 C766 C 0.14826 0.67008 0.25553
 C767 C 0.14312 0.65510 0.23214
 C768 C 0.12373 0.63465 0.23292
 C769 C 0.10934 0.62899 0.25741
 C770 C 0.11436 0.64402 0.28064
 C771 C 0.09032 0.60827 0.25835
 C772 C 0.08548 0.59298 0.23513
 C773 C 0.09962 0.59903 0.21076
 C774 C 0.11857 0.61967 0.20966
 H775 H 0.15397 0.65941 0.21327
 H776 H 0.10353 0.63994 0.29959
 H777 H 0.07927 0.60406 0.27716
 H778 H 0.12940 0.62373 0.19070
 H779 H 0.13725 0.67534 0.29811
 H780 H 0.09653 0.58735 0.19268
 C781 C 0.77931 -0.14272 0.65311
 C782 C 0.75526 -0.14686 0.66889
 C783 C 0.73113 -0.13100 0.66356
 C784 C 0.73088 -0.11165 0.64256
 C785 C 0.75511 -0.10789 0.62670
 C786 C 0.77925 -0.12340 0.63226
 C787 C 0.75462 -0.08907 0.60520
 C788 C 0.73007 -0.07418 0.59908
 C789 C 0.70622 -0.07781 0.61525
 C790 C 0.70664 -0.09630 0.63686
 H791 H 0.71231 -0.13402 0.67527
 H792 H 0.79804 -0.12075 0.62035
 H793 H 0.77304 -0.08669 0.59266
 H794 H 0.68790 -0.09883 0.64888
 H795 H 0.79831 -0.15435 0.65684
 H796 H 0.68717 -0.06636 0.61107
 C797 C 0.20933 -0.15327 0.36361
 C798 C 0.22987 -0.15210 0.34309
 C799 C 0.24936 -0.13163 0.34398
 C800 C 0.24846 -0.11291 0.36511
 C801 C 0.22776 -0.11452 0.38555
 C802 C 0.20829 -0.13472 0.38458
 C803 C 0.22698 -0.09611 0.40683
 C804 C 0.24675 -0.07604 0.40817
 C805 C 0.26725 -0.07450 0.38771
 C806 C 0.26804 -0.09271 0.36631
 H807 H 0.26538 -0.13027 0.32849
 H808 H 0.19230 -0.13626 0.40012
 H809 H 0.21137 -0.09780 0.42275
 H810 H 0.28406 -0.09110 0.35080
 H811 H 0.19390 -0.16853 0.36372
 H812 H 0.28259 -0.05910 0.38821
 C813 C 0.79033 0.14343 0.34650
 C814 C 0.76714 0.14954 0.32993
 C815 C 0.74227 0.13606 0.33469
 C816 C 0.74040 0.11722 0.35606
 C817 C 0.76380 0.11147 0.37272
 C818 C 0.78871 0.12453 0.36763
 C819 C 0.76175 0.09319 0.39454
 C820 C 0.73647 0.08081 0.40023
 C821 C 0.71340 0.08643 0.38336
 C822 C 0.71538 0.10439 0.36141
 H823 H 0.72412 0.14067 0.32228
 H824 H 0.80688 0.12032 0.38015
 H825 H 0.77955 0.08929 0.40765
 H826 H 0.69723 0.10850 0.34883
 H827 H 0.80986 0.15319 0.34313
 H828 H 0.69379 0.07694 0.38724
 C829 C 0.27140 0.12945 0.67609
 C830 C 0.24750 0.14638 0.67749
 C831 C 0.22552 0.14245 0.65927
 C832 C 0.22758 0.12225 0.63972
 C833 C 0.25189 0.10565 0.63832
 C834 C 0.27357 0.10929 0.65673
 C835 C 0.25432 0.08599 0.61827
 C836 C 0.23282 0.08275 0.59940
 C837 C 0.20849 0.09902 0.60131
 C838 C 0.20588 0.11857 0.62130
 H839 H 0.20680 0.15504 0.66018
 H840 H 0.29236 0.09674 0.65595
 H841 H 0.27303 0.07334 0.61722
 H842 H 0.18710 0.13112 0.62204
 H843 H 0.28877 0.13196 0.68963
 H844 H 0.19179 0.09718 0.58681
   
