data_POSCAR
  _audit_creation_date              2014-09-24
  _audit_creation_method            'ToBaCCo'
  _symmetry_space_group_name_H-M    'P1'
  _symmetry_Int_Tables_number       1
  _symmetry_cell_setting            triclinic
  loop_
  _symmetry_equiv_pos_as_xyz
 x,y,z
_cell_length_a 20.9992
_cell_length_b 20.4771
_cell_length_c 39.5474
_cell_angle_alpha 98.759600
_cell_angle_beta 88.573400
_cell_angle_gamma 121.744100
loop_
  _atom_site_label
  _atom_site_type_symbol
  _atom_site_fract_x
  _atom_site_fract_y
  _atom_site_fract_z
C1 C 0.17907 0.11709 0.54274
 H2 H 0.22847 0.11373 0.53886
 C3 C 0.18512 0.18150 0.56347
 H4 H 0.23942 0.22691 0.57561
 C5 C 0.04844 0.06050 0.53177
 H6 H -0.00457 0.01300 0.51941
 C7 C 0.05187 0.12416 0.55284
 H8 H 0.00134 0.12572 0.55632
 N9 N 0.11212 0.05912 0.52675
 C10 C 0.19743 -0.09065 0.51851
 H11 H 0.22767 -0.07794 0.49554
 C12 C 0.20228 -0.13945 0.53812
 H13 H 0.23839 -0.16137 0.53058
 C14 C 0.10631 -0.08641 0.55376
 H15 H 0.06704 -0.06769 0.55899
 C16 C 0.10841 -0.13603 0.57358
 H17 H 0.07168 -0.15400 0.59445
 Zn18 Zn 0.12333 -0.01600 0.49771
 N19 N 0.14983 -0.06521 0.52664
 C20 C 0.27223 0.06746 0.47397
 N21 N 0.19836 0.04158 0.46829
 C22 C 0.17555 0.06700 0.44412
 C23 C 0.22749 0.12054 0.42464
 C24 C 0.32606 0.12007 0.45455
 C25 C -0.01559 -0.08721 0.45515
 C26 C -0.07458 -0.14964 0.43319
 C27 C -0.02601 -0.22948 0.44285
 C28 C 0.03115 -0.16621 0.46447
 N29 N 0.03575 -0.09669 0.47041
 H30 H 0.29032 0.05127 0.49480
 H31 H 0.11710 0.04814 0.44092
 H32 H 0.20830 0.14127 0.40604
 H33 H 0.38470 0.14157 0.46005
 H34 H -0.01028 -0.03110 0.45941
 H35 H -0.11447 -0.14038 0.42128
 H36 H -0.02597 -0.28278 0.43924
 H37 H 0.07309 -0.17276 0.47590
 C38 C 0.15610 -0.16389 0.56560
 C39 C 0.12138 0.18643 0.56827
 C40 C -0.08032 -0.22238 0.42644
 C41 C 0.30377 0.14803 0.42988
 C42 C 1.07046 0.11034 0.13452
 H43 H 1.06441 0.15951 0.14290
 C44 C 1.13400 0.12140 0.11811
 H45 H 1.17604 0.17900 0.11324
 C46 C 1.02471 -0.02371 0.13250
 H47 H 0.98355 -0.07928 0.13950
 C48 C 1.08675 -0.01561 0.11507
 H49 H 1.09249 -0.06543 0.10819
 N50 N 1.01847 0.03928 0.14218
 C51 C 0.82384 0.05188 0.17055
 H52 H 0.82644 0.05045 0.19769
 C53 C 0.75995 0.04217 0.15497
 H54 H 0.71438 0.03534 0.17057
 C55 C 0.87823 0.05707 0.11699
 H56 H 0.92302 0.05922 0.10213
 C57 C 0.81544 0.04837 0.10037
 H58 H 0.81276 0.04491 0.07279
 Zn59 Zn 0.94917 0.04106 0.17295
 N60 N 0.88014 0.05648 0.15133
 C61 C 1.00825 0.18893 0.21674
 N62 N 1.00912 0.12241 0.20900
 C63 C 1.06158 0.11433 0.22395
 C64 C 1.11728 0.17511 0.24715
 C65 C 1.06351 0.25179 0.23988
 C66 C 0.84319 -0.11845 0.16761
 C67 C 0.79076 -0.18700 0.17947
 C68 C 0.83799 -0.12089 0.23748
 C69 C 0.88942 -0.05366 0.22452
 N70 N 0.89090 -0.05350 0.19013
 H71 H 0.96685 0.19449 0.20391
 H72 H 1.06166 0.06123 0.21675
 H73 H 1.15950 0.16775 0.25802
 H74 H 1.06316 0.30498 0.24497
 H75 H 0.84413 -0.11610 0.14045
 H76 H 0.75263 -0.23722 0.16097
 H77 H 0.83691 -0.11934 0.26498
 H78 H 0.92594 -0.00087 0.24212
 C79 C 0.75407 0.03737 0.11927
 C80 C 1.14333 0.05828 0.10885
 C81 C 0.78703 -0.18846 0.21493
 C82 C 1.11994 0.24565 0.25485
 C83 C -0.00060 0.93668 0.87786
 H84 H -0.05519 0.88476 0.87854
 C85 C 0.06228 0.94567 0.89444
 H86 H 0.05563 0.90114 0.90843
 C87 C 0.07553 1.05543 0.85684
 H88 H 0.08106 1.09682 0.84122
 C89 C 0.13974 1.06602 0.87248
 H90 H 0.19367 1.11698 0.86957
 N91 N 0.00722 0.99101 0.85933
 C92 C -0.21127 0.95179 0.83455
 H93 H -0.20444 0.95350 0.80743
 C94 C -0.26851 0.95840 0.84965
 H95 H -0.30647 0.96251 0.83336
 C96 C -0.16718 0.94743 0.88819
 H97 H -0.12526 0.94709 0.90334
 C98 C -0.22610 0.95062 0.90428
 H99 H -0.22936 0.95156 0.93172
 Zn100 Zn -0.07408 0.96921 0.83031
 N101 N -0.16020 0.94982 0.85400
 C102 C -0.16075 0.81501 0.79278
 N103 N -0.09345 0.88354 0.79701
 C104 C -0.03386 0.89153 0.77954
 C105 C -0.04004 0.82867 0.75713
 C106 C -0.16948 0.75038 0.77052
 C107 C -0.03503 1.12119 0.83109
 C108 C -0.02259 1.18641 0.81828
 C109 C -0.03684 1.11787 0.76086
 C110 C -0.04900 1.05370 0.77484
 N111 N -0.04783 1.05666 0.80943
 H112 H -0.20696 0.80980 0.80740
 H113 H 0.01926 0.94652 0.78378
 H114 H 0.00863 0.83607 0.74397
 H115 H -0.22306 0.69609 0.76814
 H116 H -0.03610 1.12119 0.85846
 H117 H -0.01377 1.23623 0.83626
 H118 H -0.03847 1.11447 0.73327
 H119 H -0.06122 1.00108 0.75804
 C120 C -0.27512 0.96081 0.88526
 C121 C 0.13369 1.00987 0.89094
 C122 C -0.02371 1.18527 0.78267
 C123 C -0.10812 0.75656 0.75271
 C124 C 0.56453 -0.01466 -0.02973
 C125 C 0.59973 -0.00682 0.00163
 C126 C 0.56896 0.00034 0.03290
 C127 C 0.50502 0.00720 0.03302
 C128 C 0.46658 -0.00518 0.00155
 C129 C 0.49369 -0.02124 -0.02977
 C130 C 0.44837 -0.04473 -0.06017
 C131 C 0.38456 -0.04031 -0.06051
 C132 C 0.36257 -0.01396 -0.03033
 C133 C 0.40126 -0.00064 0.00127
 C134 C 0.47910 0.02741 0.06363
 C135 C 0.41527 0.03201 0.06339
 C136 C 0.37594 0.01917 0.03244
 C137 C 0.31195 0.02547 0.03166
 C138 C 0.27525 0.01325 0.00021
 C139 C 0.30186 -0.00236 -0.03079
 H140 H 0.46126 -0.06756 -0.08402
 H141 H 0.35216 -0.05847 -0.08466
 H142 H 0.50879 0.04186 0.08818
 H143 H 0.39726 0.04590 0.08783
 H144 H 0.65153 -0.00648 0.00171
 H145 H 0.22913 0.02281 -0.00019
 C146 C 0.06137 0.35676 0.64362
 C147 C 0.03469 0.32116 0.67264
 C148 C 0.00412 0.34916 0.69848
 C149 C -0.00794 0.40899 0.69330
 C150 C 0.02151 0.44762 0.66473
 C151 C 0.05664 0.42178 0.63986
 C152 C 0.08478 0.46088 0.61163
 C153 C 0.08496 0.52823 0.60966
 C154 C 0.05473 0.55771 0.63524
 C155 C 0.01734 0.51345 0.66144
 C156 C -0.04886 0.43101 0.71572
 C157 C -0.05650 0.49287 0.71144
 C158 C -0.02325 0.53544 0.68460
 C159 C -0.02802 0.60038 0.68061
 C160 C 0.01550 0.64788 0.65689
 C161 C 0.05897 0.62904 0.63495
 H162 H 0.10755 0.44029 0.59085
 H163 H 0.10725 0.55571 0.58734
 H164 H -0.07654 0.39977 0.73653
 H165 H -0.08678 0.50833 0.73013
 H166 H 0.04352 0.27504 0.67641
 H167 H 0.01564 0.70048 0.65558
 C168 C 0.35874 0.39641 0.32263
 C169 C 0.35328 0.34713 0.34506
 C170 C 0.41627 0.36287 0.36436
 C171 C 0.48558 0.43312 0.36303
 C172 C 0.49367 0.47881 0.33782
 C173 C 0.43030 0.45979 0.31709
 C174 C 0.44075 0.50340 0.29093
 C175 C 0.51211 0.56322 0.28489
 C176 C 0.57578 0.58237 0.30496
 C177 C 0.56569 0.54277 0.33294
 C178 C 0.54657 0.45986 0.38658
 C179 C 0.61595 0.52560 0.38327
 C180 C 0.62772 0.56565 0.35559
 C181 C 0.69952 0.62862 0.35025
 C182 C 0.70923 0.66534 0.32186
 C183 C 0.64925 0.64039 0.29812
 H184 H 0.39434 0.49021 0.27407
 H185 H 0.51660 0.59521 0.26466
 H186 H 0.54081 0.43135 0.40834
 H187 H 0.66039 0.54402 0.40250
 H188 H 0.29928 0.29526 0.34719
 H189 H 0.76545 0.71003 0.31684
 C190 C 0.12834 0.25687 0.58880
 C191 C 0.19357 0.32966 0.59353
 C192 C 0.17651 0.37707 0.61413
 C193 C 0.10202 0.33020 0.62019
 O194 O 0.07264 0.25703 0.60516
 H195 H 0.24730 0.34648 0.58318
 H196 H 0.21397 0.43830 0.62399
 C197 C 0.72973 0.74169 0.22897
 C198 C 0.67797 0.67068 0.20987
 C199 C 0.63858 0.62381 0.23322
 C200 C 0.66796 0.66969 0.26493
 O201 O 0.72399 0.74073 0.26235
 H202 H 0.67069 0.65370 0.18232
 H203 H 0.59574 0.56249 0.22772
 C204 C 0.20156 0.01665 -0.09465
 C205 C 0.27150 0.05548 -0.10752
 C206 C 0.31769 0.04962 -0.08637
 C207 C 0.27259 0.00676 -0.06232
 O208 O 0.20213 -0.01271 -0.06715
 H209 H 0.28737 0.08556 -0.12939
 H210 H 0.37782 0.07665 -0.08739
 C211 C 0.15283 0.77770 0.58456
 C212 C 0.20980 0.76398 0.58803
 C213 C 0.18246 0.70592 0.60729
 C214 C 0.11010 0.68709 0.61346
 O215 O 0.09279 0.73181 0.60028
 H216 H 0.26518 0.79387 0.57846
 H217 H 0.21232 0.68136 0.61631
 C218 C 0.18445 0.31226 0.27668
 C219 C 0.19768 0.38660 0.28536
 C220 C 0.26535 0.42885 0.30377
 C221 C 0.28867 0.37750 0.30470
 O222 O 0.23944 0.30685 0.28876
 H223 H 0.16303 0.40811 0.27893
 H224 H 0.29431 0.48972 0.31516
 C225 C 0.67366 -0.02222 -0.09849
 C226 C 0.64400 0.01497 -0.11239
 C227 C 0.60187 0.02493 -0.08813
 C228 C 0.60516 -0.01007 -0.06159
 O229 O 0.65119 -0.03613 -0.06724
 H230 H 0.65494 0.03676 -0.13647
 H231 H 0.57279 0.05520 -0.08959
 C232 C 0.21311 0.07042 0.09400
 C233 C 0.28333 0.13580 0.10353
 C234 C 0.33091 0.12522 0.08276
 C235 C 0.28630 0.05398 0.06227
 O236 O 0.21464 0.02089 0.06883
 H237 H 0.29778 0.18583 0.12284
 H238 H 0.39036 0.16609 0.08151
 C239 C 0.86394 0.71708 0.40477
 C240 C 0.85393 0.64369 0.39582
 C241 C 0.79152 0.60163 0.37406
 C242 C 0.76710 0.65119 0.37135
 O243 O 0.81103 0.72136 0.38941
 H244 H 0.88718 0.62187 0.40373
 H245 H 0.76624 0.54166 0.36176
 C246 C -0.01222 0.25307 0.76811
 C247 C 0.01094 0.32556 0.78679
 C248 C 0.01717 0.37040 0.76333
 C249 C -0.00395 0.32208 0.73198
 O250 O -0.02042 0.25127 0.73480
 H251 H 0.02471 0.34505 0.81405
 H252 H 0.03818 0.43208 0.76841
 C253 C 0.68198 0.01374 0.10167
 C254 C 0.61283 -0.03439 0.11363
 C255 C 0.56161 -0.04610 0.08939
 C256 C 0.60284 -0.00285 0.06466
 O257 O 0.67612 0.03188 0.07158
 H258 H 0.60100 -0.06031 0.13666
 H259 H 0.50119 -0.08271 0.08948
 C260 C 0.35929 0.20864 0.41089
 C261 C 0.42951 0.22179 0.40418
 C262 C 0.46084 0.28180 0.38599
 C263 C 0.40821 0.30228 0.38361
 O264 O 0.34594 0.25671 0.39807
 H265 H 0.45420 0.19016 0.41087
 H266 H 0.51500 0.30652 0.37512
 C267 C -0.11225 0.68865 0.73083
 C268 C -0.17540 0.61453 0.72358
 C269 C -0.15232 0.57102 0.70389
 C270 C -0.07680 0.62135 0.70082
 O271 O -0.05268 0.69277 0.71666
 H272 H -0.23160 0.59403 0.73153
 H273 H -0.18640 0.50999 0.69292
   
