data_POSCAR
  _audit_creation_date              2014-09-24
  _audit_creation_method            'ToBaCCo'
  _symmetry_space_group_name_H-M    'P1'
  _symmetry_Int_Tables_number       1
  _symmetry_cell_setting            triclinic
  loop_
  _symmetry_equiv_pos_as_xyz
 x,y,z
_cell_length_a 52.6504
_cell_length_b 50.3175
_cell_length_c 50.7174
_cell_angle_alpha 90.312200
_cell_angle_beta 89.607000
_cell_angle_gamma 90.324100
loop_
  _atom_site_label
  _atom_site_type_symbol
  _atom_site_fract_x
  _atom_site_fract_y
  _atom_site_fract_z
N1 N 0.59203 0.66644 0.61262
 N2 N 0.58199 0.65508 0.63353
 C3 C 0.56130 0.66883 0.64115
 C4 C 0.55807 0.68976 0.62393
 C5 C 0.57790 0.68758 0.60601
 H6 H 0.54933 0.66390 0.65784
 H7 H 0.58206 0.70074 0.58975
 Cu8 Cu 0.59677 0.62343 0.64887
 Cu9 Cu 0.62313 0.65357 0.59619
 Cu10 Cu 0.65151 0.59876 0.62448
 N11 N 0.61330 0.59300 0.66468
 N12 N 0.63506 0.58397 0.65567
 C13 C 0.64257 0.56360 0.67081
 C14 C 0.62436 0.55934 0.69034
 C15 C 0.60604 0.57849 0.68565
 H16 H 0.65975 0.55244 0.66736
 H17 H 0.58893 0.58207 0.69694
 N18 N 0.66521 0.61649 0.59281
 N19 N 0.65464 0.63767 0.58238
 C20 C 0.66864 0.64554 0.56150
 C21 C 0.68886 0.62836 0.55845
 C22 C 0.68605 0.61013 0.57859
 H23 H 0.66429 0.66232 0.54914
 H24 H 0.69852 0.59372 0.58278
 H25 H 0.61928 0.61431 0.60761
 H26 H 0.63761 0.63674 0.63007
 N27 N 0.90394 0.32919 0.11549
 N28 N 0.90976 0.33716 0.13939
 C29 C 0.92977 0.32323 0.14798
 C30 C 0.93718 0.30554 0.12825
 C31 C 0.92023 0.31009 0.10787
 H32 H 0.93845 0.32622 0.16701
 H33 H 0.91927 0.29989 0.08910
 Cu34 Cu 0.89100 0.36531 0.15697
 Cu35 Cu 0.87488 0.34330 0.09668
 Cu36 Cu 0.84568 0.39845 0.12421
 N37 N 0.87826 0.39929 0.16939
 N38 N 0.86007 0.41185 0.15704
 C39 C 0.85460 0.43439 0.17028
 C40 C 0.87045 0.43619 0.19190
 C41 C 0.88525 0.41358 0.19066
 H42 H 0.84056 0.44872 0.16431
 H43 H 0.89986 0.40782 0.20434
 N44 N 0.83419 0.38166 0.09110
 N45 N 0.84513 0.36042 0.08084
 C46 C 0.83242 0.35298 0.05904
 C47 C 0.81266 0.37050 0.05525
 C48 C 0.81441 0.38850 0.07589
 H49 H 0.83717 0.33604 0.04681
 H50 H 0.80174 0.40488 0.07993
 H51 H 0.87947 0.38066 0.11341
 H52 H 0.85448 0.35868 0.12832
 N53 N 0.40462 0.16978 -0.10996
 N54 N 0.41458 0.15877 -0.13117
 C55 C 0.43581 0.17222 -0.13796
 C56 C 0.43947 0.19255 -0.11988
 C57 C 0.41932 0.19036 -0.10235
 H58 H 0.44796 0.16737 -0.15455
 H59 H 0.41544 0.20306 -0.08555
 Cu60 Cu 0.39916 0.12757 -0.14744
 Cu61 Cu 0.37304 0.15704 -0.09414
 Cu62 Cu 0.34446 0.10232 -0.12360
 N63 N 0.38272 0.09705 -0.16392
 N64 N 0.36113 0.08757 -0.15471
 C65 C 0.35365 0.06697 -0.16984
 C66 C 0.37159 0.06316 -0.18955
 C67 C 0.38982 0.08260 -0.18515
 H68 H 0.33659 0.05537 -0.16652
 H69 H 0.40676 0.08617 -0.19679
 N70 N 0.33049 0.12002 -0.09201
 N71 N 0.34105 0.14119 -0.08110
 C72 C 0.32672 0.14897 -0.06037
 C73 C 0.30632 0.13169 -0.05797
 C74 C 0.30935 0.11357 -0.07833
 H75 H 0.33099 0.16569 -0.04766
 H76 H 0.29684 0.09714 -0.08300
 H77 H 0.37671 0.11802 -0.10630
 H78 H 0.35847 0.14052 -0.12826
 N79 N 0.09580 0.83026 0.38905
 N80 N 0.08662 0.84031 0.36728
 C81 C 0.06590 0.82626 0.36015
 C82 C 0.06157 0.80648 0.37871
 C83 C 0.08103 0.80982 0.39681
 H84 H 0.05449 0.83062 0.34311
 H85 H 0.08468 0.79795 0.41404
 Cu86 Cu 0.10213 0.87150 0.35115
 Cu87 Cu 0.12685 0.84366 0.40521
 Cu88 Cu 0.15557 0.89826 0.37578
 N89 N 0.11823 0.90231 0.33492
 N90 N 0.13936 0.91237 0.34449
 C91 C 0.14666 0.93320 0.32969
 C92 C 0.12907 0.93657 0.30987
 C93 C 0.11123 0.91662 0.31382
 H94 H 0.16329 0.94532 0.33339
 H95 H 0.09458 0.91272 0.30204
 N96 N 0.16906 0.88113 0.40755
 N97 N 0.15839 0.86007 0.41850
 C98 C 0.17246 0.85259 0.43924
 C99 C 0.19281 0.86992 0.44160
 C100 C 0.19001 0.88779 0.42123
 H101 H 0.16813 0.83593 0.45189
 H102 H 0.20262 0.90412 0.41645
 H103 H 0.12308 0.88237 0.39261
 H104 H 0.14238 0.85971 0.37130
 C105 C 0.11004 0.14763 0.11455
 C106 C 0.13204 0.13750 0.10254
 C107 C 0.14363 0.11528 0.11282
 C108 C 0.13357 0.10306 0.13538
 C109 C 0.11191 0.11308 0.14730
 C110 C 0.10013 0.13561 0.13689
 C111 C 0.09472 0.16888 0.10884
 N112 N 0.07595 0.17016 0.12729
 C113 C 0.07914 0.14995 0.14457
 C114 C 0.10656 0.09731 0.16876
 N115 N 0.12456 0.07814 0.17022
 C116 C 0.14117 0.08155 0.14989
 C117 C 0.16455 0.10993 0.09734
 N118 N 0.16606 0.12849 0.07804
 C119 C 0.14627 0.14548 0.08109
 H120 H 0.09724 0.18263 0.09267
 H121 H 0.06692 0.14583 0.16133
 H122 H 0.09098 0.09988 0.18256
 H123 H 0.15749 0.06915 0.14582
 H124 H 0.17798 0.09400 0.10020
 H125 H 0.14245 0.16231 0.06854
 C126 C 0.38909 0.85356 0.61104
 C127 C 0.36724 0.86394 0.59935
 C128 C 0.35595 0.88642 0.60986
 C129 C 0.36616 0.89865 0.63233
 C130 C 0.38767 0.88839 0.64391
 C131 C 0.39915 0.86562 0.63325
 C132 C 0.40401 0.83191 0.60518
 N133 N 0.42272 0.83046 0.62342
 C134 C 0.41986 0.85096 0.64070
 C135 C 0.39312 0.90408 0.66548
 N136 N 0.37531 0.92346 0.66736
 C137 C 0.35875 0.92026 0.64715
 C138 C 0.33505 0.89189 0.59475
 N139 N 0.33326 0.87316 0.57546
 C140 C 0.35285 0.85594 0.57815
 H141 H 0.40120 0.81798 0.58911
 H142 H 0.43206 0.85502 0.65735
 H143 H 0.40857 0.90125 0.67914
 H144 H 0.34253 0.93279 0.64344
 H145 H 0.32179 0.90799 0.59789
 H146 H 0.35641 0.83891 0.56554
 C147 C 0.88430 0.65099 0.38664
 C148 C 0.86184 0.64027 0.39723
 C149 C 0.85055 0.61836 0.38548
 C150 C 0.86147 0.60702 0.36278
 C151 C 0.88362 0.61765 0.35230
 C152 C 0.89501 0.63989 0.36419
 C153 C 0.89970 0.67179 0.39430
 N154 N 0.91929 0.67371 0.37686
 C155 C 0.91657 0.65436 0.35833
 C156 C 0.89032 0.60223 0.33091
 N157 N 0.87268 0.58265 0.32802
 C158 C 0.85489 0.58549 0.34735
 C159 C 0.82928 0.61210 0.40020
 N160 N 0.82731 0.62987 0.42037
 C161 C 0.84714 0.64717 0.41869
 H162 H 0.89684 0.68468 0.41122
 H163 H 0.92957 0.65083 0.34207
 H164 H 0.90682 0.60503 0.31836
 H165 H 0.83872 0.57244 0.35035
 H166 H 0.81602 0.59606 0.39631
 H167 H 0.85074 0.66343 0.43225
 C168 C 0.61821 0.34843 -0.11451
 C169 C 0.64108 0.35891 -0.10485
 C170 C 0.65196 0.38106 -0.11652
 C171 C 0.64020 0.39288 -0.13824
 C172 C 0.61760 0.38253 -0.14771
 C173 C 0.60663 0.36009 -0.13588
 C174 C 0.60313 0.32741 -0.10676
 N175 N 0.58283 0.32592 -0.12309
 C176 C 0.58483 0.34581 -0.14099
 C177 C 0.61015 0.39828 -0.16830
 N178 N 0.62779 0.41777 -0.17172
 C179 C 0.64630 0.41459 -0.15350
 C180 C 0.67365 0.38714 -0.10265
 N181 N 0.67626 0.36906 -0.08306
 C182 C 0.65645 0.35170 -0.08431
 H183 H 0.60678 0.31402 -0.09060
 H184 H 0.57122 0.34983 -0.15635
 H185 H 0.59320 0.39571 -0.18003
 H186 H 0.66271 0.42745 -0.15121
 H187 H 0.68666 0.40339 -0.10661
 H188 H 0.65323 0.33531 -0.07093
 C189 C -0.00319 0.24887 0.13058
 C190 C -0.01556 0.25444 0.10660
 C191 C -0.03543 0.27294 0.10601
 C192 C -0.04283 0.28697 0.12890
 C193 C -0.02970 0.28201 0.15244
 C194 C -0.01035 0.26319 0.15333
 C195 C 0.01732 0.22831 0.13054
 C196 C 0.02919 0.21955 0.15375
 C197 C 0.04823 0.20035 0.15261
 C198 C 0.05612 0.18966 0.12837
 C199 C 0.04429 0.19801 0.10519
 C200 C 0.02471 0.21682 0.10614
 C201 C -0.00779 0.24184 0.08322
 C202 C 0.01220 0.22379 0.08292
 H203 H -0.01709 0.24626 0.06477
 H204 H 0.01769 0.21484 0.06426
 H205 H -0.04461 0.27672 0.08738
 H206 H -0.03455 0.29224 0.17057
 H207 H 0.05712 0.19409 0.17071
 H208 H 0.04998 0.18933 0.08647
 H209 H -0.00110 0.26035 0.17201
 H210 H 0.02390 0.22703 0.17296
 C211 C 0.49987 0.74964 0.62660
 C212 C 0.51129 0.74230 0.60230
 C213 C 0.53047 0.72302 0.60162
 C214 C 0.53802 0.71023 0.62476
 C215 C 0.52619 0.71697 0.64870
 C216 C 0.50746 0.73649 0.64969
 C217 C 0.47991 0.77080 0.62656
 C218 C 0.46874 0.78092 0.64985
 C219 C 0.45016 0.80057 0.64873
 C220 C 0.44208 0.81044 0.62443
 C221 C 0.45320 0.80070 0.60115
 C222 C 0.47226 0.78132 0.60204
 C223 C 0.50326 0.75394 0.57878
 C224 C 0.48392 0.77275 0.57862
 H225 H 0.51186 0.74820 0.56014
 H226 H 0.47820 0.78094 0.55986
 H227 H 0.53915 0.71756 0.58293
 H228 H 0.53168 0.70741 0.66685
 H229 H 0.44178 0.80782 0.66693
 H230 H 0.44737 0.80869 0.58234
 H231 H 0.49906 0.74079 0.66868
 H232 H 0.47418 0.77413 0.66912
 C233 C 1.00172 0.74937 0.38054
 C234 C 1.00672 0.76410 0.35740
 C235 C 1.02620 0.78330 0.35706
 C236 C 1.04183 0.78738 0.37917
 C237 C 1.03739 0.77176 0.40169
 C238 C 1.01757 0.75324 0.40247
 C239 C 0.98013 0.72981 0.38041
 C240 C 0.97179 0.71637 0.40324
 C241 C 0.95166 0.69823 0.40203
 C242 C 0.93966 0.69275 0.37805
 C243 C 0.94753 0.70621 0.35529
 C244 C 0.96724 0.72511 0.35641
 C245 C 0.99264 0.75916 0.33452
 C246 C 0.97370 0.73969 0.33388
 H247 H 0.99663 0.77021 0.31666
 H248 H 0.96366 0.73632 0.31557
 H249 H 1.02954 0.79437 0.33912
 H250 H 1.04883 0.77406 0.41919
 H251 H 0.94566 0.68808 0.41981
 H252 H 0.93782 0.70241 0.33686
 H253 H 1.01518 0.74193 0.42033
 H254 H 0.98031 0.71983 0.42224
 C255 C 0.50070 0.24974 -0.11825
 C256 C 0.49246 0.23865 -0.14247
 C257 C 0.47273 0.21977 -0.14280
 C258 C 0.46040 0.21227 -0.11937
 C259 C 0.46805 0.22385 -0.09550
 C260 C 0.48801 0.24224 -0.09486
 C261 C 0.52227 0.26934 -0.11870
 C262 C 0.53321 0.27997 -0.09561
 C263 C 0.55318 0.29829 -0.09713
 C264 C 0.56257 0.30669 -0.12163
 C265 C 0.55205 0.29603 -0.14473
 C266 C 0.53232 0.27719 -0.14345
 C267 C 0.50367 0.24677 -0.16624
 C268 C 0.52290 0.26592 -0.16675
 H269 H 0.49724 0.23844 -0.18480
 H270 H 0.53072 0.27176 -0.18568
 H271 H 0.46659 0.21134 -0.16142
 H272 H 0.45882 0.21841 -0.07715
 H273 H 0.56107 0.30629 -0.07907
 H274 H 0.55964 0.30206 -0.16371
 H275 H 0.49303 0.25047 -0.07591
 H276 H 0.52677 0.27428 -0.07620
 C277 C 0.12989 -0.00291 0.24999
 C278 C 0.10668 -0.01469 0.25817
 C279 C 0.10657 -0.03470 0.27739
 C280 C 0.12926 -0.04279 0.28919
 C281 C 0.15216 -0.03074 0.28141
 C282 C 0.15255 -0.01117 0.26202
 C283 C 0.12923 0.01810 0.22914
 C284 C 0.15136 0.02996 0.21857
 C285 C 0.14972 0.04950 0.19925
 C286 C 0.12606 0.05790 0.19008
 C287 C 0.10391 0.04615 0.20033
 C288 C 0.10532 0.02616 0.21948
 C289 C 0.08369 -0.00618 0.24744
 C290 C 0.08301 0.01400 0.22873
 H291 H 0.06590 -0.01507 0.25380
 H292 H 0.06471 0.02004 0.22123
 H293 H 0.08870 -0.04354 0.28359
 H294 H 0.16996 -0.03666 0.29012
 H295 H 0.16705 0.05838 0.19168
 H296 H 0.08557 0.05221 0.19295
 H297 H 0.17076 -0.00266 0.25694
 H298 H 0.17011 0.02437 0.22480
 C299 C 0.62363 0.50038 -0.24982
 C300 C 0.64590 0.50513 -0.26485
 C301 C 0.64595 0.52436 -0.28486
 C302 C 0.62431 0.53991 -0.28966
 C303 C 0.60259 0.53570 -0.27385
 C304 C 0.60218 0.51620 -0.25441
 C305 C 0.62404 0.47900 -0.22935
 C306 C 0.60219 0.47099 -0.21519
 C307 C 0.60353 0.45089 -0.19642
 C308 C 0.62666 0.43850 -0.19103
 C309 C 0.64851 0.44618 -0.20505
 C310 C 0.64726 0.46590 -0.22450
 C311 C 0.66812 0.49098 -0.25954
 C312 C 0.66891 0.47214 -0.23948
 H313 H 0.68530 0.49477 -0.27084
 H314 H 0.68665 0.46198 -0.23596
 H315 H 0.66322 0.52751 -0.29614
 H316 H 0.58545 0.54704 -0.27664
 H317 H 0.58647 0.44515 -0.18581
 H318 H 0.66631 0.43620 -0.20129
 H319 H 0.58491 0.51403 -0.24304
 H320 H 0.58384 0.47970 -0.21854
 C321 C 0.37040 1.00352 0.74908
 C322 C 0.39371 1.01471 0.75754
 C323 C 0.39395 1.03438 0.77730
 C324 C 0.37127 1.04274 0.78933
 C325 C 0.34825 1.03127 0.78127
 C326 C 0.34775 1.01202 0.76137
 C327 C 0.37094 0.98285 0.72766
 C328 C 0.34874 0.97156 0.71684
 C329 C 0.35028 0.95227 0.69702
 C330 C 0.37391 0.94358 0.68758
 C331 C 0.39612 0.95481 0.69804
 C332 C 0.39482 0.97452 0.71772
 C333 C 0.41667 1.00595 0.74652
 C334 C 0.41723 0.98610 0.72724
 H335 H 0.43454 1.01440 0.75308
 H336 H 0.43550 0.97985 0.71953
 H337 H 0.41190 1.04276 0.78369
 H338 H 0.33045 1.03741 0.79015
 H339 H 0.33289 0.94379 0.68931
 H340 H 0.41444 0.94853 0.69048
 H341 H 0.32945 1.00395 0.75609
 H342 H 0.33002 0.97739 0.72326
 C343 C 0.87412 0.49874 0.25015
 C344 C 0.85089 0.49262 0.23753
 C345 C 0.84992 0.47253 0.21820
 C346 C 0.87162 0.45770 0.21185
 C347 C 0.89441 0.46327 0.22492
 C348 C 0.89575 0.48359 0.24371
 C349 C 0.87450 0.52074 0.27022
 C350 C 0.89699 0.52981 0.28231
 C351 C 0.89631 0.55023 0.30103
 C352 C 0.87323 0.56195 0.30839
 C353 C 0.85076 0.55331 0.29631
 C354 C 0.85128 0.53318 0.27701
 C355 C 0.82870 0.50620 0.24462
 C356 C 0.82881 0.52574 0.26423
 H357 H 0.81086 0.50138 0.23512
 H358 H 0.81106 0.53541 0.26924
 H359 H 0.83208 0.46798 0.20857
 H360 H 0.91142 0.45210 0.22037
 H361 H 0.91386 0.55664 0.31014
 H362 H 0.83295 0.56272 0.30157
 H363 H 0.91380 0.48689 0.25312
 H364 H 0.91532 0.52159 0.27746
 C365 C 0.24613 0.13349 0.00004
 C366 C 0.25375 0.10915 -0.01159
 C367 C 0.27315 0.10879 -0.03071
 C368 C 0.28576 0.13229 -0.03796
 C369 C 0.27871 0.15629 -0.02589
 C370 C 0.25908 0.15697 -0.00723
 C371 C 0.22495 0.13305 0.01998
 C372 C 0.21467 0.15630 0.03132
 C373 C 0.19516 0.15476 0.05006
 C374 C 0.18557 0.13005 0.05813
 C375 C 0.19536 0.10682 0.04668
 C376 C 0.21464 0.10813 0.02748
 C377 C 0.24229 0.08524 -0.00380
 C378 C 0.22341 0.08471 0.01559
 H379 H 0.24824 0.06658 -0.01258
 H380 H 0.21538 0.06566 0.02118
 H381 H 0.27883 0.09005 -0.03952
 H382 H 0.28815 0.17470 -0.03114
 H383 H 0.18784 0.17292 0.05867
 H384 H 0.18762 0.08770 0.05247
 H385 H 0.25451 0.17600 0.00139
 H386 H 0.22132 0.17585 0.02594
 C387 C 0.74781 0.63182 0.49915
 C388 C 0.74040 0.60714 0.51017
 C389 C 0.72146 0.60619 0.52980
 C390 C 0.70910 0.62944 0.53811
 C391 C 0.71598 0.65374 0.52665
 C392 C 0.73514 0.65500 0.50754
 C393 C 0.76855 0.63206 0.47872
 C394 C 0.77863 0.65571 0.46802
 C395 C 0.79792 0.65487 0.44903
 C396 C 0.80749 0.63052 0.44001
 C397 C 0.79775 0.60686 0.45062
 C398 C 0.77870 0.60746 0.47015
 C399 C 0.75163 0.58355 0.50125
 C400 C 0.77010 0.58367 0.48141
 H401 H 0.74584 0.56463 0.50953
 H402 H 0.77799 0.56484 0.47500
 H403 H 0.71591 0.58723 0.53817
 H404 H 0.70675 0.67197 0.53273
 H405 H 0.80519 0.67335 0.44107
 H406 H 0.80547 0.58800 0.44407
 H407 H 0.73955 0.67427 0.49946
 H408 H 0.77208 0.67504 0.47418
 C409 C 0.75560 0.36723 -0.00527
 C410 C 0.76259 0.39186 0.00630
 C411 C 0.78105 0.39278 0.02617
 C412 C 0.79329 0.36954 0.03426
 C413 C 0.78692 0.34530 0.02218
 C414 C 0.76828 0.34408 0.00277
 C415 C 0.73517 0.36698 -0.02574
 C416 C 0.72543 0.34334 -0.03688
 C417 C 0.70618 0.34414 -0.05564
 C418 C 0.69634 0.36847 -0.06400
 C419 C 0.70587 0.39213 -0.05309
 C420 C 0.72485 0.39155 -0.03376
 C421 C 0.75133 0.41544 -0.00221
 C422 C 0.73313 0.41532 -0.02206
 H423 H 0.75682 0.43433 0.00646
 H424 H 0.72513 0.43412 -0.02807
 H425 H 0.78621 0.41169 0.03501
 H426 H 0.79606 0.32707 0.02806
 H427 H 0.69908 0.32566 -0.06386
 H428 H 0.69794 0.41096 -0.05911
 H429 H 0.76421 0.32486 -0.00574
 H430 H 0.73214 0.32401 -0.03118
 C431 C 0.25291 0.86820 0.49885
 C432 C 0.24545 0.89251 0.48738
 C433 C 0.22605 0.89285 0.46853
 C434 C 0.21330 0.86937 0.46140
 C435 C 0.22018 0.84543 0.47333
 C436 C 0.23979 0.84477 0.49172
 C437 C 0.27412 0.86864 0.51845
 C438 C 0.28423 0.84539 0.52958
 C439 C 0.30381 0.84693 0.54797
 C440 C 0.31363 0.87162 0.55592
 C441 C 0.30399 0.89484 0.54470
 C442 C 0.28464 0.89353 0.52583
 C443 C 0.25711 0.91639 0.49505
 C444 C 0.27602 0.91693 0.51414
 H445 H 0.25129 0.93502 0.48641
 H446 H 0.28422 0.93596 0.51963
 H447 H 0.22052 0.91155 0.45983
 H448 H 0.21063 0.82704 0.46816
 H449 H 0.31100 0.82877 0.55642
 H450 H 0.31191 0.91394 0.55039
 H451 H 0.24422 0.82577 0.50022
 H452 H 0.27741 0.82585 0.52427
   
