data_POSCAR
  _audit_creation_date              2014-09-24
  _audit_creation_method            'ToBaCCo'
  _symmetry_space_group_name_H-M    'P1'
  _symmetry_Int_Tables_number       1
  _symmetry_cell_setting            triclinic
  loop_
  _symmetry_equiv_pos_as_xyz
 x,y,z
_cell_length_a 20.2268
_cell_length_b 18.9222
_cell_length_c 18.5452
_cell_angle_alpha 73.032300
_cell_angle_beta 75.565900
_cell_angle_gamma 83.138100
loop_
  _atom_site_label
  _atom_site_type_symbol
  _atom_site_fract_x
  _atom_site_fract_y
  _atom_site_fract_z
O1 O 0.57860 0.50336 0.05422
 O2 O 0.40813 0.44401 0.06287
 O3 O 0.53207 0.39114 0.03280
 O4 O 0.45164 0.55763 0.08791
 O5 O 0.46323 0.61808 -0.03572
 O6 O 0.54004 0.45009 -0.09074
 O7 O 0.41354 0.50849 -0.05845
 O8 O 0.58629 0.56317 -0.06894
 Cu9 Cu 0.49161 0.46839 0.07193
 Cu10 Cu 0.50159 0.54057 -0.07603
 C11 C 0.61175 0.54301 -0.00950
 C12 C 0.38133 0.46665 0.00440
 C13 C 0.54960 0.39218 -0.03799
 C14 C 0.44424 0.61634 0.03526
 O15 O -0.08445 0.56180 0.56009
 O16 O 0.00125 0.38847 0.52195
 O17 O 0.00788 0.46921 0.61464
 O18 O -0.09162 0.48140 0.46856
 O19 O -0.01160 0.54574 0.37708
 O20 O 0.08768 0.53399 0.52327
 O21 O 0.08116 0.45380 0.43130
 O22 O -0.00493 0.62711 0.46894
 Cu23 Cu -0.04968 0.46880 0.55037
 Cu24 Cu 0.04602 0.54660 0.44112
 C25 C -0.05882 0.62373 0.52230
 C26 C 0.05532 0.39198 0.46884
 C27 C 0.06413 0.50099 0.59395
 C28 C -0.06792 0.51409 0.39785
 O29 O 0.43855 0.07480 0.57040
 O30 O 0.52741 0.05156 0.38008
 O31 O 0.40453 0.03324 0.46633
 O32 O 0.56340 0.09303 0.48723
 O33 O 0.59453 -0.02468 0.53217
 O34 O 0.43090 -0.08229 0.52605
 O35 O 0.55293 -0.06616 0.43277
 O36 O 0.47484 -0.03872 0.62425
 Cu37 Cu 0.48099 0.07514 0.46993
 Cu38 Cu 0.51614 -0.06500 0.53419
 C39 C 0.44194 0.02167 0.62997
 C40 C 0.55480 -0.01094 0.37390
 C41 C 0.38933 -0.03381 0.49623
 C42 C 0.60670 0.04328 0.51165
 C43 C 0.40574 -0.01656 -0.10055
 C44 C 0.38788 -0.08809 -0.05714
 C45 C 0.41128 -0.12284 0.01005
 C46 C 0.45530 -0.08589 0.03392
 C47 C 0.47510 -0.01383 -0.01068
 C48 C 0.44964 0.02132 -0.07765
 C49 C 0.47117 0.09214 -0.12179
 C50 C 0.51541 0.12824 -0.09993
 C51 C 0.54229 0.09415 -0.03451
 C52 C 0.52237 0.02215 0.01018
 C53 C 0.48258 -0.12020 0.09906
 C54 C 0.52682 -0.08402 0.12098
 C55 C 0.54773 -0.01290 0.07721
 C56 C 0.59105 0.02530 0.10047
 C57 C 0.60898 0.09684 0.05701
 C58 C 0.58608 0.13129 -0.01057
 H59 H 0.45425 0.12114 -0.17393
 H60 H 0.52796 0.18332 -0.13545
 H61 H 0.47029 -0.17546 0.13428
 H62 H 0.54441 -0.11305 0.17275
 H63 H 0.35765 -0.11839 -0.07779
 H64 H 0.63882 0.12735 0.07788
 C65 C 0.10460 0.49625 0.84554
 C66 C 0.16142 0.47882 0.87972
 C67 C 0.15509 0.47084 0.95858
 C68 C 0.08980 0.48380 1.00505
 C69 C 0.03149 0.50137 0.97221
 C70 C 0.03881 0.50759 0.89230
 C71 C -0.01983 0.52674 0.86143
 C72 C -0.08397 0.53613 0.90774
 C73 C -0.09257 0.53134 0.98652
 C74 C -0.03428 0.51373 1.01935
 C75 C 0.08133 0.48112 1.08333
 C76 C 0.01723 0.49016 1.12973
 C77 C -0.04161 0.50765 1.09926
 C78 C -0.10752 0.51791 1.14628
 C79 C -0.16443 0.53413 1.11238
 C80 C -0.15800 0.54253 1.03348
 H81 H -0.01785 0.53548 0.80095
 H82 H -0.12679 0.54693 0.88037
 H83 H 0.12419 0.47248 1.11035
 H84 H 0.01552 0.48260 1.18995
 H85 H 0.21138 0.46872 0.84489
 H86 H -0.21458 0.54318 1.14742
 C87 C -0.09676 -0.11987 0.52684
 C88 C -0.15633 -0.07406 0.52749
 C89 C -0.15541 0.00295 0.51204
 C90 C -0.09222 0.03625 0.49411
 C91 C -0.03150 -0.00938 0.49749
 C92 C -0.03343 -0.08744 0.51207
 C93 C 0.02801 -0.13056 0.51188
 C94 C 0.08952 -0.09842 0.49922
 C95 C 0.09193 -0.02245 0.49082
 C96 C 0.03143 0.02320 0.48614
 C97 C -0.08732 0.11353 0.47015
 C98 C -0.02578 0.14542 0.45875
 C99 C 0.03376 0.10134 0.46944
 C100 C 0.09631 0.13312 0.46031
 C101 C 0.15470 0.08663 0.46852
 C102 C 0.15335 0.00963 0.48505
 H103 H 0.02982 -0.18976 0.52172
 H104 H 0.13519 -0.13425 0.49511
 H105 H -0.13042 0.15063 0.45800
 H106 H -0.02547 0.20511 0.44033
 H107 H -0.20483 -0.09919 0.54007
 H108 H 0.20185 0.11099 0.46443
 C109 C -0.31932 0.56592 0.98448
 C110 C -0.28916 0.62551 0.92782
 C111 C -0.22552 0.62597 0.93990
 C112 C -0.22055 0.56545 1.00190
 O113 O -0.27809 0.52967 1.03025
 H114 H -0.31105 0.66393 0.88291
 H115 H -0.18670 0.66491 0.90661
 C116 C 0.31556 0.44584 1.01038
 C117 C 0.28241 0.39064 1.07079
 C118 C 0.21953 0.38986 1.05700
 C119 C 0.21734 0.44666 0.99088
 O120 O 0.27651 0.47935 0.96098
 H121 H 0.30186 0.35503 1.11912
 H122 H 0.17904 0.35381 1.09245
 C123 C -0.08907 -0.31184 0.54138
 C124 C -0.14601 -0.31034 0.60030
 C125 C -0.15598 -0.23855 0.60266
 C126 C -0.10435 -0.20111 0.54523
 O127 O -0.06390 -0.24556 0.50747
 H128 H -0.17600 -0.35630 0.63794
 H129 H -0.19571 -0.21620 0.64232
 C130 C 0.08761 0.32416 0.44864
 C131 C 0.14722 0.32268 0.39327
 C132 C 0.15786 0.25119 0.38994
 C133 C 0.10365 0.21411 0.44304
 O134 O 0.06096 0.25835 0.47913
 H135 H 0.17889 0.36843 0.35909
 H136 H 0.19995 0.22865 0.35290
 C137 C 0.41043 0.02931 -0.29714
 C138 C 0.36680 0.08774 -0.28176
 C139 C 0.35297 0.07483 -0.20323
 C140 C 0.39029 0.01037 -0.17752
 O141 O 0.42402 -0.01788 -0.23405
 H142 H 0.34909 0.13504 -0.32286
 H143 H 0.32379 0.11076 -0.16947
 C144 C 0.58753 -0.01894 0.29698
 C145 C 0.63368 -0.07533 0.28123
 C146 C 0.64609 -0.06347 0.20287
 C147 C 0.60585 -0.00131 0.17774
 O148 O 0.57094 0.02605 0.23444
 H149 H 0.65405 -0.12062 0.32211
 H150 H 0.67716 -0.09820 0.16884
 C151 C 0.41583 -0.31541 0.05519
 C152 C 0.37961 -0.30999 0.12715
 C153 C 0.36869 -0.23573 0.11961
 C154 C 0.40018 -0.20227 0.04400
 O155 O 0.42783 -0.25039 0.00479
 H156 H 0.36457 -0.35458 0.17900
 H157 H 0.34388 -0.20916 0.16442
 C158 C 0.57905 0.32397 -0.05734
 C159 C 0.61619 0.31832 -0.12886
 C160 C 0.62860 0.24404 -0.12042
 C161 C 0.59692 0.21077 -0.04479
 O162 O 0.56783 0.25910 -0.00641
 H163 H 0.63097 0.36272 -0.18096
 H164 H 0.65429 0.21724 -0.16477
 C165 C -0.32632 0.06183 0.51370
 C166 C -0.31254 0.11699 0.54163
 C167 C -0.24494 0.10445 0.54401
 C168 C -0.22267 0.04407 0.51473
 O169 O -0.27263 0.01787 0.49800
 H170 H -0.34832 0.15758 0.56290
 H171 H -0.21680 0.13327 0.56832
 C172 C 0.32035 -0.05322 0.50191
 C173 C 0.28855 -0.11272 0.55681
 C174 C 0.22094 -0.09932 0.55655
 C175 C 0.21697 -0.03381 0.49949
 O176 O 0.27731 -0.00541 0.46759
 H177 H 0.31093 -0.15640 0.59739
 H178 H 0.17938 -0.13064 0.59735
 C179 C -0.10423 0.51157 1.33885
 C180 C -0.16549 0.47873 1.35531
 C181 C -0.17582 0.47870 1.28539
 C182 C -0.11980 0.51100 1.23101
 O183 O -0.07686 0.53193 1.26361
 H184 H -0.19734 0.45487 1.41173
 H185 H -0.21777 0.45500 1.27553
 C186 C 0.10062 0.50310 0.65298
 C187 C 0.16233 0.53507 0.63651
 C188 C 0.17300 0.53467 0.70642
 C189 C 0.11671 0.50306 0.76083
 O190 O 0.07327 0.48291 0.72826
 H191 H 0.19434 0.55855 0.58008
 H192 H 0.21538 0.55767 0.71627
   
