data_POSCAR
  _audit_creation_date              2014-09-24
  _audit_creation_method            'ToBaCCo'
  _symmetry_space_group_name_H-M    'P1'
  _symmetry_Int_Tables_number       1
  _symmetry_cell_setting            triclinic
  loop_
  _symmetry_equiv_pos_as_xyz
 x,y,z
_cell_length_a 26.1713
_cell_length_b 25.4112
_cell_length_c 25.6751
_cell_angle_alpha 105.386900
_cell_angle_beta 86.750800
_cell_angle_gamma 96.965600
loop_
  _atom_site_label
  _atom_site_type_symbol
  _atom_site_fract_x
  _atom_site_fract_y
  _atom_site_fract_z
O1 O 0.60059 0.50922 0.05109
 O2 O 0.46310 0.49299 0.01911
 O3 O 0.52648 0.42803 0.03968
 O4 O 0.53537 0.57243 0.03584
 O5 O 0.55475 0.54847 -0.05148
 O6 O 0.54597 0.40287 -0.04751
 O7 O 0.48340 0.46665 -0.06780
 O8 O 0.62047 0.48451 -0.03602
 Cu9 Cu 0.52951 0.50247 0.04520
 Cu10 Cu 0.55352 0.47293 -0.05931
 C11 C 0.63404 0.50047 0.01282
 C12 C 0.44992 0.47855 -0.03003
 C13 C 0.53428 0.39075 -0.00301
 C14 C 0.54538 0.58508 -0.00854
 O15 O 0.03296 0.58684 0.49830
 O16 O 0.05333 0.44153 0.47373
 O17 O 0.03280 0.50334 0.41350
 O18 O 0.04968 0.52291 0.55890
 O19 O -0.03408 0.50292 0.56972
 O20 O -0.05053 0.48044 0.42412
 O21 O -0.03015 0.42075 0.48600
 O22 O -0.05078 0.56517 0.50657
 Cu23 Cu 0.05059 0.51613 0.48511
 Cu24 Cu -0.04985 0.49050 0.49789
 C25 C -0.01245 0.60073 0.50545
 C26 C 0.01502 0.40651 0.47645
 C27 C -0.01175 0.48806 0.39398
 C28 C 0.01075 0.51502 0.58887
 O29 O 0.46852 0.05688 0.60361
 O30 O 0.47883 0.07372 0.46598
 O31 O 0.40470 0.07830 0.53962
 O32 O 0.53960 0.04540 0.52907
 O33 O 0.51211 -0.04192 0.49427
 O34 O 0.37842 -0.00991 0.50876
 O35 O 0.45030 -0.01349 0.43266
 O36 O 0.44366 -0.03151 0.57196
 Cu37 Cu 0.47537 0.07241 0.53746
 Cu38 Cu 0.44316 -0.03286 0.49857
 C39 C 0.45589 0.00976 0.61152
 C40 C 0.46661 0.03353 0.42578
 C41 C 0.36852 0.03939 0.52651
 C42 C 0.54859 -0.00431 0.51033
 C43 C 0.50052 -0.12877 -0.12223
 C44 C 0.48408 -0.07909 -0.12541
 C45 C 0.48304 -0.03566 -0.07829
 C46 C 0.49860 -0.04101 -0.02847
 C47 C 0.51550 -0.09109 -0.02666
 C48 C 0.51618 -0.13539 -0.07308
 C49 C 0.49624 0.00520 0.02165
 C50 C 0.48420 -0.00569 0.07225
 C51 C 0.48134 0.03722 0.11960
 C52 C 0.48951 0.09171 0.11551
 C53 C 0.50259 0.10415 0.06576
 C54 C 0.50592 0.06034 0.01917
 H55 H 0.50104 -0.16240 -0.15814
 H56 H 0.46893 0.00202 -0.08039
 H57 H 0.52885 -0.09567 0.01086
 H58 H 0.47733 -0.04773 0.07466
 H59 H 0.48469 0.12427 0.15162
 H60 H 0.51695 0.06927 -0.01911
 C61 C -0.05705 0.50047 1.07830
 C62 C -0.06684 0.51028 1.02882
 C63 C -0.02522 0.51666 0.99296
 C64 C 0.02506 0.50734 1.00331
 C65 C 0.03215 0.49289 1.05170
 C66 C -0.00749 0.49328 1.09081
 C67 C 0.06995 0.51269 0.96458
 C68 C 0.12125 0.51628 0.98094
 C69 C 0.16320 0.51718 0.94451
 C70 C 0.15416 0.51875 0.89173
 C71 C 0.10414 0.51940 0.87497
 C72 C 0.06239 0.51407 0.91093
 H73 H -0.08834 0.49829 1.10738
 H74 H -0.03263 0.52972 0.95776
 H75 H 0.06819 0.48049 1.05958
 H76 H 0.12919 0.51720 1.02176
 H77 H 0.18651 0.51883 0.86366
 H78 H 0.02409 0.51078 0.89620
 C79 C -0.15479 -0.09763 0.52917
 C80 C -0.10580 -0.11647 0.51989
 C81 C -0.06308 -0.07909 0.51340
 C82 C -0.06811 -0.02340 0.51873
 C83 C -0.11756 -0.00566 0.52970
 C84 C -0.16115 -0.04273 0.53294
 C85 C -0.02233 0.01613 0.51198
 C86 C -0.02904 0.06299 0.49497
 C87 C 0.01174 0.10418 0.49476
 C88 C 0.06160 0.09456 0.50424
 C89 C 0.07049 0.04587 0.51657
 C90 C 0.02799 0.00818 0.52301
 H91 H -0.18858 -0.12487 0.53415
 H92 H -0.02583 -0.09387 0.50321
 H93 H -0.12264 0.03690 0.53450
 H94 H -0.06622 0.06754 0.48162
 H95 H 0.09371 0.12509 0.50188
 H96 H 0.03426 -0.02667 0.53751
 C97 C -0.22406 0.50512 0.99329
 C98 C -0.20758 0.52080 1.04673
 N99 N -0.24273 0.53068 1.08809
 C100 C -0.29389 0.52517 1.07843
 C101 C -0.31077 0.50859 1.02488
 N102 N -0.27517 0.49927 0.98354
 N103 N -0.18881 0.49439 0.95206
 C104 C -0.13776 0.49797 0.96184
 C105 C -0.12099 0.51266 1.01555
 N106 N -0.15681 0.52394 1.05649
 H107 H -0.32105 0.53308 1.11224
 H108 H -0.11113 0.48717 0.92796
 C109 C 0.31516 0.50337 0.98576
 C110 C 0.29920 0.48551 0.93214
 N111 N 0.33282 0.46389 0.89233
 C112 C 0.38207 0.45982 0.90360
 C113 C 0.39858 0.47802 0.95740
 N114 N 0.36425 0.49904 0.99722
 N115 N 0.28184 0.52643 1.02525
 C116 C 0.23303 0.53210 1.01365
 C117 C 0.21642 0.51348 0.95985
 N118 N 0.25048 0.49078 0.92057
 H119 H 0.40804 0.44299 0.87070
 H120 H 0.20818 0.55189 1.04615
 C121 C -0.07984 -0.28024 0.51397
 C122 C -0.03887 -0.23892 0.51612
 N123 N 0.01024 -0.25112 0.51562
 C124 C 0.02027 -0.30310 0.51275
 C125 C -0.02085 -0.34489 0.51071
 N126 N -0.07001 -0.33201 0.51164
 N127 N -0.12878 -0.26831 0.51288
 C128 C -0.13882 -0.21671 0.51420
 C129 C -0.09781 -0.17439 0.51729
 N130 N -0.04879 -0.18731 0.51801
 H131 H 0.05991 -0.31153 0.51199
 H132 H -0.17842 -0.20993 0.51207
 C133 C -0.01224 0.26232 0.48223
 C134 C 0.03609 0.24297 0.46978
 N135 N 0.07649 0.27672 0.45726
 C136 C 0.07080 0.32929 0.45737
 C137 C 0.02250 0.34896 0.47082
 N138 N -0.01788 0.31461 0.48249
 N139 N -0.05223 0.22949 0.49645
 C140 C -0.04621 0.17803 0.49919
 C141 C 0.00233 0.15813 0.48708
 N142 N 0.04227 0.19155 0.47258
 H143 H 0.10377 0.35560 0.44802
 H144 H -0.07871 0.15428 0.51294
 C145 C 0.45236 -0.05592 -0.27786
 C146 C 0.46964 -0.01141 -0.23499
 N147 N 0.47916 0.03952 -0.24300
 C148 C 0.47310 0.04795 -0.29227
 C149 C 0.45742 0.00312 -0.33616
 N150 N 0.44686 -0.04779 -0.32741
 N151 N 0.44280 -0.10681 -0.26961
 C152 C 0.45083 -0.11547 -0.22078
 C153 C 0.47019 -0.07124 -0.17809
 N154 N 0.47829 -0.02008 -0.18646
 H155 H 0.48177 0.08912 -0.29723
 H156 H 0.44215 -0.15651 -0.21568
 C157 C 0.45971 0.00913 0.27634
 C158 C 0.48348 0.05920 0.26895
 N159 N 0.50069 0.09967 0.31231
 C160 C 0.49536 0.09239 0.36294
 C161 C 0.47193 0.04210 0.37085
 N162 N 0.45456 0.00152 0.32703
 N163 N 0.44212 -0.03094 0.23267
 C164 C 0.44765 -0.02344 0.18192
 C165 C 0.47235 0.02659 0.17412
 N166 N 0.48928 0.06658 0.21845
 H167 H 0.50967 0.12554 0.39662
 H168 H 0.43226 -0.05606 0.14849
 C169 C 0.54836 -0.29200 -0.06177
 C170 C 0.53113 -0.25319 -0.01649
 N171 N 0.52178 -0.26681 0.03105
 C172 C 0.52809 -0.31785 0.03521
 C173 C 0.54381 -0.35758 -0.01052
 N174 N 0.55396 -0.34334 -0.05795
 N175 N 0.55788 -0.27814 -0.10919
 C176 C 0.54983 -0.22767 -0.11379
 C177 C 0.53040 -0.18920 -0.06903
 N178 N 0.52236 -0.20311 -0.02121
 H179 H 0.51952 -0.32765 0.07352
 H180 H 0.55856 -0.21806 -0.15210
 C181 C 0.52588 0.26968 0.05353
 C182 C 0.51726 0.22580 0.00746
 N183 N 0.51576 0.23634 -0.04161
 C184 C 0.52214 0.28886 -0.04654
 C185 C 0.52956 0.33304 -0.00015
 N186 N 0.53133 0.32206 0.04882
 N187 N 0.52885 0.25929 0.10231
 C188 C 0.52271 0.20702 0.10750
 C189 C 0.51200 0.16237 0.06174
 N190 N 0.51022 0.17344 0.01262
 H191 H 0.52043 0.29603 -0.08608
 H192 H 0.52691 0.20112 0.14707
 C193 C -0.31166 0.00455 0.53539
 C194 C -0.30082 -0.04899 0.50941
 N195 N -0.33867 -0.08633 0.48343
 C196 C -0.38713 -0.07269 0.48240
 C197 C -0.39842 -0.01909 0.50849
 N198 N -0.36014 0.01835 0.53440
 N199 N -0.27363 0.04163 0.56163
 C200 C -0.22510 0.02777 0.56260
 C201 C -0.21388 -0.02582 0.53598
 N202 N -0.25250 -0.06280 0.51029
 H203 H -0.41657 -0.10355 0.46161
 H204 H -0.19591 0.05820 0.58435
 C205 C 0.22605 0.01603 0.52155
 C206 C 0.21244 0.06974 0.53515
 N207 N 0.24983 0.11281 0.54715
 C208 C 0.30039 0.10455 0.54573
 C209 C 0.31427 0.05068 0.53113
 N210 N 0.27645 0.00775 0.51964
 N211 N 0.18880 -0.02701 0.50902
 C212 C 0.13839 -0.01887 0.50898
 C213 C 0.12435 0.03501 0.52171
 N214 N 0.16218 0.07796 0.53461
 H215 H 0.32938 0.13963 0.55512
 H216 H 0.11006 -0.05423 0.49706
 C217 C 0.01689 0.49032 1.25174
 C218 C -0.03147 0.47264 1.22848
 N219 N -0.07209 0.45837 1.25904
 C220 C -0.06667 0.46163 1.31217
 C221 C -0.01843 0.48039 1.33593
 N222 N 0.02231 0.49388 1.30481
 N223 N 0.05715 0.50585 1.22151
 C224 C 0.05120 0.50512 1.16908
 C225 C 0.00246 0.48827 1.14560
 N226 N -0.03755 0.47223 1.17631
 H227 H -0.09986 0.45050 1.33571
 H228 H 0.08380 0.51990 1.14709
 C229 C 0.07584 0.53249 0.71762
 C230 C 0.03645 0.51247 0.74894
 N231 N -0.01137 0.49646 0.72860
 C232 C -0.02139 0.49889 0.67794
 C233 C 0.01844 0.51753 0.64583
 N234 N 0.06613 0.53415 0.66679
 N235 N 0.12337 0.54930 0.73824
 C236 C 0.13366 0.54627 0.78858
 C237 C 0.09474 0.52441 0.81981
 N238 N 0.04681 0.50870 0.79892
 H239 H -0.05966 0.48498 0.66244
 H240 H 0.17171 0.56165 0.80381
   
