data_POSCAR
  _audit_creation_date              2014-09-24
  _audit_creation_method            'ToBaCCo'
  _symmetry_space_group_name_H-M    'P1'
  _symmetry_Int_Tables_number       1
  _symmetry_cell_setting            triclinic
  loop_
  _symmetry_equiv_pos_as_xyz
 x,y,z
_cell_length_a 48.9668
_cell_length_b 48.9698
_cell_length_c 48.9798
_cell_angle_alpha 89.954800
_cell_angle_beta 90.078000
_cell_angle_gamma 90.016900
loop_
  _atom_site_label
  _atom_site_type_symbol
  _atom_site_fract_x
  _atom_site_fract_y
  _atom_site_fract_z
C1 C 0.37866 0.25936 -0.01371
 C2 C 0.37863 0.25951 0.01427
 C3 C 0.36434 0.28263 0.02221
 N4 N 0.35582 0.29666 -0.00001
 C5 C 0.36439 0.28242 -0.02204
 C6 C 0.36120 0.29135 0.04951
 C7 C 0.34461 0.31351 0.05751
 C8 C 0.34478 0.32536 0.08323
 C9 C 0.32487 0.34521 0.08313
 C10 C 0.31310 0.34493 0.05736
 N11 N 0.32507 0.32539 0.04199
 C12 C 0.29091 0.36145 0.04916
 C13 C 0.28226 0.36444 0.02180
 C14 C 0.25913 0.37861 0.01365
 C15 C 0.25905 0.37848 -0.01433
 C16 C 0.28219 0.36425 -0.02245
 N17 N 0.29639 0.35585 -0.00029
 C18 C 0.29081 0.36107 -0.04983
 C19 C 0.31310 0.34455 -0.05784
 C20 C 0.32500 0.34477 -0.08355
 C21 C 0.34492 0.32495 -0.08345
 C22 C 0.34468 0.31312 -0.05768
 N23 N 0.32507 0.32505 -0.04233
 C24 C 0.36130 0.29094 -0.04948
 H25 H 0.38841 0.24420 -0.02647
 H26 H 0.38834 0.24449 0.02728
 H27 H 0.31824 0.31825 -0.02346
 H28 H 0.35776 0.32013 0.10036
 H29 H 0.31956 0.35823 0.10017
 H30 H 0.24403 0.38833 0.02651
 H31 H 0.24389 0.38812 -0.02724
 H32 H 0.35796 0.31971 -0.10049
 H33 H 0.31831 0.31854 0.02312
 H34 H 0.31974 0.35773 -0.10068
 C35 C 0.74092 0.62179 0.01355
 C36 C 0.74086 0.62197 -0.01444
 C37 C 0.71787 0.63647 -0.02246
 N38 N 0.70385 0.64499 -0.00030
 C39 C 0.71797 0.63620 0.02176
 C40 C 0.70922 0.63981 -0.04977
 C41 C 0.68710 0.65648 -0.05782
 C42 C 0.67527 0.65638 -0.08358
 C43 C 0.65545 0.67629 -0.08354
 C44 C 0.65570 0.68805 -0.05775
 N45 N 0.67523 0.67600 -0.04234
 C46 C 0.63916 0.71026 -0.04955
 C47 C 0.63610 0.71870 -0.02211
 C48 C 0.62187 0.74174 -0.01377
 C49 C 0.62193 0.74150 0.01422
 C50 C 0.63620 0.71835 0.02214
 N51 N 0.64468 0.70438 -0.00009
 C52 C 0.63936 0.70953 0.04942
 C53 C 0.65593 0.68732 0.05744
 C54 C 0.65576 0.67542 0.08315
 C55 C 0.67562 0.65552 0.08307
 C56 C 0.68736 0.65583 0.05731
 N57 N 0.67542 0.67545 0.04195
 C58 C 0.70945 0.63923 0.04912
 H59 H 0.75596 0.61187 0.02638
 H60 H 0.75584 0.61220 -0.02739
 H61 H 0.68218 0.68234 0.02309
 H62 H 0.68050 0.64341 -0.10068
 H63 H 0.64245 0.68163 -0.10062
 H64 H 0.61213 0.75696 -0.02652
 H65 H 0.61226 0.75650 0.02723
 H66 H 0.68091 0.64244 0.10010
 H67 H 0.68209 0.68271 -0.02344
 H68 H 0.64280 0.68063 0.10026
 C69 C 0.74140 0.37861 1.01433
 C70 C 0.74120 0.37856 0.98635
 C71 C 0.71808 0.36425 0.97840
 N72 N 0.70409 0.35573 1.00061
 C73 C 0.71836 0.36432 1.02264
 C74 C 0.70932 0.36108 0.95110
 C75 C 0.68714 0.34447 0.94308
 C76 C 0.67525 0.34464 0.91736
 C77 C 0.65539 0.32474 0.91744
 C78 C 0.65570 0.31297 0.94321
 N79 N 0.67529 0.32494 0.95859
 C80 C 0.63915 0.29083 0.95141
 C81 C 0.63611 0.28226 0.97877
 C82 C 0.62176 0.25925 0.98697
 C83 C 0.62191 0.25928 1.01496
 C84 C 0.63635 0.28230 1.02298
 N85 N 0.64485 0.29638 1.00082
 C86 C 0.63964 0.29093 1.05029
 C87 C 0.65624 0.31310 1.05834
 C88 C 0.65607 0.32491 1.08407
 C89 C 0.67592 0.34480 1.08403
 C90 C 0.68771 0.34461 1.05825
 N91 N 0.67574 0.32505 1.04286
 C92 C 0.70988 0.36122 1.05007
 H93 H 0.75658 0.38838 1.02710
 H94 H 0.75620 0.38828 0.97335
 H95 H 0.68249 0.31822 1.02398
 H96 H 0.68045 0.35763 0.90024
 H97 H 0.64233 0.31943 0.90040
 H98 H 0.61189 0.24420 0.97414
 H99 H 0.61217 0.24424 1.02791
 H100 H 0.68121 0.35781 1.10110
 H101 H 0.68218 0.31818 0.97746
 H102 H 0.64311 0.31963 1.10116
 C103 C 0.25983 0.62091 0.98603
 C104 C 0.25965 0.62096 1.01401
 C105 C 0.28274 0.63519 1.02231
 N106 N 0.29703 0.64367 1.00027
 C107 C 0.28299 0.63512 0.97807
 C108 C 0.29123 0.63833 1.04976
 C109 C 0.31351 0.65485 1.05793
 C110 C 0.32532 0.65461 1.08371
 C111 C 0.34525 0.67442 1.08376
 C112 C 0.34511 0.68628 1.05800
 N113 N 0.32554 0.67438 1.04251
 C114 C 0.36175 0.70849 1.04993
 C115 C 0.36492 0.71710 1.02253
 C116 C 0.37921 0.74020 1.01435
 C117 C 0.37927 0.74014 0.98637
 C118 C 0.36503 0.71704 0.97828
 N119 N 0.35643 0.70293 1.00041
 C120 C 0.36196 0.70842 0.95093
 C121 C 0.34540 0.68625 0.94278
 C122 C 0.34563 0.67448 0.91703
 C123 C 0.32575 0.65459 0.91699
 C124 C 0.31393 0.65477 0.94271
 N125 N 0.32585 0.67429 0.95818
 C126 C 0.29173 0.63820 0.95076
 H127 H 0.24478 0.61121 0.97305
 H128 H 0.24444 0.61128 1.02679
 H129 H 0.31903 0.68107 0.97705
 H130 H 0.31999 0.64162 1.10079
 H131 H 0.35823 0.67965 1.10088
 H132 H 0.38891 0.75533 1.02722
 H133 H 0.38902 0.75522 0.97348
 H134 H 0.32048 0.64162 0.89989
 H135 H 0.31878 0.68121 1.02361
 H136 H 0.35863 0.67979 0.89998
 C137 C -0.01412 0.25935 0.37865
 C138 C 0.01387 0.25954 0.37865
 C139 C 0.02181 0.28270 0.36441
 N140 N -0.00041 0.29672 0.35589
 C141 C -0.02244 0.28243 0.36441
 C142 C 0.04912 0.29147 0.36130
 C143 C 0.05715 0.31366 0.34472
 C144 C 0.08288 0.32552 0.34490
 C145 C 0.08281 0.34539 0.32500
 C146 C 0.05702 0.34513 0.31323
 N147 N 0.04163 0.32556 0.32520
 C148 C 0.04883 0.36168 0.29106
 C149 C 0.02146 0.36470 0.28245
 C150 C 0.01331 0.37892 0.25934
 C151 C -0.01468 0.37881 0.25930
 C152 C -0.02280 0.36453 0.28241
 N153 N -0.00064 0.35608 0.29658
 C154 C -0.05018 0.36133 0.29104
 C155 C -0.05820 0.34472 0.31329
 C156 C -0.08393 0.34488 0.32518
 C157 C -0.08385 0.32498 0.34503
 C158 C -0.05808 0.31316 0.34477
 N159 N -0.04271 0.32518 0.32520
 C160 C -0.04989 0.29091 0.36131
 H161 H -0.02689 0.24414 0.38836
 H162 H 0.02688 0.24451 0.38834
 H163 H -0.02384 0.31841 0.31835
 H164 H 0.10001 0.32027 0.35788
 H165 H 0.09986 0.35842 0.31969
 H166 H 0.02617 0.38868 0.24425
 H167 H -0.02759 0.38849 0.24416
 H168 H -0.10090 0.31967 0.35804
 H169 H 0.02275 0.31872 0.31843
 H170 H -0.10105 0.35786 0.31995
 C171 C 0.01382 0.62132 0.74038
 C172 C -0.01418 0.62150 0.74030
 C173 C -0.02216 0.63595 0.71726
 N174 N 0.00003 0.64442 0.70323
 C175 C 0.02207 0.63566 0.71740
 C176 C -0.04947 0.63928 0.70858
 C177 C -0.05749 0.65592 0.68641
 C178 C -0.08325 0.65582 0.67460
 C179 C -0.08318 0.67570 0.65473
 C180 C -0.05735 0.68743 0.65494
 N181 N -0.04196 0.67540 0.67450
 C182 C -0.04911 0.70961 0.63836
 C183 C -0.02164 0.71800 0.63525
 C184 C -0.01324 0.74101 0.62096
 C185 C 0.01474 0.74073 0.62101
 C186 C 0.02262 0.71759 0.63534
 N187 N 0.00035 0.70366 0.64386
 C188 C 0.04989 0.70875 0.63853
 C189 C 0.05787 0.68658 0.65518
 C190 C 0.08357 0.67467 0.65508
 C191 C 0.08345 0.65484 0.67502
 C192 C 0.05768 0.65520 0.68674
 N193 N 0.04234 0.67477 0.67471
 C194 C 0.04945 0.63867 0.70889
 H195 H 0.02663 0.61143 0.75547
 H196 H -0.02716 0.61178 0.75531
 H197 H 0.02349 0.68169 0.68142
 H198 H -0.10039 0.64289 0.67986
 H199 H -0.10025 0.68105 0.64173
 H200 H -0.02597 0.75623 0.61118
 H201 H 0.02779 0.75569 0.61129
 H202 H 0.10047 0.64178 0.68038
 H203 H -0.02304 0.68210 0.68134
 H204 H 0.10070 0.67984 0.64212
 C205 C 0.98610 0.62153 0.25912
 C206 C 1.01409 0.62151 0.25891
 C207 C 1.02247 0.63572 0.28197
 N208 N 1.00047 0.64425 0.29627
 C209 C 0.97821 0.63576 0.28228
 C210 C 1.04993 0.63878 0.29044
 C211 C 1.05816 0.65531 0.31267
 C212 C 1.08395 0.65500 0.32448
 C213 C 1.08406 0.67483 0.34436
 C214 C 1.05834 0.68676 0.34420
 N215 N 1.04281 0.67488 0.32466
 C216 C 1.05034 0.70901 0.36078
 C217 C 1.02297 0.71767 0.36397
 C218 C 1.01488 0.74079 0.37823
 C219 C 0.98690 0.74077 0.37837
 C220 C 0.97872 0.71767 0.36418
 N221 N 1.00079 0.70352 0.35556
 C222 C 0.95134 0.70907 0.36120
 C223 C 0.94313 0.68691 0.34468
 C224 C 0.91736 0.67514 0.34499
 C225 C 0.91725 0.65525 0.32513
 C226 C 0.94295 0.65544 0.31325
 N227 N 0.95847 0.67496 0.32511
 C228 C 0.95093 0.63888 0.29106
 H229 H 0.97306 0.61186 0.24411
 H230 H 1.02683 0.61179 0.24370
 H231 H 0.97733 0.68173 0.31823
 H232 H 1.10099 0.64197 0.31919
 H233 H 1.10120 0.68003 0.35734
 H234 H 1.02781 0.75591 0.38788
 H235 H 0.97405 0.75587 0.38812
 H236 H 0.90012 0.64228 0.31992
 H237 H 1.02393 0.68176 0.31789
 H238 H 0.90034 0.68044 0.35803
 C239 C 0.98638 0.25930 0.62153
 C240 C 1.01438 0.25932 0.62175
 C241 C 1.02239 0.28231 0.63623
 N242 N 1.00022 0.29637 0.64469
 C243 C 0.97816 0.28227 0.63588
 C244 C 1.04972 0.29092 0.63960
 C245 C 1.05777 0.31307 0.65623
 C246 C 1.08353 0.32486 0.65612
 C247 C 1.08349 0.34473 0.67597
 C248 C 1.05768 0.34454 0.68770
 N249 N 1.04226 0.32500 0.67569
 C250 C 1.04947 0.36114 0.70985
 C251 C 1.02202 0.36422 0.71827
 C252 C 1.01367 0.37847 0.74129
 C253 C 0.98568 0.37839 0.74105
 C254 C 0.97776 0.36410 0.71792
 N255 N 1.00000 0.35561 0.70397
 C256 C 0.95046 0.36091 0.70913
 C257 C 0.94245 0.34434 0.68693
 C258 C 0.91671 0.34450 0.67504
 C259 C 0.91680 0.32464 0.65516
 C260 C 0.94258 0.31290 0.65547
 N261 N 0.95796 0.32485 0.67507
 C262 C 0.95079 0.29081 0.63888
 H263 H 0.97356 0.24426 0.61161
 H264 H 1.02734 0.24431 0.61203
 H265 H 0.97683 0.31810 0.68196
 H266 H 1.10065 0.31958 0.64320
 H267 H 1.10057 0.35771 0.68130
 H268 H 1.02643 0.38823 0.75648
 H269 H 0.97266 0.38808 0.75604
 H270 H 0.89977 0.31934 0.64209
 H271 H 1.02336 0.31818 0.68238
 H272 H 0.89959 0.35745 0.68025
 C273 C 0.37755 0.01362 0.25886
 C274 C 0.37747 -0.01438 0.25881
 C275 C 0.36307 -0.02252 0.28179
 N276 N 0.35452 -0.00043 0.29591
 C277 C 0.36319 0.02170 0.28187
 C278 C 0.35986 -0.04987 0.29035
 C279 C 0.34331 -0.05801 0.31250
 C280 C 0.34359 -0.08378 0.32428
 C281 C 0.32377 -0.08384 0.34416
 C282 C 0.31189 -0.05808 0.34399
 N283 N 0.32378 -0.04260 0.32445
 C284 C 0.28971 -0.05000 0.36058
 C285 C 0.28113 -0.02259 0.36372
 C286 C 0.25807 -0.01438 0.37799
 C287 C 0.25817 0.01361 0.37800
 C288 C 0.28126 0.02165 0.36373
 N289 N 0.29532 -0.00050 0.35518
 C290 C 0.28995 0.04898 0.36063
 C291 C 0.31210 0.05709 0.34408
 C292 C 0.32395 0.08283 0.34434
 C293 C 0.34381 0.08285 0.32448
 C294 C 0.34354 0.05712 0.31265
 N295 N 0.32398 0.04168 0.32453
 C296 C 0.36011 0.04903 0.29051
 H297 H 0.38739 0.02653 0.24386
 H298 H 0.38724 -0.02726 0.24376
 H299 H 0.31713 0.02282 0.31771
 H300 H 0.35660 -0.10083 0.31899
 H301 H 0.31855 -0.10095 0.35715
 H302 H 0.24294 -0.02723 0.38772
 H303 H 0.24314 0.02654 0.38773
 H304 H 0.35684 0.09992 0.31924
 H305 H 0.31695 -0.02373 0.31764
 H306 H 0.31871 0.09989 0.35736
 C307 C 0.74007 -0.01375 0.62134
 C308 C 0.74002 0.01424 0.62120
 C309 C 0.71704 0.02237 0.63559
 N310 N 0.70301 0.00025 0.64433
 C311 C 0.71712 -0.02187 0.63580
 C312 C 0.70844 0.04973 0.63867
 C313 C 0.68634 0.05789 0.65529
 C314 C 0.67461 0.08367 0.65509
 C315 C 0.65474 0.08369 0.67495
 C316 C 0.65488 0.05792 0.68674
 N317 N 0.67438 0.04245 0.67482
 C318 C 0.63827 0.04982 0.70887
 C319 C 0.63513 0.02248 0.71757
 C320 C 0.62083 0.01447 0.74064
 C321 C 0.62085 -0.01352 0.74081
 C322 C 0.63517 -0.02178 0.71781
 N323 N 0.64372 0.00030 0.70358
 C324 C 0.63837 -0.04923 0.70936
 C325 C 0.65502 -0.05739 0.68722
 C326 C 0.65497 -0.08321 0.67552
 C327 C 0.67485 -0.08319 0.65568
 C328 C 0.68652 -0.05737 0.65577
 N329 N 0.67450 -0.04190 0.67521
 C330 C 0.70862 -0.04924 0.63913
 H331 H 0.75512 -0.02665 0.61158
 H332 H 0.75501 0.02713 0.61132
 H333 H 0.68121 -0.02295 0.68190
 H334 H 0.67992 0.10075 0.64210
 H335 H 0.64179 0.10080 0.68022
 H336 H 0.61108 0.02743 0.75564
 H337 H 0.61111 -0.02633 0.75597
 H338 H 0.68021 -0.10030 0.64277
 H339 H 0.68112 0.02354 0.68161
 H340 H 0.64206 -0.10035 0.68085
 C341 C 0.37805 1.01422 0.74066
 C342 C 0.37823 0.98623 0.74064
 C343 C 0.36395 0.97805 0.71757
 N344 N 0.35523 1.00013 0.70345
 C345 C 0.36367 1.02228 0.71760
 C346 C 0.36095 0.95070 0.70897
 C347 C 0.34446 0.94251 0.68676
 C348 C 0.34480 0.91675 0.67499
 C349 C 0.32500 0.91668 0.65501
 C350 C 0.31312 0.94239 0.65512
 N351 N 0.32492 0.95788 0.67470
 C352 C 0.29100 0.95042 0.63841
 C353 C 0.28225 0.97772 0.63522
 C354 C 0.25918 0.98566 0.62081
 C355 C 0.25897 1.01364 0.62079
 C356 C 0.28195 1.02197 0.63519
 N357 N 0.29620 0.99994 0.64383
 C358 C 0.29039 1.04942 0.63838
 C359 C 0.31249 1.05762 0.65511
 C360 C 0.32423 1.08344 0.65503
 C361 C 0.34400 1.08347 0.67502
 C362 C 0.34383 1.05769 0.68677
 N363 N 0.32441 1.04219 0.67470
 C364 C 0.36036 1.04962 0.70901
 H365 H 0.38773 1.02716 0.75575
 H366 H 0.38806 0.97338 0.75571
 H367 H 0.31766 1.02326 0.68145
 H368 H 0.35783 0.89972 0.68036
 H369 H 0.31983 0.89957 0.64200
 H370 H 0.24422 0.97266 0.61101
 H371 H 0.24382 1.02642 0.61096
 H372 H 0.35692 1.10059 0.68040
 H373 H 0.31802 0.97674 0.68143
 H374 H 0.31896 1.10054 0.64204
 C375 C 0.62089 1.01434 0.25962
 C376 C 0.62089 0.98636 0.25967
 C377 C 0.63522 0.97828 0.28274
 N378 N 0.64380 1.00042 0.29685
 C379 C 0.63522 1.02253 0.28270
 C380 C 0.63837 0.95093 0.29136
 C381 C 0.65503 0.94281 0.31348
 C382 C 0.65489 0.91704 0.32525
 C383 C 0.67485 0.91703 0.34507
 C384 C 0.68662 0.94281 0.34485
 N385 N 0.67459 0.95827 0.32537
 C386 C 0.70886 0.95091 0.36135
 C387 C 0.71753 0.97825 0.36444
 C388 C 0.74071 0.98629 0.37860
 C389 C 0.74079 1.01428 0.37860
 C390 C 0.71762 1.02250 0.36444
 N391 N 0.70338 1.00041 0.35596
 C392 C 0.70900 1.04991 0.36137
 C393 C 0.68665 1.05801 0.34491
 C394 C 0.67474 1.08373 0.34522
 C395 C 0.65477 1.08374 0.32543
 C396 C 0.65499 1.05801 0.31352
 N397 N 0.67464 1.04259 0.32537
 C398 C 0.63834 1.04993 0.29132
 H399 H 0.61112 1.02721 0.24451
 H400 H 0.61114 0.97345 0.24461
 H401 H 0.68146 1.02375 0.31849
 H402 H 0.64189 0.89994 0.31999
 H403 H 0.68021 0.89993 0.35803
 H404 H 0.75583 0.97335 0.38825
 H405 H 0.75598 1.02712 0.38827
 H406 H 0.64171 1.10081 0.32025
 H407 H 0.68135 0.97717 0.31857
 H408 H 0.68002 1.10080 0.35823
 O409 O 0.85768 0.81984 0.47404
 O410 O 0.81997 0.85729 0.52686
 O411 O 0.85768 0.81990 0.52695
 O412 O 0.82004 0.85728 0.47394
 O413 O 0.78813 0.82549 0.47382
 O414 O 0.82610 0.78779 0.52705
 O415 O 0.78809 0.82547 0.52697
 O416 O 0.82606 0.78776 0.47390
 Cu417 Cu 0.84200 0.84176 0.50045
 Cu418 Cu 0.80390 0.80341 0.50043
 C419 C 0.84852 0.79731 0.46504
 C420 C 0.79750 0.84799 0.53583
 C421 C 0.84854 0.79736 0.53595
 C422 C 0.79756 0.84799 0.46492
 O423 O 0.14275 0.18048 0.47402
 O424 O 0.18035 0.14260 0.52670
 O425 O 0.14299 0.18027 0.52692
 O426 O 0.18009 0.14279 0.47380
 O427 O 0.21223 0.17435 0.47367
 O428 O 0.17482 0.21215 0.52702
 O429 O 0.21248 0.17417 0.52682
 O430 O 0.17460 0.21234 0.47387
 Cu431 Cu 0.15836 0.15838 0.50036
 Cu432 Cu 0.19676 0.19645 0.50035
 C433 C 0.15205 0.20296 0.46503
 C434 C 0.20292 0.15171 0.53568
 C435 C 0.15236 0.20270 0.53596
 C436 C 0.20258 0.15196 0.46475
 O437 O 0.14326 0.81903 0.52538
 O438 O 0.18045 0.85667 0.47240
 O439 O 0.14311 0.81898 0.47247
 O440 O 0.18068 0.85662 0.52529
 O441 O 0.21277 0.82503 0.52538
 O442 O 0.17493 0.78710 0.47230
 O443 O 0.21257 0.82511 0.47223
 O444 O 0.17504 0.78712 0.52546
 Cu445 Cu 0.15869 0.84098 0.49889
 Cu446 Cu 0.19705 0.80288 0.49884
 C447 C 0.15259 0.79657 0.53439
 C448 C 0.20295 0.84754 0.46335
 C449 C 0.15241 0.79653 0.46345
 C450 C 0.20322 0.84745 0.53428
 O451 O 0.85710 0.18033 0.52560
 O452 O 0.81951 0.14289 0.47262
 O453 O 0.85712 0.18042 0.47268
 O454 O 0.81941 0.14291 0.52554
 O455 O 0.78751 0.17470 0.52559
 O456 O 0.82548 0.21246 0.47247
 O457 O 0.78757 0.17464 0.47243
 O458 O 0.82549 0.21240 0.52563
 Cu459 Cu 0.84144 0.15847 0.49911
 Cu460 Cu 0.80331 0.19677 0.49901
 C461 C 0.84793 0.20285 0.53457
 C462 C 0.79702 0.15214 0.46358
 C463 C 0.84796 0.20295 0.46365
 C464 C 0.79693 0.15220 0.53450
 O465 O 0.47416 0.85743 0.81986
 O466 O 0.52734 0.82020 0.85740
 O467 O 0.52709 0.85769 0.81977
 O468 O 0.47441 0.81984 0.85739
 O469 O 0.47439 0.78786 0.82571
 O470 O 0.52733 0.82597 0.78783
 O471 O 0.52756 0.78818 0.82575
 O472 O 0.47415 0.82574 0.78789
 Cu473 Cu 0.50074 0.84196 0.84176
 Cu474 Cu 0.50087 0.80373 0.80359
 C475 C 0.46517 0.84816 0.79737
 C476 C 0.53643 0.79773 0.84821
 C477 C 0.53611 0.84850 0.79728
 C478 C 0.46550 0.79729 0.84818
 O479 O 0.52678 0.18033 0.14371
 O480 O 0.47362 0.14284 0.18081
 O481 O 0.47387 0.18050 0.14342
 O482 O 0.52654 0.14276 0.18119
 O483 O 0.52660 0.17439 0.21322
 O484 O 0.47366 0.21240 0.17518
 O485 O 0.47343 0.17444 0.21288
 O486 O 0.52683 0.21227 0.17543
 Cu487 Cu 0.50021 0.15845 0.15911
 Cu488 Cu 0.50012 0.19658 0.19740
 C489 C 0.53580 0.20279 0.15302
 C490 C 0.46453 0.15203 0.20326
 C491 C 0.46485 0.20298 0.15265
 C492 C 0.53549 0.15194 0.20374
 O493 O 0.52563 0.14322 0.81992
 O494 O 0.47295 0.18079 0.85771
 O495 O 0.47271 0.14335 0.82011
 O496 O 0.52587 0.18057 0.85762
 O497 O 0.52597 0.21270 0.82604
 O498 O 0.47259 0.17514 0.78820
 O499 O 0.47280 0.21288 0.82610
 O500 O 0.52576 0.17506 0.78805
 Cu501 Cu 0.49929 0.15880 0.84200
 Cu502 Cu 0.49928 0.19717 0.80390
 C503 C 0.53461 0.15252 0.79744
 C504 C 0.46397 0.20335 0.84856
 C505 C 0.46367 0.15266 0.79765
 C506 C 0.53491 0.20308 0.84845
 O507 O 0.47317 0.81899 0.14270
 O508 O 0.52573 0.85693 0.18044
 O509 O 0.52610 0.81942 0.14294
 O510 O 0.47282 0.85659 0.18011
 O511 O 0.47280 0.82494 0.21217
 O512 O 0.52630 0.78742 0.17465
 O513 O 0.52596 0.82523 0.21245
 O514 O 0.47313 0.78704 0.17446
 Cu515 Cu 0.49944 0.84115 0.15837
 Cu516 Cu 0.49956 0.80295 0.19665
 C517 C 0.46425 0.79646 0.15194
 C518 C 0.53474 0.84776 0.20298
 C519 C 0.53521 0.79699 0.15224
 C520 C 0.46380 0.84733 0.20258
 O521 O 0.85685 0.52669 0.81924
 O522 O 0.81945 0.47385 0.85692
 O523 O 0.85684 0.47379 0.81936
 O524 O 0.81942 0.52676 0.85674
 O525 O 0.78735 0.52681 0.82509
 O526 O 0.82506 0.47358 0.78740
 O527 O 0.78737 0.47365 0.82528
 O528 O 0.82509 0.52674 0.78727
 Cu529 Cu 0.84132 0.50028 0.84123
 Cu530 Cu 0.80299 0.50018 0.80305
 C531 C 0.84756 0.53566 0.79674
 C532 C 0.79694 0.46481 0.84774
 C533 C 0.84754 0.46472 0.79691
 C534 C 0.79692 0.53576 0.84750
 O535 O 0.14269 0.52742 0.18006
 O536 O 0.18014 0.47442 0.14260
 O537 O 0.14258 0.47449 0.18011
 O538 O 0.18030 0.52735 0.14258
 O539 O 0.21227 0.52739 0.17433
 O540 O 0.17428 0.47429 0.21214
 O541 O 0.21212 0.47423 0.17434
 O542 O 0.17437 0.52746 0.21210
 Cu543 Cu 0.15826 0.50093 0.15817
 Cu544 Cu 0.19647 0.50084 0.19644
 C545 C 0.15191 0.53638 0.20258
 C546 C 0.20262 0.46537 0.15186
 C547 C 0.15179 0.46546 0.20263
 C548 C 0.20283 0.53629 0.15183
 O549 O 0.85723 0.47299 0.18071
 O550 O 0.81983 0.52588 0.14293
 O551 O 0.85726 0.52591 0.18059
 O552 O 0.81983 0.47296 0.14302
 O553 O 0.78773 0.47288 0.17457
 O554 O 0.82548 0.52607 0.21246
 O555 O 0.78775 0.52604 0.17450
 O556 O 0.82544 0.47290 0.21257
 Cu557 Cu 0.84171 0.49943 0.15866
 Cu558 Cu 0.80338 0.49947 0.19673
 C559 C 0.84793 0.46400 0.20318
 C560 C 0.79732 0.53491 0.15206
 C561 C 0.84797 0.53495 0.20302
 C562 C 0.79730 0.46397 0.15217
 O563 O 0.18064 0.52549 0.85726
 O564 O 0.14280 0.47267 0.81986
 O565 O 0.18052 0.47257 0.85728
 O566 O 0.14298 0.52559 0.81980
 O567 O 0.17457 0.52563 0.78775
 O568 O 0.21240 0.47237 0.82551
 O569 O 0.17438 0.47247 0.78780
 O570 O 0.21253 0.52554 0.82551
 Cu571 Cu 0.15858 0.49909 0.84173
 Cu572 Cu 0.19667 0.49899 0.80342
 C573 C 0.20313 0.53445 0.84798
 C574 C 0.15191 0.46365 0.79735
 C575 C 0.20296 0.46351 0.84801
 C576 C 0.15216 0.53457 0.79728
 C577 C 0.24824 0.40824 0.10350
 C578 C 0.25915 0.41792 0.12810
 C579 C 0.24410 0.43607 0.14426
 C580 C 0.27666 0.37724 0.06972
 C581 C 0.20709 0.43453 0.11138
 C582 C 0.22211 0.41641 0.09533
 C583 C 0.26409 0.39103 0.08575
 C584 C 0.21801 0.44482 0.13589
 H585 H 0.27942 0.41180 0.13455
 H586 H 0.25310 0.44365 0.16299
 H587 H 0.18707 0.44080 0.10434
 H588 H 0.21351 0.40912 0.07629
 C589 C 0.75193 0.59219 0.10352
 C590 C 0.77805 0.58397 0.09546
 C591 C 0.79299 0.56578 0.11155
 C592 C 0.72366 0.62335 0.06967
 C593 C 0.75591 0.56427 0.14427
 C594 C 0.74095 0.58250 0.12806
 C595 C 0.73618 0.60948 0.08573
 C596 C 0.78199 0.55548 0.13601
 H597 H 0.78670 0.59128 0.07645
 H598 H 0.81300 0.55948 0.10460
 H599 H 0.74687 0.55669 0.16296
 H600 H 0.72069 0.58866 0.13443
 C601 C 0.75162 0.40766 0.89634
 C602 C 0.74051 0.41743 0.87186
 C603 C 0.75546 0.43560 0.85561
 C604 C 0.72343 0.37678 0.93039
 C605 C 0.79276 0.43386 0.88817
 C606 C 0.77784 0.41573 0.90430
 C607 C 0.73589 0.39051 0.91422
 C608 C 0.78164 0.44425 0.86378
 H609 H 0.72017 0.41138 0.86558
 H610 H 0.74633 0.44326 0.83697
 H611 H 0.81286 0.44006 0.89505
 H612 H 0.78658 0.40836 0.92327
 C613 C 0.24904 0.59153 0.89625
 C614 C 0.22286 0.58351 0.90437
 C615 C 0.20776 0.56540 0.88836
 C616 C 0.27753 0.62247 0.93009
 C617 C 0.24477 0.56357 0.85559
 C618 C 0.25991 0.58171 0.87172
 C619 C 0.26495 0.60871 0.91400
 C620 C 0.21863 0.55497 0.86392
 H621 H 0.21430 0.59091 0.92337
 H622 H 0.18771 0.55925 0.89536
 H623 H 0.25373 0.55588 0.83691
 H624 H 0.28021 0.58771 0.86531
 C625 C 0.10370 0.24882 0.40796
 C626 C 0.12829 0.25969 0.41772
 C627 C 0.14445 0.24457 0.43587
 C628 C 0.06983 0.27729 0.37702
 C629 C 0.11157 0.20758 0.43415
 C630 C 0.09553 0.22268 0.41603
 C631 C 0.08594 0.26472 0.39078
 C632 C 0.13608 0.21845 0.44452
 H633 H 0.13474 0.27997 0.41167
 H634 H 0.16318 0.25351 0.44351
 H635 H 0.10453 0.18755 0.44034
 H636 H 0.07648 0.21412 0.40867
 C637 C 0.10452 0.75106 0.59181
 C638 C 0.09648 0.77727 0.58383
 C639 C 0.11245 0.79226 0.56561
 C640 C 0.07062 0.72280 0.62281
 C641 C 0.14501 0.75502 0.56360
 C642 C 0.12892 0.74001 0.58186
 C643 C 0.08676 0.73526 0.60903
 C644 C 0.13675 0.78120 0.55504
 H645 H 0.07758 0.78597 0.59134
 H646 H 0.10551 0.81235 0.55949
 H647 H 0.16358 0.74594 0.55580
 H648 H 0.13525 0.71967 0.58783
 C649 C 0.89701 0.75172 0.40801
 C650 C 0.87241 0.74081 0.41765
 C651 C 0.85622 0.75584 0.43578
 C652 C 0.93080 0.72333 0.37700
 C653 C 0.88907 0.79285 0.43430
 C654 C 0.90515 0.77784 0.41620
 C655 C 0.91477 0.73590 0.39080
 C656 C 0.86455 0.78193 0.44454
 H657 H 0.86597 0.72055 0.41152
 H658 H 0.83748 0.74684 0.44332
 H659 H 0.89608 0.81286 0.44059
 H660 H 0.92419 0.78645 0.40894
 C661 C 0.89640 0.24830 0.59185
 C662 C 0.87187 0.25930 0.58207
 C663 C 0.85568 0.24431 0.56385
 C664 C 0.93023 0.27660 0.62299
 C665 C 0.88838 0.20719 0.56554
 C666 C 0.90446 0.22216 0.58372
 C667 C 0.91418 0.26408 0.60913
 C668 C 0.86394 0.21819 0.55516
 H669 H 0.86550 0.27958 0.58815
 H670 H 0.83700 0.25336 0.55620
 H671 H 0.89534 0.18716 0.55931
 H672 H 0.92346 0.21349 0.59110
 C673 C 0.40702 0.10361 0.24830
 C674 C 0.41682 0.12805 0.25943
 C675 C 0.43511 0.14424 0.24457
 C676 C 0.37592 0.06966 0.27640
 C677 C 0.43341 0.11172 0.20731
 C678 C 0.41516 0.09564 0.22215
 C679 C 0.38974 0.08578 0.26397
 C680 C 0.44384 0.13606 0.21846
 H681 H 0.41072 0.13433 0.27973
 H682 H 0.44280 0.16284 0.25372
 H683 H 0.43967 0.10483 0.18726
 H684 H 0.40776 0.07671 0.21339
 C685 C 0.59159 0.10424 0.75155
 C686 C 0.58347 0.09599 0.77765
 C687 C 0.56538 0.11200 0.79276
 C688 C 0.62254 0.07048 0.72306
 C689 C 0.56376 0.14501 0.75588
 C690 C 0.58188 0.12889 0.74075
 C691 C 0.60877 0.08653 0.73564
 C692 C 0.55508 0.13656 0.78195
 H693 H 0.59078 0.07691 0.78617
 H694 H 0.55916 0.10490 0.81275
 H695 H 0.55618 0.16378 0.74697
 H696 H 0.58796 0.13541 0.72051
 C697 C 0.40781 0.89634 0.75170
 C698 C 0.41584 0.90443 0.77789
 C699 C 0.43403 0.88843 0.79293
 C700 C 0.37676 0.93013 0.72325
 C701 C 0.43590 0.85574 0.75582
 C702 C 0.41767 0.87186 0.74076
 C703 C 0.39057 0.91409 0.73584
 C704 C 0.44452 0.86404 0.78197
 H705 H 0.40840 0.92339 0.78651
 H706 H 0.44021 0.89541 0.81298
 H707 H 0.44363 0.83711 0.74681
 H708 H 0.41166 0.86548 0.72045
 C709 C 0.59165 0.89640 0.24872
 C710 C 0.58345 0.90453 0.22260
 C711 C 0.56538 0.88842 0.20754
 C712 C 0.62261 0.93029 0.27714
 C713 C 0.56394 0.85553 0.24453
 C714 C 0.58205 0.87176 0.25961
 C715 C 0.60883 0.91420 0.26458
 C716 C 0.55518 0.86385 0.21843
 H717 H 0.59069 0.92361 0.21402
 H718 H 0.55909 0.89542 0.18752
 H719 H 0.55644 0.83675 0.25350
 H720 H 0.58819 0.86533 0.27987
 C721 C 0.40705 0.24900 0.89713
 C722 C 0.41518 0.22284 0.90522
 C723 C 0.43324 0.20781 0.88912
 C724 C 0.37620 0.27741 0.93106
 C725 C 0.43480 0.24489 0.85633
 C726 C 0.41671 0.25994 0.87255
 C727 C 0.38992 0.26485 0.91495
 C728 C 0.44350 0.21876 0.86462
 H729 H 0.40791 0.21422 0.92426
 H730 H 0.43949 0.18777 0.89610
 H731 H 0.44235 0.25390 0.83761
 H732 H 0.41062 0.28023 0.86616
 C733 C 0.59355 0.75228 0.89687
 C734 C 0.58548 0.77847 0.90484
 C735 C 0.56738 0.79345 0.88867
 C736 C 0.62431 0.72386 0.93097
 C737 C 0.56570 0.75628 0.85606
 C738 C 0.58384 0.74127 0.87234
 C739 C 0.61064 0.73645 0.91479
 C740 C 0.55702 0.78242 0.86424
 H741 H 0.59280 0.78714 0.92384
 H742 H 0.56116 0.81351 0.89557
 H743 H 0.55807 0.74720 0.83739
 H744 H 0.58989 0.72095 0.86604
 C745 C 0.40736 0.75051 0.10347
 C746 C 0.41713 0.73963 0.12806
 C747 C 0.43522 0.75478 0.14425
 C748 C 0.37658 0.72200 0.06949
 C749 C 0.43342 0.79182 0.11142
 C750 C 0.41536 0.77670 0.09535
 C751 C 0.39025 0.73458 0.08566
 C752 C 0.44380 0.78093 0.13592
 H753 H 0.41114 0.71932 0.13447
 H754 H 0.44288 0.74582 0.16297
 H755 H 0.43956 0.81188 0.10442
 H756 H 0.40799 0.78527 0.07631
 C757 C 0.59315 0.24833 0.10490
 C758 C 0.58321 0.25936 0.12931
 C759 C 0.56500 0.24433 0.14542
 C760 C 0.62400 0.27672 0.07098
 C761 C 0.56703 0.20710 0.11289
 C762 C 0.58521 0.22210 0.09689
 C763 C 0.61029 0.26418 0.08711
 C764 C 0.55645 0.21814 0.13718
 H765 H 0.58915 0.27972 0.13562
 H766 H 0.55719 0.25341 0.16399
 H767 H 0.56092 0.18700 0.10596
 H768 H 0.59271 0.21342 0.07798
 C769 C 0.24850 0.10298 0.59264
 C770 C 0.25952 0.12752 0.58293
 C771 C 0.24449 0.14380 0.56482
 C772 C 0.27686 0.06892 0.62348
 C773 C 0.20728 0.11116 0.56649
 C774 C 0.22229 0.09500 0.58457
 C775 C 0.26432 0.08509 0.60977
 C776 C 0.21831 0.13561 0.55616
 H777 H 0.27985 0.13382 0.58899
 H778 H 0.25356 0.16248 0.55721
 H779 H 0.18720 0.10427 0.56028
 H780 H 0.21361 0.07600 0.59189
 C781 C 0.75116 0.10355 0.40675
 C782 C 0.77739 0.09554 0.41472
 C783 C 0.79250 0.11168 0.43273
 C784 C 0.72260 0.06945 0.37614
 C785 C 0.75537 0.14436 0.43450
 C786 C 0.74023 0.12810 0.41647
 C787 C 0.73522 0.08565 0.38974
 C788 C 0.78156 0.13614 0.44308
 H789 H 0.78600 0.07653 0.40740
 H790 H 0.81259 0.10476 0.43887
 H791 H 0.74636 0.16304 0.44214
 H792 H 0.71988 0.13443 0.41050
 C793 C 0.75155 0.89629 0.59273
 C794 C 0.77768 0.90451 0.58467
 C795 C 0.79281 0.88848 0.56663
 C796 C 0.72293 0.93011 0.62350
 C797 C 0.75591 0.85552 0.56496
 C798 C 0.74075 0.87166 0.58303
 C799 C 0.73558 0.91404 0.60982
 C800 C 0.78200 0.86394 0.55631
 H801 H 0.78619 0.92359 0.59197
 H802 H 0.81282 0.89556 0.56043
 H803 H 0.74700 0.83676 0.55736
 H804 H 0.72048 0.86516 0.58906
 C805 C 0.24810 0.89624 0.40619
 C806 C 0.22185 0.90409 0.41418
 C807 C 0.20698 0.88791 0.43231
 C808 C 0.27626 0.93045 0.37542
 C809 C 0.24438 0.85552 0.43416
 C810 C 0.25928 0.87182 0.41600
 C811 C 0.26380 0.91420 0.38909
 C812 C 0.21818 0.86359 0.44276
 H813 H 0.21306 0.92301 0.40678
 H814 H 0.18686 0.89470 0.43847
 H815 H 0.25357 0.83694 0.44187
 H816 H 0.27965 0.86563 0.41001
 C817 C 0.10307 0.40676 0.75182
 C818 C 0.09510 0.41486 0.77800
 C819 C 0.11131 0.43290 0.79300
 C820 C 0.06895 0.37600 0.72343
 C821 C 0.14395 0.43447 0.75586
 C822 C 0.12763 0.41640 0.74084
 C823 C 0.08514 0.38968 0.73600
 C824 C 0.13579 0.44316 0.78200
 H825 H 0.07608 0.40760 0.78665
 H826 H 0.10443 0.43913 0.81305
 H827 H 0.16265 0.44203 0.74681
 H828 H 0.13392 0.41033 0.72054
 C829 C 0.10338 0.59326 0.24831
 C830 C 0.09533 0.58528 0.22210
 C831 C 0.11144 0.56726 0.20703
 C832 C 0.06939 0.62396 0.27683
 C833 C 0.14418 0.56546 0.24416
 C834 C 0.12795 0.58352 0.25925
 C835 C 0.08553 0.61031 0.26421
 C836 C 0.13591 0.55689 0.21799
 H837 H 0.07630 0.59263 0.21347
 H838 H 0.10448 0.56112 0.18696
 H839 H 0.16287 0.55782 0.25319
 H840 H 0.13432 0.58949 0.27958
 C841 C 0.89621 0.40689 0.24904
 C842 C 0.90428 0.41484 0.22284
 C843 C 0.88825 0.43296 0.20773
 C844 C 0.93023 0.37613 0.27754
 C845 C 0.85556 0.43489 0.24481
 C846 C 0.87171 0.41674 0.25994
 C847 C 0.91403 0.38979 0.26496
 C848 C 0.86385 0.44344 0.21865
 H849 H 0.92326 0.40742 0.21425
 H850 H 0.89522 0.43907 0.18767
 H851 H 0.83691 0.44262 0.25380
 H852 H 0.86535 0.41079 0.28027
 C853 C 0.89584 0.59283 0.75112
 C854 C 0.87137 0.58294 0.74010
 C855 C 0.85522 0.56477 0.75515
 C856 C 0.92980 0.62365 0.72275
 C857 C 0.88785 0.56675 0.79237
 C858 C 0.90388 0.58490 0.77735
 C859 C 0.91365 0.60996 0.73528
 C860 C 0.86348 0.55623 0.78134
 H861 H 0.86503 0.58889 0.71974
 H862 H 0.83659 0.55700 0.74608
 H863 H 0.89479 0.56065 0.81247
 H864 H 0.92283 0.59236 0.78602
 C865 C 0.75157 0.59315 0.89567
 C866 C 0.74049 0.58326 0.87124
 C867 C 0.75545 0.56501 0.85512
 C868 C 0.72333 0.62411 0.92954
 C869 C 0.79271 0.56691 0.88771
 C870 C 0.77778 0.58513 0.90371
 C871 C 0.73581 0.61036 0.91343
 C872 C 0.78161 0.55639 0.86339
 H873 H 0.72015 0.58927 0.86490
 H874 H 0.74633 0.55726 0.83653
 H875 H 0.81279 0.56074 0.89465
 H876 H 0.78650 0.59258 0.92264
 C877 C 0.24873 0.40647 0.89647
 C878 C 0.25963 0.41623 0.87193
 C879 C 0.24453 0.43434 0.85571
 C880 C 0.27726 0.37582 0.93057
 C881 C 0.20745 0.43254 0.88842
 C882 C 0.22253 0.41447 0.90452
 C883 C 0.26465 0.38942 0.91435
 C884 C 0.21838 0.44295 0.86398
 H885 H 0.27995 0.41025 0.86557
 H886 H 0.25352 0.44201 0.83703
 H887 H 0.18740 0.43870 0.89538
 H888 H 0.21394 0.40710 0.92353
 C889 C 0.24889 0.59300 0.10328
 C890 C 0.25973 0.58328 0.12790
 C891 C 0.24453 0.56528 0.14413
 C892 C 0.27758 0.62358 0.06927
 C893 C 0.20750 0.56709 0.11129
 C894 C 0.22267 0.58505 0.09517
 C895 C 0.26489 0.60999 0.08543
 C896 C 0.21835 0.55674 0.13582
 H897 H 0.28006 0.58923 0.13432
 H898 H 0.25348 0.55766 0.16287
 H899 H 0.18742 0.56097 0.10429
 H900 H 0.21412 0.59237 0.07611
 C901 C 0.75180 0.40687 0.10361
 C902 C 0.77803 0.41488 0.09568
 C903 C 0.79302 0.43298 0.11180
 C904 C 0.72344 0.37608 0.06955
 C905 C 0.75576 0.43481 0.14430
 C906 C 0.74075 0.41667 0.12806
 C907 C 0.73599 0.38977 0.08572
 C908 C 0.78195 0.44341 0.13615
 H909 H 0.78673 0.40749 0.07674
 H910 H 0.81312 0.43914 0.10494
 H911 H 0.74667 0.44249 0.16291
 H912 H 0.72040 0.41067 0.13432
 C913 C 0.89730 0.75174 0.59286
 C914 C 0.87276 0.74074 0.58313
 C915 C 0.85645 0.75579 0.56507
 C916 C 0.93142 0.72326 0.62353
 C917 C 0.88906 0.79302 0.56683
 C918 C 0.90525 0.77798 0.58486
 C919 C 0.91523 0.73587 0.60989
 C920 C 0.86461 0.78199 0.55647
 H921 H 0.86648 0.72039 0.58913
 H922 H 0.83777 0.74672 0.55743
 H923 H 0.89594 0.81311 0.56067
 H924 H 0.92426 0.78665 0.59219
 C925 C 0.89661 0.24875 0.40684
 C926 C 0.90468 0.22257 0.41495
 C927 C 0.88854 0.20749 0.43296
 C928 C 0.93063 0.27730 0.37614
 C929 C 0.85575 0.24453 0.43449
 C930 C 0.87201 0.25963 0.41645
 C931 C 0.91448 0.26466 0.38978
 C932 C 0.86402 0.21839 0.44319
 H933 H 0.92374 0.21399 0.40771
 H934 H 0.89551 0.18744 0.43919
 H935 H 0.83701 0.25351 0.44202
 H936 H 0.86562 0.27993 0.41038
 C937 C 0.10432 0.24829 0.59323
 C938 C 0.09622 0.22209 0.58528
 C939 C 0.11219 0.20706 0.56712
 C940 C 0.07043 0.27672 0.62401
 C941 C 0.14487 0.24422 0.56515
 C942 C 0.12878 0.25927 0.58335
 C943 C 0.08655 0.26416 0.61035
 C944 C 0.13655 0.21806 0.55659
 H945 H 0.07726 0.21345 0.59274
 H946 H 0.10520 0.18700 0.56100
 H947 H 0.16349 0.25326 0.55738
 H948 H 0.13516 0.27960 0.58930
 C949 C 0.10402 0.75087 0.40632
 C950 C 0.09595 0.77704 0.41433
 C951 C 0.11201 0.79208 0.43245
 C952 C 0.06996 0.72246 0.37556
 C953 C 0.14474 0.75498 0.43429
 C954 C 0.12856 0.73992 0.41613
 C955 C 0.08618 0.73500 0.38922
 C956 C 0.13644 0.78112 0.44289
 H957 H 0.07694 0.78566 0.40693
 H958 H 0.10504 0.81213 0.43861
 H959 H 0.16341 0.74597 0.44198
 H960 H 0.13493 0.71961 0.41014
 C961 C 0.59287 0.89720 0.75147
 C962 C 0.58327 0.87255 0.74063
 C963 C 0.56524 0.85629 0.75574
 C964 C 0.62357 0.93124 0.72294
 C965 C 0.56675 0.88916 0.79268
 C966 C 0.58475 0.90531 0.77759
 C967 C 0.60993 0.91507 0.73555
 C968 C 0.55654 0.86460 0.78183
 H969 H 0.58935 0.86614 0.72036
 H970 H 0.55772 0.83751 0.74679
 H971 H 0.56051 0.89616 0.81269
 H972 H 0.59198 0.92441 0.78614
 C973 C 0.40642 0.89557 0.24785
 C974 C 0.41437 0.90355 0.22162
 C975 C 0.43256 0.88751 0.20670
 C976 C 0.37554 0.92950 0.27613
 C977 C 0.43456 0.85500 0.24401
 C978 C 0.41634 0.87116 0.25896
 C979 C 0.38927 0.91339 0.26361
 C980 C 0.44313 0.86321 0.21783
 H981 H 0.40689 0.92246 0.21288
 H982 H 0.43869 0.89441 0.18661
 H983 H 0.44236 0.83643 0.25316
 H984 H 0.41038 0.86487 0.27931
 C985 C 0.59255 0.10346 0.24946
 C986 C 0.58276 0.12796 0.26042
 C987 C 0.56461 0.14416 0.24535
 C988 C 0.62344 0.06947 0.27785
 C989 C 0.56640 0.11150 0.20822
 C990 C 0.58452 0.09542 0.22327
 C991 C 0.60971 0.08563 0.26532
 C992 C 0.55599 0.13592 0.21919
 H993 H 0.58878 0.13430 0.28075
 H994 H 0.55694 0.16282 0.25437
 H995 H 0.56023 0.10457 0.18815
 H996 H 0.59190 0.07644 0.21464
 C997 C 0.40658 0.10432 0.75190
 C998 C 0.41641 0.12884 0.74095
 C999 C 0.43452 0.14503 0.75605
 C1000 C 0.37592 0.07032 0.72334
 C1001 C 0.43260 0.11235 0.79321
 C1002 C 0.41452 0.09628 0.77813
 C1003 C 0.38954 0.08648 0.73597
 C1004 C 0.44308 0.13675 0.78224
 H1005 H 0.41047 0.13519 0.72060
 H1006 H 0.44225 0.16368 0.74702
 H1007 H 0.43872 0.10539 0.81330
 H1008 H 0.40711 0.07729 0.78676
 C1009 C 0.59271 0.75180 0.10406
 C1010 C 0.58284 0.74068 0.12847
 C1011 C 0.56458 0.75560 0.14460
 C1012 C 0.62367 0.72362 0.07012
 C1013 C 0.56643 0.79290 0.11208
 C1014 C 0.58466 0.77801 0.09607
 C1015 C 0.60992 0.73607 0.08626
 C1016 C 0.55592 0.78176 0.13638
 H1017 H 0.58887 0.72034 0.13478
 H1018 H 0.55682 0.74645 0.16317
 H1019 H 0.56023 0.81298 0.10516
 H1020 H 0.59211 0.78676 0.07715
 C1021 C 0.40784 0.24875 0.10415
 C1022 C 0.41753 0.25962 0.12875
 C1023 C 0.43566 0.24453 0.14495
 C1024 C 0.37691 0.27717 0.07022
 C1025 C 0.43406 0.20756 0.11210
 C1026 C 0.41596 0.22262 0.09601
 C1027 C 0.39066 0.26462 0.08635
 C1028 C 0.44437 0.21844 0.13662
 H1029 H 0.41144 0.27988 0.13517
 H1030 H 0.44325 0.25348 0.16369
 H1031 H 0.44030 0.18754 0.10509
 H1032 H 0.40866 0.21406 0.07696
 C1033 C 0.59228 0.24835 0.89693
 C1034 C 0.58417 0.22216 0.90492
 C1035 C 0.56598 0.20724 0.88882
 C1036 C 0.62333 0.27660 0.93084
 C1037 C 0.56425 0.24449 0.85623
 C1038 C 0.58248 0.25943 0.87245
 C1039 C 0.60952 0.26409 0.91475
 C1040 C 0.55555 0.21834 0.86444
 H1041 H 0.59156 0.21343 0.92388
 H1042 H 0.55975 0.18717 0.89573
 H1043 H 0.55657 0.25362 0.83760
 H1044 H 0.58856 0.27975 0.86614
 C1045 C 0.40861 0.75129 0.89655
 C1046 C 0.41833 0.74048 0.87196
 C1047 C 0.43641 0.75564 0.85581
 C1048 C 0.37770 0.72271 0.93033
 C1049 C 0.43474 0.79258 0.88868
 C1050 C 0.41668 0.77744 0.90472
 C1051 C 0.39146 0.73534 0.91429
 C1052 C 0.44505 0.78176 0.86417
 H1053 H 0.41229 0.72020 0.86550
 H1054 H 0.44401 0.74673 0.83708
 H1055 H 0.44092 0.81261 0.89572
 H1056 H 0.40936 0.78597 0.92377
 C1057 C 0.75173 0.89635 0.40784
 C1058 C 0.77792 0.90446 0.41586
 C1059 C 0.79302 0.88840 0.43396
 C1060 C 0.72317 0.93025 0.37702
 C1061 C 0.75596 0.85561 0.43574
 C1062 C 0.74084 0.87178 0.41761
 C1063 C 0.73580 0.91415 0.39072
 C1064 C 0.78211 0.86393 0.44436
 H1065 H 0.78650 0.92349 0.40850
 H1066 H 0.81307 0.89540 0.44013
 H1067 H 0.74698 0.83691 0.44341
 H1068 H 0.72052 0.86538 0.41161
 C1069 C 0.24869 0.89582 0.59157
 C1070 C 0.22250 0.90385 0.58347
 C1071 C 0.20754 0.88780 0.56528
 C1072 C 0.27693 0.92972 0.62263
 C1073 C 0.24474 0.85519 0.56353
 C1074 C 0.25973 0.87136 0.58176
 C1075 C 0.26446 0.91361 0.60882
 C1076 C 0.21858 0.86343 0.55486
 H1077 H 0.21381 0.92280 0.59087
 H1078 H 0.18747 0.89473 0.55907
 H1079 H 0.25382 0.83656 0.55585
 H1080 H 0.28005 0.86502 0.58783
 C1081 C 0.24767 0.10356 0.40737
 C1082 C 0.25881 0.12799 0.41718
 C1083 C 0.24394 0.14418 0.43542
 C1084 C 0.27581 0.06961 0.37638
 C1085 C 0.20662 0.11167 0.43366
 C1086 C 0.22147 0.09560 0.41545
 C1087 C 0.26336 0.08573 0.39016
 C1088 C 0.21778 0.13600 0.44410
 H1089 H 0.27914 0.13427 0.41112
 H1090 H 0.25310 0.16277 0.44312
 H1091 H 0.18655 0.10479 0.43988
 H1092 H 0.21271 0.07667 0.40805
 C1093 C 0.75113 0.10402 0.59173
 C1094 C 0.77721 0.09576 0.58358
 C1095 C 0.79229 0.11174 0.56541
 C1096 C 0.72266 0.07033 0.62285
 C1097 C 0.75542 0.14472 0.56377
 C1098 C 0.74032 0.12864 0.58197
 C1099 C 0.73524 0.08635 0.60900
 C1100 C 0.78147 0.13627 0.55506
 H1101 H 0.78574 0.07670 0.59093
 H1102 H 0.81227 0.10463 0.55917
 H1103 H 0.74651 0.16348 0.55614
 H1104 H 0.72009 0.13516 0.58807
 C1105 C 0.89627 0.59221 0.24860
 C1106 C 0.90434 0.58416 0.22245
 C1107 C 0.88831 0.56599 0.20744
 C1108 C 0.93020 0.62317 0.27694
 C1109 C 0.85561 0.56419 0.24452
 C1110 C 0.87176 0.58239 0.25955
 C1111 C 0.91406 0.60941 0.26443
 C1112 C 0.86390 0.55554 0.21840
 H1113 H 0.92333 0.59157 0.21382
 H1114 H 0.89528 0.55981 0.18740
 H1115 H 0.83695 0.55648 0.25354
 H1116 H 0.86539 0.58842 0.27984
 C1117 C 0.89581 0.40746 0.75151
 C1118 C 0.90390 0.41552 0.77768
 C1119 C 0.88787 0.43368 0.79264
 C1120 C 0.92974 0.37657 0.72324
 C1121 C 0.85516 0.43546 0.75547
 C1122 C 0.87131 0.41726 0.74048
 C1123 C 0.91361 0.39029 0.73572
 C1124 C 0.86346 0.44411 0.78160
 H1125 H 0.92288 0.40812 0.78635
 H1126 H 0.89484 0.43988 0.81269
 H1127 H 0.83651 0.44315 0.74639
 H1128 H 0.86494 0.41122 0.72018
 C1129 C 0.10378 0.59180 0.75165
 C1130 C 0.09569 0.58369 0.77780
 C1131 C 0.11175 0.56553 0.79283
 C1132 C 0.06998 0.62285 0.72320
 C1133 C 0.14448 0.56385 0.75578
 C1134 C 0.12831 0.58204 0.74073
 C1135 C 0.08602 0.60903 0.73580
 C1136 C 0.13619 0.55515 0.78189
 H1137 H 0.07669 0.59105 0.78641
 H1138 H 0.10477 0.55930 0.81286
 H1139 H 0.16315 0.55621 0.74677
 H1140 H 0.13470 0.58812 0.72045
 C1141 C 0.10325 0.40845 0.24833
 C1142 C 0.09508 0.41664 0.22221
 C1143 C 0.11118 0.43473 0.20716
 C1144 C 0.06941 0.37747 0.27679
 C1145 C 0.14410 0.43619 0.24414
 C1146 C 0.12789 0.41807 0.25921
 C1147 C 0.08547 0.39125 0.26420
 C1148 C 0.13574 0.44496 0.21805
 H1149 H 0.07600 0.40940 0.21363
 H1150 H 0.10414 0.44102 0.18715
 H1151 H 0.16287 0.44371 0.25311
 H1152 H 0.13435 0.41193 0.27947
   
