data_POSCAR
  _audit_creation_date              2014-09-24
  _audit_creation_method            'ToBaCCo'
  _symmetry_space_group_name_H-M    'P1'
  _symmetry_Int_Tables_number       1
  _symmetry_cell_setting            triclinic
  loop_
  _symmetry_equiv_pos_as_xyz
 x,y,z
_cell_length_a 44.5766
_cell_length_b 26.5967
_cell_length_c 14.5986
_cell_angle_alpha 90.010900
_cell_angle_beta 89.990700
_cell_angle_gamma 90.001500
loop_
  _atom_site_label
  _atom_site_type_symbol
  _atom_site_fract_x
  _atom_site_fract_y
  _atom_site_fract_z
C1 C 0.72685 0.27304 0.55050
 C2 C 0.72697 0.27300 0.45387
 C3 C 0.75054 0.24992 0.40632
 C4 C 0.77409 0.22680 0.45394
 C5 C 0.77401 0.22684 0.55078
 C6 C 0.75039 0.24995 0.59829
 H7 H 0.75032 0.24997 0.67269
 H8 H 0.75049 0.25001 0.33196
 C9 C 0.22672 0.77211 0.55074
 C10 C 0.22663 0.77244 0.45424
 C11 C 0.25046 0.75044 0.40628
 C12 C 0.27437 0.72811 0.45342
 C13 C 0.27449 0.72777 0.55010
 C14 C 0.25061 0.74981 0.59804
 H15 H 0.25057 0.74966 0.67240
 H16 H 0.25039 0.75068 0.33196
 C17 C 0.27312 0.27132 -0.54868
 C18 C 0.27321 0.27114 -0.45219
 C19 C 0.24934 0.24915 -0.40433
 C20 C 0.22529 0.22723 -0.45158
 C21 C 0.22520 0.22738 -0.54845
 C22 C 0.24914 0.24945 -0.59612
 H23 H 0.24916 0.24964 -0.67048
 H24 H 0.24954 0.24916 -0.32997
 C25 C -0.22737 0.77303 -0.54828
 C26 C -0.22738 0.77265 -0.45181
 C27 C -0.25084 0.74916 -0.40453
 C28 C -0.27434 0.72600 -0.45251
 C29 C -0.27433 0.72638 -0.54937
 C30 C -0.25080 0.74994 -0.59646
 H31 H -0.25066 0.75036 -0.67081
 H32 H -0.25077 0.74896 -0.33017
 O33 O -0.04198 0.91469 0.17109
 O34 O -0.07518 0.95885 0.08158
 C35 C -0.06889 0.92726 0.14626
 O36 O 0.04188 1.09239 0.16111
 O37 O 0.07500 1.04433 0.07807
 C38 C 0.06877 1.07894 0.13754
 O39 O -0.04217 1.08869 0.16863
 O40 O -0.07526 1.04326 0.08099
 C41 C -0.06905 1.07556 0.14460
 O42 O 0.04192 0.90990 0.16198
 O43 O 0.07502 0.95758 0.07814
 C44 C 0.06882 0.92322 0.13817
 Zr45 Zr -0.00015 0.93709 0.11573
 O46 O 0.00085 0.92970 0.25989
 O47 O -0.00121 0.85813 0.10022
 Zr48 Zr -0.00022 1.06448 0.11638
 O49 O 0.00264 1.06491 0.26116
 O50 O -0.00340 1.14392 0.11427
 O51 O -0.02684 1.00079 0.13426
 O52 O 0.02577 1.00083 0.13335
 O53 O 0.04181 0.90889 -0.15860
 O54 O 0.07484 0.95785 -0.07704
 C55 C 0.06868 0.92277 -0.13567
 O56 O -0.04204 1.08844 -0.16727
 O57 O -0.07519 1.04319 -0.07940
 C58 C -0.06893 1.07541 -0.14307
 O59 O 0.04200 1.09248 -0.15897
 O60 O 0.07503 1.04455 -0.07547
 C61 C 0.06888 1.07909 -0.13517
 O62 O -0.04210 0.91310 -0.16704
 O63 O -0.07522 0.95856 -0.07945
 C64 C -0.06900 0.92622 -0.14302
 Zr65 Zr -0.00018 0.93734 -0.11457
 O66 O 0.00310 0.93732 -0.25927
 O67 O -0.00303 0.85789 -0.11267
 Zr68 Zr -0.00013 1.06448 -0.11455
 O69 O 0.00320 1.06490 -0.25922
 O70 O -0.00341 1.14390 -0.11241
 Zr71 Zr -0.04512 1.00090 0.00087
 Zr72 Zr 0.04455 1.00097 0.00117
 O73 O 0.02587 1.00091 -0.13127
 O74 O -0.02694 1.00092 -0.13262
 O75 O 0.02679 0.92754 0.00075
 O76 O -0.02637 1.07357 0.00086
 O77 O -0.02654 0.92815 0.00078
 O78 O 0.02668 1.07437 0.00103
 H79 H 0.03922 1.00092 0.18736
 H80 H -0.03989 1.10313 0.00081
 H81 H 0.03931 1.00093 -0.18533
 H82 H -0.04019 0.89874 0.00104
 H83 H 0.01400 1.15688 0.07950
 H84 H 0.01395 1.15691 -0.07754
 H85 H -0.01313 1.04350 -0.28332
 H86 H -0.01355 0.95804 -0.28325
 H87 H 0.01261 0.84549 -0.07021
 H88 H -0.00162 0.84409 0.16305
 H89 H 0.00357 0.96382 0.28520
 H90 H -0.01403 1.04406 0.28487
 O91 O 0.54208 0.41227 -0.17056
 O92 O 0.57526 0.45687 -0.08176
 C93 C 0.56900 0.42496 -0.14599
 O94 O 0.45834 0.59056 -0.16361
 O95 O 0.42526 0.54301 -0.07977
 C96 C 0.43145 0.57738 -0.13972
 O97 O 0.54217 0.58632 -0.17058
 O98 O 0.57529 0.54130 -0.08229
 C99 C 0.56905 0.57334 -0.14625
 O100 O 0.45836 0.40744 -0.16196
 O101 O 0.42526 0.45529 -0.07855
 C102 C 0.43148 0.42074 -0.13815
 Zr103 Zr 0.50022 0.43508 -0.11563
 O104 O 0.49963 0.42726 -0.25980
 O105 O 0.50120 0.35619 -0.09884
 Zr106 Zr 0.50022 0.56236 -0.11812
 O107 O 0.49744 0.56155 -0.26290
 O108 O 0.50344 0.64180 -0.11758
 O109 O 0.52690 0.49866 -0.13505
 O110 O 0.47418 0.49870 -0.13388
 O111 O 0.45800 0.40828 0.15868
 O112 O 0.42487 0.45650 0.07581
 C113 C 0.43108 0.42185 0.13530
 O114 O 0.54213 0.58757 0.16541
 O115 O 0.57527 0.54201 0.07807
 C116 C 0.56903 0.57446 0.14142
 O117 O 0.45812 0.59152 0.15694
 O118 O 0.42497 0.54318 0.07451
 C119 C 0.43122 0.57800 0.13355
 O120 O 0.54209 0.41238 0.16745
 O121 O 0.57525 0.45745 0.07925
 C122 C 0.56898 0.42541 0.14325
 Zr123 Zr 0.50019 0.43629 0.11458
 O124 O 0.49691 0.43652 0.25927
 O125 O 0.50301 0.35683 0.11361
 Zr126 Zr 0.50022 0.56335 0.11290
 O127 O 0.49692 0.56445 0.25756
 O128 O 0.50354 0.64277 0.10973
 Zr129 Zr 0.54517 0.49934 -0.00167
 Zr130 Zr 0.45541 0.49944 -0.00168
 O131 O 0.47418 0.49991 0.13064
 O132 O 0.52700 0.49989 0.13180
 O133 O 0.47325 0.42604 -0.00053
 O134 O 0.52640 0.57198 -0.00273
 O135 O 0.52659 0.42660 -0.00058
 O136 O 0.47337 0.57279 -0.00273
 H137 H 0.46067 0.49864 -0.18774
 H138 H 0.53993 0.60155 -0.00302
 H139 H 0.46074 0.50010 0.18470
 H140 H 0.54024 0.39719 -0.00041
 H141 H 0.48634 0.65494 -0.08165
 H142 H 0.48610 0.65568 0.07512
 H143 H 0.51323 0.54312 0.28196
 H144 H 0.51338 0.45773 0.28306
 H145 H 0.48720 0.34427 0.07186
 H146 H 0.50185 0.34183 -0.16143
 H147 H 0.49438 0.46043 -0.28552
 H148 H 0.51396 0.54011 -0.28586
 C149 C 0.29735 0.29382 0.39984
 C150 C 0.31762 0.31274 0.35732
 C151 C 0.34143 0.33512 0.30816
 C152 C 0.36183 0.35447 0.26689
 C153 C 0.38583 0.37748 0.21959
 C154 C 0.40643 0.39749 0.18034
 C155 C -0.20343 0.79689 0.40135
 C156 C -0.18315 0.81699 0.36093
 C157 C -0.15916 0.84061 0.31503
 C158 C -0.13852 0.86075 0.27645
 C159 C -0.11426 0.88419 0.23155
 C160 C -0.09351 0.90400 0.19295
 C161 C 0.70309 0.70420 0.40155
 C162 C 0.68294 0.68445 0.35975
 C163 C 0.65909 0.66117 0.31228
 C164 C 0.63857 0.64123 0.27257
 C165 C 0.61440 0.61788 0.22670
 C166 C 0.59370 0.59800 0.18778
 C167 C 0.20227 1.20630 0.40264
 C168 C 0.18202 1.18758 0.35989
 C169 C 0.15826 1.16542 0.31050
 C170 C 0.13790 1.14620 0.26907
 C171 C 0.11394 1.12330 0.22169
 C172 C 0.09338 1.10331 0.18245
 C173 C 0.70406 0.29525 -0.40152
 C174 C 0.68368 0.31505 -0.36082
 C175 C 0.65957 0.33840 -0.31467
 C176 C 0.63884 0.35837 -0.27600
 C177 C 0.61448 0.38172 -0.23106
 C178 C 0.59368 0.40155 -0.19253
 C179 C 0.20255 0.79451 -0.39766
 C180 C 0.18228 0.81339 -0.35524
 C181 C 0.15845 0.83575 -0.30644
 C182 C 0.13801 0.85513 -0.26559
 C183 C 0.11397 0.87820 -0.21890
 C184 C 0.09334 0.89831 -0.18018
 C185 C 0.29746 0.70624 -0.40173
 C186 C 0.31778 0.68713 -0.35969
 C187 C 0.34166 0.66455 -0.31113
 C188 C 0.36211 0.64506 -0.27035
 C189 C 0.38616 0.62192 -0.22353
 C190 C 0.40679 0.60181 -0.18458
 C191 C -0.20335 1.20473 -0.40051
 C192 C -0.18313 1.18503 -0.35916
 C193 C -0.15918 1.16182 -0.31233
 C194 C -0.13858 1.14193 -0.27319
 C195 C -0.11433 1.11866 -0.22793
 C196 C -0.09358 1.09885 -0.18933
 C197 C 0.70308 0.70349 -0.40419
 C198 C 0.68293 0.68350 -0.36299
 C199 C 0.65909 0.66000 -0.31616
 C200 C 0.63856 0.63994 -0.27690
 C201 C 0.61440 0.61654 -0.23143
 C202 C 0.59369 0.59671 -0.19266
 C203 C 0.20240 1.20608 -0.40230
 C204 C 0.18219 1.18734 -0.35920
 C205 C 0.15845 1.16521 -0.30936
 C206 C 0.13811 1.14606 -0.26754
 C207 C 0.11415 1.12326 -0.21972
 C208 C 0.09356 1.10338 -0.18022
 C209 C 0.29753 0.29339 -0.40107
 C210 C 0.31788 0.31211 -0.35879
 C211 C 0.34175 0.33427 -0.30995
 C212 C 0.36221 0.35348 -0.26893
 C213 C 0.38624 0.37637 -0.22195
 C214 C 0.40686 0.39635 -0.18294
 C215 C -0.20345 0.79616 -0.40055
 C216 C -0.18321 0.81600 -0.35938
 C217 C -0.15925 0.83940 -0.31259
 C218 C -0.13866 0.85941 -0.27340
 C219 C -0.11442 0.88282 -0.22801
 C220 C -0.09368 0.90271 -0.18932
 C221 C 0.29843 0.70576 0.40113
 C222 C 0.31852 0.68699 0.35781
 C223 C 0.34210 0.66477 0.30772
 C224 C 0.36233 0.64551 0.26574
 C225 C 0.38615 0.62254 0.21785
 C226 C 0.40664 0.60249 0.17839
 C227 C -0.20322 1.20464 0.40526
 C228 C -0.18302 1.18494 0.36364
 C229 C -0.15914 1.16174 0.31616
 C230 C -0.13861 1.14190 0.27635
 C231 C -0.11444 1.11869 0.23027
 C232 C -0.09373 1.09894 0.19115
 C233 C 0.70309 0.29640 0.40238
 C234 C 0.68291 0.31613 0.36098
 C235 C 0.65903 0.33936 0.31392
 C236 C 0.63849 0.35923 0.27447
 C237 C 0.61431 0.38244 0.22880
 C238 C 0.59361 0.40215 0.18986
 C239 C 0.20239 0.79518 0.40321
 C240 C 0.18214 0.81424 0.36088
 C241 C 0.15836 0.83671 0.31176
 C242 C 0.13800 0.85609 0.27041
 C243 C 0.11404 0.87907 0.22291
 C244 C 0.09347 0.89901 0.18346
   
