data_POSCAR
  _audit_creation_date              2014-09-24
  _audit_creation_method            'ToBaCCo'
  _symmetry_space_group_name_H-M    'P1'
  _symmetry_Int_Tables_number       1
  _symmetry_cell_setting            triclinic
  loop_
  _symmetry_equiv_pos_as_xyz
 x,y,z
_cell_length_a 26.5064
_cell_length_b 25.3713
_cell_length_c 25.0770
_cell_angle_alpha 89.849800
_cell_angle_beta 90.290300
_cell_angle_gamma 89.969700
loop_
  _atom_site_label
  _atom_site_type_symbol
  _atom_site_fract_x
  _atom_site_fract_y
  _atom_site_fract_z
C1 C 1.18407 0.27151 0.33710
 H2 H 1.19003 0.23020 0.34564
 C3 C 1.15128 0.30081 0.36893
 H4 H 1.13171 0.28150 0.40135
 C5 C 1.20264 0.34699 0.28506
 H6 H 1.22291 0.36525 0.25279
 C7 C 1.16955 0.37752 0.31529
 H8 H 1.16459 0.41883 0.30558
 N9 N 1.20854 0.29464 0.29559
 C10 C 1.21021 0.21055 0.15415
 H11 H 1.23597 0.23684 0.13434
 C12 C 1.17767 0.17972 0.12335
 H13 H 1.17803 0.18355 0.08032
 C14 C 1.17886 0.17219 0.23354
 H15 H 1.17956 0.16926 0.27650
 C16 C 1.14674 0.13954 0.20417
 H17 H 1.12230 0.11220 0.22490
 Zn18 Zn 1.25050 0.25186 0.25173
 N19 N 1.20925 0.20751 0.20839
 C20 C 1.30571 0.16078 0.27584
 N21 N 1.29166 0.20852 0.29515
 C22 C 1.30868 0.22611 0.34313
 C23 C 1.34165 0.19523 0.37367
 C24 C 1.33851 0.12858 0.30493
 C25 C 1.27218 0.32578 0.16984
 C26 C 1.30288 0.35659 0.13725
 C27 C 1.37562 0.32536 0.18641
 C28 C 1.34361 0.29409 0.21728
 N29 N 1.29284 0.29485 0.20864
 H30 H 1.29212 0.14803 0.23725
 H31 H 1.29733 0.26456 0.35724
 H32 H 1.35506 0.21050 0.41148
 H33 H 1.34938 0.09098 0.28811
 H34 H 1.23172 0.32629 0.16399
 H35 H 1.28572 0.38085 0.10653
 H36 H 1.41586 0.32470 0.19405
 H37 H 1.35942 0.26953 0.24840
 C38 C 1.14526 0.14400 0.14846
 C39 C 1.14310 0.35432 0.35752
 C40 C 1.35521 0.35676 0.14564
 C41 C 1.35761 0.14583 0.35442
 C42 C 0.69270 -0.22418 0.34203
 H43 H 0.70556 -0.26208 0.35654
 C44 C 0.65979 -0.19402 0.37273
 H45 H 0.64767 -0.20889 0.41110
 C46 C 0.69147 -0.15964 0.27346
 H47 H 0.70345 -0.14698 0.23431
 C48 C 0.65859 -0.12819 0.30285
 H49 H 0.64553 -0.09120 0.28612
 N50 N 0.70764 -0.20665 0.29334
 C51 C 0.72712 -0.32329 0.16860
 H52 H 0.76750 -0.32283 0.16253
 C53 C 0.69677 -0.35558 0.13706
 H54 H 0.71411 -0.37971 0.10666
 C55 C 0.65573 -0.29342 0.21637
 H56 H 0.63986 -0.26916 0.24741
 C57 C 0.62406 -0.32618 0.18649
 H58 H 0.58398 -0.32683 0.19463
 Zn59 Zn 0.74871 -0.24947 0.25014
 N60 N 0.70633 -0.29267 0.20714
 C61 C 0.79587 -0.34510 0.28408
 N62 N 0.79093 -0.29260 0.29412
 C63 C 0.81632 -0.26973 0.33529
 C64 C 0.84900 -0.29949 0.36729
 C65 C 0.82884 -0.37609 0.31447
 C66 C 0.78893 -0.20760 0.15298
 C67 C 0.82168 -0.17676 0.12261
 C68 C 0.85218 -0.13665 0.20376
 C69 C 0.81979 -0.16923 0.23270
 N70 N 0.78965 -0.20464 0.20721
 H71 H 0.77483 -0.36320 0.25215
 H72 H 0.81107 -0.22832 0.34354
 H73 H 0.86926 -0.28040 0.39949
 H74 H 0.83300 -0.41753 0.30518
 H75 H 0.76332 -0.23392 0.13287
 H76 H 0.82160 -0.18062 0.07960
 H77 H 0.87653 -0.10937 0.22480
 H78 H 0.81880 -0.16628 0.27562
 C79 C 0.64465 -0.35754 0.14618
 C80 C 0.64200 -0.14561 0.35291
 C81 C 0.85409 -0.14117 0.14812
 C82 C 0.85615 -0.35319 0.35639
 C83 C 0.70697 0.28745 -0.15727
 H84 H 0.73008 0.25798 -0.13784
 C85 C 0.67557 0.31947 -0.12668
 H86 H 0.67532 0.31498 -0.08371
 C87 C 0.67886 0.32947 -0.23660
 H88 H 0.68064 0.33318 -0.27954
 C89 C 0.64572 0.36111 -0.20767
 H90 H 0.62245 0.38975 -0.22840
 N91 N 0.70814 0.29302 -0.21123
 C92 C 0.72733 0.16841 -0.33013
 H93 H 0.76775 0.16319 -0.33219
 C94 C 0.69578 0.13683 -0.36149
 H95 H 0.71190 0.10809 -0.38835
 C96 C 0.65645 0.20993 -0.29117
 H97 H 0.64076 0.23730 -0.26297
 C98 C 0.62373 0.17941 -0.32182
 H99 H 0.58333 0.18414 -0.31755
 Zn100 Zn 0.74975 0.24898 -0.25355
 N101 N 0.70737 0.20484 -0.29633
 C102 C 0.79011 0.15346 -0.21060
 N103 N 0.79199 0.20707 -0.20876
 C104 C 0.82485 0.23223 -0.17561
 C105 C 0.85755 0.20338 -0.14281
 C106 C 0.82323 0.12314 -0.17969
 C107 C 0.80532 0.27881 -0.34659
 C108 C 0.83903 0.30966 -0.37574
 C109 C 0.84193 0.37131 -0.30260
 C110 C 0.80878 0.33868 -0.27451
 N111 N 0.79151 0.29310 -0.29650
 H112 H 0.76322 0.13393 -0.23621
 H113 H 0.82561 0.27482 -0.17462
 H114 H 0.88366 0.22402 -0.11690
 H115 H 0.82192 0.08056 -0.18232
 H116 H 0.79099 0.24313 -0.36409
 H117 H 0.84988 0.29648 -0.41512
 H118 H 0.85537 0.40703 -0.28368
 H119 H 0.79721 0.34952 -0.23473
 C120 C 0.64351 0.14280 -0.35751
 C121 C 0.64417 0.35639 -0.15203
 C122 C 0.85848 0.35648 -0.35370
 C123 C 0.85743 0.14819 -0.14535
 C124 C 1.17660 -0.22966 -0.17023
 H125 H 1.17908 -0.27199 -0.16556
 C126 C 1.14377 -0.20076 -0.13820
 H127 H 1.12113 -0.22106 -0.10877
 C128 C 1.20182 -0.15204 -0.21557
 H129 H 1.22361 -0.13328 -0.24652
 C130 C 1.16866 -0.12180 -0.18522
 H131 H 1.16582 -0.07982 -0.19259
 N132 N 1.20577 -0.20490 -0.20709
 C133 C 1.20726 -0.34456 -0.28215
 H134 H 1.23059 -0.36204 -0.25137
 C135 C 1.17467 -0.37636 -0.31208
 H136 H 1.17334 -0.41837 -0.30444
 C137 C 1.17882 -0.26835 -0.32828
 H138 H 1.18007 -0.22604 -0.33359
 C139 C 1.14674 -0.29873 -0.35991
 H140 H 1.12326 -0.27949 -0.38960
 Zn141 Zn 1.24964 -0.24679 -0.24892
 N142 N 1.20872 -0.29160 -0.29083
 C143 C 1.32916 -0.31624 -0.23186
 N144 N 1.29401 -0.28707 -0.20580
 C145 C 1.29188 -0.28660 -0.15160
 C146 C 1.32413 -0.31868 -0.12162
 C147 C 1.36298 -0.34789 -0.20336
 C148 C 1.29475 -0.21426 -0.34607
 C149 C 1.32750 -0.18451 -0.37750
 C150 C 1.35072 -0.13444 -0.29928
 C151 C 1.31830 -0.16578 -0.26919
 N152 N 1.29052 -0.20420 -0.29300
 H153 H 1.33047 -0.31529 -0.27496
 H154 H 1.26506 -0.26182 -0.13137
 H155 H 1.32110 -0.31906 -0.07856
 H156 H 1.39003 -0.37174 -0.22472
 H157 H 1.27384 -0.24626 -0.36391
 H158 H 1.33094 -0.19335 -0.41955
 H159 H 1.37258 -0.10404 -0.27965
 H160 H 1.31531 -0.15966 -0.22664
 C161 C 1.14413 -0.35335 -0.35163
 C162 C 1.13954 -0.14616 -0.14568
 C163 C 1.35583 -0.14402 -0.35403
 C164 C 1.35987 -0.35005 -0.14763
 C165 C 0.29759 0.21539 0.65368
 H166 H 0.27815 0.24867 0.63613
 C167 C 0.33025 0.18540 0.62244
 H168 H 0.33510 0.19540 0.58077
 C169 C 0.31740 0.16373 0.72985
 H170 H 0.31295 0.15635 0.77208
 C171 C 0.34974 0.13219 0.69991
 H172 H 0.37005 0.10042 0.71937
 N173 N 0.29164 0.20398 0.70633
 C174 C 0.18154 0.22878 0.83309
 H175 H 0.18675 0.27034 0.84085
 C176 C 0.14889 0.19937 0.86504
 H177 H 0.12971 0.21869 0.89763
 C178 C 0.19885 0.15407 0.77982
 H179 H 0.21770 0.13678 0.74601
 C180 C 0.16499 0.12372 0.80932
 H181 H 0.15892 0.08299 0.79814
 Zn182 Zn 0.25117 0.24710 0.75036
 N183 N 0.20706 0.20545 0.79254
 C184 C 0.18092 0.26879 0.67025
 N185 N 0.21002 0.29196 0.70832
 C186 C 0.20726 0.34468 0.71780
 C187 C 0.17405 0.37628 0.68819
 C188 C 0.14818 0.29902 0.63900
 C189 C 0.29636 0.28482 0.84711
 C190 C 0.32814 0.31756 0.87668
 C191 C 0.36241 0.35138 0.79434
 C192 C 0.32902 0.31897 0.76630
 N193 N 0.29609 0.28740 0.79289
 H194 H 0.18315 0.22664 0.66431
 H195 H 0.22989 0.36207 0.74911
 H196 H 0.17167 0.41806 0.69656
 H197 H 0.12528 0.27981 0.60892
 H198 H 0.27188 0.25774 0.86773
 H199 H 0.32685 0.31629 0.91983
 H200 H 0.38750 0.37729 0.77262
 H201 H 0.32867 0.31957 0.72316
 C202 C 0.13994 0.14611 0.85308
 C203 C 0.35677 0.14326 0.64562
 C204 C 0.36123 0.35168 0.85018
 C205 C 0.14414 0.35336 0.64819
 C206 C 0.80168 0.65747 0.72228
 H207 H 0.78346 0.64081 0.75675
 C208 C 0.83468 0.62620 0.69279
 H209 H 0.84159 0.58589 0.70512
 C210 C 0.81529 0.72988 0.66428
 H211 H 0.80740 0.77027 0.65321
 C212 C 0.84806 0.69980 0.63328
 H213 H 0.86565 0.71761 0.59877
 N214 N 0.79310 0.70856 0.70811
 C215 C 0.65772 0.70192 0.77729
 H216 H 0.64269 0.72252 0.74298
 C217 C 0.62638 0.66833 0.80644
 H218 H 0.58739 0.66359 0.79420
 C219 C 0.72693 0.68178 0.83390
 H220 H 0.76658 0.68580 0.84342
 C221 C 0.69658 0.64974 0.86544
 H222 H 0.71344 0.62984 0.89939
 Zn223 Zn 0.74972 0.75156 0.74964
 N224 N 0.70707 0.70791 0.79132
 C225 C 0.69681 0.84280 0.72042
 N226 N 0.70940 0.79349 0.70411
 C227 C 0.69158 0.77343 0.65744
 C228 C 0.65906 0.80324 0.62536
 C229 C 0.66436 0.87386 0.68968
 C230 C 0.78482 0.79765 0.84759
 C231 C 0.81743 0.82813 0.87871
 C232 C 0.85553 0.86101 0.79797
 C233 C 0.82332 0.82861 0.76846
 N234 N 0.78947 0.79687 0.79350
 H235 H 0.71105 0.85760 0.75798
 H236 H 0.70183 0.73386 0.64572
 H237 H 0.64445 0.78639 0.58878
 H238 H 0.65403 0.91268 0.70378
 H239 H 0.75606 0.77469 0.86703
 H240 H 0.81430 0.82719 0.92175
 H241 H 0.88287 0.88530 0.77742
 H242 H 0.82564 0.82848 0.72548
 C243 C 0.64567 0.64212 0.85152
 C244 C 0.85848 0.64745 0.64786
 C245 C 0.85352 0.85989 0.85379
 C246 C 0.64463 0.85386 0.64183
 C247 C 0.79052 0.20918 0.15368
 H248 H 0.76400 0.23477 0.13378
 C249 C 0.82406 0.17975 0.12298
 H250 H 0.82365 0.18392 0.07998
 C251 C 0.82273 0.17092 0.23310
 H252 H 0.82199 0.16750 0.27601
 C253 C 0.85584 0.13964 0.20384
 H254 H 0.88090 0.11273 0.22462
 N255 N 0.79150 0.20563 0.20792
 C256 C 0.69469 0.22155 0.34333
 H257 H 0.70746 0.25928 0.35811
 C258 C 0.66177 0.19105 0.37378
 H259 H 0.64968 0.20549 0.41225
 C260 C 0.69332 0.15797 0.27419
 H261 H 0.70519 0.14589 0.23487
 C262 C 0.66037 0.12619 0.30334
 H263 H 0.64715 0.08951 0.28628
 Zn264 Zn 0.74974 0.24879 0.25136
 N265 N 0.70953 0.20470 0.29445
 C266 C 0.65587 0.29026 0.21718
 N267 N 0.70656 0.29110 0.20855
 C268 C 0.72693 0.32237 0.17017
 C269 C 0.69604 0.35349 0.13792
 C270 C 0.62361 0.32190 0.18662
 C271 C 0.81699 0.27000 0.33633
 C272 C 0.84921 0.30017 0.36822
 C273 C 0.82771 0.37668 0.31542
 C274 C 0.79511 0.34528 0.28519
 N275 N 0.79110 0.29264 0.29524
 H276 H 0.64037 0.26549 0.24814
 H277 H 0.76737 0.32311 0.16460
 H278 H 0.71303 0.37808 0.10755
 H279 H 0.58342 0.32132 0.19416
 H280 H 0.81251 0.22846 0.34456
 H281 H 0.86987 0.28126 0.40036
 H282 H 0.83118 0.41823 0.30612
 H283 H 0.77366 0.36320 0.25336
 C284 C 0.64378 0.14301 0.35352
 C285 C 0.85740 0.14482 0.14820
 C286 C 0.85546 0.35403 0.35726
 C287 C 0.64380 0.35366 0.14626
 C288 C 0.27358 0.67393 0.16884
 H289 H 0.23317 0.67356 0.16263
 C290 C 0.30437 0.64253 0.13714
 H291 H 0.28731 0.61821 0.10655
 C292 C 0.34472 0.70524 0.21678
 H293 H 0.36036 0.72983 0.24784
 C294 C 0.37685 0.67333 0.18679
 H295 H 0.41702 0.67359 0.19491
 N296 N 0.29404 0.70494 0.20747
 C297 C 0.18489 0.72744 0.33520
 H298 H 0.19071 0.76873 0.34364
 C299 C 0.15223 0.69796 0.36707
 H300 H 0.13264 0.71715 0.39946
 C301 C 0.20365 0.65216 0.28331
 H302 H 0.22395 0.63402 0.25107
 C303 C 0.17061 0.62145 0.31358
 H304 H 0.16572 0.58016 0.30397
 Zn305 Zn 0.25118 0.74775 0.24993
 N306 N 0.20945 0.70448 0.29377
 C307 C 0.17915 0.82701 0.23169
 N308 N 0.20927 0.79169 0.20634
 C309 C 0.20893 0.78808 0.15211
 C310 C 0.17535 0.81835 0.12167
 C311 C 0.14608 0.85910 0.20268
 C312 C 0.30864 0.77357 0.34162
 C313 C 0.34126 0.80437 0.37245
 C314 C 0.33852 0.87132 0.30367
 C315 C 0.30600 0.83920 0.27428
 N316 N 0.29192 0.79132 0.29348
 H317 H 0.18078 0.83034 0.27459
 H318 H 0.23438 0.76173 0.13205
 H319 H 0.17473 0.81415 0.07870
 H320 H 0.12201 0.88653 0.22366
 H321 H 0.29732 0.73502 0.35566
 H322 H 0.35440 0.78893 0.41037
 H323 H 0.34944 0.90902 0.28694
 H324 H 0.29264 0.85210 0.23557
 C325 C 0.14417 0.64447 0.35579
 C326 C 0.35661 0.64180 0.14622
 C327 C 0.35728 0.85389 0.35334
 C328 C 0.14326 0.85412 0.14709
 N329 N 1.05130 -0.05664 -0.09263
 N330 N 1.08424 -0.06820 -0.13009
 N331 N 0.94407 -0.09072 -0.05582
 N332 N 0.90970 -0.12668 -0.06728
 N333 N 0.94556 -0.05450 -0.09330
 N334 N 0.91282 -0.06524 -0.13156
 N335 N 1.05006 -0.09394 -0.05628
 N336 N 1.08182 -0.13214 -0.06836
 C337 C 1.10338 -0.11515 -0.11415
 C338 C 0.89015 -0.10986 -0.11435
 N339 N 0.94670 -0.05526 0.09680
 N340 N 0.91392 -0.06623 0.13470
 N341 N 1.05145 -0.09374 0.05895
 N342 N 1.08488 -0.13096 0.06977
 N343 N 1.05223 -0.05736 0.09614
 N344 N 1.08555 -0.06923 0.13354
 N345 N 0.94504 -0.09114 0.05920
 N346 N 0.91063 -0.12709 0.07018
 Mn347 Mn 0.99761 -0.09289 0.00156
 C348 C 0.89116 -0.11073 0.11713
 C349 C 1.10617 -0.11483 0.11620
 N350 N 0.94722 0.05907 -0.09283
 N351 N 0.91365 0.07056 -0.13018
 N352 N 1.05337 0.09441 -0.05673
 N353 N 1.08417 0.13287 -0.07092
 N354 N 1.05394 0.05636 -0.09208
 N355 N 1.08802 0.06859 -0.13235
 N356 N 0.94804 0.09589 -0.05612
 N357 N 0.91577 0.13384 -0.06804
 Mn358 Mn 0.99951 0.00118 -0.09313
 C359 C 0.89401 0.11707 -0.11391
 C360 C 1.10566 0.11631 -0.11699
 N361 N 1.05418 0.05670 0.09612
 N362 N 1.08700 0.06797 0.13416
 N363 N 0.94838 0.09479 0.05935
 N364 N 0.91459 0.13141 0.07041
 N365 N 0.94882 0.05831 0.09663
 N366 N 0.91594 0.06941 0.13425
 N367 N 1.05476 0.09313 0.05877
 N368 N 1.08856 0.12967 0.07011
 Mn369 Mn 1.00054 0.00061 0.09680
 Mn370 Mn 1.00111 0.09503 0.00143
 Cl371 Cl 0.99970 0.00096 0.00163
 C372 C 1.10874 0.11312 0.11697
 C373 C 0.89440 0.11470 0.11704
 N374 N 1.05255 0.40620 0.56047
 N375 N 1.08521 0.36850 0.57177
 N376 N 0.94749 0.44410 0.59787
 N377 N 0.91318 0.43114 0.63784
 N378 N 0.94664 0.40764 0.56084
 N379 N 0.91348 0.37060 0.57248
 N380 N 1.05378 0.44300 0.59718
 N381 N 1.08770 0.43145 0.63420
 C382 C 1.10738 0.38507 0.61747
 C383 C 0.89290 0.38542 0.61960
 N384 N 0.94862 0.59441 0.55981
 N385 N 0.91596 0.63201 0.57091
 N386 N 1.05480 0.55686 0.59654
 N387 N 1.08819 0.56848 0.63401
 N388 N 1.05420 0.59353 0.55946
 N389 N 1.08671 0.63119 0.57098
 N390 N 0.94857 0.55804 0.59718
 N391 N 0.91555 0.56990 0.63457
 Mn392 Mn 1.00120 0.50047 0.59774
 C393 C 0.89512 0.61592 0.61731
 C394 C 1.10820 0.61470 0.61714
 N395 N 0.94599 0.40698 0.44585
 N396 N 0.91326 0.36944 0.43453
 N397 N 1.05200 0.44259 0.40828
 N398 N 1.08552 0.43128 0.37122
 N399 N 1.05166 0.40589 0.44532
 N400 N 1.08460 0.36849 0.43419
 N401 N 0.94567 0.44347 0.40859
 N402 N 0.91228 0.43177 0.37114
 Mn403 Mn 0.99920 0.40633 0.50314
 C404 C 0.89194 0.38574 0.38823
 C405 C 1.10594 0.38517 0.38820
 N406 N 1.05322 0.59334 0.44442
 N407 N 1.08634 0.63040 0.43285
 N408 N 0.94661 0.55752 0.40802
 N409 N 0.91294 0.56910 0.37078
 N410 N 0.94755 0.59431 0.44477
 N411 N 0.91490 0.63200 0.43327
 N412 N 1.05297 0.55662 0.40760
 N413 N 1.08629 0.56766 0.37018
 Mn414 Mn 1.00089 0.59422 0.50212
 Mn415 Mn 0.99931 0.50005 0.40759
 Cl416 Cl 1.00016 0.50027 0.50262
 C417 C 1.10721 0.61358 0.38680
 C418 C 0.89306 0.61544 0.38739
 N419 N 0.44699 -0.05760 0.59309
 N420 N 0.41458 -0.06867 0.63124
 N421 N 0.55147 -0.09512 0.55467
 N422 N 0.58489 -0.13230 0.56546
 N423 N 0.55269 -0.05834 0.59137
 N424 N 0.58694 -0.06948 0.62803
 N425 N 0.44547 -0.09375 0.55571
 N426 N 0.41169 -0.13016 0.56730
 C427 C 0.39236 -0.11366 0.61427
 C428 C 0.60716 -0.11544 0.61106
 N429 N 0.54993 -0.05808 0.40283
 N430 N 0.58350 -0.06917 0.36579
 N431 N 0.44407 -0.09394 0.44046
 N432 N 0.41215 -0.13200 0.42797
 N433 N 0.44373 -0.05691 0.40382
 N434 N 0.40944 -0.07005 0.36372
 N435 N 0.54988 -0.09473 0.43992
 N436 N 0.58343 -0.13156 0.42920
 Mn437 Mn 0.49765 -0.09484 0.49771
 C438 C 0.60451 -0.11487 0.38311
 C439 C 0.39078 -0.11681 0.38104
 N440 N 0.55351 0.05510 0.59137
 N441 N 0.58799 0.06559 0.62797
 N442 N 0.44658 0.09239 0.55583
 N443 N 0.41309 0.12914 0.56729
 N444 N 0.44764 0.05606 0.59321
 N445 N 0.41514 0.06730 0.63122
 N446 N 0.55268 0.09203 0.55461
 N447 N 0.58659 0.12865 0.56522
 Mn448 Mn 0.50025 -0.00119 0.59271
 C449 C 0.60902 0.11091 0.61037
 C450 C 0.39339 0.11266 0.61419
 N451 N 0.44443 0.05628 0.40394
 N452 N 0.40981 0.06971 0.36421
 N453 N 0.55096 0.09243 0.44005
 N454 N 0.58496 0.12887 0.42954
 N455 N 0.55064 0.05608 0.40287
 N456 N 0.58443 0.06704 0.36591
 N457 N 0.44514 0.09308 0.44061
 N458 N 0.41314 0.13128 0.42850
 Mn459 Mn 0.49731 -0.00065 0.40279
 Mn460 Mn 0.49875 0.09294 0.49780
 Cl461 Cl 0.49847 -0.00095 0.49771
 C462 C 0.39137 0.11640 0.38176
 C463 C 0.60595 0.11231 0.38345
 N464 N 0.59070 0.55226 0.05594
 N465 N 0.62769 0.58481 0.06811
 N466 N 0.55458 0.44216 0.09196
 N467 N 0.56696 0.40887 0.13049
 N468 N 0.58920 0.44221 0.05467
 N469 N 0.62609 0.40955 0.06704
 N470 N 0.55569 0.55309 0.09280
 N471 N 0.56796 0.58666 0.13095
 C472 C 0.61273 0.60660 0.11454
 C473 C 0.61137 0.38834 0.11388
 N474 N 0.41100 0.44406 0.05366
 N475 N 0.37333 0.41245 0.06606
 N476 N 0.44634 0.55416 0.09214
 N477 N 0.43375 0.58685 0.13084
 N478 N 0.41151 0.55411 0.05469
 N479 N 0.37436 0.58629 0.06702
 N480 N 0.44572 0.44325 0.09123
 N481 N 0.43273 0.41049 0.12982
 Mn482 Mn 0.50060 0.49824 0.09255
 C483 C 0.38779 0.39105 0.11314
 C484 C 0.38903 0.60712 0.11412
 N485 N 0.58927 0.44352 -0.05997
 N486 N 0.62556 0.41000 -0.07174
 N487 N 0.55622 0.55627 -0.09593
 N488 N 0.56990 0.58934 -0.13408
 N489 N 0.59080 0.55409 -0.05832
 N490 N 0.63092 0.58676 -0.07148
 N491 N 0.55570 0.44575 -0.09863
 N492 N 0.56886 0.41430 -0.13813
 Mn493 Mn 0.59019 0.49790 -0.00199
 C494 C 0.61203 0.39156 -0.12024
 C495 C 0.61563 0.60803 -0.11834
 N496 N 0.41233 0.55626 -0.05970
 N497 N 0.37654 0.59089 -0.07035
 N498 N 0.44623 0.44646 -0.09914
 N499 N 0.43468 0.41252 -0.13717
 N500 N 0.41213 0.44531 -0.06131
 N501 N 0.37701 0.41010 -0.07214
 N502 N 0.44677 0.55670 -0.09716
 N503 N 0.43476 0.59108 -0.13479
 Mn504 Mn 0.41146 0.49985 -0.00328
 Mn505 Mn 0.50119 0.50138 -0.09823
 Cl506 Cl 0.50084 0.49931 -0.00269
 C507 C 0.39129 0.61274 -0.11695
 C508 C 0.39180 0.38958 -0.11926
   
