data_POSCAR
  _audit_creation_date              2014-09-24
  _audit_creation_method            'ToBaCCo'
  _symmetry_space_group_name_H-M    'P1'
  _symmetry_Int_Tables_number       1
  _symmetry_cell_setting            triclinic
  loop_
  _symmetry_equiv_pos_as_xyz
 x,y,z
_cell_length_a 26.9102
_cell_length_b 27.9639
_cell_length_c 27.7027
_cell_angle_alpha 88.052000
_cell_angle_beta 94.887600
_cell_angle_gamma 82.652100
loop_
  _atom_site_label
  _atom_site_type_symbol
  _atom_site_fract_x
  _atom_site_fract_y
  _atom_site_fract_z
C1 C -0.00714 0.44280 0.20762
 C2 C 0.03174 0.43961 0.25164
 C3 C 0.03091 0.48037 0.27716
 C4 C -0.01055 0.52101 0.25707
 C5 C -0.05737 0.45681 0.22956
 C6 C -0.05924 0.49767 0.25492
 C7 C 0.00154 0.48792 0.17812
 C8 C -0.00063 0.52870 0.20381
 H9 H 0.06012 0.40863 0.25983
 H10 H -0.01213 0.55416 0.27817
 H11 H -0.08699 0.43417 0.23033
 H12 H 0.00753 0.48775 0.13995
 C13 C 0.03650 0.44867 0.79956
 C14 C -0.00143 0.45086 0.75865
 C15 C -0.00907 0.49536 0.73040
 C16 C 0.02511 0.52927 0.74783
 C17 C 0.08163 0.45799 0.77742
 C18 C 0.07597 0.50256 0.74907
 C19 C 0.02276 0.49090 0.82699
 C20 C 0.01749 0.53581 0.79928
 H21 H -0.02485 0.42250 0.75253
 H22 H 0.02101 0.56330 0.72552
 H23 H 0.11304 0.43063 0.77347
 H24 H 0.01838 0.48842 0.86548
 C25 C 0.21856 0.03908 0.46231
 C26 C 0.25674 0.07480 0.46780
 C27 C 0.28811 0.06819 0.50915
 C28 C 0.27892 0.02482 0.54218
 C29 C 0.24967 -0.01071 0.46814
 C30 C 0.28028 -0.01934 0.50985
 C31 C 0.19129 0.04299 0.50933
 C32 C 0.22285 0.03536 0.55123
 H33 H 0.25642 0.10532 0.44252
 H34 H 0.30520 0.01854 0.57556
 H35 H 0.24240 -0.03937 0.44414
 H36 H 0.15098 0.04976 0.51007
 C37 C 0.75680 -0.01024 0.42629
 C38 C 0.74065 -0.05742 0.42695
 C39 C 0.71450 -0.06837 0.46752
 C40 C 0.70738 -0.02847 0.50019
 C41 C 0.71002 0.02566 0.43124
 C42 C 0.68352 0.01710 0.46942
 C43 C 0.78776 -0.00805 0.47575
 C44 C 0.76155 -0.01803 0.51475
 H45 H 0.75077 -0.08368 0.40035
 H46 H 0.68567 -0.03599 0.53128
 H47 H 0.70533 0.06071 0.41228
 H48 H 0.82604 0.00026 0.47953
 C49 C 0.41427 0.25089 1.01152
 C50 C 0.41744 0.28505 1.04955
 C51 C 0.45748 0.31345 1.04731
 C52 C 0.48740 0.30282 1.00631
 C53 C 0.41165 0.27931 0.96656
 C54 C 0.45145 0.30820 0.96273
 C55 C 0.46467 0.22217 1.01487
 C56 C 0.50576 0.25097 1.01169
 H57 H 0.39651 0.28379 1.08130
 H58 H 0.51599 0.32761 1.00430
 H59 H 0.38643 0.27256 0.93560
 H60 H 0.47160 0.18388 1.02337
 C61 C 0.47479 0.75869 0.97981
 C62 C 0.48055 0.71463 0.94875
 C63 C 0.52415 0.68405 0.95963
 C64 C 0.55861 0.70098 1.00139
 C65 C 0.48074 0.73635 1.03147
 C66 C 0.52471 0.70721 1.04361
 C67 C 0.51943 0.78135 0.97487
 C68 C 0.56611 0.75030 0.98674
 H69 H 0.45316 0.70877 0.91947
 H70 H 0.59337 0.67570 1.01146
 H71 H 0.45089 0.74037 1.05548
 H72 H 0.51695 0.81754 0.95891
 B73 B 0.98751 1.04496 0.01990
 B74 B 0.98552 1.04701 -0.04264
 B75 B 1.04051 1.02323 -0.00887
 B76 B 1.02394 0.99296 0.04136
 B77 B 0.95894 0.99591 0.03758
 B78 B 0.93466 1.03072 -0.01475
 B79 B 0.99138 0.94637 -0.04236
 B80 B 0.99324 0.94419 0.02046
 B81 B 0.93910 0.96799 -0.01433
 B82 B 0.95529 1.00039 -0.06402
 B83 B 1.02018 0.99496 -0.06044
 B84 B 1.04334 0.96080 -0.00820
 B85 B 0.55684 0.49592 0.47364
 B86 B 0.56634 0.49266 0.53579
 B87 B 0.54125 0.54665 0.50506
 B88 B 0.50112 0.53345 0.45733
 B89 B 0.50058 0.47177 0.45677
 B90 B 0.54187 0.44600 0.50567
 B91 B 0.46261 0.50372 0.54241
 B92 B 0.45236 0.50770 0.48007
 B93 B 0.47752 0.45318 0.50958
 B94 B 0.51795 0.46594 0.55822
 B95 B 0.51727 0.52758 0.55897
 B96 B 0.47698 0.55399 0.51121
 C97 C 1.05258 1.32949 0.15012
 C98 C 1.01140 1.30349 0.14018
 C99 C 0.96264 1.32750 0.14589
 C100 C 0.95624 1.37372 0.16438
 C101 C 0.99786 1.39686 0.17914
 C102 C 1.04569 1.37541 0.16884
 C103 C 0.92025 1.30512 0.13381
 C104 C 0.92499 1.25850 0.11801
 C105 C 0.97268 1.23188 0.11464
 C106 C 1.01666 1.25485 0.12474
 C107 C 1.06412 1.22803 0.11973
 C108 C 1.06814 1.18115 0.10349
 C109 C 1.02521 1.15915 0.09208
 C110 C 0.97754 1.18335 0.09993
 C111 C 0.93682 1.15676 0.09465
 C112 C 0.94215 1.11227 0.07361
 C113 C 0.98617 1.09302 0.05403
 C114 C 1.02916 1.11307 0.07249
 H115 H 1.09064 1.31520 0.14446
 H116 H 0.91847 1.39093 0.16769
 H117 H 1.07842 1.39356 0.17713
 H118 H 0.88283 1.32377 0.13685
 H119 H 0.89029 1.24441 0.10799
 H120 H 1.09901 1.24239 0.12777
 H121 H 1.10513 1.16231 0.09905
 H122 H 0.90039 1.16915 0.10644
 H123 H 0.90985 1.09496 0.07073
 H124 H 1.06591 1.09284 0.07318
 C125 C 1.05189 0.62767 0.13638
 C126 C 1.01562 0.66828 0.14112
 C127 C 0.97279 0.66109 0.16559
 C128 C 0.96852 0.61575 0.18697
 C129 C 1.00497 0.57630 0.18218
 C130 C 1.04625 0.58235 0.15630
 C131 C 0.93420 0.69901 0.16818
 C132 C 0.93646 0.74385 0.14596
 C133 C 0.97863 0.75310 0.12184
 C134 C 1.01990 0.71541 0.12161
 C135 C 1.06452 0.72644 0.10307
 C136 C 1.06813 0.77230 0.08410
 C137 C 1.02691 0.80846 0.08098
 C138 C 0.98150 0.79910 0.09880
 C139 C 0.94080 0.83620 0.09228
 C140 C 0.94545 0.88021 0.06899
 C141 C 0.99054 0.89101 0.05052
 C142 C 1.03120 0.85381 0.05946
 H143 H 1.08425 0.62942 0.11631
 H144 H 0.93606 0.61077 0.20630
 H145 H 1.07454 0.55195 0.15194
 H146 H 0.90142 0.69374 0.18692
 H147 H 0.90511 0.77115 0.14969
 H148 H 1.09807 0.70071 0.10424
 H149 H 1.10343 0.77923 0.07085
 H150 H 0.90427 0.83224 0.10390
 H151 H 0.91273 0.90638 0.06816
 H152 H 1.06678 0.85729 0.04836
 C153 C 1.08355 1.32632 -0.14107
 C154 C 1.03739 1.30869 -0.13537
 C155 C 0.99310 1.34228 -0.13990
 C156 C 0.99463 1.38974 -0.15636
 C157 C 1.03939 1.40424 -0.17130
 C158 C 1.08452 1.37334 -0.15867
 C159 C 0.94713 1.32791 -0.13018
 C160 C 0.94361 1.27996 -0.11858
 C161 C 0.98588 1.24442 -0.11795
 C162 C 1.03368 1.25905 -0.12592
 C163 C 1.07577 1.22340 -0.12635
 C164 C 1.07192 1.17528 -0.11667
 C165 C 1.02613 1.16102 -0.10642
 C166 C 0.98225 1.19473 -0.10864
 C167 C 0.93654 1.17644 -0.10280
 C168 C 0.93674 1.12856 -0.08683
 C169 C 0.98201 1.09851 -0.07315
 C170 C 1.02450 1.11316 -0.09187
 H171 H 1.11952 1.30455 -0.13289
 H172 H 0.95989 1.41448 -0.16166
 H173 H 1.12095 1.38441 -0.16293
 H174 H 0.91336 1.35388 -0.13228
 H175 H 0.90703 1.27172 -0.11066
 H176 H 1.11233 1.23140 -0.13450
 H177 H 1.10544 1.14911 -0.11604
 H178 H 0.90030 1.19774 -0.11111
 H179 H 0.90129 1.11496 -0.08860
 H180 H 1.05828 1.08896 -0.09112
 C181 C 1.03962 0.62750 -0.10963
 C182 C 1.02091 0.67112 -0.13578
 C183 C 0.99683 0.66845 -0.18292
 C184 C 0.99597 0.62385 -0.20436
 C185 C 1.01608 0.58064 -0.17863
 C186 C 1.03668 0.58324 -0.13046
 C187 C 0.97353 0.71033 -0.20841
 C188 C 0.97238 0.75476 -0.18747
 C189 C 0.99670 0.75913 -0.14093
 C190 C 1.02421 0.71715 -0.11620
 C191 C 1.05524 0.72281 -0.07359
 C192 C 1.05760 0.76799 -0.05489
 C193 C 1.02714 0.80859 -0.07636
 C194 C 0.99549 0.80433 -0.11872
 C195 C 0.96272 0.84532 -0.13627
 C196 C 0.96222 0.88845 -0.11278
 C197 C 0.99485 0.89502 -0.07184
 C198 C 1.02779 0.85339 -0.05515
 H199 H 1.05581 0.62640 -0.07257
 H200 H 0.97770 0.62319 -0.24054
 H201 H 1.05337 0.55128 -0.10902
 H202 H 0.95521 0.70865 -0.24461
 H203 H 0.95387 0.78552 -0.20948
 H204 H 1.07973 0.69310 -0.05500
 H205 H 1.08254 0.77093 -0.02259
 H206 H 0.93512 0.84469 -0.16678
 H207 H 0.93550 0.91606 -0.12817
 H208 H 1.05485 0.85441 -0.02565
 C209 C 1.10896 1.05475 0.36102
 C210 C 1.13446 1.04374 0.31919
 C211 C 1.18764 1.03478 0.32532
 C212 C 1.21354 1.03665 0.37121
 C213 C 1.18786 1.04501 0.41287
 C214 C 1.13519 1.05507 0.40692
 C215 C 1.21492 1.02241 0.28597
 C216 C 1.19064 1.01705 0.24063
 C217 C 1.13770 1.02507 0.23238
 C218 C 1.10919 1.04010 0.27195
 C219 C 1.05645 1.05080 0.26288
 C220 C 1.03230 1.04543 0.21744
 C221 C 1.05944 1.02837 0.17937
 C222 C 1.11219 1.01839 0.18597
 C223 C 1.13693 1.00336 0.14517
 C224 C 1.10994 0.99602 0.10117
 C225 C 1.05695 1.00050 0.09486
 C226 C 1.03358 1.02203 0.13435
 H227 H 1.06859 1.06181 0.35990
 H228 H 1.25429 1.02919 0.37508
 H229 H 1.11349 1.06254 0.43741
 H230 H 1.25567 1.01558 0.29054
 H231 H 1.21470 1.00640 0.21269
 H232 H 1.03256 1.06385 0.29016
 H233 H 0.99168 1.05389 0.21234
 H234 H 1.17730 0.99742 0.14554
 H235 H 1.13239 0.98768 0.07232
 H236 H 0.99472 1.03696 0.13045
 C237 C 1.21555 1.04504 -0.31269
 C238 C 1.17161 1.02395 -0.30444
 C239 C 1.14477 1.00702 -0.34535
 C240 C 1.16117 1.01154 -0.39202
 C241 C 1.20468 1.03250 -0.39949
 C242 C 1.23171 1.04897 -0.35932
 C243 C 1.10162 0.98547 -0.33969
 C244 C 1.08402 0.98031 -0.29440
 C245 C 1.10891 0.99667 -0.25235
 C246 C 1.15328 1.01911 -0.25739
 C247 C 1.17731 1.03636 -0.21530
 C248 C 1.15813 1.03284 -0.17030
 C249 C 1.11451 1.01163 -0.16500
 C250 C 1.09016 0.99235 -0.20561
 C251 C 1.04758 0.96988 -0.19757
 C252 C 1.02826 0.97006 -0.15249
 C253 C 1.04883 0.99257 -0.11217
 C254 C 1.09458 1.01061 -0.11937
 H255 H 1.23849 1.05870 -0.28392
 H256 H 1.14046 0.99760 -0.42255
 H257 H 1.26535 1.06551 -0.36397
 H258 H 1.08093 0.97250 -0.37081
 H259 H 1.05005 0.96382 -0.29389
 H260 H 1.21081 1.05360 -0.21599
 H261 H 1.17745 1.04748 -0.13933
 H262 H 1.02732 0.95239 -0.22555
 H263 H 0.99430 0.95510 -0.15150
 H264 H 1.11467 1.02623 -0.09089
 C265 C 0.76542 1.02375 0.29296
 C266 C 0.81643 1.01038 0.28650
 C267 C 0.84874 0.98924 0.32693
 C268 C 0.83066 0.98527 0.37307
 C269 C 0.77981 0.99995 0.37912
 C270 C 0.74748 1.01732 0.33777
 C271 C 0.89825 0.97070 0.32048
 C272 C 0.91531 0.97033 0.27442
 C273 C 0.88392 0.99061 0.23333
 C274 C 0.83531 1.01442 0.24028
 C275 C 0.80729 1.04180 0.20093
 C276 C 0.82527 1.04356 0.15547
 C277 C 0.87078 1.01667 0.14706
 C278 C 0.89980 0.98882 0.18557
 C279 C 0.94296 0.95926 0.17451
 C280 C 0.95869 0.96040 0.12814
 C281 C 0.93304 0.99129 0.08970
 C282 C 0.88762 1.01812 0.10040
 H283 H 0.73772 1.03624 0.26328
 H284 H 0.85551 0.96868 0.40357
 H285 H 0.70720 1.02487 0.33928
 H286 H 0.92356 0.95489 0.35103
 H287 H 0.95393 0.95519 0.27218
 H288 H 0.77203 1.06384 0.20477
 H289 H 0.80293 1.06559 0.12647
 H290 H 0.96554 0.93469 0.20102
 H291 H 0.99434 0.93916 0.12422
 H292 H 0.86477 1.04153 0.07325
 C293 C 0.78158 0.94921 -0.35091
 C294 C 0.81017 0.98478 -0.33269
 C295 C 0.82578 1.01759 -0.36680
 C296 C 0.81125 1.01583 -0.41667
 C297 C 0.78146 0.98136 -0.43367
 C298 C 0.76756 0.94772 -0.40043
 C299 C 0.85543 1.05232 -0.35095
 C300 C 0.87168 1.05417 -0.30222
 C301 C 0.85826 1.02157 -0.26700
 C302 C 0.82476 0.98813 -0.28208
 C303 C 0.80687 0.95948 -0.24600
 C304 C 0.82374 0.96117 -0.19726
 C305 C 0.86007 0.99040 -0.18260
 C306 C 0.87765 1.02091 -0.21724
 C307 C 0.91665 1.04701 -0.20127
 C308 C 0.93870 1.04117 -0.15390
 C309 C 0.92275 1.01042 -0.11842
 C310 C 0.88100 0.98700 -0.13395
 H311 H 0.77008 0.92152 -0.32796
 H312 H 0.82204 1.04211 -0.44210
 H313 H 0.74571 0.91981 -0.41277
 H314 H 0.86677 1.07807 -0.37662
 H315 H 0.89406 1.08244 -0.29311
 H316 H 0.77923 0.93559 -0.25427
 H317 H 0.80951 0.93798 -0.17099
 H318 H 0.93411 1.06940 -0.22544
 H319 H 0.97225 1.05768 -0.14785
 H320 H 0.86829 0.96085 -0.10985
 C321 C 1.27675 1.23712 0.00947
 C322 C 1.27588 1.18685 0.00901
 C323 C 1.32296 1.15693 0.01165
 C324 C 1.36865 1.17689 0.01342
 C325 C 1.36904 1.22718 0.01312
 C326 C 1.32198 1.25654 0.01141
 C327 C 1.32438 1.10699 0.01225
 C328 C 1.28037 1.08590 0.00947
 C329 C 1.23249 1.11404 0.00511
 C330 C 1.23008 1.16533 0.00560
 C331 C 1.18198 1.19316 0.00233
 C332 C 1.13797 1.17163 -0.00126
 C333 C 1.13979 1.12158 -0.00215
 C334 C 1.18694 1.09248 0.00052
 C335 C 1.18652 1.04275 -0.00290
 C336 C 1.14180 1.02290 -0.00651
 C337 C 1.09376 1.04985 -0.00626
 C338 C 1.09458 1.10049 -0.00595
 H339 H 1.24315 1.26276 0.00791
 H340 H 1.40327 1.15258 0.01406
 H341 H 1.32014 1.29552 0.01066
 H342 H 1.36008 1.08373 0.01496
 H343 H 1.28552 1.04707 0.01117
 H344 H 1.17683 1.23196 0.00247
 H345 H 1.10206 1.19451 -0.00354
 H346 H 1.22016 1.01764 -0.00432
 H347 H 1.14725 0.98583 -0.01188
 H348 H 1.05974 1.12449 -0.00801
 C349 C 0.64708 1.24288 0.01808
 C350 C 0.66175 1.19497 0.00566
 C351 C 0.62299 1.16559 -0.00362
 C352 C 0.57212 1.18356 0.00033
 C353 C 0.55763 1.23179 0.01155
 C354 C 0.59645 1.26082 0.02055
 C355 C 0.63501 1.11836 -0.01749
 C356 C 0.68432 1.10000 -0.02377
 C357 C 0.72407 1.12805 -0.01575
 C358 C 0.71322 1.17543 0.00139
 C359 C 0.75430 1.20105 0.01401
 C360 C 0.80407 1.18060 0.01052
 C361 C 0.81487 1.13451 -0.00704
 C362 C 0.77471 1.10926 -0.02267
 C363 C 0.78687 1.06690 -0.04685
 C364 C 0.83660 1.04661 -0.04763
 C365 C 0.87734 1.06451 -0.02233
 C366 C 0.86538 1.11303 -0.00913
 H367 H 0.67384 1.26790 0.02520
 H368 H 0.54381 1.16013 -0.00805
 H369 H 0.58893 1.29765 0.03098
 H370 H 0.60586 1.09534 -0.02401
 H371 H 0.69052 1.06280 -0.03341
 H372 H 0.74928 1.23653 0.02830
 H373 H 0.83435 1.20091 0.02206
 H374 H 0.75867 1.04833 -0.06551
 H375 H 0.84099 1.01339 -0.06411
 H376 H 0.89475 1.13531 -0.00261
 C377 C 1.34928 0.82016 -0.08323
 C378 C 1.32607 0.84122 -0.04374
 C379 C 1.35615 0.84204 0.00076
 C380 C 1.40618 0.82048 0.00567
 C381 C 1.42610 0.79314 -0.03132
 C382 C 1.39849 0.79645 -0.07698
 C383 C 1.33557 0.86201 0.04112
 C384 C 1.28451 0.87725 0.03975
 C385 C 1.25245 0.87419 -0.00268
 C386 C 1.27388 0.85970 -0.04610
 C387 C 1.24222 0.86375 -0.08988
 C388 C 1.19124 0.88099 -0.09077
 C389 C 1.16964 0.89251 -0.04790
 C390 C 1.19964 0.88685 -0.00323
 C391 C 1.17529 0.89265 0.03949
 C392 C 1.12476 0.91104 0.03742
 C393 C 1.09635 0.92521 -0.00668
 C394 C 1.11848 0.91100 -0.04932
 H395 H 1.32968 0.81909 -0.11867
 H396 H 1.42844 0.82185 0.03998
 H397 H 1.41412 0.77966 -0.10788
 H398 H 1.35876 0.86394 0.07481
 H399 H 1.27104 0.89225 0.07234
 H400 H 1.25609 0.85532 -0.12436
 H401 H 1.16852 0.88512 -0.12527
 H402 H 1.19436 0.88302 0.07502
 H403 H 1.10792 0.91424 0.07127
 H404 H 1.09657 0.91428 -0.08382
 C405 C 0.70405 0.75460 -0.02363
 C406 C 0.70681 0.80469 -0.02237
 C407 C 0.66198 0.83536 -0.01569
 C408 C 0.61651 0.81685 -0.01289
 C409 C 0.61344 0.76722 -0.01528
 C410 C 0.65837 0.73622 -0.01934
 C411 C 0.66235 0.88476 -0.01148
 C412 C 0.70684 0.90436 -0.01138
 C413 C 0.75266 0.87523 -0.01651
 C414 C 0.75243 0.82549 -0.02578
 C415 C 0.79752 0.79911 -0.03862
 C416 C 0.84122 0.82108 -0.04168
 C417 C 0.84233 0.86905 -0.02907
 C418 C 0.79857 0.89510 -0.01367
 C419 C 0.80295 0.93905 0.00756
 C420 C 0.84738 0.95867 0.00833
 C421 C 0.88904 0.93880 -0.01478
 C422 C 0.88689 0.89103 -0.03004
 H423 H 0.73688 0.72875 -0.02673
 H424 H 0.58381 0.84176 -0.00637
 H425 H 0.65880 0.69770 -0.02076
 H426 H 0.62796 0.90853 -0.00746
 H427 H 0.70416 0.94306 -0.00897
 H428 H 0.79942 0.76190 -0.04822
 H429 H 0.87462 0.80009 -0.05294
 H430 H 0.77308 0.95831 0.02575
 H431 H 0.84694 0.99173 0.02509
 H432 H 0.92009 0.86875 -0.03839
 C433 C 0.81740 0.55807 0.29301
 C434 C 0.80868 0.52645 0.33166
 C435 C 0.84767 0.48851 0.34717
 C436 C 0.89204 0.48179 0.32385
 C437 C 0.89869 0.51176 0.28435
 C438 C 0.86178 0.55051 0.26962
 C439 C 0.84176 0.45624 0.38486
 C440 C 0.79682 0.45867 0.40596
 C441 C 0.75559 0.49375 0.39012
 C442 C 0.76231 0.52977 0.35422
 C443 C 0.72227 0.56729 0.34200
 C444 C 0.67679 0.56856 0.36296
 C445 C 0.66871 0.53176 0.39565
 C446 C 0.70788 0.49394 0.40919
 C447 C 0.69763 0.45755 0.44146
 C448 C 0.65104 0.45886 0.45943
 C449 C 0.61030 0.49488 0.44620
 C450 C 0.62184 0.53289 0.41542
 H451 H 0.78992 0.58770 0.27876
 H452 H 0.92074 0.45161 0.33496
 H453 H 0.86623 0.57365 0.23858
 H454 H 0.87191 0.42794 0.39754
 H455 H 0.79594 0.43231 0.43498
 H456 H 0.72514 0.59661 0.31657
 H457 H 0.64720 0.59809 0.35257
 H458 H 0.72466 0.42690 0.45378
 H459 H 0.64893 0.43081 0.48535
 H460 H 0.59602 0.56554 0.40866
 C461 C 0.13958 0.44434 0.37074
 C462 C 0.16735 0.48369 0.36706
 C463 C 0.14313 0.52664 0.34218
 C464 C 0.09589 0.52717 0.31587
 C465 C 0.07203 0.48546 0.31487
 C466 C 0.09276 0.44534 0.34495
 C467 C 0.16729 0.56792 0.34194
 C468 C 0.21557 0.56709 0.36476
 C469 C 0.24273 0.52397 0.38639
 C470 C 0.21856 0.48131 0.38624
 C471 C 0.24726 0.43690 0.40215
 C472 C 0.29769 0.43430 0.41844
 C473 C 0.32092 0.47596 0.42163
 C474 C 0.29385 0.52138 0.40657
 C475 C 0.31996 0.56183 0.41107
 C476 C 0.36957 0.55705 0.43205
 C477 C 0.39563 0.51268 0.45067
 C478 C 0.37157 0.47205 0.43959
 H479 H 0.15339 0.41208 0.39279
 H480 H 0.07963 0.55879 0.29348
 H481 H 0.07378 0.41348 0.34659
 H482 H 0.14881 0.60117 0.32365
 H483 H 0.23154 0.60043 0.36273
 H484 H 0.23234 0.40297 0.40025
 H485 H 0.31850 0.39929 0.42956
 H486 H 0.30293 0.59790 0.39979
 H487 H 0.38670 0.58895 0.43384
 H488 H 0.39244 0.43673 0.44151
 C489 C 0.87570 0.55806 0.65995
 C490 C 0.85307 0.51813 0.64246
 C491 C 0.88302 0.47249 0.64625
 C492 C 0.93101 0.46665 0.67094
 C493 C 0.95009 0.50511 0.69437
 C494 C 0.92363 0.55156 0.68527
 C495 C 0.86422 0.43213 0.62752
 C496 C 0.81452 0.43493 0.60891
 C497 C 0.78151 0.47833 0.60888
 C498 C 0.80157 0.52126 0.62324
 C499 C 0.76896 0.56524 0.61954
 C500 C 0.71836 0.56697 0.60350
 C501 C 0.69813 0.52498 0.59137
 C502 C 0.72903 0.48012 0.59487
 C503 C 0.70541 0.43853 0.58679
 C504 C 0.65435 0.44219 0.57140
 C505 C 0.62436 0.48708 0.56177
 C506 C 0.64683 0.52768 0.57595
 H507 H 0.85656 0.59444 0.65670
 H508 H 0.95275 0.43109 0.67358
 H509 H 0.93739 0.58262 0.70107
 H510 H 0.88772 0.39751 0.62876
 H511 H 0.80289 0.40222 0.59491
 H512 H 0.78135 0.59914 0.62889
 H513 H 0.69470 0.60154 0.60103
 H514 H 0.72505 0.40249 0.59307
 H515 H 0.63907 0.40909 0.56711
 H516 H 0.62357 0.56197 0.57710
 C517 C 0.14943 0.55093 0.65459
 C518 C 0.19917 0.53079 0.67162
 C519 C 0.20664 0.50743 0.71824
 C520 C 0.16570 0.50042 0.74404
 C521 C 0.11615 0.51651 0.72494
 C522 C 0.10863 0.54414 0.68108
 C523 C 0.25480 0.48953 0.73855
 C524 C 0.29618 0.49270 0.71289
 C525 C 0.29081 0.51323 0.66522
 C526 C 0.24150 0.53205 0.64392
 C527 C 0.23592 0.54906 0.59497
 C528 C 0.27689 0.54681 0.56751
 C529 C 0.32514 0.52894 0.58806
 C530 C 0.33296 0.51347 0.63737
 C531 C 0.38286 0.49884 0.65671
 C532 C 0.42243 0.49680 0.62740
 C533 C 0.41527 0.50842 0.57720
 C534 C 0.36550 0.52588 0.55902
 H535 H 0.14073 0.57159 0.62070
 H536 H 0.17277 0.48199 0.77953
 H537 H 0.07117 0.55782 0.66519
 H538 H 0.26054 0.47193 0.77446
 H539 H 0.33174 0.47652 0.73079
 H540 H 0.19992 0.56256 0.57613
 H541 H 0.27066 0.55904 0.52964
 H542 H 0.39311 0.49032 0.69476
 H543 H 0.45931 0.48934 0.64611
 H544 H 0.35620 0.53531 0.52177
 C545 C 0.55770 0.61118 0.14475
 C546 C 0.53653 0.63467 0.18436
 C547 C 0.51668 0.68403 0.17718
 C548 C 0.51771 0.70815 0.13236
 C549 C 0.53526 0.68354 0.09263
 C550 C 0.55665 0.63533 0.09948
 C551 C 0.49406 0.70888 0.21407
 C552 C 0.48833 0.68525 0.25761
 C553 C 0.50622 0.63588 0.26636
 C554 C 0.53297 0.61078 0.23018
 C555 C 0.55541 0.56284 0.24121
 C556 C 0.55169 0.54024 0.28584
 C557 C 0.52430 0.56391 0.32057
 C558 C 0.49970 0.61114 0.31086
 C559 C 0.46899 0.63116 0.34595
 C560 C 0.46690 0.60677 0.39054
 C561 C 0.49679 0.56232 0.40338
 C562 C 0.52241 0.54051 0.36554
 H563 H 0.57303 0.57358 0.14676
 H564 H 0.50222 0.74596 0.12765
 H565 H 0.57018 0.61551 0.06925
 H566 H 0.47944 0.74684 0.20879
 H567 H 0.47066 0.70701 0.28436
 H568 H 0.57750 0.54217 0.21663
 H569 H 0.57052 0.50374 0.29323
 H570 H 0.44563 0.66549 0.33981
 H571 H 0.44345 0.62525 0.41527
 H572 H 0.54275 0.50463 0.37104
 C573 C 0.59319 0.60619 0.87256
 C574 C 0.55179 0.59278 0.84353
 C575 C 0.50371 0.60030 0.86138
 C576 C 0.49780 0.62118 0.90584
 C577 C 0.53703 0.64257 0.92915
 C578 C 0.58549 0.63209 0.91425
 C579 C 0.46086 0.59202 0.83253
 C580 C 0.46388 0.58282 0.78401
 C581 C 0.51059 0.57795 0.76414
 C582 C 0.55545 0.57690 0.79554
 C583 C 0.60187 0.56116 0.77733
 C584 C 0.60374 0.54840 0.72921
 C585 C 0.56012 0.55517 0.69701
 C586 C 0.51386 0.57285 0.71385
 C587 C 0.47290 0.58652 0.67953
 C588 C 0.47648 0.57731 0.63092
 C589 C 0.51994 0.55156 0.61375
 C590 C 0.56215 0.54318 0.64838
 H591 H 0.63074 0.60204 0.86097
 H592 H 0.46060 0.62702 0.91862
 H593 H 0.61667 0.64737 0.93203
 H594 H 0.42414 0.59672 0.84639
 H595 H 0.42929 0.57876 0.76260
 H596 H 0.63684 0.55649 0.80019
 H597 H 0.63974 0.53472 0.71676
 H598 H 0.43751 0.60457 0.68948
 H599 H 0.44191 0.58666 0.60843
 H600 H 0.59666 0.52457 0.64042
 C601 C 0.52510 0.33171 0.16519
 C602 C 0.48783 0.36209 0.18674
 C603 C 0.44529 0.38381 0.15648
 C604 C 0.43702 0.36961 0.10883
 C605 C 0.47250 0.33680 0.08887
 C606 C 0.51782 0.31998 0.11655
 C607 C 0.41023 0.41815 0.17447
 C608 C 0.41672 0.43182 0.22201
 C609 C 0.45699 0.40919 0.25423
 C610 C 0.49103 0.37153 0.23717
 C611 C 0.52494 0.34284 0.27150
 C612 C 0.52619 0.35186 0.32079
 C613 C 0.49701 0.39221 0.33693
 C614 C 0.46341 0.42197 0.30346
 C615 C 0.43833 0.46408 0.32043
 C616 C 0.44885 0.47727 0.36769
 C617 C 0.48352 0.44913 0.40251
 C618 C 0.50218 0.40361 0.38616
 H619 H 0.55995 0.31642 0.18532
 H620 H 0.40212 0.38321 0.08736
 H621 H 0.54552 0.29396 0.10244
 H622 H 0.37761 0.43490 0.15146
 H623 H 0.38779 0.45826 0.23341
 H624 H 0.54920 0.31173 0.26133
 H625 H 0.55198 0.32839 0.34611
 H626 H 0.41352 0.48995 0.29690
 H627 H 0.43133 0.51262 0.37417
 H628 H 0.51965 0.37543 0.41013
 C629 C 0.42053 0.35614 0.83596
 C630 C 0.46835 0.35893 0.82005
 C631 C 0.51016 0.35462 0.85532
 C632 C 0.50478 0.34037 0.90381
 C633 C 0.45746 0.33155 0.91781
 C634 C 0.41529 0.34326 0.88383
 C635 C 0.55701 0.36350 0.84145
 C636 C 0.56274 0.37714 0.79350
 C637 C 0.52236 0.37932 0.75699
 C638 C 0.47543 0.36701 0.77030
 C639 C 0.43745 0.36130 0.73341
 C640 C 0.44363 0.37118 0.68516
 C641 C 0.48689 0.38907 0.67213
 C642 C 0.52677 0.39344 0.70759
 C643 C 0.56812 0.41395 0.69217
 C644 C 0.56708 0.43352 0.64491
 C645 C 0.52536 0.43379 0.61044
 C646 C 0.48839 0.40605 0.62420
 H647 H 0.38636 0.36456 0.81221
 H648 H 0.53804 0.33336 0.92915
 H649 H 0.37746 0.34206 0.89390
 H650 H 0.58935 0.36060 0.86803
 H651 H 0.59983 0.38393 0.78563
 H652 H 0.40289 0.34788 0.74084
 H653 H 0.41316 0.36700 0.65803
 H654 H 0.60056 0.41815 0.71653
 H655 H 0.59923 0.44954 0.63740
 H656 H 0.45609 0.40368 0.60052
 C657 C 0.73229 0.79702 0.47726
 C658 C 0.68553 0.78725 0.49163
 C659 C 0.64944 0.82726 0.50011
 C660 C 0.66126 0.87473 0.49692
 C661 C 0.70622 0.88401 0.47893
 C662 C 0.74163 0.84457 0.46938
 C663 C 0.60066 0.81991 0.50875
 C664 C 0.58583 0.77443 0.50492
 C665 C 0.62044 0.73417 0.49590
 C666 C 0.67189 0.73951 0.49432
 C667 C 0.70703 0.69702 0.49507
 C668 C 0.69124 0.65098 0.49721
 C669 C 0.63988 0.64613 0.49449
 C670 C 0.60483 0.68829 0.48963
 C671 C 0.55537 0.68349 0.47444
 C672 C 0.53988 0.63841 0.47351
 C673 C 0.56972 0.59620 0.49344
 C674 C 0.62228 0.60025 0.49613
 H675 H 0.76085 0.76859 0.46874
 H676 H 0.63312 0.90467 0.50337
 H677 H 0.77739 0.85039 0.45654
 H678 H 0.57295 0.84996 0.51577
 H679 H 0.54720 0.77094 0.51064
 H680 H 0.74700 0.69860 0.49645
 H681 H 0.71918 0.61924 0.49996
 H682 H 0.52795 0.71434 0.46265
 H683 H 0.50139 0.63953 0.46330
 H684 H 0.64982 0.56861 0.49826
 C685 C 0.63685 0.11892 0.54703
 C686 C 0.61889 0.15520 0.51042
 C687 C 0.61338 0.14091 0.46192
 C688 C 0.62417 0.09240 0.45120
 C689 C 0.64975 0.05855 0.48630
 C690 C 0.65359 0.07152 0.53482
 C691 C 0.60148 0.17546 0.42374
 C692 C 0.59901 0.22423 0.43234
 C693 C 0.60409 0.24018 0.47995
 C694 C 0.60928 0.20541 0.51962
 C695 C 0.60356 0.22218 0.56655
 C696 C 0.59189 0.27140 0.57380
 C697 C 0.58982 0.30561 0.53529
 C698 C 0.60014 0.29022 0.48898
 C699 C 0.60547 0.32566 0.45330
 C700 C 0.59269 0.37456 0.46112
 C701 C 0.57246 0.39061 0.50383
 C702 C 0.57518 0.35489 0.54208
 H703 H 0.64314 0.12740 0.58460
 H704 H 0.61962 0.08241 0.41373
 H705 H 0.67312 0.04636 0.56283
 H706 H 0.59701 0.16468 0.38655
 H707 H 0.59069 0.24915 0.40118
 H708 H 0.60464 0.19766 0.59768
 H709 H 0.58462 0.28276 0.60984
 H710 H 0.61845 0.31630 0.41857
 H711 H 0.59376 0.39942 0.43067
 H712 H 0.56458 0.36360 0.57705
 C713 C 0.27627 0.84714 0.52872
 C714 C 0.32770 0.82795 0.53365
 C715 C 0.36344 0.86105 0.54012
 C716 C 0.34802 0.91145 0.53613
 C717 C 0.29705 0.92955 0.52661
 C718 C 0.26145 0.89692 0.52539
 C719 C 0.41447 0.84362 0.54862
 C720 C 0.43095 0.79430 0.55012
 C721 C 0.39707 0.76019 0.54133
 C722 C 0.34480 0.77731 0.53155
 C723 C 0.31188 0.74354 0.51765
 C724 C 0.32973 0.69502 0.51243
 C725 C 0.38074 0.67768 0.52250
 C726 C 0.41420 0.70969 0.53956
 C727 C 0.46336 0.68946 0.55553
 C728 C 0.47993 0.64120 0.54886
 C729 C 0.45012 0.60994 0.52338
 C730 C 0.39853 0.62861 0.51548
 H731 H 0.24659 0.82460 0.52684
 H732 H 0.37576 0.93640 0.53771
 H733 H 0.22167 0.91014 0.51937
 H734 H 0.44212 0.86842 0.55373
 H735 H 0.47106 0.78403 0.55573
 H736 H 0.27221 0.75400 0.50820
 H737 H 0.30330 0.67092 0.49999
 H738 H 0.48994 0.70990 0.57407
 H739 H 0.51840 0.62926 0.56252
 H740 H 0.37094 0.60603 0.50518
 C741 C 0.39570 0.14186 0.50505
 C742 C 0.37391 0.18779 0.51889
 C743 C 0.32617 0.19045 0.53749
 C744 C 0.30036 0.14958 0.53879
 C745 C 0.32118 0.10537 0.52185
 C746 C 0.36943 0.10167 0.50609
 C747 C 0.30349 0.23434 0.55291
 C748 C 0.32625 0.27617 0.54914
 C749 C 0.37260 0.27624 0.52877
 C750 C 0.39701 0.23121 0.51370
 C751 C 0.44285 0.23146 0.49246
 C752 C 0.46410 0.27376 0.48624
 C753 C 0.44137 0.31771 0.50152
 C754 C 0.39529 0.31980 0.52257
 C755 C 0.37350 0.36585 0.53519
 C756 C 0.39792 0.40685 0.52939
 C757 C 0.44606 0.40492 0.51188
 C758 C 0.46491 0.35952 0.49548
 H759 H 0.43239 0.13598 0.49185
 H760 H 0.26256 0.15285 0.55025
 H761 H 0.38584 0.06811 0.49210
 H762 H 0.26727 0.23654 0.56767
 H763 H 0.30606 0.30827 0.56208
 H764 H 0.46314 0.19947 0.47942
 H765 H 0.49887 0.27199 0.46906
 H766 H 0.33733 0.37170 0.54948
 H767 H 0.37798 0.44002 0.53884
 H768 H 0.49813 0.35533 0.47749
   
