data_POSCAR
  _audit_creation_date              2014-09-24
  _audit_creation_method            'ToBaCCo'
  _symmetry_space_group_name_H-M    'P1'
  _symmetry_Int_Tables_number       1
  _symmetry_cell_setting            triclinic
  loop_
  _symmetry_equiv_pos_as_xyz
 x,y,z
_cell_length_a 41.6813
_cell_length_b 41.6813
_cell_length_c 41.5744
_cell_angle_alpha 89.962800
_cell_angle_beta 89.962900
_cell_angle_gamma 90.003400
loop_
  _atom_site_label
  _atom_site_type_symbol
  _atom_site_fract_x
  _atom_site_fract_y
  _atom_site_fract_z
O1 O 0.03051 0.27708 -0.03071
 O2 O -0.03198 0.27708 0.03198
 O3 O 0.03050 0.27704 0.03190
 O4 O -0.03195 0.27711 -0.03066
 O5 O -0.03199 0.22405 -0.03065
 O6 O 0.03046 0.22398 0.03191
 O7 O -0.03201 0.22403 0.03199
 O8 O 0.03047 0.22402 -0.03071
 Cu9 Cu -0.00073 0.28244 0.00063
 Cu10 Cu -0.00078 0.21866 0.00064
 C11 C 0.04104 0.25054 -0.04129
 C12 C -0.04255 0.25056 0.04257
 C13 C 0.04103 0.25050 0.04245
 C14 C -0.04250 0.25059 -0.04123
 O15 O 0.46874 0.77753 0.53121
 O16 O 0.53119 0.77751 0.46849
 O17 O 0.46868 0.77754 0.46855
 O18 O 0.53124 0.77744 0.53116
 O19 O 0.53119 0.72438 0.53116
 O20 O 0.46864 0.72449 0.46855
 O21 O 0.53115 0.72445 0.46849
 O22 O 0.46868 0.72447 0.53121
 Cu23 Cu 0.49997 0.78285 0.49985
 Cu24 Cu 0.49991 0.71910 0.49985
 C25 C 0.45817 0.75100 0.54180
 C26 C 0.54171 0.75098 0.45790
 C27 C 0.45809 0.75103 0.45798
 C28 C 0.54178 0.75089 0.54173
 O29 O 1.03246 0.72290 0.03126
 O30 O 0.97000 0.72285 -0.03146
 O31 O 1.03251 0.72286 -0.03142
 O32 O 0.96995 0.72293 0.03120
 O33 O 0.96997 0.77599 0.03112
 O34 O 1.03252 0.77591 -0.03150
 O35 O 0.97001 0.77591 -0.03154
 O36 O 1.03247 0.77595 0.03118
 Cu37 Cu 1.00123 0.71754 -0.00010
 Cu38 Cu 1.00125 0.78129 -0.00020
 C39 C 1.04300 0.74943 0.04182
 C40 C 0.95946 0.74937 -0.04208
 C41 C 1.04307 0.74938 -0.04205
 C42 C 0.95940 0.74947 0.04172
 O43 O 0.46870 0.22218 0.46867
 O44 O 0.53109 0.22216 0.53130
 O45 O 0.46863 0.22217 0.53131
 O46 O 0.53117 0.22221 0.46867
 O47 O 0.53116 0.27527 0.46866
 O48 O 0.46862 0.27523 0.53130
 O49 O 0.53109 0.27523 0.53129
 O50 O 0.46869 0.27524 0.46866
 Cu51 Cu 0.49989 0.21682 0.49999
 Cu52 Cu 0.49988 0.28060 0.49998
 C53 C 0.45817 0.24871 0.45810
 C54 C 0.54162 0.24869 0.54186
 C55 C 0.45808 0.24869 0.54189
 C56 C 0.54172 0.24875 0.45810
 O57 O 0.72276 0.03058 -0.03089
 O58 O 0.72289 -0.03189 0.03181
 O59 O 0.72286 0.03058 0.03174
 O60 O 0.72281 -0.03188 -0.03083
 O61 O 0.77588 -0.03184 -0.03093
 O62 O 0.77592 0.03061 0.03163
 O63 O 0.77594 -0.03186 0.03171
 O64 O 0.77582 0.03062 -0.03100
 Cu65 Cu 0.71747 -0.00066 0.00047
 Cu66 Cu 0.78125 -0.00062 0.00035
 C67 C 0.74927 0.04114 -0.04152
 C68 C 0.74943 -0.04243 0.04235
 C69 C 0.74940 0.04114 0.04223
 C70 C 0.74934 -0.04239 -0.04144
 O71 O 0.22230 0.53118 0.46874
 O72 O 0.22240 0.46871 0.53145
 O73 O 0.22234 0.53122 0.53142
 O74 O 0.22240 0.46867 0.46879
 O75 O 0.27545 0.46874 0.46874
 O76 O 0.27539 0.53129 0.53137
 O77 O 0.27546 0.46878 0.53140
 O78 O 0.27536 0.53125 0.46869
 Cu79 Cu 0.21701 0.49994 0.50011
 Cu80 Cu 0.28076 0.50002 0.50005
 C81 C 0.24881 0.54175 0.45813
 C82 C 0.24894 0.45820 0.54201
 C83 C 0.24885 0.54181 0.54197
 C84 C 0.24894 0.45815 0.45819
 O85 O 0.27721 1.03247 0.03142
 O86 O 0.27713 0.97000 -0.03128
 O87 O 0.27720 1.03251 -0.03126
 O88 O 0.27711 0.96996 0.03137
 O89 O 0.22405 0.97004 0.03140
 O90 O 0.22415 1.03258 -0.03123
 O91 O 0.22407 0.97007 -0.03126
 O92 O 0.22416 1.03254 0.03145
 Cu93 Cu 0.28251 1.00124 0.00006
 Cu94 Cu 0.21876 1.00132 0.00009
 C95 C 0.25070 1.04305 0.04204
 C96 C 0.25059 0.95948 -0.04185
 C97 C 0.25069 1.04310 -0.04183
 C98 C 0.25057 0.95943 0.04195
 O99 O 0.77754 0.46878 0.46844
 O100 O 0.77759 0.53118 0.53107
 O101 O 0.77748 0.46871 0.53108
 O102 O 0.77760 0.53125 0.46844
 O103 O 0.72454 0.53132 0.46844
 O104 O 0.72442 0.46878 0.53108
 O105 O 0.72453 0.53125 0.53107
 O106 O 0.72448 0.46885 0.46844
 Cu107 Cu 0.78291 0.49997 0.49975
 Cu108 Cu 0.71913 0.50005 0.49976
 C109 C 0.75100 0.45829 0.45788
 C110 C 0.75107 0.54174 0.54164
 C111 C 0.75093 0.45819 0.54165
 C112 C 0.75109 0.54184 0.45787
 C113 C 0.25012 0.22580 0.22585
 C114 C 0.22618 0.24966 0.22599
 C115 C 0.22627 0.27331 0.24991
 C116 C 0.25000 0.27342 0.27375
 C117 C 0.27393 0.24955 0.27363
 C118 C 0.27385 0.22590 0.24969
 H119 H 0.29229 0.20753 0.24962
 H120 H 0.20783 0.29168 0.24998
 C121 C 0.75034 0.77437 0.22571
 C122 C 0.77427 0.75050 0.22576
 C123 C 0.77415 0.72680 0.24966
 C124 C 0.75040 0.72666 0.27352
 C125 C 0.72647 0.75053 0.27348
 C126 C 0.72659 0.77423 0.24957
 H127 H 0.70816 0.79261 0.24953
 H128 H 0.79258 0.70842 0.24970
 C129 C 0.77424 0.24997 0.22593
 C130 C 0.75037 0.22605 0.22601
 C131 C 0.72667 0.22614 0.24991
 C132 C 0.72654 0.24987 0.27374
 C133 C 0.75041 0.27380 0.27366
 C134 C 0.77411 0.27370 0.24976
 H135 H 0.79249 0.29213 0.24971
 H136 H 0.70829 0.20771 0.24996
 C137 C 0.22568 0.75018 0.22571
 C138 C 0.24953 0.77414 0.22582
 C139 C 0.27318 0.77403 0.24976
 C140 C 0.27329 0.75028 0.27361
 C141 C 0.24943 0.72633 0.27352
 C142 C 0.22578 0.72643 0.24958
 H143 H 0.20742 0.70798 0.24951
 H144 H 0.29154 0.79248 0.24982
 C145 C 0.72597 0.24965 0.72621
 C146 C 0.74982 0.27359 0.72623
 C147 C 0.77346 0.27352 0.75015
 C148 C 0.77354 0.24981 0.77404
 C149 C 0.74969 0.22586 0.77401
 C150 C 0.72605 0.22593 0.75009
 H151 H 0.70768 0.20749 0.75006
 H152 H 0.79183 0.29196 0.75018
 C153 C 0.27355 0.75046 0.72635
 C154 C 0.24969 0.72651 0.72644
 C155 C 0.22604 0.72661 0.75041
 C156 C 0.22594 0.75035 0.77426
 C157 C 0.24978 0.77432 0.77415
 C158 C 0.27344 0.77421 0.75019
 H159 H 0.29181 0.79265 0.75010
 H160 H 0.20767 0.70817 0.75050
 C161 C 0.24976 0.27362 0.72661
 C162 C 0.27367 0.24973 0.72665
 C163 C 0.27358 0.22607 0.75060
 C164 C 0.24988 0.22600 0.77451
 C165 C 0.22595 0.24987 0.77445
 C166 C 0.22605 0.27354 0.75051
 H167 H 0.20763 0.29192 0.75047
 H168 H 0.29200 0.20768 0.75064
 C169 C 0.75057 0.72606 0.72601
 C170 C 0.72660 0.74989 0.72608
 C171 C 0.72668 0.77351 0.75003
 C172 C 0.75043 0.77361 0.77386
 C173 C 0.77442 0.74980 0.77378
 C174 C 0.77433 0.72617 0.74984
 H175 H 0.79279 0.70781 0.74976
 H176 H 0.70823 0.79187 0.75011
 C177 C 0.25081 0.11068 0.11027
 N178 N 0.27368 0.11070 0.13347
 N179 N 0.27371 0.13320 0.15623
 C180 C 0.25087 0.15638 0.15649
 N181 N 0.22800 0.15637 0.13329
 N182 N 0.22797 0.13386 0.11052
 C183 C 0.25077 0.08642 0.08576
 C184 C 0.25073 0.06603 0.06518
 C185 C 0.25087 0.18063 0.18099
 C186 C 0.25068 0.20110 0.20148
 C187 C 0.75119 0.61075 0.61091
 N188 N 0.72844 0.63400 0.61101
 N189 N 0.72849 0.65658 0.63368
 C190 C 0.75131 0.65658 0.65693
 N191 N 0.77406 0.63333 0.65683
 N192 N 0.77401 0.61075 0.63415
 C193 C 0.75113 0.58645 0.58652
 C194 C 0.75109 0.56603 0.56602
 C195 C 0.75132 0.68086 0.68132
 C196 C 0.75114 0.70136 0.70173
 C197 C 0.74952 0.88982 0.11045
 N198 N 0.72675 0.88978 0.13377
 N199 N 0.72677 0.86720 0.15648
 C200 C 0.74955 0.84397 0.15654
 N201 N 0.77232 0.84400 0.13322
 N202 N 0.77230 0.86659 0.11051
 C203 C 0.74949 0.91412 0.08599
 C204 C 0.74947 0.93456 0.06545
 C205 C 0.74959 0.81965 0.18097
 C206 C 0.74979 0.79911 0.20140
 C207 C 0.24898 0.38908 0.61137
 N208 N 0.22621 0.38905 0.63469
 N209 N 0.22621 0.36645 0.65739
 C210 C 0.24898 0.34321 0.65743
 N211 N 0.27175 0.34324 0.63411
 N212 N 0.27175 0.36584 0.61142
 C213 C 0.24898 0.41341 0.58693
 C214 C 0.24897 0.43386 0.56642
 C215 C 0.24901 0.31887 0.68185
 C216 C 0.24920 0.29835 0.70228
 C217 C 0.88968 0.25063 0.11065
 N218 N 0.88964 0.27346 0.13389
 N219 N 0.86705 0.27349 0.15659
 C220 C 0.84383 0.25070 0.15675
 N221 N 0.84388 0.22787 0.13352
 N222 N 0.86646 0.22783 0.11081
 C223 C 0.91400 0.25058 0.08621
 C224 C 0.93444 0.25056 0.06568
 C225 C 0.81951 0.25070 0.18118
 C226 C 0.79899 0.25052 0.20161
 C227 C 0.38905 0.75109 0.61115
 N228 N 0.38905 0.77387 0.63443
 N229 N 0.36643 0.77391 0.65712
 C230 C 0.34315 0.75118 0.65719
 N231 N 0.34316 0.72840 0.63391
 N232 N 0.36577 0.72836 0.61122
 C233 C 0.41340 0.75104 0.58673
 C234 C 0.43384 0.75101 0.56621
 C235 C 0.31881 0.75119 0.68160
 C236 C 0.29828 0.75101 0.70203
 C237 C 0.11060 0.74942 0.11009
 N238 N 0.13379 0.77225 0.11030
 N239 N 0.15629 0.77224 0.13307
 C240 C 0.15628 0.74940 0.15633
 N241 N 0.13309 0.72657 0.15612
 N242 N 0.11060 0.72658 0.13335
 C243 C 0.08635 0.74943 0.08556
 C244 C 0.06597 0.74944 0.06498
 C245 C 0.18052 0.74942 0.18084
 C246 C 0.20099 0.74962 0.20133
 C247 C 0.61064 0.24871 0.61112
 N248 N 0.61067 0.22595 0.63444
 N249 N 0.63326 0.22598 0.65711
 C250 C 0.65647 0.24877 0.65713
 N251 N 0.65644 0.27153 0.63381
 N252 N 0.63386 0.27151 0.61114
 C253 C 0.58633 0.24869 0.58673
 C254 C 0.56591 0.24868 0.56624
 C255 C 0.68077 0.24883 0.68151
 C256 C 0.70127 0.24906 0.70192
 C257 C 0.74910 0.11026 0.88912
 N258 N 0.77179 0.13359 0.88909
 N259 N 0.77174 0.15620 0.86641
 C260 C 0.74900 0.15617 0.84309
 N261 N 0.72631 0.13285 0.84312
 N262 N 0.72636 0.11023 0.86580
 C263 C 0.74915 0.08592 0.91354
 C264 C 0.74921 0.06547 0.93406
 C265 C 0.74897 0.18052 0.81870
 C266 C 0.74915 0.20108 0.79829
 C267 C 0.24871 0.61080 0.38870
 N268 N 0.22594 0.61080 0.36541
 N269 N 0.22592 0.63338 0.34270
 C270 C 0.24867 0.65665 0.34261
 N271 N 0.27144 0.65665 0.36590
 N272 N 0.27146 0.63407 0.38860
 C273 C 0.24873 0.58649 0.41315
 C274 C 0.24877 0.56607 0.43370
 C275 C 0.24867 0.68098 0.31819
 C276 C 0.24886 0.70154 0.29778
 C277 C 0.25053 0.89022 0.88894
 N278 N 0.27301 0.89040 0.86532
 N279 N 0.27301 0.86772 0.84272
 C280 C 0.25054 0.84418 0.84305
 N281 N 0.22807 0.84401 0.86667
 N282 N 0.22806 0.86668 0.88926
 C283 C 0.25055 0.91463 0.91329
 C284 C 0.25056 0.93512 0.93377
 C285 C 0.25052 0.81976 0.81873
 C286 C 0.25032 0.79915 0.79838
 C287 C 0.75103 0.38928 0.38860
 N288 N 0.72826 0.36604 0.38855
 N289 N 0.72829 0.34345 0.36589
 C290 C 0.75110 0.34343 0.34261
 N291 N 0.77387 0.36667 0.34265
 N292 N 0.77384 0.38926 0.36532
 C293 C 0.75100 0.41358 0.41299
 C294 C 0.75099 0.43400 0.43349
 C295 C 0.75112 0.31910 0.31826
 C296 C 0.75094 0.29856 0.29789
 C297 C 0.11024 0.25058 0.88944
 N298 N 0.13355 0.22788 0.88949
 N299 N 0.15620 0.22791 0.86684
 C300 C 0.15621 0.25063 0.84347
 N301 N 0.13290 0.27332 0.84342
 N302 N 0.11025 0.27330 0.86607
 C303 C 0.08586 0.25055 0.91382
 C304 C 0.06539 0.25054 0.93432
 C305 C 0.18059 0.25062 0.81911
 C306 C 0.20116 0.25043 0.79872
 C307 C 0.61082 0.75106 0.38854
 N308 N 0.63407 0.72829 0.38845
 N309 N 0.65668 0.72834 0.36578
 C310 C 0.65674 0.75116 0.34251
 N311 N 0.63349 0.77393 0.34259
 N312 N 0.61088 0.77388 0.36527
 C313 C 0.58648 0.75101 0.41296
 C314 C 0.56604 0.75099 0.43348
 C315 C 0.68110 0.75120 0.31813
 C316 C 0.70167 0.75104 0.29773
 C317 C 0.89025 0.74927 0.88864
 N318 N 0.89024 0.72652 0.86532
 N319 N 0.86759 0.72647 0.84270
 C320 C 0.84426 0.74915 0.84271
 N321 N 0.84427 0.77190 0.86604
 N322 N 0.86692 0.77195 0.88866
 C323 C 0.91464 0.74931 0.91303
 C324 C 0.93511 0.74935 0.93352
 C325 C 0.81985 0.74912 0.81837
 C326 C 0.79925 0.74928 0.79801
 C327 C 0.38924 0.24871 0.38874
 N328 N 0.38928 0.22597 0.36543
 N329 N 0.36673 0.22597 0.34272
 C330 C 0.34348 0.24872 0.34266
 N331 N 0.34344 0.27147 0.36597
 N332 N 0.36599 0.27146 0.38867
 C333 C 0.41350 0.24870 0.41317
 C334 C 0.43390 0.24871 0.43370
 C335 C 0.31920 0.24874 0.31826
 C336 C 0.29868 0.24896 0.29787
 C337 C 0.74937 0.88867 0.88922
 N338 N 0.72658 0.88864 0.86595
 N339 N 0.72663 0.86612 0.84322
 C340 C 0.74947 0.84296 0.84309
 N341 N 0.77227 0.84298 0.86635
 N342 N 0.77222 0.86551 0.88908
 C343 C 0.74934 0.91293 0.91365
 C344 C 0.74933 0.93332 0.93417
 C345 C 0.74956 0.81872 0.81864
 C346 C 0.74982 0.79827 0.79819
 C347 C 0.24905 0.38895 0.38891
 N348 N 0.27186 0.36574 0.38886
 N349 N 0.27191 0.34313 0.36620
 C350 C 0.24915 0.34304 0.34290
 N351 N 0.22633 0.36624 0.34295
 N352 N 0.22629 0.38885 0.36561
 C353 C 0.24899 0.41331 0.41332
 C354 C 0.24896 0.43378 0.43381
 C355 C 0.24923 0.31868 0.31850
 C356 C 0.24945 0.29815 0.29808
 C357 C 0.25075 0.11081 0.89003
 N358 N 0.22793 0.13401 0.88988
 N359 N 0.22792 0.15654 0.86712
 C360 C 0.25073 0.15656 0.84384
 N361 N 0.27355 0.13337 0.84399
 N362 N 0.27356 0.11083 0.86675
 C363 C 0.25074 0.08653 0.91451
 C364 C 0.25072 0.06611 0.93506
 C365 C 0.25068 0.18083 0.81935
 C366 C 0.25046 0.20131 0.79887
 C367 C 0.75117 0.61105 0.38861
 N368 N 0.77396 0.61113 0.36531
 N369 N 0.77397 0.63376 0.34265
 C370 C 0.75118 0.65699 0.34261
 N371 N 0.72839 0.65691 0.36591
 N372 N 0.72838 0.63428 0.38857
 C373 C 0.75116 0.58668 0.41300
 C374 C 0.75113 0.56620 0.43348
 C375 C 0.75115 0.68135 0.31822
 C376 C 0.75095 0.70190 0.29782
 C377 C 0.11078 0.74937 0.88981
 N378 N 0.13435 0.77181 0.89001
 N379 N 0.15688 0.77184 0.86726
 C380 C 0.15652 0.74945 0.84361
 N381 N 0.13295 0.72701 0.84340
 N382 N 0.11042 0.72698 0.86616
 C383 C 0.08650 0.74936 0.91429
 C384 C 0.06608 0.74936 0.93484
 C385 C 0.18078 0.74952 0.81912
 C386 C 0.20125 0.74976 0.79863
 C387 C 0.61092 0.24887 0.38883
 N388 N 0.61104 0.22611 0.36553
 N389 N 0.63367 0.22616 0.34287
 C390 C 0.65686 0.24899 0.34283
 N391 N 0.65674 0.27176 0.36613
 N392 N 0.63411 0.27170 0.38879
 C393 C 0.58655 0.24881 0.41322
 C394 C 0.56608 0.24877 0.43371
 C395 C 0.68123 0.24908 0.31845
 C396 C 0.70178 0.24931 0.29805
 C397 C 0.88860 0.25066 0.88940
 N398 N 0.86541 0.22784 0.88925
 N399 N 0.84289 0.22784 0.86652
 C400 C 0.84289 0.25066 0.84326
 N401 N 0.86608 0.27349 0.84340
 N402 N 0.88860 0.27349 0.86614
 C403 C 0.91284 0.25064 0.91385
 C404 C 0.93323 0.25062 0.93437
 C405 C 0.81866 0.25063 0.81881
 C406 C 0.79820 0.25041 0.79836
 C407 C 0.38885 0.75107 0.38874
 N408 N 0.38877 0.77386 0.36543
 N409 N 0.36615 0.77386 0.34278
 C410 C 0.34292 0.75107 0.34275
 N411 N 0.34300 0.72828 0.36606
 N412 N 0.36562 0.72828 0.38871
 C413 C 0.41323 0.75107 0.41313
 C414 C 0.43372 0.75106 0.43361
 C415 C 0.31857 0.75103 0.31836
 C416 C 0.29803 0.75082 0.29794
 C417 C 0.25044 0.89011 0.11109
 N418 N 0.22774 0.86680 0.11097
 N419 N 0.22770 0.84411 0.13356
 C420 C 0.25037 0.84403 0.15695
 N421 N 0.27308 0.86734 0.15707
 N422 N 0.27311 0.89004 0.13448
 C423 C 0.25049 0.91454 0.08676
 C424 C 0.25053 0.93505 0.06630
 C425 C 0.25031 0.81959 0.18126
 C426 C 0.25009 0.79897 0.20160
 C427 C 0.75079 0.38907 0.61100
 N428 N 0.72800 0.36585 0.61107
 N429 N 0.72796 0.34325 0.63377
 C430 C 0.75071 0.34321 0.65708
 N431 N 0.77349 0.36644 0.65702
 N432 N 0.77354 0.38903 0.63432
 C433 C 0.75083 0.41340 0.58657
 C434 C 0.75088 0.43385 0.56605
 C435 C 0.75063 0.31888 0.68150
 C436 C 0.75040 0.29834 0.70192
 C437 C 0.74948 0.11033 0.11132
 N438 N 0.77225 0.13357 0.11123
 N439 N 0.77229 0.15623 0.13383
 C440 C 0.74955 0.15632 0.15718
 N441 N 0.72678 0.13308 0.15726
 N442 N 0.72674 0.11042 0.13467
 C443 C 0.74944 0.08596 0.08700
 C444 C 0.74942 0.06548 0.06656
 C445 C 0.74961 0.18070 0.18147
 C446 C 0.74982 0.20127 0.20181
 C447 C 0.24884 0.61094 0.61132
 N448 N 0.22609 0.61096 0.63467
 N449 N 0.22610 0.63356 0.65735
 C450 C 0.24887 0.65681 0.65737
 N451 N 0.27162 0.65679 0.63402
 N452 N 0.27160 0.63419 0.61134
 C453 C 0.24883 0.58660 0.58689
 C454 C 0.24883 0.56615 0.56638
 C455 C 0.24891 0.68116 0.68177
 C456 C 0.24912 0.70172 0.70217
 C457 C 0.89012 0.74959 0.11091
 N458 N 0.86689 0.77237 0.11085
 N459 N 0.84421 0.77242 0.13346
 C460 C 0.84409 0.74968 0.15682
 N461 N 0.86732 0.72690 0.15689
 N462 N 0.89000 0.72686 0.13427
 C463 C 0.91453 0.74953 0.08656
 C464 C 0.93502 0.74950 0.06609
 C465 C 0.81967 0.74975 0.18115
 C466 C 0.79908 0.74997 0.20151
 C467 C 0.38902 0.24872 0.61129
 N468 N 0.36578 0.27149 0.61135
 N469 N 0.34321 0.27153 0.63407
 C470 C 0.34321 0.24880 0.65743
 N471 N 0.36644 0.22602 0.65738
 N472 N 0.38901 0.22598 0.63465
 C473 C 0.41332 0.24869 0.58684
 C474 C 0.43375 0.24868 0.56631
 C475 C 0.31891 0.24888 0.68188
 C476 C 0.29840 0.24912 0.70233
 C477 C 0.11028 0.25045 0.11147
 N478 N 0.13359 0.22775 0.11134
 N479 N 0.15629 0.22775 0.13390
 C480 C 0.15634 0.25044 0.15726
 N481 N 0.13304 0.27314 0.15740
 N482 N 0.11034 0.27314 0.13484
 C483 C 0.08588 0.25046 0.08719
 C484 C 0.06538 0.25048 0.06677
 C485 C 0.18076 0.25041 0.18151
 C486 C 0.20137 0.25021 0.20182
 C487 C 0.61095 0.75078 0.61104
 N488 N 0.61103 0.77355 0.63435
 N489 N 0.63364 0.77352 0.65700
 C490 C 0.65686 0.75072 0.65705
 N491 N 0.65679 0.72796 0.63374
 N492 N 0.63417 0.72799 0.61109
 C493 C 0.58659 0.75081 0.58664
 C494 C 0.56613 0.75084 0.56613
 C495 C 0.68123 0.75067 0.68143
 C496 C 0.70180 0.75045 0.70182
   
