data_POSCAR
  _audit_creation_date              2014-09-24
  _audit_creation_method            'ToBaCCo'
  _symmetry_space_group_name_H-M    'P1'
  _symmetry_Int_Tables_number       1
  _symmetry_cell_setting            triclinic
  loop_
  _symmetry_equiv_pos_as_xyz
 x,y,z
_cell_length_a 21.4869
_cell_length_b 21.5225
_cell_length_c 21.5741
_cell_angle_alpha 90.012500
_cell_angle_beta 89.927900
_cell_angle_gamma 90.076200
loop_
  _atom_site_label
  _atom_site_type_symbol
  _atom_site_fract_x
  _atom_site_fract_y
  _atom_site_fract_z
C1 C 0.30621 0.38357 1.38856
 C2 C 0.33620 0.33044 1.41117
 C3 C 0.38889 0.30710 1.38072
 C4 C 0.41176 0.33723 1.32777
 C5 C 0.38185 0.39043 1.30510
 C6 C 0.32917 0.41364 1.33555
 H7 H 0.31765 0.30643 1.45143
 H8 H 0.45175 0.31854 1.30333
 H9 H 0.30530 0.45399 1.31710
 C10 C 1.19465 0.61791 0.89297
 C11 C 1.17116 0.58774 0.84029
 C12 C 1.11791 0.61053 0.81067
 C13 C 1.08782 0.66336 0.83388
 C14 C 1.11110 0.69358 0.88645
 C15 C 1.16447 0.67079 0.91609
 H16 H 1.19511 0.54762 0.82135
 H17 H 1.04742 0.68186 0.81014
 H18 H 1.18325 0.69511 0.95598
 C19 C 0.69384 -0.11898 0.10733
 C20 C 0.66965 -0.08879 0.15968
 C21 C 0.61626 -0.11185 0.18902
 C22 C 0.58663 -0.16504 0.16586
 C23 C 0.61057 -0.19538 0.11352
 C24 C 0.66418 -0.17222 0.08418
 H25 H 0.69320 -0.04838 0.17860
 H26 H 0.54605 -0.18358 0.18950
 H27 H 0.68359 -0.19640 0.04446
 C28 C -0.19331 1.11711 -0.38776
 C29 C -0.16295 1.16996 -0.41060
 C30 C -0.11021 1.19325 -0.38024
 C31 C -0.08770 1.16330 -0.32713
 C32 C -0.11806 1.11032 -0.30423
 C33 C -0.17080 1.08720 -0.33462
 H34 H -0.18133 1.19373 -0.45098
 H35 H -0.04767 1.18194 -0.30275
 H36 H -0.19510 1.04707 -0.31615
 C37 C 0.69315 0.61862 0.60813
 C38 C 0.66338 0.67144 0.58453
 C39 C 0.60994 0.69468 0.61383
 C40 C 0.58625 0.66493 0.66656
 C41 C 0.61604 0.61213 0.69017
 C42 C 0.66931 0.58894 0.66085
 H43 H 0.68262 0.69526 0.54456
 H44 H 0.54580 0.68373 0.69008
 H45 H 0.69311 0.54889 0.67999
 C46 C 0.80733 0.38296 0.11280
 C47 C 0.83041 0.41237 0.16603
 C48 C 0.88292 0.38853 0.19616
 C49 C 0.91249 0.33535 0.17291
 C50 C 0.88943 0.30588 0.11972
 C51 C 0.83692 0.32988 0.08961
 H52 H 0.80670 0.45268 0.18478
 H53 H 0.95235 0.31618 0.19707
 H54 H 0.81811 0.30648 0.04918
 C55 C 0.30401 0.11581 0.88714
 C56 C 0.33429 0.16859 0.91038
 C57 C 0.38703 0.19215 0.88020
 C58 C 0.40975 0.16269 0.82691
 C59 C 0.37962 0.10985 0.80352
 C60 C 0.32680 0.08635 0.83370
 H61 H 0.31603 0.19227 0.95092
 H62 H 0.44981 0.18172 0.80284
 H63 H 0.30278 0.04624 0.81478
 C64 C 0.19396 0.88256 0.39153
 C65 C 0.16460 0.82926 0.41484
 C66 C 0.11127 0.80574 0.38563
 C67 C 0.08719 0.83567 0.33328
 C68 C 0.11649 0.88896 0.30993
 C69 C 0.16970 0.91246 0.33913
 H70 H 0.18400 0.80518 0.45454
 H71 H 0.04681 0.81663 0.30984
 H72 H 0.19306 0.95292 0.32005
 Zn73 Zn 0.01421 1.07573 -0.03520
 Zn74 Zn -0.04895 0.95152 -0.04658
 Zn75 Zn 0.07452 0.96339 0.01773
 Zn76 Zn -0.03936 1.01524 0.07698
 O77 O -0.00007 1.00132 0.00309
 O78 O -0.02321 1.08045 -0.10858
 O79 O -0.01096 0.87958 -0.06694
 O80 O 0.13993 1.00603 -0.01158
 O81 O -0.06958 0.98887 -0.11859
 O82 O 0.09482 1.08956 -0.05112
 O83 O 0.07945 0.88933 -0.01841
 O84 O 0.00329 0.98673 0.14236
 O85 O -0.12136 0.93015 -0.00980
 O86 O 0.08841 0.94906 0.09818
 O87 O -0.11334 0.97783 0.08098
 O88 O -0.05431 1.09578 0.09122
 O89 O -0.01394 1.14103 0.00810
 C90 C -0.05634 1.04261 -0.13906
 C91 C 0.04233 0.85885 -0.05229
 C92 C 0.14287 1.05730 -0.04028
 C93 C 0.05547 0.95960 0.14577
 C94 C -0.14301 0.94385 0.04325
 C95 C -0.04234 1.14392 0.05954
 Zn96 Zn 0.51377 0.07649 0.53435
 Zn97 Zn 0.57412 -0.03597 0.48106
 Zn98 Zn 0.45055 -0.04759 0.54535
 Zn99 Zn 0.46075 0.01636 0.42182
 O100 O 0.49963 0.00219 0.49579
 O101 O 0.59437 0.09021 0.55002
 O102 O 0.57902 -0.10991 0.51750
 O103 O 0.42952 -0.01038 0.61735
 O104 O 0.63945 0.00678 0.51001
 O105 O 0.47614 0.08112 0.60786
 O106 O 0.48836 -0.11956 0.56579
 O107 O 0.38671 -0.02074 0.41780
 O108 O 0.58806 -0.05069 0.40062
 O109 O 0.37836 -0.06875 0.50841
 O110 O 0.50341 -0.01240 0.35637
 O111 O 0.44602 0.09698 0.40772
 O112 O 0.48574 0.14191 0.49123
 C113 C 0.64240 0.05802 0.53877
 C114 C 0.54174 -0.14031 0.55138
 C115 C 0.44273 0.04324 0.63810
 C116 C 0.35690 -0.05476 0.45543
 C117 C 0.55535 -0.04000 0.35300
 C118 C 0.45770 0.14500 0.43968
 Zn119 Zn 1.01634 0.42293 0.46533
 Zn120 Zn 1.07661 0.53574 0.51810
 Zn121 Zn 0.95326 0.54682 0.45364
 Zn122 Zn 0.96282 0.48358 0.57741
 O123 O 1.00211 0.49740 0.50348
 O124 O 1.09697 0.40925 0.44976
 O125 O 1.08150 0.60975 0.48168
 O126 O 0.93260 0.50928 0.38177
 O127 O 1.14199 0.49312 0.48905
 O128 O 0.97904 0.41789 0.39180
 O129 O 0.99108 0.61877 0.43309
 O130 O 0.88891 0.52090 0.58128
 O131 O 1.09051 0.55030 0.59856
 O132 O 0.88094 0.56808 0.49026
 O133 O 1.00552 0.51222 0.64279
 O134 O 0.94768 0.40307 0.59172
 O135 O 0.98801 0.35770 0.50869
 C136 C 1.14498 0.44169 0.46064
 C137 C 1.04428 0.63988 0.44766
 C138 C 0.94585 0.45559 0.36131
 C139 C 0.85929 0.55460 0.54335
 C140 C 1.05766 0.53957 0.64619
 C141 C 0.95954 0.35489 0.56010
 Zn142 Zn 0.46129 0.48544 0.92391
 Zn143 Zn 0.57514 0.53767 0.98281
 Zn144 Zn 0.45170 0.54943 1.04739
 Zn145 Zn 0.51460 0.42520 1.03595
 O146 O 0.50052 0.49960 0.99768
 O147 O 0.50383 0.51408 0.85843
 O148 O 0.58037 0.61167 1.01918
 O149 O 0.37926 0.57055 1.01068
 O150 O 0.58886 0.55225 0.90232
 O151 O 0.38739 0.52255 0.92006
 O152 O 0.48986 0.62148 1.06769
 O153 O 0.47734 0.42058 1.10952
 O154 O 0.64048 0.49484 1.01155
 O155 O 0.43099 0.51207 1.11949
 O156 O 0.59519 0.41133 1.05131
 O157 O 0.48616 0.35979 0.99291
 O158 O 0.44622 0.40490 0.90971
 C159 C 0.55589 0.54153 0.85485
 C160 C 0.54328 0.64218 1.05310
 C161 C 0.35767 0.55653 0.95772
 C162 C 0.44422 0.45840 1.14002
 C163 C 0.64332 0.44349 1.04010
 C164 C 0.45788 0.35681 0.94147
 C165 C 1.25246 0.40350 0.41547
 C166 C 1.20392 0.42079 0.43753
 C167 C 0.24904 0.59806 0.91865
 C168 C 0.29816 0.57980 0.93856
 C169 C -0.25166 0.90136 0.08197
 C170 C -0.20250 0.92012 0.06234
 C171 C 0.74992 0.09614 0.58380
 C172 C 0.70134 0.07892 0.56185
 C173 C 0.41505 0.25296 0.40041
 C174 C 0.43601 0.20413 0.41806
 C175 C 0.91631 0.24719 0.59982
 C176 C 0.93755 0.29588 0.58195
 C177 C 0.08322 0.75061 -0.09258
 C178 C 0.06256 0.79950 -0.07476
 C179 C 0.58446 0.75045 1.09356
 C180 C 0.56371 0.70153 1.07566
 C181 C 0.40289 0.41823 1.24808
 C182 C 0.42111 0.43861 1.19925
 C183 C 0.59448 -0.08379 0.24557
 C184 C 0.57666 -0.06236 0.29406
 C185 C -0.09734 1.08265 -0.24713
 C186 C -0.07932 1.06237 -0.19826
 C187 C 1.09667 0.58268 0.75386
 C188 C 1.07901 0.56156 0.70521
 C189 C 0.75065 0.59710 0.58145
 C190 C 0.79983 0.57828 0.56218
 C191 C 0.75072 0.40464 1.08463
 C192 C 0.70223 0.42231 1.06290
 C193 C 0.25026 1.09562 -0.08596
 C194 C 0.20176 1.07823 -0.06373
 C195 C 0.24835 -0.09694 0.41671
 C196 C 0.29746 -0.07825 0.43629
 C197 C 0.58236 -0.24836 0.59235
 C198 C 0.56188 -0.19955 0.57416
 C199 C 1.08421 0.74837 0.40687
 C200 C 1.06414 0.69929 0.42496
 C201 C -0.08474 1.25178 0.09947
 C202 C -0.06396 1.20299 0.08145
 C203 C 0.41494 0.24905 0.90166
 C204 C 0.43599 0.29775 0.91967
 C205 C 0.59460 0.58465 0.74708
 C206 C 0.57703 0.56359 0.79580
 C207 C 0.40080 0.08266 0.74625
 C208 C 0.41929 0.06277 0.69731
 C209 C 0.09467 0.91658 0.25329
 C210 C 0.07681 0.93765 0.20474
 C211 C 0.90424 0.41574 0.25331
 C212 C 0.92265 0.43578 0.30217
   
