data_POSCAR
  _audit_creation_date              2014-09-24
  _audit_creation_method            'ToBaCCo'
  _symmetry_space_group_name_H-M    'P1'
  _symmetry_Int_Tables_number       1
  _symmetry_cell_setting            triclinic
  loop_
  _symmetry_equiv_pos_as_xyz
 x,y,z
_cell_length_a 50.6850
_cell_length_b 50.7965
_cell_length_c 51.1481
_cell_angle_alpha 89.968500
_cell_angle_beta 89.937000
_cell_angle_gamma 89.974000
loop_
  _atom_site_label
  _atom_site_type_symbol
  _atom_site_fract_x
  _atom_site_fract_y
  _atom_site_fract_z
N1 N 0.30634 0.37908 1.36015
 N2 N 0.30607 0.35858 1.37581
 C3 C 0.28498 0.36025 1.39174
 C4 C 0.27116 0.38316 1.38586
 C5 C 0.28551 0.39456 1.36561
 H6 H 0.28018 0.34579 1.40647
 H7 H 0.28131 0.41271 1.35543
 Cu8 Cu 0.33340 0.33177 1.37362
 Cu9 Cu 0.33397 0.38440 1.33412
 Cu10 Cu 0.37877 0.33332 1.32589
 N11 N 0.36104 0.30529 1.37150
 N12 N 0.37847 0.30579 1.35250
 C13 C 0.39497 0.28521 1.35513
 C14 C 0.38755 0.27080 1.37707
 C15 C 0.36584 0.28433 1.38691
 H16 H 0.41115 0.28122 1.34196
 H17 H 0.35423 0.27936 1.40392
 N18 N 0.37593 0.36322 1.30145
 N19 N 0.35915 0.38281 1.30472
 C20 C 0.36204 0.40003 1.28488
 C21 C 0.38173 0.39095 1.26835
 C22 C 0.39003 0.36754 1.27955
 H23 H 0.35064 0.41787 1.28267
 H24 H 0.40505 0.35441 1.27217
 H25 H 0.33937 0.34467 1.32833
 H26 H 0.36358 0.36108 1.35047
 N27 N 1.19358 0.62457 0.86443
 N28 N 1.19183 0.64301 0.88234
 C29 C 1.21194 0.64023 0.89933
 C30 C 1.22709 0.61882 0.89170
 C31 C 1.21474 0.60941 0.86944
 H32 H 1.21529 0.65285 0.91600
 H33 H 1.22092 0.59304 0.85741
 Cu34 Cu 1.16371 0.66913 0.88146
 Cu35 Cu 1.16878 0.62184 0.83560
 Cu36 Cu 1.11956 0.66899 0.83222
 N37 N 1.13638 0.69594 0.87862
 N38 N 1.11924 0.69579 0.85938
 C39 C 1.10290 0.71651 0.86197
 C40 C 1.11011 0.73064 0.88410
 C41 C 1.13154 0.71681 0.89411
 H42 H 1.08708 0.72089 0.84852
 H43 H 1.14298 0.72156 0.91126
 N44 N 1.12312 0.64027 0.80658
 N45 N 1.14188 0.62233 0.80787
 C46 C 1.13925 0.60562 0.78762
 C47 C 1.11776 0.61336 0.77277
 C48 C 1.10804 0.63543 0.78546
 H49 H 1.15200 0.58897 0.78403
 H50 H 1.09138 0.64731 0.77959
 H51 H 1.15961 0.66156 0.83458
 H52 H 1.13733 0.63984 0.85417
 N53 N 0.69353 -0.12459 0.13478
 N54 N 0.69177 -0.14299 0.11683
 C55 C 0.71192 -0.14022 0.09984
 C56 C 0.72709 -0.11887 0.10751
 C57 C 0.71472 -0.10948 0.12980
 H58 H 0.71529 -0.15282 0.08314
 H59 H 0.72090 -0.09316 0.14187
 Cu60 Cu 0.66359 -0.16904 0.11767
 Cu61 Cu 0.66870 -0.12186 0.16364
 Cu62 Cu 0.61937 -0.16887 0.16693
 N63 N 0.63620 -0.19578 0.12048
 N64 N 0.61904 -0.19561 0.13972
 C65 C 0.60266 -0.21628 0.13712
 C66 C 0.60988 -0.23041 0.11498
 C67 C 0.63135 -0.21663 0.10497
 H68 H 0.58681 -0.22062 0.15058
 H69 H 0.64282 -0.22140 0.08782
 N70 N 0.62295 -0.14023 0.19264
 N71 N 0.64176 -0.12234 0.19138
 C72 C 0.63913 -0.10569 0.21170
 C73 C 0.61760 -0.11341 0.22653
 C74 C 0.60784 -0.13540 0.21378
 H75 H 0.65192 -0.08909 0.21533
 H76 H 0.59116 -0.14725 0.21963
 H77 H 0.65945 -0.16155 0.16457
 H78 H 0.63725 -0.13972 0.14504
 N79 N -0.19572 1.12312 -0.35812
 N80 N -0.19381 1.14172 -0.37588
 C81 C -0.21386 1.13924 -0.39296
 C82 C -0.22917 1.11788 -0.38558
 C83 C -0.21697 1.10815 -0.36333
 H84 H -0.21698 1.15198 -0.40959
 H85 H -0.22320 1.09161 -0.35156
 Cu86 Cu -0.16552 1.16758 -0.37492
 Cu87 Cu -0.17067 1.11982 -0.32948
 Cu88 Cu -0.12080 1.16635 -0.32635
 N89 N -0.13790 1.19404 -0.37223
 N90 N -0.12050 1.19347 -0.35325
 C91 C -0.10398 1.21404 -0.35586
 C92 C -0.11136 1.22850 -0.37776
 C93 C -0.13306 1.21502 -0.38759
 H94 H -0.08791 1.21808 -0.34261
 H95 H -0.14470 1.22009 -0.40453
 N96 N -0.12439 1.13742 -0.30092
 N97 N -0.14343 1.11977 -0.30201
 C98 C -0.14071 1.10291 -0.28185
 C99 C -0.11886 1.11024 -0.26733
 C100 C -0.10904 1.13223 -0.28008
 H101 H -0.15364 1.08643 -0.27810
 H102 H -0.09217 1.14387 -0.27439
 H103 H -0.16099 1.15935 -0.32818
 H104 H -0.13927 1.13756 -0.34826
 N105 N 0.69534 0.62523 0.63700
 N106 N 0.69439 0.64443 0.61980
 C107 C 0.71453 0.64161 0.60280
 C108 C 0.72887 0.61941 0.60970
 C109 C 0.71601 0.60956 0.63153
 H110 H 0.71843 0.65470 0.58659
 H111 H 0.72152 0.59253 0.64296
 Cu112 Cu 0.66708 0.67134 0.62164
 Cu113 Cu 0.67016 0.62221 0.66560
 Cu114 Cu 0.62086 0.66939 0.66887
 N115 N 0.63886 0.69730 0.62335
 N116 N 0.62092 0.69646 0.64189
 C117 C 0.60403 0.71666 0.63874
 C118 C 0.61172 0.73104 0.61699
 C119 C 0.63394 0.71808 0.60773
 H120 H 0.58735 0.72048 0.65135
 H121 H 0.64586 0.72356 0.59108
 N122 N 0.62413 0.64044 0.69433
 N123 N 0.64291 0.62249 0.69309
 C124 C 0.64007 0.60568 0.71325
 C125 C 0.61844 0.61335 0.72797
 C126 C 0.60884 0.63549 0.71531
 H127 H 0.65280 0.58902 0.71690
 H128 H 0.59217 0.64737 0.72114
 H129 H 0.63953 0.64105 0.64657
 H130 H 0.66090 0.66178 0.66799
 N131 N 0.80275 0.37607 0.14408
 N132 N 0.80418 0.35706 0.12673
 C133 C 0.78406 0.35957 0.10973
 C134 C 0.76916 0.38134 0.11678
 C135 C 0.78170 0.39129 0.13873
 H136 H 0.78040 0.34635 0.09360
 H137 H 0.77609 0.40839 0.14998
 Cu138 Cu 0.83205 0.33078 0.12824
 Cu139 Cu 0.82817 0.37960 0.17242
 Cu140 Cu 0.87813 0.33299 0.17534
 N141 N 0.86012 0.30472 0.13014
 N142 N 0.87806 0.30567 0.14863
 C143 C 0.89486 0.28537 0.14564
 C144 C 0.88709 0.27082 0.12406
 C145 C 0.86493 0.28377 0.11474
 H146 H 0.91154 0.28159 0.15824
 H147 H 0.85296 0.27816 0.09819
 N148 N 0.87483 0.36213 0.20058
 N149 N 0.85577 0.37980 0.19956
 C150 C 0.85870 0.39677 0.21959
 C151 C 0.88069 0.38948 0.23394
 C152 C 0.89038 0.36742 0.22124
 H153 H 0.84580 0.41326 0.22339
 H154 H 0.90729 0.35577 0.22685
 H155 H 0.85910 0.36135 0.15332
 H156 H 0.83799 0.34017 0.17461
 N157 N 0.30412 0.12314 0.85700
 N158 N 0.30599 0.14166 0.87481
 C159 C 0.28588 0.13915 0.89185
 C160 C 0.27052 0.11787 0.88437
 C161 C 0.28280 0.10821 0.86211
 H162 H 0.28251 0.15207 0.90829
 H163 H 0.27680 0.09152 0.85047
 Cu164 Cu 0.33428 0.16750 0.87391
 Cu165 Cu 0.32933 0.11984 0.82846
 Cu166 Cu 0.37928 0.16633 0.82547
 N167 N 0.36194 0.19392 0.87134
 N168 N 0.37943 0.19340 0.85239
 C169 C 0.39594 0.21398 0.85508
 C170 C 0.38842 0.22825 0.87695
 C171 C 0.36672 0.21486 0.88675
 H172 H 0.41222 0.21815 0.84207
 H173 H 0.35501 0.22018 0.90359
 N174 N 0.37580 0.13742 0.80004
 N175 N 0.35673 0.11978 0.80109
 C176 C 0.35952 0.10295 0.78093
 C177 C 0.38144 0.11028 0.76646
 C178 C 0.39123 0.13224 0.77923
 H179 H 0.34658 0.08649 0.77714
 H180 H 0.40813 0.14388 0.77357
 H181 H 0.36067 0.13753 0.84733
 H182 H 0.33908 0.15937 0.82718
 N183 N 0.19504 0.87491 0.36311
 N184 N 0.19405 0.85571 0.38030
 C185 C 0.21415 0.85850 0.39730
 C186 C 0.22852 0.88067 0.39040
 C187 C 0.21572 0.89055 0.36857
 H188 H 0.21800 0.84539 0.41350
 H189 H 0.22126 0.90757 0.35715
 Cu190 Cu 0.16674 0.82884 0.37846
 Cu191 Cu 0.16993 0.87796 0.33450
 Cu192 Cu 0.12063 0.83081 0.33124
 N193 N 0.13854 0.80289 0.37675
 N194 N 0.12064 0.80375 0.35821
 C195 C 0.10376 0.78354 0.36135
 C196 C 0.11142 0.76916 0.38309
 C197 C 0.13361 0.78210 0.39235
 H198 H 0.08711 0.77972 0.34874
 H199 H 0.14550 0.77661 0.40900
 N200 N 0.12396 0.85976 0.30578
 N201 N 0.14273 0.87769 0.30701
 C202 C 0.13994 0.89449 0.28682
 C203 C 0.11834 0.88682 0.27211
 C204 C 0.10872 0.86470 0.28479
 H205 H 0.15268 0.91113 0.28316
 H206 H 0.09207 0.85282 0.27896
 H207 H 0.13925 0.85916 0.35352
 H208 H 0.16068 0.83841 0.33211
 Zn209 Zn 0.00465 1.03392 -0.01178
 Zn210 Zn -0.01964 0.98055 -0.01798
 Zn211 Zn 0.03345 0.98647 0.00694
 Zn212 Zn -0.01450 1.00487 0.03508
 O213 O 0.00095 1.00142 0.00302
 O214 O -0.01265 1.03671 -0.04203
 O215 O -0.00271 0.95139 -0.02886
 O216 O 0.05962 1.00674 -0.00518
 O217 O -0.03052 0.99732 -0.04703
 O218 O 0.03825 1.04197 -0.01912
 O219 O 0.03635 0.95604 -0.01021
 O220 O 0.00556 0.99254 0.06113
 O221 O -0.04907 0.96936 -0.00176
 O222 O 0.04130 0.97909 0.04028
 O223 O -0.04501 0.98748 0.03733
 O224 O -0.02197 1.03833 0.04322
 O225 O -0.00766 1.05993 0.00849
 C226 C -0.02655 1.02065 -0.05510
 C227 C 0.02052 0.94308 -0.02445
 C228 C 0.05959 1.02932 -0.01582
 C229 C 0.02835 0.98217 0.06131
 C230 C -0.05773 0.97338 0.02122
 C231 C -0.01846 1.05974 0.03089
 Zn232 Zn 0.48585 0.00547 0.46391
 Zn233 Zn 0.48065 -0.01910 0.51689
 Zn234 Zn 0.53377 -0.01322 0.49187
 Zn235 Zn 0.50512 0.03423 0.51080
 O236 O 0.50131 0.00180 0.49591
 O237 O 0.45530 -0.01182 0.46168
 O238 O 0.49752 -0.04834 0.52767
 O239 O 0.54153 -0.02055 0.45850
 O240 O 0.45119 -0.03015 0.50069
 O241 O 0.50585 -0.00686 0.43777
 O242 O 0.53659 -0.04370 0.50896
 O243 O 0.53875 0.04215 0.51807
 O244 O 0.46983 -0.00241 0.54601
 O245 O 0.56003 0.00694 0.50395
 O246 O 0.48787 0.03692 0.54110
 O247 O 0.49285 0.06037 0.49068
 O248 O 0.47847 0.03898 0.45590
 C249 C 0.44253 -0.02598 0.47775
 C250 C 0.52074 -0.05667 0.52321
 C251 C 0.52857 -0.01737 0.43751
 C252 C 0.56006 0.02947 0.51467
 C253 C 0.47390 0.02086 0.55415
 C254 C 0.48203 0.06032 0.46831
 Zn255 Zn 1.00554 0.46554 0.48870
 Zn256 Zn 1.03412 0.51297 0.50765
 Zn257 Zn 0.98097 0.51885 0.48281
 Zn258 Zn 0.98627 0.49419 0.53573
 O259 O 1.00169 0.49792 0.50368
 O260 O 1.03917 0.45770 0.48122
 O261 O 1.03686 0.54351 0.49066
 O262 O 0.97012 0.50222 0.45371
 O263 O 1.06040 0.49289 0.49537
 O264 O 0.98820 0.46288 0.45848
 O265 O 0.99777 0.54813 0.47205
 O266 O 0.95567 0.51143 0.53809
 O267 O 1.04193 0.52021 0.54102
 O268 O 0.95152 0.52985 0.49913
 O269 O 1.00626 0.50648 0.56183
 O270 O 0.97898 0.46064 0.54369
 O271 O 0.99340 0.43933 0.50884
 C272 C 1.06046 0.47041 0.48455
 C273 C 1.02096 0.55649 0.47648
 C274 C 0.97419 0.47896 0.44552
 C275 C 0.94288 0.52563 0.52208
 C276 C 1.02898 0.51699 0.56204
 C277 C 0.98260 0.43933 0.53125
 Zn278 Zn 0.48525 0.49504 0.96492
 Zn279 Zn 0.53313 0.51348 0.99305
 Zn280 Zn 0.47993 0.51969 1.01784
 Zn281 Zn 0.50414 0.46622 1.01197
 O282 O 0.50057 0.49864 0.99699
 O283 O 0.50540 0.50728 0.93885
 O284 O 0.53601 0.54397 1.01006
 O285 O 0.45058 0.53084 1.00149
 O286 O 0.54110 0.52071 0.95969
 O287 O 0.45474 0.51243 0.96254
 O288 O 0.49687 0.54887 1.02858
 O289 O 0.48666 0.46363 1.04217
 O290 O 0.55922 0.49318 1.00533
 O291 O 0.46889 0.50310 1.04695
 O292 O 0.53768 0.45814 1.01947
 O293 O 0.49194 0.44011 0.99180
 O294 O 0.47785 0.46155 0.95690
 C295 C 0.52819 0.51762 0.93866
 C296 C 0.52014 0.55707 1.02418
 C297 C 0.44197 0.52665 0.97855
 C298 C 0.47274 0.47979 1.05514
 C299 C 0.55908 0.47068 1.01613
 C300 C 0.48130 0.44021 0.96934
 C301 C 1.20118 0.41155 0.42153
 C302 C 1.21306 0.42579 0.40131
 C303 C 1.23615 0.41648 0.38952
 C304 C 1.24785 0.39265 0.39777
 C305 C 1.23557 0.37856 0.41827
 C306 C 1.21249 0.38795 0.42998
 C307 C 1.17730 0.42110 0.43347
 C308 C 1.15723 0.42916 0.44329
 C309 C 1.13318 0.43895 0.45469
 C310 C 1.13300 0.46318 0.46768
 C311 C 1.10943 0.47321 0.47784
 C312 C 1.08569 0.45911 0.47511
 C313 C 1.08617 0.43456 0.46236
 C314 C 1.10977 0.42458 0.45221
 H315 H 1.20444 0.44411 0.39460
 H316 H 1.24461 0.42815 0.37396
 H317 H 1.24356 0.36021 0.42545
 H318 H 1.20342 0.37675 0.44562
 H319 H 1.15101 0.47447 0.46968
 H320 H 1.10976 0.49217 0.48752
 H321 H 1.06827 0.42322 0.45990
 H322 H 1.10969 0.40581 0.44217
 C323 C 0.29848 0.58938 0.92652
 C324 C 0.28843 0.61386 0.93415
 C325 C 0.26506 0.62338 0.92306
 C326 C 0.25148 0.60854 0.90411
 C327 C 0.26168 0.58383 0.89682
 C328 C 0.28499 0.57437 0.90793
 C329 C 0.32296 0.57977 0.93710
 C330 C 0.34358 0.57120 0.94518
 C331 C 0.36832 0.56035 0.95379
 C332 C 0.37762 0.56506 0.97913
 C333 C 0.40164 0.55418 0.98728
 C334 C 0.41661 0.53844 0.97014
 C335 C 0.40705 0.53391 0.94471
 C336 C 0.38311 0.54478 0.93664
 H337 H 0.29877 0.62569 0.94847
 H338 H 0.25794 0.64253 0.92907
 H339 H 0.25172 0.57168 0.88256
 H340 H 0.29259 0.55537 0.90189
 H341 H 0.36631 0.57708 0.99257
 H342 H 0.40844 0.55804 1.00697
 H343 H 0.41804 0.52191 0.93100
 H344 H 0.37609 0.54100 0.91699
 C345 C -0.20139 0.91051 0.07280
 C346 C -0.21144 0.88605 0.06511
 C347 C -0.23485 0.87655 0.07616
 C348 C -0.24847 0.89139 0.09513
 C349 C -0.23827 0.91607 0.10247
 C350 C -0.21492 0.92551 0.09139
 C351 C -0.17687 0.92010 0.06225
 C352 C -0.15621 0.92867 0.05424
 C353 C -0.13144 0.93955 0.04571
 C354 C -0.12207 0.93501 0.02034
 C355 C -0.09804 0.94593 0.01228
 C356 C -0.08312 0.96155 0.02954
 C357 C -0.09274 0.96590 0.05499
 C358 C -0.11670 0.95498 0.06298
 H359 H -0.20106 0.87423 0.05078
 H360 H -0.24197 0.85743 0.07012
 H361 H -0.24827 0.92822 0.11674
 H362 H -0.20732 0.94448 0.09747
 H363 H -0.13334 0.92309 0.00681
 H364 H -0.09118 0.94221 -0.00743
 H365 H -0.08179 0.97780 0.06879
 H366 H -0.12378 0.95863 0.08265
 C367 C 0.70054 0.08882 0.57721
 C368 C 0.71313 0.07380 0.59643
 C369 C 0.73600 0.08319 0.60850
 C370 C 0.74663 0.10781 0.60149
 C371 C 0.73383 0.12272 0.58205
 C372 C 0.71095 0.11328 0.57003
 C373 C 0.67679 0.07925 0.56512
 C374 C 0.65679 0.07114 0.55527
 C375 C 0.63277 0.06127 0.54394
 C376 C 0.60932 0.07561 0.54644
 C377 C 0.58573 0.06551 0.53647
 C378 C 0.58529 0.04088 0.52389
 C379 C 0.60907 0.02681 0.52111
 C380 C 0.63263 0.03696 0.53110
 H381 H 0.70524 0.05482 0.60213
 H382 H 0.74534 0.07103 0.62317
 H383 H 0.74122 0.14181 0.57625
 H384 H 0.70131 0.12512 0.55522
 H385 H 0.60921 0.09444 0.55638
 H386 H 0.56780 0.07684 0.53896
 H387 H 0.60942 0.00780 0.51156
 H388 H 0.65067 0.02568 0.52910
 C389 C 0.42241 0.20106 0.40672
 C390 C 0.43266 0.21299 0.38429
 C391 C 0.42125 0.23604 0.37449
 C392 C 0.39926 0.24762 0.38701
 C393 C 0.38924 0.23531 0.40971
 C394 C 0.40073 0.21228 0.41941
 C395 C 0.43393 0.17717 0.41666
 C396 C 0.44325 0.15707 0.42515
 C397 C 0.45396 0.13298 0.43549
 C398 C 0.45107 0.10943 0.42161
 C399 C 0.46054 0.08583 0.43210
 C400 C 0.47301 0.08548 0.45668
 C401 C 0.47611 0.10933 0.47032
 C402 C 0.46662 0.13291 0.45979
 H403 H 0.44946 0.20444 0.37428
 H404 H 0.42981 0.24453 0.35707
 H405 H 0.37250 0.24321 0.42018
 H406 H 0.39263 0.20317 0.43681
 H407 H 0.44126 0.10927 0.40281
 H408 H 0.45782 0.06784 0.42108
 H409 H 0.48560 0.10976 0.48928
 H410 H 0.46892 0.15103 0.47071
 C411 C 0.92342 0.29838 0.59279
 C412 C 0.93369 0.28636 0.61516
 C413 C 0.92231 0.26326 0.62488
 C414 C 0.90033 0.25172 0.61237
 C415 C 0.89031 0.26412 0.58974
 C416 C 0.90176 0.28719 0.58011
 C417 C 0.93490 0.32231 0.58290
 C418 C 0.94418 0.34244 0.57443
 C419 C 0.95481 0.36656 0.56409
 C420 C 0.95186 0.39009 0.57800
 C421 C 0.96124 0.41373 0.56750
 C422 C 0.97367 0.41413 0.54288
 C423 C 0.97684 0.39030 0.52920
 C424 C 0.96744 0.36669 0.53975
 H425 H 0.95047 0.29488 0.62516
 H426 H 0.93088 0.25470 0.64225
 H427 H 0.87358 0.25625 0.57926
 H428 H 0.89364 0.29636 0.56275
 H429 H 0.94207 0.39022 0.59684
 H430 H 0.95848 0.43170 0.57855
 H431 H 0.98631 0.38991 0.51022
 H432 H 0.96978 0.34859 0.52880
 C433 C 0.07587 0.80081 -0.08651
 C434 C 0.06569 0.78906 -0.10904
 C435 C 0.07686 0.76584 -0.11872
 C436 C 0.09854 0.75391 -0.10601
 C437 C 0.10843 0.76601 -0.08318
 C438 C 0.09719 0.78920 -0.07360
 C439 C 0.06485 0.82500 -0.07674
 C440 C 0.05630 0.84540 -0.06818
 C441 C 0.04704 0.86991 -0.05745
 C442 C 0.06390 0.88489 -0.04177
 C443 C 0.05524 0.90866 -0.03111
 C444 C 0.02950 0.91786 -0.03597
 C445 C 0.01265 0.90269 -0.05181
 C446 C 0.02140 0.87884 -0.06248
 H447 H 0.04918 0.79792 -0.11921
 H448 H 0.06839 0.75750 -0.13623
 H449 H 0.12492 0.75784 -0.07255
 H450 H 0.10525 0.79817 -0.05613
 H451 H 0.08378 0.87816 -0.03776
 H452 H 0.06874 0.91982 -0.01903
 H453 H -0.00726 0.90921 -0.05592
 H454 H 0.00818 0.86738 -0.07460
 C455 C 0.57559 0.69948 1.08565
 C456 C 0.56536 0.71130 1.10814
 C457 C 0.57654 0.73451 1.11780
 C458 C 0.59829 0.74635 1.10509
 C459 C 0.60822 0.73419 1.08229
 C460 C 0.59697 0.71101 1.07274
 C461 C 0.56456 0.67529 1.07594
 C462 C 0.55600 0.65487 1.06745
 C463 C 0.54671 0.63035 1.05682
 C464 C 0.52103 0.62153 1.06185
 C465 C 0.51227 0.59765 1.05130
 C466 C 0.52914 0.58233 1.03558
 C467 C 0.55492 0.59142 1.03071
 C468 C 0.56360 0.61523 1.04125
 H469 H 0.54880 0.70251 1.11832
 H470 H 0.56803 0.74290 1.13529
 H471 H 0.62477 0.74230 1.07167
 H472 H 0.60508 0.70199 1.05530
 H473 H 0.50780 0.63310 1.07389
 H474 H 0.49233 0.59122 1.05542
 H475 H 0.56844 0.58015 1.01871
 H476 H 0.58351 0.62186 1.03723
 C477 C 0.41032 0.42604 1.19715
 C478 C 0.38712 0.43541 1.20873
 C479 C 0.37785 0.42416 1.23198
 C480 C 0.39167 0.40331 1.24392
 C481 C 0.41507 0.39422 1.23215
 C482 C 0.42428 0.40549 1.20896
 C483 C 0.41975 0.43700 1.17292
 C484 C 0.42822 0.44535 1.15250
 C485 C 0.43900 0.45425 1.12800
 C486 C 0.43466 0.48000 1.11920
 C487 C 0.44554 0.48841 1.09544
 C488 C 0.46093 0.47112 1.08023
 C489 C 0.46508 0.44528 1.08928
 C490 C 0.45420 0.43695 1.11297
 H491 H 0.37610 0.45128 1.19970
 H492 H 0.35971 0.43161 1.24032
 H493 H 0.42644 0.37846 1.24081
 H494 H 0.44228 0.39810 1.20018
 H495 H 0.42293 0.49356 1.13070
 H496 H 0.44198 0.50841 1.08903
 H497 H 0.47679 0.43145 1.07810
 H498 H 0.45770 0.41699 1.11960
 C499 C 0.58831 -0.07787 0.29717
 C500 C 0.57320 -0.09672 0.28405
 C501 C 0.58266 -0.10824 0.26106
 C502 C 0.60744 -0.10104 0.25084
 C503 C 0.62243 -0.08198 0.26419
 C504 C 0.61292 -0.07050 0.28718
 C505 C 0.57863 -0.06632 0.32100
 C506 C 0.57041 -0.05689 0.34104
 C507 C 0.56041 -0.04600 0.36504
 C508 C 0.53581 -0.03351 0.36547
 C509 C 0.52561 -0.02381 0.38897
 C510 C 0.53991 -0.02652 0.41240
 C511 C 0.56480 -0.03880 0.41169
 C512 C 0.57495 -0.04848 0.38815
 H513 H 0.55409 -0.10255 0.29161
 H514 H 0.57043 -0.12263 0.25131
 H515 H 0.64165 -0.07605 0.25712
 H516 H 0.62481 -0.05597 0.29723
 H517 H 0.52438 -0.03152 0.34769
 H518 H 0.50639 -0.01448 0.38883
 H519 H 0.57631 -0.04122 0.42935
 H520 H 0.59401 -0.05815 0.38804
 C521 C -0.08907 1.07488 -0.19682
 C522 C -0.07380 1.09318 -0.21055
 C523 C -0.08338 1.10451 -0.23355
 C524 C -0.10847 1.09770 -0.24320
 C525 C -0.12358 1.07905 -0.22936
 C526 C -0.11394 1.06776 -0.20631
 C527 C -0.07933 1.06402 -0.17268
 C528 C -0.07074 1.05566 -0.15233
 C529 C -0.05994 1.04662 -0.12791
 C530 C -0.04467 1.06378 -0.11284
 C531 C -0.03388 1.05531 -0.08918
 C532 C -0.03821 1.02947 -0.08019
 C533 C -0.05365 1.01233 -0.09545
 C534 C -0.06444 1.02088 -0.11918
 H535 H -0.05451 1.09884 -0.20338
 H536 H -0.07102 1.11852 -0.24372
 H537 H -0.14301 1.07342 -0.23602
 H538 H -0.12597 1.05366 -0.19578
 H539 H -0.04105 1.08374 -0.11941
 H540 H -0.02212 1.06903 -0.07795
 H541 H -0.05736 0.99233 -0.08909
 H542 H -0.07624 1.00743 -0.13071
 C543 C 1.08852 0.57768 0.70225
 C544 C 1.11302 0.57014 0.71235
 C545 C 1.12251 0.58166 0.73530
 C546 C 1.10761 0.60094 0.74850
 C547 C 1.08295 0.60830 0.73817
 C548 C 1.07350 0.59674 0.71522
 C549 C 1.07888 0.56607 0.67845
 C550 C 1.07070 0.55660 0.65843
 C551 C 1.06075 0.54566 0.63445
 C552 C 1.07529 0.54815 0.61131
 C553 C 1.06517 0.53845 0.58780
 C554 C 1.04031 0.52612 0.58713
 C555 C 1.02602 0.52339 0.61059
 C556 C 1.03619 0.53311 0.63407
 H557 H 1.12484 0.55544 0.70242
 H558 H 1.14164 0.57559 0.74246
 H559 H 1.07079 0.62287 0.74780
 H560 H 1.05448 0.60270 0.70757
 H561 H 1.09432 0.55786 0.61139
 H562 H 1.07667 0.54089 0.57011
 H563 H 1.00683 0.51402 0.61077
 H564 H 1.02476 0.53110 0.65188
 C565 C 0.79969 0.58908 0.57438
 C566 C 0.79063 0.61424 0.56777
 C567 C 0.76743 0.62406 0.57900
 C568 C 0.75303 0.60882 0.59707
 C569 C 0.76222 0.58343 0.60331
 C570 C 0.78536 0.57368 0.59205
 C571 C 0.82405 0.57919 0.56374
 C572 C 0.84459 0.57042 0.55562
 C573 C 0.86925 0.55940 0.54692
 C574 C 0.87861 0.56417 0.52160
 C575 C 0.90259 0.55322 0.51340
 C576 C 0.91748 0.53736 0.53050
 C577 C 0.90784 0.53274 0.55591
 C578 C 0.88392 0.54368 0.56402
 H579 H 0.80163 0.62638 0.55417
 H580 H 0.76111 0.64372 0.57383
 H581 H 0.75160 0.57099 0.61687
 H582 H 0.79219 0.55417 0.59730
 H583 H 0.86738 0.57631 0.50820
 H584 H 0.90945 0.55716 0.49373
 H585 H 0.91877 0.52065 0.56957
 H586 H 0.87686 0.53985 0.58366
 C587 C 0.69895 0.41066 1.07950
 C588 C 0.70681 0.42073 1.10371
 C589 C 0.72965 0.41128 1.11581
 C590 C 0.74499 0.39154 1.10384
 C591 C 0.73691 0.38161 1.07942
 C592 C 0.71406 0.39111 1.06737
 C593 C 0.67530 0.42029 1.06725
 C594 C 0.65539 0.42849 1.05727
 C595 C 0.63148 0.43847 1.04581
 C596 C 0.63153 0.46274 1.03287
 C597 C 0.60807 0.47302 1.02276
 C598 C 0.58419 0.45913 1.02551
 C599 C 0.58444 0.43453 1.03818
 C600 C 0.60794 0.42430 1.04827
 H601 H 0.69523 0.43585 1.11330
 H602 H 0.73504 0.41933 1.13463
 H603 H 0.74822 0.36660 1.06947
 H604 H 0.70817 0.38319 1.04860
 H605 H 0.64964 0.47389 1.03089
 H606 H 0.60857 0.49201 1.01314
 H607 H 0.56643 0.42333 1.04064
 H608 H 0.60767 0.40549 1.05828
 C609 C 0.19997 1.08899 -0.07858
 C610 C 0.20751 1.07940 -0.10310
 C611 C 0.23045 1.08872 -0.11513
 C612 C 0.24622 1.10783 -0.10278
 C613 C 0.23846 1.11728 -0.07806
 C614 C 0.21549 1.10792 -0.06607
 C615 C 0.17622 1.07946 -0.06639
 C616 C 0.15623 1.07133 -0.05648
 C617 C 0.13224 1.06142 -0.04510
 C618 C 0.13215 1.03707 -0.03229
 C619 C 0.10861 1.02683 -0.02230
 C620 C 0.08479 1.04083 -0.02505
 C621 C 0.08518 1.06551 -0.03759
 C622 C 0.10876 1.07570 -0.04755
 H623 H 0.19560 1.06476 -0.11298
 H624 H 0.23559 1.08105 -0.13419
 H625 H 0.25010 1.13180 -0.06780
 H626 H 0.20985 1.11545 -0.04706
 H627 H 0.15022 1.02584 -0.03032
 H628 H 0.10900 1.00780 -0.01278
 H629 H 0.06721 1.07678 -0.04004
 H630 H 0.10861 1.09455 -0.05747
 C631 C 0.29932 -0.08921 0.42574
 C632 C 0.28508 -0.07378 0.40803
 C633 C 0.26195 -0.08346 0.39677
 C634 C 0.25268 -0.10881 0.40303
 C635 C 0.26699 -0.12408 0.42112
 C636 C 0.29018 -0.11434 0.43236
 C637 C 0.32368 -0.07939 0.43637
 C638 C 0.34423 -0.07068 0.44448
 C639 C 0.36889 -0.05970 0.45311
 C640 C 0.38359 -0.04405 0.43596
 C641 C 0.40751 -0.03314 0.44401
 C642 C 0.41714 -0.03772 0.46941
 C643 C 0.40223 -0.05351 0.48657
 C644 C 0.37823 -0.06443 0.47844
 H645 H 0.29198 -0.05429 0.40276
 H646 H 0.25140 -0.07100 0.38319
 H647 H 0.26061 -0.14371 0.42631
 H648 H 0.30111 -0.12650 0.44597
 H649 H 0.37654 -0.04026 0.41632
 H650 H 0.41845 -0.02110 0.43029
 H651 H 0.40908 -0.05741 0.50624
 H652 H 0.36699 -0.07652 0.49188
 C653 C 0.57623 -0.19854 0.58614
 C654 C 0.59521 -0.21214 0.57158
 C655 C 0.60663 -0.23510 0.58151
 C656 C 0.59923 -0.24482 0.60624
 C657 C 0.57995 -0.23106 0.62064
 C658 C 0.56857 -0.20807 0.61065
 C659 C 0.56518 -0.17448 0.57607
 C660 C 0.55659 -0.15418 0.56730
 C661 C 0.54727 -0.12978 0.55637
 C662 C 0.56408 -0.11490 0.54050
 C663 C 0.55540 -0.09117 0.52975
 C664 C 0.52970 -0.08191 0.53472
 C665 C 0.51288 -0.09701 0.55072
 C666 C 0.52165 -0.12081 0.56148
 H667 H 0.60130 -0.20492 0.55257
 H668 H 0.62118 -0.24519 0.56972
 H669 H 0.57384 -0.23776 0.63979
 H670 H 0.55395 -0.19764 0.62214
 H671 H 0.58395 -0.12166 0.53642
 H672 H 0.56887 -0.08008 0.51753
 H673 H 0.49300 -0.09044 0.55492
 H674 H 0.50847 -0.13219 0.57376
 C675 C 1.07601 0.69866 0.41387
 C676 C 1.06834 0.70824 0.38939
 C677 C 1.07969 0.73126 0.37942
 C678 C 1.09894 0.74500 0.39382
 C679 C 1.10634 0.73524 0.41852
 C680 C 1.09496 0.71225 0.42843
 C681 C 1.06502 0.67456 0.42389
 C682 C 1.05649 0.65422 0.43262
 C683 C 1.04726 0.62977 0.44350
 C684 C 1.06412 0.61487 0.45928
 C685 C 1.05552 0.59108 0.46997
 C686 C 1.02984 0.58179 0.46503
 C687 C 1.01297 0.59690 0.44913
 C688 C 1.02166 0.62076 0.43843
 H689 H 1.05376 0.69780 0.37790
 H690 H 1.07359 0.73798 0.36030
 H691 H 1.12086 0.74531 0.43032
 H692 H 1.10105 0.70500 0.44741
 H693 H 1.08397 0.62165 0.46332
 H694 H 1.06903 0.57998 0.48211
 H695 H 0.99311 0.59031 0.44496
 H696 H 1.00844 0.63216 0.42623
 C697 C -0.07752 1.20021 0.09356
 C698 C -0.06997 1.20976 0.11808
 C699 C -0.08136 1.23278 0.12798
 C700 C -0.10052 1.24656 0.11347
 C701 C -0.10786 1.23679 0.08877
 C702 C -0.09643 1.21379 0.07893
 C703 C -0.06613 1.17633 0.08347
 C704 C -0.05692 1.15625 0.07481
 C705 C -0.04634 1.13221 0.06426
 C706 C -0.04923 1.10857 0.07801
 C707 C -0.03985 1.08502 0.06733
 C708 C -0.02746 1.08482 0.04268
 C709 C -0.02437 1.10876 0.02916
 C710 C -0.03377 1.13228 0.03989
 H711 H -0.05539 1.19935 0.12961
 H712 H -0.07532 1.23952 0.14711
 H713 H -0.12231 1.24689 0.07690
 H714 H -0.10240 1.20658 0.05990
 H715 H -0.05897 1.10829 0.09688
 H716 H -0.04255 1.06696 0.07826
 H717 H -0.01493 1.10931 0.01016
 H718 H -0.03147 1.15047 0.02906
 C719 C 0.42320 0.29926 0.90708
 C720 C 0.43029 0.29005 0.88228
 C721 C 0.41910 0.26690 0.87249
 C722 C 0.40060 0.25265 0.88740
 C723 C 0.39371 0.26208 0.91237
 C724 C 0.40494 0.28521 0.92210
 C725 C 0.43439 0.32326 0.91707
 C726 C 0.44344 0.34341 0.92566
 C727 C 0.45385 0.36754 0.93616
 C728 C 0.45097 0.39112 0.92230
 C729 C 0.46019 0.41473 0.93293
 C730 C 0.47242 0.41506 0.95763
 C731 C 0.47550 0.39118 0.97127
 C732 C 0.46625 0.36760 0.96059
 H733 H 0.44437 0.30082 0.87045
 H734 H 0.42478 0.26042 0.85315
 H735 H 0.37977 0.25162 0.92455
 H736 H 0.39933 0.29215 0.94135
 H737 H 0.44135 0.39129 0.90339
 H738 H 0.45751 0.43274 0.92192
 H739 H 0.48481 0.39073 0.99030
 H740 H 0.46855 0.34945 0.97150
 C741 C 0.58869 0.57765 0.79838
 C742 C 0.61330 0.57019 0.78846
 C743 C 0.62295 0.58168 0.76552
 C744 C 0.60809 0.60088 0.75217
 C745 C 0.58330 0.60814 0.76230
 C746 C 0.57370 0.59661 0.78524
 C747 C 0.57891 0.56613 0.82220
 C748 C 0.57060 0.55675 0.84223
 C749 C 0.56046 0.54594 0.86623
 C750 C 0.53577 0.53365 0.86661
 C751 C 0.52543 0.52405 0.89010
 C752 C 0.53967 0.52667 0.91357
 C753 C 0.56466 0.53875 0.91290
 C754 C 0.57495 0.54832 0.88938
 H755 H 0.62511 0.55557 0.79853
 H756 H 0.64217 0.57568 0.75851
 H757 H 0.57116 0.62263 0.75254
 H758 H 0.55460 0.60252 0.79274
 H759 H 0.52438 0.53173 0.84880
 H760 H 0.50615 0.51487 0.88992
 H761 H 0.57613 0.54109 0.93060
 H762 H 0.59408 0.55784 0.88930
 C763 C 0.41141 0.07495 0.69598
 C764 C 0.42665 0.09324 0.70971
 C765 C 0.41701 0.10456 0.73270
 C766 C 0.39189 0.09777 0.74233
 C767 C 0.37680 0.07914 0.72849
 C768 C 0.38650 0.06785 0.70545
 C769 C 0.42119 0.06411 0.67185
 C770 C 0.42980 0.05574 0.65151
 C771 C 0.44062 0.04672 0.62707
 C772 C 0.45601 0.06385 0.61204
 C773 C 0.46676 0.05541 0.58834
 C774 C 0.46229 0.02963 0.57929
 C775 C 0.44674 0.01251 0.59452
 C776 C 0.43598 0.02103 0.61829
 H777 H 0.44596 0.09889 0.70254
 H778 H 0.42934 0.11857 0.74287
 H779 H 0.35734 0.07351 0.73514
 H780 H 0.37449 0.05377 0.69492
 H781 H 0.45973 0.08376 0.61866
 H782 H 0.47861 0.06911 0.57714
 H783 H 0.44292 -0.00744 0.58811
 H784 H 0.42409 0.00761 0.62979
 C785 C 0.08877 0.92237 0.20161
 C786 C 0.07372 0.90351 0.21483
 C787 C 0.08326 0.89202 0.23779
 C788 C 0.10806 0.89925 0.24788
 C789 C 0.12297 0.91836 0.23446
 C790 C 0.11338 0.92980 0.21148
 C791 C 0.07903 0.93383 0.17777
 C792 C 0.07071 0.94315 0.15773
 C793 C 0.06057 0.95390 0.13372
 C794 C 0.07507 0.95148 0.11055
 C795 C 0.06478 0.96102 0.08703
 C796 C 0.03979 0.97310 0.08639
 C797 C 0.02552 0.97574 0.10987
 C798 C 0.03586 0.96618 0.13336
 H799 H 0.05462 0.89763 0.20737
 H800 H 0.07108 0.87760 0.24762
 H801 H 0.14219 0.92433 0.24144
 H802 H 0.12523 0.94435 0.20136
 H803 H 0.09421 0.94197 0.11062
 H804 H 0.07627 0.95866 0.06932
 H805 H 0.00624 0.98492 0.11007
 H806 H 0.02446 0.96812 0.15118
 C807 C 0.91105 0.42502 0.30407
 C808 C 0.92625 0.40675 0.29023
 C809 C 0.91649 0.39537 0.26734
 C810 C 0.89129 0.40209 0.25792
 C811 C 0.87624 0.42072 0.27186
 C812 C 0.88606 0.43206 0.29480
 C813 C 0.92095 0.43588 0.32812
 C814 C 0.92967 0.44423 0.34840
 C815 C 0.94062 0.45323 0.37276
 C816 C 0.95613 0.43609 0.38764
 C817 C 0.96699 0.44449 0.41128
 C818 C 0.96250 0.47024 0.42042
 C819 C 0.94684 0.48737 0.40534
 C820 C 0.93598 0.47889 0.38163
 H821 H 0.94563 0.40114 0.29723
 H822 H 0.92880 0.38137 0.25708
 H823 H 0.85672 0.42628 0.26537
 H824 H 0.87407 0.44612 0.30542
 H825 H 0.95985 0.41619 0.38096
 H826 H 0.97892 0.43078 0.42237
 H827 H 0.94301 0.50730 0.41182
 H828 H 0.92400 0.49232 0.37024
   
