data_POSCAR
  _audit_creation_date              2014-09-24
  _audit_creation_method            'ToBaCCo'
  _symmetry_space_group_name_H-M    'P1'
  _symmetry_Int_Tables_number       1
  _symmetry_cell_setting            triclinic
  loop_
  _symmetry_equiv_pos_as_xyz
 x,y,z
_cell_length_a 54.0882
_cell_length_b 54.4951
_cell_length_c 54.7116
_cell_angle_alpha 89.966800
_cell_angle_beta 89.971400
_cell_angle_gamma 90.050500
loop_
  _atom_site_label
  _atom_site_type_symbol
  _atom_site_fract_x
  _atom_site_fract_y
  _atom_site_fract_z
N1 N 0.28304 0.23446 0.21637
 N2 N 0.27224 0.25379 0.20674
 C3 C 0.28565 0.26155 0.18744
 C4 C 0.30581 0.24618 0.18490
 C5 C 0.30359 0.22923 0.20354
 H6 H 0.28107 0.27704 0.17595
 H7 H 0.31593 0.21410 0.20734
 Cu8 Cu 0.24158 0.26662 0.22025
 Cu9 Cu 0.26941 0.21713 0.24440
 Cu10 Cu 0.21481 0.23956 0.26893
 N11 N 0.21161 0.27965 0.23497
 N12 N 0.20118 0.26903 0.25395
 C13 C 0.18110 0.28203 0.26063
 C14 C 0.17889 0.30181 0.24496
 C15 C 0.19850 0.29974 0.22891
 H16 H 0.16915 0.27760 0.27586
 H17 H 0.20297 0.31217 0.21414
 N18 N 0.23159 0.21004 0.28155
 N19 N 0.25278 0.20199 0.27265
 C20 C 0.26004 0.18227 0.28562
 C21 C 0.24251 0.17759 0.30335
 C22 C 0.22470 0.19546 0.30027
 H23 H 0.27680 0.17194 0.28242
 H24 H 0.20818 0.19785 0.31116
 H25 H 0.23288 0.22660 0.23831
 H26 H 0.25094 0.24695 0.25919
 N27 N 0.71583 -0.23424 0.21616
 N28 N 0.72608 -0.25411 0.20707
 C29 C 0.71274 -0.26178 0.18772
 C30 C 0.69314 -0.24579 0.18457
 C31 C 0.69566 -0.22855 0.20294
 H32 H 0.71698 -0.27766 0.17663
 H33 H 0.68379 -0.21295 0.20632
 Cu34 Cu 0.75603 -0.26774 0.22134
 Cu35 Cu 0.72962 -0.21685 0.24406
 Cu36 Cu 0.78401 -0.23972 0.26868
 N37 N 0.78650 -0.28039 0.23537
 N38 N 0.79737 -0.26941 0.25388
 C39 C 0.81768 -0.28220 0.26026
 C40 C 0.81960 -0.30223 0.24486
 C41 C 0.79957 -0.30049 0.22927
 H42 H 0.82999 -0.27742 0.27509
 H43 H 0.79478 -0.31311 0.21477
 N44 N 0.76754 -0.20998 0.28114
 N45 N 0.74643 -0.20174 0.27221
 C46 C 0.73935 -0.18192 0.28513
 C47 C 0.75691 -0.17738 0.30283
 C48 C 0.77455 -0.19543 0.29981
 H49 H 0.72268 -0.17147 0.28192
 H50 H 0.79101 -0.19797 0.31073
 H51 H 0.76582 -0.22735 0.23783
 H52 H 0.74758 -0.24649 0.25968
 N53 N 0.71880 0.23445 0.78639
 N54 N 0.73025 0.25304 0.79673
 C55 C 0.71708 0.26048 0.81631
 C56 C 0.69641 0.24567 0.81827
 C57 C 0.69808 0.22937 0.79902
 H58 H 0.72205 0.27550 0.82824
 H59 H 0.68516 0.21489 0.79458
 Cu60 Cu 0.76102 0.26559 0.78312
 Cu61 Cu 0.73155 0.21793 0.75746
 Cu62 Cu 0.78655 0.24002 0.73331
 N63 N 0.79191 0.27791 0.76954
 N64 N 0.80133 0.26826 0.74958
 C65 C 0.82171 0.28091 0.74315
 C66 C 0.82534 0.29937 0.76011
 C67 C 0.80617 0.29688 0.77668
 H68 H 0.83299 0.27705 0.72728
 H69 H 0.80256 0.30847 0.79233
 N70 N 0.76873 0.21161 0.71954
 N71 N 0.74747 0.20362 0.72838
 C72 C 0.73975 0.18443 0.71489
 C73 C 0.75708 0.18001 0.69691
 C74 C 0.77522 0.19750 0.70036
 H75 H 0.72294 0.17415 0.71804
 H76 H 0.79181 0.19980 0.68957
 H77 H 0.76835 0.22614 0.76350
 H78 H 0.75067 0.24769 0.74359
 N79 N 0.28151 -0.23478 0.78697
 N80 N 0.27000 -0.25332 0.79736
 C81 C 0.28314 -0.26077 0.81696
 C82 C 0.30386 -0.24601 0.81886
 C83 C 0.30224 -0.22974 0.79957
 H84 H 0.27811 -0.27575 0.82894
 H85 H 0.31520 -0.21530 0.79509
 Cu86 Cu 0.23919 -0.26579 0.78378
 Cu87 Cu 0.26882 -0.21822 0.75803
 Cu88 Cu 0.21373 -0.24010 0.73398
 N89 N 0.20827 -0.27802 0.77023
 N90 N 0.19886 -0.26830 0.75029
 C91 C 0.17842 -0.28085 0.74390
 C92 C 0.17474 -0.29932 0.76086
 C93 C 0.19394 -0.29695 0.77739
 H94 H 0.16714 -0.27691 0.72806
 H95 H 0.19751 -0.30857 0.79302
 N96 N 0.23164 -0.21175 0.72017
 N97 N 0.25295 -0.20386 0.72895
 C98 C 0.26074 -0.18469 0.71542
 C99 C 0.24340 -0.18019 0.69748
 C100 C 0.22518 -0.19761 0.70099
 H101 H 0.27760 -0.17449 0.71852
 H102 H 0.20856 -0.19984 0.69024
 H103 H 0.23198 -0.22630 0.76414
 H104 H 0.24957 -0.24791 0.74420
 N105 N 0.71968 -0.23258 0.78771
 N106 N 0.72666 -0.25498 0.79336
 C107 C 0.71425 -0.26248 0.81335
 C108 C 0.69878 -0.24372 0.82066
 C109 C 0.70268 -0.22498 0.80403
 H110 H 0.71624 -0.28028 0.82188
 H111 H 0.69344 -0.20740 0.80356
 Cu112 Cu 0.75111 -0.27248 0.77418
 Cu113 Cu 0.73223 -0.21565 0.75885
 Cu114 Cu 0.78132 -0.24320 0.72898
 N115 N 0.78166 -0.28522 0.76058
 N116 N 0.79339 -0.27385 0.74283
 C117 C 0.81376 -0.28673 0.73687
 C118 C 0.81484 -0.30720 0.75180
 C119 C 0.79419 -0.30566 0.76665
 H120 H 0.82685 -0.28155 0.72282
 H121 H 0.78870 -0.31843 0.78080
 N122 N 0.76631 -0.21221 0.71791
 N123 N 0.74754 -0.20167 0.72922
 C124 C 0.74101 -0.18130 0.71682
 C125 C 0.75647 -0.17897 0.69684
 C126 C 0.77227 -0.19880 0.69809
 H127 H 0.72593 -0.16924 0.72169
 H128 H 0.78674 -0.20333 0.68522
 H129 H 0.74442 -0.24569 0.73911
 H130 H 0.76633 -0.23240 0.76208
 N131 N 0.28057 0.23245 0.78767
 N132 N 0.27364 0.25490 0.79318
 C133 C 0.28607 0.26248 0.81310
 C134 C 0.30152 0.24372 0.82050
 C135 C 0.29756 0.22491 0.80401
 H136 H 0.28413 0.28033 0.82151
 H137 H 0.30677 0.20731 0.80363
 Cu138 Cu 0.24921 0.27236 0.77393
 Cu139 Cu 0.26802 0.21542 0.75890
 Cu140 Cu 0.21886 0.24283 0.72904
 N141 N 0.21855 0.28495 0.76046
 N142 N 0.20676 0.27348 0.74284
 C143 C 0.18633 0.28630 0.73694
 C144 C 0.18530 0.30681 0.75176
 C145 C 0.20600 0.30539 0.76648
 H146 H 0.17317 0.28109 0.72300
 H147 H 0.21150 0.31826 0.78051
 N148 N 0.23391 0.21185 0.71803
 N149 N 0.25269 0.20136 0.72934
 C150 C 0.25925 0.18098 0.71698
 C151 C 0.24379 0.17860 0.69703
 C152 C 0.22795 0.19842 0.69825
 H153 H 0.27434 0.16895 0.72187
 H154 H 0.21348 0.20290 0.68539
 H155 H 0.25580 0.24535 0.73905
 H156 H 0.23395 0.23220 0.76219
 N157 N 0.27875 -0.22994 0.20821
 N158 N 0.27004 -0.25126 0.20095
 C159 C 0.28210 -0.25827 0.18060
 C160 C 0.29915 -0.24031 0.17475
 C161 C 0.29652 -0.22256 0.19259
 H162 H 0.27896 -0.27528 0.17090
 H163 H 0.30729 -0.20594 0.19448
 Cu164 Cu 0.24427 -0.26835 0.21891
 Cu165 Cu 0.26779 -0.21439 0.23838
 Cu166 Cu 0.21844 -0.24165 0.26816
 N167 N 0.21378 -0.28063 0.23324
 N168 N 0.20421 -0.27061 0.25293
 C169 C 0.18384 -0.28320 0.25948
 C170 C 0.18036 -0.30195 0.24286
 C171 C 0.19963 -0.29979 0.22639
 H172 H 0.17228 -0.27896 0.27505
 H173 H 0.20325 -0.31148 0.21083
 N174 N 0.23530 -0.21221 0.28060
 N175 N 0.25403 -0.20164 0.26925
 C176 C 0.26141 -0.18197 0.28232
 C177 C 0.24651 -0.18015 0.30276
 C178 C 0.23020 -0.19956 0.30111
 H179 H 0.27648 -0.16989 0.27742
 H180 H 0.21573 -0.20411 0.31398
 H181 H 0.25457 -0.24527 0.25578
 H182 H 0.23254 -0.22859 0.23532
 N183 N 0.72227 0.22846 0.20695
 N184 N 0.73254 0.24849 0.19815
 C185 C 0.72042 0.25532 0.17776
 C186 C 0.70176 0.23856 0.17349
 C187 C 0.70346 0.22171 0.19230
 H188 H 0.72463 0.27138 0.16690
 H189 H 0.69144 0.20616 0.19546
 Cu190 Cu 0.76056 0.26382 0.21436
 Cu191 Cu 0.73289 0.21364 0.23762
 Cu192 Cu 0.78173 0.24181 0.26768
 N193 N 0.78856 0.27884 0.23091
 N194 N 0.79627 0.27053 0.25214
 C195 C 0.81540 0.28431 0.25983
 C196 C 0.82006 0.30203 0.24237
 C197 C 0.80274 0.29806 0.22424
 H198 H 0.82544 0.28147 0.27669
 H199 H 0.80061 0.30850 0.20756
 N200 N 0.76474 0.21250 0.28041
 N201 N 0.74629 0.20158 0.26893
 C202 C 0.73895 0.18198 0.28214
 C203 C 0.75355 0.18055 0.30280
 C204 C 0.76966 0.20012 0.30113
 H205 H 0.72415 0.16961 0.27715
 H206 H 0.78397 0.20486 0.31409
 H207 H 0.74677 0.24550 0.25269
 H208 H 0.76910 0.22557 0.23588
 C209 C 0.25269 0.01122 0.49992
 C210 C 0.25303 -0.01364 0.50088
 C211 C 0.25225 -0.02900 0.47851
 C212 C 0.25261 -0.02701 0.52441
 C213 C 0.25144 0.02655 0.52229
 C214 C 0.25208 0.02456 0.47638
 C215 C 0.23302 -0.04601 0.47566
 C216 C 0.23234 -0.06148 0.45540
 C217 C 0.25099 -0.06041 0.43751
 C218 C 0.27020 -0.04319 0.44027
 C219 C 0.27087 -0.02766 0.46066
 C220 C 0.23108 -0.02781 0.53867
 C221 C 0.23011 -0.04264 0.55953
 C222 C 0.25078 -0.05660 0.56658
 C223 C 0.27255 -0.05507 0.55261
 C224 C 0.27333 -0.04064 0.53154
 C225 C 0.26998 0.02562 0.54021
 C226 C 0.26883 0.04105 0.56065
 C227 C 0.24919 0.05776 0.56338
 C228 C 0.23061 0.05842 0.54543
 C229 C 0.23178 0.04304 0.52511
 C230 C 0.27268 0.03834 0.46913
 C231 C 0.27174 0.05267 0.44800
 C232 C 0.24993 0.05394 0.43410
 C233 C 0.22936 0.03986 0.44129
 C234 C 0.23050 0.02512 0.46220
 H235 H 0.21848 -0.04735 0.48922
 H236 H 0.21723 -0.07443 0.45391
 H237 H 0.28490 -0.04193 0.42689
 H238 H 0.28610 -0.01493 0.46274
 H239 H 0.21486 -0.01754 0.53322
 H240 H 0.21312 -0.04339 0.56999
 H241 H 0.29000 -0.04032 0.52056
 H242 H 0.28552 0.01327 0.53818
 H243 H 0.28349 0.04013 0.57408
 H244 H 0.21518 0.07097 0.54691
 H245 H 0.21728 0.04405 0.51150
 H246 H 0.28939 0.03821 0.48004
 H247 H 0.28782 0.06342 0.44301
 H248 H 0.21235 0.04043 0.43089
 H249 H 0.21437 0.01472 0.46775
 H250 H 0.28872 -0.06570 0.55749
 C251 C 0.74759 0.01343 0.50060
 C252 C 0.74789 -0.01143 0.49959
 C253 C 0.74908 -0.02684 0.52192
 C254 C 0.74842 -0.02470 0.47602
 C255 C 0.74833 0.02886 0.47827
 C256 C 0.74800 0.02673 0.52415
 C257 C 0.76864 -0.04346 0.52466
 C258 C 0.76973 -0.05893 0.54493
 C259 C 0.75118 -0.05823 0.56293
 C260 C 0.73163 -0.04140 0.56027
 C261 C 0.73055 -0.02589 0.53987
 C262 C 0.76997 -0.02527 0.46178
 C263 C 0.77104 -0.03995 0.44084
 C264 C 0.75041 -0.05394 0.43367
 C265 C 0.72862 -0.05265 0.44762
 C266 C 0.72776 -0.03839 0.46879
 C267 C 0.72967 0.02759 0.46048
 C268 C 0.73026 0.04324 0.44016
 C269 C 0.74943 0.06052 0.43742
 C270 C 0.76812 0.06152 0.45525
 C271 C 0.76752 0.04592 0.47543
 C272 C 0.72725 0.04028 0.53135
 C273 C 0.72804 0.05468 0.55242
 C274 C 0.74985 0.05627 0.56631
 C275 C 0.77054 0.04238 0.55919
 C276 C 0.76956 0.02757 0.53834
 H277 H 0.78312 -0.04449 0.51102
 H278 H 0.78508 -0.07159 0.54634
 H279 H 0.71700 -0.04043 0.57374
 H280 H 0.71507 -0.01345 0.53789
 H281 H 0.78614 -0.01493 0.46731
 H282 H 0.78803 -0.04053 0.43038
 H283 H 0.71107 -0.03823 0.47974
 H284 H 0.71447 0.01482 0.46255
 H285 H 0.71552 0.04204 0.42683
 H286 H 0.78320 0.07451 0.45377
 H287 H 0.78209 0.04721 0.48895
 H288 H 0.71056 0.03992 0.52042
 H289 H 0.71185 0.06526 0.55735
 H290 H 0.78756 0.04318 0.56958
 H291 H 0.78581 0.01736 0.53283
 H292 H 0.71250 -0.06333 0.44265
 C293 C 0.49853 0.25276 -0.01268
 C294 C 0.50031 0.25221 0.01204
 C295 C 0.47822 0.25134 0.02811
 C296 C 0.52456 0.25118 0.02447
 C297 C 0.52067 0.25203 -0.02869
 C298 C 0.47433 0.25258 -0.02526
 C299 C 0.46037 0.27002 0.02776
 C300 C 0.44040 0.26940 0.04406
 C301 C 0.43806 0.25015 0.06108
 C302 C 0.45591 0.23141 0.06114
 C303 C 0.47577 0.23205 0.04490
 C304 C 0.53276 0.27148 0.03790
 C305 C 0.55461 0.27014 0.05140
 C306 C 0.56827 0.24822 0.05219
 C307 C 0.56014 0.22798 0.03843
 C308 C 0.53852 0.22952 0.02449
 C309 C 0.52295 0.23311 -0.04587
 C310 C 0.54304 0.23244 -0.06183
 C311 C 0.56131 0.25079 -0.06105
 C312 C 0.55908 0.26974 -0.04371
 C313 C 0.53886 0.27040 -0.02773
 C314 C 0.45951 0.23146 -0.02531
 C315 C 0.43813 0.23054 -0.03967
 C316 C 0.43114 0.25087 -0.05394
 C317 C 0.44565 0.27227 -0.05312
 C318 C 0.46721 0.27300 -0.03913
 H319 H 0.46215 0.28529 0.01520
 H320 H 0.42703 0.28416 0.04356
 H321 H 0.45473 0.21627 0.07392
 H322 H 0.48933 0.21745 0.04549
 H323 H 0.52203 0.28826 0.03816
 H324 H 0.56033 0.28598 0.06193
 H325 H 0.53225 0.21364 0.01434
 H326 H 0.50909 0.21878 -0.04695
 H327 H 0.54412 0.21755 -0.07488
 H328 H 0.57275 0.28422 -0.04269
 H329 H 0.53720 0.28542 -0.01488
 H330 H 0.46496 0.21546 -0.01487
 H331 H 0.42728 0.21384 -0.03989
 H332 H 0.44085 0.28817 -0.06401
 H333 H 0.47861 0.28935 -0.03941
 H334 H 0.57035 0.21090 0.03864
 C335 C 0.50006 0.74788 0.01240
 C336 C 0.50183 0.74738 -0.01232
 C337 C 0.52603 0.74761 -0.02493
 C338 C 0.47968 0.74801 -0.02831
 C339 C 0.47583 0.74867 0.02491
 C340 C 0.52216 0.74882 0.02843
 C341 C 0.54080 0.76878 -0.02503
 C342 C 0.56221 0.76971 -0.03936
 C343 C 0.56929 0.74936 -0.05353
 C344 C 0.55483 0.72792 -0.05266
 C345 C 0.53323 0.72719 -0.03871
 C346 C 0.47735 0.76690 -0.04555
 C347 C 0.45725 0.76750 -0.06147
 C348 C 0.43900 0.74911 -0.06061
 C349 C 0.44129 0.73020 -0.04321
 C350 C 0.46152 0.72961 -0.02726
 C351 C 0.46804 0.72843 0.03869
 C352 C 0.44620 0.72956 0.05224
 C353 C 0.43210 0.75121 0.05271
 C354 C 0.43982 0.77141 0.03861
 C355 C 0.46146 0.77008 0.02465
 C356 C 0.54004 0.73017 0.02812
 C357 C 0.56001 0.73087 0.04441
 C358 C 0.56232 0.75017 0.06136
 C359 C 0.54443 0.76888 0.06137
 C360 C 0.52457 0.76815 0.04516
 H361 H 0.53528 0.78479 -0.01467
 H362 H 0.57302 0.78643 -0.03962
 H363 H 0.55970 0.71201 -0.06348
 H364 H 0.52187 0.71081 -0.03895
 H365 H 0.49117 0.78125 -0.04669
 H366 H 0.45613 0.78236 -0.07456
 H367 H 0.46322 0.71462 -0.01437
 H368 H 0.47908 0.71186 0.03917
 H369 H 0.44082 0.71376 0.06302
 H370 H 0.42928 0.78829 0.03858
 H371 H 0.46741 0.78593 0.01424
 H372 H 0.53829 0.71487 0.01562
 H373 H 0.57340 0.71613 0.04395
 H374 H 0.54557 0.78404 0.07410
 H375 H 0.51096 0.78271 0.04573
 H376 H 0.42763 0.71571 -0.04211
 C377 C -0.01315 0.50040 0.25044
 C378 C 0.01191 0.50124 0.25042
 C379 C 0.02727 0.47871 0.24960
 C380 C 0.02547 0.52481 0.24988
 C381 C -0.02850 0.52292 0.24942
 C382 C -0.02672 0.47684 0.25012
 C383 C 0.02605 0.46094 0.26815
 C384 C 0.04153 0.44036 0.26743
 C385 C 0.05858 0.43732 0.24821
 C386 C 0.05952 0.45514 0.22963
 C387 C 0.04410 0.47560 0.23038
 C388 C 0.03865 0.53237 0.27058
 C389 C 0.05317 0.55355 0.26978
 C390 C 0.05525 0.56715 0.24804
 C391 C 0.04176 0.55965 0.22737
 C392 C 0.02680 0.53872 0.22836
 C393 C -0.04543 0.52580 0.23025
 C394 C -0.06098 0.54617 0.22942
 C395 C -0.06004 0.56413 0.24783
 C396 C -0.04287 0.56135 0.26697
 C397 C -0.02729 0.54085 0.26780
 C398 C -0.02727 0.46227 0.22900
 C399 C -0.04218 0.44131 0.22815
 C400 C -0.05646 0.43444 0.24854
 C401 C -0.05523 0.44874 0.26988
 C402 C -0.04072 0.46992 0.27053
 H403 H 0.01344 0.46320 0.28335
 H404 H 0.04037 0.42704 0.28207
 H405 H 0.07234 0.45343 0.21452
 H406 H 0.04533 0.48909 0.21588
 H407 H 0.03788 0.52168 0.28726
 H408 H 0.06345 0.55879 0.28594
 H409 H 0.01685 0.53294 0.21218
 H410 H -0.04667 0.51217 0.21590
 H411 H -0.07390 0.54768 0.21439
 H412 H -0.04172 0.57478 0.28150
 H413 H -0.01464 0.53874 0.28299
 H414 H -0.01670 0.46755 0.21302
 H415 H -0.04271 0.43059 0.21150
 H416 H -0.06613 0.44402 0.28581
 H417 H -0.04060 0.48113 0.28688
 H418 H 0.04296 0.56984 0.21042
 C419 C 0.01218 0.50126 0.75164
 C420 C -0.01284 0.49949 0.75161
 C421 C -0.02546 0.47543 0.75228
 C422 C -0.02905 0.52144 0.75216
 C423 C 0.02482 0.52530 0.75244
 C424 C 0.02838 0.47930 0.75210
 C425 C -0.03820 0.46712 0.73159
 C426 C -0.05191 0.44541 0.73257
 C427 C -0.05366 0.43206 0.75448
 C428 C -0.04064 0.44033 0.77514
 C429 C -0.02643 0.46175 0.77397
 C430 C -0.02813 0.53921 0.73359
 C431 C -0.04443 0.55914 0.73387
 C432 C -0.06210 0.56152 0.75262
 C433 C -0.06281 0.54372 0.77122
 C434 C -0.04651 0.52391 0.77095
 C435 C 0.02579 0.53883 0.77421
 C436 C 0.04007 0.56020 0.77551
 C437 C 0.05316 0.56856 0.75490
 C438 C 0.05140 0.55536 0.73291
 C439 C 0.03763 0.53371 0.73181
 C440 C 0.04570 0.47667 0.77097
 C441 C 0.06200 0.45685 0.77118
 C442 C 0.06142 0.43922 0.75244
 C443 C 0.04389 0.44177 0.73360
 C444 C 0.02759 0.46171 0.73338
 H445 H -0.03772 0.47762 0.71478
 H446 H -0.06190 0.43958 0.71643
 H447 H -0.04162 0.43034 0.79223
 H448 H -0.01681 0.46810 0.79014
 H449 H -0.01513 0.53739 0.71865
 H450 H -0.04346 0.57244 0.71919
 H451 H -0.04757 0.51040 0.78544
 H452 H 0.01614 0.53240 0.79034
 H453 H 0.04107 0.57007 0.79265
 H454 H 0.06143 0.56127 0.71681
 H455 H 0.03716 0.52330 0.71495
 H456 H 0.04666 0.49005 0.78557
 H457 H 0.07519 0.45550 0.78600
 H458 H 0.04301 0.42859 0.71883
 H459 H 0.01468 0.46366 0.71839
 H460 H -0.07611 0.54494 0.78596
 C461 C 0.36118 0.24843 0.13156
 N462 N 0.36101 0.23059 0.14887
 N463 N 0.34339 0.22996 0.16586
 C464 C 0.32526 0.24714 0.16617
 N465 N 0.32540 0.26503 0.14886
 N466 N 0.34307 0.26567 0.13186
 C467 C 0.38079 0.24894 0.11298
 N468 N 0.38181 0.26702 0.09591
 N469 N 0.39988 0.26740 0.07931
 C470 C 0.41757 0.24969 0.07912
 N471 N 0.41639 0.23161 0.09619
 N472 N 0.39839 0.23124 0.11277
 C473 C 0.63909 0.75214 0.13187
 N474 N 0.63943 0.77023 0.14891
 N475 N 0.65695 0.77085 0.16598
 C476 C 0.67484 0.75341 0.16667
 N477 N 0.67453 0.73530 0.14960
 N478 N 0.65696 0.73466 0.13252
 C479 C 0.61954 0.75159 0.11325
 N480 N 0.61840 0.73330 0.09643
 N481 N 0.60036 0.73287 0.07982
 C482 C 0.58280 0.75071 0.07938
 N483 N 0.58411 0.76899 0.09620
 N484 N 0.60209 0.76943 0.11279
 C485 C 0.64001 0.24836 -0.12949
 N486 N 0.63996 0.23098 -0.14724
 N487 N 0.65795 0.23018 -0.16382
 C488 C 0.67670 0.24673 -0.16328
 N489 N 0.67681 0.26413 -0.14551
 N490 N 0.65877 0.26494 -0.12891
 C491 C 0.61992 0.24909 -0.11144
 N492 N 0.61905 0.26674 -0.09395
 N493 N 0.60053 0.26730 -0.07785
 C494 C 0.58221 0.25020 -0.07861
 N495 N 0.58323 0.23256 -0.09611
 N496 N 0.60168 0.23202 -0.11219
 C497 C 0.36029 0.75132 -0.12898
 N498 N 0.36033 0.76867 -0.14677
 N499 N 0.34233 0.76946 -0.16332
 C500 C 0.32357 0.75293 -0.16270
 N501 N 0.32346 0.73556 -0.14489
 N502 N 0.34152 0.73475 -0.12832
 C503 C 0.38039 0.75063 -0.11095
 N504 N 0.38128 0.73301 -0.09340
 N505 N 0.39980 0.73252 -0.07732
 C506 C 0.41810 0.74963 -0.07815
 N507 N 0.41706 0.76723 -0.09571
 N508 N 0.39861 0.76771 -0.11178
 C509 C 0.12622 0.35793 0.24625
 N510 N 0.14391 0.35726 0.22866
 N511 N 0.16058 0.33932 0.22826
 C512 C 0.16019 0.32134 0.24541
 N513 N 0.14246 0.32192 0.26299
 N514 N 0.12578 0.33992 0.26342
 C515 C 0.10822 0.37809 0.24671
 N516 N 0.09095 0.37973 0.26467
 N517 N 0.07504 0.39841 0.26512
 C518 C 0.07577 0.41613 0.24762
 N519 N 0.09301 0.41431 0.22966
 N520 N 0.10891 0.39570 0.22921
 C521 C 0.12063 0.64775 0.75998
 N522 N 0.12258 0.66418 0.74142
 N523 N 0.13991 0.68156 0.74189
 C524 C 0.15613 0.68298 0.76078
 N525 N 0.15414 0.66654 0.77936
 N526 N 0.13665 0.64931 0.77901
 C527 C 0.10214 0.62804 0.75900
 N528 N 0.09668 0.61466 0.77923
 N529 N 0.08062 0.59614 0.77806
 C530 C 0.06960 0.59016 0.75656
 N531 N 0.07503 0.60362 0.73636
 N532 N 0.09089 0.62230 0.73758
 C533 C -0.12826 0.64302 0.24587
 N534 N -0.14660 0.64302 0.22895
 N535 N -0.16342 0.66084 0.22862
 C536 C -0.16254 0.67937 0.24516
 N537 N -0.14412 0.67943 0.26205
 N538 N -0.12729 0.66155 0.26242
 C539 C -0.11010 0.62300 0.24629
 N540 N -0.09238 0.62185 0.26382
 N541 N -0.07633 0.60329 0.26428
 C542 C -0.07738 0.58519 0.24720
 N543 N -0.09509 0.58651 0.22966
 N544 N -0.11112 0.60501 0.22921
 C545 C -0.12082 0.35257 0.75923
 N546 N -0.12273 0.33622 0.74062
 N547 N -0.13998 0.31875 0.74108
 C548 C -0.15615 0.31717 0.76001
 N549 N -0.15421 0.33354 0.77863
 N550 N -0.13680 0.35085 0.77829
 C551 C -0.10241 0.37236 0.75830
 N552 N -0.09694 0.38557 0.77861
 N553 N -0.08096 0.40417 0.77752
 C554 C -0.07003 0.41039 0.75603
 N555 N -0.07547 0.39708 0.73574
 N556 N -0.09125 0.37833 0.73688
 C557 C 0.24468 0.12250 0.35654
 N558 N 0.26489 0.12752 0.34268
 N559 N 0.26409 0.14491 0.32558
 C560 C 0.24313 0.15808 0.32187
 N561 N 0.22291 0.15307 0.33573
 N562 N 0.22365 0.13554 0.35271
 C563 C 0.24586 0.10384 0.37587
 N564 N 0.22498 0.09596 0.38721
 N565 N 0.22622 0.07966 0.40534
 C566 C 0.24839 0.07077 0.41294
 N567 N 0.26924 0.07863 0.40148
 N568 N 0.26799 0.09476 0.38323
 C569 C 0.75472 0.12527 0.64344
 N570 N 0.77581 0.13820 0.64740
 N571 N 0.77657 0.15568 0.66441
 C572 C 0.75632 0.16073 0.67818
 N573 N 0.73528 0.14770 0.67431
 N574 N 0.73446 0.13037 0.65717
 C575 C 0.75361 0.10656 0.62417
 N576 N 0.73151 0.09739 0.61677
 N577 N 0.73035 0.08114 0.59863
 C578 C 0.75126 0.07325 0.58733
 N579 N 0.77339 0.08224 0.59496
 N580 N 0.77453 0.09865 0.61298
 C581 C 0.24587 -0.12552 0.64388
 N582 N 0.22472 -0.13832 0.64797
 N583 N 0.22393 -0.15577 0.66503
 C584 C 0.24420 -0.16092 0.67872
 N585 N 0.26530 -0.14801 0.67472
 N586 N 0.26615 -0.13071 0.65754
 C587 C 0.24701 -0.10684 0.62456
 N588 N 0.26912 -0.09781 0.61701
 N589 N 0.27029 -0.08158 0.59882
 C590 C 0.24937 -0.07358 0.58763
 N591 N 0.22723 -0.08243 0.59541
 N592 N 0.22607 -0.09882 0.61347
 C593 C 0.75520 -0.12232 0.35601
 N594 N 0.73496 -0.12716 0.34216
 N595 N 0.73561 -0.14453 0.32506
 C596 C 0.75646 -0.15787 0.32134
 N597 N 0.77671 -0.15305 0.33519
 N598 N 0.77612 -0.13553 0.35217
 C599 C 0.75416 -0.10370 0.37536
 N600 N 0.77509 -0.09599 0.38670
 N601 N 0.77396 -0.07974 0.40486
 C602 C 0.75185 -0.07071 0.41248
 N603 N 0.73096 -0.07838 0.40102
 N604 N 0.73210 -0.09447 0.38274
 C605 C 0.64728 0.75438 -0.12235
 N606 N 0.65963 0.73379 -0.12908
 N607 N 0.67629 0.73451 -0.14700
 C608 C 0.68106 0.75580 -0.15899
 N609 N 0.66876 0.77643 -0.15224
 N610 N 0.65221 0.77574 -0.13419
 C611 C 0.62809 0.75324 -0.10338
 N612 N 0.61756 0.77404 -0.09459
 N613 N 0.59931 0.77284 -0.07825
 C614 C 0.59079 0.75079 -0.07021
 N615 N 0.60150 0.73002 -0.07892
 N616 N 0.61985 0.73122 -0.09512
 C617 C 0.35315 0.24582 -0.12267
 N618 N 0.34087 0.26641 -0.12953
 N619 N 0.32417 0.26564 -0.14739
 C620 C 0.31927 0.24428 -0.15919
 N621 N 0.33149 0.22365 -0.15231
 N622 N 0.34809 0.22439 -0.13432
 C623 C 0.37237 0.24699 -0.10376
 N624 N 0.38284 0.22619 -0.09487
 N625 N 0.40109 0.22739 -0.07856
 C626 C 0.40967 0.24944 -0.07064
 N627 N 0.39904 0.27021 -0.07945
 N628 N 0.38069 0.26901 -0.09562
 C629 C 0.35224 0.75737 0.11924
 N630 N 0.33846 0.73725 0.12464
 N631 N 0.32127 0.73814 0.14206
 C632 C 0.31737 0.75911 0.15485
 N633 N 0.33111 0.77926 0.14943
 N634 N 0.34818 0.77843 0.13188
 C635 C 0.37198 0.75598 0.10087
 N636 N 0.38357 0.77660 0.09290
 N637 N 0.40227 0.77513 0.07710
 C638 C 0.41021 0.75299 0.06882
 N639 N 0.39848 0.73242 0.07672
 N640 N 0.37966 0.73388 0.09236
 C641 C 0.64801 0.24137 0.11869
 N642 N 0.66298 0.26091 0.12295
 N643 N 0.68034 0.25986 0.14018
 C644 C 0.68320 0.23933 0.15394
 N645 N 0.66825 0.21977 0.14968
 N646 N 0.65102 0.22075 0.13230
 C647 C 0.62824 0.24291 0.10040
 N648 N 0.61583 0.22249 0.09321
 N649 N 0.59718 0.22410 0.07740
 C650 C 0.59009 0.24622 0.06832
 N651 N 0.60262 0.26661 0.07545
 N652 N 0.62140 0.26497 0.09109
 C653 C -0.13245 0.63858 0.75224
 N654 N -0.13096 0.65741 0.73604
 N655 N -0.14801 0.67506 0.73591
 C656 C -0.16721 0.67448 0.75194
 N657 N -0.16866 0.65564 0.76812
 N658 N -0.15159 0.63804 0.76828
 C659 C -0.11388 0.61893 0.75241
 N660 N -0.11513 0.60079 0.76934
 N661 N -0.09858 0.58273 0.76946
 C662 C -0.08012 0.58203 0.75263
 N663 N -0.07886 0.60025 0.73569
 N664 N -0.09541 0.61838 0.73560
 C665 C -0.12521 0.35621 0.24431
 N666 N -0.13793 0.35171 0.22339
 N667 N -0.15538 0.33445 0.22276
 C668 C -0.16064 0.32097 0.24298
 N669 N -0.14781 0.32536 0.26385
 N670 N -0.13050 0.34274 0.26453
 C671 C -0.10657 0.37577 0.24527
 N672 N -0.09769 0.38369 0.26708
 N673 N -0.08151 0.40210 0.26809
 C674 C -0.07341 0.41317 0.24731
 N675 N -0.08210 0.40502 0.22547
 N676 N -0.09843 0.38673 0.22448
 C677 C 0.13167 0.36206 0.75214
 N678 N 0.13053 0.34357 0.73554
 N679 N 0.14756 0.32590 0.73544
 C680 C 0.16636 0.32612 0.75190
 N681 N 0.16747 0.34460 0.76847
 N682 N 0.15044 0.36222 0.76860
 C683 C 0.11314 0.38174 0.75226
 N684 N 0.11401 0.39953 0.76956
 N685 N 0.09749 0.41761 0.76966
 C686 C 0.07942 0.41870 0.75244
 N687 N 0.07855 0.40083 0.73513
 N688 N 0.09508 0.38268 0.73505
 C689 C 0.12469 0.64478 0.24391
 N690 N 0.13911 0.64778 0.22380
 N691 N 0.15683 0.66478 0.22342
 C692 C 0.16064 0.67951 0.24307
 N693 N 0.14611 0.67663 0.26310
 N694 N 0.12853 0.65949 0.26356
 C695 C 0.10581 0.62542 0.24475
 N696 N 0.09548 0.61872 0.26635
 N697 N 0.07914 0.60044 0.26734
 C698 C 0.07232 0.58832 0.24673
 N699 N 0.08245 0.59526 0.22506
 N700 N 0.09896 0.61340 0.22410
 C701 C 0.75447 -0.12598 0.64154
 N702 N 0.73753 -0.12559 0.65987
 N703 N 0.73822 -0.14235 0.67763
 C704 C 0.75583 -0.16010 0.67765
 N705 N 0.77276 -0.16043 0.65935
 N706 N 0.77211 -0.14369 0.64165
 C707 C 0.75369 -0.10793 0.62160
 N708 N 0.77106 -0.10850 0.60373
 N709 N 0.77030 -0.09258 0.58530
 C710 C 0.75214 -0.07544 0.58393
 N711 N 0.73478 -0.07484 0.60190
 N712 N 0.73554 -0.09077 0.62040
 C713 C 0.24893 -0.12807 0.35884
 N714 N 0.23141 -0.14590 0.35865
 N715 N 0.23071 -0.16242 0.34076
 C716 C 0.24749 -0.16173 0.32234
 N717 N 0.26504 -0.14387 0.32245
 N718 N 0.26576 -0.12734 0.34041
 C719 C 0.24953 -0.11013 0.37887
 N720 N 0.26742 -0.09266 0.38012
 N721 N 0.26787 -0.07674 0.39863
 C722 C 0.25045 -0.07766 0.41655
 N723 N 0.23259 -0.09513 0.41512
 N724 N 0.23213 -0.11103 0.39669
 C725 C 0.75117 0.12856 0.35901
 N726 N 0.76841 0.14666 0.35900
 N727 N 0.76908 0.16317 0.34108
 C728 C 0.75256 0.16220 0.32246
 N729 N 0.73529 0.14408 0.32241
 N730 N 0.73459 0.12755 0.34039
 C731 C 0.75063 0.11056 0.37900
 N732 N 0.73297 0.09286 0.38008
 N733 N 0.73258 0.07684 0.39853
 C734 C 0.74987 0.07789 0.41655
 N735 N 0.76751 0.09560 0.41530
 N736 N 0.76789 0.11160 0.39693
 C737 C 0.24580 0.12552 0.64189
 N738 N 0.26280 0.12523 0.66015
 N739 N 0.26211 0.14202 0.67786
 C740 C 0.24444 0.15971 0.67790
 N741 N 0.22745 0.15995 0.65966
 N742 N 0.22811 0.14317 0.64201
 C743 C 0.24659 0.10744 0.62201
 N744 N 0.22914 0.10790 0.60423
 N745 N 0.22992 0.09197 0.58583
 C746 C 0.24818 0.07494 0.58439
 N747 N 0.26562 0.07445 0.60227
 N748 N 0.26484 0.09039 0.62075
   
