data_POSCAR
  _audit_creation_date              2014-09-24
  _audit_creation_method            'ToBaCCo'
  _symmetry_space_group_name_H-M    'P1'
  _symmetry_Int_Tables_number       1
  _symmetry_cell_setting            triclinic
  loop_
  _symmetry_equiv_pos_as_xyz
 x,y,z
_cell_length_a 38.0200
_cell_length_b 38.2647
_cell_length_c 37.3836
_cell_angle_alpha 85.193300
_cell_angle_beta 90.142200
_cell_angle_gamma 91.118000
loop_
  _atom_site_label
  _atom_site_type_symbol
  _atom_site_fract_x
  _atom_site_fract_y
  _atom_site_fract_z
C1 C 0.29634 0.48254 1.00747
 C2 C 0.28219 0.51503 1.01345
 C3 C 0.30427 0.54273 1.02230
 C4 C 0.34101 0.53834 1.02488
 C5 C 0.35461 0.50509 1.01984
 C6 C 0.33247 0.47704 1.01135
 C7 C 0.24403 0.51993 1.01035
 C8 C 0.22311 0.51838 1.04125
 C9 C 0.18622 0.52019 1.03875
 C10 C 0.17083 0.52429 1.00416
 C11 C 0.19193 0.52686 0.97318
 C12 C 0.22846 0.52478 0.97645
 H13 H 0.27902 0.46130 1.00051
 H14 H 0.29218 0.56728 1.02682
 H15 H 0.23575 0.51482 1.06732
 H16 H 0.24476 0.52622 0.95259
 H17 H 0.38278 0.50139 1.02130
 H18 H 0.14277 0.52678 1.00062
 C19 C 0.70451 0.48137 -0.01977
 C20 C 0.72633 0.50962 -0.01158
 C21 C 0.71134 0.54142 -0.00430
 C22 C 0.67489 0.54579 -0.00672
 C23 C 0.65318 0.51721 -0.01459
 C24 C 0.66768 0.48460 -0.02032
 C25 C 0.76496 0.50655 -0.01240
 C26 C 0.78147 0.49887 -0.04423
 C27 C 0.81826 0.49698 -0.04634
 C28 C 0.83835 0.50308 -0.01555
 C29 C 0.82219 0.51083 0.01654
 C30 C 0.78534 0.51272 0.01786
 H31 H 0.71650 0.45714 -0.02582
 H32 H 0.72826 0.56328 0.00181
 H33 H 0.76542 0.49479 -0.06761
 H34 H 0.77236 0.51962 0.04196
 H35 H 0.62487 0.51997 -0.01517
 H36 H 0.86676 0.50320 -0.01631
 C37 C 0.02760 0.21075 0.48747
 C38 C -0.00340 0.22663 0.49721
 C39 C -0.03393 0.20631 0.50428
 C40 C -0.03404 0.17024 0.50063
 C41 C -0.00260 0.15415 0.49189
 C42 C 0.02853 0.17433 0.48598
 C43 C -0.00363 0.26433 0.50168
 C44 C -0.00201 0.28881 0.47167
 C45 C -0.00328 0.32510 0.47588
 C46 C -0.00445 0.33594 0.51098
 C47 C -0.00560 0.31133 0.54109
 C48 C -0.00609 0.27560 0.53615
 H49 H 0.05137 0.22657 0.48275
 H50 H -0.05786 0.21881 0.51184
 H51 H -0.00066 0.27883 0.44554
 H52 H -0.00743 0.25645 0.55923
 H53 H -0.00229 0.12606 0.49004
 H54 H -0.00540 0.36365 0.51497
 C55 C 1.02543 0.78708 0.49453
 C56 C 0.99694 0.76417 0.48939
 C57 C 0.96278 0.77704 0.48659
 C58 C 0.95660 0.81235 0.49046
 C59 C 0.98516 0.83537 0.49510
 C60 C 1.01998 0.82330 0.49647
 C61 C 1.00236 0.72625 0.48879
 C62 C 1.01467 0.70703 0.51958
 C63 C 1.01514 0.67020 0.52169
 C64 C 1.00624 0.65304 0.49066
 C65 C 0.99546 0.67250 0.45894
 C66 C 0.99242 0.70892 0.45876
 H67 H 1.05141 0.77615 0.49617
 H68 H 0.94080 0.75920 0.48288
 H69 H 1.02140 0.72086 0.54291
 H70 H 0.98282 0.72398 0.43498
 H71 H 0.98017 0.86300 0.49678
 H72 H 1.00746 0.62484 0.49083
 C73 C 0.50319 0.02390 0.21823
 C74 C 0.49561 -0.00529 0.24233
 C75 C 0.49319 -0.03879 0.23009
 C76 C 0.49941 -0.04351 0.19403
 C77 C 0.50716 -0.01423 0.16988
 C78 C 0.50864 0.01975 0.18157
 C79 C 0.49359 -0.00130 0.28094
 C80 C 0.46348 0.01211 0.29593
 C81 C 0.46187 0.01525 0.33308
 C82 C 0.49105 0.00595 0.35460
 C83 C 0.52135 -0.00731 0.33978
 C84 C 0.52218 -0.01137 0.30282
 H85 H 0.50592 0.04930 0.22870
 H86 H 0.48756 -0.06131 0.24893
 H87 H 0.44156 0.01990 0.27870
 H88 H 0.54472 -0.02259 0.29075
 H89 H 0.51136 -0.01784 0.14177
 H90 H 0.48998 0.00859 0.38323
 C91 C 0.49301 0.05796 0.78166
 C92 C 0.49342 0.02691 0.76455
 C93 C 0.49325 -0.00537 0.78490
 C94 C 0.49217 -0.00743 0.82257
 C95 C 0.49165 0.02423 0.83975
 C96 C 0.49236 0.05704 0.81926
 C97 C 0.49527 0.02768 0.72522
 C98 C 0.52631 0.01802 0.70896
 C99 C 0.52802 0.01629 0.67174
 C100 C 0.49749 0.02257 0.65091
 C101 C 0.46585 0.03136 0.66726
 C102 C 0.46533 0.03498 0.70428
 H103 H 0.49389 0.08291 0.76561
 H104 H 0.49393 -0.02912 0.77096
 H105 H 0.54930 0.01206 0.72542
 H106 H 0.44108 0.04154 0.71715
 H107 H 0.49239 0.02377 0.86864
 H108 H 0.49813 0.02006 0.62229
 C109 C 0.28456 0.03143 0.44107
 H110 H 0.28454 0.05022 0.46114
 C111 C 0.30646 0.03701 0.41121
 H112 H 0.32249 0.06074 0.40812
 C113 C 0.26422 -0.02282 0.42167
 H114 H 0.24867 -0.04668 0.42658
 C115 C 0.28590 -0.01836 0.39144
 H116 H 0.28669 -0.03882 0.37313
 N117 N 0.26466 0.00156 0.44613
 C118 C 0.19250 0.02343 0.53109
 H119 H 0.19981 0.00315 0.55151
 C120 C 0.16303 0.04364 0.53602
 H121 H 0.14813 0.03920 0.56070
 C122 C 0.20150 0.05185 0.47296
 H123 H 0.21551 0.05375 0.44775
 C124 C 0.17215 0.07263 0.47674
 H125 H 0.16452 0.09041 0.45421
 Zn126 Zn 0.24322 -0.00753 0.49141
 N127 N 0.21071 0.02749 0.49975
 C128 C 0.28449 0.01414 0.55003
 N129 N 0.28051 -0.00956 0.52508
 C130 C 0.30578 -0.03326 0.51999
 C131 C 0.33683 -0.03341 0.53992
 C132 C 0.31527 0.01494 0.57064
 C133 C 0.18798 -0.04892 0.47135
 C134 C 0.16373 -0.07673 0.47322
 C135 C 0.19930 -0.10674 0.51937
 C136 C 0.22283 -0.07801 0.51688
 N137 N 0.21657 -0.04978 0.49327
 H138 H 0.26436 0.03321 0.55314
 H139 H 0.30224 -0.05136 0.49948
 H140 H 0.35687 -0.05214 0.53491
 H141 H 0.31765 0.03419 0.59010
 H142 H 0.18362 -0.02604 0.45296
 H143 H 0.14116 -0.07538 0.45548
 H144 H 0.20415 -0.12889 0.53860
 H145 H 0.24545 -0.07790 0.53445
 C146 C 0.15203 0.06813 0.50843
 C147 C 0.30845 0.01110 0.38679
 C148 C 0.16883 -0.10579 0.49807
 C149 C 0.34234 -0.00869 0.56514
 C150 C 0.69538 0.02958 0.51364
 H151 H 0.70253 0.04431 0.48865
 C152 C 0.66543 0.03834 0.53208
 H153 H 0.65000 0.06033 0.52137
 C154 C 0.70573 -0.01840 0.55639
 H155 H 0.72083 -0.04127 0.56489
 C156 C 0.67579 -0.01059 0.57572
 H157 H 0.66886 -0.02763 0.59923
 N158 N 0.71454 0.00138 0.52570
 C159 C 0.80927 0.01275 0.46039
 H160 H 0.80693 -0.01159 0.44773
 C161 C 0.83916 0.03404 0.45461
 H162 H 0.85967 0.02612 0.43709
 C163 C 0.78593 0.05163 0.49999
 H164 H 0.76546 0.05783 0.51831
 C165 C 0.81555 0.07374 0.49504
 H166 H 0.81680 0.09742 0.50888
 Zn167 Zn 0.74839 -0.01292 0.49342
 N168 N 0.78361 0.02163 0.48299
 C169 C 0.72809 -0.00155 0.42030
 N170 N 0.72316 -0.02166 0.45171
 C171 C 0.69613 -0.04537 0.45603
 C172 C 0.67155 -0.04831 0.42871
 C173 C 0.70416 -0.00377 0.39216
 C174 C 0.79434 -0.04839 0.54016
 C175 C 0.82111 -0.07205 0.54874
 C176 C 0.80121 -0.10591 0.50058
 C177 C 0.77488 -0.08147 0.49280
 N178 N 0.77281 -0.05279 0.51177
 H179 H 0.74930 0.01769 0.41773
 H180 H 0.69270 -0.06072 0.48147
 H181 H 0.64970 -0.06673 0.43302
 H182 H 0.70736 0.01353 0.36789
 H183 H 0.79248 -0.02496 0.55432
 H184 H 0.83940 -0.06694 0.57004
 H185 H 0.80286 -0.12788 0.48434
 H186 H 0.75785 -0.08415 0.46997
 C187 C 0.84308 0.06446 0.47273
 C188 C 0.65473 0.01782 0.56313
 C189 C 0.82596 -0.10023 0.52770
 C190 C 0.67470 -0.02624 0.39687
 C191 C 0.53543 0.19832 1.04912
 H192 H 0.55126 0.19643 1.02537
 C193 C 0.53647 0.17184 1.07714
 H194 H 0.55404 0.15022 1.07503
 C195 C 0.49286 0.22874 1.08001
 H196 H 0.47497 0.25027 1.08054
 C197 C 0.49320 0.20294 1.10871
 H198 H 0.47591 0.20518 1.13136
 N199 N 0.51353 0.22580 1.05081
 C200 C 0.44550 0.29678 0.99708
 H201 H 0.43805 0.27922 0.97704
 C202 C 0.42481 0.32589 1.00231
 H203 H 0.40128 0.32986 0.98636
 C204 C 0.48600 0.31328 1.04119
 H205 H 0.51031 0.30853 1.05575
 C206 C 0.46624 0.34239 1.04733
 H207 H 0.47547 0.35978 1.06693
 Zn208 Zn 0.50847 0.25626 1.00867
 N209 N 0.47554 0.29124 1.01641
 C210 C 0.46498 0.20671 0.97966
 N211 N 0.49431 0.22698 0.97265
 C212 C 0.51596 0.22137 0.94489
 C213 C 0.50915 0.19344 0.92376
 C214 C 0.45722 0.17855 0.95932
 C215 C 0.54931 0.30667 0.96924
 C216 C 0.57630 0.33186 0.96404
 C217 C 0.60727 0.30288 1.01428
 C218 C 0.57950 0.27841 1.01876
 N219 N 0.55091 0.28123 0.99685
 H220 H 0.44874 0.21114 1.00251
 H221 H 0.53974 0.23709 0.94053
 H222 H 0.52793 0.18850 0.90322
 H223 H 0.43449 0.16186 0.96628
 H224 H 0.52604 0.30856 0.95253
 H225 H 0.57402 0.35234 0.94243
 H226 H 0.62924 0.30115 1.03282
 H227 H 0.57995 0.25850 1.04102
 C228 C 0.43547 0.34944 1.02752
 C229 C 0.51437 0.17353 1.10704
 C230 C 0.60518 0.33086 0.98763
 C231 C 0.47978 0.17104 0.93145
 C232 C 0.47103 0.82652 -0.00755
 H233 H 0.45777 0.82036 0.01784
 C234 C 0.46714 0.85947 -0.02583
 H235 H 0.45032 0.87833 -0.01467
 C236 C 0.51098 0.81010 -0.05143
 H237 H 0.52920 0.79130 -0.06034
 C238 C 0.50772 0.84287 -0.07079
 H239 H 0.52352 0.84865 -0.09464
 N240 N 0.49301 0.80282 -0.02021
 C241 C 0.46537 0.70727 0.04612
 H242 H 0.49025 0.70274 0.05966
 C243 C 0.43807 0.68247 0.05102
 H244 H 0.44193 0.65931 0.06916
 C245 C 0.43071 0.74285 0.00539
 H246 H 0.42840 0.76584 -0.01325
 C247 C 0.40259 0.71879 0.00969
 H248 H 0.37859 0.72366 -0.00543
 Zn249 Zn 0.50245 0.76394 0.01277
 N250 N 0.46148 0.73639 0.02313
 C251 C 0.49977 0.78361 0.08428
 N252 N 0.51914 0.78437 0.05370
 C253 C 0.54773 0.80601 0.04836
 C254 C 0.55653 0.82981 0.07328
 C255 C 0.50763 0.80711 0.10998
 C256 C 0.52672 0.71583 -0.03316
 C257 C 0.54626 0.68732 -0.04221
 C258 C 0.58503 0.69596 0.00768
 C259 C 0.56470 0.72429 0.01580
 N260 N 0.53579 0.73320 -0.00416
 H261 H 0.47678 0.76660 0.08762
 H262 H 0.56216 0.80652 0.02340
 H263 H 0.57820 0.84822 0.06756
 H264 H 0.49115 0.80678 0.13353
 H265 H 0.50314 0.72294 -0.04807
 H266 H 0.53780 0.67302 -0.06463
 H267 H 0.60712 0.68915 0.02487
 H268 H 0.57093 0.73782 0.03931
 C269 C 0.40654 0.68761 0.03175
 C270 C 0.48589 0.86827 -0.05761
 C271 C 0.57526 0.67630 -0.02113
 C272 C 0.53535 0.83181 0.10363
 C273 C 1.00895 0.47843 0.17903
 H274 H 0.98583 0.46149 0.18151
 C275 C 1.02978 0.47917 0.14833
 H276 H 1.02271 0.46249 0.12731
 C277 C 1.04518 0.52204 0.20272
 H278 H 1.05036 0.53952 0.22344
 C279 C 1.06708 0.52328 0.17256
 H280 H 1.08894 0.54187 0.17049
 N281 N 1.01676 0.49981 0.20533
 C282 C 0.96260 0.45504 0.30094
 H283 H 0.94569 0.47666 0.30544
 C284 C 0.96463 0.42659 0.32661
 H285 H 0.94840 0.42610 0.35040
 C286 C 1.00476 0.43005 0.26455
 H287 H 1.02111 0.43207 0.24085
 C288 C 1.00735 0.40082 0.28947
 H289 H 1.02540 0.38020 0.28456
 Zn290 Zn 0.98316 0.49973 0.24264
 N291 N 0.98290 0.45655 0.27096
 C292 C 0.91298 0.48230 0.22334
 N293 N 0.93914 0.50712 0.21972
 C294 C 0.93701 0.53510 0.19494
 C295 C 0.90875 0.53780 0.17098
 C296 C 0.88401 0.48422 0.20019
 C297 C 1.02410 0.52885 0.29414
 C298 C 1.03118 0.54804 0.32351
 C299 C 0.97639 0.57805 0.31267
 C300 C 0.97039 0.55825 0.28328
 N301 N 0.99393 0.53387 0.27501
 H302 H 0.91544 0.45992 0.24274
 H303 H 0.95838 0.55424 0.19240
 H304 H 0.90811 0.55971 0.15073
 H305 H 0.86412 0.46349 0.20235
 H306 H 1.04190 0.50862 0.28759
 H307 H 1.05494 0.54283 0.33895
 H308 H 0.95658 0.59631 0.31921
 H309 H 0.94611 0.56109 0.26828
 C310 C 0.98798 0.39947 0.32144
 C311 C 1.05921 0.50177 0.14475
 C312 C 1.00693 0.57248 0.33375
 C313 C 0.88247 0.51135 0.17263
 C314 C -0.01777 0.44637 0.80917
 H315 H 0.00367 0.42841 0.80746
 C316 C -0.04049 0.44260 0.83850
 H317 H -0.03660 0.42143 0.85916
 C318 C -0.04690 0.49758 0.78584
 H319 H -0.04807 0.51997 0.76626
 C320 C -0.07053 0.49456 0.81463
 H321 H -0.08979 0.51475 0.81664
 N322 N -0.02078 0.47398 0.78409
 C323 C 0.05455 0.44631 0.70488
 H324 H 0.07415 0.46646 0.70902
 C325 C 0.05823 0.42527 0.67659
 H326 H 0.08120 0.42893 0.65948
 C327 C -0.00079 0.41965 0.72024
 H328 H -0.02451 0.41902 0.73620
 C329 C 0.00172 0.39809 0.69197
 H330 H -0.02020 0.38073 0.68715
 Zn331 Zn 0.01788 0.48190 0.75270
 N332 N 0.02508 0.44370 0.72545
 C333 C 0.07637 0.45999 0.79302
 N334 N 0.05703 0.48861 0.78263
 C335 C 0.05986 0.51850 0.79982
 C336 C 0.08224 0.52002 0.82942
 C337 C 0.09851 0.46017 0.82278
 C338 C -0.01823 0.51493 0.69664
 C339 C -0.02167 0.53434 0.66367
 C340 C 0.03372 0.56367 0.67451
 C341 C 0.03616 0.54350 0.70747
 N342 N 0.01059 0.51931 0.71748
 H343 H 0.07255 0.43602 0.78002
 H344 H 0.04300 0.54029 0.79205
 H345 H 0.08270 0.54332 0.84397
 H346 H 0.11223 0.43652 0.83193
 H347 H -0.03741 0.49450 0.70455
 H348 H -0.04416 0.52938 0.64684
 H349 H 0.05529 0.58130 0.66620
 H350 H 0.05964 0.54532 0.72362
 C351 C 0.03116 0.40164 0.66898
 C352 C -0.06677 0.46724 0.84192
 C353 C 0.00483 0.55845 0.65174
 C354 C 0.10105 0.49012 0.84181
 C355 C 0.06250 0.15806 0.47913
 C356 C 0.07213 0.12794 0.49677
 C357 C 0.10714 0.11341 0.49152
 C358 C 0.11811 0.08584 0.51273
 H359 H 0.05444 0.11439 0.51622
 H360 H 0.12380 0.12574 0.47051
 H361 H 0.08122 0.17269 0.46157
 H362 H 0.10110 0.07537 0.53446
 C363 C 0.66034 0.58023 0.00006
 C364 C 0.63217 0.59369 -0.01719
 C365 C 0.61885 0.62825 -0.00950
 C366 C 0.59260 0.64318 -0.02889
 H367 H 0.61905 0.57937 -0.03736
 H368 H 0.63044 0.64075 0.01266
 H369 H 0.67444 0.59583 0.01855
 H370 H 0.58216 0.62956 -0.05103
 C371 C 0.92017 -0.17510 0.48860
 C372 C 0.90797 -0.15331 0.51156
 C373 C 0.87207 -0.13975 0.50795
 C374 C 0.85873 -0.12053 0.53281
 H375 H 0.92483 -0.14497 0.53282
 H376 H 0.85778 -0.14377 0.48356
 H377 H 0.90260 -0.18522 0.46887
 H378 H 0.87441 -0.11662 0.55648
 C379 C 0.34651 0.44218 1.00511
 C380 C 0.37493 0.42911 1.02216
 C381 C 0.38908 0.39475 1.01494
 C382 C 0.41675 0.38212 1.03372
 H383 H 0.38802 0.44385 1.04201
 H384 H 0.37738 0.38075 0.99383
 H385 H 0.33233 0.42633 0.98690
 H386 H 0.42734 0.39752 1.05449
 C387 C 0.93273 0.15013 0.50670
 C388 C 0.92282 0.12475 0.48622
 C389 C 0.88836 0.10695 0.49150
 C390 C 0.87645 0.08494 0.46811
 H391 H 0.93968 0.11793 0.46461
 H392 H 0.87325 0.11154 0.51508
 H393 H 0.91465 0.15840 0.52659
 H394 H 0.89290 0.08021 0.44540
 C395 C 0.36498 0.56572 0.03147
 C396 C 0.35678 0.59953 0.03321
 C397 C 0.38478 0.62612 0.03712
 C398 C 0.37820 0.66046 0.03272
 H399 H 0.33012 0.60849 0.02995
 H400 H 0.41152 0.61736 0.04124
 H401 H 0.39258 0.55918 0.03394
 H402 H 0.35167 0.66878 0.02624
 C403 C 0.04755 -0.15171 0.49845
 C404 C 0.08206 -0.15864 0.50020
 C405 C 0.10814 -0.12954 0.49824
 C406 C 0.14267 -0.13502 0.50202
 H407 H 0.09165 -0.18510 0.50209
 H408 H 0.09880 -0.10298 0.49333
 H409 H 0.04029 -0.12435 0.49768
 H410 H 0.15189 -0.16131 0.50923
 C411 C 0.64354 0.45478 0.97312
 C412 C 0.65201 0.42097 0.97958
 C413 C 0.62560 0.39274 0.97569
 C414 C 0.63242 0.35925 0.98649
 H415 H 0.67781 0.41386 0.98972
 H416 H 0.59964 0.39989 0.96599
 H417 H 0.61686 0.46096 0.96480
 H418 H 0.65793 0.35301 0.99809
 C419 C 0.51665 0.04973 1.15477
 C420 C 0.51174 0.08343 1.16030
 C421 C 0.51850 0.11140 1.13147
 C422 C 0.51172 0.14490 1.13622
 H423 H 0.50141 0.09072 1.18548
 H424 H 0.52738 0.10409 1.10569
 H425 H 0.52587 0.04363 1.12861
 H426 H 0.50117 0.15120 1.16178
 C427 C 0.02298 0.65249 0.55528
 C428 C 0.01523 0.61867 0.56469
 C429 C 0.02017 0.60394 0.60210
 C430 C 0.00253 0.57486 0.61444
 H431 H 0.00240 0.60233 0.54612
 H432 H 0.03676 0.61801 0.61983
 H433 H 0.03313 0.66803 0.57616
 H434 H -0.01549 0.56276 0.59638
 C435 C 0.49276 0.95873 -0.15924
 C436 C 0.48954 0.95097 -0.12377
 C437 C 0.49145 0.91405 -0.10878
 C438 C 0.48385 0.90476 -0.07437
 H439 H 0.48512 0.97103 -0.10567
 H440 H 0.49855 0.89430 -0.12643
 H441 H 0.49570 0.93677 -0.17554
 H442 H 0.47496 0.92475 -0.05774
 C443 C 0.99537 0.35108 0.44683
 C444 C 0.99558 0.34522 0.41190
 C445 C 0.99112 0.37459 0.38429
 C446 C 0.99289 0.37009 0.34922
 H447 H 0.99823 0.31927 0.40303
 H448 H 0.98649 0.40045 0.39292
 H449 H 0.99319 0.37811 0.45325
 H450 H 0.99976 0.34471 0.34070
 C451 C 0.49693 0.92086 0.18192
 C452 C 0.52056 0.90916 0.15967
 C453 C 0.51607 0.87456 0.14571
 C454 C 0.54105 0.86203 0.12542
 H455 H 0.54293 0.92570 0.15093
 H456 H 0.49103 0.86093 0.14983
 H457 H 0.47583 0.90354 0.19247
 H458 H 0.56539 0.87710 0.12128
 C459 C -0.00699 0.32235 0.57793
 C460 C 0.01244 0.34928 0.58787
 C461 C 0.01072 0.36031 0.62456
 C462 C 0.03320 0.38487 0.63474
 H463 H 0.03000 0.36338 0.56865
 H464 H -0.00937 0.34879 0.64253
 H465 H -0.02276 0.30680 0.59772
 H466 H 0.05365 0.39452 0.61603
 C467 C 0.49538 0.09095 0.83574
 C468 C 0.48306 0.09647 0.86825
 C469 C 0.48833 0.13099 0.88275
 C470 C 0.47350 0.13806 0.91372
 H471 H 0.46902 0.07576 0.88415
 H472 H 0.50462 0.15054 0.86778
 H473 H 0.50769 0.11280 0.81976
 H474 H 0.45601 0.11843 0.92713
 C475 C 0.98591 0.65569 0.42589
 C476 C 1.00288 0.62822 0.41497
 C477 C 0.99395 0.61394 0.38050
 C478 C 1.01401 0.58958 0.36746
 H479 H 1.02436 0.61695 0.43089
 H480 H 0.97109 0.62383 0.36603
 H481 H 0.96601 0.66806 0.40855
 H482 H 1.03706 0.58117 0.38278
 C483 C 1.16660 0.51811 0.07092
 C484 C 1.13143 0.51493 0.07308
 C485 C 1.11338 0.51325 0.10810
 C486 C 1.07937 0.50380 0.11076
 H487 H 1.11539 0.51254 0.04949
 H488 H 1.12817 0.51907 0.13175
 H489 H 1.18108 0.51821 0.09597
 H490 H 1.06577 0.49608 0.08704
 C491 C 0.56171 0.00640 0.65600
 C492 C 0.57285 0.01919 0.62355
 C493 C 0.60767 0.00998 0.61016
 C494 C 0.62062 0.02600 0.57967
 H495 H 0.55679 0.03740 0.60724
 H496 H 0.62247 -0.00976 0.62574
 H497 H 0.57906 -0.01012 0.67280
 H498 H 0.60501 0.04625 0.56559
 C499 C -0.16649 0.49090 0.92040
 C500 C -0.13275 0.48268 0.91591
 C501 C -0.11780 0.48039 0.87986
 C502 C -0.08625 0.46627 0.87623
 H503 H -0.11549 0.47740 0.93866
 H504 H -0.13216 0.49113 0.85654
 H505 H -0.18328 0.49256 0.89682
 H506 H -0.07350 0.45390 0.89988
 C507 C 0.43021 0.02753 0.35068
 C508 C 0.39745 0.02054 0.33987
 C509 C 0.36758 0.02708 0.36317
 C510 C 0.33590 0.01223 0.35863
 H511 H 0.39290 0.00682 0.31603
 H512 H 0.37288 0.04092 0.38676
 H513 H 0.43395 0.03920 0.37593
 H514 H 0.33179 -0.00360 0.33619
 C515 C 0.17613 0.53190 0.93712
 C516 C 0.15050 0.51060 0.92693
 C517 C 0.13531 0.51487 0.89063
 C518 C 0.11942 0.48764 0.87678
 H519 H 0.14130 0.48894 0.94535
 H520 H 0.13746 0.54009 0.87522
 H521 H 0.18747 0.55172 0.91789
 H522 H 0.11997 0.46209 0.89171
 C523 C 0.55101 -0.01741 0.36393
 C524 C 0.58430 -0.01942 0.35286
 C525 C 0.61249 -0.02715 0.37909
 C526 C 0.64639 -0.02394 0.36971
 H527 H 0.59127 -0.01354 0.32493
 H528 H 0.60528 -0.03316 0.40698
 H529 H 0.54545 -0.02159 0.39245
 H530 H 0.65325 -0.01551 0.34215
 C531 C 0.84509 0.51856 0.04722
 C532 C 0.83528 0.51427 0.08173
 C533 C 0.86106 0.52038 0.11023
 C534 C 0.85476 0.51002 0.14476
 H535 H 0.80913 0.50457 0.08910
 H536 H 0.88664 0.53138 0.10236
 H537 H 0.87213 0.52640 0.04111
 H538 H 0.83002 0.49677 0.15205
 C539 C 0.43262 0.03563 0.64681
 C540 C 0.42305 0.01416 0.62191
 C541 C 0.38807 0.01644 0.60473
 C542 C 0.37672 -0.00860 0.58425
 H543 H 0.44049 -0.00648 0.61541
 H544 H 0.37197 0.03864 0.60914
 H545 H 0.41403 0.05456 0.65500
 H546 H 0.39412 -0.03012 0.58048
   
