data_POSCAR
  _audit_creation_date              2014-09-24
  _audit_creation_method            'ToBaCCo'
  _symmetry_space_group_name_H-M    'P1'
  _symmetry_Int_Tables_number       1
  _symmetry_cell_setting            triclinic
  loop_
  _symmetry_equiv_pos_as_xyz
 x,y,z
_cell_length_a 27.0957
_cell_length_b 21.8431
_cell_length_c 29.0468
_cell_angle_alpha 92.432700
_cell_angle_beta 89.561600
_cell_angle_gamma 89.896700
loop_
  _atom_site_label
  _atom_site_type_symbol
  _atom_site_fract_x
  _atom_site_fract_y
  _atom_site_fract_z
N1 N 0.53427 0.65729 0.57712
 N2 N 0.52140 0.63486 0.61679
 C3 C 0.48058 0.66361 0.63301
 C4 C 0.46666 0.70529 0.60121
 C5 C 0.50120 0.70039 0.56598
 H6 H 0.46341 0.65623 0.66606
 H7 H 0.50420 0.72890 0.53654
 Cu8 Cu 0.56069 0.57260 0.64493
 Cu9 Cu 0.59723 0.63395 0.54790
 Cu10 Cu 0.68175 0.59464 0.63165
 N11 N 0.60805 0.52912 0.68060
 N12 N 0.65545 0.54200 0.67907
 C13 C 0.67867 0.51231 0.71259
 C14 C 0.64365 0.47736 0.73455
 C15 C 0.59940 0.48878 0.71322
 H16 H 0.71781 0.51487 0.71949
 H17 H 0.56323 0.47226 0.72250
 N18 N 0.70128 0.62222 0.56973
 N19 N 0.66875 0.63323 0.53733
 C20 C 0.69247 0.64109 0.49727
 C21 C 0.74231 0.63586 0.50506
 C22 C 0.74706 0.62378 0.55110
 H23 H 0.67474 0.64800 0.46465
 H24 H 0.78066 0.61219 0.56864
 H25 H 0.62708 0.56410 0.58853
 H26 H 0.62007 0.64385 0.61338
 N27 N 0.94380 0.32209 0.09142
 N28 N 0.93425 0.31171 0.13509
 C29 C 0.96769 0.27214 0.15051
 C30 C 1.00048 0.25787 0.11495
 C31 C 0.98444 0.29021 0.07785
 H32 H 0.96951 0.25798 0.18567
 H33 H 1.00067 0.29048 0.04373
 Cu34 Cu 0.88421 0.35739 0.17195
 Cu35 Cu 0.90070 0.37386 0.05466
 Cu36 Cu 0.81181 0.44975 0.11418
 N37 N 0.85247 0.42887 0.20211
 N38 N 0.82571 0.46714 0.17888
 C39 C 0.81300 0.51564 0.20670
 C40 C 0.83196 0.50590 0.24972
 C41 C 0.85722 0.45109 0.24577
 H42 H 0.79328 0.55567 0.19605
 H43 H 0.87985 0.43096 0.27168
 N44 N 0.80496 0.42962 0.04892
 N45 N 0.84047 0.40170 0.02494
 C46 C 0.82472 0.38976 -0.01844
 C47 C 0.77688 0.41112 -0.02115
 C48 C 0.76509 0.43517 0.02217
 H49 H 0.84476 0.36283 -0.04454
 H50 H 0.72937 0.45182 0.03399
 H51 H 0.89685 0.41525 0.12095
 H52 H 0.85398 0.35103 0.10548
 N53 N 0.46624 0.16817 -0.07727
 N54 N 0.47518 0.14823 -0.11992
 C55 C 0.51294 0.17973 -0.13738
 C56 C 0.52914 0.22066 -0.10346
 C57 C 0.49910 0.21245 -0.06552
 H58 H 0.52671 0.17429 -0.17238
 H59 H 0.49894 0.23914 -0.03329
 Cu60 Cu 0.43583 0.08435 -0.14959
 Cu61 Cu 0.40794 0.13945 -0.04416
 Cu62 Cu 0.31643 0.09404 -0.12223
 N63 N 0.38745 0.03646 -0.18349
 N64 N 0.33989 0.04237 -0.17481
 C65 C 0.31460 0.00739 -0.20600
 C66 C 0.34886 -0.02275 -0.23438
 C67 C 0.39454 -0.00350 -0.21928
 H68 H 0.27486 0.00317 -0.20713
 H69 H 0.43007 -0.01642 -0.23389
 N70 N 0.30261 0.12199 -0.05755
 N71 N 0.33776 0.13412 -0.02711
 C72 C 0.31727 0.14367 0.01494
 C73 C 0.26688 0.13853 0.01024
 C74 C 0.25848 0.12493 -0.03583
 H75 H 0.33741 0.15391 0.04632
 H76 H 0.22333 0.11475 -0.05177
 H77 H 0.37743 0.06837 -0.08719
 H78 H 0.37690 0.14889 -0.10604
 N79 N 0.05285 0.83108 0.40627
 N80 N 0.05303 0.82595 0.36097
 C81 C 0.01772 0.78670 0.34673
 C82 C -0.00689 0.76734 0.38531
 C83 C 0.01578 0.79679 0.42272
 H84 H 0.00968 0.77501 0.31104
 H85 H 0.00736 0.79213 0.45887
 Cu86 Cu 0.09643 0.87469 0.32440
 Cu87 Cu 0.10335 0.87980 0.43889
 Cu88 Cu 0.20138 0.92605 0.37008
 N89 N 0.13333 0.93938 0.29642
 N90 N 0.17626 0.95787 0.31266
 C91 C 0.19405 1.00227 0.28616
 C92 C 0.15952 1.01209 0.25245
 C93 C 0.12143 0.97202 0.25996
 H94 H 0.22782 1.02747 0.29248
 H95 H 0.08746 0.96748 0.24081
 N96 N 0.20710 0.91641 0.43681
 N97 N 0.16905 0.90345 0.46351
 C98 C 0.18503 0.89857 0.50705
 C99 C 0.23529 0.90851 0.50720
 C100 C 0.24837 0.91889 0.46226
 H101 H 0.16279 0.88325 0.53540
 H102 H 0.28526 0.92511 0.44879
 H103 H 0.13037 0.93615 0.38877
 H104 H 0.15200 0.85500 0.38735
 C105 C 0.11560 0.18105 0.10287
 C106 C 0.16213 0.16210 0.08602
 C107 C 0.19228 0.12635 0.11251
 C108 C 0.17558 0.10723 0.15547
 C109 C 0.12934 0.12514 0.17146
 C110 C 0.09975 0.16306 0.14552
 C111 C 0.07885 0.21727 0.08563
 N112 N 0.04178 0.22256 0.11746
 C113 C 0.05421 0.18888 0.15391
 C114 C 0.12005 0.09475 0.21098
 N115 N 0.15954 0.05899 0.21959
 C116 C 0.19405 0.06655 0.18619
 C117 C 0.23483 0.11462 0.08748
 N118 N 0.23084 0.14161 0.04647
 C119 C 0.18656 0.17048 0.04503
 H120 H 0.07995 0.23975 0.05314
 H121 H 0.03214 0.18396 0.18474
 H122 H 0.08584 0.09557 0.23053
 H123 H 0.22807 0.04067 0.18252
 H124 H 0.26591 0.08726 0.09775
 H125 H 0.17324 0.19561 0.01627
 C126 C 0.36711 0.81489 0.59752
 C127 C 0.32753 0.84977 0.58198
 C128 C 0.30318 0.89096 0.61204
 C129 C 0.31930 0.89927 0.65778
 C130 C 0.35861 0.86500 0.67272
 C131 C 0.38189 0.82198 0.64284
 C132 C 0.39782 0.77160 0.57627
 N133 N 0.42989 0.75190 0.60813
 C134 C 0.42059 0.78255 0.64881
 C135 C 0.37085 0.88739 0.71590
 N136 N 0.34017 0.93459 0.72778
 C137 C 0.30792 0.94189 0.69284
 C138 C 0.26628 0.91786 0.58740
 N139 N 0.26829 0.89442 0.54342
 C140 C 0.30565 0.85313 0.53963
 H141 H 0.39639 0.75482 0.54069
 H142 H 0.44070 0.77661 0.68039
 H143 H 0.40222 0.87342 0.73585
 H144 H 0.28147 0.97895 0.69128
 H145 H 0.24007 0.95203 0.60031
 H146 H 0.31552 0.82678 0.50849
 C147 C 0.88787 0.67603 0.40671
 C148 C 0.84546 0.65207 0.42754
 C149 C 0.81552 0.61162 0.40249
 C150 C 0.82794 0.59339 0.35707
 C151 C 0.86939 0.61731 0.33657
 C152 C 0.89900 0.65937 0.36128
 C153 C 0.92327 0.71775 0.42146
 N154 N 0.95455 0.72752 0.38562
 C155 C 0.93987 0.69180 0.34885
 C156 C 0.87364 0.59001 0.29316
 N157 N 0.83583 0.55005 0.28712
 C158 C 0.80754 0.55166 0.32583
 C159 C 0.77520 0.59958 0.42944
 N160 N 0.77988 0.63128 0.47027
 C161 C 0.82283 0.66316 0.46985
 H162 H 0.92496 0.74084 0.45514
 H163 H 0.95753 0.68939 0.31526
 H164 H 0.90329 0.59636 0.26862
 H165 H 0.77595 0.52258 0.33152
 H166 H 0.74380 0.57152 0.41955
 H167 H 0.83517 0.69457 0.49720
 C168 C 0.63158 0.32582 -0.10227
 C169 C 0.67581 0.35539 -0.09010
 C170 C 0.69860 0.39420 -0.12041
 C171 C 0.67654 0.40519 -0.16296
 C172 C 0.63235 0.37696 -0.17416
 C173 C 0.61049 0.33621 -0.14435
 C174 C 0.60207 0.28395 -0.08076
 N175 N 0.56457 0.26814 -0.10960
 C176 C 0.56927 0.30008 -0.14836
 C177 C 0.61639 0.40001 -0.21453
 N178 N 0.64987 0.44146 -0.22878
 C179 C 0.68747 0.44417 -0.19794
 C180 C 0.73992 0.41775 -0.09865
 N181 N 0.74216 0.39444 -0.05618
 C182 C 0.70330 0.35647 -0.05054
 H183 H 0.60864 0.26424 -0.04778
 H184 H 0.54506 0.29603 -0.17782
 H185 H 0.58210 0.38839 -0.23165
 H186 H 0.71858 0.47511 -0.19911
 H187 H 0.76535 0.45101 -0.11188
 H188 H 0.69512 0.33260 -0.01947
   
