data_POSCAR
  _audit_creation_date              2014-09-24
  _audit_creation_method            'ToBaCCo'
  _symmetry_space_group_name_H-M    'P1'
  _symmetry_Int_Tables_number       1
  _symmetry_cell_setting            triclinic
  loop_
  _symmetry_equiv_pos_as_xyz
 x,y,z
_cell_length_a 22.1086
_cell_length_b 22.0719
_cell_length_c 62.6130
_cell_angle_alpha 90.346400
_cell_angle_beta 89.225400
_cell_angle_gamma 119.564800
loop_
  _atom_site_label
  _atom_site_type_symbol
  _atom_site_fract_x
  _atom_site_fract_y
  _atom_site_fract_z
C1 C -0.05931 -0.08500 0.48228
 C2 C -0.01485 -0.04864 0.49908
 C3 C -0.00757 -0.08526 0.51609
 C4 C -0.04398 -0.15868 0.51663
 C5 C -0.08906 -0.19424 0.49950
 C6 C -0.09786 -0.15840 0.48219
 C7 C 0.02364 0.02835 0.49901
 C8 C 0.01819 0.06528 0.51653
 C9 C 0.05326 0.13842 0.51653
 C10 C 0.09566 0.17429 0.49885
 C11 C 0.10238 0.13804 0.48123
 C12 C 0.06534 0.06486 0.48139
 H13 H -0.06194 -0.05503 0.46908
 H14 H 0.02533 -0.05539 0.52916
 H15 H -0.01378 0.03671 0.53014
 H16 H 0.06877 0.03600 0.46782
 H17 H -0.11765 -0.25028 0.49966
 H18 H 0.12342 0.23065 0.49879
 C19 C 1.07290 0.02461 0.15055
 C20 C 1.03648 0.03559 0.16723
 C21 C 1.07298 0.08174 0.18373
 C22 C 1.14585 0.11660 0.18396
 C23 C 1.18177 0.10370 0.16742
 C24 C 1.14631 0.05828 0.15029
 C25 C 0.95975 -0.00181 0.16754
 C26 C 0.92341 -0.04310 0.18517
 C27 C 0.85042 -0.08100 0.18551
 C28 C 0.81409 -0.07477 0.16814
 C29 C 0.84986 -0.03256 0.15044
 C30 C 0.92294 0.00293 0.15019
 H31 H 1.04298 -0.00914 0.13762
 H32 H 1.04418 0.09141 0.19614
 H33 H 0.95239 -0.04603 0.19857
 H34 H 0.95150 0.03434 0.13651
 H35 H 1.23754 0.12690 0.16865
 H36 H 0.75782 -0.10312 0.16836
 C37 C 0.06005 0.98056 0.85110
 C38 C 0.01754 0.97416 0.83386
 C39 C 0.01131 0.93046 0.81677
 C40 C 0.04612 0.89187 0.81688
 C41 C 0.08893 0.89895 0.83425
 C42 C 0.09744 0.94397 0.85157
 C43 C -0.02084 1.01319 0.83376
 C44 C -0.01336 1.05638 0.81650
 C45 C -0.04806 1.09506 0.81644
 C46 C -0.09191 1.08870 0.83381
 C47 C -0.10159 1.04435 0.85132
 C48 C -0.06444 1.00747 0.85100
 H49 H 0.06194 1.01316 0.86433
 H50 H -0.02096 0.92653 0.80337
 H51 H 0.01983 1.05987 0.80312
 H52 H -0.06731 0.97528 0.86436
 H53 H 0.11696 0.87044 0.83374
 H54 H -0.11979 1.11730 0.83316
 O55 O 0.58444 0.06093 -0.02014
 O56 O 0.46432 0.06150 0.02030
 O57 O 0.57998 0.05782 0.02147
 O58 O 0.46311 0.05312 -0.02125
 O59 O 0.40631 -0.06160 -0.01932
 O60 O 0.52669 -0.05704 0.02089
 O61 O 0.41074 -0.05315 0.02229
 O62 O 0.52773 -0.05395 -0.02069
 Cu63 Cu 0.52840 0.06974 0.00002
 Cu64 Cu 0.46232 -0.06787 0.00086
 C65 C 0.57671 0.00403 -0.02757
 C66 C 0.41772 0.00500 0.02851
 C67 C 0.57333 0.00057 0.02828
 C68 C 0.41424 -0.00564 -0.02745
 O69 O 0.06420 0.46370 0.64616
 O70 O 0.06239 0.58376 0.68629
 O71 O 0.05815 0.46377 0.68775
 O72 O 0.05776 0.57840 0.64471
 O73 O -0.05686 0.52325 0.64642
 O74 O -0.05641 0.40379 0.68645
 O75 O -0.05221 0.52373 0.68804
 O76 O -0.05041 0.40870 0.64493
 Cu77 Cu 0.07206 0.52817 0.66620
 Cu78 Cu -0.06540 0.45920 0.66649
 C79 C 0.00777 0.41635 0.63842
 C80 C 0.00536 0.57406 0.69433
 C81 C 0.00033 0.41342 0.69420
 C82 C -0.00024 0.57044 0.63840
 O83 O 0.53035 0.59895 0.31479
 O84 O 0.41098 0.47247 0.35380
 O85 O 0.53069 0.58678 0.35620
 O86 O 0.41594 0.47929 0.31238
 O87 O 0.47418 0.42195 0.31065
 O88 O 0.58920 0.53009 0.35308
 O89 O 0.46958 0.41549 0.35244
 O90 O 0.58740 0.54073 0.31168
 Cu91 Cu 0.46627 0.54014 0.33454
 Cu92 Cu 0.53580 0.47127 0.33180
 C93 C 0.57859 0.59135 0.30631
 C94 C 0.41965 0.42270 0.35993
 C95 C 0.58005 0.57672 0.36198
 C96 C 0.42622 0.43241 0.30398
 C97 C 0.02966 0.25152 0.56957
 C98 C -0.02706 0.18884 0.56254
 C99 C -0.01945 0.15230 0.54535
 C100 C 0.04521 0.17721 0.53487
 C101 C 0.10194 0.23975 0.54195
 C102 C 0.09416 0.27662 0.55897
 C103 C 0.02200 0.29081 0.58785
 C104 C 0.07691 0.32632 0.60219
 C105 C 0.07159 0.36615 0.61871
 C106 C 0.01086 0.37075 0.62156
 C107 C -0.04505 0.33363 0.60771
 C108 C -0.03940 0.29438 0.59094
 H109 H -0.06454 0.10485 0.54013
 H110 H 0.15270 0.26009 0.53447
 H111 H 0.11527 0.39351 0.62929
 H112 H -0.09235 0.33654 0.60948
 H113 H 0.13876 0.32529 0.56368
 H114 H 0.12422 0.32337 0.60067
 H115 H -0.07728 0.16753 0.57045
 H116 H -0.08244 0.26837 0.58008
 C117 C 0.74007 0.78190 0.23834
 C118 C 0.80330 0.78877 0.23078
 C119 C 0.83885 0.83303 0.21367
 C120 C 0.81250 0.87215 0.20380
 C121 C 0.74946 0.86558 0.21143
 C122 C 0.71354 0.82077 0.22839
 C123 C 0.70160 0.73418 0.25641
 C124 C 0.66491 0.75194 0.27136
 C125 C 0.62602 0.70594 0.28773
 C126 C 0.62359 0.64143 0.28976
 C127 C 0.66183 0.62431 0.27528
 C128 C 0.70011 0.67001 0.25869
 H129 H 0.88669 0.83591 0.20801
 H130 H 0.72801 0.89548 0.20440
 H131 H 0.59760 0.72089 0.29879
 H132 H 0.66050 0.57471 0.27637
 H133 H 0.66445 0.81603 0.23354
 H134 H 0.66618 0.80151 0.27044
 H135 H 0.82574 0.76034 0.23819
 H136 H 0.72696 0.65416 0.24733
 C137 C 0.23168 -0.03058 -0.09653
 C138 C 0.21630 0.02206 -0.10164
 C139 C 0.17247 0.01386 -0.11862
 C140 C 0.14225 -0.04758 -0.13113
 C141 C 0.15853 -0.10004 -0.12584
 C142 C 0.20252 -0.09152 -0.10891
 C143 C 0.27741 -0.02260 -0.07828
 C144 C 0.26222 -0.07998 -0.06520
 C145 C 0.30620 -0.07385 -0.04856
 C146 C 0.36632 -0.01001 -0.04443
 C147 C 0.38082 0.04801 -0.05711
 C148 C 0.33689 0.04173 -0.07392
 H149 H 0.16487 0.05744 -0.12223
 H150 H 0.13550 -0.14945 -0.13408
 H151 H 0.29311 -0.11943 -0.03896
 H152 H 0.42689 0.09780 -0.05436
 H153 H 0.21382 -0.13296 -0.10555
 H154 H 0.21607 -0.12983 -0.06778
 H155 H 0.23775 0.06964 -0.09238
 H156 H 0.35042 0.08681 -0.08381
 C157 C -0.02022 0.73135 0.56889
 C158 C 0.03328 0.79805 0.56329
 C159 C 0.02568 0.83403 0.54615
 C160 C -0.03591 0.80445 0.53399
 C161 C -0.08916 0.73699 0.53976
 C162 C -0.08125 0.70118 0.55682
 C163 C -0.01317 0.69325 0.58735
 C164 C -0.07075 0.65316 0.60072
 C165 C -0.06584 0.61447 0.61745
 C166 C -0.00303 0.61526 0.62139
 C167 C 0.05533 0.65693 0.60848
 C168 C 0.05025 0.69542 0.59157
 H169 H 0.06971 0.88418 0.54216
 H170 H -0.13880 0.71202 0.53186
 H171 H -0.11159 0.58353 0.62725
 H172 H 0.10435 0.65840 0.61110
 H173 H -0.12334 0.64948 0.56056
 H174 H -0.11987 0.65163 0.59827
 H175 H 0.08098 0.82291 0.57229
 H176 H 0.09546 0.72537 0.58147
 C177 C 0.26017 0.25944 0.23464
 C178 C 0.28653 0.27199 0.21365
 C179 C 0.24893 0.22639 0.19721
 C180 C 0.18464 0.16638 0.20145
 C181 C 0.15810 0.15441 0.22252
 C182 C 0.19525 0.20083 0.23890
 C183 C 0.30232 0.30530 0.25219
 C184 C 0.27441 0.33419 0.26667
 C185 C 0.31495 0.37694 0.28335
 C186 C 0.38327 0.38983 0.28607
 C187 C 0.41078 0.36061 0.27158
 C188 C 0.37095 0.31934 0.25471
 H189 H 0.27026 0.23834 0.18114
 H190 H 0.10941 0.10831 0.22650
 H191 H 0.29255 0.39873 0.29436
 H192 H 0.46344 0.37001 0.27323
 H193 H 0.17439 0.18978 0.25505
 H194 H 0.22154 0.32404 0.26495
 H195 H 0.33634 0.31726 0.21000
 H196 H 0.39332 0.29720 0.24382
 C197 C 0.76183 0.02235 -0.09666
 C198 C 0.79195 0.08263 -0.10935
 C199 C 0.83672 0.09001 -0.12631
 C200 C 0.85280 0.03697 -0.13133
 C201 C 0.82159 -0.02384 -0.11852
 C202 C 0.77696 -0.03089 -0.10149
 C203 C 0.71547 0.01584 -0.07834
 C204 C 0.65534 -0.04786 -0.07359
 C205 C 0.61071 -0.05253 -0.05678
 C206 C 0.62520 0.00651 -0.04451
 C207 C 0.68604 0.06965 -0.04900
 C208 C 0.73070 0.07417 -0.06561
 H209 H 0.86051 0.13905 -0.13479
 H210 H 0.82908 -0.06778 -0.12190
 H211 H 0.56412 -0.10183 -0.05373
 H212 H 0.69919 0.11595 -0.03969
 H213 H 0.75474 -0.07800 -0.09199
 H214 H 0.64183 -0.09365 -0.08319
 H215 H 0.78087 0.12449 -0.10621
 H216 H 0.77736 0.12356 -0.06848
 C217 C 0.25671 0.02804 0.09858
 C218 C 0.18867 -0.02354 0.10377
 C219 C 0.15251 -0.01411 0.12080
 C220 C 0.18340 0.04737 0.13328
 C221 C 0.25245 0.09829 0.12806
 C222 C 0.28831 0.08863 0.11107
 C223 C 0.29459 0.01997 0.07997
 C224 C 0.33595 0.07749 0.06684
 C225 C 0.37456 0.07182 0.04996
 C226 C 0.37259 0.00831 0.04563
 C227 C 0.32961 -0.05002 0.05831
 C228 C 0.29099 -0.04422 0.07535
 H229 H 0.10099 -0.05655 0.12440
 H230 H 0.27869 0.14763 0.13632
 H231 H 0.40649 0.11763 0.04036
 H232 H 0.32714 -0.09960 0.05538
 H233 H 0.34109 0.12914 0.10765
 H234 H 0.33857 0.12720 0.06962
 H235 H 0.16287 -0.07091 0.09445
 H236 H 0.25984 -0.08942 0.08526
 C237 C 0.76387 0.73218 0.43115
 C238 C 0.77971 0.80029 0.43635
 C239 C 0.82487 0.83613 0.45306
 C240 C 0.85590 0.80500 0.46519
 C241 C 0.83911 0.73618 0.45982
 C242 C 0.79381 0.70052 0.44317
 C243 C 0.71727 0.69437 0.41306
 C244 C 0.73215 0.65190 0.39971
 C245 C 0.68779 0.61446 0.38310
 C246 C 0.62757 0.61883 0.37926
 C247 C 0.61319 0.66237 0.39228
 C248 C 0.65754 0.69967 0.40906
 H249 H 0.83300 0.88750 0.45677
 H250 H 0.86283 0.70988 0.46771
 H251 H 0.70085 0.58197 0.37324
 H252 H 0.56710 0.66667 0.38974
 H253 H 0.78225 0.64777 0.43972
 H254 H 0.77847 0.64784 0.40201
 H255 H 0.75769 0.82634 0.42735
 H256 H 0.64428 0.73148 0.41916
 C257 C -0.02174 0.23024 0.76329
 C258 C 0.03504 0.22518 0.77100
 C259 C 0.02660 0.18163 0.78826
 C260 C -0.03891 0.14173 0.79815
 C261 C -0.09562 0.14678 0.79042
 C262 C -0.08705 0.19077 0.77334
 C263 C -0.01346 0.27614 0.74486
 C264 C -0.06723 0.25564 0.73002
 C265 C -0.06187 0.29993 0.71343
 C266 C -0.00215 0.36550 0.71101
 C267 C 0.05289 0.38531 0.72529
 C268 C 0.04714 0.34121 0.74214
 H269 H 0.07160 0.17967 0.79398
 H270 H -0.14700 0.11614 0.79742
 H271 H -0.10480 0.28283 0.70249
 H272 H 0.09939 0.43571 0.72384
 H273 H -0.13174 0.19420 0.76811
 H274 H -0.11379 0.20523 0.73123
 H275 H 0.08591 0.25423 0.76354
 H276 H 0.08932 0.35899 0.75338
 C277 C 0.73742 -0.01333 0.09740
 C278 C 0.71264 -0.07721 0.10814
 C279 C 0.74918 -0.08351 0.12520
 C280 C 0.81107 -0.02587 0.13219
 C281 C 0.83557 0.03825 0.12161
 C282 C 0.79933 0.04439 0.10438
 C283 C 0.69867 -0.00745 0.07899
 C284 C 0.69401 0.05318 0.07568
 C285 C 0.65495 0.05693 0.05883
 C286 C 0.61919 -0.00016 0.04512
 C287 C 0.62509 -0.06002 0.04814
 C288 C 0.66470 -0.06344 0.06475
 H289 H 0.72920 -0.13390 0.13276
 H290 H 0.88254 0.08400 0.12675
 H291 H 0.65102 0.10359 0.05692
 H292 H 0.59883 -0.10456 0.03766
 H293 H 0.82033 0.09419 0.09637
 H294 H 0.71891 0.09703 0.08646
 H295 H 0.66452 -0.12251 0.10348
 H296 H 0.66860 -0.11017 0.06641
 C297 C 0.23518 0.25088 0.42769
 C298 C 0.19544 0.27569 0.43845
 C299 C 0.15203 0.23882 0.45560
 C300 C 0.14783 0.17658 0.46269
 C301 C 0.18782 0.15185 0.45204
 C302 C 0.23079 0.18842 0.43470
 C303 C 0.28106 0.29055 0.40935
 C304 C 0.34638 0.29512 0.40611
 C305 C 0.39081 0.33608 0.38956
 C306 C 0.37111 0.37389 0.37613
 C307 C 0.30520 0.36773 0.37897
 C308 C 0.26055 0.32618 0.39524
 H309 H 0.12132 0.25898 0.46319
 H310 H 0.18659 0.10456 0.45724
 H311 H 0.44149 0.34017 0.38776
 H312 H 0.28820 0.39553 0.36866
 H313 H 0.26008 0.16739 0.42669
 H314 H 0.36418 0.26892 0.41678
 H315 H 0.19834 0.32421 0.43379
 H316 H 0.20996 0.32237 0.39682
 C317 C 0.02356 0.75613 0.76391
 C318 C -0.03375 0.76125 0.77164
 C319 C -0.02656 0.80479 0.78888
 C320 C 0.03823 0.84470 0.79873
 C321 C 0.09545 0.83947 0.79102
 C322 C 0.08811 0.79544 0.77395
 C323 C 0.01658 0.71042 0.74543
 C324 C 0.07145 0.73094 0.73056
 C325 C 0.06698 0.68697 0.71383
 C326 C 0.00714 0.62172 0.71131
 C327 C -0.04886 0.60186 0.72566
 C328 C -0.04404 0.64561 0.74264
 H329 H -0.07196 0.80684 0.79459
 H330 H 0.14632 0.87009 0.79800
 H331 H 0.11069 0.70410 0.70286
 H332 H -0.09547 0.55167 0.72415
 H333 H 0.13315 0.79196 0.76871
 H334 H 0.11812 0.78116 0.73182
 H335 H -0.08405 0.73233 0.76419
 H336 H -0.08704 0.62777 0.75389
   
