data_POSCAR
  _audit_creation_date              2014-09-24
  _audit_creation_method            'ToBaCCo'
  _symmetry_space_group_name_H-M    'P1'
  _symmetry_Int_Tables_number       1
  _symmetry_cell_setting            triclinic
  loop_
  _symmetry_equiv_pos_as_xyz
 x,y,z
_cell_length_a 24.1239
_cell_length_b 26.3215
_cell_length_c 26.1984
_cell_angle_alpha 86.678300
_cell_angle_beta 86.382900
_cell_angle_gamma 87.801700
loop_
  _atom_site_label
  _atom_site_type_symbol
  _atom_site_fract_x
  _atom_site_fract_y
  _atom_site_fract_z
C1 C 0.15493 1.21562 0.16925
 N2 N 0.14660 1.18050 0.20882
 C3 C 0.18522 1.14258 0.21773
 N4 N 0.23185 1.13932 0.18606
 C5 C 0.24031 1.17415 0.14626
 N6 N 0.20205 1.21245 0.13822
 C7 C 0.78442 0.72407 0.23770
 N8 N 0.79875 0.73432 0.28522
 C9 C 0.79029 0.78147 0.30286
 N10 N 0.76454 0.81812 0.27360
 C11 C 0.74776 0.80797 0.22680
 N12 N 0.75904 0.76117 0.20806
 C13 C 0.83349 1.30495 -0.22480
 N14 N 0.80907 1.27410 -0.18744
 C15 C 0.79493 1.22640 -0.19726
 N16 N 0.80650 1.20883 -0.24470
 C17 C 0.83114 1.23953 -0.28244
 N18 N 0.84406 1.28762 -0.27234
 C19 C 0.19944 0.77225 -0.14488
 N20 N 0.16217 0.78444 -0.18055
 C21 C 0.17182 0.82182 -0.21738
 N22 N 0.21992 0.84716 -0.21882
 C23 C 0.25788 0.83517 -0.18328
 N24 N 0.24743 0.79782 -0.14606
 C25 C 0.62652 1.05758 -0.02368
 H26 H 0.61466 1.05302 0.01679
 C27 C 0.66790 1.09095 -0.04068
 H28 H 0.68785 1.11167 -0.01284
 C29 C 0.61339 1.03685 -0.10878
 H30 H 0.59197 1.01562 -0.13511
 C31 C 0.65469 1.07025 -0.12763
 H32 H 0.66410 1.07455 -0.16850
 N33 N 0.59906 1.03249 -0.05767
 C34 C 0.43929 1.01990 0.02614
 H35 H 0.43598 0.97896 0.02975
 C36 C 0.39768 1.05117 0.04842
 H37 H 0.36207 1.03395 0.06867
 C38 C 0.48940 1.09188 -0.00594
 H39 H 0.52482 1.10763 -0.02773
 C40 C 0.44832 1.12460 0.01516
 H41 H 0.45275 1.16538 0.00996
 Zn42 Zn 0.53927 0.99478 -0.02726
 N43 N 0.48458 1.04053 0.00057
 C44 C 0.55587 0.96607 0.07510
 N45 N 0.56829 0.95225 0.02638
 C46 C 0.60745 0.91495 0.01612
 C47 C 0.63716 0.89117 0.05577
 C48 C 0.58462 0.94376 0.11542
 C49 C 0.48157 0.98776 -0.11410
 C50 C 0.44479 0.96732 -0.14562
 C51 C 0.45178 0.88746 -0.09572
 C52 C 0.48946 0.90926 -0.06555
 N53 N 0.50277 0.95886 -0.07479
 H54 H 0.52630 0.99690 0.08263
 H55 H 0.61761 0.90557 -0.02311
 H56 H 0.66992 0.86324 0.04691
 H57 H 0.57557 0.95683 0.15359
 H58 H 0.49108 1.02762 -0.11933
 H59 H 0.42707 0.99150 -0.17569
 H60 H 0.44020 0.84847 -0.08704
 H61 H 0.50553 0.88749 -0.03311
 C62 C 0.40216 1.10427 0.04330
 C63 C 0.68158 1.09878 -0.09332
 C64 C 0.42810 0.91709 -0.13569
 C65 C 0.62680 0.90686 0.10592
 C66 C -0.07659 0.51873 1.10648
 H67 H -0.05023 0.48658 1.11776
 C68 C -0.10961 0.54258 1.14402
 H69 H -0.10865 0.52740 1.18326
 C70 C -0.10642 0.57946 1.04288
 H71 H -0.10402 0.59402 1.00336
 C72 C -0.13976 0.60518 1.07970
 H73 H -0.16295 0.63937 1.06795
 N74 N -0.07518 0.53736 1.05697
 C75 C 0.06565 0.44131 1.04729
 H76 H 0.09399 0.46999 1.03211
 C77 C 0.08610 0.39770 1.07409
 H78 H 0.13006 0.39348 1.08005
 C79 C -0.02597 0.41128 1.05811
 H80 H -0.06970 0.41696 1.05170
 C81 C -0.00756 0.36790 1.08597
 H82 H -0.03717 0.34001 1.10081
 Zn83 Zn -0.02303 0.50704 1.00933
 N84 N 0.01017 0.44783 1.04108
 C85 C 0.06587 0.57257 1.02094
 N86 N 0.03019 0.55646 0.98750
 C87 C 0.02993 0.57704 0.93871
 C88 C 0.06761 0.61387 0.92129
 C89 C 0.10465 0.60940 1.00497
 C90 C -0.11310 0.48081 0.95053
 C91 C -0.13520 0.45827 0.90947
 C92 C -0.04193 0.44554 0.87199
 C93 C -0.02158 0.46646 0.91438
 N94 N -0.05708 0.48422 0.95220
 H95 H 0.06424 0.55677 1.06003
 H96 H -0.00012 0.56555 0.91319
 H97 H 0.06682 0.62877 0.88202
 H98 H 0.13292 0.62171 1.03189
 H99 H -0.14039 0.49386 0.98178
 H100 H -0.17964 0.45422 0.90884
 H101 H -0.01319 0.43122 0.84233
 H102 H 0.02280 0.46821 0.91749
 C103 C 0.04894 0.36102 1.09474
 C104 C -0.14071 0.58718 1.13138
 C105 C -0.09919 0.44058 0.86968
 C106 C 0.10568 0.63064 0.95453
 C107 C 1.06244 -0.02942 0.58271
 H108 H 1.07877 0.00704 0.56946
 C109 C 1.08559 -0.05716 0.62400
 H110 H 1.11976 -0.04173 0.64219
 C111 C 0.99628 -0.09265 0.57675
 H112 H 0.96032 -0.10585 0.55964
 C113 C 1.01772 -0.12121 0.61773
 H114 H 0.99860 -0.15659 0.63068
 N115 N 1.01923 -0.04804 0.55936
 C116 C 1.01453 0.03708 0.41086
 H117 H 0.96997 0.04369 0.41104
 C118 C 1.04837 0.05549 0.36935
 H119 H 1.02940 0.07597 0.33758
 C120 C 1.09271 0.00076 0.45172
 H121 H 1.10968 -0.02134 0.48346
 C122 C 1.12816 0.01799 0.41050
 H123 H 1.17241 0.00969 0.41120
 Zn124 Zn 0.98501 -0.01116 0.50446
 N125 N 1.03704 0.01127 0.45146
 C126 C 0.96063 0.09327 0.51677
 N127 N 0.94490 0.04541 0.53192
 C128 C 0.90451 0.03739 0.56988
 C129 C 0.87907 0.07853 0.59499
 C130 C 0.93605 0.13529 0.54037
 C131 C 0.96636 -0.09770 0.45649
 C132 C 0.93786 -0.13509 0.43480
 C133 C 0.85336 -0.08333 0.44505
 C134 C 0.88340 -0.04727 0.46822
 N135 N 0.93882 -0.05547 0.47378
 H136 H 0.99388 0.09906 0.48775
 H137 H 0.89326 -0.00111 0.58169
 H138 H 0.84778 0.07125 0.62565
 H139 H 0.95035 0.17287 0.52845
 H140 H 1.01059 -0.10275 0.46073
 H141 H 0.96030 -0.16888 0.42193
 H142 H 0.80930 -0.07690 0.44058
 H143 H 0.86262 -0.01294 0.48154
 C144 C 1.10605 0.04630 0.36896
 C145 C 1.06304 -0.10384 0.64190
 C146 C 0.88081 -0.12816 0.42889
 C147 C 0.89560 0.12831 0.58082
 N148 N 0.03685 0.29584 1.16410
 N149 N 0.06452 0.25662 1.18555
 C150 C 0.11455 0.25353 1.15971
 C151 C 0.11692 0.29236 1.12190
 N152 N 0.06754 0.31782 1.12594
 H153 H 0.15055 0.30054 1.09363
 N154 N -0.16334 0.60116 1.22102
 N155 N -0.18240 0.63748 1.25082
 C156 C -0.20043 0.67642 1.21986
 C157 C -0.19222 0.66256 1.16965
 N158 N -0.16800 0.61531 1.17208
 H159 H -0.19814 0.68638 1.13525
 N160 N -0.10059 0.41976 0.78043
 N161 N -0.11780 0.38285 0.75362
 C162 C -0.14810 0.35221 0.78667
 C163 C -0.14991 0.37210 0.83443
 N164 N -0.11965 0.41410 0.82888
 H165 H -0.16688 0.35519 0.87045
 N166 N 0.19036 0.67883 0.95967
 N167 N 0.21714 0.71648 0.93407
 C168 C 0.18660 0.73135 0.89415
 C169 C 0.14060 0.70192 0.89608
 N170 N 0.14431 0.66939 0.93729
 H171 H 0.10737 0.70468 0.87009
 N172 N 1.19154 0.04483 0.31345
 N173 N 1.21399 0.06979 0.27229
 C174 C 1.17704 0.10722 0.25891
 C175 C 1.13126 0.10441 0.29307
 N176 N 1.14179 0.06489 0.32645
 H177 H 1.09429 0.12907 0.29378
 N178 N 1.05590 -0.17073 0.70967
 N179 N 1.08400 -0.19159 0.74769
 C180 C 1.13166 -0.16652 0.74749
 C181 C 1.13190 -0.12925 0.70797
 N182 N 1.08362 -0.13321 0.68527
 H183 H 1.16401 -0.10249 0.69680
 N184 N 0.86484 -0.21585 0.41178
 N185 N 0.84119 -0.24159 0.37760
 C186 C 0.81271 -0.20722 0.34833
 C187 C 0.81875 -0.15948 0.36631
 N188 N 0.85204 -0.16659 0.40564
 H189 H 0.80552 -0.12295 0.34916
 N190 N 0.88690 0.21910 0.59443
 N191 N 0.87056 0.25020 0.63077
 C192 C 0.84723 0.22127 0.66984
 C193 C 0.84926 0.17128 0.65606
 N194 N 0.87495 0.17145 0.60875
 H195 H 0.83756 0.13797 0.67987
 N196 N 0.34889 1.18490 0.04812
 N197 N 0.30577 1.20500 0.07472
 C198 C 0.28907 1.16896 0.11045
 C199 C 0.32296 1.12615 0.10488
 N200 N 0.35965 1.13747 0.06541
 H201 H 0.32047 1.09016 0.12692
 N202 N 0.73898 1.17017 -0.07976
 N203 N 0.76891 1.20497 -0.10597
 C204 C 0.76900 1.19427 -0.15559
 C205 C 0.73816 1.15162 -0.15911
 N206 N 0.71984 1.13777 -0.11073
 H207 H 0.72852 1.13399 -0.19361
 N208 N 0.36970 0.91915 -0.20851
 N209 N 0.32402 0.89863 -0.22224
 C210 C 0.30929 0.86352 -0.18488
 C211 C 0.34767 0.86282 -0.14789
 N212 N 0.38473 0.89824 -0.16403
 H213 H 0.34656 0.84111 -0.11150
 N214 N 0.66925 0.91782 0.18580
 N215 N 0.70194 0.89314 0.21817
 C216 C 0.71582 0.84779 0.19876
 C217 C 0.69054 0.84535 0.15301
 N218 N 0.66163 0.88994 0.14652
 H219 H 0.69136 0.81384 0.12818
   
