data_POSCAR
  _audit_creation_date              2014-09-24
  _audit_creation_method            'ToBaCCo'
  _symmetry_space_group_name_H-M    'P1'
  _symmetry_Int_Tables_number       1
  _symmetry_cell_setting            triclinic
  loop_
  _symmetry_equiv_pos_as_xyz
 x,y,z
_cell_length_a 54.1908
_cell_length_b 54.1721
_cell_length_c 54.2212
_cell_angle_alpha 90.001800
_cell_angle_beta 89.992700
_cell_angle_gamma 90.034400
loop_
  _atom_site_label
  _atom_site_type_symbol
  _atom_site_fract_x
  _atom_site_fract_y
  _atom_site_fract_z
N1 N 0.16788 0.22655 0.23241
 N2 N 0.17449 0.20689 0.24502
 C3 C 0.15864 0.20373 0.26392
 C4 C 0.14121 0.22234 0.26296
 C5 C 0.14763 0.23650 0.24278
 H6 H 0.15959 0.18902 0.27734
 H7 H 0.13822 0.25282 0.23614
 Cu8 Cu 0.20344 0.18788 0.23541
 Cu9 Cu 0.18577 0.23771 0.20332
 Cu10 Cu 0.23724 0.20359 0.18605
 N11 N 0.23229 0.16873 0.22577
 N12 N 0.24535 0.17501 0.20631
 C13 C 0.26407 0.15892 0.20349
 C14 C 0.26274 0.14173 0.22227
 C15 C 0.24243 0.14853 0.23614
 H16 H 0.27772 0.15968 0.18893
 H17 H 0.23551 0.13929 0.25239
 N18 N 0.22597 0.23313 0.16798
 N19 N 0.20631 0.24600 0.17447
 C20 C 0.20334 0.26481 0.15849
 C21 C 0.22203 0.26373 0.14125
 C22 C 0.23605 0.24349 0.14776
 H23 H 0.18874 0.27837 0.15929
 H24 H 0.25234 0.23684 0.13836
 H25 H 0.19988 0.20373 0.19346
 H26 H 0.21973 0.22362 0.21332
 N27 N 0.66828 0.72684 0.73233
 N28 N 0.67493 0.70722 0.74494
 C29 C 0.65905 0.70398 0.76381
 C30 C 0.64166 0.72262 0.76293
 C31 C 0.64806 0.73681 0.74275
 H32 H 0.66005 0.68927 0.77724
 H33 H 0.63864 0.75313 0.73613
 Cu34 Cu 0.70382 0.68815 0.73526
 Cu35 Cu 0.68617 0.73804 0.70325
 Cu36 Cu 0.73763 0.70389 0.68592
 N37 N 0.73269 0.66906 0.72563
 N38 N 0.74572 0.67529 0.70615
 C39 C 0.76444 0.65921 0.70332
 C40 C 0.76309 0.64203 0.72209
 C41 C 0.74276 0.64879 0.73594
 H42 H 0.77808 0.65998 0.68876
 H43 H 0.73586 0.63957 0.75221
 N44 N 0.72637 0.73344 0.66790
 N45 N 0.70672 0.74632 0.67440
 C46 C 0.70378 0.76515 0.65844
 C47 C 0.72248 0.76406 0.64121
 C48 C 0.73648 0.74381 0.64770
 H49 H 0.68920 0.77874 0.65925
 H50 H 0.75276 0.73717 0.63829
 H51 H 0.70026 0.70405 0.69328
 H52 H 0.72013 0.72389 0.71319
 N53 N 0.33135 0.77354 0.73246
 N54 N 0.32472 0.79318 0.74509
 C55 C 0.34064 0.79640 0.76393
 C56 C 0.35802 0.77772 0.76304
 C57 C 0.35157 0.76355 0.74286
 H58 H 0.33968 0.81109 0.77737
 H59 H 0.36096 0.74722 0.73624
 Cu60 Cu 0.29577 0.81231 0.73547
 Cu61 Cu 0.31342 0.76235 0.70341
 Cu62 Cu 0.26201 0.79657 0.68611
 N63 N 0.26682 0.83146 0.72583
 N64 N 0.25386 0.82528 0.70626
 C65 C 0.23517 0.84142 0.70339
 C66 C 0.23639 0.85861 0.72224
 C67 C 0.25670 0.85173 0.73617
 H68 H 0.22161 0.84066 0.68877
 H69 H 0.26357 0.86087 0.75250
 N70 N 0.27320 0.76693 0.66807
 N71 N 0.29284 0.75404 0.67457
 C72 C 0.29577 0.73518 0.65863
 C73 C 0.27707 0.73624 0.64139
 C74 C 0.26309 0.75652 0.64788
 H75 H 0.31035 0.72159 0.65945
 H76 H 0.24681 0.76316 0.63847
 H77 H 0.29944 0.79626 0.69352
 H78 H 0.27958 0.77647 0.71339
 N79 N 0.83241 0.27326 0.23297
 N80 N 0.82583 0.29297 0.24551
 C81 C 0.84165 0.29619 0.26443
 C82 C 0.85901 0.27748 0.26359
 C83 C 0.85258 0.26326 0.24342
 H84 H 0.84068 0.31095 0.27782
 H85 H 0.86194 0.24691 0.23680
 Cu86 Cu 0.79699 0.31207 0.23580
 Cu87 Cu 0.81461 0.26211 0.20384
 Cu88 Cu 0.76324 0.29630 0.18644
 N89 N 0.76813 0.33115 0.22615
 N90 N 0.75510 0.32487 0.20667
 C91 C 0.73639 0.34094 0.20384
 C92 C 0.73769 0.35813 0.22261
 C93 C 0.75799 0.35138 0.23649
 H94 H 0.72278 0.34018 0.18927
 H95 H 0.76485 0.36063 0.25278
 N96 N 0.77452 0.26677 0.16840
 N97 N 0.79414 0.25386 0.17492
 C98 C 0.79709 0.23504 0.15895
 C99 C 0.77844 0.23616 0.14168
 C100 C 0.76445 0.25642 0.14817
 H101 H 0.81166 0.22143 0.15979
 H102 H 0.74818 0.26309 0.13875
 H103 H 0.80063 0.29611 0.19386
 H104 H 0.78074 0.27634 0.21375
 N105 N 0.83177 0.72687 0.26741
 N106 N 0.82480 0.70752 0.25450
 C107 C 0.84072 0.70421 0.23568
 C108 C 0.85842 0.72257 0.23687
 C109 C 0.85220 0.73662 0.25719
 H110 H 0.83957 0.68965 0.22209
 H111 H 0.86187 0.75269 0.26405
 Cu112 Cu 0.79563 0.68890 0.26409
 Cu113 Cu 0.81400 0.73803 0.29661
 Cu114 Cu 0.76255 0.70379 0.31400
 N115 N 0.76715 0.66933 0.27385
 N116 N 0.75443 0.67525 0.29366
 C117 C 0.73597 0.65891 0.29671
 C118 C 0.73717 0.64188 0.27780
 C119 C 0.75716 0.64897 0.26362
 H120 H 0.72261 0.65940 0.31152
 H121 H 0.76388 0.63989 0.24717
 N122 N 0.77386 0.73332 0.33204
 N123 N 0.79350 0.74624 0.32552
 C124 C 0.79640 0.76511 0.34144
 C125 C 0.77769 0.76401 0.35866
 C126 C 0.76372 0.74371 0.35221
 H127 H 0.81094 0.77875 0.34058
 H128 H 0.74741 0.73707 0.36159
 H129 H 0.79986 0.70391 0.30622
 H130 H 0.77986 0.72422 0.28702
 N131 N 0.33201 0.22673 -0.23278
 N132 N 0.32544 0.20701 -0.24533
 C133 C 0.34140 0.20371 -0.26415
 C134 C 0.35880 0.22246 -0.26337
 C135 C 0.35224 0.23673 -0.24322
 H136 H 0.34044 0.18890 -0.27749
 H137 H 0.36158 0.25310 -0.23660
 Cu138 Cu 0.29642 0.18791 -0.23568
 Cu139 Cu 0.31397 0.23784 -0.20364
 Cu140 Cu 0.26245 0.20369 -0.18635
 N141 N 0.26742 0.16885 -0.22604
 N142 N 0.25436 0.17510 -0.20657
 C143 C 0.23561 0.15903 -0.20376
 C144 C 0.23693 0.14182 -0.22251
 C145 C 0.25730 0.14857 -0.23634
 H146 H 0.22196 0.15982 -0.18922
 H147 H 0.26420 0.13930 -0.25260
 N148 N 0.27367 0.23323 -0.16829
 N149 N 0.29334 0.24613 -0.17474
 C150 C 0.29622 0.26495 -0.15873
 C151 C 0.27746 0.26383 -0.14154
 C152 C 0.26350 0.24356 -0.14811
 H153 H 0.31080 0.27856 -0.15948
 H154 H 0.24718 0.23688 -0.13876
 H155 H 0.29975 0.20379 -0.19363
 H156 H 0.27994 0.22358 -0.21359
 N157 N 0.66819 0.27307 -0.23260
 N158 N 0.67473 0.29280 -0.24515
 C159 C 0.65879 0.29604 -0.26400
 C160 C 0.64144 0.27726 -0.26323
 C161 C 0.64800 0.26301 -0.24307
 H162 H 0.65975 0.31083 -0.27736
 H163 H 0.63868 0.24663 -0.23646
 Cu164 Cu 0.70369 0.31195 -0.23550
 Cu165 Cu 0.68622 0.26201 -0.20345
 Cu166 Cu 0.73765 0.29629 -0.18613
 N167 N 0.73262 0.33109 -0.22585
 N168 N 0.74568 0.32487 -0.20637
 C169 C 0.76440 0.34097 -0.20356
 C170 C 0.76305 0.35816 -0.22232
 C171 C 0.74271 0.35137 -0.23616
 H172 H 0.77804 0.34023 -0.18902
 H173 H 0.73582 0.36060 -0.25243
 N174 N 0.72647 0.26674 -0.16807
 N175 N 0.70683 0.25379 -0.17452
 C176 C 0.70398 0.23498 -0.15850
 C177 C 0.72272 0.23615 -0.14129
 C178 C 0.73664 0.25645 -0.14786
 H179 H 0.68943 0.22134 -0.15925
 H180 H 0.75293 0.26318 -0.13850
 H181 H 0.70038 0.29608 -0.19344
 H182 H 0.72024 0.27633 -0.21334
 N183 N 0.16828 0.77354 0.26756
 N184 N 0.17494 0.79319 0.25496
 C185 C 0.15910 0.79637 0.23605
 C186 C 0.14171 0.77769 0.23692
 C187 C 0.14809 0.76353 0.25712
 H188 H 0.16010 0.81106 0.22259
 H189 H 0.13866 0.74722 0.26374
 Cu190 Cu 0.20384 0.81233 0.26469
 Cu191 Cu 0.18610 0.76238 0.29668
 Cu192 Cu 0.23751 0.79660 0.31408
 N193 N 0.23281 0.83145 0.27431
 N194 N 0.24574 0.82527 0.29389
 C195 C 0.26445 0.84140 0.29675
 C196 C 0.26327 0.85856 0.27788
 C197 C 0.24299 0.85168 0.26393
 H198 H 0.27798 0.84066 0.31141
 H199 H 0.23615 0.86082 0.24757
 N200 N 0.22620 0.76699 0.33213
 N201 N 0.20656 0.75410 0.32559
 C202 C 0.20356 0.73525 0.34153
 C203 C 0.22221 0.73631 0.35881
 C204 C 0.23625 0.75659 0.35235
 H205 H 0.18897 0.72166 0.34066
 H206 H 0.25253 0.76322 0.36179
 H207 H 0.20008 0.79633 0.30664
 H208 H 0.21996 0.77655 0.28676
 N209 N 0.47660 0.41775 0.48262
 N210 N 0.45696 0.42435 0.49523
 C211 C 0.45377 0.40848 0.51412
 C212 C 0.47246 0.39112 0.51326
 C213 C 0.48662 0.39756 0.49306
 H214 H 0.43906 0.40945 0.52756
 H215 H 0.50295 0.38818 0.48645
 Cu216 Cu 0.43780 0.45320 0.48554
 Cu217 Cu 0.48771 0.43569 0.45349
 Cu218 Cu 0.45343 0.48705 0.43614
 N219 N 0.41864 0.48201 0.47589
 N220 N 0.42483 0.49506 0.45638
 C221 C 0.40870 0.51373 0.45357
 C222 C 0.39153 0.51233 0.47235
 C223 C 0.39835 0.49203 0.48620
 H224 H 0.40940 0.52737 0.43901
 H225 H 0.38915 0.48512 0.50248
 N226 N 0.48300 0.47588 0.41809
 N227 N 0.49594 0.45627 0.42459
 C228 C 0.51476 0.45338 0.40861
 C229 C 0.51362 0.47208 0.39135
 C230 C 0.49332 0.48601 0.39787
 H231 H 0.52838 0.43883 0.40942
 H232 H 0.48662 0.50228 0.38847
 H233 H 0.47345 0.46963 0.46341
 H234 H 0.45369 0.44971 0.44354
 N235 N -0.02360 -0.08174 0.98252
 N236 N -0.04319 -0.07511 0.99519
 C237 C -0.04634 -0.09093 1.01409
 C238 C -0.02771 -0.10832 1.01316
 C239 C -0.01359 -0.10195 0.99293
 H240 H -0.06100 -0.08992 1.02752
 H241 H 0.00268 -0.11142 0.98626
 Cu242 Cu -0.06239 -0.04640 0.98554
 Cu243 Cu -0.01254 -0.06387 0.95335
 Cu244 Cu -0.04667 -0.01250 0.93608
 N245 N -0.08128 -0.01750 0.97594
 N246 N -0.07506 -0.00448 0.95644
 C247 C -0.09110 0.01425 0.95364
 C248 C -0.10819 0.01289 0.97244
 C249 C -0.10146 -0.00739 0.98629
 H250 H -0.09043 0.02787 0.93904
 H251 H -0.11063 -0.01427 1.00257
 N252 N -0.01727 -0.02374 0.91794
 N253 N -0.00435 -0.04337 0.92441
 C254 C 0.01442 -0.04627 0.90837
 C255 C 0.01325 -0.02755 0.89113
 C256 C -0.00700 -0.01360 0.89771
 H257 H 0.02803 -0.06083 0.90916
 H258 H -0.01371 0.00269 0.88836
 H259 H -0.02684 -0.02987 0.96339
 H260 H -0.04671 -0.04980 0.94347
 N261 N 1.02372 0.58185 0.98252
 N262 N 1.04333 0.57521 0.99517
 C263 C 1.04653 0.59105 1.01406
 C264 C 1.02790 0.60844 1.01314
 C265 C 1.01375 0.60206 0.99294
 H266 H 1.06123 0.59007 1.02750
 H267 H 0.99746 0.61148 0.98630
 Cu268 Cu 1.06236 0.54637 0.98551
 Cu269 Cu 1.01261 0.56395 0.95340
 Cu270 Cu 1.04676 0.51257 0.93605
 N271 N 1.08144 0.51762 0.97585
 N272 N 1.07523 0.50459 0.95634
 C273 C 1.09130 0.48590 0.95352
 C274 C 1.10841 0.48728 0.97229
 C275 C 1.10167 0.50756 0.98617
 H276 H 1.09058 0.47227 0.93895
 H277 H 1.11089 0.51444 1.00246
 N278 N 1.01729 0.52378 0.91801
 N279 N 1.00437 0.54341 0.92450
 C280 C 0.98559 0.54633 0.90849
 C281 C 0.98675 0.52763 0.89124
 C282 C 1.00700 0.51367 0.89777
 H283 H 0.97200 0.56090 0.90928
 H284 H 1.01371 0.49740 0.88838
 H285 H 1.02683 0.52988 0.96333
 H286 H 1.04670 0.54981 0.94351
 N287 N 0.52372 0.08171 0.48270
 N288 N 0.54333 0.07507 0.49533
 C289 C 0.54655 0.09092 0.51424
 C290 C 0.52788 0.10828 0.51339
 C291 C 0.51372 0.10188 0.49317
 H292 H 0.56127 0.08993 0.52767
 H293 H 0.49743 0.11129 0.48654
 Cu294 Cu 0.56264 0.04643 0.48557
 Cu295 Cu 0.51268 0.06380 0.45353
 Cu296 Cu 0.54685 0.01252 0.43610
 N297 N 0.58150 0.01753 0.47589
 N298 N 0.57530 0.00452 0.45636
 C299 C 0.59138 -0.01415 0.45353
 C300 C 0.60851 -0.01276 0.47230
 C301 C 0.60177 0.00751 0.48618
 H302 H 0.59069 -0.02775 0.43894
 H303 H 0.61101 0.01438 0.50248
 N304 N 0.51737 0.02372 0.41806
 N305 N 0.50444 0.04332 0.42458
 C306 C 0.48563 0.04622 0.40860
 C307 C 0.48677 0.02753 0.39132
 C308 C 0.50706 0.01359 0.39783
 H309 H 0.47200 0.06075 0.40944
 H310 H 0.51377 -0.00268 0.38844
 H311 H 0.52712 0.02980 0.46350
 H312 H 0.54687 0.04976 0.44355
 N313 N -0.02402 0.08202 0.51727
 N314 N -0.04367 0.07539 0.50468
 C315 C -0.04688 0.09118 0.48574
 C316 C -0.02822 0.10855 0.48659
 C317 C -0.01404 0.10220 0.50678
 H318 H -0.06158 0.09016 0.47228
 H319 H 0.00226 0.11165 0.51338
 Cu320 Cu -0.06273 0.04659 0.51432
 Cu321 Cu -0.01290 0.06412 0.54639
 Cu322 Cu -0.04709 0.01274 0.56375
 N323 N -0.08178 0.01785 0.52400
 N324 N -0.07556 0.00478 0.54347
 C325 C -0.09163 -0.01393 0.54624
 C326 C -0.10874 -0.01252 0.52747
 C327 C -0.10201 0.00778 0.51363
 H328 H -0.09094 -0.02756 0.56080
 H329 H -0.11122 0.01464 0.49733
 N330 N -0.01760 0.02396 0.58181
 N331 N -0.00467 0.04359 0.57532
 C332 C 0.01414 0.04648 0.59131
 C333 C 0.01298 0.02776 0.60856
 C334 C -0.00731 0.01382 0.60202
 H335 H 0.02778 0.06103 0.59050
 H336 H -0.01403 -0.00248 0.61138
 H337 H -0.02724 0.03008 0.53648
 H338 H -0.04701 0.04998 0.55638
 N339 N 0.47662 0.58187 0.01742
 N340 N 0.45728 0.57492 0.00449
 C341 C 0.45401 0.59084 -0.01434
 C342 C 0.47238 0.60852 -0.01314
 C343 C 0.48639 0.60229 0.00720
 H344 H 0.43946 0.58970 -0.02794
 H345 H 0.50246 0.61194 0.01407
 Cu346 Cu 0.43862 0.54577 0.01406
 Cu347 Cu 0.48772 0.56407 0.04665
 Cu348 Cu 0.45341 0.51265 0.06399
 N349 N 0.41901 0.51731 0.02380
 N350 N 0.42489 0.50459 0.04360
 C351 C 0.40852 0.48615 0.04663
 C352 C 0.39152 0.48738 0.02770
 C353 C 0.39865 0.50736 0.01353
 H354 H 0.40897 0.47278 0.06144
 H355 H 0.38961 0.51410 -0.00292
 N356 N 0.48294 0.52391 0.08210
 N357 N 0.49588 0.54354 0.07560
 C358 C 0.51473 0.54641 0.09156
 C359 C 0.51360 0.52769 0.10879
 C360 C 0.49329 0.51375 0.10228
 H361 H 0.52839 0.56094 0.09071
 H362 H 0.48661 0.49744 0.11164
 H363 H 0.47388 0.52994 0.03704
 H364 H 0.45358 0.54997 0.05622
 N365 N 0.52359 -0.08189 0.01762
 N366 N 0.54323 -0.07526 0.00500
 C367 C 0.54642 -0.09111 -0.01389
 C368 C 0.52770 -0.10845 -0.01305
 C369 C 0.51355 -0.10206 0.00715
 H370 H 0.56110 -0.09011 -0.02734
 H371 H 0.49722 -0.11147 0.01375
 Cu372 Cu 0.56240 -0.04648 0.01474
 Cu373 Cu 0.51248 -0.06402 0.04677
 Cu374 Cu 0.54679 -0.01268 0.06414
 N375 N 0.58155 -0.01765 0.02435
 N376 N 0.57537 -0.00464 0.04388
 C377 C 0.59150 0.01405 0.04669
 C378 C 0.60865 0.01268 0.02791
 C379 C 0.60184 -0.00762 0.01406
 H380 H 0.59081 0.02768 0.06127
 H381 H 0.61102 -0.01450 -0.00225
 N382 N 0.51722 -0.02386 0.08221
 N383 N 0.50427 -0.04348 0.07570
 C384 C 0.48544 -0.04638 0.09168
 C385 C 0.48659 -0.02769 0.10895
 C386 C 0.50690 -0.01374 0.10243
 H387 H 0.47180 -0.06093 0.09085
 H388 H 0.51362 0.00253 0.11183
 H389 H 0.52679 -0.03011 0.03684
 H390 H 0.54652 -0.05004 0.05672
 N391 N 1.02337 0.41820 0.51724
 N392 N 1.04299 0.42484 0.50461
 C393 C 1.04618 0.40902 0.48569
 C394 C 1.02752 0.39164 0.48659
 C395 C 1.01337 0.39801 0.50679
 H396 H 1.06089 0.40999 0.47226
 H397 H 0.99706 0.38859 0.51340
 Cu398 Cu 1.06219 0.45359 0.51419
 Cu399 Cu 1.01232 0.43610 0.54636
 Cu400 Cu 1.04657 0.48742 0.56372
 N401 N 1.08121 0.48236 0.52395
 N402 N 1.07503 0.49538 0.54346
 C403 C 1.09115 0.51405 0.54629
 C404 C 1.10826 0.51265 0.52751
 C405 C 1.10147 0.49240 0.51362
 H406 H 1.09046 0.52767 0.56085
 H407 H 1.11069 0.48551 0.49734
 N408 N 1.01709 0.47623 0.58177
 N409 N 1.00413 0.45662 0.57528
 C410 C 0.98534 0.45373 0.59129
 C411 C 0.98655 0.47243 0.60854
 C412 C 1.00684 0.48636 0.60200
 H413 H 0.97171 0.43918 0.59050
 H414 H 1.01360 0.50262 0.61139
 H415 H 1.02664 0.47014 0.53643
 H416 H 1.04644 0.45020 0.55624
 C417 C 0.37424 -0.00029 0.25027
 C418 C 0.12536 -0.00032 0.74965
 C419 C 0.62578 0.49982 0.25004
 C420 C 0.87467 0.50017 0.74994
 C421 C 0.24978 0.37573 -0.00005
 C422 C 0.75042 0.12436 0.00026
 C423 C 0.24986 0.62408 0.50001
 C424 C 0.74994 0.87590 0.49988
 C425 C -0.00052 0.25012 0.37467
 C426 C 0.00005 0.75005 0.12499
 C427 C 0.50023 0.24971 0.62582
 C428 C 0.49992 0.75007 0.87477
 C429 C 0.08173 0.23404 0.31073
 N430 N 0.08674 0.25030 0.29236
 N431 N 0.10568 0.24654 0.27715
 C432 C 0.12034 0.22641 0.27979
 N433 N 0.11538 0.21016 0.29820
 N434 N 0.09639 0.21389 0.31338
 C435 C 0.06075 0.23817 0.32739
 N436 N 0.05473 0.22120 0.34478
 N437 N 0.03558 0.22488 0.35975
 C438 C 0.02174 0.24576 0.35801
 N439 N 0.02785 0.26270 0.34053
 N440 N 0.04695 0.25898 0.32553
 C441 C 0.58219 0.73418 0.81076
 N442 N 0.58717 0.75048 0.79240
 N443 N 0.60610 0.74676 0.77718
 C444 C 0.62080 0.72664 0.77978
 N445 N 0.61586 0.71035 0.79816
 N446 N 0.59688 0.71403 0.81335
 C447 C 0.56121 0.73827 0.82744
 N448 N 0.55523 0.72127 0.84483
 N449 N 0.53608 0.72491 0.85980
 C450 C 0.52220 0.74577 0.85809
 N451 N 0.52827 0.76274 0.84063
 N452 N 0.54738 0.75906 0.82562
 C453 C 0.41760 0.76601 0.81079
 N454 N 0.40295 0.78618 0.81341
 N455 N 0.38395 0.78991 0.79825
 C456 C 0.37893 0.77365 0.77987
 N457 N 0.39360 0.75350 0.77723
 N458 N 0.41256 0.74974 0.79242
 C459 C 0.43860 0.76189 0.82746
 N460 N 0.45242 0.74108 0.82564
 N461 N 0.47153 0.73739 0.84065
 C462 C 0.47762 0.75437 0.85811
 N463 N 0.46376 0.77523 0.85981
 N464 N 0.44461 0.77888 0.84484
 C465 C -0.08264 0.26611 0.31061
 N466 N -0.08717 0.25020 0.29181
 N467 N -0.10607 0.25392 0.27657
 C468 C -0.12122 0.27367 0.27958
 N469 N -0.11670 0.28957 0.29842
 N470 N -0.09773 0.28588 0.31363
 C471 C -0.06173 0.26200 0.32732
 N472 N -0.05593 0.27886 0.34491
 N473 N -0.03680 0.27519 0.35990
 C474 C -0.02277 0.25446 0.35800
 N475 N -0.02868 0.23762 0.34036
 N476 N -0.04775 0.24132 0.32532
 C477 C -0.08212 0.73413 0.18906
 N478 N -0.08693 0.75030 0.20756
 N479 N -0.10584 0.74657 0.22281
 C480 C -0.12067 0.72655 0.22008
 N481 N -0.11589 0.71038 0.20156
 N482 N -0.09693 0.71408 0.18635
 C483 C -0.06118 0.73823 0.17235
 N484 N -0.05528 0.72127 0.15491
 N485 N -0.03615 0.72491 0.13991
 C486 C -0.02221 0.74573 0.14166
 N487 N -0.02821 0.76268 0.15917
 N488 N -0.04730 0.75900 0.17421
 C489 C 0.41745 0.23378 0.68963
 N490 N 0.40248 0.21385 0.68680
 N491 N 0.38344 0.21019 0.70197
 C492 C 0.37869 0.22626 0.72063
 N493 N 0.39371 0.24616 0.72345
 N494 N 0.41268 0.24986 0.70823
 C495 C 0.43857 0.23786 0.67296
 N496 N 0.45248 0.25863 0.67486
 N497 N 0.47169 0.26231 0.65994
 C498 C 0.47784 0.24536 0.64248
 N499 N 0.46388 0.22454 0.64068
 N500 N 0.44462 0.22089 0.65555
 C501 C 0.58288 0.26578 0.68971
 N502 N 0.59781 0.28573 0.68687
 N503 N 0.61682 0.28945 0.70206
 C504 C 0.62158 0.27341 0.72075
 N505 N 0.60660 0.25348 0.72357
 N506 N 0.58766 0.24972 0.70833
 C507 C 0.56179 0.26164 0.67302
 N508 N 0.54790 0.24086 0.67493
 N509 N 0.52872 0.23715 0.65999
 C510 C 0.52258 0.25408 0.64250
 N511 N 0.53653 0.27491 0.64069
 N512 N 0.55576 0.27858 0.65559
 C513 C 0.08221 0.76605 0.18910
 N514 N 0.08718 0.74977 0.20746
 N515 N 0.10612 0.75351 0.22268
 C516 C 0.12083 0.77364 0.22008
 N517 N 0.11588 0.78992 0.20170
 N518 N 0.09689 0.78622 0.18651
 C519 C 0.06126 0.76194 0.17239
 N520 N 0.05529 0.77894 0.15500
 N521 N 0.03618 0.77527 0.13999
 C522 C 0.02231 0.75439 0.14167
 N523 N 0.02836 0.73742 0.15914
 N524 N 0.04743 0.74112 0.17419
 C525 C 0.31040 0.08220 0.23444
 N526 N 0.31311 0.09680 0.21427
 N527 N 0.29795 0.11578 0.21043
 C528 C 0.27947 0.12081 0.22658
 N529 N 0.27675 0.10620 0.24675
 N530 N 0.29195 0.08726 0.25062
 C531 C 0.32706 0.06119 0.23859
 N532 N 0.32520 0.04734 0.25936
 N533 N 0.34017 0.02817 0.26301
 C534 C 0.35760 0.02205 0.24603
 N535 N 0.35935 0.03597 0.22521
 N536 N 0.34443 0.05517 0.22160
 C537 C 0.81064 0.58243 0.73413
 N538 N 0.81336 0.59705 0.71398
 N539 N 0.79822 0.61605 0.71018
 C540 C 0.77977 0.62107 0.72635
 N541 N 0.77702 0.60643 0.74649
 N542 N 0.79220 0.58747 0.75032
 C543 C 0.82732 0.56145 0.73825
 N544 N 0.82551 0.54761 0.75903
 N545 N 0.84055 0.52852 0.76269
 C546 C 0.85801 0.52246 0.74571
 N547 N 0.85970 0.53636 0.72488
 N548 N 0.84471 0.55550 0.72126
 C549 C 0.81065 0.41783 0.76574
 N550 N 0.79221 0.41279 0.74954
 N551 N 0.77702 0.39381 0.75334
 C552 C 0.77975 0.37914 0.77345
 N553 N 0.79820 0.38416 0.78963
 N554 N 0.81335 0.40317 0.78587
 C555 C 0.82732 0.43883 0.76164
 N556 N 0.84472 0.44480 0.77862
 N557 N 0.85970 0.46396 0.77500
 C558 C 0.85799 0.47788 0.75419
 N559 N 0.84051 0.47182 0.73723
 N560 N 0.82548 0.45270 0.74088
 C561 C 0.31003 -0.08269 0.26612
 N562 N 0.31297 -0.09759 0.28605
 N563 N 0.29786 -0.11664 0.28981
 C564 C 0.27913 -0.12149 0.27386
 N565 N 0.27617 -0.10654 0.25395
 N566 N 0.29135 -0.08754 0.25014
 C567 C 0.32674 -0.06164 0.26200
 N568 N 0.32492 -0.04775 0.24125
 N569 N 0.33999 -0.02864 0.23758
 C570 C 0.35751 -0.02261 0.25452
 N571 N 0.35921 -0.03656 0.27532
 N572 N 0.34419 -0.05570 0.27895
 C573 C 0.18957 -0.08271 0.73397
 N574 N 0.20827 -0.08750 0.74995
 N575 N 0.22348 -0.10647 0.74615
 C576 C 0.22052 -0.12146 0.72627
 N577 N 0.20178 -0.11667 0.71032
 N578 N 0.18664 -0.09765 0.71407
 C579 C 0.17283 -0.06168 0.73806
 N580 N 0.15539 -0.05578 0.72109
 N581 N 0.14037 -0.03663 0.72467
 C582 C 0.14206 -0.02265 0.74546
 N583 N 0.15957 -0.02865 0.76242
 N584 N 0.17464 -0.04775 0.75879
 C585 C 0.69006 0.41773 0.23442
 N586 N 0.70845 0.41274 0.25067
 N587 N 0.72366 0.39378 0.24692
 C588 C 0.72098 0.37909 0.22681
 N589 N 0.70257 0.38407 0.21058
 N590 N 0.68741 0.40307 0.21429
 C591 C 0.67334 0.43868 0.23848
 N592 N 0.65597 0.44457 0.22144
 N593 N 0.64091 0.46366 0.22502
 C594 C 0.64251 0.47758 0.24584
 N595 N 0.65997 0.47161 0.26285
 N596 N 0.67507 0.45256 0.25924
 C597 C 0.68970 0.58216 0.26594
 N598 N 0.70798 0.58735 0.24960
 N599 N 0.72315 0.60634 0.25340
 C600 C 0.72056 0.62085 0.27364
 N601 N 0.70227 0.61567 0.28996
 N602 N 0.68714 0.59665 0.28620
 C603 C 0.67305 0.56117 0.26182
 N604 N 0.65572 0.55512 0.27884
 N605 N 0.64075 0.53596 0.27520
 C606 C 0.64241 0.52213 0.25432
 N607 N 0.65983 0.52827 0.23732
 N608 N 0.67484 0.54740 0.24099
 C609 C 0.18921 0.08223 0.76548
 N610 N 0.18651 0.09688 0.78561
 N611 N 0.20169 0.11587 0.78941
 C612 C 0.22017 0.12087 0.77325
 N613 N 0.22289 0.10621 0.75312
 N614 N 0.20767 0.08726 0.74929
 C615 C 0.17254 0.06120 0.76135
 N616 N 0.17442 0.04733 0.74060
 N617 N 0.15946 0.02815 0.73695
 C618 C 0.14200 0.02203 0.75392
 N619 N 0.14023 0.03597 0.77472
 N620 N 0.15515 0.05519 0.77833
 C621 C 0.23376 0.31159 0.08193
 N622 N 0.21361 0.31419 0.09657
 N623 N 0.20988 0.29895 0.11549
 C624 C 0.22613 0.28053 0.12040
 N625 N 0.24626 0.27792 0.10574
 N626 N 0.25002 0.29320 0.08686
 C627 C 0.23789 0.32832 0.06105
 N628 N 0.25870 0.32652 0.04727
 N629 N 0.26242 0.34159 0.02822
 C630 C 0.24547 0.35908 0.02219
 N631 N 0.22460 0.36076 0.03603
 N632 N 0.22091 0.34573 0.05512
 C633 C 0.73427 0.81198 0.58199
 N634 N 0.71411 0.81458 0.59663
 N635 N 0.71037 0.79932 0.61553
 C636 C 0.72661 0.78089 0.62042
 N637 N 0.74675 0.77828 0.60576
 N638 N 0.75052 0.79357 0.58690
 C639 C 0.73834 0.82867 0.56111
 N640 N 0.75909 0.82682 0.54723
 N641 N 0.76271 0.84182 0.52813
 C642 C 0.74571 0.85927 0.52212
 N643 N 0.72492 0.86101 0.53605
 N644 N 0.72133 0.84605 0.55520
 C645 C 0.76578 0.81196 0.41781
 N646 N 0.78594 0.81460 0.40318
 N647 N 0.78971 0.79934 0.38429
 C648 C 0.77350 0.78087 0.37941
 N649 N 0.75336 0.77822 0.39405
 N650 N 0.74955 0.79351 0.41290
 C651 C 0.76167 0.82866 0.43868
 N652 N 0.74090 0.82677 0.45253
 N653 N 0.73724 0.84179 0.47162
 C654 C 0.75420 0.85928 0.47764
 N655 N 0.77502 0.86105 0.46373
 N656 N 0.77865 0.84608 0.44460
 C657 C 0.26542 0.31168 -0.08221
 N658 N 0.28562 0.31431 -0.09679
 N659 N 0.28943 0.29909 -0.11571
 C660 C 0.27322 0.28064 -0.12069
 N661 N 0.25303 0.27799 -0.10610
 N662 N 0.24919 0.29325 -0.08721
 C663 C 0.26132 0.32838 -0.06129
 N664 N 0.24055 0.32657 -0.04743
 N665 N 0.23695 0.34161 -0.02833
 C666 C 0.25398 0.35905 -0.02230
 N667 N 0.27480 0.36074 -0.03622
 N668 N 0.27836 0.34575 -0.05536
 C669 C 0.73478 0.18839 -0.08191
 N670 N 0.75099 0.20684 -0.08692
 N671 N 0.74714 0.22207 -0.10582
 C672 C 0.72697 0.21937 -0.12043
 N673 N 0.71079 0.20090 -0.11545
 N674 N 0.71461 0.18571 -0.09651
 C675 C 0.73888 0.17171 -0.06098
 N676 N 0.72186 0.15432 -0.05506
 N677 N 0.72542 0.13934 -0.03591
 C678 C 0.74622 0.14106 -0.02197
 N679 N 0.76323 0.15853 -0.02799
 N680 N 0.75963 0.17355 -0.04710
 C681 C 0.23385 0.68829 0.41806
 N682 N 0.21371 0.68571 0.40339
 N683 N 0.21002 0.70099 0.38449
 C684 C 0.22628 0.71943 0.37962
 N685 N 0.24639 0.72202 0.39431
 N686 N 0.25012 0.70672 0.41317
 C687 C 0.23797 0.67153 0.43892
 N688 N 0.25879 0.67332 0.45270
 N689 N 0.26252 0.65823 0.47173
 C690 C 0.24557 0.64072 0.47775
 N691 N 0.22469 0.63904 0.46392
 N692 N 0.22099 0.65409 0.44486
 C693 C 0.26532 0.68817 0.58219
 N694 N 0.24905 0.70658 0.58708
 N695 N 0.25280 0.72191 0.60593
 C696 C 0.27293 0.71935 0.62060
 N697 N 0.28918 0.70091 0.61573
 N698 N 0.28546 0.68562 0.59684
 C699 C 0.26128 0.67143 0.56128
 N700 N 0.27833 0.65406 0.55540
 N701 N 0.27480 0.63907 0.53625
 C702 C 0.25404 0.64076 0.52227
 N703 N 0.23700 0.65819 0.52826
 N704 N 0.24056 0.67322 0.54737
 C705 C 0.76659 0.18835 0.08233
 N706 N 0.78674 0.18569 0.09697
 N707 N 0.79050 0.20090 0.11591
 C708 C 0.77430 0.21935 0.12084
 N709 N 0.75418 0.22203 0.10618
 N710 N 0.75038 0.20679 0.08729
 C711 C 0.76242 0.17166 0.06143
 N712 N 0.74160 0.17352 0.04767
 N713 N 0.73784 0.15848 0.02860
 C714 C 0.75476 0.14098 0.02253
 N715 N 0.77564 0.13924 0.03635
 N716 N 0.77936 0.15423 0.05546
 C717 C 0.48414 0.33167 0.56124
 N718 N 0.50043 0.33667 0.54287
 N719 N 0.49667 0.35558 0.52760
 C720 C 0.47652 0.37024 0.53016
 N721 N 0.46024 0.36527 0.54854
 N722 N 0.46397 0.34632 0.56378
 C723 C 0.48829 0.31074 0.57804
 N724 N 0.47130 0.30479 0.59545
 N725 N 0.47500 0.28576 0.61058
 C726 C 0.49592 0.27197 0.60904
 N727 N 0.51288 0.27800 0.59153
 N728 N 0.50914 0.29698 0.57636
 C729 C -0.01612 0.83221 0.06095
 N730 N 0.00013 0.83719 0.04256
 N731 N -0.00361 0.85612 0.02735
 C732 C -0.02370 0.87081 0.02999
 N733 N -0.03997 0.86588 0.04840
 N734 N -0.03626 0.84689 0.06358
 C735 C -0.01198 0.81126 0.07762
 N736 N -0.02893 0.80525 0.09503
 N737 N -0.02521 0.78613 0.11003
 C738 C -0.00432 0.77232 0.10832
 N739 N 0.01261 0.77841 0.09082
 N740 N 0.00885 0.79748 0.07578
 C741 C 0.01616 0.66783 0.06100
 N742 N -0.00009 0.66284 0.04261
 N743 N 0.00370 0.64393 0.02738
 C744 C 0.02384 0.62928 0.03000
 N745 N 0.04008 0.63422 0.04841
 N746 N 0.03632 0.65319 0.06362
 C747 C 0.01201 0.68879 0.07767
 N748 N 0.02898 0.69481 0.09506
 N749 N 0.02527 0.71395 0.11003
 C750 C 0.00439 0.72778 0.10832
 N751 N -0.01255 0.72166 0.09085
 N752 N -0.00882 0.70257 0.07583
 C753 C 0.51634 0.16771 0.56135
 N754 N 0.50004 0.16275 0.54298
 N755 N 0.50375 0.14385 0.52771
 C756 C 0.52387 0.12915 0.53026
 N757 N 0.54017 0.13408 0.54863
 N758 N 0.53649 0.15303 0.56387
 C759 C 0.51221 0.18862 0.57815
 N760 N 0.52919 0.19458 0.59556
 N761 N 0.52547 0.21362 0.61067
 C762 C 0.50455 0.22742 0.60910
 N763 N 0.48761 0.22137 0.59159
 N764 N 0.49136 0.20238 0.57644
 C765 C -0.01669 0.16799 0.43873
 N766 N -0.03683 0.15329 0.43615
 N767 N -0.04052 0.13432 0.45136
 C768 C -0.02423 0.12941 0.46973
 N769 N -0.00411 0.14411 0.47232
 N770 N -0.00039 0.16304 0.45708
 C771 C -0.01256 0.18893 0.42204
 N772 N 0.00826 0.20273 0.42388
 N773 N 0.01202 0.22180 0.40884
 C774 C -0.00491 0.22787 0.39135
 N775 N -0.02580 0.21403 0.38964
 N776 N -0.02952 0.19491 0.40464
 C777 C 0.48403 0.66798 0.93901
 N778 N 0.46398 0.65317 0.93631
 N779 N 0.46025 0.63422 0.95153
 C780 C 0.47640 0.62943 0.97006
 N781 N 0.49642 0.64426 0.97279
 N782 N 0.50019 0.66316 0.95753
 C783 C 0.48815 0.68890 0.92227
 N784 N 0.50892 0.70278 0.92408
 N785 N 0.51260 0.72183 0.90899
 C786 C 0.49565 0.72781 0.89148
 N787 N 0.47483 0.71387 0.88979
 N788 N 0.47118 0.69477 0.90483
 C789 C 0.51602 0.83216 0.93901
 N790 N 0.53621 0.84681 0.93646
 N791 N 0.53993 0.86576 0.95169
 C792 C 0.52364 0.87071 0.97006
 N793 N 0.50350 0.85603 0.97263
 N794 N 0.49974 0.83712 0.95738
 C795 C 0.51188 0.81123 0.92226
 N796 N 0.49104 0.79745 0.92403
 N797 N 0.48730 0.77841 0.90894
 C798 C 0.50425 0.77235 0.89145
 N799 N 0.52516 0.78618 0.88982
 N800 N 0.52886 0.80527 0.90487
 C801 C 0.01572 0.33230 0.43867
 N802 N -0.00054 0.33729 0.45705
 N803 N 0.00327 0.35619 0.47230
 C804 C 0.02344 0.37082 0.46971
 N805 N 0.03968 0.36589 0.45129
 N806 N 0.03591 0.34694 0.43606
 C807 C 0.01154 0.31136 0.42199
 N808 N 0.02849 0.30534 0.40459
 N809 N 0.02476 0.28621 0.38961
 C810 C 0.00386 0.27239 0.39132
 N811 N -0.01307 0.27850 0.40881
 N812 N -0.00931 0.29759 0.42383
 C813 C 0.33182 0.55975 0.48427
 N814 N 0.34646 0.56248 0.46414
 N815 N 0.36549 0.54738 0.46038
 C816 C 0.37053 0.52895 0.47658
 N817 N 0.35586 0.52619 0.49670
 N818 N 0.33686 0.54134 0.50049
 C819 C 0.31088 0.57645 0.48836
 N820 N 0.29704 0.57471 0.50914
 N821 N 0.27804 0.58986 0.51280
 C822 C 0.27210 0.60737 0.49582
 N823 N 0.28597 0.60896 0.47497
 N824 N 0.30501 0.59386 0.47135
 C825 C 0.83237 0.06034 -0.01553
 N826 N 0.83711 0.04164 0.00044
 N827 N 0.85605 0.02646 -0.00339
 C828 C 0.87092 0.02950 -0.02330
 N829 N 0.86620 0.04821 -0.03925
 N830 N 0.84723 0.06335 -0.03545
 C831 C 0.81149 0.07699 -0.01142
 N832 N 0.80576 0.09455 -0.02830
 N833 N 0.78666 0.10956 -0.02468
 C834 C 0.77261 0.10769 -0.00398
 N835 N 0.77845 0.09005 0.01288
 N836 N 0.79751 0.07499 0.00923
 C837 C 0.66841 0.06007 0.01605
 N838 N 0.66335 0.04167 -0.00019
 N839 N 0.64433 0.02653 0.00358
 C840 C 0.62966 0.02929 0.02370
 N841 N 0.63474 0.04769 0.03992
 N842 N 0.65379 0.06278 0.03618
 C843 C 0.68937 0.07675 0.01196
 N844 N 0.69527 0.09415 0.02897
 N845 N 0.71433 0.10925 0.02534
 C846 C 0.72817 0.10766 0.00448
 N847 N 0.72220 0.09016 -0.01250
 N848 N 0.70318 0.07502 -0.00884
 C849 C 0.16775 0.56013 0.51559
 N850 N 0.16300 0.54145 0.49959
 N851 N 0.14404 0.52626 0.50338
 C852 C 0.12916 0.52927 0.52328
 N853 N 0.13388 0.54798 0.53924
 N854 N 0.15286 0.56313 0.53548
 C855 C 0.18867 0.57675 0.51154
 N856 N 0.19441 0.59428 0.52845
 N857 N 0.21356 0.60927 0.52489
 C858 C 0.22764 0.60741 0.50422
 N859 N 0.22179 0.58980 0.48731
 N860 N 0.20269 0.57476 0.49091
 C861 C 0.16780 0.43974 -0.01571
 N862 N 0.15292 0.43675 -0.03561
 N863 N 0.13397 0.45191 -0.03940
 C864 C 0.12927 0.47063 -0.02346
 N865 N 0.14415 0.47364 -0.00355
 N866 N 0.16307 0.45844 0.00027
 C867 C 0.18868 0.42310 -0.01163
 N868 N 0.19442 0.40556 -0.02853
 N869 N 0.21353 0.39056 -0.02495
 C870 C 0.22759 0.39241 -0.00426
 N871 N 0.22175 0.41002 0.01263
 N872 N 0.20268 0.42508 0.00901
 C873 C 0.66811 0.93999 0.48415
 N874 N 0.66335 0.95867 0.50014
 N875 N 0.64436 0.97379 0.49635
 C876 C 0.62945 0.97070 0.47648
 N877 N 0.63421 0.95202 0.46051
 N878 N 0.65323 0.93694 0.46426
 C879 C 0.68899 0.92337 0.48823
 N880 N 0.70296 0.92533 0.50890
 N881 N 0.72196 0.91021 0.51255
 C882 C 0.72775 0.89256 0.49568
 N883 N 0.71374 0.89075 0.47496
 N884 N 0.69469 0.90581 0.47135
 C885 C 0.83173 0.94011 0.51557
 N886 N 0.83647 0.95880 0.49959
 N887 N 0.85544 0.97396 0.50339
 C888 C 0.87035 0.97090 0.52326
 N889 N 0.86562 0.95220 0.53921
 N890 N 0.84662 0.93708 0.53545
 C891 C 0.81087 0.92346 0.51149
 N892 N 0.80519 0.90589 0.52838
 N893 N 0.78614 0.89080 0.52478
 C894 C 0.77212 0.89259 0.50407
 N895 N 0.77790 0.91025 0.48719
 N896 N 0.79690 0.92539 0.49084
 C897 C 0.33178 0.43998 0.01585
 N898 N 0.34626 0.43742 0.03611
 N899 N 0.36528 0.45254 0.03987
 C900 C 0.37048 0.47081 0.02354
 N901 N 0.35598 0.47341 0.00329
 N902 N 0.33698 0.45825 -0.00050
 C903 C 0.31085 0.42329 0.01173
 N904 N 0.29712 0.42499 -0.00912
 N905 N 0.27809 0.40986 -0.01281
 C906 C 0.27204 0.39241 0.00419
 N907 N 0.28580 0.39086 0.02511
 N908 N 0.30487 0.40595 0.02876
 C909 C 0.56149 0.48396 0.33202
 N910 N 0.56412 0.46381 0.34668
 N911 N 0.54889 0.46005 0.36560
 C912 C 0.53043 0.47625 0.37050
 N913 N 0.52778 0.49638 0.35583
 N914 N 0.54305 0.50018 0.33695
 C915 C 0.57824 0.48807 0.31113
 N916 N 0.57646 0.50886 0.29729
 N917 N 0.59156 0.51253 0.27825
 C918 C 0.60905 0.49555 0.27226
 N919 N 0.61071 0.47471 0.28615
 N920 N 0.59565 0.47107 0.30523
 C921 C 0.06100 -0.01576 0.83169
 N922 N 0.04259 0.00051 0.83665
 N923 N 0.02736 -0.00326 0.85557
 C924 C 0.03002 -0.02338 0.87025
 N925 N 0.04843 -0.03962 0.86532
 N926 N 0.06362 -0.03589 0.84636
 C927 C 0.07773 -0.01173 0.81076
 N928 N 0.09510 -0.02879 0.80493
 N929 N 0.11018 -0.02527 0.78585
 C930 C 0.10859 -0.00447 0.77188
 N931 N 0.09113 0.01257 0.77780
 N932 N 0.07600 0.00901 0.79684
 C933 C 0.06079 0.01578 0.66791
 N934 N 0.04233 -0.00043 0.66294
 N935 N 0.02708 0.00340 0.64406
 C936 C 0.02976 0.02355 0.62942
 N937 N 0.04822 0.03976 0.63437
 N938 N 0.06344 0.03596 0.65329
 C939 C 0.07759 0.01160 0.68875
 N940 N 0.09504 0.02858 0.69464
 N941 N 0.11020 0.02486 0.71362
 C942 C 0.10865 0.00393 0.72739
 N943 N 0.09111 -0.01303 0.72142
 N944 N 0.07590 -0.00927 0.70249
 C945 C 0.56152 0.51573 0.16806
 N946 N 0.54308 0.49949 0.16310
 N947 N 0.52780 0.50331 0.14423
 C948 C 0.53045 0.52348 0.12960
 N949 N 0.54890 0.53970 0.13454
 N950 N 0.56414 0.53591 0.15344
 C951 C 0.57827 0.51159 0.18894
 N952 N 0.59566 0.52862 0.19488
 N953 N 0.61072 0.52496 0.21395
 C954 C 0.60911 0.50406 0.22776
 N955 N 0.59165 0.48705 0.22172
 N956 N 0.57654 0.49075 0.20270
 C957 C 0.43867 -0.01589 0.16829
 N958 N 0.43606 -0.03603 0.15361
 N959 N 0.45130 -0.03975 0.13469
 C960 C 0.46976 -0.02352 0.12980
 N961 N 0.47239 -0.00340 0.14449
 N962 N 0.45711 0.00037 0.16338
 C963 C 0.42188 -0.01183 0.18919
 N964 N 0.42361 0.00895 0.20306
 N965 N 0.40847 0.01255 0.22208
 C966 C 0.39097 -0.00447 0.22802
 N967 N 0.38937 -0.02530 0.21410
 N968 N 0.40448 -0.02887 0.19504
 C969 C 0.93888 0.48435 0.66796
 N970 N 0.95733 0.50057 0.66299
 N971 N 0.97255 0.49675 0.64407
 C972 C 0.96982 0.47661 0.62942
 N973 N 0.95136 0.46042 0.63437
 N974 N 0.93619 0.46420 0.65332
 C975 C 0.92217 0.48847 0.68885
 N976 N 0.90476 0.47146 0.69475
 N977 N 0.88970 0.47509 0.71382
 C978 C 0.89135 0.49594 0.72769
 N979 N 0.90885 0.51294 0.72170
 N980 N 0.92395 0.50927 0.70267
 C981 C 0.93900 0.51586 0.83185
 N982 N 0.93637 0.53600 0.84651
 N983 N 0.95157 0.53973 0.86545
 C984 C 0.96999 0.52349 0.87037
 N985 N 0.97265 0.50337 0.85569
 N986 N 0.95741 0.49960 0.83678
 C987 C 0.92226 0.51179 0.81097
 N988 N 0.92400 0.49101 0.79711
 N989 N 0.90887 0.48738 0.77810
 C990 C 0.89139 0.50438 0.77215
 N991 N 0.88979 0.52523 0.78605
 N992 N 0.90488 0.52882 0.80511
 C993 C 0.43886 0.01567 0.33201
 N994 N 0.45730 -0.00057 0.33692
 N995 N 0.47259 0.00323 0.35580
 C996 C 0.46995 0.02336 0.37048
 N997 N 0.45151 0.03957 0.36558
 N998 N 0.43626 0.03582 0.34667
 C999 C 0.42204 0.01153 0.31118
 N1000 N 0.40462 0.02853 0.30531
 N1001 N 0.38945 0.02486 0.28633
 C1002 C 0.39098 0.00395 0.27251
 N1003 N 0.40848 -0.01303 0.27846
 N1004 N 0.42369 -0.00931 0.29740
   
