data_POSCAR
  _audit_creation_date              2014-09-24
  _audit_creation_method            'ToBaCCo'
  _symmetry_space_group_name_H-M    'P1'
  _symmetry_Int_Tables_number       1
  _symmetry_cell_setting            triclinic
  loop_
  _symmetry_equiv_pos_as_xyz
 x,y,z
_cell_length_a 30.2772
_cell_length_b 29.6558
_cell_length_c 27.0560
_cell_angle_alpha 92.019400
_cell_angle_beta 90.695000
_cell_angle_gamma 89.421800
loop_
  _atom_site_label
  _atom_site_type_symbol
  _atom_site_fract_x
  _atom_site_fract_y
  _atom_site_fract_z
C1 C 0.23106 0.17872 0.25607
 C2 C 0.20936 0.15467 0.29235
 C3 C 0.17074 0.17233 0.31536
 C4 C 0.15501 0.21501 0.30153
 C5 C 0.17657 0.23950 0.26565
 C6 C 0.21470 0.22129 0.24287
 C7 C 0.26786 0.15995 0.23130
 C8 C 0.28823 0.18266 0.19278
 C9 C 0.27249 0.22613 0.18154
 C10 C 0.23576 0.24513 0.20583
 C11 C 0.21861 0.28689 0.19185
 C12 C 0.17994 0.30489 0.21317
 C13 C 0.15941 0.28115 0.25079
 H14 H 0.22219 0.12164 0.30056
 H15 H 0.12532 0.22911 0.31829
 H16 H 0.27967 0.12669 0.24092
 H17 H 0.28792 0.24562 0.15366
 H18 H 0.23442 0.30462 0.16257
 H19 H 0.12938 0.29370 0.26770
 C20 C -0.24611 0.83498 0.19309
 C21 C -0.22170 0.85935 0.22913
 C22 C -0.17825 0.84655 0.24195
 C23 C -0.15967 0.80758 0.21832
 C24 C -0.18352 0.78337 0.18110
 C25 C -0.22668 0.79758 0.16810
 C26 C -0.28933 0.84844 0.18086
 C27 C -0.31345 0.82563 0.14269
 C28 C -0.29290 0.78945 0.11662
 C29 C -0.25007 0.77507 0.12928
 C30 C -0.23008 0.73886 0.10317
 C31 C -0.18776 0.72375 0.11644
 C32 C -0.16461 0.74592 0.15559
 H33 H -0.23674 0.88883 0.24720
 H34 H -0.12626 0.79690 0.22686
 H35 H -0.30278 0.87804 0.19992
 H36 H -0.31044 0.77210 0.08646
 H37 H -0.24764 0.72194 0.07277
 H38 H -0.13142 0.73488 0.16504
 C39 C -0.23396 0.16833 -0.22971
 C40 C -0.21269 0.15343 -0.27329
 C41 C -0.17036 0.16922 -0.28455
 C42 C -0.15086 0.20221 -0.25294
 C43 C -0.17179 0.21751 -0.20941
 C44 C -0.21323 0.19996 -0.19725
 C45 C -0.27497 0.15068 -0.21737
 C46 C -0.29560 0.16299 -0.17241
 C47 C -0.27443 0.19482 -0.14001
 C48 C -0.23337 0.21321 -0.15214
 C49 C -0.21146 0.24370 -0.11931
 C50 C -0.17049 0.26194 -0.13170
 C51 C -0.15104 0.24878 -0.17696
 H52 H -0.22908 0.12896 -0.29751
 H53 H -0.11843 0.21489 -0.26137
 H54 H -0.29038 0.12609 -0.24255
 H55 H -0.28886 0.20515 -0.10505
 H56 H -0.22618 0.25330 -0.08411
 H57 H -0.11880 0.26152 -0.18604
 C58 C 0.19120 0.84458 -0.17760
 C59 C 0.16482 0.85823 -0.21730
 C60 C 0.12638 0.83435 -0.23157
 C61 C 0.11520 0.79605 -0.20519
 C62 C 0.14234 0.78109 -0.16633
 C63 C 0.18047 0.80558 -0.15225
 C64 C 0.22688 0.87094 -0.16135
 C65 C 0.25262 0.85874 -0.12060
 C66 C 0.24315 0.81893 -0.09614
 C67 C 0.20666 0.79243 -0.11137
 C68 C 0.19419 0.75469 -0.08485
 C69 C 0.15633 0.73014 -0.09899
 C70 C 0.13085 0.74326 -0.13981
 H71 H 0.17317 0.88930 -0.23464
 H72 H 0.08542 0.77764 -0.21512
 H73 H 0.23409 0.90195 -0.17968
 H74 H 0.26257 0.81008 -0.06393
 H75 H 0.21288 0.74535 -0.05229
 H76 H 0.10082 0.72514 -0.14940
 C77 C 0.19906 1.22929 0.72130
 C78 C 0.18831 1.20147 0.68003
 C79 C 0.21169 1.16061 0.67001
 C80 C 0.24869 1.15063 0.69991
 C81 C 0.26037 1.17871 0.74078
 C82 C 0.23488 1.21768 0.75212
 C83 C 0.17255 1.26702 0.73381
 C84 C 0.17976 1.29233 0.77807
 C85 C 0.21690 1.28129 0.80783
 C86 C 0.24422 1.24414 0.79520
 C87 C 0.27958 1.23183 0.82624
 C88 C 0.30550 1.19329 0.81511
 C89 C 0.29560 1.16689 0.77212
 H90 H 0.16021 1.21140 0.65794
 H91 H 0.26740 1.11974 0.69271
 H92 H 0.14447 1.27506 0.71030
 H93 H 0.22511 1.30098 0.84096
 H94 H 0.28635 1.25168 0.85986
 H95 H 0.31371 1.13591 0.76403
 C96 C 0.86219 0.77874 0.81803
 C97 C 0.88388 0.80226 0.78117
 C98 C 0.87238 0.84758 0.77212
 C99 C 0.83825 0.86837 0.79960
 C100 C 0.81564 0.84501 0.83516
 C101 C 0.82793 0.80030 0.84507
 C102 C 0.87492 0.73443 0.82907
 C103 C 0.85413 0.71154 0.86737
 C104 C 0.81957 0.73355 0.89335
 C105 C 0.80640 0.77753 0.88264
 C106 C 0.77246 0.79943 0.90949
 C107 C 0.75920 0.84341 0.89834
 C108 C 0.78120 0.86613 0.86143
 H109 H 0.91060 0.78561 0.76134
 H110 H 0.82881 0.90307 0.79297
 H111 H 0.90154 0.71886 0.80822
 H112 H 0.80315 0.71662 0.92283
 H113 H 0.75599 0.78219 0.93866
 H114 H 0.77211 0.90070 0.85388
 C115 C 0.12269 0.81688 1.14164
 C116 C 0.09975 0.84024 1.17930
 C117 C 0.10770 0.88618 1.18949
 C118 C 0.13834 0.90890 1.16130
 C119 C 0.16181 0.88574 1.12385
 C120 C 0.15353 0.83966 1.11338
 C121 C 0.11532 0.77099 1.13215
 C122 C 0.13798 0.74721 1.09398
 C123 C 0.16790 0.77051 1.06506
 C124 C 0.17651 0.81627 1.07513
 C125 C 0.20874 0.83872 1.04881
 C126 C 0.21880 0.88365 1.06149
 C127 C 0.19462 0.90739 1.09798
 H128 H 0.07552 0.82271 1.20044
 H129 H 0.14476 0.94431 1.16951
 H130 H 0.09043 0.75486 1.15355
 H131 H 0.18534 0.75272 1.03539
 H132 H 0.22772 0.82065 1.02062
 H133 H 0.20256 0.94228 1.10729
 C134 C 0.85418 1.19831 1.22388
 C135 C 0.86421 1.19231 1.27393
 C136 C 0.84022 1.16186 1.30182
 C137 C 0.80282 1.14080 1.27976
 C138 C 0.79234 1.14670 1.22973
 C139 C 0.81893 1.17444 1.20131
 C140 C 0.87990 1.22651 1.19550
 C141 C 0.87163 1.22977 1.14450
 C142 C 0.83773 1.20460 1.12182
 C143 C 0.81083 1.17757 1.15004
 C144 C 0.77620 1.15330 1.12769
 C145 C 0.74878 1.12693 1.15601
 C146 C 0.75680 1.12371 1.20702
 H147 H 0.89252 1.20955 1.29039
 H148 H 0.78239 1.11855 1.30021
 H149 H 0.90693 1.24520 1.21272
 H150 H 0.83164 1.20704 1.08240
 H151 H 0.77021 1.15521 1.08820
 H152 H 0.73651 1.10196 1.22853
 O153 O 0.55237 0.95906 0.93695
 O154 O 0.44002 0.96683 1.08842
 O155 O 0.54970 0.94531 1.02278
 O156 O 0.41312 0.99208 0.94631
 O157 O 0.52417 0.96073 1.09548
 O158 O 0.47152 0.95044 0.93071
 O159 O 0.39641 1.00073 1.03444
 O160 O 0.60700 0.98844 0.98068
 C161 C 0.59388 0.96431 0.94187
 C162 C 0.40295 0.97181 1.06740
 C163 C 0.54489 0.93445 1.06629
 C164 C 0.43032 0.95430 0.93373
 O165 O 0.46391 1.03185 0.89776
 O166 O 0.52576 1.05189 1.10394
 O167 O 0.56638 1.06297 0.99537
 O168 O 0.42448 1.08602 1.03620
 O169 O 0.44418 1.05243 1.10250
 O170 O 0.54234 1.04883 0.92154
 O171 O 0.44654 1.07996 0.95244
 O172 O 0.57948 1.01706 1.06856
 Co173 Co 0.50620 0.99981 0.93049
 Co174 Co 0.48487 1.00831 1.08933
 Co175 Co 0.55516 1.00491 1.00801
 Co176 Co 0.42591 1.03769 0.99276
 O177 O 0.49002 1.01475 1.00910
 C178 C 0.44917 1.06992 0.90822
 C179 C 0.56619 1.04580 1.09974
 C180 C 0.56348 1.07403 0.95169
 C181 C 0.42462 1.08401 1.08200
 O182 O 0.03680 0.44506 0.11574
 O183 O 0.07409 0.50688 -0.04760
 O184 O 0.06855 0.42552 -0.03455
 O185 O 0.01590 0.57943 0.05968
 O186 O 0.04471 0.44495 -0.10625
 O187 O 0.04145 0.52989 0.11199
 O188 O 0.03893 0.56867 -0.02584
 O189 O 0.07376 0.42573 0.05161
 C190 C 0.07057 0.42764 0.09705
 C191 C 0.07389 0.54904 -0.04089
 C192 C 0.06850 0.41734 -0.08063
 C193 C 0.04084 0.56889 0.09562
 O194 O -0.04279 0.53448 0.10521
 O195 O -0.03322 0.45613 -0.07186
 O196 O -0.01088 0.39591 0.05904
 O197 O -0.04551 0.53861 -0.04879
 O198 O 0.00547 0.52547 -0.09804
 O199 O -0.04758 0.45030 0.09749
 O200 O -0.06644 0.54967 0.03325
 O201 O -0.01804 0.39756 -0.03092
 Co202 Co -0.00222 0.48943 0.09870
 Co203 Co 0.02025 0.47968 -0.05650
 Co204 Co 0.02622 0.41736 0.01146
 Co205 Co -0.01272 0.55363 0.00522
 O206 O 0.00584 0.48704 0.01746
 C207 C -0.07081 0.55265 0.07855
 C208 C -0.04198 0.41681 -0.06193
 C209 C -0.04249 0.40943 0.08621
 C210 C -0.02979 0.54559 -0.08981
 O211 O 1.07695 0.01526 0.44129
 O212 O 0.90308 -0.01260 0.54805
 O213 O 0.94164 0.04482 0.44878
 O214 O 1.03134 0.05011 0.57819
 O215 O 0.89859 -0.01036 0.45944
 O216 O 1.08510 0.02112 0.53254
 O217 O 0.94800 0.04102 0.56956
 O218 O 1.01955 0.05673 0.43558
 C219 C 1.06007 0.05250 0.43165
 C220 C 0.90955 0.02668 0.56599
 C221 C 0.90353 0.03032 0.44995
 C222 C 1.06979 0.05147 0.56188
 O223 O 1.07689 -0.06690 0.53721
 O224 O 0.94993 -0.08743 0.45166
 O225 O 1.02579 -0.02737 0.39223
 O226 O 0.95837 -0.04321 0.59948
 O227 O 0.95114 -0.09156 0.54013
 O228 O 1.05875 -0.07162 0.44382
 O229 O 1.03911 -0.03544 0.59823
 O230 O 0.94709 -0.03633 0.39869
 Co231 Co 1.06644 -0.02492 0.48937
 Co232 Co 0.93132 -0.04764 0.49956
 Co233 Co 0.98431 0.00728 0.42547
 Co234 Co 0.99374 0.00149 0.57797
 O235 O 0.99444 -0.01595 0.49859
 C236 C 1.06794 -0.06312 0.58214
 C237 C 0.94460 -0.07719 0.40812
 C238 C 1.04597 -0.06376 0.40092
 C239 C 0.95438 -0.08344 0.58511
 C240 C 1.14576 0.14846 0.34969
 C241 C 1.15781 0.10876 0.36864
 C242 C 1.12974 0.08094 0.39994
 C243 C 1.08643 0.08753 0.40845
 H244 H 1.18989 0.09416 0.36111
 H245 H 1.14566 0.05084 0.41352
 H246 H 1.11463 0.16339 0.36115
 H247 H 1.06907 0.11675 0.39501
 C248 C 0.84474 -0.12526 0.27651
 C249 C 0.88374 -0.13433 0.29842
 C250 C 0.90348 -0.10019 0.33301
 C251 C 0.93027 -0.11135 0.37042
 H252 H 0.90019 -0.16664 0.29312
 H253 H 0.89319 -0.06524 0.32986
 H254 H 0.82892 -0.09342 0.28725
 H255 H 0.93808 -0.14653 0.37619
 C256 C 0.85611 0.15070 0.67320
 C257 C 0.84655 0.11303 0.64641
 C258 C 0.87972 0.09247 0.61278
 C259 C 0.87300 0.05253 0.58935
 H260 H 0.81639 0.09484 0.65200
 H261 H 0.91171 0.10839 0.61067
 H262 H 0.88734 0.16691 0.66657
 H263 H 0.84109 0.03650 0.59140
 C264 C 1.09779 -0.15065 0.73066
 C265 C 1.11048 -0.12280 0.69557
 C266 C 1.07926 -0.10320 0.65993
 C267 C 1.09419 -0.08992 0.61659
 H268 H 1.14495 -0.11445 0.69174
 H269 H 1.04496 -0.09792 0.66984
 H270 H 1.06423 -0.16316 0.72897
 H271 H 1.12784 -0.09824 0.60609
 C272 C 0.32238 1.16021 1.16615
 C273 C 0.34030 1.17457 1.12413
 C274 C 0.37175 1.14706 1.09405
 C275 C 0.39972 1.11686 1.11309
 H276 H 0.32862 1.20486 1.10714
 H277 H 0.37087 1.15148 1.05447
 H278 H 0.33272 1.12748 1.17889
 H279 H 0.40211 1.11356 1.15277
 C280 C 0.28499 0.89179 0.89887
 C281 C 0.32766 0.88240 0.90698
 C282 C 0.35770 0.91977 0.92080
 C283 C 0.40174 0.91554 0.92033
 H284 H 0.34035 0.84836 0.90107
 H285 H 0.34303 0.95241 0.93021
 H286 H 0.27381 0.92665 0.90187
 H287 H 0.41692 0.88339 0.90999
 C288 C 0.64399 0.83963 1.12735
 C289 C 0.61832 0.86901 1.15323
 C290 C 0.57893 0.89221 1.13305
 C291 C 0.57058 0.89598 1.08456
 H292 H 0.62690 0.87899 1.19088
 H293 H 0.56087 0.91355 1.15928
 H294 H 0.63158 0.82582 1.09237
 H295 H 0.58945 0.87662 1.05743
 C296 C 0.66470 1.14085 0.83862
 C297 C 0.64149 1.14635 0.88043
 C298 C 0.60509 1.11521 0.89070
 C299 C 0.58850 1.11331 0.93613
 H300 H 0.65083 1.17086 0.90904
 H301 H 0.59570 1.08993 0.86269
 H302 H 0.65287 1.11554 0.81180
 H303 H 0.59988 1.13703 0.96481
 C304 C 0.16025 0.34573 0.19092
 C305 C 0.12246 0.36580 0.20554
 C306 C 0.09774 0.39900 0.17610
 C307 C 0.10333 0.40398 0.12744
 H308 H 0.10683 0.35651 0.23927
 H309 H 0.07007 0.41574 0.19424
 H310 H 0.17679 0.35804 0.15895
 H311 H 0.12943 0.38620 0.10778
 C312 C -0.14643 0.29194 -0.09573
 C313 C -0.12355 0.32754 -0.11005
 C314 C -0.09392 0.35333 -0.07593
 C315 C -0.07809 0.39318 -0.08885
 H316 H -0.12539 0.33699 -0.14838
 H317 H -0.08316 0.33859 -0.04166
 H318 H -0.14714 0.28420 -0.05689
 H319 H -0.09049 0.40822 -0.12230
 C320 C 0.13805 0.69649 -0.06637
 C321 C 0.14013 0.65201 -0.07659
 C322 C 0.10960 0.62182 -0.05177
 C323 C 0.11146 0.57661 -0.05651
 H324 H 0.16089 0.63875 -0.10615
 H325 H 0.08214 0.63774 -0.03239
 H326 H 0.11693 0.70940 -0.03697
 H327 H 0.13862 0.56021 -0.07594
 C328 C -0.16758 0.68600 0.08734
 C329 C -0.14673 0.65192 0.10890
 C330 C -0.12405 0.61601 0.07954
 C331 C -0.10456 0.58175 0.10229
 H332 H -0.14526 0.65124 0.14895
 H333 H -0.11976 0.61986 0.04018
 H334 H -0.17143 0.68548 0.04743
 H335 H -0.10832 0.57920 0.14191
 C336 C 1.19726 0.12735 0.63476
 C337 C 1.16039 0.13069 0.60707
 C338 C 1.13973 0.09072 0.58295
 C339 C 1.09590 0.09104 0.57697
 H340 H 1.14147 0.16165 0.60628
 H341 H 1.15882 0.06018 0.57547
 H342 H 1.21490 0.09530 0.63311
 H343 H 1.07729 0.12096 0.58858
 C344 C 0.89378 -0.12601 0.73769
 C345 C 0.92101 -0.14116 0.70199
 C346 C 0.93838 -0.10832 0.66782
 C347 C 0.94658 -0.11907 0.62045
 H348 H 0.92767 -0.17673 0.69529
 H349 H 0.93989 -0.07327 0.68061
 H350 H 0.88587 -0.09016 0.73866
 H351 H 0.94315 -0.15363 0.60666
 C352 C 1.08487 -0.08898 0.22985
 C353 C 1.07566 -0.10798 0.27250
 C354 C 1.05682 -0.08067 0.31325
 C355 C 1.05926 -0.09415 0.35977
 H356 H 1.08477 -0.14280 0.27859
 H357 H 1.04351 -0.04755 0.30540
 H358 H 1.07876 -0.05317 0.22595
 H359 H 1.07427 -0.12644 0.36791
 C360 C 0.85752 0.15073 0.34854
 C361 C 0.84319 0.11721 0.37618
 C362 C 0.87296 0.09845 0.41386
 C363 C 0.86641 0.05725 0.43083
 H364 H 0.81339 0.09890 0.36699
 H365 H 0.90426 0.11500 0.42126
 H366 H 0.88787 0.16723 0.36053
 H367 H 0.83541 0.04026 0.42318
 C368 C 0.14833 0.32613 -0.20847
 C369 C 0.14542 0.34576 -0.16321
 C370 C 0.10891 0.37703 -0.14919
 C371 C 0.10249 0.38663 -0.10123
 H372 H 0.16819 0.33667 -0.13411
 H373 H 0.08741 0.39116 -0.17709
 H374 H 0.12279 0.33442 -0.23524
 H375 H 0.12394 0.37091 -0.07427
 C376 C -0.10201 0.25963 0.11444
 C377 C -0.09523 0.30237 0.12908
 C378 C -0.06957 0.33294 0.09937
 C379 C -0.07150 0.37724 0.10933
 H380 H -0.10952 0.31527 0.16341
 H381 H -0.04835 0.31922 0.07042
 H382 H -0.09084 0.24739 0.07844
 H383 H -0.09389 0.39039 0.13745
 C384 C -0.13273 0.66843 -0.11719
 C385 C -0.09961 0.64300 -0.13604
 C386 C -0.08546 0.60213 -0.11046
 C387 C -0.04913 0.57873 -0.12329
 H388 H -0.08092 0.65298 -0.16751
 H389 H -0.10299 0.59338 -0.07744
 H390 H -0.14986 0.65535 -0.08578
 H391 H -0.03103 0.58716 -0.15595
 C392 C 0.12940 0.70177 0.08178
 C393 C 0.10798 0.67418 0.11116
 C394 C 0.08922 0.63236 0.09052
 C395 C 0.06876 0.60356 0.11880
 H396 H 0.10116 0.68334 0.14937
 H397 H 0.08843 0.62696 0.05080
 H398 H 0.13990 0.68844 0.04591
 H399 H 0.07087 0.60671 0.15879
 C400 C 0.33937 1.17897 0.85176
 C401 C 0.37299 1.15076 0.84083
 C402 C 0.40061 1.13135 0.88025
 C403 C 0.42914 1.09774 0.86971
 H404 H 0.37879 1.13964 0.80292
 H405 H 0.39444 1.14148 0.91847
 H406 H 0.33546 1.19096 0.88981
 H407 H 0.43396 1.08675 0.83149
 C408 C 0.25781 0.90452 1.04100
 C409 C 0.29167 0.91506 1.07103
 C410 C 0.32975 0.93962 1.05368
 C411 C 0.36626 0.94342 1.08160
 H412 H 0.29064 0.90631 1.10962
 H413 H 0.32732 0.95592 1.01854
 H414 H 0.25893 0.91065 1.00182
 H415 H 0.36908 0.92569 1.11589
 C416 C 0.71383 1.10081 1.13051
 C417 C 0.67388 1.09531 1.14955
 C418 C 0.64092 1.06940 1.12080
 C419 C 0.59789 1.07135 1.13094
 H420 H 0.66529 1.11079 1.18508
 H421 H 0.65235 1.04911 1.08929
 H422 H 0.72053 1.08776 1.09335
 H423 H 0.58588 1.09275 1.16127
 C424 C 0.72376 0.86632 0.92687
 C425 C 0.69365 0.89260 0.90518
 C426 C 0.66134 0.91893 0.93445
 C427 C 0.62508 0.93602 0.91332
 H428 H 0.69314 0.89518 0.86529
 H429 H 0.66737 0.92451 0.97379
 H430 H 0.72216 0.86109 0.96627
 H431 H 0.61735 0.92787 0.87484
   
