data_POSCAR
  _audit_creation_date              2014-09-24
  _audit_creation_method            'ToBaCCo'
  _symmetry_space_group_name_H-M    'P1'
  _symmetry_Int_Tables_number       1
  _symmetry_cell_setting            triclinic
  loop_
  _symmetry_equiv_pos_as_xyz
 x,y,z
_cell_length_a 29.4096
_cell_length_b 29.1121
_cell_length_c 29.4067
_cell_angle_alpha 89.996600
_cell_angle_beta 89.986400
_cell_angle_gamma 90.008600
loop_
  _atom_site_label
  _atom_site_type_symbol
  _atom_site_fract_x
  _atom_site_fract_y
  _atom_site_fract_z
N1 N 0.61578 0.61819 0.61658
 N2 N 0.86681 0.36827 0.13396
 N3 N 0.38420 0.11818 -0.11667
 N4 N 0.13325 0.86828 0.36599
 N5 N 0.07098 0.19993 0.10504
 N6 N 0.05338 0.18090 0.14157
 C7 C 0.01663 0.20514 0.15447
 C8 C 0.01047 0.24096 0.12422
 C9 C 0.04576 0.23669 0.09328
 H10 H -0.00454 0.19734 0.18353
 H11 H 0.05289 0.25868 0.06456
 Cu12 Cu 0.07951 0.12577 0.16824
 Cu13 Cu 0.12548 0.17584 0.07573
 Cu14 Cu 0.17372 0.07868 0.12395
 N15 N 0.10731 0.07158 0.19524
 N16 N 0.14451 0.05377 0.17791
 C17 C 0.15697 0.01718 0.20283
 C18 C 0.12574 0.01132 0.23750
 C19 C 0.09465 0.04662 0.23174
 H20 H 0.18644 -0.00401 0.19622
 H21 H 0.06525 0.05380 0.25257
 N22 N 0.19842 0.10874 0.06937
 N23 N 0.18064 0.14613 0.05126
 C24 C 0.20584 0.15858 0.01497
 C25 C 0.24107 0.12740 0.01004
 C26 C 0.23504 0.09624 0.04493
 H27 H 0.19879 0.18789 -0.00641
 H28 H 0.25622 0.06672 0.05193
 H29 H 0.11633 0.10867 0.09587
 H30 H 0.15204 0.14577 0.13338
 N31 N 0.42815 0.80407 0.60516
 N32 N 0.44551 0.82188 0.64235
 C33 C 0.48198 0.79689 0.65499
 C34 C 0.48769 0.76157 0.62391
 C35 C 0.45303 0.76744 0.59270
 H36 H 0.50280 0.80405 0.68439
 H37 H 0.44636 0.74623 0.56326
 Cu38 Cu 0.41854 0.87607 0.67017
 Cu39 Cu 0.37417 0.82897 0.57602
 Cu40 Cu 0.32597 0.92610 0.62438
 N41 N 0.39188 0.93117 0.69637
 N42 N 0.35532 0.95019 0.67885
 C43 C 0.34356 0.98691 0.70412
 C44 C 0.37452 0.99118 0.73938
 C45 C 0.40480 0.95539 0.73314
 H46 H 0.31481 1.00886 0.69707
 H47 H 0.43387 0.94759 0.75428
 N48 N 0.30146 0.89638 0.56923
 N49 N 0.31957 0.85901 0.55140
 C50 C 0.29509 0.84650 0.51482
 C51 C 0.26017 0.87763 0.50886
 C52 C 0.26513 0.90881 0.54409
 H53 H 0.30207 0.81699 0.49363
 H54 H 0.24375 0.93811 0.55120
 H55 H 0.38358 0.89606 0.59769
 H56 H 0.34614 0.85893 0.63347
 N57 N 0.92909 0.69987 0.39494
 N58 N 0.94667 0.68085 0.35841
 C59 C 0.98343 0.70510 0.34550
 C60 C 0.98959 0.74092 0.37575
 C61 C 0.95431 0.73663 0.40670
 H62 H 1.00459 0.69732 0.31643
 H63 H 0.94719 0.75861 0.43543
 Cu64 Cu 0.92054 0.62572 0.33173
 Cu65 Cu 0.87459 0.67576 0.42426
 Cu66 Cu 0.82633 0.57861 0.37603
 N67 N 0.89273 0.57154 0.30473
 N68 N 0.85552 0.55372 0.32207
 C69 C 0.84307 0.51712 0.29713
 C70 C 0.87429 0.51128 0.26247
 C71 C 0.90538 0.54659 0.26823
 H72 H 0.81360 0.49593 0.30375
 H73 H 0.93478 0.55379 0.24740
 N74 N 0.80163 0.60865 0.43062
 N75 N 0.81943 0.64603 0.44873
 C76 C 0.79423 0.65848 0.48502
 C77 C 0.75899 0.62730 0.48995
 C78 C 0.76501 0.59615 0.45506
 H79 H 0.80129 0.68780 0.50639
 H80 H 0.74382 0.56664 0.44805
 H81 H 0.88372 0.60859 0.40410
 H82 H 0.84801 0.64570 0.36661
 N83 N 0.57192 0.30405 -0.10521
 N84 N 0.55421 0.32220 -0.14207
 C85 C 0.51778 0.29717 -0.15475
 C86 C 0.51244 0.26147 -0.12401
 C87 C 0.54728 0.26717 -0.09298
 H88 H 0.49668 0.30460 -0.18388
 H89 H 0.55420 0.24571 -0.06377
 Cu90 Cu 0.58065 0.37696 -0.16935
 Cu91 Cu 0.62593 0.32893 -0.07611
 Cu92 Cu 0.67398 0.42625 -0.12431
 N93 N 0.60770 0.43167 -0.19596
 N94 N 0.64451 0.45044 -0.17869
 C95 C 0.65645 0.48698 -0.20414
 C96 C 0.62535 0.49139 -0.23925
 C97 C 0.59483 0.45585 -0.23277
 H98 H 0.68542 0.50871 -0.19730
 H99 H 0.56560 0.44822 -0.25375
 N100 N 0.69859 0.39643 -0.06927
 N101 N 0.68055 0.35899 -0.05151
 C102 C 0.70507 0.34644 -0.01496
 C103 C 0.73994 0.37762 -0.00896
 C104 C 0.73492 0.40887 -0.04413
 H105 H 0.69813 0.31688 0.00619
 H106 H 0.75624 0.43823 -0.05117
 H107 H 0.61660 0.39622 -0.09713
 H108 H 0.65339 0.35923 -0.13368
 C109 C -0.09311 0.33621 0.13267
 C110 C -0.10849 0.28571 0.13462
 C111 C -0.07432 0.25468 0.13019
 C112 C -0.02694 0.27634 0.12620
 C113 C -0.03013 0.30948 0.08556
 C114 C -0.06412 0.34100 0.08926
 C115 C -0.05734 0.33896 0.17158
 C116 C -0.02306 0.30775 0.16783
 H117 H -0.14363 0.27536 0.13942
 H118 H -0.08040 0.21791 0.13088
 H119 H -0.00718 0.30925 0.05672
 H120 H -0.06946 0.36756 0.06394
 H121 H -0.05674 0.36319 0.19934
 H122 H 0.00477 0.30608 0.19203
 C123 C 0.58352 0.65827 0.61729
 C124 C 0.58634 0.69432 0.57828
 C125 C 0.55493 0.72853 0.58146
 C126 C 0.52328 0.72430 0.62264
 C127 C 0.50255 0.67614 0.61853
 C128 C 0.53379 0.64204 0.61469
 C129 C 0.58724 0.68779 0.66064
 C130 C 0.55552 0.72170 0.66377
 H131 H 0.61079 0.69525 0.55094
 H132 H 0.55331 0.75657 0.55717
 H133 H 0.46625 0.66949 0.61734
 H134 H 0.52410 0.60638 0.60991
 H135 H 0.61328 0.68290 0.68632
 H136 H 0.55461 0.74504 0.69246
 C137 C 1.09317 0.83620 0.36729
 C138 C 1.10855 0.78571 0.36532
 C139 C 1.07438 0.75467 0.36975
 C140 C 1.02700 0.77631 0.37376
 C141 C 1.03021 0.80944 0.41442
 C142 C 1.06420 0.84097 0.41070
 C143 C 1.05738 0.83895 0.32838
 C144 C 1.02310 0.80773 0.33215
 H145 H 1.14369 0.77537 0.36050
 H146 H 1.08047 0.71790 0.36905
 H147 H 1.00727 0.80919 0.44326
 H148 H 1.06955 0.86753 0.43603
 H149 H 1.05678 0.86319 0.30063
 H150 H 0.99527 0.80607 0.30795
 C151 C 0.41652 0.15823 -0.11739
 C152 C 0.41375 0.19428 -0.07839
 C153 C 0.44520 0.22846 -0.08158
 C154 C 0.47684 0.22421 -0.12275
 C155 C 0.49752 0.17602 -0.11864
 C156 C 0.46623 0.14195 -0.11479
 C157 C 0.41285 0.18773 -0.16075
 C158 C 0.44461 0.22162 -0.16388
 H159 H 0.38931 0.19522 -0.05103
 H160 H 0.44686 0.25649 -0.05728
 H161 H 0.53381 0.16934 -0.11745
 H162 H 0.47589 0.10628 -0.10999
 H163 H 0.38683 0.18284 -0.18645
 H164 H 0.44559 0.24492 -0.19261
 C165 C 0.13249 -0.09173 0.33361
 C166 C 0.08908 -0.06231 0.33723
 C167 C 0.08590 -0.02848 0.30541
 C168 C 0.12705 -0.02586 0.27318
 C169 C 0.16819 -0.02147 0.30484
 C170 C 0.17141 -0.05559 0.33634
 C171 C 0.13516 -0.10809 0.28392
 C172 C 0.13128 -0.07407 0.25258
 H173 H 0.06339 -0.06720 0.36327
 H174 H 0.05716 -0.00521 0.30442
 H175 H 0.19243 0.00661 0.30314
 H176 H 0.19875 -0.05456 0.36078
 H177 H 0.14003 -0.14376 0.27432
 H178 H 0.13251 -0.08081 0.21629
 C179 C 0.61705 0.58627 -0.34320
 C180 C 0.66046 0.59111 -0.31425
 C181 C 0.66413 0.55971 -0.28014
 C182 C 0.62344 0.52664 -0.27680
 C183 C 0.58186 0.55812 -0.27301
 C184 C 0.57814 0.58920 -0.30741
 C185 C 0.61503 0.53572 -0.35839
 C186 C 0.61941 0.50481 -0.32410
 H187 H 0.68581 0.61764 -0.31968
 H188 H 0.69294 0.55954 -0.25717
 H189 H 0.55766 0.55659 -0.24516
 H190 H 0.55042 0.61346 -0.30689
 H191 H 0.61021 0.52525 -0.39349
 H192 H 0.61866 0.46801 -0.33004
 C193 C 0.38292 1.08621 0.84317
 C194 C 0.33953 1.09105 0.81419
 C195 C 0.33584 1.05960 0.78013
 C196 C 0.37649 1.02649 0.77686
 C197 C 0.41810 1.05792 0.77304
 C198 C 0.42184 1.08906 0.80739
 C199 C 0.38488 1.03569 0.85844
 C200 C 0.38047 1.00473 0.82420
 H201 H 0.31421 1.11760 0.81958
 H202 H 0.30702 1.05941 0.75717
 H203 H 0.44231 1.05633 0.74519
 H204 H 0.44957 1.11332 0.80682
 H205 H 0.38967 1.02527 0.89356
 H206 H 0.38116 0.96794 0.83021
 C207 C 0.86756 0.40825 0.16634
 C208 C 0.86487 0.39188 0.21603
 C209 C 0.86875 0.42589 0.24737
 C210 C 0.87299 0.47411 0.22678
 C211 C 0.91414 0.47151 0.19455
 C212 C 0.91097 0.43769 0.16273
 C213 C 0.82863 0.44438 0.16361
 C214 C 0.83185 0.47850 0.19511
 H215 H 0.86000 0.35621 0.22563
 H216 H 0.86750 0.41915 0.28366
 H217 H 0.94288 0.49478 0.19555
 H218 H 0.93667 0.43281 0.13670
 H219 H 0.80130 0.44540 0.13916
 H220 H 0.80761 0.50657 0.19681
 C221 C 0.34419 0.11945 -0.08481
 C222 C 0.31568 0.16371 -0.08870
 C223 C 0.28183 0.16730 -0.05730
 C224 C 0.27829 0.12572 -0.02521
 C225 C 0.27382 0.08427 -0.05700
 C226 C 0.30795 0.08061 -0.08809
 C227 C 0.35970 0.11643 -0.03493
 C228 C 0.32570 0.12079 -0.00402
 H229 H 0.32123 0.18967 -0.11460
 H230 H 0.25918 0.19666 -0.05646
 H231 H 0.24567 0.06016 -0.05573
 H232 H 0.30686 0.05310 -0.11264
 H233 H 0.39482 0.11102 -0.02490
 H234 H 0.33191 0.11944 0.03234
 C235 C 0.65581 0.61942 0.58475
 C236 C 0.64032 0.61643 0.53486
 C237 C 0.67435 0.62077 0.50397
 C238 C 0.72175 0.62564 0.52518
 C239 C 0.71825 0.66722 0.55728
 C240 C 0.68437 0.66365 0.58866
 C241 C 0.69200 0.58055 0.58803
 C242 C 0.72615 0.58418 0.55697
 H243 H 0.60521 0.61106 0.52480
 H244 H 0.66816 0.61943 0.46760
 H245 H 0.74093 0.69656 0.55645
 H246 H 0.67884 0.68961 0.61455
 H247 H 0.69303 0.55302 0.61258
 H248 H 0.75427 0.56004 0.55570
 C249 C 0.83491 0.36957 0.09400
 C250 C 0.83811 0.33076 0.05774
 C251 C 0.80699 0.33444 0.02366
 C252 C 0.77523 0.37591 0.02820
 C253 C 0.75410 0.37098 0.07564
 C254 C 0.78505 0.36659 0.10960
 C255 C 0.83880 0.41384 0.06549
 C256 C 0.80736 0.41747 0.03169
 H257 H 0.86265 0.30323 0.05659
 H258 H 0.80567 0.31036 -0.00450
 H259 H 0.71775 0.36965 0.08192
 H260 H 0.77505 0.36118 0.14473
 H261 H 0.86472 0.43978 0.07100
 H262 H 0.80652 0.44683 0.00904
 C263 C 0.16517 0.86958 0.40593
 C264 C 0.16128 0.91383 0.43445
 C265 C 0.19273 0.91746 0.46825
 C266 C 0.22487 0.87592 0.47171
 C267 C 0.19312 0.83443 0.47625
 C268 C 0.16198 0.83075 0.44219
 C269 C 0.21502 0.86662 0.39031
 C270 C 0.24598 0.87101 0.42426
 H271 H 0.13536 0.93976 0.42895
 H272 H 0.19359 0.94683 0.49089
 H273 H 0.19445 0.81034 0.50441
 H274 H 0.13745 0.80321 0.44333
 H275 H 0.22501 0.86122 0.35517
 H276 H 0.28233 0.86970 0.41797
   
