data_POSCAR
  _audit_creation_date              2014-09-24
  _audit_creation_method            'ToBaCCo'
  _symmetry_space_group_name_H-M    'P1'
  _symmetry_Int_Tables_number       1
  _symmetry_cell_setting            triclinic
  loop_
  _symmetry_equiv_pos_as_xyz
 x,y,z
_cell_length_a 23.9226
_cell_length_b 23.9126
_cell_length_c 23.8831
_cell_angle_alpha 90.265500
_cell_angle_beta 89.997500
_cell_angle_gamma 89.980000
loop_
  _atom_site_label
  _atom_site_type_symbol
  _atom_site_fract_x
  _atom_site_fract_y
  _atom_site_fract_z
C1 C 0.50164 0.99338 -0.65012
 C2 C 0.45081 1.00178 -0.62207
 C3 C 0.45146 1.00520 -0.56331
 C4 C 0.50181 0.99819 -0.53266
 C5 C 0.55217 0.98930 -0.56289
 C6 C 0.55264 0.98804 -0.62173
 C7 C 0.50175 1.00010 -0.46957
 C8 C 0.55131 1.01212 -0.43922
 C9 C 0.55163 1.01256 -0.38046
 C10 C 0.50160 1.00315 -0.35172
 C11 C 0.45168 0.99212 -0.38016
 C12 C 0.45213 0.98959 -0.43885
 H13 H 0.50156 0.99142 -0.69537
 H14 H 0.41272 1.01448 -0.54200
 H15 H 0.59106 0.98206 -0.54116
 H16 H 0.58976 1.02227 -0.46055
 H17 H 0.50154 1.00425 -0.30639
 H18 H 0.41379 0.97812 -0.45982
 C19 C -0.64919 1.49988 -0.00028
 C20 C -0.62082 1.44911 0.00704
 C21 C -0.56206 1.44984 0.00803
 C22 C -0.53180 1.50023 -0.00023
 C23 C -0.56240 1.55041 -0.00855
 C24 C -0.62115 1.55080 -0.00756
 C25 C -0.46874 1.50047 -0.00011
 C26 C -0.43844 1.55040 0.01065
 C27 C -0.37979 1.55097 0.00980
 C28 C -0.35105 1.50089 0.00021
 C29 C -0.37934 1.45062 -0.00953
 C30 C -0.43800 1.45078 -0.01072
 H31 H -0.69440 1.49976 -0.00030
 H32 H -0.54046 1.41116 0.01659
 H33 H -0.54104 1.58922 -0.01708
 H34 H -0.45971 1.58893 0.02097
 H35 H -0.30579 1.50107 0.00033
 H36 H -0.45893 1.41210 -0.02113
 C37 C -0.00223 0.35130 0.50421
 C38 C 0.00621 0.37793 0.45266
 C39 C 0.00748 0.43678 0.45169
 C40 C -0.00231 0.46884 0.50090
 C41 C -0.01238 0.44005 0.55166
 C42 C -0.01158 0.38152 0.55354
 C43 C -0.00265 0.53181 0.49918
 C44 C 0.00679 0.56395 0.54839
 C45 C 0.00485 0.62279 0.54746
 C46 C -0.00391 0.64934 0.49592
 C47 C -0.01286 0.61905 0.44656
 C48 C -0.01301 0.56051 0.44843
 H49 H -0.00183 0.30608 0.50633
 H50 H 0.01701 0.45715 0.41258
 H51 H -0.02238 0.46242 0.58976
 H52 H 0.01657 0.54366 0.58749
 H53 H -0.00401 0.69457 0.49382
 H54 H -0.02270 0.53806 0.41030
 O55 O -0.14203 1.00484 -0.07537
 O56 O 0.14443 0.99717 -0.07549
 O57 O -0.00204 1.07731 -0.14212
 O58 O 0.00336 0.92606 -0.14438
 O59 O 0.00297 0.85650 -0.07772
 O60 O -0.00044 1.14555 -0.07347
 O61 O 0.07694 0.99904 -0.14452
 O62 O -0.07448 1.00422 -0.14437
 Zr63 Zr 0.00123 1.00122 -0.09835
 O64 O 0.05167 0.95000 -0.05124
 O65 O -0.04901 1.05149 -0.04964
 C66 C -0.12596 1.00664 -0.12719
 C67 C 0.12841 0.99632 -0.12736
 C68 C -0.00324 1.12893 -0.12524
 C69 C 0.00457 0.87411 -0.12907
 H70 H 0.07601 1.07519 -0.07358
 O71 O 0.05209 1.05124 -0.04990
 H72 H -0.07367 0.92676 -0.07541
 O73 O -0.04961 0.95031 -0.05125
 O74 O 0.14416 1.00161 0.07608
 O75 O -0.14172 0.99737 0.07605
 O76 O 0.07761 1.14301 0.00476
 O77 O 0.07660 0.85700 -0.00454
 O78 O -0.07474 0.85727 0.00147
 O79 O -0.07371 1.14397 -0.00111
 O80 O 0.00407 1.07461 0.14462
 O81 O -0.00269 0.92327 0.14237
 O82 O 0.00405 1.14416 0.07796
 O83 O -0.00146 0.85504 0.07370
 O84 O 0.14623 1.07517 0.00325
 O85 O -0.14282 1.07664 -0.00110
 O86 O -0.14341 0.92511 0.00157
 O87 O 0.14564 0.92435 -0.00291
 O88 O 0.07666 1.00072 0.14509
 O89 O -0.07415 0.99710 0.14500
 Zr90 Zr 0.09958 0.99993 0.00019
 Zr91 Zr -0.09709 1.00070 0.00022
 Zr92 Zr 0.00171 1.09871 0.00158
 Zr93 Zr 0.00097 0.90192 -0.00129
 Zr94 Zr 0.00124 0.99941 0.09867
 O95 O -0.04940 0.94950 0.05002
 O96 O 0.05209 1.05028 0.05161
 C97 C 0.12813 1.00239 0.12797
 C98 C -0.12561 0.99545 0.12787
 C99 C 0.12934 1.12673 0.00573
 C100 C 0.12843 0.87293 -0.00546
 C101 C -0.12645 0.87351 0.00326
 C102 C -0.12553 1.12810 -0.00281
 C103 C 0.00559 1.12655 0.12931
 C104 C -0.00419 0.87166 0.12547
 H105 H -0.07302 1.07454 0.07576
 O106 O -0.04920 1.05074 0.05160
 H107 H 0.07535 0.92472 0.07383
 O108 O 0.05168 0.94896 0.05019
 C109 C 0.30788 1.00997 0.28102
 N110 N 0.30351 1.01040 0.33784
 N111 N 0.34944 1.00874 0.36983
 C112 C 0.40124 1.00625 0.34606
 N113 N 0.40468 1.00642 0.28934
 N114 N 0.35930 1.00832 0.25766
 C115 C 0.25934 1.00966 0.24338
 N116 N 0.26879 1.00998 0.18744
 N117 N 0.22671 1.00780 0.15136
 C118 C 0.17321 1.00508 0.16961
 N119 N 0.16326 1.00500 0.22575
 N120 N 0.20572 1.00717 0.26214
 C121 C -0.30437 0.98018 0.28145
 N122 N -0.29993 0.98410 0.33815
 N123 N -0.34583 0.98519 0.37021
 C124 C -0.39770 0.98274 0.34662
 N125 N -0.40118 0.97782 0.29008
 N126 N -0.35580 0.97651 0.25834
 C127 C -0.25604 0.98244 0.24361
 N128 N -0.26559 0.98085 0.18768
 N129 N -0.22378 0.98499 0.15146
 C130 C -0.17048 0.99095 0.16956
 N131 N -0.16043 0.99225 0.22566
 N132 N -0.20261 0.98824 0.26218
 C133 C -0.30390 1.02516 -0.28164
 N134 N -0.29951 1.01165 -0.33684
 N135 N -0.34502 1.00971 -0.36928
 C136 C -0.39641 1.02119 -0.34761
 N137 N -0.40013 1.03589 -0.29280
 N138 N -0.35495 1.03785 -0.26057
 C139 C -0.25598 1.02239 -0.24322
 N140 N -0.26508 1.02861 -0.18752
 N141 N -0.22342 1.02359 -0.15113
 C142 C -0.17078 1.01224 -0.16887
 N143 N -0.16124 1.00644 -0.22475
 N144 N -0.20324 1.01116 -0.26135
 C145 C 0.30721 0.98026 -0.28127
 N146 N 0.30269 0.99192 -0.33677
 N147 N 0.34824 0.99380 -0.36914
 C148 C 0.39981 0.98415 -0.34708
 N149 N 0.40370 0.97139 -0.29193
 N150 N 0.35847 0.96946 -0.25978
 C151 C 0.25908 0.98261 -0.24308
 N152 N 0.26808 0.97689 -0.18737
 N153 N 0.22620 0.98128 -0.15114
 C154 C 0.17342 0.99153 -0.16901
 N155 N 0.16397 0.99690 -0.22490
 N156 N 0.20620 0.99275 -0.26136
 C157 C 0.28271 1.30602 0.01679
 N158 N 0.25944 1.35752 0.01788
 N159 N 0.29102 1.40293 0.01571
 C160 C 0.34757 1.39946 0.01251
 N161 N 0.37131 1.34758 0.01249
 N162 N 0.33940 1.30161 0.01439
 C163 C 0.24503 1.25749 0.01601
 N164 N 0.26357 1.20393 0.01084
 N165 N 0.22710 1.16161 0.00786
 C166 C 0.17109 1.17163 0.00969
 N167 N 0.15306 1.22505 0.01513
 N168 N 0.18922 1.26700 0.01818
 C169 C 0.28170 0.69350 -0.01691
 N170 N 0.25863 0.64193 -0.01789
 N171 N 0.29042 0.59663 -0.01587
 C172 C 0.34697 0.60030 -0.01293
 N173 N 0.37048 0.65226 -0.01301
 N174 N 0.33838 0.69810 -0.01477
 C175 C 0.24392 0.74196 -0.01596
 N176 N 0.26248 0.79551 -0.01105
 N177 N 0.22604 0.83785 -0.00797
 C178 C 0.17002 0.82788 -0.00945
 N179 N 0.15194 0.77446 -0.01462
 N180 N 0.18809 0.73247 -0.01776
 C181 C -0.28100 0.69562 0.02077
 N182 N -0.33623 0.69997 0.00793
 N183 N -0.36865 0.65444 0.00643
 C184 C -0.34694 0.60307 0.01771
 N185 N -0.29210 0.59943 0.03172
 N186 N -0.25990 0.64461 0.03323
 C187 C -0.24259 0.74353 0.01779
 N188 N -0.18697 0.73425 0.02334
 N189 N -0.15058 0.77588 0.01857
 C190 C -0.16821 0.82869 0.00813
 N191 N -0.22401 0.83841 0.00292
 N192 N -0.26062 0.79643 0.00740
 C193 C -0.27977 1.30639 -0.01997
 N194 N -0.25860 1.35758 -0.03149
 N195 N -0.29100 1.40265 -0.03011
 C196 C -0.34608 1.39871 -0.01717
 N197 N -0.36780 1.34717 -0.00680
 N198 N -0.33519 1.30176 -0.00817
 C199 C -0.24134 1.25848 -0.01701
 N200 N -0.25950 1.20550 -0.00733
 N201 N -0.22296 1.16344 -0.00292
 C202 C -0.16710 1.17313 -0.00751
 N203 N -0.14933 1.22602 -0.01723
 N204 N -0.18566 1.26775 -0.02192
 C205 C 0.01568 1.27877 0.31075
 N206 N 0.01458 1.25612 0.36253
 N207 N 0.01258 1.28843 0.40778
 C208 C 0.01178 1.34505 0.40368
 N209 N 0.01382 1.36797 0.35155
 N210 N 0.01561 1.33542 0.30588
 C211 C 0.01486 1.24098 0.26204
 N212 N 0.01220 1.25993 0.20849
 N213 N 0.00943 1.22385 0.16564
 C214 C 0.00904 1.16775 0.17504
 N215 N 0.01192 1.14924 0.22849
 N216 N 0.01471 1.18506 0.27103
 C217 C -0.02351 1.28490 -0.30100
 N218 N -0.04021 1.26464 -0.35132
 N219 N -0.03856 1.29647 -0.39666
 C220 C -0.02013 1.35004 -0.39384
 N221 N -0.00477 1.37112 -0.34308
 N222 N -0.00641 1.33905 -0.29739
 C223 C -0.02005 1.24626 -0.25347
 N224 N -0.00623 1.26359 -0.20095
 N225 N -0.00109 1.22658 -0.15949
 C226 C -0.00894 1.17106 -0.16943
 N227 N -0.02279 1.15413 -0.22184
 N228 N -0.02830 1.19094 -0.26293
 C229 C 0.01388 0.72197 -0.31062
 N230 N 0.01442 0.66531 -0.30578
 N231 N 0.01273 0.63277 -0.35146
 C232 C 0.01018 0.65570 -0.40356
 N233 N 0.01035 0.71233 -0.40763
 N234 N 0.01225 0.74463 -0.36239
 C235 C 0.01314 0.75973 -0.26189
 N236 N 0.01273 0.81565 -0.27086
 N237 N 0.01013 0.85145 -0.22830
 C238 C 0.00768 0.83292 -0.17484
 N239 N 0.00831 0.77682 -0.16545
 N240 N 0.01091 0.74076 -0.20833
 C241 C -0.02498 0.71560 0.30108
 N242 N -0.00752 0.66155 0.29752
 N243 N -0.00585 0.62949 0.34321
 C244 C -0.02153 0.65046 0.39391
 N245 N -0.04033 0.70392 0.39667
 N246 N -0.04202 0.73576 0.35133
 C247 C -0.02148 0.75428 0.25358
 N248 N -0.02983 0.80959 0.26303
 N249 N -0.02420 0.84642 0.22198
 C250 C -0.01013 0.82952 0.16962
 N251 N -0.00219 0.77401 0.15968
 N252 N -0.00744 0.73698 0.20110
   
