data_POSCAR
  _audit_creation_date              2014-09-24
  _audit_creation_method            'ToBaCCo'
  _symmetry_space_group_name_H-M    'P1'
  _symmetry_Int_Tables_number       1
  _symmetry_cell_setting            triclinic
  loop_
  _symmetry_equiv_pos_as_xyz
 x,y,z
_cell_length_a 18.7591
_cell_length_b 18.1783
_cell_length_c 52.5064
_cell_angle_alpha 90.362600
_cell_angle_beta 87.951100
_cell_angle_gamma 120.625200
loop_
  _atom_site_label
  _atom_site_type_symbol
  _atom_site_fract_x
  _atom_site_fract_y
  _atom_site_fract_z
C1 C -0.06350 -0.03652 0.49892
 C2 C 0.97715 -0.03786 0.16527
 C3 C 0.04984 1.03655 0.83656
 O4 O 0.42757 -0.06085 -0.02112
 O5 O 0.58253 -0.02958 0.02444
 O6 O 0.43234 -0.04670 0.03026
 O7 O 0.57875 -0.02367 -0.02286
 O8 O 0.63159 0.11627 -0.02186
 O9 O 0.49038 0.09366 0.03083
 O10 O 0.63159 0.11000 0.02482
 O11 O 0.47177 0.07702 -0.02087
 Cu12 Cu 0.49730 -0.05387 0.00336
 Cu13 Cu 0.55694 0.11203 0.00243
 C14 C 0.42375 0.00237 -0.02930
 C15 C 0.63536 0.04493 0.03155
 C16 C 0.43944 0.02058 0.04023
 C17 C 0.63319 0.05162 -0.03033
 O18 O -0.04006 0.42922 0.69263
 O19 O -0.01314 0.56533 0.63791
 O20 O -0.03317 0.41343 0.64354
 O21 O -0.01465 0.58243 0.68722
 O22 O 0.12142 0.63971 0.68585
 O23 O 0.10181 0.46626 0.64521
 O24 O 0.12211 0.61885 0.63711
 O25 O 0.09534 0.48578 0.69396
 Cu26 Cu -0.03876 0.49222 0.66523
 Cu27 Cu 0.12379 0.55808 0.66549
 C28 C 0.02242 0.43387 0.70278
 C29 C 0.05847 0.61571 0.62815
 C30 C 0.03138 0.41008 0.63753
 C31 C 0.05704 0.64054 0.69359
 O32 O 0.38882 0.35193 0.31336
 O33 O 0.56289 0.51449 0.34909
 O34 O 0.41531 0.38417 0.36122
 O35 O 0.53540 0.48224 0.30095
 O36 O 0.48125 0.56531 0.30001
 O37 O 0.36217 0.46779 0.35929
 O38 O 0.50868 0.59755 0.34874
 O39 O 0.33643 0.43653 0.31122
 Cu40 Cu 0.48128 0.42502 0.33132
 Cu41 Cu 0.41731 0.52570 0.32972
 C42 C 0.33321 0.36649 0.30622
 C43 C 0.56518 0.58326 0.35521
 C44 C 0.36713 0.40868 0.37028
 C45 C 0.52756 0.53995 0.29013
 C46 C -0.03029 0.05137 0.54021
 C47 C -0.03194 0.11310 0.55597
 C48 C -0.08027 0.14904 0.54964
 C49 C -0.12392 0.12451 0.52716
 C50 C -0.11939 0.06538 0.51106
 C51 C -0.07544 0.02412 0.51763
 C52 C -0.08111 0.21167 0.56526
 C53 C -0.03146 0.24110 0.58664
 C54 C 0.01862 0.20641 0.59254
 C55 C 0.01682 0.14162 0.57749
 C56 C 0.07123 0.23838 0.61310
 C57 C 0.07526 0.30501 0.62750
 C58 C 0.02515 0.33927 0.62207
 C59 C -0.02911 0.30631 0.60181
 H60 H 0.00951 0.02769 0.54535
 H61 H -0.15876 0.15386 0.52141
 H62 H -0.14706 0.05597 0.49275
 H63 H -0.11841 0.23919 0.56039
 H64 H 0.05507 0.11498 0.58215
 H65 H 0.11024 0.21278 0.61780
 H66 H 0.11708 0.32934 0.64315
 H67 H -0.06725 0.33326 0.59741
 C68 C 0.83674 0.82980 0.18082
 C69 C 0.79065 0.76571 0.19918
 C70 C 0.83171 0.74337 0.21684
 C71 C 0.91818 0.78228 0.21476
 C72 C 0.96377 0.84860 0.19704
 C73 C 0.92413 0.87874 0.18131
 C74 C 0.78598 0.68523 0.23679
 C75 C 0.70023 0.65255 0.23990
 C76 C 0.65923 0.67360 0.22173
 C77 C 0.70430 0.72786 0.20110
 C78 C 0.57449 0.64405 0.22522
 C79 C 0.53156 0.59826 0.24724
 C80 C 0.57186 0.57884 0.26575
 C81 C 0.65556 0.60336 0.26160
 H82 H 0.80329 0.84307 0.16702
 H83 H 0.95088 0.76445 0.22764
 H84 H 1.03080 0.88075 0.19681
 H85 H 0.81769 0.66930 0.25065
 H86 H 0.67285 0.74519 0.18752
 H87 H 0.54221 0.65952 0.21147
 H88 H 0.46686 0.57916 0.25008
 H89 H 0.68695 0.58909 0.27600
 C90 C 0.12612 -0.00993 -0.13455
 C91 C 0.18483 0.00688 -0.11614
 C92 C 0.23678 0.09105 -0.10785
 C93 C 0.22864 0.15702 -0.11804
 C94 C 0.16950 0.13982 -0.13616
 C95 C 0.11714 0.05593 -0.14557
 C96 C 0.29469 0.10755 -0.08912
 C97 C 0.30069 0.04029 -0.07847
 C98 C 0.24830 -0.04414 -0.08685
 C99 C 0.19107 -0.06023 -0.10562
 C100 C 0.25363 -0.11151 -0.07626
 C101 C 0.31033 -0.09575 -0.05754
 C102 C 0.36315 -0.01223 -0.04895
 C103 C 0.35789 0.05577 -0.05954
 H104 H 0.08713 -0.07569 -0.13956
 H105 H 0.26681 0.22202 -0.11158
 H106 H 0.16333 0.19311 -0.14212
 H107 H 0.33446 0.17241 -0.08271
 H108 H 0.15097 -0.12518 -0.11192
 H109 H 0.21388 -0.17656 -0.08247
 H110 H 0.31282 -0.14946 -0.04981
 H111 H 0.39822 0.12046 -0.05314
 C112 C 0.00997 0.90149 0.52552
 C113 C 0.00773 0.83944 0.54197
 C114 C -0.06912 0.76657 0.54892
 C115 C -0.14185 0.75659 0.53936
 C116 C -0.13926 0.81849 0.52326
 C117 C -0.06350 0.89197 0.51538
 C118 C -0.07274 0.70599 0.56605
 C119 C -0.00039 0.71781 0.57673
 C120 C 0.07712 0.78981 0.56960
 C121 C 0.08081 0.85017 0.55215
 C122 C 0.14915 0.80087 0.58054
 C123 C 0.14391 0.74271 0.59898
 C124 C 0.06659 0.67251 0.60674
 C125 C -0.00503 0.65975 0.59505
 H126 H 0.06905 0.95911 0.52165
 H127 H -0.20148 0.70154 0.54482
 H128 H -0.19822 0.80786 0.51759
 H129 H -0.13222 0.65066 0.57158
 H130 H 0.14012 0.90605 0.54688
 H131 H 0.20925 0.85545 0.57526
 H132 H 0.20004 0.75405 0.60769
 H133 H -0.06509 0.60560 0.60069
 C134 C 0.02569 0.03671 0.20918
 C135 C 0.08029 0.10706 0.22359
 C136 C 0.13674 0.18536 0.21127
 C137 C 0.13639 0.19229 0.18476
 C138 C 0.08393 0.12105 0.17048
 C139 C 0.03059 0.04046 0.18223
 C140 C 0.19353 0.25483 0.22559
 C141 C 0.19665 0.24571 0.25199
 C142 C 0.14008 0.16706 0.26429
 C143 C 0.08103 0.09903 0.25011
 C144 C 0.14547 0.15668 0.29046
 C145 C 0.20799 0.22262 0.30417
 C146 C 0.26413 0.30056 0.29210
 C147 C 0.25748 0.31273 0.26615
 H148 H -0.01954 -0.02055 0.21937
 H149 H 0.17828 0.25220 0.17497
 H150 H 0.08692 0.12797 0.14993
 H151 H 0.23713 0.31487 0.21610
 H152 H 0.03804 0.03868 0.25956
 H153 H 0.10292 0.09677 0.30015
 H154 H 0.21306 0.21273 0.32420
 H155 H 0.30192 0.37281 0.25684
 C156 C 0.97584 0.06708 -0.12557
 C157 C 0.90556 0.05297 -0.11116
 C158 C 0.82638 -0.01399 -0.11746
 C159 C 0.81869 -0.06248 -0.13905
 C160 C 0.88883 -0.04584 -0.15389
 C161 C 0.97020 0.01576 -0.14670
 C162 C 0.75616 -0.02928 -0.10260
 C163 C 0.76430 0.02385 -0.08201
 C164 C 0.84363 0.09337 -0.07652
 C165 C 0.91365 0.10657 -0.09082
 C166 C 0.85188 0.14911 -0.05685
 C167 C 0.78236 0.13604 -0.04256
 C168 C 0.70357 0.06590 -0.04723
 C169 C 0.69465 0.00949 -0.06693
 H170 H 1.03454 0.12024 -0.12034
 H171 H 0.75807 -0.11153 -0.14499
 H172 H 0.87813 -0.07963 -0.17163
 H173 H 0.69534 -0.08146 -0.10729
 H174 H 0.97443 0.15921 -0.08627
 H175 H 0.91212 0.20288 -0.05251
 H176 H 0.79058 0.17964 -0.02726
 H177 H 0.63384 -0.04446 -0.07066
 C178 C 0.11866 -0.01420 0.14712
 C179 C 0.16544 -0.02639 0.12795
 C180 C 0.12519 -0.08838 0.10909
 C181 C 0.03854 -0.13897 0.11027
 C182 C -0.00776 -0.12423 0.12890
 C183 C 0.03121 -0.05807 0.14676
 C184 C 0.17209 -0.09711 0.08907
 C185 C 0.25849 -0.04201 0.08718
 C186 C 0.29840 0.01972 0.10625
 C187 C 0.25195 0.02558 0.12679
 C188 C 0.38391 0.07716 0.10398
 C189 C 0.42923 0.07587 0.08256
 C190 C 0.39048 0.01558 0.06339
 C191 C 0.30538 -0.04492 0.06606
 H192 H 0.15164 0.03139 0.16179
 H193 H 0.00637 -0.18797 0.09627
 H194 H -0.07476 -0.16210 0.12872
 H195 H 0.14112 -0.14427 0.07447
 H196 H 0.28280 0.07354 0.14122
 H197 H 0.41534 0.12483 0.11840
 H198 H 0.49492 0.12253 0.08085
 H199 H 0.27522 -0.09103 0.05115
 C200 C 0.87924 0.88687 0.45615
 C201 C 0.81516 0.83968 0.43945
 C202 C 0.73435 0.82256 0.44562
 C203 C 0.71888 0.85150 0.46871
 C204 C 0.78268 0.89647 0.48557
 C205 C 0.86557 0.91839 0.47944
 C206 C 0.66980 0.77374 0.42912
 C207 C 0.68485 0.73927 0.40697
 C208 C 0.76583 0.75548 0.40106
 C209 C 0.83061 0.80681 0.41705
 C210 C 0.78034 0.71790 0.37963
 C211 C 0.71482 0.66270 0.36457
 C212 C 0.63433 0.64634 0.37020
 C213 C 0.61979 0.68613 0.39112
 H214 H 0.93904 0.89579 0.45088
 H215 H 0.65667 0.83666 0.47422
 H216 H 0.76561 0.91077 0.50403
 H217 H 0.60755 0.76034 0.43393
 H218 H 0.89262 0.81907 0.41245
 H219 H 0.84194 0.72941 0.37491
 H220 H 0.72690 0.63245 0.34850
 H221 H 0.55734 0.67244 0.39571
 C222 C 0.00693 0.12132 0.80944
 C223 C 0.02456 0.18616 0.79168
 C224 C 0.10673 0.24115 0.78261
 C225 C 0.17016 0.23086 0.79180
 C226 C 0.15231 0.16626 0.80957
 C227 C 0.07019 0.11003 0.81938
 C228 C 0.12366 0.30374 0.76398
 C229 C 0.05891 0.31144 0.75425
 C230 C -0.02322 0.25712 0.76380
 C231 C -0.03978 0.19518 0.78244
 C232 C -0.08801 0.26438 0.75422
 C233 C -0.07226 0.32329 0.73484
 C234 C 0.00868 0.37646 0.72464
 C235 C 0.07442 0.37111 0.73476
 H236 H -0.05741 0.07890 0.81483
 H237 H 0.23358 0.27147 0.78476
 H238 H 0.20317 0.15807 0.81480
 H239 H 0.18677 0.34526 0.75675
 H240 H -0.10304 0.15306 0.78947
 H241 H -0.15120 0.22350 0.76143
 H242 H -0.12408 0.32621 0.72758
 H243 H 0.13710 0.41171 0.72709
 C244 C 0.93260 0.00553 0.12417
 C245 C 0.87921 0.02448 0.11151
 C246 C 0.81646 0.03015 0.12546
 C247 C 0.81171 0.02214 0.15205
 C248 C 0.86534 0.00353 0.16451
 C249 C 0.92279 -0.01140 0.15070
 C250 C 0.75904 0.04263 0.11256
 C251 C 0.76343 0.04878 0.08585
 C252 C 0.82878 0.04697 0.07204
 C253 C 0.88654 0.03560 0.08498
 C254 C 0.83345 0.05312 0.04538
 C255 C 0.77179 0.05679 0.03241
 C256 C 0.70532 0.05547 0.04587
 C257 C 0.70193 0.05333 0.07259
 H258 H 0.98135 0.00402 0.11301
 H259 H 0.76564 0.02882 0.16319
 H260 H 0.85963 -0.00308 0.18509
 H261 H 0.70971 0.04506 0.12324
 H262 H 0.93536 0.03223 0.07429
 H263 H 0.88318 0.05209 0.03454
 H264 H 0.77434 0.05769 0.01175
 H265 H 0.64982 0.05136 0.08289
 C266 C 0.04353 0.10406 0.47563
 C267 C 0.11177 0.15229 0.45897
 C268 C 0.15806 0.11670 0.44894
 C269 C 0.13669 0.03411 0.45657
 C270 C 0.06853 -0.01365 0.47330
 C271 C 0.01974 0.01984 0.48328
 C272 C 0.22258 0.16296 0.43071
 C273 C 0.24035 0.24406 0.42227
 C274 C 0.19544 0.28048 0.43312
 C275 C 0.13205 0.23473 0.45148
 C276 C 0.21255 0.36102 0.42481
 C277 C 0.27083 0.40368 0.40505
 C278 C 0.31373 0.36704 0.39330
 C279 C 0.29989 0.28805 0.40251
 H280 H 0.00776 0.13263 0.48171
 H281 H 0.17090 0.00514 0.44891
 H282 H 0.05124 -0.07918 0.47712
 H283 H 0.25701 0.13484 0.42254
 H284 H 0.09669 0.26229 0.45935
 H285 H 0.17908 0.38998 0.43309
 H286 H 0.28083 0.46477 0.39855
 H287 H 0.33254 0.25913 0.39359
 C288 C 0.07726 0.97112 0.79529
 C289 C 0.06332 0.90231 0.77978
 C290 C 0.00640 0.81789 0.78793
 C291 C -0.03291 0.80377 0.81200
 C292 C -0.01749 0.87264 0.82756
 C293 C 0.03507 0.95883 0.81929
 C294 C -0.00901 0.74911 0.77207
 C295 C 0.03378 0.76403 0.74840
 C296 C 0.09295 0.84878 0.74068
 C297 C 0.10647 0.91725 0.75623
 C298 C 0.13857 0.86377 0.71765
 C299 C 0.12643 0.79542 0.70246
 C300 C 0.06686 0.71131 0.70966
 C301 C 0.01987 0.69571 0.73252
 H302 H 0.12183 1.03387 0.78812
 H303 H -0.07502 0.73928 0.81898
 H304 H -0.04710 0.85778 0.84639
 H305 H -0.05332 0.68417 0.77828
 H306 H 0.15123 0.98217 0.75010
 H307 H 0.18445 0.92825 0.71155
 H308 H 0.16314 0.80821 0.68488
 H309 H -0.02528 0.63052 0.73826
   
