data_POSCAR
  _audit_creation_date              2014-09-24
  _audit_creation_method            'ToBaCCo'
  _symmetry_space_group_name_H-M    'P1'
  _symmetry_Int_Tables_number       1
  _symmetry_cell_setting            triclinic
  loop_
  _symmetry_equiv_pos_as_xyz
 x,y,z
_cell_length_a 33.8144
_cell_length_b 33.3309
_cell_length_c 15.4606
_cell_angle_alpha 89.455300
_cell_angle_beta 89.608900
_cell_angle_gamma 118.067600
loop_
  _atom_site_label
  _atom_site_type_symbol
  _atom_site_fract_x
  _atom_site_fract_y
  _atom_site_fract_z
C1 C 0.15652 0.44846 0.48647
 C2 C 0.18012 0.45869 0.40675
 C3 C 0.22675 0.48673 0.40757
 C4 C 0.24937 0.50861 0.48308
 C5 C 0.22406 0.50030 0.56029
 C6 C 0.17793 0.46885 0.56440
 C7 C 0.29945 0.53854 0.48134
 C8 C 0.32492 0.54625 0.55698
 C9 C 0.37192 0.57121 0.55503
 C10 C 0.39424 0.58710 0.47488
 C11 C 0.36969 0.57855 0.39785
 C12 C 0.32270 0.55703 0.40280
 H13 H 0.12045 0.42835 0.48654
 H14 H 0.24546 0.48988 0.34886
 H15 H 0.24070 0.51711 0.61834
 H16 H 0.30877 0.53193 0.61826
 H17 H 0.43050 0.60315 0.47196
 H18 H 0.30473 0.55360 0.34351
 C19 C 0.66057 -0.22677 0.48141
 C20 C 0.63686 -0.22317 0.41062
 C21 C 0.61444 -0.19682 0.41989
 C22 C 0.61375 -0.17678 0.49970
 C23 C 0.63349 -0.18667 0.57182
 C24 C 0.65172 -0.21688 0.56468
 C25 C 0.58729 -0.15118 0.51040
 C26 C 0.56901 -0.14944 0.59234
 C27 C 0.54419 -0.12605 0.60236
 C28 C 0.53753 -0.10408 0.53153
 C29 C 0.54914 -0.11056 0.44824
 C30 C 0.57645 -0.13165 0.43802
 H31 H 0.68190 -0.24260 0.47356
 H32 H 0.59386 -0.19574 0.36789
 H33 H 0.63113 -0.17410 0.63441
 H34 H 0.57147 -0.16804 0.64781
 H35 H 0.51878 -0.08548 0.54068
 H36 H 0.58740 -0.13421 0.37349
 C37 C 1.26070 0.83513 0.51792
 C38 C 1.24279 0.81498 0.43748
 C39 C 1.20535 0.77141 0.43829
 C40 C 1.18729 0.74666 0.51578
 C41 C 1.20842 0.76608 0.59410
 C42 C 1.24442 0.81033 0.59632
 C43 C 1.14659 0.70074 0.51417
 C44 C 1.11791 0.68296 0.58751
 C45 C 1.08040 0.63909 0.58713
 C46 C 1.06967 0.61562 0.50890
 C47 C 1.09814 0.63151 0.43740
 C48 C 1.13660 0.67362 0.43968
 H49 H 1.28948 0.86865 0.51961
 H50 H 1.18902 0.75782 0.37766
 H51 H 1.19699 0.74712 0.65431
 H52 H 1.12440 0.70327 0.64482
 H53 H 1.04163 0.58187 0.50436
 H54 H 1.15911 0.68396 0.38432
 C55 C 0.89503 0.52548 0.52513
 C56 C 0.88426 0.53213 0.44129
 C57 C 0.85603 0.55209 0.42984
 C58 C 0.83379 0.55948 0.50173
 C59 C 0.84028 0.54501 0.58454
 C60 C 0.87065 0.52803 0.59565
 C61 C 0.80121 0.57820 0.48979
 C62 C 0.78531 0.59334 0.56148
 C63 C 0.75091 0.60566 0.55138
 C64 C 0.74021 0.61237 0.46702
 C65 C 0.75207 0.59442 0.39689
 C66 C 0.78212 0.57702 0.40794
 H67 H 0.91858 0.51239 0.53527
 H68 H 0.85026 0.55968 0.36466
 H69 H 0.82028 0.54395 0.64005
 H70 H 0.79685 0.59221 0.62566
 H71 H 0.71731 0.62618 0.45599
 H72 H 0.78792 0.56037 0.35347
 C73 C 0.50099 0.38419 0.48965
 C74 C 0.50495 0.36456 0.41212
 C75 C 0.50324 0.32179 0.41498
 C76 C 0.49359 0.29615 0.49288
 C77 C 0.49328 0.31812 0.57043
 C78 C 0.49778 0.36233 0.57012
 C79 C 0.47984 0.24594 0.49176
 C80 C 0.47734 0.22099 0.56832
 C81 C 0.45745 0.17295 0.56906
 C82 C 0.44415 0.15046 0.48923
 C83 C 0.44943 0.17467 0.41178
 C84 C 0.46549 0.22160 0.41405
 H85 H 0.50349 0.41781 0.48718
 H86 H 0.50786 0.30840 0.35467
 H87 H 0.48625 0.30027 0.63174
 H88 H 0.48863 0.23845 0.62854
 H89 H 0.43222 0.11414 0.48590
 H90 H 0.46530 0.23814 0.35390
 C91 C 0.62233 0.06332 0.50823
 C92 C 0.64080 0.09000 0.43458
 C93 C 0.68513 0.12473 0.43512
 C94 C 0.71153 0.13269 0.50999
 C95 C 0.69168 0.10511 0.58432
 C96 C 0.64645 0.07159 0.58465
 C97 C 0.75841 0.17129 0.51166
 C98 C 0.77761 0.19389 0.58922
 C99 C 0.82201 0.22973 0.59149
 C100 C 0.84613 0.24472 0.51192
 C101 C 0.82619 0.22482 0.43303
 C102 C 0.78359 0.18694 0.43453
 H103 H 0.58729 0.03819 0.50707
 H104 H 0.69774 0.14659 0.37851
 H105 H 0.71064 0.11016 0.64288
 H106 H 0.75832 0.18273 0.64864
 H107 H 0.87898 0.27422 0.51008
 H108 H 0.77006 0.17024 0.37404
 O109 O 0.92674 0.41324 -0.16153
 O110 O 1.01914 0.45828 0.18775
 O111 O 0.91714 0.44262 0.09313
 O112 O 1.03617 0.51963 -0.06950
 O113 O 0.93840 0.41064 0.18777
 O114 O 1.00597 0.46932 -0.17186
 O115 O 1.03574 0.51251 0.09363
 O116 O 0.91263 0.44408 -0.05651
 C117 C 0.91283 0.43926 -0.13480
 C118 C 1.03287 0.49968 0.16983
 C119 C 0.92558 0.43914 0.16938
 C120 C 1.02334 0.50991 -0.14535
 O121 O 1.02784 0.40326 -0.13794
 O122 O 0.94965 0.34438 0.10746
 O123 O 0.88831 0.35178 -0.06508
 O124 O 1.07592 0.46103 0.07881
 O125 O 1.03092 0.39193 0.11834
 O126 O 0.94807 0.34980 -0.10549
 O127 O 1.07378 0.46807 -0.08444
 O128 O 0.89117 0.35191 0.09483
 Co129 Co 0.97719 0.40998 -0.13014
 Co130 Co 0.98363 0.40287 0.13796
 Co131 Co 0.90862 0.39909 0.01549
 Co132 Co 1.04795 0.48362 0.00543
 O133 O 0.97995 0.42378 0.00704
 C134 C 1.06598 0.43626 -0.13584
 C135 C 0.90902 0.32878 0.12192
 C136 C 0.90660 0.33183 -0.10567
 C137 C 1.06934 0.42470 0.11671
 O138 O 0.50347 0.49325 -0.12315
 O139 O 0.47795 0.54875 0.11572
 O140 O 0.56433 0.48649 0.05757
 O141 O 0.50701 0.62032 -0.11291
 O142 O 0.50427 0.48876 0.09528
 O143 O 0.47951 0.54980 -0.12884
 O144 O 0.49889 0.61489 0.05180
 O145 O 0.56333 0.48879 -0.10343
 C146 C 0.52431 0.47152 -0.13279
 C147 C 0.47292 0.58309 0.10248
 C148 C 0.52720 0.46876 0.09790
 C149 C 0.47661 0.58455 -0.14274
 O150 O 0.56185 0.61129 -0.19746
 O151 O 0.58406 0.54909 0.15647
 O152 O 0.63144 0.57663 -0.09897
 O153 O 0.58584 0.66091 0.06274
 O154 O 0.55924 0.60736 0.16196
 O155 O 0.58266 0.55179 -0.19715
 O156 O 0.59537 0.65782 -0.09440
 O157 O 0.63348 0.57155 0.05476
 Co158 Co 0.53360 0.55304 -0.15022
 Co159 Co 0.53323 0.54979 0.11740
 Co160 Co 0.59378 0.53368 -0.02301
 Co161 Co 0.54709 0.63126 -0.02374
 O162 O 0.55264 0.56768 -0.01915
 C163 C 0.59188 0.64931 -0.17231
 C164 C 0.62424 0.56576 0.13285
 C165 C 0.62286 0.57232 -0.17678
 C166 C 0.58160 0.64863 0.13979
 O167 O 0.47559 0.00087 -0.17199
 O168 O 0.42555 -0.06219 0.19374
 O169 O 0.52224 0.03693 0.08924
 O170 O 0.45688 -0.09093 -0.04954
 O171 O 0.47033 0.01984 0.18662
 O172 O 0.42383 -0.08021 -0.15479
 O173 O 0.45769 -0.08277 0.09910
 O174 O 0.52630 0.03713 -0.07387
 C175 C 0.51601 0.02171 -0.14812
 C176 C 0.45431 -0.07418 0.17515
 C177 C 0.51081 0.03362 0.16630
 C178 C 0.45118 -0.09214 -0.12771
 O179 O 0.35917 -0.06156 -0.09848
 O180 O 0.40139 0.02694 0.11775
 O181 O 0.47112 0.07054 -0.08474
 O182 O 0.36717 -0.11339 0.10499
 O183 O 0.35727 -0.05538 0.11552
 O184 O 0.40867 0.01969 -0.13825
 O185 O 0.36518 -0.11955 -0.05474
 O186 O 0.46850 0.07459 0.07907
 Co187 Co 0.41805 -0.02994 -0.12657
 Co188 Co 0.41522 -0.01853 0.14117
 Co189 Co 0.49068 0.04704 0.00382
 Co190 Co 0.41292 -0.09529 0.02360
 O191 O 0.43418 -0.02359 0.01013
 C192 C 0.34344 -0.10343 -0.09603
 C193 C 0.43228 0.06650 0.11651
 C194 C 0.43906 0.05970 -0.13621
 C195 C 0.34340 -0.09628 0.13160
 C196 C 1.17321 0.47168 0.25145
 C197 C 1.15717 0.44412 0.32701
 C198 C 1.11581 0.40408 0.32206
 C199 C 1.08964 0.39447 0.24786
 C200 C 1.10334 0.42524 0.17743
 C201 C 1.14638 0.46265 0.17828
 H202 H 1.20446 0.50307 0.25105
 H203 H 1.10296 0.38035 0.37610
 H204 H 1.05693 0.36479 0.24889
 H205 H 1.15793 0.48704 0.12508
 C206 C 0.61804 0.75859 0.25717
 C207 C 0.62947 0.74819 0.33871
 C208 C 0.62887 0.70557 0.34958
 C209 C 0.61443 0.67367 0.28427
 C210 C 0.60135 0.68371 0.20535
 C211 C 0.60456 0.72683 0.19103
 H212 H 0.61941 0.79116 0.24394
 H213 H 0.63597 0.69454 0.41050
 H214 H 0.61239 0.64065 0.29629
 H215 H 0.59479 0.73532 0.12976
 C216 C 0.28061 -0.11608 0.34484
 C217 C 0.26256 -0.16339 0.35715
 C218 C 0.26559 -0.18894 0.28720
 C219 C 0.28948 -0.16747 0.21132
 C220 C 0.30881 -0.12011 0.20060
 C221 C 0.30163 -0.09513 0.26629
 H222 H 0.27767 -0.09523 0.39519
 H223 H 0.25272 -0.22536 0.29352
 H224 H 0.29442 -0.18778 0.16235
 H225 H 0.31439 -0.05883 0.25923
 C226 C 0.90661 0.52873 0.28531
 C227 C 0.89615 0.51006 0.36944
 C228 C 0.89521 0.46786 0.38558
 C229 C 0.90581 0.44573 0.32100
 C230 C 0.91607 0.46416 0.23734
 C231 C 0.91625 0.50576 0.21953
 H232 H 0.90756 0.56098 0.27051
 H233 H 0.88537 0.45110 0.44824
 H234 H 0.90472 0.41340 0.33608
 H235 H 0.92426 0.52062 0.15506
 C236 C 0.54443 0.39619 0.26912
 C237 C 0.50895 0.38759 0.32707
 C238 C 0.47639 0.40008 0.30249
 C239 C 0.48009 0.42235 0.22333
 C240 C 0.51712 0.43383 0.16742
 C241 C 0.54874 0.41948 0.19045
 H242 H 0.56976 0.38646 0.28634
 H243 H 0.44826 0.39301 0.34517
 H244 H 0.45512 0.43293 0.20830
 H245 H 0.57797 0.42825 0.14987
 C246 C 0.62093 0.07079 0.27994
 C247 C 0.61103 0.08260 0.36086
 C248 C 0.56899 0.08035 0.37578
 C249 C 0.53634 0.06403 0.31260
 C250 C 0.54544 0.05047 0.23273
 C251 C 0.58829 0.05495 0.21592
 H252 H 0.65299 0.07183 0.26783
 H253 H 0.56089 0.08959 0.43792
 H254 H 0.50394 0.06192 0.32635
 H255 H 0.59608 0.04501 0.15425
 C256 C 0.47983 0.16471 -0.28155
 C257 C 0.45066 0.14747 -0.35264
 C258 C 0.41429 0.10323 -0.34415
 C259 C 0.40869 0.07652 -0.27046
 C260 C 0.43967 0.09248 -0.20286
 C261 C 0.47473 0.13732 -0.20829
 H262 H 0.50870 0.19810 -0.28443
 H263 H 0.38941 0.08895 -0.39418
 H264 H 0.38099 0.04229 -0.26857
 H265 H 0.49945 0.15056 -0.15773
 C266 C 0.73502 0.60922 -0.29175
 C267 C 0.72181 0.60297 -0.37927
 C268 C 0.67607 0.58853 -0.39668
 C269 C 0.64505 0.57964 -0.33078
 C270 C 0.65808 0.58573 -0.24436
 C271 C 0.70351 0.60122 -0.22507
 H272 H 0.76957 0.62070 -0.27428
 H273 H 0.66257 0.58018 -0.46108
 H274 H 0.61019 0.56665 -0.34805
 H275 H 0.71443 0.60592 -0.15854
 C276 C 0.81567 0.25549 -0.26079
 C277 C 0.84151 0.25073 -0.32873
 C278 C 0.88772 0.26774 -0.31490
 C279 C 0.90745 0.28954 -0.23804
 C280 C 0.88236 0.29746 -0.17353
 C281 C 0.83598 0.27935 -0.18524
 H282 H 0.78016 0.24391 -0.26813
 H283 H 0.90889 0.26356 -0.36294
 H284 H 0.94327 0.30259 -0.23160
 H285 H 0.81569 0.28530 -0.13777
 C286 C 0.54099 -0.10935 -0.24078
 C287 C 0.51899 -0.12878 -0.31784
 C288 C 0.47285 -0.14318 -0.32457
 C289 C 0.45020 -0.13333 -0.25994
 C290 C 0.47299 -0.11017 -0.18630
 C291 C 0.51779 -0.10052 -0.17446
 H292 H 0.57659 -0.09782 -0.23481
 H293 H 0.45522 -0.15874 -0.38331
 H294 H 0.41543 -0.14179 -0.26940
 H295 H 0.53577 -0.08268 -0.11759
 C296 C 0.43361 0.61831 -0.34138
 C297 C 0.39719 0.57645 -0.36359
 C298 C 0.38462 0.53900 -0.30704
 C299 C 0.40854 0.54282 -0.23167
 C300 C 0.44569 0.58419 -0.21049
 C301 C 0.45750 0.62223 -0.26517
 H302 H 0.44385 0.64779 -0.38344
 H303 H 0.35715 0.50611 -0.32267
 H304 H 0.39913 0.51274 -0.19167
 H305 H 0.48663 0.65429 -0.25152
 C306 C 1.01672 0.57516 -0.33923
 C307 C 1.05871 0.61498 -0.33592
 C308 C 1.08254 0.62383 -0.25786
 C309 C 1.06905 0.59037 -0.19318
 C310 C 1.03185 0.54756 -0.20535
 C311 C 1.00463 0.54092 -0.27683
 H312 H 0.99440 0.56869 -0.39317
 H313 H 1.11437 0.65392 -0.24971
 H314 H 1.09004 0.59665 -0.13700
 H315 H 0.97489 0.50880 -0.28610
 C316 C 0.86036 0.45764 -0.33244
 C317 C 0.87129 0.50363 -0.32516
 C318 C 0.88993 0.52664 -0.24845
 C319 C 0.90073 0.50455 -0.18230
 C320 C 0.89386 0.45994 -0.19411
 C321 C 0.87210 0.43616 -0.26800
 H322 H 0.84569 0.43936 -0.39120
 H323 H 0.89887 0.56223 -0.24232
 H324 H 0.91757 0.52329 -0.12532
 H325 H 0.86591 0.40152 -0.27753
 C326 C 0.47726 0.41079 -0.34151
 C327 C 0.49908 0.38407 -0.35078
 C328 C 0.52350 0.38065 -0.27974
 C329 C 0.52984 0.40707 -0.20582
 C330 C 0.50948 0.43515 -0.19862
 C331 C 0.48087 0.43434 -0.26512
 H332 H 0.45666 0.41293 -0.39285
 H333 H 0.54098 0.36060 -0.28406
 H334 H 0.55209 0.40694 -0.15589
 H335 H 0.46328 0.45423 -0.26073
 C336 C 0.58126 0.00975 -0.33559
 C337 C 0.62059 0.05194 -0.33411
 C338 C 0.62786 0.08023 -0.26280
 C339 C 0.59443 0.06893 -0.19992
 C340 C 0.55277 0.02993 -0.20865
 C341 C 0.54682 -0.00016 -0.27569
 H342 H 0.57537 -0.01365 -0.38791
 H343 H 0.65748 0.11300 -0.25933
 H344 H 0.59999 0.09248 -0.14790
 H345 H 0.51521 -0.03058 -0.28336
 C346 C 1.11439 0.41669 -0.34232
 C347 C 1.15321 0.45887 -0.35597
 C348 C 1.16591 0.49079 -0.28836
 C349 C 1.13937 0.48201 -0.21351
 C350 C 1.09948 0.44104 -0.20323
 C351 C 1.08814 0.40795 -0.26729
 H352 H 1.10403 0.38984 -0.38925
 H353 H 1.19442 0.52424 -0.29487
 H354 H 1.14880 0.50854 -0.16601
 H355 H 1.05771 0.37583 -0.26139
 C356 C 0.64231 0.70952 -0.38149
 C357 C 0.64999 0.75445 -0.36492
 C358 C 0.64685 0.76545 -0.27809
 C359 C 0.63138 0.73167 -0.21343
 C360 C 0.61788 0.68614 -0.23443
 C361 C 0.62506 0.67580 -0.31798
 H362 H 0.64402 0.69790 -0.44540
 H363 H 0.65467 0.79958 -0.25980
 H364 H 0.62686 0.74066 -0.14832
 H365 H 0.61470 0.64105 -0.33573
 C366 C 0.27142 -0.12711 -0.29467
 C367 C 0.26535 -0.17001 -0.31908
 C368 C 0.27933 -0.19398 -0.26200
 C369 C 0.30152 -0.17414 -0.18490
 C370 C 0.30950 -0.13019 -0.16240
 C371 C 0.29262 -0.10775 -0.21703
 H372 H 0.26033 -0.10821 -0.33647
 H373 H 0.27489 -0.22728 -0.27901
 H374 H 0.31457 -0.19217 -0.14551
 H375 H 0.29823 -0.07377 -0.20244
 C376 C 0.54716 -0.08386 0.29465
 C377 C 0.52602 -0.10148 0.37491
 C378 C 0.48099 -0.11102 0.38655
 C379 C 0.45845 -0.10107 0.32216
 C380 C 0.47951 -0.08316 0.24275
 C381 C 0.52382 -0.07511 0.22857
 H382 H 0.58163 -0.07629 0.28350
 H383 H 0.46274 -0.12653 0.44588
 H384 H 0.42402 -0.10844 0.33377
 H385 H 0.54055 -0.06127 0.16716
 C386 C 0.43235 0.62405 0.29066
 C387 C 0.39207 0.58492 0.31161
 C388 C 0.37484 0.54901 0.25229
 C389 C 0.39901 0.55055 0.17757
 C390 C 0.44053 0.58840 0.15927
 C391 C 0.45613 0.62597 0.21452
 H392 H 0.44638 0.65222 0.33492
 H393 H 0.34420 0.51812 0.26688
 H394 H 0.38687 0.52075 0.13732
 H395 H 0.48876 0.65501 0.20319
 C396 C 1.08165 0.55635 0.37993
 C397 C 1.08810 0.60063 0.36426
 C398 C 1.07736 0.61204 0.28371
 C399 C 1.05881 0.57892 0.22039
 C400 C 1.05066 0.53408 0.23739
 C401 C 1.06280 0.52324 0.31723
 H402 H 1.08968 0.54705 0.44223
 H403 H 1.08149 0.64584 0.27133
 H404 H 1.05012 0.58815 0.15873
 H405 H 1.05785 0.48925 0.33116
 C406 C 0.47321 0.16809 0.26117
 C407 C 0.44052 0.15125 0.32746
 C408 C 0.40119 0.11037 0.31489
 C409 C 0.39608 0.08515 0.24018
 C410 C 0.43074 0.09978 0.17756
 C411 C 0.46848 0.14250 0.18710
 H412 H 0.50385 0.19961 0.26930
 H413 H 0.37523 0.09706 0.36447
 H414 H 0.36649 0.05243 0.23495
 H415 H 0.49583 0.15468 0.14042
 C416 C 0.67750 0.55086 0.33421
 C417 C 0.72263 0.58295 0.32158
 C418 C 0.73623 0.60826 0.24416
 C419 C 0.70439 0.60235 0.18106
 C420 C 0.65878 0.57188 0.19621
 C421 C 0.64585 0.54564 0.27258
 H422 H 0.66647 0.53133 0.39408
 H423 H 0.77085 0.63365 0.23424
 H424 H 0.71504 0.62258 0.12202
 H425 H 0.61110 0.52120 0.28504
 C426 C 0.82115 0.25497 0.28675
 C427 C 0.84683 0.24607 0.34782
 C428 C 0.89172 0.25873 0.32721
 C429 C 0.91090 0.28144 0.24868
 C430 C 0.88603 0.29338 0.19055
 C431 C 0.84052 0.27853 0.20954
 H432 H 0.78643 0.24563 0.30073
 H433 H 0.91210 0.25176 0.37245
 H434 H 0.94600 0.29208 0.23607
 H435 H 0.82039 0.28724 0.16676
   
