data_POSCAR
  _audit_creation_date              2014-09-24
  _audit_creation_method            'ToBaCCo'
  _symmetry_space_group_name_H-M    'P1'
  _symmetry_Int_Tables_number       1
  _symmetry_cell_setting            triclinic
  loop_
  _symmetry_equiv_pos_as_xyz
 x,y,z
_cell_length_a 16.6989
_cell_length_b 16.6918
_cell_length_c 41.1098
_cell_angle_alpha 90.157900
_cell_angle_beta 90.106800
_cell_angle_gamma 119.938900
loop_
  _atom_site_label
  _atom_site_type_symbol
  _atom_site_fract_x
  _atom_site_fract_y
  _atom_site_fract_z
C1 C -0.09728 -0.10291 0.47663
 C2 C -0.02797 -0.05415 0.49985
 C3 C -0.00678 -0.10178 0.52323
 C4 C -0.05526 -0.19889 0.52391
 C5 C -0.12438 -0.24695 0.50022
 C6 C -0.14597 -0.20007 0.47632
 C7 C 0.02249 0.04736 0.49978
 C8 C 0.00602 0.09601 0.52428
 C9 C 0.05430 0.19290 0.52449
 C10 C 0.11850 0.24033 0.49973
 C11 C 0.13527 0.19235 0.47500
 C12 C 0.08711 0.09545 0.47525
 H13 H -0.11201 -0.06451 0.45868
 H14 H 0.04670 -0.06251 0.54106
 H15 H -0.04342 0.05830 0.54329
 H16 H 0.09889 0.05732 0.45628
 H17 H -0.16181 -0.32182 0.50036
 H18 H 0.15581 0.31524 0.49972
 C19 C 1.10071 0.00225 0.14198
 C20 C 1.05199 0.02031 0.16595
 C21 C 1.09984 0.08724 0.19001
 C22 C 1.19655 0.13650 0.19032
 C23 C 1.24482 0.11880 0.16602
 C24 C 1.19793 0.05165 0.14160
 C25 C 0.95051 -0.03079 0.16586
 C26 C 0.90236 -0.09494 0.19051
 C27 C 0.80551 -0.14259 0.19090
 C28 C 0.75761 -0.12572 0.16619
 C29 C 0.80507 -0.06181 0.14135
 C30 C 0.90192 -0.01424 0.14139
 H31 H 1.06228 -0.04964 0.12357
 H32 H 1.06159 0.09990 0.20864
 H33 H 0.94044 -0.10654 0.20953
 H34 H 0.93968 0.03518 0.12238
 H35 H 1.31967 0.15762 0.16641
 H36 H 0.68274 -0.16244 0.16635
 C37 C 0.09207 0.99602 0.85851
 C38 C 0.02641 0.97960 0.83422
 C39 C 0.00764 0.91346 0.80987
 C40 C 0.05424 0.86323 0.80969
 C41 C 0.11864 0.87892 0.83444
 C42 C 0.13878 0.94547 0.85904
 C43 C -0.02289 1.03187 0.83434
 C44 C -0.00310 1.09949 0.81068
 C45 C -0.04999 1.14948 0.81068
 C46 C -0.11589 1.13188 0.83496
 C47 C -0.13713 1.06368 0.85884
 C48 C -0.08995 1.01359 0.85813
 H49 H 0.10547 1.04747 0.87709
 H50 H -0.04215 0.90230 0.79092
 H51 H 0.04772 1.11196 0.79209
 H52 H -0.10416 0.96089 0.87615
 H53 H 0.15397 0.83933 0.83417
 H54 H -0.15155 1.17114 0.83486
 O55 O 0.61510 0.08629 -0.03293
 O56 O 0.46958 0.08181 0.03311
 O57 O 0.61444 0.06209 0.03042
 O58 O 0.44979 0.06531 -0.03050
 O59 O 0.38113 -0.08721 -0.03263
 O60 O 0.52717 -0.09007 0.03187
 O61 O 0.38440 -0.07025 0.03009
 O62 O 0.54917 -0.06580 -0.03216
 Cu63 Cu 0.54463 0.08870 0.00012
 Cu64 Cu 0.45503 -0.09169 -0.00131
 C65 C 0.60875 0.01239 -0.04368
 C66 C 0.40206 0.00672 0.04282
 C67 C 0.59592 -0.01618 0.04209
 C68 C 0.38868 -0.01210 -0.04249
 O69 O -0.07809 0.53546 0.63317
 O70 O -0.07903 0.39109 0.69902
 O71 O -0.06542 0.55291 0.69683
 O72 O -0.06470 0.38719 0.63567
 O73 O 0.08764 0.47089 0.63486
 O74 O 0.08690 0.62140 0.69837
 O75 O 0.07332 0.45938 0.69834
 O76 O 0.07421 0.61970 0.63489
 Cu77 Cu -0.08674 0.45930 0.66611
 Cu78 Cu 0.09542 0.55029 0.66665
 C79 C -0.00330 0.60198 0.62274
 C80 C -0.00453 0.39901 0.70988
 C81 C 0.01218 0.61418 0.70852
 C82 C 0.01312 0.40338 0.62443
 O83 O 0.37924 0.46806 0.36483
 O84 O 0.52925 0.61749 0.30146
 O85 O 0.38478 0.45207 0.30146
 O86 O 0.54334 0.61477 0.36498
 O87 O 0.60896 0.52824 0.36811
 O88 O 0.46659 0.38115 0.30247
 O89 O 0.61359 0.54958 0.30335
 O90 O 0.44872 0.38498 0.36452
 Cu91 Cu 0.45174 0.54546 0.33309
 Cu92 Cu 0.54313 0.45587 0.33412
 C93 C 0.38665 0.40108 0.37548
 C94 C 0.59696 0.61042 0.29152
 C95 C 0.40097 0.38950 0.29090
 C96 C 0.60174 0.59617 0.37791
 N97 N -0.04009 0.21152 0.56726
 C98 C 0.04108 0.24579 0.55078
 N99 N 0.11122 0.33104 0.55875
 N100 N 0.10115 0.38008 0.58223
 C101 C 0.02029 0.34652 0.59857
 N102 N -0.05053 0.26123 0.59067
 N103 N 0.66824 0.77810 0.22524
 C104 C 0.75319 0.79251 0.21739
 N105 N 0.78770 0.74612 0.23418
 N106 N 0.73849 0.68712 0.25778
 C107 C 0.65347 0.67334 0.26554
 N108 N 0.61969 0.72014 0.24889
 N109 N 0.23406 0.03103 -0.09479
 C110 C 0.20369 -0.04044 -0.11643
 N111 N 0.23702 -0.09950 -0.11370
 N112 N 0.29646 -0.08893 -0.09028
 C113 C 0.32672 -0.01785 -0.06883
 N114 N 0.29493 0.04253 -0.07152
 N115 N -0.09423 0.65941 0.55104
 C116 C -0.03743 0.75202 0.54803
 N117 N 0.03462 0.79528 0.56932
 N118 N 0.04845 0.74787 0.59266
 C119 C -0.00994 0.65553 0.59573
 N120 N -0.08127 0.61247 0.57450
 N121 N 0.21304 0.25088 0.23240
 C122 C 0.24838 0.20381 0.21648
 N123 N 0.33324 0.21912 0.22515
 N124 N 0.38082 0.27847 0.24880
 C125 C 0.34612 0.32582 0.26461
 N126 N 0.26130 0.31128 0.25598
 N127 N 0.76201 0.10540 -0.11394
 C128 C 0.79643 0.04731 -0.11711
 N129 N 0.76580 -0.02551 -0.09627
 N130 N 0.70384 -0.03913 -0.07330
 C131 C 0.67103 0.02028 -0.07011
 N132 N 0.70140 0.09267 -0.09080
 N133 N 0.34075 0.09376 0.11475
 C134 C 0.24817 0.03618 0.11728
 N135 N 0.20617 -0.03477 0.09548
 N136 N 0.25477 -0.04695 0.07216
 C137 C 0.34710 0.01209 0.06961
 N138 N 0.38889 0.08247 0.09130
 N139 N 0.75779 0.79198 0.43077
 C140 C 0.78656 0.74965 0.45238
 N141 N 0.75024 0.65676 0.44984
 N142 N 0.68996 0.60866 0.42650
 C143 C 0.66178 0.65083 0.40493
 N144 N 0.69621 0.74345 0.40754
 N145 N 0.04614 0.26105 0.76793
 C146 C -0.03473 0.21680 0.78471
 N147 N -0.10341 0.23425 0.77687
 N148 N -0.09238 0.29280 0.75318
 C149 C -0.01193 0.33720 0.73647
 N150 N 0.05758 0.32065 0.74429
 N151 N 0.78796 0.03341 0.09858
 C152 C 0.75228 -0.04745 0.11533
 N153 N 0.66576 -0.11606 0.10789
 N154 N 0.61693 -0.10488 0.08463
 C155 C 0.65200 -0.02433 0.06800
 N156 N 0.73852 0.04498 0.07537
 N157 N 0.21558 0.32955 0.44066
 C158 C 0.20112 0.24469 0.44877
 N159 N 0.24864 0.21043 0.43254
 N160 N 0.30876 0.25978 0.40924
 C161 C 0.32261 0.34468 0.40122
 N162 N 0.27467 0.37822 0.41730
 N163 N 0.11017 0.78205 0.77512
 C164 C 0.04028 0.79740 0.78315
 N165 N -0.04084 0.75154 0.76637
 N166 N -0.05146 0.69209 0.74262
 C167 C 0.01917 0.67740 0.73469
 N168 N 0.09994 0.72369 0.75134
   
