data_POSCAR
  _audit_creation_date              2014-09-24
  _audit_creation_method            'ToBaCCo'
  _symmetry_space_group_name_H-M    'P1'
  _symmetry_Int_Tables_number       1
  _symmetry_cell_setting            triclinic
  loop_
  _symmetry_equiv_pos_as_xyz
 x,y,z
_cell_length_a 32.5773
_cell_length_b 32.5652
_cell_length_c 32.5399
_cell_angle_alpha 89.959600
_cell_angle_beta 90.048900
_cell_angle_gamma 89.942100
loop_
  _atom_site_label
  _atom_site_type_symbol
  _atom_site_fract_x
  _atom_site_fract_y
  _atom_site_fract_z
C1 C 0.20290 0.14893 0.20256
 C2 C 0.18355 0.13007 0.23614
 C3 C 0.14880 0.14792 0.25527
 C4 C 0.13266 0.18436 0.23774
 C5 C 0.15124 0.20299 0.20359
 C6 C 0.18694 0.18566 0.18650
 C7 C 0.23811 0.13138 0.18493
 C8 C 0.25889 0.15061 0.15192
 C9 C 0.24254 0.18798 0.13678
 C10 C 0.20674 0.20517 0.15341
 C11 C 0.19069 0.24190 0.13754
 C12 C 0.15426 0.25891 0.15343
 C13 C 0.13483 0.23909 0.18662
 H14 H 0.19560 0.10091 0.24652
 H15 H 0.10688 0.20004 0.25154
 H16 H 0.24822 0.10197 0.19663
 H17 H 0.25811 0.20502 0.11292
 H18 H 0.20680 0.25727 0.11284
 H19 H 0.10649 0.25132 0.19901
 C20 C -0.20287 0.85009 0.20350
 C21 C -0.18581 0.86693 0.23937
 C22 C -0.15076 0.84936 0.25832
 C23 C -0.13345 0.81405 0.23974
 C24 C -0.15059 0.79667 0.20425
 C25 C -0.18525 0.81488 0.18593
 C26 C -0.23769 0.86792 0.18531
 C27 C -0.25618 0.85077 0.14983
 C28 C -0.23754 0.81545 0.13256
 C29 C -0.20239 0.79772 0.15015
 C30 C -0.18451 0.76259 0.13271
 C31 C -0.15020 0.74363 0.15109
 C32 C -0.13354 0.76107 0.18699
 H33 H -0.20148 0.89274 0.25314
 H34 H -0.10560 0.80040 0.25159
 H35 H -0.24919 0.89609 0.19858
 H36 H -0.25108 0.79999 0.10650
 H37 H -0.19728 0.75027 0.10456
 H38 H -0.10777 0.74650 0.20220
 C39 C -0.20726 0.15364 -0.20652
 C40 C -0.18936 0.13658 -0.24185
 C41 C -0.15152 0.15118 -0.25685
 C42 C -0.13191 0.18349 -0.23585
 C43 C -0.15019 0.20179 -0.20141
 C44 C -0.18792 0.18672 -0.18660
 C45 C -0.24445 0.13827 -0.19116
 C46 C -0.26278 0.15480 -0.15532
 C47 C -0.24316 0.18876 -0.13648
 C48 C -0.20641 0.20492 -0.15206
 C49 C -0.18798 0.23922 -0.13357
 C50 C -0.15067 0.25513 -0.14856
 C51 C -0.13151 0.23532 -0.18192
 H52 H -0.20532 0.11224 -0.25792
 H53 H -0.10238 0.19461 -0.24629
 H54 H -0.25930 0.11403 -0.20829
 H55 H -0.25498 0.20200 -0.10843
 H56 H -0.20346 0.25417 -0.10822
 H57 H -0.10217 0.24618 -0.19312
 C58 C 0.20379 0.84894 -0.20369
 C59 C 0.18784 0.86515 -0.24036
 C60 C 0.15393 0.84672 -0.26044
 C61 C 0.13734 0.81061 -0.24278
 C62 C 0.15249 0.79464 -0.20572
 C63 C 0.18546 0.81416 -0.18582
 C64 C 0.23802 0.86701 -0.18472
 C65 C 0.25371 0.85139 -0.14747
 C66 C 0.23379 0.81776 -0.12895
 C67 C 0.20033 0.79867 -0.14818
 C68 C 0.18189 0.76396 -0.13059
 C69 C 0.14969 0.74338 -0.15084
 C70 C 0.13531 0.75906 -0.18854
 H71 H 0.20117 0.89331 -0.25176
 H72 H 0.11321 0.79372 -0.25811
 H73 H 0.25308 0.89254 -0.19977
 H74 H 0.24452 0.80603 -0.09969
 H75 H 0.19285 0.75295 -0.10114
 H76 H 0.11107 0.74331 -0.20497
 C77 C 0.14969 1.20406 0.79542
 C78 C 0.13381 1.18770 0.75880
 C79 C 0.15280 1.15397 0.73891
 C80 C 0.18894 1.13773 0.75688
 C81 C 0.20457 1.15327 0.79390
 C82 C 0.18468 1.18630 0.81340
 C83 C 0.13111 1.23826 0.81403
 C84 C 0.14662 1.25514 0.85103
 C85 C 0.18063 1.23528 0.86955
 C86 C 0.19994 1.20169 0.85079
 C87 C 0.23462 1.18349 0.86884
 C88 C 0.25545 1.15111 0.84916
 C89 C 0.24015 1.13639 0.81147
 H90 H 0.10550 1.20061 0.74722
 H91 H 0.20613 1.11363 0.74184
 H92 H 0.10587 1.25264 0.79793
 H93 H 0.19215 1.24514 0.89910
 H94 H 0.24538 1.19475 0.89825
 H95 H 0.25613 1.11205 0.79539
 C96 C 0.84934 0.79613 0.79657
 C97 C 0.86800 0.81470 0.76235
 C98 C 0.85247 0.85164 0.74525
 C99 C 0.81839 0.87011 0.76493
 C100 C 0.79900 0.85139 0.79851
 C101 C 0.81427 0.81408 0.81412
 C102 C 0.86523 0.75957 0.81317
 C103 C 0.84617 0.73972 0.84691
 C104 C 0.80998 0.75772 0.86296
 C105 C 0.79433 0.79465 0.84717
 C106 C 0.75866 0.81221 0.86381
 C107 C 0.74332 0.84981 0.84882
 C108 C 0.76422 0.86941 0.81645
 H109 H 0.89332 0.79865 0.74814
 H110 H 0.80685 0.89963 0.75497
 H111 H 0.89358 0.74801 0.80040
 H112 H 0.79277 0.74274 0.88707
 H113 H 0.74263 0.79621 0.88816
 H114 H 0.75344 0.89875 0.80501
 C115 C 0.15281 0.79410 1.20457
 C116 C 0.13444 0.81253 1.23898
 C117 C 0.14965 0.84970 1.25510
 C118 C 0.18313 0.86868 1.23539
 C119 C 0.20252 0.84999 1.20179
 C120 C 0.18747 0.81243 1.18650
 C121 C 0.13699 0.75753 1.18816
 C122 C 0.15571 0.73795 1.15406
 C123 C 0.19167 0.75610 1.13770
 C124 C 0.20726 0.79308 1.15333
 C125 C 0.24271 0.81078 1.13641
 C126 C 0.25796 0.84845 1.15120
 C127 C 0.23709 0.86809 1.18360
 H128 H 0.10898 0.79716 1.25382
 H129 H 0.19451 0.89793 1.24637
 H130 H 0.10889 0.74582 1.20130
 H131 H 0.20871 0.74124 1.11339
 H132 H 0.25868 0.79478 1.11201
 H133 H 0.24772 0.89751 1.19487
 C134 C 0.84890 1.20379 1.20468
 C135 C 0.86447 1.18749 1.24144
 C136 C 0.84561 1.15350 1.26099
 C137 C 0.80983 1.13702 1.24255
 C138 C 0.79450 1.15256 1.20535
 C139 C 0.81439 1.18570 1.18608
 C140 C 0.86733 1.23818 1.18639
 C141 C 0.85229 1.25431 1.14913
 C142 C 0.81899 1.23461 1.12981
 C143 C 0.79955 1.20097 1.14836
 C144 C 0.76510 1.18281 1.13000
 C145 C 0.74414 1.15045 1.14957
 C146 C 0.75918 1.13564 1.18739
 H147 H 0.89250 1.20064 1.25334
 H148 H 0.79274 1.11273 1.25736
 H149 H 0.89264 1.25306 1.20200
 H150 H 0.80774 1.24568 1.10049
 H151 H 0.75459 1.19411 1.10049
 H152 H 0.74311 1.11127 1.20332
 N153 N 0.54200 1.07331 0.95479
 N154 N 0.57263 1.09913 0.94886
 N155 N 0.45539 1.04408 0.92765
 N156 N 0.42319 1.04838 0.90338
 N157 N 0.45589 1.07294 0.95579
 N158 N 0.42434 1.09797 0.95113
 N159 N 0.54200 1.04455 0.92651
 N160 N 0.57290 1.04980 0.90082
 C161 C 0.59168 1.08404 0.91510
 C162 C 0.40422 1.08222 0.91831
 N163 N 0.45682 0.92709 0.95586
 N164 N 0.42489 0.90245 0.95200
 N165 N 0.54235 0.95603 0.92632
 N166 N 0.57381 0.95153 0.90115
 N167 N 0.54325 0.92794 0.95526
 N168 N 0.57555 0.90388 0.95090
 N169 N 0.45583 0.95600 0.92775
 N170 N 0.42297 0.95216 0.90433
 Mn171 Mn 0.49890 1.00016 0.92653
 C172 C 0.40410 0.91847 0.91969
 C173 C 0.59422 0.91883 0.91691
 N174 N 0.45674 1.07256 1.04423
 N175 N 0.42478 1.09701 1.04898
 N176 N 0.54387 1.04435 1.07176
 N177 N 0.57625 1.04860 1.09576
 N178 N 0.54310 1.07321 1.04356
 N179 N 0.57469 1.09819 1.04794
 N180 N 0.45744 1.04426 1.07299
 N181 N 0.42613 1.04892 1.09829
 Mn182 Mn 0.49945 1.07352 0.99963
 C183 C 0.40604 1.08198 1.08292
 C184 C 0.59507 1.08242 1.08065
 N185 N 0.54431 0.92790 1.04345
 N186 N 0.57647 0.90353 1.04761
 N187 N 0.45795 0.95562 1.07311
 N188 N 0.42654 0.95075 1.09825
 N189 N 0.45759 0.92743 1.04427
 N190 N 0.42563 0.90295 1.04868
 N191 N 0.54411 0.95609 1.07224
 N192 N 0.57584 0.95144 1.09704
 Mn193 Mn 0.50051 0.92707 0.99972
 Mn194 Mn 0.50083 1.00011 1.07304
 Cl195 Cl 0.49993 1.00022 0.99972
 C196 C 0.59576 0.91852 1.08130
 C197 C 0.40667 0.91775 1.08261
 N198 N -0.07212 0.45694 0.04575
 N199 N -0.09666 0.42511 0.05047
 N200 N -0.04294 0.54346 0.07320
 N201 N -0.04699 0.57558 0.09760
 N202 N -0.07225 0.54297 0.04548
 N203 N -0.09737 0.57433 0.05061
 N204 N -0.04285 0.45657 0.07350
 N205 N -0.04635 0.42406 0.09754
 C206 C -0.08024 0.40490 0.08291
 C207 C -0.08122 0.59440 0.08322
 N208 N 0.07329 0.54312 0.04308
 N209 N 0.09890 0.57414 0.04806
 N210 N 0.04548 0.45696 0.07258
 N211 N 0.05129 0.42618 0.09834
 N212 N 0.07312 0.45640 0.04326
 N213 N 0.09819 0.42486 0.04795
 N214 N 0.04545 0.54300 0.07222
 N215 N 0.05156 0.57361 0.09803
 Mn216 Mn 0.00122 0.50001 0.07339
 C217 C 0.08497 0.59285 0.08254
 C218 C 0.08424 0.40640 0.08253
 N219 N -0.07354 0.54311 -0.04305
 N220 N -0.09881 0.57449 -0.04792
 N221 N -0.04567 0.45667 -0.07195
 N222 N -0.05055 0.42495 -0.09667
 N223 N -0.07333 0.45628 -0.04264
 N224 N -0.09748 0.42393 -0.04631
 N225 N -0.04569 0.54279 -0.07218
 N226 N -0.05144 0.57364 -0.09786
 Mn227 Mn -0.07333 0.49984 0.00137
 C228 C -0.08467 0.59320 -0.08233
 C229 C -0.08299 0.40481 -0.08031
 N230 N 0.07175 0.45643 -0.04515
 N231 N 0.09610 0.42436 -0.04963
 N232 N 0.04269 0.54304 -0.07319
 N233 N 0.04670 0.57515 -0.09767
 N234 N 0.07196 0.54258 -0.04543
 N235 N 0.09695 0.57400 -0.05054
 N236 N 0.04262 0.45622 -0.07305
 N237 N 0.04616 0.42373 -0.09706
 Mn238 Mn 0.07304 0.49963 -0.00108
 Mn239 Mn -0.00147 0.49971 -0.07311
 Cl240 Cl -0.00013 0.49983 0.00015
 C241 C 0.07981 0.40426 -0.08219
 C242 C 0.08083 0.59403 -0.08324
 N243 N 0.95517 0.07252 0.45688
 N244 N 0.94926 0.09817 0.42603
 N245 N 0.92795 0.04393 0.54373
 N246 N 0.90368 0.04830 0.57589
 N247 N 0.95601 0.07285 0.54311
 N248 N 0.95127 0.09800 0.57457
 N249 N 0.92698 0.04376 0.45703
 N250 N 0.90133 0.04881 0.42599
 C251 C 0.91560 0.08295 0.40699
 C252 C 0.91850 0.08225 0.59474
 N253 N 0.95664 -0.07263 0.54412
 N254 N 0.95296 -0.09661 0.57664
 N255 N 0.92722 -0.04440 0.45731
 N256 N 0.90255 -0.04878 0.42543
 N257 N 0.95542 -0.07320 0.45756
 N258 N 0.95046 -0.09825 0.42608
 N259 N 0.92784 -0.04441 0.54389
 N260 N 0.90357 -0.04864 0.57606
 Mn261 Mn 0.92698 -0.00028 0.50049
 C262 C 0.91957 -0.08137 0.59620
 C263 C 0.91733 -0.08263 0.40634
 N264 N 1.04462 0.07297 0.54220
 N265 N 1.05011 0.09870 0.57304
 N266 N 1.07239 0.04394 0.45610
 N267 N 1.09686 0.04820 0.42410
 N268 N 1.04353 0.07214 0.45570
 N269 N 1.04739 0.09611 0.42319
 N270 N 1.07287 0.04418 0.54258
 N271 N 1.09813 0.04934 0.57387
 Mn272 Mn 0.99986 0.07313 0.49946
 C273 C 1.08360 0.08356 0.59254
 C274 C 1.08093 0.08089 0.40386
 N275 N 1.04378 -0.07273 0.45637
 N276 N 1.04767 -0.09701 0.42411
 N277 N 1.07338 -0.04431 0.54277
 N278 N 1.09909 -0.04960 0.57371
 N279 N 1.04475 -0.07263 0.54314
 N280 N 1.04993 -0.09772 0.57458
 N281 N 1.07264 -0.04461 0.45651
 N282 N 1.09727 -0.04931 0.42467
 Mn283 Mn 1.00016 -0.07332 0.50029
 Mn284 Mn 1.07333 -0.00017 0.49952
 Cl285 Cl 1.00008 -0.00016 0.49995
 C286 C 1.08132 -0.08212 0.40475
 C287 C 1.08401 -0.08304 0.59331
 C288 C 1.09049 0.13910 0.30366
 C289 C 1.13133 0.13034 0.29150
 C290 C 1.15461 0.10414 0.31736
 C291 C 1.13797 0.08778 0.35335
 C292 C 1.09788 0.09752 0.36527
 C293 C 1.07427 0.12325 0.34014
 H294 H 1.07004 0.15714 0.28474
 H295 H 1.18650 0.09734 0.31142
 H296 H 1.15700 0.06826 0.37247
 H297 H 1.04291 0.13067 0.34836
 C298 C 0.89133 -0.15739 0.32155
 C299 C 0.86632 -0.13359 0.29499
 C300 C 0.85885 -0.09228 0.30643
 C301 C 0.87505 -0.07596 0.34269
 C302 C 0.89993 -0.09996 0.36829
 C303 C 0.90816 -0.14065 0.35729
 H304 H 0.89700 -0.18962 0.31623
 H305 H 0.84176 -0.07146 0.28701
 H306 H 0.86879 -0.04418 0.35025
 H307 H 0.92693 -0.15996 0.37688
 C308 C 0.89001 0.15786 0.67808
 C309 C 0.86713 0.13321 0.70530
 C310 C 0.86188 0.09137 0.69571
 C311 C 0.87832 0.07492 0.65962
 C312 C 0.90124 0.09964 0.63282
 C313 C 0.90729 0.14112 0.64254
 H314 H 0.89403 0.19035 0.68373
 H315 H 0.84537 0.07109 0.71621
 H316 H 0.87361 0.04268 0.65296
 H317 H 0.92462 0.16086 0.62214
 C318 C 1.15976 -0.10929 0.67748
 C319 C 1.13680 -0.13599 0.70302
 C320 C 1.09585 -0.14451 0.69108
 C321 C 1.07903 -0.12761 0.65539
 C322 C 1.10212 -0.10106 0.63076
 C323 C 1.14251 -0.09187 0.64219
 H324 H 1.19170 -0.10261 0.68336
 H325 H 1.07559 -0.16287 0.70984
 H326 H 1.04750 -0.13470 0.64754
 H327 H 1.16113 -0.07177 0.62334
 C328 C 0.30793 1.14294 1.09422
 C329 C 0.29518 1.13313 1.13465
 C330 C 0.32003 1.10545 1.15728
 C331 C 0.35566 1.08859 1.14033
 C332 C 0.36805 1.09921 1.10055
 C333 C 0.34391 1.12650 1.07767
 H334 H 0.28968 1.16216 1.07421
 H335 H 0.31344 1.09772 1.18888
 H336 H 0.37403 1.06785 1.15879
 H337 H 0.35247 1.13469 1.04657
 C338 C 0.30103 0.91114 0.86673
 C339 C 0.29162 0.86915 0.87122
 C340 C 0.31952 0.84393 0.89273
 C341 C 0.35562 0.86019 0.90921
 C342 C 0.36526 0.90174 0.90363
 C343 C 0.33771 0.92710 0.88229
 H344 H 0.28006 0.93184 0.85134
 H345 H 0.31408 0.81133 0.89609
 H346 H 0.37658 0.83998 0.92537
 H347 H 0.34430 0.95942 0.87806
 C348 C 0.69589 0.86044 1.09116
 C349 C 0.70739 0.86811 1.13247
 C350 C 0.68092 0.89332 1.15607
 C351 C 0.64514 0.90998 1.13922
 C352 C 0.63399 0.90141 1.09860
 C353 C 0.65959 0.87648 1.07473
 H354 H 0.71525 0.84323 1.07045
 H355 H 0.68629 0.89921 1.18828
 H356 H 0.62560 0.92883 1.15844
 H357 H 0.65194 0.86999 1.04299
 C358 C 0.67478 1.16040 0.88806
 C359 C 0.70055 1.13755 0.86148
 C360 C 0.68878 1.09658 0.85274
 C361 C 0.65325 1.07954 0.86968
 C362 C 0.62864 1.10243 0.89646
 C363 C 0.63972 1.14293 0.90552
 H364 H 0.68036 1.19238 0.89473
 H365 H 0.70758 1.07645 0.83428
 H366 H 0.64560 1.04796 0.86259
 H367 H 0.62084 1.16147 0.92567
 C368 C 0.14063 0.30550 0.09295
 C369 C 0.13650 0.29710 0.13524
 C370 C 0.11501 0.32543 0.15986
 C371 C 0.09767 0.36072 0.14259
 C372 C 0.10237 0.36906 0.10059
 C373 C 0.12422 0.34136 0.07595
 H374 H 0.15600 0.28411 0.07268
 H375 H 0.11191 0.32073 0.19262
 H376 H 0.08118 0.38188 0.16225
 H377 H 0.12784 0.34699 0.04334
 C378 C -0.13741 0.30254 -0.08850
 C379 C -0.13250 0.29315 -0.13048
 C380 C -0.11084 0.32105 -0.15545
 C381 C -0.09431 0.35697 -0.13891
 C382 C -0.09997 0.36647 -0.09730
 C383 C -0.12175 0.33907 -0.07222
 H384 H -0.15306 0.28159 -0.06801
 H385 H -0.10724 0.31570 -0.18805
 H386 H -0.07784 0.37781 -0.15893
 H387 H -0.12609 0.34558 -0.03987
 C388 C 0.08988 0.69565 -0.13877
 C389 C 0.13169 0.70517 -0.13310
 C390 C 0.15634 0.67751 -0.11074
 C391 C 0.13962 0.64167 -0.09419
 C392 C 0.09814 0.63209 -0.10049
 C393 C 0.07343 0.65924 -0.12306
 H394 H 0.06963 0.71647 -0.15497
 H395 H 0.18881 0.68308 -0.10649
 H396 H 0.15936 0.62100 -0.07711
 H397 H 0.04119 0.65268 -0.12792
 C398 C -0.15736 0.67656 0.11307
 C399 C -0.13224 0.70539 0.13327
 C400 C -0.08991 0.69702 0.13666
 C401 C -0.07340 0.66064 0.12095
 C402 C -0.09860 0.63240 0.10050
 C403 C -0.14060 0.64079 0.09636
 H404 H -0.19017 0.68116 0.11064
 H405 H -0.06929 0.71873 0.15103
 H406 H -0.04077 0.65496 0.12407
 H407 H -0.16067 0.61923 0.08094
 C408 C 1.14503 0.09585 0.69033
 C409 C 1.13599 0.13672 0.70223
 C410 C 1.10928 0.15953 0.67650
 C411 C 1.09218 0.14216 0.64117
 C412 C 1.10169 0.10180 0.62985
 C413 C 1.12842 0.07891 0.65457
 H414 H 1.16353 0.07573 0.70917
 H415 H 1.10232 0.19143 0.68228
 H416 H 1.07198 0.16068 0.62225
 H417 H 1.13581 0.04742 0.64677
 C418 C 0.91028 -0.14033 0.69608
 C419 C 0.86980 -0.13087 0.70889
 C420 C 0.84669 -0.10400 0.68356
 C421 C 0.86314 -0.08763 0.64749
 C422 C 0.90287 -0.09801 0.63493
 C423 C 0.92632 -0.12442 0.65953
 H424 H 0.93060 -0.15899 0.71454
 H425 H 0.81501 -0.09666 0.68998
 H426 H 0.84422 -0.06758 0.62881
 H427 H 0.95742 -0.13237 0.65081
 C428 C 1.08962 -0.13685 0.30252
 C429 C 1.13158 -0.13204 0.29315
 C430 C 1.15650 -0.11032 0.32108
 C431 C 1.13994 -0.09360 0.35695
 C432 C 1.09836 -0.09917 0.36641
 C433 C 1.07334 -0.12104 0.33902
 H434 H 1.06915 -0.15251 0.28157
 H435 H 1.18908 -0.10679 0.31578
 H436 H 1.15992 -0.07710 0.37780
 H437 H 1.04102 -0.12533 0.34550
 C438 C 0.88858 0.15919 0.32369
 C439 C 0.86228 0.13624 0.29775
 C440 C 0.85368 0.09522 0.30946
 C441 C 0.87052 0.07819 0.34513
 C442 C 0.89702 0.10120 0.36991
 C443 C 0.90593 0.14176 0.35888
 H444 H 0.89508 0.19123 0.31816
 H445 H 0.83542 0.07505 0.29050
 H446 H 0.86358 0.04657 0.35275
 H447 H 0.92588 0.16037 0.37790
 C448 C 0.15256 0.31676 -0.10475
 C449 C 0.12937 0.29150 -0.13151
 C450 C 0.08889 0.30440 -0.14095
 C451 C 0.07292 0.34101 -0.12514
 C452 C 0.09646 0.36555 -0.09886
 C453 C 0.13620 0.35290 -0.08850
 H454 H 0.18424 0.31022 -0.09742
 H455 H 0.06851 0.28597 -0.15952
 H456 H 0.04181 0.34979 -0.13305
 H457 H 0.15517 0.37153 -0.06852
 C458 C -0.15489 0.32062 0.10993
 C459 C -0.12980 0.29253 0.13127
 C460 C -0.08788 0.30198 0.13628
 C461 C -0.07180 0.33877 0.12105
 C462 C -0.09701 0.36636 0.09959
 C463 C -0.13855 0.35680 0.09381
 H464 H -0.18745 0.31520 0.10629
 H465 H -0.06732 0.28088 0.15170
 H466 H -0.03950 0.34534 0.12544
 H467 H -0.15865 0.37779 0.07758
 C468 C -0.11029 0.67734 -0.15836
 C469 C -0.13709 0.70301 -0.13570
 C470 C -0.14630 0.69097 -0.09486
 C471 C -0.12973 0.65518 -0.07782
 C472 C -0.10289 0.63054 -0.10059
 C473 C -0.09325 0.64198 -0.14092
 H474 H -0.10318 0.68318 -0.19024
 H475 H -0.16493 0.70973 -0.07483
 H476 H -0.13724 0.64729 -0.04636
 H477 H -0.07296 0.62316 -0.15937
 C478 C 0.11209 0.67569 0.15925
 C479 C 0.13876 0.70146 0.13655
 C480 C 0.14749 0.68982 0.09550
 C481 C 0.13050 0.65439 0.07825
 C482 C 0.10370 0.62974 0.10103
 C483 C 0.09460 0.64073 0.14160
 H484 H 0.10537 0.68118 0.19127
 H485 H 0.16602 0.70867 0.07547
 H486 H 0.13761 0.64683 0.04663
 H487 H 0.07439 0.62185 0.16006
 C488 C 0.30292 1.09126 0.86235
 C489 C 0.29340 1.13314 0.86757
 C490 C 0.32080 1.15784 0.89016
 C491 C 0.35646 1.14109 0.90721
 C492 C 0.36609 1.09958 0.90117
 C493 C 0.33913 1.07481 0.87854
 H494 H 0.28227 1.07096 0.84608
 H495 H 0.31520 1.19035 0.89413
 H496 H 0.37699 1.16085 0.92435
 H497 H 0.34575 1.04254 0.87388
 C498 C 0.32324 0.88949 1.15810
 C499 C 0.29593 0.86686 1.13333
 C500 C 0.30556 0.86159 1.09146
 C501 C 0.34176 0.87779 1.07510
 C502 C 0.36862 0.90049 1.09993
 C503 C 0.35889 0.90655 1.14144
 H504 H 0.31757 0.89350 1.19061
 H505 H 0.28500 0.84528 1.07108
 H506 H 0.34842 0.87311 1.04282
 H507 H 0.37933 0.92373 1.16126
 C508 C 0.67891 1.15756 1.10839
 C509 C 0.70623 1.13268 1.13098
 C510 C 0.69661 1.09084 1.13616
 C511 C 0.66033 1.07462 1.12003
 C512 C 0.63338 1.09957 1.09748
 C513 C 0.64315 1.14103 1.09139
 H514 H 0.68461 1.19004 1.10443
 H515 H 0.71721 1.07042 1.15242
 H516 H 0.65362 1.04238 1.12471
 H517 H 0.62264 1.16093 1.07432
 C518 C 0.67792 0.89075 0.84162
 C519 C 0.70529 0.86826 0.86653
 C520 C 0.69570 0.86320 0.90843
 C521 C 0.65946 0.87942 0.92468
 C522 C 0.63248 0.90192 0.89969
 C523 C 0.64219 0.90783 0.85816
 H524 H 0.68358 0.89462 0.80908
 H525 H 0.71633 0.84702 0.92891
 H526 H 0.65281 0.87485 0.95697
 H527 H 0.62166 0.92486 0.83823
   
