data_POSCAR
  _audit_creation_date              2014-09-24
  _audit_creation_method            'ToBaCCo'
  _symmetry_space_group_name_H-M    'P1'
  _symmetry_Int_Tables_number       1
  _symmetry_cell_setting            triclinic
  loop_
  _symmetry_equiv_pos_as_xyz
 x,y,z
_cell_length_a 26.8888
_cell_length_b 26.0505
_cell_length_c 32.1640
_cell_angle_alpha 91.161000
_cell_angle_beta 90.352100
_cell_angle_gamma 89.933200
loop_
  _atom_site_label
  _atom_site_type_symbol
  _atom_site_fract_x
  _atom_site_fract_y
  _atom_site_fract_z
Zr1 Zr 0.22416 0.22125 0.31643
 O2 O 0.24647 0.24584 0.37689
 O3 O 0.17097 0.16460 0.32985
 O4 O 0.16652 0.25936 0.34924
 O5 O 0.32834 0.14422 0.30352
 O6 O 0.13494 0.31591 0.30247
 O7 O 0.26504 0.16456 0.34804
 O8 O 0.14479 0.13635 0.26577
 O9 O 0.16966 0.23230 0.27067
 O10 O 0.23855 0.16654 0.26950
 O11 O 0.23273 0.29777 0.29762
 O12 O 0.29804 0.23457 0.29723
 Zr13 Zr 0.26612 0.26784 0.18216
 Zr14 Zr 0.18047 0.30730 0.24970
 Zr15 Zr 0.31004 0.18167 0.24801
 Zr16 Zr 0.18613 0.17934 0.22310
 O17 O 0.38714 0.18762 0.26097
 O18 O 0.10976 0.19177 0.20981
 O19 O 0.25815 0.19063 0.19968
 O20 O 0.19278 0.25414 0.20117
 O21 O 0.25222 0.32353 0.22833
 O22 O 0.32000 0.25635 0.22804
 C23 C 0.14411 0.13569 0.30575
 C24 C 0.30568 0.14095 0.33851
 C25 C 0.13594 0.29481 0.33829
 O26 O 0.10527 0.30137 0.23046
 O27 O 0.16818 0.35292 0.19688
 O28 O 0.22913 0.32748 0.15185
 C29 C 0.19121 0.35500 0.16191
 O30 O 0.31899 0.32256 0.33935
 Zr31 Zr 0.30452 0.30965 0.27493
 O32 O 0.31880 0.32380 0.16727
 O33 O 0.18135 0.38510 0.26986
 O34 O 0.28792 0.38791 0.28785
 O35 O 0.38131 0.30045 0.28831
 O36 O 0.34457 0.35286 0.23122
 C37 C 0.34587 0.35251 0.19114
 O38 O 0.24149 0.24311 0.12239
 O39 O 0.30752 0.10203 0.23387
 O40 O 0.32357 0.23160 0.14932
 O41 O 0.34919 0.16740 0.19184
 O42 O 0.19991 0.10050 0.20995
 O43 O 0.17570 0.16324 0.15858
 C44 C 0.35062 0.19248 0.15766
 H45 H 0.23649 0.13084 0.27931
 H46 H 0.16892 0.25886 0.17800
 H47 H 0.35453 0.26051 0.21821
 H48 H 0.22685 0.32235 0.32094
 H49 H 0.09376 0.15766 0.20653
 H50 H 0.08971 0.33529 0.23611
 H51 H 0.14764 0.39897 0.26447
 H52 H 0.31999 0.40650 0.29010
 H53 H 0.16727 0.08326 0.20646
 H54 H 0.34160 0.08866 0.23833
 H55 H 0.40176 0.15322 0.25549
 H56 H 0.39601 0.33522 0.29119
 H57 H 0.14776 0.13886 0.15465
 H58 H 0.25986 0.26342 0.10173
 H59 H 0.22772 0.22511 0.39706
 H60 H 0.33997 0.35354 0.34312
 Zr61 Zr 0.75180 0.72894 0.31715
 O62 O 0.71136 0.67553 0.35234
 O63 O 0.79789 0.76302 0.36247
 O64 O 0.79918 0.67127 0.34016
 O65 O 0.66570 0.82821 0.32182
 O66 O 0.83743 0.63931 0.28192
 O67 O 0.70428 0.76671 0.36005
 O68 O 0.84758 0.81413 0.32358
 O69 O 0.81802 0.73470 0.28349
 O70 O 0.75650 0.80495 0.29769
 O71 O 0.74564 0.67466 0.26805
 O72 O 0.68610 0.74221 0.28278
 Zr73 Zr 0.75215 0.77234 0.17740
 Zr74 Zr 0.81020 0.68359 0.23282
 Zr75 Zr 0.69380 0.81749 0.26148
 Zr76 Zr 0.82066 0.80972 0.26238
 O77 O 0.61510 0.81693 0.25977
 O78 O 0.89741 0.79113 0.26002
 O79 O 0.75818 0.82760 0.22587
 O80 O 0.81729 0.75869 0.21166
 O81 O 0.74748 0.69570 0.19546
 O82 O 0.68656 0.76607 0.21159
 C83 C 0.83285 0.79592 0.35823
 C84 C 0.67404 0.80475 0.35593
 C85 C 0.82961 0.64057 0.32136
 O86 O 0.88887 0.68460 0.23151
 O87 O 0.83473 0.67030 0.17147
 O88 O 0.79412 0.73038 0.13315
 C89 C 0.82430 0.69230 0.13701
 O90 O 0.64735 0.64728 0.27722
 Zr91 Zr 0.68341 0.69108 0.23124
 O92 O 0.70486 0.74266 0.13172
 O93 O 0.79848 0.60508 0.21775
 O94 O 0.69105 0.61295 0.21265
 O95 O 0.60570 0.70509 0.23106
 O96 O 0.65877 0.68607 0.16866
 C97 C 0.67086 0.70877 0.13485
 O98 O 0.79580 0.82357 0.14280
 O99 O 0.70566 0.89509 0.27965
 O100 O 0.70690 0.83172 0.15514
 O101 O 0.67088 0.86586 0.21366
 O102 O 0.81786 0.88785 0.28213
 O103 O 0.85247 0.85761 0.21690
 C104 C 0.67790 0.86354 0.17423
 H105 H 0.75726 0.83065 0.32076
 H106 H 0.84733 0.76279 0.19440
 H107 H 0.65590 0.77377 0.19573
 H108 H 0.74292 0.63939 0.27872
 H109 H 0.91569 0.81894 0.27499
 H110 H 0.89985 0.64907 0.22482
 H111 H 0.83176 0.58951 0.21355
 H112 H 0.65888 0.60203 0.20016
 H113 H 0.85153 0.89754 0.29224
 H114 H 0.67240 0.91077 0.28377
 H115 H 0.60401 0.85246 0.26632
 H116 H 0.58965 0.67604 0.21579
 H117 H 0.88286 0.87411 0.22841
 H118 H 0.78364 0.82123 0.11365
 H119 H 0.72324 0.67900 0.38152
 H120 H 0.62504 0.62178 0.26353
 Zr121 Zr 0.75529 0.27446 -0.31496
 O122 O 0.72056 0.32684 -0.35542
 O123 O 0.80689 0.23834 -0.35482
 O124 O 0.80534 0.33208 -0.33379
 O125 O 0.66813 0.17686 -0.32492
 O126 O 0.83864 0.36330 -0.27288
 O127 O 0.71146 0.23625 -0.36122
 O128 O 0.85204 0.18774 -0.31132
 O129 O 0.81717 0.26956 -0.27528
 O130 O 0.75754 0.19912 -0.29390
 O131 O 0.74338 0.32976 -0.26728
 O132 O 0.68597 0.26250 -0.28607
 Zr133 Zr 0.73907 0.23537 -0.17397
 Zr134 Zr 0.80353 0.32173 -0.22623
 Zr135 Zr 0.69113 0.18799 -0.26285
 Zr136 Zr 0.81742 0.19518 -0.25286
 O137 O 0.61247 0.18843 -0.26516
 O138 O 0.89342 0.21438 -0.24397
 O139 O 0.75112 0.17950 -0.22141
 O140 O 0.80780 0.24732 -0.20319
 O141 O 0.73687 0.31119 -0.19426
 O142 O 0.67767 0.24009 -0.21398
 C143 C 0.84162 0.20568 -0.34733
 C144 C 0.67998 0.19901 -0.35878
 C145 C 0.83499 0.36175 -0.31272
 O146 O 0.88146 0.32057 -0.21642
 O147 O 0.82062 0.33738 -0.16340
 O148 O 0.77729 0.27818 -0.12686
 C149 C 0.80768 0.31634 -0.12928
 O150 O 0.64614 0.35573 -0.28611
 Zr151 Zr 0.67708 0.31470 -0.23567
 O152 O 0.68568 0.26834 -0.13421
 O153 O 0.79012 0.40083 -0.21497
 O154 O 0.68240 0.39408 -0.22036
 O155 O 0.59996 0.29865 -0.24102
 O156 O 0.64622 0.32591 -0.17562
 C157 C 0.65388 0.30431 -0.14040
 O158 O 0.77749 0.18701 -0.13250
 O159 O 0.70375 0.11059 -0.28145
 O160 O 0.69503 0.17222 -0.15660
 O161 O 0.66810 0.13640 -0.21812
 O162 O 0.81490 0.11636 -0.27061
 O163 O 0.84436 0.14885 -0.20393
 C164 C 0.67204 0.13746 -0.17845
 H165 H 0.76060 0.17300 -0.31651
 H166 H 0.83576 0.24379 -0.18329
 H167 H 0.64592 0.23207 -0.20011
 H168 H 0.74222 0.36471 -0.27880
 H169 H 0.91350 0.18608 -0.25630
 H170 H 0.89183 0.35630 -0.20967
 H171 H 0.82259 0.41651 -0.20744
 H172 H 0.64881 0.40604 -0.21210
 H173 H 0.84913 0.10564 -0.27808
 H174 H 0.67090 0.09507 -0.28806
 H175 H 0.60199 0.15291 -0.27248
 H176 H 0.58183 0.32823 -0.22850
 H177 H 0.87534 0.13138 -0.21289
 H178 H 0.76064 0.19023 -0.10521
 H179 H 0.73619 0.32206 -0.38310
 H180 H 0.62030 0.37969 -0.27557
 Zr181 Zr 0.26374 0.75566 -0.32458
 O182 O 0.31541 0.72251 -0.36670
 O183 O 0.22169 0.80282 -0.36325
 O184 O 0.22579 0.70880 -0.36831
 O185 O 0.34400 0.85325 -0.29428
 O186 O 0.17476 0.65982 -0.32909
 O187 O 0.30727 0.81239 -0.34984
 O188 O 0.16511 0.83926 -0.31913
 O189 O 0.19276 0.74643 -0.30039
 O190 O 0.25179 0.81958 -0.28558
 O191 O 0.26741 0.68518 -0.29452
 O192 O 0.32386 0.75624 -0.28193
 Zr193 Zr 0.24003 0.74038 -0.18325
 Zr194 Zr 0.19740 0.67814 -0.26750
 Zr195 Zr 0.30885 0.81888 -0.24162
 Zr196 Zr 0.18233 0.80882 -0.25981
 O197 O 0.38670 0.81884 -0.23192
 O198 O 0.10759 0.78804 -0.27289
 O199 O 0.23831 0.81175 -0.21356
 O200 O 0.18167 0.74011 -0.22701
 O201 O 0.25314 0.67610 -0.22160
 O202 O 0.31092 0.75043 -0.20874
 C203 C 0.18537 0.83353 -0.35530
 C204 C 0.33591 0.84688 -0.33396
 C205 C 0.19136 0.67508 -0.36421
 O206 O 0.11874 0.67477 -0.26839
 O207 O 0.17470 0.63443 -0.21734
 O208 O 0.19168 0.68316 -0.15941
 C209 C 0.17213 0.64346 -0.17799
 O210 O 0.36766 0.66543 -0.29938
 Zr211 Zr 0.32270 0.68758 -0.24794
 O212 O 0.28349 0.69425 -0.14485
 O213 O 0.21116 0.59969 -0.28176
 O214 O 0.31662 0.60662 -0.25367
 O215 O 0.39866 0.70376 -0.23535
 O216 O 0.34078 0.65764 -0.18837
 C217 C 0.32131 0.66529 -0.15212
 O218 O 0.18891 0.77240 -0.14014
 O219 O 0.29551 0.89880 -0.23686
 O220 O 0.27540 0.79043 -0.14030
 O221 O 0.32215 0.84470 -0.17925
 O222 O 0.18168 0.89009 -0.25442
 O223 O 0.14137 0.83380 -0.20684
 C224 C 0.30642 0.82769 -0.14416
 H225 H 0.25188 0.85298 -0.29967
 H226 H 0.14918 0.73583 -0.21320
 H227 H 0.33802 0.75199 -0.18782
 H228 H 0.27398 0.65679 -0.31468
 H229 H 0.08981 0.81977 -0.28076
 H230 H 0.10963 0.63868 -0.27501
 H231 H 0.17840 0.58236 -0.28362
 H232 H 0.34777 0.59180 -0.24248
 H233 H 0.14871 0.90201 -0.26429
 H234 H 0.32847 0.91537 -0.23346
 H235 H 0.39653 0.85516 -0.22732
 H236 H 0.41516 0.67090 -0.22856
 H237 H 0.11047 0.85100 -0.21606
 H238 H 0.19713 0.75814 -0.11255
 H239 H 0.30697 0.73522 -0.39475
 H240 H 0.38936 0.63647 -0.29139
 Zr241 Zr 1.25208 1.22981 0.81699
 O242 O 1.21189 1.17637 0.85236
 O243 O 1.29804 1.26428 0.86207
 O244 O 1.30020 1.17301 0.84050
 O245 O 1.16586 1.32892 0.82122
 O246 O 1.33880 1.14107 0.78244
 O247 O 1.20461 1.26781 0.85977
 O248 O 1.34764 1.31512 0.82284
 O249 O 1.31816 1.23561 0.78321
 O250 O 1.25647 1.30568 0.79709
 O251 O 1.24604 1.17502 0.76829
 O252 O 1.18626 1.24264 0.78267
 Zr253 Zr 1.25196 1.27208 0.67711
 Zr254 Zr 1.31047 1.18399 0.73292
 Zr255 Zr 1.19366 1.31776 0.76088
 Zr256 Zr 1.32055 1.31042 0.76169
 O257 O 1.11496 1.31696 0.75941
 O258 O 1.39735 1.29212 0.75919
 O259 O 1.25793 1.32783 0.72518
 O260 O 1.31725 1.25892 0.71128
 O261 O 1.24761 1.19559 0.69563
 O262 O 1.18646 1.26583 0.71139
 C263 C 1.33301 1.29709 0.85759
 C264 C 1.17437 1.30581 0.85546
 C265 C 1.33125 1.14277 0.82192
 O266 O 1.38911 1.18530 0.73079
 O267 O 1.33419 1.16997 0.67147
 O268 O 1.29350 1.22977 0.63292
 C269 C 1.32349 1.19161 0.63691
 O270 O 1.14782 1.14757 0.77782
 Zr271 Zr 1.18365 1.19099 0.73148
 O272 O 1.20463 1.24206 0.63168
 O273 O 1.29906 1.10517 0.71894
 O274 O 1.19155 1.11276 0.71330
 O275 O 1.10586 1.20456 0.73126
 O276 O 1.15898 1.18539 0.66892
 C277 C 1.17087 1.20797 0.63500
 O278 O 1.29558 1.32307 0.64225
 O279 O 1.20531 1.39556 0.77852
 O280 O 1.20656 1.33102 0.65441
 O281 O 1.17036 1.36553 0.71270
 O282 O 1.31762 1.38862 0.78121
 O283 O 1.35205 1.35811 0.71593
 C284 C 1.17743 1.36290 0.67326
 H285 H 1.25726 1.33156 0.82003
 H286 H 1.34719 1.26292 0.69389
 H287 H 1.15574 1.27329 0.69553
 H288 H 1.24359 1.13986 0.77923
 H289 H 1.41558 1.32006 0.77406
 H290 H 1.40014 1.14972 0.72437
 H291 H 1.33239 1.08976 0.71464
 H292 H 1.15939 1.10161 0.70093
 H293 H 1.35129 1.39843 0.79124
 H294 H 1.17201 1.41117 0.78256
 H295 H 1.10380 1.35252 0.76577
 H296 H 1.08997 1.17527 0.71620
 H297 H 1.38237 1.37488 0.72734
 H298 H 1.28342 1.32052 0.61311
 H299 H 1.22376 1.18009 0.88153
 H300 H 1.12574 1.12170 0.76433
 Zr301 Zr 0.72460 0.72214 0.81625
 O302 O 0.74723 0.74593 0.87684
 O303 O 0.67081 0.66606 0.82955
 O304 O 0.66776 0.76097 0.84947
 O305 O 0.82802 0.64434 0.80281
 O306 O 0.63706 0.81857 0.80317
 O307 O 0.76513 0.66518 0.84761
 O308 O 0.64396 0.63869 0.76543
 O309 O 0.67010 0.73442 0.77075
 O310 O 0.73801 0.66747 0.76904
 O311 O 0.73437 0.79863 0.79790
 O312 O 0.79860 0.73417 0.79685
 Zr313 Zr 0.76688 0.76892 0.68225
 Zr314 Zr 0.68214 0.80940 0.75018
 Zr315 Zr 0.80963 0.68149 0.74728
 Zr316 Zr 0.68559 0.68151 0.72289
 O317 O 0.88701 0.68568 0.75950
 O318 O 0.60934 0.69531 0.71004
 O319 O 0.75767 0.69170 0.69923
 O320 O 0.69340 0.75639 0.70137
 O321 O 0.75408 0.82448 0.72875
 O322 O 0.82074 0.75615 0.72785
 C323 C 0.64352 0.63766 0.80539
 C324 C 0.80567 0.64154 0.83796
 C325 C 0.63782 0.79714 0.83886
 O326 O 0.60676 0.80497 0.73118
 O327 O 0.67055 0.85550 0.69756
 O328 O 0.73108 0.82948 0.65235
 C329 C 0.69357 0.85745 0.66259
 O330 O 0.82105 0.82110 0.83963
 Zr331 Zr 0.80627 0.80927 0.77514
 O332 O 0.82051 0.82400 0.66777
 O333 O 0.68437 0.88708 0.77059
 O334 O 0.79111 0.88774 0.78853
 O335 O 0.88290 0.79856 0.78836
 O336 O 0.84699 0.85208 0.73180
 C337 C 0.84816 0.85194 0.69176
 O338 O 0.74153 0.74529 0.62239
 O339 O 0.80555 0.60190 0.73322
 O340 O 0.82345 0.73201 0.64885
 O341 O 0.84811 0.66683 0.69074
 O342 O 0.69816 0.60259 0.70917
 O343 O 0.67443 0.66625 0.65833
 C344 C 0.84978 0.69223 0.65670
 H345 H 0.73551 0.63176 0.77877
 H346 H 0.66954 0.76170 0.67829
 H347 H 0.85530 0.75970 0.71791
 H348 H 0.72899 0.82313 0.82137
 H349 H 0.59279 0.66150 0.70666
 H350 H 0.59184 0.83916 0.73697
 H351 H 0.65088 0.90157 0.76534
 H352 H 0.82351 0.90566 0.79102
 H353 H 0.66526 0.58589 0.70568
 H354 H 0.83942 0.58790 0.73751
 H355 H 0.90084 0.65094 0.75396
 H356 H 0.89817 0.83303 0.79161
 H357 H 0.64616 0.64228 0.65440
 H358 H 0.76021 0.76539 0.60178
 H359 H 0.72826 0.72529 0.89694
 H360 H 0.84237 0.85179 0.84364
 Zr361 Zr 1.25541 0.77523 0.18574
 O362 O 1.21963 0.82754 0.14584
 O363 O 1.30702 0.73987 0.14560
 O364 O 1.30480 0.83317 0.16650
 O365 O 1.16936 0.67652 0.17548
 O366 O 1.33827 0.86459 0.22731
 O367 O 1.21218 0.73650 0.13939
 O368 O 1.35269 0.68932 0.18875
 O369 O 1.31753 0.77073 0.22525
 O370 O 1.25837 0.69980 0.20657
 O371 O 1.24337 0.83027 0.23359
 O372 O 1.18628 0.76246 0.21464
 Zr373 Zr 1.23984 0.73513 0.32648
 Zr374 Zr 1.30376 0.82262 0.27450
 Zr375 Zr 1.19210 0.68785 0.23760
 Zr376 Zr 1.31842 0.69622 0.24742
 O377 O 1.11345 0.68774 0.23507
 O378 O 1.39425 0.71620 0.25613
 O379 O 1.25228 0.67960 0.27888
 O380 O 1.30847 0.74803 0.29725
 O381 O 1.23716 0.81111 0.30646
 O382 O 1.17837 0.73967 0.28657
 C383 C 1.34189 0.70734 0.15284
 C384 C 1.18115 0.69885 0.14168
 C385 C 1.33435 0.86312 0.18736
 O386 O 1.38169 0.82219 0.28421
 O387 O 1.32067 0.83772 0.33772
 O388 O 1.27757 0.77786 0.37382
 C389 C 1.30769 0.81626 0.37175
 O390 O 1.14603 0.85553 0.21490
 Zr391 Zr 1.17724 0.81440 0.26517
 O392 O 1.18639 0.76749 0.36643
 O393 O 1.28989 0.90155 0.28610
 O394 O 1.18207 0.89367 0.28101
 O395 O 1.10019 0.79807 0.25973
 O396 O 1.14620 0.82473 0.32520
 C397 C 1.15415 0.80305 0.36034
 O398 O 1.27891 0.68658 0.36738
 O399 O 1.20544 0.61055 0.21906
 O400 O 1.19579 0.67185 0.34394
 O401 O 1.16905 0.63616 0.28232
 O402 O 1.31680 0.61744 0.22947
 O403 O 1.34597 0.64994 0.29615
 C404 C 1.17278 0.63713 0.32203
 H405 H 1.26163 0.67377 0.18391
 H406 H 1.33648 0.74459 0.31712
 H407 H 1.14666 0.73137 0.30040
 H408 H 1.24189 0.86526 0.22217
 H409 H 1.41454 0.68823 0.24356
 H410 H 1.39167 0.85804 0.29094
 H411 H 1.32233 0.91737 0.29351
 H412 H 1.14840 0.90533 0.28932
 H413 H 1.35116 0.60717 0.22197
 H414 H 1.17274 0.59474 0.21242
 H415 H 1.10322 0.65217 0.22768
 H416 H 1.08192 0.82754 0.27227
 H417 H 1.37723 0.63306 0.28717
 H418 H 1.26222 0.68934 0.39477
 H419 H 1.23487 0.82307 0.11798
 H420 H 1.12033 0.87956 0.22557
 Zr421 Zr 0.76846 1.26020 0.17899
 O422 O 0.82103 1.22948 0.13658
 O423 O 0.72735 1.30844 0.14063
 O424 O 0.73162 1.21369 0.13321
 O425 O 0.83884 1.36130 0.21922
 O426 O 0.68166 1.16077 0.17027
 O427 O 0.81766 1.31821 0.15901
 O428 O 0.66575 1.33874 0.18317
 O429 O 0.69661 1.24684 0.20092
 O430 O 0.75116 1.32142 0.21962
 O431 O 0.77205 1.18846 0.20776
 O432 O 0.82505 1.26112 0.22495
 Zr433 Zr 0.73770 1.23760 0.31981
 Zr434 Zr 0.70103 1.17748 0.23264
 Zr435 Zr 0.80449 1.32058 0.26678
 Zr436 Zr 0.68087 1.30683 0.24243
 O437 O 0.88198 1.32420 0.27831
 O438 O 0.60805 1.28292 0.22556
 O439 O 0.73333 1.30994 0.29162
 O440 O 0.68149 1.23711 0.27399
 O441 O 0.75465 1.17542 0.28016
 O442 O 0.80902 1.25103 0.29711
 C443 C 0.68858 1.33590 0.14794
 C444 C 0.83942 1.35506 0.17949
 C445 C 0.69799 1.17840 0.13588
 O446 O 0.62272 1.17154 0.22726
 O447 O 0.67349 1.13285 0.28124
 O448 O 0.69306 1.17719 0.34105
 C449 C 0.67280 1.13936 0.32101
 O450 O 0.87264 1.17296 0.20557
 Zr451 Zr 0.82482 1.19066 0.25624
 O452 O 0.78175 1.19187 0.35820
 O453 O 0.71925 1.09999 0.21868
 O454 O 0.82197 1.10976 0.24815
 O455 O 0.89964 1.20900 0.27154
 O456 O 0.84163 1.15887 0.31526
 C457 C 0.82079 1.16457 0.35113
 O458 O 0.68257 1.26549 0.36125
 O459 O 0.78615 1.39918 0.27470
 O460 O 0.76934 1.28616 0.36588
 O461 O 0.81450 1.34412 0.32955
 O462 O 0.67818 1.38781 0.25032
 O463 O 0.63419 1.32810 0.29302
 C464 C 0.79888 1.32485 0.36365
 H465 H 0.75096 1.35540 0.20647
 H466 H 0.64854 1.23101 0.28652
 H467 H 0.83527 1.25299 0.31876
 H468 H 0.78037 1.16100 0.18721
 H469 H 0.58940 1.31391 0.21720
 H470 H 0.61510 1.13522 0.22004
 H471 H 0.68739 1.08142 0.21467
 H472 H 0.85331 1.09570 0.25966
 H473 H 0.64624 1.39971 0.23833
 H474 H 0.81771 1.41774 0.28038
 H475 H 0.88972 1.36045 0.28571
 H476 H 0.91705 1.17641 0.27762
 H477 H 0.60459 1.34640 0.28234
 H478 H 0.69003 1.25113 0.38894
 H479 H 0.81343 1.24452 0.10917
 H480 H 0.89471 1.14410 0.21310
 O481 O 0.46154 1.10792 0.01510
 O482 O 0.55349 0.90582 0.04072
 O483 O 0.40589 0.96222 0.04705
 O484 O 0.60760 1.04882 0.00536
 O485 O 0.47540 0.93382 0.06889
 O486 O 0.54857 1.09252 0.03183
 O487 O 0.59100 0.97701 0.04465
 O488 O 0.42755 1.05070 0.05166
 C489 C 0.44037 1.09577 0.04784
 C490 C 0.57989 0.93677 0.06097
 C491 C 0.43170 0.94513 0.07619
 C492 C 0.59372 1.08300 0.03051
 O493 O 0.56377 1.07469 -0.05153
 O494 O 0.42955 0.90389 -0.00387
 O495 O 0.40996 1.06058 -0.03136
 O496 O 0.58282 0.91747 -0.02672
 O497 O 0.50787 0.89502 -0.03551
 O498 O 0.47772 1.07226 -0.06343
 O499 O 0.57730 0.99556 -0.06482
 O500 O 0.40553 0.96799 -0.03854
 Co501 Co 0.51175 1.07833 -0.01518
 Co502 Co 0.49274 0.91789 0.01595
 Co503 Co 0.42088 1.00909 0.00629
 Co504 Co 0.58086 0.98568 -0.00950
 O505 O 0.50147 0.99776 -0.00059
 C506 C 0.57882 1.04046 -0.07603
 C507 C 0.40525 0.92109 -0.03381
 C508 C 0.43205 1.06905 -0.06452
 C509 C 0.55124 0.89221 -0.04705
 O510 O 0.95694 0.60560 0.51259
 O511 O 1.05371 0.40380 0.53908
 O512 O 0.90616 0.46061 0.54873
 O513 O 1.10343 0.54780 0.50383
 O514 O 0.97621 0.43156 0.56925
 O515 O 1.04385 0.59135 0.52984
 O516 O 1.08988 0.47557 0.54257
 O517 O 0.92646 0.54898 0.55128
 C518 C 0.93764 0.59418 0.54624
 C519 C 1.07994 0.43512 0.55902
 C520 C 0.93282 0.44346 0.57729
 C521 C 1.08888 0.58142 0.52915
 O522 O 1.06007 0.57367 0.44684
 O523 O 0.92808 0.40024 0.49860
 O524 O 0.90651 0.55568 0.46768
 O525 O 1.08040 0.41646 0.47095
 O526 O 1.00562 0.39171 0.46438
 O527 O 0.97386 0.56791 0.43494
 O528 O 1.07352 0.49476 0.43328
 O529 O 0.90284 0.46344 0.46338
 Co530 Co 1.00770 0.57593 0.48298
 Co531 Co 0.99192 0.41527 0.51605
 Co532 Co 0.91898 0.50611 0.50675
 Co533 Co 1.07824 0.48447 0.48857
 O534 O 0.99912 0.49539 0.49857
 C535 C 1.07570 0.53976 0.42237
 C536 C 0.90201 0.41688 0.46958
 C537 C 0.92824 0.56391 0.43426
 C538 C 1.04867 0.39007 0.45172
 O539 O 1.04585 0.47368 0.08533
 O540 O 1.02827 0.52720 -0.09218
 O541 O 1.02997 0.38917 -0.02707
 O542 O 1.04125 0.61357 0.01946
 O543 O 1.05642 0.44744 -0.06629
 O544 O 1.07035 0.55477 0.05781
 O545 O 1.06283 0.57661 -0.04740
 O546 O 1.06522 0.42473 0.03420
 C547 C 1.07648 0.44423 0.06817
 C548 C 1.06386 0.55554 -0.08211
 C549 C 1.06163 0.40409 -0.05209
 C550 C 1.07414 0.59849 0.04396
 O551 O 0.97481 0.58815 0.06270
 O552 O 0.95968 0.41728 -0.06076
 O553 O 0.97376 0.42664 0.06925
 O554 O 0.96373 0.57799 -0.06861
 O555 O 0.93325 0.50290 -0.07021
 O556 O 0.94843 0.50313 0.07740
 O557 O 0.94374 0.59754 0.00215
 O558 O 0.93650 0.41261 0.00179
 Co559 Co 1.00913 0.52710 0.06387
 Co560 Co 0.99522 0.47650 -0.06550
 Co561 Co 1.00129 0.42223 0.01740
 Co562 Co 1.00296 0.58257 -0.02148
 O563 O 1.00234 0.50219 -0.00134
 C564 C 0.94031 0.60408 0.04013
 C565 C 0.92723 0.40482 -0.03551
 C566 C 0.94301 0.45723 0.08443
 C567 C 0.92766 0.54911 -0.07604
 O568 O 0.54743 0.97414 0.58663
 O569 O 0.52625 1.02371 0.40891
 O570 O 0.53004 0.88664 0.47509
 O571 O 0.53896 1.11247 0.51972
 O572 O 0.55528 0.94495 0.43543
 O573 O 0.56878 1.05490 0.55880
 O574 O 0.56090 1.07391 0.45304
 O575 O 0.56637 0.92412 0.53566
 C576 C 0.57806 0.94472 0.56923
 C577 C 0.56215 1.05149 0.41881
 C578 C 0.56105 0.90163 0.44954
 C579 C 0.57196 1.09837 0.54449
 O580 O 0.47264 1.08603 0.56361
 O581 O 0.45919 0.91429 0.44214
 O582 O 0.47712 0.92589 0.57230
 O583 O 0.46198 1.07468 0.43208
 O584 O 0.43147 0.99967 0.43184
 O585 O 0.44778 1.00055 0.57988
 O586 O 0.44198 1.09481 0.50271
 O587 O 0.43693 0.90920 0.50488
 Co588 Co 0.50829 1.02595 0.56545
 Co589 Co 0.49383 0.97352 0.43640
 Co590 Co 0.50214 0.92016 0.51973
 Co591 Co 0.50118 1.08003 0.47914
 O592 O 0.50151 1.00000 0.50027
 C593 C 0.43839 1.10172 0.54066
 C594 C 0.42693 0.90208 0.46752
 C595 C 0.44332 0.95414 0.58531
 C596 C 0.42595 1.04572 0.42491
 O597 O 1.05590 1.05173 0.44041
 O598 O 0.91613 1.04471 0.55371
 O599 O 0.95918 1.04487 0.43650
 O600 O 1.07731 1.06053 0.56604
 O601 O 0.90097 1.03187 0.47970
 O602 O 1.07884 1.08345 0.50420
 O603 O 0.98549 1.08404 0.57383
 O604 O 1.02634 0.98992 0.40571
 C605 C 1.05143 1.02979 0.40603
 C606 C 0.93892 1.08390 0.56870
 C607 C 0.91725 1.05607 0.44962
 C608 C 1.08416 1.09467 0.54109
 O609 O 1.10967 0.98452 0.52933
 O610 O 0.92466 0.93038 0.48481
 O611 O 1.01131 0.91844 0.45666
 O612 O 0.97131 0.99422 0.60004
 O613 O 0.93846 0.94068 0.55779
 O614 O 1.08444 0.95324 0.46069
 O615 O 1.05986 0.96854 0.58200
 O616 O 0.93712 0.95089 0.41988
 Co617 Co 1.07652 1.01707 0.48566
 Co618 Co 0.92730 0.98858 0.51799
 Co619 Co 0.98453 0.98239 0.44999
 Co620 Co 1.02176 1.02498 0.57369
 O621 O 1.00478 1.00503 0.50822
 C622 C 1.09924 0.95973 0.56209
 C623 C 0.91328 0.92409 0.44675
 C624 C 1.05752 0.91422 0.45435
 C625 C 0.94883 0.95350 0.59398
 O626 O 0.55490 0.55364 -0.06017
 O627 O 0.41467 0.54630 0.05265
 O628 O 0.45881 0.54607 -0.06465
 O629 O 0.57578 0.56264 0.06571
 O630 O 0.40020 0.53361 -0.02173
 O631 O 0.57712 0.58570 0.00384
 O632 O 0.48399 0.58527 0.07341
 O633 O 0.52629 0.49137 -0.09492
 C634 C 0.55098 0.53151 -0.09455
 C635 C 0.43746 0.58521 0.06812
 C636 C 0.41672 0.55737 -0.05199
 C637 C 0.58268 0.59680 0.04075
 O638 O 0.60880 0.48731 0.02897
 O639 O 0.42406 0.43209 -0.01618
 O640 O 0.51131 0.42003 -0.04374
 O641 O 0.47016 0.49524 0.09939
 O642 O 0.43652 0.44239 0.05693
 O643 O 0.58413 0.45546 -0.03964
 O644 O 0.55886 0.47016 0.08120
 O645 O 0.43728 0.45209 -0.08108
 Co646 Co 0.57553 0.51932 -0.01477
 Co647 Co 0.42614 0.49030 0.01690
 Co648 Co 0.48431 0.48380 -0.05077
 Co649 Co 0.52050 0.52645 0.07309
 O650 O 0.50378 0.50673 0.00759
 C651 C 0.59853 0.46219 0.06154
 C652 C 0.41312 0.42555 -0.05427
 C653 C 0.55755 0.41617 -0.04603
 C654 C 0.44668 0.45509 0.09321
 N655 N 0.43127 1.18413 0.07114
 N656 N 0.40762 1.21124 0.10007
 C657 C 0.38626 1.17734 0.12556
 C658 C 0.39735 1.12838 0.11137
 N659 N 0.42531 1.13446 0.07722
 H660 H 0.38345 1.09231 0.12272
 N661 N 0.92794 0.68290 0.56852
 N662 N 0.90488 0.71028 0.59763
 C663 C 0.88468 0.67669 0.62404
 C664 C 0.89594 0.62759 0.61020
 N665 N 0.92278 0.63331 0.57534
 H666 H 0.88286 0.59159 0.62232
 N667 N 0.59906 0.95844 0.13249
 N668 N 0.62699 0.94135 0.16326
 C669 C 0.64750 0.89715 0.14920
 C670 C 0.63043 0.88669 0.10954
 N671 N 0.60000 0.92563 0.10055
 H672 H 0.63964 0.85457 0.08909
 N673 N 1.09972 0.45796 0.63025
 N674 N 1.12724 0.44102 0.66133
 C675 C 1.14716 0.39627 0.64787
 C676 C 1.13018 0.38537 0.60823
 N677 N 1.10041 0.42464 0.59865
 H678 H 1.13900 0.35274 0.58820
 N679 N 0.61182 1.02420 -0.14553
 N680 N 0.63739 1.04932 -0.17374
 C681 C 0.64723 1.09621 -0.15700
 C682 C 0.62664 1.09962 -0.11832
 N683 N 0.60479 1.05417 -0.11242
 H684 H 0.62677 1.13213 -0.09678
 N685 N 1.11152 0.52378 0.35381
 N686 N 1.13827 0.54887 0.32635
 C687 C 1.14756 0.59579 0.34327
 C688 C 1.12526 0.59922 0.38136
 N689 N 1.10305 0.55375 0.38668
 H690 H 1.12443 0.63179 0.40282
 N691 N 0.34949 0.84866 -0.04032
 N692 N 0.32207 0.82396 -0.06849
 C693 C 0.32732 0.84853 -0.10472
 C694 C 0.35915 0.88983 -0.09769
 N695 N 0.37200 0.88827 -0.05702
 H696 H 0.37300 0.91683 -0.11997
 N697 N 0.84587 0.34420 0.46613
 N698 N 0.81659 0.31976 0.43910
 C699 C 0.81926 0.34522 0.40308
 C700 C 0.85123 0.38637 0.40890
 N701 N 0.86699 0.38411 0.44861
 H702 H 0.86386 0.41339 0.38611
 N703 N 1.16273 0.41828 0.06826
 N704 N 1.19461 0.39439 0.09267
 C705 C 1.17221 0.38916 0.12974
 C706 C 1.12550 0.41121 0.12744
 N707 N 1.12119 0.42881 0.08853
 H708 H 1.09587 0.40957 0.15003
 N709 N 0.66459 0.91974 0.56877
 N710 N 0.69684 0.89644 0.59323
 C711 C 0.67480 0.89175 0.63052
 C712 C 0.62803 0.91349 0.62833
 N713 N 0.62323 0.93034 0.58926
 H714 H 0.59855 0.91181 0.65105
 N715 N 1.10234 0.54088 -0.14816
 N716 N 1.13031 0.56452 -0.17527
 C717 C 1.14676 0.60831 -0.15678
 C718 C 1.12836 0.61027 -0.11640
 N719 N 1.10017 0.56751 -0.11280
 H720 H 1.13101 0.64150 -0.09377
 N721 N 0.60560 1.03143 0.35530
 N722 N 0.63440 1.05393 0.32798
 C723 C 0.64676 1.10012 0.34449
 C724 C 0.62499 1.10518 0.38325
 N725 N 0.59944 1.06140 0.38859
 H726 H 0.62401 1.13882 0.40355
 N727 N 0.86823 0.66061 0.03532
 N728 N 0.83662 0.68511 0.06024
 C729 C 0.84919 0.67273 0.09945
 C730 C 0.88952 0.64004 0.09788
 N731 N 0.90027 0.63357 0.05739
 H732 H 0.90946 0.62316 0.12358
 N733 N 0.36638 1.15827 0.53531
 N734 N 0.33504 1.18331 0.56012
 C735 C 0.34783 1.17143 0.59939
 C736 C 0.38791 1.13853 0.59801
 N737 N 0.39836 1.13139 0.55756
 H738 H 0.40797 1.12203 0.62381
 N739 N 0.85373 0.34948 -0.02720
 N740 N 0.82117 0.32453 -0.05152
 C741 C 0.83137 0.33737 -0.09106
 C742 C 0.87097 0.37081 -0.09009
 N743 N 0.88395 0.37741 -0.04996
 H744 H 0.88994 0.38715 -0.11632
 N745 N 0.35317 0.84657 0.47474
 N746 N 0.32080 0.82235 0.44973
 C747 C 0.33085 0.83679 0.41051
 C748 C 0.37014 0.87053 0.41244
 N749 N 0.38315 0.87567 0.45275
 H750 H 0.38917 0.88777 0.38662
 N751 N 1.06128 1.03395 0.33081
 N752 N 1.08516 1.06176 0.30322
 C753 C 1.11089 1.09804 0.32480
 C754 C 1.10199 1.09165 0.36658
 N755 N 1.07091 1.05134 0.36894
 H756 H 1.11705 1.11361 0.39267
 N757 N 0.56063 0.53597 -0.16975
 N758 N 0.58442 0.56392 -0.19729
 C759 C 0.61018 0.60011 -0.17564
 C760 C 0.60142 0.59353 -0.13388
 N761 N 0.57037 0.55321 -0.13159
 H762 H 0.61658 0.61535 -0.10775
 N763 N 0.87879 1.15146 0.55590
 N764 N 0.85263 1.18582 0.57746
 C765 C 0.86870 1.18366 0.61721
 C766 C 0.90576 1.14711 0.61932
 N767 N 0.91084 1.12813 0.58054
 H768 H 0.92375 1.13231 0.64682
 N769 N 0.37692 0.65251 0.05586
 N770 N 0.35136 0.68715 0.07762
 C771 C 0.36842 0.68539 0.11711
 C772 C 0.40545 0.64883 0.11887
 N773 N 0.40948 0.62938 0.08015
 H774 H 0.42406 0.63426 0.14617
 N775 N 1.16773 0.89911 0.55395
 N776 N 1.19083 0.86330 0.57551
 C777 C 1.16946 0.86271 0.61343
 C778 C 1.13225 0.89934 0.61435
 N779 N 1.13268 0.92126 0.57677
 H780 H 1.10774 0.90952 0.63982
 N781 N 0.67182 0.40755 0.05564
 N782 N 0.69598 0.37281 0.07753
 C783 C 0.67128 0.36798 0.11367
 C784 C 0.63120 0.40101 0.11334
 N785 N 0.63298 0.42498 0.07666
 H786 H 0.60398 0.40760 0.13755
 N787 N 0.86171 0.84849 0.45760
 N788 N 0.84101 0.81118 0.43476
 C789 C 0.85470 0.81948 0.39517
 C790 C 0.88326 0.86280 0.39421
 N791 N 0.88638 0.87996 0.43338
 H792 H 0.89826 0.88164 0.36731
 N793 N 0.36170 0.34999 -0.04326
 N794 N 0.34113 0.31255 -0.06600
 C795 C 0.35491 0.32070 -0.10559
 C796 C 0.38340 0.36403 -0.10668
 N797 N 0.38637 0.38137 -0.06757
 H798 H 0.39839 0.38279 -0.13362
 N799 N 1.11359 0.32785 -0.04781
 N800 N 1.14388 0.30012 -0.07167
 C801 C 1.14764 0.32501 -0.10785
 C802 C 1.11931 0.36916 -0.10531
 N803 N 1.09876 0.36945 -0.06742
 H804 H 1.11240 0.39694 -0.12928
 N805 N 0.61327 0.82547 0.45291
 N806 N 0.64361 0.79818 0.42877
 C807 C 0.64709 0.82345 0.39274
 C808 C 0.61848 0.86740 0.39568
 N809 N 0.59808 0.86718 0.43366
 H810 H 0.61139 0.89546 0.37196
 N811 N 0.83755 0.55390 -0.08274
 N812 N 0.80354 0.57869 -0.10465
 C813 C 0.82859 0.60907 -0.13072
 C814 C 0.87881 0.60266 -0.12400
 N815 N 0.88274 0.56806 -0.09386
 H816 H 0.90942 0.62089 -0.13967
 N817 N 0.33586 1.05037 0.41640
 N818 N 0.30241 1.07617 0.39462
 C819 C 0.32803 1.10740 0.36958
 C820 C 0.37812 1.10028 0.37678
 N821 N 0.38137 1.06449 0.40614
 H822 H 0.40911 1.11903 0.36204
 N823 N 1.12540 0.67591 0.04176
 N824 N 1.15415 0.70405 0.06703
 C825 C 1.15713 0.67898 0.10324
 C826 C 1.12977 0.63422 0.09913
 N827 N 1.11071 0.63367 0.06038
 H828 H 1.12220 0.60628 0.12275
 N829 N 0.62217 1.17666 0.54197
 N830 N 0.65135 1.20477 0.56694
 C831 C 0.65535 1.17939 0.60296
 C832 C 0.62814 1.13454 0.59904
 N833 N 0.60814 1.13420 0.56062
 H834 H 0.62140 1.10628 0.62259
 N835 N 0.88759 0.47227 0.14240
 N836 N 0.86068 0.44595 0.16882
 C837 C 0.86347 0.39617 0.15669
 C838 C 0.89304 0.39256 0.12186
 N839 N 0.90741 0.44099 0.11415
 H840 H 0.90450 0.35829 0.10488
 N841 N 0.36636 0.91038 0.57745
 N842 N 0.33896 0.87775 0.59806
 C843 C 0.35556 0.87811 0.63780
 C844 C 0.39429 0.91314 0.64094
 N845 N 0.39961 0.93232 0.60234
 H846 H 0.41900 0.92014 0.66714
 N847 N 0.42329 1.05866 -0.13885
 N848 N 0.39706 1.07736 -0.16997
 C849 C 0.36228 1.10856 -0.15308
 C850 C 0.36769 1.10804 -0.11023
 N851 N 0.40623 1.07639 -0.10285
 H852 H 0.34847 1.13137 -0.08717
 N853 N 0.91813 0.55240 0.36016
 N854 N 0.89258 0.57217 0.32909
 C855 C 0.85928 0.60498 0.34611
 C856 C 0.86480 0.60433 0.38889
 N857 N 0.90193 0.57095 0.39619
 H858 H 0.84692 0.62880 0.41195
 N859 N 0.67027 1.13246 0.03284
 N860 N 0.69896 1.15820 0.05964
 C861 C 0.67648 1.15659 0.09692
 C862 C 0.63234 1.12925 0.09188
 N863 N 0.62995 1.11509 0.05136
 H864 H 0.60560 1.11940 0.11544
 N865 N 1.16563 0.62935 0.53297
 N866 N 1.19397 0.65428 0.56038
 C867 C 1.17040 0.65273 0.59719
 C868 C 1.12600 0.62644 0.59139
 N869 N 1.12460 0.61278 0.55077
 H870 H 1.09836 0.61707 0.61435
 N871 N 0.53029 0.83531 -0.10505
 N872 N 0.55182 0.80909 -0.13570
 C873 C 0.60119 0.81540 -0.13074
 C874 C 0.60943 0.84715 -0.09634
 N875 N 0.56406 0.85857 -0.08119
 H876 H 0.64450 0.86197 -0.08458
 N877 N 1.02790 0.33193 0.39431
 N878 N 1.04971 0.30558 0.36384
 C879 C 1.09901 0.31281 0.36855
 C880 C 1.10690 0.34526 0.40253
 N881 N 1.06145 0.35616 0.41775
 H882 H 1.14180 0.36084 0.41400
 N883 N 0.43278 0.94200 0.15157
 N884 N 0.40753 0.92080 0.18199
 C885 C 0.36788 0.89699 0.16440
 C886 C 0.36937 0.90478 0.12198
 N887 N 0.41032 0.93319 0.11543
 H888 H 0.34511 0.88871 0.09810
 N889 N 0.93528 0.43825 0.65249
 N890 N 0.90968 0.41705 0.68268
 C891 C 0.86917 0.39508 0.66488
 C892 C 0.87038 0.40393 0.62277
 N893 N 0.91208 0.43109 0.61649
 H894 H 0.84536 0.38938 0.59881
 N895 N 1.13226 1.17309 0.53301
 N896 N 1.15737 1.20475 0.55823
 C897 C 1.14452 1.19243 0.59732
 C898 C 1.11063 1.15378 0.59548
 N899 N 1.10435 1.14218 0.55516
 H900 H 1.09655 1.13188 0.62116
 N901 N 0.63181 0.67459 0.03275
 N902 N 0.65740 0.70579 0.05801
 C903 C 0.64437 0.69363 0.09709
 C904 C 0.60985 0.65555 0.09518
 N905 N 0.60338 0.64410 0.05484
 H906 H 0.59542 0.63384 0.12084
 N907 N 1.10220 0.83322 0.45980
 N908 N 1.12972 0.80313 0.43533
 C909 C 1.12483 0.82088 0.39635
 C910 C 1.09324 0.86249 0.39771
 N911 N 1.07946 0.86853 0.43759
 H912 H 1.08429 0.88839 0.37282
 N913 N 0.60123 0.33440 -0.04105
 N914 N 0.62848 0.30409 -0.06558
 C915 C 0.62473 0.32267 -0.10439
 C916 C 0.59417 0.36511 -0.10285
 N917 N 0.57983 0.37076 -0.06306
 H918 H 0.58601 0.39152 -0.12757
 N919 N 0.84943 1.11667 0.45131
 N920 N 0.82237 1.14473 0.42594
 C921 C 0.84260 1.13979 0.38782
 C922 C 0.88392 1.10802 0.39080
 N923 N 0.88669 1.09456 0.43110
 H924 H 0.90784 1.09415 0.36605
 N925 N 0.34947 0.61873 -0.05128
 N926 N 0.32286 0.64671 -0.07706
 C927 C 0.34298 0.64073 -0.11515
 C928 C 0.38383 0.60831 -0.11171
 N929 N 0.38639 0.59563 -0.07118
 H930 H 0.40762 0.59365 -0.13625
 N931 N 0.94563 0.93774 0.66751
 N932 N 0.91874 0.91267 0.69471
 C933 C 0.88525 0.88490 0.67261
 C934 C 0.89283 0.89311 0.63073
 N935 N 0.93092 0.92643 0.62905
 H936 H 0.87166 0.87816 0.60443
 N937 N 0.44202 0.44018 0.16685
 N938 N 0.41522 0.41486 0.19398
 C939 C 0.38243 0.38625 0.17184
 C940 C 0.39037 0.39435 0.12990
 N941 N 0.42798 0.42837 0.12830
 H942 H 0.36991 0.37861 0.10350
   
