data_POSCAR
  _audit_creation_date              2014-09-24
  _audit_creation_method            'ToBaCCo'
  _symmetry_space_group_name_H-M    'P1'
  _symmetry_Int_Tables_number       1
  _symmetry_cell_setting            triclinic
  loop_
  _symmetry_equiv_pos_as_xyz
 x,y,z
_cell_length_a 41.3130
_cell_length_b 42.9629
_cell_length_c 38.7167
_cell_angle_alpha 91.085300
_cell_angle_beta 89.904600
_cell_angle_gamma 90.371800
loop_
  _atom_site_label
  _atom_site_type_symbol
  _atom_site_fract_x
  _atom_site_fract_y
  _atom_site_fract_z
C1 C 0.19514 0.22618 0.25871
 C2 C 0.19865 0.24779 0.23235
 C3 C 0.22262 0.24399 0.20756
 C4 C 0.24359 0.21845 0.20910
 C5 C 0.24014 0.19708 0.23531
 C6 C 0.21572 0.20093 0.26019
 C7 C 0.17142 0.22209 0.28324
 N8 N 0.17730 0.19509 0.29945
 C9 C 0.20417 0.18184 0.28568
 C10 C 0.26147 0.17323 0.22858
 N11 N 0.27771 0.17978 0.19917
 C12 C 0.26702 0.20717 0.18685
 C13 C 0.21781 0.26643 0.18309
 N14 N 0.19174 0.28349 0.19280
 C15 C 0.17979 0.27233 0.22268
 H16 H 0.15039 0.23662 0.28748
 H17 H 0.21340 0.15915 0.29220
 H18 H 0.26406 0.15213 0.24317
 H19 H 0.27476 0.21746 0.16285
 H20 H 0.23118 0.26918 0.15925
 H21 H 0.15801 0.28050 0.23545
 C22 C -0.20916 0.76643 0.24953
 C23 C -0.20737 0.74744 0.21983
 C24 C -0.22850 0.75183 0.19258
 C25 C -0.25192 0.77534 0.19496
 C26 C -0.25371 0.79408 0.22449
 C27 C -0.23218 0.78965 0.25186
 C28 C -0.18852 0.77040 0.27716
 N29 N -0.19860 0.79537 0.29602
 C30 C -0.22516 0.80741 0.28090
 C31 C -0.27599 0.81696 0.21836
 N32 N -0.28779 0.81241 0.18606
 C33 C -0.27329 0.78724 0.17132
 C34 C -0.21858 0.73243 0.16581
 N35 N -0.19226 0.71663 0.17653
 C36 C -0.18512 0.72562 0.20930
 H37 H -0.16635 0.75775 0.28156
 H38 H -0.23680 0.82892 0.28878
 H39 H -0.28213 0.83626 0.23551
 H40 H -0.27693 0.77908 0.14496
 H41 H -0.22880 0.73091 0.14009
 H42 H -0.16441 0.71781 0.22383
 C43 C -0.21066 0.23263 -0.25616
 C44 C -0.20775 0.25121 -0.22624
 C45 C -0.22716 0.24556 -0.19776
 C46 C -0.24996 0.22116 -0.19908
 C47 C -0.25284 0.20280 -0.22881
 C48 C -0.23304 0.20852 -0.25746
 C49 C -0.19146 0.22990 -0.28512
 N50 N -0.20176 0.20482 -0.30381
 C51 C -0.22706 0.19148 -0.28726
 C52 C -0.27428 0.17911 -0.22176
 N53 N -0.28450 0.18283 -0.18872
 C54 C -0.26983 0.20827 -0.17442
 C55 C -0.21623 0.26479 -0.17124
 N56 N -0.19095 0.28171 -0.18327
 C57 C -0.18546 0.27361 -0.21667
 H58 H -0.16991 0.24346 -0.29060
 H59 H -0.23838 0.16956 -0.29475
 H60 H -0.28111 0.16001 -0.23898
 H61 H -0.27254 0.21611 -0.14782
 H62 H -0.22490 0.26534 -0.14483
 H63 H -0.16572 0.28230 -0.23227
 C64 C 0.18360 0.77333 -0.25803
 C65 C 0.18773 0.74883 -0.23515
 C66 C 0.21108 0.75090 -0.20948
 C67 C 0.23073 0.77766 -0.20656
 C68 C 0.22667 0.80181 -0.22939
 C69 C 0.20298 0.79965 -0.25519
 C70 C 0.16079 0.77880 -0.28308
 N71 N 0.16614 0.80768 -0.29535
 C72 C 0.19174 0.82073 -0.27860
 C73 C 0.24731 0.82554 -0.21936
 N74 N 0.26374 0.81631 -0.19117
 C75 C 0.25390 0.78721 -0.18290
 C76 C 0.20747 0.72495 -0.18932
 N77 N 0.18274 0.70751 -0.20240
 C78 C 0.17045 0.72183 -0.23024
 H79 H 0.14095 0.76354 -0.29066
 H80 H 0.20051 0.84429 -0.28203
 H81 H 0.24967 0.84810 -0.23119
 H82 H 0.26240 0.77430 -0.16097
 H83 H 0.22076 0.71986 -0.16604
 H84 H 0.14952 0.71388 -0.24482
 C85 C 0.22995 1.20728 0.75767
 C86 C 0.25554 1.21017 0.78124
 C87 C 0.25747 1.23588 0.80325
 C88 C 0.23386 1.25909 0.80188
 C89 C 0.20843 1.25628 0.77863
 C90 C 0.20643 1.23012 0.75634
 C91 C 0.22087 1.18362 0.73520
 N92 N 0.19258 1.19162 0.72029
 C93 C 0.18333 1.21985 0.73293
 C94 C 0.18783 1.28086 0.78526
 N95 N 0.20041 1.29822 0.81167
 C96 C 0.22837 1.28517 0.82215
 C97 C 0.28281 1.23103 0.82557
 N98 N 0.29612 1.20313 0.81738
 C99 C 0.27974 1.19011 0.79046
 H100 H 0.23339 1.16183 0.73078
 H101 H 0.16111 1.23158 0.72637
 H102 H 0.16485 1.28506 0.77281
 H103 H 0.24289 1.29332 0.84381
 H104 H 0.29000 1.24587 0.84717
 H105 H 0.28408 1.16708 0.77963
 C106 C 0.78901 0.80301 0.77670
 C107 C 0.76162 0.79858 0.79751
 C108 C 0.76040 0.77397 0.82007
 C109 C 0.78653 0.75349 0.82210
 C110 C 0.81367 0.75779 0.80156
 C111 C 0.81494 0.78276 0.77866
 C112 C 0.79741 0.82587 0.75386
 N113 N 0.82762 0.81987 0.74197
 C114 C 0.83873 0.79371 0.75687
 C115 C 0.83587 0.73552 0.81058
 N116 N 0.82260 0.71810 0.83586
 C117 C 0.79259 0.72881 0.84323
 C118 C 0.73224 0.77678 0.83891
 N119 N 0.71652 0.80237 0.82816
 C120 C 0.73413 0.81597 0.80298
 H121 H 0.78288 0.84567 0.74685
 H122 H 0.86246 0.78375 0.75264
 H123 H 0.86007 0.73273 0.80025
 H124 H 0.77674 0.71983 0.86305
 H125 H 0.72448 0.76217 0.85990
 H126 H 0.72810 0.83763 0.79075
 C127 C 0.23903 0.80300 1.25481
 C128 C 0.26379 0.79871 1.23034
 C129 C 0.26449 0.77183 1.21004
 C130 C 0.24049 0.74900 1.21382
 C131 C 0.21590 0.75320 1.23781
 C132 C 0.21520 0.78039 1.25852
 C133 C 0.23085 0.82784 1.27604
 N134 N 0.20287 0.82067 1.29247
 C135 C 0.19293 0.79190 1.28197
 C136 C 0.19420 0.72896 1.23296
 N137 N 0.20531 0.71046 1.20684
 C138 C 0.23344 0.72244 1.19489
 C139 C 0.28884 0.77528 1.18611
 N140 N 0.30287 0.80348 1.19154
 C141 C 0.28786 0.81811 1.21837
 H142 H 0.24371 0.84982 1.27855
 H143 H 0.17070 0.78061 1.28999
 H144 H 0.17126 0.72593 1.24608
 H145 H 0.24679 0.71342 1.17282
 H146 H 0.29476 0.75926 1.16514
 H147 H 0.29289 0.84171 1.22719
 C148 C 0.78024 1.19392 1.22043
 C149 C 0.75396 1.19788 1.19805
 C150 C 0.75282 1.22367 1.17716
 C151 C 0.77786 1.24577 1.17834
 C152 C 0.80388 1.24192 1.20038
 C153 C 0.80508 1.21579 1.22161
 C154 C 0.78850 1.17035 1.24233
 N155 N 0.81756 1.17754 1.25667
 C156 C 0.82807 1.20513 1.24426
 C157 C 0.82545 1.26582 1.19422
 N158 N 0.81292 1.28378 1.16918
 C159 C 0.78398 1.27181 1.15920
 C160 C 0.72601 1.22039 1.15631
 N161 N 0.71098 1.19336 1.16420
 C162 C 0.72773 1.17931 1.18955
 H163 H 0.77470 1.14933 1.24706
 H164 H 0.85089 1.21631 1.25078
 H165 H 0.84892 1.26931 1.20613
 H166 H 0.76905 1.28080 1.13875
 H167 H 0.71869 1.23582 1.13600
 H168 H 0.72198 1.15672 1.19995
 O169 O 0.52406 0.96344 0.93185
 O170 O 0.47266 0.96321 1.05349
 O171 O 0.57666 0.98433 1.02351
 O172 O 0.42453 0.98921 0.96021
 O173 O 0.53109 0.97177 1.05191
 O174 O 0.46293 0.96488 0.93313
 O175 O 0.44021 0.96071 1.01061
 O176 O 0.54352 0.95212 0.98336
 C177 C 0.53972 0.94545 0.95165
 C178 C 0.45081 0.94934 1.03736
 C179 C 0.56218 0.97182 1.05008
 C180 C 0.43344 0.96856 0.93902
 O181 O 0.46352 1.02783 0.93265
 O182 O 0.51896 1.03452 1.05170
 O183 O 0.56384 1.00326 0.95720
 O184 O 0.41405 1.01088 1.02695
 O185 O 0.46053 1.02593 1.05206
 O186 O 0.52459 1.02632 0.93121
 O187 O 0.44566 1.04148 0.98475
 O188 O 0.55024 1.03396 1.00773
 Co189 Co 0.49384 0.99572 0.93683
 Co190 Co 0.49571 0.99870 1.04693
 Co191 Co 0.54312 0.99310 0.99731
 Co192 Co 0.44668 1.00115 0.99924
 O193 O 0.49482 0.99709 0.99130
 C194 C 0.44875 1.04686 0.95287
 C195 C 0.54063 1.04703 1.03446
 C196 C 0.55424 1.02310 0.93628
 C197 C 0.42944 1.02450 1.05273
 O198 O 0.04302 0.47606 0.06781
 O199 O 0.01978 0.52899 -0.06888
 O200 O 0.05021 0.45323 -0.01583
 O201 O 0.06074 0.54906 0.02783
 O202 O 0.03391 0.47352 -0.06266
 O203 O 0.03754 0.53356 0.07409
 O204 O 0.05483 0.53880 -0.03127
 O205 O 0.02310 0.43740 0.03808
 C206 C 0.04275 0.44778 0.06002
 C207 C 0.04720 0.53882 -0.06174
 C208 C 0.05487 0.45863 -0.04672
 C209 C 0.06007 0.54755 0.05963
 O210 O -0.02401 0.53087 0.06817
 O211 O -0.02834 0.46208 -0.04454
 O212 O -0.03305 0.45482 0.01578
 O213 O -0.00908 0.56010 -0.02777
 O214 O -0.03759 0.51887 -0.04178
 O215 O -0.02143 0.47138 0.06722
 O216 O -0.00214 0.56652 0.03444
 O217 O -0.00181 0.42186 -0.02483
 Co218 Co 0.00891 0.50252 0.06331
 Co219 Co -0.00141 0.49633 -0.04867
 Co220 Co 0.00882 0.45665 -0.00056
 Co221 Co 0.02491 0.54961 0.00070
 O222 O 0.01159 0.50304 0.00647
 C223 C -0.02285 0.55816 0.05686
 C224 C -0.02234 0.43303 -0.04720
 C225 C -0.03964 0.45646 0.04705
 C226 C -0.03526 0.54775 -0.03806
 O227 O 1.03586 0.04516 0.48486
 O228 O 0.92680 0.03022 0.53260
 O229 O 0.96144 0.01266 0.42764
 O230 O 1.02823 0.04277 0.54672
 O231 O 0.92802 0.03109 0.46745
 O232 O 1.07079 0.01842 0.52866
 O233 O 0.97185 0.05278 0.54523
 O234 O 1.01982 0.02466 0.43583
 C235 C 1.03208 0.04721 0.45295
 C236 C 0.94201 0.05375 0.54287
 C237 C 0.93836 0.03027 0.43692
 C238 C 1.05805 0.03748 0.55091
 O239 O 1.03987 -0.03254 0.51930
 O240 O 0.92721 -0.02880 0.46562
 O241 O 1.02729 -0.03724 0.45484
 O242 O 0.95848 -0.00492 0.56964
 O243 O 0.93208 -0.03077 0.52977
 O244 O 1.06337 -0.00514 0.46767
 O245 O 1.01603 -0.01727 0.56582
 O246 O 0.97269 -0.04658 0.44723
 Co247 Co 1.03607 0.00639 0.50307
 Co248 Co 0.93416 0.00063 0.49906
 Co249 Co 0.99499 -0.01030 0.44591
 Co250 Co 0.99319 0.01677 0.55180
 O251 O 0.98739 0.00220 0.49829
 C252 C 1.03266 -0.03712 0.54986
 C253 C 0.94309 -0.04937 0.45052
 C254 C 1.05585 -0.02916 0.45158
 C255 C 0.94077 -0.02754 0.56040
 C256 C 1.11640 0.15183 0.36172
 N257 N 1.12415 0.14602 0.39498
 N258 N 1.10489 0.12830 0.41415
 C259 C 1.07725 0.11598 0.40069
 N260 N 1.06941 0.12193 0.36748
 N261 N 1.08867 0.13966 0.34831
 C262 C 1.13849 0.16840 0.34008
 C263 C 1.15708 0.18136 0.32106
 C264 C 1.05900 0.09362 0.41976
 C265 C 1.04550 0.07324 0.43523
 C266 C 0.85522 -0.15826 0.36425
 N267 N 0.88770 -0.15691 0.35926
 N268 N 0.90601 -0.13769 0.37842
 C269 C 0.89236 -0.11926 0.40316
 N270 N 0.85991 -0.12074 0.40829
 N271 N 0.84161 -0.13995 0.38912
 C272 C 0.83527 -0.17621 0.34103
 C273 C 0.81891 -0.19012 0.32008
 C274 C 0.91136 -0.09608 0.42102
 C275 C 0.92645 -0.07537 0.43498
 C276 C 0.85107 0.16121 0.62528
 N277 N 0.83762 0.14028 0.60284
 N278 N 0.85633 0.12172 0.58356
 C279 C 0.88903 0.12353 0.58612
 N280 N 0.90248 0.14460 0.60839
 N281 N 0.88377 0.16318 0.62767
 C282 C 0.83115 0.17817 0.64929
 C283 C 0.81513 0.19122 0.67109
 C284 C 0.90878 0.10067 0.56906
 C285 C 0.92458 0.08000 0.55630
 C286 C 1.10953 -0.14583 0.64156
 N287 N 1.08168 -0.13330 0.65392
 N288 N 1.06425 -0.11441 0.63449
 C289 C 1.07412 -0.10754 0.60208
 N290 N 1.10189 -0.12020 0.58966
 N291 N 1.11932 -0.13909 0.60909
 C292 C 1.12977 -0.16368 0.66364
 C293 C 1.14708 -0.17763 0.68291
 C294 C 1.05762 -0.08433 0.58283
 C295 C 1.04527 -0.06346 0.56737
 C296 C 0.33809 1.12208 1.15095
 N297 N 0.33223 1.09098 1.15135
 N298 N 0.35124 1.07133 1.13380
 C299 C 0.37673 1.08218 1.11536
 N300 N 0.38262 1.11327 1.11502
 N301 N 0.36362 1.13292 1.13257
 C302 C 0.31677 1.14328 1.16866
 C303 C 0.29835 1.16081 1.18324
 C304 C 0.39597 1.06126 1.09468
 C305 C 0.41158 1.04413 1.07621
 C306 C 0.32677 0.87072 0.85884
 N307 N 0.32303 0.87805 0.89284
 N308 N 0.34363 0.89762 0.90865
 C309 C 0.36851 0.91053 0.89091
 N310 N 0.37224 0.90318 0.85692
 N311 N 0.35166 0.88362 0.84112
 C312 C 0.30413 0.85032 0.84145
 C313 C 0.28498 0.83383 0.82618
 C314 C 0.39090 0.93143 0.90793
 C315 C 0.41007 0.94867 0.92211
 C316 C 0.65385 0.87152 1.13983
 N317 N 0.62629 0.86187 1.12382
 N318 N 0.60751 0.88223 1.10794
 C319 C 0.61565 0.91287 1.10769
 N320 N 0.64318 0.92253 1.12375
 N321 N 0.66196 0.90217 1.13963
 C322 C 0.67451 0.84960 1.15633
 C323 C 0.69231 0.83165 1.17035
 C324 C 0.59637 0.93444 1.08891
 C325 C 0.58054 0.95198 1.07196
 C326 C 0.65729 1.12321 0.85830
 N327 N 0.65167 1.12524 0.89279
 N328 N 0.63204 1.10486 0.90796
 C329 C 0.61750 1.08180 0.88911
 N330 N 0.62314 1.07977 0.85463
 N331 N 0.64277 1.10014 0.83947
 C332 C 0.67831 1.14516 0.84185
 C333 C 0.69599 1.16328 0.82751
 C334 C 0.59572 1.06039 0.90534
 C335 C 0.57702 1.04294 0.91923
 C336 C 0.14386 0.34800 0.13873
 N337 N 0.13037 0.34035 0.10778
 N338 N 0.11118 0.36038 0.09192
 C339 C 0.10481 0.38859 0.10661
 N340 N 0.11837 0.39627 0.13751
 N341 N 0.13755 0.37624 0.15337
 C342 C 0.16236 0.32555 0.15706
 C343 C 0.17656 0.30626 0.17325
 C344 C 0.08313 0.40961 0.09021
 C345 C 0.06469 0.42710 0.07650
 C346 C -0.13038 0.33877 -0.12983
 N347 N -0.11292 0.32805 -0.10297
 N348 N -0.09108 0.34633 -0.08723
 C349 C -0.08593 0.37581 -0.09803
 N350 N -0.10341 0.38653 -0.12487
 N351 N -0.12524 0.36825 -0.14060
 C352 C -0.15286 0.31871 -0.14775
 C353 C -0.17092 0.30169 -0.16373
 C354 C -0.06277 0.39563 -0.08080
 C355 C -0.04385 0.41254 -0.06587
 C356 C 0.13887 0.63393 -0.15833
 N357 N 0.15099 0.62030 -0.12987
 N358 N 0.13382 0.59874 -0.11347
 C359 C 0.10406 0.59009 -0.12507
 N360 N 0.09201 0.60362 -0.15363
 N361 N 0.10918 0.62517 -0.17004
 C362 C 0.15584 0.65922 -0.17410
 C363 C 0.16885 0.68129 -0.18714
 C364 C 0.08410 0.56988 -0.10491
 C365 C 0.06715 0.55462 -0.08624
 C366 C -0.13369 0.65871 0.12248
 N367 N -0.13965 0.62764 0.12088
 N368 N -0.11801 0.60832 0.10680
 C369 C -0.08972 0.61946 0.09402
 N370 N -0.08380 0.65053 0.09553
 N371 N -0.10544 0.66986 0.10960
 C372 C -0.15568 0.67921 0.14017
 C373 C -0.17312 0.69648 0.15642
 C374 C -0.06585 0.59845 0.08041
 C375 C -0.04598 0.58035 0.06951
 C376 C 1.14370 0.13550 0.65618
 N377 N 1.14776 0.10429 0.65849
 N378 N 1.13171 0.08473 0.63746
 C379 C 1.11112 0.09577 0.61342
 N380 N 1.10707 0.12698 0.61109
 N381 N 1.12312 0.14655 0.63212
 C382 C 1.16095 0.15647 0.67905
 C383 C 1.17582 0.17350 0.69857
 C384 C 1.09323 0.07470 0.59123
 C385 C 1.07762 0.05739 0.57275
 C386 C 0.87463 -0.12583 0.67656
 N387 N 0.88089 -0.13561 0.64372
 N388 N 0.89488 -0.11648 0.62137
 C389 C 0.90303 -0.08697 0.63114
 N390 N 0.89681 -0.07720 0.66400
 N391 N 0.88282 -0.09633 0.68635
 C392 C 0.85829 -0.14597 0.70026
 C393 C 0.84392 -0.16243 0.72012
 C394 C 0.91697 -0.06599 0.60664
 C395 C 0.92812 -0.04838 0.58575
 C396 C 1.15356 -0.12223 0.35460
 N397 N 1.14840 -0.09237 0.34534
 N398 N 1.13066 -0.07343 0.36529
 C399 C 1.11758 -0.08373 0.39516
 N400 N 1.12278 -0.11358 0.40445
 N401 N 1.14052 -0.13252 0.38451
 C402 C 1.17171 -0.14294 0.33246
 C403 C 1.18663 -0.16031 0.31353
 C404 C 1.09695 -0.06388 0.41569
 C405 C 1.07874 -0.04768 0.43240
 C406 C 0.86458 0.12373 0.32191
 N407 N 0.86017 0.09242 0.32027
 N408 N 0.87524 0.07407 0.34241
 C409 C 0.89523 0.08645 0.36689
 N410 N 0.89967 0.11777 0.36852
 N411 N 0.88459 0.13612 0.34637
 C412 C 0.84789 0.14350 0.29834
 C413 C 0.83355 0.15982 0.27851
 C414 C 0.91089 0.06668 0.39125
 C415 C 0.92365 0.05005 0.41193
 C416 C 0.15672 0.36761 -0.13822
 N417 N 0.13590 0.38683 -0.15429
 N418 N 0.11904 0.40783 -0.13610
 C419 C 0.12259 0.41038 -0.10132
 N420 N 0.14353 0.39125 -0.08529
 N421 N 0.16040 0.37026 -0.10348
 C422 C 0.17283 0.34322 -0.15726
 C423 C 0.18597 0.32199 -0.17242
 C424 C 0.10116 0.42984 -0.08139
 C425 C 0.08118 0.44426 -0.06508
 C426 C -0.14130 0.35491 0.12231
 N427 N -0.13684 0.35344 0.08760
 N428 N -0.11982 0.37543 0.07173
 C429 C -0.10689 0.39966 0.09007
 N430 N -0.11147 0.40120 0.12476
 N431 N -0.12849 0.37921 0.14064
 C432 C -0.15786 0.33018 0.13955
 C433 C -0.17138 0.30889 0.15355
 C434 C -0.08544 0.42127 0.07370
 C435 C -0.06559 0.43818 0.06085
 C436 C -0.13317 0.65121 -0.11348
 N437 N -0.12199 0.65699 -0.08105
 N438 N -0.10561 0.63530 -0.06435
 C439 C -0.10009 0.60710 -0.07948
 N440 N -0.11138 0.60129 -0.11187
 N441 N -0.12776 0.62297 -0.12857
 C442 C -0.14936 0.67513 -0.13207
 C443 C -0.16269 0.69551 -0.14750
 C444 C -0.07942 0.58509 -0.06314
 C445 C -0.06030 0.56743 -0.05075
 C446 C 0.15658 0.64132 0.15707
 N447 N 0.16637 0.63283 0.12480
 N448 N 0.14917 0.61235 0.10604
 C449 C 0.12169 0.59970 0.11902
 N450 N 0.11196 0.60811 0.15133
 N451 N 0.12915 0.62860 0.17009
 C452 C 0.17384 0.66510 0.17608
 C453 C 0.18831 0.68582 0.19087
 C454 C 0.10157 0.57987 0.09781
 C455 C 0.08341 0.56439 0.08012
 C456 C 0.36201 1.15645 0.87286
 N457 N 0.35551 1.14974 0.90626
 N458 N 0.37468 1.13070 0.92357
 C459 C 0.40096 1.11786 0.90802
 N460 N 0.40755 1.12471 0.87467
 N461 N 0.38838 1.14374 0.85736
 C462 C 0.33954 1.17425 0.85326
 C463 C 0.31978 1.18802 0.83665
 C464 C 0.41924 1.09449 0.92516
 C465 C 0.43340 1.07346 0.93851
 C466 C 0.36640 0.84459 1.12715
 N467 N 0.39593 0.85448 1.13814
 N468 N 0.41478 0.87139 1.11765
 C469 C 0.40477 0.87878 1.08549
 N470 N 0.37532 0.86870 1.07443
 N471 N 0.35647 0.85178 1.09491
 C472 C 0.34472 0.82917 1.15030
 C473 C 0.32569 0.81710 1.16959
 C474 C 0.42262 0.90110 1.06591
 C475 C 0.43633 0.92199 1.05146
 C476 C 0.63718 1.15314 1.11115
 N477 N 0.64101 1.14660 1.07699
 N478 N 0.61902 1.12953 1.05991
 C479 C 0.59240 1.11863 1.07642
 N480 N 0.58846 1.12537 1.11053
 N481 N 0.61046 1.14244 1.12762
 C482 C 0.66260 1.16845 1.13026
 C483 C 0.68472 1.18024 1.14613
 C484 C 0.57180 1.09598 1.05971
 C485 C 0.55634 1.07478 1.04713
 C486 C 0.63939 0.84234 0.87480
 N487 N 0.61677 0.85732 0.85612
 N488 N 0.59416 0.87440 0.87193
 C489 C 0.59342 0.87694 0.90690
 N490 N 0.61592 0.86179 0.92558
 N491 N 0.63852 0.84471 0.90977
 C492 C 0.66586 0.82696 0.85781
 C493 C 0.68900 0.81523 0.84390
 C494 C 0.57227 0.89893 0.92350
 C495 C 0.55629 0.91921 0.93684
   
