data_POSCAR
  _audit_creation_date              2014-09-24
  _audit_creation_method            'ToBaCCo'
  _symmetry_space_group_name_H-M    'P1'
  _symmetry_Int_Tables_number       1
  _symmetry_cell_setting            triclinic
  loop_
  _symmetry_equiv_pos_as_xyz
 x,y,z
_cell_length_a 26.9305
_cell_length_b 27.2824
_cell_length_c 26.7711
_cell_angle_alpha 90.198100
_cell_angle_beta 90.596000
_cell_angle_gamma 89.980600
loop_
  _atom_site_label
  _atom_site_type_symbol
  _atom_site_fract_x
  _atom_site_fract_y
  _atom_site_fract_z
C1 C 0.76431 0.62088 1.00237
 C2 C 0.74530 0.36902 0.49653
 C3 C 0.25202 -0.13325 -0.01020
 C4 C 0.25254 0.11925 0.49022
 C5 C 0.12642 0.50504 0.25301
 C6 C -0.12525 0.00932 0.24421
 C7 C 0.37978 0.49106 0.75662
 C8 C 0.60897 0.98947 0.75167
 C9 C -0.00539 0.24254 -0.13129
 C10 C 0.49642 0.25420 0.13322
 C11 C 0.99508 0.74816 0.61953
 C12 C 0.49876 0.75244 0.37988
 C13 C 0.46471 -0.05063 0.27896
 H14 H 0.48124 -0.01462 0.27673
 C15 C 0.49088 -0.08873 0.30198
 H16 H 0.52766 -0.08206 0.31726
 C17 C 0.39522 -0.10262 0.26587
 H18 H 0.35738 -0.10745 0.25304
 C19 C 0.42023 -0.14180 0.28832
 H20 H 0.40138 -0.17654 0.29268
 N21 N 0.41746 -0.05799 0.26211
 C22 C 0.45800 0.04191 0.18892
 H23 H 0.46766 0.00506 0.17753
 C24 C 0.48374 0.08186 0.16949
 H25 H 0.51319 0.07586 0.14292
 C26 C 0.40651 0.09520 0.23560
 H27 H 0.37591 0.10047 0.26077
 C28 C 0.43107 0.13611 0.21686
 H29 H 0.41907 0.17244 0.22776
 Zn30 Zn 0.37877 -0.00429 0.23935
 N31 N 0.41928 0.04927 0.22033
 C32 C 0.29576 0.04214 0.28203
 N33 N 0.33788 0.01644 0.29235
 C34 C 0.35399 0.00961 0.34019
 C35 C 0.32819 0.03046 0.37997
 C36 C 0.26877 0.06337 0.32068
 C37 C 0.35442 -0.01790 0.13632
 C38 C 0.32726 -0.03762 0.09624
 C39 C 0.26725 -0.06795 0.15496
 C40 C 0.29564 -0.04812 0.19387
 N41 N 0.33889 -0.02448 0.18413
 H42 H 0.28432 0.04787 0.24365
 H43 H 0.38801 -0.01031 0.34739
 H44 H 0.34240 0.02634 0.41770
 H45 H 0.23628 0.08531 0.31214
 H46 H 0.38877 0.00096 0.12914
 H47 H 0.34131 -0.03437 0.05865
 H48 H 0.23409 -0.08872 0.16324
 H49 H 0.28407 -0.05311 0.23207
 C50 C 0.46940 0.12947 0.18245
 C51 C 0.46832 -0.13455 0.30752
 C52 C 0.28367 -0.06386 0.10581
 C53 C 0.28555 0.05847 0.37001
 C54 C 0.05133 1.03600 0.80408
 H55 H 0.05005 0.99886 0.81783
 C56 C 0.02408 1.07259 0.82817
 H57 H 0.00102 1.06328 0.85964
 C58 C 0.08638 1.09481 0.74991
 H59 H 0.11215 1.10403 0.72085
 C60 C 0.06023 1.13249 0.77328
 H61 H 0.06553 1.16994 0.76122
 N62 N 0.08209 1.04762 0.76589
 C63 C 0.11779 0.92783 0.66811
 H64 H 0.15075 0.94517 0.65402
 C65 C 0.09831 0.88789 0.64219
 H66 H 0.11539 0.87588 0.60781
 C67 C 0.05683 0.92005 0.73072
 H68 H 0.04089 0.93247 0.76533
 C69 C 0.03690 0.87867 0.70643
 H70 H 0.00537 0.85984 0.72217
 Zn71 Zn 0.12765 0.99984 0.74192
 N72 N 0.09632 0.94420 0.71091
 C73 C 0.16956 0.93024 0.80687
 N74 N 0.16607 0.97899 0.79732
 C75 C 0.18602 1.01289 0.82913
 C76 C 0.20962 0.99804 0.87343
 C77 C 0.19269 0.91389 0.85052
 C78 C 0.14333 1.04191 0.65001
 C79 C 0.16921 1.06077 0.60979
 C80 C 0.24484 1.05617 0.65901
 C81 C 0.21755 1.03608 0.69820
 N82 N 0.16769 1.02945 0.69289
 H83 H 0.15342 0.90394 0.78117
 H84 H 0.18227 1.05149 0.82080
 H85 H 0.22444 1.02517 0.89915
 H86 H 0.19424 0.87490 0.85774
 H87 H 0.10366 1.03624 0.64694
 H88 H 0.14913 1.07056 0.57603
 H89 H 0.28439 1.06213 0.66340
 H90 H 0.23609 1.02575 0.73259
 C91 C 0.05774 0.86284 0.66129
 C92 C 0.02940 1.12148 0.81357
 C93 C 0.22060 1.06796 0.61411
 C94 C 0.21236 0.94810 0.88483
 C95 C 0.53422 0.56548 0.25845
 H96 H 0.51734 0.54026 0.23217
 C97 C 0.50689 0.60571 0.27583
 H98 H 0.46899 0.61119 0.26318
 C99 C 0.60360 0.58932 0.30799
 H100 H 0.64112 0.58248 0.32095
 C101 C 0.57803 0.62996 0.32574
 H102 H 0.59628 0.65398 0.35246
 N103 N 0.58194 0.55845 0.27433
 C104 C 0.58486 0.41012 0.24448
 H105 H 0.60550 0.40402 0.27865
 C106 C 0.56038 0.37073 0.22162
 H107 H 0.56255 0.33472 0.23838
 C108 C 0.55937 0.46323 0.17919
 H109 H 0.56005 0.49918 0.16230
 C110 C 0.53541 0.42459 0.15454
 H111 H 0.51763 0.43073 0.11864
 Zn112 Zn 0.62315 0.50721 0.25057
 N113 N 0.58446 0.45523 0.22281
 C114 C 0.63714 0.46995 0.34680
 N115 N 0.66169 0.48385 0.30507
 C116 C 0.71207 0.48096 0.30248
 C117 C 0.73962 0.46176 0.34250
 C118 C 0.66309 0.45011 0.38729
 C119 C 0.68576 0.57835 0.20925
 C120 C 0.71120 0.60238 0.17148
 C121 C 0.69775 0.53222 0.11783
 C122 C 0.67215 0.50952 0.15663
 N123 N 0.66539 0.53340 0.20082
 H124 H 0.59714 0.47325 0.34805
 H125 H 0.73082 0.49263 0.26905
 H126 H 0.77956 0.45834 0.33977
 H127 H 0.64272 0.43802 0.41964
 H128 H 0.68086 0.59651 0.24466
 H129 H 0.72542 0.63902 0.17786
 H130 H 0.70126 0.51365 0.08224
 H131 H 0.65667 0.47339 0.15090
 C132 C 0.53626 0.37776 0.17555
 C133 C 0.52911 0.63875 0.30935
 C134 C 0.71643 0.57977 0.12501
 C135 C 0.71498 0.44522 0.38500
 C136 C 0.95744 0.45209 0.79801
 H137 H 0.96790 0.48953 0.80644
 C138 C 0.98269 0.41328 0.82105
 H139 H 1.01277 0.42082 0.84710
 C140 C 0.90411 0.39629 0.75582
 H141 H 0.87319 0.38952 0.73085
 C142 C 0.92819 0.35651 0.77813
 H143 H 0.91541 0.31969 0.77006
 N144 N 0.91785 0.44308 0.76733
 C145 C 0.90607 0.59546 0.73316
 H146 H 0.87738 0.60285 0.75995
 C147 C 0.92976 0.63474 0.71012
 H148 H 0.91899 0.67185 0.71950
 C149 C 0.95413 0.53855 0.68725
 H150 H 0.96267 0.50091 0.67780
 C151 C 0.97893 0.57685 0.66345
 H152 H 1.00683 0.56873 0.63577
 Zn153 Zn 0.87742 0.49634 0.74493
 N154 N 0.91738 0.54843 0.72033
 C155 C 0.79968 0.54995 0.78949
 N156 N 0.83904 0.52000 0.79914
 C157 C 0.85319 0.50956 0.84691
 C158 C 0.82945 0.53187 0.88711
 C159 C 0.77473 0.57288 0.82870
 C160 C 0.84419 0.48457 0.64459
 C161 C 0.81701 0.46248 0.60595
 C162 C 0.76721 0.42163 0.66768
 C163 C 0.79542 0.44441 0.70521
 N164 N 0.83416 0.47393 0.69311
 H165 H 0.78901 0.55754 0.75122
 H166 H 0.88399 0.48527 0.85410
 H167 H 0.84238 0.52448 0.92476
 H168 H 0.74466 0.59810 0.82070
 H169 H 0.87454 0.50861 0.63551
 H170 H 0.82698 0.46956 0.56758
 H171 H 0.73801 0.39629 0.67757
 H172 H 0.78798 0.43673 0.74404
 C173 C 0.96585 0.62544 0.67391
 C174 C 0.96717 0.36502 0.81221
 C175 C 0.77889 0.42954 0.61756
 C176 C 0.79045 0.56483 0.87796
 C177 C 0.30037 0.44546 -0.03700
 H178 H 0.30935 0.45113 0.00207
 C179 C 0.32589 0.47143 -0.07350
 H180 H 0.35452 0.49732 -0.06261
 C181 C 0.25387 0.40312 -0.09921
 H182 H 0.22586 0.37652 -0.10925
 C183 C 0.27885 0.42798 -0.13692
 H184 H 0.27008 0.41992 -0.17564
 N185 N 0.26643 0.41078 -0.05041
 C186 C 0.23512 0.41241 0.09862
 H187 H 0.26854 0.39193 0.10653
 C188 C 0.21201 0.43785 0.13729
 H189 H 0.22744 0.43581 0.17473
 C190 C 0.17434 0.44010 0.04070
 H191 H 0.15971 0.44055 0.00291
 C192 C 0.14943 0.46529 0.07853
 H193 H 0.11549 0.48496 0.06997
 Zn194 Zn 0.24163 0.37057 0.00128
 N195 N 0.21488 0.41218 0.05180
 C196 C 0.34201 0.33736 0.01008
 N197 N 0.29511 0.33282 0.02824
 C198 C 0.28574 0.30357 0.06806
 C199 C 0.32483 0.28117 0.09396
 C200 C 0.38219 0.31504 0.03458
 C201 C 0.14371 0.33097 -0.00815
 C202 C 0.10568 0.30517 -0.03244
 C203 C 0.16692 0.26810 -0.08582
 C204 C 0.20382 0.29496 -0.06077
 N205 N 0.19143 0.32741 -0.02422
 H206 H 0.34875 0.35955 -0.02246
 H207 H 0.24813 0.29996 0.08140
 H208 H 0.31734 0.26022 0.12732
 H209 H 0.41951 0.32078 0.02115
 H210 H 0.13453 0.35484 0.02254
 H211 H 0.06768 0.31025 -0.02067
 H212 H 0.17680 0.24426 -0.11658
 H213 H 0.24211 0.29182 -0.07220
 C214 C 0.16768 0.46334 0.12758
 C215 C 0.31631 0.46157 -0.12395
 C216 C 0.11714 0.27446 -0.07282
 C217 C 0.37365 0.28781 0.07794
 C218 C 0.75281 0.04458 1.05401
 H219 H 0.73186 0.02582 1.02513
 C220 C 0.77087 0.01819 1.09513
 H221 H 0.76412 -0.02084 1.09759
 C222 C 0.78896 0.11770 1.08566
 H223 H 0.79612 0.15648 1.08147
 C224 C 0.80745 0.09285 1.12732
 H225 H 0.82929 0.11277 1.15483
 N226 N 0.76189 0.09353 1.05020
 C227 C 0.66654 0.06817 0.95596
 H228 H 0.65084 0.07249 0.99275
 C229 C 0.64024 0.04291 0.91895
 H230 H 0.60426 0.02738 0.92721
 C231 C 0.73112 0.08583 0.89915
 H232 H 0.76588 0.10389 0.89134
 C233 C 0.70610 0.06040 0.86101
 H234 H 0.72180 0.05881 0.82399
 Zn235 Zn 0.73802 0.13093 0.99512
 N236 N 0.71072 0.08960 0.94535
 C237 C 0.83588 0.14280 0.96410
 N238 N 0.79181 0.16674 0.96851
 C239 C 0.78645 0.21399 0.95325
 C240 C 0.82625 0.23855 0.93133
 C241 C 0.87672 0.16619 0.94307
 C242 C 0.67600 0.17587 1.06588
 C243 C 0.63320 0.19906 1.08244
 C244 C 0.61063 0.21650 0.99680
 C245 C 0.65447 0.19317 0.98175
 N246 N 0.68569 0.17271 1.01627
 H247 H 0.83905 0.10518 0.97636
 H248 H 0.75109 0.23228 0.95707
 H249 H 0.82144 0.27571 0.91805
 H250 H 0.91121 0.14626 0.93898
 H251 H 0.70032 0.15874 1.09285
 H252 H 0.62596 0.19984 1.12213
 H253 H 0.58513 0.23111 0.96911
 H254 H 0.66240 0.18931 0.94240
 C255 C 0.65965 0.03948 0.87089
 C256 C 0.79848 0.04235 1.13229
 C257 C 0.59921 0.21873 1.04765
 C258 C 0.87184 0.21455 0.92594
 C259 C 0.28024 0.53053 0.55504
 H260 H 0.26097 0.51326 0.52402
 C261 C 0.30097 0.50174 0.59312
 H262 H 0.29818 0.46219 0.59134
 C263 C 0.30845 0.60300 0.59549
 H264 H 0.31134 0.64256 0.59598
 C265 C 0.32838 0.57591 0.63467
 H266 H 0.34736 0.59473 0.66499
 N267 N 0.28377 0.58027 0.55738
 C268 C 0.17867 0.56425 0.46633
 H269 H 0.16275 0.56648 0.50320
 C270 C 0.15159 0.54303 0.42714
 H271 H 0.11475 0.52871 0.43374
 C272 C 0.24483 0.58294 0.41176
 H273 H 0.28068 0.59964 0.40583
 C274 C 0.21931 0.56136 0.37168
 H275 H 0.23569 0.56164 0.33493
 Zn276 Zn 0.25355 0.62183 0.50949
 N277 N 0.22384 0.58466 0.45774
 C278 C 0.35176 0.65130 0.48998
 N279 N 0.30324 0.66345 0.48212
 C280 C 0.29057 0.70179 0.45216
 C281 C 0.32741 0.72912 0.42839
 C282 C 0.38960 0.67779 0.46731
 C283 C 0.19560 0.65290 0.59138
 C284 C 0.15451 0.67303 0.61480
 C285 C 0.12485 0.70189 0.53480
 C286 C 0.16736 0.68193 0.51277
 N287 N 0.20166 0.65764 0.54117
 H288 H 0.36138 0.61974 0.51227
 H289 H 0.25190 0.71032 0.44551
 H290 H 0.31700 0.75865 0.40347
 H291 H 0.42780 0.66661 0.47307
 H292 H 0.22135 0.63204 0.61364
 H293 H 0.14998 0.66855 0.65468
 H294 H 0.09731 0.72025 0.51183
 H295 H 0.17177 0.68385 0.47273
 C296 C 0.17159 0.54215 0.37918
 C297 C 0.32422 0.52471 0.63392
 C298 C 0.11832 0.69690 0.58648
 C299 C 0.37746 0.71685 0.43555
 C300 C 0.81180 0.96007 0.45580
 H301 H 0.82484 0.96473 0.49387
 C302 C 0.83559 0.98446 0.41698
 H303 H 0.86678 1.00831 0.42523
 C304 C 0.75741 0.92109 0.39791
 H305 H 0.72769 0.89542 0.39047
 C306 C 0.78048 0.94449 0.35792
 H307 H 0.76815 0.93690 0.32007
 N308 N 0.77365 0.92884 0.44569
 C309 C 0.68823 0.90228 0.57971
 H310 H 0.68250 0.86368 0.57239
 C311 C 0.66839 0.92329 0.62235
 H312 H 0.64632 0.90077 0.64684
 C313 C 0.72540 0.97771 0.55708
 H314 H 0.74828 0.99842 0.53184
 C315 C 0.70575 1.00048 0.59959
 H316 H 0.71287 1.03895 0.60669
 Zn317 Zn 0.74740 0.89082 0.49849
 N318 N 0.71692 0.92917 0.54859
 C319 C 0.80604 0.86082 0.57995
 N320 N 0.80008 0.85515 0.52969
 C321 C 0.83237 0.82727 0.50287
 C322 C 0.87247 0.80390 0.52689
 C323 C 0.84467 0.83766 0.60522
 C324 C 0.65332 0.87118 0.46122
 C325 C 0.61308 0.84361 0.44391
 C326 C 0.66381 0.77077 0.45052
 C327 C 0.70295 0.79967 0.46870
 N328 N 0.69714 0.84902 0.47306
 H329 H 0.78146 0.88397 0.60095
 H330 H 0.82748 0.82387 0.46285
 H331 H 0.89830 0.78222 0.50536
 H332 H 0.84893 0.84267 0.64519
 H333 H 0.64973 0.91048 0.46535
 H334 H 0.57878 0.86193 0.43379
 H335 H 0.66891 0.73168 0.44571
 H336 H 0.73795 0.78283 0.47880
 C337 C 0.67771 0.97283 0.63311
 C338 C 0.82051 0.97612 0.36750
 C339 C 0.61836 0.79280 0.43813
 C340 C 0.87851 0.80933 0.57882
 C341 C -0.04130 0.31742 0.44476
 H342 H -0.00420 0.33202 0.44930
 C343 C -0.08076 0.33947 0.46973
 H344 H -0.07387 0.37049 0.49418
 C345 C -0.09641 0.26154 0.40497
 H346 H -0.10255 0.23177 0.37892
 C347 C -0.13704 0.28291 0.42887
 H348 H -0.17407 0.26916 0.42133
 N349 N -0.04969 0.27937 0.41277
 C350 C 0.08843 0.20010 0.38918
 H351 H 0.08083 0.18992 0.35082
 C352 C 0.13062 0.18185 0.41286
 H353 H 0.15514 0.15795 0.39219
 C354 C 0.06422 0.24140 0.46302
 H355 H 0.03813 0.26432 0.48256
 C356 C 0.10612 0.22341 0.48849
 H357 H 0.11194 0.23223 0.52757
 Zn358 Zn 0.00362 0.25444 0.37389
 N359 N 0.05659 0.22998 0.41393
 C360 C 0.07231 0.29624 0.30794
 N361 N 0.02974 0.30527 0.33337
 C362 C 0.00927 0.35093 0.33406
 C363 C 0.03371 0.39023 0.31168
 C364 C 0.09816 0.33449 0.28565
 C365 C -0.02730 0.15815 0.35709
 C366 C -0.04618 0.11826 0.33024
 C367 C -0.04884 0.16893 0.25637
 C368 C -0.02916 0.20772 0.28446
 N369 N -0.01966 0.20185 0.33405
 H370 H 0.08754 0.25977 0.30658
 H371 H -0.02508 0.35741 0.35344
 H372 H 0.01814 0.42671 0.31439
 H373 H 0.13327 0.32732 0.26766
 H374 H -0.01951 0.15465 0.39664
 H375 H -0.05363 0.08422 0.34943
 H376 H -0.05839 0.17432 0.21738
 H377 H -0.02291 0.24289 0.26710
 C378 C 0.14000 0.19370 0.46311
 C379 C -0.12921 0.32277 0.46123
 C380 C -0.05786 0.12386 0.27940
 C381 C 0.07954 0.38212 0.28856
 C382 C 1.05450 0.77102 0.03943
 H383 H 1.02548 0.74783 0.02434
 C384 C 1.09197 0.78804 0.00810
 H385 H 1.09174 0.77821 -0.03112
 C386 C 1.09011 0.81367 0.10832
 H387 H 1.08858 0.82426 0.14725
 C388 C 1.12884 0.83013 0.07887
 H389 H 1.15705 0.85370 0.09517
 N390 N 1.05505 0.78311 0.08886
 C391 C 0.96934 0.68126 0.07737
 H392 H 1.00740 0.66857 0.07864
 C393 C 0.93277 0.65233 0.05469
 H394 H 0.94257 0.61738 0.03823
 C395 C 0.90955 0.74129 0.09909
 H396 H 0.90042 0.77533 0.11753
 C397 C 0.87195 0.71390 0.07590
 H398 H 0.83409 0.72723 0.07647
 Zn399 Zn 1.00845 0.75818 0.13443
 N400 N 0.95718 0.72460 0.09941
 C401 C 0.96498 0.85015 0.14311
 N402 N 0.98274 0.81210 0.17069
 C403 C 0.98350 0.81395 0.22150
 C404 C 0.96469 0.85509 0.24649
 C405 C 0.94582 0.89172 0.16647
 C406 C 1.09107 0.71319 0.18263
 C407 C 1.11653 0.67323 0.20263
 C408 C 1.03825 0.63145 0.21229
 C409 C 1.01410 0.67251 0.19248
 N410 N 1.04082 0.71174 0.17657
 H411 H 0.96548 0.84796 0.10276
 H412 H 0.99839 0.78346 0.24259
 H413 H 0.96455 0.85607 0.28692
 H414 H 0.93114 0.92122 0.14376
 H415 H 1.11213 0.74411 0.16988
 H416 H 1.15667 0.67402 0.20546
 H417 H 1.01674 0.59964 0.22268
 H418 H 0.97425 0.67189 0.18711
 C419 C 0.88360 0.66859 0.05389
 C420 C 1.13032 0.81662 0.02835
 C421 C 1.09030 0.63131 0.21599
 C422 C 0.94527 0.89434 0.21889
 C423 C 0.53911 0.29748 0.54989
 H424 H 0.50053 0.30588 0.54219
 C425 C 0.57631 0.32005 0.52239
 H426 H 0.56647 0.34601 0.49342
 C427 C 0.59934 0.25480 0.59819
 H428 H 0.60825 0.22946 0.62779
 C429 C 0.63779 0.27697 0.57181
 H430 H 0.67600 0.26883 0.58161
 N431 N 0.55114 0.26649 0.58780
 C432 C 0.45971 0.18857 0.54624
 H433 H 0.49824 0.17857 0.54136
 C434 C 0.42292 0.16634 0.51692
 H435 H 0.43298 0.13895 0.48945
 C436 C 0.39907 0.23456 0.58971
 H437 H 0.38980 0.26092 0.61826
 C438 C 0.36110 0.21298 0.56141
 H439 H 0.32287 0.22258 0.56883
 Zn440 Zn 0.49799 0.24278 0.62677
 N441 N 0.44710 0.22069 0.58295
 C442 C 0.48939 0.34050 0.66110
 N443 N 0.47378 0.29361 0.66800
 C444 C 0.43944 0.28252 0.70312
 C445 C 0.41709 0.31980 0.73081
 C446 C 0.46789 0.37885 0.68780
 C447 C 0.50169 0.14425 0.65933
 C448 C 0.52102 0.10465 0.68600
 C449 C 0.57323 0.16101 0.73242
 C450 C 0.55293 0.19958 0.70483
 N451 N 0.51924 0.19036 0.66779
 H452 H 0.51745 0.34855 0.63385
 H453 H 0.42816 0.24483 0.70826
 H454 H 0.38832 0.31099 0.75727
 H455 H 0.47940 0.41614 0.68051
 H456 H 0.47381 0.13771 0.63086
 H457 H 0.50846 0.06792 0.67715
 H458 H 0.60198 0.16825 0.76005
 H459 H 0.56547 0.23673 0.71151
 C460 C 0.37305 0.17742 0.52549
 C461 C 0.62610 0.31070 0.53405
 C462 C 0.55826 0.11295 0.72203
 C463 C 0.43045 0.36855 0.72229
 C464 C 0.46220 0.79179 0.96531
 H465 H 0.50018 0.80199 0.97381
 C466 C 0.42314 0.81546 0.98941
 H467 H 0.43096 0.84396 1.01662
 C468 C 0.40524 0.74494 0.91677
 H469 H 0.39827 0.71818 0.88778
 C470 C 0.36518 0.76773 0.93985
 H471 H 0.32775 0.75834 0.92822
 N472 N 0.45254 0.75885 0.92821
 C473 C 0.60617 0.72961 0.91503
 H474 H 0.61248 0.75527 0.88522
 C475 C 0.64679 0.70831 0.93927
 H476 H 0.68396 0.71776 0.92770
 C477 C 0.55043 0.68491 0.96550
 H478 H 0.51265 0.67529 0.97472
 C479 C 0.59008 0.66284 0.99088
 H480 H 0.58296 0.63619 1.01982
 Zn481 Zn 0.50504 0.73754 0.88714
 N482 N 0.55914 0.71630 0.92720
 C483 C 0.55595 0.78024 0.80693
 N484 N 0.52495 0.79004 0.84550
 C485 C 0.50934 0.83660 0.85507
 C486 C 0.52759 0.87584 0.82745
 C487 C 0.57490 0.81842 0.77823
 C488 C 0.49323 0.63784 0.85870
 C489 C 0.47152 0.59923 0.83204
 C490 C 0.43101 0.65848 0.77852
 C491 C 0.45315 0.69598 0.80639
 N492 N 0.48263 0.68512 0.84639
 H493 H 0.56724 0.74286 0.79960
 H494 H 0.48382 0.84378 0.88497
 H495 H 0.51635 0.91283 0.83680
 H496 H 0.60112 0.81056 0.74887
 H497 H 0.51709 0.62981 0.89021
 H498 H 0.47869 0.56183 0.84343
 H499 H 0.40606 0.66735 0.74788
 H500 H 0.44536 0.73386 0.79738
 C501 C 0.63871 0.67345 0.97672
 C502 C 0.37418 0.80479 0.97524
 C503 C 0.43919 0.60971 0.79212
 C504 C 0.56162 0.86678 0.78924
 N505 N 0.47603 -0.21406 0.34339
 N506 N 0.49250 -0.17063 0.33791
 N507 N 0.97406 0.28178 0.83728
 N508 N 0.98908 0.32600 0.84067
 N509 N 0.01594 1.20460 0.83643
 N510 N 0.00664 1.15925 0.84276
 N511 N 0.52367 0.71218 0.35433
 N512 N 0.50145 0.67954 0.32847
 N513 N 0.50832 0.29563 0.16571
 N514 N 0.51815 0.33719 0.14669
 N515 N 0.01298 0.78786 0.65197
 N516 N 0.03861 0.82224 0.63324
 N517 N 0.97431 0.70886 0.65022
 N518 N 0.98754 0.66422 0.64547
 N519 N 0.47660 0.21400 0.16314
 N520 N 0.49109 0.16997 0.15683
 N521 N 0.34527 0.47111 -0.20669
 N522 N 0.34759 0.48315 -0.16073
 N523 N 0.84118 0.98916 0.28182
 N524 N 0.84908 0.99724 0.32819
 N525 N 0.84644 0.03582 1.20600
 N526 N 0.82057 0.01465 1.17224
 N527 N 0.35147 0.51476 0.71659
 N528 N 0.34588 0.49622 0.67319
 N529 N 0.15890 0.51753 0.29512
 N530 N 0.14124 0.52571 0.33826
 N531 N 0.64452 0.00849 0.78863
 N532 N 0.62936 0.01817 0.83247
 N533 N 0.63500 0.96918 0.70883
 N534 N 0.65732 0.99532 0.67681
 N535 N 0.15697 0.48960 0.21100
 N536 N 0.13877 0.48348 0.16735
 N537 N -0.21502 0.33969 0.47417
 N538 N -0.16947 0.34877 0.48373
 N539 N 0.29058 0.83153 0.97664
 N540 N 0.33516 0.83596 0.99236
 N541 N 1.21233 0.84134 0.01607
 N542 N 1.16929 0.83418 -0.00260
 N543 N 0.70947 0.33626 0.52037
 N544 N 0.66337 0.33879 0.50952
 N545 N 0.28969 0.15287 0.51126
 N546 N 0.33561 0.14845 0.50132
 N547 N 0.80296 0.65358 0.02152
 N548 N 0.84601 0.63757 0.03272
 N549 N 0.72322 0.65068 0.98295
 N550 N 0.67883 0.64596 0.99809
 N551 N 0.21298 0.14694 0.46569
 N552 N 0.18139 0.17255 0.48930
 N553 N 0.57625 0.02864 0.73391
 N554 N 0.58549 0.07340 0.74396
 N555 N 1.09680 0.54782 0.23943
 N556 N 1.11765 0.58860 0.23038
 N557 N 0.90146 0.96927 0.22007
 N558 N 0.92272 0.93495 0.24433
 N559 N 0.41021 0.45181 0.73565
 N560 N 0.40295 0.40687 0.74591
 N561 N 0.41241 0.52739 0.78053
 N562 N 0.41104 0.57223 0.76749
 N563 N -0.09011 0.04338 0.26828
 N564 N -0.08510 0.08711 0.25253
 N565 N 0.09331 0.46520 0.26709
 N566 N 0.10969 0.42168 0.27150
 N567 N 0.57954 0.95079 0.77493
 N568 N 0.58640 0.90580 0.76412
 N569 N 0.74713 0.58917 0.04261
 N570 N 0.73699 0.60755 0.08506
 N571 N 0.23047 1.09035 0.53001
 N572 N 0.24739 1.09068 0.57461
 N573 N 0.23235 0.88743 0.94338
 N574 N 0.23348 0.93255 0.93163
 N575 N 0.71990 0.39691 0.45736
 N576 N 0.74247 0.42081 0.42377
 N577 N 0.76638 0.40283 0.53387
 N578 N 0.75512 0.40017 0.57989
 N579 N 0.27312 -0.09530 0.02292
 N580 N 0.25976 -0.09320 0.06841
 N581 N 0.27564 0.08642 0.45367
 N582 N 0.26150 0.08627 0.40811
 N583 N 0.78473 0.59058 0.96231
 N584 N 0.76857 0.59271 0.91747
 N585 N 0.03639 0.72991 0.58955
 N586 N 0.07551 0.71486 0.61170
 N587 N 0.54263 0.23815 1.11010
 N588 N 0.55227 0.23800 1.06369
 N589 N 0.95512 0.22101 0.89896
 N590 N 0.91124 0.23845 0.89991
 N591 N 0.46081 0.73186 0.41245
 N592 N 0.41471 0.74114 0.40679
 N593 N 0.53556 0.77923 0.41018
 N594 N 0.58012 0.76401 0.41496
 N595 N 0.03322 0.26252 -0.09792
 N596 N 0.07908 0.25241 -0.10325
 N597 N 0.45882 0.26897 0.09619
 N598 N 0.41342 0.27058 0.10915
 N599 N 0.95606 0.76718 0.58671
 N600 N 0.91873 0.78798 0.60636
   
