data_POSCAR
  _audit_creation_date              2014-09-24
  _audit_creation_method            'ToBaCCo'
  _symmetry_space_group_name_H-M    'P1'
  _symmetry_Int_Tables_number       1
  _symmetry_cell_setting            triclinic
  loop_
  _symmetry_equiv_pos_as_xyz
 x,y,z
_cell_length_a 59.0373
_cell_length_b 32.4498
_cell_length_c 20.0002
_cell_angle_alpha 89.973700
_cell_angle_beta 89.865300
_cell_angle_gamma 90.186800
loop_
  _atom_site_label
  _atom_site_type_symbol
  _atom_site_fract_x
  _atom_site_fract_y
  _atom_site_fract_z
C1 C 0.74849 0.24351 0.46906
 C2 C 0.74858 0.24416 0.53725
 C3 C 0.72906 0.26017 0.57635
 C4 C 0.76831 0.22902 0.57598
 C5 C 0.76698 0.22366 0.43032
 C6 C 0.73008 0.26305 0.42984
 C7 C 0.73255 0.29115 0.62425
 C8 C 0.71426 0.30743 0.65988
 C9 C 0.69227 0.29265 0.64840
 C10 C 0.68875 0.26103 0.60175
 C11 C 0.70706 0.24473 0.56619
 C12 C 0.79012 0.24511 0.56462
 C13 C 0.80872 0.22927 0.59913
 C14 C 0.80566 0.19757 0.64582
 C15 C 0.78389 0.18222 0.65871
 C16 C 0.76528 0.19800 0.62417
 C17 C 0.77289 0.18232 0.44171
 C18 C 0.79096 0.16458 0.40691
 C19 C 0.80312 0.18783 0.35990
 C20 C 0.79693 0.22868 0.34709
 C21 C 0.77889 0.24646 0.38191
 C22 C 0.71832 0.23995 0.38171
 C23 C 0.70068 0.25777 0.34540
 C24 C 0.69477 0.29896 0.35644
 C25 C 0.70673 0.32242 0.40339
 C26 C 0.72439 0.30465 0.43968
 H27 H 0.74939 0.30328 0.63307
 H28 H 0.71731 0.33181 0.69585
 H29 H 0.67187 0.24910 0.59242
 H30 H 0.70408 0.22029 0.53039
 H31 H 0.79273 0.26955 0.52851
 H32 H 0.82548 0.24148 0.58902
 H33 H 0.74858 0.18540 0.63386
 H34 H 0.76366 0.16400 0.47799
 H35 H 0.79556 0.13288 0.41699
 H36 H 0.80619 0.24690 0.31072
 H37 H 0.77451 0.27829 0.37218
 H38 H 0.72256 0.20794 0.37310
 H39 H 0.69156 0.23938 0.30908
 H40 H 0.70236 0.35438 0.41209
 H41 H 0.73356 0.32322 0.47562
 H42 H 0.78134 0.15776 0.69485
 C43 C 0.24886 0.74259 0.53361
 C44 C 0.24898 0.74308 0.46541
 C45 C 0.26870 0.72774 0.42658
 C46 C 0.22952 0.75912 0.42636
 C47 C 0.23047 0.76231 0.57287
 C48 C 0.26733 0.72279 0.57230
 C49 C 0.29053 0.74376 0.43751
 C50 C 0.30910 0.72779 0.40281
 C51 C 0.30600 0.69602 0.35636
 C52 C 0.28422 0.68071 0.34394
 C53 C 0.26563 0.69662 0.37867
 C54 C 0.23310 0.78993 0.37810
 C55 C 0.21486 0.80615 0.34242
 C56 C 0.19288 0.79151 0.35418
 C57 C 0.18924 0.76015 0.40115
 C58 C 0.20748 0.74385 0.43683
 C59 C 0.21864 0.73936 0.62126
 C60 C 0.20100 0.75734 0.65756
 C61 C 0.19514 0.79852 0.64624
 C62 C 0.20718 0.82183 0.59905
 C63 C 0.22484 0.80391 0.56277
 C64 C 0.27321 0.68139 0.56118
 C65 C 0.29128 0.66371 0.59583
 C66 C 0.30347 0.68706 0.64241
 C67 C 0.29731 0.72796 0.65498
 C68 C 0.27927 0.74569 0.62032
 H69 H 0.29318 0.76828 0.47340
 H70 H 0.32588 0.73998 0.41257
 H71 H 0.28163 0.65619 0.30798
 H72 H 0.24892 0.68407 0.36930
 H73 H 0.24997 0.80194 0.36903
 H74 H 0.21787 0.83037 0.30614
 H75 H 0.20441 0.71955 0.47290
 H76 H 0.22284 0.70735 0.63006
 H77 H 0.19182 0.73906 0.69405
 H78 H 0.20284 0.85378 0.59012
 H79 H 0.23406 0.82236 0.52662
 H80 H 0.26395 0.66300 0.52521
 H81 H 0.29585 0.63198 0.58594
 H82 H 0.30660 0.74627 0.69102
 H83 H 0.27492 0.77756 0.62983
 H84 H 0.17230 0.74849 0.41046
 C85 C 0.24820 0.25761 -0.46836
 C86 C 0.24854 0.25728 -0.53656
 C87 C 0.26845 0.27267 -0.57484
 C88 C 0.22912 0.24141 -0.57612
 C89 C 0.22959 0.23790 -0.42958
 C90 C 0.26663 0.27730 -0.42918
 C91 C 0.26565 0.30383 -0.62280
 C92 C 0.28439 0.31975 -0.65710
 C93 C 0.30611 0.30442 -0.64420
 C94 C 0.30893 0.27259 -0.59762
 C95 C 0.29019 0.25663 -0.56338
 C96 C 0.20714 0.25680 -0.56613
 C97 C 0.18889 0.24053 -0.60202
 C98 C 0.19247 0.20905 -0.64876
 C99 C 0.21443 0.19435 -0.66013
 C100 C 0.23267 0.21057 -0.62421
 C101 C 0.22375 0.19637 -0.43997
 C102 C 0.20598 0.17838 -0.40386
 C103 C 0.19403 0.20160 -0.35648
 C104 C 0.20008 0.24277 -0.34499
 C105 C 0.21783 0.26076 -0.38115
 C106 C 0.27840 0.25423 -0.38118
 C107 C 0.29647 0.27183 -0.34625
 C108 C 0.30281 0.31275 -0.35855
 C109 C 0.29076 0.33627 -0.40505
 C110 C 0.27266 0.31872 -0.43997
 H111 H 0.24901 0.31640 -0.63258
 H112 H 0.28193 0.34428 -0.69313
 H113 H 0.32561 0.26027 -0.58735
 H114 H 0.29263 0.23207 -0.52746
 H115 H 0.20412 0.28113 -0.53018
 H116 H 0.17201 0.25232 -0.59288
 H117 H 0.24950 0.19848 -0.63288
 H118 H 0.23291 0.17797 -0.47613
 H119 H 0.20156 0.14644 -0.41306
 H120 H 0.19103 0.26108 -0.30840
 H121 H 0.22219 0.29272 -0.37210
 H122 H 0.27392 0.22234 -0.37195
 H123 H 0.30566 0.25340 -0.31026
 H124 H 0.29548 0.36802 -0.41473
 H125 H 0.26352 0.33722 -0.47595
 H126 H 0.21746 0.17005 -0.69620
 C127 C -0.25133 0.75660 -0.46795
 C128 C -0.25158 0.75695 -0.53615
 C129 C -0.23316 0.77688 -0.57535
 C130 C -0.27007 0.73705 -0.57486
 C131 C -0.27076 0.74053 -0.42833
 C132 C -0.23154 0.77218 -0.42966
 C133 C -0.22727 0.81834 -0.56451
 C134 C -0.20915 0.83612 -0.59931
 C135 C -0.19690 0.81275 -0.64581
 C136 C -0.20313 0.77176 -0.65818
 C137 C -0.22122 0.75398 -0.62333
 C138 C -0.28187 0.75982 -0.62321
 C139 C -0.29958 0.74169 -0.65911
 C140 C -0.30555 0.70048 -0.64745
 C141 C -0.29354 0.67736 -0.60021
 C142 C -0.27581 0.69547 -0.56436
 C143 C -0.26717 0.70978 -0.38013
 C144 C -0.28538 0.69352 -0.34390
 C145 C -0.30736 0.70808 -0.35507
 C146 C -0.31099 0.73944 -0.40200
 C147 C -0.29276 0.75575 -0.43820
 C148 C -0.20972 0.75639 -0.44110
 C149 C -0.19111 0.77240 -0.40654
 C150 C -0.19416 0.80398 -0.35973
 C151 C -0.21593 0.81910 -0.34691
 C152 C -0.23454 0.80316 -0.38149
 H153 H -0.23654 0.83671 -0.52854
 H154 H -0.20459 0.86792 -0.58944
 H155 H -0.19384 0.75335 -0.69412
 H156 H -0.22559 0.72204 -0.63260
 H157 H -0.27759 0.79182 -0.63234
 H158 H -0.30867 0.75994 -0.69559
 H159 H -0.26662 0.67715 -0.52826
 H160 H -0.25031 0.69783 -0.37154
 H161 H -0.28232 0.66931 -0.30769
 H162 H -0.32789 0.75112 -0.41099
 H163 H -0.29581 0.78001 -0.47423
 H164 H -0.20711 0.73197 -0.47715
 H165 H -0.17436 0.76034 -0.41661
 H166 H -0.21848 0.84346 -0.31066
 H167 H -0.25124 0.81554 -0.37171
 H168 H -0.29789 0.64539 -0.59088
 O169 O -0.03157 0.92928 0.12286
 O170 O -0.05610 0.96633 0.05734
 C171 C -0.05175 0.94023 0.10450
 O172 O 0.03231 1.07562 0.11823
 O173 O 0.05740 1.03625 0.05805
 C174 C 0.05264 1.06472 0.10115
 O175 O -0.03144 1.07111 0.12317
 O176 O -0.05605 1.03405 0.05753
 C177 C -0.05164 1.06008 0.10479
 O178 O 0.03213 0.92484 0.11738
 O179 O 0.05733 0.96486 0.05805
 C180 C 0.05250 0.93609 0.10074
 Zr181 Zr 0.00047 0.94800 0.08477
 O182 O 0.00236 0.94521 0.19032
 O183 O -0.00080 0.88310 0.07692
 Zr184 Zr 0.00059 1.05246 0.08546
 O185 O 0.00280 1.05283 0.19109
 O186 O -0.00202 1.11752 0.08435
 O187 O -0.01960 1.00016 0.09774
 O188 O 0.02010 1.00025 0.09799
 O189 O 0.03304 0.92515 -0.11453
 O190 O 0.05774 0.96504 -0.05356
 C191 C 0.05326 0.93648 -0.09681
 O192 O -0.03048 1.07194 -0.12238
 O193 O -0.05558 1.03449 -0.05860
 C194 C -0.05081 1.06096 -0.10502
 O195 O 0.03302 1.07591 -0.11557
 O196 O 0.05760 1.03636 -0.05434
 C197 C 0.05320 1.06477 -0.09783
 O198 O -0.03059 0.92894 -0.12271
 O199 O -0.05563 0.96626 -0.05901
 C200 C -0.05091 0.93988 -0.10551
 Zr201 Zr 0.00112 0.94833 -0.08382
 O202 O 0.00403 0.94823 -0.18935
 O203 O -0.00110 0.88322 -0.08279
 Zr204 Zr 0.00120 1.05276 -0.08354
 O205 O 0.00404 1.05338 -0.18906
 O206 O -0.00129 1.11783 -0.08161
 Zr207 Zr -0.03277 1.00034 -0.00016
 Zr208 Zr 0.03456 1.00054 0.00173
 O209 O 0.02083 1.00059 -0.09535
 O210 O -0.01892 1.00050 -0.09740
 O211 O 0.02105 0.94036 0.00107
 O212 O -0.01880 1.06006 0.00052
 O213 O -0.01901 0.94065 0.00001
 O214 O 0.02115 1.06070 0.00151
 H215 H 0.03014 1.00015 0.13761
 H216 H -0.02915 1.08404 0.00046
 H217 H 0.03115 1.00057 -0.13447
 H218 H -0.02941 0.91663 -0.00021
 H219 H 0.01106 1.12836 0.05879
 H220 H 0.01177 1.12848 -0.05590
 H221 H -0.00818 1.03565 -0.20695
 H222 H -0.00835 0.96545 -0.20718
 H223 H 0.00987 0.87322 -0.04919
 H224 H -0.00105 0.87251 0.12339
 H225 H -0.00859 0.96546 0.20809
 H226 H -0.00961 1.03528 0.20846
 O227 O 0.46961 0.42844 0.12302
 O228 O 0.44461 0.46497 0.05828
 C229 C 0.44930 0.43901 0.10540
 O230 O 0.53341 0.57397 0.11503
 O231 O 0.55808 0.53490 0.05286
 C232 C 0.55363 0.56304 0.09680
 O233 O 0.46975 0.57040 0.12218
 O234 O 0.44471 0.53302 0.05850
 C235 C 0.44944 0.55941 0.10497
 O236 O 0.53302 0.42411 0.11516
 O237 O 0.55778 0.46353 0.05343
 C238 C 0.55325 0.43525 0.09719
 Zr239 Zr 0.50131 0.44656 0.08215
 O240 O 0.50230 0.44029 0.18732
 O241 O 0.50032 0.38187 0.07046
 Zr242 Zr 0.50147 0.55116 0.08332
 O243 O 0.50396 0.55132 0.18891
 O244 O 0.49910 0.61626 0.08226
 O245 O 0.48140 0.49881 0.09668
 O246 O 0.52102 0.49889 0.09452
 O247 O 0.53264 0.42404 -0.11880
 O248 O 0.55775 0.46382 -0.05912
 C249 C 0.55298 0.43520 -0.10203
 O250 O 0.46900 0.57038 -0.12306
 O251 O 0.44433 0.53306 -0.05763
 C252 C 0.44878 0.55929 -0.10467
 O253 O 0.53273 0.57490 -0.11831
 O254 O 0.55778 0.53526 -0.05872
 C255 C 0.55305 0.56391 -0.10152
 O256 O 0.46889 0.42836 -0.12389
 O257 O 0.44429 0.46538 -0.05819
 C258 C 0.44869 0.43937 -0.10547
 Zr259 Zr 0.50090 0.44718 -0.08625
 O260 O 0.50321 0.44683 -0.19188
 O261 O 0.49848 0.38208 -0.08499
 Zr262 Zr 0.50098 0.55158 -0.08561
 O263 O 0.50332 0.55246 -0.19124
 O264 O 0.49836 0.61663 -0.08387
 Zr265 Zr 0.46756 0.49911 -0.00044
 Zr266 Zr 0.53490 0.49932 -0.00250
 O267 O 0.52056 0.49947 -0.09878
 O268 O 0.48081 0.49936 -0.09845
 O269 O 0.52142 0.43907 -0.00257
 O270 O 0.48153 0.55883 -0.00052
 O271 O 0.48124 0.43937 -0.00139
 O272 O 0.52147 0.55947 -0.00171
 H273 H 0.53129 0.49892 0.13361
 H274 H 0.47120 0.58283 -0.00024
 H275 H 0.53068 0.49957 -0.13835
 H276 H 0.47075 0.41547 -0.00116
 H277 H 0.51218 0.62698 0.05654
 H278 H 0.51140 0.62737 -0.05816
 H279 H 0.49105 0.53468 -0.20871
 H280 H 0.49099 0.46465 -0.20913
 H281 H 0.51042 0.37181 -0.05464
 H282 H 0.49985 0.37027 0.11627
 H283 H 0.50457 0.46820 0.20580
 H284 H 0.49141 0.53413 0.20652
 C285 C 0.36032 0.35411 0.26227
 C286 C 0.38311 0.34114 0.29237
 C287 C 0.40137 0.35827 0.26102
 C288 C 0.39505 0.38670 0.20264
 C289 C 0.37880 0.41854 0.23282
 C290 C 0.36054 0.40141 0.26417
 C291 C 0.36201 0.34297 0.18785
 C292 C 0.38027 0.36011 0.15650
 C293 C 0.34064 0.33573 0.29602
 C294 C 0.32443 0.32087 0.32393
 C295 C 0.41466 0.40518 0.16869
 C296 C 0.43060 0.42051 0.14019
 H297 H 0.38475 0.32033 0.33460
 H298 H 0.41866 0.35215 0.27638
 H299 H 0.38141 0.45164 0.22983
 H300 H 0.34751 0.41983 0.28803
 H301 H 0.34993 0.32337 0.16204
 H302 H 0.38383 0.35518 0.10383
 C303 C -0.14239 0.86100 0.26045
 C304 C -0.14185 0.90828 0.25866
 C305 C -0.12322 0.92405 0.22734
 C306 C -0.10696 0.89097 0.20090
 C307 C -0.12154 0.86335 0.15583
 C308 C -0.14017 0.84759 0.18715
 C309 C -0.11995 0.84846 0.29320
 C310 C -0.10131 0.86422 0.26188
 C311 C -0.16239 0.84390 0.29419
 C312 C -0.17869 0.82947 0.32217
 C313 C -0.08696 0.90798 0.16706
 C314 C -0.07071 0.92237 0.13880
 H315 H -0.15494 0.92767 0.28009
 H316 H -0.12034 0.95695 0.22194
 H317 H -0.11759 0.85676 0.10388
 H318 H -0.15218 0.82750 0.16204
 H319 H -0.11879 0.82893 0.33715
 H320 H -0.08420 0.85819 0.27898
 C321 C 0.64187 0.64955 0.25362
 C322 C 0.64088 0.66080 0.17910
 C323 C 0.62292 0.64370 0.14644
 C324 C 0.60772 0.61705 0.19152
 C325 C 0.60085 0.64538 0.24951
 C326 C 0.61880 0.66246 0.28214
 C327 C 0.64164 0.60226 0.25541
 C328 C 0.62369 0.58517 0.22277
 C329 C 0.66114 0.66795 0.28905
 C330 C 0.67685 0.68315 0.31867
 C331 C 0.58836 0.59849 0.15674
 C332 C 0.57246 0.58269 0.12894
 H333 H 0.65320 0.68044 0.15419
 H334 H 0.61985 0.64868 0.09355
 H335 H 0.58342 0.65150 0.26368
 H336 H 0.61674 0.68321 0.32428
 H337 H 0.65446 0.58382 0.28010
 H338 H 0.62113 0.55208 0.21950
 C339 C 0.13977 1.15697 0.25465
 C340 C 0.11656 1.17311 0.27718
 C341 C 0.09881 1.15472 0.24544
 C342 C 0.10601 1.12199 0.19429
 C343 C 0.12085 1.09178 0.23362
 C344 C 0.13859 1.11017 0.26535
 C345 C 0.14014 1.16277 0.17846
 C346 C 0.12238 1.14436 0.14671
 C347 C 0.15888 1.17654 0.28910
 C348 C 0.17463 1.19209 0.31801
 C349 C 0.08690 1.10202 0.16043
 C350 C 0.07123 1.08520 0.13311
 H351 H 0.11428 1.19691 0.31471
 H352 H 0.08131 1.16276 0.25579
 H353 H 0.11771 1.05883 0.23629
 H354 H 0.15065 1.09297 0.29519
 H355 H 0.15319 1.17981 0.15181
 H356 H 0.12021 1.14563 0.09285
 C357 C 0.64017 0.34371 -0.25631
 C358 C 0.63994 0.39083 -0.26305
 C359 C 0.62218 0.40904 -0.23119
 C360 C 0.60638 0.37837 -0.19567
 C361 C 0.62182 0.35370 -0.14883
 C362 C 0.63959 0.33547 -0.18072
 C363 C 0.61695 0.32948 -0.28199
 C364 C 0.59918 0.34769 -0.25011
 C365 C 0.65931 0.32431 -0.29089
 C366 C 0.67510 0.30887 -0.31982
 C367 C 0.58726 0.39816 -0.16162
 C368 C 0.57157 0.41485 -0.13415
 H369 H 0.65261 0.40837 -0.29043
 H370 H 0.61965 0.44217 -0.23127
 H371 H 0.61904 0.35080 -0.09535
 H372 H 0.65203 0.31696 -0.15457
 H373 H 0.61466 0.30705 -0.32169
 H374 H 0.58167 0.34087 -0.26250
 C375 C 0.14156 0.84999 -0.25272
 C376 C 0.14047 0.89708 -0.25905
 C377 C 0.12250 0.91411 -0.22653
 C378 C 0.10736 0.88238 -0.19087
 C379 C 0.12338 0.85851 -0.14465
 C380 C 0.14137 0.84147 -0.17720
 C381 C 0.11852 0.83447 -0.27789
 C382 C 0.10054 0.85149 -0.24537
 C383 C 0.16086 0.83170 -0.28805
 C384 C 0.17657 0.81663 -0.31772
 C385 C 0.08799 0.90091 -0.15628
 C386 C 0.07208 0.91674 -0.12867
 H387 H 0.15275 0.91544 -0.28660
 H388 H 0.11938 0.94707 -0.22622
 H389 H 0.12082 0.85529 -0.09112
 H390 H 0.15423 0.82364 -0.15155
 H391 H 0.11651 0.81205 -0.31773
 H392 H 0.08313 0.84366 -0.25735
 C393 C 0.35866 0.63811 -0.26143
 C394 C 0.38124 0.65492 -0.28841
 C395 C 0.39974 0.63927 -0.25682
 C396 C 0.39385 0.60833 -0.20134
 C397 C 0.37913 0.57541 -0.23542
 C398 C 0.36063 0.59108 -0.26703
 C399 C 0.35915 0.64712 -0.18611
 C400 C 0.37765 0.63146 -0.15451
 C401 C 0.33879 0.65511 -0.29548
 C402 C 0.32259 0.66944 -0.32364
 C403 C 0.41373 0.59141 -0.16723
 C404 C 0.42988 0.57710 -0.13888
 H405 H 0.38258 0.67717 -0.32880
 H406 H 0.41693 0.64810 -0.27012
 H407 H 0.38290 0.54269 -0.23477
 H408 H 0.34855 0.57178 -0.29345
 H409 H 0.34611 0.66427 -0.15989
 H410 H 0.38045 0.63520 -0.10122
 C411 C -0.13942 1.14672 -0.25945
 C412 C -0.11666 1.15759 -0.29244
 C413 C -0.09848 1.14030 -0.26149
 C414 C -0.10484 1.11384 -0.20061
 C415 C -0.12197 1.08214 -0.22704
 C416 C -0.14015 1.09943 -0.25798
 C417 C -0.13685 1.15974 -0.18609
 C418 C -0.11867 1.14245 -0.15514
 C419 C -0.15900 1.16523 -0.29281
 C420 C -0.17511 1.18018 -0.32053
 C421 C -0.08533 1.09519 -0.16715
 C422 C -0.06945 1.07968 -0.13914
 H423 H -0.11499 1.17714 -0.33626
 H424 H -0.08122 1.14503 -0.27878
 H425 H -0.11999 1.04903 -0.22192
 H426 H -0.15375 1.08113 -0.27936
 H427 H -0.14830 1.18068 -0.16068
 H428 H -0.11454 1.14858 -0.10321
 C429 C 0.64005 0.65610 -0.25700
 C430 C 0.64055 0.66193 -0.18084
 C431 C 0.62283 0.64356 -0.14854
 C432 C 0.60637 0.62120 -0.19562
 C433 C 0.62114 0.59095 -0.23529
 C434 C 0.63884 0.60930 -0.26755
 C435 C 0.61682 0.67227 -0.27893
 C436 C 0.59911 0.65392 -0.24665
 C437 C 0.65912 0.67563 -0.29203
 C438 C 0.67483 0.69115 -0.32139
 C439 C 0.58731 0.60126 -0.16123
 C440 C 0.57165 0.58443 -0.13362
 H441 H 0.65365 0.67896 -0.15460
 H442 H 0.62075 0.64486 -0.09463
 H443 H 0.61798 0.55801 -0.23778
 H444 H 0.65084 0.59207 -0.29768
 H445 H 0.61449 0.69605 -0.31646
 H446 H 0.58160 0.66198 -0.25653
 C447 C 0.14146 1.15097 -0.25632
 C448 C 0.14158 1.15941 -0.18078
 C449 C 0.12362 1.14240 -0.14768
 C450 C 0.10732 1.11864 -0.19340
 C451 C 0.12217 1.08690 -0.22959
 C452 C 0.14012 1.10389 -0.26266
 C453 C 0.11840 1.16661 -0.28072
 C454 C 0.10045 1.14962 -0.24765
 C455 C 0.16072 1.16926 -0.29222
 C456 C 0.17643 1.18437 -0.32221
 C457 C 0.08797 1.10017 -0.15819
 C458 C 0.07206 1.08441 -0.13013
 H459 H 0.15462 1.17716 -0.15552
 H460 H 0.12128 1.14557 -0.09407
 H461 H 0.11890 1.05395 -0.22921
 H462 H 0.15220 1.08552 -0.29062
 H463 H 0.11634 1.18908 -0.32048
 H464 H 0.08303 1.15753 -0.25907
 C465 C 0.35824 0.36121 -0.26237
 C466 C 0.38075 0.34644 -0.29239
 C467 C 0.39935 0.36195 -0.26083
 C468 C 0.39360 0.39070 -0.20235
 C469 C 0.37807 0.36525 -0.15644
 C470 C 0.35947 0.34974 -0.18800
 C471 C 0.35964 0.40844 -0.26403
 C472 C 0.37824 0.42396 -0.23246
 C473 C 0.33828 0.34439 -0.29636
 C474 C 0.32201 0.33019 -0.32452
 C475 C 0.41355 0.40746 -0.16828
 C476 C 0.42976 0.42166 -0.13986
 H477 H 0.38198 0.32564 -0.33473
 H478 H 0.41650 0.35444 -0.27611
 H479 H 0.38137 0.35990 -0.10377
 H480 H 0.34685 0.33110 -0.16238
 H481 H 0.34713 0.42798 -0.28787
 H482 H 0.38166 0.45679 -0.22926
 C483 C -0.13935 0.85463 -0.26313
 C484 C -0.11643 0.84131 -0.29218
 C485 C -0.09830 0.85849 -0.26045
 C486 C -0.10489 0.88730 -0.20279
 C487 C -0.11999 0.86109 -0.15675
 C488 C -0.13811 0.84391 -0.18847
 C489 C -0.13900 0.90191 -0.26582
 C490 C -0.12089 0.91909 -0.23409
 C491 C -0.15887 0.83622 -0.29732
 C492 C -0.17494 0.82134 -0.32560
 C493 C -0.08543 0.90584 -0.16854
 C494 C -0.06956 0.92125 -0.14001
 H495 H -0.11459 0.82025 -0.33399
 H496 H -0.08094 0.85215 -0.27508
 H497 H -0.11675 0.85645 -0.10387
 H498 H -0.15038 0.82455 -0.16278
 H499 H -0.15186 0.92029 -0.29046
 H500 H -0.11822 0.95218 -0.23156
 C501 C 0.36084 0.64503 0.26076
 C502 C 0.38372 0.65844 0.29009
 C503 C 0.40188 0.64115 0.25883
 C504 C 0.39539 0.61216 0.20132
 C505 C 0.38055 0.63821 0.15478
 C506 C 0.36238 0.65550 0.18604
 C507 C 0.36100 0.59776 0.26388
 C508 C 0.37917 0.58047 0.23262
 C509 C 0.34129 0.66357 0.29445
 C510 C 0.32521 0.67855 0.32243
 C511 C 0.41489 0.59352 0.16755
 C512 C 0.43078 0.57805 0.13931
 H513 H 0.38548 0.67965 0.33174
 H514 H 0.41922 0.64754 0.27370
 H515 H 0.38400 0.64268 0.10192
 H516 H 0.35027 0.67478 0.15997
 H517 H 0.34799 0.57947 0.28846
 H518 H 0.38172 0.54737 0.23043
 C519 C -0.14175 1.13875 0.26296
 C520 C -0.11913 1.15307 0.29289
 C521 C -0.10064 1.13740 0.26099
 C522 C -0.10659 1.10895 0.20228
 C523 C -0.12190 1.13480 0.15678
 C524 C -0.14038 1.15047 0.18869
 C525 C -0.14072 1.09149 0.26414
 C526 C -0.12223 1.07582 0.23222
 C527 C -0.16160 1.15577 0.29732
 C528 C -0.17778 1.17014 0.32572
 C529 C -0.08673 1.09205 0.16785
 C530 C -0.07056 1.07778 0.13926
 H531 H -0.11775 1.17370 0.33542
 H532 H -0.08344 1.14461 0.27618
 H533 H -0.11852 1.14030 0.10413
 H534 H -0.15284 1.16938 0.16337
 H535 H -0.15339 1.07205 0.28791
 H536 H -0.11907 1.04294 0.22867
 C537 C 0.64131 0.34994 0.25487
 C538 C 0.61825 0.33803 0.28493
 C539 C 0.60032 0.35484 0.25212
 C540 C 0.60720 0.38192 0.19245
 C541 C 0.62194 0.35413 0.14818
 C542 C 0.63988 0.33730 0.18102
 C543 C 0.64154 0.39723 0.25423
 C544 C 0.62361 0.41405 0.22141
 C545 C 0.66055 0.33185 0.29048
 C546 C 0.67623 0.31693 0.32029
 C547 C 0.58788 0.40019 0.15750
 C548 C 0.57202 0.41580 0.12954
 H549 H 0.61619 0.31813 0.32819
 H550 H 0.58290 0.34935 0.26726
 H551 H 0.61858 0.34821 0.09569
 H552 H 0.65191 0.31695 0.15667
 H553 H 0.65464 0.41587 0.27746
 H554 H 0.62135 0.44711 0.21653
 C555 C 0.13931 0.84428 0.25530
 C556 C 0.11602 0.82888 0.27896
 C557 C 0.09834 0.84716 0.24696
 C558 C 0.10568 0.87907 0.19444
 C559 C 0.12172 0.85577 0.14732
 C560 C 0.13941 0.83748 0.17933
 C561 C 0.13858 0.89124 0.26428
 C562 C 0.12091 0.90952 0.23231
 C563 C 0.15835 0.82482 0.29001
 C564 C 0.17405 0.80933 0.31903
 C565 C 0.08665 0.89894 0.16029
 C566 C 0.07103 0.91567 0.13280
 H567 H 0.11363 0.80564 0.31742
 H568 H 0.08080 0.83958 0.25802
 H569 H 0.11940 0.85382 0.09358
 H570 H 0.15223 0.81985 0.15300
 H571 H 0.15087 0.90862 0.29320
 H572 H 0.11807 0.94255 0.23383
   
