data_POSCAR
  _audit_creation_date              2014-09-24
  _audit_creation_method            'ToBaCCo'
  _symmetry_space_group_name_H-M    'P1'
  _symmetry_Int_Tables_number       1
  _symmetry_cell_setting            triclinic
  loop_
  _symmetry_equiv_pos_as_xyz
 x,y,z
_cell_length_a 24.2251
_cell_length_b 24.5621
_cell_length_c 29.9114
_cell_angle_alpha 89.874400
_cell_angle_beta 90.727200
_cell_angle_gamma 90.160000
loop_
  _atom_site_label
  _atom_site_type_symbol
  _atom_site_fract_x
  _atom_site_fract_y
  _atom_site_fract_z
B1 B 0.28370 0.22992 0.21038
 B2 B 0.29805 0.29130 0.23145
 B3 B 0.23639 0.28011 0.20765
 B4 B 0.21665 0.21583 0.21932
 B5 B 0.26738 0.18758 0.25214
 B6 B 0.31847 0.23510 0.25916
 B7 B 0.22464 0.27520 0.29613
 B8 B 0.21038 0.21388 0.27509
 B9 B 0.27201 0.22534 0.29914
 B10 B 0.29183 0.28950 0.28731
 B11 B 0.24106 0.31771 0.25451
 B12 B 0.19001 0.27013 0.24739
 B13 B 0.72234 0.76922 0.29822
 B14 B 0.79019 0.76585 0.28885
 B15 B 0.75327 0.70865 0.29423
 B16 B 0.69024 0.71773 0.27070
 B17 B 0.68965 0.78254 0.24986
 B18 B 0.75185 0.81271 0.26164
 B19 B 0.77012 0.72536 0.20711
 B20 B 0.70231 0.72914 0.21606
 B21 B 0.73911 0.78633 0.21082
 B22 B 0.80203 0.77715 0.23432
 B23 B 0.80267 0.71239 0.25526
 B24 B 0.74038 0.68217 0.24352
 B25 B 0.71704 0.23462 -0.20796
 B26 B 0.72712 0.30006 -0.22163
 B27 B 0.78119 0.26100 -0.20778
 B28 B 0.77010 0.19730 -0.22746
 B29 B 0.70761 0.19858 -0.25486
 B30 B 0.68060 0.26268 -0.25067
 B31 B 0.77724 0.26926 -0.29695
 B32 B 0.76683 0.20396 -0.28343
 B33 B 0.71290 0.24340 -0.29743
 B34 B 0.72402 0.30682 -0.27763
 B35 B 0.78625 0.30544 -0.25031
 B36 B 0.81333 0.24140 -0.25431
 B37 B 0.26605 0.77774 -0.20593
 B38 B 0.27302 0.71056 -0.21172
 B39 B 0.20991 0.73838 -0.21417
 B40 B 0.21411 0.80003 -0.23945
 B41 B 0.28167 0.80895 -0.25395
 B42 B 0.31845 0.75310 -0.23626
 B43 B 0.24174 0.71975 -0.29785
 B44 B 0.23486 0.78703 -0.29192
 B45 B 0.29804 0.75890 -0.28977
 B46 B 0.29385 0.69735 -0.26428
 B47 B 0.22634 0.68849 -0.24981
 B48 B 0.18953 0.74437 -0.26745
 B49 B 1.24678 1.29136 0.70575
 B50 B 1.20986 1.23416 0.71113
 B51 B 1.27771 1.23079 0.70176
 B52 B 1.30981 1.28228 0.72928
 B53 B 1.25967 1.31784 0.75646
 B54 B 1.19738 1.28762 0.74472
 B55 B 1.26094 1.21368 0.78916
 B56 B 1.29774 1.27087 0.78392
 B57 B 1.22993 1.27464 0.79287
 B58 B 1.19802 1.22286 0.76566
 B59 B 1.24820 1.18730 0.73834
 B60 B 1.31040 1.21747 0.75012
 B61 B 0.76366 0.71990 0.79233
 B62 B 0.70200 0.70871 0.76853
 B63 B 0.71635 0.77009 0.78960
 B64 B 0.78340 0.78418 0.78066
 B65 B 0.81004 0.72988 0.75259
 B66 B 0.75899 0.68230 0.74547
 B67 B 0.72804 0.77466 0.70084
 B68 B 0.78967 0.78613 0.72489
 B69 B 0.77541 0.72480 0.70385
 B70 B 0.70822 0.71051 0.71267
 B71 B 0.68158 0.76490 0.74082
 B72 B 0.73267 0.81243 0.74784
 B73 B 1.22281 0.73074 0.29693
 B74 B 1.23322 0.79604 0.28341
 B75 B 1.28715 0.75661 0.29741
 B76 B 1.27603 0.69319 0.27761
 B77 B 1.21380 0.69457 0.25029
 B78 B 1.18672 0.75861 0.25429
 B79 B 1.28301 0.76538 0.20794
 B80 B 1.27293 0.69995 0.22161
 B81 B 1.21886 0.73901 0.20776
 B82 B 1.22995 0.80271 0.22743
 B83 B 1.29244 0.80142 0.25484
 B84 B 1.31945 0.73733 0.25065
 B85 B 0.79014 1.26163 0.21415
 B86 B 0.72703 1.28945 0.21170
 B87 B 0.73400 1.22226 0.20591
 B88 B 0.78594 1.19998 0.23943
 B89 B 0.81052 1.25564 0.26743
 B90 B 0.77371 1.31152 0.24979
 B91 B 0.70201 1.24111 0.28975
 B92 B 0.76519 1.21298 0.29190
 B93 B 0.75831 1.28026 0.29782
 B94 B 0.70620 1.30266 0.26425
 B95 B 0.68160 1.24691 0.23624
 B96 B 0.71838 1.19106 0.25392
 N97 N 0.60145 1.05718 0.04188
 N98 N 0.64260 1.09146 0.04819
 N99 N 0.57000 0.94220 0.07557
 N100 N 0.59235 0.91385 0.10878
 N101 N 0.60361 0.94353 0.04128
 N102 N 0.64921 0.91614 0.05038
 N103 N 0.56860 1.05617 0.07656
 N104 N 0.58729 1.08979 0.10783
 C105 C 0.63282 1.11200 0.08892
 C106 C 0.64108 0.89710 0.09203
 N107 N 0.40954 0.94019 0.05275
 N108 N 0.37367 0.90084 0.05988
 N109 N 0.44852 1.05416 0.08460
 N110 N 0.43983 1.09140 0.11568
 N111 N 0.40861 1.05485 0.05445
 N112 N 0.37235 1.09298 0.06335
 N113 N 0.44932 0.93962 0.08302
 N114 N 0.44058 0.90015 0.11256
 Mn115 Mn 0.50909 0.99800 0.08049
 C116 C 0.39343 0.87616 0.09698
 C117 C 0.39228 1.11515 0.10146
 N118 N 0.59144 0.94516 -0.05447
 N119 N 0.62770 0.90703 -0.06337
 N120 N 0.55073 1.06039 -0.08304
 N121 N 0.55947 1.09986 -0.11258
 N122 N 0.59051 1.05982 -0.05278
 N123 N 0.62638 1.09917 -0.05990
 N124 N 0.55153 0.94585 -0.08463
 N125 N 0.56022 0.90861 -0.11570
 Mn126 Mn 0.59673 1.00129 -0.00619
 C127 C 0.60777 0.88486 -0.10148
 C128 C 0.60662 1.12385 -0.09700
 N129 N 0.39644 1.05648 -0.04130
 N130 N 0.35084 1.08387 -0.05040
 N131 N 0.43145 0.94384 -0.07658
 N132 N 0.41276 0.91022 -0.10786
 N133 N 0.39860 0.94283 -0.04191
 N134 N 0.35745 0.90855 -0.04821
 N135 N 0.43005 1.05781 -0.07559
 N136 N 0.40770 1.08616 -0.10880
 Mn137 Mn 0.40332 0.99872 0.00617
 Mn138 Mn 0.49096 1.00201 -0.08051
 Cl139 Cl 0.50003 1.00000 -0.00001
 C140 C 0.35897 1.10291 -0.09205
 C141 C 0.36723 0.88801 -0.08894
 N142 N 1.10041 0.55954 0.54048
 N143 N 1.14145 0.59403 0.54599
 N144 N 1.07254 0.44406 0.57488
 N145 N 1.09645 0.41601 0.60751
 N146 N 1.10497 0.44600 0.53990
 N147 N 1.15112 0.41914 0.54771
 N148 N 1.06894 0.55773 0.57593
 N149 N 1.08885 0.59078 0.60717
 C150 C 1.13333 0.61371 0.58716
 C151 C 1.14473 0.39998 0.58945
 N152 N 0.91226 0.43860 0.55329
 N153 N 0.87758 0.39826 0.55995
 N154 N 0.94889 0.55339 0.58476
 N155 N 0.94028 0.59212 0.61458
 N156 N 0.90880 0.55261 0.55480
 N157 N 0.87252 0.59095 0.56241
 N158 N 0.95207 0.43888 0.58349
 N159 N 0.94446 0.39884 0.61270
 Mn160 Mn 1.01057 0.49848 0.58049
 C161 C 0.89808 0.37375 0.59671
 C162 C 0.89257 0.61494 0.59955
 N163 N 1.09125 0.44740 0.44518
 N164 N 1.12753 0.40905 0.43757
 N165 N 1.04798 0.56113 0.41649
 N166 N 1.05559 0.60116 0.38728
 N167 N 1.08779 0.56141 0.44669
 N168 N 1.12247 0.60175 0.44003
 N169 N 1.05116 0.44662 0.41522
 N170 N 1.05977 0.40789 0.38540
 Mn171 Mn 1.09602 0.50348 0.49288
 C172 C 1.10748 0.38506 0.40043
 C173 C 1.10197 0.62625 0.40327
 N174 N 0.89508 0.55401 0.46008
 N175 N 0.84893 0.58087 0.45227
 N176 N 0.93111 0.44228 0.42405
 N177 N 0.91120 0.40923 0.39281
 N178 N 0.89964 0.44047 0.45950
 N179 N 0.85860 0.40598 0.45399
 N180 N 0.92751 0.55594 0.42510
 N181 N 0.90360 0.58400 0.39247
 Mn182 Mn 0.90403 0.49653 0.50710
 Mn183 Mn 0.98948 0.50153 0.41949
 Cl184 Cl 1.00003 0.50000 0.49999
 C185 C 0.85532 0.60003 0.41053
 C186 C 0.86672 0.38630 0.41282
 N187 N 0.93487 0.59008 0.04643
 N188 N 0.89663 0.62684 0.05318
 N189 N 1.05465 0.56814 0.07853
 N190 N 1.08673 0.58944 0.11026
 N191 N 1.05015 0.60232 0.04473
 N192 N 1.07920 0.64691 0.05215
 N193 N 0.93931 0.55663 0.08065
 N194 N 0.90455 0.57128 0.11250
 C195 C 0.87761 0.61458 0.09393
 C196 C 1.10231 0.63812 0.09263
 N197 N 1.06872 0.41349 0.04774
 N198 N 1.10830 0.37803 0.05416
 N199 N 0.95138 0.43648 0.08337
 N200 N 0.92435 0.41559 0.11788
 N201 N 0.95395 0.40028 0.05103
 N202 N 0.92894 0.35475 0.06244
 N203 N 1.06671 0.44862 0.08075
 N204 N 1.10475 0.43646 0.11159
 Mn205 Mn 1.00300 0.50249 0.08152
 C206 C 1.13084 0.39287 0.09344
 C207 C 0.90980 0.36492 0.10355
 N208 N 1.04610 0.59972 -0.05105
 N209 N 1.07111 0.64526 -0.06246
 N210 N 0.93334 0.55139 -0.08077
 N211 N 0.89530 0.56355 -0.11161
 N212 N 0.93133 0.58652 -0.04776
 N213 N 0.89175 0.62198 -0.05418
 N214 N 1.04867 0.56353 -0.08339
 N215 N 1.07570 0.58442 -0.11790
 Mn216 Mn 0.99078 0.59434 -0.00191
 C217 C 1.09025 0.63509 -0.10357
 C218 C 0.86921 0.60714 -0.09346
 N219 N 0.94990 0.39769 -0.04475
 N220 N 0.92085 0.35310 -0.05217
 N221 N 1.06074 0.44338 -0.08067
 N222 N 1.09550 0.42872 -0.11252
 N223 N 1.06518 0.40993 -0.04645
 N224 N 1.10342 0.37317 -0.05320
 N225 N 0.94540 0.43187 -0.07855
 N226 N 0.91332 0.41057 -0.11028
 Mn227 Mn 1.00927 0.40567 0.00189
 Mn228 Mn 0.99705 0.49752 -0.08154
 Cl229 Cl 1.00003 0.50000 -0.00001
 C230 C 0.89774 0.36189 -0.09265
 C231 C 1.12244 0.38543 -0.09395
 N232 N 0.58955 1.07560 0.54194
 N233 N 0.62161 1.11878 0.54725
 N234 N 0.57272 0.95898 0.57965
 N235 N 0.58836 0.92161 0.60886
 N236 N 0.60769 0.96206 0.54647
 N237 N 0.64756 0.92601 0.55161
 N238 N 0.55474 1.07133 0.57517
 N239 N 0.56296 1.11094 0.60443
 C240 C 0.60400 1.14068 0.58598
 C241 C 0.63491 0.90168 0.59072
 N242 N 0.41637 0.93073 0.55419
 N243 N 0.38799 0.88617 0.56349
 N244 N 0.43680 1.05241 0.57973
 N245 N 0.42376 1.09256 0.60694
 N246 N 0.39778 1.04476 0.54946
 N247 N 0.35743 1.08022 0.55469
 N248 N 0.45487 0.93941 0.58473
 N249 N 0.45294 0.90155 0.61629
 Mn250 Mn 0.50482 1.00557 0.58027
 C251 C 0.41150 0.86838 0.60208
 C252 C 0.37437 1.10955 0.59062
 N253 N 0.60227 0.95524 0.45052
 N254 N 0.64262 0.91979 0.44529
 N255 N 0.54518 1.06060 0.41525
 N256 N 0.54711 1.09846 0.38369
 N257 N 0.58368 1.06928 0.44579
 N258 N 0.61206 1.11383 0.43649
 N259 N 0.56325 0.94760 0.42025
 N260 N 0.57629 0.90744 0.39304
 Mn261 Mn 0.59638 1.01564 0.49616
 C262 C 0.62568 0.89046 0.40936
 C263 C 0.58855 1.13163 0.39790
 N264 N 0.39236 1.03795 0.45351
 N265 N 0.35249 1.07399 0.44837
 N266 N 0.44531 0.92868 0.42481
 N267 N 0.43709 0.88907 0.39555
 N268 N 0.41050 0.92440 0.45804
 N269 N 0.37844 0.88123 0.45273
 N270 N 0.42733 1.04103 0.42033
 N271 N 0.41169 1.07839 0.39112
 Mn272 Mn 0.40367 0.98437 0.50382
 Mn273 Mn 0.49523 0.99444 0.41971
 Cl274 Cl 0.50003 1.00000 0.49999
 C275 C 0.36514 1.09833 0.40926
 C276 C 0.39605 0.85933 0.41400
 N277 N 1.08644 1.08328 0.54013
 N278 N 1.12001 1.12418 0.55067
 N279 N 1.07686 0.96783 0.57934
 N280 N 1.09478 0.93400 0.61069
 N281 N 1.11261 0.97205 0.54689
 N282 N 1.15599 0.94086 0.55512
 N283 N 1.04812 1.07824 0.57061
 N284 N 1.05317 1.11599 0.60145
 C285 C 1.09719 1.14477 0.58825
 C286 C 1.14405 0.91757 0.59507
 N287 N 0.92101 0.92849 0.55811
 N288 N 0.88777 0.89397 0.57874
 N289 N 0.93415 1.05122 0.57739
 N290 N 0.91595 1.08198 0.61020
 N291 N 0.89354 1.03796 0.54987
 N292 N 0.84651 1.05852 0.56394
 N293 N 0.96311 0.94091 0.58452
 N294 N 0.96067 0.91422 0.62244
 Mn295 Mn 1.00560 1.00963 0.57789
 C296 C 0.91441 0.88470 0.61821
 C297 C 0.86161 1.08700 0.60080
 N298 N 1.10651 0.96205 0.45011
 N299 N 1.15354 0.94148 0.43604
 N300 N 1.03694 1.05910 0.41546
 N301 N 1.03938 1.08579 0.37754
 N302 N 1.07904 1.07152 0.44187
 N303 N 1.11228 1.10604 0.42124
 N304 N 1.06590 0.94879 0.42259
 N305 N 1.08410 0.91803 0.38978
 Mn306 Mn 1.09675 1.02252 0.49480
 C307 C 1.13844 0.91301 0.39918
 C308 C 1.08564 1.11531 0.38177
 N309 N 0.88744 1.02795 0.45309
 N310 N 0.84406 1.05915 0.44486
 N311 N 0.95193 0.92177 0.42937
 N312 N 0.94688 0.88402 0.39852
 N313 N 0.91361 0.91673 0.45985
 N314 N 0.88004 0.87583 0.44931
 N315 N 0.92319 1.03217 0.42064
 N316 N 0.90527 1.06601 0.38929
 Mn317 Mn 0.90330 0.97749 0.50518
 Mn318 Mn 0.99445 0.99038 0.42209
 Cl319 Cl 1.00003 1.00000 0.49999
 C320 C 0.85600 1.08243 0.40491
 C321 C 0.90286 0.85523 0.41172
 N322 N 0.58578 0.58597 0.03837
 N323 N 0.61960 0.62646 0.04975
 N324 N 0.57734 0.47244 0.07975
 N325 N 0.59442 0.43921 0.11171
 N326 N 0.61323 0.47526 0.04732
 N327 N 0.65589 0.44327 0.05615
 N328 N 0.54640 0.58163 0.06799
 N329 N 0.55059 0.61956 0.09863
 C330 C 0.59539 0.64770 0.08661
 C331 C 0.64336 0.42153 0.09662
 N332 N 0.42240 0.42939 0.05993
 N333 N 0.39065 0.39458 0.08174
 N334 N 0.43401 0.55322 0.07557
 N335 N 0.41643 0.58438 0.10822
 N336 N 0.39274 0.53783 0.04954
 N337 N 0.34565 0.55692 0.06499
 N338 N 0.46469 0.44362 0.08548
 N339 N 0.46412 0.41781 0.12382
 Mn340 Mn 0.50562 0.51277 0.07702
 C341 C 0.41866 0.38704 0.12089
 C342 C 0.36167 0.58720 0.10069
 N343 N 0.60731 0.46218 -0.04956
 N344 N 0.65440 0.44309 -0.06501
 N345 N 0.53536 0.55639 -0.08550
 N346 N 0.53593 0.58219 -0.12384
 N347 N 0.57765 0.57062 -0.05995
 N348 N 0.60940 0.60543 -0.08176
 N349 N 0.56604 0.44679 -0.07559
 N350 N 0.58362 0.41563 -0.10824
 Mn351 Mn 0.59677 0.52383 -0.00594
 C352 C 0.63838 0.41281 -0.10072
 C353 C 0.58139 0.61297 -0.12092
 N354 N 0.38682 0.52475 -0.04734
 N355 N 0.34416 0.55674 -0.05617
 N356 N 0.45365 0.41838 -0.06802
 N357 N 0.44946 0.38045 -0.09865
 N358 N 0.41427 0.41404 -0.03839
 N359 N 0.38045 0.37354 -0.04977
 N360 N 0.42271 0.52757 -0.07977
 N361 N 0.40563 0.56080 -0.11174
 Mn362 Mn 0.40328 0.47618 0.00592
 Mn363 Mn 0.49443 0.48724 -0.07704
 Cl364 Cl 0.50002 0.50000 -0.00001
 C365 C 0.35669 0.57848 -0.09664
 C366 C 0.40466 0.35231 -0.08663
 N367 N 0.34356 1.20045 0.10053
 N368 N 0.31376 1.23080 0.12742
 C369 C 0.31578 1.20776 0.16830
 C370 C 0.34944 1.16234 0.16573
 N371 N 0.36580 1.15951 0.12297
 H372 H 0.35865 1.13283 0.19169
 N373 N 0.84063 0.69785 0.59617
 N374 N 0.80707 0.72609 0.62159
 C375 C 0.80872 0.70350 0.66259
 C376 C 0.84597 0.66095 0.66181
 N377 N 0.86500 0.65917 0.61988
 H378 H 0.85591 0.63241 0.68833
 N379 N 0.73320 0.85911 0.10336
 N380 N 0.76138 0.83142 0.13414
 C381 C 0.72765 0.82464 0.16927
 C382 C 0.67812 0.84988 0.15912
 N383 N 0.68295 0.86994 0.11770
 H384 H 0.64117 0.85130 0.17906
 N385 N 1.23658 0.36049 0.59741
 N386 N 1.26611 0.33323 0.62760
 C387 C 1.23478 0.32923 0.66442
 C388 C 1.18541 0.35532 0.65590
 N389 N 1.18784 0.37335 0.61383
 H390 H 1.14978 0.35814 0.67727
 N391 N 0.66695 1.20268 -0.09525
 N392 N 0.69733 1.23222 -0.12276
 C393 C 0.68535 1.21533 -0.16460
 C394 C 0.64555 1.17465 -0.16165
 N395 N 0.63526 1.16813 -0.11788
 H396 H 0.62903 1.14950 -0.18835
 N397 N 1.15676 0.70854 0.40554
 N398 N 1.19135 0.73561 0.37967
 C399 C 1.18816 0.71266 0.33887
 C400 C 1.14901 0.67143 0.34043
 N401 N 1.13027 0.67044 0.38245
 H402 H 1.13796 0.64268 0.31440
 N403 N 0.28258 0.83499 -0.09345
 N404 N 0.25361 0.80646 -0.12312
 C405 C 0.28251 0.80724 -0.16129
 C406 C 0.33030 0.83685 -0.15399
 N407 N 0.32874 0.85325 -0.11143
 H408 H 0.36279 0.84594 -0.17743
 N409 N 0.78411 0.33030 0.41143
 N410 N 0.75289 0.30319 0.38238
 C411 C 0.77662 0.30916 0.34220
 C412 C 0.82390 0.34012 0.34767
 N413 N 0.82705 0.35223 0.39113
 H414 H 0.85333 0.35232 0.32257
 N415 N 1.19067 0.31566 0.09454
 N416 N 1.21753 0.28405 0.12302
 C417 C 1.21492 0.30785 0.16333
 C418 C 1.18445 0.35545 0.15869
 N419 N 1.17047 0.35866 0.11513
 H420 H 1.17066 0.38258 0.18471
 N421 N 0.68981 0.81933 0.58698
 N422 N 0.71416 0.78445 0.61461
 C423 C 0.70657 0.80287 0.65652
 C424 C 0.67522 0.84958 0.65371
 N425 N 0.66622 0.85853 0.61002
 H426 H 0.66056 0.87475 0.68074
 N427 N 1.11630 0.72887 -0.11853
 N428 N 1.14620 0.75800 -0.14671
 C429 C 1.16543 0.72329 -0.17756
 C430 C 1.14532 0.67155 -0.16748
 N431 N 1.11544 0.67687 -0.13022
 H432 H 1.15460 0.63345 -0.18384
 N433 N 0.61880 1.22600 0.39132
 N434 N 0.64783 1.25672 0.36359
 C435 C 0.65744 1.22671 0.32680
 C436 C 0.63193 1.17653 0.33286
 N437 N 0.60859 1.17775 0.37338
 H438 H 0.63524 1.14072 0.31204
 N439 N 0.81033 0.68682 0.09357
 N440 N 0.78277 0.71799 0.12148
 C441 C 0.79450 0.70006 0.16306
 C442 C 0.82996 0.65588 0.15954
 N443 N 0.83865 0.64911 0.11561
 H444 H 0.84880 0.63231 0.18624
 N445 N 0.30522 1.18143 0.58797
 N446 N 0.27982 1.21487 0.61565
 C447 C 0.30166 1.20661 0.65684
 C448 C 0.34199 1.16709 0.65320
 N449 N 0.34266 1.15242 0.60994
 H450 H 0.36602 1.14842 0.67984
 N451 N 0.84804 0.27548 -0.09706
 N452 N 0.81803 0.24682 -0.12608
 C453 C 0.81664 0.27551 -0.16454
 C454 C 0.84749 0.32256 -0.15804
 N455 N 0.86551 0.32134 -0.11556
 H456 H 0.85483 0.35529 -0.18155
 N457 N 0.33687 0.77899 0.41243
 N458 N 0.30825 0.74999 0.38279
 C459 C 0.32158 0.76861 0.34185
 C460 C 0.36046 0.80958 0.34762
 N461 N 0.36838 0.81508 0.39193
 H462 H 0.37659 0.83676 0.32237
 N463 N 1.08310 1.14544 0.30512
 N464 N 1.11551 1.16856 0.27538
 C465 C 1.16407 1.17854 0.29631
 C466 C 1.16030 1.16108 0.34006
 N467 N 1.10910 1.14140 0.34411
 H468 H 1.19080 1.16316 0.36662
 N469 N 0.57539 0.64207 -0.19779
 N470 N 0.60677 0.66422 -0.22874
 C471 C 0.65633 0.67369 -0.20930
 C472 C 0.65423 0.65707 -0.16528
 N473 N 0.60304 0.63840 -0.15950
 H474 H 0.68577 0.65914 -0.13953
 N475 N 0.77085 1.09444 0.63354
 N476 N 0.74547 1.12232 0.66497
 C477 C 0.78291 1.15665 0.68343
 C478 C 0.83263 1.14840 0.66229
 N479 N 0.82305 1.10980 0.63123
 H480 H 0.87111 1.17018 0.66739
 N481 N 0.27640 0.58611 0.14249
 N482 N 0.25362 0.61242 0.17611
 C483 C 0.28886 0.65243 0.18867
 C484 C 0.33456 0.64930 0.16172
 N485 N 0.32468 0.60815 0.13309
 H486 H 0.37048 0.67563 0.16170
 N487 N 1.22418 0.85883 0.59965
 N488 N 1.24848 0.82474 0.62787
 C489 C 1.21851 0.82339 0.66562
 C490 C 1.17403 0.85811 0.65915
 N491 N 1.17938 0.87939 0.61769
 H492 H 1.14133 0.86715 0.68229
 N493 N 0.71665 0.35468 0.10051
 N494 N 0.73845 0.31962 0.12924
 C495 C 0.71156 0.32455 0.16834
 C496 C 0.67146 0.36403 0.16216
 N497 N 0.67640 0.38184 0.11957
 H498 H 0.64186 0.37846 0.18619
 N499 N 0.90710 0.77336 0.36793
 N500 N 0.88085 0.75105 0.33349
 C501 C 0.83461 0.78035 0.32615
 C502 C 0.83344 0.82142 0.35767
 N503 N 0.87856 0.81470 0.38375
 H504 H 0.80428 0.85458 0.35998
 N505 N 0.41153 0.27441 -0.13416
 N506 N 0.38776 0.25558 -0.17105
 C507 C 0.34114 0.28440 -0.17776
 C508 C 0.33697 0.32127 -0.14301
 N509 N 0.38102 0.31286 -0.11600
 H510 H 0.30671 0.35320 -0.13914
 N511 N 1.18972 0.31319 -0.09359
 N512 N 1.21728 0.28202 -0.12150
 C513 C 1.20555 0.29994 -0.16308
 C514 C 1.17009 0.34413 -0.15956
 N515 N 1.16140 0.35090 -0.11563
 H516 H 1.15125 0.36770 -0.18627
 N517 N 0.69483 0.81858 0.41201
 N518 N 0.72023 0.78514 0.38433
 C519 C 0.69839 0.79340 0.34313
 C520 C 0.65806 0.83291 0.34678
 N521 N 0.65739 0.84758 0.39004
 H522 H 0.63403 0.85159 0.32014
 N523 N 0.80938 0.68435 -0.09456
 N524 N 0.78252 0.71595 -0.12304
 C525 C 0.78513 0.69216 -0.16335
 C526 C 0.81560 0.64456 -0.15871
 N527 N 0.82958 0.64134 -0.11515
 H528 H 0.82939 0.61743 -0.18473
 N529 N 0.31024 1.18067 0.41300
 N530 N 0.28589 1.21556 0.38537
 C531 C 0.29348 1.19714 0.34345
 C532 C 0.32483 1.15043 0.34627
 N533 N 0.33383 1.14148 0.38996
 H534 H 0.33949 1.12526 0.31924
 N535 N 1.15201 0.72453 0.09703
 N536 N 1.18202 0.75319 0.12606
 C537 C 1.18341 0.72450 0.16452
 C538 C 1.15256 0.67745 0.15802
 N539 N 1.13454 0.67867 0.11554
 H540 H 1.14522 0.64472 0.18153
 N541 N 0.66318 1.22102 0.58755
 N542 N 0.69180 1.25002 0.61719
 C543 C 0.67847 1.23140 0.65813
 C544 C 0.63959 1.19043 0.65236
 N545 N 0.63167 1.18493 0.60805
 H546 H 0.62346 1.16325 0.67761
 N547 N 0.88375 0.27114 0.11851
 N548 N 0.85385 0.24201 0.14668
 C549 C 0.83462 0.27672 0.17754
 C550 C 0.85473 0.32846 0.16746
 N551 N 0.88461 0.32314 0.13020
 H552 H 0.84545 0.36656 0.18382
 N553 N 0.38125 0.77401 0.60865
 N554 N 0.35222 0.74328 0.63639
 C555 C 0.34261 0.77329 0.67318
 C556 C 0.36812 0.82348 0.66712
 N557 N 0.39146 0.82225 0.62660
 H558 H 0.36481 0.85929 0.68794
 N559 N 0.26685 1.14090 -0.10338
 N560 N 0.23868 1.16859 -0.13416
 C561 C 0.27240 1.17537 -0.16929
 C562 C 0.32193 1.15013 -0.15914
 N563 N 0.31710 1.13006 -0.11772
 H564 H 0.35888 1.14871 -0.17908
 N565 N 0.76347 0.63952 0.40257
 N566 N 0.73395 0.66678 0.37238
 C567 C 0.76527 0.67078 0.33556
 C568 C 0.81464 0.64469 0.34408
 N569 N 0.81221 0.62666 0.38615
 H570 H 0.85027 0.64186 0.32271
 N571 N 0.71747 1.16502 0.09343
 N572 N 0.74644 1.19355 0.12310
 C573 C 0.71754 1.19277 0.16127
 C574 C 0.66975 1.16316 0.15397
 N575 N 0.67131 1.14676 0.11141
 H576 H 0.63726 1.15407 0.17741
 N577 N 1.21594 0.66970 0.58855
 N578 N 1.24716 0.69682 0.61760
 C579 C 1.22343 0.69085 0.65778
 C580 C 1.17615 0.65988 0.65231
 N581 N 1.17300 0.64777 0.60885
 H582 H 1.14672 0.64769 0.67741
 N583 N 0.65649 0.79956 -0.10055
 N584 N 0.68629 0.76921 -0.12744
 C585 C 0.68427 0.79225 -0.16832
 C586 C 0.65061 0.83767 -0.16575
 N587 N 0.63425 0.84050 -0.12299
 H588 H 0.64140 0.86717 -0.19171
 N589 N 1.15942 0.30216 0.40381
 N590 N 1.19298 0.27391 0.37839
 C591 C 1.19133 0.29651 0.33739
 C592 C 1.15408 0.33905 0.33817
 N593 N 1.13505 0.34084 0.38010
 H594 H 1.14414 0.36760 0.31165
 N595 N 0.33310 0.79733 0.09523
 N596 N 0.30272 0.76779 0.12274
 C597 C 0.31470 0.78468 0.16457
 C598 C 0.35450 0.82536 0.16163
 N599 N 0.36479 0.83188 0.11786
 H600 H 0.37102 0.85051 0.18833
 N601 N 0.84329 0.29146 0.59444
 N602 N 0.80870 0.26440 0.62031
 C603 C 0.81189 0.28734 0.66111
 C604 C 0.85104 0.32858 0.65955
 N605 N 0.86978 0.32956 0.61753
 H606 H 0.86209 0.35733 0.68558
 N607 N 1.09295 1.22665 0.63205
 N608 N 1.11920 1.24896 0.66649
 C609 C 1.16544 1.21966 0.67383
 C610 C 1.16661 1.17859 0.64231
 N611 N 1.12149 1.18531 0.61623
 H612 H 1.19577 1.14543 0.64000
 N613 N 0.58852 0.72560 0.13414
 N614 N 0.61229 0.74443 0.17103
 C615 C 0.65891 0.71561 0.17773
 C616 C 0.66308 0.67873 0.14299
 N617 N 0.61903 0.68715 0.11598
 H618 H 0.69334 0.64681 0.13912
 N619 N 1.22920 0.90556 0.36644
 N620 N 1.25458 0.87769 0.33501
 C621 C 1.21714 0.84336 0.31655
 C622 C 1.16742 0.85161 0.33769
 N623 N 1.17700 0.89021 0.36875
 H624 H 1.12894 0.82983 0.33259
 N625 N 0.72365 0.41389 -0.14251
 N626 N 0.74643 0.38759 -0.17613
 C627 C 0.71119 0.34758 -0.18869
 C628 C 0.66549 0.35071 -0.16174
 N629 N 0.67537 0.39186 -0.13311
 H630 H 0.62957 0.32438 -0.16173
 N631 N 0.77587 1.14117 0.40033
 N632 N 0.75157 1.17527 0.37211
 C633 C 0.78154 1.17662 0.33436
 C634 C 0.82602 1.14190 0.34083
 N635 N 0.82067 1.12062 0.38229
 H636 H 0.85872 1.13286 0.31769
 N637 N 0.28340 0.64533 -0.10053
 N638 N 0.26160 0.68039 -0.12926
 C639 C 0.28849 0.67545 -0.16836
 C640 C 0.32859 0.63598 -0.16218
 N641 N 0.32365 0.61817 -0.11959
 H642 H 0.35819 0.62155 -0.18621
 N643 N 0.91695 0.85457 0.69486
 N644 N 0.88454 0.83145 0.72460
 C645 C 0.83598 0.82147 0.70367
 C646 C 0.83975 0.83892 0.65992
 N647 N 0.89095 0.85860 0.65587
 H648 H 0.80925 0.83685 0.63336
 N649 N 0.42466 0.35794 0.19777
 N650 N 0.39328 0.33579 0.22872
 C651 C 0.34372 0.32632 0.20927
 C652 C 0.34582 0.34294 0.16526
 N653 N 0.39701 0.36160 0.15948
 H654 H 0.31428 0.34087 0.13951
   
