data_POSCAR
  _audit_creation_date              2014-09-24
  _audit_creation_method            'ToBaCCo'
  _symmetry_space_group_name_H-M    'P1'
  _symmetry_Int_Tables_number       1
  _symmetry_cell_setting            triclinic
  loop_
  _symmetry_equiv_pos_as_xyz
 x,y,z
_cell_length_a 39.0639
_cell_length_b 43.9304
_cell_length_c 41.0446
_cell_angle_alpha 90.748100
_cell_angle_beta 87.322300
_cell_angle_gamma 92.203600
loop_
  _atom_site_label
  _atom_site_type_symbol
  _atom_site_fract_x
  _atom_site_fract_y
  _atom_site_fract_z
C1 C 0.25801 0.29209 0.26385
 C2 C 0.27605 0.29363 0.23352
 C3 C 0.30166 0.27292 0.22525
 C4 C 0.30987 0.25108 0.24803
 C5 C 0.29184 0.24908 0.27834
 C6 C 0.26554 0.26944 0.28619
 C7 C 0.23218 0.31252 0.27193
 C8 C 0.21288 0.31023 0.30172
 C9 C 0.22019 0.28713 0.32361
 C10 C 0.24651 0.26691 0.31616
 C11 C 0.25389 0.24399 0.33805
 C12 C 0.28026 0.22376 0.33047
 C13 C 0.29912 0.22654 0.30057
 H14 H 0.26989 0.31069 0.21608
 H15 H 0.32942 0.23489 0.24163
 H16 H 0.22736 0.33039 0.25499
 H17 H 0.20511 0.28454 0.34630
 H18 H 0.23939 0.24206 0.36115
 H19 H 0.31901 0.21066 0.29428
 C20 C 0.73139 -0.29518 0.22654
 C21 C 0.70072 -0.29450 0.21045
 C22 C 0.68131 -0.26805 0.21053
 C23 C 0.69375 -0.24183 0.22725
 C24 C 0.72399 -0.24258 0.24464
 C25 C 0.74282 -0.26945 0.24418
 C26 C 0.75100 -0.32126 0.22467
 C27 C 0.78207 -0.32249 0.24070
 C28 C 0.79242 -0.29702 0.25967
 C29 C 0.77335 -0.27053 0.26103
 C30 C 0.78494 -0.24480 0.27828
 C31 C 0.76665 -0.21789 0.27887
 C32 C 0.73598 -0.21694 0.26229
 H33 H 0.69303 -0.31440 0.19631
 H34 H 0.67930 -0.22125 0.22795
 H35 H 0.74132 -0.34093 0.21128
 H36 H 0.81648 -0.29680 0.27178
 H37 H 0.80842 -0.24562 0.29128
 H38 H 0.72196 -0.19610 0.26260
 C39 C 0.75186 0.25054 0.74401
 C40 C 0.72919 0.24519 0.77115
 C41 C 0.71352 0.21599 0.77694
 C42 C 0.72148 0.19223 0.75444
 C43 C 0.74436 0.19711 0.72755
 C44 C 0.75912 0.22647 0.72203
 C45 C 0.76784 0.27949 0.73874
 C46 C 0.78964 0.28508 0.71081
 C47 C 0.79599 0.26075 0.68891
 C48 C 0.78171 0.23159 0.69476
 C49 C 0.79082 0.20724 0.67426
 C50 C 0.77752 0.17770 0.68044
 C51 C 0.75340 0.17284 0.70648
 H52 H 0.72505 0.26376 0.78828
 H53 H 0.70919 0.16985 0.75683
 H54 H 0.76219 0.29790 0.75576
 H55 H 0.81394 0.26385 0.66818
 H56 H 0.80907 0.21104 0.65384
 H57 H 0.74305 0.14999 0.71119
 C58 C 0.23910 -0.25941 0.77249
 C59 C 0.26798 -0.25371 0.79110
 C60 C 0.28935 -0.22748 0.78590
 C61 C 0.28197 -0.20764 0.76072
 C62 C 0.25391 -0.21365 0.74125
 C63 C 0.23199 -0.23928 0.74750
 C64 C 0.21733 -0.28500 0.77856
 C65 C 0.18790 -0.29095 0.76032
 C66 C 0.18128 -0.27042 0.73524
 C67 C 0.20307 -0.24478 0.72875
 C68 C 0.19624 -0.22443 0.70388
 C69 C 0.21869 -0.19921 0.69664
 C70 C 0.24758 -0.19427 0.71561
 H71 H 0.27372 -0.26983 0.80962
 H72 H 0.29753 -0.18700 0.75658
 H73 H 0.22439 -0.30075 0.79692
 H74 H 0.15852 -0.27348 0.72134
 H75 H 0.17336 -0.22834 0.69030
 H76 H 0.26587 -0.17572 0.71014
 C77 C 0.74475 -0.26411 0.77176
 C78 C 0.71772 -0.25490 0.79283
 C79 C 0.70580 -0.22502 0.79201
 C80 C 0.72042 -0.20500 0.76810
 C81 C 0.74599 -0.21459 0.74552
 C82 C 0.75864 -0.24407 0.74778
 C83 C 0.75846 -0.29291 0.77487
 C84 C 0.78698 -0.30197 0.75506
 C85 C 0.79940 -0.28203 0.73000
 C86 C 0.78541 -0.25343 0.72626
 C87 C 0.79849 -0.23369 0.70177
 C88 C 0.78556 -0.20447 0.69880
 C89 C 0.75950 -0.19497 0.72100
 H90 H 0.70631 -0.27125 0.80998
 H91 H 0.71252 -0.18172 0.76714
 H92 H 0.74648 -0.30816 0.79288
 H93 H 0.82148 -0.28747 0.71445
 H94 H 0.81856 -0.24122 0.68475
 H95 H 0.74995 -0.17222 0.71934
 C96 C 0.23653 0.28642 0.76766
 C97 C 0.25735 0.29122 0.79443
 C98 C 0.27646 0.26742 0.80624
 C99 C 0.27291 0.23838 0.79157
 C100 C 0.25394 0.23386 0.76370
 C101 C 0.23593 0.25795 0.75142
 C102 C 0.21687 0.30980 0.75644
 C103 C 0.19705 0.30526 0.72892
 C104 C 0.19837 0.27742 0.71161
 C105 C 0.21777 0.25368 0.72265
 C106 C 0.22009 0.22604 0.70506
 C107 C 0.23935 0.20227 0.71661
 C108 C 0.25423 0.20592 0.74707
 H109 H 0.25939 0.31380 0.80518
 H110 H 0.28585 0.21927 0.80107
 H111 H 0.21689 0.33158 0.76916
 H112 H 0.18359 0.27395 0.69008
 H113 H 0.20813 0.22365 0.68184
 H114 H 0.26770 0.18741 0.75721
 C115 C 0.20583 -0.26440 0.24026
 C116 C 0.22469 -0.26848 0.21068
 C117 C 0.25134 -0.24758 0.20042
 C118 C 0.25677 -0.22124 0.21996
 C119 C 0.23769 -0.21678 0.24932
 C120 C 0.21249 -0.23864 0.25984
 C121 C 0.18135 -0.28655 0.25095
 C122 C 0.16310 -0.28388 0.28140
 C123 C 0.17009 -0.25763 0.30079
 C124 C 0.19464 -0.23514 0.29028
 C125 C 0.20257 -0.20970 0.31018
 C126 C 0.22826 -0.18805 0.29998
 C127 C 0.24489 -0.19144 0.26912
 H128 H 0.21796 -0.28803 0.19568
 H129 H 0.27745 -0.20491 0.21402
 H130 H 0.17856 -0.30689 0.23605
 H131 H 0.15615 -0.25407 0.32383
 H132 H 0.18984 -0.20743 0.33407
 H133 H 0.26422 -0.17459 0.26076
 C134 C 0.74303 0.24164 0.22304
 C135 C 0.71663 0.23463 0.20192
 C136 C 0.69755 0.20681 0.20424
 C137 C 0.70558 0.18579 0.22815
 C138 C 0.73243 0.19224 0.24909
 C139 C 0.75088 0.22049 0.24677
 C140 C 0.76234 0.26916 0.22005
 C141 C 0.78957 0.27625 0.24070
 C142 C 0.79649 0.25506 0.26488
 C143 C 0.77787 0.22723 0.26755
 C144 C 0.78719 0.20534 0.28958
 C145 C 0.77034 0.17654 0.29083
 C146 C 0.74217 0.17044 0.27134
 H147 H 0.71169 0.25061 0.18298
 H148 H 0.69114 0.16432 0.23041
 H149 H 0.75536 0.28528 0.20200
 H150 H 0.81801 0.25898 0.28029
 H151 H 0.80855 0.21027 0.30503
 H152 H 0.72912 0.14821 0.27223
 O153 O 0.23959 0.04418 0.47806
 O154 O 0.21308 -0.02196 0.52860
 O155 O 0.22719 0.03634 0.54077
 O156 O 0.22912 -0.01447 0.46717
 O157 O 0.28348 -0.02243 0.47530
 O158 O 0.28151 0.02687 0.54684
 O159 O 0.26744 -0.03026 0.53679
 O160 O 0.29392 0.03542 0.48523
 Cu161 Cu 0.22174 0.01201 0.50297
 Cu162 Cu 0.28692 0.00152 0.51176
 C163 C 0.27122 0.05113 0.47290
 C164 C 0.23575 -0.03749 0.54104
 C165 C 0.25459 0.04021 0.55625
 C166 C 0.25705 -0.02719 0.45897
 O167 O 0.84766 0.00708 0.51187
 O168 O 0.84548 -0.04991 0.44582
 O169 O 0.84620 0.00861 0.44895
 O170 O 0.84933 -0.05172 0.50884
 O171 O 0.79288 -0.05399 0.51439
 O172 O 0.78965 0.00671 0.45268
 O173 O 0.78898 -0.05278 0.45049
 O174 O 0.79115 0.00547 0.51633
 Cu175 Cu 0.85275 -0.02134 0.47849
 Cu176 Cu 0.78492 -0.02398 0.48397
 C177 C 0.81991 0.01620 0.52535
 C178 C 0.81696 -0.06087 0.43651
 C179 C 0.81774 0.01793 0.44024
 C180 C 0.82192 -0.06302 0.52223
 O181 O 0.45249 0.22066 0.02284
 O182 O 0.52010 0.20360 -0.03893
 O183 O 0.51369 0.19885 0.02404
 O184 O 0.45858 0.22513 -0.03956
 O185 O 0.47822 0.27236 -0.03168
 O186 O 0.53660 0.24533 0.02850
 O187 O 0.54100 0.25084 -0.03562
 O188 O 0.47592 0.26672 0.03038
 Cu189 Cu 0.48423 0.20734 -0.00856
 Cu190 Cu 0.51062 0.26347 -0.00194
 C191 C 0.45257 0.24653 0.03699
 C192 C 0.54206 0.22417 -0.04797
 C193 C 0.53453 0.21764 0.03718
 C194 C 0.45779 0.25345 -0.04517
 O195 O 0.51108 0.78777 0.04497
 O196 O 0.45643 0.80569 -0.02310
 O197 O 0.44481 0.78644 0.03628
 O198 O 0.52113 0.80690 -0.01608
 O199 O 0.52401 0.75884 -0.03223
 O200 O 0.44670 0.73889 0.01849
 O201 O 0.45852 0.75778 -0.04017
 O202 O 0.51140 0.73998 0.02776
 Cu203 Cu 0.48343 0.80149 0.01262
 Cu204 Cu 0.48571 0.74411 -0.00823
 C205 C 0.51964 0.76041 0.04839
 C206 C 0.44854 0.78467 -0.04326
 C207 C 0.43246 0.75923 0.03603
 C208 C 0.53476 0.78645 -0.03393
 O209 O 0.03263 0.46213 0.26620
 O210 O -0.03318 0.51352 0.24110
 O211 O 0.02641 0.52167 0.26516
 O212 O -0.02789 0.45593 0.24179
 O213 O -0.05174 0.45441 0.29160
 O214 O 0.00348 0.52052 0.31531
 O215 O -0.05635 0.51341 0.29127
 O216 O 0.00924 0.46133 0.31616
 Cu217 Cu 0.00232 0.48828 0.24872
 Cu218 Cu -0.02606 0.48707 0.30869
 C219 C 0.03215 0.45283 0.29540
 C220 C -0.05604 0.52213 0.26185
 C221 C 0.02370 0.53291 0.29380
 C222 C -0.04989 0.44454 0.26232
 O223 O 0.01681 0.51877 0.77345
 O224 O -0.04858 0.46037 0.75108
 O225 O 0.01829 0.46249 0.75217
 O226 O -0.04972 0.51613 0.77233
 O227 O -0.04622 0.53258 0.72168
 O228 O 0.02194 0.47882 0.70150
 O229 O -0.04466 0.47677 0.70043
 O230 O 0.02032 0.53519 0.72282
 Cu231 Cu -0.01601 0.48776 0.76733
 Cu232 Cu -0.01170 0.50746 0.70653
 C233 C 0.02950 0.53717 0.75208
 C234 C -0.05794 0.45874 0.72186
 C235 C 0.03167 0.46132 0.72338
 C236 C -0.05971 0.53348 0.75045
 C237 C 0.36820 0.26815 0.15558
 C238 C 0.34748 0.26805 0.12939
 C239 C 0.31213 0.27058 0.13278
 C240 C 0.29746 0.27309 0.16451
 C241 C 0.31814 0.27266 0.19202
 C242 C 0.35410 0.27031 0.18738
 O243 O 0.40109 0.26491 0.14702
 C244 C 0.40109 0.26251 0.11473
 C245 C 0.36886 0.26410 0.10277
 C246 C 0.36261 0.26050 0.06983
 C247 C 0.39071 0.25489 0.04836
 C248 C 0.42414 0.25347 0.06007
 C249 C 0.42954 0.25760 0.09366
 H250 H 0.29635 0.27025 0.11178
 H251 H 0.26988 0.27444 0.16771
 H252 H 0.37049 0.26984 0.20792
 H253 H 0.33697 0.26142 0.06107
 H254 H 0.38655 0.25160 0.02261
 H255 H 0.45484 0.25608 0.10309
 C256 C 0.61299 0.75479 0.15596
 C257 C 0.59512 0.72740 0.15327
 C258 C 0.60259 0.70182 0.17057
 C259 C 0.63041 0.70411 0.19076
 C260 C 0.65063 0.73171 0.19338
 C261 C 0.64060 0.75785 0.17653
 O262 O 0.60300 0.77555 0.13540
 C263 C 0.57846 0.76074 0.11939
 C264 C 0.57281 0.73120 0.12955
 C265 C 0.55036 0.71068 0.11477
 C266 C 0.53297 0.72092 0.08826
 C267 C 0.53807 0.75128 0.07709
 C268 C 0.56085 0.77168 0.09321
 H269 H 0.58803 0.68053 0.16798
 H270 H 0.63603 0.68413 0.20440
 H271 H 0.65548 0.77913 0.17701
 H272 H 0.54690 0.68738 0.12291
 H273 H 0.51552 0.70510 0.07634
 H274 H 0.56566 0.79479 0.08487
 C275 C 0.64899 0.22750 -0.15357
 C276 C 0.64417 0.19812 -0.14292
 C277 C 0.66185 0.17405 -0.15668
 C278 C 0.68530 0.18033 -0.18281
 C279 C 0.69060 0.21042 -0.19546
 C280 C 0.67205 0.23437 -0.17980
 O281 O 0.62925 0.24699 -0.13709
 C282 C 0.61161 0.22939 -0.11562
 C283 C 0.61976 0.19927 -0.11836
 C284 C 0.60379 0.17660 -0.09918
 C285 C 0.57825 0.18527 -0.07620
 C286 C 0.56935 0.21622 -0.07250
 C287 C 0.58654 0.23867 -0.09244
 H288 H 0.65792 0.15115 -0.14746
 H289 H 0.69995 0.16150 -0.19216
 H290 H 0.67390 0.25753 -0.18843
 H291 H 0.61053 0.15301 -0.10201
 H292 H 0.56553 0.16782 -0.06110
 H293 H 0.58013 0.26240 -0.09041
 C294 C 0.34530 0.77770 -0.14088
 C295 C 0.37315 0.79449 -0.15344
 C296 C 0.37584 0.80396 -0.18564
 C297 C 0.34858 0.79608 -0.20560
 C298 C 0.31885 0.77958 -0.19302
 C299 C 0.31753 0.77033 -0.15996
 O300 O 0.34855 0.76944 -0.11023
 C301 C 0.37906 0.78140 -0.10324
 C302 C 0.39504 0.79731 -0.12870
 C303 C 0.42737 0.81149 -0.12665
 C304 C 0.44413 0.80863 -0.09736
 C305 C 0.42859 0.79140 -0.07138
 C306 C 0.39554 0.77778 -0.07422
 H307 H 0.39839 0.81652 -0.19524
 H308 H 0.35104 0.80260 -0.23094
 H309 H 0.29545 0.75804 -0.14906
 H310 H 0.43947 0.82385 -0.14700
 H311 H 0.46971 0.81871 -0.09535
 H312 H 0.38349 0.76417 -0.05476
 C313 C 0.14046 0.36430 0.29295
 C314 C 0.13422 0.37322 0.32482
 C315 C 0.15250 0.36246 0.35028
 C316 C 0.17831 0.34177 0.34253
 C317 C 0.18513 0.33192 0.30978
 C318 C 0.16550 0.34340 0.28477
 O319 O 0.12083 0.37763 0.27225
 C320 C 0.10171 0.39535 0.29147
 C321 C 0.10869 0.39339 0.32390
 C322 C 0.09131 0.40988 0.34821
 C323 C 0.06578 0.42918 0.33866
 C324 C 0.05853 0.43196 0.30526
 C325 C 0.07688 0.41471 0.28141
 H326 H 0.14741 0.37003 0.37518
 H327 H 0.19333 0.33394 0.36204
 H328 H 0.16932 0.33622 0.25959
 H329 H 0.09714 0.40793 0.37360
 H330 H 0.05204 0.44226 0.35721
 H331 H 0.07182 0.41612 0.25576
 C332 C 0.12475 0.64362 0.75012
 C333 C 0.12345 0.63171 0.78092
 C334 C 0.14221 0.64430 0.80594
 C335 C 0.16338 0.67012 0.79895
 C336 C 0.16576 0.68315 0.76713
 C337 C 0.14552 0.66936 0.74254
 O338 O 0.10501 0.62807 0.72976
 C339 C 0.09089 0.60592 0.74822
 C340 C 0.10132 0.60713 0.77974
 C341 C 0.08966 0.58615 0.80321
 C342 C 0.06616 0.56305 0.79382
 C343 C 0.05487 0.56128 0.76141
 C344 C 0.06764 0.58311 0.73832
 H345 H 0.14047 0.63469 0.83014
 H346 H 0.17679 0.68038 0.81902
 H347 H 0.14675 0.67732 0.71769
 H348 H 0.09825 0.58758 0.82789
 H349 H 0.05672 0.54663 0.81186
 H350 H 0.05958 0.58254 0.71343
 C351 C -0.15526 0.61801 0.25689
 C352 C -0.15516 0.60220 0.22781
 C353 C -0.17556 0.60956 0.20251
 C354 C -0.19690 0.63432 0.20729
 C355 C -0.19723 0.65176 0.23691
 C356 C -0.17576 0.64310 0.26202
 O357 O -0.13418 0.60705 0.27793
 C358 C -0.12028 0.58397 0.26160
 C359 C -0.13205 0.58022 0.23068
 C360 C -0.12002 0.55813 0.20892
 C361 C -0.09473 0.53918 0.21945
 C362 C -0.08260 0.54227 0.25140
 C363 C -0.09574 0.56489 0.27285
 H364 H -0.17489 0.59684 0.17975
 H365 H -0.21177 0.64062 0.18702
 H366 H -0.17560 0.65479 0.28538
 H367 H -0.12948 0.55580 0.18461
 H368 H -0.08485 0.52188 0.20287
 H369 H -0.08657 0.56797 0.29721
 C370 C -0.16103 0.35817 0.72392
 C371 C -0.15438 0.36684 0.69213
 C372 C -0.16718 0.35070 0.66583
 C373 C -0.18690 0.32402 0.67242
 C374 C -0.19387 0.31389 0.70504
 C375 C -0.18156 0.33214 0.73120
 O376 O -0.14402 0.37538 0.74509
 C377 C -0.12633 0.39529 0.72618
 C378 C -0.13199 0.39114 0.69359
 C379 C -0.11502 0.40847 0.66933
 C380 C -0.09110 0.43102 0.67900
 C381 C -0.08430 0.43560 0.71245
 C382 C -0.10245 0.41749 0.73637
 H383 H -0.16135 0.35790 0.64100
 H384 H -0.19685 0.31137 0.65189
 H385 H -0.18515 0.32502 0.75631
 H386 H -0.11967 0.40450 0.64380
 H387 H -0.07746 0.44451 0.66033
 H388 H -0.09774 0.42022 0.76205
 C389 C 0.26924 0.15789 0.38901
 C390 C 0.30292 0.15205 0.39405
 C391 C 0.33022 0.16909 0.37975
 C392 C 0.32247 0.19296 0.35922
 C393 C 0.28792 0.19935 0.35341
 C394 C 0.26096 0.18160 0.36884
 O395 O 0.24717 0.13863 0.40432
 C396 C 0.26734 0.12023 0.41936
 C397 C 0.30167 0.12745 0.41390
 C398 C 0.32723 0.11083 0.42697
 C399 C 0.31698 0.08574 0.44645
 C400 C 0.28168 0.07774 0.45244
 C401 C 0.25658 0.09542 0.43862
 H402 H 0.35653 0.16405 0.38402
 H403 H 0.34338 0.20650 0.34786
 H404 H 0.23437 0.18556 0.36457
 H405 H 0.35411 0.11689 0.42225
 H406 H 0.33659 0.07255 0.45677
 H407 H 0.22944 0.08999 0.44257
 C408 C 0.78488 0.10934 0.62384
 C409 C 0.81995 0.10703 0.62173
 C410 C 0.84206 0.12613 0.63883
 C411 C 0.82749 0.14885 0.65865
 C412 C 0.79145 0.15200 0.66112
 C413 C 0.76975 0.13163 0.64383
 O414 O 0.76876 0.08969 0.60437
 C415 C 0.79425 0.07474 0.58969
 C416 C 0.82602 0.08451 0.59956
 C417 C 0.85634 0.07281 0.58668
 C418 C 0.85391 0.05010 0.56251
 C419 C 0.82149 0.03959 0.55161
 C420 C 0.79119 0.05208 0.56566
 H421 H 0.86958 0.12399 0.63653
 H422 H 0.84428 0.16429 0.67187
 H423 H 0.74221 0.13387 0.64495
 H424 H 0.88105 0.08108 0.59470
 H425 H 0.87739 0.04092 0.55214
 H426 H 0.76608 0.04479 0.55777
 C427 C 0.22262 -0.12972 0.64225
 C428 C 0.20565 -0.14073 0.61575
 C429 C 0.19159 -0.17025 0.61427
 C430 C 0.19560 -0.18926 0.64102
 C431 C 0.21275 -0.17839 0.66901
 C432 C 0.22573 -0.14774 0.66951
 O433 O 0.23605 -0.10175 0.63815
 C434 C 0.22728 -0.09486 0.60840
 C435 C 0.20823 -0.11775 0.59374
 C436 C 0.19636 -0.11520 0.56247
 C437 C 0.20467 -0.08804 0.54565
 C438 C 0.22526 -0.06468 0.55994
 C439 C 0.23667 -0.06811 0.59176
 H440 H 0.17896 -0.17868 0.59285
 H441 H 0.18620 -0.21266 0.63924
 H442 H 0.23836 -0.13796 0.69028
 H443 H 0.18139 -0.13345 0.55139
 H444 H 0.19600 -0.08552 0.52117
 H445 H 0.25241 -0.05053 0.60312
 C446 C 0.77618 -0.15216 0.33862
 C447 C 0.81045 -0.14456 0.33323
 C448 C 0.83102 -0.15868 0.30950
 C449 C 0.81583 -0.18204 0.29091
 C450 C 0.78070 -0.19084 0.29632
 C451 C 0.76041 -0.17524 0.32015
 O452 O 0.76172 -0.13667 0.36331
 C453 C 0.78748 -0.11903 0.37374
 C454 C 0.81781 -0.12307 0.35613
 C455 C 0.84835 -0.10789 0.36351
 C456 C 0.84767 -0.08757 0.39012
 C457 C 0.81674 -0.08275 0.40876
 C458 C 0.78614 -0.09872 0.40026
 H459 H 0.85798 -0.15239 0.30588
 H460 H 0.83157 -0.19372 0.27267
 H461 H 0.73371 -0.18185 0.32516
 H462 H 0.87195 -0.11170 0.34943
 H463 H 0.87132 -0.07555 0.39608
 H464 H 0.76217 -0.09575 0.41406
 C465 C 0.64726 0.77998 -0.13150
 C466 C 0.62761 0.80398 -0.13887
 C467 C 0.63164 0.81925 -0.16831
 C468 C 0.65701 0.80943 -0.19101
 C469 C 0.67861 0.78523 -0.18372
 C470 C 0.67352 0.77069 -0.15302
 O471 O 0.63742 0.76672 -0.10356
 C472 C 0.61102 0.78281 -0.09296
 C473 C 0.60433 0.80625 -0.11339
 C474 C 0.57738 0.82561 -0.10725
 C475 C 0.55600 0.82012 -0.07933
 C476 C 0.56136 0.79511 -0.05892
 C477 C 0.58954 0.77644 -0.06560
 H478 H 0.61509 0.83745 -0.17405
 H479 H 0.65898 0.82039 -0.21447
 H480 H 0.68929 0.75255 -0.14569
 H481 H 0.57251 0.84383 -0.12372
 H482 H 0.53413 0.83423 -0.07464
 H483 H 0.59383 0.75695 -0.05064
 C484 C 0.35360 0.26032 -0.14175
 C485 C 0.34872 0.28348 -0.11943
 C486 C 0.32056 0.30192 -0.11944
 C487 C 0.29655 0.29628 -0.14351
 C488 C 0.30138 0.27293 -0.16749
 C489 C 0.33081 0.25499 -0.16641
 O490 O 0.38083 0.24422 -0.13656
 C491 C 0.39359 0.25757 -0.11039
 C492 C 0.37522 0.28202 -0.09919
 C493 C 0.38417 0.29922 -0.07198
 C494 C 0.41283 0.29053 -0.05539
 C495 C 0.43123 0.26463 -0.06575
 C496 C 0.42160 0.24808 -0.09381
 H497 H 0.31683 0.31962 -0.10118
 H498 H 0.27406 0.30991 -0.14296
 H499 H 0.33636 0.23741 -0.18435
 H500 H 0.36938 0.31836 -0.06357
 H501 H 0.41975 0.30307 -0.03362
 H502 H 0.43507 0.22811 -0.10206
 C503 C 0.31653 0.76285 0.13122
 C504 C 0.31991 0.73324 0.12096
 C505 C 0.30066 0.70919 0.13481
 C506 C 0.27731 0.71580 0.16068
 C507 C 0.27317 0.74633 0.17244
 C508 C 0.29307 0.77013 0.15646
 O509 O 0.33854 0.78222 0.11598
 C510 C 0.35633 0.76433 0.09576
 C511 C 0.34583 0.73416 0.09775
 C512 C 0.36174 0.71133 0.07964
 C513 C 0.38984 0.71994 0.05881
 C514 C 0.40161 0.75090 0.05669
 C515 C 0.38425 0.77341 0.07530
 H516 H 0.30433 0.68593 0.12674
 H517 H 0.26430 0.69649 0.17245
 H518 H 0.29068 0.79388 0.16294
 H519 H 0.35316 0.68769 0.08182
 H520 H 0.40278 0.70236 0.04484
 H521 H 0.39263 0.79718 0.07447
 C522 C 0.62789 0.21597 0.14427
 C523 C 0.62306 0.18650 0.13327
 C524 C 0.64079 0.16245 0.14513
 C525 C 0.66478 0.16915 0.16895
 C526 C 0.67035 0.19947 0.18072
 C527 C 0.65094 0.22301 0.16838
 O528 O 0.60990 0.23580 0.12882
 C529 C 0.59332 0.21851 0.10753
 C530 C 0.60022 0.18812 0.10935
 C531 C 0.58586 0.16615 0.08882
 C532 C 0.56366 0.17596 0.06543
 C533 C 0.55675 0.20731 0.06269
 C534 C 0.57178 0.22878 0.08425
 H535 H 0.63699 0.13949 0.13576
 H536 H 0.67973 0.15081 0.17733
 H537 H 0.65395 0.24635 0.17683
 H538 H 0.59170 0.14236 0.09060
 H539 H 0.55243 0.15926 0.04905
 H540 H 0.56700 0.25284 0.08287
 C541 C -0.15694 0.63104 0.74445
 C542 C -0.15939 0.61945 0.77538
 C543 C -0.17999 0.63179 0.80019
 C544 C -0.19845 0.65744 0.79302
 C545 C -0.19628 0.67056 0.76122
 C546 C -0.17531 0.65628 0.73657
 O547 O -0.13494 0.61665 0.72466
 C548 C -0.12311 0.59561 0.74364
 C549 C -0.13730 0.59630 0.77491
 C550 C -0.12776 0.57688 0.79909
 C551 C -0.10241 0.55600 0.79071
 C552 C -0.08712 0.55498 0.75863
 C553 C -0.09793 0.57505 0.73475
 H554 H -0.18106 0.62254 0.82455
 H555 H -0.21264 0.66781 0.81319
 H556 H -0.17324 0.66404 0.71166
 H557 H -0.13913 0.57800 0.82361
 H558 H -0.09453 0.54086 0.80933
 H559 H -0.08670 0.57507 0.71013
 C560 C -0.15015 0.34217 0.25724
 C561 C -0.14475 0.35356 0.22638
 C562 C -0.16123 0.34146 0.19965
 C563 C -0.18389 0.31626 0.20478
 C564 C -0.18945 0.30315 0.23633
 C565 C -0.17225 0.31694 0.26293
 O566 O -0.13205 0.35713 0.27936
 C567 C -0.11460 0.37829 0.26195
 C568 C -0.12130 0.37691 0.22935
 C569 C -0.10514 0.39628 0.20647
 C570 C -0.08119 0.41809 0.21768
 C571 C -0.07418 0.42040 0.25130
 C572 C -0.09126 0.40018 0.27376
 H573 H -0.15644 0.35083 0.17553
 H574 H -0.19539 0.30615 0.18355
 H575 H -0.17628 0.30887 0.28765
 H576 H -0.11067 0.39460 0.18090
 H577 H -0.06852 0.43352 0.20020
 H578 H -0.08632 0.40126 0.29950
 C579 C 0.13244 0.36709 0.73308
 C580 C 0.13117 0.37444 0.70070
 C581 C 0.15072 0.36003 0.67626
 C582 C 0.17242 0.33719 0.68564
 C583 C 0.17430 0.32942 0.71897
 C584 C 0.15390 0.34470 0.74292
 O585 O 0.11153 0.38300 0.75249
 C586 C 0.09674 0.40087 0.73196
 C587 C 0.10787 0.39666 0.69999
 C588 C 0.09552 0.41312 0.67458
 C589 C 0.07066 0.43467 0.68249
 C590 C 0.05855 0.43921 0.71532
 C591 C 0.07201 0.42199 0.74033
 H592 H 0.14926 0.36609 0.65090
 H593 H 0.18799 0.32581 0.66704
 H594 H 0.15430 0.33898 0.76847
 H595 H 0.10461 0.40945 0.64958
 H596 H 0.06066 0.44757 0.66299
 H597 H 0.06346 0.42482 0.76563
 C598 C 0.10469 0.64686 0.28060
 C599 C 0.09858 0.64203 0.31335
 C600 C 0.11144 0.66182 0.33691
 C601 C 0.13207 0.68710 0.32626
 C602 C 0.13966 0.69231 0.29231
 C603 C 0.12442 0.67189 0.26947
 O604 O 0.09097 0.62528 0.26193
 C605 C 0.07593 0.60622 0.28335
 C606 C 0.07959 0.61535 0.31522
 C607 C 0.06572 0.59838 0.34141
 C608 C 0.04733 0.57106 0.33435
 C609 C 0.04361 0.56117 0.30156
 C610 C 0.05826 0.57916 0.27583
 H611 H 0.10656 0.65752 0.36265
 H612 H 0.14345 0.70131 0.34484
 H613 H 0.12720 0.67512 0.24341
 H614 H 0.06886 0.60591 0.36634
 H615 H 0.03617 0.55760 0.35434
 H616 H 0.05569 0.57252 0.25053
 C617 C 0.79165 -0.14825 0.62944
 C618 C 0.82640 -0.14737 0.62231
 C619 C 0.84913 -0.16387 0.63946
 C620 C 0.83545 -0.18229 0.66487
 C621 C 0.79960 -0.18397 0.67259
 C622 C 0.77746 -0.16644 0.65463
 O623 O 0.77464 -0.13064 0.61022
 C624 C 0.79925 -0.11840 0.59054
 C625 C 0.83134 -0.12797 0.59695
 C626 C 0.86085 -0.11800 0.57949
 C627 C 0.85722 -0.09703 0.55457
 C628 C 0.82446 -0.08641 0.54755
 C629 C 0.79500 -0.09753 0.56577
 H630 H 0.87643 -0.16260 0.63349
 H631 H 0.85283 -0.19510 0.67867
 H632 H 0.74999 -0.16739 0.65968
 H633 H 0.88581 -0.12590 0.58499
 H634 H 0.88010 -0.08888 0.54098
 H635 H 0.76968 -0.08984 0.56120
 C636 C 0.22953 -0.12254 0.36141
 C637 C 0.26416 -0.11562 0.36092
 C638 C 0.28804 -0.13164 0.34226
 C639 C 0.27576 -0.15566 0.32284
 C640 C 0.24005 -0.16307 0.32201
 C641 C 0.21660 -0.14637 0.34198
 O642 O 0.21157 -0.10490 0.38193
 C643 C 0.23551 -0.08651 0.39456
 C644 C 0.26803 -0.09219 0.38229
 C645 C 0.29715 -0.07644 0.39244
 C646 C 0.29276 -0.05425 0.41682
 C647 C 0.25966 -0.04821 0.43065
 C648 C 0.23046 -0.06424 0.41888
 H649 H 0.31523 -0.12602 0.34283
 H650 H 0.29423 -0.16867 0.30862
 H651 H 0.18927 -0.15149 0.34207
 H652 H 0.32244 -0.08146 0.38238
 H653 H 0.31536 -0.04216 0.42538
 H654 H 0.20497 -0.06045 0.42925
 C655 C 0.77923 0.11155 0.34937
 C656 C 0.81418 0.10863 0.34678
 C657 C 0.83572 0.12638 0.32628
 C658 C 0.82070 0.14834 0.30780
 C659 C 0.78475 0.15227 0.31014
 C660 C 0.76361 0.13328 0.33098
 O661 O 0.76375 0.09259 0.37088
 C662 C 0.78957 0.07748 0.38204
 C663 C 0.82088 0.08655 0.36797
 C664 C 0.85149 0.07436 0.37620
 C665 C 0.84990 0.05181 0.40001
 C666 C 0.81802 0.04183 0.41514
 C667 C 0.78733 0.05489 0.40586
 H668 H 0.86315 0.12355 0.32471
 H669 H 0.83712 0.16231 0.29155
 H670 H 0.73615 0.13586 0.33334
 H671 H 0.87578 0.08203 0.36479
 H672 H 0.87368 0.04214 0.40658
 H673 H 0.76264 0.04789 0.41695
 C674 C 0.23321 0.13690 0.65471
 C675 C 0.26454 0.12450 0.65822
 C676 C 0.28843 0.13619 0.67938
 C677 C 0.27972 0.16175 0.69806
 C678 C 0.24711 0.17487 0.69608
 C679 C 0.22355 0.16217 0.67374
 O680 O 0.21535 0.12297 0.63157
 C681 C 0.23602 0.10136 0.62043
 C682 C 0.26626 0.10140 0.63627
 C683 C 0.29216 0.08156 0.62849
 C684 C 0.28709 0.06096 0.60287
 C685 C 0.25661 0.06061 0.58519
 C686 C 0.23036 0.08091 0.59449
 H687 H 0.31332 0.12642 0.68090
 H688 H 0.29898 0.17166 0.71350
 H689 H 0.19864 0.17157 0.67117
 H690 H 0.31573 0.08221 0.64138
 H691 H 0.30748 0.04566 0.59644
 H692 H 0.20699 0.08144 0.58137
   
