data_POSCAR
  _audit_creation_date              2014-09-24
  _audit_creation_method            'ToBaCCo'
  _symmetry_space_group_name_H-M    'P1'
  _symmetry_Int_Tables_number       1
  _symmetry_cell_setting            triclinic
  loop_
  _symmetry_equiv_pos_as_xyz
 x,y,z
_cell_length_a 62.3704
_cell_length_b 62.3711
_cell_length_c 36.2876
_cell_angle_alpha 90.177400
_cell_angle_beta 89.775200
_cell_angle_gamma 89.888200
loop_
  _atom_site_label
  _atom_site_type_symbol
  _atom_site_fract_x
  _atom_site_fract_y
  _atom_site_fract_z
C1 C -0.00059 0.26629 -0.01833
 C2 C -0.00029 0.26575 0.01926
 C3 C -0.02040 0.26649 0.04137
 C4 C 0.02013 0.26391 0.03997
 C5 C 0.01949 0.26779 -0.04034
 C6 C -0.02099 0.26483 -0.03920
 C7 C -0.03550 0.28282 0.03630
 C8 C -0.05484 0.28277 0.05585
 C9 C -0.05974 0.26640 0.08166
 C10 C -0.04378 0.25046 0.08726
 C11 C -0.02452 0.25059 0.06749
 C12 C 0.02509 0.27896 0.06741
 C13 C 0.04452 0.27770 0.08634
 C14 C 0.05928 0.26124 0.07833
 C15 C 0.05403 0.24589 0.05140
 C16 C 0.03458 0.24714 0.03257
 C17 C 0.02383 0.25252 -0.06784
 C18 C 0.04312 0.25312 -0.08748
 C19 C 0.05841 0.26909 -0.08013
 C20 C 0.05376 0.28474 -0.05328
 C21 C 0.03442 0.28417 -0.03373
 C22 C -0.03519 0.24772 -0.03341
 C23 C -0.05460 0.24680 -0.05239
 C24 C -0.06008 0.26282 -0.07787
 C25 C -0.04555 0.27964 -0.08429
 C26 C -0.02616 0.28058 -0.06521
 H27 H -0.03231 0.29568 0.01705
 H28 H -0.06531 0.29631 0.05137
 H29 H -0.04628 0.23687 0.10508
 H30 H -0.01306 0.23777 0.07176
 H31 H 0.01409 0.29195 0.07362
 H32 H 0.04818 0.28985 0.10671
 H33 H 0.03081 0.23507 0.01209
 H34 H 0.01250 0.23979 -0.07342
 H35 H 0.04632 0.24072 -0.10772
 H36 H 0.06506 0.29746 -0.04747
 H37 H 0.03117 0.29638 -0.01315
 H38 H -0.03126 0.23514 -0.01407
 H39 H -0.06526 0.23342 -0.04739
 H40 H -0.04939 0.29230 -0.10352
 H41 H -0.01534 0.29384 -0.07019
 H42 H 0.06488 0.23279 0.04514
 C43 C 0.50029 0.76709 0.48053
 C44 C 0.50062 0.76668 0.51811
 C45 C 0.48053 0.76762 0.54023
 C46 C 0.52104 0.76476 0.53880
 C47 C 0.52037 0.76850 0.45847
 C48 C 0.47988 0.76562 0.45971
 C49 C 0.46553 0.78414 0.53496
 C50 C 0.44617 0.78420 0.55447
 C51 C 0.44156 0.76789 0.57994
 C52 C 0.45692 0.75176 0.58600
 C53 C 0.47625 0.75168 0.56640
 C54 C 0.52610 0.77982 0.56617
 C55 C 0.54553 0.77848 0.58507
 C56 C 0.56021 0.76194 0.57709
 C57 C 0.55485 0.74658 0.55025
 C58 C 0.53540 0.74790 0.53145
 C59 C 0.52465 0.75316 0.43106
 C60 C 0.54394 0.75367 0.41141
 C61 C 0.55928 0.76961 0.41866
 C62 C 0.55467 0.78533 0.44541
 C63 C 0.53533 0.78486 0.46497
 C64 C 0.46561 0.74860 0.46578
 C65 C 0.44617 0.74766 0.44688
 C66 C 0.44074 0.76359 0.42121
 C67 C 0.45532 0.78032 0.41451
 C68 C 0.47474 0.78127 0.43351
 H69 H 0.46874 0.79685 0.51545
 H70 H 0.43482 0.79705 0.54971
 H71 H 0.45376 0.73887 0.60516
 H72 H 0.48763 0.73883 0.57093
 H73 H 0.51517 0.79288 0.57235
 H74 H 0.54928 0.79065 0.60538
 H75 H 0.53156 0.73582 0.51103
 H76 H 0.51329 0.74045 0.42557
 H77 H 0.54711 0.74122 0.39124
 H78 H 0.56600 0.79803 0.45113
 H79 H 0.53213 0.79712 0.48547
 H80 H 0.46952 0.73608 0.48526
 H81 H 0.43547 0.73435 0.45209
 H82 H 0.45151 0.79291 0.39512
 H83 H 0.48559 0.79447 0.42833
 H84 H 0.56563 0.73342 0.54401
 C85 C 1.00031 0.73392 -0.01892
 C86 C 1.00060 0.73336 0.01865
 C87 C 1.02099 0.73482 0.03954
 C88 C 0.98052 0.73181 0.04065
 C89 C 0.97990 0.73580 -0.03965
 C90 C 1.02042 0.73318 -0.04102
 C91 C 1.02616 0.71907 0.06556
 C92 C 1.04554 0.72004 0.08469
 C93 C 1.06005 0.73686 0.07829
 C94 C 1.05459 0.75288 0.05279
 C95 C 1.03519 0.75193 0.03377
 C96 C 0.96560 0.71543 0.03397
 C97 C 0.94626 0.71483 0.05351
 C98 C 0.94160 0.73044 0.08042
 C99 C 0.95688 0.74641 0.08784
 C100 C 0.97617 0.74705 0.06821
 C101 C 0.96545 0.75257 -0.03220
 C102 C 0.94603 0.75388 -0.05111
 C103 C 0.94080 0.73859 -0.07816
 C104 C 0.95555 0.72213 -0.08620
 C105 C 0.97495 0.72080 -0.06719
 C106 C 1.02457 0.74914 -0.06710
 C107 C 1.04383 0.74924 -0.08683
 C108 C 1.05960 0.73325 -0.08114
 C109 C 1.05485 0.71686 -0.05549
 C110 C 1.03551 0.71680 -0.03595
 H111 H 1.01536 0.70581 0.07053
 H112 H 1.04937 0.70738 0.10393
 H113 H 1.06523 0.76626 0.04781
 H114 H 1.03126 0.76452 0.01443
 H115 H 0.96886 0.70325 0.01335
 H116 H 0.93497 0.70211 0.04765
 H117 H 0.98749 0.75978 0.07383
 H118 H 0.96920 0.76460 -0.01165
 H119 H 0.93519 0.76697 -0.04482
 H120 H 0.95191 0.71002 -0.10666
 H121 H 0.98595 0.70782 -0.07345
 H122 H 1.01311 0.76196 -0.07139
 H123 H 1.04659 0.76264 -0.10505
 H124 H 1.06566 0.70356 -0.05105
 H125 H 1.03233 0.70395 -0.01667
 H126 H 0.95367 0.75879 0.10812
 C127 C 0.49958 0.23371 0.48175
 C128 C 0.49982 0.23331 0.51934
 C129 C 0.52019 0.23476 0.54028
 C130 C 0.47969 0.23192 0.54127
 C131 C 0.47920 0.23560 0.46092
 C132 C 0.51971 0.23277 0.45974
 C133 C 0.52525 0.21910 0.56652
 C134 C 0.54463 0.22004 0.58565
 C135 C 0.55925 0.23674 0.57904
 C136 C 0.55388 0.25268 0.55334
 C137 C 0.53448 0.25177 0.53431
 C138 C 0.46472 0.21557 0.53471
 C139 C 0.44536 0.21510 0.55420
 C140 C 0.44072 0.23082 0.58093
 C141 C 0.45605 0.24677 0.58823
 C142 C 0.47537 0.24726 0.56865
 C143 C 0.46482 0.25246 0.46814
 C144 C 0.44541 0.25375 0.44921
 C145 C 0.44011 0.23836 0.42237
 C146 C 0.45482 0.22182 0.41453
 C147 C 0.47421 0.22051 0.43356
 C148 C 0.52402 0.24869 0.43354
 C149 C 0.54335 0.24858 0.41398
 C150 C 0.55871 0.23246 0.42009
 C151 C 0.55408 0.21618 0.44562
 C152 C 0.53471 0.21626 0.46510
 H153 H 0.51437 0.20592 0.57163
 H154 H 0.54838 0.20744 0.60507
 H155 H 0.56461 0.26598 0.54819
 H156 H 0.53064 0.26429 0.51480
 H157 H 0.46796 0.20330 0.51423
 H158 H 0.43404 0.20240 0.54844
 H159 H 0.48673 0.25998 0.57419
 H160 H 0.46861 0.26456 0.48855
 H161 H 0.43461 0.26691 0.45534
 H162 H 0.45112 0.20963 0.39423
 H163 H 0.48515 0.20745 0.42748
 H164 H 0.51263 0.26153 0.42894
 H165 H 0.54652 0.26145 0.39477
 H166 H 0.56543 0.20333 0.45044
 H167 H 0.53149 0.20357 0.48463
 H168 H 0.45286 0.25922 0.60838
 C169 C 0.73439 -0.00025 -0.01946
 C170 C 0.73471 -0.00063 0.01813
 C171 C 0.73660 -0.02107 0.03881
 C172 C 0.73370 0.01942 0.04029
 C173 C 0.73579 0.02021 -0.04020
 C174 C 0.73314 -0.02029 -0.04161
 C175 C 0.72157 -0.02613 0.06614
 C176 C 0.72290 -0.04551 0.08520
 C177 C 0.73946 -0.06045 0.07759
 C178 C 0.75480 -0.05483 0.05048
 C179 C 0.75344 -0.03540 0.03160
 C180 C 0.71713 0.03437 0.03509
 C181 C 0.71700 0.05370 0.05465
 C182 C 0.73330 0.05834 0.08011
 C183 C 0.74948 0.04302 0.08610
 C184 C 0.74963 0.02372 0.06646
 C185 C 0.75269 0.03454 -0.03410
 C186 C 0.75361 0.05399 -0.05298
 C187 C 0.73774 0.05963 -0.07899
 C188 C 0.72111 0.04470 -0.08553
 C189 C 0.72023 0.02529 -0.06645
 C190 C 0.74844 -0.02438 -0.06905
 C191 C 0.74805 -0.04355 -0.08901
 C192 C 0.73220 -0.05927 -0.08218
 C193 C 0.71646 -0.05458 -0.05511
 C194 C 0.71689 -0.03533 -0.03534
 H195 H 0.70844 -0.01525 0.07211
 H196 H 0.71021 -0.04898 0.10464
 H197 H 0.76848 -0.06494 0.04447
 H198 H 0.76561 -0.03149 0.01135
 H199 H 0.70444 0.03115 0.01557
 H200 H 0.70412 0.06502 0.04993
 H201 H 0.76251 0.01237 0.07094
 H202 H 0.76525 0.03061 -0.01471
 H203 H 0.76734 0.06410 -0.04788
 H204 H 0.70806 0.04818 -0.10408
 H205 H 0.70705 0.01440 -0.07155
 H206 H 0.76116 -0.01297 -0.07428
 H207 H 0.76099 -0.04628 -0.10836
 H208 H 0.70328 -0.06536 -0.04969
 H209 H 0.70453 -0.03219 -0.01497
 H210 H 0.76236 0.04619 0.10526
 C211 C 0.23410 0.50021 0.48101
 C212 C 0.23449 0.50000 0.51860
 C213 C 0.23632 0.47964 0.53949
 C214 C 0.23360 0.52016 0.54052
 C215 C 0.23561 0.52057 0.46000
 C216 C 0.23266 0.48008 0.45913
 C217 C 0.22120 0.47471 0.56687
 C218 C 0.22244 0.45532 0.58594
 C219 C 0.23893 0.44056 0.57813
 C220 C 0.25436 0.44579 0.55128
 C221 C 0.25313 0.46520 0.53231
 C222 C 0.21713 0.53519 0.53513
 C223 C 0.21711 0.55459 0.55450
 C224 C 0.23341 0.55921 0.57996
 C225 C 0.24950 0.54382 0.58612
 C226 C 0.24954 0.52446 0.56666
 C227 C 0.25266 0.53481 0.46590
 C228 C 0.25361 0.55422 0.44688
 C229 C 0.23765 0.55964 0.42126
 C230 C 0.22090 0.54507 0.41470
 C231 C 0.21994 0.52568 0.43383
 C232 C 0.24798 0.47571 0.43172
 C233 C 0.24742 0.45640 0.41216
 C234 C 0.23142 0.44112 0.41950
 C235 C 0.21573 0.44580 0.44628
 C236 C 0.21627 0.46516 0.46575
 H237 H 0.20817 0.48570 0.57292
 H238 H 0.21023 0.45167 0.60625
 H239 H 0.26748 0.43495 0.54517
 H240 H 0.26525 0.46895 0.51189
 H241 H 0.20442 0.53198 0.51564
 H242 H 0.20429 0.56597 0.54965
 H243 H 0.26235 0.51304 0.57129
 H244 H 0.26519 0.53092 0.48536
 H245 H 0.26693 0.56491 0.45198
 H246 H 0.20830 0.54887 0.39535
 H247 H 0.20672 0.51484 0.42877
 H248 H 0.26073 0.48704 0.42613
 H249 H 0.25985 0.45318 0.39197
 H250 H 0.20299 0.43452 0.45208
 H251 H 0.20402 0.46843 0.48625
 H252 H 0.26238 0.54698 0.60528
 C253 C 0.26518 1.00044 -0.01864
 C254 C 0.26558 1.00015 0.01895
 C255 C 0.26686 1.02024 0.04098
 C256 C 0.26422 0.97974 0.03982
 C257 C 0.26609 0.98033 -0.04071
 C258 C 0.26329 1.02084 -0.03942
 C259 C 0.28308 1.03529 0.03454
 C260 C 0.28351 1.05458 0.05421
 C261 C 0.26782 1.05930 0.08134
 C262 C 0.25200 1.04358 0.08832
 C263 C 0.25159 1.02437 0.06846
 C264 C 0.27995 0.97467 0.06591
 C265 C 0.27909 0.95527 0.08502
 C266 C 0.26238 0.94064 0.07854
 C267 C 0.24637 0.94601 0.05297
 C268 C 0.24721 0.96543 0.03397
 C269 C 0.25022 0.97611 -0.06689
 C270 C 0.25026 0.95684 -0.08660
 C271 C 0.26631 0.94115 -0.08078
 C272 C 0.28260 0.94597 -0.05503
 C273 C 0.28252 0.96531 -0.03550
 C274 C 0.24646 1.03517 -0.03226
 C275 C 0.24510 1.05458 -0.05119
 C276 C 0.26046 1.06017 -0.07830
 C277 C 0.27701 1.04521 -0.08588
 C278 C 0.27833 1.02585 -0.06676
 H279 H 0.29541 1.03212 0.01413
 H280 H 0.29668 1.06536 0.04867
 H281 H 0.23908 1.04632 0.10771
 H282 H 0.23889 1.01295 0.07382
 H283 H 0.29312 0.98557 0.07094
 H284 H 0.29174 0.95152 0.10432
 H285 H 0.23464 0.96928 0.01457
 H286 H 0.23735 0.98750 -0.07128
 H287 H 0.23693 0.95403 -0.10490
 H288 H 0.29594 0.93522 -0.05048
 H289 H 0.29529 0.96855 -0.01613
 H290 H 0.23429 1.03128 -0.01198
 H291 H 0.23144 1.06471 -0.04521
 H292 H 0.28970 1.04866 -0.10532
 H293 H 0.29145 1.01495 -0.07269
 H294 H 0.23308 0.93527 0.04793
 C295 C 0.76514 0.49993 0.48189
 C296 C 0.76594 0.49968 0.51945
 C297 C 0.76765 0.51979 0.54131
 C298 C 0.76453 0.47933 0.54050
 C299 C 0.76554 0.47980 0.45990
 C300 C 0.76331 0.52033 0.46108
 C301 C 0.78405 0.53464 0.53432
 C302 C 0.78478 0.55402 0.55373
 C303 C 0.76928 0.55877 0.58080
 C304 C 0.75330 0.54354 0.58853
 C305 C 0.75254 0.52422 0.56904
 C306 C 0.78046 0.47413 0.56617
 C307 C 0.77948 0.45486 0.58562
 C308 C 0.76243 0.44050 0.58001
 C309 C 0.74626 0.44598 0.55481
 C310 C 0.74725 0.46526 0.53538
 C311 C 0.74922 0.47571 0.43436
 C312 C 0.74883 0.45640 0.41480
 C313 C 0.76486 0.44085 0.42020
 C314 C 0.78157 0.44527 0.44499
 C315 C 0.78195 0.46461 0.46453
 C316 C 0.74669 0.53492 0.46871
 C317 C 0.74547 0.55434 0.44977
 C318 C 0.76070 0.55944 0.42251
 C319 C 0.77700 0.54454 0.41429
 C320 C 0.77823 0.52514 0.43333
 H321 H 0.79613 0.53132 0.51356
 H322 H 0.79749 0.56527 0.54762
 H323 H 0.74101 0.54682 0.60896
 H324 H 0.73979 0.51294 0.57491
 H325 H 0.79379 0.48490 0.57077
 H326 H 0.79198 0.45125 0.60528
 H327 H 0.73460 0.46916 0.51617
 H328 H 0.73652 0.48730 0.43016
 H329 H 0.73597 0.45362 0.39541
 H330 H 0.79408 0.43358 0.44991
 H331 H 0.79489 0.46762 0.48368
 H332 H 0.73471 0.53128 0.48944
 H333 H 0.73249 0.56530 0.45621
 H334 H 0.78906 0.54808 0.39366
 H335 H 0.79111 0.51403 0.42693
 H336 H 0.73301 0.43520 0.54967
 O337 O 0.23118 0.26007 0.20366
 O338 O 0.28371 0.25567 0.24909
 O339 O 0.26172 0.23158 0.20424
 O340 O 0.25317 0.28416 0.24852
 O341 O 0.23780 0.26823 0.29612
 O342 O 0.24635 0.21566 0.25185
 O343 O 0.26834 0.23975 0.29670
 O344 O 0.21581 0.24415 0.25127
 Cu345 Cu 0.25899 0.25948 0.22157
 Cu346 Cu 0.24053 0.24034 0.27879
 C347 C 0.21464 0.25281 0.21975
 C348 C 0.28488 0.24701 0.28061
 C349 C 0.25543 0.21475 0.22053
 C350 C 0.24409 0.28506 0.27983
 O351 O 0.75645 0.78366 0.25049
 O352 O 0.76043 0.73116 0.29621
 O353 O 0.78470 0.75290 0.25122
 O354 O 0.73218 0.76191 0.29545
 O355 O 0.71616 0.74660 0.24793
 O356 O 0.76868 0.73759 0.20370
 O357 O 0.74441 0.71585 0.24869
 O358 O 0.74043 0.76835 0.20296
 Cu359 Cu 0.76006 0.75895 0.27814
 Cu360 Cu 0.74081 0.74055 0.22103
 C361 C 0.74780 0.78486 0.21897
 C362 C 0.75305 0.71465 0.28021
 C363 C 0.78555 0.74378 0.21996
 C364 C 0.71531 0.75573 0.27919
 O365 O 0.78407 0.24506 0.25108
 O366 O 0.73152 0.23841 0.29626
 O367 O 0.75467 0.21545 0.25106
 O368 O 0.76088 0.26803 0.29624
 O369 O 0.74514 0.28367 0.24887
 O370 O 0.73893 0.23110 0.20369
 O371 O 0.71578 0.25405 0.24889
 O372 O 0.76833 0.26070 0.20370
 Cu373 Cu 0.75938 0.24016 0.27843
 Cu374 Cu 0.74046 0.25896 0.22150
 C375 C 0.78507 0.25399 0.21976
 C376 C 0.71478 0.24512 0.28021
 C377 C 0.74575 0.21440 0.21975
 C378 C 0.75403 0.28472 0.28020
 O379 O 0.25508 0.71608 0.24819
 O380 O 0.26114 0.76879 0.20395
 O381 O 0.28443 0.74563 0.24823
 O382 O 0.23180 0.73925 0.20391
 O383 O 0.21615 0.75474 0.25191
 O384 O 0.26879 0.76112 0.29623
 O385 O 0.24550 0.78429 0.25195
 O386 O 0.23944 0.73157 0.29618
 Cu387 Cu 0.25969 0.74087 0.22123
 Cu388 Cu 0.24090 0.75949 0.27892
 C389 C 0.24631 0.71493 0.27972
 C390 C 0.25426 0.78542 0.22041
 C391 C 0.28549 0.75437 0.27978
 C392 C 0.21510 0.74600 0.22036
 O393 O 0.71537 0.25432 0.75271
 O394 O 0.76803 0.26066 0.79700
 O395 O 0.74469 0.28391 0.75294
 O396 O 0.73872 0.23107 0.79681
 O397 O 0.75436 0.21571 0.74869
 O398 O 0.76032 0.26856 0.70480
 O399 O 0.78367 0.24530 0.74887
 O400 O 0.73101 0.23896 0.70459
 Cu401 Cu 0.74013 0.25904 0.77972
 Cu402 Cu 0.75891 0.24059 0.72187
 C403 C 0.71432 0.24565 0.72110
 C404 C 0.78473 0.25397 0.78048
 C405 C 0.75344 0.28514 0.72140
 C406 C 0.74562 0.21449 0.78024
 O407 O 0.28446 0.74591 0.75079
 O408 O 0.23193 0.73928 0.79603
 O409 O 0.25502 0.71634 0.75069
 O410 O 0.26137 0.76884 0.79613
 O411 O 0.24562 0.78459 0.74886
 O412 O 0.23927 0.73210 0.70343
 O413 O 0.21618 0.75503 0.74877
 O414 O 0.26871 0.76166 0.70352
 Cu415 Cu 0.25978 0.74100 0.77818
 Cu416 Cu 0.24086 0.75993 0.72138
 C417 C 0.28545 0.75489 0.71951
 C418 C 0.21519 0.74605 0.78004
 C419 C 0.24608 0.71536 0.71939
 C420 C 0.25455 0.78558 0.78017
 O421 O 0.21526 0.24687 0.74868
 O422 O 0.26777 0.23807 0.70427
 O423 O 0.24357 0.21617 0.74914
 O424 O 0.23945 0.26876 0.70380
 O425 O 0.25548 0.28399 0.75138
 O426 O 0.25960 0.23140 0.79673
 O427 O 0.28380 0.25330 0.75186
 O428 O 0.23129 0.26210 0.79627
 Cu429 Cu 0.23990 0.24093 0.72167
 Cu430 Cu 0.25916 0.25923 0.77886
 C431 C 0.21442 0.25592 0.78001
 C432 C 0.28464 0.24424 0.72053
 C433 C 0.25224 0.21492 0.78063
 C434 C 0.24682 0.28524 0.71989
 O435 O 0.73215 0.76034 0.70232
 O436 O 0.78461 0.75603 0.74802
 O437 O 0.76274 0.73190 0.70308
 O438 O 0.75404 0.78448 0.74722
 O439 O 0.73861 0.76856 0.79478
 O440 O 0.74731 0.71598 0.75064
 O441 O 0.76918 0.74011 0.79558
 O442 O 0.71672 0.74443 0.74988
 Cu443 Cu 0.75994 0.75979 0.72036
 Cu444 Cu 0.74140 0.74066 0.77752
 C445 C 0.71559 0.75307 0.71835
 C446 C 0.78574 0.74738 0.77955
 C447 C 0.75645 0.71507 0.71938
 C448 C 0.74491 0.78539 0.77848
 C449 C 0.27618 0.11759 0.10308
 C450 C 0.26616 0.11933 0.13743
 C451 C 0.25717 0.10119 0.15372
 C452 C 0.25792 0.08140 0.13559
 C453 C 0.26772 0.07927 0.10050
 C454 C 0.27703 0.09783 0.08481
 C455 C 0.26458 0.13983 0.15558
 C456 C 0.26294 0.15701 0.17066
 C457 C 0.26065 0.17712 0.18819
 C458 C 0.25841 0.19430 0.20303
 H459 H 0.28305 0.13161 0.09005
 H460 H 0.24951 0.10232 0.18052
 H461 H 0.25132 0.06776 0.14999
 H462 H 0.28410 0.09762 0.05757
 C463 C 0.77271 0.61862 0.59882
 C464 C 0.76778 0.61969 0.63644
 C465 C 0.76391 0.60083 0.65612
 C466 C 0.76471 0.58097 0.63819
 C467 C 0.76939 0.57974 0.60027
 C468 C 0.77353 0.59878 0.58083
 C469 C 0.76606 0.64018 0.65459
 C470 C 0.76429 0.65734 0.66966
 C471 C 0.76186 0.67744 0.68715
 C472 C 0.75953 0.69462 0.70195
 H473 H 0.77563 0.63314 0.58328
 H474 H 0.76010 0.60147 0.68526
 H475 H 0.76170 0.56658 0.65398
 H476 H 0.77688 0.59838 0.55153
 C477 C 0.73226 0.89716 0.14988
 C478 C 0.74258 0.87968 0.13341
 C479 C 0.75195 0.88196 0.09864
 C480 C 0.75101 0.90161 0.08031
 C481 C 0.74059 0.91956 0.09637
 C482 C 0.73123 0.91685 0.13167
 C483 C 0.74354 0.85939 0.15213
 C484 C 0.74439 0.84235 0.16766
 C485 C 0.74546 0.82236 0.18570
 C486 C 0.74647 0.80526 0.20097
 H487 H 0.72509 0.89561 0.17700
 H488 H 0.75984 0.86846 0.08548
 H489 H 0.75777 0.90222 0.05286
 H490 H 0.72376 0.93003 0.14628
 C491 C 0.23642 0.39880 0.65393
 C492 C 0.24166 0.38009 0.63448
 C493 C 0.24605 0.38113 0.59668
 C494 C 0.24521 0.40080 0.57837
 C495 C 0.23994 0.41971 0.59766
 C496 C 0.23554 0.41849 0.63567
 C497 C 0.24257 0.35982 0.65324
 C498 C 0.24339 0.34279 0.66879
 C499 C 0.24445 0.32279 0.68680
 C500 C 0.24546 0.30567 0.70200
 H501 H 0.23305 0.39818 0.68322
 H502 H 0.25007 0.36674 0.58134
 H503 H 0.24838 0.40117 0.54902
 H504 H 0.23169 0.43279 0.65134
 C505 C 0.89827 0.25269 0.15069
 C506 C 0.88061 0.26368 0.13672
 C507 C 0.88288 0.27594 0.10488
 C508 C 0.90268 0.27709 0.08678
 C509 C 0.92093 0.26584 0.10000
 C510 C 0.91811 0.25371 0.13277
 C511 C 0.86008 0.26205 0.15473
 C512 C 0.84288 0.26047 0.16973
 C513 C 0.82273 0.25839 0.18721
 C514 C 0.80553 0.25645 0.20209
 H515 H 0.89675 0.24332 0.17567
 H516 H 0.86921 0.28438 0.09359
 H517 H 0.90288 0.28593 0.06125
 H518 H 0.93124 0.24560 0.14615
 C519 C 0.38173 0.77096 0.59867
 C520 C 0.38073 0.76503 0.63580
 C521 C 0.39963 0.76046 0.65492
 C522 C 0.41945 0.76161 0.63691
 C523 C 0.42061 0.76737 0.59949
 C524 C 0.40153 0.77214 0.58061
 C525 C 0.36029 0.76324 0.65407
 C526 C 0.34315 0.76154 0.66924
 C527 C 0.32306 0.75937 0.68686
 C528 C 0.30590 0.75738 0.70181
 H529 H 0.36719 0.77445 0.58357
 H530 H 0.39904 0.75589 0.68369
 H531 H 0.43387 0.75809 0.65228
 H532 H 0.40187 0.77632 0.55168
 C533 C 0.10179 0.73314 0.15392
 C534 C 0.12040 0.73917 0.13499
 C535 C 0.11932 0.74440 0.09757
 C536 C 0.09970 0.74365 0.07913
 C537 C 0.08088 0.73765 0.09792
 C538 C 0.08214 0.73236 0.13553
 C539 C 0.14061 0.74016 0.15393
 C540 C 0.15760 0.74116 0.16956
 C541 C 0.17756 0.74256 0.18756
 C542 C 0.19467 0.74398 0.20269
 H543 H 0.10244 0.72913 0.18293
 H544 H 0.13364 0.74904 0.08263
 H545 H 0.09930 0.74750 0.05007
 H546 H 0.06790 0.72792 0.15083
 C547 C 0.60095 0.23312 0.65475
 C548 C 0.61961 0.23894 0.63574
 C549 C 0.61856 0.24400 0.59825
 C550 C 0.59894 0.24328 0.57981
 C551 C 0.58007 0.23749 0.59867
 C552 C 0.58130 0.23237 0.63635
 C553 C 0.63981 0.23990 0.65468
 C554 C 0.65680 0.24088 0.67031
 C555 C 0.67677 0.24225 0.68832
 C556 C 0.69388 0.24366 0.70344
 H557 H 0.60157 0.22924 0.68381
 H558 H 0.63291 0.24848 0.58324
 H559 H 0.59856 0.24700 0.55069
 H560 H 0.56703 0.22809 0.65171
 C561 C 0.74970 0.11720 0.89925
 C562 C 0.73976 0.11951 0.86508
 C563 C 0.72916 0.10207 0.84928
 C564 C 0.72846 0.08238 0.86755
 C565 C 0.73844 0.07964 0.90222
 C566 C 0.74909 0.09756 0.91763
 C567 C 0.74053 0.13977 0.84624
 C568 C 0.74135 0.15680 0.83070
 C569 C 0.74254 0.17682 0.81279
 C570 C 0.74380 0.19399 0.79777
 H571 H 0.75781 0.13068 0.91190
 H572 H 0.72156 0.10364 0.82262
 H573 H 0.72076 0.06922 0.85344
 H574 H 0.75630 0.09694 0.94465
 C575 C 0.23399 0.60146 0.34571
 C576 C 0.23984 0.62008 0.36476
 C577 C 0.24494 0.61897 0.40223
 C578 C 0.24423 0.59932 0.42059
 C579 C 0.23840 0.58049 0.40169
 C580 C 0.23325 0.58178 0.36404
 C581 C 0.24077 0.64032 0.34590
 C582 C 0.24172 0.65734 0.33034
 C583 C 0.24304 0.67734 0.31240
 C584 C 0.24440 0.69447 0.29734
 H585 H 0.23008 0.60213 0.31667
 H586 H 0.24944 0.63329 0.41726
 H587 H 0.24798 0.59889 0.44970
 H588 H 0.22895 0.56753 0.34866
 C589 C 0.25435 0.89905 0.84802
 C590 C 0.26389 0.88099 0.86364
 C591 C 0.27462 0.88284 0.89720
 C592 C 0.27567 0.90263 0.91530
 C593 C 0.26587 0.92112 0.90025
 C594 C 0.25530 0.91887 0.86599
 C595 C 0.26232 0.86048 0.84554
 C596 C 0.26079 0.84330 0.83046
 C597 C 0.25878 0.82319 0.81289
 C598 C 0.25692 0.80602 0.79793
 H599 H 0.24615 0.89783 0.82182
 H600 H 0.28193 0.86888 0.90972
 H601 H 0.28333 0.90292 0.94196
 H602 H 0.24827 0.93245 0.85206
 C603 C 0.78160 0.39053 0.36821
 C604 C 0.76190 0.38007 0.36422
 C605 C 0.74321 0.38950 0.37831
 C606 C 0.74418 0.40929 0.39638
 C607 C 0.76389 0.41994 0.40060
 C608 C 0.78260 0.41034 0.38631
 C609 C 0.76080 0.35962 0.34586
 C610 C 0.75959 0.34246 0.33063
 C611 C 0.75789 0.32236 0.31294
 C612 C 0.75623 0.30517 0.29794
 H613 H 0.79616 0.38339 0.35734
 H614 H 0.72790 0.38150 0.37550
 H615 H 0.72954 0.41609 0.40756
 H616 H 0.79797 0.41825 0.38878
 C617 C 0.11823 0.27240 0.90125
 C618 C 0.11921 0.26730 0.86369
 C619 C 0.10029 0.26332 0.84425
 C620 C 0.08047 0.26419 0.86236
 C621 C 0.07934 0.26906 0.90021
 C622 C 0.09844 0.27330 0.91941
 C623 C 0.13965 0.26556 0.84536
 C624 C 0.15678 0.26378 0.83014
 C625 C 0.17685 0.26135 0.81250
 C626 C 0.19400 0.25901 0.79758
 H627 H 0.13279 0.27542 0.91660
 H628 H 0.10086 0.25937 0.81517
 H629 H 0.06604 0.26110 0.84676
 H630 H 0.09811 0.27680 0.94865
 C631 C 0.61910 0.77270 0.40008
 C632 C 0.62008 0.76753 0.36256
 C633 C 0.60115 0.76357 0.34312
 C634 C 0.58134 0.76453 0.36120
 C635 C 0.58021 0.76948 0.39902
 C636 C 0.59931 0.77369 0.41822
 C637 C 0.64052 0.76569 0.34427
 C638 C 0.65765 0.76383 0.32910
 C639 C 0.67773 0.76132 0.31153
 C640 C 0.69488 0.75890 0.29667
 H641 H 0.63366 0.77570 0.41544
 H642 H 0.60172 0.75957 0.31406
 H643 H 0.56690 0.76145 0.34560
 H644 H 0.59898 0.77724 0.44745
 C645 C 0.89912 0.73652 0.84593
 C646 C 0.88039 0.74170 0.86541
 C647 C 0.88140 0.74590 0.90327
 C648 C 0.90104 0.74493 0.92161
 C649 C 0.91996 0.73972 0.90229
 C650 C 0.91878 0.73552 0.86423
 C651 C 0.86015 0.74274 0.84659
 C652 C 0.84315 0.74367 0.83098
 C653 C 0.82319 0.74484 0.81288
 C654 C 0.80611 0.74594 0.79757
 H655 H 0.89853 0.73330 0.81659
 H656 H 0.86699 0.74987 0.91863
 H657 H 0.90138 0.74795 0.95100
 H658 H 0.93310 0.73172 0.84853
 C659 C 0.39835 0.23604 0.34661
 C660 C 0.37966 0.24136 0.36608
 C661 C 0.38071 0.24573 0.40388
 C662 C 0.40037 0.24480 0.42217
 C663 C 0.41926 0.23946 0.40286
 C664 C 0.41803 0.23508 0.36486
 C665 C 0.35939 0.24237 0.34732
 C666 C 0.34237 0.24328 0.33177
 C667 C 0.32239 0.24444 0.31376
 C668 C 0.30529 0.24554 0.29853
 H669 H 0.39772 0.23269 0.31733
 H670 H 0.36633 0.24980 0.41923
 H671 H 0.40075 0.24795 0.45152
 H672 H 0.43232 0.23117 0.34917
 C673 C 0.74295 0.89894 0.84533
 C674 C 0.73394 0.88078 0.86152
 C675 C 0.72386 0.88248 0.89584
 C676 C 0.72299 0.90221 0.91416
 C677 C 0.73232 0.92079 0.89858
 C678 C 0.74217 0.91871 0.86352
 C679 C 0.73556 0.86029 0.84334
 C680 C 0.73725 0.84313 0.82825
 C681 C 0.73959 0.82302 0.81075
 C682 C 0.74187 0.80584 0.79593
 H683 H 0.75065 0.89784 0.81856
 H684 H 0.71698 0.86844 0.90879
 H685 H 0.71588 0.90239 0.94137
 H686 H 0.74879 0.93237 0.84921
 C687 C 0.22800 0.38131 0.40095
 C688 C 0.23314 0.38033 0.36340
 C689 C 0.23721 0.39924 0.34395
 C690 C 0.23638 0.41905 0.36204
 C691 C 0.23146 0.42019 0.39988
 C692 C 0.22714 0.40111 0.41909
 C693 C 0.23481 0.35988 0.34508
 C694 C 0.23652 0.34275 0.32988
 C695 C 0.23886 0.32267 0.31225
 C696 C 0.24111 0.30551 0.29736
 H697 H 0.22492 0.36676 0.41631
 H698 H 0.24118 0.39866 0.31488
 H699 H 0.23953 0.43347 0.34643
 H700 H 0.22360 0.40144 0.44832
 C701 C 0.26772 0.10253 0.84939
 C702 C 0.25744 0.12002 0.86586
 C703 C 0.24807 0.11776 0.90063
 C704 C 0.24897 0.09811 0.91897
 C705 C 0.25936 0.08015 0.90290
 C706 C 0.26872 0.08284 0.86760
 C707 C 0.25651 0.14031 0.84716
 C708 C 0.25568 0.15736 0.83166
 C709 C 0.25462 0.17736 0.81369
 C710 C 0.25360 0.19449 0.79851
 H711 H 0.27489 0.10406 0.82227
 H712 H 0.24020 0.13129 0.91380
 H713 H 0.24222 0.09753 0.94643
 H714 H 0.27616 0.06964 0.85300
 C715 C 0.76293 0.60114 0.34657
 C716 C 0.75800 0.61991 0.36609
 C717 C 0.75390 0.61892 0.40399
 C718 C 0.75473 0.59926 0.42233
 C719 C 0.75969 0.58030 0.40296
 C720 C 0.76379 0.58146 0.36485
 C721 C 0.75712 0.64018 0.34729
 C722 C 0.75633 0.65719 0.33168
 C723 C 0.75532 0.67716 0.31357
 C724 C 0.75435 0.69426 0.29825
 H725 H 0.76607 0.60171 0.31720
 H726 H 0.75013 0.63336 0.41940
 H727 H 0.75180 0.59894 0.45176
 H728 H 0.76739 0.56711 0.34912
 C729 C 0.10165 0.74559 0.84772
 C730 C 0.11975 0.73610 0.86329
 C731 C 0.11795 0.72528 0.89678
 C732 C 0.09816 0.72409 0.91488
 C733 C 0.07962 0.73383 0.89990
 C734 C 0.08183 0.74450 0.86570
 C735 C 0.14026 0.73781 0.84520
 C736 C 0.15744 0.73946 0.83015
 C737 C 0.17756 0.74160 0.81263
 C738 C 0.19474 0.74356 0.79772
 H739 H 0.10284 0.75386 0.82158
 H740 H 0.13193 0.71800 0.90925
 H741 H 0.09789 0.71636 0.94149
 H742 H 0.06822 0.75150 0.85182
 C743 C 0.60061 0.23975 0.34501
 C744 C 0.61952 0.23516 0.36410
 C745 C 0.61853 0.22928 0.40126
 C746 C 0.59874 0.22815 0.41936
 C747 C 0.57965 0.23293 0.40051
 C748 C 0.58080 0.23865 0.36307
 C749 C 0.63995 0.23690 0.34579
 C750 C 0.65709 0.23856 0.33057
 C751 C 0.67717 0.24070 0.31290
 C752 C 0.69433 0.24266 0.29792
 H753 H 0.60119 0.24429 0.31623
 H754 H 0.63308 0.22578 0.41634
 H755 H 0.59841 0.22400 0.44831
 H756 H 0.56638 0.24217 0.34771
 C757 C 0.88063 0.25538 0.90303
 C758 C 0.87951 0.26063 0.86562
 C759 C 0.89811 0.26663 0.84663
 C760 C 0.91778 0.26737 0.86497
 C761 C 0.91908 0.26207 0.90256
 C762 C 0.90027 0.25609 0.92140
 C763 C 0.85928 0.25968 0.84675
 C764 C 0.84227 0.25872 0.83117
 C765 C 0.82229 0.25736 0.81322
 C766 C 0.80517 0.25596 0.79812
 H767 H 0.86631 0.25076 0.91801
 H768 H 0.89744 0.27066 0.81764
 H769 H 0.93201 0.27180 0.84962
 H770 H 0.90070 0.25222 0.95046
 C771 C 0.39888 0.76714 0.34574
 C772 C 0.38027 0.76129 0.36486
 C773 C 0.38140 0.75625 0.40235
 C774 C 0.40105 0.75700 0.42068
 C775 C 0.41987 0.76282 0.40170
 C776 C 0.41856 0.76793 0.36403
 C777 C 0.36003 0.76028 0.34602
 C778 C 0.34302 0.75926 0.33047
 C779 C 0.32304 0.75784 0.31252
 C780 C 0.30592 0.75640 0.29743
 H781 H 0.39820 0.77101 0.31668
 H782 H 0.36708 0.75174 0.41743
 H783 H 0.40149 0.75329 0.44980
 H784 H 0.43280 0.77222 0.34859
 C785 C 0.25528 0.88131 0.09773
 C786 C 0.26045 0.88024 0.13517
 C787 C 0.26628 0.89889 0.15415
 C788 C 0.26693 0.91855 0.13578
 C789 C 0.26171 0.91980 0.09815
 C790 C 0.25591 0.90095 0.07931
 C791 C 0.25960 0.86001 0.15408
 C792 C 0.25872 0.84300 0.16968
 C793 C 0.25746 0.82301 0.18766
 C794 C 0.25615 0.80588 0.20277
 H795 H 0.25079 0.86696 0.08275
 H796 H 0.27024 0.89824 0.18317
 H797 H 0.27122 0.93282 0.15111
 H798 H 0.25210 0.90134 0.05023
 C799 C 0.74119 0.39246 0.63263
 C800 C 0.75989 0.38036 0.63747
 C801 C 0.77945 0.38799 0.62384
 C802 C 0.78031 0.40760 0.60533
 C803 C 0.76158 0.41984 0.60017
 C804 C 0.74201 0.41206 0.61411
 C805 C 0.75893 0.36002 0.65601
 C806 C 0.75798 0.34293 0.67134
 C807 C 0.75667 0.32285 0.68904
 C808 C 0.75533 0.30566 0.70394
 H809 H 0.72597 0.38672 0.64313
 H810 H 0.79401 0.37872 0.62730
 H811 H 0.79556 0.41302 0.59450
 H812 H 0.72737 0.42123 0.61099
 C813 C 0.73005 0.11813 0.09898
 C814 C 0.73599 0.11911 0.13609
 C815 C 0.74064 0.10020 0.15516
 C816 C 0.73953 0.08040 0.13711
 C817 C 0.73375 0.07926 0.09971
 C818 C 0.72892 0.09835 0.08089
 C819 C 0.73774 0.13954 0.15439
 C820 C 0.73938 0.15667 0.16956
 C821 C 0.74148 0.17676 0.18717
 C822 C 0.74339 0.19393 0.20210
 H823 H 0.72651 0.13268 0.08392
 H824 H 0.74522 0.10077 0.18391
 H825 H 0.74310 0.06597 0.15245
 H826 H 0.72472 0.09803 0.05196
 C827 C 0.24082 0.60120 0.65479
 C828 C 0.23626 0.62009 0.63562
 C829 C 0.23038 0.61907 0.59848
 C830 C 0.22921 0.59925 0.58048
 C831 C 0.23395 0.58018 0.59943
 C832 C 0.23968 0.58137 0.63685
 C833 C 0.23801 0.64054 0.65385
 C834 C 0.23966 0.65768 0.66901
 C835 C 0.24177 0.67777 0.68665
 C836 C 0.24369 0.69493 0.70163
 H837 H 0.24535 0.60180 0.68357
 H838 H 0.22690 0.63360 0.58333
 H839 H 0.22505 0.59889 0.55154
 H840 H 0.24317 0.56695 0.65227
 C841 C 0.88178 0.72713 0.09895
 C842 C 0.88079 0.73218 0.13652
 C843 C 0.89971 0.73612 0.15600
 C844 C 0.91952 0.73526 0.13792
 C845 C 0.92067 0.73044 0.10005
 C846 C 0.90158 0.72624 0.08081
 C847 C 0.86035 0.73395 0.15482
 C848 C 0.84321 0.73576 0.16999
 C849 C 0.82314 0.73823 0.18759
 C850 C 0.80598 0.74062 0.20246
 H851 H 0.86723 0.72415 0.08357
 H852 H 0.89912 0.74004 0.18510
 H853 H 0.93395 0.73833 0.15355
 H854 H 0.90192 0.72278 0.05155
 C855 C 0.39880 0.23681 0.65642
 C856 C 0.37989 0.23280 0.63697
 C857 C 0.38088 0.22764 0.59944
 C858 C 0.40069 0.22669 0.58132
 C859 C 0.41978 0.23094 0.60053
 C860 C 0.41862 0.23588 0.63836
 C861 C 0.35944 0.23458 0.65526
 C862 C 0.34230 0.23637 0.67045
 C863 C 0.32222 0.23881 0.68807
 C864 C 0.30507 0.24115 0.70297
 H865 H 0.39821 0.24080 0.68549
 H866 H 0.36633 0.22461 0.58408
 H867 H 0.40103 0.22314 0.55210
 H868 H 0.43305 0.23899 0.65398
 C869 C 0.11874 0.25408 0.09659
 C870 C 0.11982 0.25836 0.13441
 C871 C 0.10112 0.26355 0.15397
 C872 C 0.08142 0.26448 0.13579
 C873 C 0.08016 0.26019 0.09776
 C874 C 0.09906 0.25498 0.07836
 C875 C 0.14010 0.25738 0.15311
 C876 C 0.15713 0.25649 0.16862
 C877 C 0.17712 0.25535 0.18661
 C878 C 0.19423 0.25427 0.20183
 H879 H 0.13312 0.25010 0.08116
 H880 H 0.10177 0.26684 0.18328
 H881 H 0.06712 0.26829 0.15155
 H882 H 0.09866 0.25189 0.04898
 C883 C 0.60212 0.76414 0.65261
 C884 C 0.62077 0.75883 0.63303
 C885 C 0.61964 0.75450 0.59522
 C886 C 0.59995 0.75547 0.57704
 C887 C 0.58110 0.76081 0.59647
 C888 C 0.58241 0.76515 0.63448
 C889 C 0.64107 0.75778 0.65167
 C890 C 0.65811 0.75684 0.66716
 C891 C 0.67810 0.75565 0.68514
 C892 C 0.69520 0.75454 0.70037
 H893 H 0.60281 0.76747 0.68191
 H894 H 0.63399 0.75043 0.57977
 H895 H 0.59951 0.75235 0.54768
 H896 H 0.56815 0.76905 0.65026
   
