data_POSCAR
  _audit_creation_date              2014-09-24
  _audit_creation_method            'ToBaCCo'
  _symmetry_space_group_name_H-M    'P1'
  _symmetry_Int_Tables_number       1
  _symmetry_cell_setting            triclinic
  loop_
  _symmetry_equiv_pos_as_xyz
 x,y,z
_cell_length_a 19.7590
_cell_length_b 19.7329
_cell_length_c 34.3203
_cell_angle_alpha 89.978200
_cell_angle_beta 92.062300
_cell_angle_gamma 89.977700
loop_
  _atom_site_label
  _atom_site_type_symbol
  _atom_site_fract_x
  _atom_site_fract_y
  _atom_site_fract_z
C1 C -0.00104 0.68211 0.99998
 C2 C -0.00730 0.64713 1.03510
 C3 C -0.00979 0.57609 1.03476
 C4 C -0.00108 0.53912 0.99995
 C5 C 0.00766 0.57617 0.96515
 C6 C 0.00523 0.64723 0.96485
 C7 C -0.00111 0.46271 0.99993
 C8 C -0.01294 0.42567 0.96491
 C9 C -0.01069 0.35476 0.96480
 C10 C -0.00115 0.31994 0.99989
 C11 C 0.00843 0.35465 1.03500
 C12 C 0.01071 0.42556 1.03493
 H13 H -0.00102 0.73712 1.00000
 H14 H -0.01902 0.55038 1.06176
 H15 H 0.01689 0.55053 0.93814
 H16 H -0.02375 0.45080 0.93747
 H17 H -0.00116 0.26502 0.99987
 H18 H 0.02156 0.45060 1.06238
 C19 C 0.32204 0.00519 0.50767
 C20 C 0.36329 -0.00058 0.54128
 C21 C 0.43375 -0.00285 0.53826
 C22 C 0.46417 0.00485 0.50167
 C23 C 0.42050 0.01245 0.46818
 C24 C 0.35003 0.01034 0.47110
 C25 C 0.54032 0.00476 0.49845
 C26 C 0.57066 -0.00311 0.46187
 C27 C 0.64118 -0.00083 0.45871
 C28 C 0.68244 0.00487 0.49243
 C29 C 0.65453 0.01000 0.52910
 C30 C 0.58394 0.01237 0.53192
 H31 H 0.26744 0.00517 0.50996
 H32 H 0.46352 -0.01126 0.56472
 H33 H 0.43986 0.02044 0.43961
 H34 H 0.54052 -0.01167 0.43557
 H35 H 0.73709 0.00481 0.49011
 H36 H 0.56420 0.02061 0.56036
 C37 C 0.11917 -0.00349 0.27926
 H38 H 0.13163 -0.00940 0.24901
 C39 C 0.17093 -0.00008 0.30821
 H40 H 0.22334 -0.00406 0.30028
 C41 C 0.03609 0.01046 0.32667
 H42 H -0.01621 0.01681 0.33391
 C43 C 0.08588 0.01394 0.35631
 H44 H 0.07058 0.02183 0.38587
 N45 N 0.05311 0.00050 0.28905
 C46 C -0.06665 -0.08576 0.19187
 H47 H -0.10572 -0.04732 0.19063
 C48 C -0.06746 -0.13763 0.16437
 H49 H -0.10730 -0.13914 0.14186
 C50 C 0.03453 -0.12883 0.22180
 H51 H 0.07435 -0.12479 0.24408
 C52 C 0.03574 -0.18173 0.19463
 H53 H 0.07692 -0.21789 0.19602
 Zn54 Zn -0.01782 -0.00219 0.25027
 N55 N -0.01534 -0.08127 0.21922
 C56 C 0.02145 0.06080 0.18237
 N57 N -0.00735 0.07374 0.21700
 C58 C -0.02419 0.13814 0.22721
 C59 C -0.01829 0.19132 0.20045
 C60 C 0.03026 0.11250 0.15548
 C61 C -0.11059 -0.06024 0.29774
 C62 C -0.16397 -0.06373 0.32307
 C63 C -0.20345 0.04477 0.29887
 C64 C -0.14912 0.04615 0.27378
 N65 N -0.10212 -0.00437 0.27521
 H66 H 0.03778 0.01011 0.17545
 H67 H -0.04313 0.14817 0.25579
 H68 H -0.03444 0.24184 0.20814
 H69 H 0.05224 0.10092 0.12780
 H70 H -0.07306 -0.10019 0.29787
 H71 H -0.16738 -0.10638 0.34278
 H72 H -0.23808 0.08723 0.29931
 H73 H -0.14335 0.08881 0.25455
 C74 C -0.01508 -0.18536 0.16507
 C75 C 0.15419 0.00797 0.34729
 C76 C -0.20945 -0.00958 0.32486
 C77 C 0.00811 0.17807 0.16385
 C78 C 0.02317 0.13857 0.77268
 H79 H 0.04251 0.14858 0.74419
 C80 C 0.01697 0.19176 0.79939
 H81 H 0.03330 0.24224 0.79176
 C82 C -0.02311 0.06129 0.81734
 H83 H -0.03953 0.01062 0.82422
 C84 C -0.03222 0.11301 0.84417
 H85 H -0.05452 0.10144 0.87177
 N86 N 0.00617 0.07420 0.78285
 C87 C 0.11093 -0.05990 0.70286
 H88 H 0.07341 -0.09983 0.70254
 C89 C 0.16484 -0.06347 0.67791
 H90 H 0.16865 -0.10618 0.65828
 C91 C 0.14896 0.04653 0.72693
 H92 H 0.14280 0.08923 0.74607
 C93 C 0.20381 0.04506 0.70222
 H94 H 0.23844 0.08751 0.70194
 Zn95 Zn 0.01724 -0.00177 0.74971
 N96 N 0.10199 -0.00397 0.72525
 C97 C -0.03551 0.01053 0.67301
 N98 N -0.05310 0.00079 0.71056
 C99 C -0.11932 -0.00313 0.72003
 C100 C -0.17066 0.00015 0.69083
 C101 C -0.08488 0.01387 0.64313
 C102 C 0.06540 -0.08526 0.80836
 C103 C 0.06598 -0.13714 0.83587
 C104 C -0.03686 -0.18128 0.80527
 C105 C -0.03542 -0.12838 0.77808
 N106 N 0.01439 -0.08081 0.78082
 H107 H 0.01691 0.01680 0.66602
 H108 H -0.13223 -0.00887 0.75022
 H109 H -0.22320 -0.00376 0.69850
 H110 H -0.06915 0.02157 0.61363
 H111 H 0.10442 -0.04681 0.80972
 H112 H 0.10560 -0.13865 0.85850
 H113 H -0.07798 -0.21747 0.80374
 H114 H -0.07500 -0.12435 0.75565
 C115 C 0.21036 -0.00935 0.67635
 C116 C -0.00988 0.17853 0.83588
 C117 C 0.01367 -0.18491 0.83499
 C118 C -0.15334 0.00798 0.65182
 C119 C 0.04169 -0.29066 0.12579
 C120 C -0.01557 -0.34038 0.11267
 C121 C -0.00992 -0.31504 0.07042
 C122 C 0.04738 -0.26613 0.08318
 C123 C -0.06333 -0.25990 0.07703
 C124 C -0.06906 -0.28445 0.11965
 C125 C -0.01179 -0.23544 0.13225
 C126 C -0.00607 -0.21064 0.08997
 H127 H 0.08517 -0.30371 0.14575
 H128 H -0.01966 -0.39371 0.12257
 H129 H 0.09541 -0.25870 0.06791
 H130 H -0.10662 -0.24743 0.05677
 H131 H -0.11701 -0.29161 0.13502
 H132 H -0.00198 -0.15689 0.08079
 C133 C 0.07381 0.26497 0.11761
 C134 C 0.05081 0.24657 0.07540
 C135 C 0.01199 0.31409 0.07207
 C136 C 0.03499 0.33338 0.11397
 C137 C -0.05216 0.28026 0.08714
 C138 C -0.01351 0.21257 0.09044
 C139 C 0.00956 0.23104 0.13244
 C140 C -0.02928 0.29864 0.12944
 H141 H 0.12570 0.25825 0.13051
 H142 H 0.08413 0.22513 0.05314
 H143 H 0.05521 0.38340 0.12348
 H144 H -0.10413 0.28681 0.07430
 H145 H -0.03395 0.16280 0.08059
 H146 H -0.06253 0.32001 0.15174
 C147 C 0.30681 -0.06290 0.63121
 C148 C 0.27702 -0.05807 0.58897
 C149 C 0.32988 -0.00367 0.57987
 C150 C 0.36047 -0.00836 0.62171
 C151 C 0.28139 0.05278 0.59227
 C152 C 0.22828 -0.00164 0.60143
 C153 C 0.25818 -0.00640 0.64337
 C154 C 0.31117 0.04813 0.63448
 H155 H 0.31697 -0.11052 0.64762
 H156 H 0.26312 -0.10179 0.56998
 H157 H 0.41517 -0.01121 0.63008
 H158 H 0.27100 0.10046 0.57594
 H159 H 0.17351 0.00127 0.59315
 H160 H 0.32561 0.09201 0.65320
 C161 C -0.25963 0.06646 0.61291
 C162 C -0.24535 0.06508 0.56878
 C163 C -0.30072 0.01105 0.56264
 C164 C -0.31598 0.01241 0.60636
 C165 C -0.24849 -0.04592 0.56969
 C166 C -0.19266 0.00811 0.57585
 C167 C -0.20720 0.00955 0.61966
 C168 C -0.26278 -0.04447 0.61369
 H169 H -0.26362 0.11282 0.63098
 H170 H -0.23851 0.11040 0.55015
 H171 H -0.36665 0.01417 0.61926
 H172 H -0.24414 -0.09247 0.55179
 H173 H -0.14294 0.00582 0.56191
 H174 H -0.26943 -0.08975 0.63237
 C175 C 0.00424 -0.21039 0.91006
 C176 C -0.04925 -0.26585 0.91674
 C177 C 0.00798 -0.31485 0.92955
 C178 C 0.06144 -0.25974 0.92306
 C179 C 0.01383 -0.34007 0.88731
 C180 C -0.04336 -0.29026 0.87412
 C181 C 0.01017 -0.23506 0.86778
 C182 C 0.06737 -0.28417 0.88045
 H183 H 0.00012 -0.15666 0.91926
 H184 H -0.09736 -0.25842 0.93193
 H185 H 0.10465 -0.24737 0.94339
 H186 H 0.01796 -0.39337 0.87738
 H187 H -0.08676 -0.30319 0.85409
 H188 H 0.11539 -0.29133 0.86514
 C189 C -0.07581 0.26539 0.88206
 C190 C -0.05298 0.24684 0.92429
 C191 C -0.01416 0.31432 0.92770
 C192 C -0.03698 0.33375 0.88579
 C193 C 0.05005 0.28047 0.91270
 C194 C 0.01140 0.21283 0.90931
 C195 C -0.01149 0.23144 0.86730
 C196 C 0.02735 0.29899 0.87038
 H197 H -0.12764 0.25875 0.86909
 H198 H -0.08639 0.22537 0.94649
 H199 H -0.05716 0.38382 0.87627
 H200 H 0.10197 0.28693 0.92561
 H201 H 0.03179 0.16301 0.91917
 H202 H 0.06069 0.32041 0.84814
 C203 C -0.30945 0.04806 0.36727
 C204 C -0.35862 -0.00835 0.38030
 C205 C -0.32734 -0.00372 0.42201
 C206 C -0.27903 0.05270 0.40936
 C207 C -0.27470 -0.05826 0.41268
 C208 C -0.30514 -0.06298 0.37055
 C209 C -0.25666 -0.00656 0.35813
 C210 C -0.22612 -0.00186 0.39993
 H211 H -0.32413 0.09197 0.34860
 H212 H -0.41331 -0.01111 0.37189
 H213 H -0.26827 0.10041 0.42556
 H214 H -0.26048 -0.10206 0.43157
 H215 H -0.31557 -0.11057 0.35420
 H216 H -0.17123 0.00095 0.40792
 C217 C 0.26419 -0.04429 0.38506
 C218 C 0.31738 0.01263 0.39205
 C219 C 0.30274 0.01150 0.43584
 C220 C 0.25046 -0.04545 0.42911
 C221 C 0.24723 0.06545 0.42980
 C222 C 0.26094 0.06664 0.38561
 C223 C 0.20849 0.00970 0.37919
 C224 C 0.19453 0.00849 0.42308
 H225 H 0.27065 -0.08968 0.36646
 H226 H 0.36810 0.01435 0.37922
 H227 H 0.24649 -0.09185 0.44720
 H228 H 0.24068 0.11082 0.44840
 H229 H 0.26467 0.11292 0.36742
 H230 H 0.14502 0.00626 0.43727
   
