data_POSCAR
  _audit_creation_date              2014-09-24
  _audit_creation_method            'ToBaCCo'
  _symmetry_space_group_name_H-M    'P1'
  _symmetry_Int_Tables_number       1
  _symmetry_cell_setting            triclinic
  loop_
  _symmetry_equiv_pos_as_xyz
 x,y,z
_cell_length_a 42.7188
_cell_length_b 42.7183
_cell_length_c 42.7653
_cell_angle_alpha 89.999800
_cell_angle_beta 90.000100
_cell_angle_gamma 89.936300
loop_
  _atom_site_label
  _atom_site_type_symbol
  _atom_site_fract_x
  _atom_site_fract_y
  _atom_site_fract_z
N1 N 0.25030 0.24979 0.24997
 N2 N 0.74984 -0.24975 0.24996
 N3 N 0.75012 0.25006 0.74997
 N4 N 0.25003 -0.25003 0.74996
 N5 N 0.74984 -0.24975 0.74997
 N6 N 0.25030 0.24978 0.74997
 N7 N 0.25002 -0.25003 0.24996
 N8 N 0.75011 0.25008 0.24998
 O9 O 0.22447 0.03038 0.46950
 O10 O 0.22442 -0.03053 0.53041
 O11 O 0.22447 0.03041 0.53038
 O12 O 0.22442 -0.03056 0.46953
 O13 O 0.27605 -0.03066 0.46953
 O14 O 0.27610 0.03031 0.53039
 O15 O 0.27604 -0.03064 0.53042
 O16 O 0.27610 0.03029 0.46950
 Cu17 Cu 0.21927 -0.00006 0.49996
 Cu18 Cu 0.28125 -0.00019 0.49996
 C19 C 0.25029 0.04077 0.45906
 C20 C 0.25022 -0.04103 0.54086
 C21 C 0.25029 0.04081 0.54082
 C22 C 0.25023 -0.04106 0.45910
 O23 O 0.77571 0.03056 0.53042
 O24 O 0.77565 -0.03035 0.46951
 O25 O 0.77569 0.03059 0.46954
 O26 O 0.77564 -0.03038 0.53039
 O27 O 0.72402 -0.03028 0.53040
 O28 O 0.72407 0.03069 0.46954
 O29 O 0.72403 -0.03026 0.46951
 O30 O 0.72408 0.03067 0.53042
 Cu31 Cu 0.78085 0.00009 0.49997
 Cu32 Cu 0.71887 0.00021 0.49997
 C33 C 0.74990 0.04106 0.54086
 C34 C 0.74983 -0.04075 0.45907
 C35 C 0.74989 0.04109 0.45911
 C36 C 0.74982 -0.04078 0.54083
 O37 O 0.46980 0.22397 0.03043
 O38 O 0.53072 0.22401 -0.03048
 O39 O 0.53075 0.22401 0.03040
 O40 O 0.46978 0.22396 -0.03046
 O41 O 0.46967 0.27559 -0.03046
 O42 O 0.53065 0.27564 0.03040
 O43 O 0.53062 0.27564 -0.03048
 O44 O 0.46971 0.27559 0.03043
 Cu45 Cu 0.50027 0.21881 -0.00003
 Cu46 Cu 0.50015 0.28079 -0.00003
 C47 C 0.45931 0.24977 0.04087
 C48 C 0.54112 0.24984 -0.04092
 C49 C 0.54115 0.24983 0.04083
 C50 C 0.45928 0.24977 -0.04089
 O51 O 0.53034 0.77604 0.03042
 O52 O 0.46941 0.77598 -0.03049
 O53 O 0.46939 0.77599 0.03039
 O54 O 0.53036 0.77604 -0.03047
 O55 O 0.53046 0.72441 -0.03046
 O56 O 0.46949 0.72436 0.03039
 O57 O 0.46952 0.72435 -0.03048
 O58 O 0.53043 0.72441 0.03043
 Cu59 Cu 0.49987 0.78118 -0.00004
 Cu60 Cu 0.49999 0.71921 -0.00003
 C61 C 0.54082 0.75023 0.04087
 C62 C 0.45902 0.75015 -0.04093
 C63 C 0.45899 0.75017 0.04082
 C64 C 0.54086 0.75023 -0.04090
 O65 O 0.03055 0.46952 0.22416
 O66 O -0.03042 0.53051 0.22415
 O67 O 0.03052 0.53047 0.22415
 O68 O -0.03039 0.46956 0.22416
 O69 O -0.03038 0.46956 0.27573
 O70 O 0.03053 0.53048 0.27572
 O71 O -0.03042 0.53051 0.27573
 O72 O 0.03056 0.46953 0.27573
 Cu73 Cu 0.00007 0.50002 0.21899
 Cu74 Cu 0.00007 0.50002 0.28090
 C75 C 0.04101 0.45907 0.24994
 C76 C -0.04088 0.54096 0.24994
 C77 C 0.04097 0.54092 0.24994
 C78 C -0.04083 0.45912 0.24995
 O79 O 0.03053 0.53047 0.77572
 O80 O -0.03039 0.46956 0.77573
 O81 O 0.03056 0.46952 0.77572
 O82 O -0.03042 0.53051 0.77573
 O83 O -0.03042 0.53051 0.72415
 O84 O 0.03056 0.46952 0.72415
 O85 O -0.03039 0.46956 0.72416
 O86 O 0.03052 0.53047 0.72415
 Cu87 Cu 0.00007 0.50002 0.78089
 Cu88 Cu 0.00007 0.50001 0.71899
 C89 C 0.04097 0.54091 0.74994
 C90 C -0.04083 0.45912 0.74994
 C91 C 0.04101 0.45907 0.74994
 C92 C -0.04088 0.54096 0.74994
 C93 C 0.32074 0.24972 0.17955
 C94 C 0.31153 0.27788 0.19355
 C95 C 0.28841 0.27792 0.21669
 C96 C 0.27421 0.24977 0.22608
 C97 C 0.28361 0.22159 0.21189
 C98 C 0.30674 0.22158 0.18877
 C99 C 0.34454 0.24970 0.15574
 C100 C 0.36447 0.24970 0.13579
 C101 C 0.38827 0.24972 0.11197
 C102 C 0.39984 0.27807 0.10038
 C103 C 0.42296 0.27812 0.07724
 C104 C 0.43482 0.24975 0.06538
 C105 C 0.42302 0.22137 0.07719
 C106 C 0.39990 0.22139 0.10034
 H107 H 0.32225 0.29979 0.18663
 H108 H 0.28171 0.29987 0.22745
 H109 H 0.27284 0.19966 0.21858
 H110 H 0.31366 0.19966 0.17805
 H111 H 0.39099 0.30014 0.10924
 H112 H 0.43153 0.30037 0.06866
 H113 H 0.43163 0.19914 0.06857
 H114 H 0.39110 0.19930 0.10915
 C115 C 0.67938 0.75026 0.17957
 C116 C 0.68861 0.72211 0.19357
 C117 C 0.71174 0.72209 0.21669
 C118 C 0.72592 0.75026 0.22608
 C119 C 0.71651 0.77843 0.21188
 C120 C 0.69337 0.77841 0.18877
 C121 C 0.65558 0.75026 0.15576
 C122 C 0.63564 0.75027 0.13581
 C123 C 0.61185 0.75027 0.11199
 C124 C 0.60028 0.72192 0.10039
 C125 C 0.57716 0.72188 0.07724
 C126 C 0.56532 0.75025 0.06538
 C127 C 0.57712 0.77863 0.07720
 C128 C 0.60023 0.77860 0.10035
 H129 H 0.67790 0.70020 0.18666
 H130 H 0.71845 0.70015 0.22747
 H131 H 0.72727 0.80036 0.21857
 H132 H 0.68643 0.80033 0.17805
 H133 H 0.60911 0.69985 0.10925
 H134 H 0.56859 0.69963 0.06866
 H135 H 0.56851 0.80086 0.06858
 H136 H 0.60904 0.80068 0.10917
 C137 C 0.67975 0.24996 -0.17954
 C138 C 0.69380 0.22182 -0.18879
 C139 C 0.71691 0.22184 -0.21193
 C140 C 0.72625 0.25003 -0.22610
 C141 C 0.71202 0.27818 -0.21666
 C142 C 0.68891 0.27813 -0.19352
 C143 C 0.65596 0.24992 -0.15573
 C144 C 0.63601 0.24989 -0.13578
 C145 C 0.61220 0.24988 -0.11198
 C146 C 0.60064 0.22153 -0.10038
 C147 C 0.57751 0.22148 -0.07725
 C148 C 0.56562 0.24985 -0.06542
 C149 C 0.57741 0.27824 -0.07725
 C150 C 0.60054 0.27822 -0.10038
 H151 H 0.68692 0.19989 -0.17810
 H152 H 0.72771 0.19991 -0.21866
 H153 H 0.71867 0.30013 -0.22742
 H154 H 0.67816 0.30003 -0.18656
 H155 H 0.60951 0.19946 -0.10920
 H156 H 0.56895 0.19924 -0.06865
 H157 H 0.56877 0.30047 -0.06866
 H158 H 0.60933 0.30030 -0.10921
 C159 C 0.32042 0.74999 -0.17959
 C160 C 0.31125 0.72183 -0.19358
 C161 C 0.28814 0.72181 -0.21672
 C162 C 0.27391 0.74997 -0.22613
 C163 C 0.28327 0.77815 -0.21194
 C164 C 0.30639 0.77814 -0.18881
 C165 C 0.34422 0.74999 -0.15577
 C166 C 0.36416 0.75001 -0.13582
 C167 C 0.38796 0.75005 -0.11201
 C168 C 0.39962 0.72173 -0.10039
 C169 C 0.42275 0.72172 -0.07725
 C170 C 0.43452 0.75012 -0.06543
 C171 C 0.42263 0.77848 -0.07728
 C172 C 0.39950 0.77841 -0.10042
 H173 H 0.32199 0.69992 -0.18664
 H174 H 0.28147 0.69986 -0.22748
 H175 H 0.27248 0.80008 -0.21865
 H176 H 0.31329 0.80005 -0.17810
 H177 H 0.39084 0.69964 -0.10921
 H178 H 0.43139 0.69950 -0.06864
 H179 H 0.43118 0.80073 -0.06869
 H180 H 0.39063 0.80047 -0.10926
 C181 C 0.17980 0.32030 0.24994
 C182 C 0.19381 0.31109 0.27806
 C183 C 0.21697 0.28794 0.27809
 C184 C 0.22638 0.27372 0.24996
 C185 C 0.21217 0.28312 0.22182
 C186 C 0.18902 0.30627 0.22182
 C187 C 0.15597 0.34413 0.24993
 C188 C 0.13600 0.36409 0.24993
 C189 C 0.11216 0.38792 0.24994
 C190 C 0.10056 0.39955 0.27825
 C191 C 0.07740 0.42271 0.27828
 C192 C 0.06554 0.43454 0.24994
 C193 C 0.07737 0.42268 0.22159
 C194 C 0.10053 0.39953 0.22163
 H195 H 0.18688 0.32183 0.29995
 H196 H 0.22775 0.28125 0.30001
 H197 H 0.21887 0.27233 0.19991
 H198 H 0.17829 0.31319 0.19993
 H199 H 0.10941 0.39073 0.30030
 H200 H 0.06881 0.43133 0.30050
 H201 H 0.06875 0.43128 0.19938
 H202 H 0.10935 0.39068 0.19958
 C203 C 0.17960 0.67954 0.74993
 C204 C 0.18878 0.69357 0.77806
 C205 C 0.21190 0.71670 0.77808
 C206 C 0.22613 0.72607 0.74995
 C207 C 0.21677 0.71185 0.72181
 C208 C 0.19364 0.68872 0.72182
 C209 C 0.15580 0.65573 0.74992
 C210 C 0.13585 0.63579 0.74991
 C211 C 0.11205 0.61199 0.74992
 C212 C 0.10043 0.60039 0.77823
 C213 C 0.07730 0.57726 0.77827
 C214 C 0.06547 0.56542 0.74993
 C215 C 0.07731 0.57724 0.72158
 C216 C 0.10045 0.60037 0.72161
 H217 H 0.17803 0.68667 0.79994
 H218 H 0.21856 0.72749 0.79999
 H219 H 0.22757 0.71852 0.69991
 H220 H 0.18675 0.67798 0.69993
 H221 H 0.10925 0.60923 0.80028
 H222 H 0.06869 0.56868 0.80049
 H223 H 0.06872 0.56863 0.69937
 H224 H 0.10928 0.60918 0.69956
 C225 C -0.17964 0.67976 0.24993
 C226 C -0.18887 0.69378 0.22182
 C227 C -0.21202 0.71694 0.22181
 C228 C -0.22623 0.72633 0.24995
 C229 C -0.21682 0.71211 0.27809
 C230 C -0.19366 0.68897 0.27806
 C231 C -0.15581 0.65592 0.24992
 C232 C -0.13585 0.63596 0.24993
 C233 C -0.11202 0.61212 0.24993
 C234 C -0.10039 0.60051 0.22163
 C235 C -0.07724 0.57735 0.22159
 C236 C -0.06540 0.56549 0.24994
 C237 C -0.07726 0.57733 0.27828
 C238 C -0.10042 0.60049 0.27825
 H239 H -0.17814 0.68686 0.19993
 H240 H -0.21872 0.72772 0.19990
 H241 H -0.22760 0.71881 0.30000
 H242 H -0.18673 0.67823 0.29995
 H243 H -0.10922 0.60935 0.19957
 H244 H -0.06862 0.56875 0.19938
 H245 H -0.06866 0.56872 0.30050
 H246 H -0.10926 0.60932 0.30030
 C247 C -0.17947 0.32049 0.74995
 C248 C -0.18863 0.30646 0.77807
 C249 C -0.21175 0.28332 0.77809
 C250 C -0.22599 0.27396 0.74997
 C251 C -0.21664 0.28819 0.72183
 C252 C -0.19351 0.31132 0.72184
 C253 C -0.15566 0.34430 0.74993
 C254 C -0.13572 0.36424 0.74994
 C255 C -0.11191 0.38805 0.74994
 C256 C -0.10029 0.39964 0.77825
 C257 C -0.07716 0.42277 0.77829
 C258 C -0.06533 0.43462 0.74994
 C259 C -0.07718 0.42279 0.72160
 C260 C -0.10031 0.39966 0.72163
 H261 H -0.17788 0.31336 0.79995
 H262 H -0.21841 0.27253 0.80001
 H263 H -0.22745 0.28152 0.69992
 H264 H -0.18663 0.32206 0.69995
 H265 H -0.10911 0.39080 0.80030
 H266 H -0.06855 0.43136 0.80050
 H267 H -0.06859 0.43140 0.69939
 H268 H -0.10915 0.39085 0.69958
 C269 C 0.25032 0.17935 0.32038
 C270 C 0.27846 0.19334 0.31118
 C271 C 0.27848 0.21648 0.28806
 C272 C 0.25031 0.22589 0.27386
 C273 C 0.22214 0.21170 0.28324
 C274 C 0.22216 0.18858 0.30637
 C275 C 0.25031 0.15555 0.34419
 C276 C 0.25032 0.13561 0.36414
 C277 C 0.25032 0.11182 0.38796
 C278 C 0.27866 0.10020 0.39959
 C279 C 0.27869 0.07708 0.42273
 C280 C 0.25030 0.06527 0.43455
 C281 C 0.22193 0.07712 0.42269
 C282 C 0.22198 0.10024 0.39955
 H283 H 0.30038 0.18641 0.32191
 H284 H 0.30041 0.22724 0.28138
 H285 H 0.20021 0.21841 0.27246
 H286 H 0.20025 0.17787 0.31328
 H287 H 0.30074 0.10900 0.39077
 H288 H 0.30092 0.06846 0.43135
 H289 H 0.19969 0.06854 0.43128
 H290 H 0.19990 0.10908 0.39070
 C291 C 0.75004 0.17968 0.67950
 C292 C 0.72190 0.19371 0.68875
 C293 C 0.72191 0.21683 0.71189
 C294 C 0.75010 0.22618 0.72605
 C295 C 0.77825 0.21195 0.71662
 C296 C 0.77821 0.18885 0.69347
 C297 C 0.75001 0.15588 0.65569
 C298 C 0.74998 0.13594 0.63574
 C299 C 0.74996 0.11213 0.61193
 C300 C 0.72161 0.10058 0.60033
 C301 C 0.72156 0.07745 0.57720
 C302 C 0.74992 0.06556 0.56536
 C303 C 0.77831 0.07734 0.57719
 C304 C 0.77829 0.10047 0.60032
 H305 H 0.69997 0.18682 0.67806
 H306 H 0.69998 0.22762 0.71862
 H307 H 0.80020 0.21862 0.72736
 H308 H 0.80012 0.17810 0.68652
 H309 H 0.69954 0.10944 0.60916
 H310 H 0.69931 0.06889 0.56860
 H311 H 0.80054 0.06870 0.56859
 H312 H 0.80037 0.10926 0.60915
 C313 C 0.25006 -0.17962 0.67952
 C314 C 0.22190 -0.18880 0.69351
 C315 C 0.22187 -0.21191 0.71664
 C316 C 0.25004 -0.22614 0.72606
 C317 C 0.27821 -0.21678 0.71188
 C318 C 0.27821 -0.19365 0.68875
 C319 C 0.25007 -0.15583 0.65570
 C320 C 0.25009 -0.13589 0.63575
 C321 C 0.25013 -0.11209 0.61194
 C322 C 0.22180 -0.10043 0.60032
 C323 C 0.22180 -0.07730 0.57719
 C324 C 0.25019 -0.06553 0.56536
 C325 C 0.27855 -0.07742 0.57720
 C326 C 0.27848 -0.10055 0.60034
 H327 H 0.19999 -0.17806 0.68657
 H328 H 0.19993 -0.21858 0.72740
 H329 H 0.30015 -0.22757 0.71859
 H330 H 0.30013 -0.18675 0.67805
 H331 H 0.19972 -0.10920 0.60914
 H332 H 0.19957 -0.06866 0.56858
 H333 H 0.30080 -0.06887 0.56861
 H334 H 0.30055 -0.10942 0.60918
 C335 C 0.74978 -0.17932 0.32038
 C336 C 0.77794 -0.18853 0.30638
 C337 C 0.77797 -0.21165 0.28324
 C338 C 0.74982 -0.22584 0.27385
 C339 C 0.72164 -0.21646 0.28805
 C340 C 0.72164 -0.19333 0.31118
 C341 C 0.74976 -0.15552 0.34420
 C342 C 0.74976 -0.13559 0.36415
 C343 C 0.74978 -0.11179 0.38796
 C344 C 0.77813 -0.10022 0.39955
 C345 C 0.77818 -0.07710 0.42269
 C346 C 0.74981 -0.06524 0.43456
 C347 C 0.72143 -0.07704 0.42274
 C348 C 0.72145 -0.10016 0.39960
 H349 H 0.79984 -0.17781 0.31329
 H350 H 0.79992 -0.21834 0.27247
 H351 H 0.69971 -0.22723 0.28136
 H352 H 0.69972 -0.18641 0.32190
 H353 H 0.80020 -0.10906 0.39070
 H354 H 0.80043 -0.06852 0.43127
 H355 H 0.69920 -0.06842 0.43136
 H356 H 0.69936 -0.10896 0.39079
 C357 C 0.67944 0.75029 -0.17957
 C358 C 0.68866 0.72213 -0.19358
 C359 C 0.71176 0.72210 -0.21672
 C360 C 0.72594 0.75026 -0.22613
 C361 C 0.71654 0.77844 -0.21193
 C362 C 0.69342 0.77843 -0.18880
 C363 C 0.65566 0.75030 -0.15574
 C364 C 0.63574 0.75029 -0.13578
 C365 C 0.61194 0.75028 -0.11196
 C366 C 0.60038 0.72193 -0.10036
 C367 C 0.57725 0.72188 -0.07723
 C368 C 0.56537 0.75025 -0.06539
 C369 C 0.57717 0.77863 -0.07722
 C370 C 0.60030 0.77861 -0.10035
 H371 H 0.67795 0.70022 -0.18665
 H372 H 0.71846 0.70016 -0.22750
 H373 H 0.72730 0.80037 -0.21864
 H374 H 0.68650 0.80035 -0.17807
 H375 H 0.60924 0.69986 -0.10920
 H376 H 0.56868 0.69964 -0.06864
 H377 H 0.56853 0.80087 -0.06861
 H378 H 0.60909 0.80069 -0.10917
 C379 C 0.32067 0.24968 -0.17954
 C380 C 0.32867 0.24352 -0.21068
 C381 C 0.30557 0.24354 -0.23384
 C382 C 0.27418 0.24973 -0.22611
 C383 C 0.26635 0.25589 -0.19476
 C384 C 0.28947 0.25586 -0.17163
 C385 C 0.34446 0.24967 -0.15572
 C386 C 0.36439 0.24967 -0.13576
 C387 C 0.38819 0.24970 -0.11195
 C388 C 0.39987 0.22137 -0.10036
 C389 C 0.42300 0.22136 -0.07723
 C390 C 0.43476 0.24974 -0.06538
 C391 C 0.42284 0.27811 -0.07719
 C392 C 0.39971 0.27805 -0.10032
 H393 H 0.35275 0.23875 -0.21707
 H394 H 0.31218 0.23897 -0.25785
 H395 H 0.24229 0.26048 -0.18823
 H396 H 0.28302 0.26062 -0.14760
 H397 H 0.39111 0.19928 -0.10920
 H398 H 0.43167 0.19912 -0.06865
 H399 H 0.43138 0.30035 -0.06858
 H400 H 0.39082 0.30011 -0.10913
 C401 C 0.32035 0.75006 0.17945
 C402 C 0.28916 0.74393 0.17154
 C403 C 0.26605 0.74390 0.19468
 C404 C 0.27389 0.75000 0.22603
 C405 C 0.30528 0.75614 0.23376
 C406 C 0.32836 0.75616 0.21060
 C407 C 0.34413 0.75007 0.15562
 C408 C 0.36407 0.75009 0.13566
 C409 C 0.38787 0.75011 0.11186
 C410 C 0.39945 0.77846 0.10028
 C411 C 0.42259 0.77852 0.07715
 C412 C 0.43447 0.75015 0.06531
 C413 C 0.42266 0.72176 0.07711
 C414 C 0.39952 0.72178 0.10023
 H415 H 0.28270 0.73923 0.14750
 H416 H 0.24199 0.73936 0.18816
 H417 H 0.31189 0.76066 0.25778
 H418 H 0.35245 0.76089 0.21698
 H419 H 0.39060 0.80053 0.10912
 H420 H 0.43117 0.80076 0.06858
 H421 H 0.43129 0.69953 0.06850
 H422 H 0.39071 0.69970 0.10904
 C423 C 0.67977 0.24996 0.17947
 C424 C 0.67176 0.24387 0.21062
 C425 C 0.69484 0.24391 0.23379
 C426 C 0.72624 0.25004 0.22605
 C427 C 0.73407 0.25614 0.19471
 C428 C 0.71096 0.25610 0.17157
 C429 C 0.65599 0.24992 0.15564
 C430 C 0.63606 0.24990 0.13569
 C431 C 0.61225 0.24988 0.11187
 C432 C 0.60068 0.22153 0.10029
 C433 C 0.57754 0.22148 0.07717
 C434 C 0.56567 0.24985 0.06532
 C435 C 0.57748 0.27823 0.07712
 C436 C 0.60062 0.27821 0.10025
 H437 H 0.64768 0.23914 0.21700
 H438 H 0.68824 0.23938 0.25781
 H439 H 0.75812 0.26069 0.18818
 H440 H 0.71742 0.26080 0.14752
 H441 H 0.60953 0.19946 0.10913
 H442 H 0.56896 0.19924 0.06859
 H443 H 0.56885 0.30046 0.06851
 H444 H 0.60942 0.30030 0.10906
 C445 C -0.17965 0.67975 0.74995
 C446 C -0.18885 0.69379 0.77807
 C447 C -0.21199 0.71694 0.77809
 C448 C -0.22624 0.72632 0.74996
 C449 C -0.21686 0.71209 0.72183
 C450 C -0.19371 0.68894 0.72184
 C451 C -0.15582 0.65592 0.74994
 C452 C -0.13586 0.63595 0.74993
 C453 C -0.11203 0.61212 0.74993
 C454 C -0.10042 0.60048 0.72162
 C455 C -0.07726 0.57733 0.72159
 C456 C -0.06540 0.56549 0.74994
 C457 C -0.07724 0.57735 0.77828
 C458 C -0.10040 0.60051 0.77824
 H459 H -0.17809 0.68688 0.79995
 H460 H -0.21867 0.72774 0.80001
 H461 H -0.22767 0.71877 0.69992
 H462 H -0.18680 0.67820 0.69995
 H463 H -0.10926 0.60931 0.69957
 H464 H -0.06866 0.56871 0.69938
 H465 H -0.06863 0.56875 0.80050
 H466 H -0.10923 0.60936 0.80029
 C467 C -0.17946 0.32050 0.24997
 C468 C -0.17151 0.28933 0.25625
 C469 C -0.19462 0.26619 0.25625
 C470 C -0.22599 0.27397 0.24998
 C471 C -0.23377 0.30534 0.24370
 C472 C -0.21063 0.32845 0.24370
 C473 C -0.15565 0.34430 0.24995
 C474 C -0.13571 0.36424 0.24995
 C475 C -0.11190 0.38804 0.24995
 C476 C -0.10027 0.39963 0.27826
 C477 C -0.07714 0.42276 0.27830
 C478 C -0.06533 0.43462 0.24995
 C479 C -0.07719 0.42281 0.22161
 C480 C -0.10032 0.39968 0.22164
 H481 H -0.14745 0.28290 0.26108
 H482 H -0.18805 0.24215 0.26091
 H483 H -0.25781 0.31192 0.23905
 H484 H -0.21705 0.35252 0.23885
 H485 H -0.10908 0.39078 0.30031
 H486 H -0.06852 0.43134 0.30051
 H487 H -0.06861 0.43142 0.19939
 H488 H -0.10916 0.39087 0.19959
 C489 C 0.17980 0.32028 0.74995
 C490 C 0.21097 0.32822 0.75616
 C491 C 0.23413 0.30508 0.75617
 C492 C 0.22637 0.27370 0.74997
 C493 C 0.19500 0.26594 0.74377
 C494 C 0.17186 0.28911 0.74375
 C495 C 0.15597 0.34412 0.74992
 C496 C 0.13600 0.36409 0.74991
 C497 C 0.11217 0.38792 0.74992
 C498 C 0.10057 0.39956 0.77823
 C499 C 0.07742 0.42271 0.77827
 C500 C 0.06554 0.43454 0.74993
 C501 C 0.07736 0.42267 0.72158
 C502 C 0.10052 0.39952 0.72161
 H503 H 0.21737 0.35228 0.76093
 H504 H 0.25817 0.31163 0.76078
 H505 H 0.18845 0.24191 0.73916
 H506 H 0.14780 0.28271 0.73896
 H507 H 0.10943 0.39074 0.80028
 H508 H 0.06883 0.43133 0.80049
 H509 H 0.06874 0.43127 0.69937
 H510 H 0.10934 0.39067 0.69956
 C511 C 0.17959 0.67954 0.24994
 C512 C 0.17164 0.71071 0.25622
 C513 C 0.19475 0.73385 0.25623
 C514 C 0.22612 0.72607 0.24996
 C515 C 0.23390 0.69470 0.24368
 C516 C 0.21076 0.67159 0.24367
 C517 C 0.15579 0.65574 0.24991
 C518 C 0.13584 0.63580 0.24990
 C519 C 0.11204 0.61199 0.24991
 C520 C 0.10041 0.60041 0.27823
 C521 C 0.07728 0.57728 0.27827
 C522 C 0.06547 0.56542 0.24993
 C523 C 0.07732 0.57722 0.22158
 C524 C 0.10045 0.60035 0.22161
 H525 H 0.14757 0.71713 0.26106
 H526 H 0.18818 0.75788 0.26090
 H527 H 0.25794 0.68813 0.23902
 H528 H 0.21718 0.64753 0.23882
 H529 H 0.10922 0.60926 0.30027
 H530 H 0.06867 0.56870 0.30049
 H531 H 0.06874 0.56860 0.19937
 H532 H 0.10929 0.60916 0.19955
 C533 C 0.74976 -0.17935 0.67952
 C534 C 0.72162 -0.19334 0.68875
 C535 C 0.72162 -0.21645 0.71189
 C536 C 0.74981 -0.22585 0.72607
 C537 C 0.77796 -0.21167 0.71666
 C538 C 0.77792 -0.18856 0.69352
 C539 C 0.74974 -0.15556 0.65569
 C540 C 0.74974 -0.13564 0.63573
 C541 C 0.74976 -0.11185 0.61191
 C542 C 0.72143 -0.10020 0.60029
 C543 C 0.72141 -0.07708 0.57715
 C544 C 0.74980 -0.06529 0.56532
 C545 C 0.77816 -0.07717 0.57717
 C546 C 0.77811 -0.10029 0.60031
 H547 H 0.69969 -0.18642 0.67804
 H548 H 0.69970 -0.22722 0.71860
 H549 H 0.79991 -0.21836 0.72743
 H550 H 0.79982 -0.17785 0.68658
 H551 H 0.69934 -0.10899 0.60911
 H552 H 0.69918 -0.06844 0.56854
 H553 H 0.80041 -0.06861 0.56858
 H554 H 0.80017 -0.10915 0.60915
 C555 C 0.25010 -0.17970 0.32048
 C556 C 0.25621 -0.17169 0.28933
 C557 C 0.25618 -0.19477 0.26616
 C558 C 0.25005 -0.22616 0.27389
 C559 C 0.24395 -0.23400 0.30524
 C560 C 0.24397 -0.21089 0.32838
 C561 C 0.25012 -0.15592 0.34431
 C562 C 0.25013 -0.13599 0.36426
 C563 C 0.25016 -0.11218 0.38807
 C564 C 0.27851 -0.10060 0.39965
 C565 C 0.27857 -0.07746 0.42277
 C566 C 0.25020 -0.06559 0.43462
 C567 C 0.22182 -0.07739 0.42282
 C568 C 0.22183 -0.10054 0.39970
 H569 H 0.26094 -0.14761 0.28295
 H570 H 0.26071 -0.18816 0.24215
 H571 H 0.23940 -0.25806 0.31177
 H572 H 0.23926 -0.21735 0.35242
 H573 H 0.30058 -0.10946 0.39080
 H574 H 0.30082 -0.06888 0.43134
 H575 H 0.19959 -0.06877 0.43143
 H576 H 0.19975 -0.10934 0.39089
 C577 C 0.75001 0.17973 0.32048
 C578 C 0.74390 0.17172 0.28933
 C579 C 0.74394 0.19481 0.26617
 C580 C 0.75008 0.22620 0.27391
 C581 C 0.75618 0.23403 0.30525
 C582 C 0.75615 0.21092 0.32839
 C583 C 0.74997 0.15594 0.34431
 C584 C 0.74995 0.13601 0.36427
 C585 C 0.74993 0.11221 0.38807
 C586 C 0.77827 0.10057 0.39970
 C587 C 0.77829 0.07742 0.42282
 C588 C 0.74990 0.06561 0.43463
 C589 C 0.72154 0.07749 0.42278
 C590 C 0.72159 0.10063 0.39966
 H591 H 0.73917 0.14764 0.28295
 H592 H 0.73941 0.18820 0.24215
 H593 H 0.76073 0.25809 0.31179
 H594 H 0.76085 0.21738 0.35244
 H595 H 0.80035 0.10937 0.39089
 H596 H 0.80052 0.06880 0.43143
 H597 H 0.69929 0.06891 0.43136
 H598 H 0.69952 0.10948 0.39082
 C599 C 0.25038 0.17941 0.67948
 C600 C 0.24420 0.21061 0.67158
 C601 C 0.24419 0.23373 0.69471
 C602 C 0.25034 0.22590 0.72605
 C603 C 0.25652 0.19450 0.73378
 C604 C 0.25654 0.17141 0.71062
 C605 C 0.25037 0.15562 0.65566
 C606 C 0.25035 0.13569 0.63570
 C607 C 0.25034 0.11190 0.61188
 C608 C 0.22199 0.10037 0.60025
 C609 C 0.22194 0.07724 0.57712
 C610 C 0.25031 0.06533 0.56531
 C611 C 0.27869 0.07709 0.57717
 C612 C 0.27867 0.10022 0.60030
 H613 H 0.23945 0.21707 0.64754
 H614 H 0.23960 0.25779 0.68818
 H615 H 0.26109 0.18789 0.75779
 H616 H 0.26130 0.14732 0.71701
 H617 H 0.19992 0.10925 0.60906
 H618 H 0.19970 0.06870 0.56850
 H619 H 0.30093 0.06843 0.56859
 H620 H 0.30075 0.10899 0.60915
   
