data_POSCAR
  _audit_creation_date              2014-09-24
  _audit_creation_method            'ToBaCCo'
  _symmetry_space_group_name_H-M    'P1'
  _symmetry_Int_Tables_number       1
  _symmetry_cell_setting            triclinic
  loop_
  _symmetry_equiv_pos_as_xyz
 x,y,z
_cell_length_a 20.0811
_cell_length_b 20.1106
_cell_length_c 20.0622
_cell_angle_alpha 89.932900
_cell_angle_beta 90.208000
_cell_angle_gamma 89.995600
loop_
  _atom_site_label
  _atom_site_type_symbol
  _atom_site_fract_x
  _atom_site_fract_y
  _atom_site_fract_z
O1 O -0.17189 0.09072 -0.00186
 O2 O 0.17069 0.09018 0.00001
 O3 O -0.00417 0.17037 0.09000
 O4 O 0.00232 0.17135 -0.09105
 O5 O 0.00516 0.08994 -0.17174
 O6 O -0.00551 0.08844 0.17064
 O7 O 0.08905 0.17070 -0.00171
 O8 O -0.08992 0.17094 0.00116
 Zr9 Zr -0.00062 0.11671 -0.00061
 O10 O 0.06091 0.06047 -0.05991
 O11 O -0.06210 0.05987 0.05844
 C12 C -0.15157 0.15201 0.00112
 C13 C 0.15070 0.15159 -0.00205
 C14 C -0.00557 0.15011 0.15152
 C15 C 0.00512 0.15166 -0.15275
 H16 H 0.08626 0.08792 0.08995
 O17 O 0.05808 0.05963 0.06108
 H18 H -0.08755 0.08892 -0.09113
 O19 O -0.05962 0.06025 -0.06232
 O20 O 0.16982 -0.08937 0.00593
 O21 O -0.17208 -0.08936 -0.00655
 O22 O 0.08550 -0.00425 0.17274
 O23 O 0.09299 0.00244 -0.16987
 O24 O -0.08691 -0.00105 -0.17428
 O25 O -0.09448 0.00074 0.16823
 O26 O -0.00035 -0.17162 0.08894
 O27 O -0.00283 -0.17071 -0.09034
 O28 O -0.00156 -0.09161 0.17091
 O29 O 0.00004 -0.09010 -0.17215
 O30 O 0.16829 -0.00178 0.09334
 O31 O -0.17397 0.00295 0.08489
 O32 O -0.16992 -0.00221 -0.09523
 O33 O 0.17234 0.00113 -0.08647
 O34 O 0.08921 -0.17108 0.00289
 O35 O -0.09175 -0.17120 -0.00427
 Zr36 Zr 0.11606 0.00016 0.00200
 Zr37 Zr -0.11787 0.00030 -0.00361
 Zr38 Zr -0.00318 -0.00112 0.11648
 Zr39 Zr 0.00168 0.00002 -0.11784
 Zr40 Zr -0.00124 -0.11705 -0.00069
 O41 O -0.06020 -0.06018 -0.06267
 O42 O 0.05837 -0.06082 0.06095
 C43 C 0.15066 -0.15092 0.00577
 C44 C -0.15335 -0.15119 -0.00636
 C45 C 0.14736 -0.00467 0.15440
 C46 C 0.15417 0.00202 -0.14859
 C47 C -0.14898 -0.00176 -0.15645
 C48 C -0.15558 0.00331 0.14694
 C49 C -0.00023 -0.15311 0.15090
 C50 C -0.00259 -0.15147 -0.15199
 H51 H -0.09137 -0.08880 0.08591
 O52 O -0.06251 -0.06037 0.05800
 H53 H 0.08906 -0.08858 -0.08724
 O54 O 0.06029 -0.06011 -0.05936
 O55 O 0.32875 0.59118 -0.00067
 O56 O 0.67169 0.59133 0.00099
 O57 O 0.49683 0.67117 0.09193
 O58 O 0.50324 0.67188 -0.08904
 O59 O 0.50599 0.59047 -0.16996
 O60 O 0.49570 0.58910 0.17219
 O61 O 0.58987 0.67170 -0.00029
 O62 O 0.41056 0.67157 0.00287
 Zr63 Zr 0.50013 0.61751 0.00113
 O64 O 0.56137 0.56121 -0.05852
 O65 O 0.43859 0.56059 0.05986
 C66 C 0.34891 0.65248 0.00251
 C67 C 0.65162 0.65274 -0.00097
 C68 C 0.49574 0.65096 0.15356
 C69 C 0.50615 0.65189 -0.15051
 H70 H 0.58738 0.58880 0.09128
 O71 O 0.55919 0.56052 0.06240
 H72 H 0.41311 0.58966 -0.08967
 O73 O 0.44115 0.56105 -0.06091
 O74 O 0.67088 0.41150 0.00653
 O75 O 0.32902 0.41122 -0.00566
 O76 O 0.58677 0.49657 0.17384
 O77 O 0.59320 0.50343 -0.16891
 O78 O 0.41335 0.49989 -0.17321
 O79 O 0.40646 0.50132 0.16942
 O80 O 0.50095 0.32941 0.08923
 O81 O 0.49852 0.33000 -0.08976
 O82 O 0.49972 0.40933 0.17148
 O83 O 0.50076 0.41063 -0.17144
 O84 O 0.66947 0.49904 0.09447
 O85 O 0.32695 0.50327 0.08607
 O86 O 0.33046 0.49868 -0.09409
 O87 O 0.67293 0.50254 -0.08583
 O88 O 0.59019 0.32987 0.00335
 O89 O 0.40971 0.32960 -0.00375
 Zr90 Zr 0.61712 0.50117 0.00303
 Zr91 Zr 0.38293 0.50098 -0.00248
 Zr92 Zr 0.49789 0.49976 0.11758
 Zr93 Zr 0.50216 0.50069 -0.11669
 Zr94 Zr 0.49989 0.38392 -0.00008
 O95 O 0.44041 0.44046 -0.06177
 O96 O 0.55940 0.44013 0.06179
 C97 C 0.65162 0.34995 0.00612
 C98 C 0.34821 0.34961 -0.00579
 C99 C 0.64880 0.49600 0.15572
 C100 C 0.65443 0.50325 -0.14788
 C101 C 0.35122 0.49912 -0.15541
 C102 C 0.34530 0.50365 0.14813
 C103 C 0.50112 0.34811 0.15101
 C104 C 0.49858 0.34916 -0.15146
 H105 H 0.40982 0.41194 0.08674
 O106 O 0.43865 0.44045 0.05890
 H107 H 0.58999 0.41247 -0.08654
 O108 O 0.56132 0.44090 -0.05852
 O109 O -0.17185 0.59144 0.50372
 O110 O 0.17068 0.59095 0.49454
 O111 O -0.00156 0.67106 0.58971
 O112 O 0.00091 0.67137 0.40875
 O113 O -0.00140 0.58966 0.32820
 O114 O 0.00000 0.58945 0.67069
 O115 O 0.08897 0.67143 0.49725
 O116 O -0.08994 0.67155 0.50250
 Zr117 Zr -0.00040 0.61716 0.49942
 O118 O 0.05875 0.56064 0.43792
 O119 O -0.05916 0.56068 0.56148
 C120 C -0.15181 0.65295 0.50412
 C121 C 0.15057 0.65234 0.49557
 C122 C -0.00215 0.65095 0.65124
 C123 C 0.00050 0.65133 0.34716
 H124 H 0.08961 0.58863 0.58706
 O125 O 0.06084 0.56023 0.55891
 H126 H -0.09059 0.58889 0.41215
 O127 O -0.06172 0.56049 0.44028
 O128 O 0.17063 0.41087 0.50008
 O129 O -0.17154 0.41161 0.50117
 O130 O 0.09415 0.49718 0.66938
 O131 O 0.08592 0.50247 0.32684
 O132 O -0.09408 0.49820 0.32996
 O133 O -0.08609 0.50119 0.67322
 O134 O 0.00333 0.32922 0.59016
 O135 O -0.00360 0.32906 0.41084
 O136 O 0.00476 0.40960 0.67193
 O137 O -0.00625 0.40937 0.32874
 O138 O 0.17336 0.49948 0.58641
 O139 O -0.16914 0.50409 0.59347
 O140 O -0.17349 0.49802 0.41280
 O141 O 0.16898 0.50192 0.40661
 O142 O 0.08991 0.32927 0.50105
 O143 O -0.09092 0.32986 0.49854
 Zr144 Zr 0.11671 0.50064 0.49768
 Zr145 Zr -0.11743 0.50114 0.50197
 Zr146 Zr 0.00241 0.49967 0.61709
 Zr147 Zr -0.00290 0.49991 0.38258
 Zr148 Zr -0.00035 0.38349 0.50018
 O149 O -0.06216 0.44017 0.44080
 O150 O 0.06173 0.43979 0.55934
 C151 C 0.15141 0.34929 0.50170
 C152 C -0.15237 0.35005 0.49924
 C153 C 0.15535 0.49801 0.64845
 C154 C 0.14791 0.50357 0.34537
 C155 C -0.15519 0.49653 0.35080
 C156 C -0.14805 0.50295 0.65476
 C157 C 0.00531 0.34816 0.65197
 C158 C -0.00577 0.34796 0.34908
 H159 H -0.08713 0.41197 0.58994
 O160 O -0.05930 0.44042 0.56105
 H161 H 0.08648 0.41184 0.41002
 O162 O 0.05855 0.44026 0.43880
 O163 O 0.32882 0.08981 0.50380
 O164 O 0.67121 0.09066 0.49407
 O165 O 0.49924 0.17062 0.58976
 O166 O 0.50139 0.16996 0.40907
 O167 O 0.49915 0.08818 0.32851
 O168 O 0.50107 0.08917 0.67079
 O169 O 0.58919 0.17082 0.49695
 O170 O 0.41048 0.17031 0.50261
 Zr171 Zr 0.50014 0.11622 0.49959
 O172 O 0.55918 0.05971 0.43788
 O173 O 0.44135 0.05997 0.56167
 C174 C 0.34882 0.15123 0.50416
 C175 C 0.65085 0.15201 0.49505
 C176 C 0.49895 0.15073 0.65138
 C177 C 0.50109 0.14974 0.34762
 H178 H 0.59046 0.08818 0.58682
 O179 O 0.56175 0.05965 0.55874
 H180 H 0.41001 0.08753 0.41235
 O181 O 0.43901 0.05925 0.44048
 O182 O 0.67174 -0.08980 0.49983
 O183 O 0.32953 -0.08953 0.50174
 O184 O 0.59494 -0.00327 0.66889
 O185 O 0.58622 0.00151 0.32661
 O186 O 0.40657 -0.00318 0.33037
 O187 O 0.41483 0.00041 0.67332
 O188 O 0.50502 -0.17099 0.58997
 O189 O 0.49762 -0.17214 0.41067
 O190 O 0.50619 -0.09031 0.67155
 O191 O 0.49460 -0.09189 0.32860
 O192 O 0.67412 -0.00113 0.58586
 O193 O 0.33173 0.00283 0.59367
 O194 O 0.32736 -0.00348 0.41339
 O195 O 0.66952 0.00154 0.40611
 O196 O 0.59121 -0.17160 0.50099
 O197 O 0.41018 -0.17122 0.49879
 Zr198 Zr 0.61757 0.00002 0.49733
 Zr199 Zr 0.38353 -0.00011 0.50226
 Zr200 Zr 0.50327 -0.00066 0.61693
 Zr201 Zr 0.49776 -0.00138 0.38269
 Zr202 Zr 0.50079 -0.11744 0.50000
 O203 O 0.43861 -0.06110 0.44088
 O204 O 0.56257 -0.06063 0.55905
 C205 C 0.65271 -0.15148 0.50158
 C206 C 0.34869 -0.15105 0.49977
 C207 C 0.65604 -0.00251 0.64783
 C208 C 0.64822 0.00302 0.34495
 C209 C 0.34558 -0.00494 0.35143
 C210 C 0.35282 0.00191 0.65495
 C211 C 0.50706 -0.15163 0.65158
 C212 C 0.49534 -0.15333 0.34885
 H213 H 0.41412 -0.08891 0.59009
 O214 O 0.44190 -0.06050 0.56111
 H215 H 0.58753 -0.08911 0.40979
 O216 O 0.55959 -0.06072 0.43860
 C217 C 0.20321 0.20514 -0.00386
 C218 C 0.25099 0.19991 -0.06340
 C219 C 0.29891 0.24801 -0.06444
 C220 C 0.29476 0.29704 -0.00583
 C221 C 0.22312 0.32433 -0.00886
 C222 C 0.17548 0.27651 -0.00781
 C223 C 0.24859 0.20517 0.05793
 C224 C 0.29639 0.25318 0.05695
 H225 H 0.24723 0.16187 -0.10159
 H226 H 0.33603 0.25113 -0.10355
 H227 H 0.21042 0.37669 -0.01225
 H228 H 0.12292 0.28890 -0.01030
 H229 H 0.24357 0.17037 0.09895
 H230 H 0.33209 0.25943 0.09725
 C231 C 0.20297 -0.29423 0.49680
 C232 C 0.24189 -0.28813 0.43134
 C233 C 0.29030 -0.24072 0.43259
 C234 C 0.29507 -0.20316 0.49905
 C235 C 0.22423 -0.17616 0.51100
 C236 C 0.17624 -0.22366 0.50987
 C237 C 0.25615 -0.30498 0.55115
 C238 C 0.30431 -0.25735 0.55232
 H239 H 0.22992 -0.31601 0.38670
 H240 H 0.32061 -0.22918 0.38936
 H241 H 0.21243 -0.12437 0.52054
 H242 H 0.12426 -0.21170 0.51846
 H243 H 0.25534 -0.34595 0.58641
 H244 H 0.34470 -0.25771 0.58847
 C245 C 0.79567 0.79890 -0.00597
 C246 C 0.72369 0.82577 -0.00955
 C247 C 0.67625 0.77773 -0.00807
 C248 C 0.70418 0.70653 -0.00319
 C249 C 0.75220 0.70085 -0.06252
 C250 C 0.80000 0.74911 -0.06402
 C251 C 0.79708 0.75564 0.05736
 C252 C 0.74940 0.70746 0.05871
 H253 H 0.71048 0.87796 -0.01373
 H254 H 0.62365 0.78987 -0.01095
 H255 H 0.74867 0.66238 -0.10027
 H256 H 0.83710 0.75180 -0.10320
 H257 H 0.83249 0.76241 0.09787
 H258 H 0.74429 0.67319 0.10016
 C259 C 0.79423 0.29771 0.49837
 C260 C 0.72306 0.32437 0.50877
 C261 C 0.67545 0.27647 0.50764
 C262 C 0.70289 0.20584 0.49613
 C263 C 0.74277 0.21122 0.43120
 C264 C 0.79077 0.25907 0.43244
 C265 C 0.80303 0.24437 0.55261
 C266 C 0.75528 0.19633 0.55142
 H267 H 0.71076 0.37624 0.51714
 H268 H 0.62325 0.28823 0.51507
 H269 H 0.73183 0.18244 0.38688
 H270 H 0.82170 0.27013 0.38953
 H271 H 0.84287 0.24485 0.58937
 H272 H 0.75428 0.15586 0.58726
 C273 C 0.79635 0.20575 0.00351
 C274 C 0.74567 0.19721 0.06018
 C275 C 0.69778 0.24524 0.06152
 C276 C 0.70499 0.29757 0.00612
 C277 C 0.77641 0.32446 0.01447
 C278 C 0.82403 0.27658 0.01316
 C279 C 0.75447 0.20989 -0.06051
 C280 C 0.70659 0.25772 -0.05911
 H281 H 0.74824 0.15777 0.09703
 H282 H 0.65919 0.24659 0.09928
 H283 H 0.78890 0.37646 0.02170
 H284 H 0.87640 0.28847 0.01942
 H285 H 0.76344 0.17962 -0.10421
 H286 H 0.67406 0.26757 -0.10135
 C287 C 0.79833 -0.29598 0.50430
 C288 C 0.74671 -0.30296 0.56042
 C289 C 0.69880 -0.25487 0.55983
 C290 C 0.70638 -0.20406 0.50302
 C291 C 0.77757 -0.17681 0.51139
 C292 C 0.82541 -0.22449 0.51211
 C293 C 0.75682 -0.29398 0.43973
 C294 C 0.70882 -0.24604 0.43911
 H295 H 0.74716 -0.34276 0.59688
 H296 H 0.65896 -0.25338 0.59625
 H297 H 0.78973 -0.12459 0.51758
 H298 H 0.87756 -0.21189 0.51896
 H299 H 0.76462 -0.32730 0.39792
 H300 H 0.67574 -0.23850 0.39682
 C301 C 0.20482 0.29675 0.50309
 C302 C 0.20734 0.25512 0.43895
 C303 C 0.25517 0.20706 0.43958
 C304 C 0.29629 0.20478 0.50430
 C305 C 0.32370 0.27588 0.51254
 C306 C 0.27609 0.32376 0.51189
 C307 C 0.19677 0.24571 0.55961
 C308 C 0.24451 0.19751 0.56009
 H309 H 0.17444 0.26295 0.39657
 H310 H 0.26315 0.17381 0.39776
 H311 H 0.37595 0.28795 0.51952
 H312 H 0.28843 0.37591 0.51833
 H313 H 0.15667 0.24700 0.59575
 H314 H 0.24462 0.15729 0.59604
 C315 C 0.20432 0.79696 0.00630
 C316 C 0.20725 0.75756 -0.05913
 C317 C 0.25556 0.71016 -0.06009
 C318 C 0.29649 0.70590 0.00455
 C319 C 0.32349 0.77681 0.01509
 C320 C 0.27547 0.82430 0.01594
 C321 C 0.19667 0.74424 0.06125
 C322 C 0.24497 0.69660 0.06036
 H323 H 0.17535 0.76748 -0.10183
 H324 H 0.26559 0.68040 -0.10391
 H325 H 0.37567 0.78900 0.02230
 H326 H 0.28747 0.87634 0.02375
 H327 H 0.15746 0.74504 0.09839
 H328 H 0.24725 0.65694 0.09699
 C329 C -0.00572 0.20246 0.20512
 C330 C 0.05007 0.25421 0.19732
 C331 C 0.04992 0.30215 0.24520
 C332 C -0.00594 0.29417 0.29681
 C333 C -0.07063 0.29085 0.25584
 C334 C -0.07043 0.24311 0.20766
 C335 C 0.00329 0.17535 0.27649
 C336 C 0.00323 0.22313 0.32424
 H337 H 0.08697 0.25285 0.15791
 H338 H 0.08672 0.34170 0.24666
 H339 H -0.11410 0.32100 0.26613
 H340 H -0.11333 0.23350 0.17598
 H341 H 0.00988 0.12319 0.28884
 H342 H 0.00973 0.21098 0.37659
 C343 C 0.49764 0.29549 0.79611
 C344 C 0.44205 0.30350 0.74376
 C345 C 0.44207 0.25530 0.69596
 C346 C 0.49775 0.20342 0.70470
 C347 C 0.56245 0.24403 0.70796
 C348 C 0.56244 0.29198 0.75583
 C349 C 0.48808 0.22451 0.82358
 C350 C 0.48818 0.17658 0.77598
 H351 H 0.40542 0.34321 0.74464
 H352 H 0.40542 0.25384 0.65606
 H353 H 0.60521 0.23487 0.67627
 H354 H 0.60542 0.32319 0.76551
 H355 H 0.48055 0.21259 0.87579
 H356 H 0.48070 0.12455 0.78831
 C357 C -0.00370 0.79507 0.79578
 C358 C -0.05822 0.80421 0.74252
 C359 C -0.05819 0.75612 0.69469
 C360 C -0.00355 0.70334 0.70444
 C361 C 0.06180 0.74272 0.70887
 C362 C 0.06178 0.79052 0.75678
 C363 C -0.01506 0.72431 0.82306
 C364 C -0.01496 0.67648 0.77543
 H365 H -0.09421 0.84452 0.74288
 H366 H -0.09420 0.75529 0.65419
 H367 H 0.10499 0.73276 0.67801
 H368 H 0.10517 0.82083 0.76743
 H369 H -0.02398 0.71251 0.87508
 H370 H -0.02382 0.62460 0.78747
 C371 C 0.49574 -0.29933 0.20468
 C372 C 0.55097 -0.24688 0.19646
 C373 C 0.55065 -0.19884 0.24430
 C374 C 0.49535 -0.20727 0.29644
 C375 C 0.43036 -0.21143 0.25600
 C376 C 0.43061 -0.25926 0.20787
 C377 C 0.50575 -0.32607 0.27626
 C378 C 0.50555 -0.27814 0.32389
 H379 H 0.58775 -0.24785 0.15690
 H380 H 0.58709 -0.15895 0.24544
 H381 H 0.38665 -0.18175 0.26664
 H382 H 0.38743 -0.26929 0.17668
 H383 H 0.51336 -0.37802 0.28895
 H384 H 0.51287 -0.29005 0.37618
 C385 C 0.00038 0.79573 0.20087
 C386 C 0.06244 0.79701 0.24612
 C387 C 0.06261 0.74910 0.29440
 C388 C 0.00081 0.70391 0.29325
 C389 C -0.05870 0.75177 0.29720
 C390 C -0.05891 0.79967 0.24909
 C391 C -0.00194 0.72393 0.17364
 C392 C -0.00168 0.67634 0.22167
 H393 H 0.10324 0.83189 0.24010
 H394 H 0.10338 0.74336 0.32966
 H395 H -0.09737 0.74834 0.33475
 H396 H -0.09756 0.83717 0.24598
 H397 H -0.00358 0.71093 0.12116
 H398 H -0.00300 0.62384 0.20925
 C399 C 0.50761 -0.29589 0.79612
 C400 C 0.44220 -0.25654 0.79122
 C401 C 0.44242 -0.20880 0.74310
 C402 C 0.50803 -0.20466 0.70422
 C403 C 0.56213 -0.19514 0.75782
 C404 C 0.56205 -0.24305 0.80590
 C405 C 0.51933 -0.32301 0.72533
 C406 C 0.51954 -0.27543 0.67743
 H407 H 0.39933 -0.26559 0.82281
 H408 H 0.39975 -0.17696 0.73350
 H409 H 0.59650 -0.15364 0.75872
 H410 H 0.59698 -0.24292 0.84735
 H411 H 0.52821 -0.37492 0.71355
 H412 H 0.52858 -0.28742 0.62550
 C413 C 0.50166 0.29429 0.20307
 C414 C 0.56358 0.29531 0.24831
 C415 C 0.56356 0.24707 0.29611
 C416 C 0.50163 0.20212 0.29423
 C417 C 0.44216 0.24994 0.29855
 C418 C 0.44226 0.29816 0.25092
 C419 C 0.49931 0.22301 0.17499
 C420 C 0.49932 0.17499 0.22250
 H421 H 0.60439 0.33020 0.24253
 H422 H 0.60423 0.24092 0.33141
 H423 H 0.40335 0.24625 0.33594
 H424 H 0.40380 0.33586 0.24787
 H425 H 0.49791 0.21081 0.12231
 H426 H 0.49798 0.12259 0.20963
 C427 C 0.00620 0.20178 0.79634
 C428 C -0.05898 0.24188 0.79225
 C429 C -0.05891 0.29016 0.74448
 C430 C 0.00624 0.29437 0.70476
 C431 C 0.06095 0.30281 0.75795
 C432 C 0.06113 0.25439 0.80568
 C433 C 0.01691 0.17550 0.72487
 C434 C 0.01690 0.22365 0.67740
 H435 H -0.10170 0.23295 0.82411
 H436 H -0.10146 0.32235 0.73565
 H437 H 0.09569 0.34400 0.75879
 H438 H 0.09671 0.25403 0.84659
 H439 H 0.02523 0.12369 0.71220
 H440 H 0.02513 0.21206 0.62525
 C441 C 0.19945 -0.00630 0.20814
 C442 C 0.17566 -0.03241 0.27617
 C443 C 0.22394 -0.03256 0.32391
 C444 C 0.29170 -0.00634 0.29944
 C445 C 0.30823 -0.04969 0.23863
 C446 C 0.25988 -0.04996 0.19105
 C447 C 0.22848 0.06281 0.22282
 C448 C 0.27679 0.06279 0.27053
 H449 H 0.12565 -0.05034 0.28590
 H450 H 0.21486 -0.05089 0.37398
 H451 H 0.35459 -0.07654 0.23264
 H452 H 0.26458 -0.07820 0.14522
 H453 H 0.21153 0.10808 0.19867
 H454 H 0.30161 0.10797 0.28674
 C455 C 0.30167 0.49932 0.79301
 C456 C 0.32678 0.52026 0.72337
 C457 C 0.27880 0.51980 0.67531
 C458 C 0.20967 0.49866 0.70067
 C459 C 0.22133 0.43063 0.73364
 C460 C 0.26919 0.43097 0.78204
 C461 C 0.24312 0.54672 0.80676
 C462 C 0.19530 0.54648 0.75859
 H463 H 0.37753 0.53537 0.71258
 H464 H 0.28927 0.53418 0.62426
 H465 H 0.19636 0.38543 0.71804
 H466 H 0.28405 0.38616 0.80849
 H467 H 0.23903 0.57728 0.85101
 H468 H 0.15115 0.57751 0.76159
 C469 C 0.80173 -0.00139 0.79209
 C470 C 0.82685 0.02061 0.72279
 C471 C 0.77898 0.02024 0.67470
 C472 C 0.71010 -0.00187 0.69984
 C473 C 0.72227 -0.07017 0.73197
 C474 C 0.76999 -0.06993 0.78040
 C475 C 0.74283 0.04538 0.80637
 C476 C 0.69513 0.04522 0.75819
 H477 H 0.87743 0.03646 0.71229
 H478 H 0.78931 0.03544 0.62385
 H479 H 0.69776 -0.11543 0.71578
 H480 H 0.78526 -0.11488 0.80638
 H481 H 0.73852 0.07559 0.85085
 H482 H 0.65078 0.07596 0.76137
 C483 C -0.30157 0.49450 0.20690
 C484 C -0.32482 0.46730 0.27487
 C485 C -0.27649 0.46748 0.32262
 C486 C -0.20913 0.49495 0.29850
 C487 C -0.19199 0.45244 0.23726
 C488 C -0.24033 0.45182 0.18961
 C489 C -0.27344 0.56390 0.22241
 C490 C -0.22512 0.56409 0.27018
 H491 H -0.37446 0.44834 0.28463
 H492 H -0.28526 0.44849 0.37250
 H493 H -0.14527 0.42624 0.23109
 H494 H -0.23506 0.42380 0.14368
 H495 H -0.29086 0.60924 0.19866
 H496 H -0.20088 0.60945 0.28673
 C497 C 0.20831 0.00152 0.79963
 C498 C 0.19348 -0.04468 0.74044
 C499 C 0.24175 -0.04489 0.69309
 C500 C 0.30071 0.00142 0.70875
 C501 C 0.26938 0.07001 0.72095
 C502 C 0.22085 0.07003 0.76825
 C503 C 0.27709 -0.02133 0.82534
 C504 C 0.32532 -0.02138 0.77787
 H505 H 0.14864 -0.07435 0.73580
 H506 H 0.23825 -0.07541 0.64860
 H507 H 0.28603 0.11520 0.69665
 H508 H 0.19516 0.11505 0.78334
 H509 H 0.28695 -0.03752 0.87606
 H510 H 0.37583 -0.03756 0.78852
 C511 C 0.29139 0.50486 0.19994
 C512 C 0.22232 0.52683 0.17458
 C513 C 0.17457 0.52694 0.22251
 C514 C 0.19993 0.50477 0.29163
 C515 C 0.23175 0.43639 0.27985
 C516 C 0.27947 0.43644 0.23183
 C517 C 0.30643 0.55166 0.25863
 C518 C 0.25880 0.55134 0.30665
 H519 H 0.21165 0.54147 0.12357
 H520 H 0.12372 0.54216 0.21204
 H521 H 0.21686 0.39145 0.30592
 H522 H 0.30471 0.39142 0.21625
 H523 H 0.35113 0.58184 0.26255
 H524 H 0.26360 0.58016 0.35199
 C525 C 0.79074 0.00458 0.19885
 C526 C 0.72189 0.02781 0.17414
 C527 C 0.67442 0.02790 0.22236
 C528 C 0.69990 0.00439 0.29102
 C529 C 0.73070 -0.06423 0.27810
 C530 C 0.77811 -0.06414 0.22980
 C531 C 0.80674 0.05037 0.25810
 C532 C 0.75942 0.04999 0.30639
 H533 H 0.71117 0.04323 0.12337
 H534 H 0.62372 0.04393 0.21244
 H535 H 0.71532 -0.10934 0.30358
 H536 H 0.80256 -0.10928 0.21335
 H537 H 0.85178 0.08002 0.26214
 H538 H 0.76480 0.07822 0.35204
 C539 C -0.29182 0.50266 0.80003
 C540 C -0.30824 0.45844 0.73969
 C541 C -0.26028 0.45820 0.69206
 C542 C -0.20002 0.50247 0.70863
 C543 C -0.22938 0.57154 0.72280
 C544 C -0.27761 0.57161 0.77038
 C545 C -0.22364 0.47725 0.82473
 C546 C -0.17569 0.47715 0.77698
 H547 H -0.35383 0.42999 0.73458
 H548 H -0.26482 0.42891 0.64683
 H549 H -0.21188 0.61686 0.69932
 H550 H -0.30220 0.61684 0.78662
 H551 H -0.21403 0.45937 0.87493
 H552 H -0.12563 0.45921 0.78687
   
