data_POSCAR
  _audit_creation_date              2014-09-24
  _audit_creation_method            'ToBaCCo'
  _symmetry_space_group_name_H-M    'P1'
  _symmetry_Int_Tables_number       1
  _symmetry_cell_setting            triclinic
  loop_
  _symmetry_equiv_pos_as_xyz
 x,y,z
_cell_length_a 43.9740
_cell_length_b 44.0738
_cell_length_c 43.8785
_cell_angle_alpha 90.139000
_cell_angle_beta 89.958300
_cell_angle_gamma 90.019500
loop_
  _atom_site_label
  _atom_site_type_symbol
  _atom_site_fract_x
  _atom_site_fract_y
  _atom_site_fract_z
C1 C 0.18517 0.21395 0.22931
 C2 C 0.20508 0.18952 0.23401
 C3 C 0.22983 0.18446 0.21436
 C4 C 0.23452 0.20433 0.18979
 C5 C 0.21486 0.22896 0.18474
 C6 C 0.19023 0.23354 0.20464
 H7 H 0.20170 0.17484 0.25349
 H8 H 0.25351 0.20061 0.17453
 H9 H 0.17445 0.25192 0.20047
 C10 C 0.68476 0.71411 0.72986
 C11 C 0.68983 0.73377 0.70526
 C12 C 0.71450 0.72923 0.68544
 C13 C 0.73423 0.70469 0.69046
 C14 C 0.72951 0.68473 0.71495
 C15 C 0.70470 0.68969 0.73455
 H16 H 0.67451 0.75263 0.70149
 H17 H 0.75279 0.70068 0.67472
 H18 H 0.70128 0.67496 0.75398
 C19 C 0.31602 0.78556 0.72756
 C20 C 0.31058 0.76557 0.70329
 C21 C 0.28571 0.76987 0.68383
 C22 C 0.26599 0.79443 0.68896
 C23 C 0.27092 0.81510 0.71314
 C24 C 0.29630 0.81018 0.73224
 H25 H 0.32580 0.74660 0.69952
 H26 H 0.24783 0.79814 0.67277
 H27 H 0.30009 0.82440 0.75200
 C28 C 0.81604 0.28493 0.23028
 C29 C 0.79664 0.31022 0.23390
 C30 C 0.77202 0.31515 0.21416
 C31 C 0.76689 0.29483 0.19008
 C32 C 0.78585 0.26962 0.18574
 C33 C 0.81008 0.26469 0.20599
 H34 H 0.79989 0.32584 0.25268
 H35 H 0.74808 0.29868 0.17463
 H36 H 0.82482 0.24545 0.20193
 C37 C 0.81454 0.71477 0.27101
 C38 C 0.79464 0.69030 0.26616
 C39 C 0.76998 0.68517 0.28586
 C40 C 0.76533 0.70489 0.31063
 C41 C 0.78505 0.72943 0.31585
 C42 C 0.80958 0.73420 0.29593
 H43 H 0.79838 0.67518 0.24702
 H44 H 0.74636 0.70110 0.32592
 H45 H 0.82488 0.75307 0.29986
 C46 C 0.31515 0.21456 -0.23047
 C47 C 0.29574 0.18927 -0.23424
 C48 C 0.27110 0.18420 -0.21451
 C49 C 0.26592 0.20440 -0.19033
 C50 C 0.28489 0.22958 -0.18586
 C51 C 0.30916 0.23463 -0.20605
 H52 H 0.29902 0.17375 -0.25310
 H53 H 0.24707 0.20049 -0.17491
 H54 H 0.32391 0.25383 -0.20184
 C55 C 0.68413 0.28626 -0.22962
 C56 C 0.70370 0.31138 -0.23353
 C57 C 0.72851 0.31632 -0.21401
 C58 C 0.73374 0.29613 -0.18996
 C59 C 0.71464 0.27107 -0.18530
 C60 C 0.69013 0.26622 -0.20527
 H61 H 0.70042 0.32685 -0.25234
 H62 H 0.75324 0.29955 -0.17526
 H63 H 0.67473 0.24767 -0.20053
 C64 C 0.18432 0.78735 0.27138
 C65 C 0.18983 0.76728 0.29549
 C66 C 0.21487 0.77136 0.31485
 C67 C 0.23469 0.79585 0.30973
 C68 C 0.22964 0.81670 0.28584
 C69 C 0.20408 0.81201 0.26691
 H70 H 0.17455 0.74837 0.29919
 H71 H 0.25355 0.79896 0.32520
 H72 H 0.19977 0.82693 0.24788
 C73 C 0.46442 0.43451 0.47831
 C74 C 0.48404 0.43937 0.45349
 C75 C 0.47941 0.46376 0.43343
 C76 C 0.45471 0.48336 0.43846
 C77 C 0.43481 0.47883 0.46307
 C78 C 0.43987 0.45439 0.48290
 H79 H 0.50298 0.42411 0.44978
 H80 H 0.45136 0.50268 0.42362
 H81 H 0.42414 0.45037 0.50147
 C82 C -0.03600 -0.06420 0.97918
 C83 C -0.06048 -0.04424 0.98396
 C84 C -0.06628 -0.01993 0.96386
 C85 C -0.04659 -0.01607 0.93872
 C86 C -0.02186 -0.03561 0.93382
 C87 C -0.01677 -0.05960 0.95409
 H88 H -0.07600 -0.04895 1.00249
 H89 H -0.04970 0.00271 0.92320
 H90 H 0.00270 -0.07427 0.95068
 C91 C 1.03548 0.56603 0.98052
 C92 C 1.05983 0.54603 0.98545
 C93 C 1.06478 0.52117 0.96597
 C94 C 1.04490 0.51646 0.94133
 C95 C 1.02038 0.53619 0.93603
 C96 C 1.01589 0.56093 0.95577
 H97 H 1.07452 0.54945 1.00497
 H98 H 1.04855 0.49737 0.92619
 H99 H 0.99758 0.57677 0.95142
 C100 C 0.53657 0.06547 0.47949
 C101 C 0.56105 0.04562 0.48440
 C102 C 0.56599 0.02017 0.46538
 C103 C 0.54540 0.01520 0.44114
 C104 C 0.52098 0.03503 0.43574
 C105 C 0.51679 0.06007 0.45505
 H106 H 0.57515 0.04936 0.50424
 H107 H 0.54866 -0.00360 0.42563
 H108 H 0.49848 0.07589 0.45060
 C109 C -0.03567 0.06499 0.52133
 C110 C -0.06038 0.04528 0.51688
 C111 C -0.06530 0.02009 0.53616
 C112 C -0.04449 0.01530 0.56021
 C113 C -0.01984 0.03498 0.56509
 C114 C -0.01560 0.05971 0.54554
 H115 H -0.07469 0.04890 0.49719
 H116 H -0.04817 -0.00273 0.57649
 H117 H 0.00342 0.07493 0.54920
 C118 C 0.46344 0.56495 0.02040
 C119 C 0.43892 0.54506 0.01571
 C120 C 0.43403 0.52028 0.03522
 C121 C 0.45414 0.51555 0.05964
 C122 C 0.47879 0.53520 0.06465
 C123 C 0.48327 0.55983 0.04492
 H124 H 0.42406 0.54848 -0.00366
 H125 H 0.45015 0.49703 0.07532
 H126 H 0.50222 0.57509 0.04867
 C127 C 0.53560 -0.06575 0.02010
 C128 C 0.55960 -0.04506 0.01490
 C129 C 0.56476 -0.02033 0.03450
 C130 C 0.54535 -0.01583 0.05948
 C131 C 0.52117 -0.03579 0.06519
 C132 C 0.51664 -0.06068 0.04563
 H133 H 0.57513 -0.04847 -0.00389
 H134 H 0.54909 0.00328 0.07457
 H135 H 0.49757 -0.07550 0.05007
 C136 C 1.03644 0.43392 0.52187
 C137 C 1.06092 0.45374 0.51678
 C138 C 1.06584 0.47935 0.53559
 C139 C 1.04529 0.48445 0.55985
 C140 C 1.02087 0.46464 0.56544
 C141 C 1.01663 0.43949 0.54628
 H142 H 1.07502 0.44985 0.49694
 H143 H 1.04857 0.50334 0.57525
 H144 H 0.99829 0.42372 0.55082
 C145 C 0.42350 0.01363 0.21104
 H146 H 0.42583 0.03327 0.22569
 C147 C 0.44349 0.00948 0.18663
 H148 H 0.46101 0.02622 0.18239
 C149 C 0.39779 -0.03207 0.19884
 H150 H 0.38035 -0.04852 0.20394
 C151 C 0.41711 -0.03698 0.17405
 H152 H 0.41427 -0.05721 0.16029
 N153 N 0.40103 -0.00687 0.21650
 C154 C 0.32744 0.03966 0.26394
 H155 H 0.32479 0.02502 0.28352
 C156 C 0.30763 0.06404 0.25973
 H157 H 0.28993 0.06827 0.27638
 C158 C 0.35379 0.05186 0.21846
 H159 H 0.37148 0.04677 0.20215
 C160 C 0.33463 0.07662 0.21348
 H161 H 0.33779 0.09037 0.19330
 Zn162 Zn 0.37531 0.00008 0.25046
 N163 N 0.35007 0.03416 0.24354
 C164 C 0.39716 0.03187 0.30253
 N165 N 0.40051 0.00676 0.28475
 C166 C 0.42276 -0.01391 0.29035
 C167 C 0.44257 -0.00991 0.31488
 C168 C 0.41633 0.03663 0.32745
 C169 C 0.32821 -0.04027 0.23588
 C170 C 0.30840 -0.06469 0.23998
 C171 C 0.33250 -0.07478 0.28836
 C172 C 0.35190 -0.05023 0.28329
 N173 N 0.34965 -0.03375 0.25722
 H174 H 0.37975 0.04834 0.29738
 H175 H 0.42508 -0.03352 0.27566
 H176 H 0.45997 -0.02674 0.31917
 H177 H 0.41348 0.05683 0.34126
 H178 H 0.32661 -0.02650 0.21556
 H179 H 0.29191 -0.06986 0.22240
 H180 H 0.33444 -0.08738 0.30942
 H181 H 0.36856 -0.04424 0.30035
 C182 C 0.31117 0.08294 0.23426
 C183 C 0.44029 -0.01602 0.16768
 C184 C 0.31043 -0.08238 0.26650
 C185 C 0.43942 0.01560 0.33383
 C186 C 0.07904 -0.01490 0.70941
 H187 H 0.07687 -0.03480 0.72364
 C188 C 0.05930 -0.01071 0.68488
 H189 H 0.04178 -0.02743 0.68056
 C190 C 0.10389 0.03157 0.69867
 H191 H 0.12107 0.04817 0.70430
 C192 C 0.08471 0.03662 0.67385
 H193 H 0.08781 0.05687 0.66028
 N194 N 0.10092 0.00600 0.71570
 C195 C 0.17247 -0.04210 0.76446
 H196 H 0.17383 -0.02868 0.78509
 C197 C 0.19213 -0.06661 0.76018
 H198 H 0.20827 -0.07220 0.77792
 C199 C 0.14953 -0.05107 0.71643
 H200 H 0.13326 -0.04464 0.69920
 C201 C 0.16881 -0.07570 0.71117
 H202 H 0.16715 -0.08791 0.68979
 Zn203 Zn 0.12607 -0.00106 0.74994
 N204 N 0.15146 -0.03504 0.74289
 C205 C 0.10255 -0.03356 0.80081
 N206 N 0.10016 -0.00794 0.78375
 C207 C 0.07829 0.01308 0.78961
 C208 C 0.05806 0.00905 0.81381
 C209 C 0.08290 -0.03842 0.82532
 C210 C 0.17375 0.03870 0.73643
 C211 C 0.19356 0.06311 0.74066
 C212 C 0.16781 0.07468 0.78792
 C213 C 0.14855 0.04998 0.78283
 N214 N 0.15161 0.03279 0.75723
 H215 H 0.11963 -0.05033 0.79548
 H216 H 0.07651 0.03297 0.77532
 H217 H 0.04060 0.02591 0.81781
 H218 H 0.08562 -0.05867 0.83897
 H219 H 0.17601 0.02434 0.71653
 H220 H 0.21121 0.06720 0.72395
 H221 H 0.16458 0.08844 0.80814
 H222 H 0.13118 0.04465 0.79938
 C223 C 0.19044 -0.08383 0.73323
 C224 C 0.06201 0.01533 0.66666
 C225 C 0.19067 0.08158 0.76664
 C226 C 0.06026 -0.01695 0.83214
 C227 C 0.57831 0.48546 0.20872
 H228 H 0.57612 0.46572 0.22317
 C229 C 0.55832 0.48960 0.18437
 H230 H 0.54063 0.47297 0.18039
 C231 C 0.60336 0.53166 0.19731
 H232 H 0.62071 0.54819 0.20260
 C233 C 0.58394 0.53664 0.17267
 H234 H 0.58704 0.55676 0.15890
 N235 N 0.60040 0.50626 0.21459
 C236 C 0.67380 0.46028 0.26263
 H237 H 0.67598 0.47482 0.28241
 C238 C 0.69380 0.43601 0.25853
 H239 H 0.71150 0.43218 0.27521
 C240 C 0.64864 0.44845 0.21638
 H241 H 0.63121 0.45351 0.19984
 C242 C 0.66809 0.42389 0.21141
 H243 H 0.66495 0.40996 0.19130
 Zn244 Zn 0.62581 0.49959 0.24874
 N245 N 0.65159 0.46586 0.24184
 C246 C 0.60387 0.46756 0.30054
 N247 N 0.60028 0.49254 0.28276
 C248 C 0.57757 0.51281 0.28815
 C249 C 0.55761 0.50858 0.31253
 C250 C 0.58455 0.46258 0.32531
 C251 C 0.67317 0.53990 0.23525
 C252 C 0.69271 0.56450 0.23962
 C253 C 0.66635 0.57595 0.28658
 C254 C 0.64737 0.55108 0.28135
 N255 N 0.65089 0.53381 0.25585
 H256 H 0.62161 0.45137 0.29554
 H257 H 0.57503 0.53231 0.27344
 H258 H 0.53989 0.52514 0.31668
 H259 H 0.58763 0.44250 0.33914
 H260 H 0.67579 0.52548 0.21543
 H261 H 0.71052 0.56870 0.22312
 H262 H 0.66279 0.58971 0.30674
 H263 H 0.62987 0.54563 0.29772
 C264 C 0.69104 0.41734 0.23267
 C265 C 0.56099 0.51548 0.16592
 C266 C 0.68941 0.58296 0.26556
 C267 C 0.56105 0.48324 0.33154
 C268 C 0.92308 0.51383 0.71121
 H269 H 0.92563 0.53331 0.72605
 C270 C 0.94295 0.50973 0.68672
 H271 H 0.96060 0.52636 0.68260
 C272 C 0.89687 0.46851 0.69863
 H273 H 0.87920 0.45225 0.70359
 C274 C 0.91610 0.46364 0.67376
 H275 H 0.91304 0.44356 0.65982
 N276 N 0.90046 0.49348 0.71656
 C277 C 0.82698 0.53980 0.76422
 H278 H 0.82431 0.52511 0.78376
 C279 C 0.80717 0.56418 0.76003
 H280 H 0.78946 0.56838 0.77667
 C281 C 0.85339 0.55210 0.71879
 H282 H 0.87110 0.54705 0.70250
 C283 C 0.83423 0.57685 0.71383
 H284 H 0.83740 0.59064 0.69368
 Zn285 Zn 0.87495 0.50031 0.75066
 N286 N 0.84964 0.53434 0.74383
 C287 C 0.89670 0.53217 0.80266
 N288 N 0.90027 0.50711 0.78487
 C289 C 0.92278 0.48670 0.79039
 C290 C 0.94260 0.49090 0.81489
 C291 C 0.91588 0.53715 0.82753
 C292 C 0.82703 0.46080 0.73676
 C293 C 0.80706 0.43653 0.74093
 C294 C 0.83319 0.42441 0.78775
 C295 C 0.85260 0.44897 0.78273
 N296 N 0.84939 0.46641 0.75741
 H297 H 0.87911 0.54846 0.79757
 H298 H 0.92532 0.46714 0.77566
 H299 H 0.96019 0.47425 0.81913
 H300 H 0.91284 0.55732 0.84134
 H301 H 0.82466 0.47536 0.71709
 H302 H 0.78919 0.43271 0.72440
 H303 H 0.83649 0.41049 0.80777
 H304 H 0.87018 0.45405 0.79914
 C305 C 0.81075 0.58313 0.73461
 C306 C 0.93950 0.48441 0.66756
 C307 C 0.81002 0.41789 0.76669
 C308 C 0.93920 0.51636 0.83388
 C309 C 0.20983 0.42278 0.01431
 H310 H 0.22480 0.42524 0.03372
 C311 C 0.18545 0.44270 0.01055
 H312 H 0.18154 0.46030 0.02736
 C313 C 0.19683 0.39681 -0.03121
 H314 H 0.20160 0.37922 -0.04770
 C315 C 0.17206 0.41607 -0.03574
 H316 H 0.15799 0.41311 -0.05577
 N317 N 0.21494 0.40027 -0.00632
 C318 C 0.26295 0.32667 0.03898
 H319 H 0.28234 0.32414 0.02399
 C320 C 0.25902 0.30678 0.06339
 H321 H 0.27569 0.28914 0.06729
 C322 C 0.21770 0.35285 0.05206
 H323 H 0.20140 0.37052 0.04733
 C324 C 0.21299 0.33359 0.07685
 H325 H 0.19301 0.33665 0.09095
 Zn326 Zn 0.24905 0.37483 -0.00008
 N327 N 0.24254 0.34928 0.03392
 C328 C 0.30122 0.39640 0.03152
 N329 N 0.28319 0.40015 0.00663
 C330 C 0.28844 0.42283 -0.01366
 C331 C 0.31289 0.44264 -0.00955
 C332 C 0.32604 0.41556 0.03640
 C333 C 0.23503 0.32731 -0.04024
 C334 C 0.23916 0.30762 -0.06488
 C335 C 0.28572 0.33405 -0.07711
 C336 C 0.28074 0.35317 -0.05219
 N337 N 0.25558 0.34967 -0.03450
 H338 H 0.29635 0.37866 0.04773
 H339 H 0.27354 0.42550 -0.03308
 H340 H 0.31691 0.46035 -0.02613
 H341 H 0.34004 0.41238 0.05643
 H342 H 0.21549 0.32470 -0.02549
 H343 H 0.22275 0.28972 -0.06878
 H344 H 0.30563 0.33756 -0.09118
 H345 H 0.29707 0.37074 -0.04703
 C346 C 0.23382 0.31020 0.08276
 C347 C 0.16613 0.43940 -0.01471
 C348 C 0.26480 0.31084 -0.08373
 C349 C 0.33211 0.43906 0.01572
 C350 C 0.71021 0.07720 -0.01460
 H351 H 0.72530 0.07439 -0.03389
 C352 C 0.68571 0.05744 -0.01066
 H353 H 0.68183 0.03960 -0.02723
 C354 C 0.69703 0.10390 0.03046
 H355 H 0.70176 0.12171 0.04670
 C356 C 0.67214 0.08479 0.03515
 H357 H 0.65796 0.08810 0.05507
 N358 N 0.71531 0.09998 0.00573
 C359 C 0.76309 0.17398 -0.03924
 H360 H 0.78209 0.17701 -0.02389
 C361 C 0.75914 0.19380 -0.06370
 H362 H 0.77544 0.21187 -0.06727
 C363 C 0.71878 0.14668 -0.05318
 H364 H 0.70284 0.12858 -0.04878
 C365 C 0.71406 0.16586 -0.07801
 H366 H 0.69441 0.16233 -0.09244
 Zn367 Zn 0.74958 0.12525 -0.00055
 N368 N 0.74318 0.15084 -0.03458
 C369 C 0.80350 0.10543 -0.03037
 N370 N 0.78373 0.09991 -0.00720
 C371 C 0.78736 0.07558 0.01145
 C372 C 0.81166 0.05564 0.00715
 C373 C 0.82836 0.08631 -0.03522
 C374 C 0.73612 0.17307 0.03949
 C375 C 0.74036 0.19254 0.06428
 C376 C 0.78601 0.16488 0.07706
 C377 C 0.78091 0.14597 0.05200
 N378 N 0.75617 0.15024 0.03394
 H379 H 0.80017 0.12471 -0.04510
 H380 H 0.77111 0.07153 0.02951
 H381 H 0.81362 0.03606 0.02186
 H382 H 0.84416 0.09163 -0.05336
 H383 H 0.71687 0.17622 0.02448
 H384 H 0.72435 0.21082 0.06805
 H385 H 0.80559 0.16081 0.09142
 H386 H 0.79675 0.12789 0.04704
 C387 C 0.73440 0.18978 -0.08353
 C388 C 0.66626 0.06118 0.01446
 C389 C 0.76560 0.18857 0.08347
 C390 C 0.83268 0.06088 -0.01642
 C391 C 0.20884 0.57755 0.48389
 H392 H 0.22246 0.57599 0.46340
 C393 C 0.18428 0.55790 0.48809
 H394 H 0.17887 0.54157 0.47044
 C395 C 0.19941 0.60095 0.53163
 H396 H 0.20567 0.61739 0.54879
 C397 C 0.17474 0.58170 0.53682
 H398 H 0.16233 0.58356 0.55806
 N399 N 0.21568 0.59878 0.50534
 C400 C 0.26377 0.67199 0.45910
 H401 H 0.28345 0.67410 0.47374
 C402 C 0.25984 0.69201 0.43481
 H403 H 0.27678 0.70936 0.43065
 C404 C 0.21774 0.64680 0.44684
 H405 H 0.20106 0.62956 0.45190
 C406 C 0.21306 0.66616 0.42214
 H407 H 0.19278 0.66357 0.40839
 Zn408 Zn 0.24973 0.62418 0.49846
 N409 N 0.24298 0.64979 0.46451
 C410 C 0.30118 0.60195 0.46605
 N411 N 0.28372 0.59877 0.49144
 C412 C 0.28947 0.57661 0.51215
 C413 C 0.31394 0.55684 0.50800
 C414 C 0.32595 0.58275 0.46105
 C415 C 0.23571 0.67131 0.53892
 C416 C 0.23987 0.69107 0.56349
 C417 C 0.28723 0.66568 0.57472
 C418 C 0.28221 0.64649 0.54987
 N419 N 0.25664 0.64944 0.53272
 H420 H 0.29599 0.61937 0.44959
 H421 H 0.27491 0.57427 0.53189
 H422 H 0.31788 0.53914 0.52460
 H423 H 0.33989 0.58605 0.44099
 H424 H 0.21582 0.67347 0.52459
 H425 H 0.22313 0.70857 0.56776
 H426 H 0.30747 0.66260 0.58839
 H427 H 0.29882 0.62931 0.54433
 C428 C 0.23427 0.68913 0.41590
 C429 C 0.16680 0.55985 0.51485
 C430 C 0.26591 0.68838 0.58182
 C431 C 0.33264 0.55981 0.48220
 C432 C 0.70930 0.92204 0.51577
 H433 H 0.72286 0.92343 0.53629
 C434 C 0.68474 0.94169 0.51172
 H435 H 0.67928 0.95785 0.52951
 C436 C 0.69997 0.89899 0.46785
 H437 H 0.70627 0.88267 0.45057
 C438 C 0.67528 0.91825 0.46281
 H439 H 0.66289 0.91653 0.44157
 N440 N 0.71619 0.90098 0.49416
 C441 C 0.76435 0.82855 0.54137
 H442 H 0.78444 0.82680 0.52724
 C443 C 0.76023 0.80860 0.56570
 H444 H 0.77722 0.79135 0.56995
 C445 C 0.71729 0.85249 0.55205
 H446 H 0.70039 0.86932 0.54645
 C447 C 0.71233 0.83312 0.57669
 H448 H 0.69188 0.83583 0.59017
 Zn449 Zn 0.75012 0.87553 0.50115
 N450 N 0.74314 0.85010 0.53517
 C451 C 0.80029 0.89910 0.53453
 N452 N 0.78410 0.90096 0.50820
 C453 C 0.79104 0.92191 0.48659
 C454 C 0.81561 0.94156 0.49066
 C455 C 0.82499 0.91839 0.53959
 C456 C 0.73578 0.82846 0.46083
 C457 C 0.73980 0.80849 0.43640
 C458 C 0.78774 0.83293 0.42543
 C459 C 0.78287 0.85232 0.45017
 N460 N 0.75705 0.84999 0.46708
 H461 H 0.79395 0.88286 0.55180
 H462 H 0.77750 0.92320 0.46606
 H463 H 0.82112 0.95761 0.47285
 H464 H 0.83735 0.91677 0.56085
 H465 H 0.71570 0.82675 0.47498
 H466 H 0.72276 0.79128 0.43209
 H467 H 0.80817 0.83560 0.41192
 H468 H 0.79983 0.86912 0.45581
 C469 C 0.73395 0.81077 0.58381
 C470 C 0.66730 0.93991 0.48496
 C471 C 0.76605 0.81062 0.41824
 C472 C 0.83302 0.93993 0.51744
 C473 C 0.01389 0.20953 0.42334
 H474 H 0.03346 0.22418 0.42603
 C475 C 0.00964 0.18510 0.44308
 H476 H 0.02598 0.18124 0.46109
 C477 C -0.03170 0.19760 0.39715
 H478 H -0.04785 0.20268 0.37935
 C479 C -0.03684 0.17290 0.41637
 H480 H -0.05675 0.15890 0.41279
 N481 N -0.00654 0.21518 0.40082
 C482 C 0.03992 0.26314 0.32765
 H483 H 0.02530 0.28273 0.32525
 C484 C 0.06434 0.25900 0.30772
 H485 H 0.06821 0.27545 0.28985
 C486 C 0.05178 0.21739 0.35325
 H487 H 0.04668 0.20106 0.37082
 C488 C 0.07650 0.21241 0.33389
 H489 H 0.09049 0.19248 0.33725
 Zn490 Zn 0.00023 0.24929 0.37566
 N491 N 0.03426 0.24259 0.35001
 C492 C 0.03230 0.30078 0.39790
 N493 N 0.00719 0.28310 0.40146
 C494 C -0.01301 0.28839 0.42434
 C495 C -0.00871 0.31266 0.44438
 C496 C 0.03747 0.32532 0.41740
 C497 C -0.03814 0.23712 0.32633
 C498 C -0.06250 0.24139 0.30640
 C499 C -0.07819 0.28450 0.33664
 C500 C -0.05328 0.27965 0.35572
 N501 N -0.03399 0.25611 0.35042
 H502 H 0.04840 0.29594 0.37996
 H503 H -0.03246 0.27359 0.42705
 H504 H -0.02492 0.31629 0.46261
 H505 H 0.05729 0.33945 0.41380
 H506 H -0.02225 0.21877 0.32243
 H507 H -0.06486 0.22638 0.28700
 H508 H -0.09361 0.30294 0.34180
 H509 H -0.04950 0.29470 0.37478
 C510 C 0.08308 0.23336 0.31073
 C511 C -0.01601 0.16638 0.43972
 C512 C -0.08306 0.26532 0.31144
 C513 C 0.01679 0.33158 0.44100
 C514 C -0.01375 0.71205 0.07730
 H515 H -0.03333 0.72667 0.07459
 C516 C -0.00948 0.68752 0.05757
 H517 H -0.02580 0.68357 0.03953
 C518 C 0.03178 0.70026 0.10354
 H519 H 0.04795 0.70542 0.12132
 C520 C 0.03690 0.67543 0.08439
 H521 H 0.05677 0.66142 0.08809
 N522 N 0.00661 0.71779 0.09989
 C523 C -0.04056 0.76526 0.17317
 H524 H -0.02606 0.78493 0.17581
 C525 C -0.06504 0.76089 0.19296
 H526 H -0.06909 0.77725 0.21095
 C527 C -0.05203 0.71951 0.14715
 H528 H -0.04672 0.70325 0.12949
 C529 C -0.07679 0.71429 0.16636
 H530 H -0.09063 0.69427 0.16280
 Zn531 Zn -0.00049 0.75180 0.12537
 N532 N -0.03467 0.74482 0.15067
 C533 C -0.03220 0.80365 0.10359
 N534 N -0.00724 0.78577 0.09992
 C535 C 0.01317 0.79109 0.07725
 C536 C 0.00910 0.81545 0.05738
 C537 C -0.03703 0.82840 0.08438
 C538 C 0.03867 0.73851 0.17379
 C539 C 0.06300 0.74274 0.19379
 C540 C 0.07597 0.78865 0.16673
 C541 C 0.05126 0.78366 0.14740
 N542 N 0.03340 0.75872 0.15103
 H543 H -0.04851 0.79873 0.12130
 H544 H 0.03265 0.77632 0.07464
 H545 H 0.02574 0.81952 0.03965
 H546 H -0.05710 0.84229 0.08751
 H547 H 0.02390 0.71904 0.17636
 H548 H 0.06707 0.72623 0.21155
 H549 H 0.08988 0.80868 0.16360
 H550 H 0.04637 0.79979 0.12960
 C551 C -0.08360 0.73513 0.18966
 C552 C 0.01609 0.66873 0.06103
 C553 C 0.08209 0.76803 0.19028
 C554 C -0.01623 0.83452 0.06090
 C555 C 0.48713 0.21160 0.57592
 H556 H 0.46804 0.22670 0.57261
 C557 C 0.49155 0.18713 0.55615
 H558 H 0.47578 0.18364 0.53753
 C559 C 0.53143 0.19856 0.60368
 H560 H 0.54701 0.20319 0.62213
 C561 C 0.53672 0.17383 0.58443
 H562 H 0.55617 0.15937 0.58862
 N563 N 0.50681 0.21669 0.59927
 C564 C 0.46141 0.26295 0.67415
 H565 H 0.47741 0.28114 0.67830
 C566 C 0.43693 0.25859 0.69396
 H567 H 0.43459 0.27340 0.71353
 C568 C 0.44610 0.22082 0.64425
 H569 H 0.44983 0.20597 0.62503
 C570 C 0.42108 0.21591 0.66322
 H571 H 0.40557 0.19760 0.65783
 Zn572 Zn 0.49996 0.25073 0.62471
 N573 N 0.46554 0.24417 0.64987
 C574 C 0.46918 0.30333 0.60388
 N575 N 0.49349 0.28478 0.59935
 C576 C 0.51314 0.28942 0.57587
 C577 C 0.50892 0.31372 0.55598
 C578 C 0.46418 0.32800 0.58460
 C579 C 0.53778 0.23860 0.67460
 C580 C 0.56208 0.24288 0.69463
 C581 C 0.57858 0.28526 0.66398
 C582 C 0.55373 0.28042 0.64479
 N583 N 0.53405 0.25726 0.65026
 H584 H 0.45354 0.29899 0.62235
 H585 H 0.53210 0.27411 0.57259
 H586 H 0.52500 0.31723 0.53762
 H587 H 0.44456 0.34237 0.58838
 H588 H 0.52162 0.22053 0.67860
 H589 H 0.56412 0.22816 0.71423
 H590 H 0.59430 0.30340 0.65869
 H591 H 0.55033 0.29514 0.62547
 C592 C 0.41626 0.23481 0.68863
 C593 C 0.51661 0.16782 0.56031
 C594 C 0.58299 0.26647 0.68945
 C595 C 0.48418 0.33342 0.56024
 C596 C 0.51273 0.71001 0.92297
 H597 H 0.53254 0.72439 0.92536
 C598 C 0.50849 0.68558 0.94271
 H599 H 0.52507 0.68148 0.96045
 C600 C 0.46657 0.69875 0.89753
 H601 H 0.45012 0.70410 0.88010
 C602 C 0.46147 0.67402 0.91670
 H603 H 0.44135 0.66026 0.91335
 N604 N 0.49205 0.71595 0.90075
 C605 C 0.53971 0.76352 0.82812
 H606 H 0.52540 0.78336 0.82590
 C607 C 0.56425 0.75935 0.80836
 H608 H 0.56849 0.77601 0.79077
 C609 C 0.55067 0.71722 0.85312
 H610 H 0.54514 0.70068 0.87037
 C611 C 0.57552 0.71219 0.83393
 H612 H 0.58920 0.69204 0.83712
 Zn613 Zn 0.49935 0.74980 0.87531
 N614 N 0.53354 0.74271 0.85009
 C615 C 0.53264 0.79987 0.89880
 N616 N 0.50636 0.78374 0.90088
 C617 C 0.48490 0.79072 0.92209
 C618 C 0.48911 0.81527 0.94181
 C619 C 0.53782 0.82456 0.91810
 C620 C 0.45975 0.73587 0.82743
 C621 C 0.43562 0.74005 0.80721
 C622 C 0.42433 0.78760 0.83226
 C623 C 0.44874 0.78256 0.85193
 N624 N 0.46566 0.75684 0.84942
 H625 H 0.54979 0.79352 0.88236
 H626 H 0.46439 0.77723 0.92355
 H627 H 0.47146 0.82081 0.95811
 H628 H 0.55904 0.83690 0.91629
 H629 H 0.47394 0.71591 0.82556
 H630 H 0.43154 0.72323 0.78966
 H631 H 0.41080 0.80793 0.83506
 H632 H 0.45413 0.79928 0.86910
 C633 C 0.58261 0.73342 0.81116
 C634 C 0.48262 0.66710 0.93966
 C635 C 0.41745 0.76618 0.80952
 C636 C 0.51585 0.83263 0.93992
 C637 C 0.14111 0.19440 0.25982
 C638 C 0.15902 0.21895 0.25011
 C639 C 0.15176 0.24828 0.26038
 C640 C 0.12718 0.25296 0.28004
 C641 C 0.10921 0.22842 0.28978
 C642 C 0.11645 0.19909 0.27937
 H643 H 0.14591 0.17161 0.25191
 H644 H 0.16542 0.26757 0.25358
 H645 H 0.12254 0.27576 0.28801
 H646 H 0.10277 0.17976 0.28597
 C647 C 0.65167 0.74832 0.76135
 C648 C 0.65866 0.71907 0.75071
 C649 C 0.64054 0.69455 0.76007
 C650 C 0.61586 0.69920 0.77960
 C651 C 0.60885 0.72847 0.79035
 C652 C 0.62709 0.75297 0.78102
 H653 H 0.66553 0.76757 0.75483
 H654 H 0.64517 0.67182 0.75187
 H655 H 0.60197 0.67992 0.78589
 H656 H 0.62266 0.77571 0.78928
 C657 C 0.34875 0.75134 0.75924
 C658 C 0.34213 0.78054 0.74833
 C659 C 0.36052 0.80496 0.75753
 C660 C 0.38501 0.80029 0.77723
 C661 C 0.39158 0.77111 0.78832
 C662 C 0.37315 0.74668 0.77907
 H663 H 0.33469 0.73217 0.75287
 H664 H 0.35618 0.82764 0.74913
 H665 H 0.39906 0.81950 0.78346
 H666 H 0.37726 0.72401 0.78757
 C667 C -0.14421 0.30463 0.26473
 C668 C -0.15912 0.28006 0.25039
 C669 C -0.14843 0.25050 0.25666
 C670 C -0.12410 0.24577 0.27656
 C671 C -0.10924 0.27036 0.29050
 C672 C -0.11957 0.29984 0.28420
 H673 H -0.15045 0.32787 0.25993
 H674 H -0.15961 0.23066 0.24739
 H675 H -0.11735 0.22268 0.28145
 H676 H -0.10820 0.31944 0.29382
 C677 C -0.14133 0.69559 0.24028
 C678 C -0.15943 0.71997 0.25014
 C679 C -0.15245 0.74937 0.23999
 C680 C -0.12792 0.75428 0.22035
 C681 C -0.10974 0.72991 0.21051
 C682 C -0.11672 0.70051 0.22074
 H683 H -0.14592 0.67276 0.24810
 H684 H -0.16627 0.76853 0.24689
 H685 H -0.12347 0.77713 0.21250
 H686 H -0.10287 0.68132 0.21404
 C687 C 0.35077 0.24919 0.74345
 C688 C 0.34002 0.21959 0.74945
 C689 C 0.35492 0.19514 0.73490
 C690 C 0.37962 0.20008 0.71549
 C691 C 0.39002 0.22961 0.70949
 C692 C 0.37517 0.25409 0.72364
 H693 H 0.33959 0.26896 0.75287
 H694 H 0.34864 0.17186 0.73948
 H695 H 0.39097 0.18057 0.70570
 H696 H 0.38198 0.27722 0.71897
 C697 C 0.64439 0.30587 0.73596
 C698 C 0.65908 0.28137 0.75051
 C699 C 0.64804 0.25183 0.74460
 C700 C 0.62365 0.24703 0.72475
 C701 C 0.60909 0.27156 0.71050
 C702 C 0.61970 0.30103 0.71653
 H703 H 0.65086 0.32912 0.74052
 H704 H 0.65901 0.23202 0.75408
 H705 H 0.61664 0.22394 0.72011
 H706 H 0.60855 0.32058 0.70669
 C707 C 0.12970 0.77315 0.26217
 C708 C 0.15805 0.78242 0.25062
 C709 C 0.16118 0.78682 0.21904
 C710 C 0.13651 0.78223 0.19951
 C711 C 0.10822 0.77293 0.21107
 C712 C 0.10509 0.76836 0.24259
 H713 H 0.12642 0.77000 0.28641
 H714 H 0.18284 0.79336 0.20933
 H715 H 0.13970 0.78549 0.17526
 H716 H 0.08343 0.76157 0.25217
 C717 C 0.23933 0.13021 0.22907
 C718 C 0.25073 0.15846 0.21954
 C719 C 0.28223 0.16163 0.21496
 C720 C 0.30182 0.13712 0.21967
 C721 C 0.29039 0.10895 0.22927
 C722 C 0.25895 0.10577 0.23397
 H723 H 0.21515 0.12684 0.23229
 H724 H 0.29183 0.18320 0.20816
 H725 H 0.32600 0.14033 0.21627
 H726 H 0.24946 0.08419 0.24095
 C727 C 0.78186 0.66185 0.71538
 C728 C 0.75038 0.65869 0.72001
 C729 C 0.73896 0.63044 0.72951
 C730 C 0.75855 0.60599 0.73436
 C731 C 0.78999 0.60915 0.72964
 C732 C 0.80143 0.63732 0.72005
 H733 H 0.79146 0.68342 0.70856
 H734 H 0.71478 0.62708 0.73276
 H735 H 0.74905 0.58441 0.74132
 H736 H 0.82562 0.64052 0.71663
 C737 C 0.75960 0.34951 0.75159
 C738 C 0.74924 0.34241 0.78101
 C739 C 0.75895 0.36030 0.80570
 C740 C 0.77856 0.38482 0.80105
 C741 C 0.78902 0.39191 0.77162
 C742 C 0.77931 0.37395 0.74695
 H743 H 0.75287 0.33582 0.73221
 H744 H 0.75101 0.35556 0.82857
 H745 H 0.78517 0.39849 0.82048
 H746 H 0.78734 0.37847 0.72407
 C747 C 0.28053 -0.15976 0.28978
 C748 C 0.24963 -0.15835 0.28101
 C749 C 0.23931 -0.13125 0.26729
 C750 C 0.25894 -0.10676 0.26267
 C751 C 0.28957 -0.10847 0.27142
 C752 C 0.30012 -0.13527 0.28498
 H753 H 0.29030 -0.18021 0.29916
 H754 H 0.21570 -0.12808 0.26124
 H755 H 0.24989 -0.08615 0.25281
 H756 H 0.32379 -0.13759 0.29136
 C757 C 0.26124 -0.13311 0.73261
 C758 C 0.25100 -0.15990 0.71809
 C759 C 0.22027 -0.16096 0.70869
 C760 C 0.20075 -0.13644 0.71369
 C761 C 0.21121 -0.10995 0.72807
 C762 C 0.24169 -0.10858 0.73742
 H763 H 0.28475 -0.13020 0.73919
 H764 H 0.21057 -0.18118 0.69862
 H765 H 0.17720 -0.13850 0.70681
 H766 H 0.25068 -0.08822 0.74792
 C767 C 0.74083 0.34872 0.24821
 C768 C 0.75145 0.34143 0.21889
 C769 C 0.74215 0.35930 0.19412
 C770 C 0.72267 0.38397 0.19859
 C771 C 0.71194 0.39125 0.22792
 C772 C 0.72126 0.37331 0.25267
 H773 H 0.74725 0.33505 0.26764
 H774 H 0.75030 0.35443 0.17134
 H775 H 0.71635 0.39761 0.17911
 H776 H 0.71301 0.37796 0.27546
 C777 C 0.73892 0.65211 0.25119
 C778 C 0.74923 0.65911 0.28067
 C779 C 0.73970 0.64096 0.30516
 C780 C 0.72036 0.61627 0.30026
 C781 C 0.70999 0.60924 0.27077
 C782 C 0.71947 0.62748 0.24629
 H783 H 0.74555 0.66596 0.23194
 H784 H 0.74766 0.64556 0.32807
 H785 H 0.71393 0.60238 0.31954
 H786 H 0.71151 0.62300 0.22338
 C787 C 0.24001 0.15065 0.75135
 C788 C 0.25060 0.15787 0.78068
 C789 C 0.24139 0.13984 0.80539
 C790 C 0.22205 0.11507 0.80084
 C791 C 0.21137 0.10784 0.77150
 C792 C 0.22057 0.12596 0.74682
 H793 H 0.24636 0.16444 0.73197
 H794 H 0.24952 0.14466 0.82818
 H795 H 0.21583 0.10129 0.82027
 H796 H 0.21235 0.12137 0.72402
 C797 C 0.22932 0.23846 0.13013
 C798 C 0.21991 0.24979 0.15860
 C799 C 0.21525 0.28119 0.16191
 C800 C 0.21974 0.30076 0.13731
 C801 C 0.22916 0.28941 0.10889
 C802 C 0.23398 0.25806 0.10558
 H803 H 0.23259 0.21435 0.12666
 H804 H 0.20851 0.29071 0.18366
 H805 H 0.21627 0.32487 0.14063
 H806 H 0.24083 0.24864 0.08382
 C807 C 0.74880 0.76083 0.65267
 C808 C 0.71952 0.74997 0.65936
 C809 C 0.69504 0.75911 0.64101
 C810 C 0.69974 0.77868 0.61645
 C811 C 0.72901 0.78974 0.60981
 C812 C 0.75348 0.78057 0.62824
 H813 H 0.76801 0.75443 0.66669
 H814 H 0.67231 0.75072 0.64538
 H815 H 0.68048 0.78480 0.60240
 H816 H 0.77622 0.78904 0.62409
 C817 C 0.75087 0.76090 0.34902
 C818 C 0.78011 0.75003 0.34216
 C819 C 0.80465 0.75903 0.36054
 C820 C 0.80007 0.77852 0.38528
 C821 C 0.77085 0.78963 0.39208
 C822 C 0.74630 0.78056 0.37365
 H823 H 0.73162 0.75462 0.33499
 H824 H 0.82736 0.75063 0.35603
 H825 H 0.81939 0.78456 0.39933
 H826 H 0.72360 0.78906 0.37793
 C827 C 0.30417 0.26026 -0.14174
 C828 C 0.27968 0.25041 -0.15975
 C829 C 0.25021 0.26046 -0.15257
 C830 C 0.24537 0.28009 -0.12797
 C831 C 0.26988 0.28999 -0.10992
 C832 C 0.29933 0.27978 -0.11708
 H833 H 0.32706 0.25246 -0.14643
 H834 H 0.23097 0.25350 -0.16630
 H835 H 0.22247 0.28789 -0.12336
 H836 H 0.31863 0.28649 -0.10331
 C837 C 0.72899 0.26157 -0.13072
 C838 C 0.72003 0.25017 -0.15930
 C839 C 0.71606 0.21870 -0.16278
 C840 C 0.72075 0.19912 -0.13822
 C841 C 0.72967 0.21055 -0.10967
 C842 C 0.73383 0.24197 -0.10621
 H843 H 0.73174 0.28573 -0.12713
 H844 H 0.70966 0.20915 -0.18461
 H845 H 0.71780 0.17496 -0.14167
 H846 H 0.74026 0.25147 -0.08436
 C847 C 0.21535 0.71885 0.33714
 C848 C 0.22014 0.75021 0.34069
 C849 C 0.22977 0.76125 0.36920
 C850 C 0.23456 0.74141 0.39352
 C851 C 0.22957 0.71012 0.38997
 C852 C 0.21990 0.69905 0.36154
 H853 H 0.20842 0.70955 0.31536
 H854 H 0.23309 0.78532 0.37290
 H855 H 0.24160 0.75060 0.41531
 H856 H 0.21626 0.67498 0.35807
 C857 C 0.30505 0.73968 0.63935
 C858 C 0.28060 0.74898 0.65775
 C859 C 0.25127 0.73827 0.65102
 C860 C 0.24650 0.71858 0.62647
 C861 C 0.27095 0.70926 0.60800
 C862 C 0.30027 0.72010 0.61472
 H863 H 0.32783 0.74796 0.64371
 H864 H 0.23207 0.74479 0.66506
 H865 H 0.22371 0.71028 0.62222
 H866 H 0.31951 0.71384 0.60064
 C867 C 0.75112 0.23895 0.15233
 C868 C 0.78065 0.24865 0.15973
 C869 C 0.80518 0.23842 0.14195
 C870 C 0.80030 0.21893 0.11727
 C871 C 0.77077 0.20919 0.10983
 C872 C 0.74623 0.21940 0.12767
 H873 H 0.73183 0.24618 0.16587
 H874 H 0.82813 0.24593 0.14680
 H875 H 0.81962 0.21192 0.10367
 H876 H 0.72327 0.21195 0.12284
 C877 C 0.46536 0.41212 0.53090
 C878 C 0.46946 0.40858 0.49931
 C879 C 0.47842 0.38010 0.48794
 C880 C 0.48325 0.35576 0.50771
 C881 C 0.47913 0.35931 0.53927
 C882 C 0.47009 0.38774 0.55065
 H883 H 0.45893 0.43388 0.54041
 H884 H 0.48125 0.37648 0.46369
 H885 H 0.48974 0.33400 0.49823
 H886 H 0.46714 0.39127 0.57491
 C887 C -0.02137 0.88152 -0.01118
 C888 C -0.03073 0.90988 0.00020
 C889 C -0.03517 0.91324 0.03178
 C890 C -0.03050 0.88879 0.05145
 C891 C -0.02109 0.86050 0.04004
 C892 C -0.01650 0.85715 0.00853
 H893 H -0.01828 0.87799 -0.03541
 H894 H -0.04188 0.93489 0.04135
 H895 H -0.03383 0.89211 0.07569
 H896 H -0.00967 0.83548 -0.00095
 C897 C 0.05518 0.61007 0.01099
 C898 C 0.03053 0.59228 0.00117
 C899 C 0.00111 0.59979 0.01116
 C900 C -0.00356 0.62452 0.03059
 C901 C 0.02107 0.64240 0.04039
 C902 C 0.05050 0.63488 0.03032
 H903 H 0.07805 0.60508 0.00331
 H904 H -0.01826 0.58622 0.00429
 H905 H -0.02644 0.62936 0.03832
 H906 H 0.06990 0.64848 0.03700
 C907 C 0.50197 0.09929 0.50986
 C908 C 0.53148 0.09175 0.50014
 C909 C 0.55608 0.10942 0.51034
 C910 C 0.55127 0.13408 0.52983
 C911 C 0.52175 0.14163 0.53957
 C912 C 0.49716 0.12395 0.52935
 H913 H 0.48263 0.08582 0.50277
 H914 H 0.57902 0.10442 0.50289
 H915 H 0.57062 0.14755 0.53691
 H916 H 0.47421 0.12887 0.53683
 C917 C -0.05518 0.10894 0.49081
 C918 C -0.03064 0.09094 0.50041
 C919 C -0.00128 0.09786 0.48985
 C920 C 0.00345 0.12227 0.47014
 C921 C -0.02108 0.14034 0.46056
 C922 C -0.05045 0.13338 0.47113
 H923 H -0.07800 0.10439 0.49890
 H924 H 0.01800 0.08410 0.49648
 H925 H 0.02627 0.12671 0.46201
 H926 H -0.06975 0.14715 0.46459
 C927 C 0.44373 0.60904 0.99029
 C928 C 0.46835 0.59103 0.99966
 C929 C 0.49767 0.59816 0.98916
 C930 C 0.50228 0.62276 0.96966
 C931 C 0.47769 0.64088 0.96033
 C932 C 0.44835 0.63373 0.97091
 H933 H 0.42095 0.60432 0.99839
 H934 H 0.51699 0.58440 0.99566
 H935 H 0.52507 0.62730 0.96151
 H936 H 0.42899 0.64751 0.96460
 C937 C 0.53961 0.91014 0.96932
 C938 C 0.53067 0.90912 1.00026
 C939 C 0.51666 0.88222 1.01077
 C940 C 0.51193 0.85755 0.99128
 C941 C 0.52088 0.85889 0.96062
 C942 C 0.53473 0.88547 0.94988
 H943 H 0.54922 0.93043 0.95939
 H944 H 0.51046 0.87932 1.03444
 H945 H 0.50181 0.83711 1.00046
 H946 H 0.54127 0.88749 0.92618
 C947 C 0.05596 0.38962 0.49161
 C948 C 0.03138 0.40752 0.50141
 C949 C 0.00195 0.40016 0.49137
 C950 C -0.00279 0.37552 0.47185
 C951 C 0.02180 0.35763 0.46197
 C952 C 0.05123 0.36493 0.47215
 H953 H 0.07884 0.39450 0.49933
 H954 H -0.01738 0.41381 0.49819
 H955 H -0.02566 0.37080 0.46404
 H956 H 0.07058 0.35130 0.46539
 C957 C 0.39077 0.50908 0.44329
 C958 C 0.40867 0.49956 0.46799
 C959 C 0.40141 0.50996 0.49740
 C960 C 0.37682 0.52953 0.50200
 C961 C 0.35884 0.53904 0.47731
 C962 C 0.36610 0.52853 0.44790
 H963 H 0.39557 0.50107 0.42044
 H964 H 0.41506 0.50332 0.51680
 H965 H 0.37217 0.53758 0.52486
 H966 H 0.35241 0.53497 0.42846
 C967 C 0.89421 0.01459 -0.05589
 C968 C 0.90873 -0.00004 -0.03127
 C969 C 0.89757 0.00580 -0.00163
 C970 C 0.87321 0.02562 0.00315
 C971 C 0.85880 0.03991 -0.02150
 C972 C 0.86954 0.03399 -0.05108
 H973 H 0.90078 0.01011 -0.07923
 H974 H 0.90842 -0.00374 0.01828
 H975 H 0.86610 0.03018 0.02633
 H976 H 0.85852 0.04389 -0.07073
 C977 C 0.61918 -0.01069 0.01992
 C978 C 0.59069 0.00063 0.02906
 C979 C 0.58725 0.03209 0.03318
 C980 C 0.61176 0.05173 0.02842
 C981 C 0.64018 0.04037 0.01926
 C982 C 0.64361 0.00897 0.01497
 H983 H 0.62276 -0.03484 0.01711
 H984 H 0.56550 0.04158 0.03974
 H985 H 0.60837 0.07588 0.03152
 H986 H 0.66539 -0.00046 0.00837
 C987 C 0.08947 0.53016 0.53917
 C988 C 0.09071 0.49934 0.53023
 C989 C 0.11760 0.48904 0.51588
 C990 C 0.14213 0.50859 0.51093
 C991 C 0.14063 0.53911 0.51995
 C992 C 0.11398 0.54966 0.53403
 H993 H 0.06915 0.53992 0.54900
 H994 H 0.12061 0.46549 0.50960
 H995 H 0.16260 0.49955 0.50062
 H996 H 0.11181 0.57326 0.54061
 C997 C 0.08724 0.46873 -0.03320
 C998 C 0.09067 0.50014 -0.02868
 C999 C 0.11909 0.51135 -0.01922
 C1000 C 0.14351 0.49163 -0.01447
 C1001 C 0.14010 0.46028 -0.01926
 C1002 C 0.11171 0.44904 -0.02865
 H1003 H 0.06552 0.45928 -0.03991
 H1004 H 0.12264 0.53546 -0.01602
 H1005 H 0.16524 0.50096 -0.00763
 H1006 H 0.10833 0.42493 -0.03207
 C1007 C 0.58979 0.96949 0.46124
 C1008 C 0.59093 1.00023 0.47046
 C1009 C 0.61784 1.01052 0.48476
 C1010 C 0.64246 0.99104 0.48940
 C1011 C 0.64105 0.96059 0.48010
 C1012 C 0.61441 0.95005 0.46605
 H1013 H 0.56947 0.95972 0.45142
 H1014 H 0.62078 1.03402 0.49126
 H1015 H 0.66293 1.00007 0.49970
 H1016 H 0.61230 0.92651 0.45927
 C1017 C 0.91059 0.96965 0.54107
 C1018 C 0.90957 1.00025 0.53152
 C1019 C 0.88264 1.01045 0.51725
 C1020 C 0.85795 0.99099 0.51282
 C1021 C 0.85928 0.96064 0.52230
 C1022 C 0.88590 0.95022 0.53645
 H1023 H 0.93089 0.95998 0.55098
 H1024 H 0.87978 1.03387 0.51056
 H1025 H 0.83750 0.99996 0.50248
 H1026 H 0.88794 0.92675 0.54341
 C1027 C 0.41112 0.46801 0.03464
 C1028 C 0.40791 0.49943 0.03014
 C1029 C 0.37953 0.51078 0.02079
 C1030 C 0.35500 0.49119 0.01599
 C1031 C 0.35822 0.45982 0.02060
 C1032 C 0.38653 0.44845 0.03001
 H1033 H 0.43279 0.45846 0.04133
 H1034 H 0.37613 0.53490 0.01764
 H1035 H 0.33333 0.50064 0.00917
 H1036 H 0.38978 0.42432 0.03333
 C1037 C 0.48906 0.47820 0.37890
 C1038 C 0.50037 0.46879 0.40732
 C1039 C 0.53186 0.46423 0.41056
 C1040 C 0.55151 0.46883 0.38596
 C1041 C 0.54017 0.47830 0.35762
 C1042 C 0.50875 0.48300 0.35436
 H1043 H 0.46489 0.48142 0.37547
 H1044 H 0.54139 0.45753 0.43227
 H1045 H 0.57568 0.46546 0.38924
 H1046 H 0.49933 0.48988 0.33266
 C1047 C 0.00979 -0.00160 0.90077
 C1048 C -0.00104 -0.03078 0.90766
 C1049 C 0.00831 -0.05537 0.88952
 C1050 C 0.02804 -0.05088 0.86496
 C1051 C 0.03903 -0.02170 0.85810
 C1052 C 0.02966 0.00288 0.87632
 H1053 H 0.00331 0.01769 0.91466
 H1054 H -0.00000 -0.07804 0.89411
 H1055 H 0.03434 -0.07022 0.85109
 H1056 H 0.03810 0.02555 0.87202
 C1057 C 0.01057 0.05436 0.60938
 C1058 C 0.00121 0.02995 0.59100
 C1059 C 0.01199 0.00070 0.59760
 C1060 C 0.03179 -0.00403 0.62204
 C1061 C 0.04112 0.02037 0.64052
 C1062 C 0.03024 0.04962 0.63390
 H1063 H 0.00225 0.07707 0.60510
 H1064 H 0.00544 -0.01846 0.58357
 H1065 H 0.04012 -0.02676 0.62620
 H1066 H 0.03652 0.06882 0.64799
 C1067 C 0.51028 0.50081 0.09739
 C1068 C 0.49975 0.53012 0.09063
 C1069 C 0.50940 0.55455 0.10882
 C1070 C 0.52916 0.54979 0.13326
 C1071 C 0.53986 0.52050 0.13999
 C1072 C 0.53017 0.49606 0.12175
 H1073 H 0.50352 0.48162 0.08350
 H1074 H 0.50126 0.57732 0.10443
 H1075 H 0.53570 0.56903 0.14719
 H1076 H 0.53835 0.47329 0.12599
 C1077 C 0.46894 -0.03511 0.08844
 C1078 C 0.50045 -0.03054 0.09147
 C1079 C 0.51196 -0.02090 0.11978
 C1080 C 0.49244 -0.01600 0.14446
 C1081 C 0.46101 -0.02084 0.14144
 C1082 C 0.44947 -0.03044 0.11318
 H1083 H 0.45925 -0.04193 0.06681
 H1084 H 0.53615 -0.01760 0.12300
 H1085 H 0.50199 -0.00895 0.16610
 H1086 H 0.42529 -0.03390 0.11009
 C1087 C 1.01135 0.47961 0.61994
 C1088 C 0.99999 0.46996 0.59157
 C1089 C 0.96853 0.46520 0.58842
 C1090 C 0.94892 0.46987 0.61307
 C1091 C 0.96031 0.47956 0.64137
 C1092 C 0.99172 0.48445 0.64452
 H1093 H 1.03552 0.48292 0.62330
 H1094 H 0.95901 0.45821 0.56676
 H1095 H 0.92476 0.46632 0.60987
 H1096 H 1.00118 0.49149 0.66620
 C1097 C 0.96811 0.53590 0.91293
 C1098 C 0.99957 0.53107 0.90982
 C1099 C 1.01097 0.52131 0.88150
 C1100 C 0.99138 0.51641 0.85691
 C1101 C 0.95997 0.52134 0.86003
 C1102 C 0.94855 0.53118 0.88828
 H1103 H 0.95853 0.54293 0.93456
 H1104 H 1.03513 0.51790 0.87817
 H1105 H 1.00086 0.50926 0.83527
 H1106 H 0.92439 0.53477 0.89145
 C1107 C 0.46860 0.03474 0.41287
 C1108 C 0.50004 0.02983 0.40964
 C1109 C 0.51132 0.02013 0.38125
 C1110 C 0.49163 0.01535 0.35672
 C1111 C 0.46026 0.02039 0.35996
 C1112 C 0.44895 0.03017 0.38827
 H1113 H 0.45913 0.04176 0.43455
 H1114 H 0.53547 0.01673 0.37780
 H1115 H 0.50102 0.00825 0.33502
 H1116 H 0.42481 0.03385 0.39151
   
