data_POSCAR
  _audit_creation_date              2014-09-24
  _audit_creation_method            'ToBaCCo'
  _symmetry_space_group_name_H-M    'P1'
  _symmetry_Int_Tables_number       1
  _symmetry_cell_setting            triclinic
  loop_
  _symmetry_equiv_pos_as_xyz
 x,y,z
_cell_length_a 41.0377
_cell_length_b 41.0376
_cell_length_c 14.8167
_cell_angle_alpha 89.988600
_cell_angle_beta 89.965500
_cell_angle_gamma 119.826400
loop_
  _atom_site_label
  _atom_site_type_symbol
  _atom_site_fract_x
  _atom_site_fract_y
  _atom_site_fract_z
C1 C 0.16925 0.50123 0.50405
 C2 C 0.18765 0.50674 0.42155
 C3 C 0.22454 0.51321 0.42033
 C4 C 0.24254 0.51183 0.50109
 C5 C 0.22211 0.50440 0.58330
 C6 C 0.18610 0.50021 0.58503
 C7 C 0.28237 0.51880 0.49951
 C8 C 0.30324 0.52491 0.58049
 C9 C 0.34014 0.53160 0.57827
 C10 C 0.35770 0.53527 0.49552
 C11 C 0.33763 0.52741 0.41517
 C12 C 0.30005 0.51870 0.41695
 H13 H 0.14115 0.49752 0.50516
 H14 H 0.23870 0.51965 0.35608
 H15 H 0.23353 0.50197 0.64670
 H16 H 0.29159 0.52429 0.64599
 H17 H 0.38651 0.54100 0.49412
 H18 H 0.28503 0.51100 0.35384
 C19 C 0.52449 -0.31775 0.50257
 C20 C 0.51707 -0.30605 0.42087
 C21 C 0.50708 -0.27801 0.42049
 C22 C 0.50542 -0.26057 0.50211
 C23 C 0.51213 -0.27425 0.58436
 C24 C 0.52068 -0.30334 0.58436
 C25 C 0.49539 -0.22965 0.50121
 C26 C 0.48899 -0.21522 0.58255
 C27 C 0.47926 -0.18702 0.58069
 C28 C 0.47346 -0.17452 0.49816
 C29 C 0.48219 -0.18579 0.41747
 C30 C 0.49336 -0.21294 0.41876
 H31 H 0.53131 -0.34016 0.50280
 H32 H 0.49975 -0.27113 0.35630
 H33 H 0.51037 -0.26338 0.64910
 H34 H 0.49201 -0.22464 0.64812
 H35 H 0.46564 -0.15286 0.49706
 H36 H 0.50139 -0.21953 0.35513
 C37 C 1.32192 0.83879 0.50361
 C38 C 1.30854 0.82090 0.42114
 C39 C 1.27680 0.78496 0.41923
 C40 C 1.25701 0.76734 0.49996
 C41 C 1.27170 0.78671 0.58284
 C42 C 1.30455 0.82175 0.58429
 C43 C 1.22175 0.72921 0.49750
 C44 C 1.20591 0.70818 0.57785
 C45 C 1.17285 0.67320 0.57530
 C46 C 1.15669 0.65780 0.49205
 C47 C 1.17150 0.67740 0.41187
 C48 C 1.20314 0.71329 0.41459
 H49 H 1.34692 0.86635 0.50533
 H50 H 1.26844 0.77129 0.35455
 H51 H 1.25830 0.77550 0.64679
 H52 H 1.21866 0.71825 0.64289
 H53 H 1.13169 0.63027 0.48962
 H54 H 1.21243 0.72810 0.35141
 C55 C 0.82334 0.46504 0.49551
 C56 C 0.81125 0.47328 0.41540
 C57 C 0.78245 0.48222 0.41785
 C58 C 0.76474 0.48200 0.50079
 C59 C 0.77949 0.47562 0.58131
 C60 C 0.80955 0.46869 0.57846
 C61 C 0.73188 0.48902 0.50335
 C62 C 0.71859 0.49604 0.58597
 C63 C 0.68676 0.50037 0.58774
 C64 C 0.66918 0.49972 0.50657
 C65 C 0.68229 0.49440 0.42440
 C66 C 0.71264 0.48795 0.42280
 H67 H 0.84633 0.45913 0.49383
 H68 H 0.77517 0.49018 0.35499
 H69 H 0.76860 0.47628 0.64696
 H70 H 0.73222 0.49807 0.64948
 H71 H 0.64482 0.50349 0.50709
 H72 H 0.72035 0.48178 0.35820
 C73 C 0.49921 0.34287 0.49538
 C74 C 0.49485 0.32337 0.41526
 C75 C 0.49145 0.28773 0.41834
 C76 C 0.49472 0.27213 0.50149
 C77 C 0.49953 0.29311 0.58152
 C78 C 0.50051 0.32770 0.57866
 C79 C 0.49340 0.23465 0.50462
 C80 C 0.48903 0.21522 0.58752
 C81 C 0.48909 0.18105 0.58950
 C82 C 0.49141 0.16503 0.50837
 C83 C 0.49460 0.18271 0.42608
 C84 C 0.49678 0.21774 0.42422
 H85 H 0.50112 0.37019 0.49289
 H86 H 0.48624 0.27290 0.35526
 H87 H 0.50277 0.28332 0.64651
 H88 H 0.48530 0.22585 0.65086
 H89 H 0.49056 0.13817 0.50904
 H90 H 0.50128 0.23118 0.35938
 C91 C 0.65538 0.16301 0.49781
 C92 C 0.67492 0.17631 0.41692
 C93 C 0.71218 0.20580 0.41870
 C94 C 0.72997 0.22329 0.50153
 C95 C 0.70929 0.20809 0.58248
 C96 C 0.67271 0.17754 0.58046
 C97 C 0.76965 0.25640 0.50343
 C98 C 0.78957 0.27098 0.58604
 C99 C 0.82612 0.30200 0.58635
 C100 C 0.84374 0.31743 0.50456
 C101 C 0.82497 0.30459 0.42311
 C102 C 0.78806 0.27476 0.42215
 H103 H 0.62679 0.13967 0.49667
 H104 H 0.72666 0.21398 0.35494
 H105 H 0.72081 0.21909 0.64795
 H106 H 0.77748 0.25913 0.65063
 H107 H 0.87216 0.34115 0.50435
 H108 H 0.77428 0.26712 0.35756
 O109 O 0.95376 0.40828 0.17134
 O110 O 0.90908 0.41129 0.08405
 C111 C 0.91928 0.39774 0.15027
 O112 O 1.04799 0.57563 0.14960
 O113 O 1.09281 0.56903 0.07164
 C114 C 1.08253 0.58561 0.13047
 O115 O 0.94448 0.51349 0.16224
 O116 O 0.90440 0.46211 0.07760
 C117 C 0.91131 0.48632 0.14151
 O118 O 1.05792 0.46443 0.16486
 O119 O 1.09735 0.51649 0.08111
 C120 C 1.09082 0.49224 0.14482
 Zr121 Zr 1.00441 0.45079 0.11561
 O122 O 1.00766 0.45297 0.25824
 O123 O 1.00496 0.39944 0.11524
 Zr124 Zr 0.99723 0.52970 0.10364
 O125 O 0.99924 0.53968 0.24397
 O126 O 0.98839 0.57580 0.08232
 O127 O 0.96790 0.47203 0.12862
 O128 O 1.03290 0.50860 0.12671
 O129 O 1.05794 0.45887 -0.15447
 O130 O 1.09750 0.51330 -0.07856
 C131 C 1.09089 0.48702 -0.13666
 O132 O 0.94385 0.50822 -0.17676
 O133 O 0.90416 0.45933 -0.08495
 C134 C 0.91081 0.48167 -0.15283
 O135 O 1.04776 0.57025 -0.17062
 O136 O 1.09261 0.56574 -0.08750
 C137 C 1.08233 0.58056 -0.15092
 O138 O 0.95374 0.40271 -0.16099
 O139 O 0.90909 0.40865 -0.08057
 C140 C 0.91923 0.39304 -0.14230
 Zr141 Zr 1.00436 0.44652 -0.10818
 O142 O 1.00805 0.44201 -0.24956
 O143 O 1.00473 0.39549 -0.08982
 Zr144 Zr 0.99714 0.52542 -0.12012
 O145 O 1.00036 0.52824 -0.26266
 O146 O 0.98838 0.57212 -0.11800
 Zr147 Zr 0.94428 0.45636 -0.00149
 Zr148 Zr 1.05734 0.51990 -0.00293
 O149 O 1.03281 0.50369 -0.13200
 O150 O 0.96777 0.46708 -0.13229
 O151 O 1.03924 0.46196 0.00418
 O152 O 0.96318 0.51429 -0.00845
 O153 O 0.97141 0.42436 0.00485
 O154 O 1.03097 0.55286 -0.00954
 H155 H 1.04867 0.51840 0.18147
 H156 H 0.94392 0.52214 -0.01037
 H157 H 1.04853 0.51153 -0.18720
 H158 H 0.95557 0.39664 0.00734
 H159 H 1.01280 0.59777 0.06553
 H160 H 1.01164 0.59401 -0.09524
 H161 H 0.98633 0.50218 -0.28539
 H162 H 0.99200 0.45090 -0.27739
 H163 H 1.03003 0.40172 -0.06853
 H164 H 1.02930 0.40437 0.08978
 H165 H 0.98830 0.45871 0.28026
 H166 H 0.99997 0.51851 0.27371
 O167 O 0.43097 0.48759 0.16316
 O168 O 0.44192 0.53882 0.07783
 C169 C 0.42480 0.51469 0.14194
 O170 O 0.59340 0.53687 0.16484
 O171 O 0.58088 0.48458 0.08198
 C172 C 0.59860 0.50904 0.14506
 O173 O 0.54487 0.59287 0.17143
 O174 O 0.49713 0.58967 0.08414
 C175 C 0.52079 0.60332 0.15040
 O176 O 0.47277 0.42555 0.15241
 O177 O 0.52402 0.43196 0.07420
 C178 C 0.49734 0.41550 0.13344
 Zr179 Zr 0.46763 0.47134 0.10530
 O180 O 0.45986 0.46177 0.24581
 O181 O 0.41297 0.42513 0.08467
 Zr182 Zr 0.55329 0.55034 0.11591
 O183 O 0.55467 0.54847 0.25856
 O184 O 0.60485 0.60176 0.11472
 O185 O 0.49567 0.52908 0.12932
 O186 O 0.52433 0.49254 0.12799
 O187 O 0.47738 0.43011 -0.16788
 O188 O 0.52691 0.43489 -0.08505
 C189 C 0.50177 0.41992 -0.14807
 O190 O 0.55004 0.59762 -0.16150
 O191 O 0.49965 0.59193 -0.08076
 C192 C 0.52518 0.60732 -0.14287
 O193 O 0.59847 0.54153 -0.15432
 O194 O 0.58401 0.48734 -0.07734
 C195 C 0.60349 0.51345 -0.13595
 O196 O 0.43514 0.49210 -0.17552
 O197 O 0.44429 0.54128 -0.08468
 C198 C 0.42858 0.51874 -0.15217
 Zr199 Zr 0.47148 0.47512 -0.11854
 O200 O 0.47189 0.47204 -0.26104
 O201 O 0.41626 0.42844 -0.11596
 Zr202 Zr 0.55723 0.55402 -0.10794
 O203 O 0.56533 0.55833 -0.24935
 O204 O 0.60837 0.60508 -0.09016
 Zr205 Zr 0.48746 0.54444 -0.00104
 Zr206 Zr 0.53733 0.48092 -0.00148
 O207 O 0.52876 0.49680 -0.13082
 O208 O 0.50013 0.53341 -0.13167
 O209 O 0.47818 0.44794 -0.00753
 O210 O 0.54643 0.57648 0.00472
 O211 O 0.44875 0.48649 -0.00702
 O212 O 0.57687 0.53888 0.00467
 H213 H 0.53047 0.48290 0.18288
 H214 H 0.55813 0.60421 0.00687
 H215 H 0.53661 0.48882 -0.18588
 H216 H 0.42167 0.47861 -0.00889
 H217 H 0.62427 0.59684 0.08909
 H218 H 0.62754 0.59887 -0.06934
 H219 H 0.54035 0.54896 -0.27710
 H220 H 0.48340 0.49804 -0.28419
 H221 H 0.41770 0.40664 -0.09228
 H222 H 0.41554 0.40313 0.06844
 H223 H 0.48171 0.48298 0.27518
 H224 H 0.52961 0.54266 0.28081
 O225 O 0.40369 -0.04992 -0.15860
 O226 O 0.41183 -0.09329 -0.07848
 C227 C 0.39543 -0.08403 -0.14001
 O228 O 0.57073 0.05031 -0.16476
 O229 O 0.56389 0.09361 -0.08068
 C230 C 0.57977 0.08446 -0.14384
 O231 O 0.51241 -0.05401 -0.17367
 O232 O 0.46425 -0.09544 -0.08248
 C233 C 0.48697 -0.08764 -0.15018
 O234 O 0.45590 0.05423 -0.15200
 O235 O 0.50955 0.09542 -0.07570
 C236 C 0.48306 0.08773 -0.13411
 Zr237 Zr 0.44620 0.00147 -0.10626
 O238 O 0.44318 0.00514 -0.24818
 O239 O 0.39374 -0.00080 -0.09144
 Zr240 Zr 0.52743 -0.00149 -0.11525
 O241 O 0.53188 0.00191 -0.25750
 O242 O 0.57568 -0.00764 -0.10987
 O243 O 0.46922 -0.03308 -0.12936
 O244 O 0.50343 0.03218 -0.12822
 O245 O 0.46013 0.05397 0.16645
 O246 O 0.51188 0.09521 0.08413
 C247 C 0.48696 0.08744 0.14681
 O248 O 0.51629 -0.05393 0.16661
 O249 O 0.46628 -0.09544 0.08022
 C250 C 0.49036 -0.08757 0.14489
 O251 O 0.57451 0.05010 0.15689
 O252 O 0.56605 0.09351 0.07781
 C253 C 0.58317 0.08429 0.13766
 O254 O 0.40813 -0.05036 0.17281
 O255 O 0.41404 -0.09353 0.08611
 C256 C 0.39930 -0.08444 0.15194
 Zr257 Zr 0.44924 0.00125 0.11773
 O258 O 0.45051 0.00438 0.26038
 O259 O 0.39652 -0.00102 0.11561
 Zr260 Zr 0.53054 -0.00159 0.10864
 O261 O 0.53984 0.00031 0.24926
 O262 O 0.57847 -0.00752 0.08872
 Zr263 Zr 0.45873 -0.05675 0.00122
 Zr264 Zr 0.51800 0.05659 0.00126
 O265 O 0.50692 0.03198 0.13068
 O266 O 0.47283 -0.03319 0.13172
 O267 O 0.45953 0.03595 0.00644
 O268 O 0.51715 -0.03535 -0.00382
 O269 O 0.42454 -0.03197 0.00633
 O270 O 0.55318 0.03265 -0.00395
 H271 H 0.51096 0.04804 -0.18315
 H272 H 0.52614 -0.05373 -0.00557
 H273 H 0.51576 0.04774 0.18567
 H274 H 0.39693 -0.04875 0.00835
 H275 H 0.59700 0.01652 -0.08921
 H276 H 0.59977 0.01749 0.07296
 H277 H 0.51835 0.00064 0.27834
 H278 H 0.45761 -0.01394 0.28280
 H279 H 0.40040 0.02300 0.09054
 H280 H 0.39852 0.02361 -0.06690
 H281 H 0.45006 -0.01268 -0.27489
 H282 H 0.50603 -0.00930 -0.28129
 C283 C 1.11161 0.49391 0.30941
 C284 C 1.12988 0.46927 0.32085
 C285 C 1.16748 0.50490 0.34142
 C286 C 1.14923 0.52951 0.32974
 C287 C 1.17818 0.50945 0.24051
 C288 C 1.13996 0.47362 0.21935
 C289 C 1.12169 0.49824 0.20820
 C290 C 1.15930 0.53404 0.22802
 H291 H 1.08415 0.48765 0.33858
 H292 H 1.11764 0.44257 0.35950
 H293 H 1.15268 0.55169 0.37780
 H294 H 1.20579 0.51590 0.21215
 H295 H 1.13600 0.45064 0.17317
 H296 H 1.17115 0.56065 0.18916
 C297 C 0.54554 0.67367 0.21746
 C298 C 0.51138 0.67892 0.24077
 C299 C 0.51748 0.67449 0.34167
 C300 C 0.55151 0.66976 0.31910
 C301 C 0.49095 0.63177 0.33569
 C302 C 0.48488 0.63565 0.23414
 C303 C 0.51899 0.63098 0.21244
 C304 C 0.52493 0.62699 0.31352
 H305 H 0.56794 0.69061 0.16786
 H306 H 0.50583 0.70051 0.21105
 H307 H 0.57900 0.68382 0.35443
 H308 H 0.46899 0.61465 0.38605
 H309 H 0.45764 0.62152 0.19788
 H310 H 0.53038 0.60549 0.34430
 C311 C 0.36596 -0.15392 0.23161
 C312 C 0.37085 -0.14501 0.33384
 C313 C 0.32846 -0.15945 0.34225
 C314 C 0.32296 -0.16896 0.24080
 C315 C 0.33471 -0.11988 0.32316
 C316 C 0.37714 -0.10542 0.31512
 C317 C 0.37208 -0.11433 0.21353
 C318 C 0.32970 -0.12878 0.22113
 H319 H 0.37912 -0.16757 0.19309
 H320 H 0.38752 -0.15132 0.38243
 H321 H 0.30046 -0.19532 0.21047
 H322 H 0.32185 -0.10580 0.36121
 H323 H 0.39960 -0.07925 0.34635
 H324 H 0.31305 -0.12185 0.17385
 C325 C 0.88132 0.46994 0.30022
 C326 C 0.87599 0.50256 0.33309
 C327 C 0.83312 0.47615 0.33124
 C328 C 0.83840 0.44356 0.29791
 C329 C 0.83145 0.48774 0.23313
 C330 C 0.87472 0.51417 0.23475
 C331 C 0.88015 0.48159 0.20216
 C332 C 0.83733 0.45511 0.19883
 H333 H 0.90189 0.46244 0.32786
 H334 H 0.89203 0.52220 0.38863
 H335 H 0.82252 0.41446 0.32429
 H336 H 0.81070 0.49503 0.20589
 H337 H 0.88990 0.54332 0.20815
 H338 H 0.82175 0.43559 0.14276
 C339 C 0.46206 0.34877 0.22050
 C340 C 0.48718 0.33034 0.22864
 C341 C 0.49448 0.34242 0.32856
 C342 C 0.46943 0.36038 0.32079
 C343 C 0.52927 0.37974 0.30163
 C344 C 0.52207 0.36838 0.20095
 C345 C 0.49689 0.38627 0.19452
 C346 C 0.50428 0.39778 0.29462
 H347 H 0.43438 0.33614 0.18624
 H348 H 0.48004 0.30228 0.20205
 H349 H 0.44768 0.35718 0.37023
 H350 H 0.55681 0.39144 0.33578
 H351 H 0.54376 0.37194 0.15099
 H352 H 0.51163 0.42577 0.32227
 C353 C 0.59981 0.11076 0.29829
 C354 C 0.63714 0.11344 0.32655
 C355 C 0.65512 0.15645 0.33133
 C356 C 0.61786 0.15381 0.30252
 C357 C 0.66749 0.15999 0.23178
 C358 C 0.64908 0.11651 0.22671
 C359 C 0.61167 0.11372 0.19863
 C360 C 0.62953 0.15676 0.20209
 H361 H 0.57172 0.09050 0.32599
 H362 H 0.64017 0.09544 0.37800
 H363 H 0.60592 0.16998 0.33436
 H364 H 0.69559 0.18047 0.20478
 H365 H 0.66184 0.10103 0.19480
 H366 H 0.62614 0.17434 0.15016
 C367 C 0.45434 0.12736 -0.21507
 C368 C 0.48475 0.16942 -0.22804
 C369 C 0.48723 0.16157 -0.32892
 C370 C 0.45696 0.12014 -0.31654
 C371 C 0.51841 0.15220 -0.30824
 C372 C 0.51595 0.15939 -0.20666
 C373 C 0.48554 0.11790 -0.19532
 C374 C 0.48817 0.11076 -0.29645
 H375 H 0.42797 0.11701 -0.17578
 H376 H 0.48325 0.19374 -0.20014
 H377 H 0.43264 0.10386 -0.36195
 H378 H 0.54434 0.16271 -0.34879
 H379 H 0.54025 0.17529 -0.16098
 H380 H 0.48989 0.08667 -0.32523
 C381 C 0.61912 0.50421 -0.29738
 C382 C 0.65931 0.53483 -0.32199
 C383 C 0.67035 0.50419 -0.33061
 C384 C 0.63026 0.47365 -0.30526
 C385 C 0.68202 0.50902 -0.23037
 C386 C 0.67049 0.53979 -0.22126
 C387 C 0.63023 0.50923 -0.19695
 C388 C 0.64124 0.47851 -0.20430
 H389 H 0.59298 0.50193 -0.32551
 H390 H 0.66667 0.55814 -0.37042
 H391 H 0.61473 0.44642 -0.34068
 H392 H 0.70816 0.51109 -0.20309
 H393 H 0.68694 0.56703 -0.18576
 H394 H 0.63355 0.45535 -0.15528
 C395 C 0.89953 0.36962 -0.30491
 C396 C 0.88545 0.32726 -0.31318
 C397 C 0.84585 0.32065 -0.33346
 C398 C 0.85997 0.36303 -0.32474
 C399 C 0.83579 0.31504 -0.23223
 C400 C 0.87606 0.32214 -0.21110
 C401 C 0.89008 0.36449 -0.20351
 C402 C 0.85045 0.35794 -0.22306
 H403 H 0.92571 0.39229 -0.33570
 H404 H 0.89990 0.31464 -0.35064
 H405 H 0.85411 0.37978 -0.37401
 H406 H 0.80938 0.29231 -0.20256
 H407 H 0.88288 0.30556 -0.16332
 H408 H 0.83629 0.37083 -0.18555
 C409 C 0.51661 -0.12259 -0.24118
 C410 C 0.49164 -0.16599 -0.23797
 C411 C 0.47984 -0.16554 -0.33649
 C412 C 0.50486 -0.12245 -0.33981
 C413 C 0.44621 -0.16176 -0.30475
 C414 C 0.45794 -0.16161 -0.20515
 C415 C 0.48301 -0.11860 -0.21015
 C416 C 0.47117 -0.11860 -0.30853
 H417 H 0.54566 -0.10621 -0.21451
 H418 H 0.50002 -0.18572 -0.20923
 H419 H 0.52436 -0.10613 -0.39541
 H420 H 0.41737 -0.17926 -0.33125
 H421 H 0.43862 -0.17733 -0.14881
 H422 H 0.46264 -0.09900 -0.33748
 C423 C 0.38709 0.55165 -0.20830
 C424 C 0.39875 0.56227 -0.30836
 C425 C 0.36040 0.53004 -0.33878
 C426 C 0.34807 0.51938 -0.23983
 C427 C 0.37600 0.50275 -0.34085
 C428 C 0.41449 0.53505 -0.31091
 C429 C 0.40257 0.52433 -0.21208
 C430 C 0.36404 0.49213 -0.24179
 H431 H 0.39198 0.57171 -0.15275
 H432 H 0.41173 0.59114 -0.33607
 H433 H 0.32056 0.51301 -0.21094
 H434 H 0.37144 0.48242 -0.39557
 H435 H 0.44201 0.54155 -0.34011
 H436 H 0.34994 0.46319 -0.21389
 C437 C 1.15204 0.61831 -0.23095
 C438 C 1.14329 0.61145 -0.33312
 C439 C 1.15400 0.65280 -0.34525
 C440 C 1.16330 0.66032 -0.24390
 C441 C 1.11318 0.64301 -0.32730
 C442 C 1.10244 0.60159 -0.31536
 C443 C 1.11118 0.60864 -0.21377
 C444 C 1.12190 0.65004 -0.22537
 H445 H 1.16777 0.60784 -0.19073
 H446 H 1.15179 0.59621 -0.38065
 H447 H 1.18852 0.68466 -0.21448
 H448 H 1.09709 0.65310 -0.36739
 H449 H 1.07737 0.57722 -0.34533
 H450 H 1.11294 0.66573 -0.18027
 C451 C 0.88031 0.46496 -0.31108
 C452 C 0.83748 0.43790 -0.30800
 C453 C 0.83137 0.47019 -0.33889
 C454 C 0.87413 0.49731 -0.34150
 C455 C 0.82981 0.48112 -0.24015
 C456 C 0.83657 0.44880 -0.20813
 C457 C 0.87924 0.47597 -0.21246
 C458 C 0.87290 0.50821 -0.24265
 H459 H 0.90124 0.45824 -0.34012
 H460 H 0.82147 0.40899 -0.33525
 H461 H 0.88977 0.51748 -0.39657
 H462 H 0.80877 0.48769 -0.21135
 H463 H 0.82155 0.42890 -0.15221
 H464 H 0.88775 0.53721 -0.21520
 C465 C 0.53419 0.38257 -0.22805
 C466 C 0.50386 0.34049 -0.24077
 C467 C 0.50186 0.34800 -0.34205
 C468 C 0.53208 0.38941 -0.33015
 C469 C 0.47057 0.35745 -0.32383
 C470 C 0.47249 0.35045 -0.22195
 C471 C 0.50274 0.39190 -0.21061
 C472 C 0.50084 0.39894 -0.31214
 H473 H 0.56038 0.39321 -0.18797
 H474 H 0.50511 0.31626 -0.21142
 H475 H 0.55567 0.40481 -0.37779
 H476 H 0.44438 0.34718 -0.36375
 H477 H 0.44802 0.33464 -0.17661
 H478 H 0.49977 0.42320 -0.34206
 C479 C 0.59759 0.10951 -0.30596
 C480 C 0.61284 0.15212 -0.31302
 C481 C 0.65179 0.15759 -0.33547
 C482 C 0.63665 0.11504 -0.32800
 C483 C 0.66241 0.16270 -0.23460
 C484 C 0.62275 0.15665 -0.21117
 C485 C 0.60774 0.11406 -0.20496
 C486 C 0.64683 0.11967 -0.22681
 H487 H 0.57067 0.08757 -0.33548
 H488 H 0.60019 0.16630 -0.35082
 H489 H 0.64235 0.09784 -0.37649
 H490 H 0.68933 0.18482 -0.20568
 H491 H 0.61667 0.17344 -0.16232
 H492 H 0.66064 0.10612 -0.19058
 C493 C 1.13090 0.46043 -0.22396
 C494 C 1.12446 0.46588 -0.32426
 C495 C 1.16605 0.49625 -0.33314
 C496 C 1.17311 0.49092 -0.23337
 C497 C 1.15688 0.52699 -0.30634
 C498 C 1.11525 0.49671 -0.29816
 C499 C 1.12157 0.49120 -0.19816
 C500 C 1.16320 0.52163 -0.20582
 H501 H 1.12008 0.43302 -0.18905
 H502 H 1.10835 0.44284 -0.37305
 H503 H 1.19709 0.48843 -0.20702
 H504 H 1.16866 0.55439 -0.34113
 H505 H 1.09147 0.49941 -0.32528
 H506 H 1.17885 0.54454 -0.15644
 C507 C 0.52947 0.63073 -0.30582
 C508 C 0.49564 0.63576 -0.32733
 C509 C 0.52247 0.67840 -0.33549
 C510 C 0.55634 0.67339 -0.31361
 C511 C 0.51697 0.68357 -0.23462
 C512 C 0.49017 0.64043 -0.22602
 C513 C 0.52412 0.63545 -0.20476
 C514 C 0.55104 0.67806 -0.21181
 H515 H 0.53439 0.60878 -0.33599
 H516 H 0.47366 0.61842 -0.37720
 H517 H 0.58359 0.68696 -0.35011
 H518 H 0.51190 0.70557 -0.20549
 H519 H 0.46298 0.62668 -0.18936
 H520 H 0.57377 0.69519 -0.16320
 C521 C 0.37391 -0.10525 -0.30246
 C522 C 0.36542 -0.14569 -0.31838
 C523 C 0.32364 -0.15786 -0.33058
 C524 C 0.33214 -0.11739 -0.31411
 C525 C 0.31659 -0.16679 -0.22902
 C526 C 0.35896 -0.15407 -0.21629
 C527 C 0.36733 -0.11357 -0.20078
 C528 C 0.32554 -0.12568 -0.21185
 H529 H 0.39775 -0.07997 -0.33341
 H530 H 0.38152 -0.15345 -0.36509
 H531 H 0.32108 -0.10231 -0.35482
 H532 H 0.29266 -0.19237 -0.19949
 H533 H 0.37037 -0.16885 -0.17567
 H534 H 0.30938 -0.11722 -0.16693
 C535 C 0.52067 -0.12148 0.23849
 C536 C 0.50814 -0.12127 0.33646
 C537 C 0.48368 -0.16438 0.33374
 C538 C 0.49622 -0.16497 0.23596
 C539 C 0.44992 -0.16131 0.29967
 C540 C 0.47434 -0.11813 0.30284
 C541 C 0.48692 -0.11823 0.20513
 C542 C 0.46239 -0.16129 0.20087
 H543 H 0.54985 -0.10485 0.21268
 H544 H 0.52708 -0.10466 0.39255
 H545 H 0.50520 -0.18446 0.20877
 H546 H 0.42084 -0.17875 0.32509
 H547 H 0.46518 -0.09879 0.33029
 H548 H 0.44357 -0.17739 0.14418
 C549 C 0.41098 0.53075 0.30046
 C550 C 0.39446 0.55726 0.29844
 C551 C 0.35669 0.52466 0.33122
 C552 C 0.37311 0.49811 0.33279
 C553 C 0.34360 0.51339 0.23298
 C554 C 0.38204 0.54603 0.19919
 C555 C 0.39835 0.51942 0.20225
 C556 C 0.36041 0.48682 0.23430
 H557 H 0.43895 0.53805 0.32818
 H558 H 0.40753 0.58625 0.32545
 H559 H 0.36944 0.47829 0.38809
 H560 H 0.31566 0.50628 0.20565
 H561 H 0.38604 0.56571 0.14335
 H562 H 0.34656 0.45776 0.20723
 C563 C 1.10731 0.60300 0.29110
 C564 C 1.15028 0.62135 0.29762
 C565 C 1.15225 0.65840 0.32535
 C566 C 1.10930 0.64013 0.31810
 C567 C 1.15675 0.67078 0.22567
 C568 C 1.15414 0.63299 0.19714
 C569 C 1.11114 0.61480 0.19124
 C570 C 1.11326 0.65204 0.21805
 H571 H 1.08702 0.57486 0.31847
 H572 H 1.16645 0.60978 0.33106
 H573 H 1.09069 0.64300 0.36805
 H574 H 1.17731 0.69899 0.19938
 H575 H 1.17233 0.62977 0.14665
 H576 H 1.09789 0.66454 0.18439
 C577 C 0.52444 0.15723 0.22615
 C578 C 0.49638 0.17194 0.24070
 C579 C 0.49434 0.16227 0.34186
 C580 C 0.52235 0.14814 0.32818
 C581 C 0.46109 0.12267 0.32433
 C582 C 0.46297 0.13177 0.22266
 C583 C 0.49098 0.11762 0.20950
 C584 C 0.48912 0.10851 0.31092
 H585 H 0.55049 0.17113 0.18501
 H586 H 0.49940 0.19833 0.21226
 H587 H 0.54611 0.15472 0.37416
 H588 H 0.43502 0.10840 0.36535
 H589 H 0.43855 0.12484 0.17841
 H590 H 0.48627 0.08232 0.34031
 C591 C 0.61802 0.50742 0.30930
 C592 C 0.62032 0.47185 0.32904
 C593 C 0.66305 0.49644 0.34016
 C594 C 0.66082 0.53206 0.32017
 C595 C 0.66901 0.49201 0.23913
 C596 C 0.62568 0.46740 0.22723
 C597 C 0.62362 0.50319 0.20798
 C598 C 0.66638 0.52784 0.21853
 H599 H 0.59684 0.51364 0.33887
 H600 H 0.60195 0.44964 0.37736
 H601 H 0.67524 0.55867 0.35907
 H602 H 0.69023 0.48561 0.21072
 H603 H 0.61097 0.44083 0.18830
 H604 H 0.68515 0.55087 0.17223
 C605 C 0.89942 0.37418 0.31322
 C606 C 0.85998 0.36790 0.33364
 C607 C 0.84541 0.32543 0.33986
 C608 C 0.88484 0.33169 0.31903
 C609 C 0.83554 0.32075 0.23864
 C610 C 0.85065 0.36377 0.23175
 C611 C 0.89009 0.36988 0.21185
 C612 C 0.87557 0.32745 0.21714
 H613 H 0.92573 0.39635 0.34456
 H614 H 0.85386 0.38429 0.38357
 H615 H 0.89886 0.31840 0.35550
 H616 H 0.80898 0.29846 0.20862
 H617 H 0.83693 0.37721 0.19476
 H618 H 0.88226 0.31114 0.16821
   
