data_POSCAR
  _audit_creation_date              2014-09-24
  _audit_creation_method            'ToBaCCo'
  _symmetry_space_group_name_H-M    'P1'
  _symmetry_Int_Tables_number       1
  _symmetry_cell_setting            triclinic
  loop_
  _symmetry_equiv_pos_as_xyz
 x,y,z
_cell_length_a 30.8366
_cell_length_b 30.3906
_cell_length_c 30.9158
_cell_angle_alpha 89.641800
_cell_angle_beta 89.828100
_cell_angle_gamma 90.164600
loop_
  _atom_site_label
  _atom_site_type_symbol
  _atom_site_fract_x
  _atom_site_fract_y
  _atom_site_fract_z
C1 C 0.38310 0.25906 -0.06119
 C2 C 0.39432 0.23710 -0.02306
 C3 C 0.37270 0.24567 0.01624
 C4 C 0.33863 0.27705 0.01668
 C5 C 0.32679 0.29888 -0.02228
 C6 C 0.34880 0.28928 -0.06130
 C7 C 0.33736 0.31156 -0.09955
 C8 C 0.30621 0.34428 -0.09915
 C9 C 0.28517 0.35573 -0.06054
 C10 C 0.29460 0.33220 -0.02195
 C11 C 0.31692 0.28820 0.05514
 C12 C 0.28494 0.32089 0.05542
 C13 C 0.27375 0.34367 0.01727
 C14 C 0.24326 0.37849 0.01747
 C15 C 0.23501 0.40185 -0.02117
 C16 C 0.25627 0.39139 -0.05956
 H17 H 0.35305 0.30437 -0.13007
 H18 H 0.29911 0.36103 -0.12932
 H19 H 0.32490 0.27204 0.08539
 H20 H 0.26945 0.32870 0.08589
 H21 H 0.42183 0.21501 -0.02370
 H22 H 0.21377 0.43020 -0.02098
 C23 C 0.76088 0.61289 0.00966
 C24 C 0.76699 0.59394 -0.03129
 C25 C 0.73933 0.60394 -0.06570
 C26 C 0.70550 0.63433 -0.06005
 C27 C 0.69873 0.65356 -0.01895
 C28 C 0.72644 0.64288 0.01602
 C29 C 0.71863 0.66201 0.05671
 C30 C 0.68424 0.69128 0.06287
 C31 C 0.65640 0.70211 0.02863
 C32 C 0.66362 0.68283 -0.01269
 C33 C 0.67781 0.64535 -0.09452
 C34 C 0.64387 0.67469 -0.08869
 C35 C 0.63617 0.69333 -0.04810
 C36 C 0.60229 0.72321 -0.04219
 C37 C 0.59469 0.74056 -0.00125
 C38 C 0.62172 0.73199 0.03401
 H39 H 0.73927 0.65457 0.08406
 H40 H 0.67954 0.70543 0.09460
 H41 H 0.68235 0.63145 -0.12638
 H42 H 0.62339 0.68242 -0.11609
 H43 H 0.79201 0.56942 -0.03590
 H44 H 0.56728 0.76243 0.00261
 C45 C 0.61169 0.24587 0.98074
 C46 C 0.59156 0.23895 1.02113
 C47 C 0.60314 0.26388 1.05710
 C48 C 0.63623 0.29568 1.05358
 C49 C 0.65662 0.30325 1.01304
 C50 C 0.64439 0.27830 0.97651
 C51 C 0.66460 0.28694 0.93640
 C52 C 0.69627 0.31974 0.93223
 C53 C 0.70860 0.34496 0.96800
 C54 C 0.68847 0.33664 1.00887
 C55 C 0.64876 0.32074 1.08959
 C56 C 0.68056 0.35302 1.08576
 C57 C 0.70028 0.36159 1.04574
 C58 C 0.73222 0.39407 1.04161
 C59 C 0.75047 0.40283 1.00121
 C60 C 0.74049 0.37834 0.96449
 H61 H 0.65601 0.26835 0.90790
 H62 H 0.71103 0.32532 0.90083
 H63 H 0.63404 0.31547 1.12105
 H64 H 0.68932 0.37158 1.11424
 H65 H 0.56514 0.21554 1.02423
 H66 H 0.77364 0.42960 0.99886
 C67 C 0.24879 0.62892 0.98595
 C68 C 0.23944 0.60536 1.02440
 C69 C 0.26044 0.61503 1.06322
 C70 C 0.29076 0.64964 1.06480
 C71 C 0.30102 0.67376 1.02677
 C72 C 0.28011 0.66346 0.98716
 C73 C 0.29186 0.68739 0.94979
 C74 C 0.32392 0.72026 0.95122
 C75 C 0.34555 0.73021 0.99004
 C76 C 0.33381 0.70681 1.02815
 C77 C 0.31231 0.65947 1.10359
 C78 C 0.34458 0.69129 1.10479
 C79 C 0.35629 0.71483 1.06734
 C80 C 0.39095 0.74511 1.06811
 C81 C 0.40138 0.76907 1.03086
 C82 C 0.37926 0.76217 0.99165
 H83 H 0.27650 0.68061 0.91908
 H84 H 0.33201 0.73758 0.92155
 H85 H 0.30480 0.64208 1.13338
 H86 H 0.36061 0.69711 1.13536
 H87 H 0.21731 0.57761 1.02378
 H88 H 0.42886 0.79136 1.03184
 C89 C 0.01982 0.24913 0.38211
 C90 C -0.01951 0.24353 0.40498
 C91 C -0.05757 0.26370 0.39116
 C92 C -0.05752 0.28866 0.35286
 C93 C -0.01804 0.29648 0.33045
 C94 C 0.02103 0.27734 0.34550
 C95 C 0.06000 0.28719 0.32369
 C96 C 0.06064 0.31647 0.28846
 C97 C 0.02215 0.33585 0.27326
 C98 C -0.01759 0.32490 0.29393
 C99 C -0.09611 0.30718 0.33730
 C100 C -0.09580 0.33416 0.30109
 C101 C -0.05677 0.34416 0.27960
 C102 C -0.05614 0.37436 0.24514
 C103 C -0.01726 0.38505 0.22481
 C104 C 0.02231 0.36694 0.23888
 H105 H 0.09036 0.27301 0.33433
 H106 H 0.09147 0.32387 0.27318
 H107 H -0.12690 0.30110 0.35322
 H108 H -0.12641 0.34784 0.29055
 H109 H -0.02021 0.22452 0.43476
 H110 H -0.01779 0.40986 0.19949
 C111 C 0.01915 0.63211 0.75771
 C112 C -0.01994 0.60930 0.76589
 C113 C -0.05836 0.62112 0.74523
 C114 C -0.05905 0.65765 0.71717
 C115 C -0.02008 0.68043 0.70747
 C116 C 0.01929 0.66749 0.72750
 C117 C 0.05782 0.68949 0.71580
 C118 C 0.05775 0.72275 0.68420
 C119 C 0.01908 0.73546 0.66358
 C120 C -0.02024 0.71456 0.67585
 C121 C -0.09780 0.67058 0.69704
 C122 C -0.09805 0.70424 0.66657
 C123 C -0.05948 0.72598 0.65483
 C124 C -0.05925 0.75767 0.62141
 C125 C -0.02063 0.77863 0.60996
 C126 C 0.01880 0.76769 0.63025
 H127 H 0.08840 0.68059 0.73053
 H128 H 0.08829 0.73831 0.67577
 H129 H -0.12827 0.65434 0.70441
 H130 H -0.12870 0.71258 0.65166
 H131 H -0.02011 0.58036 0.78655
 H132 H -0.02096 0.80163 0.58303
 C133 C 1.04041 0.71905 0.40633
 C134 C 0.99970 0.73660 0.41536
 C135 C 0.96302 0.72692 0.39051
 C136 C 0.96681 0.69597 0.35690
 C137 C 1.00804 0.67680 0.34811
 C138 C 1.04480 0.68818 0.37327
 C139 C 1.08530 0.66968 0.36389
 C140 C 1.08990 0.64019 0.33005
 C141 C 1.05419 0.62873 0.30426
 C142 C 1.01293 0.64723 0.31330
 C143 C 0.93118 0.68448 0.33125
 C144 C 0.93594 0.65480 0.29725
 C145 C 0.97656 0.63612 0.28772
 C146 C 0.98174 0.60671 0.25308
 C147 C 1.02292 0.58855 0.24453
 C148 C 1.05878 0.59894 0.26984
 H149 H 1.11371 0.67794 0.38273
 H150 H 1.12179 0.62671 0.32394
 H151 H 0.89951 0.69854 0.33725
 H152 H 0.90762 0.64691 0.27815
 H153 H 0.99694 0.75954 0.44192
 H154 H 1.02690 0.56462 0.21898
 C155 C 1.05541 0.25881 0.61469
 C156 C 1.01395 0.24305 0.60424
 C157 C 0.97637 0.25704 0.62515
 C158 C 0.97999 0.28869 0.65787
 C159 C 1.02142 0.30653 0.66837
 C160 C 1.05931 0.29207 0.64624
 C161 C 1.09950 0.31111 0.65647
 C162 C 1.10245 0.34435 0.68756
 C163 C 1.06542 0.35889 0.71012
 C164 C 1.02472 0.33926 0.70076
 C165 C 0.94311 0.30305 0.68013
 C166 C 0.94655 0.33455 0.71231
 C167 C 0.98693 0.35318 0.72287
 C168 C 0.98981 0.38597 0.75461
 C169 C 1.03013 0.40552 0.76357
 C170 C 1.06766 0.39302 0.74124
 H171 H 1.12879 0.30069 0.64010
 H172 H 1.13403 0.35847 0.69408
 H173 H 0.91131 0.28983 0.67291
 H174 H 0.91709 0.34443 0.72869
 H175 H 1.01089 0.21986 0.57800
 H176 H 1.03201 0.43230 0.78649
 C177 C 0.25238 -0.06539 0.37642
 C178 C 0.23190 -0.02642 0.38798
 C179 C 0.24336 0.01424 0.36871
 C180 C 0.27604 0.01518 0.33633
 C181 C 0.29673 -0.02462 0.32421
 C182 C 0.28479 -0.06488 0.34441
 C183 C 0.30637 -0.10380 0.33304
 C184 C 0.34014 -0.10307 0.30339
 C185 C 0.35310 -0.06352 0.28348
 C186 C 0.33061 -0.02412 0.29303
 C187 C 0.28884 0.05462 0.31595
 C188 C 0.32168 0.05495 0.28449
 C189 C 0.34323 0.01594 0.27291
 C190 C 0.37772 0.01599 0.24250
 C191 C 0.40044 -0.02335 0.23455
 C192 C 0.38909 -0.06248 0.25547
 H193 H 0.29776 -0.13515 0.34757
 H194 H 0.35619 -0.13384 0.29623
 H195 H 0.27350 0.08546 0.32423
 H196 H 0.33052 0.08611 0.26969
 H197 H 0.20818 -0.02762 0.41390
 H198 H 0.42877 -0.02317 0.21372
 C199 C 0.61955 0.01952 0.76129
 C200 C 0.60365 -0.02232 0.77269
 C201 C 0.61646 -0.05970 0.75021
 C202 C 0.64634 -0.05611 0.71578
 C203 C 0.66319 -0.01419 0.70434
 C204 C 0.65004 0.02370 0.72739
 C205 C 0.66694 0.06506 0.71539
 C206 C 0.69636 0.06916 0.68122
 C207 C 0.70927 0.03213 0.65765
 C208 C 0.69234 -0.01001 0.66908
 C209 C 0.65917 -0.09327 0.69203
 C210 C 0.68787 -0.08925 0.65734
 C211 C 0.70452 -0.04799 0.64531
 C212 C 0.73364 -0.04354 0.61053
 C213 C 0.74926 -0.00179 0.59949
 C214 C 0.73872 0.03588 0.62291
 H215 H 0.65762 0.09456 0.73250
 H216 H 0.70875 0.10158 0.67315
 H217 H 0.64696 -0.12575 0.70011
 H218 H 0.69687 -0.11863 0.63985
 H219 H 0.57944 -0.02579 0.79798
 H220 H 0.77023 0.00126 0.57147
 C221 C 0.39195 0.97902 0.74433
 C222 C 0.40737 1.02132 0.75489
 C223 C 0.39529 1.05831 0.73091
 C224 C 0.36642 1.05387 0.69607
 C225 C 0.35149 1.01144 0.68445
 C226 C 0.36419 0.97391 0.70868
 C227 C 0.34885 0.93210 0.69671
 C228 C 0.32156 0.92718 0.66120
 C229 C 0.30926 0.96387 0.63652
 C230 C 0.32419 1.00650 0.64822
 C231 C 0.35256 1.09085 0.67225
 C232 C 0.32450 1.08620 0.63741
 C233 C 0.31052 1.04439 0.62469
 C234 C 0.28244 1.03923 0.58950
 C235 C 0.27165 0.99689 0.57621
 C236 C 0.28165 0.95955 0.60080
 H237 H 0.35781 0.90290 0.71480
 H238 H 0.31038 0.89448 0.65296
 H239 H 0.36308 1.12372 0.68067
 H240 H 0.31435 1.11543 0.62000
 H241 H 0.43045 1.02547 0.78094
 H242 H 0.25150 0.99327 0.54776
 C243 C 0.74118 1.07099 0.38831
 C244 C 0.76371 1.03273 0.39972
 C245 C 0.75575 0.99250 0.37863
 C246 C 0.72453 0.99096 0.34506
 C247 C 0.70235 1.02986 0.33260
 C248 C 0.71102 1.06996 0.35412
 C249 C 0.68820 1.10804 0.34192
 C250 C 0.65663 1.10658 0.30997
 C251 C 0.64664 1.06699 0.28896
 C252 C 0.67001 1.02836 0.29989
 C253 C 0.71435 0.95132 0.32408
 C254 C 0.68250 0.94981 0.29196
 C255 C 0.65973 0.98790 0.27964
 C256 C 0.62634 0.98638 0.24828
 C257 C 0.60353 1.02523 0.23797
 C258 C 0.61282 1.06500 0.25836
 H259 H 0.69436 1.13933 0.35735
 H260 H 0.63975 1.13677 0.30208
 H261 H 0.73079 0.92106 0.33263
 H262 H 0.67559 0.91845 0.27700
 H263 H 0.78578 1.03378 0.42691
 H264 H 0.57650 1.02411 0.21568
 O265 O 0.91257 0.84853 0.45587
 O266 O 0.85121 0.90169 0.54011
 O267 O 0.89235 0.82925 0.53649
 O268 O 0.86155 0.91829 0.46012
 O269 O 0.80433 0.87974 0.44010
 O270 O 0.83034 0.79584 0.52189
 O271 O 0.79107 0.86723 0.52083
 O272 O 0.85772 0.80470 0.44060
 Cu273 Cu 0.88558 0.87776 0.49900
 Cu274 Cu 0.81620 0.83255 0.47670
 C275 C 0.89738 0.81576 0.43621
 C276 C 0.81107 0.89476 0.54463
 C277 C 0.86506 0.79843 0.54357
 C278 C 0.82645 0.91506 0.43887
 O279 O 0.07653 0.13368 0.46080
 O280 O 0.15314 0.07891 0.53153
 O281 O 0.09537 0.13761 0.54133
 O282 O 0.13446 0.07255 0.45160
 O283 O 0.18640 0.12100 0.43827
 O284 O 0.14180 0.19137 0.52736
 O285 O 0.20281 0.13030 0.52000
 O286 O 0.12523 0.18460 0.44438
 Cu287 Cu 0.11000 0.10083 0.49746
 Cu288 Cu 0.16900 0.16229 0.48059
 C289 C 0.08703 0.16887 0.44138
 C290 C 0.19072 0.09436 0.53763
 C291 C 0.11044 0.17538 0.54936
 C292 C 0.16841 0.08386 0.43138
 O293 O 0.17664 0.88569 0.45548
 O294 O 0.09176 0.86360 0.53702
 O295 O 0.16283 0.90920 0.53488
 O296 O 0.10366 0.84387 0.45811
 O297 O 0.13528 0.78328 0.48221
 O298 O 0.20352 0.85268 0.55407
 O299 O 0.12918 0.80706 0.56206
 O300 O 0.20909 0.82396 0.47497
 Cu301 Cu 0.13051 0.88176 0.49448
 Cu302 Cu 0.17315 0.81088 0.52111
 C303 C 0.20680 0.85767 0.45075
 C304 C 0.09537 0.83082 0.56237
 C305 C 0.19424 0.89339 0.55579
 C306 C 0.10770 0.80256 0.45810
 O307 O 0.90202 0.16259 0.53533
 O308 O 0.81543 0.13237 0.45990
 O309 O 0.87630 0.19283 0.46190
 O310 O 0.83859 0.10572 0.53565
 O311 O 0.79449 0.15176 0.56886
 O312 O 0.83245 0.23933 0.49491
 O313 O 0.77217 0.17973 0.49245
 O314 O 0.85958 0.21021 0.56855
 Cu315 Cu 0.86249 0.14358 0.49519
 Cu316 Cu 0.81024 0.19979 0.53485
 C317 C 0.89643 0.19228 0.56334
 C318 C 0.77879 0.15087 0.46357
 C319 C 0.86091 0.23128 0.46636
 C320 C 0.80935 0.11331 0.56352
 O321 O 0.47247 0.92446 0.85689
 O322 O 0.54936 0.84999 0.90289
 O323 O 0.54518 0.88986 0.83065
 O324 O 0.46905 0.86486 0.92069
 O325 O 0.43971 0.81231 0.88143
 O326 O 0.52100 0.83064 0.79731
 O327 O 0.51974 0.79250 0.87060
 O328 O 0.44687 0.87228 0.81454
 Cu329 Cu 0.51045 0.88754 0.88120
 Cu330 Cu 0.47754 0.82254 0.83664
 C331 C 0.44854 0.91254 0.82629
 C332 C 0.54749 0.80916 0.89647
 C333 C 0.54703 0.86271 0.79935
 C334 C 0.44272 0.83272 0.91684
 O335 O 0.53958 0.18510 0.11959
 O336 O 0.47066 0.09031 0.14810
 O337 O 0.46945 0.15230 0.08769
 O338 O 0.54162 0.12300 0.17871
 O339 O 0.50261 0.16596 0.22101
 O340 O 0.43032 0.19504 0.13001
 O341 O 0.43140 0.13207 0.19127
 O342 O 0.50069 0.22694 0.16311
 Cu343 Cu 0.50884 0.13330 0.12904
 Cu344 Cu 0.46174 0.18392 0.18052
 C345 C 0.53175 0.22221 0.13659
 C346 C 0.44063 0.09461 0.17583
 C347 C 0.43903 0.17987 0.09277
 C348 C 0.53425 0.13987 0.21551
 O349 O 0.44861 0.18128 0.87724
 O350 O 0.51883 0.08764 0.85138
 O351 O 0.51705 0.14857 0.91149
 O352 O 0.45051 0.12178 0.81615
 O353 O 0.49051 0.16707 0.77639
 O354 O 0.55806 0.19185 0.87067
 O355 O 0.55909 0.13079 0.80969
 O356 O 0.48963 0.22464 0.83638
 Cu357 Cu 0.47982 0.13017 0.86814
 Cu358 Cu 0.52905 0.18258 0.81924
 C359 C 0.45760 0.21899 0.86161
 C360 C 0.54997 0.09302 0.82506
 C361 C 0.54767 0.17626 0.90748
 C362 C 0.45911 0.14034 0.78012
 O363 O 0.46575 0.81853 0.12457
 O364 O 0.53848 0.90956 0.15270
 O365 O 0.54287 0.84063 0.10078
 O366 O 0.46665 0.87797 0.18496
 O367 O 0.49861 0.83233 0.23075
 O368 O 0.57456 0.79540 0.14699
 O369 O 0.57181 0.86817 0.20105
 O370 O 0.49855 0.77584 0.17243
 Cu371 Cu 0.50081 0.86629 0.13604
 Cu372 Cu 0.54085 0.81530 0.19241
 C373 C 0.46949 0.78175 0.14379
 C374 C 0.56584 0.90535 0.18279
 C375 C 0.56968 0.80992 0.10883
 C376 C 0.46951 0.86045 0.22237
 O377 O 0.87882 0.54519 0.81639
 O378 O 0.84372 0.46588 0.90003
 O379 O 0.91283 0.47549 0.85036
 O380 O 0.81697 0.54159 0.87426
 O381 O 0.77888 0.50559 0.82533
 O382 O 0.87538 0.43831 0.80186
 O383 O 0.80464 0.42911 0.85257
 O384 O 0.84025 0.50770 0.76895
 Cu385 Cu 0.86696 0.51030 0.86514
 Cu386 Cu 0.82120 0.46575 0.80752
 C387 C 0.86502 0.53959 0.77806
 C388 C 0.81653 0.43575 0.89114
 C389 C 0.91107 0.44712 0.82074
 C390 C 0.78177 0.53507 0.85417
 O391 O 0.15181 0.47390 0.09172
 O392 O 0.12294 0.54132 0.18626
 O393 O 0.18243 0.54491 0.12458
 O394 O 0.09262 0.46999 0.15229
 O395 O 0.13568 0.43009 0.19382
 O396 O 0.22586 0.50460 0.16540
 O397 O 0.16787 0.50185 0.22617
 O398 O 0.19539 0.43332 0.13208
 Cu399 Cu 0.13289 0.51144 0.13469
 Cu400 Cu 0.18545 0.46319 0.18344
 C401 C 0.17937 0.44321 0.09549
 C402 C 0.14056 0.53280 0.22247
 C403 C 0.21978 0.53681 0.13983
 C404 C 0.09844 0.43824 0.17840
 O405 O 0.89753 0.45237 0.16581
 O406 O 0.87009 0.52742 0.07495
 O407 O 0.92964 0.52705 0.13897
 O408 O 0.85726 0.44602 0.09614
 O409 O 0.80048 0.47591 0.12856
 O410 O 0.87812 0.55196 0.18200
 O411 O 0.81882 0.55659 0.11550
 O412 O 0.83895 0.47590 0.19985
 Cu413 Cu 0.89402 0.48728 0.11514
 Cu414 Cu 0.82995 0.51969 0.16082
 C415 C 0.87076 0.45001 0.19733
 C416 C 0.83785 0.55314 0.07938
 C417 C 0.91770 0.55099 0.16977
 C418 C 0.81704 0.44734 0.10332
 O419 O 0.15237 0.53735 0.91149
 O420 O 0.12374 0.46402 0.82033
 O421 O 0.18163 0.46420 0.88169
 O422 O 0.09038 0.53593 0.85153
 O423 O 0.13306 0.57435 0.80809
 O424 O 0.22493 0.50298 0.83881
 O425 O 0.17075 0.50029 0.77937
 O426 O 0.19825 0.57437 0.87000
 Cu427 Cu 0.13226 0.49719 0.87059
 Cu428 Cu 0.18421 0.54348 0.81968
 C429 C 0.18180 0.56645 0.90703
 C430 C 0.14351 0.46918 0.78444
 C431 C 0.21882 0.47140 0.86526
 C432 C 0.09564 0.56597 0.82341
 N433 N 0.22484 0.39390 0.05738
 N434 N 0.19472 0.42247 0.05719
 N435 N 0.78518 0.59702 0.04609
 N436 N 0.81963 0.57430 0.04230
 N437 N 0.76165 0.39034 0.92436
 N438 N 0.79632 0.41328 0.92641
 N439 N 0.23011 0.61434 0.94553
 N440 N 0.19851 0.58707 0.94522
 N441 N 0.05811 0.22737 0.39783
 N442 N 0.05344 0.19177 0.41920
 N443 N 0.05866 0.78430 0.61221
 N444 N 0.05867 0.81811 0.58769
 N445 N 0.92352 0.75016 0.40046
 N446 N 0.92826 0.78936 0.41403
 N447 N 0.93492 0.24114 0.61021
 N448 N 0.93375 0.20752 0.58584
 N449 N 0.39302 0.05642 0.22337
 N450 N 0.42000 0.05588 0.19213
 N451 N 0.60086 0.05805 0.78026
 N452 N 0.57257 0.05528 0.81016
 N453 N 0.40763 0.94120 0.76749
 N454 N 0.42672 0.94647 0.80336
 N455 N 0.61193 0.94501 0.23072
 N456 N 0.58667 0.94424 0.19823
 N457 N 0.40834 0.25612 0.90485
 N458 N 0.43207 0.25609 0.87279
 N459 N 0.57830 0.74143 0.92242
 N460 N 0.57456 0.78298 0.92293
 N461 N 0.41680 0.74694 0.10177
 N462 N 0.44110 0.74616 0.13339
 N463 N 0.57991 0.26071 0.09251
 N464 N 0.55759 0.25958 0.12559
 N465 N 0.25918 0.07526 0.57028
 N466 N 0.21955 0.06758 0.56181
 N467 N 0.74420 0.10608 0.41273
 N468 N 0.74401 0.13936 0.43540
 N469 N 0.74978 0.91966 0.58642
 N470 N 0.78906 0.92247 0.57413
 N471 N 0.24415 0.89837 0.39816
 N472 N 0.23896 0.86347 0.41799
 N473 N 0.10309 0.41660 0.74624
 N474 N 0.13594 0.43972 0.74914
 N475 N 0.09541 0.57797 0.26365
 N476 N 0.12982 0.55775 0.26000
 N477 N 0.90904 0.39690 0.23602
 N478 N 0.87546 0.41781 0.23049
 N479 N 0.90841 0.59420 0.74647
 N480 N 0.87710 0.56911 0.74415
 N481 N 0.74267 0.58183 0.89821
 N482 N 0.74450 0.56051 0.86452
 N483 N 0.25404 0.41857 0.90742
 N484 N 0.25472 0.44418 0.87638
 N485 N 0.25639 0.58829 0.09647
 N486 N 0.25607 0.56352 0.12818
 N487 N 0.75018 0.41680 0.07778
 N488 N 0.79123 0.41933 0.07771
 N489 N 0.90602 0.76364 0.59773
 N490 N 0.87240 0.76614 0.57644
 N491 N 0.90820 0.26367 0.41640
 N492 N 0.87580 0.26655 0.43961
 N493 N 0.09157 0.24025 0.59136
 N494 N 0.08680 0.20021 0.58033
 N495 N 0.07715 0.73714 0.42823
 N496 N 0.07753 0.77859 0.43299
 N497 N 0.59722 0.90289 0.75893
 N498 N 0.57848 0.86775 0.76575
 N499 N 0.41546 0.90379 0.25394
 N500 N 0.43986 0.87182 0.25592
 N501 N 0.58637 0.09847 0.25329
 N502 N 0.56142 0.13011 0.25172
 N503 N 0.41460 0.09596 0.73815
 N504 N 0.43358 0.13129 0.74286
 N505 N 0.61186 0.75343 0.07440
 N506 N 0.58996 0.78900 0.07293
 N507 N 0.38900 0.22668 0.05591
 N508 N 0.41727 0.19613 0.05511
 N509 N 0.59534 0.22419 0.94302
 N510 N 0.56786 0.19296 0.94541
 N511 N 0.39540 0.78294 0.95277
 N512 N 0.42022 0.81656 0.95423
 N513 N 0.77525 0.95262 0.39491
 N514 N 0.81005 0.95327 0.41706
 N515 N 0.25936 0.91941 0.59041
 N516 N 0.22066 0.92447 0.57726
 N517 N 0.22452 0.05394 0.38584
 N518 N 0.18803 0.05102 0.40501
 N519 N 0.75718 0.07730 0.60925
 N520 N 0.79105 0.07650 0.58558
 N521 N 0.94488 0.59197 0.22891
 N522 N 0.95083 0.57301 0.19296
 N523 N 0.95072 0.40246 0.77371
 N524 N 0.95052 0.42777 0.80621
 N525 N 0.05894 0.61590 0.77628
 N526 N 0.05802 0.58771 0.80698
 N527 N 0.06229 0.38502 0.22239
 N528 N 0.06138 0.41413 0.19261
   
