data_POSCAR
  _audit_creation_date              2014-09-24
  _audit_creation_method            'ToBaCCo'
  _symmetry_space_group_name_H-M    'P1'
  _symmetry_Int_Tables_number       1
  _symmetry_cell_setting            triclinic
  loop_
  _symmetry_equiv_pos_as_xyz
 x,y,z
_cell_length_a 31.1195
_cell_length_b 31.0255
_cell_length_c 45.2397
_cell_angle_alpha 89.977600
_cell_angle_beta 89.721800
_cell_angle_gamma 116.394300
loop_
  _atom_site_label
  _atom_site_type_symbol
  _atom_site_fract_x
  _atom_site_fract_y
  _atom_site_fract_z
C1 C -0.02566 0.46489 1.21619
 C2 C 0.02469 0.49244 1.21638
 C3 C 0.04951 0.50292 1.24326
 C4 C 0.02559 0.48668 1.27058
 C5 C -0.02550 0.46090 1.27058
 C6 C -0.04967 0.44869 1.24334
 H7 H -0.08847 0.43005 1.24368
 H8 H 0.08832 0.52036 1.24231
 C9 C 0.48044 0.49561 1.27947
 C10 C 0.52431 0.49178 1.27784
 C11 C 0.54489 0.49348 1.24986
 C12 C 0.52214 0.49660 1.22383
 C13 C 0.47905 0.50105 1.22575
 C14 C 0.45812 0.49917 1.25340
 H15 H 0.42512 0.50294 1.25472
 H16 H 0.57808 0.49015 1.24811
 C17 C 0.47628 0.98255 1.27989
 C18 C 0.51479 1.02926 1.28388
 C19 C 0.54217 1.05362 1.25872
 C20 C 0.53198 1.03336 1.23019
 C21 C 0.49587 0.98529 1.22715
 C22 C 0.46760 0.96150 1.25174
 H23 H 0.44021 0.92472 1.24936
 H24 H 0.56940 1.09043 1.26066
 C25 C 0.98793 0.48253 0.72867
 C26 C 1.03445 0.52162 0.72855
 C27 C 1.05677 0.54038 0.75567
 C28 C 1.03441 0.52081 0.78305
 C29 C 0.98742 0.48232 0.78275
 C30 C 0.96531 0.46348 0.75569
 H31 H 0.92978 0.43335 0.75568
 H32 H 1.09160 0.57128 0.75502
 C33 C 0.49940 0.47450 0.72296
 C34 C 0.46580 0.49348 0.72599
 C35 C 0.46119 0.51255 0.75329
 C36 C 0.48975 0.51382 0.77760
 C37 C 0.52198 0.49320 0.77489
 C38 C 0.52691 0.47452 0.74756
 H39 H 0.55129 0.45828 0.74576
 H40 H 0.43692 0.52892 0.75509
 C41 C 0.43155 -0.02382 0.77024
 C42 C 0.46539 0.02541 0.77071
 C43 C 0.48572 0.04897 0.74411
 C44 C 0.47314 0.02497 0.71699
 C45 C 0.43915 -0.02403 0.71615
 C46 C 0.41762 -0.04711 0.74285
 H47 H 0.39293 -0.08502 0.74295
 H48 H 0.50967 0.08718 0.74436
 O49 O 0.41397 0.68585 0.96739
 O50 O 0.41218 0.76928 0.97321
 C51 C 0.38116 0.77391 0.95720
 O52 O 0.33653 0.75104 0.96191
 O53 O 0.25849 0.67324 0.97356
 C54 C 0.25657 0.63550 0.96124
 O55 O 0.27963 0.61332 0.97039
 O56 O 0.36072 0.61321 0.98292
 C57 C 0.39285 0.64031 0.96493
 O58 O 0.41881 0.67949 1.02684
 O59 O 0.41056 0.75951 1.03236
 C60 C 0.38444 0.78100 1.03634
 O61 O 0.34870 0.77430 1.02007
 O62 O 0.27277 0.69565 1.03197
 C63 C 0.25394 0.65245 1.04065
 O64 O 0.26205 0.61996 1.02837
 O65 O 0.34596 0.62480 1.04052
 C66 C 0.39089 0.64692 1.04430
 Cr67 Cr 0.41151 0.72232 0.99996
 Cr68 Cr 0.30545 0.72228 0.99699
 Cr69 Cr 0.31307 0.62027 1.00542
 O70 O 0.34323 0.68835 1.00084
 O71 O 0.58549 0.32973 0.97805
 O72 O 0.59512 0.25370 0.96149
 C73 C 0.62064 0.23314 0.95372
 O74 O 0.65693 0.23636 0.96818
 O75 O 0.73338 0.31864 0.96285
 C76 C 0.75102 0.36387 0.95916
 O77 O 0.74149 0.39135 0.97593
 O78 O 0.65791 0.38950 0.96925
 C79 C 0.61333 0.36753 0.96420
 O80 O 0.58954 0.30555 1.03482
 O81 O 0.59279 0.22662 1.01804
 C82 C 0.62351 0.21939 1.03279
 O83 O 0.66821 0.24244 1.02808
 O84 O 0.74581 0.32217 1.02197
 C85 C 0.74906 0.35595 1.03897
 O86 O 0.72618 0.38061 1.03501
 O87 O 0.64346 0.38223 1.02870
 C88 C 0.60938 0.34910 1.04299
 Cr89 Cr 0.59329 0.28026 0.99810
 Cr90 Cr 0.69964 0.28109 0.99534
 Cr91 Cr 0.69120 0.38341 1.00211
 O92 O 0.66158 0.31504 0.99839
 O93 O 0.68716 0.41371 0.52949
 O94 O 0.77212 0.41879 0.52127
 C95 C 0.78252 0.39306 0.53901
 O96 O 0.76478 0.34762 0.53706
 O97 O 0.69355 0.26207 0.53148
 C98 C 0.65556 0.25438 0.54555
 O99 O 0.62837 0.27296 0.53838
 O100 O 0.61599 0.34850 0.52725
 C101 C 0.64449 0.38891 0.53843
 O102 O 0.67037 0.40503 0.47100
 O103 O 0.75319 0.40502 0.46271
 C104 C 0.78118 0.38553 0.46066
 O105 O 0.77995 0.35340 0.47843
 O106 O 0.70419 0.27038 0.47231
 C107 C 0.66002 0.24737 0.46591
 O108 O 0.62668 0.25259 0.47968
 O109 O 0.61504 0.32878 0.46869
 C110 C 0.63313 0.37178 0.45977
 Cr111 Cr 0.71962 0.40798 0.49629
 Cr112 Cr 0.73390 0.30944 0.50466
 Cr113 Cr 0.62421 0.30213 0.50342
 O114 O 0.69230 0.33978 0.50144
 O115 O 0.32257 0.59007 0.53051
 O116 O 0.23814 0.58189 0.51607
 C117 C 0.22312 0.60793 0.53022
 O118 O 0.23828 0.65267 0.52545
 O119 O 0.31058 0.73766 0.52389
 C120 C 0.34391 0.74372 0.54192
 O121 O 0.37372 0.72659 0.53805
 O122 O 0.39321 0.65448 0.52664
 C123 C 0.36555 0.61484 0.53863
 O124 O 0.34835 0.59892 0.47252
 O125 O 0.26453 0.59290 0.45843
 C126 C 0.24059 0.61508 0.45070
 O127 O 0.23903 0.64898 0.46557
 O128 O 0.31377 0.73255 0.46401
 C129 C 0.35882 0.75838 0.46325
 O130 O 0.38720 0.75246 0.48091
 O131 O 0.40072 0.67686 0.46919
 C132 C 0.38510 0.63339 0.46109
 Cr133 Cr 0.29433 0.59360 0.49449
 Cr134 Cr 0.27694 0.69176 0.49482
 Cr135 Cr 0.38606 0.70108 0.50348
 O136 O 0.31896 0.66202 0.49751
 C137 C 0.45874 0.50138 0.30729
 C138 C 0.48454 0.53805 0.32709
 C139 C 0.46149 0.54744 0.35303
 N140 N 0.48452 0.58896 0.36838
 N141 N 0.46324 0.59856 0.39133
 C142 C 0.41826 0.56683 0.39984
 N143 N 0.39552 0.52505 0.38473
 N144 N 0.41668 0.51558 0.36169
 C145 C 0.39369 0.57725 0.42457
 C146 C 0.41141 0.62260 0.43750
 H147 H 0.52191 0.56191 0.32259
 H148 H 0.35962 0.54894 0.43189
 H149 H 0.42037 0.48051 0.31021
 H150 H 0.44456 0.65145 0.42944
 C151 C 0.44581 0.95231 0.30444
 C152 C 0.46547 0.94280 0.32982
 C153 C 0.43644 0.90807 0.35275
 N154 N 0.45852 0.90135 0.37683
 N155 N 0.43350 0.86928 0.39748
 C156 C 0.38530 0.84249 0.39493
 N157 N 0.36307 0.84932 0.37087
 N158 N 0.38815 0.88154 0.35017
 C159 C 0.35793 0.80556 0.41739
 C160 C 0.38119 0.79771 0.44160
 H161 H 0.50404 0.96038 0.33260
 H162 H 0.31991 0.78325 0.41424
 H163 H 0.40768 0.93195 0.30056
 H164 H 0.41935 0.82020 0.44411
 C165 C 0.05280 0.49149 0.29634
 C166 C 0.09857 0.52918 0.30071
 C167 C 0.12479 0.53569 0.32860
 N168 N 0.15800 0.58032 0.33627
 N169 N 0.18152 0.58749 0.36168
 C170 C 0.17320 0.55020 0.38027
 N171 N 0.14059 0.50530 0.37238
 N172 N 0.11657 0.49819 0.34706
 C173 C 0.19855 0.55863 0.40867
 C174 C 0.21391 0.60284 0.42280
 H175 H 0.11350 0.55829 0.28482
 H176 H 0.20302 0.52952 0.41918
 H177 H 0.03676 0.46648 0.31443
 H178 H 0.20459 0.62970 0.41338
 C179 C 0.54835 0.48501 0.30238
 C180 C 0.52569 0.46120 0.32831
 C181 C 0.55264 0.45325 0.35250
 N182 N 0.52927 0.41828 0.37274
 N183 N 0.55329 0.40981 0.39442
 C184 C 0.60153 0.43627 0.39679
 N185 N 0.62484 0.47182 0.37683
 N186 N 0.60084 0.48005 0.35498
 C187 C 0.62827 0.42649 0.42039
 C188 C 0.60834 0.38299 0.43570
 H189 H 0.48699 0.44348 0.32996
 H190 H 0.66457 0.45301 0.42505
 H191 H 0.58592 0.49340 0.29973
 H192 H 0.57326 0.35546 0.42949
 C193 C 0.52361 0.05211 0.31187
 C194 C 0.56714 0.09080 0.31987
 C195 C 0.57532 0.11430 0.34906
 N196 N 0.62070 0.14451 0.35731
 N197 N 0.62911 0.16711 0.38322
 C198 C 0.59244 0.16062 0.40192
 N199 N 0.54694 0.13050 0.39365
 N200 N 0.53852 0.10761 0.36776
 C201 C 0.60150 0.18735 0.43008
 C202 C 0.64801 0.21383 0.44074
 H203 H 0.59787 0.10278 0.30522
 H204 H 0.57132 0.18739 0.44208
 H205 H 0.49613 0.03795 0.32880
 H206 H 0.67767 0.21214 0.42903
 C207 C 0.94469 0.44912 0.29592
 C208 C 0.95600 0.47329 0.32296
 C209 C 0.91921 0.46133 0.34606
 N210 N 0.93147 0.46480 0.37498
 N211 N 0.89794 0.45285 0.39597
 C212 C 0.85114 0.43785 0.38875
 N213 N 0.83905 0.43546 0.35986
 N214 N 0.87246 0.44670 0.33887
 C215 C 0.81388 0.42339 0.41165
 C216 C 0.81816 0.40158 0.43755
 H217 H 0.99068 0.50278 0.32729
 H218 H 0.78113 0.42635 0.40715
 H219 H 0.90763 0.42262 0.29334
 H220 H 0.84868 0.39397 0.44040
 C221 C 0.54150 0.49055 1.19506
 C222 C 0.55134 0.45147 1.19037
 C223 C 0.56579 0.44098 1.16141
 N224 N 0.56233 0.39657 1.15605
 N225 N 0.57472 0.38608 1.12981
 C226 C 0.59133 0.41974 1.10802
 N227 N 0.59532 0.46437 1.11347
 N228 N 0.58252 0.47475 1.13967
 C229 C 0.60582 0.40858 1.07921
 C230 C 0.59187 0.36124 1.07039
 H231 H 0.54503 0.42579 1.20809
 H232 H 0.62752 0.43808 1.06464
 H233 H 0.54359 0.51363 1.17666
 H234 H 0.56761 0.33190 1.08422
 C235 C 0.94837 0.45724 1.18957
 C236 C 0.90144 0.42168 1.18568
 C237 C 0.87496 0.41838 1.15835
 N238 N 0.84030 0.37520 1.14957
 N239 N 0.81574 0.37166 1.12494
 C240 C 0.82442 0.41129 1.10843
 N241 N 0.85853 0.45468 1.11747
 N242 N 0.88359 0.45813 1.14193
 C243 C 0.79728 0.40711 1.08123
 C244 C 0.78008 0.36493 1.06481
 H245 H 0.88465 0.39325 1.20182
 H246 H 0.79211 0.43757 1.07362
 H247 H 0.96578 0.47942 1.17052
 H248 H 0.78986 0.33680 1.07121
 C249 C 0.55738 0.06297 1.20598
 C250 C 0.53898 0.05762 1.17726
 C251 C 0.56440 0.08958 1.15231
 N252 N 0.54103 0.08449 1.12635
 N253 N 0.56248 0.11313 1.10347
 C254 C 0.60834 0.14796 1.10553
 N255 N 0.63201 0.15283 1.13144
 N256 N 0.61045 0.12417 1.15443
 C257 C 0.63139 0.18117 1.08054
 C258 C 0.60493 0.18199 1.05588
 H259 H 0.50252 0.03146 1.17296
 H260 H 0.66854 0.20753 1.08250
 H261 H 0.59035 0.09498 1.21039
 H262 H 0.56713 0.15717 1.05495
 C263 C 0.45485 0.50816 1.19961
 C264 C 0.47831 0.54795 1.18133
 C265 C 0.45411 0.55966 1.15711
 N266 N 0.47926 0.59893 1.14009
 N267 N 0.45795 0.61054 1.11818
 C268 C 0.41065 0.58336 1.11252
 N269 N 0.38542 0.54405 1.12957
 N270 N 0.40678 0.53238 1.15149
 C271 C 0.38699 0.59590 1.08827
 C272 C 0.41281 0.63431 1.06936
 H273 H 0.51555 0.57236 1.18551
 H274 H 0.34892 0.57404 1.08493
 H275 H 0.41663 0.48595 1.19728
 H276 H 0.45104 0.65547 1.07252
 C277 C 0.05257 0.50491 1.18846
 C278 C 0.09124 0.54965 1.18364
 C279 C 0.11837 0.56090 1.15574
 N280 N 0.14878 0.60712 1.14890
 N281 N 0.17348 0.61763 1.12361
 C282 C 0.16884 0.58225 1.10434
 N283 N 0.13875 0.53600 1.11131
 N284 N 0.11381 0.52553 1.13649
 C285 C 0.19677 0.59321 1.07676
 C286 C 0.22165 0.64014 1.06632
 H287 H 0.10071 0.57748 1.20026
 H288 H 0.19799 0.56374 1.06455
 H289 H 0.04116 0.47853 1.17087
 H290 H 0.21853 0.66922 1.07788
 C291 C 0.49205 0.95685 1.20009
 C292 C 0.44811 0.92764 1.18710
 C293 C 0.44474 0.90186 1.15919
 N294 N 0.40322 0.88370 1.14369
 N295 N 0.39952 0.86018 1.11846
 C296 C 0.43712 0.85366 1.10783
 N297 N 0.47856 0.87153 1.12344
 N298 N 0.48240 0.89541 1.14857
 C299 C 0.43269 0.82602 1.08053
 C300 C 0.39449 0.81481 1.06116
 H301 H 0.41542 0.92575 1.19680
 H302 H 0.45944 0.81349 1.07596
 H303 H 0.52492 0.96207 1.18896
 H304 H 0.36923 0.82945 1.06520
 C305 C 0.50479 0.45270 0.69484
 C306 C 0.54991 0.46093 0.68419
 C307 C 0.55749 0.44157 0.65601
 N308 N 0.60261 0.45828 0.64498
 N309 N 0.61086 0.44108 0.61978
 C310 C 0.57436 0.40625 0.60463
 N311 N 0.52911 0.38922 0.61574
 N312 N 0.52078 0.40670 0.64094
 C313 C 0.58406 0.38647 0.57709
 C314 C 0.62894 0.40900 0.56341
 H315 H 0.58149 0.48436 0.69647
 H316 H 0.55633 0.35371 0.56795
 H317 H 0.47338 0.43283 0.68145
 H318 H 0.65548 0.44271 0.57235
 C319 C 0.49110 0.05321 0.68949
 C320 C 0.53855 0.08736 0.68578
 C321 C 0.55393 0.11699 0.65891
 N322 N 0.60124 0.14198 0.65218
 N323 N 0.61518 0.16931 0.62794
 C324 C 0.58225 0.17283 0.60976
 N325 N 0.53506 0.14817 0.61664
 N326 N 0.52114 0.12061 0.64070
 C327 C 0.59655 0.20374 0.58348
 C328 C 0.64250 0.22223 0.57135
 H329 H 0.56481 0.09188 0.70263
 H330 H 0.56942 0.21131 0.57295
 H331 H 0.46609 0.04621 0.67147
 H332 H 0.66892 0.21226 0.58052
 C333 C 0.96097 0.45987 0.70163
 C334 C 0.95338 0.48606 0.67896
 C335 C 0.92243 0.46199 0.65367
 N336 N 0.91273 0.48820 0.63308
 N337 N 0.88378 0.46656 0.61051
 C338 C 0.86354 0.41790 0.60770
 N339 N 0.87350 0.39176 0.62818
 N340 N 0.90238 0.41338 0.65074
 C341 C 0.83059 0.39320 0.58338
 C342 C 0.81725 0.41794 0.56249
 H343 H 0.96910 0.52493 0.68030
 H344 H 0.81566 0.35434 0.58232
 H345 H 0.94194 0.42094 0.70129
 H346 H 0.83204 0.45678 0.56363
 C347 C 0.43672 0.49671 0.70099
 C348 C 0.45778 0.51727 0.67403
 C349 C 0.43135 0.52670 0.64997
 N350 N 0.45609 0.55381 0.62658
 N351 N 0.43342 0.56414 0.60489
 C352 C 0.38502 0.54760 0.60561
 N353 N 0.36007 0.51985 0.62884
 N354 N 0.38283 0.50969 0.65068
 C355 C 0.36029 0.56059 0.58195
 C356 C 0.38648 0.59787 0.56233
 H357 H 0.49603 0.52978 0.67105
 H358 H 0.32151 0.54242 0.58077
 H359 H 0.39965 0.48881 0.70519
 H360 H 0.42499 0.61741 0.56507
 C361 C 0.43080 0.94988 0.68953
 C362 C 0.39303 0.90433 0.68492
 C363 C 0.39203 0.87603 0.65879
 N364 N 0.34989 0.84045 0.64944
 N365 N 0.34874 0.81419 0.62594
 C366 C 0.38976 0.82212 0.61123
 N367 N 0.43202 0.85716 0.62088
 N368 N 0.43311 0.88379 0.64420
 C369 C 0.38853 0.79376 0.58508
 C370 C 0.34703 0.77198 0.56838
 H371 H 0.36263 0.88945 0.69984
 H372 H 0.42112 0.79226 0.57794
 H373 H 0.45564 0.96549 0.67129
 H374 H 0.31600 0.77746 0.57422
 C375 C 0.06114 0.54489 0.70113
 C376 C 0.06577 0.51904 0.67708
 C377 C 0.09359 0.54289 0.65035
 N378 N 0.09919 0.51609 0.62832
 N379 N 0.12477 0.53709 0.60421
 C380 C 0.14561 0.58575 0.60113
 N381 N 0.13973 0.61252 0.62307
 N382 N 0.11420 0.59152 0.64720
 C383 C 0.17571 0.60970 0.57514
 C384 C 0.18682 0.58415 0.55348
 H385 H 0.04928 0.48012 0.67807
 H386 H 0.19188 0.64862 0.57402
 H387 H 0.08123 0.58374 0.70105
 H388 H 0.17158 0.54531 0.55513
 C389 C 0.48894 0.54056 0.80458
 C390 C 0.44646 0.53781 0.81651
 C391 C 0.44556 0.56433 0.84326
 N392 N 0.40429 0.54965 0.85903
 N393 N 0.40253 0.57328 0.88319
 C394 C 0.44182 0.61286 0.89239
 N395 N 0.48302 0.62802 0.87640
 N396 N 0.48494 0.60401 0.85235
 C397 C 0.43927 0.63921 0.91894
 C398 C 0.40405 0.61606 0.94028
 H399 H 0.41252 0.51352 0.80680
 H400 H 0.46466 0.67665 0.92158
 H401 H 0.52233 0.56094 0.81613
 H402 H 0.38136 0.57776 0.93807
 C403 C 0.05739 0.54006 0.81015
 C404 C 0.10693 0.56738 0.81325
 C405 C 0.12902 0.58439 0.84226
 N406 N 0.17425 0.59036 0.84721
 N407 N 0.19465 0.60494 0.87348
 C408 C 0.17083 0.61473 0.89569
 N409 N 0.12586 0.60964 0.89060
 N410 N 0.10517 0.59439 0.86441
 C411 C 0.19361 0.63079 0.92467
 C412 C 0.22762 0.61651 0.93454
 H413 H 0.13095 0.57188 0.79489
 H414 H 0.18307 0.65306 0.93844
 H415 H 0.03630 0.53089 0.83032
 H416 H 0.23423 0.59060 0.92164
 C417 C 0.41235 0.94780 0.79570
 C418 C 0.43706 0.95439 0.82230
 C419 C 0.41820 0.91931 0.84650
 N420 N 0.44807 0.91895 0.86810
 N421 N 0.43204 0.88602 0.88950
 C422 C 0.38549 0.85235 0.89012
 N423 N 0.35542 0.85314 0.86877
 N424 N 0.37153 0.88592 0.84726
 C425 C 0.36755 0.81559 0.91343
 C426 C 0.39858 0.80865 0.93279
 H427 H 0.47361 0.98191 0.82430
 H428 H 0.32921 0.79326 0.91517
 H429 H 0.37974 0.91454 0.79329
 H430 H 0.43699 0.82988 0.93030
 C431 C 0.54962 0.48841 0.80026
 C432 C 0.52757 0.46972 0.82736
 C433 C 0.55212 0.45837 0.85173
 N434 N 0.52629 0.43318 0.87544
 N435 N 0.54737 0.42127 0.89739
 C436 C 0.59520 0.43429 0.89656
 N437 N 0.62119 0.45998 0.87299
 N438 N 0.60005 0.47172 0.85093
 C439 C 0.61852 0.41993 0.92035
 C440 C 0.59170 0.38608 0.94173
 H441 H 0.48981 0.46014 0.83023
 H442 H 0.65724 0.43424 0.92009
 H443 H 0.58593 0.49348 0.79630
 H444 H 0.55289 0.37013 0.94093
 C445 C 0.96131 0.45908 0.81027
 C446 C 0.91507 0.45367 0.81565
 C447 C 0.88796 0.43094 0.84267
 N448 N 0.85153 0.44068 0.85154
 N449 N 0.82609 0.42005 0.87572
 C450 C 0.83571 0.38838 0.89176
 N451 N 0.87178 0.37811 0.88269
 N452 N 0.89766 0.39924 0.85867
 C453 C 0.80700 0.36502 0.91824
 C454 C 0.78329 0.38669 0.93399
 H455 H 0.89904 0.46872 0.80007
 H456 H 0.80545 0.33123 0.92580
 H457 H 0.97950 0.44837 0.82697
 H458 H 0.78888 0.42254 0.92773
 C459 C 0.47547 0.05468 0.79783
 C460 C 0.52211 0.08662 0.80550
 C461 C 0.53291 0.11386 0.83318
 N462 N 0.57860 0.13519 0.84327
 N463 N 0.58891 0.15968 0.86852
 C464 C 0.55393 0.16397 0.88447
 N465 N 0.50831 0.14306 0.87421
 N466 N 0.49793 0.11825 0.84907
 C467 C 0.56498 0.19126 0.91216
 C468 C 0.60818 0.20398 0.92677
 H469 H 0.55178 0.08972 0.79157
 H470 H 0.53819 0.20072 0.92150
 H471 H 0.44615 0.04831 0.81296
 H472 H 0.63365 0.19192 0.91833
   
