data_POSCAR
  _audit_creation_date              2014-09-24
  _audit_creation_method            'ToBaCCo'
  _symmetry_space_group_name_H-M    'P1'
  _symmetry_Int_Tables_number       1
  _symmetry_cell_setting            triclinic
  loop_
  _symmetry_equiv_pos_as_xyz
 x,y,z
_cell_length_a 40.9126
_cell_length_b 45.3234
_cell_length_c 43.7317
_cell_angle_alpha 94.181400
_cell_angle_beta 90.885300
_cell_angle_gamma 90.064300
loop_
  _atom_site_label
  _atom_site_type_symbol
  _atom_site_fract_x
  _atom_site_fract_y
  _atom_site_fract_z
C1 C 0.21628 0.52290 1.03285
 H2 H 0.21403 0.53621 1.01337
 C3 C 0.19251 0.52464 1.05542
 H4 H 0.17218 0.53968 1.05317
 C5 C 0.24484 0.48624 1.05837
 H6 H 0.26474 0.47066 1.05895
 C7 C 0.22178 0.48744 1.08166
 H8 H 0.22491 0.47259 1.09968
 N9 N 0.24164 0.50376 1.03456
 C10 C 0.32058 0.53122 0.97770
 H11 H 0.32358 0.51092 0.96343
 C12 C 0.34337 0.55399 0.97660
 H13 H 0.36386 0.55120 0.96127
 C14 C 0.29116 0.55885 1.01629
 H15 H 0.27137 0.56022 1.03239
 C16 C 0.31313 0.58245 1.01553
 H17 H 0.31003 0.60180 1.03122
 Zn18 Zn 0.26960 0.49957 1.00052
 N19 N 0.29538 0.53384 0.99761
 C20 C 0.24271 0.51169 0.94258
 N21 N 0.24247 0.49281 0.96536
 C22 C 0.22002 0.47071 0.96551
 C23 C 0.19605 0.46735 0.94247
 C24 C 0.21919 0.50910 0.91901
 C25 C 0.32236 0.47233 1.02711
 C26 C 0.34692 0.45146 1.03031
 C27 C 0.32293 0.42166 0.98765
 C28 C 0.29885 0.44328 0.98514
 N29 N 0.29903 0.46799 1.00477
 H30 H 0.26026 0.52957 0.94333
 H31 H 0.21999 0.45640 0.98426
 H32 H 0.17777 0.45015 0.94345
 H33 H 0.21912 0.52528 0.90203
 H34 H 0.32224 0.49245 1.04203
 H35 H 0.36561 0.45555 1.04794
 H36 H 0.32286 0.40266 0.97120
 H37 H 0.28057 0.44064 0.96705
 C38 C 0.33988 0.57992 0.99572
 C39 C 0.19474 0.50660 1.08019
 C40 C 0.34749 0.42576 1.01047
 C41 C 0.19512 0.48687 0.91902
 C42 C 0.80097 0.52916 -0.04453
 H43 H 0.79958 0.55071 -0.03229
 C44 C 0.82044 0.52529 -0.07046
 H45 H 0.83451 0.54392 -0.07707
 C46 C 0.78464 0.47893 -0.04998
 H47 H 0.77064 0.46086 -0.04216
 C48 C 0.80385 0.47404 -0.07600
 H49 H 0.80456 0.45215 -0.08771
 N50 N 0.78415 0.50601 -0.03433
 C51 C 0.74093 0.56952 0.02660
 H52 H 0.75611 0.56512 0.04619
 C53 C 0.72324 0.59586 0.02679
 H54 H 0.72507 0.61164 0.04657
 C55 C 0.71960 0.55414 -0.02269
 H56 H 0.71840 0.53768 -0.04187
 C57 C 0.70139 0.58016 -0.02342
 H58 H 0.68676 0.58361 -0.04364
 Zn59 Zn 0.76109 0.51277 0.00305
 N60 N 0.73852 0.54917 0.00224
 C61 C 0.81807 0.53294 0.03544
 N62 N 0.79148 0.51504 0.03655
 C63 C 0.78631 0.49917 0.06129
 C64 C 0.80887 0.50021 0.08567
 C65 C 0.84123 0.53463 0.05927
 C66 C 0.69817 0.48824 0.00999
 C67 C 0.67539 0.46607 0.01441
 C68 C 0.71954 0.43081 0.01522
 C69 C 0.74152 0.45373 0.01092
 N70 N 0.73056 0.48176 0.00806
 H71 H 0.82148 0.54593 0.01604
 H72 H 0.76451 0.48585 0.06236
 H73 H 0.80377 0.48762 0.10511
 H74 H 0.86242 0.54877 0.05775
 H75 H 0.68985 0.51068 0.00840
 H76 H 0.64971 0.47168 0.01590
 H77 H 0.72903 0.40890 0.01798
 H78 H 0.76747 0.44923 0.01032
 C79 C 0.70267 0.60123 0.00186
 C80 C 0.82231 0.49727 -0.08645
 C81 C 0.68588 0.43688 0.01677
 C82 C 0.83713 0.51779 0.08458
 C83 C -0.04296 0.29691 0.46662
 H84 H -0.05979 0.29854 0.48550
 C85 C -0.04523 0.31668 0.44372
 H86 H -0.06410 0.33347 0.44526
 C87 C 0.00228 0.27317 0.44235
 H88 H 0.02079 0.25616 0.44205
 C89 C 0.00101 0.29259 0.41893
 H90 H 0.01886 0.28982 0.40104
 N91 N -0.01942 0.27579 0.46561
 C92 C -0.05700 0.20738 0.52079
 H93 H -0.03847 0.20739 0.53870
 C94 C -0.08277 0.18716 0.52033
 H95 H -0.08417 0.17247 0.53866
 C96 C -0.07724 0.22685 0.47539
 H97 H -0.07470 0.24198 0.45760
 C98 C -0.10343 0.20695 0.47403
 H99 H -0.12101 0.20713 0.45527
 Zn100 Zn -0.01700 0.25142 0.49878
 N101 N -0.05454 0.22660 0.49844
 C102 C -0.03702 0.27449 0.55827
 N103 N -0.01525 0.27695 0.53535
 C104 C 0.00716 0.29921 0.53687
 C105 C 0.00870 0.31974 0.56225
 C106 C -0.03634 0.29454 0.58411
 C107 C 0.01656 0.19742 0.48873
 C108 C 0.04326 0.17835 0.48676
 C109 C 0.07905 0.22039 0.49690
 C110 C 0.05155 0.23871 0.49895
 N111 N 0.02094 0.22698 0.49538
 H112 H -0.05544 0.25740 0.55645
 H113 H 0.02337 0.30159 0.51794
 H114 H 0.02723 0.33681 0.56287
 H115 H -0.05397 0.29231 0.60203
 H116 H -0.00767 0.18845 0.48454
 H117 H 0.03900 0.15500 0.48109
 H118 H 0.10323 0.23001 0.50000
 H119 H 0.05480 0.26225 0.50335
 C120 C -0.10608 0.18636 0.49631
 C121 C -0.02292 0.31504 0.41952
 C122 C 0.07501 0.18975 0.49141
 C123 C -0.01358 0.31777 0.58619
 C124 C 0.95813 0.69900 0.53458
 H125 H 0.94069 0.69738 0.51568
 C126 C 0.95411 0.68173 0.55939
 H127 H 0.93335 0.66689 0.55950
 C128 C 1.00692 0.71973 0.55682
 H129 H 1.02766 0.73434 0.55551
 C130 C 1.00390 0.70277 0.58209
 H131 H 1.02214 0.70520 0.60024
 N132 N 0.98427 0.71742 0.53368
 C133 C 0.95724 0.78252 0.46935
 H134 H 0.97733 0.77972 0.45360
 C135 C 0.93367 0.80413 0.46521
 H136 H 0.93569 0.81792 0.44610
 C137 C 0.93065 0.76822 0.51372
 H138 H 0.92975 0.75436 0.53275
 C139 C 0.90656 0.78966 0.51049
 H140 H 0.88697 0.79136 0.52682
 Zn141 Zn 0.98943 0.73749 0.49771
 N142 N 0.95528 0.76501 0.49321
 C143 C 0.96603 0.70934 0.44147
 N144 N 0.98892 0.70852 0.46428
 C145 C 1.01057 0.68583 0.46492
 C146 C 1.01021 0.66305 0.44163
 C147 C 0.96474 0.68699 0.41777
 C148 C 1.02981 0.78402 0.51899
 C149 C 1.05673 0.80298 0.51974
 C150 C 1.08223 0.76997 0.48133
 C151 C 1.05451 0.75187 0.48089
 N152 N 1.02898 0.75923 0.49951
 H153 H 0.94834 0.72701 0.44182
 H154 H 1.02785 0.68525 0.48384
 H155 H 1.02722 0.64497 0.44317
 H156 H 0.94626 0.68790 0.39985
 H157 H 1.00912 0.78938 0.53345
 H158 H 1.05682 0.82275 0.53521
 H159 H 1.10225 0.76412 0.46615
 H160 H 1.05324 0.73234 0.46525
 C161 C 0.90813 0.80819 0.48609
 C162 C 0.97743 0.68303 0.58328
 C163 C 1.08313 0.79622 0.50034
 C164 C 0.98713 0.66359 0.41749
 C165 C 0.44865 -0.00402 0.28958
 H166 H 0.46629 -0.02156 0.29160
 C167 C 0.42236 -0.00139 0.30954
 H168 H 0.42022 -0.01694 0.32704
 C169 C 0.43153 0.03860 0.26541
 H170 H 0.43560 0.05449 0.24861
 C171 C 0.40510 0.04228 0.28519
 H172 H 0.38877 0.06087 0.28327
 N173 N 0.45255 0.01562 0.26785
 C174 C 0.51539 -0.03095 0.20053
 H175 H 0.53477 -0.01481 0.19944
 C176 C 0.51601 -0.05705 0.18145
 H177 H 0.53638 -0.06029 0.16621
 C178 C 0.46531 -0.04492 0.22173
 H179 H 0.44517 -0.03986 0.23688
 C180 C 0.46494 -0.07133 0.20316
 H181 H 0.44452 -0.08638 0.20469
 Zn182 Zn 0.49028 0.01160 0.24343
 N183 N 0.49038 -0.02541 0.22021
 C184 C 0.54860 -0.00721 0.27270
 N185 N 0.52665 0.01511 0.27070
 C186 C 0.52862 0.04009 0.28983
 C187 C 0.55339 0.04337 0.31210
 C188 C 0.57375 -0.00490 0.29475
 C189 C 0.46723 0.04004 0.19323
 C190 C 0.46688 0.06021 0.17062
 C191 C 0.51588 0.08264 0.19349
 C192 C 0.51539 0.06188 0.21562
 N193 N 0.49116 0.04126 0.21519
 H194 H 0.54634 -0.02708 0.25760
 H195 H 0.51054 0.05731 0.28803
 H196 H 0.55438 0.06331 0.32733
 H197 H 0.59105 -0.02284 0.29561
 H198 H 0.44856 0.02311 0.19316
 H199 H 0.44774 0.05877 0.15318
 H200 H 0.53585 0.09833 0.19391
 H201 H 0.53471 0.06196 0.23274
 C202 C 0.49031 -0.07775 0.18240
 C203 C 0.40011 0.02200 0.30740
 C204 C 0.49128 0.08196 0.17061
 C205 C 0.57602 0.02053 0.31517
 C206 C 0.51052 -0.03346 0.71108
 H207 H 0.49011 -0.04848 0.71246
 C208 C 0.53441 -0.03928 0.68901
 H209 H 0.53239 -0.05898 0.67351
 C210 C 0.53738 0.01094 0.72906
 H211 H 0.53822 0.03073 0.74437
 C212 C 0.56178 0.00602 0.70732
 H213 H 0.58157 0.02181 0.70699
 N214 N 0.51239 -0.00868 0.73053
 C215 C 0.45267 -0.02592 0.80914
 H216 H 0.43644 -0.00706 0.80959
 C217 C 0.45109 -0.04564 0.83215
 H218 H 0.43337 -0.04197 0.85017
 C219 C 0.49631 -0.05291 0.78574
 H220 H 0.51453 -0.05519 0.76813
 C221 C 0.49558 -0.07319 0.80828
 H222 H 0.51355 -0.09068 0.80754
 Zn223 Zn 0.47734 -0.00083 0.75765
 N224 N 0.47489 -0.02995 0.78644
 C225 C 0.41179 -0.01629 0.73902
 N226 N 0.43887 -0.00027 0.73322
 C227 C 0.44018 0.01603 0.70838
 C228 C 0.41376 0.01636 0.68789
 C229 C 0.38452 -0.01616 0.71936
 C230 C 0.50897 0.03864 0.80030
 C231 C 0.51396 0.06482 0.81861
 C232 C 0.46608 0.08526 0.79505
 C233 C 0.46207 0.05869 0.77711
 N234 N 0.48340 0.03605 0.78006
 H235 H 0.41136 -0.02939 0.75866
 H236 H 0.46204 0.02852 0.70431
 H237 H 0.41527 0.02956 0.66830
 H238 H 0.36312 -0.02905 0.72412
 H239 H 0.52547 0.02020 0.80223
 H240 H 0.53490 0.06630 0.83400
 H241 H 0.44869 0.10299 0.79265
 H242 H 0.44166 0.05605 0.76118
 C243 C 0.47261 -0.06973 0.83189
 C244 C 0.56013 -0.01916 0.68654
 C245 C 0.49197 0.08847 0.81646
 C246 C 0.38562 -0.00018 0.69314
 C247 C 0.27611 0.01649 0.45069
 H248 H 0.27900 0.03388 0.46885
 C249 C 0.29657 0.01563 0.42537
 H250 H 0.31524 0.03245 0.42446
 C251 C 0.24984 -0.02781 0.43141
 H252 H 0.23216 -0.04508 0.43424
 C253 C 0.26999 -0.02968 0.40587
 H254 H 0.26744 -0.04832 0.38903
 N255 N 0.25338 -0.00506 0.45328
 C256 C 0.18078 0.02839 0.51879
 H257 H 0.18083 0.01034 0.53368
 C258 C 0.15768 0.05087 0.52279
 H259 H 0.14010 0.05012 0.54099
 C260 C 0.20262 0.05040 0.47602
 H261 H 0.21951 0.04963 0.45725
 C262 C 0.18003 0.07351 0.47933
 H263 H 0.17987 0.09015 0.46283
 Zn264 Zn 0.22983 -0.00518 0.49013
 N265 N 0.20259 0.02846 0.49567
 C266 C 0.25880 0.01262 0.54827
 N267 N 0.26073 -0.00615 0.52263
 C268 C 0.28603 -0.02540 0.51858
 C269 C 0.31084 -0.02617 0.54075
 C270 C 0.28281 0.01221 0.57131
 C271 C 0.17483 -0.03794 0.47114
 C272 C 0.15134 -0.06020 0.47157
 C273 C 0.18509 -0.08428 0.50813
 C274 C 0.20775 -0.06123 0.50738
 N275 N 0.20216 -0.03864 0.48914
 H276 H 0.23893 0.02821 0.55079
 H277 H 0.28717 -0.03981 0.49779
 H278 H 0.33111 -0.04129 0.53699
 H279 H 0.28119 0.02770 0.59126
 H280 H 0.17086 -0.01952 0.45713
 H281 H 0.12928 -0.05893 0.45771
 H282 H 0.18946 -0.10160 0.52345
 H283 H 0.22936 -0.06107 0.52191
 C284 C 0.15703 0.07378 0.50293
 C285 C 0.29377 -0.00788 0.40264
 C286 C 0.15628 -0.08368 0.49025
 C287 C 0.30928 -0.00738 0.56757
 C288 C 0.71263 0.02206 0.56096
 H289 H 0.73132 0.03846 0.55824
 C290 C 0.69066 0.02622 0.58498
 H291 H 0.69287 0.04573 0.60074
 C292 C 0.68628 -0.02270 0.54333
 H293 H 0.68454 -0.04150 0.52665
 C294 C 0.66385 -0.01948 0.56710
 H295 H 0.64470 -0.03581 0.56811
 N296 N 0.71033 -0.00230 0.54096
 C297 C 0.79142 0.02581 0.53309
 H298 H 0.79022 0.00998 0.55040
 C299 C 0.81509 0.04804 0.53546
 H300 H 0.83209 0.04927 0.55476
 C301 C 0.77107 0.04296 0.48657
 H302 H 0.75434 0.04049 0.46721
 C303 C 0.79430 0.06569 0.48812
 H304 H 0.79516 0.08029 0.46966
 Zn305 Zn 0.73961 -0.00786 0.50798
 N306 N 0.76984 0.02381 0.50908
 C307 C 0.71526 -0.03477 0.45144
 N308 N 0.71449 -0.01015 0.47115
 C309 C 0.69429 0.01280 0.46597
 C310 C 0.67418 0.01181 0.43981
 C311 C 0.69551 -0.03673 0.42504
 C312 C 0.76006 -0.06027 0.53494
 C313 C 0.77976 -0.08511 0.53770
 C314 C 0.80806 -0.07335 0.49206
 C315 C 0.78785 -0.04874 0.49020
 N316 N 0.76425 -0.04282 0.51129
 H317 H 0.73074 -0.05317 0.45634
 H318 H 0.69353 0.03179 0.48245
 H319 H 0.65783 0.03012 0.43676
 H320 H 0.69627 -0.05657 0.40968
 H321 H 0.74186 -0.05474 0.55203
 H322 H 0.77623 -0.09870 0.55677
 H323 H 0.82712 -0.07695 0.47536
 H324 H 0.79121 -0.03402 0.47210
 C325 C 0.81658 0.06852 0.51301
 C326 C 0.66614 0.00517 0.58853
 C327 C 0.80398 -0.09207 0.51602
 C328 C 0.67478 -0.01322 0.41880
 C329 C 0.49968 0.20615 1.04571
 H330 H 0.48434 0.20152 1.02561
 C331 C 0.49735 0.18825 1.07019
 H332 H 0.47896 0.17106 1.06886
 C333 C 0.54265 0.23376 1.07086
 H334 H 0.56078 0.25106 1.07085
 C335 C 0.54126 0.21626 1.09586
 H336 H 0.55817 0.22055 1.11498
 N337 N 0.52188 0.22855 1.04645
 C338 C 0.49135 0.30271 1.00012
 H339 H 0.51561 0.31130 0.99716
 C340 C 0.46455 0.32133 0.99715
 H341 H 0.46877 0.34398 0.99195
 C342 C 0.45641 0.26244 1.00825
 H343 H 0.45319 0.23944 1.01218
 C344 C 0.42887 0.28027 1.00519
 H345 H 0.40472 0.27083 1.00711
 Zn346 Zn 0.52468 0.24972 1.01060
 N347 N 0.48700 0.27393 1.00614
 C348 C 0.50537 0.22137 0.95309
 N349 N 0.52688 0.22112 0.97708
 C350 C 0.54921 0.19914 0.97891
 C351 C 0.55015 0.17585 0.95626
 C352 C 0.50541 0.19845 0.92990
 C353 C 0.56505 0.29662 1.03444
 C354 C 0.59097 0.31670 1.03473
 C355 C 0.61231 0.28949 0.98988
 C356 C 0.58582 0.27004 0.99030
 N357 N 0.56266 0.27407 1.01220
 H358 H 0.48767 0.23899 0.95225
 H359 H 0.56582 0.19938 0.99842
 H360 H 0.56774 0.15825 0.95841
 H361 H 0.48726 0.19882 0.91173
 H362 H 0.54622 0.29948 1.05150
 H363 H 0.59225 0.33443 1.05266
 H364 H 0.63023 0.28629 0.97197
 H365 H 0.58341 0.25220 0.97264
 C366 C 0.43278 0.31024 1.00019
 C367 C 0.51872 0.19287 1.09560
 C368 C 0.61468 0.31359 1.01180
 C369 C 0.52794 0.17511 0.93145
 C370 C 0.47983 0.80598 -0.04174
 H371 H 0.46431 0.80967 -0.02202
 C372 C 0.47717 0.82433 -0.06595
 H373 H 0.45891 0.84156 -0.06469
 C374 C 0.52199 0.77848 -0.06696
 H375 H 0.53980 0.76091 -0.06709
 C376 C 0.52021 0.79632 -0.09166
 H377 H 0.53654 0.79208 -0.11074
 N378 N 0.50178 0.78345 -0.04274
 C379 C 0.46652 0.71760 0.01634
 H380 H 0.48842 0.71488 0.03002
 C381 C 0.43992 0.69872 0.01897
 H382 H 0.44131 0.68170 0.03507
 C383 C 0.43840 0.74282 -0.02172
 H384 H 0.43816 0.75952 -0.03810
 C385 C 0.41095 0.72477 -0.01936
 H386 H 0.38967 0.72785 -0.03381
 Zn387 Zn 0.50462 0.76043 -0.00837
 N388 N 0.46550 0.73887 -0.00403
 C389 C 0.49053 0.78912 0.04976
 N390 N 0.51225 0.78686 0.02650
 C391 C 0.53858 0.80512 0.02637
 C392 C 0.54376 0.82692 0.05018
 C393 C 0.49463 0.81073 0.07400
 C394 C 0.53476 0.71059 -0.03626
 C395 C 0.55750 0.68776 -0.04007
 C396 C 0.58781 0.70953 0.00376
 C397 C 0.56445 0.73203 0.00668
 N398 N 0.53862 0.73219 -0.01326
 H399 H 0.46950 0.77463 0.04919
 H400 H 0.55523 0.80311 0.00735
 H401 H 0.56474 0.84143 0.04928
 H402 H 0.47657 0.81177 0.09176
 H403 H 0.51362 0.71090 -0.05141
 H404 H 0.55378 0.67064 -0.05841
 H405 H 0.60754 0.70972 0.02047
 H406 H 0.56659 0.74892 0.02536
 C407 C 0.41189 0.70196 0.00059
 C408 C 0.49782 0.81976 -0.09130
 C409 C 0.58445 0.68689 -0.01993
 C410 C 0.52140 0.83044 0.07428
 C411 C 1.05327 0.48022 0.19957
 H412 H 1.02909 0.48478 0.19093
 C413 C 1.07992 0.48221 0.18032
 H414 H 1.07508 0.48763 0.15704
 C415 C 1.08789 0.46674 0.24006
 H416 H 1.09088 0.46109 0.26355
 C417 C 1.11522 0.46787 0.22140
 H418 H 1.13908 0.46289 0.23081
 N419 N 1.05765 0.47313 0.22903
 C420 C 0.99522 0.43857 0.29860
 H421 H 0.97882 0.45707 0.30235
 C422 C 0.99255 0.41451 0.31653
 H423 H 0.97398 0.41566 0.33380
 C424 C 1.03879 0.41570 0.27102
 H425 H 1.05643 0.41600 0.25294
 C426 C 1.03708 0.39112 0.28850
 H427 H 1.05391 0.37297 0.28379
 Zn428 Zn 1.02075 0.47381 0.25508
 N429 N 1.01840 0.43906 0.27673
 C430 C 0.96377 0.45214 0.22395
 N431 N 0.98215 0.47675 0.23111
 C432 C 0.97379 0.50331 0.22072
 C433 C 0.94632 0.50573 0.20171
 C434 C 0.93610 0.45355 0.20503
 C435 C 1.05276 0.52019 0.29131
 C436 C 1.05477 0.54410 0.31325
 C437 C 0.99630 0.54135 0.31927
 C438 C 0.99544 0.51742 0.29727
 N439 N 1.02343 0.50718 0.28392
 H440 H 0.97092 0.43124 0.23243
 H441 H 0.98876 0.52258 0.22693
 H442 H 0.94015 0.52720 0.19406
 H443 H 0.92202 0.43363 0.19916
 H444 H 1.07477 0.51198 0.28049
 H445 H 1.07838 0.55399 0.31907
 H446 H 0.97374 0.54839 0.33006
 H447 H 0.97233 0.50693 0.29091
 C448 C 1.01401 0.39029 0.31196
 C449 C 1.11168 0.47644 0.19128
 C450 C 1.02635 0.55506 0.32748
 C451 C 0.92738 0.48042 0.19316
 C452 C -0.03332 0.49364 0.78606
 H453 H -0.01736 0.47460 0.78534
 C454 C -0.05947 0.49540 0.80634
 H455 H -0.06305 0.47748 0.82095
 C456 C -0.04599 0.54091 0.76943
 H457 H -0.04031 0.55896 0.75561
 C458 C -0.07234 0.54358 0.78932
 H459 H -0.08680 0.56362 0.79031
 N460 N -0.02692 0.51629 0.76824
 C461 C 0.03110 0.48351 0.69005
 H462 H 0.04739 0.50218 0.68920
 C463 C 0.03133 0.46121 0.66637
 H464 H 0.04838 0.46266 0.64782
 C465 C -0.01222 0.45995 0.71410
 H466 H -0.02978 0.45988 0.73225
 C467 C -0.01274 0.43701 0.69086
 H468 H -0.03090 0.41975 0.69161
 Zn469 Zn 0.01096 0.51519 0.74331
 N470 N 0.00980 0.48245 0.71351
 C471 C 0.07915 0.51133 0.75522
 N472 N 0.04926 0.51322 0.76850
 C473 C 0.04644 0.51414 0.79953
 C474 C 0.07415 0.51235 0.81835
 C475 C 0.10753 0.50982 0.77322
 C476 C -0.01032 0.55174 0.69857
 C477 C -0.00982 0.57565 0.68023
 C478 C 0.03712 0.59505 0.70935
 C479 C 0.03566 0.57075 0.72723
 N480 N 0.01226 0.54966 0.72143
 H481 H 0.08112 0.51133 0.73067
 H482 H 0.02277 0.51666 0.80991
 H483 H 0.07121 0.51366 0.84295
 H484 H 0.13111 0.50844 0.76228
 H485 H -0.02837 0.53442 0.69424
 H486 H -0.02740 0.57608 0.66156
 H487 H 0.05614 0.61149 0.71394
 H488 H 0.05339 0.56863 0.74551
 C489 C 0.00944 0.43745 0.66661
 C490 C -0.07932 0.52080 0.80827
 C491 C 0.01418 0.59777 0.68554
 C492 C 0.10521 0.50984 0.80514
 C493 C 0.10405 0.17024 0.48977
 C494 C 0.10309 0.14244 0.49812
 C495 C 0.13167 0.12276 0.49532
 C496 C 0.13051 0.09594 0.50619
 H497 H 0.08083 0.13392 0.50733
 H498 H 0.15337 0.13024 0.48429
 H499 H 0.12695 0.17924 0.48241
 H500 H 0.10893 0.08985 0.51842
 C501 C 0.68312 0.62885 0.00324
 C502 C 0.65544 0.63196 -0.01293
 C503 C 0.63570 0.65914 -0.00882
 C504 C 0.60704 0.66126 -0.02371
 H505 H 0.64628 0.61396 -0.02833
 H506 H 0.64474 0.67707 0.00668
 H507 H 0.69079 0.64673 0.01962
 H508 H 0.59946 0.64293 -0.03959
 C509 C 0.88387 -0.16822 0.48142
 C510 C 0.86512 -0.15592 0.50367
 C511 C 0.84314 -0.13120 0.49767
 C512 C 0.82540 -0.11791 0.52013
 H513 H 0.86679 -0.16306 0.52671
 H514 H 0.84168 -0.12398 0.47465
 H515 H 0.88261 -0.15953 0.45897
 H516 H 0.82635 -0.12654 0.54262
 C517 C 0.37520 0.40507 1.01316
 C518 C 0.37467 0.37666 1.00244
 C519 C 0.40396 0.35818 1.00548
 C520 C 0.40351 0.32913 0.99748
 H521 H 0.35282 0.36689 0.99169
 H522 H 0.42613 0.36858 1.01492
 H523 H 0.39705 0.41363 1.02510
 H524 H 0.38068 0.31865 0.98985
 C525 C 0.86683 0.16448 0.49363
 C526 C 0.86798 0.13855 0.50643
 C527 C 0.84103 0.11699 0.50225
 C528 C 0.84245 0.09149 0.51585
 H529 H 0.88931 0.13256 0.51951
 H530 H 0.81995 0.12230 0.48847
 H531 H 0.84583 0.16930 0.47942
 H532 H 0.86328 0.08756 0.53065
 C533 C 0.36592 0.60257 -0.00381
 C534 C 0.36074 0.63148 0.00245
 C535 C 0.38839 0.65234 0.00308
 C536 C 0.38391 0.68139 0.00137
 H537 H 0.33625 0.63983 0.00644
 H538 H 0.41301 0.64356 0.00380
 H539 H 0.39034 0.59512 -0.00980
 H540 H 0.35944 0.68989 -0.00183
 C541 C 0.11132 -0.18350 0.49917
 C542 C 0.10736 -0.15417 0.50045
 C543 C 0.13518 -0.13388 0.49815
 C544 C 0.12991 -0.10573 0.49225
 H545 H 0.08298 -0.14490 0.50221
 H546 H 0.15985 -0.14213 0.50069
 H547 H 0.13536 -0.19286 0.49501
 H548 H 0.10509 -0.09863 0.48778
 C549 C 0.66109 0.41390 1.02177
 C550 C 0.66561 0.38490 1.01513
 C551 C 0.63907 0.36368 1.01955
 C552 C 0.64172 0.33511 1.00979
 H553 H 0.68832 0.37673 1.00538
 H554 H 0.61660 0.37193 1.02973
 H555 H 0.63743 0.42137 1.03006
 H556 H 0.66366 0.32766 0.99799
 C557 C 0.49103 0.10223 1.14552
 C558 C 0.50617 0.12852 1.14704
 C559 C 0.50490 0.14691 1.12061
 C560 C 0.51849 0.17388 1.12191
 H561 H 0.51911 0.13675 1.16770
 H562 H 0.49330 0.13763 1.09969
 H563 H 0.47700 0.09539 1.12496
 H564 H 0.53107 0.18201 1.14286
 C565 C -0.02661 0.66308 0.60839
 C566 C -0.00216 0.65507 0.62671
 C567 C -0.00741 0.63232 0.64855
 C568 C 0.01729 0.62268 0.66558
 H569 H 0.02226 0.66376 0.62449
 H570 H -0.03166 0.62301 0.65007
 H571 H -0.05039 0.65287 0.61046
 H572 H 0.04096 0.63335 0.66472
 C573 C 0.47141 0.91047 -0.14259
 C574 C 0.48448 0.88335 -0.14369
 C575 C 0.48332 0.86547 -0.11689
 C576 C 0.49679 0.83853 -0.11774
 H577 H 0.49602 0.87405 -0.16428
 H578 H 0.47225 0.87506 -0.09619
 H579 H 0.45881 0.91853 -0.12200
 H580 H 0.50884 0.83020 -0.13854
 C581 C 0.97476 0.33625 0.39762
 C582 C 0.99575 0.33863 0.37291
 C583 C 0.99247 0.36219 0.35426
 C584 C 1.01385 0.36579 0.33009
 H585 H 1.01521 0.32293 0.36833
 H586 H 0.97324 0.37796 0.35945
 H587 H 0.95556 0.35269 0.40058
 H588 H 1.03207 0.34873 0.32546
 C589 C 0.48833 0.89593 0.16316
 C590 C 0.51068 0.88710 0.14035
 C591 C 0.50501 0.86177 0.12084
 C592 C 0.52635 0.85391 0.09687
 H593 H 0.53223 0.90012 0.13678
 H594 H 0.48319 0.84902 0.12409
 H595 H 0.46731 0.88171 0.16561
 H596 H 0.54779 0.86774 0.09489
 C597 C -0.01395 0.33932 0.61343
 C598 C -0.00163 0.36670 0.61354
 C599 C -0.00331 0.38765 0.64089
 C600 C 0.00971 0.41472 0.64045
 H601 H 0.00918 0.37428 0.59308
 H602 H -0.01471 0.38063 0.66131
 H603 H -0.02603 0.33280 0.63380
 H604 H 0.02209 0.42040 0.61990
 C605 C 0.49494 0.11655 0.83602
 C606 C 0.51179 0.11913 0.86257
 C607 C 0.51197 0.14702 0.88212
 C608 C 0.52801 0.14883 0.90912
 H609 H 0.52449 0.10032 0.87088
 H610 H 0.49866 0.16573 0.87435
 H611 H 0.48128 0.13550 0.82906
 H612 H 0.54188 0.12976 0.91545
 C613 C 0.98453 0.63965 0.39261
 C614 C 1.00909 0.62139 0.38454
 C615 C 1.00453 0.59761 0.36005
 C616 C 1.02933 0.57985 0.35141
 H617 H 1.03280 0.62394 0.39575
 H618 H 0.98075 0.59494 0.34901
 H619 H 0.96154 0.63738 0.37996
 H620 H 1.05323 0.58401 0.36195
 C621 C 1.16920 0.50759 0.10145
 C622 C 1.16850 0.49216 0.12802
 C623 C 1.14038 0.49228 0.14564
 C624 C 1.13972 0.47859 0.17330
 H625 H 1.18953 0.47997 0.13536
 H626 H 1.11913 0.50383 0.13771
 H627 H 1.14817 0.52123 0.09673
 H628 H 1.16261 0.47017 0.18199
 C629 C 0.58448 -0.02516 0.66212
 C630 C 0.60246 -0.00400 0.65068
 C631 C 0.62522 -0.01102 0.62543
 C632 C 0.64290 0.01036 0.61402
 H633 H 0.59980 0.01889 0.65917
 H634 H 0.62766 -0.03381 0.61655
 H635 H 0.58650 -0.04768 0.65211
 H636 H 0.64094 0.03275 0.62442
 C637 C -0.15552 0.49094 0.88732
 C638 C -0.14298 0.51181 0.87075
 C639 C -0.11878 0.50434 0.84676
 C640 C -0.10579 0.52557 0.83097
 H641 H -0.15002 0.53472 0.87504
 H642 H -0.11134 0.48152 0.84265
 H643 H -0.14904 0.46803 0.88156
 H644 H -0.11479 0.54799 0.83515
 C645 C 0.37298 0.02683 0.32920
 C646 C 0.35824 0.00470 0.34225
 C647 C 0.33320 0.01056 0.36575
 C648 C 0.31691 -0.01177 0.37696
 H649 H 0.36494 -0.01802 0.33592
 H650 H 0.32858 0.03321 0.37418
 H651 H 0.36468 0.04933 0.33441
 H652 H 0.32075 -0.03407 0.36692
 C653 C 0.16716 0.48491 0.89695
 C654 C 0.16645 0.49765 0.87027
 C655 C 0.13633 0.49701 0.85131
 C656 C 0.13546 0.50862 0.82404
 H657 H 0.18770 0.50899 0.86246
 H658 H 0.11457 0.48708 0.85997
 H659 H 0.14580 0.47266 0.90328
 H660 H 0.15787 0.51697 0.81491
 C661 C 0.60114 0.02408 0.33999
 C662 C 0.61632 0.00137 0.35201
 C663 C 0.63897 0.00638 0.37842
 C664 C 0.65308 -0.01641 0.39127
 H665 H 0.61103 -0.02116 0.34347
 H666 H 0.64383 0.02889 0.38733
 H667 H 0.60586 0.04629 0.35008
 H668 H 0.64878 -0.03859 0.38093
 C669 C 0.86270 0.51951 0.10910
 C670 C 0.86638 0.49952 0.12997
 C671 C 0.89393 0.50170 0.15214
 C672 C 0.89874 0.48091 0.17197
 H673 H 0.85004 0.48076 0.13013
 H674 H 0.91104 0.51979 0.15110
 H675 H 0.88039 0.53735 0.10901
 H676 H 0.88187 0.46240 0.17144
 C677 C 0.35727 -0.00088 0.67173
 C678 C 0.36093 -0.00093 0.64140
 C679 C 0.33256 -0.00146 0.62028
 C680 C 0.33651 -0.00741 0.59017
 H681 H 0.38524 -0.00114 0.63187
 H682 H 0.30841 0.00268 0.62946
 H683 H 0.33300 -0.00287 0.68099
 H684 H 0.36057 -0.01344 0.58174
   
