data_POSCAR
  _audit_creation_date              2014-09-24
  _audit_creation_method            'ToBaCCo'
  _symmetry_space_group_name_H-M    'P1'
  _symmetry_Int_Tables_number       1
  _symmetry_cell_setting            triclinic
  loop_
  _symmetry_equiv_pos_as_xyz
 x,y,z
_cell_length_a 40.2148
_cell_length_b 40.3617
_cell_length_c 44.6168
_cell_angle_alpha 90.803800
_cell_angle_beta 90.862400
_cell_angle_gamma 90.203300
loop_
  _atom_site_label
  _atom_site_type_symbol
  _atom_site_fract_x
  _atom_site_fract_y
  _atom_site_fract_z
C1 C 0.17972 0.21928 0.21944
 C2 C 0.19519 0.23007 0.19340
 C3 C 0.22155 0.21234 0.18165
 C4 C 0.23296 0.18383 0.19602
 C5 C 0.21780 0.17322 0.22191
 C6 C 0.19092 0.19098 0.23361
 C7 C 0.15312 0.23118 0.23533
 N8 N 0.14817 0.21062 0.25862
 C9 C 0.17096 0.18605 0.25795
 C10 C 0.23425 0.14521 0.23118
 N11 N 0.25884 0.13893 0.21143
 C12 C 0.25835 0.16213 0.18986
 C13 C 0.23125 0.22806 0.15603
 N14 N 0.21139 0.25482 0.15233
 C15 C 0.18936 0.25647 0.17490
 H16 H 0.13832 0.25278 0.23021
 H17 H 0.17257 0.16603 0.27379
 H18 H 0.22902 0.13076 0.25083
 H19 H 0.27545 0.16328 0.17140
 H20 H 0.25102 0.22063 0.14120
 H21 H 0.17036 0.27520 0.17734
 C22 C 0.71235 0.72026 0.73478
 C23 C 0.72416 0.73064 0.70707
 C24 C 0.74706 0.71152 0.69162
 C25 C 0.75852 0.68175 0.70396
 C26 C 0.74673 0.67165 0.73144
 C27 C 0.72364 0.69093 0.74690
 C28 C 0.68827 0.73251 0.75347
 N29 N 0.68502 0.71114 0.77646
 C30 C 0.70643 0.68573 0.77283
 C31 C 0.76108 0.64175 0.73781
 N32 N 0.78139 0.63359 0.71493
 C33 C 0.78018 0.65764 0.69406
 C34 C 0.75272 0.72695 0.66476
 N35 N 0.73381 0.75474 0.66402
 C36 C 0.71635 0.75733 0.68957
 H37 H 0.67324 0.75435 0.74994
 H38 H 0.70809 0.66437 0.78717
 H39 H 0.75725 0.62713 0.75762
 H40 H 0.79402 0.65756 0.67344
 H41 H 0.76877 0.71843 0.64701
 H42 H 0.69879 0.77681 0.69465
 C43 C 0.34333 0.80559 0.71942
 C44 C 0.32373 0.79669 0.69428
 C45 C 0.29405 0.81314 0.68841
 C46 C 0.28377 0.83893 0.70769
 C47 C 0.30387 0.84822 0.73193
 C48 C 0.33348 0.83145 0.73789
 C49 C 0.37040 0.79090 0.73318
 N50 N 0.37666 0.80752 0.75934
 C51 C 0.35452 0.83232 0.76242
 C52 C 0.28651 0.87035 0.74915
 N53 N 0.25637 0.87468 0.73617
 C54 C 0.25394 0.85558 0.71095
 C55 C 0.27947 0.79781 0.66361
 N56 N 0.29985 0.77296 0.65454
 C57 C 0.32668 0.77180 0.67312
 H58 H 0.38314 0.76875 0.72574
 H59 H 0.35255 0.84828 0.78201
 H60 H 0.29390 0.87996 0.77105
 H61 H 0.23143 0.85180 0.69770
 H62 H 0.25595 0.80411 0.65309
 H63 H 0.34670 0.75406 0.67136
 C64 C 0.81455 0.27278 0.23110
 C65 C 0.80490 0.26425 0.20161
 C66 C 0.78263 0.28413 0.18609
 C67 C 0.76944 0.31246 0.19989
 C68 C 0.77897 0.32085 0.22898
 C69 C 0.80169 0.30106 0.24459
 C70 C 0.83348 0.25682 0.25253
 N71 N 0.83232 0.27517 0.27813
 C72 C 0.81294 0.30200 0.27383
 C73 C 0.76059 0.34794 0.23751
 N74 N 0.74024 0.35594 0.21423
 C75 C 0.74530 0.33460 0.19110
 C76 C 0.77656 0.26932 0.15862
 N77 N 0.79459 0.24104 0.15727
 C78 C 0.81188 0.23745 0.18328
 H79 H 0.84565 0.23306 0.25019
 H80 H 0.80615 0.31976 0.29108
 H81 H 0.76114 0.36020 0.25925
 H82 H 0.73169 0.33461 0.16999
 H83 H 0.75986 0.27804 0.14121
 H84 H 0.82791 0.21676 0.18850
 C85 C 0.80976 0.76056 0.27627
 C86 C 0.79861 0.76410 0.30582
 C87 C 0.77652 0.74118 0.31693
 C88 C 0.76523 0.71479 0.29903
 C89 C 0.77580 0.71114 0.26977
 C90 C 0.79840 0.73427 0.25824
 C91 C 0.82913 0.78051 0.25878
 N92 N 0.82987 0.76680 0.23097
 C93 C 0.81114 0.73883 0.23001
 C94 C 0.75850 0.68437 0.25744
 N95 N 0.73819 0.67242 0.27889
 C96 C 0.74203 0.69072 0.30419
 C97 C 0.76755 0.75161 0.34500
 N98 N 0.78369 0.78042 0.35124
 C99 C 0.80287 0.78846 0.32767
 H100 H 0.84050 0.80393 0.26532
 H101 H 0.80601 0.72392 0.21010
 H102 H 0.75990 0.67493 0.23467
 H103 H 0.72827 0.68718 0.32458
 H104 H 0.74973 0.73980 0.35938
 H105 H 0.81760 0.81085 0.32613
 C106 C 0.31643 0.23842 -0.22332
 C107 C 0.30129 0.24120 -0.19530
 C108 C 0.27198 0.22430 -0.18998
 C109 C 0.25762 0.20416 -0.21255
 C110 C 0.27230 0.20171 -0.24051
 C111 C 0.30189 0.21914 -0.24600
 C112 C 0.34174 0.25630 -0.23580
 N113 N 0.34296 0.24829 -0.26529
 C114 C 0.31863 0.22598 -0.27209
 C115 C 0.25043 0.18440 -0.25912
 N116 N 0.22358 0.17615 -0.24280
 C117 C 0.22730 0.18828 -0.21456
 C118 C 0.26022 0.23554 -0.16281
 N119 N 0.28186 0.25870 -0.15180
 C120 C 0.30702 0.26236 -0.17126
 H121 H 0.35606 0.27595 -0.22495
 H122 H 0.31182 0.21767 -0.29454
 H123 H 0.25289 0.17995 -0.28297
 H124 H 0.20848 0.18750 -0.19747
 H125 H 0.23682 0.22894 -0.15277
 H126 H 0.32672 0.28061 -0.16899
 C127 C 0.68267 0.26414 -0.21758
 C128 C 0.69924 0.25881 -0.19015
 C129 C 0.73076 0.27187 -0.18519
 C130 C 0.74611 0.29028 -0.20748
 C131 C 0.73011 0.29506 -0.23490
 C132 C 0.69807 0.28185 -0.24001
 C133 C 0.65420 0.25029 -0.22988
 N134 N 0.65192 0.25925 -0.25894
 C135 C 0.67865 0.27812 -0.26570
 C136 C 0.75290 0.30970 -0.25351
 N137 N 0.78159 0.31406 -0.23762
 C138 C 0.77805 0.30213 -0.20973
 C139 C 0.74281 0.25909 -0.15873
 N140 N 0.71929 0.23863 -0.14770
 C141 C 0.69256 0.23821 -0.16652
 H142 H 0.63807 0.23252 -0.21932
 H143 H 0.68492 0.28602 -0.28802
 H144 H 0.74952 0.31504 -0.27708
 H145 H 0.79780 0.30037 -0.19306
 H146 H 0.76749 0.26277 -0.14921
 H147 H 0.67088 0.22256 -0.16412
 C148 C 0.17648 0.77012 0.26961
 C149 C 0.19245 0.76306 0.29702
 C150 C 0.22341 0.77680 0.30362
 C151 C 0.23902 0.79715 0.28294
 C152 C 0.22338 0.80418 0.25590
 C153 C 0.19176 0.79089 0.24937
 C154 C 0.14642 0.76033 0.25692
 N155 N 0.14334 0.77511 0.22989
 C156 C 0.17065 0.79381 0.22501
 C157 C 0.24565 0.82197 0.23916
 N158 N 0.27392 0.82570 0.25575
 C159 C 0.27041 0.81072 0.28241
 C160 C 0.23345 0.76551 0.33119
 N161 N 0.20931 0.74528 0.34140
 C162 C 0.18421 0.74331 0.32083
 H163 H 0.12794 0.74445 0.26680
 H164 H 0.17466 0.80852 0.20528
 H165 H 0.24238 0.82969 0.21616
 H166 H 0.28991 0.80808 0.29921
 H167 H 0.25670 0.77112 0.34276
 H168 H 0.16189 0.72853 0.32302
 C169 C 0.48321 0.45529 0.47646
 C170 C 0.49229 0.46951 0.44912
 C171 C 0.47469 0.49641 0.43817
 C172 C 0.44783 0.50933 0.45417
 C173 C 0.43881 0.49532 0.48103
 C174 C 0.45658 0.46821 0.49219
 C175 C 0.49498 0.42848 0.49238
 N176 N 0.47593 0.42526 0.51706
 C177 C 0.45247 0.44917 0.51718
 C178 C 0.41154 0.51243 0.49133
 N179 N 0.40410 0.53630 0.47122
 C180 C 0.42593 0.53473 0.44846
 C181 C 0.48836 0.50483 0.41122
 N182 N 0.51370 0.48366 0.40563
 C183 C 0.51643 0.46195 0.42844
 H184 H 0.51516 0.41221 0.48619
 H185 H 0.43348 0.45203 0.53395
 H186 H 0.39804 0.50776 0.51166
 H187 H 0.42567 0.55072 0.42919
 H188 H 0.48033 0.52460 0.39667
 H189 H 0.53446 0.44215 0.42973
 C190 C -0.02040 -0.08381 0.95314
 C191 C -0.01717 -0.06663 0.92620
 C192 C -0.03106 -0.03546 0.92324
 C193 C -0.04866 -0.02125 0.94698
 C194 C -0.05164 -0.03799 0.97380
 C195 C -0.03731 -0.06951 0.97694
 C196 C -0.00441 -0.11145 0.96384
 N197 N -0.01139 -0.11428 0.99327
 C198 C -0.03111 -0.08877 1.00174
 C199 C -0.06554 -0.01616 0.99416
 N200 N -0.07127 0.01271 0.97988
 C201 C -0.06086 0.01022 0.95131
 C202 C -0.01955 -0.02234 0.89701
 N203 N 0.00075 -0.04496 0.88410
 C204 C 0.00239 -0.07211 0.90151
 H205 H 0.01364 -0.12632 0.95197
 H206 H -0.03766 -0.08289 1.02466
 H207 H -0.06933 -0.02023 1.01780
 H208 H -0.06024 0.03040 0.93557
 H209 H -0.02393 0.00244 0.88889
 H210 H 0.01846 -0.09313 0.89756
 C211 C 1.00229 0.56516 0.97959
 C212 C 1.00210 0.55103 0.95064
 C213 C 1.02126 0.52332 0.94470
 C214 C 1.04075 0.50937 0.96743
 C215 C 1.04064 0.52289 0.99621
 C216 C 1.02132 0.55108 1.00233
 C217 C 0.98258 0.58903 0.99263
 N218 N 0.98953 0.58985 1.02239
 C219 C 1.01272 0.56667 1.02884
 C220 C 1.05742 0.50103 1.01454
 N221 N 1.06774 0.47534 0.99722
 C222 C 1.05759 0.47983 0.96860
 C223 C 1.01267 0.51187 0.91646
 N224 N 0.98884 0.53204 0.90523
 C225 C 0.98214 0.55609 0.92570
 H226 H 0.96292 0.60287 0.98174
 H227 H 1.02081 0.56003 1.05121
 H228 H 1.05981 0.50248 1.03873
 H229 H 1.06003 0.46178 0.95058
 H230 H 1.02152 0.48945 0.90568
 H231 H 0.96270 0.57440 0.92337
 C232 C 0.50433 0.05849 0.48355
 C233 C 0.49599 0.04270 0.45614
 C234 C 0.50807 0.01122 0.44996
 C235 C 0.52843 -0.00487 0.47083
 C236 C 0.53676 0.01065 0.49781
 C237 C 0.52473 0.04250 0.50413
 C238 C 0.49621 0.08888 0.49601
 N239 N 0.51143 0.09127 0.52334
 C240 C 0.52887 0.06331 0.52854
 C241 C 0.55538 -0.01143 0.51433
 N242 N 0.55832 -0.03950 0.49767
 C243 C 0.54202 -0.03612 0.47119
 C244 C 0.49579 0.00153 0.42232
 N245 N 0.47665 0.02639 0.41159
 C246 C 0.47641 0.05169 0.43189
 H247 H 0.48090 0.10784 0.48594
 H248 H 0.54356 0.05866 0.54856
 H249 H 0.56492 -0.00788 0.53698
 H250 H 0.53927 -0.05529 0.45411
 H251 H 0.50023 -0.02188 0.41095
 H252 H 0.46288 0.07462 0.42925
 C253 C -0.01647 0.04917 0.51239
 C254 C -0.00414 0.03340 0.53805
 C255 C -0.02339 0.00976 0.55196
 C256 C -0.05504 0.00173 0.54060
 C257 C -0.06722 0.01719 0.51522
 C258 C -0.04776 0.04092 0.50095
 C259 C -0.00446 0.07473 0.49547
 N260 N -0.02773 0.08168 0.47417
 C261 C -0.05418 0.06132 0.47716
 C262 C -0.09909 0.00561 0.51006
 N263 N -0.10607 -0.01637 0.53183
 C264 C -0.07955 -0.01904 0.55057
 C265 C -0.00663 0.00028 0.57743
 N266 N 0.02226 0.01764 0.57921
 C267 C 0.02424 0.03795 0.55540
 H268 H 0.01881 0.08790 0.49892
 H269 H -0.07684 0.06228 0.46379
 H270 H -0.11586 0.01261 0.49206
 H271 H -0.07833 -0.03482 0.56997
 H272 H -0.01541 -0.01680 0.59407
 H273 H 0.04402 0.05565 0.55181
 C274 C 0.47166 0.56274 0.02000
 C275 C 0.47851 0.55329 0.04961
 C276 C 0.45661 0.53265 0.06428
 C277 C 0.42752 0.52145 0.04965
 C278 C 0.42066 0.53087 0.02047
 C279 C 0.44283 0.55157 0.00556
 C280 C 0.49015 0.57935 -0.00087
 N281 N 0.47287 0.57850 -0.02713
 C282 C 0.44415 0.56156 -0.02376
 C283 C 0.39229 0.51430 0.01109
 N284 N 0.38202 0.49529 0.03403
 C285 C 0.40321 0.49930 0.05765
 C286 C 0.47059 0.52560 0.09181
 N287 N 0.50019 0.54169 0.09404
 C288 C 0.50541 0.55867 0.06858
 H289 H 0.51497 0.58942 0.00227
 H290 H 0.42668 0.55526 -0.04166
 H291 H 0.38072 0.51506 -0.01095
 H292 H 0.40164 0.48616 0.07857
 H293 H 0.46034 0.50965 0.10868
 H294 H 0.52744 0.57312 0.06402
 C295 C 0.53970 -0.07538 0.03269
 C296 C 0.52832 -0.05861 0.05829
 C297 C 0.54559 -0.03123 0.06960
 C298 C 0.57418 -0.02003 0.05517
 C299 C 0.58527 -0.03646 0.02975
 C300 C 0.56808 -0.06435 0.01859
 C301 C 0.52850 -0.10313 0.01717
 N302 N 0.54964 -0.10887 -0.00573
 C303 C 0.57381 -0.08549 -0.00519
 C304 C 0.61309 -0.02001 0.02016
 N305 N 0.61892 0.00587 0.03924
 C306 C 0.59555 0.00618 0.06076
 C307 C 0.52924 -0.02027 0.09475
 N308 N 0.50257 -0.04033 0.09860
 C309 C 0.50157 -0.06373 0.07659
 H310 H 0.50705 -0.11817 0.02231
 H311 H 0.59414 -0.08427 -0.02077
 H312 H 0.62779 -0.02617 0.00074
 H313 H 0.59405 0.02433 0.07878
 H314 H 0.53610 0.00061 0.10905
 H315 H 0.48296 -0.08307 0.07430
 C316 C 1.05003 0.43395 0.52837
 C317 C 1.04208 0.44532 0.55713
 C318 C 1.05256 0.47637 0.56692
 C319 C 1.07110 0.49644 0.54795
 C320 C 1.07889 0.48529 0.51928
 C321 C 1.06829 0.45370 0.50942
 C322 C 1.04043 0.40612 0.51247
 N323 N 1.05252 0.40846 0.48439
 C324 C 1.06956 0.43731 0.48206
 C325 C 1.09329 0.51150 0.50471
 N326 N 1.09445 0.53762 0.52407
 C327 C 1.08087 0.52906 0.55038
 C328 C 1.03808 0.48241 0.59424
 N329 N 1.01920 0.45565 0.60087
 C330 C 1.02134 0.43288 0.57850
 H331 H 1.02499 0.38614 0.52041
 H332 H 1.08095 0.44608 0.46181
 H333 H 1.10038 0.51219 0.48141
 H334 H 1.07650 0.54586 0.56903
 H335 H 1.03956 0.50512 0.60739
 H336 H 1.00742 0.40988 0.57721
 C337 C 0.44771 -0.00128 0.21902
 H338 H 0.45529 0.00890 0.24061
 C339 C 0.47023 -0.00212 0.19545
 H340 H 0.49522 0.00742 0.19886
 C341 C 0.40611 -0.02652 0.18802
 H342 H 0.38107 -0.03611 0.18542
 C343 C 0.42799 -0.02839 0.16410
 H344 H 0.41959 -0.03928 0.14300
 N345 N 0.41642 -0.01364 0.21494
 C346 C 0.33040 0.02174 0.26436
 H347 H 0.33096 0.00626 0.28395
 C348 C 0.30647 0.04656 0.26178
 H349 H 0.28833 0.05003 0.27923
 C350 C 0.35392 0.03705 0.21813
 H351 H 0.37264 0.03351 0.20128
 C352 C 0.33050 0.06218 0.21471
 H353 H 0.33133 0.07770 0.19514
 Zn354 Zn 0.38649 -0.01569 0.24714
 N355 N 0.35347 0.01738 0.24264
 C356 C 0.40583 0.01912 0.30061
 N357 N 0.41007 -0.00905 0.28394
 C358 C 0.43127 -0.03317 0.29313
 C359 C 0.44856 -0.02987 0.32036
 C360 C 0.42269 0.02342 0.32804
 C361 C 0.33422 -0.06410 0.25111
 C362 C 0.32082 -0.09606 0.24854
 C363 C 0.37499 -0.11627 0.23470
 C364 C 0.38748 -0.08415 0.23807
 N365 N 0.36711 -0.05875 0.24604
 H366 H 0.38948 0.03838 0.29266
 H367 H 0.43464 -0.05513 0.27943
 H368 H 0.46513 -0.04936 0.32765
 H369 H 0.41889 0.04580 0.34118
 H370 H 0.31818 -0.04371 0.25687
 H371 H 0.29463 -0.09998 0.25257
 H372 H 0.39133 -0.13621 0.22799
 H373 H 0.41339 -0.07935 0.23362
 C374 C 0.30647 0.06710 0.23683
 C375 C 0.46059 -0.01635 0.16789
 C376 C 0.34144 -0.12246 0.24003
 C377 C 0.44417 -0.00151 0.33815
 C378 C 0.06495 -0.01017 0.70579
 H379 H 0.05483 -0.02017 0.72601
 C380 C 0.04661 -0.01283 0.67914
 H381 H 0.02252 -0.02493 0.67892
 C382 C 0.10785 0.01879 0.68120
 H383 H 0.13160 0.03145 0.68238
 C384 C 0.09000 0.01714 0.65409
 H385 H 0.10012 0.02845 0.63434
 N386 N 0.09484 0.00571 0.70644
 C387 C 0.16038 -0.02542 0.77704
 H388 H 0.15044 -0.01094 0.79539
 C389 C 0.18011 -0.05288 0.78302
 H390 H 0.18564 -0.05948 0.80599
 C391 C 0.16345 -0.03607 0.72472
 H392 H 0.15575 -0.03012 0.70212
 C393 C 0.18435 -0.06318 0.72972
 H394 H 0.19294 -0.07796 0.71095
 Zn395 Zn 0.11716 0.01302 0.74351
 N396 N 0.15158 -0.01820 0.74834
 C397 C 0.07902 -0.02509 0.78209
 N398 N 0.08683 0.00673 0.77520
 C399 C 0.07425 0.03272 0.79109
 C400 C 0.05282 0.02708 0.81491
 C401 C 0.05813 -0.03182 0.80593
 C402 C 0.16624 0.06362 0.75211
 C403 C 0.17868 0.09597 0.75023
 C404 C 0.12500 0.11347 0.73138
 C405 C 0.11346 0.08103 0.73402
 N406 N 0.13412 0.05685 0.74402
 H407 H 0.08942 -0.04534 0.76919
 H408 H 0.08093 0.05779 0.78543
 H409 H 0.04299 0.04782 0.82757
 H410 H 0.05248 -0.05729 0.81124
 H411 H 0.18228 0.04391 0.75971
 H412 H 0.20431 0.10107 0.75655
 H413 H 0.10851 0.13247 0.72298
 H414 H 0.08815 0.07489 0.72746
 C415 C 0.19190 -0.07220 0.75928
 C416 C 0.05878 0.00149 0.65319
 C417 C 0.15786 0.12119 0.73945
 C418 C 0.04490 -0.00545 0.82268
 C419 C 0.56122 0.49173 0.20930
 H420 H 0.55979 0.47151 0.22489
 C421 C 0.53901 0.49311 0.18494
 H422 H 0.52041 0.47388 0.18166
 C423 C 0.58683 0.54182 0.19459
 H424 H 0.60499 0.56116 0.19867
 C425 C 0.56543 0.54391 0.16979
 H426 H 0.56757 0.56472 0.15489
 N427 N 0.58472 0.51575 0.21351
 C428 C 0.66621 0.47284 0.26495
 H429 H 0.66721 0.49036 0.28353
 C430 C 0.68953 0.44748 0.26322
 H431 H 0.70842 0.44515 0.28060
 C432 C 0.64085 0.45490 0.21917
 H433 H 0.62216 0.45830 0.20184
 C434 C 0.66397 0.42928 0.21642
 H435 H 0.66267 0.41274 0.19712
 Zn436 Zn 0.61406 0.51286 0.24701
 N437 N 0.64235 0.47593 0.24327
 C438 C 0.59200 0.48343 0.30103
 N439 N 0.58833 0.50964 0.28236
 C440 C 0.56574 0.53383 0.28811
 C441 C 0.54638 0.53267 0.31384
 C442 C 0.57325 0.48141 0.32709
 C443 C 0.66450 0.55406 0.22620
 C444 C 0.68732 0.58025 0.22692
 C445 C 0.66502 0.59771 0.27456
 C446 C 0.64251 0.57136 0.27286
 N447 N 0.64252 0.55027 0.24884
 H448 H 0.60936 0.46394 0.29578
 H449 H 0.56291 0.55414 0.27272
 H450 H 0.52861 0.55214 0.31834
 H451 H 0.57663 0.46052 0.34176
 H452 H 0.66440 0.53650 0.20765
 H453 H 0.70475 0.58306 0.20886
 H454 H 0.66474 0.61415 0.29393
 H455 H 0.62545 0.56750 0.29095
 C456 C 0.68865 0.42557 0.23872
 C457 C 0.54125 0.51923 0.16478
 C458 C 0.68786 0.60225 0.25137
 C459 C 0.55022 0.50641 0.33372
 C460 C 0.95401 0.49230 0.71759
 H461 H 0.95688 0.50823 0.73716
 C462 C 0.97704 0.49389 0.69454
 H463 H 0.99777 0.51104 0.69627
 C464 C 0.92316 0.45090 0.69096
 H465 H 0.90174 0.43467 0.68946
 C466 C 0.94582 0.45137 0.66762
 H467 H 0.94178 0.43529 0.64828
 N468 N 0.92787 0.47086 0.71547
 C469 C 0.84157 0.50810 0.76215
 H470 H 0.84111 0.49263 0.78174
 C471 C 0.81951 0.53451 0.75967
 H472 H 0.80172 0.53922 0.77720
 C473 C 0.86644 0.52218 0.71614
 H474 H 0.88510 0.51755 0.69944
 C475 C 0.84487 0.54897 0.71285
 H476 H 0.84701 0.56478 0.69357
 Zn477 Zn 0.89720 0.46952 0.74698
 N478 N 0.86475 0.50269 0.74074
 C479 C 0.91602 0.50856 0.79767
 N480 N 0.92060 0.47883 0.78351
 C481 C 0.94293 0.45653 0.79427
 C482 C 0.96115 0.46351 0.82054
 C483 C 0.93360 0.51644 0.82403
 C484 C 0.84369 0.42254 0.74966
 C485 C 0.82956 0.39083 0.74842
 C486 C 0.88438 0.36803 0.74161
 C487 C 0.89757 0.40001 0.74380
 N488 N 0.87723 0.42660 0.74753
 H489 H 0.89922 0.52658 0.78831
 H490 H 0.94681 0.43340 0.78242
 H491 H 0.97879 0.44560 0.82903
 H492 H 0.92958 0.54016 0.83499
 H493 H 0.82769 0.44378 0.75195
 H494 H 0.80287 0.38797 0.75006
 H495 H 0.90073 0.34713 0.73807
 H496 H 0.92403 0.40372 0.74143
 C497 C 0.82143 0.55550 0.73513
 C498 C 0.97318 0.47307 0.66942
 C499 C 0.85013 0.36322 0.74407
 C500 C 0.95644 0.49365 0.83569
 C501 C 0.17843 0.41564 -0.00423
 H502 H 0.19856 0.43179 -0.01039
 C503 C 0.14673 0.42892 0.00005
 H504 H 0.14267 0.45513 -0.00321
 C505 C 0.15911 0.36226 0.00874
 H506 H 0.16424 0.33642 0.01282
 C507 C 0.12735 0.37464 0.01391
 H508 H 0.10792 0.35823 0.02144
 N509 N 0.18405 0.38280 0.00021
 C510 C 0.24466 0.30561 0.03007
 H511 H 0.25478 0.29766 0.00885
 C512 C 0.24532 0.28423 0.05440
 H513 H 0.25587 0.25971 0.05197
 C514 C 0.21827 0.34708 0.05938
 H515 H 0.20772 0.37165 0.06103
 C516 C 0.21797 0.32634 0.08408
 H517 H 0.20722 0.33508 0.10482
 Zn518 Zn 0.22752 0.36444 -0.00028
 N519 N 0.23101 0.33626 0.03295
 C520 C 0.28013 0.39929 0.02852
 N521 N 0.26033 0.39823 0.00351
 C522 C 0.26449 0.42019 -0.01903
 C523 C 0.28949 0.44429 -0.01694
 C524 C 0.30527 0.42304 0.03156
 C525 C 0.21087 0.31626 -0.04463
 C526 C 0.21612 0.29581 -0.06964
 C527 C 0.26954 0.32212 -0.07592
 C528 C 0.26331 0.34205 -0.05080
 N529 N 0.23429 0.33892 -0.03576
 H530 H 0.27677 0.38149 0.04606
 H531 H 0.24877 0.41855 -0.03889
 H532 H 0.29295 0.46141 -0.03510
 H533 H 0.32094 0.42330 0.05150
 H534 H 0.18825 0.31376 -0.03211
 H535 H 0.19739 0.27780 -0.07652
 H536 H 0.29281 0.32488 -0.08753
 H537 H 0.28204 0.35950 -0.04299
 C538 C 0.23136 0.29437 0.08152
 C539 C 0.12097 0.40825 0.00971
 C540 C 0.24571 0.29859 -0.08548
 C541 C 0.31020 0.44576 0.00851
 C542 C 0.73454 0.07634 -0.01698
 H543 H 0.74870 0.07693 -0.03739
 C544 C 0.70909 0.05302 -0.01401
 H545 H 0.70387 0.03536 -0.03197
 C546 C 0.72318 0.09911 0.03103
 H547 H 0.72851 0.11723 0.04849
 C548 C 0.69742 0.07637 0.03484
 H549 H 0.68329 0.07711 0.05529
 N550 N 0.74130 0.09862 0.00550
 C551 C 0.79205 0.17663 -0.04325
 H552 H 0.81556 0.17784 -0.03123
 C553 C 0.78656 0.19701 -0.06787
 H554 H 0.80597 0.21369 -0.07497
 C555 C 0.73771 0.15413 -0.04847
 H556 H 0.71846 0.13792 -0.04045
 C557 C 0.73119 0.17412 -0.07320
 H558 H 0.70710 0.17273 -0.08432
 Zn559 Zn 0.77575 0.13041 0.00093
 N560 N 0.76780 0.15566 -0.03407
 C561 C 0.84488 0.12829 0.00789
 N562 N 0.81811 0.10957 -0.00078
 C563 C 0.82160 0.07693 -0.00826
 C564 C 0.85297 0.06205 -0.00729
 C565 C 0.87648 0.11424 0.00977
 C566 C 0.76411 0.19066 0.03195
 C567 C 0.76493 0.21241 0.05655
 C568 C 0.79113 0.16967 0.08597
 C569 C 0.78951 0.14859 0.06090
 N570 N 0.77635 0.15944 0.03455
 H571 H 0.84157 0.15404 0.01409
 H572 H 0.80018 0.06218 -0.01463
 H573 H 0.85536 0.03606 -0.01316
 H574 H 0.89751 0.12924 0.01715
 H575 H 0.75356 0.19866 0.01085
 H576 H 0.75510 0.23722 0.05439
 H577 H 0.80178 0.16077 0.10676
 H578 H 0.79894 0.12358 0.06233
 C579 C 0.75588 0.19595 -0.08301
 C580 C 0.69026 0.05296 0.01208
 C581 C 0.77873 0.20203 0.08376
 C582 C 0.88074 0.08087 0.00212
 C583 C 0.19977 0.60555 0.51505
 H584 H 0.22160 0.59040 0.51788
 C585 C 0.16829 0.59074 0.51581
 H586 H 0.16621 0.56439 0.51963
 C587 C 0.17551 0.65780 0.50530
 H588 H 0.17840 0.68365 0.50001
 C589 C 0.14373 0.64398 0.50560
 H590 H 0.12223 0.65940 0.50137
 N591 N 0.20282 0.63863 0.51002
 C592 C 0.25639 0.71392 0.46686
 H593 H 0.27033 0.72450 0.48559
 C594 C 0.25343 0.73130 0.44007
 H595 H 0.26514 0.75535 0.43808
 C596 C 0.22443 0.66948 0.44611
 H597 H 0.21346 0.64519 0.44860
 C598 C 0.22031 0.68627 0.41921
 H599 H 0.20624 0.67476 0.40097
 Zn600 Zn 0.24478 0.65972 0.50540
 N601 N 0.24189 0.68362 0.46935
 C602 C 0.29786 0.62712 0.47671
 N603 N 0.27956 0.62790 0.50214
 C604 C 0.28634 0.60701 0.52513
 C605 C 0.31233 0.58420 0.52299
 C606 C 0.32411 0.60482 0.47372
 C607 C 0.23122 0.71395 0.54449
 C608 C 0.23640 0.73548 0.56895
 C609 C 0.28771 0.70704 0.58004
 C610 C 0.28159 0.68607 0.55536
 N611 N 0.25344 0.68948 0.53834
 H612 H 0.29233 0.64400 0.45875
 H613 H 0.27175 0.60830 0.54529
 H614 H 0.31762 0.56776 0.54141
 H615 H 0.33844 0.60468 0.45337
 H616 H 0.20944 0.71695 0.53042
 H617 H 0.21846 0.75470 0.57374
 H618 H 0.31012 0.70376 0.59340
 H619 H 0.29947 0.66715 0.54987
 C620 C 0.23494 0.71760 0.41610
 C621 C 0.13990 0.61019 0.51082
 C622 C 0.26473 0.73197 0.58714
 C623 C 0.33157 0.58307 0.49714
 C624 C 0.67454 0.91384 0.50738
 H625 H 0.69316 0.93238 0.50302
 C626 C 0.64103 0.92298 0.50813
 H627 H 0.63416 0.94847 0.50412
 C628 C 0.66044 0.85834 0.51852
 H629 H 0.66817 0.83323 0.52293
 C630 C 0.62684 0.86651 0.51993
 H631 H 0.60869 0.84764 0.52509
 N632 N 0.68356 0.88183 0.51219
 C633 C 0.75057 0.80854 0.53949
 H634 H 0.76018 0.80213 0.51768
 C635 C 0.75456 0.78661 0.56323
 H636 H 0.76707 0.76320 0.55968
 C637 C 0.72263 0.84681 0.57103
 H638 H 0.71025 0.87039 0.57380
 C639 C 0.72584 0.82554 0.59526
 H640 H 0.71585 0.83289 0.61672
 Zn641 Zn 0.72853 0.86758 0.51183
 N642 N 0.73473 0.83793 0.54380
 C643 C 0.78118 0.90265 0.53967
 N644 N 0.75877 0.90344 0.51655
 C645 C 0.76062 0.92694 0.49503
 C646 C 0.78676 0.94983 0.49548
 C647 C 0.80767 0.92498 0.54093
 C648 C 0.71660 0.82035 0.46588
 C649 C 0.72277 0.80285 0.43938
 C650 C 0.77180 0.83644 0.43246
 C651 C 0.76491 0.85313 0.45926
 N652 N 0.73747 0.84512 0.47523
 H653 H 0.77961 0.88363 0.55637
 H654 H 0.74309 0.92652 0.47640
 H655 H 0.78899 0.96746 0.47755
 H656 H 0.82598 0.92311 0.55885
 H657 H 0.69532 0.81395 0.47910
 H658 H 0.70612 0.78307 0.43211
 H659 H 0.79371 0.84302 0.42002
 H660 H 0.78188 0.87206 0.46742
 C661 C 0.74190 0.79495 0.59135
 C662 C 0.61685 0.89899 0.51448
 C663 C 0.75046 0.81099 0.42239
 C664 C 0.81109 0.94829 0.51812
 C665 C 0.02107 0.20827 0.41953
 H666 H 0.03937 0.22776 0.42268
 C667 C 0.02177 0.18062 0.43798
 H668 H 0.04055 0.17875 0.45551
 C669 C -0.02610 0.18690 0.39308
 H670 H -0.04451 0.18934 0.37536
 C671 C -0.02644 0.15899 0.41113
 H672 H -0.04539 0.14022 0.40733
 N673 N -0.00295 0.21110 0.39792
 C674 C 0.03163 0.27052 0.32362
 H675 H 0.01601 0.29227 0.32434
 C676 C 0.05627 0.26772 0.30193
 H677 H 0.05964 0.28729 0.28589
 C678 C 0.04671 0.21846 0.34355
 H679 H 0.04302 0.19920 0.35971
 C680 C 0.07162 0.21477 0.32243
 H681 H 0.08679 0.19267 0.32262
 Zn682 Zn -0.00447 0.24991 0.37478
 N683 N 0.02750 0.24616 0.34405
 C684 C 0.02843 0.30995 0.39411
 N685 N 0.00558 0.28630 0.40091
 C686 C -0.00993 0.28672 0.42780
 C687 C -0.00298 0.31161 0.44891
 C688 C 0.03599 0.33552 0.41464
 C689 C -0.05484 0.25724 0.32889
 C690 C -0.08770 0.25888 0.31817
 C691 C -0.10663 0.25355 0.36898
 C692 C -0.07361 0.25265 0.37876
 N693 N -0.04841 0.25430 0.35881
 H694 H 0.04113 0.30894 0.37300
 H695 H -0.02700 0.26713 0.43333
 H696 H -0.01523 0.31150 0.47036
 H697 H 0.05426 0.35412 0.40906
 H698 H -0.03465 0.25786 0.31324
 H699 H -0.09255 0.26106 0.29435
 H700 H -0.12645 0.25165 0.38504
 H701 H -0.06818 0.24943 0.40228
 C702 C 0.07671 0.23976 0.30145
 C703 C -0.00246 0.15595 0.43412
 C704 C -0.11393 0.25677 0.33851
 C705 C 0.02011 0.33627 0.44243
 C706 C -0.05908 0.69514 0.10471
 H707 H -0.07871 0.70701 0.11706
 C708 C -0.06506 0.66436 0.09103
 H709 H -0.08910 0.65253 0.09321
 C710 C -0.00422 0.69597 0.08604
 H711 H 0.01945 0.70855 0.08424
 C712 C -0.00935 0.66528 0.07161
 H713 H 0.01048 0.65424 0.05877
 N714 N -0.02890 0.71015 0.10234
 C715 C -0.07559 0.79531 0.13376
 H716 H -0.06609 0.81073 0.11629
 C717 C -0.10446 0.80484 0.14855
 H718 H -0.11727 0.82724 0.14205
 C719 C -0.07039 0.74815 0.16449
 H720 H -0.05687 0.72605 0.17057
 C721 C -0.09911 0.75690 0.17999
 H722 H -0.10763 0.74143 0.19797
 Zn723 Zn -0.02093 0.75215 0.12099
 N724 N -0.05959 0.76692 0.14140
 C725 C -0.02984 0.79296 0.06938
 N726 N -0.00782 0.78241 0.09071
 C727 C 0.02446 0.79267 0.09067
 C728 C 0.03517 0.81574 0.06995
 C729 C -0.02022 0.81659 0.04840
 C730 C 0.02801 0.72006 0.15782
 C731 C 0.05449 0.71953 0.17857
 C732 C 0.05060 0.77906 0.18353
 C733 C 0.02360 0.77837 0.16353
 N734 N 0.01361 0.74935 0.15033
 H735 H -0.05506 0.78353 0.06901
 H736 H 0.04218 0.78285 0.10659
 H737 H 0.06083 0.82398 0.07042
 H738 H -0.03812 0.82541 0.03203
 H739 H 0.01919 0.69719 0.14757
 H740 H 0.06621 0.69627 0.18416
 H741 H 0.05897 0.80249 0.19312
 H742 H 0.01129 0.80121 0.15760
 C743 C -0.11661 0.78546 0.17172
 C744 C -0.04017 0.64919 0.07424
 C745 C 0.06656 0.74938 0.19092
 C746 C 0.01268 0.82842 0.04897
 C747 C 0.46884 0.22145 0.57959
 H748 H 0.44932 0.23983 0.57931
 C749 C 0.46744 0.19445 0.55951
 H750 H 0.44674 0.19188 0.54385
 C751 C 0.52014 0.20259 0.59966
 H752 H 0.54135 0.20628 0.61443
 C753 C 0.51951 0.17516 0.58036
 H754 H 0.53997 0.15781 0.58103
 N755 N 0.49475 0.22481 0.59941
 C756 C 0.45639 0.29359 0.66693
 H757 H 0.47631 0.31168 0.66676
 C758 C 0.42788 0.29997 0.68338
 H759 H 0.42568 0.32307 0.69582
 C760 C 0.43424 0.24203 0.64993
 H761 H 0.43676 0.21965 0.63658
 C762 C 0.40570 0.24689 0.66714
 H763 H 0.38604 0.22849 0.66673
 Zn764 Zn 0.49700 0.26243 0.62558
 N765 N 0.45852 0.26567 0.64967
 C766 C 0.47364 0.32129 0.59912
 N767 N 0.50020 0.30056 0.60094
 C768 C 0.52708 0.30486 0.58316
 C769 C 0.52796 0.33103 0.56282
 C770 C 0.47363 0.34778 0.57941
 C771 C 0.53195 0.22973 0.66923
 C772 C 0.55883 0.22012 0.68705
 C773 C 0.58789 0.26993 0.67312
 C774 C 0.56067 0.27813 0.65455
 N775 N 0.53380 0.25749 0.65241
 H776 H 0.45174 0.31675 0.61212
 H777 H 0.54751 0.28753 0.58431
 H778 H 0.54922 0.33405 0.54850
 H779 H 0.45200 0.36362 0.57820
 H780 H 0.51017 0.21397 0.66737
 H781 H 0.55782 0.19693 0.69891
 H782 H 0.60976 0.28565 0.67396
 H783 H 0.56145 0.30034 0.64131
 C784 C 0.40223 0.27658 0.68349
 C785 C 0.49284 0.17082 0.56002
 C786 C 0.58720 0.24007 0.68889
 C787 C 0.50095 0.35276 0.56077
 C788 C 0.50278 0.68623 0.92217
 H789 H 0.50099 0.70713 0.93739
 C790 C 0.49752 0.65423 0.93289
 H791 H 0.49153 0.65084 0.95623
 C792 C 0.51333 0.66473 0.87358
 H793 H 0.52031 0.66870 0.85066
 C794 C 0.50874 0.63244 0.88343
 H795 H 0.51153 0.61179 0.86793
 N796 N 0.51017 0.69096 0.89283
 C797 C 0.56116 0.76010 0.83631
 H798 H 0.54220 0.77892 0.83435
 C799 C 0.58882 0.76098 0.81790
 H800 H 0.59123 0.78043 0.80159
 C801 C 0.58081 0.71116 0.85938
 H802 H 0.57752 0.69185 0.87563
 C803 C 0.60883 0.71104 0.84130
 H804 H 0.62689 0.69138 0.84354
 Zn805 Zn 0.51722 0.73419 0.87734
 N806 N 0.55738 0.73511 0.85613
 C807 C 0.54789 0.78485 0.91174
 N808 N 0.51940 0.76677 0.90858
 C809 C 0.49290 0.77259 0.92656
 C810 C 0.49430 0.79789 0.94831
 C811 C 0.55022 0.81045 0.93296
 C812 C 0.48070 0.72617 0.82339
 C813 C 0.45835 0.73483 0.80060
 C814 C 0.44160 0.78187 0.83069
 C815 C 0.46421 0.77230 0.85295
 N816 N 0.48320 0.74478 0.84903
 H817 H 0.56884 0.77977 0.89756
 H818 H 0.47044 0.75800 0.92360
 H819 H 0.47300 0.80268 0.96226
 H820 H 0.57299 0.82477 0.93483
 H821 H 0.49686 0.70525 0.82002
 H822 H 0.45680 0.72005 0.78017
 H823 H 0.42692 0.80399 0.83412
 H824 H 0.46716 0.78751 0.87288
 C825 C 0.61261 0.73598 0.81994
 C826 C 0.50051 0.62697 0.91322
 C827 C 0.43875 0.76304 0.80405
 C828 C 0.52303 0.81736 0.95134
 N829 N 0.12301 0.21329 0.27993
 N830 N 0.10248 0.23722 0.27975
 N831 N 0.66036 0.71218 0.79832
 N832 N 0.63911 0.73541 0.79895
 N833 N 0.39911 0.79846 0.78212
 N834 N 0.41648 0.77228 0.78027
 N835 N -0.15725 0.26576 0.30394
 N836 N -0.14810 0.25713 0.32909
 N837 N -0.15794 0.78109 0.20804
 N838 N -0.14661 0.79545 0.18621
 N839 N 0.35795 0.26625 0.71556
 N840 N 0.37197 0.28492 0.69814
 N841 N 0.63337 0.24387 0.72172
 N842 N 0.61591 0.22741 0.70410
 N843 N 0.11554 0.77373 0.21051
 N844 N 0.09528 0.74942 0.21031
 N845 N 0.28222 0.11329 0.21312
 N846 N 0.28242 0.09307 0.23473
 N847 N 0.80163 0.60538 0.71364
 N848 N 0.80057 0.58407 0.73436
 N849 N 0.80962 0.32263 0.75144
 N850 N 0.83698 0.33027 0.74152
 N851 N 0.30188 -0.16439 0.24564
 N852 N 0.32909 -0.15557 0.23622
 N853 N 0.23179 -0.11320 0.75060
 N854 N 0.20923 -0.10204 0.76607
 N855 N 0.71605 0.38091 0.21447
 N856 N 0.71315 0.40004 0.23716
 N857 N 0.71512 0.64641 0.27621
 N858 N 0.71201 0.62847 0.25270
 N859 N 0.19607 0.16477 0.74625
 N860 N 0.16929 0.15457 0.73593
 N861 N 0.21242 0.27718 0.12861
 N862 N 0.23032 0.27169 0.10582
 N863 N 0.73106 0.77713 0.64036
 N864 N 0.74515 0.77198 0.61540
 N865 N 0.77913 0.80004 0.37706
 N866 N 0.75650 0.79254 0.39547
 N867 N 0.27727 0.27910 -0.12645
 N868 N 0.25093 0.27745 -0.11106
 N869 N 0.72327 0.21784 -0.12290
 N870 N 0.75059 0.21718 -0.10811
 N871 N 0.21053 0.72802 0.36848
 N872 N 0.23208 0.73546 0.38870
 N873 N 0.29485 0.75145 0.62985
 N874 N 0.26966 0.75391 0.61241
 N875 N 0.79473 0.21830 0.13319
 N876 N 0.77959 0.22469 0.10871
 N877 N 0.47765 0.40009 0.53845
 N878 N 0.50092 0.37876 0.53908
 N879 N 0.00628 0.86855 0.01150
 N880 N 0.02442 0.85288 0.02867
 N881 N -0.02877 0.60432 0.04191
 N882 N -0.04714 0.61764 0.06033
 N883 N 0.51120 0.11858 0.54315
 N884 N 0.49160 0.14297 0.53967
 N885 N -0.02667 0.10778 0.45381
 N886 N -0.00300 0.12877 0.45435
 N887 N 0.48464 0.58656 0.94741
 N888 N 0.49571 0.59357 0.92270
 N889 N 0.54806 0.86482 0.97342
 N890 N 0.52404 0.84419 0.97273
 N891 N 0.04667 0.38551 0.46094
 N892 N 0.02728 0.36101 0.46486
 N893 N 0.37783 0.55906 0.47293
 N894 N 0.35850 0.55995 0.49527
 N895 N 0.92057 0.04010 -0.00732
 N896 N 0.91330 0.06678 0.00457
 N897 N 0.64450 0.02941 0.03703
 N898 N 0.66399 0.02919 0.01481
 N899 N 0.10119 0.56752 0.51689
 N900 N 0.10704 0.59643 0.51023
 N901 N 0.07865 0.44768 0.00713
 N902 N 0.08851 0.42069 0.01616
 N903 N 0.57075 0.93323 0.50702
 N904 N 0.58217 0.90674 0.51577
 N905 N 0.86460 0.96510 0.53441
 N906 N 0.84026 0.96850 0.51619
 N907 N 0.35554 0.47256 0.03305
 N908 N 0.33660 0.46966 0.01005
 N909 N 0.53381 0.48363 0.38012
 N910 N 0.53038 0.50567 0.36015
 N911 N 0.02076 -0.03981 0.85906
 N912 N 0.02416 -0.01113 0.84795
 N913 N 0.04451 0.01787 0.60374
 N914 N 0.03801 0.00123 0.62694
 N915 N 0.52270 0.54056 0.11835
 N916 N 0.51870 0.52034 0.13965
 N917 N 0.47936 -0.03792 0.12170
 N918 N 0.48432 -0.01894 0.14436
 N919 N 0.99714 0.45321 0.62477
 N920 N 0.99670 0.47487 0.64574
 N921 N 0.97059 0.52651 0.87854
 N922 N 0.97497 0.50039 0.86276
 N923 N 0.45923 0.02582 0.38405
 N924 N 0.46153 0.00095 0.36634
   
