data_POSCAR
  _audit_creation_date              2014-09-24
  _audit_creation_method            'ToBaCCo'
  _symmetry_space_group_name_H-M    'P1'
  _symmetry_Int_Tables_number       1
  _symmetry_cell_setting            triclinic
  loop_
  _symmetry_equiv_pos_as_xyz
 x,y,z
_cell_length_a 50.0293
_cell_length_b 50.0376
_cell_length_c 50.0781
_cell_angle_alpha 89.991500
_cell_angle_beta 90.005100
_cell_angle_gamma 90.027800
loop_
  _atom_site_label
  _atom_site_type_symbol
  _atom_site_fract_x
  _atom_site_fract_y
  _atom_site_fract_z
N1 N 0.16481 0.22828 0.23457
 N2 N 0.17189 0.20694 0.24811
 C3 C 0.15479 0.20353 0.26861
 C4 C 0.13591 0.22383 0.26790
 C5 C 0.14302 0.23914 0.24593
 H6 H 0.15603 0.18745 0.28293
 H7 H 0.13314 0.25687 0.23861
 Cu8 Cu 0.20272 0.18574 0.23747
 Cu9 Cu 0.18424 0.24047 0.20319
 Cu10 Cu 0.23978 0.20377 0.18442
 N11 N 0.23437 0.16565 0.22701
 N12 N 0.24872 0.17281 0.20624
 C13 C 0.26923 0.15567 0.20335
 C14 C 0.26779 0.13662 0.22343
 C15 C 0.24532 0.14369 0.23806
 H16 H 0.28403 0.15706 0.18771
 H17 H 0.23746 0.13363 0.25545
 N18 N 0.22756 0.23568 0.16487
 N19 N 0.20641 0.24966 0.17204
 C20 C 0.20321 0.27012 0.15487
 C21 C 0.22334 0.26906 0.13588
 C22 C 0.23839 0.24689 0.14295
 H23 H 0.18735 0.28469 0.15615
 H24 H 0.25595 0.23939 0.13292
 H25 H 0.19928 0.20358 0.19234
 H26 H 0.22072 0.22465 0.21450
 N27 N 0.66516 0.72866 0.73464
 N28 N 0.67242 0.70747 0.74832
 C29 C 0.65537 0.70406 0.76886
 C30 C 0.63631 0.72420 0.76802
 C31 C 0.64329 0.73941 0.74595
 H32 H 0.65676 0.68808 0.78329
 H33 H 0.63326 0.75703 0.73853
 Cu34 Cu 0.70339 0.68649 0.73768
 Cu35 Cu 0.68453 0.74084 0.70320
 Cu36 Cu 0.74010 0.70410 0.68435
 N37 N 0.73484 0.66619 0.72715
 N38 N 0.74902 0.67318 0.70621
 C39 C 0.76943 0.65596 0.70319
 C40 C 0.76809 0.63701 0.72336
 C41 C 0.74581 0.64424 0.73819
 H42 H 0.78409 0.65722 0.68742
 H43 H 0.73808 0.63429 0.75571
 N44 N 0.72783 0.73598 0.66484
 N45 N 0.70668 0.74997 0.67201
 C46 C 0.70351 0.77043 0.65486
 C47 C 0.72365 0.76937 0.63589
 C48 C 0.73867 0.74719 0.64292
 H49 H 0.68765 0.78500 0.65615
 H50 H 0.75622 0.73968 0.63288
 H51 H 0.69970 0.70398 0.69245
 H52 H 0.72120 0.72526 0.71429
 N53 N 0.33463 0.77197 0.73455
 N54 N 0.32759 0.79337 0.74802
 C55 C 0.34472 0.79682 0.76850
 C56 C 0.36356 0.77647 0.76786
 C57 C 0.35641 0.76111 0.74594
 H58 H 0.34346 0.81290 0.78283
 H59 H 0.36620 0.74328 0.73873
 Cu60 Cu 0.29637 0.81404 0.73744
 Cu61 Cu 0.31506 0.75957 0.70327
 Cu62 Cu 0.25948 0.79638 0.68439
 N63 N 0.26517 0.83472 0.72683
 N64 N 0.25079 0.82753 0.70609
 C65 C 0.23031 0.84468 0.70315
 C66 C 0.23175 0.86386 0.72318
 C67 C 0.25429 0.85674 0.73782
 H68 H 0.21551 0.84308 0.68753
 H69 H 0.26224 0.86668 0.75523
 N70 N 0.27157 0.76427 0.66500
 N71 N 0.29271 0.75028 0.67221
 C72 C 0.29586 0.72978 0.65510
 C73 C 0.27572 0.73079 0.63612
 C74 C 0.26071 0.75301 0.64311
 H75 H 0.31174 0.71522 0.65640
 H76 H 0.24319 0.76052 0.63301
 H77 H 0.29987 0.79629 0.69236
 H78 H 0.27840 0.77516 0.71433
 N79 N 0.83555 0.27153 0.23509
 N80 N 0.82826 0.29265 0.24880
 C81 C 0.84532 0.29609 0.26933
 C82 C 0.86449 0.27599 0.26848
 C83 C 0.85748 0.26079 0.24633
 H84 H 0.84377 0.31207 0.28372
 H85 H 0.86742 0.24321 0.23877
 Cu86 Cu 0.79712 0.31350 0.23841
 Cu87 Cu 0.81621 0.25935 0.20362
 Cu88 Cu 0.76074 0.29610 0.18474
 N89 N 0.76588 0.33398 0.22757
 N90 N 0.75179 0.32702 0.20657
 C91 C 0.73145 0.34432 0.20344
 C92 C 0.73274 0.36327 0.22360
 C93 C 0.75493 0.35598 0.23856
 H94 H 0.71686 0.34308 0.18760
 H95 H 0.76259 0.36590 0.25612
 N96 N 0.77297 0.26421 0.16521
 N97 N 0.79411 0.25021 0.17240
 C98 C 0.79725 0.22972 0.15526
 C99 C 0.77712 0.23081 0.13626
 C100 C 0.76212 0.25301 0.14331
 H101 H 0.81306 0.21509 0.15659
 H102 H 0.74455 0.26051 0.13330
 H103 H 0.80116 0.29636 0.19309
 H104 H 0.77956 0.27486 0.21466
 N105 N 0.83501 0.72864 0.26533
 N106 N 0.82796 0.70724 0.25187
 C107 C 0.84503 0.70382 0.23137
 C108 C 0.86388 0.72416 0.23199
 C109 C 0.85678 0.73952 0.25392
 H110 H 0.84380 0.68768 0.21710
 H111 H 0.86664 0.75730 0.26116
 Cu112 Cu 0.79719 0.68598 0.26256
 Cu113 Cu 0.81557 0.74084 0.29667
 Cu114 Cu 0.76009 0.70401 0.31555
 N115 N 0.76560 0.66583 0.27307
 N116 N 0.75124 0.67300 0.29382
 C117 C 0.73077 0.65581 0.29677
 C118 C 0.73225 0.63672 0.27676
 C119 C 0.75470 0.64382 0.26209
 H120 H 0.71596 0.65721 0.31240
 H121 H 0.76257 0.63374 0.24472
 N122 N 0.77225 0.73599 0.33496
 N123 N 0.79337 0.75002 0.32777
 C124 C 0.79650 0.77053 0.34488
 C125 C 0.77636 0.76944 0.36384
 C126 C 0.76138 0.74721 0.35684
 H127 H 0.81233 0.78514 0.34357
 H128 H 0.74384 0.73967 0.36689
 H129 H 0.80059 0.70394 0.30764
 H130 H 0.77911 0.72488 0.28542
 N131 N 0.33533 0.22832 -0.23488
 N132 N 0.32829 0.20694 -0.24838
 C133 C 0.34542 0.20349 -0.26885
 C134 C 0.36437 0.22386 -0.26823
 C135 C 0.35715 0.23919 -0.24623
 H136 H 0.34403 0.18737 -0.28311
 H137 H 0.36685 0.25701 -0.23888
 Cu138 Cu 0.29700 0.18625 -0.23783
 Cu139 Cu 0.31570 0.24069 -0.20359
 Cu140 Cu 0.26002 0.20387 -0.18483
 N141 N 0.26572 0.16557 -0.22729
 N142 N 0.25130 0.17275 -0.20657
 C143 C 0.23078 0.15560 -0.20370
 C144 C 0.23227 0.13652 -0.22372
 C145 C 0.25480 0.14357 -0.23831
 H146 H 0.21588 0.15707 -0.18815
 H147 H 0.26264 0.13353 -0.25571
 N148 N 0.27212 0.23594 -0.16540
 N149 N 0.29329 0.24995 -0.17253
 C150 C 0.29640 0.27043 -0.15536
 C151 C 0.27621 0.26935 -0.13643
 C152 C 0.26122 0.24715 -0.14352
 H153 H 0.31228 0.28500 -0.15657
 H154 H 0.24367 0.23959 -0.13348
 H155 H 0.30045 0.20400 -0.19272
 H156 H 0.27905 0.22514 -0.21471
 N157 N 0.66493 0.27145 -0.23474
 N158 N 0.67218 0.29260 -0.24848
 C159 C 0.65506 0.29605 -0.26895
 C160 C 0.63590 0.27589 -0.26812
 C161 C 0.64299 0.26070 -0.24598
 H162 H 0.65654 0.31207 -0.28336
 H163 H 0.63309 0.24309 -0.23838
 Cu164 Cu 0.70357 0.31326 -0.23823
 Cu165 Cu 0.68447 0.25923 -0.20337
 Cu166 Cu 0.74002 0.29612 -0.18458
 N167 N 0.73463 0.33407 -0.22734
 N168 N 0.74878 0.32713 -0.20636
 C169 C 0.76911 0.34448 -0.20330
 C170 C 0.76774 0.36343 -0.22345
 C171 C 0.74549 0.35612 -0.23832
 H172 H 0.78375 0.34324 -0.18750
 H173 H 0.73779 0.36605 -0.25587
 N174 N 0.72791 0.26413 -0.16509
 N175 N 0.70677 0.25009 -0.17224
 C176 C 0.70369 0.22959 -0.15508
 C177 C 0.72389 0.23070 -0.13615
 C178 C 0.73883 0.25294 -0.14322
 H179 H 0.68787 0.21496 -0.15634
 H180 H 0.75639 0.26049 -0.13321
 H181 H 0.69964 0.29617 -0.19287
 H182 H 0.72121 0.27464 -0.21435
 N183 N 0.16506 0.77205 0.26545
 N184 N 0.17215 0.79345 0.25200
 C185 C 0.15508 0.79691 0.23148
 C186 C 0.13622 0.77656 0.23208
 C187 C 0.14330 0.76119 0.25401
 H188 H 0.15638 0.81299 0.21715
 H189 H 0.13348 0.74336 0.26121
 Cu190 Cu 0.20336 0.81412 0.26262
 Cu191 Cu 0.18454 0.75964 0.29677
 Cu192 Cu 0.24014 0.79646 0.31571
 N193 N 0.23457 0.83479 0.27325
 N194 N 0.24892 0.82762 0.29400
 C195 C 0.26942 0.84478 0.29694
 C196 C 0.26801 0.86394 0.27689
 C197 C 0.24547 0.85680 0.26224
 H198 H 0.28420 0.84320 0.31258
 H199 H 0.23754 0.86672 0.24481
 N200 N 0.22795 0.76436 0.33508
 N201 N 0.20680 0.75036 0.32786
 C202 C 0.20357 0.72989 0.34502
 C203 C 0.22367 0.73095 0.36405
 C204 C 0.23872 0.75314 0.35703
 H205 H 0.18769 0.71533 0.34372
 H206 H 0.25623 0.76067 0.36715
 H207 H 0.19978 0.79634 0.30770
 H208 H 0.22126 0.77521 0.28577
 N209 N 0.47859 0.41462 0.48491
 N210 N 0.45764 0.42209 0.49883
 C211 C 0.45417 0.40497 0.51930
 C212 C 0.47407 0.38567 0.51825
 C213 C 0.48918 0.39256 0.49606
 H214 H 0.43835 0.40651 0.53389
 H215 H 0.50664 0.38237 0.48849
 Cu216 Cu 0.43702 0.45355 0.48880
 Cu217 Cu 0.49066 0.43408 0.45341
 Cu218 Cu 0.45379 0.48947 0.43452
 N219 N 0.41614 0.48440 0.47757
 N220 N 0.42286 0.49832 0.45637
 C221 C 0.40537 0.51845 0.45310
 C222 C 0.38651 0.51721 0.47335
 C223 C 0.39406 0.49525 0.48850
 H224 H 0.40644 0.53291 0.43712
 H225 H 0.38429 0.48770 0.50619
 N226 N 0.48572 0.47735 0.41497
 N227 N 0.49977 0.45625 0.42216
 C228 C 0.52025 0.45316 0.40499
 C229 C 0.51913 0.47329 0.38599
 C230 C 0.49689 0.48823 0.39305
 H231 H 0.53490 0.43738 0.40631
 H232 H 0.48934 0.50578 0.38302
 H233 H 0.47532 0.47096 0.46430
 H234 H 0.45344 0.44921 0.44326
 N235 N -0.02173 -0.08517 0.98442
 N236 N -0.04309 -0.07808 0.99794
 C237 C -0.04654 -0.09515 1.01845
 C238 C -0.02623 -0.11403 1.01782
 C239 C -0.01089 -0.10696 0.99585
 H240 H -0.06259 -0.09382 1.03281
 H241 H 0.00691 -0.11680 0.98863
 Cu242 Cu -0.06378 -0.04690 0.98740
 Cu243 Cu -0.00943 -0.06562 0.95304
 Cu244 Cu -0.04629 -0.01005 0.93424
 N245 N -0.08446 -0.01572 0.97684
 N246 N -0.07735 -0.00134 0.95607
 C247 C -0.09452 0.01913 0.95321
 C248 C -0.11354 0.01764 0.97330
 C249 C -0.10644 -0.00483 0.98792
 H250 H -0.09311 0.03401 0.93764
 H251 H -0.11641 -0.01265 1.00538
 N252 N -0.01426 -0.02214 0.91473
 N253 N -0.00024 -0.04328 0.92189
 C254 C 0.02018 -0.04644 0.90467
 C255 C 0.01907 -0.02632 0.88566
 C256 C -0.00310 -0.01131 0.89277
 H257 H 0.03474 -0.06232 0.90591
 H258 H -0.01067 0.00621 0.88269
 H259 H -0.02494 -0.02896 0.96413
 H260 H -0.04616 -0.05044 0.94226
 N261 N 1.02174 0.58519 0.98469
 N262 N 1.04279 0.57779 0.99852
 C263 C 1.04613 0.59477 1.01912
 C264 C 1.02610 0.61393 1.01818
 C265 C 1.01100 0.60708 0.99597
 H266 H 1.06204 0.59331 1.03363
 H267 H 0.99349 0.61721 0.98845
 Cu268 Cu 1.06396 0.54700 0.98775
 Cu269 Cu 1.00962 0.56596 0.95308
 Cu270 Cu 1.04422 0.50842 0.93678
 N271 N 1.08436 0.51562 0.97708
 N272 N 1.07676 0.50090 0.95672
 C273 C 1.09402 0.48055 0.95359
 C274 C 1.11360 0.48245 0.97311
 C275 C 1.10674 0.50506 0.98764
 H276 H 1.09219 0.46538 0.93835
 H277 H 1.11710 0.51315 1.00475
 N278 N 1.01381 0.52170 0.91563
 N279 N 1.00057 0.54359 0.92195
 C280 C 0.98067 0.54718 0.90421
 C281 C 0.98136 0.52658 0.88570
 C282 C 1.00278 0.51088 0.89361
 H283 H 0.96659 0.56351 0.90493
 H284 H 1.00979 0.49278 0.88419
 H285 H 1.02385 0.53002 0.96607
 H286 H 1.04592 0.54919 0.94282
 N287 N 0.52169 0.08533 0.48492
 N288 N 0.54280 0.07795 0.49867
 C289 C 0.54619 0.09489 0.51930
 C290 C 0.52613 0.11403 0.51849
 C291 C 0.51096 0.10719 0.49631
 H292 H 0.56212 0.09339 0.53378
 H293 H 0.49340 0.11730 0.48888
 Cu294 Cu 0.56396 0.04714 0.48782
 Cu295 Cu 0.50955 0.06603 0.45327
 Cu296 Cu 0.54425 0.00852 0.43684
 N297 N 0.58444 0.01584 0.47708
 N298 N 0.57683 0.00110 0.45674
 C299 C 0.59413 -0.01922 0.45359
 C300 C 0.61373 -0.01727 0.47307
 C301 C 0.60686 0.00531 0.48762
 H302 H 0.59227 -0.03441 0.43838
 H303 H 0.61722 0.01339 0.50473
 N304 N 0.51379 0.02178 0.41573
 N305 N 0.50049 0.04363 0.42208
 C306 C 0.48058 0.04717 0.40434
 C307 C 0.48131 0.02658 0.38581
 C308 C 0.50278 0.01093 0.39371
 H309 H 0.46646 0.06346 0.40506
 H310 H 0.50983 -0.00716 0.38428
 H311 H 0.52388 0.02994 0.46612
 H312 H 0.54586 0.04916 0.44287
 N313 N -0.02182 0.08516 0.51496
 N314 N -0.04285 0.07771 0.50112
 C315 C -0.04623 0.09468 0.48051
 C316 C -0.02626 0.11391 0.48147
 C317 C -0.01115 0.10711 0.50368
 H318 H -0.06207 0.09312 0.46594
 H319 H 0.00633 0.11729 0.51121
 Cu320 Cu -0.06372 0.04668 0.51172
 Cu321 Cu -0.00974 0.06585 0.54655
 Cu322 Cu -0.04665 0.01032 0.56541
 N323 N -0.08427 0.01541 0.52228
 N324 N -0.07750 0.00140 0.54341
 C325 C -0.09487 -0.01888 0.54649
 C326 C -0.11367 -0.01764 0.52619
 C327 C -0.10620 0.00445 0.51117
 H328 H -0.09378 -0.03340 0.56241
 H329 H -0.11597 0.01201 0.49348
 N330 N -0.01479 0.02260 0.58505
 N331 N -0.00074 0.04373 0.57788
 C332 C 0.01967 0.04691 0.59513
 C333 C 0.01852 0.02678 0.61414
 C334 C -0.00369 0.01179 0.60703
 H335 H 0.03430 0.06272 0.59385
 H336 H -0.01125 -0.00576 0.61705
 H337 H -0.02512 0.02902 0.53557
 H338 H -0.04660 0.05059 0.55707
 N339 N 0.47854 0.58504 0.01529
 N340 N 0.45758 0.57756 0.00138
 C341 C 0.45411 0.59468 -0.01909
 C342 C 0.47401 0.61398 -0.01804
 C343 C 0.48912 0.60711 0.00416
 H344 H 0.43827 0.59313 -0.03367
 H345 H 0.50658 0.61731 0.01173
 Cu346 Cu 0.43697 0.54611 0.01137
 Cu347 Cu 0.49063 0.56562 0.04676
 Cu348 Cu 0.45374 0.51019 0.06561
 N349 N 0.41608 0.51526 0.02258
 N350 N 0.42279 0.50133 0.04377
 C351 C 0.40527 0.48120 0.04701
 C352 C 0.38642 0.48247 0.02675
 C353 C 0.39400 0.50444 0.01163
 H354 H 0.40631 0.46672 0.06298
 H355 H 0.38423 0.51201 -0.00606
 N356 N 0.48568 0.52233 0.08515
 N357 N 0.49973 0.54345 0.07797
 C358 C 0.52023 0.54656 0.09513
 C359 C 0.51911 0.52642 0.11412
 C360 C 0.49687 0.51146 0.10707
 H361 H 0.53488 0.56235 0.09381
 H362 H 0.48932 0.49390 0.11709
 H363 H 0.47533 0.52879 0.03584
 H364 H 0.45346 0.55050 0.05689
 N365 N 0.52159 -0.08505 0.01536
 N366 N 0.54256 -0.07757 0.00146
 C367 C 0.54602 -0.09468 -0.01902
 C368 C 0.52610 -0.11396 -0.01798
 C369 C 0.51099 -0.10710 0.00421
 H370 H 0.56185 -0.09314 -0.03360
 H371 H 0.49352 -0.11728 0.01177
 Cu372 Cu 0.56319 -0.04614 0.01148
 Cu373 Cu 0.50952 -0.06563 0.04686
 Cu374 Cu 0.54644 -0.01025 0.06575
 N375 N 0.58409 -0.01530 0.02269
 N376 N 0.57738 -0.00138 0.04389
 C377 C 0.59490 0.01875 0.04714
 C378 C 0.61376 0.01750 0.02689
 C379 C 0.60618 -0.00447 0.01176
 H380 H 0.59385 0.03322 0.06311
 H381 H 0.61595 -0.01203 -0.00593
 N382 N 0.51448 -0.02238 0.08531
 N383 N 0.50043 -0.04348 0.07811
 C384 C 0.47994 -0.04661 0.09527
 C385 C 0.48106 -0.02650 0.11429
 C386 C 0.50331 -0.01153 0.10724
 H387 H 0.46530 -0.06241 0.09394
 H388 H 0.51086 0.00601 0.11729
 H389 H 0.52484 -0.02881 0.03596
 H390 H 0.54670 -0.05056 0.05699
 N391 N 1.02147 0.41492 0.51512
 N392 N 1.04259 0.42223 0.50136
 C393 C 1.04605 0.40511 0.48091
 C394 C 1.02598 0.38598 0.48182
 C395 C 1.01077 0.39294 0.50391
 H396 H 1.06200 0.40653 0.46643
 H397 H 0.99319 0.38288 0.51137
 Cu398 Cu 1.06326 0.45359 0.51153
 Cu399 Cu 1.00932 0.43437 0.54655
 Cu400 Cu 1.04626 0.48982 0.56538
 N401 N 1.08411 0.48455 0.52252
 N402 N 1.07725 0.49864 0.54356
 C403 C 1.09466 0.51888 0.54669
 C404 C 1.11360 0.51753 0.52652
 C405 C 1.10619 0.49537 0.51157
 H406 H 1.09350 0.53349 0.56252
 H407 H 1.11608 0.48769 0.49400
 N408 N 1.01429 0.47770 0.58490
 N409 N 1.00022 0.45659 0.57774
 C410 C 0.97974 0.45349 0.59490
 C411 C 0.98088 0.47363 0.61389
 C412 C 1.00312 0.48859 0.60681
 H413 H 0.96507 0.43771 0.59361
 H414 H 1.01067 0.50615 0.61681
 H415 H 1.02476 0.47104 0.53564
 H416 H 1.04640 0.44939 0.55695
 Si417 Si 0.37367 -0.00042 0.25021
 Si418 Si 0.12622 -0.00048 0.74953
 Si419 Si 0.62628 0.49980 0.25001
 Si420 Si 0.87404 0.50013 0.74994
 Si421 Si 0.24995 0.37600 -0.00012
 Si422 Si 0.75017 0.12408 0.00020
 Si423 Si 0.25018 0.62384 0.49991
 Si424 Si 0.74981 0.87610 0.49984
 Si425 Si -0.00042 0.25015 0.37455
 Si426 Si 0.00012 0.75011 0.12512
 Si427 Si 0.50019 0.24992 0.62611
 Si428 Si 0.49985 0.75008 0.87473
 C429 C 0.06973 0.23651 0.32141
 C430 C 0.08695 0.21485 0.32531
 C431 C 0.10847 0.21071 0.30798
 C432 C 0.11310 0.22822 0.28643
 C433 C 0.09561 0.24997 0.28276
 C434 C 0.07412 0.25404 0.30012
 C435 C 0.04739 0.24068 0.33902
 C436 C 0.02848 0.24436 0.35346
 H437 H 0.08372 0.20111 0.34172
 H438 H 0.12136 0.19376 0.31156
 H439 H 0.09833 0.26391 0.26651
 H440 H 0.06088 0.27087 0.29688
 C441 C 0.57001 0.73666 0.82146
 C442 C 0.57425 0.75408 0.80005
 C443 C 0.59578 0.75007 0.78272
 C444 C 0.61346 0.72850 0.78653
 C445 C 0.60898 0.71109 0.80820
 C446 C 0.58741 0.71516 0.82550
 C447 C 0.54765 0.74078 0.83908
 C448 C 0.52874 0.74440 0.85355
 H449 H 0.56087 0.77076 0.79668
 H450 H 0.59839 0.76392 0.76637
 H451 H 0.62201 0.69427 0.81188
 H452 H 0.58429 0.70150 0.84200
 C453 C 0.42961 0.76362 0.82156
 C454 C 0.42518 0.74607 0.80029
 C455 C 0.40373 0.75019 0.78289
 C456 C 0.38631 0.77201 0.78648
 C457 C 0.39095 0.78952 0.80802
 C458 C 0.41244 0.78533 0.82540
 C459 C 0.45196 0.75944 0.83919
 C460 C 0.47089 0.75578 0.85363
 H461 H 0.43837 0.72920 0.79709
 H462 H 0.40097 0.73623 0.76667
 H463 H 0.37810 0.80651 0.81156
 H464 H 0.41570 0.79909 0.84179
 C465 C -0.07045 0.26361 0.32125
 C466 C -0.07463 0.24624 0.29982
 C467 C -0.09606 0.25027 0.28240
 C468 C -0.11384 0.27188 0.28609
 C469 C -0.10931 0.28924 0.30787
 C470 C -0.08782 0.28510 0.32524
 C471 C -0.04816 0.25948 0.33891
 C472 C -0.02927 0.25585 0.35339
 H473 H -0.06125 0.22953 0.29652
 H474 H -0.09843 0.23632 0.26611
 H475 H -0.12219 0.30614 0.31171
 H476 H -0.08474 0.29873 0.34177
 C477 C -0.07003 0.73670 0.17834
 C478 C -0.07440 0.75433 0.19955
 C479 C -0.09586 0.75031 0.21695
 C480 C -0.11335 0.72852 0.21341
 C481 C -0.10875 0.71093 0.19193
 C482 C -0.08726 0.71501 0.17455
 C483 C -0.04768 0.74078 0.16071
 C484 C -0.02877 0.74438 0.14626
 H485 H -0.06116 0.77119 0.20269
 H486 H -0.09858 0.76432 0.23315
 H487 H -0.12163 0.69394 0.18845
 H488 H -0.08405 0.70121 0.15820
 C489 C 0.42964 0.23635 0.67908
 C490 C 0.42516 0.25391 0.70029
 C491 C 0.40362 0.24988 0.71763
 C492 C 0.38604 0.22806 0.71411
 C493 C 0.39080 0.21057 0.69249
 C494 C 0.41240 0.21470 0.67520
 C495 C 0.45212 0.24049 0.66153
 C496 C 0.47113 0.24415 0.64716
 H497 H 0.43840 0.27075 0.70351
 H498 H 0.40104 0.26400 0.73374
 H499 H 0.37803 0.19356 0.68872
 H500 H 0.41566 0.20093 0.65882
 C501 C 0.57060 0.26339 0.67925
 C502 C 0.58799 0.28489 0.67519
 C503 C 0.60957 0.28906 0.69250
 C504 C 0.61417 0.27173 0.71429
 C505 C 0.59644 0.25007 0.71800
 C506 C 0.57492 0.24600 0.70065
 C507 C 0.54815 0.25925 0.66169
 C508 C 0.52917 0.25563 0.64727
 H509 H 0.58485 0.29851 0.65867
 H510 H 0.62245 0.30595 0.68860
 H511 H 0.59890 0.23609 0.73426
 H512 H 0.56159 0.22927 0.70400
 C513 C 0.07027 0.76374 0.17830
 C514 C 0.08748 0.78544 0.17446
 C515 C 0.10896 0.78961 0.19186
 C516 C 0.11353 0.77211 0.21342
 C517 C 0.09607 0.75029 0.21699
 C518 C 0.07464 0.74618 0.19957
 C519 C 0.04794 0.75957 0.16067
 C520 C 0.02903 0.75590 0.14622
 H521 H 0.08427 0.79919 0.15806
 H522 H 0.12184 0.80659 0.18834
 H523 H 0.09878 0.73632 0.23322
 H524 H 0.06142 0.72932 0.20276
 C525 C 0.32078 0.07008 0.23684
 C526 C 0.32534 0.08757 0.21554
 C527 C 0.30820 0.10921 0.21118
 C528 C 0.28615 0.11370 0.22811
 C529 C 0.28183 0.09597 0.24953
 C530 C 0.29901 0.07435 0.25383
 C531 C 0.33821 0.04759 0.24112
 C532 C 0.35258 0.02859 0.24473
 H533 H 0.34212 0.08444 0.20222
 H534 H 0.31231 0.12228 0.19450
 H535 H 0.26520 0.09861 0.26304
 H536 H 0.29525 0.06092 0.27038
 C537 C 0.82103 0.57045 0.73653
 C538 C 0.82540 0.58780 0.71509
 C539 C 0.80826 0.60944 0.71081
 C540 C 0.78640 0.61405 0.72795
 C541 C 0.78224 0.59642 0.74948
 C542 C 0.79943 0.57481 0.75371
 C543 C 0.83851 0.54802 0.74081
 C544 C 0.85292 0.52907 0.74443
 H545 H 0.84204 0.58458 0.70162
 H546 H 0.81223 0.62241 0.69401
 H547 H 0.76574 0.59915 0.76313
 H548 H 0.79582 0.56145 0.77035
 C549 C 0.82092 0.42985 0.76331
 C550 C 0.79930 0.42553 0.74614
 C551 C 0.78201 0.40399 0.75040
 C552 C 0.78609 0.38638 0.77197
 C553 C 0.80798 0.39094 0.78909
 C554 C 0.82524 0.41250 0.78476
 C555 C 0.83846 0.45225 0.75905
 C556 C 0.85290 0.47119 0.75545
 H557 H 0.79575 0.43888 0.72947
 H558 H 0.76549 0.40128 0.73676
 H559 H 0.81193 0.37797 0.80588
 H560 H 0.84190 0.41567 0.79822
 C561 C 0.32040 -0.07072 0.26358
 C562 C 0.32488 -0.08818 0.28489
 C563 C 0.30767 -0.10977 0.28929
 C564 C 0.28551 -0.11433 0.27240
 C565 C 0.28134 -0.09650 0.25093
 C566 C 0.29862 -0.07495 0.24662
 C567 C 0.33795 -0.04830 0.25928
 C568 C 0.35243 -0.02937 0.25567
 H569 H 0.34168 -0.08508 0.29819
 H570 H 0.31194 -0.12270 0.30604
 H571 H 0.26477 -0.09893 0.23731
 H572 H 0.29492 -0.06152 0.23006
 C573 C 0.17939 -0.07082 0.73638
 C574 C 0.20118 -0.07501 0.75334
 C575 C 0.21845 -0.09656 0.74907
 C576 C 0.21425 -0.11441 0.72763
 C577 C 0.19208 -0.10990 0.71074
 C578 C 0.17488 -0.08832 0.71511
 C579 C 0.16187 -0.04839 0.74062
 C580 C 0.14742 -0.02944 0.74416
 H581 H 0.20489 -0.06156 0.76988
 H582 H 0.23503 -0.09896 0.76268
 H583 H 0.18780 -0.12285 0.69402
 H584 H 0.15808 -0.08525 0.70181
 C585 C 0.67960 0.42969 0.23670
 C586 C 0.70120 0.42539 0.25390
 C587 C 0.71848 0.40384 0.24968
 C588 C 0.71440 0.38621 0.22813
 C589 C 0.69257 0.39079 0.21094
 C590 C 0.67534 0.41236 0.21522
 C591 C 0.66201 0.45204 0.24096
 C592 C 0.64751 0.47093 0.24454
 H593 H 0.70474 0.43873 0.27057
 H594 H 0.73497 0.40115 0.26334
 H595 H 0.68867 0.37783 0.19413
 H596 H 0.65870 0.41553 0.20174
 C597 C 0.67927 0.57017 0.26346
 C598 C 0.70106 0.57440 0.24648
 C599 C 0.71825 0.59601 0.25075
 C600 C 0.71392 0.61377 0.27213
 C601 C 0.69189 0.60928 0.28908
 C602 C 0.67473 0.58765 0.28475
 C603 C 0.66179 0.54773 0.25917
 C604 C 0.64738 0.52876 0.25554
 H605 H 0.70480 0.56095 0.22994
 H606 H 0.73490 0.59863 0.23725
 H607 H 0.68778 0.62236 0.30575
 H608 H 0.65794 0.58454 0.29806
 C609 C 0.17911 0.07007 0.76282
 C610 C 0.20091 0.07431 0.74585
 C611 C 0.21812 0.09591 0.75014
 C612 C 0.21382 0.11365 0.77155
 C613 C 0.19172 0.10922 0.78843
 C614 C 0.17454 0.08759 0.78408
 C615 C 0.16168 0.04756 0.75857
 C616 C 0.14732 0.02854 0.75499
 H617 H 0.20467 0.06085 0.72933
 H618 H 0.23478 0.09853 0.73666
 H619 H 0.18758 0.12231 0.80508
 H620 H 0.15773 0.08449 0.79737
 C621 C 0.23645 0.32270 0.06989
 C622 C 0.21490 0.32681 0.08719
 C623 C 0.21060 0.30941 0.10862
 C624 C 0.22784 0.28759 0.11308
 C625 C 0.24945 0.28370 0.09548
 C626 C 0.25369 0.30113 0.07408
 C627 C 0.24072 0.34036 0.04762
 C628 C 0.24438 0.35486 0.02875
 H629 H 0.20137 0.34342 0.08408
 H630 H 0.19373 0.31316 0.12156
 H631 H 0.26317 0.26723 0.09807
 H632 H 0.27041 0.29773 0.06076
 C633 C 0.73669 0.82297 0.56995
 C634 C 0.75399 0.80144 0.57414
 C635 C 0.74980 0.78404 0.59556
 C636 C 0.72818 0.78792 0.61315
 C637 C 0.71095 0.80975 0.60874
 C638 C 0.71520 0.82712 0.58729
 C639 C 0.74084 0.84055 0.54762
 C640 C 0.74437 0.85499 0.52872
 H641 H 0.77069 0.79804 0.56080
 H642 H 0.76354 0.76759 0.59815
 H643 H 0.69411 0.81352 0.62172
 H644 H 0.70167 0.84373 0.58420
 C645 C 0.76325 0.82297 0.42981
 C646 C 0.74601 0.80138 0.42563
 C647 C 0.75023 0.78400 0.40420
 C648 C 0.77182 0.78797 0.38659
 C649 C 0.78902 0.80983 0.39102
 C650 C 0.78474 0.82717 0.41247
 C651 C 0.75902 0.84056 0.45211
 C652 C 0.75539 0.85500 0.47099
 H653 H 0.72931 0.79792 0.43897
 H654 H 0.73652 0.76751 0.40162
 H655 H 0.80585 0.81365 0.37804
 H656 H 0.79824 0.84382 0.41557
 C657 C 0.26314 0.32277 -0.07025
 C658 C 0.24585 0.30122 -0.07452
 C659 C 0.25005 0.28389 -0.09601
 C660 C 0.27167 0.28783 -0.11360
 C661 C 0.28891 0.30965 -0.10908
 C662 C 0.28465 0.32695 -0.08757
 C663 C 0.25895 0.34036 -0.04791
 C664 C 0.25540 0.35483 -0.02901
 H665 H 0.22914 0.29777 -0.06120
 H666 H 0.23630 0.26744 -0.09866
 H667 H 0.30576 0.31347 -0.12203
 H668 H 0.29819 0.34356 -0.08443
 C669 C 0.73700 0.17734 -0.06994
 C670 C 0.71551 0.17311 -0.08729
 C671 C 0.71125 0.19038 -0.10882
 C672 C 0.72846 0.21222 -0.11333
 C673 C 0.75006 0.21621 -0.09573
 C674 C 0.75426 0.19890 -0.07422
 C675 C 0.74118 0.15976 -0.04758
 C676 C 0.74473 0.14529 -0.02868
 H677 H 0.70198 0.15649 -0.08414
 H678 H 0.69442 0.18653 -0.12179
 H679 H 0.76379 0.23267 -0.09839
 H680 H 0.77096 0.20238 -0.06089
 C681 C 0.23666 0.67723 0.42998
 C682 C 0.21513 0.67315 0.41266
 C683 C 0.21085 0.69059 0.39126
 C684 C 0.22809 0.71242 0.38685
 C685 C 0.24967 0.71631 0.40450
 C686 C 0.25389 0.69885 0.42587
 C687 C 0.24095 0.65952 0.45220
 C688 C 0.24462 0.64499 0.47104
 H689 H 0.20160 0.65651 0.41571
 H690 H 0.19399 0.68684 0.37829
 H691 H 0.26339 0.73281 0.40197
 H692 H 0.27060 0.70224 0.43922
 C693 C 0.26304 0.67715 0.57004
 C694 C 0.24569 0.69865 0.57418
 C695 C 0.24974 0.71606 0.59563
 C696 C 0.27129 0.71223 0.61333
 C697 C 0.28858 0.69044 0.60897
 C698 C 0.28447 0.67307 0.58749
 C699 C 0.25902 0.65952 0.54770
 C700 C 0.25558 0.64502 0.52880
 H701 H 0.22903 0.70202 0.56076
 H702 H 0.23596 0.73249 0.59818
 H703 H 0.30537 0.68669 0.62201
 H704 H 0.29805 0.65649 0.58447
 C705 C 0.76385 0.17724 0.07027
 C706 C 0.74666 0.19884 0.07448
 C707 C 0.75095 0.21624 0.09589
 C708 C 0.77255 0.21228 0.11349
 C709 C 0.78974 0.19043 0.10902
 C710 C 0.78539 0.17306 0.08757
 C711 C 0.75952 0.15961 0.04799
 C712 C 0.75580 0.14517 0.02910
 H713 H 0.72996 0.20231 0.06115
 H714 H 0.73727 0.23274 0.09847
 H715 H 0.80660 0.18663 0.12196
 H716 H 0.79888 0.15642 0.08445
 C717 C 0.48672 0.31975 0.57226
 C718 C 0.50393 0.32368 0.55060
 C719 C 0.49982 0.34502 0.53304
 C720 C 0.47837 0.36285 0.53685
 C721 C 0.46113 0.35862 0.55871
 C722 C 0.46530 0.33724 0.57624
 C723 C 0.49092 0.29758 0.59015
 C724 C 0.49454 0.27879 0.60481
 H725 H 0.52055 0.31021 0.54724
 H726 H 0.51353 0.34741 0.51653
 H727 H 0.44437 0.37172 0.56240
 H728 H 0.45178 0.33436 0.59289
 C729 C -0.01353 0.82015 0.07181
 C730 C 0.00401 0.82442 0.05050
 C731 C -0.00006 0.84580 0.03300
 C732 C -0.02182 0.86329 0.03653
 C733 C -0.03933 0.85880 0.05812
 C734 C -0.03520 0.83738 0.07559
 C735 C -0.00937 0.79787 0.08952
 C736 C -0.00568 0.77899 0.10400
 H737 H 0.02084 0.81116 0.04736
 H738 H 0.01390 0.84843 0.01675
 H739 H -0.05629 0.87170 0.06161
 H740 H -0.04895 0.83424 0.09201
 C741 C 0.01366 0.68008 0.07179
 C742 C -0.00369 0.67599 0.05028
 C743 C 0.00033 0.65454 0.03286
 C744 C 0.02182 0.63677 0.03669
 C745 C 0.03918 0.64113 0.05842
 C746 C 0.03511 0.66262 0.07581
 C747 C 0.00952 0.70235 0.08950
 C748 C 0.00587 0.72122 0.10400
 H749 H -0.02032 0.68944 0.04693
 H750 H -0.01347 0.65205 0.01645
 H751 H 0.05597 0.62806 0.06210
 H752 H 0.04873 0.66562 0.09237
 C753 C 0.51374 0.18004 0.57243
 C754 C 0.49636 0.17599 0.55094
 C755 C 0.50037 0.15460 0.53342
 C756 C 0.52189 0.13683 0.53713
 C757 C 0.53930 0.14116 0.55883
 C758 C 0.53523 0.16259 0.57632
 C759 C 0.50959 0.20224 0.59027
 C760 C 0.50594 0.22106 0.60488
 H761 H 0.47969 0.18942 0.54767
 H762 H 0.48654 0.15214 0.51703
 H763 H 0.55612 0.12811 0.56243
 H764 H 0.54888 0.16556 0.59286
 C765 C -0.01405 0.18023 0.42799
 C766 C -0.03538 0.16265 0.42386
 C767 C -0.03937 0.14108 0.44118
 C768 C -0.02205 0.13678 0.46295
 C769 C -0.00068 0.15470 0.46689
 C770 C 0.00325 0.17623 0.44954
 C771 C -0.00992 0.20251 0.41028
 C772 C -0.00623 0.22135 0.39575
 H773 H -0.04896 0.16561 0.40727
 H774 H -0.05606 0.12789 0.43740
 H775 H 0.01309 0.15225 0.48333
 H776 H 0.01979 0.18978 0.45298
 C777 C 0.48654 0.68003 0.92819
 C778 C 0.46516 0.66249 0.92412
 C779 C 0.46104 0.64104 0.94157
 C780 C 0.47829 0.63680 0.96340
 C781 C 0.49974 0.65464 0.96726
 C782 C 0.50380 0.67605 0.94979
 C783 C 0.49066 0.70231 0.91045
 C784 C 0.49424 0.72117 0.89591
 H785 H 0.45162 0.66541 0.90749
 H786 H 0.44431 0.62790 0.93783
 H787 H 0.51348 0.65222 0.98374
 H788 H 0.52040 0.68955 0.95318
 C789 C 0.51344 0.82005 0.92819
 C790 C 0.49622 0.82402 0.94981
 C791 C 0.50032 0.84541 0.96729
 C792 C 0.52178 0.86324 0.96343
 C793 C 0.53900 0.85900 0.94158
 C794 C 0.53485 0.83757 0.92411
 C795 C 0.50926 0.79781 0.91043
 C796 C 0.50559 0.77896 0.89590
 H797 H 0.47961 0.81054 0.95320
 H798 H 0.48660 0.84783 0.98378
 H799 H 0.55575 0.87213 0.93783
 H800 H 0.54836 0.83466 0.90747
 C801 C 0.01319 0.32012 0.42792
 C802 C -0.00418 0.32423 0.44940
 C803 C -0.00003 0.34557 0.46692
 C804 C 0.02161 0.36321 0.46322
 C805 C 0.03896 0.35885 0.44149
 C806 C 0.03476 0.33746 0.42400
 C807 C 0.00899 0.29790 0.41017
 C808 C 0.00532 0.27905 0.39565
 H809 H -0.02093 0.31088 0.45265
 H810 H -0.01386 0.34810 0.48330
 H811 H 0.05584 0.37184 0.43788
 H812 H 0.04837 0.33444 0.40745
 C813 C 0.32013 0.57036 0.48654
 C814 C 0.32456 0.54889 0.50386
 C815 C 0.34607 0.53158 0.49958
 C816 C 0.36352 0.53549 0.47786
 C817 C 0.35877 0.55716 0.46052
 C818 C 0.33725 0.57443 0.46485
 C819 C 0.29786 0.58803 0.49085
 C820 C 0.27903 0.60259 0.49445
 H821 H 0.31136 0.54549 0.52067
 H822 H 0.34888 0.51519 0.51336
 H823 H 0.37157 0.56093 0.44356
 H824 H 0.33395 0.59095 0.45126
 C825 C 0.82025 0.07085 -0.01307
 C826 C 0.82447 0.04909 0.00394
 C827 C 0.84599 0.03182 -0.00041
 C828 C 0.86365 0.03606 -0.02191
 C829 C 0.85919 0.05810 -0.03884
 C830 C 0.83766 0.07533 -0.03444
 C831 C 0.79789 0.08839 -0.00879
 C832 C 0.77901 0.10288 -0.00524
 H833 H 0.81108 0.04542 0.02055
 H834 H 0.84863 0.01519 0.01311
 H835 H 0.87221 0.06217 -0.05558
 H836 H 0.83455 0.09211 -0.04776
 C837 C 0.68017 0.07064 0.01360
 C838 C 0.67571 0.04917 -0.00370
 C839 C 0.65419 0.03185 0.00060
 C840 C 0.63676 0.03577 0.02234
 C841 C 0.64155 0.05744 0.03966
 C842 C 0.66307 0.07471 0.03530
 C843 C 0.70245 0.08831 0.00927
 C844 C 0.72129 0.10287 0.00566
 H845 H 0.68890 0.04577 -0.02053
 H846 H 0.65135 0.01547 -0.01317
 H847 H 0.62876 0.06121 0.05663
 H848 H 0.66640 0.09123 0.04889
 C849 C 0.17997 0.57069 0.51316
 C850 C 0.17562 0.54910 0.49597
 C851 C 0.15409 0.53180 0.50028
 C852 C 0.13655 0.53586 0.52190
 C853 C 0.14117 0.55771 0.53905
 C854 C 0.16270 0.57496 0.53468
 C855 C 0.20234 0.58824 0.50890
 C856 C 0.22126 0.60270 0.50534
 H857 H 0.18891 0.54559 0.47926
 H858 H 0.15136 0.51531 0.48663
 H859 H 0.12826 0.56161 0.55590
 H860 H 0.16591 0.59161 0.54815
 C861 C 0.17983 0.42921 -0.01345
 C862 C 0.17604 0.45133 0.00318
 C863 C 0.15455 0.46864 -0.00117
 C864 C 0.13650 0.46408 -0.02227
 C865 C 0.14054 0.44170 -0.03884
 C866 C 0.16205 0.42442 -0.03444
 C867 C 0.20217 0.41164 -0.00916
 C868 C 0.22106 0.39716 -0.00557
 H869 H 0.18972 0.45525 0.01949
 H870 H 0.15225 0.48555 0.01206
 H871 H 0.12722 0.43739 -0.05527
 H872 H 0.16483 0.40735 -0.04747
 C873 C 0.67987 0.92938 0.48642
 C874 C 0.67617 0.95152 0.50305
 C875 C 0.65473 0.96889 0.49872
 C876 C 0.63663 0.96436 0.47765
 C877 C 0.64064 0.94199 0.46104
 C878 C 0.66209 0.92466 0.46542
 C879 C 0.70210 0.91172 0.49074
 C880 C 0.72094 0.89721 0.49435
 H881 H 0.68988 0.95538 0.51934
 H882 H 0.65249 0.98581 0.51195
 H883 H 0.62731 0.93774 0.44460
 H884 H 0.66482 0.90760 0.45238
 C885 C 0.81971 0.92951 0.51320
 C886 C 0.83686 0.92537 0.53484
 C887 C 0.85850 0.94252 0.53906
 C888 C 0.86330 0.96413 0.52167
 C889 C 0.84580 0.96813 0.50000
 C890 C 0.82417 0.95093 0.49584
 C891 C 0.79741 0.91191 0.50893
 C892 C 0.77858 0.89736 0.50533
 H893 H 0.83350 0.90890 0.54848
 H894 H 0.87133 0.93871 0.55599
 H895 H 0.84866 0.98449 0.48620
 H896 H 0.81092 0.95437 0.47907
 C897 C 0.31997 0.42938 0.01340
 C898 C 0.33707 0.42526 0.03509
 C899 C 0.35861 0.44252 0.03948
 C900 C 0.36340 0.46421 0.02219
 C901 C 0.34597 0.46818 0.00045
 C902 C 0.32444 0.45088 -0.00388
 C903 C 0.29768 0.41175 0.00903
 C904 C 0.27882 0.39721 0.00538
 H905 H 0.33373 0.40872 0.04866
 H906 H 0.37140 0.43872 0.05645
 H907 H 0.34882 0.48458 -0.01329
 H908 H 0.31126 0.45432 -0.02070
 C909 C 0.57279 0.48646 0.31996
 C910 C 0.57694 0.46499 0.33734
 C911 C 0.55954 0.46070 0.35878
 C912 C 0.53767 0.47786 0.36319
 C913 C 0.53373 0.49943 0.34553
 C914 C 0.55116 0.50366 0.32411
 C915 C 0.59049 0.49069 0.29770
 C916 C 0.60504 0.49427 0.27886
 H917 H 0.59360 0.45150 0.33429
 H918 H 0.56335 0.44388 0.37176
 H919 H 0.51722 0.51311 0.34807
 H920 H 0.54773 0.52034 0.31073
 C921 C 0.07259 -0.01351 0.81945
 C922 C 0.07669 -0.03498 0.83684
 C923 C 0.05933 -0.03916 0.85833
 C924 C 0.03754 -0.02189 0.86278
 C925 C 0.03364 -0.00034 0.84509
 C926 C 0.05103 0.00378 0.82362
 C927 C 0.09031 -0.00937 0.79719
 C928 C 0.10492 -0.00587 0.77837
 H929 H 0.09329 -0.04853 0.83378
 H930 H 0.06312 -0.05596 0.87134
 H931 H 0.01719 0.01341 0.84767
 H932 H 0.04763 0.02045 0.81023
 C933 C 0.07249 0.01312 0.67979
 C934 C 0.07658 0.03473 0.66257
 C935 C 0.05906 0.03922 0.64127
 C936 C 0.03711 0.02212 0.63687
 C937 C 0.03321 0.00045 0.65441
 C938 C 0.05077 -0.00399 0.67568
 C939 C 0.09032 0.00869 0.70192
 C940 C 0.10496 0.00501 0.72069
 H941 H 0.09330 0.04816 0.66561
 H942 H 0.06283 0.05612 0.62838
 H943 H 0.01664 -0.01318 0.65186
 H944 H 0.04735 -0.02075 0.68895
 C945 C 0.57284 0.51317 0.18004
 C946 C 0.55119 0.49598 0.17590
 C947 C 0.53373 0.50025 0.15452
 C948 C 0.53766 0.52185 0.13690
 C949 C 0.55955 0.53902 0.14131
 C950 C 0.57698 0.53469 0.16271
 C951 C 0.59056 0.50890 0.20228
 C952 C 0.60510 0.50529 0.22113
 H953 H 0.54775 0.47928 0.18925
 H954 H 0.51720 0.48658 0.15197
 H955 H 0.56335 0.55587 0.12836
 H956 H 0.59365 0.54818 0.16577
 C957 C 0.42730 -0.01352 0.18028
 C958 C 0.42320 -0.03498 0.16288
 C959 C 0.44063 -0.03921 0.14147
 C960 C 0.46250 -0.02200 0.13709
 C961 C 0.46640 -0.00045 0.15478
 C962 C 0.44892 0.00373 0.17618
 C963 C 0.40953 -0.00936 0.20252
 C964 C 0.39493 -0.00585 0.22134
 H965 H 0.40655 -0.04850 0.16589
 H966 H 0.43686 -0.05602 0.12846
 H967 H 0.48290 0.01326 0.15226
 H968 H 0.45233 0.02039 0.18957
 C969 C 0.92743 0.48679 0.68000
 C970 C 0.92323 0.46529 0.66268
 C971 C 0.94056 0.46098 0.64121
 C972 C 0.96242 0.47817 0.63672
 C973 C 0.96643 0.49974 0.65435
 C974 C 0.94906 0.50399 0.67580
 C975 C 0.90977 0.49106 0.70226
 C976 C 0.89523 0.49465 0.72110
 H977 H 0.90657 0.45180 0.66581
 H978 H 0.93672 0.44414 0.62827
 H979 H 0.98295 0.51341 0.65176
 H980 H 0.95256 0.52067 0.68915
 C981 C 0.92765 0.51339 0.81977
 C982 C 0.92416 0.53550 0.83647
 C983 C 0.94161 0.53983 0.85784
 C984 C 0.96288 0.52207 0.86286
 C985 C 0.96616 0.49988 0.84587
 C986 C 0.94867 0.49560 0.82451
 C987 C 0.90990 0.50914 0.79756
 C988 C 0.89530 0.50558 0.77876
 H989 H 0.90797 0.54944 0.83294
 H990 H 0.93830 0.55714 0.87031
 H991 H 0.98218 0.48573 0.84892
 H992 H 0.95159 0.47844 0.81165
 C993 C 0.42745 0.01307 0.31998
 C994 C 0.42395 0.03521 0.33665
 C995 C 0.44147 0.03966 0.35796
 C996 C 0.46281 0.02198 0.36297
 C997 C 0.46612 -0.00023 0.34599
 C998 C 0.44857 -0.00461 0.32469
 C999 C 0.40962 0.00869 0.29782
 C1000 C 0.39497 0.00505 0.27905
 H1001 H 0.40771 0.04908 0.33315
 H1002 H 0.43814 0.05697 0.37041
 H1003 H 0.48221 -0.01430 0.34901
 H1004 H 0.45151 -0.02179 0.31186
   
