data_POSCAR
  _audit_creation_date              2014-09-24
  _audit_creation_method            'ToBaCCo'
  _symmetry_space_group_name_H-M    'P1'
  _symmetry_Int_Tables_number       1
  _symmetry_cell_setting            triclinic
  loop_
  _symmetry_equiv_pos_as_xyz
 x,y,z
_cell_length_a 35.0819
_cell_length_b 34.3530
_cell_length_c 34.3813
_cell_angle_alpha 94.174100
_cell_angle_beta 93.412200
_cell_angle_gamma 93.800600
loop_
  _atom_site_label
  _atom_site_type_symbol
  _atom_site_fract_x
  _atom_site_fract_y
  _atom_site_fract_z
N1 N 0.20348 1.28397 0.17950
 N2 N 0.17706 1.28248 0.20509
 C3 C 0.15229 1.30996 0.19836
 C4 C 0.16411 1.32950 0.16709
 C5 C 0.19647 1.31241 0.15563
 H6 H 0.12691 1.31450 0.21400
 H7 H 0.21289 1.31924 0.13104
 Cu8 Cu 0.17655 1.24305 0.24289
 Cu9 Cu 0.24338 1.24714 0.17719
 Cu10 Cu 0.24243 1.17668 0.24466
 N11 N 0.17606 1.20361 0.28068
 N12 N 0.20209 1.17773 0.28124
 C13 C 0.19451 1.15281 0.30870
 C14 C 0.16216 1.16387 0.32613
 C15 C 0.15095 1.19601 0.30781
 H16 H 0.21057 1.12787 0.31470
 H17 H 0.12580 1.21174 0.31295
 N18 N 0.28086 1.18050 0.20531
 N19 N 0.28125 1.20733 0.17964
 C20 C 0.30953 1.20101 0.15558
 C21 C 0.32763 1.16891 0.16686
 C22 C 0.30889 1.15645 0.19825
 H23 H 0.31574 1.21762 0.13089
 H24 H 0.31450 1.13100 0.21384
 H25 H 0.21273 1.20177 0.20019
 H26 H 0.24427 1.23546 0.23523
 N27 N 0.79617 0.72235 0.14653
 N28 N 0.81646 0.71830 0.17924
 C29 C 0.84148 0.69086 0.17277
 C30 C 0.83638 0.67701 0.13405
 C31 C 0.80755 0.69748 0.11807
 H32 H 0.86245 0.68237 0.19432
 H33 H 0.79636 0.69511 0.08793
 Cu34 Cu 0.81002 0.75075 0.22659
 Cu35 Cu 0.75777 0.76077 0.14316
 Cu36 Cu 0.75530 0.82717 0.22368
 N37 N 0.81441 0.79251 0.26808
 N38 N 0.79283 0.82235 0.26690
 C39 C 0.80409 0.84871 0.29699
 C40 C 0.83408 0.83436 0.31802
 C41 C 0.84020 0.79885 0.29889
 H42 H 0.79303 0.87723 0.30166
 H43 H 0.86315 0.78029 0.30533
 N44 N 0.72002 0.82696 0.17685
 N45 N 0.72107 0.80186 0.14598
 C46 C 0.69460 0.81024 0.11835
 C47 C 0.67623 0.84194 0.13275
 C48 C 0.69288 0.85192 0.16970
 H49 H 0.68953 0.79497 0.08968
 H50 H 0.68625 0.87611 0.18948
 H51 H 0.78862 0.79929 0.18412
 H52 H 0.74771 0.76906 0.20176
 N53 N 0.80081 1.26797 -0.18145
 N54 N 0.82930 1.26451 -0.20436
 C55 C 0.85568 1.29456 -0.19522
 C56 C 0.84275 1.31810 -0.16531
 C57 C 0.80795 1.30051 -0.15709
 H58 H 0.88325 1.29774 -0.20756
 H59 H 0.79040 1.30921 -0.13358
 Cu60 Cu 0.83108 1.21840 -0.24019
 Cu61 Cu 0.75860 1.22775 -0.18253
 Cu62 Cu 0.77783 1.13716 -0.22648
 N63 N 0.83043 1.17252 -0.27680
 N64 N 0.80980 1.14029 -0.27094
 C65 C 0.81723 1.11168 -0.29779
 C66 C 0.84350 1.12721 -0.32178
 C67 C 0.85144 1.16569 -0.30777
 H68 H 0.80551 1.08166 -0.29874
 H69 H 0.87218 1.18653 -0.31821
 N70 N 0.73610 1.14416 -0.19114
 N71 N 0.72820 1.17872 -0.17538
 C72 C 0.69870 1.17388 -0.15248
 C73 C 0.68755 1.13455 -0.15418
 C74 C 0.71167 1.11641 -0.17880
 H75 H 0.68700 1.19708 -0.13494
 H76 H 0.71179 1.08536 -0.18664
 H77 H 0.79731 1.18682 -0.18969
 H78 H 0.76553 1.19270 -0.23402
 N79 N 0.17806 0.73056 -0.16833
 N80 N 0.14758 0.73261 -0.19214
 C81 C 0.11985 0.70635 -0.18301
 C82 C 0.13398 0.68709 -0.15202
 C83 C 0.17082 0.70301 -0.14335
 H84 H 0.09139 0.70205 -0.19722
 H85 H 0.19054 0.69570 -0.12004
 Cu86 Cu 0.14705 0.77049 -0.23162
 Cu87 Cu 0.22415 0.76513 -0.16977
 Cu88 Cu 0.22424 0.83171 -0.24078
 N89 N 0.14755 0.80776 -0.27169
 N90 N 0.17815 0.83122 -0.27531
 C91 C 0.17083 0.85486 -0.30398
 C92 C 0.13381 0.84561 -0.31898
 C93 C 0.11962 0.81574 -0.29802
 H94 H 0.19053 0.87783 -0.31246
 H95 H 0.09098 0.80168 -0.30106
 N96 N 0.26812 0.82783 -0.20304
 N97 N 0.26804 0.80257 -0.17585
 C98 C 0.29984 0.81026 -0.15181
 C99 C 0.32080 0.84159 -0.16468
 C100 C 0.29997 0.85219 -0.19698
 H101 H 0.30590 0.79620 -0.12521
 H102 H 0.30614 0.87765 -0.21289
 H103 H 0.19785 0.81096 -0.19342
 H104 H 0.21681 0.77396 -0.22836
 C105 C 0.47953 1.04070 0.03819
 C106 C 0.50357 1.01139 0.05841
 C107 C 0.52114 0.98664 0.03356
 C108 C 0.51371 0.99430 -0.00986
 C109 C 0.50813 1.06205 0.01360
 C110 C 0.52568 1.03815 -0.01214
 C111 C 0.45237 1.01575 0.00850
 C112 C 0.46990 0.99155 -0.01668
 H113 H 0.50858 1.01210 0.08981
 H114 H 0.52749 0.97438 -0.03067
 H115 H 0.51514 1.09328 0.01762
 H116 H 0.42153 1.01671 0.00818
 C117 C 0.03729 0.47914 1.04007
 C118 C 0.05827 0.50754 1.01480
 C119 C 0.03492 0.52510 0.98930
 C120 C -0.00800 0.51338 0.99239
 C121 C 0.00892 0.50443 1.06060
 C122 C -0.01527 0.52200 1.03594
 C123 C 0.01253 0.45096 1.01100
 C124 C -0.01110 0.46852 0.98601
 H125 H 0.08891 0.51429 1.01799
 H126 H -0.02734 0.52727 0.97172
 H127 H 0.00969 0.51022 1.09200
 H128 H 0.01318 0.41947 1.01104
 C129 C 1.03507 0.03320 0.47429
 C130 C 1.00679 0.05344 0.49998
 C131 C 0.98284 0.02853 0.51789
 C132 C 0.99026 -0.01496 0.50916
 C133 C 1.05636 0.00817 0.50239
 C134 C 1.03329 -0.01759 0.52028
 C135 C 1.01025 0.00382 0.44646
 C136 C 0.98682 -0.02136 0.46436
 H137 H 1.00757 0.08485 0.50587
 H138 H 0.97113 -0.03586 0.52330
 H139 H 1.08703 0.01175 0.50876
 H140 H 1.01050 0.00396 0.41497
 C141 C 0.10689 0.40734 1.11024
 C142 C 0.07256 0.41975 1.12375
 C143 C 0.05061 0.44392 1.10189
 C144 C 0.14519 0.35673 1.14845
 C145 C 0.09749 0.44353 1.05295
 C146 C 0.11936 0.41936 1.07486
 C147 C 0.12801 0.38024 1.13136
 C148 C 0.06306 0.45679 1.06640
 H149 H 0.06221 0.40985 1.15068
 H150 H 0.02331 0.45124 1.11230
 H151 H 0.10704 0.45081 1.02484
 H152 H 0.14548 0.40923 1.06367
 C153 C -0.09742 0.59823 1.08118
 C154 C -0.08195 0.60459 1.04541
 C155 C -0.05602 0.57925 1.03009
 C156 C -0.14139 0.64904 1.11422
 C157 C -0.06168 0.54061 1.08587
 C158 C -0.08761 0.56589 1.10109
 C159 C -0.12183 0.62577 1.09857
 C160 C -0.04493 0.54740 1.05051
 H161 H -0.08934 0.62956 1.02973
 H162 H -0.04394 0.58545 1.00294
 H163 H -0.05468 0.51582 1.10195
 H164 H -0.09955 0.56054 1.12872
 C165 C -0.08815 0.39885 0.90303
 C166 C -0.09988 0.43353 0.92115
 C167 C -0.07444 0.45704 0.94740
 C168 C -0.13484 0.34866 0.85811
 C169 C -0.02548 0.41153 0.93667
 C170 C -0.05078 0.38827 0.91048
 C171 C -0.11443 0.37264 0.87830
 C172 C -0.03722 0.44580 0.95593
 H173 H -0.12880 0.44194 0.91563
 H174 H -0.08430 0.48314 0.96201
 H175 H 0.00323 0.40252 0.94209
 H176 H -0.04137 0.36158 0.89653
 C177 C 0.08124 0.60536 0.91081
 C178 C 0.10174 0.57386 0.92153
 C179 C 0.08633 0.54739 0.94636
 C180 C 0.11411 0.65812 0.86888
 C181 C 0.02931 0.58324 0.94917
 C182 C 0.04482 0.60978 0.92433
 C183 C 0.09852 0.63399 0.88746
 C184 C 0.05016 0.55214 0.96112
 H185 H 0.12989 0.57002 0.91109
 H186 H 0.10286 0.52322 0.95399
 H187 H 0.00154 0.58790 0.95974
 H188 H 0.02867 0.63409 0.91623
 C189 C 1.10433 0.10482 0.40259
 C190 C 1.11685 0.06934 0.41403
 C191 C 1.09502 0.04687 0.43803
 C192 C 1.14293 0.14445 0.35282
 C193 C 1.04803 0.09544 0.43933
 C194 C 1.06994 0.11785 0.41533
 C195 C 1.12556 0.12668 0.37590
 C196 C 1.06058 0.05989 0.45170
 H197 H 1.14304 0.05854 0.40366
 H198 H 1.10465 0.01876 0.44495
 H199 H 1.02071 0.10555 0.44697
 H200 H 1.05957 0.14488 0.40591
 C201 C 1.08083 -0.09487 0.60048
 C202 C 1.04427 -0.08194 0.60519
 C203 C 1.02834 -0.05756 0.57865
 C204 C 1.11463 -0.13541 0.65346
 C205 C 1.08521 -0.05966 0.54219
 C206 C 1.10104 -0.08403 0.56867
 C207 C 1.09860 -0.11752 0.62921
 C208 C 1.04891 -0.04546 0.54724
 H209 H 1.02836 -0.09010 0.62977
 H210 H 1.00050 -0.04741 0.58357
 H211 H 1.10155 -0.05190 0.51782
 H212 H 1.12932 -0.09397 0.56463
 C213 C 0.90742 -0.10273 0.39551
 C214 C 0.94485 -0.09608 0.38439
 C215 C 0.97098 -0.07050 0.40745
 C216 C 0.85797 -0.14517 0.34597
 C217 C 0.92276 -0.05894 0.45380
 C218 C 0.89651 -0.08452 0.43052
 C219 C 0.88000 -0.12628 0.36946
 C220 C 0.96001 -0.05112 0.44203
 H221 H 0.95362 -0.11003 0.35741
 H222 H 0.99968 -0.06553 0.39801
 H223 H 0.91347 -0.04416 0.48012
 H224 H 0.86752 -0.08932 0.43929
 C225 C 0.90248 0.07363 0.59646
 C226 C 0.91168 0.09360 0.56389
 C227 C 0.93686 0.07832 0.53774
 C228 C 0.86200 0.10771 0.65001
 C229 C 0.94278 0.02226 0.57586
 C230 C 0.91760 0.03763 0.60206
 C231 C 0.87971 0.09150 0.62536
 C232 C 0.95350 0.04286 0.54390
 H233 H 0.90001 0.12142 0.55912
 H234 H 0.94350 0.09453 0.51286
 H235 H 0.95469 -0.00502 0.58155
 H236 H 0.91069 0.02189 0.62720
 C237 C 0.40780 1.11130 0.10894
 C238 C 0.42114 1.12483 0.07451
 C239 C 0.44536 1.10272 0.05245
 C240 C 0.35676 1.14949 0.14705
 C241 C 0.44317 1.05350 0.09941
 C242 C 0.41896 1.07569 0.12140
 C243 C 0.38048 1.13249 0.12996
 C244 C 0.45728 1.06695 0.06484
 H245 H 0.41194 1.15194 0.06410
 H246 H 0.45367 1.11311 0.02501
 H247 H 0.44956 1.02519 0.10890
 H248 H 0.40804 1.06447 0.14753
 C249 C 0.60632 1.08467 -0.08959
 C250 C 0.60929 1.04697 -0.07738
 C251 C 0.58277 1.03151 -0.05277
 C252 C 0.65867 1.11622 -0.13231
 C253 C 0.54982 1.09122 -0.05309
 C254 C 0.57631 1.10659 -0.07770
 C255 C 0.63468 1.10146 -0.11323
 C256 C 0.55304 1.05366 -0.03972
 H257 H 0.63238 1.02968 -0.08650
 H258 H 0.58623 1.00262 -0.04349
 H259 H 0.52671 1.10879 -0.04476
 H260 H 0.57354 1.13572 -0.08721
 C261 C 0.40173 0.91308 -0.09986
 C262 C 0.43498 0.90059 -0.08144
 C263 C 0.45819 0.92657 -0.05534
 C264 C 0.35144 0.86499 -0.14292
 C265 C 0.41530 0.97762 -0.06686
 C266 C 0.39235 0.95179 -0.09296
 C267 C 0.37545 0.88611 -0.12377
 C268 C 0.44802 0.96507 -0.04718
 H269 H 0.44240 0.87060 -0.08645
 H270 H 0.48310 0.91613 -0.04036
 H271 H 0.40714 1.00732 -0.06163
 H272 H 0.36672 0.96179 -0.10705
 C273 C 0.59637 0.90441 0.07891
 C274 C 0.60296 0.92004 0.04325
 C275 C 0.57784 0.94578 0.02778
 C276 C 0.64764 0.86251 0.11269
 C277 C 0.53884 0.93941 0.08304
 C278 C 0.56393 0.91367 0.09844
 C279 C 0.62403 0.88096 0.09675
 C280 C 0.54597 0.95655 0.04793
 H281 H 0.62801 0.91310 0.02788
 H282 H 0.58430 0.95814 0.00083
 H283 H 0.51404 0.94613 0.09889
 H284 H 0.55842 0.90162 0.12598
   
