data_POSCAR
  _audit_creation_date              2014-09-24
  _audit_creation_method            'ToBaCCo'
  _symmetry_space_group_name_H-M    'P1'
  _symmetry_Int_Tables_number       1
  _symmetry_cell_setting            triclinic
  loop_
  _symmetry_equiv_pos_as_xyz
 x,y,z
_cell_length_a 69.5839
_cell_length_b 69.6482
_cell_length_c 24.1185
_cell_angle_alpha 90.021800
_cell_angle_beta 89.968400
_cell_angle_gamma 119.881900
loop_
  _atom_site_label
  _atom_site_type_symbol
  _atom_site_fract_x
  _atom_site_fract_y
  _atom_site_fract_z
O1 O 0.21199 0.46699 0.44838
 O2 O 0.24979 0.46623 0.55454
 O3 O 0.21262 0.46695 0.55651
 O4 O 0.24914 0.46629 0.44638
 O5 O 0.26780 0.50287 0.44668
 O6 O 0.23149 0.50353 0.55639
 O7 O 0.26871 0.50278 0.55374
 O8 O 0.23065 0.50357 0.44925
 Cu9 Cu 0.22899 0.46293 0.50147
 Cu10 Cu 0.25154 0.50685 0.50158
 C11 C 0.21478 0.48546 0.43124
 C12 C 0.26590 0.48440 0.57163
 C13 C 0.21574 0.48541 0.57469
 C14 C 0.26481 0.48452 0.42819
 O15 O 0.52955 -0.25603 0.44146
 O16 O 0.53207 -0.21829 0.55243
 O17 O 0.53171 -0.25630 0.54840
 O18 O 0.53002 -0.21856 0.44431
 O19 O 0.49343 -0.23692 0.44785
 O20 O 0.49530 -0.27304 0.55682
 O21 O 0.49548 -0.23560 0.55474
 O22 O 0.49307 -0.27474 0.44902
 Cu23 Cu 0.53453 -0.23544 0.49646
 Cu24 Cu 0.49065 -0.25691 0.50252
 C25 C 0.51084 -0.27209 0.42711
 C26 C 0.51414 -0.22025 0.57148
 C27 C 0.51381 -0.27119 0.57013
 C28 C 0.51143 -0.22137 0.42823
 O29 O 1.21883 0.74769 0.55238
 O30 O 1.25651 0.78509 0.44462
 O31 O 1.21891 0.74792 0.44429
 O32 O 1.25653 0.78487 0.55274
 O33 O 1.27453 0.76621 0.55199
 O34 O 1.23697 0.72931 0.44415
 O35 O 1.27468 0.76661 0.44491
 O36 O 1.23676 0.72895 0.55134
 Cu37 Cu 1.23588 0.76827 0.49858
 Cu38 Cu 1.25753 0.74590 0.49806
 C39 C 1.22124 0.73179 0.56965
 C40 C 1.27221 0.78239 0.42692
 C41 C 1.22143 0.73218 0.42623
 C42 C 1.27209 0.78195 0.57031
 O43 O 0.78438 0.53708 0.44942
 O44 O 0.74631 0.53450 0.55987
 O45 O 0.78372 0.53469 0.55753
 O46 O 0.74657 0.53717 0.45294
 O47 O 0.72936 0.50076 0.44423
 O48 O 0.76517 0.49815 0.55294
 O49 O 0.72749 0.49808 0.55181
 O50 O 0.76664 0.50052 0.44606
 Cu51 Cu 0.76714 0.53956 0.50525
 Cu52 Cu 0.74532 0.49572 0.49824
 C53 C 0.78221 0.51915 0.42986
 C54 C 0.73015 0.51581 0.57388
 C55 C 0.78074 0.51599 0.57312
 C56 C 0.73156 0.51941 0.43115
 O57 O 0.47101 0.21410 0.55450
 O58 O 0.47045 0.25199 0.44851
 O59 O 0.47110 0.21483 0.44641
 O60 O 0.47048 0.25126 0.55659
 O61 O 0.50710 0.26982 0.55647
 O62 O 0.50772 0.23356 0.44663
 O63 O 0.50706 0.27079 0.44930
 O64 O 0.50762 0.23254 0.55367
 Cu65 Cu 0.46707 0.23117 0.50146
 Cu66 Cu 0.51104 0.25355 0.50150
 C67 C 0.48943 0.21670 0.57162
 C68 C 0.48868 0.26801 0.43145
 C69 C 0.48956 0.21787 0.42829
 C70 C 0.48873 0.26687 0.57486
 O71 O 0.74963 0.21586 0.44862
 O72 O 0.78736 0.25379 0.55528
 O73 O 0.74984 0.21616 0.55710
 O74 O 0.78720 0.25347 0.44919
 O75 O 0.76847 0.27142 0.44808
 O76 O 0.73113 0.23411 0.55602
 O77 O 0.76844 0.27152 0.55660
 O78 O 0.73104 0.23394 0.44904
 Cu79 Cu 0.77025 0.23287 0.50254
 Cu80 Cu 0.74796 0.25462 0.50236
 C81 C 0.73379 0.21835 0.43105
 C82 C 0.78452 0.26930 0.57358
 C83 C 0.73401 0.21868 0.57457
 C84 C 0.78442 0.26901 0.43103
 N85 N 0.97710 0.52742 0.05875
 N86 N 0.96116 0.53216 0.06747
 N87 N 1.02348 0.53617 0.09659
 N88 N 1.04021 0.54672 0.13117
 N89 N 1.02364 0.54973 0.05853
 N90 N 1.04040 0.56996 0.06650
 N91 N 0.97679 0.51388 0.09710
 N92 N 0.96049 0.50879 0.13247
 C93 C 0.95090 0.52029 0.11347
 C94 C 1.05059 0.56774 0.11187
 N95 N 1.02148 0.48012 0.06079
 N96 N 1.03738 0.47536 0.06971
 N97 N 0.97575 0.47206 0.09906
 N98 N 0.96015 0.46150 0.13655
 N99 N 0.97479 0.45836 0.06034
 N100 N 0.95825 0.43815 0.06989
 N101 N 1.02225 0.49427 0.09794
 N102 N 1.03874 0.49967 0.13287
 Mn103 Mn 0.99959 0.50413 0.09824
 C104 C 1.04803 0.48777 0.11471
 C105 C 0.94926 0.44045 0.11744
 N106 N 1.02370 0.54928 -0.06104
 N107 N 1.04036 0.56950 -0.06990
 N108 N 0.97691 0.51310 -0.09898
 N109 N 0.96010 0.50702 -0.13325
 N110 N 0.97713 0.52686 -0.06137
 N111 N 0.96057 0.53071 -0.06946
 N112 N 1.02361 0.53547 -0.09825
 N113 N 1.04028 0.54584 -0.13314
 Mn114 Mn 1.00036 0.53856 -0.00132
 C115 C 1.05056 0.56702 -0.11490
 C116 C 0.95012 0.51817 -0.11441
 N117 N 0.97486 0.45791 -0.05886
 N118 N 0.95837 0.43761 -0.06781
 N119 N 1.02242 0.49359 -0.09686
 N120 N 1.03912 0.49894 -0.13107
 N121 N 1.02158 0.47969 -0.05886
 N122 N 1.03764 0.47506 -0.06648
 N123 N 0.97592 0.47131 -0.09851
 N124 N 0.96047 0.46043 -0.13612
 Mn125 Mn 0.99813 0.46876 0.00086
 Mn126 Mn 0.99975 0.50341 -0.09874
 Cl127 Cl 0.99945 0.50370 -0.00023
 C128 C 0.94953 0.43953 -0.11604
 C129 C 1.04844 0.48727 -0.11160
 N130 N 0.47332 0.45069 0.06160
 N131 N 0.46975 0.43049 0.07113
 N132 N 0.46262 0.48731 0.09572
 N133 N 0.45152 0.49316 0.12945
 N134 N 0.44942 0.47340 0.05798
 N135 N 0.42886 0.46920 0.06544
 N136 N 0.48661 0.46455 0.09934
 N137 N 0.49261 0.45424 0.13523
 C138 C 0.48197 0.43304 0.11712
 C139 C 0.43053 0.48175 0.11007
 N140 N 0.51721 0.54211 0.05799
 N141 N 0.52115 0.56254 0.06564
 N142 N 0.52752 0.50633 0.09976
 N143 N 0.53858 0.50217 0.13781
 N144 N 0.54095 0.51910 0.06068
 N145 N 0.56147 0.52365 0.07050
 N146 N 0.50342 0.52878 0.09572
 N147 N 0.49742 0.53968 0.12976
 Mn148 Mn 0.49502 0.49672 0.09822
 C149 C 0.50857 0.56068 0.11040
 C150 C 0.55966 0.51291 0.11866
 N151 N 0.45020 0.47271 -0.06185
 N152 N 0.42980 0.46862 -0.07123
 N153 N 0.48767 0.46326 -0.09607
 N154 N 0.49394 0.45247 -0.12968
 N155 N 0.47397 0.44990 -0.05820
 N156 N 0.47034 0.42954 -0.06543
 N157 N 0.46386 0.48620 -0.09965
 N158 N 0.45318 0.49184 -0.13539
 Mn159 Mn 0.46148 0.46142 -0.00012
 C160 C 0.43199 0.48073 -0.11716
 C161 C 0.48301 0.43150 -0.11006
 N162 N 0.54173 0.51863 -0.05869
 N163 N 0.56236 0.52312 -0.06646
 N164 N 0.50509 0.52771 -0.10043
 N165 N 0.50057 0.53848 -0.13852
 N166 N 0.51764 0.54130 -0.06133
 N167 N 0.52163 0.56162 -0.07111
 N168 N 0.52859 0.50464 -0.09635
 N169 N 0.53981 0.49906 -0.13046
 Mn170 Mn 0.52961 0.53052 -0.00034
 Mn171 Mn 0.49627 0.49543 -0.09872
 Cl172 Cl 0.49560 0.49603 -0.00024
 C173 C 0.56082 0.51068 -0.11123
 C174 C 0.51081 0.55953 -0.11931
 N175 N 0.45717 -0.02356 0.05996
 N176 N 0.43672 -0.03989 0.06826
 N177 N 0.49402 0.02299 0.09797
 N178 N 0.49980 0.03960 0.13274
 N179 N 0.48052 0.02294 0.05986
 N180 N 0.47655 0.03940 0.06799
 N181 N 0.47058 -0.02370 0.09805
 N182 N 0.45971 -0.04025 0.13292
 C183 C 0.43865 -0.05018 0.11381
 C184 C 0.48878 0.04966 0.11349
 N185 N 0.54886 0.02261 0.06162
 N186 N 0.56928 0.03887 0.07065
 N187 N 0.51176 -0.02389 0.09903
 N188 N 0.50542 -0.04070 0.13341
 N189 N 0.52542 -0.02393 0.06153
 N190 N 0.52893 -0.04070 0.06971
 N191 N 0.53523 0.02278 0.09904
 N192 N 0.54593 0.03927 0.13420
 Mn193 Mn 0.50290 -0.00045 0.09913
 C194 C 0.56711 0.04914 0.11594
 C195 C 0.51628 -0.05099 0.11465
 N196 N 0.48085 0.02291 -0.05984
 N197 N 0.47672 0.03921 -0.06898
 N198 N 0.47115 -0.02372 -0.09728
 N199 N 0.46046 -0.04025 -0.13233
 N200 N 0.45754 -0.02358 -0.05978
 N201 N 0.43713 -0.03989 -0.06862
 N202 N 0.49459 0.02297 -0.09728
 N203 N 0.50039 0.03943 -0.13254
 Mn204 Mn 0.46879 -0.00032 0.00005
 C205 C 0.48913 0.04940 -0.11432
 C206 C 0.43929 -0.05016 -0.11390
 N207 N 0.52588 -0.02389 -0.05826
 N208 N 0.53012 -0.04014 -0.06707
 N209 N 0.53580 0.02276 -0.09621
 N210 N 0.54663 0.03940 -0.13085
 N211 N 0.54921 0.02261 -0.05813
 N212 N 0.56963 0.03904 -0.06617
 N213 N 0.51238 -0.02390 -0.09632
 N214 N 0.50687 -0.04028 -0.13168
 Mn215 Mn 0.53758 -0.00065 0.00171
 Mn216 Mn 0.50348 -0.00047 -0.09738
 Cl217 Cl 0.50319 -0.00047 0.00087
 C218 C 0.51804 -0.05025 -0.11288
 C219 C 0.56767 0.04937 -0.11160
 C220 C 1.16904 0.48701 0.32175
 N221 N 1.18474 0.50581 0.34658
 N222 N 1.19958 0.50533 0.38053
 C223 C 1.19917 0.48601 0.39125
 N224 N 1.18352 0.46719 0.36628
 N225 N 1.16876 0.46770 0.33196
 C226 C 1.15205 0.48752 0.28666
 N227 N 1.13805 0.46970 0.25561
 N228 N 1.12214 0.47004 0.22553
 C229 C 1.11958 0.48814 0.22582
 N230 N 1.13362 0.50594 0.25676
 N231 N 1.14961 0.50567 0.28644
 C232 C 1.10141 0.48828 0.19520
 N233 N 1.09590 0.50404 0.20605
 N234 N 1.07896 0.50390 0.18002
 C235 C 1.06703 0.48809 0.14180
 N236 N 1.07263 0.47241 0.13047
 N237 N 1.08948 0.47244 0.15692
 C238 C 0.50812 0.68189 0.31619
 N239 N 0.48939 0.67917 0.34091
 N240 N 0.49022 0.69436 0.37593
 C241 C 0.50983 0.71273 0.38799
 N242 N 0.52854 0.71551 0.36291
 N243 N 0.52769 0.70041 0.32752
 C244 C 0.50736 0.66449 0.28031
 N245 N 0.52518 0.66825 0.24922
 N246 N 0.52481 0.65206 0.21890
 C247 C 0.50667 0.63148 0.21900
 N248 N 0.48884 0.62777 0.24992
 N249 N 0.48914 0.64399 0.27983
 C250 C 0.50669 0.61323 0.18860
 N251 N 0.49120 0.59195 0.19998
 N252 N 0.49173 0.57524 0.17458
 C253 C 0.50764 0.57920 0.13649
 N254 N 0.52301 0.60048 0.12456
 N255 N 0.52260 0.61721 0.15039
 C256 C 0.31787 -0.17269 0.31815
 N257 N 0.32037 -0.18940 0.33909
 N258 N 0.30528 -0.20426 0.37336
 C259 C 0.28721 -0.20284 0.38847
 N260 N 0.28464 -0.18620 0.36719
 N261 N 0.29965 -0.17144 0.33250
 C262 C 0.33520 -0.15562 0.28306
 N263 N 0.33144 -0.14107 0.25421
 N264 N 0.34757 -0.12500 0.22438
 C265 C 0.36809 -0.12279 0.22282
 N266 N 0.37181 -0.13737 0.25156
 N267 N 0.35564 -0.15354 0.28092
 C268 C 0.38627 -0.10438 0.19270
 N269 N 0.40761 -0.09867 0.20355
 N270 N 0.42426 -0.08146 0.17807
 C271 C 0.42018 -0.06947 0.14039
 N272 N 0.39885 -0.07529 0.12903
 N273 N 0.38218 -0.09238 0.15498
 C274 C 0.82909 0.51998 0.31991
 N275 N 0.81312 0.50073 0.34228
 N276 N 0.79794 0.50053 0.37621
 C277 C 0.79822 0.51960 0.38943
 N278 N 0.81413 0.53892 0.36689
 N279 N 0.82926 0.53909 0.33254
 C280 C 0.84644 0.52001 0.28514
 N281 N 0.86073 0.53817 0.25550
 N282 N 0.87684 0.53812 0.22560
 C283 C 0.87933 0.51997 0.22472
 N284 N 0.86503 0.50185 0.25429
 N285 N 0.84884 0.50184 0.28371
 C286 C 0.89763 0.51999 0.19428
 N287 N 0.90318 0.50425 0.20522
 N288 N 0.92009 0.50437 0.17914
 C289 C 0.93196 0.52008 0.14071
 N290 N 0.92635 0.53575 0.12929
 N291 N 0.90953 0.53577 0.15584
 C292 C 0.48810 0.31468 0.32354
 N293 N 0.46931 0.29507 0.33274
 N294 N 0.46952 0.28002 0.36648
 C295 C 0.48857 0.28397 0.39185
 N296 N 0.50739 0.30346 0.38213
 N297 N 0.50714 0.31857 0.34876
 C298 C 0.48770 0.33186 0.28904
 N299 N 0.50497 0.35293 0.29021
 N300 N 0.50433 0.36882 0.26096
 C301 C 0.48647 0.36419 0.22907
 N302 N 0.46926 0.34307 0.22742
 N303 N 0.46983 0.32720 0.25707
 C304 C 0.48555 0.38197 0.19858
 N305 N 0.46987 0.37727 0.15916
 N306 N 0.46886 0.39353 0.13256
 C307 C 0.48336 0.41504 0.14485
 N308 N 0.49900 0.41972 0.18424
 N309 N 0.50013 0.40349 0.21044
 C310 C 0.68718 0.17200 0.32163
 N311 N 0.70648 0.17219 0.33184
 N312 N 0.72155 0.18718 0.36601
 C313 C 0.71794 0.20261 0.39081
 N314 N 0.69877 0.20256 0.38004
 N315 N 0.68365 0.18749 0.34625
 C316 C 0.66988 0.15470 0.28688
 N317 N 0.64905 0.15169 0.28707
 N318 N 0.63298 0.13542 0.25775
 C319 C 0.63716 0.12165 0.22674
 N320 N 0.65806 0.12478 0.22603
 N321 N 0.67411 0.14096 0.25578
 C322 C 0.61911 0.10320 0.19636
 N323 N 0.62341 0.09162 0.15776
 N324 N 0.60686 0.07455 0.13140
 C325 C 0.58546 0.06836 0.14315
 N326 N 0.58119 0.07993 0.18171
 N327 N 0.59771 0.09709 0.20765
 C328 C 0.49039 0.17138 -0.32119
 N329 N 0.47093 0.17024 -0.33496
 N330 N 0.47060 0.18509 -0.36920
 C331 C 0.48976 0.20176 -0.39057
 N332 N 0.50923 0.20306 -0.37608
 N333 N 0.50953 0.18809 -0.34226
 C334 C 0.49071 0.15428 -0.28626
 N335 N 0.50904 0.15213 -0.28440
 N336 N 0.50910 0.13599 -0.25493
 C337 C 0.49089 0.12152 -0.22578
 N338 N 0.47262 0.12380 -0.22711
 N339 N 0.47249 0.13983 -0.25705
 C340 C 0.49075 0.10322 -0.19520
 N341 N 0.47471 0.09138 -0.15727
 N342 N 0.47436 0.07441 -0.13075
 C343 C 0.48989 0.06856 -0.14169
 N344 N 0.50590 0.08038 -0.17960
 N345 N 0.50639 0.09747 -0.20567
 C346 C 0.68364 0.51272 -0.31610
 N347 N 0.70217 0.53235 -0.32705
 N348 N 0.71745 0.53333 -0.36212
 C349 C 0.71483 0.51471 -0.38725
 N350 N 0.69645 0.49506 -0.37557
 N351 N 0.68110 0.49410 -0.34086
 C352 C 0.66603 0.51176 -0.28058
 N353 N 0.64565 0.49337 -0.28024
 N354 N 0.62923 0.49280 -0.25057
 C355 C 0.63262 0.51053 -0.21975
 N356 N 0.65308 0.52885 -0.21953
 N357 N 0.66947 0.52949 -0.24961
 C358 C 0.61413 0.51018 -0.18949
 N359 N 0.61776 0.52599 -0.15133
 N360 N 0.60080 0.52597 -0.12550
 C361 C 0.57963 0.51027 -0.13738
 N362 N 0.57602 0.49448 -0.17544
 N363 N 0.59296 0.49437 -0.20084
 C364 C 0.83065 0.31570 -0.32130
 N365 N 0.83428 0.30022 -0.34557
 N366 N 0.81897 0.28473 -0.37823
 C367 C 0.79965 0.28444 -0.38879
 N368 N 0.79602 0.29993 -0.36436
 N369 N 0.81117 0.31517 -0.33081
 C370 C 0.84812 0.33353 -0.28839
 N371 N 0.84312 0.34178 -0.24308
 N372 N 0.85913 0.35836 -0.21418
 C373 C 0.88062 0.36754 -0.23035
 N374 N 0.88558 0.35938 -0.27586
 N375 N 0.86963 0.34254 -0.30406
 C376 C 0.89825 0.38632 -0.20024
 N377 N 0.91501 0.40321 -0.22849
 N378 N 0.93117 0.42032 -0.20151
 C379 C 0.93136 0.42094 -0.14529
 N380 N 0.91470 0.40397 -0.11692
 N381 N 0.89828 0.38705 -0.14397
 C382 C 0.51535 -0.17320 -0.31875
 N383 N 0.49606 -0.18887 -0.34168
 N384 N 0.49572 -0.20413 -0.37554
 C385 C 0.51468 -0.20422 -0.38809
 N386 N 0.53402 -0.18861 -0.36498
 N387 N 0.53433 -0.17341 -0.33071
 C388 C 0.51561 -0.15573 -0.28407
 N389 N 0.53379 -0.14176 -0.25403
 N390 N 0.53400 -0.12551 -0.22425
 C391 C 0.51612 -0.12255 -0.22390
 N392 N 0.49798 -0.13654 -0.25387
 N393 N 0.49769 -0.15288 -0.28318
 C394 C 0.51649 -0.10409 -0.19354
 N395 N 0.50109 -0.09809 -0.20466
 N396 N 0.50158 -0.08099 -0.17865
 C397 C 0.51737 -0.06939 -0.14013
 N398 N 0.53270 -0.07546 -0.12854
 N399 N 0.53233 -0.09246 -0.15500
 C400 C 0.31178 0.48406 -0.32199
 N401 N 0.31456 0.50337 -0.34287
 N402 N 0.29942 0.50349 -0.37637
 C403 C 0.28100 0.48427 -0.39073
 N404 N 0.27814 0.46494 -0.36952
 N405 N 0.29322 0.46485 -0.33559
 C406 C 0.32912 0.48395 -0.28755
 N407 N 0.32516 0.46563 -0.25848
 N408 N 0.34124 0.46540 -0.22897
 C409 C 0.36191 0.48340 -0.22796
 N410 N 0.36585 0.50170 -0.25698
 N411 N 0.34973 0.50200 -0.28601
 C412 C 0.37999 0.48292 -0.19778
 N413 N 0.40139 0.49827 -0.20865
 N414 N 0.41792 0.49757 -0.18275
 C415 C 0.41366 0.48162 -0.14461
 N416 N 0.39227 0.46636 -0.13329
 N417 N 0.37571 0.46692 -0.15965
 C418 C 1.17480 0.68553 -0.32049
 N419 N 1.17531 0.70498 -0.33032
 N420 N 1.19034 0.71992 -0.36465
 C421 C 1.20549 0.71602 -0.39001
 N422 N 1.20513 0.69669 -0.37964
 N423 N 1.19002 0.68169 -0.34567
 C424 C 1.15743 0.66840 -0.28554
 N425 N 1.15397 0.64743 -0.28597
 N426 N 1.13755 0.63154 -0.25655
 C427 C 1.12409 0.63607 -0.22523
 N428 N 1.12767 0.65710 -0.22428
 N429 N 1.14400 0.67297 -0.25410
 C430 C 1.10543 0.61825 -0.19485
 N431 N 1.09407 0.62287 -0.15629
 N432 N 1.07675 0.60655 -0.13006
 C433 C 1.07008 0.58507 -0.14190
 N434 N 1.08144 0.58047 -0.18040
 N435 N 1.09885 0.59676 -0.20622
 C436 C 0.82574 0.51395 -0.31587
 N437 N 0.81078 0.49538 -0.34299
 N438 N 0.79606 0.49590 -0.37736
 C439 C 0.79590 0.51506 -0.38616
 N440 N 0.81078 0.53361 -0.35882
 N441 N 0.82539 0.53305 -0.32413
 C442 C 0.84281 0.51366 -0.28076
 N443 N 0.85610 0.53131 -0.24834
 N444 N 0.87236 0.53147 -0.21878
 C445 C 0.87602 0.51407 -0.22098
 N446 N 0.86266 0.49640 -0.25320
 N447 N 0.84631 0.49616 -0.28239
 C448 C 0.89475 0.51473 -0.19133
 N449 N 0.90135 0.49989 -0.20372
 N450 N 0.91893 0.50096 -0.17882
 C451 C 0.93044 0.51680 -0.14033
 N452 N 0.92374 0.53153 -0.12745
 N453 N 0.90625 0.53058 -0.15273
 C454 C 0.48855 0.31220 -0.31195
 N455 N 0.46952 0.29310 -0.32346
 N456 N 0.46958 0.27841 -0.35879
 C457 C 0.48871 0.28223 -0.38353
 N458 N 0.50776 0.30118 -0.37143
 N459 N 0.50767 0.31592 -0.33645
 C460 C 0.48837 0.32921 -0.27642
 N461 N 0.50615 0.34998 -0.27551
 N462 N 0.50568 0.36591 -0.24605
 C463 C 0.48747 0.36162 -0.21601
 N464 N 0.46975 0.34077 -0.21630
 N465 N 0.47016 0.32486 -0.24618
 C466 C 0.48667 0.37959 -0.18631
 N467 N 0.47043 0.37527 -0.14879
 N468 N 0.46943 0.39180 -0.12357
 C469 C 0.48450 0.41318 -0.13546
 N470 N 0.50070 0.41747 -0.17288
 N471 N 0.50183 0.40098 -0.19765
 C472 C 0.68783 0.17292 -0.31438
 N473 N 0.68421 0.18830 -0.33932
 N474 N 0.69921 0.20320 -0.37364
 C475 C 0.71833 0.20318 -0.38462
 N476 N 0.72204 0.18789 -0.35947
 N477 N 0.70708 0.17306 -0.32479
 C478 C 0.67059 0.15573 -0.27939
 N479 N 0.67485 0.14200 -0.24835
 N480 N 0.65879 0.12578 -0.21869
 C481 C 0.63789 0.12262 -0.21943
 N482 N 0.63369 0.13639 -0.25031
 N483 N 0.64976 0.15270 -0.27955
 C484 C 0.61981 0.10404 -0.18959
 N485 N 0.59843 0.09782 -0.20147
 N486 N 0.58186 0.08046 -0.17626
 C487 C 0.58606 0.06881 -0.13785
 N488 N 0.60743 0.07512 -0.12547
 N489 N 0.62404 0.09238 -0.15112
 C490 C 1.17074 0.48699 -0.31323
 N491 N 1.17017 0.46761 -0.32453
 N492 N 1.18476 0.46709 -0.35948
 C493 C 1.20053 0.48597 -0.38401
 N494 N 1.20126 0.50536 -0.37210
 N495 N 1.18659 0.50585 -0.33752
 C496 C 1.15376 0.48750 -0.27810
 N497 N 1.15149 0.50575 -0.27748
 N498 N 1.13537 0.50599 -0.24827
 C499 C 1.12103 0.48805 -0.21819
 N500 N 1.12344 0.46986 -0.21820
 N501 N 1.13947 0.46956 -0.24784
 C502 C 1.10263 0.48810 -0.18854
 N503 N 1.09040 0.47219 -0.15070
 N504 N 1.07329 0.47206 -0.12533
 C505 C 1.06772 0.48771 -0.13739
 N506 N 1.07995 0.50358 -0.17516
 N507 N 1.09715 0.50384 -0.20008
 C508 C 0.51507 0.68297 -0.32541
 N509 N 0.49629 0.68415 -0.33124
 N510 N 0.49592 0.69923 -0.36457
 C511 C 0.51445 0.71392 -0.39249
 N512 N 0.53335 0.71300 -0.38563
 N513 N 0.53359 0.69766 -0.35314
 C514 C 0.51501 0.66527 -0.29253
 N515 N 0.52664 0.65552 -0.31004
 N516 N 0.52587 0.63872 -0.28184
 C517 C 0.51377 0.63134 -0.23457
 N518 N 0.50235 0.64127 -0.21661
 N519 N 0.50278 0.65781 -0.24544
 C520 C 0.51272 0.61262 -0.20430
 N521 N 0.51257 0.61225 -0.14802
 N522 N 0.51206 0.59535 -0.12077
 C523 C 0.51121 0.57806 -0.14892
 N524 N 0.51111 0.57833 -0.20515
 N525 N 0.51206 0.59542 -0.23237
 C526 C 0.31881 -0.17254 -0.31919
 N527 N 0.29967 -0.17243 -0.32929
 N528 N 0.28455 -0.18717 -0.36379
 C529 C 0.28797 -0.20265 -0.38905
 N530 N 0.30698 -0.20291 -0.37838
 N531 N 0.32216 -0.18808 -0.34424
 C532 C 0.33618 -0.15546 -0.28421
 N533 N 0.35696 -0.15260 -0.28464
 N534 N 0.37311 -0.13643 -0.25526
 C535 C 0.36905 -0.12263 -0.22399
 N536 N 0.34821 -0.12563 -0.22302
 N537 N 0.33208 -0.14171 -0.25281
 C538 C 0.38717 -0.10425 -0.19371
 N539 N 0.38296 -0.09265 -0.15499
 N540 N 0.39956 -0.07558 -0.12883
 C541 C 0.42093 -0.06940 -0.14090
 N542 N 0.42513 -0.08098 -0.17957
 N543 N 0.40855 -0.09816 -0.20532
 C544 C 0.51021 -0.17592 0.31736
 N545 N 0.52920 -0.17648 0.32597
 N546 N 0.52951 -0.19122 0.36063
 C547 C 0.51079 -0.20604 0.38758
 N548 N 0.49174 -0.20565 0.37844
 N549 N 0.49148 -0.19081 0.34411
 C550 C 0.51021 -0.15872 0.28219
 N551 N 0.49284 -0.15500 0.28355
 N552 N 0.49332 -0.13857 0.25423
 C553 C 0.51111 -0.12536 0.22213
 N554 N 0.52838 -0.12925 0.22021
 N555 N 0.52797 -0.14558 0.24990
 C556 C 0.51203 -0.10656 0.19224
 N557 N 0.52797 -0.09525 0.15365
 N558 N 0.52916 -0.07770 0.12814
 C559 C 0.51460 -0.07075 0.14077
 N560 N 0.49868 -0.08207 0.17927
 N561 N 0.49736 -0.09971 0.20439
 C562 C 0.31021 0.48466 0.31452
 N563 N 0.31375 0.50373 0.33881
 N564 N 0.29899 0.50369 0.37399
 C565 C 0.28019 0.48455 0.38652
 N566 N 0.27655 0.46547 0.36200
 N567 N 0.29127 0.46553 0.32647
 C568 C 0.32728 0.48469 0.27867
 N569 N 0.32318 0.46651 0.24877
 N570 N 0.33917 0.46639 0.21851
 C571 C 0.35985 0.48439 0.21748
 N572 N 0.36387 0.50257 0.24718
 N573 N 0.34787 0.50275 0.27701
 C574 C 0.37798 0.48399 0.18736
 N575 N 0.39929 0.49959 0.19805
 N576 N 0.41596 0.49890 0.17292
 C577 C 0.41195 0.48271 0.13575
 N578 N 0.39063 0.46720 0.12449
 N579 N 0.37392 0.46777 0.15009
 C580 C 1.17530 0.68641 0.31511
 N581 N 1.17565 0.70572 0.32582
 N582 N 1.19059 0.72054 0.36053
 C583 C 1.20581 0.71662 0.38540
 N584 N 1.20562 0.69744 0.37413
 N585 N 1.19060 0.68257 0.33979
 C586 C 1.15797 0.66935 0.28003
 N587 N 1.15461 0.64842 0.28005
 N588 N 1.13817 0.63254 0.25073
 C589 C 1.12457 0.63703 0.21991
 N590 N 1.12807 0.65803 0.21932
 N591 N 1.14442 0.67390 0.24906
 C592 C 1.10582 0.61917 0.18997
 N593 N 1.09438 0.62370 0.15152
 N594 N 1.07694 0.60732 0.12582
 C595 C 1.07024 0.58587 0.13813
 N596 N 1.08169 0.58137 0.17650
 N597 N 1.09922 0.59772 0.20177
 C598 C 0.49083 0.17269 0.31653
 N599 N 0.47156 0.17248 0.32716
 N600 N 0.47116 0.18714 0.36200
 C601 C 0.49005 0.20263 0.38706
 N602 N 0.50934 0.20300 0.37583
 N603 N 0.50971 0.18826 0.34136
 C604 C 0.49114 0.15561 0.28148
 N605 N 0.50906 0.15276 0.28178
 N606 N 0.50905 0.13653 0.25256
 C607 C 0.49118 0.12266 0.22157
 N608 N 0.47333 0.12566 0.22069
 N609 N 0.47327 0.14180 0.25034
 C610 C 0.49089 0.10416 0.19170
 N611 N 0.47513 0.09252 0.15303
 N612 N 0.47461 0.07532 0.12734
 C613 C 0.48971 0.06904 0.13988
 N614 N 0.50545 0.08068 0.17849
 N615 N 0.50609 0.09799 0.20376
 C616 C 0.68455 0.52067 0.32621
 N617 N 0.69531 0.53682 0.36454
 N618 N 0.71084 0.53677 0.39666
 C619 C 0.71592 0.52038 0.39222
 N620 N 0.70516 0.50421 0.35389
 N621 N 0.68987 0.50446 0.32107
 C622 C 0.66655 0.52008 0.29341
 N623 N 0.66178 0.51102 0.24189
 N624 N 0.64503 0.51012 0.21294
 C625 C 0.63223 0.51786 0.23500
 N626 N 0.63694 0.52679 0.28661
 N627 N 0.65391 0.52805 0.31511
 C628 C 0.61334 0.51629 0.20431
 N629 N 0.59512 0.51347 0.23196
 N630 N 0.57789 0.51208 0.20445
 C631 C 0.57843 0.51385 0.14840
 N632 N 0.59670 0.51682 0.12068
 N633 N 0.61380 0.51782 0.14815
 C634 C 0.83157 0.31678 0.32570
 N635 N 0.81016 0.31211 0.32372
 N636 N 0.79494 0.29661 0.35667
 C637 C 0.80055 0.28500 0.39191
 N638 N 0.82187 0.28945 0.39316
 N639 N 0.83714 0.30518 0.36097
 C640 C 0.84875 0.33492 0.29292
 N641 N 0.86955 0.34704 0.31361
 N642 N 0.88519 0.36396 0.28499
 C643 C 0.88070 0.36911 0.23421
 N644 N 0.85995 0.35685 0.21314
 N645 N 0.84416 0.34016 0.24227
 C646 C 0.89806 0.38782 0.20327
 N647 N 0.89908 0.38726 0.14711
 N648 N 0.91543 0.40405 0.11953
 C649 C 0.93104 0.42210 0.14714
 N650 N 0.92984 0.42275 0.20318
 N651 N 0.91375 0.40582 0.23079
   
