data_POSCAR
  _audit_creation_date              2014-09-24
  _audit_creation_method            'ToBaCCo'
  _symmetry_space_group_name_H-M    'P1'
  _symmetry_Int_Tables_number       1
  _symmetry_cell_setting            triclinic
  loop_
  _symmetry_equiv_pos_as_xyz
 x,y,z
_cell_length_a 36.6153
_cell_length_b 44.5769
_cell_length_c 39.5942
_cell_angle_alpha 89.539700
_cell_angle_beta 92.346500
_cell_angle_gamma 91.345800
loop_
  _atom_site_label
  _atom_site_type_symbol
  _atom_site_fract_x
  _atom_site_fract_y
  _atom_site_fract_z
C1 C 0.28951 0.26974 0.24137
 C2 C 0.26300 0.25690 0.26193
 C3 C 0.23847 0.27532 0.27795
 C4 C 0.24014 0.30668 0.27328
 C5 C 0.26712 0.31913 0.25272
 C6 C 0.29152 0.30086 0.23647
 C7 C 0.25904 0.22401 0.26397
 C8 C 0.27369 0.20814 0.29194
 C9 C 0.27101 0.17664 0.29292
 C10 C 0.25363 0.16135 0.26564
 C11 C 0.23937 0.17693 0.23733
 C12 C 0.24206 0.20838 0.23677
 H13 H 0.30774 0.25540 0.22830
 H14 H 0.21733 0.26509 0.29288
 H15 H 0.28729 0.22024 0.31268
 H16 H 0.23165 0.22077 0.21490
 H17 H 0.26939 0.34323 0.24933
 H18 H 0.25167 0.13706 0.26629
 C19 C 0.77803 0.77156 0.23295
 C20 C 0.75190 0.75960 0.25438
 C21 C 0.73019 0.77864 0.27254
 C22 C 0.73415 0.81011 0.26962
 C23 C 0.76128 0.82165 0.24829
 C24 C 0.78324 0.80284 0.22937
 C25 C 0.74492 0.72696 0.25528
 C26 C 0.76436 0.70859 0.27827
 C27 C 0.75781 0.67734 0.27854
 C28 C 0.73174 0.66489 0.25524
 C29 C 0.71216 0.68313 0.23213
 C30 C 0.71892 0.71423 0.23243
 H31 H 0.79459 0.75608 0.21969
 H32 H 0.70887 0.76849 0.28726
 H33 H 0.78415 0.71870 0.29607
 H34 H 0.70448 0.72860 0.21445
 H35 H 0.76486 0.84560 0.24593
 H36 H 0.72668 0.64086 0.25502
 C37 C 0.77200 0.30208 0.72493
 C38 C 0.75020 0.28256 0.74361
 C39 C 0.72515 0.29393 0.76556
 C40 C 0.72131 0.32509 0.76955
 C41 C 0.74295 0.34455 0.74973
 C42 C 0.76857 0.33329 0.72768
 C43 C 0.75430 0.24992 0.74182
 C44 C 0.77705 0.23556 0.76574
 C45 C 0.77787 0.20396 0.76791
 C46 C 0.75475 0.18726 0.74514
 C47 C 0.73187 0.20154 0.72077
 C48 C 0.73220 0.23303 0.71920
 H49 H 0.79215 0.29285 0.70889
 H50 H 0.70807 0.27796 0.77877
 H51 H 0.79215 0.24947 0.78401
 H52 H 0.71477 0.24459 0.70083
 H53 H 0.74120 0.36859 0.75224
 H54 H 0.75465 0.16303 0.74584
 C55 C 0.26166 0.80348 0.73487
 C56 C 0.23933 0.78491 0.75434
 C57 C 0.21789 0.79729 0.77876
 C58 C 0.21847 0.82833 0.78402
 C59 C 0.24082 0.84693 0.76425
 C60 C 0.26306 0.83493 0.73948
 C61 C 0.24106 0.75214 0.75154
 C62 C 0.26491 0.73655 0.77335
 C63 C 0.26690 0.70522 0.77175
 C64 C 0.24385 0.68956 0.74830
 C65 C 0.21953 0.70498 0.72615
 C66 C 0.21871 0.73650 0.72783
 H67 H 0.27947 0.79274 0.71775
 H68 H 0.20089 0.78260 0.79378
 H69 H 0.28164 0.74898 0.79190
 H70 H 0.20080 0.74903 0.71076
 H71 H 0.24022 0.87086 0.76821
 H72 H 0.24484 0.66533 0.74741
 C73 C 0.05379 0.04287 0.02000
 H74 H 0.06640 0.02914 0.00163
 C75 C 0.07485 0.06466 0.03760
 H76 H 0.10361 0.06733 0.03267
 C77 C 0.00093 0.05690 0.04803
 H78 H -0.02795 0.05358 0.05203
 C79 C 0.02089 0.07885 0.06617
 H80 H 0.00721 0.09201 0.08450
 N81 N 0.01769 0.03894 0.02612
 C82 C -0.00001 -0.01550 -0.05880
 H83 H -0.02584 -0.00572 -0.06617
 C84 C 0.01966 -0.02986 -0.08306
 H85 H 0.00870 -0.03081 -0.10886
 C86 C 0.04470 -0.02736 -0.01616
 H87 H 0.05426 -0.02617 0.01002
 C88 C 0.06542 -0.04192 -0.03973
 H89 H 0.09117 -0.05160 -0.03154
 Zn90 Zn -0.01266 0.00912 0.00477
 N91 N 0.01329 -0.01359 -0.02629
 C92 C -0.03771 0.04974 -0.04285
 N93 N -0.04991 0.03009 -0.01923
 C94 C -0.08623 0.02629 -0.01401
 C95 C -0.11195 0.04178 -0.03413
 C96 C -0.06232 0.06540 -0.06362
 C97 C -0.01910 -0.01450 0.07054
 C98 C -0.03436 -0.03196 0.09594
 C99 C -0.07444 -0.05577 0.05370
 C100 C -0.05818 -0.03793 0.02899
 N101 N -0.03191 -0.01707 0.03794
 H102 H -0.00864 0.05252 -0.04621
 H103 H -0.09537 0.01122 0.00557
 H104 H -0.14075 0.03848 -0.02973
 H105 H -0.05181 0.07987 -0.08323
 H106 H 0.00284 0.00126 0.07705
 H107 H -0.02398 -0.02928 0.12176
 H108 H -0.09652 -0.07123 0.04630
 H109 H -0.06732 -0.04002 0.00276
 C110 C 0.05329 -0.04266 -0.07386
 C111 C 0.05850 0.08271 0.06143
 C112 C -0.06307 -0.05240 0.08783
 C113 C -0.10006 0.06141 -0.05963
 C114 C 0.08452 0.51816 0.51351
 H115 H 0.09479 0.50552 0.49289
 C116 C 0.10879 0.53546 0.53383
 H117 H 0.13753 0.53584 0.52845
 C118 C 0.03438 0.53454 0.54385
 H119 H 0.00523 0.53424 0.54736
 C120 C 0.05772 0.55175 0.56516
 H121 H 0.04616 0.56405 0.58545
 N122 N 0.04814 0.51756 0.51921
 C123 C 0.03509 0.46215 0.43270
 H124 H 0.01522 0.47557 0.41891
 C125 C 0.05393 0.44026 0.41574
 H126 H 0.04824 0.43720 0.38894
 C127 C 0.06458 0.44843 0.48469
 H128 H 0.06825 0.45156 0.51169
 C129 C 0.08438 0.42668 0.46872
 H130 H 0.10386 0.41378 0.48371
 Zn131 Zn 0.01515 0.49410 0.49157
 N132 N 0.04103 0.46603 0.46654
 C133 C 0.00589 0.53512 0.43744
 N134 N -0.01143 0.52097 0.46302
 C135 C -0.04654 0.52730 0.46974
 C136 C -0.06593 0.54801 0.44984
 C137 C -0.01265 0.55568 0.41657
 C138 C -0.01217 0.46797 0.55209
 C139 C -0.03606 0.44981 0.57041
 C140 C -0.06981 0.43815 0.51829
 C141 C -0.04513 0.45627 0.50099
 N142 N -0.01733 0.47110 0.51804
 H143 H 0.03412 0.53027 0.43311
 H144 H -0.05937 0.51679 0.49105
 H145 H -0.09357 0.55307 0.45622
 H146 H 0.00142 0.56595 0.39578
 H147 H 0.01092 0.47895 0.56505
 H148 H -0.03105 0.44717 0.59739
 H149 H -0.09222 0.42719 0.50420
 H150 H -0.04822 0.45871 0.47382
 C151 C 0.07921 0.42222 0.43373
 C152 C 0.09561 0.55229 0.56046
 C153 C -0.06545 0.43462 0.55351
 C154 C -0.04916 0.56242 0.42260
 C155 C 0.58783 0.00453 0.52601
 H156 H 0.59716 -0.00931 0.50597
 C157 C 0.61324 0.02145 0.54555
 H158 H 0.64193 0.02034 0.54019
 C159 C 0.53900 0.02445 0.55548
 H160 H 0.50991 0.02578 0.55883
 C161 C 0.56346 0.04137 0.57596
 H162 H 0.55281 0.05510 0.59554
 N163 N 0.55150 0.00612 0.53148
 C164 C 0.53499 -0.04262 0.44187
 H165 H 0.51712 -0.02665 0.42944
 C166 C 0.55262 -0.06364 0.42261
 H167 H 0.54813 -0.06350 0.39542
 C168 C 0.56097 -0.06326 0.49241
 H169 H 0.56392 -0.06299 0.51970
 C170 C 0.57927 -0.08449 0.47418
 H171 H 0.59679 -0.10012 0.48773
 Zn172 Zn 0.51648 -0.01516 0.50393
 N173 N 0.53988 -0.04256 0.47611
 C174 C 0.50819 0.03028 0.45475
 N175 N 0.49026 0.01389 0.47826
 C176 C 0.45510 0.01972 0.48533
 C177 C 0.43636 0.04240 0.46795
 C178 C 0.49029 0.05285 0.43636
 C179 C 0.48897 -0.04079 0.56450
 C180 C 0.46476 -0.05847 0.58296
 C181 C 0.43165 -0.07112 0.53079
 C182 C 0.45651 -0.05328 0.51335
 N183 N 0.48417 -0.03824 0.53036
 H184 H 0.53646 0.02573 0.45021
 H185 H 0.44178 0.00730 0.50507
 H186 H 0.40868 0.04700 0.47461
 H187 H 0.50486 0.06493 0.41707
 H188 H 0.51184 -0.02953 0.57747
 H189 H 0.46925 -0.06050 0.61007
 H190 H 0.40938 -0.08237 0.51679
 H191 H 0.45366 -0.05118 0.48613
 C192 C 0.57536 -0.08485 0.43875
 C193 C 0.60122 0.04016 0.57106
 C194 C 0.43554 -0.07385 0.56610
 C195 C 0.45381 0.05926 0.44285
 C196 C 0.55407 0.52030 0.00874
 H197 H 0.56272 0.50984 -0.01398
 C198 C 0.57988 0.53552 0.02952
 H199 H 0.60818 0.53638 0.02257
 C200 C 0.50666 0.53320 0.04449
 H201 H 0.47800 0.53209 0.05013
 C202 C 0.53160 0.54860 0.06609
 H203 H 0.52192 0.55897 0.08857
 N204 N 0.51839 0.51863 0.01704
 C205 C 0.49704 0.47884 -0.07715
 H206 H 0.47375 0.49218 -0.08437
 C207 C 0.51684 0.46565 -0.10223
 H208 H 0.50860 0.46919 -0.12851
 C209 C 0.53499 0.45685 -0.03435
 H210 H 0.54203 0.45375 -0.00777
 C211 C 0.55571 0.44337 -0.05861
 H212 H 0.57891 0.43016 -0.05039
 Zn213 Zn 0.48366 0.49600 -0.00969
 N214 N 0.50721 0.47517 -0.04396
 C215 C 0.46185 0.54298 -0.05281
 N216 N 0.44965 0.52306 -0.02943
 C217 C 0.41394 0.52196 -0.02121
 C218 C 0.38846 0.53978 -0.03858
 C219 C 0.43723 0.56078 -0.07128
 C220 C 0.46764 0.46333 0.05050
 C221 C 0.44650 0.44400 0.07013
 C222 C 0.40935 0.43160 0.02012
 C223 C 0.43143 0.45087 0.00141
 N224 N 0.45900 0.46714 0.01701
 H225 H 0.49054 0.54387 -0.05836
 H226 H 0.40497 0.50698 -0.00148
 H227 H 0.36014 0.53832 -0.03178
 H228 H 0.44740 0.57492 -0.09132
 H229 H 0.49039 0.47570 0.06226
 H230 H 0.45274 0.44215 0.09702
 H231 H 0.38663 0.41965 0.00755
 H232 H 0.42564 0.45388 -0.02540
 C233 C 0.54720 0.44825 -0.09312
 C234 C 0.56890 0.54943 0.05902
 C235 C 0.41631 0.42854 0.05507
 C236 C 0.39975 0.55886 -0.06481
 C237 C 0.17735 -0.13204 -0.19535
 C238 C 0.15679 -0.11961 -0.17005
 C239 C 0.15489 -0.13411 -0.13824
 C240 C 0.17373 -0.16076 -0.13229
 C241 C 0.19429 -0.17292 -0.15757
 C242 C 0.19632 -0.15873 -0.18932
 C243 C 0.13425 -0.12174 -0.11294
 C244 C 0.11553 -0.09500 -0.11902
 C245 C 0.11757 -0.08049 -0.15082
 C246 C 0.13812 -0.09289 -0.17611
 C247 C 0.09898 -0.05377 -0.15686
 C248 C 0.07836 -0.04156 -0.13175
 C249 C 0.07579 -0.05584 -0.10009
 C250 C 0.09468 -0.08255 -0.09385
 H251 H 0.17827 -0.12110 -0.21986
 H252 H 0.17272 -0.17213 -0.10805
 H253 H 0.20907 -0.19327 -0.15209
 H254 H 0.13276 -0.13290 -0.08857
 H255 H 0.13960 -0.08173 -0.20049
 H256 H 0.10041 -0.04228 -0.18101
 H257 H 0.06465 -0.02067 -0.13702
 H258 H 0.09269 -0.09390 -0.06966
 C259 C 0.20133 0.32110 0.32163
 C260 C 0.17776 0.34107 0.33669
 C261 C 0.16626 0.36699 0.31877
 C262 C 0.17744 0.37198 0.28577
 C263 C 0.20053 0.35194 0.27089
 C264 C 0.21342 0.32662 0.28878
 C265 C 0.14407 0.38769 0.33416
 C266 C 0.13290 0.38274 0.36723
 C267 C 0.14341 0.35640 0.38483
 C268 C 0.16588 0.33578 0.36952
 C269 C 0.13151 0.35126 0.41759
 C270 C 0.11003 0.37225 0.43306
 C271 C 0.10032 0.39908 0.41630
 C272 C 0.11169 0.40393 0.38311
 H273 H 0.21103 0.30177 0.33582
 H274 H 0.16848 0.39150 0.27150
 H275 H 0.20837 0.35636 0.24523
 H276 H 0.13575 0.40775 0.32050
 H277 H 0.17435 0.31580 0.38325
 H278 H 0.13890 0.33102 0.43133
 H279 H 0.10097 0.36736 0.45823
 H280 H 0.10492 0.42454 0.36984
 C281 C 0.69480 -0.17909 0.31738
 C282 C 0.67290 -0.15933 0.33473
 C283 C 0.66689 -0.13021 0.32170
 C284 C 0.68214 -0.12152 0.29127
 C285 C 0.70368 -0.14121 0.27406
 C286 C 0.71108 -0.17029 0.28689
 C287 C 0.64588 -0.11012 0.33930
 C288 C 0.63068 -0.11877 0.36990
 C289 C 0.63615 -0.14806 0.38279
 C290 C 0.65725 -0.16815 0.36517
 C291 C 0.62064 -0.15667 0.41326
 C292 C 0.60040 -0.13633 0.43107
 C293 C 0.59537 -0.10691 0.41888
 C294 C 0.61045 -0.09843 0.38801
 H295 H 0.70032 -0.20074 0.32878
 H296 H 0.67723 -0.09945 0.28060
 H297 H 0.71323 -0.13361 0.24991
 H298 H 0.64157 -0.08769 0.32931
 H299 H 0.66167 -0.19054 0.37524
 H300 H 0.62428 -0.17910 0.42341
 H301 H 0.58856 -0.14371 0.45442
 H302 H 0.60726 -0.07575 0.37844
 C303 C 0.68095 0.36469 -0.21096
 C304 C 0.65687 0.37545 -0.18736
 C305 C 0.64846 0.35775 -0.15884
 C306 C 0.66418 0.32969 -0.15435
 C307 C 0.68803 0.31910 -0.17782
 C308 C 0.69690 0.33624 -0.20672
 C309 C 0.62460 0.36839 -0.13513
 C310 C 0.60905 0.39665 -0.13948
 C311 C 0.61726 0.41438 -0.16807
 C312 C 0.64102 0.40364 -0.19189
 C313 C 0.60175 0.44267 -0.17221
 C314 C 0.57869 0.45346 -0.14806
 C315 C 0.57051 0.43611 -0.11939
 C316 C 0.58565 0.40754 -0.11547
 H317 H 0.68585 0.37822 -0.23321
 H318 H 0.65834 0.31597 -0.13241
 H319 H 0.70060 0.29784 -0.17215
 H320 H 0.61830 0.35477 -0.11320
 H321 H 0.64736 0.41730 -0.21378
 H322 H 0.60780 0.45662 -0.19391
 H323 H 0.56788 0.47573 -0.15149
 H324 H 0.57920 0.39374 -0.09375
 C325 C -0.20868 0.16097 -0.19395
 C326 C -0.18653 0.14732 -0.16873
 C327 C -0.15444 0.16232 -0.15621
 C328 C -0.14495 0.19057 -0.16912
 C329 C -0.16701 0.20404 -0.19415
 C330 C -0.19944 0.18968 -0.20706
 C331 C -0.13218 0.14880 -0.13112
 C332 C -0.14137 0.12025 -0.11857
 C333 C -0.17351 0.10518 -0.13092
 C334 C -0.19604 0.11889 -0.15578
 C335 C -0.18225 0.07646 -0.11851
 C336 C -0.15887 0.06249 -0.09475
 C337 C -0.12650 0.07711 -0.08270
 C338 C -0.11844 0.10632 -0.09431
 H339 H -0.23389 0.14953 -0.20203
 H340 H -0.12019 0.20222 -0.16005
 H341 H -0.15754 0.22536 -0.20412
 H342 H -0.10746 0.16034 -0.12166
 H343 H -0.22068 0.10730 -0.16531
 H344 H -0.20676 0.06453 -0.12770
 H345 H -0.16561 0.03986 -0.08659
 H346 H -0.09401 0.11816 -0.08476
 C347 C -0.18431 0.66204 0.31012
 C348 C -0.16501 0.64212 0.33160
 C349 C -0.18365 0.61731 0.34601
 C350 C -0.22128 0.61319 0.33934
 C351 C -0.24024 0.63309 0.31807
 C352 C -0.22199 0.65747 0.30284
 C353 C -0.16439 0.59687 0.36666
 C354 C -0.12670 0.60095 0.37333
 C355 C -0.10811 0.62601 0.35946
 C356 C -0.12734 0.64639 0.33860
 C357 C -0.07054 0.63018 0.36665
 C358 C -0.05151 0.60970 0.38724
 C359 C -0.06955 0.58440 0.40086
 C360 C -0.10732 0.58027 0.39363
 H361 H -0.16981 0.68058 0.29838
 H362 H -0.23604 0.59446 0.35042
 H363 H -0.26935 0.62937 0.31352
 H364 H -0.17873 0.57773 0.37746
 H365 H -0.11298 0.66548 0.32773
 H366 H -0.05586 0.64937 0.35645
 H367 H -0.02268 0.61393 0.39281
 H368 H -0.12165 0.56072 0.40339
 C369 C 0.32433 0.16442 0.33202
 C370 C 0.34196 0.14450 0.35468
 C371 C 0.32243 0.11926 0.36715
 C372 C 0.28539 0.11497 0.35778
 C373 C 0.26825 0.13462 0.33494
 C374 C 0.28772 0.15905 0.32121
 C375 C 0.34046 0.09820 0.38790
 C376 C 0.37788 0.10184 0.39618
 C377 C 0.39722 0.12747 0.38461
 C378 C 0.37912 0.14872 0.36403
 C379 C 0.43454 0.13111 0.39330
 C380 C 0.45272 0.10927 0.41264
 C381 C 0.43406 0.08318 0.42350
 C382 C 0.39640 0.07987 0.41531
 H383 H 0.33961 0.18308 0.32133
 H384 H 0.26994 0.09591 0.36732
 H385 H 0.23991 0.13028 0.32722
 H386 H 0.32555 0.07861 0.39695
 H387 H 0.39413 0.16812 0.35466
 H388 H 0.44976 0.15076 0.38496
 H389 H 0.48147 0.11292 0.41918
 H390 H 0.38157 0.05979 0.42296
 C391 C 0.28290 0.66185 -0.18982
 C392 C 0.30740 0.64723 -0.16738
 C393 C 0.34243 0.66019 -0.16004
 C394 C 0.35256 0.68727 -0.17560
 C395 C 0.32817 0.70153 -0.19807
 C396 C 0.29302 0.68917 -0.20523
 C397 C 0.36685 0.64584 -0.13739
 C398 C 0.35697 0.61841 -0.12237
 C399 C 0.32212 0.60526 -0.12998
 C400 C 0.29744 0.61986 -0.15221
 C401 C 0.31271 0.57752 -0.11550
 C402 C 0.33774 0.56271 -0.09411
 C403 C 0.37254 0.57553 -0.08624
 C404 C 0.38166 0.60371 -0.10025
 H405 H 0.25578 0.65222 -0.19480
 H406 H 0.37939 0.69739 -0.17047
 H407 H 0.33695 0.72226 -0.21003
 H408 H 0.39367 0.65587 -0.13173
 H409 H 0.27066 0.60980 -0.15793
 H410 H 0.28621 0.56701 -0.12121
 H411 H 0.33005 0.54079 -0.08441
 H412 H 0.40804 0.61424 -0.09410
 C413 C -0.17575 -0.15572 0.21133
 C414 C -0.15405 -0.14205 0.18695
 C415 C -0.14659 -0.15763 0.15723
 C416 C -0.16035 -0.18697 0.15282
 C417 C -0.18245 -0.20035 0.17698
 C418 C -0.19144 -0.18473 0.20637
 C419 C -0.12606 -0.14345 0.13221
 C420 C -0.11334 -0.11369 0.13645
 C421 C -0.12042 -0.09833 0.16652
 C422 C -0.14040 -0.11267 0.19166
 C423 C -0.10799 -0.06862 0.17076
 C424 C -0.08917 -0.05400 0.14528
 C425 C -0.08210 -0.06882 0.11508
 C426 C -0.09413 -0.09885 0.11095
 H427 H -0.17973 -0.14358 0.23440
 H428 H -0.15490 -0.19931 0.13018
 H429 H -0.19410 -0.22232 0.17122
 H430 H -0.12061 -0.15535 0.10923
 H431 H -0.14606 -0.10070 0.21455
 H432 H -0.11332 -0.05651 0.19360
 H433 H -0.08084 -0.03075 0.14895
 H434 H -0.08856 -0.11064 0.08795
 C435 C -0.19799 0.34709 0.67531
 C436 C -0.17415 0.36597 0.65755
 C437 C -0.15986 0.39255 0.67280
 C438 C -0.16945 0.39964 0.70565
 C439 C -0.19275 0.38050 0.72335
 C440 C -0.20733 0.35403 0.70844
 C441 C -0.13599 0.41145 0.65512
 C442 C -0.12583 0.40390 0.62252
 C443 C -0.13990 0.37718 0.60741
 C444 C -0.16414 0.35850 0.62490
 C445 C -0.12932 0.36948 0.57506
 C446 C -0.10504 0.38803 0.55777
 C447 C -0.09105 0.41485 0.57231
 C448 C -0.10169 0.42260 0.60482
 H449 H -0.20932 0.32701 0.66325
 H450 H -0.15857 0.41981 0.71783
 H451 H -0.19875 0.38618 0.74904
 H452 H -0.12511 0.43187 0.66682
 H453 H -0.17495 0.33804 0.61323
 H454 H -0.13963 0.34898 0.56320
 H455 H -0.09685 0.38113 0.53311
 H456 H -0.09154 0.44334 0.61624
 C457 C 0.29856 -0.15516 0.68853
 C458 C 0.32298 -0.13718 0.67035
 C459 C 0.33594 -0.10952 0.68381
 C460 C 0.32426 -0.10031 0.71518
 C461 C 0.30020 -0.11839 0.73331
 C462 C 0.28688 -0.14630 0.72053
 C463 C 0.36053 -0.09157 0.66580
 C464 C 0.37246 -0.10103 0.63449
 C465 C 0.35945 -0.12872 0.62096
 C466 C 0.33470 -0.14655 0.63889
 C467 C 0.37152 -0.13816 0.58973
 C468 C 0.39627 -0.12038 0.57203
 C469 C 0.40938 -0.09276 0.58515
 C470 C 0.39726 -0.08325 0.61650
 H471 H 0.28795 -0.17562 0.67687
 H472 H 0.33418 -0.07926 0.72602
 H473 H 0.29370 -0.11072 0.75813
 H474 H 0.37048 -0.07033 0.67621
 H475 H 0.32477 -0.16780 0.62848
 H476 H 0.36195 -0.15937 0.57905
 H477 H 0.40554 -0.12845 0.54820
 H478 H 0.40675 -0.06183 0.62670
 C479 C 0.30510 0.33407 0.18744
 C480 C 0.32955 0.34767 0.16536
 C481 C 0.36732 0.34189 0.16911
 C482 C 0.37976 0.32189 0.19439
 C483 C 0.35506 0.30809 0.21601
 C484 C 0.31769 0.31441 0.21297
 C485 C 0.39195 0.35631 0.14769
 C486 C 0.37918 0.37618 0.12239
 C487 C 0.34124 0.38120 0.11813
 C488 C 0.31674 0.36703 0.13972
 C489 C 0.32839 0.40056 0.09251
 C490 C 0.35288 0.41529 0.07161
 C491 C 0.39069 0.41110 0.07605
 C492 C 0.40369 0.39134 0.10142
 H493 H 0.27616 0.33864 0.18471
 H494 H 0.40856 0.31705 0.19754
 H495 H 0.36519 0.29294 0.23557
 H496 H 0.42098 0.35220 0.15081
 H497 H 0.28771 0.37121 0.13667
 H498 H 0.29942 0.40458 0.08887
 H499 H 0.34231 0.43065 0.05247
 H500 H 0.43282 0.38783 0.10480
 C501 C 0.18936 0.16968 0.19254
 C502 C 0.17169 0.15237 0.16698
 C503 C 0.18720 0.12522 0.15698
 C504 C 0.22052 0.11628 0.17200
 C505 C 0.23780 0.13353 0.19746
 C506 C 0.22214 0.16007 0.20843
 C507 C 0.16881 0.10710 0.13270
 C508 C 0.13486 0.11556 0.11851
 C509 C 0.11971 0.14303 0.12786
 C510 C 0.13831 0.16135 0.15190
 C511 C 0.08574 0.15134 0.11359
 C512 C 0.06638 0.13218 0.09118
 C513 C 0.08065 0.10437 0.08252
 C514 C 0.11533 0.09652 0.09585
 H515 H 0.17693 0.19002 0.20090
 H516 H 0.23294 0.09569 0.16443
 H517 H 0.26343 0.12598 0.20877
 H518 H 0.18051 0.08608 0.12544
 H519 H 0.12643 0.18221 0.15942
 H520 H 0.07383 0.17241 0.12024
 H521 H 0.04001 0.13900 0.08083
 H522 H 0.12649 0.07501 0.08974
 C523 C 0.20627 0.66201 0.68607
 C524 C 0.18256 0.64586 0.66372
 C525 C 0.14699 0.65635 0.65621
 C526 C 0.13559 0.68256 0.67152
 C527 C 0.15909 0.69819 0.69421
 C528 C 0.19474 0.68824 0.70172
 C529 C 0.12328 0.64036 0.63375
 C530 C 0.13443 0.61365 0.61921
 C531 C 0.16981 0.60293 0.62710
 C532 C 0.19377 0.61923 0.64903
 C533 C 0.18053 0.57590 0.61315
 C534 C 0.15644 0.55953 0.59169
 C535 C 0.12123 0.57003 0.58326
 C536 C 0.11059 0.59734 0.59711
 H537 H 0.23378 0.65419 0.69106
 H538 H 0.10832 0.69080 0.66628
 H539 H 0.14902 0.71788 0.70630
 H540 H 0.09605 0.64852 0.62792
 H541 H 0.22096 0.61102 0.65495
 H542 H 0.20744 0.56721 0.61914
 H543 H 0.16529 0.53833 0.58214
 H544 H 0.08385 0.60611 0.59058
 C545 C 0.71709 0.15599 0.68494
 C546 C 0.69267 0.13877 0.66433
 C547 C 0.65749 0.14965 0.65585
 C548 C 0.64714 0.17730 0.66848
 C549 C 0.67127 0.19398 0.68952
 C550 C 0.70656 0.18366 0.69793
 C551 C 0.63306 0.13262 0.63516
 C552 C 0.64305 0.10451 0.62340
 C553 C 0.67800 0.09338 0.63226
 C554 C 0.70275 0.11070 0.65238
 C555 C 0.68749 0.06497 0.62104
 C556 C 0.66256 0.04768 0.60135
 C557 C 0.62777 0.05860 0.59208
 C558 C 0.61842 0.08725 0.60313
 H559 H 0.74430 0.14784 0.69071
 H560 H 0.62016 0.18584 0.66248
 H561 H 0.66196 0.21480 0.69969
 H562 H 0.60614 0.14108 0.62858
 H563 H 0.72963 0.10220 0.65905
 H564 H 0.71406 0.05598 0.62778
 H565 H 0.67041 0.02554 0.59381
 H566 H 0.59206 0.09634 0.59577
 C567 C 0.69253 0.64297 0.19078
 C568 C 0.66681 0.63002 0.16771
 C569 C 0.63293 0.64395 0.16112
 C570 C 0.62544 0.67065 0.17771
 C571 C 0.65120 0.68338 0.20070
 C572 C 0.68492 0.66966 0.20753
 C573 C 0.60710 0.63095 0.13814
 C574 C 0.61469 0.60414 0.12175
 C575 C 0.64864 0.59029 0.12832
 C576 C 0.67447 0.60333 0.15119
 C577 C 0.65616 0.56351 0.11200
 C578 C 0.63030 0.55044 0.08945
 C579 C 0.59640 0.56391 0.08265
 C580 C 0.58884 0.59088 0.09894
 H581 H 0.71866 0.63243 0.19543
 H582 H 0.59960 0.68161 0.17303
 H583 H 0.64452 0.70377 0.21353
 H584 H 0.58109 0.64162 0.13313
 H585 H 0.70047 0.59264 0.15624
 H586 H 0.68198 0.55254 0.11684
 H587 H 0.63662 0.52943 0.07772
 H588 H 0.56299 0.60168 0.09366
   
