data_POSCAR
  _audit_creation_date              2014-09-24
  _audit_creation_method            'ToBaCCo'
  _symmetry_space_group_name_H-M    'P1'
  _symmetry_Int_Tables_number       1
  _symmetry_cell_setting            triclinic
  loop_
  _symmetry_equiv_pos_as_xyz
 x,y,z
_cell_length_a 29.6494
_cell_length_b 18.1505
_cell_length_c 11.0326
_cell_angle_alpha 90.032300
_cell_angle_beta 89.915200
_cell_angle_gamma 90.242600
loop_
  _atom_site_label
  _atom_site_type_symbol
  _atom_site_fract_x
  _atom_site_fract_y
  _atom_site_fract_z
C1 C 0.74905 0.24740 0.43970
 C2 C 0.74880 0.24911 0.56296
 C3 C 0.71114 0.28247 0.63252
 C4 C 0.78636 0.21692 0.63341
 C5 C 0.78598 0.21187 0.37169
 C6 C 0.71310 0.28217 0.36748
 C7 C 0.71988 0.33863 0.71663
 C8 C 0.68455 0.37175 0.78041
 C9 C 0.63935 0.34967 0.76084
 C10 C 0.63125 0.29130 0.67862
 C11 C 0.66673 0.25770 0.61679
 C12 C 0.83024 0.24523 0.62249
 C13 C 0.86606 0.21127 0.68195
 C14 C 0.85846 0.14938 0.75592
 C15 C 0.81404 0.12334 0.77123
 C16 C 0.77832 0.15673 0.71004
 C17 C 0.78676 0.13515 0.35740
 C18 C 0.82278 0.10161 0.29723
 C19 C 0.85893 0.14432 0.25373
 C20 C 0.85807 0.22107 0.26820
 C21 C 0.82137 0.25477 0.32483
 C22 C 0.67907 0.23865 0.31530
 C23 C 0.64343 0.27177 0.25335
 C24 C 0.64247 0.34850 0.23872
 C25 C 0.67750 0.39172 0.28703
 C26 C 0.71234 0.35879 0.35237
 H27 H 0.75409 0.35773 0.73144
 H28 H 0.69286 0.41572 0.84309
 H29 H 0.59744 0.27100 0.66146
 H30 H 0.65944 0.21223 0.55635
 H31 H 0.83681 0.29321 0.56689
 H32 H 0.89969 0.23362 0.66997
 H33 H 0.74451 0.13475 0.72049
 H34 H 0.75963 0.10145 0.39332
 H35 H 0.82298 0.04229 0.28700
 H36 H 0.88547 0.25490 0.23413
 H37 H 0.82108 0.31412 0.33516
 H38 H 0.67945 0.17934 0.32596
 H39 H 0.61675 0.23761 0.21635
 H40 H 0.67708 0.45107 0.27746
 H41 H 0.73853 0.39293 0.39189
 H42 H 0.80693 0.07647 0.82892
 C43 C 0.24949 0.74663 0.55847
 C44 C 0.24927 0.74557 0.43532
 C45 C 0.28596 0.71036 0.36616
 C46 C 0.21293 0.78055 0.36476
 C47 C 0.21237 0.78053 0.62849
 C48 C 0.28710 0.71411 0.62836
 C49 C 0.32142 0.75330 0.31987
 C50 C 0.35823 0.71962 0.26379
 C51 C 0.35911 0.64287 0.24942
 C52 C 0.32284 0.60015 0.29205
 C53 C 0.28670 0.63366 0.35161
 C54 C 0.21487 0.85601 0.33852
 C55 C 0.17989 0.88942 0.27428
 C56 C 0.14209 0.84807 0.23789
 C57 C 0.14041 0.77237 0.26365
 C58 C 0.17603 0.73857 0.32475
 C59 C 0.16858 0.75136 0.62298
 C60 C 0.13338 0.78529 0.68551
 C61 C 0.14150 0.84829 0.75668
 C62 C 0.18583 0.87565 0.76573
 C63 C 0.22096 0.84200 0.70204
 C64 C 0.27898 0.65440 0.70599
 C65 C 0.31466 0.62117 0.76768
 C66 C 0.35912 0.64684 0.75185
 C67 C 0.36682 0.70822 0.67676
 C68 C 0.33105 0.74207 0.61689
 H69 H 0.32119 0.81262 0.33061
 H70 H 0.38574 0.75344 0.23032
 H71 H 0.32306 0.54083 0.28184
 H72 H 0.25952 0.59995 0.38724
 H73 H 0.24326 0.88897 0.36862
 H74 H 0.18169 0.94796 0.25621
 H75 H 0.17438 0.68006 0.34355
 H76 H 0.16165 0.70243 0.56998
 H77 H 0.09979 0.76212 0.67792
 H78 H 0.19328 0.92380 0.82021
 H79 H 0.25474 0.86463 0.70838
 H80 H 0.24512 0.63275 0.71706
 H81 H 0.30746 0.57477 0.82631
 H82 H 0.40048 0.73035 0.66435
 H83 H 0.33770 0.78981 0.56083
 H84 H 0.11167 0.73943 0.23591
 C85 C 0.24882 0.25259 -0.43980
 C86 C 0.24925 0.25316 -0.56333
 C87 C 0.28736 0.28611 -0.63221
 C88 C 0.21236 0.21960 -0.63529
 C89 C 0.21182 0.21819 -0.36916
 C90 C 0.28547 0.28758 -0.36952
 C91 C 0.27956 0.34417 -0.71307
 C92 C 0.31551 0.37738 -0.77481
 C93 C 0.36022 0.35390 -0.75522
 C94 C 0.36752 0.29415 -0.67617
 C95 C 0.33139 0.25975 -0.61768
 C96 C 0.16958 0.25187 -0.63816
 C97 C 0.13415 0.21748 -0.69933
 C98 C 0.14140 0.15217 -0.76563
 C99 C 0.18551 0.12355 -0.77110
 C100 C 0.22046 0.15640 -0.70493
 C101 C 0.21808 0.14976 -0.31301
 C102 C 0.18330 0.11768 -0.24511
 C103 C 0.14082 0.15200 -0.23680
 C104 C 0.13517 0.22140 -0.29165
 C105 C 0.17090 0.25524 -0.35296
 C106 C 0.32112 0.24499 -0.32480
 C107 C 0.35771 0.27888 -0.26766
 C108 C 0.35825 0.35543 -0.25059
 C109 C 0.32178 0.39773 -0.29136
 C110 C 0.28580 0.36405 -0.35186
 H111 H 0.24568 0.36452 -0.72703
 H112 H 0.30816 0.42241 -0.83596
 H113 H 0.40110 0.27296 -0.66040
 H114 H 0.33789 0.21258 -0.56055
 H115 H 0.16349 0.30369 -0.59288
 H116 H 0.10119 0.24297 -0.69593
 H117 H 0.25374 0.13203 -0.70681
 H118 H 0.24976 0.12088 -0.32233
 H119 H 0.18915 0.06441 -0.20397
 H120 H 0.10350 0.25065 -0.28458
 H121 H 0.16644 0.31023 -0.38861
 H122 H 0.32141 0.18590 -0.33808
 H123 H 0.38541 0.24535 -0.23585
 H124 H 0.32178 0.45689 -0.27930
 H125 H 0.25847 0.39753 -0.38605
 H126 H 0.19284 0.07429 -0.82279
 C127 C -0.25108 0.75271 -0.43979
 C128 C -0.25084 0.75283 -0.56329
 C129 C -0.21296 0.78592 -0.63249
 C130 C -0.28773 0.71879 -0.63487
 C131 C -0.28784 0.71814 -0.36882
 C132 C -0.21439 0.78799 -0.36989
 C133 C -0.22087 0.84465 -0.71188
 C134 C -0.18502 0.87825 -0.77332
 C135 C -0.14031 0.85445 -0.75481
 C136 C -0.13292 0.79398 -0.67733
 C137 C -0.16896 0.75923 -0.61915
 C138 C -0.33060 0.75075 -0.63779
 C139 C -0.36592 0.71624 -0.69931
 C140 C -0.35850 0.65106 -0.76585
 C141 C -0.31434 0.62257 -0.77087
 C142 C -0.27949 0.65559 -0.70447
 C143 C -0.28141 0.64959 -0.31325
 C144 C -0.31616 0.61704 -0.24589
 C145 C -0.35871 0.65111 -0.23755
 C146 C -0.36449 0.72069 -0.29169
 C147 C -0.32883 0.75492 -0.35252
 C148 C -0.17834 0.74577 -0.32660
 C149 C -0.14190 0.77989 -0.26910
 C150 C -0.14188 0.85629 -0.25009
 C151 C -0.17876 0.89819 -0.28935
 C152 C -0.21460 0.86432 -0.35029
 H153 H -0.25476 0.86525 -0.72476
 H154 H -0.19240 0.92389 -0.83321
 H155 H -0.09934 0.77255 -0.66246
 H156 H -0.16244 0.71164 -0.56299
 H157 H -0.33683 0.80251 -0.59246
 H158 H -0.39891 0.74159 -0.69609
 H159 H -0.24616 0.63140 -0.70625
 H160 H -0.24965 0.62096 -0.32280
 H161 H -0.31024 0.56359 -0.20538
 H162 H -0.39624 0.74971 -0.28451
 H163 H -0.33341 0.80994 -0.38796
 H164 H -0.17769 0.68678 -0.34103
 H165 H -0.11390 0.74661 -0.23847
 H166 H -0.17921 0.95723 -0.27576
 H167 H -0.24227 0.89752 -0.38319
 H168 H -0.30691 0.57329 -0.82242
 O169 O -0.06323 0.86997 0.21701
 O170 O -0.11264 0.93924 0.10594
 C171 C -0.10387 0.88963 0.18716
 O172 O 0.06453 1.13651 0.20608
 O173 O 0.11385 1.06308 0.10173
 C174 C 0.10513 1.11588 0.17764
 O175 O -0.06240 1.12941 0.22142
 O176 O -0.11236 1.06056 0.10910
 C177 C -0.10299 1.10910 0.19151
 O178 O 0.06346 0.86355 0.20624
 O179 O 0.11319 0.93679 0.10092
 C180 C 0.10401 0.88453 0.17725
 Zr181 Zr 0.00029 0.90678 0.15202
 O182 O 0.00521 0.90868 0.34348
 O183 O -0.00490 0.79045 0.15457
 Zr184 Zr 0.00103 1.09276 0.15519
 O185 O 0.00655 1.08720 0.34636
 O186 O -0.00358 1.20886 0.16619
 O187 O -0.03964 0.99978 0.17813
 O188 O 0.03996 0.99959 0.17530
 O189 O 0.06297 0.86694 -0.21213
 O190 O 0.11313 0.93692 -0.10301
 C191 C 0.10370 0.88606 -0.18183
 O192 O -0.06273 1.13153 -0.21535
 O193 O -0.11240 1.06360 -0.10116
 C194 C -0.10333 1.11243 -0.18349
 O195 O 0.06395 1.13904 -0.20308
 O196 O 0.11331 1.06316 -0.10444
 C197 C 0.10454 1.11689 -0.17817
 O198 O -0.06322 0.87172 -0.22062
 O199 O -0.11224 0.94023 -0.10612
 C200 C -0.10350 0.89185 -0.18917
 Zr201 Zr -0.00010 0.90855 -0.15424
 O202 O 0.00431 0.91204 -0.34576
 O203 O -0.00517 0.79218 -0.15828
 Zr204 Zr 0.00058 1.09467 -0.15102
 O205 O 0.00573 1.09213 -0.34249
 O206 O -0.00430 1.21092 -0.15597
 Zr207 Zr -0.06673 1.00108 0.00154
 Zr208 Zr 0.06759 1.00036 -0.00056
 O209 O 0.03942 1.00162 -0.17556
 O210 O -0.04016 1.00194 -0.17584
 O211 O 0.04027 0.89293 -0.00193
 O212 O -0.03823 1.10751 0.00293
 O213 O -0.03911 0.89443 -0.00079
 O214 O 0.04106 1.10805 0.00170
 H215 H 0.06063 0.99943 0.24582
 H216 H -0.05818 1.15116 0.00407
 H217 H 0.05982 1.00206 -0.24679
 H218 H -0.05943 0.85095 -0.00140
 H219 H 0.01753 1.22951 0.10554
 H220 H 0.01806 1.23077 -0.09799
 H221 H -0.02173 1.06767 -0.37402
 H222 H -0.02189 0.94022 -0.37570
 H223 H 0.01937 0.77242 -0.10731
 H224 H 0.01820 0.77111 0.09833
 H225 H -0.02152 0.93495 0.37500
 H226 H -0.02120 1.06334 0.37752
 O227 O 0.43737 0.36930 0.21662
 O228 O 0.38803 0.43767 0.10390
 C229 C 0.39673 0.38866 0.18618
 O230 O 0.56469 0.63524 0.20497
 O231 O 0.61420 0.56223 0.10052
 C232 C 0.60534 0.61480 0.17673
 O233 O 0.43784 0.62829 0.21836
 O234 O 0.38824 0.55879 0.10615
 C235 C 0.39736 0.60764 0.18818
 O236 O 0.56394 0.36262 0.20575
 O237 O 0.61359 0.43605 0.10049
 C238 C 0.60443 0.38398 0.17708
 Zr239 Zr 0.50088 0.40521 0.14990
 O240 O 0.50510 0.40247 0.34138
 O241 O 0.49854 0.28903 0.13808
 Zr242 Zr 0.50129 0.59170 0.15274
 O243 O 0.50652 0.58691 0.34402
 O244 O 0.49652 0.70787 0.16153
 O245 O 0.46092 0.49835 0.17573
 O246 O 0.54025 0.49846 0.17335
 O247 O 0.56376 0.36410 -0.21082
 O248 O 0.61378 0.43601 -0.10517
 C249 C 0.60467 0.38407 -0.18277
 O250 O 0.43791 0.62927 -0.21871
 O251 O 0.38826 0.56150 -0.10423
 C252 C 0.39731 0.61014 -0.18694
 O253 O 0.56447 0.63759 -0.20476
 O254 O 0.61389 0.56196 -0.10586
 C255 C 0.60506 0.61566 -0.17954
 O256 O 0.43698 0.37021 -0.22051
 O257 O 0.38781 0.43967 -0.10741
 C258 C 0.39663 0.39082 -0.18968
 Zr259 Zr 0.50062 0.40665 -0.15561
 O260 O 0.50516 0.40980 -0.34712
 O261 O 0.49658 0.29029 -0.15992
 Zr262 Zr 0.50116 0.59281 -0.15355
 O263 O 0.50659 0.58968 -0.34494
 O264 O 0.49607 0.70899 -0.15993
 Zr265 Zr 0.43399 0.49928 -0.00092
 Zr266 Zr 0.56817 0.49919 -0.00218
 O267 O 0.54012 0.49981 -0.17735
 O268 O 0.46060 0.49988 -0.17819
 O269 O 0.54108 0.39175 -0.00328
 O270 O 0.46220 0.60588 0.00006
 O271 O 0.46140 0.39261 -0.00253
 O272 O 0.54147 0.60677 -0.00057
 H273 H 0.56067 0.49839 0.24439
 H274 H 0.44215 0.64941 0.00070
 H275 H 0.56061 0.50009 -0.24840
 H276 H 0.44095 0.34928 -0.00286
 H277 H 0.51874 0.72831 0.10357
 H278 H 0.51765 0.72909 -0.10009
 H279 H 0.47932 0.56465 -0.37646
 H280 H 0.47854 0.43676 -0.37742
 H281 H 0.51510 0.27189 -0.09192
 H282 H 0.49846 0.27063 0.22264
 H283 H 0.48144 0.43554 0.37317
 H284 H 0.47879 0.56297 0.37513
   
