data_POSCAR
  _audit_creation_date              2014-09-24
  _audit_creation_method            'ToBaCCo'
  _symmetry_space_group_name_H-M    'P1'
  _symmetry_Int_Tables_number       1
  _symmetry_cell_setting            triclinic
  loop_
  _symmetry_equiv_pos_as_xyz
 x,y,z
_cell_length_a 26.7757
_cell_length_b 26.8093
_cell_length_c 26.8215
_cell_angle_alpha 90.088100
_cell_angle_beta 90.089100
_cell_angle_gamma 90.008700
loop_
  _atom_site_label
  _atom_site_type_symbol
  _atom_site_fract_x
  _atom_site_fract_y
  _atom_site_fract_z
O1 O 0.45269 1.02282 -0.55140
 O2 O 0.55228 1.02164 -0.45609
 O3 O 0.54965 1.01998 -0.55276
 O4 O 0.45581 1.02782 -0.45375
 O5 O 0.44740 0.94593 -0.45479
 O6 O 0.55115 0.93796 -0.54528
 O7 O 0.54359 0.94020 -0.44905
 O8 O 0.45422 0.94047 -0.55290
 Cu9 Cu 0.50269 1.03135 -0.50386
 Cu10 Cu 0.49831 0.93284 -0.50041
 C11 C 0.43795 0.98160 -0.56967
 C12 C 0.56421 0.98065 -0.43535
 C13 C 0.56747 0.97786 -0.56497
 C14 C 0.43563 0.98840 -0.43715
 O15 O -0.55252 1.45117 0.05074
 O16 O -0.45522 1.54807 0.06454
 O17 O -0.55391 1.54757 0.06133
 O18 O -0.45692 1.45094 0.05661
 O19 O -0.45213 1.45920 -0.02514
 O20 O -0.54979 1.55653 -0.02020
 O21 O -0.45293 1.55650 -0.01727
 O22 O -0.54976 1.46053 -0.03083
 Cu23 Cu -0.50486 1.49911 0.06659
 Cu24 Cu -0.50058 1.50900 -0.03150
 C25 C -0.56784 1.43923 0.00740
 C26 C -0.43750 1.56877 0.02576
 C27 C -0.56923 1.56818 0.02148
 C28 C -0.43857 1.43791 0.01502
 O29 O -0.04136 0.46403 0.44538
 O30 O -0.03155 0.55513 0.54772
 O31 O -0.03123 0.55955 0.45095
 O32 O -0.04204 0.45761 0.54206
 O33 O 0.04014 0.45109 0.54447
 O34 O 0.05056 0.54935 0.44939
 O35 O 0.05034 0.54724 0.54742
 O36 O 0.04035 0.45329 0.44769
 Cu37 Cu -0.04479 0.51001 0.49688
 Cu38 Cu 0.05360 0.49957 0.49739
 C39 C -0.00210 0.44308 0.42905
 C40 C 0.01104 0.56718 0.56498
 C41 C 0.01137 0.57095 0.43361
 C42 C -0.00275 0.43696 0.55880
 O43 O -0.12811 1.01141 -0.07317
 O44 O 0.12852 0.99492 -0.06821
 O45 O 0.00412 1.07106 -0.13194
 O46 O -0.00319 0.93629 -0.13142
 O47 O -0.00492 0.87541 -0.07049
 O48 O 0.00784 1.13179 -0.07100
 O49 O 0.06813 0.99499 -0.12981
 O50 O -0.06601 1.01041 -0.13276
 Zr51 Zr 0.00045 1.00370 -0.09092
 O52 O 0.04235 0.95627 -0.04723
 O53 O -0.04302 1.05165 -0.04974
 C54 C -0.11231 1.01249 -0.11881
 C55 C 0.11394 0.99196 -0.11435
 C56 C 0.00712 1.11711 -0.11706
 C57 C -0.00443 0.89030 -0.11654
 H58 H 0.07095 1.06584 -0.06840
 O59 O 0.04766 1.04622 -0.04761
 H60 H -0.06990 0.94106 -0.07035
 O61 O -0.04758 0.96118 -0.04890
 O62 O 0.12594 0.99820 0.06739
 O63 O -0.13071 1.01084 0.06105
 O64 O 0.07353 1.12839 -0.00040
 O65 O 0.05983 0.87193 -0.00347
 O66 O -0.07560 0.87945 -0.00096
 O67 O -0.06121 1.13585 -0.00880
 O68 O 0.00336 1.07196 0.12427
 O69 O -0.00982 0.93757 0.12490
 O70 O 0.00578 1.13274 0.06337
 O71 O -0.00925 0.87588 0.06473
 O72 O 0.13096 1.06423 0.00319
 O73 O -0.12539 1.07841 -0.00795
 O74 O -0.13288 0.94376 -0.00420
 O75 O 0.12369 0.92985 -0.00408
 O76 O 0.06343 1.00309 0.12629
 O77 O -0.07140 1.00686 0.12337
 Zr78 Zr 0.08680 0.99916 -0.00135
 Zr79 Zr -0.08860 1.00886 -0.00517
 Zr80 Zr 0.00391 1.09162 -0.00379
 Zr81 Zr -0.00566 0.91609 -0.00285
 Zr82 Zr -0.00296 1.00445 0.08417
 O83 O -0.04970 0.96139 0.04106
 O84 O 0.04562 1.04681 0.04255
 C85 C 0.10997 1.00113 0.11307
 C86 C -0.11718 1.00925 0.10746
 C87 C 0.11858 1.11100 0.00329
 C88 C 0.10658 0.88464 -0.00515
 C89 C -0.12084 0.89691 -0.00191
 C90 C -0.10812 1.12362 -0.00979
 C91 C 0.00652 1.11789 0.10938
 C92 C -0.01140 0.89136 0.11055
 H93 H -0.06484 1.07462 0.06120
 O94 O -0.04443 1.05190 0.04052
 H95 H 0.06070 0.93440 0.06458
 O96 O 0.04082 0.95667 0.04291
 C97 C 0.37609 0.94786 0.30843
 C98 C 0.33492 0.98092 0.30676
 C99 C 0.32734 1.01303 0.34820
 C100 C 0.36175 1.01408 0.38779
 C101 C 0.40235 0.98131 0.38847
 C102 C 0.40882 0.94778 0.34900
 C103 C 0.28522 1.04351 0.35017
 C104 C 0.24938 1.04162 0.31274
 C105 C 0.25541 1.01053 0.27064
 C106 C 0.30036 0.98223 0.26609
 C107 C 0.30978 0.95725 0.22066
 C108 C 0.27562 0.95862 0.18156
 C109 C 0.22984 0.98284 0.18700
 C110 C 0.21848 1.00780 0.23226
 C111 C 0.16994 1.02767 0.23792
 C112 C 0.13498 1.02437 0.19955
 C113 C 0.14737 1.00258 0.15370
 C114 C 0.19499 0.98174 0.14768
 H115 H 0.38303 0.92055 0.27972
 H116 H 0.35617 1.03938 0.41889
 H117 H 0.43984 0.92183 0.34919
 H118 H 0.27935 1.06840 0.38151
 H119 H 0.21802 1.06650 0.31686
 H120 H 0.34428 0.93779 0.21356
 H121 H 0.28474 0.93958 0.14707
 H122 H 0.15726 1.04430 0.27227
 H123 H 0.09794 1.03916 0.20591
 H124 H 0.20446 0.96342 0.11288
 C125 C -0.31461 0.94057 0.36729
 C126 C -0.31221 0.97637 0.32854
 C127 C -0.35254 1.01032 0.32381
 C128 C -0.39139 1.01056 0.35880
 C129 C -0.39237 0.97581 0.39764
 C130 C -0.35439 0.94018 0.40099
 C131 C -0.35393 1.04398 0.28430
 C132 C -0.31657 1.04420 0.24854
 C133 C -0.27515 1.01181 0.25197
 C134 C -0.27166 0.97923 0.29402
 C135 C -0.22716 0.95183 0.30097
 C136 C -0.18788 0.95524 0.26736
 C137 C -0.19214 0.98432 0.22449
 C138 C -0.23640 1.01191 0.21541
 C139 C -0.24045 1.03762 0.16952
 C140 C -0.20174 1.03657 0.13480
 C141 C -0.15740 1.01088 0.14495
 C142 C -0.15258 0.98538 0.19020
 H143 H -0.28689 0.91179 0.37190
 H144 H -0.42141 1.03754 0.35547
 H145 H -0.35485 0.91262 0.43049
 H146 H -0.38458 1.07016 0.28065
 H147 H -0.32022 1.07171 0.21951
 H148 H -0.22086 0.92871 0.33321
 H149 H -0.15411 0.93410 0.27456
 H150 H -0.27370 1.05743 0.15854
 H151 H -0.20648 1.05622 0.09985
 H152 H -0.11854 0.96511 0.19807
 C153 C -0.35695 0.93496 -0.33078
 C154 C -0.32911 0.97788 -0.31780
 C155 C -0.33599 1.02142 -0.34693
 C156 C -0.37200 1.02256 -0.38507
 C157 C -0.40002 0.97984 -0.39699
 C158 C -0.39133 0.93592 -0.36984
 C159 C -0.30662 1.06350 -0.33810
 C160 C -0.26954 1.06295 -0.30182
 C161 C -0.26175 1.02071 -0.27141
 C162 C -0.29394 0.97861 -0.27770
 C163 C -0.29085 0.93922 -0.24295
 C164 C -0.25629 0.94008 -0.20435
 C165 C -0.22232 0.97921 -0.19989
 C166 C -0.22367 1.01959 -0.23403
 C167 C -0.18607 1.05658 -0.22991
 C168 C -0.14968 1.05392 -0.19267
 C169 C -0.15023 1.01508 -0.15808
 C170 C -0.18661 0.97794 -0.16162
 H171 H -0.35197 0.89958 -0.31241
 H172 H -0.37727 1.05662 -0.40623
 H173 H -0.41162 0.90196 -0.37827
 H174 H -0.31177 1.09703 -0.36007
 H175 H -0.24862 1.09700 -0.29724
 H176 H -0.31599 0.90783 -0.24354
 H177 H -0.25565 0.90931 -0.17815
 H178 H -0.18289 1.08718 -0.25573
 H179 H -0.12133 1.08263 -0.19047
 H180 H -0.18615 0.94728 -0.13528
 C181 C 0.36951 1.03646 -0.32251
 C182 C 0.33322 0.99925 -0.31340
 C183 C 0.32960 0.95924 -0.34793
 C184 C 0.36328 0.95541 -0.38795
 C185 C 0.39946 0.99228 -0.39579
 C186 C 0.40173 1.03304 -0.36316
 C187 C 0.29224 0.92343 -0.34247
 C188 C 0.25732 0.92720 -0.30439
 C189 C 0.25949 0.96620 -0.26898
 C190 C 0.29975 1.00108 -0.27193
 C191 C 0.30584 1.03594 -0.23285
 C192 C 0.27246 1.03816 -0.19334
 C193 C 0.23081 1.00701 -0.19197
 C194 C 0.22318 0.97111 -0.23021
 C195 C 0.17865 0.94267 -0.22885
 C196 C 0.14362 0.94961 -0.19103
 C197 C 0.15219 0.98415 -0.15285
 C198 C 0.19614 1.01227 -0.15300
 H199 H 0.37315 1.06937 -0.29966
 H200 H 0.36076 0.92416 -0.41355
 H201 H 0.42918 1.06221 -0.36862
 H202 H 0.28942 0.89255 -0.36847
 H203 H 0.22980 0.89792 -0.30273
 H204 H 0.33708 1.06121 -0.23099
 H205 H 0.27878 1.06537 -0.16405
 H206 H 0.16886 0.91611 -0.25744
 H207 H 0.10957 0.92773 -0.19156
 H208 H 0.20232 1.03969 -0.12386
 C209 C 0.33493 1.35874 -0.05081
 C210 C 0.31882 1.32929 -0.01019
 C211 C 0.34350 1.33573 0.03616
 C212 C 0.38003 1.37291 0.04213
 C213 C 0.39511 1.40249 0.00163
 C214 C 0.37269 1.39417 -0.04503
 C215 C 0.33187 1.30478 0.07625
 C216 C 0.29702 1.26671 0.07110
 C217 C 0.27069 1.25950 0.02602
 C218 C 0.27981 1.29309 -0.01432
 C219 C 0.24864 1.29044 -0.05675
 C220 C 0.21054 1.25544 -0.06017
 C221 C 0.20332 1.22041 -0.02250
 C222 C 0.23432 1.22084 0.02046
 C223 C 0.22804 1.18202 0.05569
 C224 C 0.19117 1.14571 0.04925
 C225 C 0.15901 1.14755 0.00825
 C226 C 0.16522 1.18478 -0.02759
 H227 H 0.32011 1.35423 -0.08794
 H228 H 0.39765 1.37778 0.07826
 H229 H 0.38373 1.41566 -0.07737
 H230 H 0.35050 1.30951 0.11187
 H231 H 0.28998 1.24465 0.10391
 H232 H 0.25147 1.31643 -0.08724
 H233 H 0.18687 1.25540 -0.09300
 H234 H 0.25180 1.17802 0.08792
 H235 H 0.18708 1.11659 0.07694
 H236 H 0.14087 1.18538 -0.05992
 C237 C 0.32602 0.64567 0.06997
 C238 C 0.31003 0.67150 0.02684
 C239 C 0.33739 0.66397 -0.01775
 C240 C 0.37696 0.62957 -0.01942
 C241 C 0.39178 0.60335 0.02345
 C242 C 0.36628 0.61259 0.06827
 C243 C 0.32524 0.69087 -0.06053
 C244 C 0.28736 0.72622 -0.05981
 C245 C 0.25884 0.73497 -0.01644
 C246 C 0.26858 0.70524 0.02672
 C247 C 0.23593 0.70942 0.06783
 C248 C 0.19625 0.74285 0.06758
 C249 C 0.18854 0.77467 0.02722
 C250 C 0.22030 0.77190 -0.01505
 C251 C 0.21308 0.80730 -0.05355
 C252 C 0.17574 0.84342 -0.05014
 C253 C 0.14380 0.84475 -0.00906
 C254 C 0.14983 0.81005 0.02930
 H255 H 0.30894 0.65109 0.10593
 H256 H 0.39660 0.62380 -0.05430
 H257 H 0.37689 0.59365 0.10234
 H258 H 0.34575 0.68506 -0.09487
 H259 H 0.28022 0.74510 -0.09453
 H260 H 0.23921 0.68615 0.10040
 H261 H 0.17195 0.74451 0.09983
 H262 H 0.23685 0.80936 -0.08586
 H263 H 0.17184 0.87067 -0.07972
 H264 H 0.12564 0.81198 0.06165
 C265 C -0.32423 0.64096 0.07024
 C266 C -0.31971 0.67857 0.03340
 C267 C -0.35737 0.68112 -0.00374
 C268 C -0.39549 0.64526 -0.00572
 C269 C -0.39844 0.60743 0.03006
 C270 C -0.36325 0.60623 0.06865
 C271 C -0.35672 0.71919 -0.03904
 C272 C -0.31974 0.75542 -0.03817
 C273 C -0.28074 0.75409 -0.00272
 C274 C -0.27952 0.71384 0.03226
 C275 C -0.23740 0.70924 0.06368
 C276 C -0.19807 0.74304 0.06139
 C277 C -0.19992 0.78383 0.02920
 C278 C -0.24201 0.79085 -0.00220
 C279 C -0.24387 0.83484 -0.03132
 C280 C -0.20476 0.86920 -0.03051
 C281 C -0.16222 0.86064 -0.00146
 C282 C -0.15996 0.81790 0.02841
 H283 H -0.29868 0.63785 0.10116
 H284 H -0.42331 0.64702 -0.03511
 H285 H -0.36519 0.57759 0.09703
 H286 H -0.38536 0.72121 -0.06759
 H287 H -0.32169 0.78305 -0.06722
 H288 H -0.23286 0.67865 0.08930
 H289 H -0.16606 0.73746 0.08554
 H290 H -0.27557 0.84448 -0.05414
 H291 H -0.20754 0.90242 -0.05329
 H292 H -0.12755 0.81181 0.05194
 C293 C -0.37231 1.31848 0.04845
 C294 C -0.33268 1.31658 0.01366
 C295 C -0.32761 1.35697 -0.02010
 C296 C -0.36292 1.39588 -0.02067
 C297 C -0.40207 1.39670 0.01389
 C298 C -0.40601 1.35807 0.04866
 C299 C -0.28701 1.35857 -0.05260
 C300 C -0.25050 1.32169 -0.05147
 C301 C -0.25420 1.28048 -0.01893
 C302 C -0.29737 1.27661 0.01217
 C303 C -0.30443 1.23246 0.03991
 C304 C -0.26967 1.19412 0.03881
 C305 C -0.22580 1.19875 0.01134
 C306 C -0.21678 1.24236 -0.01716
 C307 C -0.17016 1.24631 -0.04180
 C308 C -0.13480 1.20804 -0.03894
 C309 C -0.14503 1.16438 -0.01232
 C310 C -0.19068 1.15994 0.01259
 H311 H -0.37742 1.29076 0.07704
 H312 H -0.35913 1.42629 -0.04702
 H313 H -0.43574 1.35822 0.07603
 H314 H -0.28292 1.38919 -0.07863
 H315 H -0.22041 1.32568 -0.07780
 H316 H -0.33748 1.22564 0.06172
 H317 H -0.27693 1.16071 0.06036
 H318 H -0.15936 1.27903 -0.06245
 H319 H -0.09949 1.21237 -0.05814
 H320 H -0.19836 1.12661 0.03411
 C321 C -0.05035 1.37331 0.31614
 C322 C -0.01177 1.33838 0.30689
 C323 C 0.02932 1.33761 0.34033
 C324 C 0.03247 1.37213 0.37959
 C325 C -0.00574 1.40682 0.38771
 C326 C -0.04734 1.40669 0.35604
 C327 C 0.06705 1.30229 0.33463
 C328 C 0.06442 1.26662 0.29722
 C329 C 0.02435 1.26569 0.26294
 C330 C -0.01302 1.30367 0.26632
 C331 C -0.04974 1.30626 0.22855
 C332 C -0.05098 1.27195 0.18972
 C333 C -0.01677 1.23282 0.18773
 C334 C 0.02088 1.22853 0.22481
 C335 C 0.05282 1.18648 0.22276
 C336 C 0.04782 1.15092 0.18514
 C337 C 0.01151 1.15622 0.14816
 C338 C -0.02040 1.19745 0.14917
 H339 H -0.08388 1.37508 0.29396
 H340 H 0.06444 1.37142 0.40446
 H341 H -0.07757 1.43292 0.36179
 H342 H 0.09875 1.30178 0.35984
 H343 H 0.09533 1.24099 0.29529
 H344 H -0.07742 1.33539 0.22717
 H345 H -0.07964 1.27562 0.16136
 H346 H 0.08112 1.17914 0.25038
 H347 H 0.07287 1.11931 0.18458
 H348 H -0.04905 1.20109 0.12075
 C349 C -0.04955 1.32259 -0.37343
 C350 C -0.01185 1.31478 -0.33716
 C351 C 0.02753 1.35009 -0.33439
 C352 C 0.03047 1.38934 -0.36879
 C353 C -0.00668 1.39592 -0.40491
 C354 C -0.04708 1.36285 -0.40640
 C355 C 0.06376 1.34620 -0.29725
 C356 C 0.06115 1.30877 -0.26170
 C357 C 0.02297 1.27247 -0.26301
 C358 C -0.01237 1.27384 -0.30300
 C359 C -0.04610 1.23365 -0.30822
 C360 C -0.04623 1.19415 -0.27466
 C361 C -0.01438 1.19419 -0.23345
 C362 C 0.01971 1.23410 -0.22627
 C363 C 0.04823 1.23467 -0.18182
 C364 C 0.04370 1.19667 -0.14675
 C365 C 0.01165 1.15632 -0.15515
 C366 C -0.01697 1.15494 -0.19882
 H367 H -0.08200 1.29898 -0.37644
 H368 H 0.06133 1.41551 -0.36686
 H369 H -0.07646 1.36761 -0.43380
 H370 H 0.09415 1.37286 -0.29517
 H371 H 0.09084 1.30814 -0.23454
 H372 H -0.07181 1.23083 -0.33905
 H373 H -0.07231 1.16375 -0.28049
 H374 H 0.07298 1.26490 -0.17215
 H375 H 0.06563 1.19873 -0.11285
 H376 H -0.04249 1.12417 -0.20497
 C377 C 0.06414 0.64673 -0.33397
 C378 C 0.02183 0.67373 -0.31753
 C379 C -0.02397 0.66551 -0.34281
 C380 C -0.02753 0.62954 -0.38077
 C381 C 0.01466 0.60260 -0.39641
 C382 C 0.06060 0.61224 -0.37292
 C383 C -0.06605 0.69349 -0.33039
 C384 C -0.06348 0.73055 -0.29429
 C385 C -0.01887 0.73997 -0.26778
 C386 C 0.02366 0.70926 -0.27768
 C387 C 0.06604 0.71426 -0.24664
 C388 C 0.06735 0.74895 -0.20809
 C389 C 0.02739 0.78133 -0.20012
 C390 C -0.01579 0.77826 -0.23075
 C391 C -0.05368 0.81445 -0.22374
 C392 C -0.04934 0.85094 -0.18686
 C393 C -0.00780 0.85198 -0.15537
 C394 C 0.03049 0.81719 -0.16192
 H395 H 0.10085 0.65243 -0.31845
 H396 H -0.06325 0.62348 -0.39893
 H397 H 0.09415 0.59271 -0.38423
 H398 H -0.10130 0.68719 -0.34934
 H399 H -0.09777 0.75015 -0.28672
 H400 H 0.09834 0.69054 -0.25016
 H401 H 0.10039 0.75097 -0.18475
 H402 H -0.08641 0.81651 -0.24708
 H403 H -0.07884 0.87829 -0.18257
 H404 H 0.06320 0.81891 -0.13804
 C405 C 0.05737 0.64252 0.32124
 C406 C 0.01799 0.67674 0.31263
 C407 C -0.02192 0.67762 0.34732
 C408 C -0.02358 0.64337 0.38679
 C409 C 0.01493 0.60877 0.39378
 C410 C 0.05580 0.60931 0.36131
 C411 C -0.06022 0.71244 0.34237
 C412 C -0.05952 0.74725 0.30418
 C413 C -0.02097 0.74770 0.26833
 C414 C 0.01713 0.71039 0.27126
 C415 C 0.05220 0.70715 0.23210
 C416 C 0.05102 0.74007 0.19216
 C417 C 0.01603 0.77854 0.19041
 C418 C -0.01983 0.78362 0.22901
 C419 C -0.05231 0.82526 0.22724
 C420 C -0.04951 0.85972 0.18850
 C421 C -0.01514 0.85352 0.14991
 C422 C 0.01724 0.81260 0.15064
 H423 H 0.09024 0.64096 0.29818
 H424 H -0.05497 0.64378 0.41231
 H425 H 0.08626 0.58318 0.36621
 H426 H -0.09098 0.71308 0.36861
 H427 H -0.09085 0.77241 0.30281
 H428 H 0.08030 0.67843 0.23048
 H429 H 0.07841 0.73587 0.16271
 H430 H -0.07915 0.83329 0.25603
 H431 H -0.07448 0.89139 0.18858
 H432 H 0.04465 0.80842 0.12119
   
