data_POSCAR
  _audit_creation_date              2014-09-24
  _audit_creation_method            'ToBaCCo'
  _symmetry_space_group_name_H-M    'P1'
  _symmetry_Int_Tables_number       1
  _symmetry_cell_setting            triclinic
  loop_
  _symmetry_equiv_pos_as_xyz
 x,y,z
_cell_length_a 41.5858
_cell_length_b 41.5412
_cell_length_c 15.2267
_cell_angle_alpha 89.953200
_cell_angle_beta 90.023200
_cell_angle_gamma 120.000200
loop_
  _atom_site_label
  _atom_site_type_symbol
  _atom_site_fract_x
  _atom_site_fract_y
  _atom_site_fract_z
O1 O 0.19212 0.44485 0.41560
 O2 O 0.25507 0.44509 0.58740
 O3 O 0.19222 0.44511 0.58694
 O4 O 0.25522 0.44534 0.41577
 O5 O 0.28556 0.50677 0.41633
 O6 O 0.22297 0.50654 0.58615
 O7 O 0.28622 0.50646 0.58461
 O8 O 0.22231 0.50627 0.41754
 Cu9 Cu 0.22060 0.43890 0.50147
 Cu10 Cu 0.25730 0.51264 0.50127
 C11 C 0.19610 0.47562 0.38891
 C12 C 0.28200 0.47588 0.61352
 C13 C 0.19651 0.47592 0.61413
 C14 C 0.28153 0.47622 0.38827
 O15 O 0.55591 -0.25347 0.41404
 O16 O 0.55477 -0.19080 0.58467
 O17 O 0.55571 -0.25325 0.58595
 O18 O 0.55456 -0.19131 0.41345
 O19 O 0.49321 -0.22290 0.41464
 O20 O 0.49440 -0.28501 0.58432
 O21 O 0.49342 -0.22219 0.58322
 O22 O 0.49461 -0.28539 0.41609
 Cu23 Cu 0.56141 -0.21907 0.49958
 Cu24 Cu 0.48778 -0.25702 0.49963
 C25 C 0.52538 -0.28060 0.38738
 C26 C 0.52380 -0.19539 0.61130
 C27 C 0.52515 -0.28024 0.61298
 C28 C 0.52355 -0.19621 0.38622
 O29 O 1.19025 0.74569 0.58358
 O30 O 1.25277 0.80893 0.41179
 O31 O 1.19042 0.74567 0.41225
 O32 O 1.25302 0.80890 0.58345
 O33 O 1.28395 0.77843 0.58282
 O34 O 1.22176 0.71561 0.41304
 O35 O 1.28445 0.77928 0.41448
 O36 O 1.22103 0.71509 0.58158
 Cu37 Cu 1.21849 0.78037 0.49784
 Cu38 Cu 1.25590 0.74408 0.49798
 C39 C 1.19455 0.71907 0.61008
 C40 C 1.27983 0.80536 0.38543
 C41 C 1.19513 0.71943 0.38493
 C42 C 1.27960 0.80476 0.61080
 O43 O 0.80921 0.55474 0.41588
 O44 O 0.74646 0.55562 0.58660
 O45 O 0.80868 0.55440 0.58717
 O46 O 0.74666 0.55540 0.41493
 O47 O 0.71559 0.49396 0.41541
 O48 O 0.77706 0.49297 0.58661
 O49 O 0.71445 0.49427 0.58375
 O50 O 0.77829 0.49332 0.41810
 Cu51 Cu 0.78090 0.56123 0.50116
 Cu52 Cu 0.74321 0.48750 0.50106
 C53 C 0.80485 0.52379 0.38959
 C54 C 0.71917 0.52503 0.61255
 C55 C 0.80378 0.52338 0.61468
 C56 C 0.72015 0.52471 0.38719
 O57 O 0.44463 0.19142 0.58763
 O58 O 0.44541 0.25471 0.41566
 O59 O 0.44487 0.19145 0.41597
 O60 O 0.44567 0.25481 0.58695
 O61 O 0.50703 0.28478 0.58618
 O62 O 0.50624 0.22177 0.41664
 O63 O 0.50676 0.28518 0.41765
 O64 O 0.50592 0.22094 0.58501
 Cu65 Cu 0.43896 0.22004 0.50152
 Cu66 Cu 0.51261 0.25618 0.50142
 C67 C 0.47521 0.19489 0.61400
 C68 C 0.47632 0.28125 0.38908
 C69 C 0.47554 0.19552 0.38863
 C70 C 0.47661 0.28105 0.61415
 O71 O 0.74544 0.18994 0.41674
 O72 O 0.80912 0.25277 0.58745
 O73 O 0.74576 0.19050 0.58806
 O74 O 0.80871 0.25267 0.41574
 O75 O 0.77838 0.28373 0.41618
 O76 O 0.71600 0.22213 0.58739
 O77 O 0.77975 0.28473 0.58457
 O78 O 0.71498 0.22087 0.41891
 Cu79 Cu 0.78031 0.21833 0.50192
 Cu80 Cu 0.74429 0.25600 0.50176
 C81 C 0.71881 0.19425 0.39055
 C82 C 0.80576 0.28001 0.61354
 C83 C 0.71972 0.19543 0.61563
 C84 C 0.80457 0.27923 0.38806
 N85 N 1.03873 0.48369 -0.15474
 N86 N 1.06621 0.49354 -0.21087
 N87 N 0.96097 0.42130 -0.09508
 N88 N 0.93435 0.38682 -0.11086
 N89 N 0.96030 0.44419 -0.15364
 N90 N 0.93279 0.42615 -0.20955
 N91 N 1.03880 0.46067 -0.09568
 N92 N 1.06596 0.45363 -0.11110
 C93 C 1.08292 0.47464 -0.18281
 C94 C 0.91686 0.39049 -0.18201
 N95 N 0.96110 0.44461 0.15382
 N96 N 0.93369 0.42678 0.20998
 N97 N 1.03925 0.46090 0.09454
 N98 N 1.06620 0.45355 0.11053
 N99 N 1.03942 0.48414 0.15320
 N100 N 1.06680 0.49381 0.20954
 N101 N 0.96138 0.42160 0.09513
 N102 N 0.93449 0.38725 0.11085
 Mn103 Mn 1.00011 0.44070 -0.00027
 C104 C 0.91737 0.39114 0.18236
 C105 C 1.08328 0.47463 0.18211
 N106 N 0.96007 0.51314 -0.15378
 N107 N 0.93250 0.50344 -0.20956
 N108 N 1.03828 0.57562 -0.09621
 N109 N 1.06504 0.61001 -0.11246
 N110 N 1.03844 0.55259 -0.15502
 N111 N 1.06564 0.57045 -0.21177
 N112 N 0.96044 0.53643 -0.09498
 N113 N 0.93348 0.54379 -0.11019
 Mn114 Mn 0.99937 0.49839 -0.15519
 C115 C 0.91617 0.52269 -0.18147
 C116 C 1.08199 0.60614 -0.18439
 N117 N 1.03905 0.55294 0.15290
 N118 N 1.06657 0.57091 0.20875
 N119 N 0.96077 0.53663 0.09505
 N120 N 0.93400 0.54418 0.11145
 N121 N 0.96070 0.51345 0.15383
 N122 N 0.93355 0.50404 0.21077
 N123 N 1.03862 0.57580 0.09395
 N124 N 1.06549 0.61021 0.10916
 Mn125 Mn 1.00006 0.49877 0.15429
 Mn126 Mn 0.99954 0.55654 -0.00056
 Cl127 Cl 0.99977 0.49860 -0.00044
 C128 C 1.08279 0.60649 0.18060
 C129 C 0.91712 0.52331 0.18347
 N130 N 0.46340 0.42455 0.09444
 N131 N 0.45584 0.39018 0.11075
 N132 N 0.44733 0.48674 0.15290
 N133 N 0.42948 0.49620 0.20928
 N134 N 0.42435 0.46339 0.09430
 N135 N 0.39000 0.45576 0.11024
 N136 N 0.48658 0.44761 0.15319
 N137 N 0.49601 0.42979 0.20995
 C138 C 0.47673 0.39409 0.18263
 C139 C 0.39386 0.47676 0.18178
 N140 N 0.53964 0.57887 0.09399
 N141 N 0.54738 0.61330 0.11009
 N142 N 0.55542 0.51666 0.15267
 N143 N 0.57318 0.50693 0.20875
 N144 N 0.57839 0.53979 0.09367
 N145 N 0.61267 0.54706 0.10914
 N146 N 0.51622 0.55587 0.15253
 N147 N 0.50673 0.57378 0.20878
 Mn148 Mn 0.50139 0.50174 0.15368
 C149 C 0.52628 0.60947 0.18144
 C150 C 0.60874 0.52603 0.18078
 N151 N 0.42415 0.46333 -0.09575
 N152 N 0.38971 0.45546 -0.11162
 N153 N 0.48626 0.44756 -0.15490
 N154 N 0.49589 0.42973 -0.21098
 N155 N 0.46324 0.42460 -0.09572
 N156 N 0.45597 0.39029 -0.11099
 N157 N 0.44701 0.48680 -0.15444
 N158 N 0.42895 0.49619 -0.21059
 Mn159 Mn 0.44339 0.44355 -0.00070
 C160 C 0.39334 0.47652 -0.18296
 C161 C 0.47686 0.39414 -0.18272
 N162 N 0.57832 0.53982 -0.09659
 N163 N 0.61265 0.54735 -0.11266
 N164 N 0.51608 0.55588 -0.15467
 N165 N 0.50642 0.57383 -0.21046
 N166 N 0.53953 0.57882 -0.09613
 N167 N 0.54715 0.61323 -0.11173
 N168 N 0.55529 0.51654 -0.15527
 N169 N 0.57309 0.50691 -0.21154
 Mn170 Mn 0.55939 0.55972 -0.00127
 Mn171 Mn 0.50115 0.50171 -0.15576
 Cl172 Cl 0.50133 0.50168 -0.00103
 C173 C 0.60874 0.52627 -0.18411
 C174 C 0.52595 0.60946 -0.18277
 N175 N 0.42121 -0.03945 0.09410
 N176 N 0.38674 -0.06611 0.10960
 N177 N 0.48333 0.03826 0.15482
 N178 N 0.49302 0.06559 0.21135
 N179 N 0.46037 0.03842 0.09581
 N180 N 0.45323 0.06551 0.11165
 N181 N 0.44399 -0.04021 0.15274
 N182 N 0.42588 -0.06784 0.20843
 C183 C 0.39031 -0.08375 0.18063
 C184 C 0.47410 0.08230 0.18359
 N185 N 0.57535 0.03811 0.09660
 N186 N 0.60968 0.06483 0.11325
 N187 N 0.51287 -0.04032 0.15314
 N188 N 0.50323 -0.06794 0.20889
 N189 N 0.53623 -0.03982 0.09442
 N190 N 0.54370 -0.06674 0.10970
 N191 N 0.55225 0.03813 0.15536
 N192 N 0.57001 0.06520 0.21251
 Mn193 Mn 0.49810 -0.00104 0.15490
 C194 C 0.60572 0.08162 0.18540
 C195 C 0.52256 -0.08416 0.18089
 N196 N 0.46086 0.03939 -0.09437
 N197 N 0.45319 0.06615 -0.11014
 N198 N 0.44492 -0.03850 -0.15487
 N199 N 0.42723 -0.06578 -0.21149
 N200 N 0.42183 -0.03850 -0.09607
 N201 N 0.38756 -0.06542 -0.11215
 N202 N 0.48437 0.03999 -0.15282
 N203 N 0.49402 0.06761 -0.20864
 Mn204 Mn 0.44066 -0.00003 -0.00013
 C205 C 0.47446 0.08369 -0.18112
 C206 C 0.39159 -0.08229 -0.18401
 N207 N 0.53675 -0.03895 -0.09565
 N208 N 0.54414 -0.06586 -0.11193
 N209 N 0.55313 0.03960 -0.15244
 N210 N 0.57121 0.06726 -0.20799
 N211 N 0.57586 0.03897 -0.09350
 N212 N 0.61028 0.06582 -0.10842
 N213 N 0.51375 -0.03884 -0.15464
 N214 N 0.50432 -0.06601 -0.21159
 Mn215 Mn 0.55646 -0.00042 0.00046
 Mn216 Mn 0.49905 0.00057 -0.15458
 Cl217 Cl 0.49857 -0.00023 0.00016
 C218 C 0.52339 -0.08263 -0.18409
 C219 C 0.60671 0.08335 -0.17965
 N220 N 1.16414 0.50607 0.32624
 C221 C 1.16895 0.47610 0.32812
 N222 N 1.14634 0.44595 0.27847
 N223 N 1.11979 0.44583 0.22893
 C224 C 1.11464 0.47564 0.22852
 N225 N 1.13732 0.50573 0.27789
 N226 N 0.49355 0.66108 0.31382
 C227 C 0.52540 0.69360 0.32906
 N228 N 0.55739 0.69910 0.29131
 N229 N 0.55751 0.67290 0.24089
 C230 C 0.52576 0.64008 0.22768
 N231 N 0.49381 0.63467 0.26491
 N232 N 0.33820 -0.16834 0.31231
 C233 C 0.30573 -0.16887 0.32716
 N234 N 0.30044 -0.14222 0.28927
 N235 N 0.32677 -0.11589 0.23914
 C236 C 0.35954 -0.11495 0.22636
 N237 N 0.36474 -0.14164 0.26368
 N238 N 0.85456 0.55279 0.27888
 C239 C 0.83195 0.52291 0.32935
 N240 N 0.83666 0.49287 0.32865
 N241 N 0.86337 0.49287 0.28055
 C242 C 0.88602 0.52268 0.23028
 N243 N 0.88098 0.55255 0.22959
 N244 N 0.50724 0.34391 0.32743
 C245 C 0.47718 0.30919 0.32853
 N246 N 0.44727 0.30198 0.27837
 N247 N 0.44749 0.32866 0.22901
 C248 C 0.47738 0.36356 0.22933
 N249 N 0.50723 0.37065 0.27927
 N250 N 0.69788 0.14437 0.28013
 C251 C 0.69072 0.16702 0.33065
 N252 N 0.65596 0.16222 0.33037
 N253 N 0.62916 0.13541 0.28258
 C254 C 0.63622 0.11274 0.23224
 N255 N 0.67114 0.11786 0.23115
 N256 N 0.50714 0.16832 -0.31299
 C257 C 0.47529 0.16903 -0.32778
 N258 N 0.44333 0.14246 -0.28990
 N259 N 0.44325 0.11605 -0.23981
 C260 C 0.47499 0.11494 -0.22707
 N261 N 0.50690 0.14155 -0.26441
 N262 N 0.66040 0.49328 -0.31571
 C263 C 0.69314 0.52505 -0.32987
 N264 N 0.69867 0.55705 -0.29193
 N265 N 0.67233 0.55725 -0.24229
 C266 C 0.63932 0.52559 -0.23014
 N267 N 0.63385 0.49363 -0.26759
 N268 N 0.83237 0.33857 -0.31386
 C269 C 0.83165 0.30597 -0.32850
 N270 N 0.85818 0.30055 -0.29054
 N271 N 0.88455 0.32687 -0.24050
 C272 C 0.88566 0.35976 -0.22789
 N273 N 0.85911 0.36511 -0.26532
 N274 N 0.55265 -0.14558 -0.27824
 C275 C 0.52284 -0.16825 -0.32870
 N276 N 0.49290 -0.16342 -0.32852
 N277 N 0.49294 -0.13654 -0.28090
 C278 C 0.52269 -0.11384 -0.23064
 N279 N 0.55245 -0.11902 -0.22943
 N280 N 0.34065 0.50839 -0.31453
 C281 C 0.30820 0.47632 -0.32871
 N282 N 0.30319 0.44449 -0.29076
 N283 N 0.32976 0.44475 -0.24110
 C284 C 0.36250 0.47670 -0.22896
 N285 N 0.36744 0.50850 -0.26640
 N286 N 1.16274 0.65636 -0.32866
 C287 C 1.16744 0.69111 -0.32960
 N288 N 1.14471 0.69831 -0.27952
 N289 N 1.11821 0.67160 -0.23040
 C290 C 1.11319 0.63668 -0.23090
 N291 N 1.13595 0.62959 -0.28074
 N292 N 0.85364 0.55235 -0.27538
 C293 C 0.83057 0.52231 -0.32470
 N294 N 0.83489 0.49204 -0.32346
 N295 N 0.86172 0.49199 -0.27597
 C296 C 0.88486 0.52199 -0.22696
 N297 N 0.88017 0.55207 -0.22668
 N298 N 0.50764 0.34367 -0.32493
 C299 C 0.47756 0.30897 -0.32562
 N300 N 0.44760 0.30189 -0.27595
 N301 N 0.44777 0.32869 -0.22742
 C302 C 0.47767 0.36357 -0.22823
 N303 N 0.50759 0.37055 -0.27762
 N304 N 0.65754 0.16472 -0.32146
 C305 C 0.69196 0.16872 -0.32343
 N306 N 0.69881 0.14546 -0.27443
 N307 N 0.67203 0.11902 -0.22540
 C308 C 0.63741 0.11465 -0.22501
 N309 N 0.63069 0.13800 -0.27365
 N310 N 1.16436 0.50635 -0.32484
 C311 C 1.16932 0.47646 -0.32567
 N312 N 1.14658 0.44631 -0.27617
 N313 N 1.11977 0.44612 -0.22768
 C314 C 1.11445 0.47582 -0.22835
 N315 N 1.13725 0.50592 -0.27757
 N316 N 0.49322 0.66148 -0.31348
 C317 C 0.52511 0.69398 -0.32863
 N318 N 0.55711 0.69932 -0.29127
 N319 N 0.55719 0.67297 -0.24135
 C320 C 0.52541 0.64016 -0.22836
 N321 N 0.49344 0.63491 -0.26508
 N322 N 0.29982 -0.14531 -0.27940
 C323 C 0.30721 -0.16809 -0.32871
 N324 N 0.34192 -0.16337 -0.32706
 N325 N 0.36851 -0.13645 -0.27919
 C326 C 0.36125 -0.11361 -0.23015
 N327 N 0.32635 -0.11868 -0.23030
 N328 N 0.49213 -0.16529 0.32371
 C329 C 0.52244 -0.16948 0.32531
 N330 N 0.55244 -0.14642 0.27585
 N331 N 0.55208 -0.12000 0.22670
 C332 C 0.52195 -0.11543 0.22663
 N333 N 0.49200 -0.13857 0.27577
 N334 N 0.34369 0.50737 0.32524
 C335 C 0.30918 0.47705 0.32740
 N336 N 0.30206 0.44693 0.27816
 N337 N 0.32867 0.44720 0.22868
 C338 C 0.36336 0.47737 0.22803
 N339 N 0.37036 0.50742 0.27698
 N340 N 1.14522 0.69864 0.27508
 C341 C 1.16828 0.69162 0.32433
 N342 N 1.16399 0.65704 0.32277
 N343 N 1.13721 0.63022 0.27507
 C344 C 1.11408 0.63712 0.22613
 N345 N 1.11872 0.67188 0.22616
 N346 N 0.50580 0.16344 0.32653
 C347 C 0.47591 0.16834 0.32811
 N348 N 0.44573 0.14566 0.27873
 N349 N 0.44552 0.11897 0.22965
 C350 C 0.47524 0.11373 0.22958
 N351 N 0.50536 0.13646 0.27867
 N352 N 0.65819 0.49423 0.32328
 C353 C 0.69281 0.52435 0.32598
 N354 N 0.70029 0.55471 0.27720
 N355 N 0.67389 0.55489 0.22769
 C356 C 0.63907 0.52493 0.22657
 N357 N 0.63174 0.49462 0.27501
 N358 N 0.85454 0.29935 0.27840
 C359 C 0.83160 0.30671 0.32710
 N360 N 0.83610 0.34137 0.32460
 N361 N 0.86297 0.36794 0.27655
 C362 C 0.88598 0.36072 0.22818
 N363 N 0.88113 0.32587 0.22913
   
