data_POSCAR
  _audit_creation_date              2014-09-24
  _audit_creation_method            'ToBaCCo'
  _symmetry_space_group_name_H-M    'P1'
  _symmetry_Int_Tables_number       1
  _symmetry_cell_setting            triclinic
  loop_
  _symmetry_equiv_pos_as_xyz
 x,y,z
_cell_length_a 27.2771
_cell_length_b 27.3121
_cell_length_c 27.3934
_cell_angle_alpha 89.655200
_cell_angle_beta 89.667700
_cell_angle_gamma 90.008300
loop_
  _atom_site_label
  _atom_site_type_symbol
  _atom_site_fract_x
  _atom_site_fract_y
  _atom_site_fract_z
C1 C 0.16678 0.16492 0.22585
 C2 C 0.20871 0.14551 0.20305
 C3 C 0.22627 0.16545 0.15889
 C4 C 0.20231 0.20607 0.13837
 C5 C 0.16131 0.22658 0.16151
 C6 C 0.14315 0.20535 0.20465
 H7 H 0.22703 0.11398 0.21866
 H8 H 0.21551 0.22223 0.10461
 H9 H 0.11036 0.22000 0.22160
 C10 C -0.15704 0.84039 0.22757
 C11 C -0.20185 0.85879 0.21033
 C12 C -0.22472 0.83756 0.16994
 C13 C -0.20291 0.79719 0.14709
 C14 C -0.15858 0.77799 0.16432
 C15 C -0.13588 0.79959 0.20464
 H16 H -0.21835 0.89032 0.22769
 H17 H -0.22015 0.78101 0.11551
 H18 H -0.10204 0.78436 0.21838
 C19 C -0.16241 0.16157 -0.22769
 C20 C -0.20213 0.13674 -0.20606
 C21 C -0.22335 0.15378 -0.16255
 C22 C -0.20332 0.19500 -0.13973
 C23 C -0.16358 0.22004 -0.16081
 C24 C -0.14355 0.20347 -0.20498
 H25 H -0.21610 0.10394 -0.22308
 H26 H -0.21922 0.20783 -0.10584
 H27 H -0.11248 0.22267 -0.22075
 C28 C 0.16299 0.84053 -0.22278
 C29 C 0.20404 0.86204 -0.20098
 C30 C 0.22628 0.83992 -0.16025
 C31 C 0.20718 0.79571 -0.14187
 C32 C 0.16534 0.77473 -0.16265
 C33 C 0.14323 0.79747 -0.20281
 H34 H 0.21859 0.89573 -0.21615
 H35 H 0.22410 0.77853 -0.11048
 H36 H 0.11050 0.78158 -0.21834
 C37 C 0.16437 1.16263 0.77605
 C38 C 0.20783 1.14318 0.79506
 C39 C 0.22869 1.16308 0.83718
 C40 C 0.20601 1.20291 0.86011
 C41 C 0.16286 1.22298 0.84108
 C42 C 0.14233 1.20290 0.79888
 H43 H 0.22457 1.11178 0.77771
 H44 H 0.22179 1.21805 0.89292
 H45 H 0.10938 1.21876 0.78378
 C46 C 0.83531 0.84044 0.77060
 C47 C 0.79383 0.85890 0.79479
 C48 C 0.77515 0.83534 0.83647
 C49 C 0.79777 0.79261 0.85373
 C50 C 0.83896 0.77331 0.82969
 C51 C 0.85729 0.79720 0.78785
 H52 H 0.77605 0.89189 0.78182
 H53 H 0.78363 0.77436 0.88607
 H54 H 0.88922 0.78297 0.76906
 C55 C 0.15727 0.83368 1.22777
 C56 C 0.13618 0.79303 1.20483
 C57 C 0.15526 0.77582 1.16053
 C58 C 0.19653 0.79859 1.13977
 C59 C 0.21884 0.83821 1.16309
 C60 C 0.19866 0.85607 1.20665
 H61 H 0.10418 0.77535 1.22044
 H62 H 0.21184 0.78524 1.10583
 H63 H 0.21472 0.88777 1.22394
 C64 C 0.84097 1.16257 1.22546
 C65 C 0.79931 1.14016 1.20568
 C66 C 0.77557 1.16081 1.16527
 C67 C 0.79328 1.20460 1.14488
 C68 C 0.83549 1.22698 1.16357
 C69 C 0.85841 1.20634 1.20466
 H70 H 0.78498 1.10692 1.22194
 H71 H 0.77487 1.22048 1.11360
 H72 H 0.89018 1.22394 1.22032
 O73 O 0.43103 0.90734 0.91995
 O74 O 0.37792 0.95670 0.96243
 C75 C 0.38730 0.92214 0.93170
 O76 O 0.56639 0.91320 1.09570
 O77 O 0.62145 0.95473 1.04707
 C78 C 0.61066 0.92452 1.08207
 O79 O 0.42830 0.91167 1.09002
 O80 O 0.37632 0.95817 1.04306
 C81 C 0.38493 0.92513 1.07596
 O82 O 0.56934 0.90988 0.91655
 O83 O 0.62292 0.95415 0.96326
 C84 C 0.61319 0.92232 0.92990
 Zr85 Zr 0.50024 0.93391 0.94330
 O86 O 0.50443 0.85657 0.94674
 O87 O 0.49592 0.93132 0.86623
 Zr88 Zr 0.49829 0.93678 1.06660
 O89 O 0.50215 0.85934 1.06765
 O90 O 0.49184 0.93778 1.14362
 O91 O 0.45531 0.92676 1.00475
 O92 O 0.54170 0.92570 1.00562
 O93 O 0.57232 1.07868 0.91209
 O94 O 0.62444 1.03582 0.96213
 C95 C 0.61572 1.06609 0.92670
 O96 O 0.43146 1.08922 1.08562
 O97 O 0.37795 1.04218 1.04160
 C98 C 0.38762 1.07639 1.07252
 O99 O 0.56962 1.08396 1.09005
 O100 O 0.62299 1.03631 1.04586
 C101 C 0.61339 1.06949 1.07804
 O102 O 0.43465 1.08578 0.91456
 O103 O 0.37943 1.04044 0.95946
 C104 C 0.39038 1.07347 0.92715
 Zr105 Zr 0.50256 1.05787 0.93967
 O106 O 0.50946 1.13508 0.93811
 O107 O 0.49845 1.05655 0.86253
 Zr108 Zr 0.50054 1.06074 1.06328
 O109 O 0.50668 1.13799 1.06091
 O110 O 0.49453 1.06218 1.14035
 Zr111 Zr 0.42771 0.99890 1.00237
 Zr112 Zr 0.57312 0.99610 1.00401
 O113 O 0.54414 1.06750 1.00167
 O114 O 0.45803 1.06985 1.00071
 O115 O 0.54517 0.99492 0.93241
 O116 O 0.45685 0.99971 1.07337
 O117 O 0.45917 0.99648 0.93208
 O118 O 0.54293 0.99820 1.07500
 H119 H 0.56347 0.89667 1.00649
 H120 H 0.43431 1.00062 1.10185
 H121 H 0.56680 1.09586 1.00105
 H122 H 0.43764 0.99618 0.90308
 H123 H 0.51811 0.95924 1.15604
 H124 H 0.52218 1.04299 1.15371
 H125 H 0.47935 1.15056 1.04084
 H126 H 0.48157 1.14871 0.95685
 H127 H 0.52523 1.03526 0.85061
 H128 H 0.52272 0.95194 0.85296
 H129 H 0.47563 0.84484 0.96554
 H130 H 0.47359 0.84684 1.04944
 O131 O 0.08791 0.42918 -0.08363
 O132 O 0.03916 0.37686 -0.03895
 C133 C 0.07396 0.38575 -0.06998
 O134 O 0.07766 0.57043 0.08686
 O135 O 0.03528 0.62290 0.03675
 C136 C 0.06558 0.61391 0.07180
 O137 O 0.08177 0.43252 0.08608
 O138 O 0.03548 0.37824 0.04221
 C139 C 0.06874 0.38852 0.07400
 O140 O 0.08517 0.56673 -0.09073
 O141 O 0.03777 0.62118 -0.04773
 C142 C 0.07154 0.61075 -0.07937
 Zr143 Zr 0.05962 0.49854 -0.06318
 O144 O 0.13706 0.50329 -0.06198
 O145 O 0.06076 0.49189 -0.14016
 Zr146 Zr 0.05537 0.50104 0.06047
 O147 O 0.13277 0.50634 0.06253
 O148 O 0.05249 0.49714 0.13765
 O149 O 0.06709 0.45624 0.00007
 O150 O 0.06663 0.54211 -0.00219
 O151 O -0.08633 0.56724 -0.09653
 O152 O -0.04395 0.62146 -0.04884
 C153 C -0.07408 0.61126 -0.08362
 O154 O -0.09690 0.43281 0.08140
 O155 O -0.04832 0.37871 0.03930
 C156 C -0.08297 0.38882 0.07003
 O157 O -0.09164 0.57115 0.08231
 O158 O -0.04489 0.62344 0.03535
 C159 C -0.07728 0.61460 0.06895
 O160 O -0.09081 0.42914 -0.08898
 O161 O -0.04584 0.37682 -0.04097
 C162 C -0.07837 0.38567 -0.07400
 Zr163 Zr -0.06461 0.49875 -0.06641
 O164 O -0.14204 0.50420 -0.06720
 O165 O -0.06311 0.49208 -0.14333
 Zr166 Zr -0.06867 0.50136 0.05689
 O167 O -0.14598 0.50704 0.05342
 O168 O -0.07219 0.49755 0.13403
 Zr169 Zr -0.00455 0.42737 -0.00120
 Zr170 Zr -0.00419 0.57247 -0.00508
 O171 O -0.07535 0.54266 -0.00609
 O172 O -0.07617 0.45636 -0.00386
 O173 O -0.00202 0.54204 -0.07558
 O174 O -0.00704 0.45900 0.06867
 O175 O -0.00227 0.45607 -0.07263
 O176 O -0.00678 0.54490 0.06699
 H177 H 0.09549 0.56413 -0.00181
 H178 H -0.00807 0.43752 0.09794
 H179 H -0.10384 0.56513 -0.00722
 H180 H -0.00135 0.43325 -0.10060
 H181 H 0.03239 0.52497 0.14913
 H182 H -0.05121 0.52402 0.14680
 H183 H -0.15807 0.47845 0.03505
 H184 H -0.15530 0.47572 -0.04898
 H185 H -0.04043 0.51739 -0.15611
 H186 H 0.04371 0.52077 -0.15390
 H187 H 0.14901 0.47746 -0.03956
 H188 H 0.14619 0.47846 0.04386
 O189 O 1.08842 -0.08422 0.57054
 O190 O 1.04162 -0.03803 0.62285
 C191 C 1.07486 -0.07062 0.61389
 O192 O 1.09251 0.08965 0.43151
 O193 O 1.04669 0.04459 0.37785
 C194 C 1.07950 0.07724 0.38774
 O195 O 1.09381 0.08548 0.56925
 O196 O 1.04363 0.04275 0.62194
 C197 C 1.07876 0.07331 0.61273
 O198 O 1.08599 -0.08993 0.43324
 O199 O 1.04596 -0.03992 0.37882
 C200 C 1.07510 -0.07581 0.38930
 Zr201 Zr 1.06340 -0.06035 0.50117
 O202 O 1.14094 -0.06076 0.49652
 O203 O 1.06287 -0.13761 0.50741
 Zr204 Zr 1.06701 0.06316 0.50018
 O205 O 1.14448 0.06057 0.49604
 O206 O 1.06911 0.14047 0.50489
 O207 O 1.07362 0.00121 0.54443
 O208 O 1.07497 0.00103 0.45831
 O209 O 0.91641 -0.08364 0.43017
 O210 O 0.96416 -0.03843 0.37732
 C211 C 0.93099 -0.07107 0.38665
 O212 O 0.91489 0.09150 0.56638
 O213 O 0.95974 0.04574 0.62072
 C214 C 0.92692 0.07829 0.61032
 O215 O 0.92146 0.09467 0.42902
 O216 O 0.96594 0.04614 0.37690
 C217 C 0.93461 0.08055 0.38571
 O218 O 0.91030 -0.08025 0.56764
 O219 O 0.95742 -0.03665 0.62130
 C220 C 0.92308 -0.06763 0.61139
 Zr221 Zr 0.93921 -0.05706 0.49915
 O222 O 0.86191 -0.05434 0.49303
 O223 O 0.93697 -0.13440 0.50463
 Zr224 Zr 0.94293 0.06700 0.49828
 O225 O 0.86564 0.06932 0.49203
 O226 O 0.94577 0.14431 0.50276
 Zr227 Zr 1.00128 0.00326 0.57209
 Zr228 Zr 1.00457 0.00298 0.42728
 O229 O 0.93301 0.00512 0.45634
 O230 O 0.93036 0.00531 0.54206
 O231 O 1.00194 -0.06843 0.45682
 O232 O 1.00431 0.07408 0.54143
 O233 O 1.00015 -0.06763 0.54242
 O234 O 1.00615 0.07455 0.45569
 H235 H 1.10406 0.00011 0.43651
 H236 H 1.00478 0.10288 0.56324
 H237 H 0.90470 0.00582 0.43384
 H238 H 0.99908 -0.09639 0.56462
 H239 H 1.05010 0.15373 0.47716
 H240 H 0.96606 0.15625 0.47511
 H241 H 0.85181 0.04940 0.51905
 H242 H 0.84933 -0.03476 0.52066
 H243 H 0.95634 -0.14769 0.47710
 H244 H 1.03965 -0.15006 0.48284
 H245 H 1.15360 -0.04366 0.52558
 H246 H 1.15603 0.04028 0.52370
 C247 C 1.15111 0.13269 0.34724
 C248 C 1.17119 0.10472 0.30228
 C249 C 1.14641 0.14258 0.26857
 C250 C 1.12667 0.17082 0.31306
 C251 C 1.09941 0.11148 0.26696
 C252 C 1.12392 0.07341 0.30106
 C253 C 1.10420 0.10159 0.34544
 C254 C 1.07942 0.13934 0.31187
 H255 H 1.17213 0.14124 0.38070
 H256 H 1.20903 0.09010 0.29924
 H257 H 1.12803 0.21114 0.31782
 H258 H 1.07826 0.10282 0.23360
 H259 H 1.12222 0.03313 0.29631
 H260 H 1.04140 0.15323 0.31627
 C261 C 0.92187 -0.08488 0.29056
 C262 C 0.92131 -0.14061 0.28069
 C263 C 0.86642 -0.13703 0.26805
 C264 C 0.86691 -0.08146 0.27745
 C265 C 0.85209 -0.14721 0.32155
 C266 C 0.90722 -0.15056 0.33471
 C267 C 0.90755 -0.09517 0.34405
 C268 C 0.85286 -0.09142 0.33147
 H269 H 0.95065 -0.05886 0.27803
 H270 H 0.95021 -0.16032 0.25996
 H271 H 0.85051 -0.05279 0.25372
 H272 H 0.82315 -0.17309 0.33397
 H273 H 0.92406 -0.17868 0.35875
 H274 H 0.82499 -0.07091 0.35281
 C275 C 0.86781 0.07509 0.68812
 C276 C 0.89542 0.09858 0.73123
 C277 C 0.86002 0.14238 0.72934
 C278 C 0.83205 0.11912 0.68660
 C279 C 0.89419 0.16969 0.69340
 C280 C 0.92985 0.12561 0.69490
 C281 C 0.90193 0.10233 0.65233
 C282 C 0.86655 0.14606 0.65019
 H283 H 0.85710 0.03598 0.68542
 H284 H 0.90724 0.07915 0.76487
 H285 H 0.79159 0.11664 0.68325
 H286 H 0.90518 0.20878 0.69493
 H287 H 0.97035 0.12803 0.69782
 H288 H 0.85485 0.16531 0.61641
 C289 C 1.13722 -0.13540 0.65390
 C290 C 1.16797 -0.10841 0.69270
 C291 C 1.13984 -0.13612 0.73321
 C292 C 1.10934 -0.16337 0.69477
 C293 C 1.10133 -0.09507 0.73583
 C294 C 1.12915 -0.06708 0.69487
 C295 C 1.09873 -0.09442 0.65664
 C296 C 1.07057 -0.12206 0.69699
 H297 H 1.15183 -0.15185 0.61983
 H298 H 1.20827 -0.10294 0.69098
 H299 H 1.10121 -0.20319 0.69438
 H300 H 1.08675 -0.07868 0.76993
 H301 H 1.13700 -0.02720 0.69433
 H302 H 1.03022 -0.12740 0.69824
 C303 C 0.33960 1.15705 1.10299
 C304 C 0.28658 1.15440 1.08315
 C305 C 0.26774 1.14396 1.13537
 C306 C 0.32022 1.14691 1.15546
 C307 C 0.27315 1.08844 1.12746
 C308 C 0.29243 1.09863 1.07519
 C309 C 0.34488 1.10166 1.09530
 C310 C 0.32611 1.09115 1.14730
 H311 H 0.36744 1.18498 1.09272
 H312 H 0.27087 1.17992 1.05573
 H313 H 0.33134 1.16701 1.18872
 H314 H 0.24555 1.06018 1.13749
 H315 H 0.28126 1.07856 1.04192
 H316 H 0.34283 1.06484 1.17337
 C317 C 0.33950 0.89430 0.85144
 C318 C 0.32008 0.84139 0.85899
 C319 C 0.26760 0.86177 0.86276
 C320 C 0.28655 0.91442 0.85497
 C321 C 0.27262 0.86692 0.91850
 C322 C 0.32566 0.84683 0.91498
 C323 C 0.34447 0.89929 0.90703
 C324 C 0.29200 0.91964 0.91088
 H325 H 0.36754 0.90569 0.82412
 H326 H 0.33132 0.80903 0.83730
 H327 H 0.27104 0.94322 0.83085
 H328 H 0.24481 0.85578 0.94616
 H329 H 0.34216 0.81934 0.93996
 H330 H 0.28061 0.95200 0.93252
 C331 C 0.69489 0.92925 1.13076
 C332 C 0.69314 0.89389 1.17511
 C333 C 0.72976 0.86001 1.14879
 C334 C 0.73188 0.89515 1.10472
 C335 C 0.68733 0.83143 1.12546
 C336 C 0.65020 0.86557 1.15145
 C337 C 0.65261 0.90067 1.10744
 C338 C 0.68912 0.86685 1.08115
 H339 H 0.69749 0.96974 1.13277
 H340 H 0.69452 0.90501 1.21398
 H341 H 0.76585 0.90720 1.08563
 H342 H 0.68440 0.79095 1.12346
 H343 H 0.61615 0.85364 1.17045
 H344 H 0.68700 0.85598 1.04223
 C345 C 0.65654 1.11848 0.85394
 C346 C 0.68972 1.15783 0.87717
 C347 C 0.73521 1.12990 0.85879
 C348 C 0.70240 1.09073 0.83521
 C349 C 0.73732 1.10017 0.90662
 C350 C 0.69141 1.12781 0.92526
 C351 C 0.65874 1.08880 0.90170
 C352 C 0.70401 1.06075 0.88338
 H353 H 0.62292 1.12585 0.83247
 H354 H 0.68396 1.19799 0.87442
 H355 H 0.70601 1.07499 0.79812
 H356 H 0.77092 1.09276 0.92811
 H357 H 0.68640 1.14273 0.96258
 H358 H 0.70931 1.02058 0.88636
 C359 C 0.12734 0.31050 0.07131
 C360 C 0.16381 0.31318 0.11432
 C361 C 0.13654 0.27043 0.13938
 C362 C 0.10039 0.26735 0.09663
 C363 C 0.10264 0.30657 0.16629
 C364 C 0.12967 0.34973 0.14092
 C365 C 0.09354 0.34648 0.09826
 C366 C 0.06621 0.30390 0.12326
 H367 H 0.13720 0.31269 0.03198
 H368 H 0.20421 0.31685 0.11079
 H369 H 0.08855 0.23308 0.07858
 H370 H 0.09243 0.30532 0.20555
 H371 H 0.14153 0.38401 0.15893
 H372 H 0.02576 0.30063 0.12663
 C373 C -0.09054 0.32393 -0.14842
 C374 C -0.08679 0.27112 -0.12795
 C375 C -0.14210 0.26428 -0.13649
 C376 C -0.14608 0.31664 -0.15718
 C377 C -0.15366 0.28285 -0.08465
 C378 C -0.09813 0.29007 -0.07603
 C379 C -0.10218 0.34239 -0.09677
 C380 C -0.15740 0.33571 -0.10510
 H381 H -0.06431 0.34131 -0.17437
 H382 H -0.05776 0.24423 -0.13736
 H383 H -0.16607 0.32716 -0.19083
 H384 H -0.17927 0.26633 -0.05759
 H385 H -0.07827 0.27938 -0.04232
 H386 H -0.18619 0.36277 -0.09552
 C387 C 0.14569 0.65051 -0.13207
 C388 C 0.12334 0.68583 -0.17043
 C389 C 0.14234 0.72964 -0.14087
 C390 C 0.16503 0.69481 -0.10279
 C391 C 0.09406 0.73161 -0.11164
 C392 C 0.07477 0.68740 -0.14087
 C393 C 0.09747 0.65275 -0.10286
 C394 C 0.11653 0.69644 -0.07335
 H395 H 0.16661 0.61669 -0.14039
 H396 H 0.12645 0.68183 -0.21063
 H397 H 0.20227 0.69728 -0.08689
 H398 H 0.07302 0.76535 -0.10328
 H399 H 0.03760 0.68368 -0.15668
 H400 H 0.11349 0.70035 -0.03313
 C401 C -0.15135 0.67695 0.08716
 C402 C -0.15662 0.68230 0.14320
 C403 C -0.13586 0.73459 0.13935
 C404 C -0.13080 0.72975 0.08356
 C405 C -0.08330 0.71519 0.14638
 C406 C -0.10384 0.66246 0.14999
 C407 C -0.09897 0.65770 0.09432
 C408 C -0.07814 0.70994 0.09038
 H409 H -0.17908 0.66080 0.06251
 H410 H -0.18911 0.67130 0.16526
 H411 H -0.14191 0.75780 0.05630
 H412 H -0.05452 0.73056 0.17032
 H413 H -0.09261 0.63427 0.17706
 H414 H -0.04558 0.72105 0.06846
 C415 C 1.08251 0.09202 0.70793
 C416 C 1.13542 0.08374 0.72609
 C417 C 1.14125 0.13945 0.73224
 C418 C 1.08843 0.14789 0.71446
 C419 C 1.16108 0.14434 0.67974
 C420 C 1.15497 0.08838 0.67304
 C421 C 1.10230 0.09701 0.65544
 C422 C 1.10799 0.15259 0.66151
 H423 H 1.05002 0.07021 0.71938
 H424 H 1.14671 0.05546 0.75305
 H425 H 1.06025 0.17197 0.73114
 H426 H 1.19360 0.16620 0.66856
 H427 H 1.18201 0.06357 0.65557
 H428 H 1.09651 0.18064 0.63440
 C429 C 0.91112 -0.14286 0.67264
 C430 C 0.91116 -0.12274 0.72533
 C431 C 0.85607 -0.13451 0.72959
 C432 C 0.85580 -0.15488 0.67735
 C433 C 0.84286 -0.08296 0.71051
 C434 C 0.89821 -0.07113 0.70580
 C435 C 0.89786 -0.09154 0.65360
 C436 C 0.84288 -0.10307 0.65772
 H437 H 0.93951 -0.16716 0.65662
 H438 H 0.93928 -0.13083 0.75340
 H439 H 0.83812 -0.18957 0.66598
 H440 H 0.81517 -0.05728 0.72553
 H441 H 0.91590 -0.03644 0.71719
 H442 H 0.81509 -0.09472 0.62942
 C443 C 1.12255 -0.15267 0.34868
 C444 C 1.09393 -0.16705 0.30215
 C445 C 1.13586 -0.14580 0.27055
 C446 C 1.16474 -0.13188 0.31656
 C447 C 1.11095 -0.09528 0.26963
 C448 C 1.06886 -0.11623 0.30159
 C449 C 1.09771 -0.10220 0.34746
 C450 C 1.13953 -0.08106 0.31602
 H451 H 1.12715 -0.17597 0.38168
 H452 H 1.07461 -0.20243 0.29732
 H453 H 1.20443 -0.13858 0.32241
 H454 H 1.10620 -0.07176 0.23681
 H455 H 1.02920 -0.10951 0.29593
 H456 H 1.15835 -0.04567 0.32239
 C457 C 0.91794 0.08638 0.28993
 C458 C 0.86178 0.08731 0.28263
 C459 C 0.86548 0.14129 0.26626
 C460 C 0.92153 0.14045 0.27310
 C461 C 0.85808 0.15864 0.31911
 C462 C 0.85457 0.10445 0.33591
 C463 C 0.91042 0.10372 0.34278
 C464 C 0.91438 0.15751 0.32657
 H465 H 0.94285 0.05650 0.27816
 H466 H 0.84079 0.05754 0.26492
 H467 H 0.94922 0.15511 0.24698
 H468 H 0.83313 0.18852 0.33079
 H469 H 0.82729 0.08946 0.36226
 H470 H 0.93637 0.18604 0.34508
 C471 C 0.15285 0.32928 -0.08873
 C472 C 0.13816 0.27525 -0.07905
 C473 C 0.13903 0.26596 -0.13446
 C474 C 0.15401 0.31942 -0.14438
 C475 C 0.08437 0.27954 -0.13819
 C476 C 0.08333 0.28928 -0.08264
 C477 C 0.09835 0.34270 -0.09270
 C478 C 0.09912 0.33342 -0.14794
 H479 H 0.18069 0.35021 -0.06807
 H480 H 0.15412 0.25100 -0.05063
 H481 H 0.18331 0.33140 -0.17008
 H482 H 0.05569 0.25909 -0.15818
 H483 H 0.05406 0.27713 -0.05697
 H484 H 0.08284 0.35787 -0.17601
 C485 C -0.10780 0.33884 0.15076
 C486 C -0.16198 0.32191 0.14726
 C487 C -0.14418 0.26903 0.13984
 C488 C -0.09028 0.28547 0.14356
 C489 C -0.14299 0.27661 0.08403
 C490 C -0.16047 0.33012 0.09115
 C491 C -0.10673 0.34638 0.09515
 C492 C -0.08905 0.29342 0.08770
 H493 H -0.09314 0.36494 0.17794
 H494 H -0.19216 0.33325 0.17209
 H495 H -0.06049 0.26746 0.16447
 H496 H -0.15722 0.25082 0.05632
 H497 H -0.18902 0.34895 0.06927
 H498 H -0.05889 0.28175 0.06298
 C499 C -0.11734 0.65467 -0.16145
 C500 C -0.16364 0.68158 -0.14233
 C501 C -0.13756 0.73094 -0.15071
 C502 C -0.09150 0.70460 -0.17018
 C503 C -0.11720 0.72963 -0.09843
 C504 C -0.14298 0.67988 -0.08980
 C505 C -0.09711 0.65360 -0.10924
 C506 C -0.07103 0.70289 -0.11758
 H507 H -0.11719 0.62335 -0.18710
 H508 H -0.20199 0.67313 -0.15272
 H509 H -0.06945 0.71398 -0.20310
 H510 H -0.11717 0.76076 -0.07252
 H511 H -0.16386 0.66927 -0.05647
 H512 H -0.03285 0.71150 -0.10678
 C513 C 0.08354 0.70991 0.07743
 C514 C 0.07564 0.72645 0.13080
 C515 C 0.13145 0.73303 0.13597
 C516 C 0.13954 0.71692 0.08274
 C517 C 0.13674 0.67986 0.15404
 C518 C 0.08072 0.67275 0.14859
 C519 C 0.08899 0.65678 0.09552
 C520 C 0.14466 0.66331 0.10056
 H521 H 0.06128 0.72203 0.04578
 H522 H 0.04727 0.75280 0.14324
 H523 H 0.16337 0.73486 0.05496
 H524 H 0.15897 0.66791 0.18577
 H525 H 0.05619 0.65413 0.17532
 H526 H 0.17279 0.63682 0.08793
 C527 C 0.30768 1.07038 0.87638
 C528 C 0.26951 1.10327 0.90231
 C529 C 0.27312 1.14001 0.85966
 C530 C 0.31092 1.10737 0.83347
 C531 C 0.31439 1.16793 0.88565
 C532 C 0.31117 1.13086 0.92856
 C533 C 0.34880 1.09829 0.90234
 C534 C 0.35265 1.13500 0.85977
 H535 H 0.30545 1.02997 0.87288
 H536 H 0.23491 1.09035 0.91959
 H537 H 0.31112 1.09772 0.79418
 H538 H 0.31695 1.20831 0.88922
 H539 H 0.31184 1.14027 0.96791
 H540 H 0.38730 1.14786 0.84254
 C541 C 0.30519 0.86817 1.07323
 C542 C 0.30617 0.83270 1.11754
 C543 C 0.26366 0.86155 1.14090
 C544 C 0.26225 0.89670 1.09685
 C545 C 0.30024 0.89511 1.16727
 C546 C 0.34315 0.86649 1.14363
 C547 C 0.34160 0.90162 1.09967
 C548 C 0.29925 0.93053 1.12297
 H549 H 0.30778 0.85738 1.03428
 H550 H 0.30879 0.79221 1.11551
 H551 H 0.22856 0.90898 1.07782
 H552 H 0.29872 0.90633 1.20612
 H553 H 0.37682 0.85418 1.16267
 H554 H 0.29694 0.97106 1.12490
 C555 C 0.70937 1.07632 1.09574
 C556 C 0.72511 1.13012 1.08747
 C557 C 0.73221 1.13567 1.14290
 C558 C 0.71685 1.08195 1.15136
 C559 C 0.67879 1.15272 1.14903
 C560 C 0.67121 1.14691 1.09338
 C561 C 0.65598 1.09337 1.10199
 C562 C 0.66294 1.09874 1.15728
 H563 H 0.72174 1.04467 1.07359
 H564 H 0.75097 1.14307 1.05873
 H565 H 0.73541 1.05449 1.17486
 H566 H 0.66660 1.18440 1.17119
 H567 H 0.65197 1.17331 1.06920
 H568 H 0.63688 1.08557 1.18573
 C569 C 0.70733 0.89544 0.92747
 C570 C 0.71038 0.84099 0.91239
 C571 C 0.73177 0.85693 0.86259
 C572 C 0.72914 0.91112 0.87754
 C573 C 0.68005 0.85990 0.84064
 C574 C 0.65816 0.84418 0.89069
 C575 C 0.65567 0.89831 0.90544
 C576 C 0.67697 0.91431 0.85583
 H577 H 0.71827 0.91035 0.96342
 H578 H 0.72373 0.81102 0.93638
 H579 H 0.75881 0.93848 0.87199
 H580 H 0.66921 0.84498 0.80468
 H581 H 0.62844 0.81693 0.89632
 H582 H 0.66282 0.94479 0.83291
   
