data_POSCAR
  _audit_creation_date              2014-09-24
  _audit_creation_method            'ToBaCCo'
  _symmetry_space_group_name_H-M    'P1'
  _symmetry_Int_Tables_number       1
  _symmetry_cell_setting            triclinic
  loop_
  _symmetry_equiv_pos_as_xyz
 x,y,z
_cell_length_a 23.3330
_cell_length_b 23.7183
_cell_length_c 26.2684
_cell_angle_alpha 89.470400
_cell_angle_beta 90.410000
_cell_angle_gamma 83.601900
loop_
  _atom_site_label
  _atom_site_type_symbol
  _atom_site_fract_x
  _atom_site_fract_y
  _atom_site_fract_z
C1 C 1.21155 0.22219 0.20223
 C2 C 1.25100 0.25639 0.17062
 C3 C 1.29001 0.28217 0.19782
 C4 C 1.28524 0.27283 0.25614
 C5 C 1.25249 0.18219 0.23523
 C6 C 1.28994 0.20779 0.26443
 C7 C 1.18356 0.26736 0.23866
 C8 C 1.22125 0.29243 0.26929
 H9 H 1.24536 0.26506 0.13030
 H10 H 1.31816 0.29457 0.27624
 H11 H 1.24668 0.13778 0.24040
 H12 H 1.13724 0.27664 0.24149
 C13 C 0.70554 -0.28109 0.19807
 C14 C 0.74177 -0.24132 0.16893
 C15 C 0.77825 -0.21418 0.19811
 C16 C 0.77217 -0.22647 0.25571
 C17 C 0.74923 -0.31927 0.23028
 C18 C 0.78379 -0.29153 0.26062
 C19 C 0.67242 -0.24050 0.23546
 C20 C 0.70686 -0.21292 0.26638
 H21 H 0.73769 -0.23232 0.12859
 H22 H 0.79998 -0.20395 0.28115
 H23 H 0.75069 -0.36511 0.23055
 H24 H 0.62587 -0.23550 0.23861
 C25 C 0.72452 0.20001 -0.29691
 C26 C 0.76293 0.23215 -0.32586
 C27 C 0.78935 0.27336 -0.29765
 C28 C 0.77637 0.27091 -0.24267
 C29 C 0.76328 0.17234 -0.25866
 C30 C 0.79068 0.21061 -0.22663
 C31 C 0.68555 0.24163 -0.27047
 C32 C 0.71261 0.28101 -0.24027
 H33 H 0.77636 0.22249 -0.36453
 H34 H 0.80046 0.30013 -0.22044
 H35 H 0.77132 0.12661 -0.25493
 H36 H 0.63914 0.24444 -0.27558
 C37 C 1.20973 -0.28398 -0.30383
 C38 C 1.24946 -0.24670 -0.33241
 C39 C 1.28217 -0.21710 -0.30156
 C40 C 1.27162 -0.22640 -0.24451
 C41 C 1.25024 -0.32060 -0.26763
 C42 C 1.28239 -0.29080 -0.23691
 C43 C 1.17421 -0.24098 -0.27035
 C44 C 1.20600 -0.21212 -0.23821
 H45 H 1.24840 -0.23879 -0.37295
 H46 H 1.29802 -0.20262 -0.21878
 H47 H 1.25237 -0.36646 -0.26581
 H48 H 1.12748 -0.23558 -0.27062
 C49 C 0.21886 0.20894 0.80708
 C50 C 0.25767 0.24191 0.83451
 C51 C 0.28702 0.27936 0.80381
 C52 C 0.27356 0.27489 0.74936
 C53 C 0.17932 0.25262 0.77630
 C54 C 0.20706 0.28705 0.74578
 C55 C 0.25867 0.17668 0.76824
 C56 C 0.28611 0.21088 0.73710
 H57 H 0.27114 0.23357 0.87360
 H58 H 0.29561 0.30262 0.72357
 H59 H 0.13272 0.25459 0.77755
 H60 H 0.26346 0.13094 0.76461
 C61 C 0.72954 0.70807 0.80062
 C62 C 0.76724 0.74185 0.82911
 C63 C 0.79755 0.77798 0.79840
 C64 C 0.78584 0.77285 0.74339
 C65 C 0.69283 0.74885 0.76978
 C66 C 0.72253 0.78476 0.73753
 C67 C 0.76923 0.67691 0.76564
 C68 C 0.79849 0.71179 0.73146
 H69 H 0.77874 0.73605 0.86891
 H70 H 0.81297 0.79951 0.72148
 H71 H 0.64615 0.75295 0.77223
 H72 H 0.77350 0.63103 0.76350
 C73 C 0.70596 0.22471 0.30373
 C74 C 0.74780 0.26128 0.32924
 C75 C 0.78606 0.28143 0.29694
 C76 C 0.77841 0.26407 0.24034
 C77 C 0.67766 0.26470 0.26196
 C78 C 0.71499 0.28346 0.22771
 C79 C 0.74655 0.17926 0.27711
 C80 C 0.78076 0.19839 0.24075
 H81 H 0.74543 0.27527 0.36823
 H82 H 0.80863 0.28175 0.21369
 H83 H 0.63145 0.27580 0.25874
 H84 H 0.74864 0.13482 0.28771
 C85 C 0.22441 0.70172 0.30492
 C86 C 0.26193 0.73843 0.33604
 C87 C 0.29409 0.77086 0.30781
 C88 C 0.28752 0.76251 0.24963
 C89 C 0.18994 0.74338 0.26807
 C90 C 0.22232 0.77502 0.23871
 C91 C 0.26892 0.66665 0.27242
 C92 C 0.30029 0.69773 0.24172
 H93 H 0.26570 0.73811 0.37704
 H94 H 0.31406 0.78802 0.22566
 H95 H 0.14344 0.74592 0.26439
 H96 H 0.27293 0.62072 0.27161
 O97 O 1.10516 0.05435 0.04265
 O98 O 0.90077 -0.07340 0.03633
 O99 O 0.92545 0.09956 0.04478
 O100 O 1.08096 -0.11810 0.03770
 O101 O 0.90179 0.02001 0.06782
 O102 O 1.10276 -0.04090 0.06759
 O103 O 0.98259 -0.10848 0.06456
 O104 O 1.02394 0.08487 0.07309
 C105 C 1.07696 0.08102 0.07651
 C106 C 0.92995 -0.10028 0.07054
 C107 C 0.90122 0.07086 0.07646
 C108 C 1.10573 -0.09270 0.07171
 O109 O 1.11878 -0.07220 -0.03145
 O110 O 0.88692 0.06250 -0.02916
 O111 O 1.05749 0.10186 -0.02464
 O112 O 0.94722 -0.11291 -0.03591
 O113 O 0.90766 -0.03241 -0.06078
 O114 O 1.09528 0.02492 -0.05643
 O115 O 1.04300 -0.10055 -0.06139
 O116 O 0.96358 0.09418 -0.05366
 Co117 Co 1.09520 -0.00841 0.00548
 Co118 Co 0.90930 -0.00592 0.00364
 Co119 Co 0.99348 0.08491 0.00958
 Co120 Co 1.01240 -0.09992 0.00165
 O121 O 1.00251 -0.00739 0.00517
 C122 C 1.09446 -0.09464 -0.06702
 C123 C 0.91219 0.09038 -0.06084
 C124 C 1.08583 0.07687 -0.05931
 C125 C 0.91623 -0.08391 -0.06815
 O126 O 1.10269 0.55423 0.53410
 O127 O 0.88901 0.43435 0.52991
 O128 O 0.92529 0.60394 0.53126
 O129 O 1.06764 0.38430 0.54463
 O130 O 0.89395 0.52960 0.55965
 O131 O 1.09372 0.46347 0.56710
 O132 O 0.96663 0.39565 0.56326
 O133 O 1.02152 0.58626 0.56287
 C134 C 1.07444 0.58168 0.56717
 C135 C 0.91328 0.40353 0.56421
 C136 C 0.89908 0.58048 0.56493
 C137 C 1.09224 0.41293 0.57658
 O138 O 1.11341 0.42009 0.47451
 O139 O 0.88512 0.56609 0.45977
 O140 O 1.05746 0.59473 0.46391
 O141 O 0.94113 0.38857 0.46148
 O142 O 0.90129 0.46821 0.43326
 O143 O 1.09507 0.51479 0.43776
 O144 O 1.03990 0.39230 0.44086
 O145 O 0.96510 0.58812 0.43473
 Co146 Co 1.09056 0.48864 0.50267
 Co147 Co 0.90281 0.49912 0.49623
 Co148 Co 0.99281 0.58338 0.49872
 Co149 Co 1.00351 0.39987 0.50226
 O150 O 0.99718 0.49253 0.50008
 C151 C 1.09192 0.39639 0.43845
 C152 C 0.91309 0.59040 0.42739
 C153 C 1.08710 0.56682 0.43180
 C154 C 0.91381 0.41657 0.42645
 O155 O 0.59926 0.02197 0.56480
 O156 O 0.40707 -0.02491 0.57321
 O157 O 0.46493 0.09665 0.56680
 O158 O 0.54538 -0.09898 0.56795
 O159 O 0.38683 0.07041 0.54014
 O160 O 0.61950 -0.07299 0.53395
 O161 O 0.44636 -0.10543 0.54825
 O162 O 0.55900 0.10180 0.53888
 C163 C 0.58962 0.07342 0.57107
 C164 C 0.41705 -0.07656 0.58059
 C165 C 0.41258 0.09734 0.57184
 C166 C 0.59777 -0.09528 0.57107
 O167 O 0.59804 -0.03363 0.43765
 O168 O 0.39603 0.03062 0.44429
 O169 O 0.52309 0.09187 0.43994
 O170 O 0.47117 -0.09870 0.44560
 O171 O 0.39278 -0.06474 0.47811
 O172 O 0.60521 0.06059 0.46877
 O173 O 0.57082 -0.11056 0.46618
 O174 O 0.42676 0.10766 0.46739
 Co175 Co 0.59448 -0.00553 0.50139
 Co176 Co 0.40641 0.00226 0.50872
 Co177 Co 0.49411 0.08972 0.50334
 Co178 Co 0.50770 -0.09377 0.50684
 O179 O 0.50056 -0.00183 0.50492
 C180 C 0.59723 -0.08535 0.43322
 C181 C 0.40071 0.08128 0.43545
 C182 C 0.57577 0.08865 0.43604
 C183 C 0.41798 -0.09073 0.44215
 O184 O 0.60893 0.55204 0.03063
 O185 O 0.39652 0.44175 0.03312
 O186 O 0.43227 0.61287 0.02856
 O187 O 0.57587 0.38314 0.02111
 O188 O 0.40536 0.53800 0.05918
 O189 O 0.60148 0.45714 0.05405
 O190 O 0.47825 0.39501 0.05168
 O191 O 0.52836 0.58703 0.05879
 C192 C 0.58094 0.57921 0.06420
 C193 C 0.42660 0.40750 0.06198
 C194 C 0.41033 0.58901 0.06460
 C195 C 0.59869 0.40561 0.05769
 O196 O 0.61412 0.42815 -0.04678
 O197 O 0.39054 0.57289 -0.04041
 O198 O 0.56532 0.60278 -0.03699
 O199 O 0.43853 0.39650 -0.04351
 O200 O 0.39776 0.47719 -0.06674
 O201 O 0.59468 0.52496 -0.06997
 O202 O 0.53616 0.40333 -0.07611
 O203 O 0.46950 0.59781 -0.06859
 Co204 Co 0.59455 0.49137 -0.00785
 Co205 Co 0.40748 0.50656 -0.00383
 Co206 Co 0.49927 0.58922 -0.00505
 Co207 Co 0.50682 0.40471 -0.01173
 O208 O 0.50171 0.49760 -0.00686
 C209 C 0.58815 0.40782 -0.08264
 C210 C 0.41734 0.59519 -0.07485
 C211 C 0.59140 0.57689 -0.07201
 C212 C 0.40770 0.42590 -0.07474
 C213 C 1.15516 0.13891 0.09244
 C214 C 1.18658 0.17264 0.12171
 C215 C 1.17083 0.18747 0.17187
 C216 C 1.12337 0.16166 0.19349
 C217 C 1.09079 0.12714 0.16273
 C218 C 1.10688 0.11640 0.11168
 C219 C 1.04498 0.10199 0.18495
 N220 N 1.03250 0.11044 0.23467
 N221 N 1.06323 0.14157 0.26381
 C222 C 1.10819 0.16670 0.24519
 H223 H 1.16943 0.13002 0.05386
 H224 H 1.22517 0.18482 0.10441
 H225 H 1.01965 0.07461 0.16390
 H226 H 1.13166 0.18907 0.27171
 C227 C 1.15010 0.64194 0.58252
 C228 C 1.18349 0.67273 0.61273
 C229 C 1.17263 0.67950 0.66492
 C230 C 1.12871 0.64939 0.68713
 C231 C 1.09379 0.61857 0.65544
 C232 C 1.10463 0.61565 0.60274
 C233 C 1.05094 0.58950 0.67793
 N234 N 1.04378 0.59075 0.72902
 N235 N 1.07695 0.61850 0.75906
 C236 C 1.11922 0.64731 0.74010
 H237 H 1.16053 0.63824 0.54249
 H238 H 1.21894 0.68957 0.59414
 H239 H 1.02362 0.56510 0.65566
 H240 H 1.14535 0.66710 0.76712
 C241 C 0.64508 0.15079 0.59065
 C242 C 0.67745 0.18110 0.62189
 C243 C 0.69106 0.16393 0.67267
 C244 C 0.66201 0.11834 0.69314
 C245 C 0.63025 0.08591 0.65991
 C246 C 0.62271 0.10243 0.60826
 C247 C 0.60386 0.04022 0.68019
 N248 N 0.60707 0.02894 0.73080
 N249 N 0.63375 0.06097 0.76251
 C250 C 0.66024 0.10561 0.74573
 H251 H 0.63735 0.16575 0.55186
 H252 H 0.69010 0.21979 0.60554
 H253 H 0.57956 0.01411 0.65668
 H254 H 0.67751 0.13147 0.77425
 C255 C 0.65657 0.63857 0.08339
 C256 C 0.68568 0.67236 0.11462
 C257 C 0.66969 0.68198 0.16568
 C258 C 0.62639 0.65002 0.18624
 C259 C 0.59569 0.61619 0.15346
 C260 C 0.61069 0.61156 0.10154
 C261 C 0.55282 0.58584 0.17428
 N262 N 0.54204 0.58829 0.22483
 N263 N 0.57191 0.61816 0.25597
 C264 C 0.61397 0.64834 0.23867
 H265 H 0.67010 0.63383 0.04412
 H266 H 0.72243 0.68899 0.09794
 H267 H 0.52840 0.55945 0.15111
 H268 H 0.63804 0.66898 0.26664
 C269 C 0.88912 -0.18555 0.10027
 C270 C 0.85240 -0.21257 0.13131
 C271 C 0.82421 -0.18480 0.17291
 C272 C 0.83871 -0.13015 0.18598
 C273 C 0.87926 -0.10415 0.15585
 C274 C 0.90130 -0.13063 0.11082
 C275 C 0.89618 -0.05215 0.17175
 N276 N 0.87154 -0.02621 0.21323
 N277 N 0.83084 -0.04864 0.23945
 C278 C 0.81317 -0.09936 0.22694
 H279 H 0.90640 -0.20695 0.06650
 H280 H 0.84380 -0.25501 0.12115
 H281 H 0.92911 -0.03229 0.15183
 H282 H 0.77928 -0.11469 0.24902
 C283 C 0.90224 0.35607 0.64943
 C284 C 0.87105 0.32766 0.68550
 C285 C 0.81433 0.31657 0.67511
 C286 C 0.78730 0.34004 0.62966
 C287 C 0.82008 0.36342 0.59111
 C288 C 0.87829 0.37326 0.60145
 C289 C 0.79296 0.37426 0.54310
 N290 N 0.73576 0.37056 0.53726
 N291 N 0.70368 0.35558 0.57563
 C292 C 0.72738 0.34051 0.62159
 H293 H 0.94616 0.36326 0.65859
 H294 H 0.89275 0.31103 0.71996
 H295 H 0.81607 0.38381 0.50940
 H296 H 0.69930 0.32866 0.65149
 C297 C 0.32463 -0.09930 0.61514
 C298 C 0.29205 -0.13387 0.64336
 C299 C 0.31850 -0.17526 0.67704
 C300 C 0.37893 -0.17854 0.68524
 C301 C 0.41191 -0.14234 0.65709
 C302 C 0.38476 -0.10475 0.61982
 C303 C 0.47115 -0.14475 0.66745
 N304 N 0.49622 -0.18276 0.70202
 N305 N 0.46587 -0.21847 0.72679
 C306 C 0.40821 -0.21782 0.71944
 H307 H 0.30288 -0.07041 0.58723
 H308 H 0.24581 -0.13005 0.63710
 H309 H 0.49728 -0.11578 0.64935
 H310 H 0.38609 -0.24775 0.74057
 C311 C 0.39612 0.31819 0.09738
 C312 C 0.36350 0.28825 0.13042
 C313 C 0.33196 0.31526 0.17057
 C314 C 0.33679 0.37364 0.17890
 C315 C 0.37182 0.40359 0.14615
 C316 C 0.39912 0.37637 0.10334
 C317 C 0.37886 0.45998 0.15780
 N318 N 0.34986 0.48595 0.19721
 N319 N 0.31438 0.45915 0.22584
 C320 C 0.30667 0.40407 0.21792
 H321 H 0.41723 0.29614 0.06549
 H322 H 0.36087 0.24370 0.12318
 H323 H 0.40843 0.48297 0.13688
 H324 H 0.27717 0.38495 0.24227
 C325 C 0.88809 0.10615 -0.15155
 C326 C 0.86041 0.13702 -0.19167
 C327 C 0.82473 0.18837 -0.18404
 C328 C 0.81977 0.20947 -0.13297
 C329 C 0.84794 0.17704 -0.09203
 C330 C 0.88103 0.12463 -0.10163
 C331 C 0.84167 0.19779 -0.04212
 N332 N 0.80846 0.24710 -0.03324
 N333 N 0.78095 0.27684 -0.07090
 C334 C 0.78516 0.25956 -0.11990
 H335 H 0.91480 0.06691 -0.15957
 H336 H 0.86724 0.12014 -0.22961
 H337 H 0.86251 0.17519 -0.00997
 H338 H 0.76104 0.28536 -0.14729
 C339 C 0.82829 0.61137 0.37152
 C340 C 0.79848 0.63684 0.33010
 C341 C 0.82165 0.67793 0.30032
 C342 C 0.87867 0.68998 0.31060
 C343 C 0.90988 0.66385 0.35312
 C344 C 0.88415 0.62321 0.38378
 C345 C 0.96518 0.68048 0.36305
 N346 N 0.98832 0.71686 0.33110
 N347 N 0.96021 0.73840 0.28992
 C348 C 0.90636 0.72612 0.27857
 H349 H 0.80736 0.58099 0.39376
 H350 H 0.75597 0.62477 0.32210
 H351 H 0.99063 0.66648 0.39583
 H352 H 0.88629 0.74385 0.24407
 C353 C 0.40325 0.13592 0.35458
 C354 C 0.37690 0.16737 0.31376
 C355 C 0.31678 0.17730 0.31002
 C356 C 0.28280 0.15671 0.34947
 C357 C 0.30959 0.12360 0.39002
 C358 C 0.37039 0.11226 0.39207
 C359 C 0.27451 0.10530 0.42870
 N360 N 0.21668 0.11938 0.42714
 N361 N 0.19157 0.15140 0.38970
 C362 C 0.22269 0.17078 0.35129
 H363 H 0.44975 0.12987 0.35689
 H364 H 0.40358 0.18371 0.28475
 H365 H 0.29250 0.08141 0.46084
 H366 H 0.20059 0.19932 0.32413
 C367 C 0.34074 0.66601 -0.10750
 C368 C 0.30906 0.69464 -0.14672
 C369 C 0.32137 0.68151 -0.19754
 C370 C 0.36785 0.64002 -0.20925
 C371 C 0.40013 0.61087 -0.16926
 C372 C 0.38616 0.62418 -0.11810
 C373 C 0.44437 0.56824 -0.18195
 N374 N 0.45653 0.55720 -0.23150
 N375 N 0.42738 0.58577 -0.26910
 C376 C 0.38356 0.62680 -0.25973
 H377 H 0.32971 0.67657 -0.06846
 H378 H 0.27355 0.72618 -0.13732
 H379 H 0.46910 0.54335 -0.15306
 H380 H 0.36181 0.64893 -0.29179
 C381 C 1.11004 -0.17353 -0.12685
 C382 C 1.13635 -0.20175 -0.16789
 C383 C 1.17884 -0.17821 -0.19594
 C384 C 1.19523 -0.12483 -0.18174
 C385 C 1.17133 -0.09768 -0.13743
 C386 C 1.12680 -0.12171 -0.11055
 C387 C 1.19227 -0.04684 -0.12286
 N388 N 1.23081 -0.02309 -0.15227
 N389 N 1.25022 -0.04680 -0.19541
 C390 C 1.23357 -0.09668 -0.21123
 H391 H 1.07686 -0.19322 -0.10687
 H392 H 1.12343 -0.24282 -0.17756
 H393 H 1.17931 -0.02577 -0.08846
 H394 H 1.24966 -0.11316 -0.24713
 C395 C 1.11199 0.38318 0.34673
 C396 C 1.14632 0.36235 0.30639
 C397 C 1.19844 0.32713 0.31438
 C398 C 1.21840 0.31792 0.36594
 C399 C 1.18194 0.33750 0.40701
 C400 C 1.12857 0.37058 0.39708
 C401 C 1.19932 0.32168 0.45718
 N402 N 1.25146 0.29222 0.46608
 N403 N 1.28728 0.27728 0.42828
 C404 C 1.27271 0.28929 0.37904
 H405 H 1.07179 0.40922 0.33846
 H406 H 1.13052 0.37204 0.26806
 H407 H 1.17187 0.33152 0.48953
 H408 H 1.30471 0.27668 0.35174
 C409 C 0.63831 -0.09181 0.34581
 C410 C 0.66458 -0.12259 0.30543
 C411 C 0.68285 -0.18061 0.31092
 C412 C 0.67598 -0.20759 0.35844
 C413 C 0.65410 -0.17552 0.40065
 C414 C 0.63125 -0.11782 0.39332
 C415 C 0.65659 -0.20276 0.44878
 N416 N 0.67345 -0.25921 0.45272
 N417 N 0.68836 -0.29022 0.41201
 C418 C 0.68975 -0.26626 0.36509
 H419 H 0.62209 -0.04767 0.33948
 H420 H 0.66893 -0.10145 0.26916
 H421 H 0.64692 -0.18002 0.48357
 H422 H 0.70047 -0.29316 0.33321
 C423 C 0.59948 0.33310 -0.14766
 C424 C 0.62880 0.30247 -0.18612
 C425 C 0.67933 0.31964 -0.20782
 C426 C 0.69654 0.37253 -0.19244
 C427 C 0.66943 0.40159 -0.15017
 C428 C 0.61988 0.38145 -0.12739
 C429 C 0.69249 0.45065 -0.13364
 N430 N 0.73497 0.47199 -0.16008
 N431 N 0.75634 0.44759 -0.20223
 C432 C 0.73812 0.39903 -0.21954
 H433 H 0.56202 0.31662 -0.13153
 H434 H 0.61331 0.26260 -0.19591
 H435 H 0.67744 0.47293 -0.10059
 H436 H 0.75502 0.38264 -0.25514
 C437 C 1.14263 0.15443 -0.07730
 C438 C 1.17446 0.18578 -0.10862
 C439 C 1.18239 0.17260 -0.16049
 C440 C 1.15023 0.13016 -0.18156
 C441 C 1.11879 0.09702 -0.14877
 C442 C 1.11622 0.10907 -0.09622
 C443 C 1.08844 0.05478 -0.17007
 N444 N 1.08850 0.04707 -0.22107
 N445 N 1.11601 0.07931 -0.25217
 C446 C 1.14608 0.12083 -0.23439
 H447 H 1.13915 0.16558 -0.03742
 H448 H 1.19143 0.22158 -0.09133
 H449 H 1.06367 0.02856 -0.14695
 H450 H 1.16465 0.14688 -0.26221
 C451 C 1.14268 0.64552 0.41573
 C452 C 1.17323 0.67927 0.38571
 C453 C 1.18494 0.66606 0.33463
 C454 C 1.15725 0.62108 0.31236
 C455 C 1.12655 0.58577 0.34383
 C456 C 1.12065 0.59774 0.39615
 C457 C 1.10034 0.54151 0.32137
 N458 N 1.10377 0.53358 0.27044
 N459 N 1.13094 0.56741 0.24055
 C460 C 1.15714 0.61104 0.25955
 H461 H 1.13591 0.65742 0.45512
 H462 H 1.18626 0.71662 0.40346
 H463 H 1.07617 0.51390 0.34356
 H464 H 1.17610 0.63807 0.23276
 C465 C 0.64125 0.16020 0.42100
 C466 C 0.67074 0.19442 0.39002
 C467 C 0.66320 0.19552 0.33677
 C468 C 0.62197 0.16094 0.31556
 C469 C 0.59315 0.12495 0.34779
 C470 C 0.60311 0.12509 0.40057
 C471 C 0.55696 0.08784 0.32599
 N472 N 0.54757 0.08871 0.27515
 N473 N 0.57264 0.12355 0.24479
 C474 C 0.60917 0.15922 0.26313
 H475 H 0.64935 0.16027 0.46163
 H476 H 0.70145 0.21769 0.40904
 H477 H 0.53615 0.05796 0.34877
 H478 H 0.62795 0.18475 0.23592
 C479 C 0.65213 0.65213 -0.08758
 C480 C 0.68462 0.68429 -0.11753
 C481 C 0.69412 0.67265 -0.16963
 C482 C 0.66219 0.63025 -0.19206
 C483 C 0.62988 0.59634 -0.16045
 C484 C 0.62568 0.60736 -0.10774
 C485 C 0.60025 0.55441 -0.18314
 N486 N 0.60145 0.54764 -0.23422
 N487 N 0.62944 0.58056 -0.26423
 C488 C 0.65900 0.62180 -0.24520
 H489 H 0.64741 0.66287 -0.04769
 H490 H 0.70025 0.71990 -0.09877
 H491 H 0.57544 0.52734 -0.16108
 H492 H 0.67826 0.64811 -0.27240
 C493 C 0.91415 -0.16091 -0.13208
 C494 C 0.88596 -0.19379 -0.16623
 C495 C 0.82729 -0.18038 -0.17805
 C496 C 0.79727 -0.13112 -0.15598
 C497 C 0.82731 -0.09449 -0.12531
 C498 C 0.88575 -0.11166 -0.11022
 C499 C 0.79643 -0.04308 -0.10966
 N500 N 0.73938 -0.03170 -0.12021
 N501 N 0.71063 -0.06790 -0.14560
 C502 C 0.73741 -0.11719 -0.16347
 H503 H 0.95854 -0.17488 -0.12173
 H504 H 0.90931 -0.23223 -0.18089
 H505 H 0.81634 -0.01063 -0.09049
 H506 H 0.71169 -0.14436 -0.18421
 C507 C 0.90370 0.32720 0.37947
 C508 C 0.87341 0.29445 0.34712
 C509 C 0.82713 0.31930 0.31743
 C510 C 0.81446 0.37907 0.31755
 C511 C 0.84927 0.41296 0.34631
 C512 C 0.89034 0.38648 0.38199
 C513 C 0.84021 0.47206 0.33879
 N514 N 0.79510 0.49544 0.30997
 N515 N 0.75852 0.46371 0.28804
 C516 C 0.76645 0.40634 0.29134
 H517 H 0.93592 0.30533 0.40470
 H518 H 0.88311 0.24869 0.34845
 H519 H 0.86951 0.49982 0.35374
 H520 H 0.73490 0.38253 0.27416
 C521 C 0.41430 -0.16707 0.37757
 C522 C 0.38511 -0.20029 0.34459
 C523 C 0.32634 -0.18667 0.33373
 C524 C 0.29682 -0.13754 0.35590
 C525 C 0.32691 -0.10233 0.38779
 C526 C 0.38590 -0.11886 0.40123
 C527 C 0.29639 -0.05155 0.40458
 N528 N 0.23952 -0.03909 0.39370
 N529 N 0.21071 -0.07383 0.36656
 C530 C 0.23728 -0.12264 0.34748
 H531 H 0.45903 -0.18105 0.38659
 H532 H 0.40792 -0.23904 0.33029
 H533 H 0.31707 -0.02068 0.42479
 H534 H 0.21176 -0.14865 0.32502
 C535 C 0.32119 0.38321 -0.09904
 C536 C 0.29302 0.34592 -0.12789
 C537 C 0.31735 0.32098 -0.17256
 C538 C 0.37126 0.33743 -0.18911
 C539 C 0.39922 0.37699 -0.15979
 C540 C 0.37484 0.39791 -0.11350
 C541 C 0.45183 0.39322 -0.17702
 N542 N 0.47660 0.36921 -0.21924
 N543 N 0.45254 0.32968 -0.24490
 C544 C 0.40130 0.31251 -0.23101
 H545 H 0.30192 0.39882 -0.06372
 H546 H 0.25139 0.33614 -0.11448
 H547 H 0.47322 0.42496 -0.15740
 H548 H 0.38584 0.27846 -0.25204
 C549 C 1.12866 -0.17966 0.12424
 C550 C 1.15623 -0.21116 0.16409
 C551 C 1.19623 -0.18842 0.19587
 C552 C 1.20951 -0.13234 0.18589
 C553 C 1.18269 -0.10037 0.14407
 C554 C 1.14018 -0.12400 0.11362
 C555 C 1.20048 -0.04620 0.13442
 N556 N 1.23879 -0.02476 0.16574
 N557 N 1.26143 -0.05365 0.20596
 C558 C 1.24814 -0.10643 0.21697
 H559 H 1.09719 -0.19912 0.10180
 H560 H 1.14588 -0.25410 0.17023
 H561 H 1.18612 -0.02037 0.10219
 H562 H 1.26804 -0.12719 0.24996
 C563 C 1.10428 0.33431 0.63863
 C564 C 1.13009 0.30481 0.68004
 C565 C 1.17518 0.32540 0.70731
 C566 C 1.19047 0.37996 0.69508
 C567 C 1.16554 0.40995 0.65160
 C568 C 1.12184 0.38610 0.62262
 C569 C 1.18633 0.46216 0.63923
 N570 N 1.22497 0.48395 0.67007
 N571 N 1.24501 0.45734 0.71237
 C572 C 1.22894 0.40629 0.72594
 H573 H 1.07045 0.31572 0.61843
 H574 H 1.11602 0.26397 0.68929
 H575 H 1.17367 0.48643 0.60565
 H576 H 1.24538 0.38747 0.76135
 C577 C 0.61544 -0.17229 0.63489
 C578 C 0.64396 -0.20029 0.67602
 C579 C 0.69205 -0.17999 0.69958
 C580 C 0.70929 -0.12771 0.68118
 C581 C 0.68171 -0.10050 0.63729
 C582 C 0.63319 -0.12258 0.61440
 C583 C 0.70339 -0.05134 0.61886
 N584 N 0.74603 -0.02866 0.64399
 N585 N 0.76904 -0.05195 0.68663
 C586 C 0.75194 -0.10029 0.70608
 H587 H 0.57966 -0.19097 0.61785
 H588 H 0.62955 -0.24037 0.68728
 H589 H 0.68759 -0.03046 0.58492
 H590 H 0.77135 -0.11588 0.74121
 C591 C 0.66968 0.39700 0.12928
 C592 C 0.70108 0.36718 0.16834
 C593 C 0.69374 0.31055 0.17874
 C594 C 0.65808 0.28258 0.14598
 C595 C 0.62160 0.31374 0.11008
 C596 C 0.62874 0.37165 0.10012
 C597 C 0.57874 0.28526 0.08676
 N598 N 0.57877 0.22844 0.09286
 N599 N 0.61826 0.19822 0.12163
 C600 C 0.65796 0.22365 0.14816
 H601 H 0.67718 0.44066 0.12228
 H602 H 0.73060 0.38898 0.19057
 H603 H 0.54389 0.30730 0.06576
 H604 H 0.68944 0.19813 0.17068
 C605 C 0.89102 0.14508 0.14229
 C606 C 0.86266 0.17492 0.18189
 C607 C 0.81023 0.16028 0.20084
 C608 C 0.78678 0.11203 0.17914
 C609 C 0.81713 0.08036 0.13978
 C610 C 0.86929 0.09806 0.12046
 C611 C 0.79274 0.03298 0.12006
 N612 N 0.74195 0.01873 0.13740
 N613 N 0.71269 0.04908 0.17261
 C614 C 0.73285 0.09494 0.19340
 H615 H 0.93090 0.15897 0.12860
 H616 H 0.88216 0.21029 0.19770
 H617 H 0.81275 0.00583 0.09174
 H618 H 0.70441 0.11780 0.21907
 C619 C 0.87966 0.59750 0.65631
 C620 C 0.85856 0.63182 0.69626
 C621 C 0.82786 0.68611 0.68816
 C622 C 0.82086 0.70603 0.63621
 C623 C 0.83932 0.66888 0.59557
 C624 C 0.87030 0.61514 0.60596
 C625 C 0.82456 0.68590 0.54506
 N626 N 0.79698 0.73802 0.53527
 N627 N 0.78290 0.77418 0.57255
 C628 C 0.79390 0.76003 0.62200
 H629 H 0.90424 0.55699 0.66492
 H630 H 0.86704 0.61549 0.73456
 H631 H 0.83344 0.65800 0.51316
 H632 H 0.78259 0.79223 0.64843
 C633 C 0.40691 0.13756 0.65898
 C634 C 0.37637 0.16504 0.69894
 C635 C 0.31869 0.18751 0.69239
 C636 C 0.29191 0.18361 0.64417
 C637 C 0.32407 0.15958 0.60264
 C638 C 0.38094 0.13290 0.61102
 C639 C 0.29796 0.16368 0.55402
 N640 N 0.24179 0.18480 0.54871
 N641 N 0.21015 0.20239 0.58864
 C642 C 0.23332 0.20211 0.63611
 H643 H 0.45058 0.11825 0.66606
 H644 H 0.39723 0.16696 0.73576
 H645 H 0.32177 0.15179 0.52005
 H646 H 0.20572 0.21519 0.66727
 C647 C 0.33281 0.60473 0.12750
 C648 C 0.30647 0.63021 0.16994
 C649 C 0.33231 0.67113 0.19768
 C650 C 0.38586 0.68695 0.18124
 C651 C 0.41065 0.66439 0.13539
 C652 C 0.38478 0.62086 0.10922
 C653 C 0.46097 0.68592 0.11852
 N654 N 0.48689 0.72322 0.14709
 N655 N 0.46581 0.74087 0.19176
 C656 C 0.41640 0.72371 0.20987
 H657 H 0.31156 0.57256 0.10813
 H658 H 0.26504 0.61772 0.18091
 H659 H 0.48001 0.67438 0.08307
 H660 H 0.40194 0.73839 0.24669
   
