data_POSCAR
  _audit_creation_date              2014-09-24
  _audit_creation_method            'ToBaCCo'
  _symmetry_space_group_name_H-M    'P1'
  _symmetry_Int_Tables_number       1
  _symmetry_cell_setting            triclinic
  loop_
  _symmetry_equiv_pos_as_xyz
 x,y,z
_cell_length_a 43.8242
_cell_length_b 45.4291
_cell_length_c 43.7200
_cell_angle_alpha 90.789900
_cell_angle_beta 88.023000
_cell_angle_gamma 92.080100
loop_
  _atom_site_label
  _atom_site_type_symbol
  _atom_site_fract_x
  _atom_site_fract_y
  _atom_site_fract_z
N1 N 0.15126 0.22277 0.25743
 N2 N 0.14559 0.19718 0.27052
 C3 C 0.11699 0.19670 0.28304
 C4 C 0.10412 0.22323 0.27668
 C5 C 0.12646 0.23917 0.26045
 H6 H 0.10599 0.17804 0.29458
 H7 H 0.12473 0.26098 0.25120
 Cu8 Cu 0.17558 0.16635 0.26758
 Cu9 Cu 0.19005 0.23253 0.23678
 Cu10 Cu 0.22359 0.17510 0.20309
 N11 N 0.20105 0.13478 0.25075
 N12 N 0.21941 0.13819 0.22635
 C13 C 0.23564 0.11379 0.22213
 C14 C 0.22671 0.09402 0.24467
 C15 C 0.20462 0.10788 0.26232
 H16 H 0.25329 0.11097 0.20453
 H17 H 0.19304 0.09956 0.28284
 N18 N 0.23336 0.21540 0.19060
 N19 N 0.22178 0.23801 0.20538
 C20 C 0.23161 0.26304 0.19165
 C21 C 0.24978 0.25563 0.16652
 C22 C 0.25037 0.22522 0.16636
 H23 H 0.22391 0.28475 0.19783
 H24 H 0.26138 0.21130 0.14935
 H25 H 0.18099 0.18060 0.22449
 H26 H 0.21546 0.18739 0.24795
 N27 N 0.66889 0.71261 0.74079
 N28 N 0.66596 0.68410 0.74531
 C29 C 0.64085 0.67844 0.76316
 C30 C 0.62739 0.70489 0.76990
 C31 C 0.64580 0.72614 0.75549
 H32 H 0.63289 0.65678 0.77052
 H33 H 0.64270 0.74966 0.75563
 Cu34 Cu 0.69589 0.65763 0.72798
 Cu35 Cu 0.70250 0.72973 0.71620
 Cu36 Cu 0.73779 0.68043 0.66648
 N37 N 0.72695 0.63340 0.70917
 N38 N 0.74444 0.64251 0.68585
 C39 C 0.76421 0.62130 0.67811
 C40 C 0.75837 0.59787 0.69764
 C41 C 0.73461 0.60619 0.71682
 H42 H 0.78086 0.62251 0.65928
 H43 H 0.72380 0.59331 0.73507
 N44 N 0.73655 0.72321 0.65839
 N45 N 0.72539 0.74190 0.67892
 C46 C 0.72625 0.76904 0.66714
 C47 C 0.73781 0.76750 0.63749
 C48 C 0.74429 0.73811 0.63257
 H49 H 0.71631 0.78798 0.67831
 H50 H 0.75264 0.72816 0.61143
 H51 H 0.69708 0.69400 0.68769
 H52 H 0.73306 0.69536 0.70939
 N53 N 0.39728 0.81425 0.70614
 N54 N 0.38934 0.83866 0.72020
 C55 C 0.41085 0.84743 0.73974
 C56 C 0.43353 0.82724 0.73842
 C57 C 0.42429 0.80628 0.71687
 H58 H 0.40924 0.86625 0.75502
 H59 H 0.43582 0.78641 0.71025
 Cu60 Cu 0.35037 0.85510 0.71451
 Cu61 Cu 0.37062 0.79519 0.67589
 Cu62 Cu 0.29972 0.82706 0.66616
 N63 N 0.31828 0.87836 0.70021
 N64 N 0.29642 0.86717 0.68333
 C65 C 0.27468 0.88741 0.68125
 C66 C 0.28435 0.91266 0.69712
 C67 C 0.31223 0.90607 0.70836
 H68 H 0.25363 0.88402 0.66926
 H69 H 0.32637 0.91967 0.72307
 N70 N 0.31325 0.79150 0.64306
 N71 N 0.34009 0.77977 0.64668
 C72 C 0.34264 0.75635 0.62771
 C73 C 0.31636 0.75311 0.61127
 C74 C 0.29817 0.77576 0.62152
 H75 H 0.36224 0.74260 0.62595
 H76 H 0.27571 0.78045 0.61377
 H77 H 0.34650 0.83223 0.66449
 H78 H 0.32980 0.80773 0.69478
 N79 N 0.85240 0.29160 0.22110
 N80 N 0.83899 0.31373 0.23501
 C81 C 0.84962 0.31679 0.26350
 C82 C 0.87095 0.29553 0.26743
 C83 C 0.87219 0.28001 0.24003
 H84 H 0.84263 0.33340 0.27998
 H85 H 0.88604 0.26133 0.23444
 Cu86 Cu 0.80953 0.33688 0.21426
 Cu87 Cu 0.84161 0.27784 0.18051
 Cu88 Cu 0.78967 0.31812 0.14240
 N89 N 0.78287 0.36095 0.19097
 N90 N 0.77527 0.35350 0.16300
 C91 C 0.75614 0.37333 0.15267
 C92 C 0.75149 0.39435 0.17534
 C93 C 0.76883 0.38588 0.19933
 H94 H 0.74585 0.37219 0.13054
 H95 H 0.77049 0.39671 0.22141
 N96 N 0.80701 0.28173 0.12532
 N97 N 0.82766 0.26703 0.13946
 C98 C 0.83461 0.24301 0.12261
 C99 C 0.81732 0.24242 0.09681
 C100 C 0.80007 0.26727 0.09918
 H101 H 0.85006 0.22641 0.12926
 H102 H 0.78320 0.27387 0.08340
 H103 H 0.83001 0.31885 0.16527
 H104 H 0.79812 0.29447 0.18109
 N105 N 0.82087 0.73057 0.29098
 N106 N 0.81995 0.70789 0.27172
 C107 C 0.84557 0.70904 0.25358
 C108 C 0.86324 0.73354 0.26209
 C109 C 0.84683 0.74657 0.28571
 H110 H 0.85136 0.69288 0.23614
 H111 H 0.85361 0.76610 0.29848
 Cu112 Cu 0.78614 0.67744 0.27294
 Cu113 Cu 0.78933 0.73791 0.32298
 Cu114 Cu 0.73114 0.68876 0.32650
 N115 N 0.75620 0.64612 0.28503
 N116 N 0.73556 0.65065 0.30698
 C117 C 0.71833 0.62597 0.31141
 C118 C 0.72814 0.60480 0.29080
 C119 C 0.75218 0.61829 0.27416
 H120 H 0.69930 0.62392 0.32775
 H121 H 0.76562 0.60867 0.25564
 N122 N 0.73309 0.72177 0.35485
 N123 N 0.75582 0.74139 0.35305
 C124 C 0.75267 0.76112 0.37607
 C125 C 0.72676 0.75316 0.39337
 C126 C 0.71486 0.72807 0.37929
 H127 H 0.76883 0.77902 0.38081
 H128 H 0.69509 0.71482 0.38682
 H129 H 0.78594 0.69222 0.31718
 H130 H 0.76579 0.71508 0.28986
 N131 N 0.35507 0.21145 -0.20432
 N132 N 0.34992 0.18581 -0.21817
 C133 C 0.37393 0.17988 -0.23686
 C134 C 0.39518 0.20302 -0.23512
 C135 C 0.38254 0.22273 -0.21418
 H136 H 0.37506 0.16075 -0.25176
 H137 H 0.39241 0.24370 -0.20678
 Cu138 Cu 0.31091 0.16291 -0.21469
 Cu139 Cu 0.32578 0.22757 -0.17364
 Cu140 Cu 0.25747 0.19189 -0.16898
 N141 N 0.26782 0.15187 -0.21831
 N142 N 0.24654 0.16347 -0.20053
 C143 C 0.21932 0.15023 -0.20635
 C144 C 0.22396 0.12903 -0.22889
 C145 C 0.25500 0.13069 -0.23593
 H146 H 0.19818 0.15446 -0.19385
 H147 H 0.26758 0.11670 -0.25169
 N148 N 0.27417 0.21258 -0.13394
 N149 N 0.29994 0.22832 -0.13606
 C150 C 0.30511 0.24136 -0.10872
 C151 C 0.28170 0.23250 -0.08845
 C152 C 0.26255 0.21426 -0.10516
 H153 H 0.32499 0.25516 -0.10367
 H154 H 0.24157 0.20323 -0.09707
 H155 H 0.31245 0.18491 -0.17290
 H156 H 0.29854 0.20498 -0.20627
 N157 N 0.63875 0.31218 -0.19353
 N158 N 0.64642 0.33902 -0.20246
 C159 C 0.62524 0.34823 -0.22144
 C160 C 0.60325 0.32577 -0.22461
 C161 C 0.61248 0.30332 -0.20639
 H162 H 0.62661 0.36904 -0.23322
 H163 H 0.60175 0.28164 -0.20378
 Cu164 Cu 0.68509 0.35787 -0.19132
 Cu165 Cu 0.66496 0.28948 -0.16875
 Cu166 Cu 0.72830 0.32668 -0.13954
 N167 N 0.72772 0.37006 -0.18661
 N168 N 0.74470 0.35807 -0.16627
 C169 C 0.77265 0.37154 -0.16721
 C170 C 0.77312 0.39300 -0.18946
 C171 C 0.74424 0.39140 -0.20128
 H172 H 0.79109 0.36626 -0.15264
 H173 H 0.73573 0.40501 -0.21896
 N174 N 0.71278 0.28803 -0.12422
 N175 N 0.68879 0.27400 -0.13570
 C176 C 0.68352 0.24853 -0.12085
 C177 C 0.70533 0.24618 -0.09910
 C178 C 0.72369 0.27154 -0.10188
 H179 H 0.66515 0.23280 -0.12559
 H180 H 0.74355 0.27743 -0.08879
 H181 H 0.68098 0.32644 -0.14616
 H182 H 0.70715 0.31179 -0.17685
 N183 N 0.13389 0.78919 0.29554
 N184 N 0.14879 0.80699 0.27634
 C185 C 0.13541 0.80557 0.24914
 C186 C 0.11051 0.78613 0.25146
 C187 C 0.11003 0.77620 0.28130
 H188 H 0.14304 0.81809 0.22927
 H189 H 0.09388 0.76044 0.29170
 Cu190 Cu 0.18362 0.83131 0.28863
 Cu191 Cu 0.14747 0.78443 0.33722
 Cu192 Cu 0.22247 0.80921 0.34836
 N193 N 0.22484 0.84594 0.29551
 N194 N 0.24071 0.83603 0.31790
 C195 C 0.26840 0.84993 0.31750
 C196 C 0.26961 0.86998 0.29388
 C197 C 0.24160 0.86675 0.28032
 H198 H 0.28556 0.84695 0.33427
 H199 H 0.23372 0.87899 0.26126
 N200 N 0.19961 0.78250 0.37674
 N201 N 0.17096 0.77356 0.37289
 C202 C 0.16201 0.75548 0.39593
 C203 C 0.18613 0.75313 0.41522
 C204 C 0.20953 0.77055 0.40243
 H205 H 0.13989 0.74421 0.39801
 H206 H 0.23232 0.77371 0.41089
 H207 H 0.17802 0.82021 0.34345
 H208 H 0.19117 0.78847 0.31967
 N209 N 0.46246 0.38289 0.46444
 N210 N 0.44344 0.39675 0.48299
 C211 C 0.43757 0.38051 0.50809
 C212 C 0.45424 0.35535 0.50542
 C213 C 0.46997 0.35754 0.47749
 H214 H 0.42335 0.38719 0.52749
 H215 H 0.48586 0.34211 0.46758
 Cu216 Cu 0.43095 0.43625 0.47461
 Cu217 Cu 0.47625 0.40001 0.42547
 Cu218 Cu 0.42752 0.45290 0.40041
 N219 N 0.41067 0.47081 0.46164
 N220 N 0.40733 0.47633 0.43252
 C221 C 0.38930 0.49960 0.43025
 C222 C 0.38183 0.50943 0.45959
 C223 C 0.39586 0.49080 0.47888
 H224 H 0.38249 0.50886 0.40898
 H225 H 0.39425 0.49105 0.50363
 N226 N 0.45859 0.43403 0.37338
 N227 N 0.47687 0.41387 0.38302
 C228 C 0.49671 0.40678 0.36019
 C229 C 0.49110 0.42363 0.33510
 C230 C 0.46680 0.44071 0.34420
 H231 H 0.51502 0.39169 0.36226
 H232 H 0.45679 0.45765 0.33104
 H233 H 0.46261 0.44414 0.42829
 H234 H 0.43329 0.41370 0.42372
 N235 N -0.04631 -0.14749 0.96299
 N236 N -0.07255 -0.13789 0.97387
 C237 C -0.08465 -0.15723 0.99437
 C238 C -0.06485 -0.18005 0.99672
 C239 C -0.04070 -0.17317 0.97648
 H240 H -0.10560 -0.15422 1.00765
 H241 H -0.02013 -0.18534 0.97263
 Cu242 Cu -0.08628 -0.09921 0.96305
 Cu243 Cu -0.02049 -0.12436 0.93398
 Cu244 Cu -0.05945 -0.07041 0.89742
 N245 N -0.10032 -0.06158 0.94919
 N246 N -0.08863 -0.04991 0.92384
 C247 C -0.10063 -0.02346 0.91987
 C248 C -0.12101 -0.01830 0.94397
 C249 C -0.12046 -0.04299 0.96212
 H250 H -0.09502 -0.00915 0.90076
 H251 H -0.13320 -0.04674 0.98342
 N252 N -0.02093 -0.08612 0.88108
 N253 N -0.00507 -0.10535 0.89568
 C254 C 0.02149 -0.10937 0.87989
 C255 C 0.02207 -0.09194 0.85412
 C256 C -0.00517 -0.07761 0.85559
 H257 H 0.03907 -0.12382 0.88664
 H258 H -0.01243 -0.06125 0.83992
 H259 H -0.03916 -0.08254 0.93611
 H260 H -0.05961 -0.11311 0.91549
 N261 N 1.01899 0.57217 0.98506
 N262 N 1.03722 0.56196 1.00539
 C263 C 1.04202 0.58254 1.02718
 C264 C 1.02574 0.60694 1.02041
 C265 C 1.01107 0.59960 0.99364
 H266 H 1.05655 0.57998 1.04640
 H267 H 0.99684 0.61354 0.98074
 Cu268 Cu 1.05414 0.52311 1.00144
 Cu269 Cu 1.01007 0.54936 0.94783
 Cu270 Cu 1.07117 0.50516 0.92890
 N271 N 1.08073 0.49094 0.99144
 N272 N 1.08895 0.48522 0.96283
 C273 C 1.11048 0.46481 0.96219
 C274 C 1.11536 0.45688 0.99199
 C275 C 1.09603 0.47376 1.01001
 H276 H 1.12172 0.45641 0.94163
 H277 H 1.09445 0.47462 1.03475
 N278 N 1.04133 0.51730 0.89912
 N279 N 1.01714 0.53279 0.90642
 C280 C 1.00041 0.53555 0.88136
 C281 C 1.01500 0.52116 0.85722
 C282 C 1.04075 0.50990 0.86929
 H283 H 0.97958 0.54755 0.88065
 H284 H 1.05761 0.49680 0.85736
 H285 H 1.03082 0.50827 0.95355
 H286 H 1.05480 0.54287 0.94973
 N287 N 0.56190 0.13855 0.46615
 N288 N 0.58377 0.12591 0.48067
 C289 C 0.59032 0.14220 0.50575
 C290 C 0.57145 0.16597 0.50709
 C291 C 0.55377 0.16298 0.48163
 H292 H 0.60692 0.13671 0.52229
 H293 H 0.53572 0.17708 0.47531
 Cu294 Cu 0.60116 0.08834 0.46662
 Cu295 Cu 0.54366 0.12171 0.42913
 Cu296 Cu 0.57595 0.06142 0.39961
 N297 N 0.62009 0.05519 0.44556
 N298 N 0.61000 0.04446 0.41956
 C299 C 0.62526 0.02013 0.41178
 C300 C 0.64610 0.01543 0.43406
 C301 C 0.64232 0.03815 0.45510
 H302 H 0.62073 0.00630 0.39201
 H303 H 0.65383 0.04126 0.47644
 N304 N 0.53552 0.07262 0.38827
 N305 N 0.52233 0.09552 0.40091
 C306 C 0.49446 0.09796 0.38938
 C307 C 0.49021 0.07552 0.36817
 C308 C 0.51669 0.05989 0.36791
 H309 H 0.47892 0.11527 0.39531
 H310 H 0.52182 0.04070 0.35402
 H311 H 0.55842 0.08437 0.44733
 H312 H 0.58883 0.10733 0.42716
 N313 N -0.01012 0.07966 0.53095
 N314 N -0.03188 0.07845 0.51071
 C315 C -0.03027 0.10336 0.49425
 C316 C -0.00639 0.12107 0.50470
 C317 C 0.00592 0.10533 0.52783
 H318 H -0.04599 0.10866 0.47678
 H319 H 0.02480 0.11234 0.54178
 Cu320 Cu -0.06262 0.04561 0.50848
 Cu321 Cu -0.00416 0.04815 0.56085
 Cu322 Cu -0.04993 -0.01117 0.55325
 N323 N -0.09572 0.01777 0.52127
 N324 N -0.09032 -0.00365 0.54003
 C325 C -0.11654 -0.01818 0.54771
 C326 C -0.13970 -0.00566 0.53259
 C327 C -0.12586 0.01696 0.51558
 H328 H -0.11853 -0.03669 0.56305
 H329 H -0.13691 0.03223 0.50116
 N330 N -0.01477 -0.01203 0.57823
 N331 N 0.00298 0.01152 0.58227
 C332 C 0.02256 0.00611 0.60449
 C333 C 0.01639 -0.02233 0.61477
 C334 C -0.00725 -0.03319 0.59741
 H335 H 0.03874 0.02215 0.61370
 H336 H -0.01962 -0.05408 0.60001
 H337 H -0.02227 0.02708 0.52343
 H338 H -0.05027 0.04220 0.55197
 N339 N 0.44653 0.60388 0.01586
 N340 N 0.43798 0.58849 -0.00823
 C341 C 0.43632 0.60630 -0.03223
 C342 C 0.44412 0.63452 -0.02279
 C343 C 0.45077 0.63235 0.00785
 H344 H 0.42870 0.59928 -0.05452
 H345 H 0.45712 0.65015 0.02331
 Cu346 Cu 0.42492 0.54784 -0.00556
 Cu347 Cu 0.44892 0.58535 0.05574
 Cu348 Cu 0.42853 0.51072 0.05950
 N349 N 0.39864 0.51384 0.00248
 N350 N 0.39906 0.49926 0.02821
 C351 C 0.37614 0.47857 0.02837
 C352 C 0.36059 0.48095 0.00140
 C353 C 0.37564 0.50337 -0.01442
 H354 H 0.37027 0.46406 0.04725
 H355 H 0.36948 0.51249 -0.03599
 N356 N 0.45068 0.53201 0.09223
 N357 N 0.45798 0.56046 0.09083
 C358 C 0.47557 0.56802 0.11449
 C359 C 0.47966 0.54322 0.13159
 C360 C 0.46342 0.52076 0.11695
 H361 H 0.48627 0.58959 0.11784
 H362 H 0.46254 0.49768 0.12276
 H363 H 0.45694 0.54366 0.03832
 H364 H 0.41642 0.55144 0.04944
 N365 N 0.50378 -0.08246 0.03519
 N366 N 0.52853 -0.08656 0.01806
 C367 C 0.52416 -0.11066 0.00031
 C368 C 0.49523 -0.12241 0.00693
 C369 C 0.48287 -0.10402 0.02915
 H370 H 0.54100 -0.11937 -0.01572
 H371 H 0.46054 -0.10632 0.04033
 Cu372 Cu 0.56465 -0.06107 0.02154
 Cu373 Cu 0.50105 -0.05009 0.06466
 Cu374 Cu 0.56429 -0.00190 0.06802
 N375 N 0.59552 -0.02960 0.01739
 N376 N 0.59571 -0.00634 0.03561
 C377 C 0.62101 0.01055 0.02906
 C378 C 0.63734 -0.00300 0.00543
 C379 C 0.62039 -0.02829 -0.00144
 H380 H 0.62755 0.03056 0.04122
 H381 H 0.62623 -0.04508 -0.01818
 N382 N 0.52687 0.00256 0.09404
 N383 N 0.50301 -0.01601 0.09295
 C384 C 0.48220 -0.00844 0.11477
 C385 C 0.49340 0.01612 0.13018
 C386 C 0.52166 0.02264 0.11640
 H387 H 0.46084 -0.02036 0.11971
 H388 H 0.53772 0.04001 0.12298
 H389 H 0.53223 -0.02243 0.04116
 H390 H 0.54668 -0.04483 0.07260
 N391 N 1.00353 0.42691 0.50826
 N392 N 1.02824 0.42201 0.49130
 C393 C 1.02685 0.39401 0.48080
 C394 C 1.00010 0.38064 0.49231
 C395 C 0.98586 0.40209 0.50967
 H396 H 1.04482 0.38358 0.46752
 H397 H 0.96477 0.39956 0.52312
 Cu398 Cu 1.06232 0.45081 0.48869
 Cu399 Cu 0.99793 0.46444 0.52894
 Cu400 Cu 1.04978 0.51992 0.52045
 N401 N 1.09148 0.48466 0.48323
 N402 N 1.08662 0.51089 0.49547
 C403 C 1.11157 0.52854 0.49034
 C404 C 1.13307 0.51271 0.47394
 C405 C 1.11954 0.48508 0.46960
 H406 H 1.11437 0.55082 0.49908
 H407 H 1.13000 0.46628 0.45872
 N408 N 1.01894 0.51964 0.55364
 N409 N 0.99874 0.49774 0.55716
 C410 C 0.98179 0.50228 0.58293
 C411 C 0.99194 0.52849 0.59621
 C412 C 1.01542 0.53901 0.57694
 H413 H 0.96438 0.48701 0.59202
 H414 H 1.02989 0.55850 0.58032
 H415 H 1.03478 0.48581 0.49098
 H416 H 1.05242 0.47621 0.52752
 C417 C 0.34986 -0.02353 0.25765
 C418 C 0.35349 0.00657 0.25114
 C419 C 0.32768 0.02359 0.24835
 C420 C 0.29820 0.01072 0.25225
 C421 C 0.29491 -0.01954 0.25797
 C422 C 0.32053 -0.03678 0.26115
 C423 C 0.38402 0.02107 0.25198
 C424 C 0.40318 0.02294 0.22560
 C425 C 0.43241 0.03669 0.22707
 C426 C 0.44240 0.04764 0.25533
 C427 C 0.42344 0.04569 0.28174
 C428 C 0.39410 0.03275 0.27986
 H429 H 0.36986 -0.03633 0.26086
 H430 H 0.33072 0.04710 0.24489
 H431 H 0.39517 0.01409 0.20406
 H432 H 0.37935 0.03096 0.30022
 H433 H 0.27224 -0.02941 0.26135
 H434 H 0.46510 0.05763 0.25694
 C435 C 0.17745 -0.02820 0.71954
 C436 C 0.15079 -0.01368 0.72826
 C437 C 0.15205 0.01662 0.73498
 C438 C 0.17996 0.03280 0.73288
 C439 C 0.20621 0.01812 0.72281
 C440 C 0.20548 -0.01239 0.71712
 C441 C 0.12145 -0.03022 0.73100
 C442 C 0.11291 -0.04489 0.75814
 C443 C 0.08411 -0.05929 0.76128
 C444 C 0.06439 -0.05957 0.73660
 C445 C 0.07310 -0.04544 0.70910
 C446 C 0.10157 -0.03044 0.70665
 H447 H 0.17634 -0.05178 0.71553
 H448 H 0.13122 0.02715 0.74220
 H449 H 0.12826 -0.04416 0.77707
 H450 H 0.10859 -0.01925 0.68570
 H451 H 0.22771 0.03023 0.72015
 H452 H 0.04217 -0.07068 0.73893
 C453 C 0.65011 0.47345 0.20571
 C454 C 0.63210 0.49148 0.22456
 C455 C 0.64609 0.51185 0.24434
 C456 C 0.67805 0.51447 0.24536
 C457 C 0.69608 0.49622 0.22653
 C458 C 0.68212 0.47546 0.20678
 C459 C 0.59858 0.48802 0.22491
 C460 C 0.58379 0.46664 0.24341
 C461 C 0.55175 0.46412 0.24535
 C462 C 0.53457 0.48266 0.22770
 C463 C 0.54931 0.50398 0.20883
 C464 C 0.58134 0.50680 0.20788
 H465 H 0.63909 0.45719 0.19101
 H466 H 0.63200 0.52561 0.25905
 H467 H 0.59736 0.45283 0.25722
 H468 H 0.59294 0.52331 0.19358
 H469 H 0.72075 0.49780 0.22764
 H470 H 0.50984 0.48083 0.22898
 C471 C 0.86715 0.48474 0.75876
 C472 C 0.87664 0.50942 0.74123
 C473 C 0.85456 0.52545 0.72663
 C474 C 0.82357 0.51673 0.72879
 C475 C 0.81457 0.49212 0.74642
 C476 C 0.83606 0.47596 0.76165
 C477 C 0.90961 0.51805 0.73724
 C478 C 0.92154 0.52676 0.70829
 C479 C 0.95244 0.53523 0.70418
 C480 C 0.97176 0.53420 0.72887
 C481 C 0.96071 0.52449 0.75756
 C482 C 0.92947 0.51704 0.76190
 H483 H 0.88416 0.47197 0.76936
 H484 H 0.86153 0.54465 0.71336
 H485 H 0.90688 0.52683 0.68884
 H486 H 0.92084 0.50985 0.78419
 H487 H 0.79055 0.48612 0.74904
 H488 H 0.99581 0.54013 0.72544
 C489 C 0.26367 0.31590 0.00236
 C490 C 0.25790 0.33770 0.02447
 C491 C 0.25975 0.33141 0.05550
 C492 C 0.26706 0.30317 0.06486
 C493 C 0.27188 0.28105 0.04252
 C494 C 0.27026 0.28732 0.01121
 C495 C 0.24986 0.36724 0.01521
 C496 C 0.21924 0.37523 0.01557
 C497 C 0.21170 0.40345 0.00632
 C498 C 0.23512 0.42359 -0.00304
 C499 C 0.26584 0.41607 -0.00200
 C500 C 0.27306 0.38777 0.00692
 H501 H 0.26185 0.32100 -0.02164
 H502 H 0.25483 0.34858 0.07217
 H503 H 0.20139 0.35944 0.02280
 H504 H 0.29673 0.38167 0.00745
 H505 H 0.27717 0.25906 0.04940
 H506 H 0.22954 0.44568 -0.00940
 C507 C 0.74491 0.14216 -0.02798
 C508 C 0.76416 0.12639 -0.00980
 C509 C 0.78263 0.14160 0.01116
 C510 C 0.78190 0.17243 0.01419
 C511 C 0.76300 0.18801 -0.00475
 C512 C 0.74449 0.17301 -0.02591
 C513 C 0.76591 0.09411 -0.01379
 C514 C 0.79414 0.08169 -0.02119
 C515 C 0.79598 0.05134 -0.02699
 C516 C 0.76930 0.03338 -0.02479
 C517 C 0.74082 0.04548 -0.01770
 C518 C 0.73930 0.07590 -0.01207
 H519 H 0.73127 0.13036 -0.04466
 H520 H 0.79691 0.12915 0.02557
 H521 H 0.81454 0.09584 -0.02304
 H522 H 0.71742 0.08556 -0.00703
 H523 H 0.76260 0.21179 -0.00300
 H524 H 0.77063 0.00998 -0.02935
 C525 C 0.23016 0.65967 0.48739
 C526 C 0.25214 0.64315 0.50129
 C527 C 0.27054 0.65692 0.52342
 C528 C 0.26798 0.68702 0.53084
 C529 C 0.24621 0.70330 0.51609
 C530 C 0.22715 0.68958 0.49457
 C531 C 0.25692 0.61209 0.49140
 C532 C 0.28659 0.60139 0.48854
 C533 C 0.29151 0.57262 0.47798
 C534 C 0.26646 0.55441 0.46987
 C535 C 0.23653 0.56444 0.47291
 C536 C 0.23201 0.59329 0.48378
 H537 H 0.21637 0.64972 0.46965
 H538 H 0.28675 0.64400 0.53503
 H539 H 0.30606 0.61568 0.49387
 H540 H 0.20906 0.60119 0.48636
 H541 H 0.24430 0.72662 0.52096
 H542 H 0.27032 0.53195 0.46263
 C543 C 0.72426 0.84562 0.48101
 C544 C 0.73076 0.86660 0.50398
 C545 C 0.73341 0.85709 0.53425
 C546 C 0.72974 0.82717 0.54179
 C547 C 0.72266 0.80665 0.51858
 C548 C 0.72000 0.81570 0.48826
 C549 C 0.73530 0.89842 0.49673
 C550 C 0.71621 0.91243 0.47663
 C551 C 0.71945 0.94302 0.47185
 C552 C 0.74258 0.95941 0.48662
 C553 C 0.76165 0.94563 0.50654
 C554 C 0.75807 0.91531 0.51134
 H555 H 0.72257 0.85251 0.45752
 H556 H 0.73850 0.87321 0.55191
 H557 H 0.69787 0.89985 0.46603
 H558 H 0.77334 0.90481 0.52645
 H559 H 0.71955 0.78353 0.52391
 H560 H 0.74532 0.98295 0.48322
 C561 C -0.04644 0.25763 0.36729
 C562 C -0.01941 0.24654 0.37819
 C563 C 0.00419 0.23885 0.35738
 C564 C 0.00116 0.24297 0.32584
 C565 C -0.02644 0.25310 0.31529
 C566 C -0.05021 0.26085 0.33582
 C567 C -0.01443 0.24687 0.41142
 C568 C -0.00842 0.22098 0.42705
 C569 C -0.00372 0.22204 0.45872
 C570 C -0.00554 0.24904 0.47460
 C571 C -0.01137 0.27490 0.45912
 C572 C -0.01555 0.27374 0.42755
 H573 H -0.06434 0.26406 0.38348
 H574 H 0.02561 0.23183 0.36598
 H575 H -0.00720 0.20024 0.41460
 H576 H -0.02002 0.29375 0.41550
 H577 H -0.02889 0.25629 0.29104
 H578 H -0.00229 0.24999 0.49906
 C579 C -0.04069 0.73822 0.17256
 C580 C -0.01578 0.73720 0.15159
 C581 C 0.01371 0.74466 0.16132
 C582 C 0.01860 0.75352 0.19167
 C583 C -0.00643 0.75406 0.21254
 C584 C -0.03616 0.74662 0.20317
 C585 C -0.02011 0.72929 0.11910
 C586 C -0.03867 0.74591 0.10104
 C587 C -0.03957 0.74078 0.06931
 C588 C -0.02274 0.71787 0.05587
 C589 C -0.00480 0.70049 0.07404
 C590 C -0.00341 0.70663 0.10552
 H591 H -0.06351 0.73288 0.16491
 H592 H 0.03276 0.74391 0.14492
 H593 H -0.05095 0.76398 0.11142
 H594 H 0.01047 0.69360 0.11981
 H595 H -0.00284 0.76081 0.23601
 H596 H -0.02338 0.71383 0.03141
 C597 C 0.48862 0.24508 0.67496
 C598 C 0.50834 0.26538 0.65988
 C599 C 0.52483 0.28647 0.67676
 C600 C 0.52218 0.28700 0.70884
 C601 C 0.50202 0.26671 0.72394
 C602 C 0.48501 0.24578 0.70698
 C603 C 0.51096 0.26491 0.62630
 C604 C 0.49274 0.28301 0.60965
 C605 C 0.49364 0.28185 0.57756
 C606 C 0.51346 0.26248 0.56220
 C607 C 0.53191 0.24408 0.57883
 C608 C 0.53047 0.24552 0.61098
 H609 H 0.47546 0.22926 0.66156
 H610 H 0.54037 0.30189 0.66487
 H611 H 0.47793 0.29803 0.62193
 H612 H 0.54381 0.23107 0.62428
 H613 H 0.49977 0.26708 0.74870
 H614 H 0.51421 0.26149 0.53743
 C615 C 0.49537 0.79155 0.84476
 C616 C 0.50578 0.77030 0.86443
 C617 C 0.52723 0.75023 0.85338
 C618 C 0.53791 0.75098 0.82284
 C619 C 0.52655 0.77167 0.80302
 C620 C 0.50517 0.79183 0.81388
 C621 C 0.49149 0.76640 0.89522
 C622 C 0.47905 0.73867 0.90309
 C623 C 0.46484 0.73393 0.93177
 C624 C 0.46316 0.75720 0.95303
 C625 C 0.47513 0.78539 0.94533
 C626 C 0.48931 0.78985 0.91628
 H627 H 0.47800 0.80642 0.85293
 H628 H 0.53550 0.73397 0.86868
 H629 H 0.48048 0.72062 0.88668
 H630 H 0.49851 0.81146 0.90996
 H631 H 0.53387 0.77179 0.77909
 H632 H 0.45239 0.75334 0.97535
 N633 N 0.03197 0.25742 0.27911
 N634 N 0.05916 0.25262 0.26659
 C635 C 0.07276 0.23245 0.28317
 C636 C 0.05340 0.22394 0.30746
 C637 C 0.02768 0.24053 0.30415
 H638 H 0.05795 0.20889 0.32558
 H639 H 0.01738 0.27311 0.27123
 H640 H 0.06832 0.26345 0.24726
 N641 N 0.56232 0.70204 0.82161
 N642 N 0.58584 0.68977 0.80742
 C643 C 0.59953 0.70971 0.78850
 C644 C 0.58397 0.73562 0.79038
 C645 C 0.56056 0.72987 0.81166
 H646 H 0.58935 0.75602 0.77853
 H647 H 0.54780 0.69139 0.83771
 H648 H 0.59256 0.66832 0.81112
 N649 N 0.48500 0.83975 0.79909
 N650 N 0.46601 0.84911 0.77888
 C651 C 0.45905 0.82679 0.75939
 C652 C 0.47494 0.80231 0.76707
 C653 C 0.49079 0.81142 0.79264
 H654 H 0.47239 0.78015 0.75786
 H655 H 0.49246 0.85210 0.81790
 H656 H 0.45668 0.86994 0.77971
 N657 N -0.09357 0.29529 0.33965
 N658 N -0.11518 0.30558 0.32004
 C659 C -0.11214 0.29071 0.29329
 C660 C -0.08901 0.27082 0.29521
 C661 C -0.07771 0.27453 0.32435
 H662 H -0.08072 0.25620 0.27729
 H663 H -0.08942 0.30400 0.36140
 H664 H -0.13024 0.32230 0.32549
 N665 N -0.06303 0.76852 0.24875
 N666 N -0.08942 0.76520 0.26395
 C667 C -0.10617 0.74349 0.25056
 C668 C -0.08973 0.73256 0.22547
 C669 C -0.06235 0.74907 0.22521
 H670 H -0.09653 0.71497 0.20993
 H671 H -0.04609 0.78425 0.25433
 H672 H -0.09557 0.77765 0.28330
 N673 N 0.45781 0.19702 0.71144
 N674 N 0.43230 0.18527 0.72742
 C675 C 0.42238 0.20604 0.74733
 C676 C 0.44164 0.23104 0.74510
 C677 C 0.46313 0.22464 0.72199
 H678 H 0.43886 0.25200 0.75675
 H679 H 0.46943 0.18638 0.69346
 H680 H 0.42235 0.16446 0.72314
 N681 N 0.54987 0.33526 0.71708
 N682 N 0.57296 0.34605 0.73582
 C683 C 0.57885 0.32466 0.75561
 C684 C 0.55923 0.30043 0.75069
 C685 C 0.54184 0.30776 0.72621
 H686 H 0.55936 0.27920 0.76163
 H687 H 0.54183 0.34625 0.69831
 H688 H 0.58463 0.36634 0.73306
 N689 N 0.07101 0.77571 0.18154
 N690 N 0.09491 0.78451 0.19728
 C691 C 0.08933 0.77825 0.22700
 C692 C 0.06051 0.76485 0.23040
 C693 C 0.04952 0.76374 0.20091
 H694 H 0.04900 0.75764 0.25142
 H695 H 0.06927 0.77892 0.15808
 H696 H 0.11453 0.79495 0.18770
 N697 N 0.24535 0.02278 0.27058
 N698 N 0.22669 0.04481 0.26887
 C699 C 0.23983 0.06544 0.25045
 C700 C 0.26816 0.05624 0.23996
 C701 C 0.27091 0.02904 0.25341
 H702 H 0.28480 0.06816 0.22554
 H703 H 0.24098 0.00444 0.28439
 H704 H 0.20559 0.04581 0.28062
 N705 N 0.77288 0.52201 0.70521
 N706 N 0.75597 0.54353 0.69628
 C707 C 0.77237 0.56908 0.69781
 C708 C 0.80106 0.56367 0.70836
 C709 C 0.80033 0.53346 0.71320
 H710 H 0.81853 0.57976 0.71489
 H711 H 0.76511 0.50006 0.70683
 H712 H 0.73299 0.54092 0.69084
 N713 N 0.84232 0.43753 0.80190
 N714 N 0.82577 0.41579 0.81474
 C715 C 0.79834 0.41395 0.80177
 C716 C 0.79742 0.43539 0.77969
 C717 C 0.82577 0.45007 0.78041
 H718 H 0.77856 0.43964 0.76527
 H719 H 0.86429 0.44389 0.80845
 H720 H 0.83314 0.40277 0.83235
 N721 N 0.33447 -0.08042 0.29119
 N722 N 0.31954 -0.10637 0.30123
 C723 C 0.29271 -0.10892 0.28710
 C724 C 0.29019 -0.08537 0.26763
 C725 C 0.31629 -0.06763 0.27138
 H726 H 0.27064 -0.08047 0.25439
 H727 H 0.35440 -0.07132 0.30042
 H728 H 0.32736 -0.11994 0.31814
 N729 N 0.26136 -0.01668 0.72248
 N730 N 0.28314 -0.03774 0.71715
 C731 C 0.26950 -0.06112 0.70326
 C732 C 0.23893 -0.05545 0.69906
 C733 C 0.23466 -0.02747 0.71183
 H734 H 0.22175 -0.07034 0.68963
 H735 H 0.26525 0.00268 0.73509
 H736 H 0.30573 -0.03536 0.72386
 N737 N 0.69326 0.44496 0.16012
 N738 N 0.71149 0.42352 0.15189
 C739 C 0.73047 0.41891 0.17480
 C740 C 0.72439 0.43869 0.19851
 C741 C 0.70044 0.45467 0.18832
 H742 H 0.73434 0.43982 0.22083
 H743 H 0.67566 0.45219 0.14690
 H744 H 0.71002 0.41159 0.13137
 N745 N 0.68077 0.53934 0.29606
 N746 N 0.69398 0.56316 0.30800
 C747 C 0.71367 0.57525 0.28699
 C748 C 0.71343 0.55796 0.26053
 C749 C 0.69185 0.53558 0.26723
 H750 H 0.72477 0.56266 0.23867
 H751 H 0.66350 0.52662 0.30713
 H752 H 0.68848 0.57157 0.32977
 N753 N 0.16037 0.07896 0.75850
 N754 N 0.17208 0.10433 0.76877
 C755 C 0.20190 0.10632 0.76035
 C756 C 0.20939 0.08143 0.74375
 C757 C 0.18258 0.06415 0.74336
 H758 H 0.23198 0.07605 0.73529
 H759 H 0.13790 0.07164 0.76328
 H760 H 0.16003 0.11933 0.78238
 N761 N 0.27121 0.31743 0.12017
 N762 N 0.26663 0.30478 0.14701
 C763 C 0.26100 0.27579 0.14245
 C764 C 0.26219 0.26956 0.11138
 C765 C 0.26818 0.29673 0.09791
 H766 H 0.25648 0.24876 0.10023
 H767 H 0.27552 0.34001 0.11745
 H768 H 0.26638 0.31608 0.16799
 N769 N 0.73134 0.83561 0.59855
 N770 N 0.73399 0.81997 0.62346
 C771 C 0.73776 0.79162 0.61534
 C772 C 0.73759 0.78905 0.58372
 C773 C 0.73324 0.81757 0.57383
 H774 H 0.73925 0.76906 0.57012
 H775 H 0.72718 0.85809 0.59897
 H776 H 0.73245 0.82864 0.64568
 N777 N 0.69489 0.76961 0.46784
 N778 N 0.69641 0.75329 0.44263
 C779 C 0.71637 0.76643 0.42257
 C780 C 0.72772 0.79247 0.43535
 C781 C 0.71361 0.79359 0.46413
 H782 H 0.74502 0.80761 0.42578
 H783 H 0.68160 0.76410 0.48735
 H784 H 0.68477 0.73302 0.43980
 N785 N 0.26213 0.23594 -0.00841
 N786 N 0.26454 0.22168 -0.03487
 C787 C 0.27782 0.23993 -0.05580
 C788 C 0.28403 0.26706 -0.04222
 C789 C 0.27340 0.26370 -0.01212
 H790 H 0.29326 0.28684 -0.05313
 H791 H 0.25145 0.22715 0.01132
 H792 H 0.25654 0.20003 -0.03861
 N793 N 0.69914 0.17828 -0.05825
 N794 N 0.68891 0.19753 -0.07742
 C795 C 0.70832 0.22122 -0.07840
 C796 C 0.73180 0.21704 -0.05864
 C797 C 0.72522 0.18935 -0.04647
 H798 H 0.75154 0.23144 -0.05478
 H799 H 0.68834 0.15789 -0.05357
 H800 H 0.66917 0.19410 -0.08988
 N801 N 0.17688 0.69681 0.47148
 N802 N 0.16606 0.71351 0.45016
 C803 C 0.18778 0.73387 0.44187
 C804 C 0.21330 0.73039 0.45918
 C805 C 0.20551 0.70650 0.47749
 H806 H 0.23544 0.74158 0.45662
 H807 H 0.16539 0.67820 0.48057
 H808 H 0.14485 0.70982 0.44034
 N809 N 0.31654 0.69127 0.55935
 N810 N 0.32912 0.70857 0.58027
 C811 C 0.30981 0.73004 0.58803
 C812 C 0.28369 0.72631 0.57107
 C813 C 0.28882 0.70126 0.55318
 H814 H 0.26369 0.73961 0.57200
 H815 H 0.32722 0.67322 0.54927
 H816 H 0.35066 0.70553 0.58897
 N817 N 0.82529 0.17754 0.05009
 N818 N 0.83454 0.19599 0.07177
 C819 C 0.81570 0.21875 0.07352
 C820 C 0.79359 0.21477 0.05182
 C821 C 0.80028 0.18816 0.03756
 H822 H 0.77438 0.22846 0.04818
 H823 H 0.83600 0.15798 0.04430
 H824 H 0.85321 0.19266 0.08536
 N825 N 0.44682 0.31071 0.57205
 N826 N 0.43649 0.33001 0.55303
 C827 C 0.45638 0.33286 0.52902
 C828 C 0.48036 0.31426 0.53268
 C829 C 0.47361 0.30091 0.56061
 H830 H 0.50087 0.31249 0.51836
 H831 H 0.43578 0.30489 0.59275
 H832 H 0.41650 0.34151 0.55697
 N833 N -0.08389 0.77161 0.05912
 N834 N -0.09047 0.79257 0.04004
 C835 C -0.06745 0.79576 0.01897
 C836 C -0.04546 0.77544 0.02457
 C837 C -0.05671 0.76073 0.05044
 H838 H -0.02330 0.77341 0.01319
 H839 H -0.09734 0.76568 0.07840
 H840 H -0.10982 0.80527 0.04240
 N841 N 0.03903 0.66701 0.07249
 N842 N 0.04674 0.64224 0.05872
 C843 C 0.02579 0.63487 0.03787
 C844 C 0.00385 0.65617 0.03807
 C845 C 0.01290 0.67599 0.06082
 H846 H -0.01687 0.65605 0.02528
 H847 H 0.05132 0.67715 0.09002
 H848 H 0.06577 0.63037 0.06407
 N849 N 0.57639 0.21082 0.57491
 N850 N 0.58673 0.19021 0.55605
 C851 C 0.56875 0.18824 0.53171
 C852 C 0.54614 0.20868 0.53505
 C853 C 0.55158 0.22242 0.56294
 H854 H 0.52733 0.21184 0.52018
 H855 H 0.58614 0.21648 0.59573
 H856 H 0.60542 0.17741 0.56023
 N857 N 0.02329 0.19531 0.49851
 N858 N 0.02274 0.16876 0.51045
 C859 C 0.00243 0.15138 0.49555
 C860 C -0.01023 0.16752 0.47273
 C861 C 0.00354 0.19537 0.47557
 H862 H -0.02802 0.16050 0.45740
 H863 H 0.03677 0.21312 0.50629
 H864 H 0.03548 0.16307 0.52909
 N865 N 0.43820 0.68686 0.91779
 N866 N 0.43312 0.66056 0.92963
 C867 C 0.44351 0.66088 0.95828
 C868 C 0.45530 0.68878 0.96527
 C869 C 0.45178 0.70446 0.93871
 H870 H 0.46677 0.69598 0.98573
 H871 H 0.43308 0.69233 0.89546
 H872 H 0.42339 0.64265 0.91781
 N873 N 0.45020 0.81262 0.98910
 N874 N 0.45531 0.83709 1.00508
 C875 C 0.48129 0.85043 0.99413
 C876 C 0.49313 0.83392 0.97001
 C877 C 0.47276 0.81005 0.96755
 H878 H 0.51395 0.83833 0.95657
 H879 H 0.43139 0.79819 0.99285
 H880 H 0.44136 0.84420 1.02337
 N881 N -0.02885 0.30664 0.50285
 N882 N -0.02653 0.33468 0.51116
 C883 C -0.00923 0.34934 0.48989
 C884 C -0.00044 0.32994 0.46684
 C885 C -0.01343 0.30309 0.47595
 H886 H 0.01366 0.33460 0.44655
 H887 H -0.04104 0.29036 0.51530
 H888 H -0.03613 0.34340 0.53137
 N889 N 0.34343 0.56777 0.49853
 N890 N 0.36710 0.55091 0.49386
 C891 C 0.36215 0.53356 0.46919
 C892 C 0.33398 0.53938 0.45772
 C893 C 0.32266 0.56111 0.47724
 H894 H 0.32257 0.52810 0.43913
 H895 H 0.34097 0.58239 0.51702
 H896 H 0.38587 0.55072 0.50793
 N897 N 0.84650 0.05297 -0.05539
 N898 N 0.86796 0.03447 -0.06360
 C899 C 0.86099 0.00814 -0.05090
 C900 C 0.83386 0.00987 -0.03390
 C901 C 0.82524 0.03870 -0.03751
 H902 H 0.82162 -0.00767 -0.02163
 H903 H 0.84593 0.07461 -0.06304
 H904 H 0.88680 0.03981 -0.07800
 N905 N 0.70962 0.00184 -0.03535
 N906 N 0.68244 -0.01066 -0.02948
 C907 C 0.66764 0.00551 -0.00801
 C908 C 0.68619 0.02961 -0.00000
 C909 C 0.71279 0.02630 -0.01778
 H910 H 0.68143 0.04653 0.01698
 H911 H 0.72551 -0.00634 -0.05135
 H912 H 0.67450 -0.03015 -0.03989
 N913 N 0.21160 0.51969 0.44850
 N914 N 0.18439 0.50615 0.44879
 C915 C 0.16488 0.52202 0.46615
 C916 C 0.18028 0.54684 0.47730
 C917 C 0.21005 0.54447 0.46582
 H918 H 0.17138 0.56337 0.49290
 H919 H 0.23076 0.51179 0.43665
 H920 H 0.17954 0.48616 0.43759
 N921 N 0.15990 0.40603 0.03165
 N922 N 0.13476 0.42071 0.02832
 C923 C 0.13792 0.43650 0.00250
 C924 C 0.16634 0.43192 -0.01112
 C925 C 0.17970 0.41259 0.00824
 H926 H 0.17638 0.44222 -0.03145
 H927 H 0.16383 0.39280 0.05036
 H928 H 0.11600 0.42019 0.04373
 N929 N 0.68286 0.94614 0.42924
 N930 N 0.66377 0.96539 0.41912
 C931 C 0.66572 0.98999 0.43662
 C932 C 0.68721 0.98641 0.45857
 C933 C 0.69752 0.95825 0.45319
 H934 H 0.69352 1.00165 0.47671
 H935 H 0.68556 0.92508 0.41990
 H936 H 0.64918 0.96130 0.40104
 N937 N 0.78972 0.95810 0.55338
 N938 N 0.81590 0.97128 0.56031
 C939 C 0.82812 0.98447 0.53512
 C940 C 0.80861 0.97993 0.51108
 C941 C 0.78475 0.96262 0.52364
 H942 H 0.81312 0.98493 0.48718
 H943 H 0.77648 0.94476 0.56835
 H944 H 0.82606 0.96960 0.58145
 N945 N 0.28911 0.45883 -0.03054
 N946 N 0.31427 0.47565 -0.02979
 C947 C 0.33183 0.46613 -0.00747
 C948 C 0.31744 0.44198 0.00638
 C949 C 0.29038 0.43813 -0.00896
 H950 H 0.32505 0.42962 0.02550
 H951 H 0.27145 0.46165 -0.04556
 H952 H 0.31880 0.49375 -0.04391
 N953 N 0.54858 0.41776 0.27547
 N954 N 0.53258 0.40716 0.29924
 C955 C 0.51017 0.42574 0.30675
 C956 C 0.51165 0.44901 0.28648
 C957 C 0.53667 0.44330 0.26725
 H958 H 0.49844 0.46869 0.28751
 H959 H 0.56799 0.40809 0.26586
 H960 H 0.53784 0.38813 0.31080
 N961 N 0.09254 -0.08613 0.80993
 N962 N 0.07607 -0.09518 0.83417
 C963 C 0.04690 -0.08775 0.83085
 C964 C 0.04462 -0.07371 0.80316
 C965 C 0.07407 -0.07308 0.79057
 H966 H 0.02455 -0.06443 0.79391
 H967 H 0.11601 -0.08889 0.80684
 H968 H 0.08491 -0.10558 0.85291
 N969 N 0.03226 -0.06877 0.67741
 N970 N 0.01781 -0.06290 0.65233
 C971 C 0.02859 -0.03680 0.64142
 C972 C 0.05106 -0.02560 0.66027
 C973 C 0.05262 -0.04656 0.68294
 H974 H 0.06384 -0.00486 0.65820
 H975 H 0.02830 -0.08786 0.69018
 H976 H 0.00063 -0.07654 0.64320
 N977 N 0.53903 0.55224 0.18555
 N978 N 0.52046 0.56262 0.16548
 C979 C 0.50098 0.54072 0.15669
 C980 C 0.50710 0.51533 0.17231
 C981 C 0.53157 0.52360 0.19021
 H982 H 0.49664 0.49355 0.16958
 H983 H 0.55685 0.56452 0.19537
 H984 H 0.52201 0.58410 0.15723
 N985 N 0.47520 0.06065 0.19600
 N986 N 0.49125 0.05522 0.17058
 C987 C 0.47964 0.03053 0.15739
 C988 C 0.45483 0.01989 0.17505
 C989 C 0.45299 0.03949 0.19959
 H990 H 0.44131 -0.00020 0.17155
 H991 H 0.47976 0.07848 0.21067
 H992 H 0.51019 0.06799 0.16286
 N993 N 0.98701 0.56490 0.66912
 N994 N 0.99745 0.56313 0.64047
 C995 C 0.98288 0.54031 0.62653
 C996 C 0.96178 0.52737 0.64701
 C997 C 0.96536 0.54347 0.67383
 H998 H 0.94789 0.50745 0.64378
 H999 H 0.99550 0.57982 0.68540
 H1000 H 1.01532 0.57642 0.63128
 N1001 N 1.01110 0.51066 0.77623
 N1002 N 1.02524 0.50959 0.80230
 C1003 C 1.00625 0.51870 0.82508
 C1004 C 0.97853 0.52563 0.81302
 C1005 C 0.98269 0.52027 0.78183
 H1006 H 0.95851 0.53381 0.82505
 H1007 H 1.02082 0.50459 0.75502
 H1008 H 1.04768 0.50304 0.80419
 N1009 N 0.41767 0.07097 0.33273
 N1010 N 0.43544 0.07930 0.35534
 C1011 C 0.46386 0.07019 0.34880
 C1012 C 0.46435 0.05572 0.32082
 C1013 C 0.43465 0.05683 0.31127
 H1014 H 0.48370 0.04614 0.30889
 H1015 H 0.39456 0.07560 0.33178
 H1016 H 0.42813 0.09096 0.37483
   
