data_POSCAR
  _audit_creation_date              2014-09-24
  _audit_creation_method            'ToBaCCo'
  _symmetry_space_group_name_H-M    'P1'
  _symmetry_Int_Tables_number       1
  _symmetry_cell_setting            triclinic
  loop_
  _symmetry_equiv_pos_as_xyz
 x,y,z
_cell_length_a 16.9409
_cell_length_b 16.3271
_cell_length_c 41.0244
_cell_angle_alpha 88.965600
_cell_angle_beta 88.763000
_cell_angle_gamma 121.581100
loop_
  _atom_site_label
  _atom_site_type_symbol
  _atom_site_fract_x
  _atom_site_fract_y
  _atom_site_fract_z
Si1 Si -0.05248 -0.01505 0.50271
 Si2 Si 1.00994 -0.00841 0.15936
 Si3 Si 0.04803 1.03142 0.83922
 O4 O 0.44791 0.01320 0.02991
 O5 O 0.61304 0.02492 -0.03280
 O6 O 0.46152 0.03227 -0.03319
 O7 O 0.60940 0.02610 0.03030
 O8 O 0.53461 -0.13192 0.02783
 O9 O 0.37945 -0.12634 -0.03210
 O10 O 0.52936 -0.13342 -0.03549
 O11 O 0.37433 -0.14546 0.03103
 Cu12 Cu 0.54077 0.04001 -0.00137
 Cu13 Cu 0.44673 -0.15001 -0.00225
 C14 C 0.38277 -0.06841 0.04111
 C15 C 0.59890 -0.05274 -0.04482
 C16 C 0.39373 -0.04598 -0.04291
 C17 C 0.59880 -0.05393 0.03931
 O18 O -0.02410 0.57842 0.63810
 O19 O -0.03309 0.41845 0.70372
 O20 O -0.02546 0.58153 0.70076
 O21 O -0.04481 0.40756 0.64016
 O22 O 0.10758 0.48033 0.63746
 O23 O 0.12710 0.65608 0.69611
 O24 O 0.11935 0.49099 0.70078
 O25 O 0.12822 0.64951 0.63332
 Cu26 Cu -0.04722 0.48856 0.67094
 Cu27 Cu 0.13582 0.57589 0.66671
 C28 C 0.05324 0.64241 0.62491
 C29 C 0.04146 0.42755 0.71372
 C30 C 0.05429 0.65012 0.70802
 C31 C 0.02852 0.41438 0.62847
 O32 O 0.56538 0.56467 0.36277
 O33 O 0.41689 0.40431 0.29839
 O34 O 0.58370 0.55899 0.29901
 O35 O 0.42796 0.38669 0.36143
 O36 O 0.34304 0.45298 0.36186
 O37 O 0.50998 0.63715 0.30091
 O38 O 0.34296 0.48228 0.29836
 O39 O 0.48150 0.63203 0.36347
 Cu40 Cu 0.50618 0.47233 0.33024
 Cu41 Cu 0.41145 0.55685 0.33113
 C42 C 0.54749 0.62575 0.37427
 C43 C 0.35372 0.41678 0.28741
 C44 C 0.57638 0.62884 0.28974
 C45 C 0.35912 0.38917 0.37246
 C46 C -0.14723 0.06341 0.53758
 C47 C -0.06323 0.07229 0.52783
 C48 C 0.02013 0.14778 0.53921
 C49 C 0.02088 0.21413 0.56029
 C50 C -0.06335 0.20538 0.57062
 C51 C -0.14729 0.12993 0.55889
 C52 C -0.06152 0.27134 0.59279
 C53 C 0.02368 0.34530 0.60445
 C54 C 0.10646 0.35302 0.59333
 C55 C 0.10508 0.28819 0.57154
 H56 H 0.08520 0.15410 0.53211
 H57 H -0.21276 0.12161 0.56656
 H58 H -0.12588 0.26463 0.60109
 H59 H 0.17007 0.29556 0.56368
 H60 H -0.21231 0.00428 0.52952
 H61 H 0.17298 0.40898 0.60172
 C62 C 0.90459 0.79930 0.18801
 C63 C 0.92510 0.89426 0.18829
 C64 C 0.87176 0.91710 0.20847
 C65 C 0.79731 0.84583 0.22777
 C66 C 0.77793 0.75058 0.22793
 C67 C 0.83237 0.72811 0.20815
 C68 C 0.70406 0.67952 0.24766
 C69 C 0.64827 0.70208 0.26679
 C70 C 0.66656 0.79645 0.26562
 C71 C 0.74096 0.86796 0.24645
 H72 H 0.88597 0.99008 0.20818
 H73 H 0.81756 0.65506 0.20764
 H74 H 0.69016 0.60669 0.24821
 H75 H 0.75464 0.94066 0.24633
 H76 H 0.94168 0.77894 0.17171
 H77 H 0.62509 0.81559 0.28031
 C78 C 0.21883 0.12748 -0.13099
 C79 C 0.13932 0.03956 -0.13822
 C80 C 0.12816 -0.04652 -0.12563
 C81 C 0.19578 -0.04575 -0.10652
 C82 C 0.27562 0.04261 -0.09907
 C83 C 0.28666 0.12896 -0.11154
 C84 C 0.34170 0.04271 -0.07882
 C85 C 0.32859 -0.04462 -0.06611
 C86 C 0.24963 -0.13178 -0.07448
 C87 C 0.18386 -0.13234 -0.09441
 H88 H 0.06616 -0.11489 -0.13044
 H89 H 0.34711 0.19754 -0.10595
 H90 H 0.40225 0.11049 -0.07260
 H91 H 0.12305 -0.20063 -0.10006
 H92 H 0.22777 0.19497 -0.13960
 H93 H 0.23756 -0.20001 -0.06512
 C94 C -0.09161 0.87841 0.56043
 C95 C -0.02660 0.91983 0.53424
 C96 C 0.04526 0.90101 0.53147
 C97 C 0.05091 0.84003 0.55485
 C98 C -0.01666 0.79748 0.58067
 C99 C -0.08663 0.81817 0.58348
 C100 C -0.01472 0.73324 0.60307
 C101 C 0.05458 0.71104 0.60069
 C102 C 0.12358 0.75541 0.57571
 C103 C 0.12124 0.81881 0.55273
 H104 H 0.09364 0.92960 0.51075
 H105 H -0.13879 0.78615 0.60314
 H106 H -0.06729 0.70068 0.62263
 H107 H 0.17400 0.85080 0.53328
 H108 H -0.14860 0.89038 0.56268
 H109 H 0.17806 0.73960 0.57362
 C110 C 0.16273 0.06604 0.19903
 C111 C 0.09628 0.08344 0.18641
 C112 C 0.09487 0.16470 0.19585
 C113 C 0.16077 0.22894 0.21747
 C114 C 0.22796 0.21099 0.22981
 C115 C 0.22836 0.12940 0.22033
 C116 C 0.29238 0.27359 0.25198
 C117 C 0.29027 0.35386 0.26235
 C118 C 0.22390 0.37176 0.24961
 C119 C 0.15992 0.31004 0.22740
 H120 H 0.04174 0.17670 0.18727
 H121 H 0.27870 0.11393 0.22967
 H122 H 0.34277 0.25862 0.26166
 H123 H 0.10921 0.32526 0.21826
 H124 H 0.16368 0.00253 0.19262
 H125 H 0.22060 0.43319 0.25710
 C126 C 0.98428 0.05648 -0.09995
 C127 C 0.95610 0.00929 -0.12957
 C128 C 0.86147 -0.04137 -0.13654
 C129 C 0.79570 -0.04604 -0.11387
 C130 C 0.82549 0.00353 -0.08444
 C131 C 0.91974 0.05374 -0.07760
 C132 C 0.76070 0.00293 -0.06246
 C133 C 0.66603 -0.04942 -0.06890
 C134 C 0.63623 -0.10107 -0.09761
 C135 C 0.70079 -0.09812 -0.12023
 H136 H 0.83929 -0.07306 -0.16006
 H137 H 0.94374 0.09208 -0.05517
 H138 H 0.78354 0.04146 -0.03999
 H139 H 0.67651 -0.13700 -0.14255
 H140 H 1.05690 0.09843 -0.09437
 H141 H 0.56315 -0.14238 -0.10272
 C142 C 0.12427 0.04975 0.10322
 C143 C 0.08422 -0.02139 0.12830
 C144 C 0.11153 -0.08884 0.13128
 C145 C 0.17774 -0.08544 0.10902
 C146 C 0.21841 -0.01222 0.08421
 C147 C 0.19052 0.05432 0.08135
 C148 C 0.28698 -0.00596 0.06278
 C149 C 0.31399 -0.07357 0.06503
 C150 C 0.27195 -0.14769 0.08915
 C151 C 0.20522 -0.15284 0.11129
 H152 H 0.08497 -0.14092 0.15140
 H153 H 0.22098 0.11087 0.06251
 H154 H 0.31800 0.05040 0.04384
 H155 H 0.17477 -0.20973 0.13000
 H156 H 0.10638 0.10422 0.10099
 H157 H 0.29159 -0.20090 0.09110
 C158 C 0.86000 0.80778 0.47283
 C159 C 0.85056 0.88545 0.48105
 C160 C 0.77805 0.89233 0.46837
 C161 C 0.71730 0.82341 0.44668
 C162 C 0.72893 0.74663 0.43805
 C163 C 0.79923 0.73843 0.45185
 C164 C 0.67231 0.68115 0.41491
 C165 C 0.60412 0.69135 0.40000
 C166 C 0.59136 0.76641 0.40934
 C167 C 0.64739 0.83177 0.43244
 H168 H 0.77172 0.95324 0.47398
 H169 H 0.80940 0.68036 0.44550
 H170 H 0.68256 0.62343 0.40809
 H171 H 0.63714 0.88985 0.43870
 H172 H 0.91679 0.80219 0.48165
 H173 H 0.53899 0.77584 0.39833
 C174 C 0.15841 0.19028 0.79768
 C175 C 0.07353 0.13441 0.81523
 C176 C 0.00309 0.15411 0.81061
 C177 C 0.01553 0.22597 0.78825
 C178 C 0.10028 0.28077 0.77022
 C179 C 0.17195 0.26337 0.77554
 C180 C 0.11036 0.34952 0.74655
 C181 C 0.03580 0.36218 0.74041
 C182 C -0.04724 0.30829 0.75913
 C183 C -0.05712 0.24131 0.78290
 H184 H -0.06347 0.11150 0.82332
 H185 H 0.23755 0.30454 0.76198
 H186 H 0.17468 0.39043 0.73222
 H187 H -0.12246 0.19994 0.79662
 H188 H 0.21396 0.17671 0.80052
 H189 H -0.10540 0.31714 0.75515
 C190 C 0.94277 0.10023 0.12611
 C191 C 0.92944 0.01008 0.13445
 C192 C 0.85330 -0.07310 0.12252
 C193 C 0.78938 -0.06763 0.10317
 C194 C 0.80225 0.02290 0.09473
 C195 C 0.87935 0.10663 0.10636
 C196 C 0.73873 0.02762 0.07439
 C197 C 0.66291 -0.05726 0.06254
 C198 C 0.65067 -0.14660 0.07183
 C199 C 0.71326 -0.15172 0.09188
 H200 H 0.84363 -0.14297 0.12823
 H201 H 0.89103 0.17688 0.09992
 H202 H 0.74919 0.09705 0.06739
 H203 H 0.70255 -0.22160 0.09832
 H204 H 1.00287 0.16546 0.13400
 H205 H 0.59318 -0.21301 0.06318
 C206 C -0.00777 0.10392 0.44722
 C207 C 0.02820 0.06625 0.46938
 C208 C 0.12318 0.10006 0.46791
 C209 C 0.18169 0.17132 0.44435
 C210 C 0.14464 0.20973 0.42249
 C211 C 0.04967 0.17475 0.42396
 C212 C 0.20310 0.28286 0.39961
 C213 C 0.29799 0.31652 0.39768
 C214 C 0.33423 0.27724 0.41915
 C215 C 0.27680 0.20596 0.44250
 H216 H 0.15222 0.07426 0.48559
 H217 H 0.01998 0.20322 0.40748
 H218 H 0.17455 0.31202 0.38287
 H219 H 0.30667 0.17763 0.45895
 H220 H -0.08043 0.08079 0.44847
 H221 H 0.40745 0.30230 0.41802
 C222 C -0.05941 0.84200 0.81324
 C223 C 0.02202 0.93327 0.81056
 C224 C 0.09250 0.94906 0.78807
 C225 C 0.08243 0.87529 0.76840
 C226 C -0.00058 0.78424 0.77052
 C227 C -0.07139 0.76850 0.79294
 C228 C -0.01015 0.71031 0.75072
 C229 C 0.06338 0.72602 0.72954
 C230 C 0.14596 0.81662 0.72815
 C231 C 0.15515 0.89075 0.74719
 H232 H 0.15716 1.01781 0.78670
 H233 H -0.13482 0.69862 0.79543
 H234 H -0.07395 0.64051 0.75212
 H235 H 0.21941 0.96008 0.74544
 H236 H -0.11242 0.82567 0.83168
 H237 H 0.20324 0.83080 0.71185
   
