data_POSCAR
  _audit_creation_date              2014-09-24
  _audit_creation_method            'ToBaCCo'
  _symmetry_space_group_name_H-M    'P1'
  _symmetry_Int_Tables_number       1
  _symmetry_cell_setting            triclinic
  loop_
  _symmetry_equiv_pos_as_xyz
 x,y,z
_cell_length_a 30.5427
_cell_length_b 30.6206
_cell_length_c 30.3471
_cell_angle_alpha 80.411600
_cell_angle_beta 100.368200
_cell_angle_gamma 92.389900
loop_
  _atom_site_label
  _atom_site_type_symbol
  _atom_site_fract_x
  _atom_site_fract_y
  _atom_site_fract_z
C1 C 0.60335 0.54135 0.02339
 C2 C 0.59045 0.58460 0.02461
 C3 C 0.54644 0.59572 0.02503
 C4 C 0.51349 0.56154 0.02517
 C5 C 0.52499 0.51774 0.02236
 C6 C 0.57016 0.50720 0.02314
 C7 C 0.58120 0.46226 0.02813
 C8 C 0.54856 0.42937 0.02608
 C9 C 0.50336 0.43960 0.02062
 C10 C 0.49150 0.48379 0.02117
 C11 C 0.47044 0.56887 0.03267
 C12 C 0.43794 0.53582 0.03161
 C13 C 0.44673 0.49369 0.02289
 C14 C 0.41330 0.45980 0.02058
 C15 C 0.42592 0.41707 0.01729
 C16 C 0.46997 0.40630 0.01759
 H17 H 0.61535 0.45155 0.03514
 H18 H 0.55943 0.39553 0.03031
 H19 H 0.46166 0.59990 0.04114
 H20 H 0.40628 0.54352 0.03938
 H21 H 0.61480 0.61121 0.02135
 H22 H 0.40052 0.39154 0.01298
 C23 C -0.00311 0.60236 0.44985
 C24 C -0.00034 0.59448 0.40640
 C25 C 0.00224 0.55152 0.39645
 C26 C -0.00036 0.51472 0.43171
 C27 C -0.00258 0.52217 0.47632
 C28 C -0.00353 0.56609 0.48546
 C29 C -0.00571 0.57251 0.52979
 C30 C -0.00550 0.53688 0.56475
 C31 C -0.00636 0.49303 0.55644
 C32 C -0.00492 0.48553 0.51174
 C33 C -0.00365 0.47073 0.42323
 C34 C -0.00414 0.43506 0.45803
 C35 C -0.00510 0.44151 0.50253
 C36 C -0.00601 0.40525 0.53818
 C37 C -0.00752 0.41341 0.58184
 C38 C -0.00781 0.45643 0.59167
 H39 H -0.00746 0.60519 0.53828
 H40 H -0.00479 0.54449 0.59834
 H41 H -0.00669 0.46295 0.38940
 H42 H -0.00418 0.40233 0.44918
 H43 H 0.00225 0.62296 0.38042
 H44 H -0.00857 0.38551 0.60887
 C45 C 0.54487 -0.00698 0.59432
 C46 C 0.58772 -0.01012 0.58431
 C47 C 0.59538 -0.01197 0.54043
 C48 C 0.55804 -0.01354 0.50514
 C49 C 0.51432 -0.00939 0.51378
 C50 C 0.50750 -0.00667 0.55843
 C51 C 0.46335 -0.00715 0.56622
 C52 C 0.42730 -0.00521 0.53082
 C53 C 0.43322 -0.00689 0.48634
 C54 C 0.47709 -0.00970 0.47784
 C55 C 0.56290 -0.02296 0.46242
 C56 C 0.52677 -0.02247 0.42734
 C57 C 0.48379 -0.01369 0.43361
 C58 C 0.44706 -0.01094 0.39732
 C59 C 0.40410 -0.00746 0.40631
 C60 C 0.39647 -0.00650 0.45024
 H61 H 0.45558 -0.00993 0.59987
 H62 H 0.39462 -0.00298 0.53916
 H63 H 0.59466 -0.03192 0.45576
 H64 H 0.53290 -0.03014 0.39549
 H65 H 0.61615 -0.00698 0.61077
 H66 H 0.37596 -0.00603 0.37865
 O67 O 0.47500 0.01111 -0.07718
 O68 O 0.45666 -0.00526 0.04133
 O69 O 0.46309 0.06316 -0.01958
 O70 O 0.46961 -0.05729 -0.01426
 O71 O 0.54121 -0.05403 0.01424
 O72 O 0.53639 0.06750 -0.00183
 O73 O 0.52877 0.00398 0.06439
 O74 O 0.54759 0.00914 -0.05271
 Cu75 Cu 0.45877 0.00273 -0.02019
 Cu76 Cu 0.54583 0.00706 0.00825
 C77 C 0.51450 0.01121 -0.08496
 C78 C 0.48954 -0.00215 0.07294
 C79 C 0.49857 0.08573 -0.01137
 C80 C 0.50649 -0.07641 0.00200
 O81 O -0.05391 0.54481 0.98307
 O82 O 0.06663 0.53327 0.98945
 O83 O -0.00331 0.53025 0.92577
 O84 O 0.01448 0.54750 1.04511
 O85 O 0.00727 0.47542 1.06699
 O86 O -0.00594 0.45794 0.94843
 O87 O 0.06049 0.46164 1.01389
 O88 O -0.06091 0.47233 1.00207
 Cu89 Cu 0.00664 0.54618 0.98326
 Cu90 Cu -0.00068 0.45956 1.00977
 C91 C -0.07774 0.51073 0.99238
 C92 C 0.08430 0.49551 1.00356
 C93 C -0.00648 0.49100 0.91698
 C94 C 0.01315 0.51440 1.07628
 O95 O -0.01665 -0.04509 0.45043
 O96 O -0.01145 0.07232 0.46458
 O97 O 0.04594 0.01592 0.45256
 O98 O -0.07267 0.01157 0.46261
 O99 O -0.05404 -0.00869 0.53671
 O100 O 0.06422 -0.00545 0.52658
 O101 O 0.00873 0.05242 0.53860
 O102 O 0.00265 -0.06509 0.52457
 Cu103 Cu -0.01540 0.01571 0.45008
 Cu104 Cu 0.00713 -0.00846 0.53912
 C105 C -0.00769 -0.07508 0.48500
 C106 C -0.00073 0.08238 0.50407
 C107 C 0.07524 0.00515 0.48780
 C108 C -0.08360 0.00076 0.50145
 C109 C -0.26057 0.52914 1.01242
 C110 C -0.29369 0.50400 0.98859
 C111 C -0.33872 0.50828 0.99165
 C112 C -0.35125 0.53494 1.02095
 C113 C -0.31736 0.55792 1.04623
 C114 C -0.27297 0.55526 1.04197
 C115 C -0.21341 0.52606 1.00608
 C116 C -0.17953 0.55482 1.02262
 C117 C -0.13589 0.55023 1.01668
 C118 C -0.12476 0.51648 0.99487
 C119 C -0.15830 0.48827 0.97715
 C120 C -0.20282 0.49382 0.98134
 C121 C -0.28149 0.47428 0.96251
 C122 C -0.23688 0.46829 0.96015
 H123 H -0.30670 0.45450 0.94463
 H124 H -0.22905 0.44406 0.94055
 H125 H -0.36396 0.49164 0.97022
 H126 H -0.32506 0.57773 1.07022
 H127 H -0.11040 0.57247 1.03031
 H128 H -0.14984 0.46278 0.95934
 H129 H -0.24876 0.57326 1.06279
 H130 H -0.18614 0.58137 1.03974
 C131 C 0.27492 0.47432 1.01931
 C132 C 0.29815 0.50723 0.99365
 C133 C 0.34396 0.50279 0.99426
 C134 C 0.36767 0.46639 1.02121
 C135 C 0.34418 0.43432 1.04709
 C136 C 0.29881 0.43823 1.04637
 C137 C 0.22579 0.47919 1.01636
 C138 C 0.19940 0.44674 1.03829
 C139 C 0.15370 0.45235 1.03399
 C140 C 0.13296 0.49056 1.00808
 C141 C 0.15888 0.52324 0.98614
 C142 C 0.20492 0.51755 0.98959
 C143 C 0.27544 0.54420 0.96738
 C144 C 0.22997 0.54950 0.96581
 H145 H 0.29315 0.56960 0.94786
 H146 H 0.21405 0.57881 0.94513
 H147 H 0.36074 0.52696 0.97246
 H148 H 0.36123 0.40618 1.06888
 H149 H 0.13453 0.42661 1.05126
 H150 H 0.14309 0.55268 0.96557
 H151 H 0.28328 0.41261 1.06746
 H152 H 0.21314 0.41649 1.05852
 C153 C -0.00984 -0.25991 0.46289
 C154 C 0.02412 -0.28702 0.49088
 C155 C 0.02665 -0.33172 0.48624
 C156 C -0.00580 -0.35065 0.45590
 C157 C -0.04008 -0.32404 0.42912
 C158 C -0.04213 -0.27927 0.43240
 C159 C -0.01025 -0.21191 0.46749
 C160 C -0.03942 -0.18110 0.43791
 C161 C -0.03831 -0.13667 0.44351
 C162 C -0.00876 -0.12203 0.47915
 C163 C 0.02065 -0.15228 0.50860
 C164 C 0.02085 -0.19672 0.50236
 C165 C 0.05487 -0.26955 0.52374
 C166 C 0.05266 -0.22564 0.53002
 H167 H 0.08060 -0.29036 0.54550
 H168 H 0.07681 -0.21391 0.55640
 H169 H 0.05359 -0.35202 0.50657
 H170 H -0.06536 -0.33806 0.40539
 H171 H -0.06101 -0.11373 0.42017
 H172 H 0.04433 -0.14088 0.53557
 H173 H -0.06947 -0.26059 0.41118
 H174 H -0.06282 -0.19046 0.40985
 C175 C 0.00078 0.26736 0.52567
 C176 C -0.03360 0.29421 0.49805
 C177 C -0.03621 0.33896 0.50253
 C178 C -0.00344 0.35818 0.53233
 C179 C 0.03125 0.33182 0.55869
 C180 C 0.03338 0.28702 0.55559
 C181 C 0.00132 0.21931 0.52126
 C182 C 0.03093 0.18874 0.55060
 C183 C 0.02998 0.14426 0.54514
 C184 C 0.00014 0.12935 0.50986
 C185 C -0.02973 0.15937 0.48070
 C186 C -0.03009 0.20383 0.48682
 C187 C -0.06465 0.27643 0.46565
 C188 C -0.06232 0.23249 0.45948
 H189 H -0.09071 0.29703 0.44416
 H190 H -0.08671 0.22055 0.43344
 H191 H -0.06343 0.35906 0.48250
 H192 H 0.05681 0.34607 0.58195
 H193 H 0.05303 0.12152 0.56827
 H194 H -0.05363 0.14775 0.45402
 H195 H 0.06104 0.26855 0.57648
 H196 H 0.05457 0.19832 0.57836
 C197 C 0.53825 0.00300 -0.26848
 C198 C 0.51046 0.02943 -0.30450
 C199 C 0.51373 0.02739 -0.34976
 C200 C 0.54175 -0.00345 -0.36017
 C201 C 0.56881 -0.02994 -0.32385
 C202 C 0.56720 -0.02677 -0.27890
 C203 C 0.53448 0.00668 -0.22072
 C204 C 0.56405 -0.01436 -0.18277
 C205 C 0.55808 -0.01150 -0.13886
 C206 C 0.52220 0.01181 -0.13165
 C207 C 0.49339 0.03422 -0.16912
 C208 C 0.50000 0.03273 -0.21354
 C209 C 0.47874 0.05675 -0.29514
 C210 C 0.47280 0.05743 -0.25069
 H211 H 0.45717 0.07682 -0.32267
 H212 H 0.44686 0.07802 -0.24529
 H213 H 0.49448 0.05011 -0.37685
 H214 H 0.59056 -0.05442 -0.33012
 H215 H 0.58091 -0.02872 -0.11037
 H216 H 0.46620 0.05316 -0.16365
 H217 H 0.58803 -0.04884 -0.25285
 H218 H 0.59208 -0.03301 -0.18621
 C219 C 0.46100 -0.01041 0.25809
 C220 C 0.48690 0.01880 0.28419
 C221 C 0.48133 0.01928 0.32901
 C222 C 0.45215 -0.01084 0.34943
 C223 C 0.42710 -0.04030 0.32383
 C224 C 0.43127 -0.04007 0.27871
 C225 C 0.46717 -0.00903 0.20994
 C226 C 0.44006 -0.03339 0.17967
 C227 C 0.44724 -0.03093 0.13512
 C228 C 0.48206 -0.00486 0.11998
 C229 C 0.50899 0.01981 0.14963
 C230 C 0.50118 0.01872 0.19399
 C231 C 0.51889 0.04664 0.26581
 C232 C 0.52650 0.04594 0.22201
 H233 H 0.53899 0.06873 0.28593
 H234 H 0.55218 0.06757 0.20963
 H235 H 0.50036 0.04254 0.34848
 H236 H 0.40442 -0.06385 0.33898
 H237 H 0.42580 -0.04988 0.11256
 H238 H 0.53526 0.04091 0.13768
 H239 H 0.41154 -0.06384 0.26088
 H240 H 0.41279 -0.05399 0.18948
 C241 C 0.52207 -0.26671 0.01548
 C242 C 0.55988 -0.28664 0.04463
 C243 C 0.56682 -0.33217 0.04850
 C244 C 0.53704 -0.35890 0.02315
 C245 C 0.50011 -0.33858 -0.00664
 C246 C 0.49248 -0.29337 -0.01016
 C247 C 0.51611 -0.21783 0.01223
 C248 C 0.47868 -0.19501 -0.01417
 C249 C 0.47534 -0.14924 -0.01692
 C250 C 0.50926 -0.12504 0.00632
 C251 C 0.54619 -0.14757 0.03342
 C252 C 0.54964 -0.19359 0.03689
 C253 C 0.59112 -0.26095 0.06918
 C254 C 0.58637 -0.21535 0.06499
 H255 H 0.62014 -0.27624 0.09144
 H256 H 0.61184 -0.19685 0.08417
 H257 H 0.59550 -0.34697 0.07183
 H258 H 0.47779 -0.35735 -0.02867
 H259 H 0.44635 -0.13266 -0.03788
 H260 H 0.57229 -0.12927 0.05208
 H261 H 0.46385 -0.27980 -0.03399
 H262 H 0.45163 -0.21180 -0.03288
 C263 C 0.48836 0.27098 0.00244
 C264 C 0.46426 0.28090 0.03517
 C265 C 0.46086 0.32481 0.04150
 C266 C 0.47887 0.35974 0.01388
 C267 C 0.50104 0.35009 -0.01995
 C268 C 0.50642 0.30624 -0.02519
 C269 C 0.49191 0.22344 -0.00251
 C270 C 0.51967 0.20924 -0.02970
 C271 C 0.52188 0.16435 -0.03282
 C272 C 0.49553 0.13311 -0.01001
 C273 C 0.46808 0.14672 0.01726
 C274 C 0.46710 0.19129 0.02228
 C275 C 0.44220 0.24721 0.06018
 C276 C 0.44263 0.20351 0.05300
 H277 H 0.42330 0.25492 0.08485
 H278 H 0.42422 0.17875 0.07248
 H279 H 0.44283 0.33208 0.06708
 H280 H 0.51367 0.37663 -0.04282
 H281 H 0.54392 0.15400 -0.05329
 H282 H 0.44888 0.12216 0.03613
 H283 H 0.52347 0.30067 -0.05192
 H284 H 0.54059 0.23212 -0.04789
 C285 C -0.26991 -0.00352 0.51957
 C286 C -0.28147 -0.02969 0.55889
 C287 C -0.32598 -0.03283 0.56517
 C288 C -0.35985 -0.00977 0.53305
 C289 C -0.34756 0.01792 0.49523
 C290 C -0.30351 0.02070 0.48830
 C291 C -0.22217 -0.00204 0.51355
 C292 C -0.20776 0.02034 0.47412
 C293 C -0.16289 0.02087 0.47023
 C294 C -0.13115 -0.00056 0.50560
 C295 C -0.14518 -0.02335 0.54481
 C296 C -0.19035 -0.02478 0.54874
 C297 C -0.24850 -0.05223 0.59199
 C298 C -0.20386 -0.04931 0.58734
 H299 H -0.25728 -0.07206 0.62229
 H300 H -0.17958 -0.06699 0.61415
 H301 H -0.33435 -0.05424 0.59481
 H302 H -0.37196 0.03856 0.47130
 H303 H -0.15296 0.03854 0.43952
 H304 H -0.12100 -0.04062 0.57206
 H305 H -0.29642 0.04267 0.45871
 H306 H -0.23059 0.03729 0.44573
 C307 C 0.25997 -0.00508 0.46912
 C308 C 0.27599 0.02752 0.43682
 C309 C 0.32072 0.02735 0.43151
 C310 C 0.34950 -0.00583 0.45690
 C311 C 0.33273 -0.03980 0.48653
 C312 C 0.28872 -0.03922 0.49311
 C313 C 0.21266 -0.00254 0.47537
 C314 C 0.19523 -0.02995 0.51033
 C315 C 0.15083 -0.02664 0.51457
 C316 C 0.12253 0.00358 0.48378
 C317 C 0.13965 0.03163 0.44929
 C318 C 0.18472 0.02952 0.44559
 C319 C 0.24707 0.05945 0.40945
 C320 C 0.20217 0.05978 0.41302
 H321 H 0.25916 0.08410 0.38430
 H322 H 0.18098 0.08467 0.39052
 H323 H 0.33320 0.05286 0.40739
 H324 H 0.35397 -0.06674 0.50492
 H325 H 0.13833 -0.04845 0.54161
 H326 H 0.11812 0.05570 0.42597
 H327 H 0.27769 -0.06614 0.51645
 H328 H 0.21542 -0.05375 0.53506
 C329 C 0.01760 0.53754 1.26262
 C330 C -0.01010 0.57068 1.26955
 C331 C -0.01511 0.57490 1.31370
 C332 C 0.00802 0.54720 1.35190
 C333 C 0.03871 0.51724 1.34462
 C334 C 0.04296 0.51193 1.30077
 C335 C 0.01898 0.53156 1.21487
 C336 C 0.04002 0.49544 1.20438
 C337 C 0.03852 0.49019 1.15928
 C338 C 0.01700 0.52133 1.12368
 C339 C -0.00359 0.55766 1.13363
 C340 C -0.00392 0.56225 1.17882
 C341 C -0.03257 0.59953 1.23240
 C342 C -0.02866 0.59608 1.18805
 H343 H -0.05326 0.62543 1.23770
 H344 H -0.04651 0.61936 1.16048
 H345 H -0.03842 0.59892 1.31806
 H346 H 0.05999 0.49802 1.37303
 H347 H 0.05417 0.46166 1.15215
 H348 H -0.02134 0.58111 1.10611
 H349 H 0.06673 0.48812 1.29743
 H350 H 0.05658 0.47023 1.23049
 C351 C -0.00706 0.46672 0.73190
 C352 C -0.03921 0.48981 0.69738
 C353 C -0.04044 0.48533 0.65181
 C354 C -0.00769 0.46105 0.63973
 C355 C 0.02505 0.43956 0.67395
 C356 C 0.02529 0.44204 0.71944
 C357 C -0.00781 0.47091 0.78018
 C358 C 0.01847 0.44449 0.81713
 C359 C 0.01764 0.45049 0.86151
 C360 C -0.00868 0.48341 0.87006
 C361 C -0.03598 0.50911 0.83373
 C362 C -0.03674 0.50210 0.78896
 C363 C -0.06885 0.51826 0.70847
 C364 C -0.06672 0.52531 0.75312
 H365 H -0.09314 0.53642 0.68204
 H366 H -0.08946 0.54865 0.75979
 H367 H -0.06616 0.50162 0.62556
 H368 H 0.05070 0.42078 0.66535
 H369 H 0.03859 0.43007 0.88928
 H370 H -0.05720 0.53386 0.84046
 H371 H 0.05165 0.42529 0.74418
 H372 H 0.03950 0.41879 0.81250
   
