data_POSCAR
  _audit_creation_date              2014-09-24
  _audit_creation_method            'ToBaCCo'
  _symmetry_space_group_name_H-M    'P1'
  _symmetry_Int_Tables_number       1
  _symmetry_cell_setting            triclinic
  loop_
  _symmetry_equiv_pos_as_xyz
 x,y,z
_cell_length_a 18.7375
_cell_length_b 18.6204
_cell_length_c 18.7264
_cell_angle_alpha 90.673200
_cell_angle_beta 89.336000
_cell_angle_gamma 91.142400
loop_
  _atom_site_label
  _atom_site_type_symbol
  _atom_site_fract_x
  _atom_site_fract_y
  _atom_site_fract_z
O1 O 0.63509 0.15687 0.01739
 O2 O 0.69155 0.04909 0.02825
 C3 C 0.69140 0.11856 0.02770
 O4 O 0.37303 0.02443 0.16223
 O5 O 0.31266 0.03800 0.05743
 C6 C 0.31531 0.03457 0.12637
 O7 O 0.56706 0.00970 0.19189
 O8 O 0.66018 -0.01742 0.11685
 C9 C 0.63410 -0.00031 0.17974
 O10 O 0.44336 0.19668 -0.01990
 O11 O 0.34556 0.12101 -0.02726
 C12 C 0.37539 0.18455 -0.02652
 Zr13 Zr 0.52726 0.12544 -0.00304
 O14 O 0.52740 0.21252 0.07064
 O15 O 0.56375 0.19497 -0.08498
 Zr16 Zr 0.47884 0.00686 0.12582
 O17 O 0.47172 0.08373 0.20940
 O18 O 0.46054 -0.07517 0.20172
 O19 O 0.56401 0.06506 0.08076
 O20 O 0.44432 0.08814 0.06155
 O21 O 0.42914 -0.00012 -0.19417
 O22 O 0.34017 0.02383 -0.11257
 C23 C 0.36256 0.00887 -0.17668
 O24 O 0.55725 -0.19603 0.00315
 O25 O 0.65440 -0.12182 0.02206
 C26 C 0.62510 -0.18499 0.01102
 O27 O 0.36293 -0.15601 -0.00678
 O28 O 0.30746 -0.04855 -0.02286
 C29 C 0.30674 -0.11768 -0.01715
 O30 O 0.62259 -0.03285 -0.16193
 O31 O 0.68482 -0.04154 -0.05725
 C32 C 0.68049 -0.04332 -0.12634
 Zr33 Zr 0.51878 -0.00679 -0.12543
 O34 O 0.51374 -0.08553 -0.20768
 O35 O 0.55166 0.07297 -0.19922
 Zr36 Zr 0.47206 -0.12486 0.00523
 O37 O 0.45612 -0.21538 -0.06227
 O38 O 0.45399 -0.19245 0.09410
 Zr39 Zr 0.60299 -0.02038 0.01744
 Zr40 Zr 0.39636 0.02091 -0.01582
 O41 O 0.43608 -0.06484 -0.07805
 O42 O 0.55545 -0.08811 -0.06054
 O43 O 0.46398 0.08101 -0.08428
 O44 O 0.53437 -0.07967 0.08495
 O45 O 0.58696 0.05540 -0.06350
 O46 O 0.40961 -0.05565 0.06513
 H47 H 0.41550 0.12497 0.08650
 H48 H 0.55785 -0.11196 0.11879
 H49 H 0.40504 -0.09331 -0.11063
 H50 H 0.62901 0.07703 -0.08831
 H51 H 0.41073 -0.09290 0.19637
 H52 H 0.40376 -0.18694 0.10975
 H53 H 0.47412 -0.20150 -0.11006
 H54 H 0.53419 -0.12983 -0.18851
 H55 H 0.50954 0.10203 -0.21000
 H56 H 0.52644 0.19551 -0.12192
 H57 H 0.55555 0.19818 0.11233
 H58 H 0.49309 0.12882 0.19088
 O59 O 0.02321 0.37065 -0.16365
 O60 O 0.03750 0.31079 -0.05846
 C61 C 0.03606 0.31323 -0.12737
 O62 O 0.15530 0.63641 -0.02024
 O63 O 0.04771 0.69165 -0.03031
 C64 C 0.11672 0.69268 -0.02744
 O65 O 0.19597 0.44328 -0.01119
 O66 O 0.12409 0.34496 0.01135
 C67 C 0.18597 0.37496 -0.00282
 O68 O -0.02726 0.56128 -0.19424
 O69 O -0.03381 0.65757 -0.11736
 C70 C -0.03440 0.62919 -0.18122
 Zr71 Zr -0.00054 0.47660 -0.12777
 O72 O 0.07667 0.48840 -0.21052
 O73 O -0.07577 0.43732 -0.20284
 Zr74 Zr 0.12417 0.52806 -0.00736
 O75 O 0.20624 0.54394 -0.08426
 O76 O 0.19929 0.54833 0.07452
 O77 O 0.08481 0.44216 -0.06874
 O78 O 0.05826 0.56273 -0.08695
 O79 O -0.19539 0.55596 -0.00909
 O80 O -0.12175 0.65474 -0.02405
 C81 C -0.18451 0.62441 -0.01756
 O82 O 0.00947 0.42893 0.19096
 O83 O 0.03773 0.34060 0.10923
 C84 C 0.02706 0.36360 0.17395
 O85 O -0.01698 0.62767 0.15876
 O86 O -0.03640 0.68710 0.05394
 C87 C -0.03064 0.68506 0.12262
 O88 O -0.15532 0.36380 0.02490
 O89 O -0.04767 0.30746 0.03132
 C90 C -0.11696 0.30741 0.03317
 Zr91 Zr -0.12400 0.47079 0.00338
 O92 O -0.20518 0.47181 0.08297
 O93 O -0.19878 0.43318 -0.07309
 Zr94 Zr 0.00132 0.52020 0.12383
 O95 O -0.07119 0.52630 0.21086
 O96 O 0.08632 0.54224 0.19491
 Zr97 Zr 0.02274 0.39581 0.01390
 Zr98 Zr -0.02230 0.60247 -0.01880
 O99 O -0.08319 0.55462 0.06412
 O100 O -0.05816 0.43352 0.08332
 O101 O -0.08569 0.53205 -0.08164
 O102 O 0.08549 0.46663 0.07621
 O103 O -0.05845 0.40993 -0.06119
 O104 O 0.05862 0.59006 0.05764
 H105 H 0.08146 0.59507 -0.12229
 H106 H 0.12133 0.44504 0.10755
 H107 H -0.11880 0.58300 0.09120
 H108 H -0.08131 0.36739 -0.08435
 H109 H 0.18871 0.59568 0.09625
 H110 H 0.10227 0.59262 0.18761
 H111 H -0.11089 0.49236 0.20006
 H112 H -0.18906 0.44222 0.12300
 H113 H -0.20626 0.47232 -0.10734
 H114 H -0.11995 0.46473 -0.19543
 H115 H 0.11539 0.45447 -0.20128
 H116 H 0.19096 0.51796 -0.12795
 O117 O -0.16649 -0.02091 0.62546
 O118 O -0.06260 -0.03506 0.68713
 C119 C -0.13138 -0.03401 0.68329
 O120 O -0.02640 -0.16226 0.36911
 O121 O -0.03350 -0.05546 0.31004
 C122 C -0.03353 -0.12489 0.31173
 O123 O -0.02033 -0.19626 0.56357
 O124 O 0.00440 -0.12240 0.65902
 C125 C -0.01224 -0.18507 0.63131
 O126 O -0.19282 0.02432 0.43319
 O127 O -0.11457 0.02707 0.33839
 C128 C -0.17880 0.02855 0.36548
 Zr129 Zr -0.12828 0.00250 0.52049
 O130 O -0.21666 -0.06966 0.51304
 O131 O -0.19715 0.08490 0.55554
 Zr132 Zr -0.01130 -0.12814 0.47612
 O133 O -0.08794 -0.21195 0.46327
 O134 O 0.06962 -0.20475 0.46008
 O135 O -0.07258 -0.08387 0.55854
 O136 O -0.08858 -0.06142 0.43864
 O137 O 0.00433 0.19435 0.43360
 O138 O -0.01681 0.11461 0.34154
 C139 C -0.00240 0.17844 0.36625
 O140 O 0.18963 -0.01146 0.57198
 O141 O 0.10614 -0.03554 0.65951
 C142 C 0.17133 -0.02617 0.63747
 O143 O 0.16063 0.00708 0.37345
 O144 O 0.05688 0.02490 0.31232
 C145 C 0.12546 0.01958 0.31544
 O146 O 0.02848 0.15793 0.62764
 O147 O 0.03043 0.05132 0.68817
 C148 C 0.03535 0.12085 0.68529
 Zr149 Zr 0.00587 0.12353 0.52223
 O150 O 0.08532 0.20586 0.52263
 O151 O -0.07318 0.19799 0.55275
 Zr152 Zr 0.12318 -0.00829 0.48039
 O153 O 0.21475 0.05932 0.47251
 O154 O 0.18917 -0.09808 0.46339
 Zr155 Zr 0.01124 -0.02213 0.60362
 Zr156 Zr -0.01759 0.01622 0.39588
 O157 O 0.06677 0.07688 0.44217
 O158 O 0.08326 0.05631 0.56289
 O159 O -0.07914 0.08467 0.46135
 O160 O 0.07239 -0.08942 0.53721
 O161 O -0.06080 0.06099 0.58558
 O162 O 0.05614 -0.06637 0.41214
 H163 H -0.12463 -0.08555 0.40785
 H164 H 0.10211 -0.12518 0.56122
 H165 H 0.09684 0.11044 0.41365
 H166 H -0.08356 0.08501 0.62724
 H167 H 0.08840 -0.19918 0.41081
 H168 H 0.18473 -0.11293 0.41270
 H169 H 0.20104 0.10645 0.49251
 H170 H 0.12803 0.18608 0.54522
 H171 H -0.09954 0.21067 0.50932
 H172 H -0.19445 0.12355 0.51974
 H173 H -0.20446 -0.11339 0.53942
 H174 H -0.13391 -0.19293 0.48065
 N175 N -0.12595 0.17451 0.04988
 N176 N -0.17701 0.12445 0.04790
 C177 C -0.24008 0.15648 0.03832
 C178 C -0.22894 0.22978 0.03479
 C179 C -0.15593 0.23901 0.04187
 H180 H -0.26801 0.27041 0.02476
 H181 H -0.07161 0.16423 0.05454
 H182 H -0.16832 0.06935 0.05116
 N183 N 0.12416 0.82622 -0.03730
 N184 N 0.17475 0.87661 -0.03348
 C185 C 0.23787 0.84468 -0.02408
 C186 C 0.22741 0.77134 -0.02229
 C187 C 0.15474 0.76183 -0.03073
 H188 H 0.26697 0.73062 -0.01460
 H189 H 0.06989 0.83609 -0.04332
 H190 H 0.16587 0.93167 -0.03674
 N191 N 0.31286 0.36340 -0.03546
 N192 N 0.36132 0.31393 -0.04445
 C193 C 0.33162 0.24918 -0.03059
 C194 C 0.25978 0.25787 -0.01188
 C195 C 0.25054 0.33199 -0.01520
 H196 H 0.22112 0.21704 0.00418
 H197 H 0.32302 0.41819 -0.04289
 H198 H 0.41451 0.32497 -0.05848
 N199 N -0.31486 0.63608 -0.01894
 N200 N -0.36376 0.68478 -0.00821
 C201 C -0.33187 0.74949 0.00234
 C202 C -0.25786 0.74134 -0.00245
 C203 C -0.24978 0.66772 -0.01591
 H204 H -0.21647 0.78219 0.00402
 H205 H -0.32642 0.58151 -0.02719
 H206 H -0.41856 0.67324 -0.00838
 N207 N -0.05333 -0.13332 0.18080
 N208 N -0.05256 -0.18384 0.13075
 C209 C -0.04000 -0.24728 0.16171
 C210 C -0.03297 -0.23709 0.23441
 C211 C -0.04146 -0.16407 0.24418
 H212 H -0.02071 -0.27664 0.27413
 H213 H -0.06057 -0.07879 0.17126
 H214 H -0.05906 -0.17451 0.07633
 N215 N 0.05950 0.13105 0.81562
 N216 N 0.05986 0.18225 0.86508
 C217 C 0.04738 0.24552 0.83367
 C218 C 0.03948 0.23438 0.76112
 C219 C 0.04698 0.16102 0.75201
 H220 H 0.02594 0.27338 0.72130
 H221 H 0.06573 0.07652 0.82583
 H222 H 0.06632 0.17338 0.91959
 N223 N 0.08544 0.21730 0.27659
 N224 N 0.09384 0.26573 0.22646
 C225 C 0.03915 0.31128 0.23031
 C226 C -0.00685 0.29079 0.28600
 C227 C 0.02489 0.23015 0.31345
 H228 H -0.05822 0.31273 0.30012
 H229 H 0.11971 0.17456 0.28388
 H230 H 0.13517 0.26583 0.18851
 N231 N -0.04430 -0.30924 0.64149
 N232 N -0.05282 -0.36052 0.69378
 C233 C -0.04016 -0.32898 0.75754
 C234 C -0.02418 -0.25554 0.74742
 C235 C -0.02590 -0.24615 0.67302
 H236 H -0.00895 -0.21606 0.78760
 H237 H -0.05000 -0.32033 0.58700
 H238 H -0.06445 -0.41471 0.68322
 N239 N 0.21687 -0.08547 0.74306
 N240 N 0.26576 -0.07486 0.79202
 C241 C 0.30723 -0.01795 0.77412
 C242 C 0.28434 0.00873 0.70913
 C243 C 0.22595 -0.03596 0.69195
 H244 H 0.30328 0.05643 0.68181
 H245 H 0.17631 -0.12469 0.74611
 H246 H 0.26969 -0.10565 0.83789
 N247 N -0.30363 0.04329 0.35348
 N248 N -0.35551 0.03197 0.30273
 C249 C -0.32374 0.01300 0.24041
 C250 C -0.24927 0.01305 0.25016
 C251 C -0.23961 0.03133 0.32285
 H252 H -0.20869 -0.00160 0.21136
 H253 H -0.31469 0.05644 0.40683
 H254 H -0.40999 0.03722 0.31364
 N255 N 0.13429 0.04601 0.18595
 N256 N 0.18447 0.05153 0.13618
 C257 C 0.24803 0.03990 0.16629
 C258 C 0.23814 0.02641 0.23834
 C259 C 0.16514 0.03040 0.24842
 H260 H 0.27800 0.01333 0.27724
 H261 H 0.07987 0.05216 0.17681
 H262 H 0.17487 0.06168 0.08242
 N263 N -0.14062 -0.06638 0.81147
 N264 N -0.19041 -0.06977 0.86184
 C265 C -0.25355 -0.05431 0.83270
 C266 C -0.24380 -0.04090 0.76060
 C267 C -0.17127 -0.04839 0.74957
 H268 H -0.28303 -0.02380 0.72272
 H269 H -0.08639 -0.07442 0.82007
 H270 H -0.18066 -0.08027 0.91549
   
