data_POSCAR
  _audit_creation_date              2014-09-24
  _audit_creation_method            'ToBaCCo'
  _symmetry_space_group_name_H-M    'P1'
  _symmetry_Int_Tables_number       1
  _symmetry_cell_setting            triclinic
  loop_
  _symmetry_equiv_pos_as_xyz
 x,y,z
_cell_length_a 12.9564
_cell_length_b 13.2327
_cell_length_c 30.6411
_cell_angle_alpha 90.026600
_cell_angle_beta 89.491400
_cell_angle_gamma 120.756100
loop_
  _atom_site_label
  _atom_site_type_symbol
  _atom_site_fract_x
  _atom_site_fract_y
  _atom_site_fract_z
C1 C -0.00298 -0.00683 0.50558
 C2 C 0.99789 0.00751 0.16606
 C3 C 0.00706 1.00228 0.82844
 O4 O 0.35434 -0.07957 -0.04541
 O5 O 0.56629 -0.07581 0.03465
 O6 O 0.34388 -0.10582 0.03767
 O7 O 0.53767 -0.10624 -0.05031
 O8 O 0.64914 0.08734 -0.04610
 O9 O 0.44057 0.08801 0.03571
 O10 O 0.65685 0.11771 0.03779
 O11 O 0.46204 0.11435 -0.04896
 Cu12 Cu 0.44241 -0.11008 -0.00494
 Cu13 Cu 0.56181 0.12069 -0.00552
 C14 C 0.37276 0.01771 -0.06092
 C15 C 0.64913 0.02235 0.04946
 C16 C 0.35522 -0.00963 0.05051
 C17 C 0.62916 -0.01008 -0.06198
 O18 O 0.08672 0.43391 0.62739
 O19 O 0.08990 0.64379 0.70675
 O20 O 0.11544 0.45885 0.71108
 O21 O 0.11145 0.64418 0.62259
 O22 O -0.08599 0.55531 0.62878
 O23 O -0.08237 0.34943 0.70838
 O24 O -0.10751 0.53492 0.71299
 O25 O -0.11110 0.34498 0.62472
 Cu26 Cu 0.12027 0.55493 0.66677
 Cu27 Cu -0.11615 0.43648 0.66893
 C28 C -0.01351 0.35262 0.61280
 C29 C -0.00903 0.62555 0.72310
 C30 C 0.01792 0.36869 0.72296
 C31 C 0.01293 0.63591 0.61236
 O32 O 0.64488 0.56213 0.37704
 O33 O 0.43198 0.35422 0.29701
 O34 O 0.65114 0.54336 0.29245
 O35 O 0.45838 0.34816 0.38054
 O36 O 0.35051 0.43421 0.37895
 O37 O 0.55830 0.64361 0.29692
 O38 O 0.33837 0.45461 0.29635
 O39 O 0.53484 0.64542 0.38283
 Cu40 Cu 0.55691 0.44338 0.33645
 Cu41 Cu 0.43794 0.55478 0.33834
 C42 C 0.62547 0.63925 0.39374
 C43 C 0.34721 0.36836 0.28351
 C44 C 0.64129 0.62982 0.28076
 C45 C 0.36901 0.35470 0.39356
 C46 C -0.09828 0.12029 0.52518
 C47 C -0.02178 0.07690 0.53535
 C48 C 0.05986 0.13116 0.56995
 C49 C 0.06279 0.22134 0.59409
 C50 C -0.01602 0.26088 0.58486
 C51 C -0.09796 0.20887 0.55062
 H52 H -0.15538 0.08937 0.49690
 H53 H 0.12507 0.10599 0.57766
 H54 H 0.12650 0.25967 0.62046
 H55 H -0.15866 0.23955 0.54265
 C56 C 0.80468 0.90413 0.21177
 C57 C 0.90391 0.90013 0.19402
 C58 C 0.91734 0.80540 0.20781
 C59 C 0.83027 0.71506 0.23454
 C60 C 0.72932 0.71859 0.24965
 C61 C 0.71833 0.81462 0.23798
 H62 H 0.79363 0.97846 0.20645
 H63 H 0.99793 0.80341 0.20069
 H64 H 0.84440 0.64471 0.24470
 H65 H 0.64433 0.82295 0.25021
 C66 C 0.22880 0.09508 -0.15245
 C67 C 0.10516 0.01836 -0.14315
 C68 C 0.07547 -0.06259 -0.10818
 C69 C 0.16284 -0.06292 -0.08256
 C70 C 0.28399 0.01746 -0.09052
 C71 C 0.31699 0.09721 -0.12544
 H72 H 0.25824 0.15165 -0.18090
 H73 H -0.01703 -0.12836 -0.10087
 H74 H 0.13515 -0.12559 -0.05590
 H75 H 0.41092 0.15854 -0.13257
 C76 C 0.09549 0.86873 0.52451
 C77 C 0.01568 0.90856 0.53470
 C78 C -0.06782 0.85132 0.56913
 C79 C -0.06923 0.76188 0.59324
 C80 C 0.01304 0.72607 0.58414
 C81 C 0.09651 0.78079 0.54989
 H82 H 0.15443 0.90209 0.49635
 H83 H -0.13510 0.87413 0.57684
 H84 H -0.13424 0.72152 0.61958
 H85 H 0.15992 0.75307 0.54198
 C86 C 0.12903 0.07623 0.23372
 C87 C 0.07540 0.10557 0.19969
 C88 C 0.11720 0.22681 0.19363
 C89 C 0.20280 0.31212 0.22150
 C90 C 0.25474 0.28001 0.25456
 C91 C 0.21678 0.16143 0.26043
 H92 H 0.10804 -0.01299 0.23870
 H93 H 0.09357 0.25873 0.16533
 H94 H 0.23325 0.40399 0.21572
 H95 H 0.25557 0.13431 0.28574
 C96 C 0.77886 -0.08929 -0.15206
 C97 C 0.90138 -0.01372 -0.14218
 C98 C 0.92922 0.06632 -0.10735
 C99 C 0.84027 0.06790 -0.08252
 C100 C 0.71948 -0.01067 -0.09116
 C101 C 0.68870 -0.09027 -0.12586
 H102 H 0.75223 -0.14541 -0.18040
 H103 H 1.02146 0.13015 -0.09954
 H104 H 0.86639 0.12988 -0.05587
 H105 H 0.59525 -0.15063 -0.13338
 C106 C 0.07832 -0.11261 0.12322
 C107 C 0.09187 -0.00487 0.13770
 C108 C 0.19117 0.09904 0.12031
 C109 C 0.27753 0.09678 0.09383
 C110 C 0.26648 -0.00991 0.08152
 C111 C 0.16535 -0.11496 0.09620
 H112 H -0.00231 -0.19550 0.13007
 H113 H 0.20230 0.18428 0.12618
 H114 H 0.35167 0.17957 0.08194
 H115 H 0.15123 -0.19915 0.08560
 C116 C 0.92313 0.85343 0.44182
 C117 C 0.89338 0.90572 0.47617
 C118 C 0.77051 0.86183 0.48502
 C119 C 0.68200 0.77576 0.45804
 C120 C 0.71448 0.72708 0.42357
 C121 C 0.83555 0.76588 0.41614
 H122 H 1.01571 0.87972 0.43502
 H123 H 0.74213 0.89128 0.51309
 H124 H 0.58827 0.74501 0.46476
 H125 H 0.86303 0.72979 0.38981
 C126 C 0.10013 0.22047 0.81100
 C127 C 0.02647 0.10011 0.79996
 C128 C -0.05274 0.07365 0.76438
 C129 C -0.05553 0.16115 0.74044
 C130 C 0.02061 0.27931 0.75069
 C131 C 0.09998 0.30897 0.78570
 H132 H 0.15512 0.24701 0.83986
 H133 H -0.11691 -0.01644 0.75573
 H134 H -0.11736 0.13607 0.71346
 H135 H 0.15858 0.40027 0.79443
 C136 C 0.87834 0.10801 0.13950
 C137 C 0.92035 0.02899 0.13280
 C138 C 0.86689 -0.05291 0.09840
 C139 C 0.77923 -0.05476 0.07192
 C140 C 0.74104 0.02545 0.07841
 C141 C 0.79272 0.10841 0.11188
 H142 H 0.90186 0.16266 0.16809
 H143 H 0.88798 -0.12086 0.09291
 H144 H 0.74078 -0.11978 0.04626
 H145 H 0.76219 0.16954 0.11813
 C146 C 0.22369 0.12819 0.48452
 C147 C 0.10076 0.08135 0.47561
 C148 C 0.07093 0.13267 0.44116
 C149 C 0.15863 0.22229 0.41557
 C150 C 0.27985 0.26421 0.42316
 C151 C 0.31243 0.21628 0.45758
 H152 H 0.25182 0.09961 0.51269
 H153 H -0.02176 0.10451 0.43432
 H154 H 0.13127 0.25786 0.38922
 H155 H 0.40627 0.24943 0.46436
 C156 C 0.07268 0.92292 0.76537
 C157 C -0.01131 0.89782 0.79959
 C158 C -0.09220 0.77829 0.80982
 C159 C -0.09331 0.68854 0.78488
 C160 C -0.00910 0.71628 0.75097
 C161 C 0.07390 0.83413 0.74172
 H162 H 0.14032 1.01277 0.75741
 H163 H -0.15202 0.75341 0.83771
 H164 H -0.15749 0.59758 0.79285
 H165 H 0.13933 0.85807 0.71557
   
