data_POSCAR
  _audit_creation_date              2014-09-24
  _audit_creation_method            'ToBaCCo'
  _symmetry_space_group_name_H-M    'P1'
  _symmetry_Int_Tables_number       1
  _symmetry_cell_setting            triclinic
  loop_
  _symmetry_equiv_pos_as_xyz
 x,y,z
_cell_length_a 28.4239
_cell_length_b 29.1548
_cell_length_c 39.9083
_cell_angle_alpha 90.196500
_cell_angle_beta 90.053000
_cell_angle_gamma 89.856100
loop_
  _atom_site_label
  _atom_site_type_symbol
  _atom_site_fract_x
  _atom_site_fract_y
  _atom_site_fract_z
C1 C 1.24863 0.25061 0.25132
 C2 C 0.75336 -0.24830 0.24863
 C3 C 0.74909 0.25007 -0.25086
 C4 C 1.25507 -0.25361 -0.24907
 C5 C 0.25102 0.25252 0.74909
 C6 C 0.74577 0.75086 0.75159
 C7 C 0.75057 0.24822 0.25158
 C8 C 0.24903 0.74879 0.24927
 O9 O 1.08254 0.02571 0.04106
 O10 O 0.92157 -0.02193 0.04064
 O11 O 0.97796 0.08034 0.04064
 O12 O 1.02625 -0.07695 0.04132
 O13 O 0.91288 0.05492 0.02229
 O14 O 1.09161 -0.05160 0.02348
 O15 O 0.94744 -0.08546 0.02224
 O16 O 1.05689 0.08868 0.02189
 C17 C 1.07598 0.06705 0.04505
 C18 C 0.92795 -0.06321 0.04503
 C19 C 0.93556 0.07453 0.04491
 C20 C 1.06867 -0.07136 0.04581
 O21 O 1.08321 -0.02364 -0.04186
 O22 O 0.92216 0.02538 -0.04273
 O23 O 1.02669 0.07928 -0.04256
 O24 O 0.97821 -0.07763 -0.04225
 O25 O 0.91309 -0.05143 -0.02431
 O26 O 1.09186 0.05365 -0.02422
 O27 O 1.05709 -0.08649 -0.02298
 O28 O 0.94777 0.08869 -0.02404
 Co29 Co 1.07915 0.00108 -0.00042
 Co30 Co 0.92552 0.00171 -0.00101
 Co31 Co 1.00231 0.07628 -0.00098
 Co32 Co 1.00224 -0.07365 -0.00046
 O33 O 1.00231 0.00135 -0.00073
 C34 C 1.07718 -0.06505 -0.04576
 C35 C 0.92832 0.06670 -0.04695
 C36 C 1.06913 0.07336 -0.04676
 C37 C 0.93588 -0.07128 -0.04677
 O38 O 1.07970 0.52884 0.54212
 O39 O 0.91894 0.47951 0.54212
 O40 O 0.97414 0.58281 0.54162
 O41 O 1.02425 0.42615 0.54290
 O42 O 0.90948 0.55628 0.52326
 O43 O 1.08920 0.45174 0.52460
 O44 O 0.94557 0.41626 0.52379
 O45 O 1.05324 0.59162 0.52313
 C46 C 1.07274 0.57009 0.54620
 C47 C 0.92553 0.43824 0.54648
 C48 C 0.93181 0.57629 0.54585
 C49 C 1.06650 0.43287 0.54741
 O50 O 1.08031 0.47937 0.45924
 O51 O 0.91891 0.52639 0.45856
 O52 O 1.02341 0.58175 0.45844
 O53 O 0.97626 0.42419 0.45932
 O54 O 0.91080 0.44959 0.47715
 O55 O 1.08865 0.55685 0.47697
 O56 O 1.05506 0.41645 0.47856
 O57 O 0.94428 0.59008 0.47686
 Co58 Co 1.07636 0.50414 0.50069
 Co59 Co 0.92264 0.50300 0.50032
 Co60 Co 0.99885 0.57864 0.50006
 Co61 Co 1.00021 0.42870 0.50109
 O62 O 0.99951 0.50364 0.50054
 C63 C 1.07410 0.43796 0.45539
 C64 C 0.92533 0.56760 0.45398
 C65 C 1.06589 0.57607 0.45425
 C66 C 0.93387 0.42999 0.45471
 O67 O 0.57770 0.02048 0.54212
 O68 O 0.41652 -0.02747 0.53949
 O69 O 0.47397 0.07527 0.54100
 O70 O 0.52000 -0.08251 0.54125
 O71 O 0.40897 0.04978 0.52223
 O72 O 0.58595 -0.05679 0.52467
 O73 O 0.44180 -0.09055 0.52025
 O74 O 0.55334 0.08370 0.52272
 C75 C 0.57209 0.06198 0.54598
 C76 C 0.42242 -0.06888 0.54332
 C77 C 0.43151 0.06931 0.54500
 C78 C 0.56203 -0.07580 0.54681
 O79 O 0.57976 -0.02891 0.45911
 O80 O 0.41930 0.02187 0.45680
 O81 O 0.52385 0.07496 0.45813
 O82 O 0.47518 -0.08186 0.45674
 O83 O 0.40960 -0.05514 0.47359
 O84 O 0.58841 0.04821 0.47681
 O85 O 0.55328 -0.09162 0.47777
 O86 O 0.44460 0.08463 0.47652
 Co87 Co 0.57497 -0.00419 0.50055
 Co88 Co 0.42160 -0.00282 0.49816
 Co89 Co 0.49887 0.07157 0.49957
 Co90 Co 0.49764 -0.07866 0.49903
 O91 O 0.49828 -0.00353 0.49932
 C92 C 0.57336 -0.07023 0.45502
 C93 C 0.42571 0.06320 0.45314
 C94 C 0.56622 0.06817 0.45412
 C95 C 0.43313 -0.07476 0.45133
 O96 O 0.57881 0.52430 0.04315
 O97 O 0.41889 0.47241 0.04250
 O98 O 0.47352 0.57652 0.04268
 O99 O 0.52332 0.41977 0.04384
 O100 O 0.40887 0.54918 0.02480
 O101 O 0.58854 0.44678 0.02673
 O102 O 0.44513 0.40955 0.02349
 O103 O 0.55228 0.58648 0.02328
 C104 C 0.57217 0.56573 0.04651
 C105 C 0.42545 0.43113 0.04647
 C106 C 0.43139 0.56932 0.04733
 C107 C 0.56539 0.42696 0.04895
 O108 O 0.58058 0.47309 -0.03930
 O109 O 0.41881 0.52024 -0.04062
 O110 O 0.52184 0.57612 -0.04067
 O111 O 0.47749 0.41825 -0.04028
 O112 O 0.41155 0.44358 -0.02308
 O113 O 0.58745 0.55075 -0.02258
 O114 O 0.55602 0.41029 -0.01967
 O115 O 0.44256 0.58385 -0.02168
 Co116 Co 0.57582 0.49859 0.00194
 Co117 Co 0.42243 0.49649 0.00098
 Co118 Co 0.49764 0.57273 0.00097
 Co119 Co 0.50031 0.42247 0.00179
 O120 O 0.49907 0.49759 0.00144
 C121 C 0.57509 0.43157 -0.04291
 C122 C 0.42479 0.56145 -0.04502
 C123 C 0.56431 0.57027 -0.04502
 C124 C 0.43535 0.42481 -0.04555
 C125 C 1.13276 0.13095 0.12668
 C126 C 1.18207 0.13765 0.12702
 C127 C 1.20371 0.15921 0.15497
 C128 C 1.17582 0.17452 0.18221
 C129 C 1.12657 0.16763 0.18198
 C130 C 1.10492 0.14570 0.15411
 C131 C 1.05555 0.13945 0.15427
 C132 C 1.02835 0.15458 0.18119
 C133 C 1.04956 0.17595 0.20847
 C134 C 1.09813 0.18249 0.20901
 C135 C 1.25316 0.16534 0.15481
 C136 C 1.28028 0.15121 0.12760
 C137 C 1.25904 0.13042 0.10014
 C138 C 1.21056 0.12349 0.09975
 C139 C 1.19801 0.19982 0.20920
 C140 C 1.21930 0.22209 0.22963
 C141 C 1.11106 0.10882 0.09803
 C142 C 1.09445 0.09004 0.07388
 H143 H 1.03749 0.12301 0.13359
 H144 H 0.99062 0.14984 0.18085
 H145 H 1.02826 0.18759 0.22932
 H146 H 1.11312 0.19924 0.23077
 H147 H 1.27144 0.18121 0.17560
 H148 H 1.31796 0.15647 0.12783
 H149 H 1.28024 0.11951 0.07903
 H150 H 1.19575 0.10705 0.07782
 C151 C 1.12655 0.63399 0.62904
 C152 C 1.13102 0.68232 0.62978
 C153 C 1.15308 0.70403 0.65754
 C154 C 1.17102 0.67722 0.68420
 C155 C 1.16528 0.62903 0.68397
 C156 C 1.14287 0.60732 0.65631
 C157 C 1.13789 0.55902 0.65646
 C158 C 1.15458 0.53293 0.68318
 C159 C 1.17654 0.55421 0.71022
 C160 C 1.18195 0.60171 0.71073
 C161 C 1.15723 0.75243 0.65770
 C162 C 1.14056 0.77855 0.63102
 C163 C 1.11925 0.75728 0.60377
 C164 C 1.11435 0.70974 0.60304
 C165 C 1.19864 0.69918 0.71024
 C166 C 1.22325 0.71935 0.72995
 C167 C 1.10666 0.61168 0.59974
 C168 C 1.09086 0.59303 0.57523
 H169 H 1.12103 0.54094 0.63601
 H170 H 1.15047 0.49602 0.68289
 H171 H 1.18944 0.53381 0.73091
 H172 H 1.19912 0.61679 0.73233
 H173 H 1.17343 0.77062 0.67836
 H174 H 1.14425 0.81550 0.63150
 H175 H 1.10637 0.77771 0.58308
 H176 H 1.09736 0.69479 0.58134
 C177 C 0.63105 0.12637 0.62691
 C178 C 0.68069 0.13030 0.62776
 C179 C 0.70291 0.15296 0.65506
 C180 C 0.67535 0.17201 0.68122
 C181 C 0.62578 0.16758 0.68062
 C182 C 0.60353 0.14460 0.65339
 C183 C 0.55390 0.14078 0.65325
 C184 C 0.52700 0.15922 0.67922
 C185 C 0.54876 0.18167 0.70582
 C186 C 0.59759 0.18591 0.70664
 C187 C 0.75262 0.15634 0.65535
 C188 C 0.77954 0.13833 0.62927
 C189 C 0.75779 0.11639 0.60249
 C190 C 0.70899 0.11223 0.60164
 C191 C 0.69832 0.19828 0.70749
 C192 C 0.71988 0.22108 0.72754
 C193 C 0.60864 0.10388 0.59858
 C194 C 0.59137 0.08496 0.57466
 H195 H 0.53541 0.12361 0.63310
 H196 H 0.48906 0.15618 0.67868
 H197 H 0.52769 0.19591 0.72592
 H198 H 0.61300 0.20360 0.72785
 H199 H 0.77128 0.17293 0.67567
 H200 H 0.81747 0.14144 0.62986
 H201 H 0.77885 0.10244 0.58228
 H202 H 0.69378 0.09474 0.58029
 C203 C 0.63098 0.63504 0.12503
 C204 C 0.66880 0.66511 0.11828
 C205 C 0.69211 0.68766 0.14511
 C206 C 0.67714 0.68035 0.17852
 C207 C 0.63862 0.65116 0.18522
 C208 C 0.61551 0.62829 0.15837
 C209 C 0.57722 0.59904 0.16562
 C210 C 0.56205 0.59275 0.19849
 C211 C 0.58456 0.61527 0.22473
 C212 C 0.62250 0.64413 0.21833
 C213 C 0.73020 0.71723 0.13777
 C214 C 0.74441 0.72475 0.10485
 C215 C 0.72143 0.70285 0.07858
 C216 C 0.68414 0.67323 0.08506
 C217 C 0.70165 0.70332 0.20561
 C218 C 0.72401 0.72409 0.22631
 C219 C 0.60887 0.61040 0.09766
 C220 C 0.59162 0.58997 0.07446
 H221 H 0.55846 0.58101 0.14601
 H222 H 0.53255 0.57043 0.20359
 H223 H 0.57257 0.61033 0.25020
 H224 H 0.63897 0.66091 0.23953
 H225 H 0.74942 0.73489 0.15730
 H226 H 0.77341 0.74769 0.09973
 H227 H 0.73260 0.70875 0.05303
 H228 H 0.66742 0.65699 0.06376
 C229 C 0.86948 -0.12570 0.12634
 C230 C 0.89666 -0.13905 0.15445
 C231 C 0.87466 -0.16126 0.18194
 C232 C 0.82569 -0.16976 0.18114
 C233 C 0.79839 -0.15569 0.15328
 C234 C 0.82040 -0.13385 0.12571
 C235 C 0.79253 -0.12092 0.09784
 C236 C 0.74430 -0.12933 0.09725
 C237 C 0.72271 -0.15043 0.12431
 C238 C 0.74921 -0.16336 0.15210
 C239 C 0.90250 -0.17481 0.20960
 C240 C 0.95080 -0.16662 0.21012
 C241 C 0.97234 -0.14488 0.18325
 C242 C 0.94574 -0.13112 0.15568
 C243 C 0.80334 -0.19560 0.20767
 C244 C 0.78219 -0.21855 0.22764
 C245 C 0.89170 -0.10384 0.09789
 C246 C 0.90881 -0.08550 0.07383
 H247 H 0.80763 -0.10430 0.07619
 H248 H 0.72358 -0.11934 0.07569
 H249 H 0.68522 -0.15685 0.12378
 H250 H 0.73066 -0.17950 0.17256
 H251 H 0.88724 -0.19178 0.23107
 H252 H 0.97163 -0.17724 0.23146
 H253 H 1.00986 -0.13875 0.18375
 H254 H 0.96404 -0.11435 0.13536
 C255 C 0.86718 0.37117 0.62608
 C256 C 0.87786 0.38328 0.65964
 C257 C 0.85567 0.35985 0.68653
 C258 C 0.82283 0.32464 0.67969
 C259 C 0.81247 0.31227 0.64611
 C260 C 0.83484 0.33545 0.61925
 C261 C 0.82410 0.32224 0.58593
 C262 C 0.79214 0.28717 0.57933
 C263 C 0.77008 0.26464 0.60557
 C264 C 0.77991 0.27696 0.63859
 C265 C 0.86698 0.37241 0.71984
 C266 C 0.89935 0.40713 0.72642
 C267 C 0.92098 0.43009 0.70015
 C268 C 0.91044 0.41849 0.66708
 C269 C 0.79922 0.30086 0.70678
 C270 C 0.77766 0.27912 0.72733
 C271 C 0.88883 0.39560 0.59846
 C272 C 0.90594 0.41534 0.57495
 H273 H 0.84030 0.33874 0.56463
 H274 H 0.78441 0.27750 0.55370
 H275 H 0.74518 0.23748 0.60034
 H276 H 0.76165 0.25850 0.65807
 H277 H 0.85101 0.35548 0.74106
 H278 H 0.90773 0.41624 0.75206
 H279 H 0.94630 0.45681 0.70542
 H280 H 0.92828 0.43720 0.64748
 C281 C 0.36750 -0.13536 0.62424
 C282 C 0.38187 -0.12429 0.65728
 C283 C 0.36166 -0.14763 0.68497
 C284 C 0.32710 -0.18166 0.67939
 C285 C 0.31312 -0.19306 0.64630
 C286 C 0.33326 -0.16973 0.61866
 C287 C 0.31837 -0.18139 0.58584
 C288 C 0.28461 -0.21522 0.58049
 C289 C 0.26509 -0.23825 0.60751
 C290 C 0.27908 -0.22750 0.64005
 C291 C 0.37658 -0.13616 0.71775
 C292 C 0.41045 -0.10240 0.72307
 C293 C 0.43005 -0.07937 0.69602
 C294 C 0.41609 -0.09009 0.66344
 C295 C 0.30478 -0.20468 0.70731
 C296 C 0.28370 -0.22566 0.72847
 C297 C 0.38761 -0.11139 0.59589
 C298 C 0.40368 -0.09188 0.57196
 H299 H 0.33259 -0.16454 0.56398
 H300 H 0.27363 -0.22366 0.55524
 H301 H 0.23896 -0.26461 0.60325
 H302 H 0.26299 -0.24660 0.66016
 H303 H 0.36229 -0.15318 0.73954
 H304 H 0.42153 -0.09404 0.74831
 H305 H 0.45632 -0.05317 0.70029
 H306 H 0.43245 -0.07140 0.64319
 C307 C 0.36821 0.36527 0.12662
 C308 C 0.38448 0.37328 0.15967
 C309 C 0.36210 0.35135 0.18709
 C310 C 0.32343 0.32196 0.18123
 C311 C 0.30750 0.31357 0.14811
 C312 C 0.33018 0.33507 0.12071
 C313 C 0.31401 0.32577 0.08779
 C314 C 0.27645 0.29609 0.08215
 C315 C 0.25401 0.27529 0.10899
 C316 C 0.26908 0.28394 0.14162
 C317 C 0.37909 0.35948 0.21989
 C318 C 0.41711 0.38865 0.22546
 C319 C 0.43885 0.41035 0.19866
 C320 C 0.42286 0.40288 0.16607
 C321 C 0.29983 0.29960 0.20882
 C322 C 0.27788 0.27883 0.22958
 C323 C 0.38975 0.38869 0.09864
 C324 C 0.40650 0.40807 0.07494
 H325 H 0.33026 0.34116 0.06607
 H326 H 0.26464 0.28929 0.05683
 H327 H 0.22477 0.25231 0.10454
 H328 H 0.25024 0.26711 0.16159
 H329 H 0.36321 0.34338 0.24149
 H330 H 0.42976 0.39446 0.25071
 H331 H 0.46840 0.43291 0.20311
 H332 H 0.44107 0.42026 0.14600
 C333 C 0.86875 0.13029 -0.12780
 C334 C 0.89541 0.14321 -0.15620
 C335 C 0.87295 0.16531 -0.18366
 C336 C 0.82399 0.17419 -0.18256
 C337 C 0.79725 0.16073 -0.15431
 C338 C 0.81974 0.13904 -0.12678
 C339 C 0.79239 0.12677 -0.09856
 C340 C 0.74422 0.13564 -0.09759
 C341 C 0.72215 0.15652 -0.12462
 C342 C 0.74812 0.16882 -0.15275
 C343 C 0.90031 0.17828 -0.21164
 C344 C 0.94857 0.16969 -0.21249
 C345 C 0.97055 0.14810 -0.18567
 C346 C 0.94444 0.13487 -0.15779
 C347 C 0.80100 0.19936 -0.20933
 C348 C 0.77913 0.22153 -0.22953
 C349 C 0.89138 0.10804 -0.09952
 C350 C 0.90883 0.08935 -0.07562
 H351 H 0.80787 0.11033 -0.07691
 H352 H 0.72390 0.12615 -0.07576
 H353 H 0.68470 0.16328 -0.12379
 H354 H 0.72920 0.18483 -0.17315
 H355 H 0.88469 0.19510 -0.23309
 H356 H 0.96903 0.17987 -0.23407
 H357 H 1.00805 0.14165 -0.18644
 H358 H 0.96307 0.11821 -0.13752
 C359 C 0.86906 0.62881 0.37119
 C360 C 0.89747 0.64697 0.34532
 C361 C 0.87606 0.66915 0.31751
 C362 C 0.82647 0.67278 0.31574
 C363 C 0.79805 0.65353 0.34119
 C364 C 0.81942 0.63173 0.36909
 C365 C 0.79029 0.61357 0.39457
 C366 C 0.74147 0.61683 0.39249
 C367 C 0.72054 0.63793 0.36509
 C368 C 0.74830 0.65599 0.33963
 C369 C 0.90505 0.68759 0.29213
 C370 C 0.95390 0.68415 0.29414
 C371 C 0.97487 0.66245 0.32132
 C372 C 0.94715 0.64396 0.34669
 C373 C 0.80423 0.69908 0.28933
 C374 C 0.78284 0.72216 0.26948
 C375 C 0.89053 0.60751 0.40023
 C376 C 0.90697 0.58955 0.42473
 H377 H 0.80485 0.59671 0.41636
 H378 H 0.71977 0.60284 0.41223
 H379 H 0.68259 0.64033 0.36354
 H380 H 0.73027 0.67192 0.31879
 H381 H 0.89026 0.70471 0.27050
 H382 H 0.97560 0.69843 0.27451
 H383 H 1.01282 0.66004 0.32279
 H384 H 0.96503 0.62739 0.36734
 C385 C 0.36761 0.12717 0.37227
 C386 C 0.39519 0.14757 0.34685
 C387 C 0.37281 0.17033 0.31969
 C388 C 0.32311 0.17235 0.31817
 C389 C 0.29556 0.15095 0.34316
 C390 C 0.31788 0.12849 0.37039
 C391 C 0.28960 0.10800 0.39540
 C392 C 0.24068 0.10967 0.39351
 C393 C 0.21883 0.13147 0.36678
 C394 C 0.24575 0.15181 0.34179
 C395 C 0.40095 0.19092 0.29472
 C396 C 0.44991 0.18908 0.29652
 C397 C 0.47182 0.16685 0.32309
 C398 C 0.44495 0.14619 0.34802
 C399 C 0.29984 0.19878 0.29233
 C400 C 0.27801 0.22167 0.27263
 C401 C 0.39000 0.10511 0.40060
 C402 C 0.40702 0.08633 0.42454
 H403 H 0.30490 0.09052 0.41667
 H404 H 0.21963 0.09390 0.41288
 H405 H 0.18081 0.13264 0.36538
 H406 H 0.22703 0.16818 0.32144
 H407 H 0.38542 0.20853 0.27357
 H408 H 0.47095 0.20503 0.27722
 H409 H 0.50984 0.16570 0.32443
 H410 H 0.46355 0.12925 0.36818
 C411 C 0.37635 0.62075 -0.13105
 C412 C 0.39526 0.66270 -0.14255
 C413 C 0.37406 0.68554 -0.17011
 C414 C 0.33428 0.66612 -0.18605
 C415 C 0.31752 0.62258 -0.17610
 C416 C 0.33865 0.59978 -0.14849
 C417 C 0.32107 0.55643 -0.13877
 C418 C 0.28376 0.53614 -0.15594
 C419 C 0.26303 0.55852 -0.18292
 C420 C 0.27950 0.60132 -0.19294
 C421 C 0.39302 0.72784 -0.18086
 C422 C 0.43212 0.74684 -0.16498
 C423 C 0.45300 0.72438 -0.13811
 C424 C 0.43486 0.68283 -0.12685
 C425 C 0.30812 0.69273 -0.21042
 C426 C 0.28494 0.71621 -0.22898
 C427 C 0.39426 0.60018 -0.10054
 C428 C 0.40839 0.58297 -0.07504
 H429 H 0.33616 0.53764 -0.11801
 H430 H 0.27089 0.50288 -0.14829
 H431 H 0.23407 0.54261 -0.19619
 H432 H 0.26244 0.61732 -0.21418
 H433 H 0.37812 0.74642 -0.20179
 H434 H 0.44632 0.77912 -0.17362
 H435 H 0.48341 0.73923 -0.12589
 H436 H 0.45235 0.66655 -0.10591
 C437 C 1.13833 -0.13215 -0.12462
 C438 C 1.12794 -0.12006 -0.15817
 C439 C 1.15073 -0.14332 -0.18502
 C440 C 1.18380 -0.17841 -0.17811
 C441 C 1.19424 -0.19046 -0.14455
 C442 C 1.17139 -0.16730 -0.11773
 C443 C 1.18237 -0.17997 -0.08439
 C444 C 1.21505 -0.21448 -0.07775
 C445 C 1.23746 -0.23710 -0.10397
 C446 C 1.22732 -0.22539 -0.13702
 C447 C 1.13981 -0.13074 -0.21834
 C448 C 1.10732 -0.09603 -0.22496
 C449 C 1.08511 -0.07319 -0.19872
 C450 C 1.09512 -0.08496 -0.16564
 C451 C 1.20724 -0.20259 -0.20520
 C452 C 1.22810 -0.22453 -0.22612
 C453 C 1.11564 -0.10817 -0.09709
 C454 C 1.09764 -0.08848 -0.07379
 H455 H 1.16588 -0.16340 -0.06312
 H456 H 1.22301 -0.22370 -0.05211
 H457 H 1.26285 -0.26387 -0.09871
 H458 H 1.24576 -0.24404 -0.15649
 H459 H 1.15625 -0.14753 -0.23955
 H460 H 1.09933 -0.08682 -0.25060
 H461 H 1.05978 -0.04640 -0.20400
 H462 H 1.07684 -0.06634 -0.14607
 C463 C 1.12964 0.36970 0.37520
 C464 C 1.12003 0.38339 0.34187
 C465 C 1.14192 0.36007 0.31469
 C466 C 1.17334 0.32342 0.32109
 C467 C 1.18229 0.30922 0.35442
 C468 C 1.16024 0.33235 0.38155
 C469 C 1.16962 0.31750 0.41466
 C470 C 1.20000 0.28086 0.42076
 C471 C 1.22175 0.25833 0.39422
 C472 C 1.21319 0.27224 0.36142
 C473 C 1.13187 0.37424 0.28158
 C474 C 1.10101 0.41052 0.27549
 C475 C 1.07967 0.43342 0.30208
 C476 C 1.08897 0.42018 0.33495
 C477 C 1.19738 0.30034 0.29382
 C478 C 1.21946 0.27911 0.27320
 C479 C 1.10899 0.39445 0.40309
 C480 C 1.09275 0.41456 0.42680
 H481 H 1.15357 0.33391 0.43616
 H482 H 1.20672 0.26995 0.44622
 H483 H 1.24541 0.22995 0.39906
 H484 H 1.23108 0.25365 0.34169
 H485 H 1.14766 0.35741 0.26014
 H486 H 1.09361 0.42090 0.25001
 H487 H 1.05564 0.46147 0.29720
 H488 H 1.07141 0.43889 0.35481
 C489 C 0.63106 -0.13669 0.37471
 C490 C 0.61805 -0.12515 0.34152
 C491 C 0.64089 -0.14680 0.31400
 C492 C 0.67663 -0.17966 0.31991
 C493 C 0.68892 -0.19189 0.35313
 C494 C 0.66593 -0.17046 0.38061
 C495 C 0.67864 -0.18340 0.41358
 C496 C 0.71310 -0.21659 0.41923
 C497 C 0.73577 -0.23742 0.39235
 C498 C 0.72407 -0.22526 0.35966
 C499 C 0.62737 -0.13485 0.28104
 C500 C 0.59222 -0.10232 0.27542
 C501 C 0.56996 -0.08102 0.30233
 C502 C 0.58259 -0.09217 0.33506
 C503 C 0.70126 -0.20118 0.29222
 C504 C 0.72378 -0.22114 0.27116
 C505 C 0.60959 -0.11312 0.40286
 C506 C 0.59271 -0.09355 0.42659
 H507 H 0.66202 -0.16818 0.43533
 H508 H 0.72229 -0.22613 0.44460
 H509 H 0.76258 -0.26314 0.39682
 H510 H 0.74289 -0.24234 0.33965
 H511 H 0.64374 -0.15053 0.25936
 H512 H 0.58222 -0.09359 0.25005
 H513 H 0.54267 -0.05581 0.29783
 H514 H 0.56414 -0.07487 0.35519
 C515 C 0.63163 0.36478 -0.12370
 C516 C 0.61286 0.37060 -0.15631
 C517 C 0.63457 0.34850 -0.18414
 C518 C 0.67512 0.32109 -0.17920
 C519 C 0.69354 0.31484 -0.14650
 C520 C 0.67153 0.33646 -0.11867
 C521 C 0.69022 0.32917 -0.08619
 C522 C 0.72955 0.30133 -0.08137
 C523 C 0.75132 0.28046 -0.10860
 C524 C 0.73382 0.28718 -0.14083
 C525 C 0.61500 0.35446 -0.21643
 C526 C 0.57512 0.38163 -0.22115
 C527 C 0.55405 0.40347 -0.19398
 C528 C 0.57255 0.39813 -0.16187
 C529 C 0.69810 0.29858 -0.20728
 C530 C 0.71973 0.27792 -0.22852
 C531 C 0.61062 0.38843 -0.09533
 C532 C 0.59411 0.40808 -0.07145
 H533 H 0.67458 0.34470 -0.06419
 H534 H 0.74324 0.29600 -0.05636
 H535 H 0.78193 0.25891 -0.10477
 H536 H 0.75224 0.27040 -0.16115
 H537 H 0.63027 0.33817 -0.23829
 H538 H 0.56051 0.38577 -0.24601
 H539 H 0.52303 0.42445 -0.19777
 H540 H 0.55476 0.41554 -0.14149
 C541 C 1.13255 0.13570 -0.12629
 C542 C 1.16223 0.17376 -0.12013
 C543 C 1.18367 0.19686 -0.14739
 C544 C 1.17547 0.18164 -0.18064
 C545 C 1.14516 0.14414 -0.18685
 C546 C 1.12360 0.12107 -0.15957
 C547 C 1.09336 0.08367 -0.16636
 C548 C 1.08456 0.06960 -0.19918
 C549 C 1.10565 0.09219 -0.22584
 C550 C 1.13571 0.12904 -0.21989
 C551 C 1.21307 0.23501 -0.14061
 C552 C 1.22102 0.24984 -0.10788
 C553 C 1.20013 0.22713 -0.08122
 C554 C 1.17108 0.18951 -0.08712
 C555 C 1.19939 0.20433 -0.20801
 C556 C 1.22148 0.22501 -0.22879
 C557 C 1.11065 0.11228 -0.09835
 C558 C 1.09215 0.09384 -0.07485
 H559 H 1.07608 0.06509 -0.14645
 H560 H 1.06112 0.04112 -0.20394
 H561 H 1.09865 0.08114 -0.25127
 H562 H 1.15127 0.14564 -0.24140
 H563 H 1.23009 0.25392 -0.16044
 H564 H 1.24349 0.27911 -0.10322
 H565 H 1.20643 0.23874 -0.05582
 H566 H 1.15562 0.17302 -0.06553
 C567 C 1.13070 0.63607 0.37406
 C568 C 1.16387 0.67130 0.38010
 C569 C 1.18637 0.69326 0.35274
 C570 C 1.17542 0.68006 0.31942
 C571 C 1.14186 0.64522 0.31334
 C572 C 1.11948 0.62308 0.34075
 C573 C 1.08609 0.58831 0.33406
 C574 C 1.07494 0.57592 0.30124
 C575 C 1.09680 0.59759 0.27448
 C576 C 1.12996 0.63184 0.28032
 C577 C 1.21959 0.72827 0.35949
 C578 C 1.22999 0.74145 0.39224
 C579 C 1.20786 0.72007 0.41898
 C580 C 1.17524 0.68534 0.41314
 C581 C 1.19926 0.70252 0.29179
 C582 C 1.22127 0.72307 0.27078
 C583 C 1.10786 0.61370 0.40217
 C584 C 1.08894 0.59600 0.42586
 H585 H 1.06811 0.57053 0.35405
 H586 H 1.04911 0.54945 0.29656
 H587 H 1.08799 0.58782 0.24905
 H588 H 1.14607 0.64777 0.25873
 H589 H 1.23790 0.74585 0.33961
 H590 H 1.25536 0.76838 0.39688
 H591 H 1.21605 0.73041 0.44440
 H592 H 1.15904 0.66973 0.43479
 C593 C 0.63327 0.12729 0.37477
 C594 C 0.67093 0.15775 0.38125
 C595 C 0.69361 0.18027 0.35425
 C596 C 0.67825 0.17250 0.32091
 C597 C 0.64056 0.14212 0.31442
 C598 C 0.61808 0.11929 0.34145
 C599 C 0.58054 0.08895 0.33438
 C600 C 0.56551 0.08152 0.30155
 C601 C 0.58734 0.10405 0.27516
 C602 C 0.62450 0.13403 0.28138
 C603 C 0.73132 0.21050 0.36138
 C604 C 0.74581 0.21861 0.39421
 C605 C 0.72348 0.19671 0.42063
 C606 C 0.68654 0.16652 0.41437
 C607 C 0.70117 0.19667 0.29376
 C608 C 0.72230 0.21878 0.27324
 C609 C 0.60961 0.10513 0.40253
 C610 C 0.58999 0.08770 0.42598
 H611 H 0.56238 0.07077 0.35409
 H612 H 0.53668 0.05827 0.29659
 H613 H 0.57545 0.09825 0.24973
 H614 H 0.64048 0.15076 0.26007
 H615 H 0.75005 0.22820 0.34174
 H616 H 0.77453 0.24202 0.39916
 H617 H 0.73487 0.20308 0.44611
 H618 H 0.67039 0.15023 0.43578
 C619 C 0.62882 0.63137 -0.12451
 C620 C 0.66979 0.65771 -0.11865
 C621 C 0.69222 0.68019 -0.14577
 C622 C 0.67334 0.67643 -0.17854
 C623 C 0.63214 0.65048 -0.18435
 C624 C 0.60976 0.62785 -0.15722
 C625 C 0.56839 0.60231 -0.16354
 C626 C 0.54967 0.59925 -0.19576
 C627 C 0.57163 0.62135 -0.22229
 C628 C 0.61243 0.64672 -0.21680
 C629 C 0.73321 0.70635 -0.13929
 C630 C 0.75112 0.71064 -0.10694
 C631 C 0.72906 0.68876 -0.08040
 C632 C 0.68895 0.66244 -0.08605
 C633 C 0.69613 0.70043 -0.20576
 C634 C 0.71727 0.72215 -0.22645
 C635 C 0.60596 0.60865 -0.09670
 C636 C 0.58710 0.59058 -0.07322
 H637 H 0.55006 0.58457 -0.14369
 H638 H 0.51797 0.57963 -0.20016
 H639 H 0.55696 0.61884 -0.24727
 H640 H 0.62829 0.66337 -0.23818
 H641 H 0.75185 0.72385 -0.15908
 H642 H 0.78229 0.73105 -0.10247
 H643 H 0.74310 0.69215 -0.05529
 H644 H 0.67310 0.64604 -0.06457
 C645 C 0.86878 -0.12925 -0.12691
 C646 C 0.82049 -0.14029 -0.12390
 C647 C 0.79683 -0.16229 -0.15084
 C648 C 0.82168 -0.17342 -0.18055
 C649 C 0.86982 -0.16204 -0.18369
 C650 C 0.89349 -0.13986 -0.15676
 C651 C 0.94178 -0.12921 -0.16031
 C652 C 0.96599 -0.14025 -0.18962
 C653 C 0.94280 -0.16184 -0.21597
 C654 C 0.89523 -0.17269 -0.21318
 C655 C 0.74852 -0.17307 -0.14721
 C656 C 0.72450 -0.16289 -0.11770
 C657 C 0.74771 -0.14152 -0.09130
 C658 C 0.79511 -0.13016 -0.09425
 C659 C 0.79782 -0.19861 -0.20690
 C660 C 0.77570 -0.22077 -0.22697
 C661 C 0.89308 -0.10800 -0.09893
 C662 C 0.91274 -0.09091 -0.07525
 H663 H 0.96132 -0.11239 -0.14051
 H664 H 1.00295 -0.13208 -0.19188
 H665 H 0.96177 -0.17029 -0.23868
 H666 H 0.87863 -0.18948 -0.23432
 H667 H 0.72878 -0.18954 -0.16705
 H668 H 0.68766 -0.17163 -0.11531
 H669 H 0.72890 -0.13364 -0.06841
 H670 H 0.81157 -0.11346 -0.07303
 C671 C 0.86884 0.37147 0.37384
 C672 C 0.81995 0.36255 0.37535
 C673 C 0.79727 0.33999 0.34821
 C674 C 0.82369 0.32615 0.31981
 C675 C 0.87242 0.33564 0.31808
 C676 C 0.89510 0.35841 0.34519
 C677 C 0.94397 0.36716 0.34304
 C678 C 0.96969 0.35370 0.31494
 C679 C 0.94748 0.33151 0.28843
 C680 C 0.89938 0.32249 0.28984
 C681 C 0.74833 0.33138 0.35033
 C682 C 0.72270 0.34422 0.37859
 C683 C 0.74493 0.36612 0.40519
 C684 C 0.79295 0.37537 0.40370
 C685 C 0.80077 0.30006 0.29347
 C686 C 0.77946 0.27724 0.27332
 C687 C 0.89215 0.39294 0.40219
 C688 C 0.91117 0.41018 0.42609
 H689 H 0.96279 0.38437 0.36302
 H690 H 1.00707 0.36044 0.31375
 H691 H 0.96763 0.32117 0.26666
 H692 H 0.88359 0.30517 0.26862
 H693 H 0.72933 0.31459 0.33027
 H694 H 0.68537 0.33713 0.37984
 H695 H 0.72486 0.37606 0.42709
 H696 H 0.80860 0.39261 0.42500
 C697 C 0.36911 -0.12888 0.36825
 C698 C 0.31934 -0.12986 0.36686
 C699 C 0.29634 -0.15166 0.33950
 C700 C 0.32322 -0.17276 0.31382
 C701 C 0.37295 -0.17070 0.31471
 C702 C 0.39600 -0.14859 0.34198
 C703 C 0.44577 -0.14728 0.34245
 C704 C 0.47202 -0.16736 0.31678
 C705 C 0.44946 -0.18901 0.29017
 C706 C 0.40048 -0.19078 0.28902
 C707 C 0.24652 -0.15232 0.33875
 C708 C 0.22022 -0.13245 0.36443
 C709 C 0.24271 -0.11133 0.39126
 C710 C 0.29167 -0.10987 0.39256
 C711 C 0.29937 -0.19942 0.28815
 C712 C 0.27716 -0.22288 0.26882
 C713 C 0.39239 -0.10903 0.39730
 C714 C 0.41107 -0.09310 0.42187
 H715 H 0.46488 -0.13078 0.36261
 H716 H 0.51006 -0.16621 0.31757
 H717 H 0.47001 -0.20456 0.27030
 H718 H 0.38445 -0.20790 0.26779
 H719 H 0.22733 -0.16818 0.31837
 H720 H 0.18217 -0.13347 0.36350
 H721 H 0.22212 -0.09592 0.41115
 H722 H 0.30752 -0.09289 0.41390
 C723 C 0.37352 0.37306 -0.12994
 C724 C 0.32453 0.37881 -0.13475
 C725 C 0.30186 0.35676 -0.16210
 C726 C 0.32841 0.32935 -0.18458
 C727 C 0.37770 0.32519 -0.18061
 C728 C 0.40037 0.34709 -0.15315
 C729 C 0.44963 0.34192 -0.14936
 C730 C 0.47569 0.31578 -0.17205
 C731 C 0.45350 0.29450 -0.19898
 C732 C 0.40504 0.29900 -0.20331
 C733 C 0.25264 0.36227 -0.16605
 C734 C 0.22666 0.38896 -0.14368
 C735 C 0.24890 0.41070 -0.11701
 C736 C 0.29726 0.40583 -0.11247
 C737 C 0.30419 0.30306 -0.21015
 C738 C 0.28162 0.28052 -0.22972
 C739 C 0.39574 0.39206 -0.10030
 C740 C 0.41374 0.40723 -0.07530
 H741 H 0.46847 0.35803 -0.12891
 H742 H 0.51330 0.31201 -0.16875
 H743 H 0.47394 0.27435 -0.21658
 H744 H 0.38929 0.28186 -0.22463
 H745 H 0.23372 0.34620 -0.18647
 H746 H 0.18908 0.39284 -0.14710
 H747 H 0.22860 0.43153 -0.09976
 H748 H 0.31299 0.42355 -0.09141
 C749 C 1.13183 -0.13470 0.12549
 C750 C 1.12358 -0.11978 0.15880
 C751 C 1.14525 -0.14309 0.18604
 C752 C 1.17505 -0.18111 0.17980
 C753 C 1.18269 -0.19650 0.14651
 C754 C 1.16104 -0.17324 0.11930
 C755 C 1.16925 -0.18929 0.08628
 C756 C 1.19793 -0.22729 0.08032
 C757 C 1.21911 -0.25005 0.10691
 C758 C 1.21177 -0.23495 0.13964
 C759 C 1.13646 -0.12764 0.21909
 C760 C 1.10701 -0.09020 0.22509
 C761 C 1.08588 -0.06736 0.19849
 C762 C 1.09397 -0.08181 0.16566
 C763 C 1.19900 -0.20418 0.20717
 C764 C 1.22113 -0.22513 0.22799
 C765 C 1.10989 -0.11096 0.09754
 C766 C 1.09147 -0.09224 0.07401
 H767 H 1.15359 -0.17276 0.06474
 H768 H 1.20375 -0.23913 0.05491
 H769 H 1.24136 -0.27957 0.10217
 H770 H 1.22907 -0.25383 0.15942
 H771 H 1.15212 -0.14438 0.24056
 H772 H 1.10057 -0.07886 0.25054
 H773 H 1.06301 -0.03834 0.20330
 H774 H 1.07667 -0.06303 0.14579
 C775 C 1.13237 0.37873 0.62928
 C776 C 1.10583 0.36366 0.65716
 C777 C 1.12869 0.34079 0.68407
 C778 C 1.17783 0.33320 0.68288
 C779 C 1.20456 0.34960 0.65550
 C780 C 1.18174 0.37233 0.62858
 C781 C 1.20906 0.38766 0.60118
 C782 C 1.25756 0.38067 0.60040
 C783 C 1.27993 0.35857 0.62679
 C784 C 1.25396 0.34327 0.65413
 C785 C 1.10148 0.32550 0.71149
 C786 C 1.05296 0.33246 0.71226
 C787 C 1.03056 0.35468 0.68591
 C788 C 1.05653 0.37029 0.65863
 C789 C 1.20085 0.30600 0.70846
 C790 C 1.22215 0.28231 0.72798
 C791 C 1.10881 0.39895 0.60065
 C792 C 1.08954 0.41485 0.57643
 H793 H 1.19330 0.40518 0.58009
 H794 H 1.27789 0.39252 0.57922
 H795 H 1.31762 0.35322 0.62610
 H796 H 1.27305 0.32643 0.67409
 H797 H 1.11741 0.30808 0.73257
 H798 H 1.03262 0.32047 0.73340
 H799 H 0.99286 0.35973 0.68657
 H800 H 1.03756 0.38750 0.63877
 C801 C 0.62484 -0.12839 0.63040
 C802 C 0.59763 -0.14798 0.65638
 C803 C 0.62040 -0.16941 0.68394
 C804 C 0.67011 -0.17102 0.68531
 C805 C 0.69728 -0.15011 0.65988
 C806 C 0.67457 -0.12885 0.63228
 C807 C 0.70247 -0.10893 0.60683
 C808 C 0.75142 -0.11002 0.60861
 C809 C 0.77365 -0.13068 0.63567
 C810 C 0.74710 -0.15044 0.66112
 C811 C 0.59263 -0.18932 0.70942
 C812 C 0.54365 -0.18817 0.70768
 C813 C 0.52136 -0.16733 0.68069
 C814 C 0.54785 -0.14729 0.65529
 C815 C 0.69374 -0.19712 0.71120
 C816 C 0.71583 -0.22001 0.73078
 C817 C 0.60194 -0.10920 0.60114
 C818 C 0.58361 -0.09375 0.57641
 H819 H 0.68682 -0.09232 0.58531
 H820 H 0.77219 -0.09469 0.58890
 H821 H 0.81169 -0.13144 0.63697
 H822 H 0.76608 -0.16596 0.68169
 H823 H 0.60847 -0.20587 0.73091
 H824 H 0.52290 -0.20360 0.72736
 H825 H 0.48333 -0.16680 0.67939
 H826 H 0.52893 -0.13136 0.63483
 C827 C 0.62929 0.37070 0.13096
 C828 C 0.60208 0.34847 0.15579
 C829 C 0.62479 0.32598 0.18294
 C830 C 0.67448 0.32587 0.18506
 C831 C 0.70163 0.34891 0.16062
 C832 C 0.67897 0.37131 0.13346
 C833 C 0.70690 0.39348 0.10905
 C834 C 0.75581 0.39345 0.11138
 C835 C 0.77798 0.37162 0.13797
 C836 C 0.75140 0.34966 0.16242
 C837 C 0.59700 0.30353 0.20725
 C838 C 0.54809 0.30310 0.20473
 C839 C 0.52587 0.32490 0.17812
 C840 C 0.55235 0.34755 0.15392
 C841 C 0.69821 0.29958 0.21086
 C842 C 0.72038 0.27685 0.23051
 C843 C 0.60646 0.39151 0.10222
 C844 C 0.58785 0.40813 0.07797
 H845 H 0.69129 0.41103 0.08791
 H846 H 0.77660 0.41050 0.09245
 H847 H 0.81599 0.37169 0.13969
 H848 H 0.77035 0.33330 0.18266
 H849 H 0.61277 0.28610 0.22839
 H850 H 0.52733 0.28566 0.22349
 H851 H 0.48790 0.32414 0.17617
 H852 H 0.53346 0.36414 0.13374
 C853 C 0.87092 0.13459 0.12535
 C854 C 0.83865 0.17081 0.11965
 C855 C 0.81627 0.19270 0.14722
 C856 C 0.82637 0.17831 0.18035
 C857 C 0.85910 0.14255 0.18608
 C858 C 0.88139 0.12052 0.15847
 C859 C 0.91388 0.08471 0.16478
 C860 C 0.92423 0.07121 0.19744
 C861 C 0.90254 0.09289 0.22443
 C862 C 0.87025 0.12815 0.21895
 C863 C 0.78403 0.22882 0.14086
 C864 C 0.77441 0.24302 0.10827
 C865 C 0.79637 0.22163 0.08132
 C866 C 0.82809 0.18590 0.08678
 C867 C 0.80233 0.20039 0.20812
 C868 C 0.78018 0.22077 0.22920
 C869 C 0.89361 0.11228 0.09708
 C870 C 0.91250 0.09457 0.07330
 H871 H 0.93174 0.06694 0.14460
 H872 H 0.94930 0.04387 0.20183
 H873 H 0.91076 0.08232 0.24974
 H874 H 0.85423 0.14402 0.24070
 H875 H 0.76595 0.24653 0.16093
 H876 H 0.74977 0.27077 0.10393
 H877 H 0.78877 0.23275 0.05603
 H878 H 0.84423 0.17033 0.06498
 C879 C 0.86472 0.63493 0.62578
 C880 C 0.83276 0.67133 0.61979
 C881 C 0.80982 0.69315 0.64714
 C882 C 0.81912 0.67856 0.68034
 C883 C 0.85094 0.64212 0.68633
 C884 C 0.87383 0.62018 0.65894
 C885 C 0.90561 0.58386 0.66551
 C886 C 0.91455 0.56967 0.69822
 C887 C 0.89209 0.59107 0.72499
 C888 C 0.86059 0.62693 0.71926
 C889 C 0.77785 0.72940 0.64051
 C890 C 0.76904 0.74380 0.60785
 C891 C 0.79162 0.72253 0.58111
 C892 C 0.82310 0.68667 0.58685
 C893 C 0.79564 0.70149 0.70797
 C894 C 0.77427 0.72261 0.72906
 C895 C 0.88851 0.61317 0.59777
 C896 C 0.90821 0.59591 0.57416
 H897 H 0.92387 0.56612 0.64550
 H898 H 0.93911 0.54198 0.70282
 H899 H 0.89914 0.57988 0.75034
 H900 H 0.84395 0.64260 0.74085
 H901 H 0.75926 0.74696 0.66041
 H902 H 0.74453 0.77158 0.60329
 H903 H 0.78466 0.73380 0.55577
 H904 H 0.83970 0.67117 0.56520
 C905 C 0.36606 0.13039 0.62459
 C906 C 0.33166 0.16447 0.61821
 C907 C 0.30965 0.18760 0.64537
 C908 C 0.32238 0.17671 0.67876
 C909 C 0.35690 0.14279 0.68515
 C910 C 0.37873 0.11942 0.65795
 C911 C 0.41305 0.08549 0.66489
 C912 C 0.42554 0.07507 0.69778
 C913 C 0.40434 0.09810 0.72436
 C914 C 0.37034 0.13160 0.71826
 C915 C 0.27521 0.22149 0.63836
 C916 C 0.26321 0.23245 0.60549
 C917 C 0.28488 0.20991 0.57893
 C918 C 0.31866 0.17623 0.58505
 C919 C 0.29971 0.20095 0.70614
 C920 C 0.27886 0.22310 0.72692
 C921 C 0.38898 0.10745 0.59672
 C922 C 0.40812 0.08943 0.57319
 H923 H 0.43060 0.06676 0.64504
 H924 H 0.45190 0.04906 0.70265
 H925 H 0.41425 0.08994 0.74985
 H926 H 0.35475 0.14861 0.73971
 H927 H 0.25717 0.23989 0.65811
 H928 H 0.23693 0.25856 0.60064
 H929 H 0.27543 0.21850 0.55342
 H930 H 0.33443 0.15961 0.56352
 C931 C 0.36700 0.62504 0.12974
 C932 C 0.31745 0.62305 0.13302
 C933 C 0.29496 0.64538 0.16039
 C934 C 0.32211 0.66971 0.18431
 C935 C 0.37173 0.67076 0.18153
 C936 C 0.39428 0.64834 0.15417
 C937 C 0.44391 0.65040 0.15170
 C938 C 0.47045 0.67406 0.17550
 C939 C 0.44840 0.69585 0.20227
 C940 C 0.39959 0.69433 0.20538
 C941 C 0.24531 0.64326 0.16292
 C942 C 0.21867 0.61996 0.13903
 C943 C 0.24067 0.59817 0.11226
 C944 C 0.28947 0.59953 0.10918
 C945 C 0.29843 0.69653 0.21000
 C946 C 0.27659 0.72014 0.22947
 C947 C 0.38963 0.60449 0.10067
 C948 C 0.40835 0.58806 0.07629
 H949 H 0.46268 0.63389 0.13137
 H950 H 0.50834 0.67561 0.17312
 H951 H 0.46920 0.71411 0.22071
 H952 H 0.38397 0.71176 0.22664
 H953 H 0.22654 0.65952 0.18335
 H954 H 0.18075 0.61880 0.14133
 H955 H 0.21982 0.58006 0.09378
 H956 H 0.30495 0.58197 0.08794
   
