data_POSCAR
  _audit_creation_date              2014-09-24
  _audit_creation_method            'ToBaCCo'
  _symmetry_space_group_name_H-M    'P1'
  _symmetry_Int_Tables_number       1
  _symmetry_cell_setting            triclinic
  loop_
  _symmetry_equiv_pos_as_xyz
 x,y,z
_cell_length_a 50.8304
_cell_length_b 27.2686
_cell_length_c 21.3160
_cell_angle_alpha 90.047200
_cell_angle_beta 89.902400
_cell_angle_gamma 90.058200
loop_
  _atom_site_label
  _atom_site_type_symbol
  _atom_site_fract_x
  _atom_site_fract_y
  _atom_site_fract_z
C1 C 0.70193 0.30160 0.55809
 C2 C 0.69039 0.31407 0.50085
 C3 C 0.70213 0.30132 0.44391
 C4 C 0.72623 0.27561 0.44346
 C5 C 0.73825 0.26277 0.50123
 C6 C 0.72608 0.27582 0.55891
 C7 C 0.73833 0.26262 0.61556
 C8 C 0.76204 0.23707 0.61565
 C9 C 0.77444 0.22374 0.55908
 C10 C 0.76242 0.23665 0.50131
 C11 C 0.73856 0.26230 0.38690
 C12 C 0.76228 0.23687 0.38694
 C13 C 0.77456 0.22365 0.44357
 C14 C 0.79870 0.19788 0.44424
 C15 C 0.81030 0.18536 0.50138
 C16 C 0.79860 0.19798 0.55850
 H17 H 0.72966 0.27202 0.66041
 H18 H 0.77059 0.22775 0.66057
 H19 H 0.72994 0.27153 0.34202
 H20 H 0.77094 0.22754 0.34204
 H21 H 0.67177 0.33363 0.50048
 H22 H 0.82896 0.16587 0.50139
 C23 C 0.29649 0.69545 0.44375
 C24 C 0.30789 0.68206 0.50071
 C25 C 0.29658 0.69554 0.55786
 C26 C 0.27303 0.72296 0.55878
 C27 C 0.26118 0.73675 0.50117
 C28 C 0.27295 0.72293 0.44332
 C29 C 0.26096 0.73708 0.38682
 C30 C 0.23779 0.76432 0.38702
 C31 C 0.22583 0.77847 0.44374
 C32 C 0.23763 0.76467 0.50140
 C33 C 0.26109 0.73708 0.61551
 C34 C 0.23790 0.76427 0.61576
 C35 C 0.22584 0.77848 0.55925
 C36 C 0.20224 0.80597 0.55870
 C37 C 0.19092 0.81939 0.50158
 C38 C 0.20231 0.80594 0.44451
 H39 H 0.26940 0.72713 0.34192
 H40 H 0.22932 0.77427 0.34224
 H41 H 0.26960 0.72712 0.66025
 H42 H 0.22948 0.77419 0.66071
 H43 H 0.32612 0.66135 0.50056
 H44 H 0.17268 0.84015 0.50139
 C45 C 0.20273 0.19482 -0.44548
 C46 C 0.19135 0.18145 -0.50250
 C47 C 0.20272 0.19489 -0.55966
 C48 C 0.22638 0.22229 -0.56031
 C49 C 0.23819 0.23601 -0.50251
 C50 C 0.22631 0.22221 -0.44481
 C51 C 0.23825 0.23630 -0.38814
 C52 C 0.26149 0.26340 -0.38801
 C53 C 0.27357 0.27751 -0.44454
 C54 C 0.26182 0.26380 -0.50238
 C55 C 0.23849 0.23649 -0.61686
 C56 C 0.26175 0.26356 -0.61672
 C57 C 0.27375 0.27759 -0.56004
 C58 C 0.29743 0.30490 -0.55913
 C59 C 0.30870 0.31822 -0.50188
 C60 C 0.29718 0.30484 -0.44497
 H61 H 0.22972 0.22638 -0.34333
 H62 H 0.26991 0.27330 -0.34312
 H63 H 0.23007 0.22666 -0.66177
 H64 H 0.27027 0.27350 -0.66154
 H65 H 0.17307 0.16074 -0.50225
 H66 H 0.32701 0.33885 -0.50147
 C67 C -0.29850 0.69735 -0.44371
 C68 C -0.31017 0.68475 -0.50080
 C69 C -0.29857 0.69756 -0.55797
 C70 C -0.27443 0.72342 -0.55870
 C71 C -0.26232 0.73636 -0.50100
 C72 C -0.27439 0.72331 -0.44319
 C73 C -0.26207 0.73672 -0.38664
 C74 C -0.23837 0.76235 -0.38677
 C75 C -0.22610 0.77562 -0.44341
 C76 C -0.23817 0.76262 -0.50110
 C77 C -0.26212 0.73680 -0.61535
 C78 C -0.23840 0.76238 -0.61542
 C79 C -0.22608 0.77568 -0.55885
 C80 C -0.20193 0.80156 -0.55821
 C81 C -0.19031 0.81411 -0.50105
 C82 C -0.20201 0.80145 -0.44403
 H83 H -0.27068 0.72744 -0.34170
 H84 H -0.22973 0.77178 -0.34195
 H85 H -0.27074 0.72746 -0.66022
 H86 H -0.22978 0.77174 -0.66034
 H87 H -0.32879 0.66508 -0.50073
 H88 H -0.17167 0.83367 -0.50080
 O89 O 0.03591 0.91680 -0.11517
 O90 O 0.06493 0.96058 -0.05476
 C91 C 0.05962 0.92977 -0.09942
 O92 O -0.03782 1.08909 -0.10995
 O93 O -0.06690 1.04296 -0.05250
 C94 C -0.06154 1.07601 -0.09442
 O95 O 0.03600 1.08429 -0.11528
 O96 O 0.06497 1.04065 -0.05476
 C97 C 0.05968 1.07134 -0.09949
 O98 O -0.03787 0.91138 -0.10893
 O99 O -0.06688 0.95842 -0.05249
 C100 C -0.06156 0.92485 -0.09380
 Zr101 Zr -0.00105 0.93836 -0.07817
 O102 O -0.00357 0.93407 -0.17711
 O103 O 0.00032 0.86119 -0.06997
 Zr104 Zr -0.00096 1.06280 -0.07843
 O105 O -0.00367 1.06573 -0.17741
 O106 O 0.00206 1.14020 -0.07462
 O107 O 0.02223 1.00054 -0.09097
 O108 O -0.02371 1.00055 -0.08993
 O109 O -0.03791 0.91158 0.11022
 O110 O -0.06690 0.95862 0.05411
 C111 C -0.06160 0.92506 0.09533
 O112 O 0.03602 1.08439 0.11610
 O113 O 0.06498 1.04077 0.05521
 C114 C 0.05971 1.07149 0.10004
 O115 O -0.03781 1.08953 0.11083
 O116 O -0.06687 1.04300 0.05405
 C117 C -0.06151 1.07631 0.09564
 O118 O 0.03590 0.91670 0.11555
 O119 O 0.06492 0.96066 0.05521
 C120 C 0.05959 0.92977 0.09974
 Zr121 Zr -0.00104 0.93861 0.07938
 O122 O -0.00381 0.93654 0.17842
 O123 O 0.00153 0.86116 0.07651
 Zr124 Zr -0.00095 1.06301 0.07930
 O125 O -0.00377 1.06635 0.17825
 O126 O 0.00217 1.14038 0.07503
 Zr127 Zr 0.03805 1.00068 0.00035
 Zr128 Zr -0.04029 1.00080 0.00064
 O129 O -0.02371 1.00082 0.09112
 O130 O 0.02226 1.00078 0.09184
 O131 O -0.02477 0.92918 0.00063
 O132 O 0.02211 1.07178 0.00034
 O133 O 0.02206 0.92957 0.00045
 O134 O -0.02464 1.07249 0.00052
 H135 H -0.03528 1.00038 -0.12729
 H136 H 0.03437 1.10005 0.00029
 H137 H -0.03533 1.00077 0.12848
 H138 H 0.03426 0.90125 0.00040
 H139 H -0.01407 1.15278 -0.05417
 H140 H -0.01404 1.15295 0.05507
 H141 H 0.00872 1.04202 0.19527
 H142 H 0.00965 0.95922 0.19517
 H143 H -0.01268 0.84927 0.04868
 H144 H 0.00046 0.84833 -0.11345
 H145 H 0.00840 0.95929 -0.19434
 H146 H 0.00915 1.04191 -0.19442
 O147 O 0.46444 0.41604 0.11649
 O148 O 0.43532 0.45894 0.05575
 C149 C 0.44072 0.42856 0.10071
 O150 O 0.53767 0.58807 0.11090
 O151 O 0.56678 0.54213 0.05330
 C152 C 0.56140 0.57512 0.09531
 O153 O 0.46375 0.58320 0.11569
 O154 O 0.43474 0.53956 0.05503
 C155 C 0.44005 0.57023 0.09983
 O156 O 0.53778 0.41078 0.10924
 O157 O 0.56683 0.45753 0.05262
 C158 C 0.56149 0.42413 0.09409
 Zr159 Zr 0.50100 0.43709 0.07744
 O160 O 0.50236 0.42862 0.17593
 O161 O 0.49986 0.36021 0.06549
 Zr162 Zr 0.50082 0.56152 0.07942
 O163 O 0.50331 0.56298 0.17853
 O164 O 0.49792 0.63895 0.07715
 O165 O 0.47768 0.49913 0.09112
 O166 O 0.52363 0.49932 0.09023
 O167 O 0.53774 0.41150 -0.11098
 O168 O 0.56682 0.45791 -0.05388
 C169 C 0.56145 0.42471 -0.09566
 O170 O 0.46451 0.58320 -0.11707
 O171 O 0.43535 0.54046 -0.05589
 C172 C 0.44078 0.57070 -0.10104
 O173 O 0.53801 0.58843 -0.11014
 O174 O 0.56701 0.54206 -0.05333
 C175 C 0.56171 0.57525 -0.09496
 O176 O 0.46384 0.41628 -0.11584
 O177 O 0.43478 0.45993 -0.05521
 C178 C 0.44013 0.42923 -0.09999
 Zr179 Zr 0.50087 0.43820 -0.07975
 O180 O 0.50370 0.43702 -0.17887
 O181 O 0.49818 0.36074 -0.07803
 Zr182 Zr 0.50105 0.56263 -0.07793
 O183 O 0.50353 0.57003 -0.17642
 O184 O 0.49799 0.63986 -0.06965
 Zr185 Zr 0.46167 0.49977 -0.00012
 Zr186 Zr 0.54025 0.49999 -0.00025
 O187 O 0.52363 0.50046 -0.09069
 O188 O 0.47773 0.50046 -0.09145
 O189 O 0.52469 0.42829 -0.00127
 O190 O 0.47775 0.57086 0.00071
 O191 O 0.47771 0.42872 -0.00097
 O192 O 0.52469 0.57167 0.00081
 H193 H 0.53524 0.49914 0.12750
 H194 H 0.46550 0.59909 0.00071
 H195 H 0.53517 0.50056 -0.12818
 H196 H 0.46548 0.40038 -0.00097
 H197 H 0.51364 0.65163 0.05508
 H198 H 0.51518 0.65248 -0.05502
 H199 H 0.49675 0.53913 -0.19446
 H200 H 0.48938 0.45777 -0.19556
 H201 H 0.51278 0.34853 -0.05168
 H202 H 0.49940 0.34609 0.10828
 H203 H 0.50232 0.46198 0.19391
 H204 H 0.48928 0.54132 0.19503
 C205 C 0.37208 0.40651 0.16555
 C206 C 0.37726 0.37241 0.21298
 C207 C 0.40290 0.35519 0.22177
 C208 C 0.42340 0.37263 0.18430
 C209 C 0.31073 0.31786 0.38760
 C210 C 0.39259 0.42396 0.12775
 C211 C 0.35690 0.35714 0.25566
 C212 C 0.34100 0.34444 0.29439
 C213 C 0.32390 0.32987 0.34312
 C214 C 0.41858 0.40767 0.13730
 H215 H 0.35232 0.42028 0.15857
 H216 H 0.40714 0.32897 0.25855
 H217 H 0.44311 0.35923 0.19295
 H218 H 0.38819 0.45094 0.09205
 C219 C -0.12965 0.90338 0.16363
 C220 C -0.12443 0.86630 0.20724
 C221 C -0.09920 0.84610 0.21082
 C222 C -0.07902 0.86389 0.17257
 C223 C -0.18871 0.81407 0.38818
 C224 C -0.10947 0.92120 0.12504
 C225 C -0.14409 0.85149 0.25211
 C226 C -0.15938 0.83937 0.29254
 C227 C -0.17587 0.82554 0.34287
 C228 C -0.08377 0.90232 0.13005
 H229 H -0.14908 0.91950 0.16073
 H230 H -0.09491 0.81756 0.24462
 H231 H -0.05953 0.84843 0.17767
 H232 H -0.11380 0.95087 0.09297
 C233 C 0.59884 0.65341 0.21158
 C234 C 0.62411 0.63343 0.20744
 C235 C 0.62939 0.59669 0.16327
 C236 C 0.60924 0.57908 0.12457
 C237 C 0.68819 0.68527 0.38845
 C238 C 0.57870 0.63587 0.17318
 C239 C 0.64373 0.64814 0.25228
 C240 C 0.65896 0.66020 0.29275
 C241 C 0.67537 0.67395 0.34313
 C242 C 0.58351 0.59775 0.13012
 H243 H 0.59450 0.68162 0.24589
 H244 H 0.64884 0.58069 0.15995
 H245 H 0.61361 0.54969 0.09201
 H246 H 0.55920 0.65126 0.17860
 C247 C 0.12841 1.09327 0.16443
 C248 C 0.12328 1.12753 0.21185
 C249 C 0.09768 1.14499 0.22066
 C250 C 0.07716 1.12765 0.18326
 C251 C 0.18955 1.18195 0.38690
 C252 C 0.10787 1.07592 0.12669
 C253 C 0.14364 1.14271 0.25457
 C254 C 0.15948 1.15537 0.29339
 C255 C 0.17648 1.16994 0.34228
 C256 C 0.08192 1.09243 0.13630
 H257 H 0.14813 1.07926 0.15745
 H258 H 0.09346 1.17129 0.25745
 H259 H 0.05748 1.14124 0.19200
 H260 H 0.11223 1.04882 0.09103
 C261 C 0.62955 0.40298 -0.16352
 C262 C 0.62429 0.36615 -0.20757
 C263 C 0.59900 0.34619 -0.21167
 C264 C 0.57882 0.36390 -0.17341
 C265 C 0.68864 0.31409 -0.38838
 C266 C 0.60935 0.42081 -0.12503
 C267 C 0.64398 0.35141 -0.25239
 C268 C 0.65928 0.33933 -0.29280
 C269 C 0.67577 0.32553 -0.34311
 C270 C 0.58360 0.40211 -0.13050
 H271 H 0.64905 0.41886 -0.16018
 H272 H 0.59467 0.31787 -0.24584
 H273 H 0.55930 0.34859 -0.17886
 H274 H 0.61370 0.45037 -0.09272
 C275 C 0.12825 0.90807 -0.16476
 C276 C 0.12306 0.87360 -0.21188
 C277 C 0.09746 0.85594 -0.22008
 C278 C 0.07699 0.87333 -0.18245
 C279 C 0.18908 0.81902 -0.38780
 C280 C 0.10777 0.92545 -0.12676
 C281 C 0.14334 0.85841 -0.25491
 C282 C 0.15911 0.84572 -0.29397
 C283 C 0.17605 0.83110 -0.34308
 C284 C 0.08180 0.90878 -0.13583
 H285 H 0.14798 0.92222 -0.15823
 H286 H 0.09318 0.82945 -0.25659
 H287 H 0.05730 0.85960 -0.19076
 H288 H 0.11217 0.95272 -0.09135
 C289 C 0.40307 0.64357 -0.22236
 C290 C 0.37736 0.62688 -0.21275
 C291 C 0.37210 0.59319 -0.16482
 C292 C 0.39261 0.57568 -0.12727
 C293 C 0.31058 0.68181 -0.38594
 C294 C 0.42357 0.62608 -0.18513
 C295 C 0.35695 0.64228 -0.25504
 C296 C 0.34101 0.65505 -0.29344
 C297 C 0.32383 0.66972 -0.34178
 C298 C 0.41867 0.59149 -0.13757
 H299 H 0.40738 0.66945 -0.25956
 H300 H 0.35228 0.57981 -0.15724
 H301 H 0.38813 0.54907 -0.09112
 H302 H 0.44333 0.63911 -0.19439
 C303 C -0.09896 1.15430 -0.21050
 C304 C -0.12423 1.13421 -0.20658
 C305 C -0.12954 1.09739 -0.16258
 C306 C -0.10940 1.07971 -0.12395
 C307 C -0.18824 1.18568 -0.38783
 C308 C -0.07883 1.13663 -0.17225
 C309 C -0.14383 1.14885 -0.25152
 C310 C -0.15905 1.16082 -0.29202
 C311 C -0.17546 1.17443 -0.34246
 C312 C -0.08366 1.09849 -0.12929
 H313 H -0.09461 1.18269 -0.24452
 H314 H -0.14901 1.08139 -0.15937
 H315 H -0.11380 1.05022 -0.09158
 H316 H -0.05930 1.15198 -0.17762
 C317 C 0.59913 0.65345 -0.21157
 C318 C 0.62437 0.63331 -0.20802
 C319 C 0.62968 0.59656 -0.16399
 C320 C 0.60956 0.57899 -0.12498
 C321 C 0.68831 0.68488 -0.39000
 C322 C 0.57903 0.63593 -0.17290
 C323 C 0.64394 0.64789 -0.25327
 C324 C 0.65914 0.65985 -0.29397
 C325 C 0.67553 0.67353 -0.34455
 C326 C 0.58385 0.59778 -0.13002
 H327 H 0.59475 0.68173 -0.24568
 H328 H 0.64912 0.58050 -0.16107
 H329 H 0.61396 0.54955 -0.09259
 H330 H 0.55953 0.65135 -0.17798
 C331 C 0.09752 1.14463 -0.22051
 C332 C 0.12307 1.12677 -0.21251
 C333 C 0.12824 1.09241 -0.16536
 C334 C 0.10778 1.07529 -0.12713
 C335 C 0.18885 1.18093 -0.38901
 C336 C 0.07707 1.12752 -0.18263
 C337 C 0.14329 1.14171 -0.25580
 C338 C 0.15898 1.15426 -0.29507
 C339 C 0.17583 1.16882 -0.34432
 C340 C 0.08186 1.09216 -0.13600
 H341 H 0.09327 1.17104 -0.25706
 H342 H 0.14794 1.07813 -0.15900
 H343 H 0.11214 1.04806 -0.09172
 H344 H 0.05741 1.14138 -0.19079
 C345 C 0.37159 0.40779 -0.16551
 C346 C 0.37682 0.37339 -0.21268
 C347 C 0.40240 0.35564 -0.22082
 C348 C 0.42282 0.37286 -0.18303
 C349 C 0.31098 0.31868 -0.38844
 C350 C 0.39203 0.42504 -0.12737
 C351 C 0.35661 0.35825 -0.25577
 C352 C 0.34089 0.34554 -0.29483
 C353 C 0.32401 0.33085 -0.34386
 C354 C 0.41797 0.40827 -0.13637
 H355 H 0.35188 0.42200 -0.15905
 H356 H 0.40670 0.32921 -0.25740
 H357 H 0.44249 0.35905 -0.19127
 H358 H 0.38760 0.45231 -0.09195
 C359 C -0.12949 0.90345 -0.16222
 C360 C -0.12422 0.86635 -0.20590
 C361 C -0.09903 0.84597 -0.20936
 C362 C -0.07892 0.86363 -0.17098
 C363 C -0.18809 0.81463 -0.38738
 C364 C -0.10937 0.92115 -0.12350
 C365 C -0.14375 0.85174 -0.25102
 C366 C -0.15892 0.83975 -0.29164
 C367 C -0.17529 0.82603 -0.34210
 C368 C -0.08370 0.90213 -0.12846
 H369 H -0.14890 0.91969 -0.15939
 H370 H -0.09470 0.81742 -0.24321
 H371 H -0.05943 0.84807 -0.17603
 H372 H -0.11371 0.95088 -0.09143
 C373 C 0.37137 0.59203 0.16473
 C374 C 0.37654 0.62637 0.21201
 C375 C 0.40216 0.64386 0.22054
 C376 C 0.42266 0.62647 0.18302
 C377 C 0.31035 0.68151 0.38723
 C378 C 0.39188 0.57463 0.12685
 C379 C 0.35622 0.64165 0.25487
 C380 C 0.34042 0.65446 0.29378
 C381 C 0.32344 0.66926 0.34270
 C382 C 0.41785 0.59118 0.13620
 H383 H 0.35163 0.57800 0.15796
 H384 H 0.40642 0.67022 0.25721
 H385 H 0.44235 0.64007 0.19157
 H386 H 0.38750 0.54744 0.09132
 C387 C -0.09895 1.15466 0.21202
 C388 C -0.12416 1.13426 0.20850
 C389 C -0.12942 1.09739 0.16453
 C390 C -0.10930 1.07995 0.12554
 C391 C -0.18807 1.18544 0.39058
 C392 C -0.07883 1.13726 0.17333
 C393 C -0.14373 1.14866 0.25377
 C394 C -0.15892 1.16051 0.29452
 C395 C -0.17530 1.17411 0.34513
 C396 C -0.08362 1.09896 0.13054
 H397 H -0.09462 1.18303 0.24613
 H398 H -0.14883 1.08110 0.16165
 H399 H -0.11364 1.05039 0.09323
 H400 H -0.05934 1.15286 0.17839
 C401 C 0.62946 0.40277 0.16231
 C402 C 0.62415 0.36602 0.20639
 C403 C 0.59888 0.34593 0.21036
 C404 C 0.57876 0.36348 0.17198
 C405 C 0.68825 0.31429 0.38719
 C406 C 0.60934 0.42034 0.12358
 C407 C 0.64375 0.35135 0.25124
 C408 C 0.65899 0.33931 0.29166
 C409 C 0.67542 0.32559 0.34195
 C410 C 0.58360 0.40158 0.12894
 H411 H 0.64893 0.41880 0.15910
 H412 H 0.59451 0.31765 0.24453
 H413 H 0.55923 0.34810 0.17739
 H414 H 0.61374 0.44974 0.09111
 C415 C 0.09729 0.85595 0.21998
 C416 C 0.12285 0.87396 0.21209
 C417 C 0.12807 0.90859 0.16524
 C418 C 0.10765 0.92583 0.12720
 C419 C 0.18848 0.81978 0.38812
 C420 C 0.07689 0.87316 0.18229
 C421 C 0.14301 0.85896 0.25524
 C422 C 0.15868 0.84639 0.29439
 C423 C 0.17548 0.83185 0.34352
 C424 C 0.08173 0.90881 0.13598
 H425 H 0.09300 0.82935 0.25635
 H426 H 0.14777 0.92300 0.15899
 H427 H 0.11205 0.95330 0.09206
 H428 H 0.05723 0.85918 0.19037
   
