data_POSCAR
  _audit_creation_date              2014-09-24
  _audit_creation_method            'ToBaCCo'
  _symmetry_space_group_name_H-M    'P1'
  _symmetry_Int_Tables_number       1
  _symmetry_cell_setting            triclinic
  loop_
  _symmetry_equiv_pos_as_xyz
 x,y,z
_cell_length_a 34.1828
_cell_length_b 34.5961
_cell_length_c 34.7782
_cell_angle_alpha 89.634200
_cell_angle_beta 89.213200
_cell_angle_gamma 91.363700
loop_
  _atom_site_label
  _atom_site_type_symbol
  _atom_site_fract_x
  _atom_site_fract_y
  _atom_site_fract_z
C1 C 0.74437 0.62551 0.99133
 C2 C 0.75118 0.38989 0.49936
 C3 C 0.25089 -0.11223 -0.00233
 C4 C 0.24740 0.11414 0.49129
 C5 C 0.12154 0.49980 0.24686
 C6 C -0.12309 -0.00722 0.24750
 C7 C 0.37444 0.49560 0.74629
 C8 C 0.61799 1.00571 0.74472
 C9 C -0.00439 0.25121 -0.12042
 C10 C 0.50193 0.25059 0.13051
 C11 C 1.00645 0.75469 0.62703
 C12 C 0.50847 0.75064 0.38103
 C13 C 0.43716 -0.04094 0.29594
 H14 H 0.44016 -0.01261 0.30871
 C15 C 0.45646 -0.07222 0.31192
 H16 H 0.47509 -0.06731 0.33639
 C17 C 0.40850 -0.08157 0.24894
 H18 H 0.38866 -0.08550 0.22532
 C19 C 0.42734 -0.11359 0.26392
 H20 H 0.42222 -0.14176 0.25126
 N21 N 0.41332 -0.04620 0.26536
 C22 C 0.39113 0.07120 0.22668
 H23 H 0.35950 0.06909 0.22747
 C24 C 0.40982 0.10600 0.21633
 H25 H 0.39219 0.13027 0.20836
 C26 C 0.45210 0.04112 0.23468
 H27 H 0.46831 0.01561 0.24160
 C28 C 0.47210 0.07541 0.22396
 H29 H 0.50378 0.07613 0.22261
 Zn30 Zn 0.38204 -0.00447 0.25034
 N31 N 0.41231 0.03985 0.23605
 C32 C 0.36272 0.03896 0.31476
 N33 N 0.35083 0.00788 0.29378
 C34 C 0.32043 -0.01546 0.30595
 C35 C 0.29957 -0.00674 0.33961
 C36 C 0.34348 0.04804 0.34892
 C37 C 0.37422 -0.02731 0.17520
 C38 C 0.35629 -0.03994 0.14170
 C39 C 0.29331 -0.03185 0.17258
 C40 C 0.31260 -0.01940 0.20572
 N41 N 0.35240 -0.01836 0.20669
 H42 H 0.38788 0.05627 0.30560
 H43 H 0.31257 -0.04100 0.28975
 H44 H 0.27506 -0.02510 0.34883
 H45 H 0.35328 0.07306 0.36505
 H46 H 0.40582 -0.02556 0.17655
 H47 H 0.37435 -0.04795 0.11731
 H48 H 0.26171 -0.03376 0.17311
 H49 H 0.29569 -0.01098 0.23060
 C50 C 0.45089 0.10852 0.21521
 C51 C 0.45063 -0.10940 0.29653
 C52 C 0.31538 -0.04281 0.14010
 C53 C 0.31156 0.02501 0.36170
 C54 C 0.06440 1.04051 0.79836
 H55 H 0.06312 1.01274 0.81285
 C56 C 0.04357 1.07134 0.81347
 H57 H 0.02529 1.06643 0.83875
 C58 C 0.09099 1.08083 0.74879
 H59 H 0.11049 1.08498 0.72437
 C60 C 0.07052 1.11232 0.76278
 H61 H 0.07419 1.14020 0.74866
 N62 N 0.08830 1.04593 0.76709
 C63 C 0.11865 0.93410 0.71925
 H64 H 0.14851 0.94177 0.71135
 C65 C 0.10320 0.89829 0.70854
 H66 H 0.12165 0.87846 0.69307
 C67 C 0.05798 0.95145 0.74703
 H68 H 0.04040 0.97232 0.76185
 C69 C 0.04106 0.91582 0.73639
 H70 H 0.01072 0.90965 0.74379
 Zn71 Zn 0.12310 1.00641 0.75195
 N72 N 0.09637 0.95964 0.73876
 C73 C 0.18223 0.96590 0.79048
 N74 N 0.15765 0.99615 0.79319
 C75 C 0.15513 1.01699 0.82618
 C76 C 0.17515 1.00564 0.85899
 C77 C 0.20276 0.95357 0.82254
 C78 C 0.12912 1.02630 0.67520
 C79 C 0.14632 1.03940 0.64089
 C80 C 0.20850 1.04449 0.67301
 C81 C 0.18994 1.03140 0.70696
 N82 N 0.15087 1.02302 0.70740
 H83 H 0.18497 0.95030 0.76392
 H84 H 0.13677 1.04190 0.82758
 H85 H 0.17201 1.02240 0.88493
 H86 H 0.22081 0.92836 0.82019
 H87 H 0.09812 1.01928 0.67646
 H88 H 0.12833 1.04248 0.61570
 H89 H 0.23931 1.05220 0.67363
 H90 H 0.20653 1.02862 0.73304
 C91 C 0.06400 0.88870 0.71692
 C92 C 0.04763 1.10819 0.79630
 C93 C 0.18641 1.04876 0.63941
 C94 C 0.19806 0.97245 0.85778
 C95 C 0.57135 0.53972 0.30296
 H96 H 0.57236 0.51215 0.31771
 C97 C 0.55086 0.57002 0.31952
 H98 H 0.53572 0.56541 0.34679
 C99 C 0.59229 0.58024 0.25113
 H100 H 0.60971 0.58479 0.22533
 C101 C 0.57188 0.61116 0.26645
 H102 H 0.57412 0.63894 0.25203
 N103 N 0.59190 0.54539 0.26954
 C104 C 0.61431 0.43762 0.21154
 H105 H 0.64402 0.44462 0.20241
 C106 C 0.59534 0.40505 0.19683
 H107 H 0.61089 0.38687 0.17685
 C108 C 0.55814 0.45297 0.24858
 H109 H 0.54358 0.47202 0.26831
 C110 C 0.53813 0.42014 0.23491
 H111 H 0.50826 0.41404 0.24427
 Zn112 Zn 0.62483 0.50562 0.25140
 N113 N 0.59558 0.46104 0.23667
 C114 C 0.67607 0.45681 0.29083
 N115 N 0.65949 0.49214 0.29118
 C116 C 0.66410 0.51635 0.32156
 C117 C 0.68381 0.50429 0.35428
 C118 C 0.69607 0.44363 0.32290
 C119 C 0.63006 0.52952 0.17555
 C120 C 0.64713 0.54347 0.14151
 C121 C 0.71035 0.54217 0.17176
 C122 C 0.69191 0.52851 0.20557
 N123 N 0.65235 0.52320 0.20693
 H124 H 0.67240 0.43808 0.26637
 H125 H 0.65146 0.54469 0.32094
 H126 H 0.68654 0.52392 0.37823
 H127 H 0.70772 0.41478 0.32270
 H128 H 0.59876 0.52423 0.17730
 H129 H 0.62877 0.54868 0.11698
 H130 H 0.74176 0.54714 0.17107
 H131 H 0.70903 0.52263 0.23078
 C132 C 0.55655 0.39631 0.20807
 C133 C 0.55114 0.60633 0.30136
 C134 C 0.68769 0.55075 0.13960
 C135 C 0.69880 0.46683 0.35572
 C136 C 0.93389 0.46426 0.79676
 H137 H 0.93726 0.49237 0.80992
 C138 C 0.95296 0.43249 0.81214
 H139 H 0.97181 0.43676 0.83656
 C140 C 0.90433 0.42454 0.74953
 H141 H 0.88418 0.42103 0.72613
 C142 C 0.92302 0.39215 0.76377
 H143 H 0.91749 0.36423 0.75073
 N144 N 0.90961 0.45965 0.76641
 C145 C 0.88433 0.57429 0.72201
 H146 H 0.85279 0.57095 0.72330
 C147 C 0.90144 0.60787 0.70647
 H148 H 0.88284 0.63038 0.69583
 C149 C 0.94665 0.54823 0.73344
 H150 H 0.96397 0.52448 0.74331
 C151 C 0.96514 0.58168 0.71823
 H152 H 0.99674 0.58303 0.71626
 Zn153 Zn 0.87776 0.50125 0.75201
 N154 N 0.90690 0.54529 0.73493
 C155 C 0.86041 0.54706 0.81538
 N156 N 0.84827 0.51480 0.79631
 C157 C 0.81928 0.49119 0.81102
 C158 C 0.80036 0.50055 0.84560
 C159 C 0.84310 0.55687 0.85036
 C160 C 0.86889 0.47926 0.67742
 C161 C 0.85132 0.46599 0.64404
 C162 C 0.78836 0.46890 0.67617
 C163 C 0.80733 0.48211 0.70928
 N164 N 0.84704 0.48610 0.70948
 H165 H 0.88433 0.56481 0.80401
 H166 H 0.81113 0.46489 0.79618
 H167 H 0.77692 0.48193 0.85682
 H168 H 0.85302 0.58285 0.86484
 H169 H 0.90036 0.48319 0.67823
 H170 H 0.86953 0.45975 0.61921
 H171 H 0.75694 0.46458 0.67711
 H172 H 0.79037 0.48856 0.73477
 C173 C 0.94226 0.61199 0.70435
 C174 C 0.94659 0.39559 0.79622
 C175 C 0.81067 0.46022 0.64309
 C176 C 0.81277 0.53340 0.86593
 C177 C 0.29793 0.42967 -0.03862
 H178 H 0.31170 0.43408 -0.01114
 C179 C 0.31125 0.45094 -0.07075
 H180 H 0.33485 0.47206 -0.06752
 C181 C 0.25252 0.39504 -0.07684
 H182 H 0.23064 0.37228 -0.07966
 C183 C 0.26503 0.41544 -0.10964
 H184 H 0.25230 0.40751 -0.13682
 N185 N 0.26887 0.40238 -0.04210
 C186 C 0.21302 0.38000 0.06947
 H187 H 0.20677 0.34960 0.06518
 C188 C 0.19725 0.39824 0.10145
 H189 H 0.18000 0.38125 0.12203
 C190 C 0.24225 0.43894 0.04734
 H191 H 0.25916 0.45492 0.02592
 C192 C 0.22716 0.45840 0.07928
 H193 H 0.23273 0.48919 0.08222
 Zn194 Zn 0.25261 0.37071 0.00068
 N195 N 0.23510 0.40030 0.04314
 C196 C 0.28978 0.31657 0.04810
 N197 N 0.29479 0.33984 0.01666
 C198 C 0.33016 0.34321 -0.00168
 C199 C 0.36275 0.32491 0.01311
 C200 C 0.32152 0.29771 0.06379
 C201 C 0.17670 0.35960 -0.02310
 C202 C 0.14362 0.34026 -0.03675
 C203 C 0.17670 0.27975 -0.02906
 C204 C 0.20967 0.30043 -0.01617
 N205 N 0.20920 0.33971 -0.01416
 H206 H 0.26133 0.31324 0.06166
 H207 H 0.33354 0.36100 -0.02717
 H208 H 0.39100 0.32912 -0.00098
 H209 H 0.31672 0.27968 0.08902
 H210 H 0.17705 0.39077 -0.02070
 H211 H 0.11838 0.35665 -0.04487
 H212 H 0.17752 0.24860 -0.03161
 H213 H 0.23578 0.28525 -0.00859
 C214 C 0.20377 0.43808 0.10637
 C215 C 0.29483 0.44397 -0.10692
 C216 C 0.14372 0.29995 -0.04054
 C217 C 0.35896 0.30306 0.04709
 C218 C 0.79187 0.05686 1.03736
 H219 H 0.80450 0.05376 1.00889
 C220 C 0.80934 0.03926 1.06894
 H221 H 0.83516 0.02218 1.06458
 C222 C 0.74455 0.08499 1.07827
 H223 H 0.71995 0.10361 1.08214
 C224 C 0.76131 0.06837 1.11052
 H225 H 0.74873 0.07369 1.13868
 N226 N 0.76039 0.07967 1.04262
 C227 C 0.70017 0.10238 0.93559
 H228 H 0.69558 0.13269 0.94108
 C229 C 0.68372 0.08521 0.90340
 H230 H 0.66662 0.10258 0.88415
 C231 C 0.72918 0.04350 0.95360
 H232 H 0.74687 0.02747 0.97334
 C233 C 0.71375 0.02523 0.92107
 H234 H 0.71958 -0.00494 0.91589
 Zn235 Zn 0.74225 0.11055 1.00164
 N236 N 0.72223 0.08151 0.96003
 C237 C 0.79508 0.13999 0.94577
 N238 N 0.78479 0.14203 0.98358
 C239 C 0.80620 0.16380 1.00850
 C240 C 0.83920 0.18504 0.99539
 C241 C 0.82760 0.16068 0.93153
 C242 C 0.66607 0.12065 1.02617
 C243 C 0.63347 0.13949 1.04050
 C244 C 0.67205 0.19893 1.04179
 C245 C 0.70389 0.17900 1.02680
 N246 N 0.70047 0.14041 1.02002
 H247 H 0.77865 0.12160 0.92659
 H248 H 0.79798 0.16416 1.03864
 H249 H 0.85617 0.20207 1.01550
 H250 H 0.83568 0.15735 0.90157
 H251 H 0.66417 0.09001 1.02026
 H252 H 0.60644 0.12319 1.04574
 H253 H 0.67523 0.22959 1.04732
 H254 H 0.73133 0.19424 1.02109
 C255 C 0.69027 0.04610 0.89592
 C256 C 0.79483 0.04614 1.10614
 C257 C 0.63647 0.17885 1.04929
 C258 C 0.84998 0.18395 0.95635
 C259 C 0.29248 0.56165 0.53762
 H260 H 0.30753 0.55895 0.51025
 C261 C 0.30635 0.54235 0.56998
 H262 H 0.33174 0.52440 0.56704
 C263 C 0.24311 0.59049 0.57537
 H264 H 0.21913 0.61008 0.57789
 C265 C 0.25572 0.57149 0.60828
 H266 H 0.24003 0.57592 0.63501
 N267 N 0.26204 0.58609 0.54104
 C268 C 0.21229 0.61395 0.42977
 H269 H 0.20653 0.64382 0.43608
 C270 C 0.19739 0.59772 0.39639
 H271 H 0.18146 0.61585 0.37687
 C272 C 0.23941 0.55432 0.44805
 H273 H 0.25539 0.53743 0.46848
 C274 C 0.22494 0.53679 0.41468
 H275 H 0.22987 0.50642 0.40967
 Zn276 Zn 0.24895 0.61948 0.49956
 N277 N 0.23283 0.59235 0.45490
 C278 C 0.29052 0.67602 0.45560
 N279 N 0.29297 0.65196 0.48650
 C280 C 0.32696 0.64930 0.50624
 C281 C 0.36083 0.66907 0.49333
 C282 C 0.32358 0.69633 0.44179
 C283 C 0.17127 0.62945 0.51952
 C284 C 0.13788 0.64844 0.53169
 C285 C 0.17609 0.70808 0.53333
 C286 C 0.20892 0.68782 0.52126
 N287 N 0.20591 0.64914 0.51497
 H288 H 0.26312 0.67892 0.44100
 H289 H 0.32827 0.63113 0.53150
 H290 H 0.38798 0.66553 0.50854
 H291 H 0.32075 0.71505 0.41700
 H292 H 0.16987 0.59864 0.51439
 H293 H 0.11132 0.63144 0.53648
 H294 H 0.17899 0.73879 0.53884
 H295 H 0.23683 0.70281 0.51745
 C296 C 0.20295 0.55844 0.38881
 C297 C 0.28883 0.54824 0.60617
 C298 C 0.13997 0.68843 0.53874
 C299 C 0.35974 0.69171 0.45985
 C300 C 0.80091 0.93536 0.46348
 H301 H 0.81322 0.94365 0.49079
 C302 C 0.81560 0.95214 0.42935
 H303 H 0.83908 0.97366 0.43062
 C304 C 0.75669 0.89595 0.42836
 H305 H 0.73490 0.87289 0.42774
 C306 C 0.77038 0.91199 0.39369
 H307 H 0.75861 0.90089 0.36714
 N308 N 0.77183 0.90790 0.46241
 C309 C 0.72507 0.89736 0.57948
 H310 H 0.72593 0.86615 0.58118
 C311 C 0.71196 0.91825 0.61094
 H312 H 0.70204 0.90276 0.63654
 C313 C 0.73588 0.95497 0.54319
 H314 H 0.74507 0.96895 0.51657
 C315 C 0.72222 0.97712 0.57399
 H316 H 0.72091 1.00824 0.57102
 Zn317 Zn 0.75542 0.88196 0.50833
 N318 N 0.73740 0.91583 0.54676
 C319 C 0.81581 0.86916 0.56008
 N320 N 0.79895 0.85528 0.52760
 C321 C 0.81469 0.82531 0.50807
 C322 C 0.84792 0.80716 0.52199
 C323 C 0.84896 0.85217 0.57479
 C324 C 0.68064 0.86822 0.48463
 C325 C 0.64820 0.84805 0.47073
 C326 C 0.67964 0.78814 0.48608
 C327 C 0.71198 0.80962 0.49934
 N328 N 0.71229 0.84894 0.49706
 H329 H 0.80417 0.89409 0.57433
 H330 H 0.80168 0.81573 0.48149
 H331 H 0.86018 0.78366 0.50580
 H332 H 0.86184 0.86374 0.60071
 H333 H 0.68148 0.89949 0.48382
 H334 H 0.62393 0.86393 0.45942
 H335 H 0.68012 0.75685 0.48640
 H336 H 0.73707 0.79489 0.51025
 C337 C 0.71086 0.95872 0.60862
 C338 C 0.80025 0.94056 0.39387
 C339 C 0.64806 0.80754 0.47019
 C340 C 0.86526 0.82056 0.55605
 C341 C -0.04160 0.29456 0.43441
 H342 H -0.01255 0.30735 0.43675
 C343 C -0.07340 0.31186 0.45259
 H344 H -0.06849 0.33784 0.46924
 C345 C -0.08362 0.24656 0.40798
 H346 H -0.08787 0.22177 0.38970
 C347 C -0.11610 0.26268 0.42587
 H348 H -0.14444 0.24885 0.42202
 N349 N -0.04733 0.26292 0.41202
 C350 C 0.06363 0.20839 0.38764
 H351 H 0.06042 0.20798 0.35674
 C352 C 0.09562 0.19109 0.40423
 H353 H 0.11715 0.17775 0.38581
 C354 C 0.03946 0.22712 0.44882
 H355 H 0.01727 0.24105 0.46589
 C356 C 0.07155 0.21044 0.46672
 H357 H 0.07399 0.21149 0.49772
 Zn358 Zn -0.00523 0.24564 0.38107
 N359 N 0.03624 0.22568 0.40989
 C360 C 0.05019 0.30303 0.36169
 N361 N 0.01428 0.28871 0.35215
 C362 C -0.00808 0.30716 0.32601
 C363 C 0.00621 0.34085 0.30750
 C364 C 0.06532 0.33658 0.34434
 C365 C -0.03204 0.17144 0.37053
 C366 C -0.04559 0.13835 0.35201
 C367 C -0.03794 0.17208 0.29122
 C368 C -0.02449 0.20483 0.31107
 N369 N -0.02268 0.20407 0.35014
 H370 H 0.06682 0.28925 0.38385
 H371 H -0.03716 0.29602 0.31991
 H372 H -0.01175 0.35521 0.28663
 H373 H 0.09332 0.34777 0.35389
 H374 H -0.02927 0.17136 0.40149
 H375 H -0.05286 0.11278 0.36901
 H376 H -0.04013 0.17309 0.26019
 H377 H -0.01579 0.23073 0.29533
 C378 C 0.09962 0.19150 0.44430
 C379 C -0.11143 0.29667 0.44746
 C380 C -0.04962 0.13868 0.31190
 C381 C 0.04360 0.35572 0.31629
 C382 C 1.03550 0.79987 0.06836
 H383 H 1.00727 0.81318 0.06655
 C384 C 1.06838 0.81759 0.05064
 H385 H 1.06508 0.84441 0.03490
 C386 C 1.07453 0.74993 0.09268
 H387 H 1.07734 0.72414 0.10988
 C388 C 1.10795 0.76639 0.07519
 H389 H 1.13532 0.75176 0.07826
 N390 N 1.03919 0.76687 0.08933
 C391 C 0.92748 0.70594 0.10821
 H392 H 0.93135 0.70073 0.13861
 C393 C 0.89501 0.69010 0.08990
 H394 H 0.87413 0.67250 0.10641
 C395 C 0.95024 0.73524 0.05006
 H396 H 0.97209 0.75268 0.03475
 C397 C 0.91766 0.72017 0.03051
 H398 H 0.91513 0.72579 0.00003
 Zn399 Zn 0.99582 0.74717 0.11895
 N400 N 0.95426 0.72808 0.08832
 C401 C 0.93909 0.79791 0.14637
 N402 N 0.97710 0.78793 0.14991
 C403 C 1.00195 0.80859 0.17262
 C404 C 0.98879 0.84096 0.19264
 C405 C 0.92475 0.82968 0.16590
 C406 C 1.02153 0.67274 0.12872
 C407 C 1.03571 0.64036 0.14739
 C408 C 1.02732 0.67300 0.20808
 C409 C 1.01366 0.70517 0.18807
 N410 N 1.01200 0.70472 0.14899
 H411 H 0.91985 0.78183 0.12767
 H412 H 1.03223 0.80042 0.17449
 H413 H 1.00933 0.85705 0.21005
 H414 H 0.89443 0.83720 0.16221
 H415 H 1.01902 0.67289 0.09774
 H416 H 1.04394 0.61551 0.13060
 H417 H 1.02962 0.67391 0.23909
 H418 H 1.00506 0.73060 0.20366
 C419 C 0.88949 0.69731 0.05071
 C420 C 1.10543 0.80141 0.05474
 C421 C 1.03964 0.64062 0.18750
 C422 C 0.94960 0.85202 0.18908
 C423 C 0.53412 0.30273 0.56258
 H424 H 0.50646 0.31728 0.56226
 C425 C 0.56741 0.32036 0.54567
 H426 H 0.56504 0.34839 0.53196
 C427 C 0.57132 0.24959 0.58281
 H428 H 0.57307 0.22242 0.59804
 C429 C 0.60519 0.26603 0.56613
 H430 H 0.63209 0.25033 0.56781
 N431 N 0.53683 0.26835 0.58139
 C432 C 0.42174 0.21473 0.60254
 H433 H 0.42495 0.21041 0.63316
 C434 C 0.38758 0.20224 0.58470
 H435 H 0.36516 0.18736 0.60180
 C436 C 0.44823 0.23826 0.54329
 H437 H 0.47205 0.25237 0.52746
 C438 C 0.41446 0.22582 0.52410
 H439 H 0.41248 0.23017 0.49332
 Zn440 Zn 0.49382 0.24983 0.61168
 N441 N 0.45091 0.23290 0.58194
 C442 C 0.44017 0.30344 0.63912
 N443 N 0.47735 0.29109 0.64334
 C444 C 0.50279 0.30984 0.66703
 C445 C 0.49061 0.34170 0.68843
 C446 C 0.42686 0.33480 0.65990
 C447 C 0.51270 0.17304 0.62063
 C448 C 0.52592 0.13977 0.63856
 C449 C 0.53136 0.17551 0.69780
 C450 C 0.51749 0.20810 0.67879
 N451 N 0.50938 0.20648 0.64064
 H452 H 0.42081 0.28973 0.61887
 H453 H 0.53265 0.30041 0.66888
 H454 H 0.51105 0.35646 0.70715
 H455 H 0.39743 0.34444 0.65507
 H456 H 0.50578 0.17251 0.59037
 H457 H 0.52921 0.11363 0.62195
 H458 H 0.53810 0.17737 0.72805
 H459 H 0.51393 0.23472 0.69435
 C460 C 0.38333 0.20826 0.54503
 C461 C 0.60380 0.30262 0.54844
 C462 C 0.53644 0.14102 0.67729
 C463 C 0.45198 0.35409 0.68539
 C464 C 0.45603 0.79882 0.91999
 H465 H 0.48482 0.81241 0.92111
 C466 C 0.42445 0.81555 0.93905
 H467 H 0.42930 0.84193 0.95509
 C468 C 0.41446 0.74905 0.89612
 H469 H 0.41040 0.72362 0.87866
 C470 C 0.38213 0.76466 0.91487
 H471 H 0.35406 0.74996 0.91233
 N472 N 0.45045 0.76645 0.89863
 C473 C 0.56191 0.71225 0.87627
 H474 H 0.55836 0.70946 0.84554
 C475 C 0.59457 0.69711 0.89370
 H476 H 0.61617 0.68291 0.87605
 C477 C 0.53822 0.73529 0.93608
 H478 H 0.51604 0.75015 0.95232
 C479 C 0.57088 0.72071 0.95479
 H480 H 0.57366 0.72420 0.98556
 Zn481 Zn 0.49262 0.74893 0.86792
 N482 N 0.53451 0.73080 0.89745
 C483 C 0.54874 0.80401 0.84324
 N484 N 0.51144 0.79114 0.83730
 C485 C 0.48755 0.81012 0.81293
 C486 C 0.50132 0.84322 0.79304
 C487 C 0.56359 0.83665 0.82406
 C488 C 0.46790 0.67337 0.85847
 C489 C 0.45775 0.63918 0.83979
 C490 C 0.46452 0.67306 0.77900
 C491 C 0.47482 0.70676 0.79896
 N492 N 0.47608 0.70625 0.83804
 H493 H 0.56690 0.78982 0.86386
 H494 H 0.45762 0.79998 0.80951
 H495 H 0.48199 0.85834 0.77399
 H496 H 0.59290 0.84682 0.83065
 H497 H 0.46941 0.67379 0.88952
 H498 H 0.45034 0.61382 0.85698
 H499 H 0.46328 0.67379 0.74790
 H500 H 0.48204 0.73308 0.78326
 C501 C 0.59913 0.70079 0.93355
 C502 C 0.38669 0.79907 0.93586
 C503 C 0.45637 0.63860 0.79943
 C504 C 0.53996 0.85659 0.79825
 C505 C 0.49799 -0.21426 0.35660
 C506 C 0.48338 -0.18259 0.37312
 C507 C 0.47251 -0.14698 0.35265
 C508 C 0.46661 -0.14444 0.31468
 H509 H 0.47943 -0.18238 0.40409
 H510 H 0.46607 -0.12261 0.37081
 H511 H 0.50455 -0.21433 0.32610
 H512 H 0.46966 -0.16973 0.29685
 C513 C 0.98612 0.28649 0.85501
 C514 C 0.97842 0.32054 0.87165
 C515 C 0.96756 0.35644 0.85158
 C516 C 0.96218 0.36000 0.81362
 H517 H 0.97964 0.32236 0.90271
 H518 H 0.96178 0.38071 0.87011
 H519 H 0.98494 0.28338 0.82415
 H520 H 0.96564 0.33540 0.79501
 C521 C 0.00591 1.21648 0.85497
 C522 C 0.01300 1.18214 0.87156
 C523 C 0.02550 1.14679 0.85166
 C524 C 0.03046 1.14314 0.81355
 H525 H 0.01055 1.17975 0.90259
 H526 H 0.03264 1.12299 0.87042
 H527 H 0.00896 1.22028 0.82420
 H528 H 0.02523 1.16726 0.79456
 C529 C 0.52298 0.71695 0.35726
 C530 C 0.50703 0.70520 0.32412
 C531 C 0.52126 0.67118 0.30319
 C532 C 0.53319 0.63930 0.32134
 H533 H 0.48455 0.72190 0.31072
 H534 H 0.52053 0.67223 0.27211
 H535 H 0.54624 0.70009 0.36933
 H536 H 0.52973 0.63712 0.35231
 C537 C 0.51358 0.28631 0.15369
 C538 C 0.52125 0.32020 0.13581
 C539 C 0.53963 0.35398 0.15435
 C540 C 0.53535 0.36271 0.19161
 H541 H 0.51789 0.32203 0.10492
 H542 H 0.55677 0.37323 0.13568
 H543 H 0.52006 0.28316 0.18392
 H544 H 0.51508 0.34615 0.20980
 C545 C 0.02127 0.78765 0.65208
 C546 C -0.00168 0.80624 0.67730
 C547 C 0.01120 0.84220 0.69684
 C548 C 0.04891 0.85051 0.70405
 H549 H -0.03205 0.79709 0.68080
 H550 H -0.01118 0.86264 0.70390
 H551 H 0.05036 0.79938 0.64604
 H552 H 0.07066 0.82911 0.69779
 C553 C 0.98997 0.72225 0.65288
 C554 C 1.01202 0.69468 0.66846
 C555 C 0.99565 0.66081 0.69002
 C556 C 0.95904 0.64707 0.68514
 H557 H 1.04353 0.69641 0.66494
 H558 H 1.01535 0.64584 0.70872
 H559 H 0.95907 0.72276 0.66005
 H560 H 0.93988 0.66193 0.66577
 C561 C 0.49315 0.21487 0.15515
 C562 C 0.47327 0.21518 0.18867
 C563 C 0.45692 0.17958 0.20706
 C564 C 0.47175 0.14433 0.20211
 H565 H 0.46458 0.24237 0.20093
 H566 H 0.43100 0.18287 0.22485
 H567 H 0.49843 0.18725 0.14173
 H568 H 0.49982 0.14132 0.18776
 C569 C 0.35280 0.48671 -0.21575
 C570 C 0.31413 0.47941 -0.21186
 C571 C 0.29510 0.46446 -0.17601
 C572 C 0.31189 0.46433 -0.14125
 H573 H 0.29557 0.48070 -0.23670
 H574 H 0.26587 0.45252 -0.17933
 H575 H 0.37137 0.48270 -0.19123
 H576 H 0.33968 0.47924 -0.13734
 C577 C 0.85556 0.97142 0.28052
 C578 C 0.81706 0.97337 0.28840
 C579 C 0.79911 0.95693 0.32397
 C580 C 0.81766 0.95686 0.35780
 H581 H 0.79769 0.98735 0.26862
 H582 H 0.76881 0.94742 0.32247
 H583 H 0.87368 0.95616 0.30063
 H584 H 0.84647 0.97043 0.35958
 C585 C 0.84876 0.00598 1.21638
 C586 C 0.84535 0.04255 1.20390
 C587 C 0.82016 0.05330 1.17169
 C588 C 0.81611 0.03182 1.13994
 H589 H 0.86070 0.06618 1.21773
 H590 H 0.80817 0.08198 1.17253
 H591 H 0.83126 -0.01649 1.20277
 H592 H 0.83197 0.00522 1.13714
 C593 C 0.34770 0.50320 0.71228
 C594 C 0.32362 0.53327 0.71090
 C595 C 0.30144 0.54510 0.67662
 C596 C 0.30707 0.53142 0.64085
 H597 H 0.32079 0.55132 0.73608
 H598 H 0.28200 0.56883 0.68128
 H599 H 0.34965 0.48413 0.68786
 H600 H 0.32845 0.50947 0.63576
 C601 C 0.14652 0.51675 0.27886
 C602 C 0.12936 0.53281 0.30963
 C603 C 0.15023 0.55077 0.34191
 C604 C 0.18512 0.53983 0.35476
 H605 H 0.09778 0.53494 0.31038
 H606 H 0.13412 0.57229 0.35761
 H607 H 0.17812 0.51566 0.27687
 H608 H 0.19946 0.51541 0.34191
 C609 C 0.63936 0.01570 0.78183
 C610 C 0.61946 0.01987 0.81504
 C611 C 0.63719 0.03548 0.85014
 C612 C 0.67342 0.02753 0.86154
 H613 H 0.58795 0.01566 0.81542
 H614 H 0.61879 0.05326 0.86802
 H615 H 0.67009 0.02401 0.78067
 H616 H 0.69051 0.00653 0.84611
 C617 C 0.64491 1.00018 0.70990
 C618 C 0.68120 0.98627 0.71164
 C619 C 0.70185 0.97055 0.67784
 C620 C 0.69560 0.98127 0.64132
 H621 H 0.69405 0.98039 0.73923
 H622 H 0.72223 0.94781 0.68362
 H623 H 0.63129 1.00238 0.68204
 H624 H 0.67844 1.00640 0.63509
 C625 C 0.14635 0.48454 0.21367
 C626 C 0.12894 0.46751 0.18359
 C627 C 0.14960 0.44860 0.15177
 C628 C 0.18561 0.45859 0.13902
 H629 H 0.09730 0.46456 0.18365
 H630 H 0.13291 0.42652 0.13679
 H631 H 0.17797 0.48614 0.21515
 H632 H 0.20097 0.48336 0.15100
 C633 C -0.21500 0.36292 0.49147
 C634 C -0.21509 0.33819 0.46186
 C635 C -0.18181 0.31400 0.45023
 C636 C -0.14517 0.31788 0.46359
 H637 H -0.24087 0.33617 0.44413
 H638 H -0.18789 0.29417 0.42708
 H639 H -0.19020 0.36421 0.51044
 H640 H -0.13850 0.33961 0.48485
 C641 C 0.28394 0.86054 0.98770
 C642 C 0.28267 0.83698 0.95718
 C643 C 0.31566 0.81333 0.94360
 C644 C 0.35317 0.81936 0.95368
 H645 H 0.25625 0.83557 0.94034
 H646 H 0.30846 0.79252 0.92165
 H647 H 0.30926 0.86050 1.00604
 H648 H 0.36045 0.84232 0.97346
 C649 C 1.21394 0.86378 0.00763
 C650 C 1.21253 0.83848 0.03707
 C651 C 1.17719 0.81616 0.05011
 C652 C 1.14049 0.82220 0.03825
 H653 H 1.23887 0.83423 0.05339
 H654 H 1.18222 0.79537 0.07269
 H655 H 1.18845 0.86743 -0.00997
 H656 H 1.13515 0.84489 0.01762
 C657 C 0.71392 0.36573 0.50740
 C658 C 0.71142 0.33938 0.53588
 C659 C 0.67561 0.31665 0.54666
 C660 C 0.63948 0.32357 0.53379
 H661 H 0.73712 0.33440 0.55295
 H662 H 0.67957 0.29478 0.56849
 H663 H 0.68904 0.37022 0.48920
 H664 H 0.63497 0.34731 0.51414
 C665 C 0.28116 0.14225 0.50014
 C666 C 0.27838 0.17002 0.52673
 C667 C 0.31278 0.19081 0.54259
 C668 C 0.34795 0.19398 0.52493
 H669 H 0.25053 0.17404 0.54121
 H670 H 0.30883 0.20291 0.57096
 H671 H 0.30955 0.13650 0.48758
 H672 H 0.35135 0.18558 0.49518
 C673 C 0.77637 0.65254 0.00644
 C674 C 0.80335 0.67084 -0.01604
 C675 C 0.83832 0.69089 -0.00010
 C676 C 0.85479 0.67897 0.03261
 H677 H 0.80053 0.67013 -0.04700
 H678 H 0.85143 0.71448 -0.01668
 H679 H 0.77784 0.65639 0.03729
 H680 H 0.84182 0.65435 0.04786
 C681 C 0.71131 0.64855 0.97413
 C682 C 0.67965 0.63027 0.95986
 C683 C 0.64708 0.64979 0.94140
 C684 C 0.63295 0.68366 0.95292
 H685 H 0.67867 0.59895 0.95927
 H686 H 0.63227 0.63372 0.91904
 H687 H 0.71354 0.67985 0.97324
 H688 H 0.64474 0.69776 0.97811
 C689 C 0.21204 0.13666 0.47823
 C690 C 0.17990 0.11863 0.46468
 C691 C 0.14629 0.13892 0.44891
 C692 C 0.13296 0.17237 0.46252
 H693 H 0.17953 0.08747 0.46171
 H694 H 0.13074 0.12433 0.42605
 H695 H 0.21315 0.16799 0.47904
 H696 H 0.14555 0.18505 0.48807
 C697 C 0.59128 0.03878 0.73457
 C698 C 0.60447 0.07571 0.73417
 C699 C 0.58164 0.10894 0.72132
 C700 C 0.55375 0.10638 0.69474
 H701 H 0.63375 0.08237 0.74408
 H702 H 0.59162 0.13710 0.73104
 H703 H 0.56187 0.03200 0.72512
 H704 H 0.54671 0.07864 0.68199
 C705 C 1.09591 0.53163 0.23115
 C706 C 1.11221 0.56166 0.21164
 C707 C 1.09004 0.59196 0.19253
 C708 C 1.05816 0.60813 0.20758
 H709 H 1.14353 0.56235 0.20636
 H710 H 1.10286 0.60370 0.16616
 H711 H 1.06444 0.52977 0.23529
 H712 H 1.04771 0.59976 0.23606
 C713 C 0.90389 0.96419 0.22818
 C714 C 0.93270 0.94598 0.24636
 C715 C 0.95252 0.91240 0.22928
 C716 C 0.93292 0.88661 0.20765
 H717 H 0.94134 0.95513 0.27478
 H718 H 0.98263 0.90807 0.23687
 H719 H 0.89755 0.95581 0.19886
 H720 H 0.90200 0.89086 0.20318
 C721 C 0.39910 0.46099 0.73579
 C722 C 0.38311 0.42511 0.73553
 C723 C 0.40109 0.39076 0.71858
 C724 C 0.43855 0.38810 0.70717
 H725 H 0.35306 0.42091 0.74522
 H726 H 0.38130 0.36622 0.71478
 H727 H 0.42810 0.46629 0.72370
 H728 H 0.45972 0.41080 0.71364
 C729 C 0.40046 0.53135 0.75252
 C730 C 0.43020 0.53178 0.77736
 C731 C 0.44859 0.56751 0.79281
 C732 C 0.44391 0.60328 0.77851
 H733 H 0.43842 0.50489 0.79078
 H734 H 0.46557 0.56377 0.81854
 H735 H 0.39105 0.55841 0.74055
 H736 H 0.43022 0.60735 0.75100
 C737 C -0.09949 0.02648 0.26441
 C738 C -0.11595 0.05070 0.28965
 C739 C -0.09557 0.08334 0.30817
 C740 C -0.06670 0.10480 0.29176
 H741 H -0.14592 0.04538 0.29906
 H742 H -0.10754 0.09181 0.33576
 H743 H -0.06937 0.03140 0.25515
 H744 H -0.05754 0.09928 0.26241
 C745 C 0.09750 0.46590 0.26381
 C746 C 0.11584 0.43439 0.27643
 C747 C 0.09744 0.39931 0.29365
 C748 C 0.05889 0.39160 0.29710
 H749 H 0.14751 0.43418 0.27444
 H750 H 0.11799 0.37816 0.30326
 H751 H 0.06601 0.46770 0.26605
 H752 H 0.03805 0.41116 0.28503
 C753 C 0.59410 0.96836 0.75130
 C754 C 0.61187 0.93478 0.75796
 C755 C 0.59276 0.89808 0.77051
 C756 C 0.55460 0.89255 0.77892
 H757 H 0.64344 0.93416 0.75648
 H758 H 0.61257 0.87455 0.77488
 H759 H 0.56261 0.96982 0.75386
 H760 H 0.53375 0.91467 0.77270
 C761 C 0.72823 0.60143 0.02512
 C762 C 0.70609 0.61756 0.05260
 C763 C 0.68838 0.59635 0.08543
 C764 C 0.70621 0.56841 0.10483
 H765 H 0.69820 0.64757 0.04969
 H766 H 0.66073 0.60695 0.09608
 H767 H 0.73526 0.57111 0.02731
 H768 H 0.73584 0.56077 0.09710
 C769 C 0.23492 1.08953 0.52617
 C770 C 0.25640 1.08489 0.55793
 C771 C 0.24105 1.06580 0.59341
 C772 C 0.20289 1.06505 0.60303
 H773 H 0.28637 1.09559 0.55857
 H774 H 0.26232 1.05436 0.61289
 H775 H 0.20660 1.07498 0.52482
 H776 H 0.18210 1.07747 0.58358
 C777 C 0.24366 0.91382 0.96320
 C778 C 0.21430 0.93892 0.96264
 C779 C 0.20241 0.96125 0.92840
 C780 C 0.21590 0.95540 0.89245
 H781 H 0.19641 0.94204 0.98835
 H782 H 0.17859 0.98071 0.93317
 H783 H 0.26307 0.91168 0.93856
 H784 H 0.23801 0.93420 0.88729
 C785 C 0.74556 0.41534 0.46412
 C786 C 0.71676 0.44095 0.46210
 C787 C 0.70632 0.46201 0.42665
 C788 C 0.71569 0.45016 0.39103
 H789 H 0.69874 0.44579 0.48740
 H790 H 0.68637 0.48550 0.43047
 H791 H 0.76516 0.41203 0.43972
 H792 H 0.73276 0.42449 0.38736
 C793 C 0.76292 0.41593 0.53271
 C794 C 0.74079 0.42281 0.56413
 C795 C 0.75598 0.44310 0.59845
 C796 C 0.79391 0.44289 0.60790
 H797 H 0.71049 0.41313 0.56541
 H798 H 0.73475 0.45622 0.61727
 H799 H 0.79183 0.42935 0.53041
 H800 H 0.81442 0.42849 0.58919
 C801 C 0.26478 -0.08662 0.03056
 C802 C 0.24336 -0.07779 0.06188
 C803 C 0.25988 -0.05766 0.09567
 C804 C 0.29780 -0.05952 0.10497
 H805 H 0.21257 -0.08568 0.06342
 H806 H 0.23941 -0.04326 0.11432
 H807 H 0.29436 -0.07488 0.02779
 H808 H 0.31749 -0.07512 0.08640
 C809 C 0.26055 0.08814 0.45870
 C810 C 0.29002 0.06354 0.46242
 C811 C 0.30930 0.04613 0.42883
 C812 C 0.29018 0.03503 0.39724
 H813 H 0.30424 0.06085 0.48991
 H814 H 0.34078 0.04347 0.42990
 H815 H 0.24920 0.09341 0.43021
 H816 H 0.25848 0.03401 0.39709
 C817 C 0.76085 0.59940 0.96016
 C818 C 0.79261 0.57796 0.96477
 C819 C 0.81220 0.55967 0.93169
 C820 C 0.79268 0.54436 0.90199
 H821 H 0.80760 0.57846 0.99200
 H822 H 0.84390 0.55998 0.93142
 H823 H 0.74826 0.60094 0.93175
 H824 H 0.76116 0.54048 0.90374
 C825 C 0.04048 0.74050 0.60252
 C826 C 0.03603 0.71492 0.57397
 C827 C 0.06909 0.69624 0.55414
 C828 C 0.10624 0.70987 0.55434
 H829 H 0.00699 0.70455 0.56676
 H830 H 0.06173 0.67005 0.53884
 H831 H 0.06975 0.74782 0.61191
 H832 H 0.11273 0.73792 0.56658
 C833 C 0.53593 0.24059 1.10385
 C834 C 0.57280 0.23894 1.11664
 C835 C 0.60608 0.22516 1.09355
 C836 C 0.60231 0.19750 1.06703
 H837 H 0.57929 0.24819 1.14559
 H838 H 0.63497 0.23480 1.10223
 H839 H 0.52974 0.23182 1.07467
 H840 H 0.57367 0.18482 1.06152
 C841 C 0.95966 0.24016 0.90409
 C842 C 0.92481 0.23426 0.88736
 C843 C 0.88900 0.21783 0.90585
 C844 C 0.88561 0.20526 0.94232
 H845 H 0.92251 0.24003 0.85682
 H846 H 0.86419 0.21480 0.88701
 H847 H 0.96335 0.23364 0.93425
 H848 H 0.90910 0.21006 0.96236
 C849 C 0.47281 0.73616 0.40417
 C850 C 0.43786 0.73109 0.38742
 C851 C 0.40185 0.71527 0.40607
 C852 C 0.39659 0.70916 0.44393
 H853 H 0.43519 0.73818 0.35723
 H854 H 0.37843 0.70808 0.38658
 H855 H 0.47669 0.72739 0.43375
 H856 H 0.42017 0.71495 0.46365
 C857 C 0.54144 0.76337 0.40752
 C858 C 0.57509 0.77808 0.39266
 C859 C 0.60564 0.79733 0.41540
 C860 C 0.61646 0.78602 0.45047
 H861 H 0.57851 0.78026 0.36169
 H862 H 0.62144 0.82110 0.40130
 H863 H 0.53667 0.76339 0.43840
 H864 H 0.60414 0.75980 0.46339
 C865 C 0.03098 0.26164 -0.09603
 C866 C 0.06438 0.27448 -0.11300
 C867 C 0.09699 0.29253 -0.09218
 C868 C 0.11047 0.27956 -0.05870
 H869 H 0.06585 0.27667 -0.14408
 H870 H 0.11193 0.31674 -0.10643
 H871 H 0.02824 0.26168 -0.06495
 H872 H 0.09882 0.25294 -0.04603
 C873 C 0.46561 0.25877 0.10710
 C874 C 0.43331 0.27310 0.12356
 C875 C 0.39716 0.28277 0.10325
 C876 C 0.39458 0.28788 0.06510
 H877 H 0.43302 0.27854 0.15415
 H878 H 0.37244 0.28928 0.12164
 H879 H 0.46558 0.25161 0.07687
 H880 H 0.42021 0.28480 0.04690
 C881 C 0.97520 0.77098 0.60096
 C882 C 0.94477 0.75013 0.58733
 C883 C 0.91218 0.76742 0.56621
 C884 C 0.90065 0.80360 0.57272
 H885 H 0.94303 0.71920 0.59212
 H886 H 0.89498 0.74836 0.54822
 H887 H 0.97832 0.80122 0.59282
 H888 H 0.91601 0.82090 0.59382
   
