data_POSCAR
  _audit_creation_date              2014-09-24
  _audit_creation_method            'ToBaCCo'
  _symmetry_space_group_name_H-M    'P1'
  _symmetry_Int_Tables_number       1
  _symmetry_cell_setting            triclinic
  loop_
  _symmetry_equiv_pos_as_xyz
 x,y,z
_cell_length_a 37.4595
_cell_length_b 36.8746
_cell_length_c 43.9714
_cell_angle_alpha 89.793100
_cell_angle_beta 90.134900
_cell_angle_gamma 122.426000
loop_
  _atom_site_label
  _atom_site_type_symbol
  _atom_site_fract_x
  _atom_site_fract_y
  _atom_site_fract_z
C1 C -0.00001 0.45417 1.33717
 C2 C 0.03830 0.47808 1.32097
 C3 C 0.03631 0.47926 1.28900
 C4 C -0.00175 0.45333 1.27298
 C5 C -0.03886 0.42702 1.28994
 C6 C -0.03897 0.42839 1.32200
 C7 C -0.00259 0.45350 1.23872
 C8 C -0.04025 0.44032 1.22258
 C9 C -0.04163 0.43818 1.19067
 C10 C -0.00408 0.45284 1.17444
 C11 C 0.03409 0.46740 1.18980
 C12 C 0.03428 0.46628 1.22173
 H13 H 0.00071 0.45203 1.36167
 H14 H 0.06470 0.50174 1.27671
 H15 H -0.06823 0.40658 1.27812
 H16 H -0.06897 0.43172 1.23445
 H17 H -0.00480 0.45131 1.14983
 H18 H 0.06360 0.47564 1.23304
 C19 C 0.54711 0.54168 1.33193
 C20 C 0.53330 0.56547 1.31631
 C21 C 0.53501 0.56640 1.28422
 C22 C 0.54672 0.54165 1.26769
 C23 C 0.55987 0.51805 1.28419
 C24 C 0.56258 0.51958 1.31618
 C25 C 0.54530 0.54053 1.23338
 C26 C 0.56972 0.52896 1.21637
 C27 C 0.56789 0.52734 1.18441
 C28 C 0.54358 0.54013 1.16910
 C29 C 0.52047 0.55341 1.18528
 C30 C 0.51996 0.55170 1.21715
 H31 H 0.54982 0.54414 1.35642
 H32 H 0.52556 0.58528 1.27207
 H33 H 0.56669 0.49692 1.27228
 H34 H 0.59041 0.52114 1.22762
 H35 H 0.54426 0.54168 1.14448
 H36 H 0.49950 0.55935 1.22884
 C37 C 0.44734 1.00017 1.32716
 C38 C 0.42454 0.96081 1.31195
 C39 C 0.42172 0.96038 1.28018
 C40 C 0.44355 0.99879 1.26318
 C41 C 0.46656 1.03804 1.27904
 C42 C 0.46793 1.03941 1.31112
 C43 C 0.44330 0.99768 1.22908
 C44 C 0.45009 1.03312 1.21159
 C45 C 0.45240 1.03279 1.17969
 C46 C 0.44411 0.99535 1.16506
 C47 C 0.43705 0.95992 1.18186
 C48 C 0.43791 0.96157 1.21364
 H49 H 0.44649 0.99972 1.35175
 H50 H 0.40282 0.92977 1.26886
 H51 H 0.48539 1.06759 1.26642
 H52 H 0.45493 1.06162 1.22254
 H53 H 0.44488 0.99433 1.14044
 H54 H 0.43494 0.93468 1.22600
 C55 C 1.00637 0.44741 0.66627
 C56 C 0.96695 0.42856 0.68069
 C57 C 0.96473 0.42925 0.71246
 C58 C 1.00117 0.44527 0.73058
 C59 C 1.03989 0.46020 0.71547
 C60 C 1.04390 0.46465 0.68350
 C61 C 0.99936 0.44730 0.76484
 C62 C 1.03679 0.47253 0.78200
 C63 C 1.03588 0.47421 0.81375
 C64 C 0.99714 0.45371 0.82885
 C65 C 0.95937 0.42912 0.81266
 C66 C 0.96059 0.42481 0.78098
 H67 H 1.00709 0.44894 0.64172
 H68 H 0.93407 0.41721 0.72244
 H69 H 1.06715 0.46700 0.72849
 H70 H 1.06740 0.49133 0.77134
 H71 H 0.99645 0.45494 0.85346
 H72 H 0.93096 0.40393 0.76951
 C73 C 0.56238 0.55764 0.66807
 C74 C 0.57901 0.53757 0.68467
 C75 C 0.57836 0.53812 0.71652
 C76 C 0.56312 0.56045 0.73221
 C77 C 0.54894 0.58272 0.71491
 C78 C 0.54744 0.58040 0.68302
 C79 C 0.56072 0.55922 0.76630
 C80 C 0.52998 0.56351 0.78139
 C81 C 0.52646 0.56097 0.81319
 C82 C 0.55235 0.55173 0.83010
 C83 C 0.58232 0.54612 0.81568
 C84 C 0.58754 0.55156 0.78405
 H85 H 0.56264 0.55706 0.64343
 H86 H 0.58905 0.52013 0.72872
 H87 H 0.53853 0.60163 0.72596
 H88 H 0.50821 0.56842 0.76862
 H89 H 0.54858 0.54803 0.85457
 H90 H 0.61184 0.54852 0.77348
 C91 C 0.42948 -0.00254 0.67163
 C92 C 0.43800 0.03426 0.68757
 C93 C 0.42976 0.03107 0.71894
 C94 C 0.41906 -0.00622 0.73538
 C95 C 0.41275 -0.04203 0.71904
 C96 C 0.41688 -0.04118 0.68709
 C97 C 0.41955 -0.00625 0.76959
 C98 C 0.39771 -0.04497 0.78610
 C99 C 0.40507 -0.04686 0.81744
 C100 C 0.43027 -0.00764 0.83316
 C101 C 0.45087 0.03172 0.81742
 C102 C 0.44580 0.03193 0.78579
 H103 H 0.43701 0.00029 0.64765
 H104 H 0.43388 0.05881 0.73063
 H105 H 0.40451 -0.07089 0.73127
 H106 H 0.37494 -0.07411 0.77438
 H107 H 0.43754 -0.00739 0.85701
 H108 H 0.46392 0.06219 0.77384
 O109 O 0.39993 0.66115 0.96842
 O110 O 0.37887 0.71721 0.95805
 C111 C 0.35324 0.72954 0.95575
 O112 O 0.32497 0.72081 0.97557
 O113 O 0.26351 0.63975 0.97110
 C114 C 0.25171 0.60087 0.96663
 O115 O 0.26401 0.58100 0.98295
 O116 O 0.33764 0.59949 0.96535
 C117 C 0.37465 0.62535 0.95564
 O118 O 0.40669 0.68083 1.02827
 O119 O 0.39079 0.73980 1.01749
 C120 C 0.36516 0.73784 1.03737
 O121 O 0.32560 0.71055 1.03635
 O122 O 0.26060 0.63084 1.03226
 C123 C 0.26511 0.60447 1.04800
 O124 O 0.29148 0.59441 1.04113
 O125 O 0.36470 0.60968 1.02385
 C126 C 0.39468 0.64310 1.03678
 Cr127 Cr 0.39213 0.69838 0.99322
 Cr128 Cr 0.29495 0.67488 1.00374
 Cr129 Cr 0.31513 0.59819 1.00324
 O130 O 0.33408 0.65710 1.00011
 O131 O 0.63032 0.36573 0.96066
 O132 O 0.59356 0.28281 0.96945
 C133 C 0.61090 0.26536 0.95615
 O134 O 0.64513 0.26965 0.96501
 O135 O 0.72459 0.31755 0.97825
 C136 C 0.74329 0.35078 0.96139
 O137 O 0.74042 0.38312 0.96550
 O138 O 0.69615 0.41799 0.97224
 C139 C 0.66298 0.40266 0.95610
 O140 O 0.63034 0.37916 1.02124
 O141 O 0.59562 0.29722 1.03035
 C142 C 0.59856 0.26566 1.03743
 O143 O 0.62409 0.25814 1.02430
 O144 O 0.70358 0.31039 1.03796
 C145 C 0.73596 0.34712 1.04349
 O146 O 0.74737 0.37949 1.02644
 O147 O 0.69879 0.40974 1.03291
 C148 C 0.66269 0.40404 1.03753
 Cr149 Cr 0.61450 0.33149 0.99552
 Cr150 Cr 0.67416 0.29071 1.00133
 Cr151 Cr 0.71883 0.39550 0.99925
 O152 O 0.66901 0.33922 0.99864
 O153 O 0.68846 0.40943 0.52717
 O154 O 0.73439 0.37657 0.53607
 C155 C 0.73722 0.34447 0.54167
 O156 O 0.71685 0.30948 0.52691
 O157 O 0.63669 0.26310 0.53851
 C158 C 0.60130 0.25823 0.54423
 O159 O 0.58484 0.27372 0.52756
 O160 O 0.62201 0.35638 0.53781
 C161 C 0.65474 0.39313 0.54299
 O162 O 0.69365 0.40045 0.46614
 O163 O 0.74195 0.37052 0.47574
 C164 C 0.73197 0.33679 0.46085
 O165 O 0.69938 0.30026 0.46681
 O166 O 0.61866 0.24971 0.47830
 C167 C 0.59752 0.25973 0.46148
 O168 O 0.59412 0.29141 0.46709
 O169 O 0.62606 0.37243 0.47808
 C170 C 0.65801 0.39566 0.46129
 Cr171 Cr 0.71277 0.38733 0.50130
 Cr172 Cr 0.66765 0.28229 0.50260
 Cr173 Cr 0.60867 0.32363 0.50265
 O174 O 0.66322 0.33121 0.50239
 O175 O 0.36859 0.62372 0.53410
 O176 O 0.28681 0.59084 0.52831
 C177 C 0.27466 0.60967 0.54578
 O178 O 0.28271 0.64713 0.54078
 O179 O 0.33163 0.72836 0.52720
 C180 C 0.36678 0.74463 0.54109
 O181 O 0.39554 0.73866 0.53287
 O182 O 0.42236 0.68896 0.52045
 C183 C 0.40608 0.65580 0.53750
 O184 O 0.37772 0.62526 0.47325
 O185 O 0.29763 0.59769 0.46707
 C186 C 0.26749 0.60360 0.46364
 O187 O 0.26143 0.62684 0.48159
 O188 O 0.31398 0.70726 0.46776
 C189 C 0.34996 0.73819 0.45944
 O190 O 0.38411 0.74752 0.47284
 O191 O 0.40771 0.69417 0.46064
 C192 C 0.40130 0.65723 0.45606
 Cr193 Cr 0.33295 0.61125 0.50069
 Cr194 Cr 0.29900 0.67706 0.50421
 Cr195 Cr 0.40050 0.71575 0.49677
 O196 O 0.34426 0.66809 0.50060
 C197 C 0.48105 0.59448 0.37533
 C198 C 0.48603 0.63102 0.36271
 C199 C 0.50693 0.64810 0.33537
 C200 C 0.52298 0.62640 0.32017
 C201 C 0.51830 0.58813 0.33242
 C202 C 0.49725 0.57262 0.36089
 O203 O 0.45953 0.58320 0.40128
 C204 C 0.45093 0.61346 0.40514
 C205 C 0.46662 0.64360 0.38222
 C206 C 0.46163 0.67834 0.38184
 C207 C 0.43985 0.68237 0.40620
 C208 C 0.42316 0.65166 0.43017
 C209 C 0.42866 0.61651 0.42941
 H210 H 0.51077 0.67718 0.32600
 H211 H 0.54035 0.64073 0.29938
 H212 H 0.49157 0.54318 0.37100
 H213 H 0.47431 0.70168 0.36356
 H214 H 0.43590 0.70939 0.40633
 H215 H 0.41667 0.59270 0.44740
 C216 C 0.40479 0.87699 0.37062
 C217 C 0.36386 0.84513 0.36381
 C218 C 0.34117 0.84862 0.34011
 C219 C 0.36150 0.88664 0.32282
 C220 C 0.40361 0.92017 0.32961
 C221 C 0.42550 0.91498 0.35382
 O222 O 0.42060 0.86760 0.39422
 C223 C 0.38889 0.82897 0.40260
 C224 C 0.35343 0.81381 0.38477
 C225 C 0.31627 0.77444 0.38995
 C226 C 0.31558 0.74976 0.41457
 C227 C 0.35177 0.76464 0.43338
 C228 C 0.38905 0.80484 0.42706
 H229 H 0.30890 0.82316 0.33527
 H230 H 0.34420 0.89032 0.30459
 H231 H 0.45775 0.93983 0.35943
 H232 H 0.28870 0.76323 0.37569
 H233 H 0.28680 0.71902 0.41890
 H234 H 0.41711 0.81731 0.44099
 C235 C 0.12190 0.52979 0.38115
 C236 C 0.15516 0.53199 0.36623
 C237 C 0.15255 0.51894 0.33635
 C238 C 0.11388 0.50238 0.32122
 C239 C 0.07802 0.49832 0.33612
 C240 C 0.08280 0.51279 0.36675
 O241 O 0.13137 0.54455 0.40946
 C242 C 0.17139 0.55591 0.41247
 C243 C 0.18725 0.54848 0.38672
 C244 C 0.22807 0.55690 0.38501
 C245 C 0.25378 0.57401 0.41086
 C246 C 0.23861 0.58294 0.43757
 C247 C 0.19670 0.57370 0.43831
 H248 H 0.17924 0.52094 0.32513
 H249 H 0.11167 0.49052 0.29839
 H250 H 0.05735 0.51189 0.37902
 H251 H 0.23971 0.55052 0.36451
 H252 H 0.28585 0.58124 0.40982
 H253 H 0.18419 0.58002 0.45837
 C254 C 0.59310 0.47036 0.37729
 C255 C 0.62556 0.47002 0.36313
 C256 C 0.63756 0.48387 0.33341
 C257 C 0.61557 0.49918 0.31770
 C258 C 0.58234 0.50114 0.33188
 C259 C 0.57115 0.48606 0.36234
 O260 O 0.58600 0.45477 0.40541
 C261 C 0.61488 0.44472 0.40910
 C262 C 0.64016 0.45376 0.38401
 C263 C 0.67283 0.44630 0.38316
 C264 C 0.67940 0.42835 0.40916
 C265 C 0.65302 0.41771 0.43507
 C266 C 0.62041 0.42628 0.43497
 H267 H 0.66324 0.48328 0.32272
 H268 H 0.62630 0.51155 0.29497
 H269 H 0.54537 0.48527 0.37404
 H270 H 0.69243 0.45384 0.36317
 H271 H 0.70427 0.42169 0.40880
 H272 H 0.59982 0.41865 0.45440
 C273 C 0.52250 0.12075 0.37245
 C274 C 0.52278 0.15512 0.36003
 C275 C 0.50756 0.15414 0.33102
 C276 C 0.49065 0.11591 0.31434
 C277 C 0.48846 0.07905 0.32699
 C278 C 0.50556 0.08242 0.35653
 O279 O 0.53874 0.12820 0.40024
 C280 C 0.54920 0.16808 0.40562
 C281 C 0.53986 0.18598 0.38184
 C282 C 0.54733 0.22718 0.38303
 C283 C 0.56544 0.25094 0.40973
 C284 C 0.57606 0.23338 0.43436
 C285 C 0.56768 0.19125 0.43215
 H286 H 0.50810 0.18163 0.32169
 H287 H 0.47715 0.11470 0.29230
 H288 H 0.50661 0.05638 0.36693
 H289 H 0.53952 0.24055 0.36411
 H290 H 0.57197 0.28328 0.41096
 H291 H 0.57522 0.17684 0.45054
 C292 C 0.87852 0.39749 0.38139
 C293 C 0.84575 0.35963 0.36966
 C294 C 0.84924 0.34217 0.34278
 C295 C 0.88790 0.36488 0.32714
 C296 C 0.92264 0.40446 0.33857
 C297 C 0.91744 0.42027 0.36659
 O298 O 0.86832 0.40940 0.40668
 C299 C 0.82826 0.37824 0.41107
 C300 C 0.81295 0.34683 0.38917
 C301 C 0.77166 0.31130 0.38942
 C302 C 0.74515 0.30801 0.41326
 C303 C 0.76012 0.34030 0.43596
 C304 C 0.80239 0.37592 0.43469
 H305 H 0.82303 0.31219 0.33402
 H306 H 0.89075 0.35055 0.30662
 H307 H 0.94201 0.45073 0.37596
 H308 H 0.76026 0.28699 0.37191
 H309 H 0.71288 0.28061 0.41383
 H310 H 0.81493 0.40100 0.45169
 C311 C 0.59657 0.47378 1.12466
 C312 C 0.63771 0.48855 1.13252
 C313 C 0.65775 0.51547 1.15726
 C314 C 0.63447 0.52782 1.17450
 C315 C 0.59202 0.51325 1.16671
 C316 C 0.57292 0.48566 1.14142
 O317 O 0.58342 0.44858 1.10036
 C318 C 0.61704 0.44747 1.09262
 C319 C 0.65111 0.47144 1.11153
 C320 C 0.68962 0.47499 1.10742
 C321 C 0.69315 0.45288 1.08287
 C322 C 0.65839 0.42771 1.06299
 C323 C 0.61975 0.42510 1.06811
 H324 H 0.69023 0.52679 1.16296
 H325 H 0.64975 0.54936 1.19351
 H326 H 0.54051 0.47367 1.13502
 H327 H 0.71603 0.49409 1.12257
 H328 H 0.72297 0.45528 1.07952
 H329 H 0.59259 0.40629 1.05350
 C330 C 0.87497 0.41333 1.13121
 C331 C 0.84144 0.37545 1.14251
 C332 C 0.84352 0.35740 1.16973
 C333 C 0.88187 0.37904 1.18581
 C334 C 0.91724 0.41789 1.17444
 C335 C 0.91344 0.43534 1.14677
 O336 O 0.86663 0.42460 1.10472
 C337 C 0.82705 0.39305 1.09912
 C338 C 0.81023 0.36208 1.12147
 C339 C 0.76967 0.32554 1.11970
 C340 C 0.74545 0.32076 1.09385
 C341 C 0.76195 0.35243 1.07052
 C342 C 0.80341 0.38919 1.07340
 H343 H 0.81680 0.32741 1.17808
 H344 H 0.88438 0.36483 1.20665
 H345 H 0.93974 0.46488 1.13747
 H346 H 0.75722 0.30143 1.13749
 H347 H 0.71379 0.29251 1.09212
 H348 H 0.81715 0.41380 1.05596
 C349 C 0.51278 0.12077 1.12193
 C350 C 0.49792 0.14705 1.12750
 C351 C 0.46796 0.13790 1.14994
 C352 C 0.45280 0.10013 1.16721
 C353 C 0.46756 0.07246 1.16157
 C354 C 0.49816 0.08333 1.13863
 O355 O 0.54132 0.13499 1.09992
 C356 C 0.54463 0.17110 1.09124
 C357 C 0.51879 0.18008 1.10730
 C358 C 0.51748 0.21650 1.10164
 C359 C 0.54379 0.24461 1.07853
 C360 C 0.57078 0.23595 1.06170
 C361 C 0.57101 0.19851 1.06836
 H362 H 0.45671 0.15904 1.15402
 H363 H 0.42936 0.09223 1.18467
 H364 H 0.51080 0.06347 1.13414
 H365 H 0.49695 0.22303 1.11451
 H366 H 0.54316 0.27311 1.07386
 H367 H 0.59105 0.19072 1.05608
 C368 C 0.46240 0.57656 1.12562
 C369 C 0.47061 0.61557 1.13572
 C370 C 0.49254 0.63457 1.16244
 C371 C 0.50728 0.61278 1.17923
 C372 C 0.50024 0.57299 1.16895
 C373 C 0.47704 0.55446 1.14185
 O374 O 0.44147 0.56452 1.09943
 C375 C 0.43664 0.59680 1.09279
 C376 C 0.45420 0.62896 1.11418
 C377 C 0.45428 0.66651 1.11127
 C378 C 0.43523 0.67103 1.08530
 C379 C 0.41623 0.63808 1.06307
 C380 C 0.41688 0.60031 1.06698
 H381 H 0.49872 0.66540 1.16983
 H382 H 0.52555 0.62768 1.19964
 H383 H 0.47129 0.52422 1.13341
 H384 H 0.46862 0.69150 1.12831
 H385 H 0.43461 0.69989 1.08282
 H386 H 0.40286 0.57473 1.05035
 C387 C 0.12198 0.52758 1.13239
 C388 C 0.14958 0.51590 1.14152
 C389 C 0.14116 0.48805 1.16573
 C390 C 0.10285 0.47185 1.18134
 C391 C 0.07388 0.48363 1.17253
 C392 C 0.08370 0.51181 1.14753
 O393 O 0.13574 0.55391 1.10857
 C394 C 0.17283 0.55890 1.10250
 C395 C 0.18276 0.53633 1.12201
 C396 C 0.21964 0.53620 1.11938
 C397 C 0.24711 0.55976 1.09538
 C398 C 0.23742 0.58295 1.07461
 C399 C 0.19986 0.58286 1.07860
 H400 H 0.16324 0.47904 1.17232
 H401 H 0.09560 0.44985 1.20010
 H402 H 0.06246 0.52166 1.14037
 H403 H 0.22671 0.51809 1.13497
 H404 H 0.27568 0.55944 1.09278
 H405 H 0.19122 0.59973 1.06302
 C406 C 0.39564 0.86584 1.12894
 C407 C 0.42783 0.85834 1.13065
 C408 C 0.46240 0.88110 1.14996
 C409 C 0.46414 0.91338 1.16795
 C410 C 0.43203 0.92255 1.16580
 C411 C 0.39713 0.89823 1.14623
 O412 O 0.36618 0.84130 1.10866
 C413 C 0.38026 0.81805 1.09709
 C414 C 0.41808 0.82759 1.10957
 C415 C 0.44003 0.80932 1.09933
 C416 C 0.42225 0.78001 1.07526
 C417 C 0.38281 0.76888 1.06249
 C418 C 0.36134 0.78795 1.07374
 H419 H 0.48742 0.87473 1.15078
 H420 H 0.49114 0.93230 1.18269
 H421 H 0.37255 0.90514 1.14403
 H422 H 0.47015 0.81797 1.10908
 H423 H 0.43907 0.76582 1.06662
 H424 H 0.33162 0.78061 1.06397
 C425 C 0.59834 0.47206 0.62932
 C426 C 0.63974 0.48622 0.63600
 C427 C 0.66225 0.51551 0.65908
 C428 C 0.64133 0.53115 0.67571
 C429 C 0.59904 0.51787 0.66865
 C430 C 0.57721 0.48770 0.64521
 O431 O 0.58275 0.44434 0.60648
 C432 C 0.61507 0.44117 0.59841
 C433 C 0.65083 0.46642 0.61556
 C434 C 0.68889 0.46943 0.60997
 C435 C 0.69006 0.44538 0.58573
 C436 C 0.65331 0.41851 0.56815
 C437 C 0.61526 0.41627 0.57474
 H438 H 0.69480 0.52623 0.66392
 H439 H 0.65838 0.55453 0.69347
 H440 H 0.54494 0.47713 0.63938
 H441 H 0.71677 0.48992 0.62353
 H442 H 0.71933 0.44725 0.58086
 H443 H 0.58693 0.39651 0.56138
 C444 C 0.48517 0.12283 0.62798
 C445 C 0.51790 0.15536 0.64444
 C446 C 0.52424 0.15148 0.67507
 C447 C 0.49622 0.11216 0.68929
 C448 C 0.46255 0.07738 0.67285
 C449 C 0.45665 0.08332 0.64174
 O450 O 0.48669 0.13230 0.59861
 C451 C 0.52133 0.17147 0.59653
 C452 C 0.54162 0.18687 0.62398
 C453 C 0.58043 0.22540 0.62678
 C454 C 0.59932 0.24895 0.60016
 C455 C 0.57896 0.23401 0.57166
 C456 C 0.53913 0.19502 0.56978
 H457 H 0.55077 0.17729 0.68734
 H458 H 0.50236 0.10823 0.71275
 H459 H 0.43176 0.05750 0.62836
 H460 H 0.59622 0.23627 0.64853
 H461 H 0.63003 0.27861 0.60159
 H462 H 0.52368 0.18251 0.54808
 C463 C 0.88131 0.40586 0.62405
 C464 C 0.85234 0.36324 0.63040
 C465 C 0.85887 0.34054 0.65266
 C466 C 0.89678 0.36270 0.66914
 C467 C 0.92741 0.40648 0.66282
 C468 C 0.91964 0.42835 0.63983
 O469 O 0.86859 0.42142 0.60222
 C470 C 0.83091 0.38783 0.59455
 C471 C 0.81968 0.35140 0.61099
 C472 C 0.78214 0.31223 0.60613
 C473 C 0.75514 0.31042 0.58321
 C474 C 0.76574 0.34761 0.56610
 C475 C 0.80407 0.38699 0.57207
 H476 H 0.83554 0.30705 0.65727
 H477 H 0.90259 0.34575 0.68667
 H478 H 0.94245 0.46184 0.63474
 H479 H 0.77416 0.28396 0.61925
 H480 H 0.72585 0.28015 0.57888
 H481 H 0.81317 0.41571 0.55910
 C482 C 0.48459 0.60038 0.62583
 C483 C 0.50198 0.64374 0.62962
 C484 C 0.53335 0.66793 0.65102
 C485 C 0.54753 0.64658 0.66909
 C486 C 0.53073 0.60211 0.66508
 C487 C 0.49869 0.57874 0.64318
 O488 O 0.45506 0.58327 0.60438
 C489 C 0.45392 0.61658 0.59423
 C490 C 0.48225 0.65441 0.60874
 C491 C 0.48735 0.69349 0.60090
 C492 C 0.46226 0.69357 0.57715
 C493 C 0.43237 0.65486 0.56215
 C494 C 0.42802 0.61577 0.57101
 H495 H 0.54652 0.70200 0.65363
 H496 H 0.57221 0.66475 0.68570
 H497 H 0.48525 0.54472 0.63977
 H498 H 0.51006 0.72292 0.61246
 H499 H 0.46572 0.72367 0.57068
 H500 H 0.40578 0.58583 0.55976
 C501 C 0.39105 0.87805 0.62593
 C502 C 0.40162 0.85197 0.64032
 C503 C 0.41693 0.85903 0.66985
 C504 C 0.42147 0.89438 0.68538
 C505 C 0.41136 0.92268 0.67119
 C506 C 0.39613 0.91405 0.64068
 O507 O 0.37679 0.86533 0.59778
 C508 C 0.37878 0.83066 0.59433
 C509 C 0.39415 0.82142 0.61968
 C510 C 0.40066 0.78773 0.62077
 C511 C 0.39125 0.76265 0.59457
 C512 C 0.37484 0.77106 0.56826
 C513 C 0.36807 0.80530 0.56820
 H514 H 0.42538 0.83816 0.68056
 H515 H 0.43493 0.90051 0.70797
 H516 H 0.38709 0.93379 0.62896
 H517 H 0.41322 0.78142 0.64089
 H518 H 0.39659 0.73653 0.59473
 H519 H 0.35622 0.81271 0.54819
 C520 C 0.13130 0.50537 0.62586
 C521 C 0.16494 0.53506 0.64310
 C522 C 0.16107 0.54247 0.67340
 C523 C 0.12089 0.51840 0.68662
 C524 C 0.08474 0.48702 0.66965
 C525 C 0.09082 0.48074 0.63853
 O526 O 0.14150 0.50525 0.59693
 C527 C 0.18242 0.53579 0.59597
 C528 C 0.19821 0.55501 0.62370
 C529 C 0.23930 0.59000 0.62759
 C530 C 0.26498 0.60646 0.60169
 C531 C 0.24943 0.58744 0.57284
 C532 C 0.20782 0.55112 0.56995
 H533 H 0.18791 0.56692 0.68626
 H534 H 0.11823 0.52656 0.70973
 H535 H 0.06531 0.45726 0.62432
 H536 H 0.25065 0.60512 0.64955
 H537 H 0.29655 0.63478 0.60385
 H538 H 0.19488 0.53714 0.54792
 C539 C 0.47608 0.59699 0.86972
 C540 C 0.43501 0.57504 0.85941
 C541 C 0.42194 0.54876 0.83387
 C542 C 0.45245 0.54483 0.81840
 C543 C 0.49490 0.56670 0.82886
 C544 C 0.50678 0.59329 0.85485
 O545 O 0.48180 0.61959 0.89471
 C546 C 0.44344 0.61157 0.90042
 C547 C 0.41365 0.58435 0.87956
 C548 C 0.37112 0.57023 0.88194
 C549 C 0.35875 0.58443 0.90698
 C550 C 0.38887 0.61253 0.92882
 C551 C 0.43196 0.62669 0.92521
 H552 H 0.38937 0.53159 0.82630
 H553 H 0.44286 0.52402 0.79875
 H554 H 0.53896 0.61045 0.86329
 H555 H 0.34818 0.54852 0.86540
 H556 H 0.32571 0.57350 0.90937
 H557 H 0.45553 0.64760 0.94172
 C558 C 0.12038 0.53544 0.87298
 C559 C 0.14475 0.51834 0.86836
 C560 C 0.13689 0.48930 0.84530
 C561 C 0.10194 0.47673 0.82648
 C562 C 0.07538 0.49268 0.83140
 C563 C 0.08493 0.52276 0.85485
 O564 O 0.13330 0.56229 0.89640
 C565 C 0.16628 0.56174 0.90692
 C566 C 0.17419 0.53492 0.89071
 C567 C 0.20553 0.52737 0.89871
 C568 C 0.23000 0.54860 0.92436
 C569 C 0.22345 0.57747 0.94097
 C570 C 0.19117 0.58428 0.93205
 H571 H 0.15655 0.47629 0.84221
 H572 H 0.09450 0.45326 0.80884
 H573 H 0.06488 0.53506 0.85917
 H574 H 0.21063 0.50555 0.88587
 H575 H 0.25459 0.54314 0.93103
 H576 H 0.18526 0.60578 0.94456
 C577 C 0.37538 0.86801 0.87663
 C578 C 0.37253 0.83604 0.85882
 C579 C 0.37764 0.83971 0.82756
 C580 C 0.38670 0.87815 0.81397
 C581 C 0.39127 0.91292 0.83164
 C582 C 0.38493 0.90696 0.86368
 O583 O 0.37017 0.85811 0.90607
 C584 C 0.36439 0.81924 0.90676
 C585 C 0.36595 0.80451 0.87841
 C586 C 0.36347 0.76590 0.87391
 C587 C 0.35933 0.74147 0.89972
 C588 C 0.35686 0.75553 0.92913
 C589 C 0.35902 0.79479 0.93271
 H590 H 0.37571 0.81420 0.81409
 H591 H 0.39292 0.88129 0.78979
 H592 H 0.38702 0.93154 0.87831
 H593 H 0.36551 0.75539 0.85139
 H594 H 0.35783 0.71151 0.89687
 H595 H 0.35803 0.80653 0.95504
 C596 C 0.60602 0.48242 0.87001
 C597 C 0.64932 0.50375 0.86770
 C598 C 0.67271 0.53898 0.84852
 C599 C 0.65050 0.55272 0.83110
 C600 C 0.60591 0.53156 0.83358
 C601 C 0.58352 0.49582 0.85328
 O602 O 0.58961 0.44984 0.88948
 C603 C 0.62326 0.45062 0.89989
 C604 C 0.66064 0.48307 0.88745
 C605 C 0.69977 0.49044 0.89607
 C606 C 0.70031 0.46349 0.91853
 C607 C 0.66206 0.42967 0.93156
 C608 C 0.62301 0.42307 0.92179
 H609 H 0.70678 0.55531 0.84704
 H610 H 0.66794 0.58013 0.81610
 H611 H 0.54943 0.47875 0.85537
 H612 H 0.72885 0.51635 0.88619
 H613 H 0.73048 0.46898 0.92579
 H614 H 0.59332 0.39804 0.93158
 C615 C 0.87428 0.40783 0.86854
 C616 C 0.84759 0.36400 0.86599
 C617 C 0.85431 0.33991 0.84514
 C618 C 0.89041 0.36186 0.82656
 C619 C 0.91897 0.40685 0.82952
 C620 C 0.91036 0.43011 0.85056
 O621 O 0.86283 0.42472 0.89005
 C622 C 0.82828 0.39081 0.90154
 C623 C 0.81770 0.35281 0.88781
 C624 C 0.78370 0.31319 0.89734
 C625 C 0.75963 0.31282 0.92194
 C626 C 0.76963 0.35171 0.93615
 C627 C 0.80439 0.39125 0.92562
 H628 H 0.83297 0.30542 0.84361
 H629 H 0.89698 0.34373 0.81073
 H630 H 0.93175 0.46446 0.85332
 H631 H 0.77618 0.28364 0.88643
 H632 H 0.73289 0.28233 0.92965
 H633 H 0.81305 0.42139 0.93620
 C634 C 0.50199 0.12291 0.87466
 C635 C 0.54024 0.14972 0.86066
 C636 C 0.55143 0.13977 0.83330
 C637 C 0.52179 0.10075 0.81953
 C638 C 0.48172 0.07246 0.83312
 C639 C 0.47188 0.08366 0.86132
 O640 O 0.49857 0.13805 0.90121
 C641 C 0.53554 0.17514 0.90395
 C642 C 0.56204 0.18360 0.87966
 C643 C 0.60308 0.21928 0.87830
 C644 C 0.61785 0.24700 0.90330
 C645 C 0.59151 0.23898 0.92883
 C646 C 0.54941 0.20294 0.92898
 H647 H 0.58205 0.16116 0.82303
 H648 H 0.53033 0.09233 0.79839
 H649 H 0.44173 0.06267 0.87235
 H650 H 0.62345 0.22486 0.85909
 H651 H 0.65026 0.27422 0.90321
 H652 H 0.52917 0.19550 0.94859
   
