data_POSCAR
  _audit_creation_date              2014-09-24
  _audit_creation_method            'ToBaCCo'
  _symmetry_space_group_name_H-M    'P1'
  _symmetry_Int_Tables_number       1
  _symmetry_cell_setting            triclinic
  loop_
  _symmetry_equiv_pos_as_xyz
 x,y,z
_cell_length_a 27.7363
_cell_length_b 27.7617
_cell_length_c 39.3806
_cell_angle_alpha 90.004700
_cell_angle_beta 90.050100
_cell_angle_gamma 120.155100
loop_
  _atom_site_label
  _atom_site_type_symbol
  _atom_site_fract_x
  _atom_site_fract_y
  _atom_site_fract_z
C1 C 0.02858 0.51486 1.28140
 C2 C -0.03032 0.48536 1.28147
 C3 C -0.05934 0.47052 1.25052
 C4 C -0.03052 0.48462 1.21955
 C5 C 0.02826 0.51404 1.21951
 C6 C 0.05730 0.52891 1.25040
 H7 H 0.10257 0.55157 1.25024
 H8 H -0.10463 0.44784 1.25053
 C9 C 0.51450 0.48665 1.21957
 C10 C 0.48539 0.51605 1.21952
 C11 C 0.47032 0.52991 1.25039
 C12 C 0.48398 0.51476 1.28135
 C13 C 0.51315 0.48530 1.28136
 C14 C 0.52817 0.47148 1.25047
 H15 H 0.55062 0.44882 1.25047
 H16 H 0.44786 0.55259 1.25025
 C17 C 0.48533 0.97025 1.28190
 C18 C 0.51468 1.02910 1.28201
 C19 C 0.52847 1.05806 1.25110
 C20 C 0.51344 1.02924 1.22017
 C21 C 0.48419 0.97062 1.22005
 C22 C 0.47034 0.94154 1.25087
 H23 H 0.44778 0.89631 1.25065
 H24 H 0.55105 1.10329 1.25105
 C25 C 0.97165 0.48468 0.71958
 C26 C 1.03033 0.51405 0.71952
 C27 C 1.05945 0.52942 0.75036
 C28 C 1.03066 0.51580 0.78132
 C29 C 0.97187 0.48637 0.78137
 C30 C 0.94283 0.47105 0.75049
 H31 H 0.89758 0.44841 0.75051
 H32 H 1.10472 0.55208 0.75021
 C33 C 0.51556 0.48603 0.71903
 C34 C 0.48611 0.51512 0.71893
 C35 C 0.47107 0.52905 0.74979
 C36 C 0.48506 0.51430 0.78075
 C37 C 0.51453 0.48522 0.78084
 C38 C 0.52956 0.47129 0.74998
 H39 H 0.55225 0.44886 0.75006
 H40 H 0.44837 0.55147 0.74972
 C41 C 0.48552 -0.03051 0.78139
 C42 C 0.51516 0.02824 0.78143
 C43 C 0.52929 0.05715 0.75053
 C44 C 0.51427 0.02828 0.71960
 C45 C 0.48469 -0.03036 0.71954
 C46 C 0.47053 -0.05935 0.75041
 H47 H 0.44771 -0.10458 0.75026
 H48 H 0.55207 0.10235 0.75054
 O49 O 0.41404 0.67040 0.96070
 O50 O 0.41677 0.76426 0.97122
 C51 C 0.38174 0.77085 0.95389
 O52 O 0.33011 0.74552 0.96060
 O53 O 0.23608 0.65412 0.97121
 C54 C 0.22936 0.61241 0.95394
 O55 O 0.25463 0.58620 0.96071
 O56 O 0.34595 0.58378 0.97137
 C57 C 0.38772 0.61877 0.95406
 O58 O 0.41673 0.65461 1.02832
 O59 O 0.41422 0.74583 1.03885
 C60 C 0.38792 0.77101 1.04556
 O61 O 0.34618 0.76423 1.02823
 O62 O 0.25474 0.67026 1.03885
 C63 C 0.22939 0.61868 1.04559
 O64 O 0.23605 0.58369 1.02830
 O65 O 0.33003 0.58655 1.03895
 C66 C 0.38168 0.61290 1.04564
 Cr67 Cr 0.41246 0.70729 0.99977
 Cr68 Cr 0.29326 0.70705 0.99972
 Cr69 Cr 0.29315 0.58803 0.99983
 O70 O 0.33296 0.66746 0.99977
 O71 O 0.58361 0.34692 0.97199
 O72 O 0.58615 0.25568 0.96151
 C73 C 0.61240 0.23039 0.95494
 O74 O 0.65407 0.23721 0.97236
 O75 O 0.74554 0.33121 0.96190
 C76 C 0.77094 0.38279 0.95519
 O77 O 0.76426 0.41779 0.97245
 O78 O 0.67036 0.41503 0.96155
 C79 C 0.61873 0.38869 0.95476
 O80 O 0.58588 0.33098 1.03962
 O81 O 0.58320 0.23713 1.02913
 C82 C 0.61814 0.23051 1.04655
 O83 O 0.66981 0.25591 1.03998
 O84 O 0.76392 0.34728 1.02954
 C85 C 0.77059 0.38895 1.04684
 O86 O 0.74535 0.41518 1.04002
 O87 O 0.65407 0.41763 1.02910
 C88 C 0.61218 0.38259 1.04630
 Cr89 Cr 0.58769 0.29417 1.00057
 Cr90 Cr 0.70686 0.29439 1.00094
 Cr91 Cr 0.70703 0.41343 1.00078
 O92 O 0.66719 0.33400 1.00076
 O93 O 0.65424 0.41624 0.52834
 O94 O 0.74560 0.41380 0.53880
 C95 C 0.77089 0.38758 0.54547
 O96 O 0.76411 0.34590 0.52815
 O97 O 0.67012 0.25452 0.53890
 C98 C 0.61851 0.22915 0.54568
 O99 O 0.58341 0.23575 0.52843
 O100 O 0.58621 0.32962 0.53908
 C101 C 0.61254 0.38126 0.54570
 O102 O 0.66984 0.41349 0.46073
 O103 O 0.76387 0.41631 0.47116
 C104 C 0.77045 0.38132 0.45382
 O105 O 0.74511 0.32973 0.46055
 O106 O 0.65370 0.23575 0.47131
 C107 C 0.61184 0.22891 0.45409
 O108 O 0.58563 0.25418 0.46083
 O109 O 0.58319 0.34544 0.47150
 C110 C 0.61814 0.38720 0.45418
 Cr111 Cr 0.70690 0.41198 0.49976
 Cr112 Cr 0.70677 0.29296 0.49973
 Cr113 Cr 0.58759 0.29273 0.49995
 O114 O 0.66709 0.33256 0.49981
 O115 O 0.33005 0.58503 0.53827
 O116 O 0.23611 0.58230 0.52767
 C117 C 0.22954 0.61729 0.54501
 O118 O 0.25487 0.66887 0.53831
 O119 O 0.34629 0.76286 0.52781
 C120 C 0.38798 0.76956 0.54516
 O121 O 0.41424 0.74433 0.53844
 O122 O 0.41675 0.65315 0.52773
 C123 C 0.38170 0.61137 0.54499
 O124 O 0.34599 0.58257 0.47065
 O125 O 0.25462 0.58501 0.46004
 C126 C 0.22934 0.61124 0.45336
 O127 O 0.23617 0.65293 0.47069
 O128 O 0.33025 0.74432 0.46018
 C129 C 0.38189 0.76975 0.45354
 O130 O 0.41690 0.76307 0.47084
 O131 O 0.41416 0.66923 0.46015
 C132 C 0.38780 0.61764 0.45341
 Cr133 Cr 0.29319 0.58670 0.49915
 Cr134 Cr 0.29338 0.70576 0.49924
 Cr135 Cr 0.41253 0.70596 0.49929
 O136 O 0.33303 0.66614 0.49922
 C137 C 0.44009 0.56108 0.36692
 C138 C 0.46978 0.61713 0.37655
 C139 C 0.45329 0.63532 0.40498
 C140 C 0.46902 0.52951 0.31090
 C141 C 0.37754 0.54111 0.41460
 C142 C 0.39416 0.52302 0.38610
 C143 C 0.45579 0.54332 0.33666
 C144 C 0.40669 0.59761 0.42423
 H145 H 0.50532 0.64695 0.36183
 H146 H 0.47669 0.67907 0.41161
 H147 H 0.34147 0.51101 0.42879
 H148 H 0.37080 0.47954 0.37879
 C149 C 0.43876 0.87909 0.36719
 C150 C 0.38267 0.85253 0.37677
 C151 C 0.36439 0.81768 0.40515
 C152 C 0.47048 0.94012 0.31135
 C153 C 0.45860 0.83637 0.41484
 C154 C 0.47678 0.87124 0.38638
 C155 C 0.45662 0.91281 0.33702
 C156 C 0.40205 0.80883 0.42441
 H157 H 0.35288 0.85823 0.36205
 H158 H 0.32060 0.79719 0.41173
 H159 H 0.48866 0.83042 0.42904
 H160 H 0.52030 0.89154 0.37912
 C161 C 0.11995 0.55894 0.36681
 C162 C 0.12782 0.60465 0.38616
 C163 C 0.16272 0.62127 0.41467
 C164 C 0.05878 0.52988 0.31090
 C165 C 0.18139 0.54599 0.40472
 C166 C 0.14652 0.52949 0.37628
 C167 C 0.08615 0.54316 0.33660
 C168 C 0.19026 0.59235 0.42414
 H169 H 0.10753 0.62782 0.37900
 H170 H 0.16867 0.65716 0.42899
 H171 H 0.20189 0.52277 0.41122
 H172 H 0.14081 0.49413 0.36144
 C173 C 0.56072 0.43990 0.36824
 C174 C 0.52280 0.39389 0.38741
 C175 C 0.54117 0.37710 0.41573
 C176 C 0.52874 0.46923 0.31253
 C177 C 0.63538 0.45282 0.40592
 C178 C 0.61691 0.46948 0.37769
 C179 C 0.54269 0.45581 0.33817
 C180 C 0.59782 0.40616 0.42517
 H181 H 0.47921 0.37061 0.38024
 H182 H 0.51118 0.34099 0.42992
 H183 H 0.67925 0.47616 0.41242
 H184 H 0.64663 0.50507 0.36297
 C185 C 0.55902 0.11972 0.36759
 C186 C 0.60497 0.12768 0.38677
 C187 C 0.62176 0.16248 0.41528
 C188 C 0.52980 0.05900 0.31157
 C189 C 0.54612 0.18086 0.40567
 C190 C 0.52946 0.14608 0.37724
 C191 C 0.54315 0.08614 0.33734
 C192 C 0.59275 0.18984 0.42492
 H193 H 0.62823 0.10754 0.37946
 H194 H 0.65785 0.16854 0.42947
 H195 H 0.52282 0.20122 0.41231
 H196 H 0.49391 0.14029 0.36252
 C197 C 0.87911 0.43826 0.36707
 C198 C 0.85250 0.38217 0.37659
 C199 C 0.81788 0.36385 0.40509
 C200 C 0.93976 0.47026 0.31102
 C201 C 0.83690 0.45800 0.41503
 C202 C 0.87154 0.47621 0.38646
 C203 C 0.91263 0.45621 0.33679
 C204 C 0.80931 0.40147 0.42455
 H205 H 0.85797 0.35241 0.36172
 H206 H 0.79733 0.32007 0.41162
 H207 H 0.83117 0.48804 0.42937
 H208 H 0.89187 0.51973 0.37926
 C209 C 0.55947 0.43938 1.13248
 C210 C 0.60550 0.47738 1.11335
 C211 C 0.62226 0.45922 1.08494
 C212 C 0.53036 0.47108 1.18836
 C213 C 0.54644 0.36505 1.09456
 C214 C 0.52981 0.38331 1.12289
 C215 C 0.54366 0.45721 1.16265
 C216 C 0.59314 0.40270 1.07537
 H217 H 0.62884 0.52088 1.12063
 H218 H 0.65841 0.48928 1.07079
 H219 H 0.52306 0.32127 1.08796
 H220 H 0.49420 0.35353 1.13757
 C221 C 0.87906 0.44096 1.13381
 C222 C 0.85262 0.47047 1.12418
 C223 C 0.81808 0.45408 1.09560
 C224 C 0.93960 0.46976 1.18998
 C225 C 0.83684 0.37882 1.08581
 C226 C 0.87140 0.39533 1.11446
 C227 C 0.91250 0.45661 1.16417
 C228 C 0.80941 0.40778 1.07618
 H229 H 0.85818 0.50579 1.13901
 H230 H 0.79766 0.47734 1.08898
 H231 H 0.83103 0.34296 1.07151
 H232 H 0.89159 0.37211 1.12175
 C233 C 0.56093 0.12151 1.13304
 C234 C 0.52300 0.12932 1.11374
 C235 C 0.54129 0.16407 1.08523
 C236 C 0.52905 0.06077 1.18899
 C237 C 0.63544 0.18270 1.09509
 C238 C 0.61705 0.14797 1.12352
 C239 C 0.54298 0.08793 1.16327
 C240 C 0.59786 0.19152 1.07572
 H241 H 0.47946 0.10910 1.12095
 H242 H 0.51130 0.17001 1.07094
 H243 H 0.67925 0.20313 1.08856
 H244 H 0.64677 0.14229 1.13833
 C245 C 0.43843 0.56087 1.13221
 C246 C 0.38235 0.53110 1.12253
 C247 C 0.36412 0.54751 1.09408
 C248 C 0.46998 0.53195 1.18826
 C249 C 0.45834 0.62335 1.08450
 C250 C 0.47648 0.60681 1.11304
 C251 C 0.45621 0.54521 1.16249
 C252 C 0.40181 0.59411 1.07484
 H253 H 0.35254 0.49555 1.13724
 H254 H 0.32033 0.52404 1.08742
 H255 H 0.48842 0.65943 1.07032
 H256 H 0.51999 0.63023 1.12038
 C257 C 0.12057 0.56184 1.13226
 C258 C 0.12824 0.52387 1.11296
 C259 C 0.16292 0.54204 1.08440
 C260 C 0.05985 0.52991 1.18828
 C261 C 0.18178 0.63617 1.09420
 C262 C 0.14713 0.61789 1.12269
 C263 C 0.08702 0.54393 1.16253
 C264 C 0.19046 0.59855 1.07483
 H265 H 0.10797 0.48037 1.12020
 H266 H 0.16873 0.51201 1.07012
 H267 H 0.20229 0.67994 1.08763
 H268 H 0.14157 0.64766 1.13749
 C269 C 0.43976 0.87928 1.13248
 C270 C 0.39391 0.87138 1.11321
 C271 C 0.37747 0.83692 1.08455
 C272 C 0.46843 0.93938 1.18873
 C273 C 0.45328 0.81880 1.09416
 C274 C 0.46959 0.85324 1.12275
 C275 C 0.45530 0.91250 1.16288
 C276 C 0.40673 0.80985 1.07484
 H277 H 0.37045 0.89128 1.12058
 H278 H 0.34142 0.83087 1.07031
 H279 H 0.47676 0.79866 1.08747
 H280 H 0.50508 0.85899 1.13752
 C281 C 0.56037 0.43837 0.63201
 C282 C 0.60620 0.47632 0.61271
 C283 C 0.62280 0.45804 0.58428
 C284 C 0.53138 0.47034 0.68785
 C285 C 0.54726 0.36385 0.59422
 C286 C 0.53079 0.38223 0.62257
 C287 C 0.54464 0.45635 0.66217
 C288 C 0.59374 0.40146 0.57484
 H289 H 0.62948 0.51988 0.61987
 H290 H 0.65878 0.48807 0.57000
 H291 H 0.52392 0.32003 0.58773
 H292 H 0.49533 0.35248 0.63737
 C293 C 0.56190 0.12040 0.63235
 C294 C 0.52382 0.12797 0.61305
 C295 C 0.54192 0.16264 0.58449
 C296 C 0.53008 0.05977 0.68838
 C297 C 0.63622 0.18168 0.59430
 C298 C 0.61801 0.14704 0.62278
 C299 C 0.54405 0.08689 0.66263
 C300 C 0.59847 0.19025 0.57492
 H301 H 0.48028 0.10763 0.62029
 H302 H 0.51179 0.16836 0.57022
 H303 H 0.68002 0.20226 0.58772
 H304 H 0.64786 0.14156 0.63759
 C305 C 0.87960 0.43966 0.63224
 C306 C 0.85346 0.46940 0.62252
 C307 C 0.81887 0.45300 0.59398
 C308 C 0.94011 0.46865 0.68836
 C309 C 0.83703 0.37728 0.58441
 C310 C 0.87165 0.39380 0.61303
 C311 C 0.91302 0.45534 0.66257
 C312 C 0.80987 0.40646 0.57470
 H313 H 0.85927 0.50490 0.63725
 H314 H 0.79866 0.47643 0.58729
 H315 H 0.83094 0.34123 0.57021
 H316 H 0.89163 0.37043 0.62040
 C317 C 0.43856 0.55934 0.63156
 C318 C 0.38243 0.52967 0.62198
 C319 C 0.36414 0.54606 0.59352
 C320 C 0.47040 0.53069 0.68764
 C321 C 0.45841 0.62167 0.58377
 C322 C 0.47659 0.60515 0.61230
 C323 C 0.45645 0.54377 0.66185
 C324 C 0.40183 0.59254 0.57419
 H325 H 0.35261 0.49423 0.63676
 H326 H 0.32032 0.52268 0.58693
 H327 H 0.48850 0.65765 0.56952
 H328 H 0.52015 0.62850 0.61956
 C329 C 0.44001 0.87795 0.63206
 C330 C 0.39421 0.87014 0.61277
 C331 C 0.37770 0.83562 0.58412
 C332 C 0.46887 0.93828 0.68825
 C333 C 0.45328 0.81720 0.59383
 C334 C 0.46967 0.85170 0.62240
 C335 C 0.45566 0.91129 0.66243
 C336 C 0.40682 0.80838 0.57446
 H337 H 0.37088 0.89018 0.62009
 H338 H 0.34171 0.82967 0.56986
 H339 H 0.47666 0.79693 0.58718
 H340 H 0.50511 0.85737 0.63719
 C341 C 0.12155 0.56079 0.63197
 C342 C 0.12927 0.52277 0.61276
 C343 C 0.16364 0.54081 0.58407
 C344 C 0.06157 0.52943 0.68823
 C345 C 0.18202 0.63486 0.59358
 C346 C 0.14768 0.61672 0.62218
 C347 C 0.08841 0.54312 0.66238
 C348 C 0.19079 0.59721 0.57430
 H349 H 0.10930 0.47937 0.62018
 H350 H 0.16955 0.51078 0.56986
 H351 H 0.20223 0.67854 0.58684
 H352 H 0.14205 0.64650 0.63692
 C353 C 0.44012 0.56179 0.86779
 C354 C 0.46974 0.61789 0.87731
 C355 C 0.45320 0.63622 0.90566
 C356 C 0.46920 0.52994 0.81193
 C357 C 0.37752 0.54204 0.91544
 C358 C 0.39419 0.52382 0.88701
 C359 C 0.45590 0.54387 0.83762
 C360 C 0.40662 0.59860 0.92495
 H361 H 0.50528 0.64766 0.86256
 H362 H 0.47657 0.68002 0.91220
 H363 H 0.34146 0.51201 0.92966
 H364 H 0.37087 0.48029 0.87980
 C365 C 0.12089 0.56014 0.86706
 C366 C 0.12878 0.60603 0.88620
 C367 C 0.16332 0.62263 0.91486
 C368 C 0.06051 0.53101 0.81087
 C369 C 0.18154 0.54691 0.90544
 C370 C 0.14702 0.53044 0.87687
 C371 C 0.08753 0.54438 0.83669
 C372 C 0.19048 0.59348 0.92466
 H373 H 0.10880 0.62938 0.87876
 H374 H 0.16936 0.65870 0.92901
 H375 H 0.20175 0.52351 0.91221
 H376 H 0.14127 0.49492 0.86219
 C377 C 0.43860 0.87931 0.86708
 C378 C 0.47661 0.87173 0.88645
 C379 C 0.45844 0.83718 0.91506
 C380 C 0.47049 0.93971 0.81095
 C381 C 0.36421 0.81828 0.90517
 C382 C 0.38249 0.85281 0.87664
 C383 C 0.45650 0.91269 0.83675
 C384 C 0.40188 0.80969 0.92461
 H385 H 0.52015 0.89198 0.87922
 H386 H 0.48851 0.83143 0.92938
 H387 H 0.32040 0.79780 0.91174
 H388 H 0.35269 0.85829 0.86179
 C389 C 0.56204 0.44086 0.86817
 C390 C 0.52396 0.39508 0.88743
 C391 C 0.54210 0.37849 0.91595
 C392 C 0.53023 0.46963 0.81213
 C393 C 0.63643 0.45399 0.90620
 C394 C 0.61818 0.47044 0.87775
 C395 C 0.54418 0.45651 0.83790
 C396 C 0.59868 0.40754 0.92553
 H397 H 0.48040 0.37179 0.88017
 H398 H 0.51197 0.34253 0.93020
 H399 H 0.68025 0.47731 0.91278
 H400 H 0.64803 0.50587 0.86297
 C401 C 0.87976 0.43937 0.86861
 C402 C 0.85346 0.38341 0.87834
 C403 C 0.81882 0.36523 0.90682
 C404 C 0.94031 0.47086 0.81258
 C405 C 0.83726 0.45930 0.91630
 C406 C 0.87191 0.47738 0.88774
 C407 C 0.91321 0.45710 0.83833
 C408 C 0.80994 0.40288 0.92602
 H409 H 0.85917 0.35364 0.86366
 H410 H 0.79849 0.32153 0.91352
 H411 H 0.83126 0.48934 0.93045
 H412 H 0.89202 0.52080 0.88036
 C413 C 0.56016 0.12098 0.86853
 C414 C 0.53058 0.14742 0.87796
 C415 C 0.54707 0.18230 0.90636
 C416 C 0.53109 0.05993 0.81263
 C417 C 0.62259 0.16389 0.91634
 C418 C 0.60598 0.12898 0.88787
 C419 C 0.54439 0.08722 0.83833
 C420 C 0.59354 0.19130 0.92578
 H421 H 0.49513 0.14161 0.86312
 H422 H 0.52375 0.20270 0.91283
 H423 H 0.65857 0.16995 0.93066
 H424 H 0.62925 0.10879 0.88072
   
