data_POSCAR
  _audit_creation_date              2014-09-24
  _audit_creation_method            'ToBaCCo'
  _symmetry_space_group_name_H-M    'P1'
  _symmetry_Int_Tables_number       1
  _symmetry_cell_setting            triclinic
  loop_
  _symmetry_equiv_pos_as_xyz
 x,y,z
_cell_length_a 61.6033
_cell_length_b 61.5833
_cell_length_c 27.2906
_cell_angle_alpha 90.298500
_cell_angle_beta 89.807700
_cell_angle_gamma 118.699800
loop_
  _atom_site_label
  _atom_site_type_symbol
  _atom_site_fract_x
  _atom_site_fract_y
  _atom_site_fract_z
C1 C 0.28539 0.42358 0.46785
 C2 C 0.28550 0.42173 0.51787
 C3 C 0.27006 0.43048 0.53606
 N4 N 0.26003 0.43697 0.49875
 C5 C 0.26940 0.43278 0.45708
 C6 C 0.26684 0.43423 0.58622
 C7 C 0.24749 0.43895 0.60198
 C8 C 0.24785 0.45118 0.64508
 C9 C 0.22599 0.45193 0.64725
 C10 C 0.21263 0.44003 0.60556
 N11 N 0.22604 0.43247 0.57769
 C12 C 0.18849 0.43621 0.59462
 C13 C 0.17949 0.43215 0.54584
 C14 C 0.15489 0.42284 0.53239
 C15 C 0.15445 0.42380 0.48220
 C16 C 0.17874 0.43343 0.46663
 N17 N 0.19402 0.43840 0.50552
 C18 C 0.18679 0.43911 0.41758
 C19 C 0.21095 0.44485 0.40294
 C20 C 0.22204 0.45608 0.35913
 C21 C 0.24431 0.45604 0.35682
 C22 C 0.24629 0.44500 0.39952
 N23 N 0.22589 0.43824 0.42741
 C24 C 0.26548 0.43945 0.40995
 H25 H 0.29603 0.41890 0.44243
 H26 H 0.29610 0.41509 0.53851
 H27 H 0.22106 0.42705 0.45834
 H28 H 0.26262 0.45931 0.67174
 H29 H 0.22079 0.46074 0.67594
 H30 H 0.13893 0.41614 0.55628
 H31 H 0.13815 0.41812 0.45976
 H32 H 0.25730 0.46294 0.32667
 H33 H 0.22001 0.42167 0.54600
 H34 H 0.21469 0.46320 0.33128
 C35 C 0.56191 -0.29571 0.52438
 C36 C 0.56294 -0.29536 0.47425
 C37 C 0.57161 -0.27095 0.46018
 N38 N 0.57540 -0.25646 0.50024
 C39 C 0.56962 -0.27159 0.53954
 C40 C 0.57572 -0.26220 0.41117
 C41 C 0.57796 -0.23876 0.40002
 C42 C 0.58961 -0.22485 0.35884
 C43 C 0.58472 -0.20530 0.35821
 C44 C 0.57038 -0.20770 0.39918
 N45 N 0.56674 -0.22789 0.42502
 C46 C 0.55901 -0.19295 0.40927
 C47 C 0.55104 -0.19114 0.45697
 C48 C 0.53708 -0.17973 0.46948
 C49 C 0.53524 -0.18048 0.51974
 C50 C 0.54785 -0.19258 0.53598
 N51 N 0.55756 -0.19896 0.49769
 C52 C 0.55178 -0.19615 0.58541
 C53 C 0.56186 -0.21141 0.59982
 C54 C 0.57185 -0.21074 0.64557
 C55 C 0.57761 -0.22970 0.64642
 C56 C 0.57056 -0.24171 0.60143
 N57 N 0.56134 -0.23017 0.57292
 C58 C 0.57086 -0.26394 0.58901
 H59 H 0.55530 -0.31207 0.54698
 H60 H 0.55714 -0.31148 0.45100
 H61 H 0.55237 -0.23666 0.53950
 H62 H 0.59998 -0.22879 0.33141
 H63 H 0.59058 -0.19121 0.33020
 H64 H 0.52917 -0.17159 0.44515
 H65 H 0.52579 -0.17293 0.54180
 H66 H 0.58561 -0.23442 0.67709
 H67 H 0.55441 -0.23578 0.45404
 H68 H 0.57446 -0.19808 0.67543
 C69 C 1.14369 0.72805 0.47107
 C70 C 1.14302 0.72738 0.52116
 C71 C 1.16682 0.74340 0.53717
 N72 N 1.18189 0.75431 0.49853
 C73 C 1.16775 0.74481 0.45806
 C74 C 1.17486 0.74570 0.58638
 C75 C 1.19754 0.76583 0.60224
 C76 C 1.21031 0.76594 0.64413
 C77 C 1.23167 0.78830 0.64537
 C78 C 1.23136 0.80141 0.60441
 N79 N 1.21048 0.78754 0.57829
 C80 C 1.25019 0.82535 0.59106
 C81 C 1.25186 0.83391 0.54256
 C82 C 1.26368 0.85861 0.52895
 C83 C 1.26478 0.85896 0.47887
 C84 C 1.25356 0.83445 0.46363
 N85 N 1.24527 0.81909 0.50258
 C86 C 1.25347 0.82653 0.41490
 C87 C 1.23491 0.80287 0.39911
 C88 C 1.23560 0.79054 0.35684
 C89 C 1.21381 0.76850 0.35533
 C90 C 1.20075 0.76767 0.39734
 N91 N 1.21357 0.78872 0.42350
 C92 C 1.17716 0.74834 0.40992
 H93 H 1.12833 0.71690 0.44710
 H94 H 1.12700 0.71583 0.54331
 H95 H 1.20717 0.79395 0.45441
 H96 H 1.20526 0.75110 0.67021
 H97 H 1.24614 0.79379 0.67252
 H98 H 1.27134 0.87466 0.55285
 H99 H 1.27337 0.87532 0.45616
 H100 H 1.20844 0.75454 0.32694
 H101 H 1.20474 0.79319 0.54725
 H102 H 1.25032 0.79648 0.33009
 C103 C 0.85804 0.56691 0.51786
 C104 C 0.85863 0.56881 0.46793
 C105 C 0.84288 0.57810 0.45577
 N106 N 0.83286 0.58223 0.49658
 C107 C 0.84225 0.57552 0.53469
 C108 C 0.83859 0.58331 0.40761
 C109 C 0.81829 0.58677 0.39506
 C110 C 0.81498 0.59505 0.35002
 C111 C 0.79160 0.59270 0.35051
 C112 C 0.78137 0.58309 0.39589
 N113 N 0.79781 0.57969 0.42286
 C114 C 0.75655 0.57509 0.40927
 C115 C 0.74780 0.56931 0.45794
 C116 C 0.72306 0.55716 0.47114
 C117 C 0.72240 0.55539 0.52123
 C118 C 0.74679 0.56695 0.53722
 N119 N 0.76231 0.57538 0.49832
 C120 C 0.75451 0.56981 0.58692
 C121 C 0.77931 0.57660 0.59968
 C122 C 0.79037 0.58713 0.64410
 C123 C 0.81358 0.58921 0.64357
 C124 C 0.81621 0.58000 0.59876
 N125 N 0.79536 0.57267 0.57186
 C126 C 0.83714 0.57763 0.58457
 H127 H 0.86787 0.55965 0.53920
 H128 H 0.86912 0.56350 0.44334
 H129 H 0.79130 0.56296 0.53883
 H130 H 0.82776 0.60135 0.31946
 H131 H 0.78282 0.59684 0.32036
 H132 H 0.70714 0.54991 0.44712
 H133 H 0.70577 0.54620 0.54317
 H134 H 0.82704 0.59667 0.67285
 H135 H 0.79392 0.56982 0.45538
 H136 H 0.78250 0.59272 0.67394
 C137 C 0.43947 0.14859 0.47010
 C138 C 0.43997 0.14818 0.52013
 C139 C 0.42931 0.16225 0.53668
 N140 N 0.42274 0.17164 0.49835
 C141 C 0.42896 0.16327 0.45765
 C142 C 0.42499 0.16556 0.58644
 C143 C 0.42020 0.18494 0.60142
 C144 C 0.40924 0.18557 0.64550
 C145 C 0.40888 0.20767 0.64704
 C146 C 0.41957 0.22001 0.60381
 N147 N 0.42620 0.20591 0.57589
 C148 C 0.42383 0.24421 0.59236
 C149 C 0.42731 0.25306 0.54342
 C150 C 0.43602 0.27759 0.53012
 C151 C 0.43616 0.27821 0.47996
 C152 C 0.42809 0.25417 0.46393
 N153 N 0.42246 0.23876 0.50279
 C154 C 0.42518 0.24675 0.41409
 C155 C 0.42001 0.22280 0.39863
 C156 C 0.41306 0.21340 0.35154
 C157 C 0.41266 0.19086 0.35030
 C158 C 0.41965 0.18727 0.39645
 N159 N 0.42400 0.20674 0.42564
 C160 C 0.42427 0.16770 0.40922
 H161 H 0.44638 0.13941 0.44564
 H162 H 0.44754 0.13874 0.54180
 H163 H 0.43244 0.21041 0.45978
 H164 H 0.40211 0.17149 0.67360
 H165 H 0.40148 0.21393 0.67662
 H166 H 0.44202 0.29355 0.55390
 H167 H 0.44179 0.29463 0.45798
 H168 H 0.40854 0.17891 0.31857
 H169 H 0.43664 0.21145 0.54384
 H170 H 0.40930 0.22208 0.32076
 C171 C 0.82353 0.30847 0.47658
 C172 C 0.82290 0.30874 0.52690
 C173 C 0.79961 0.29033 0.54060
 N174 N 0.78598 0.27902 0.50053
 C175 C 0.80061 0.28993 0.46137
 C176 C 0.79046 0.28567 0.58900
 C177 C 0.76706 0.26587 0.60157
 C178 C 0.75464 0.26442 0.64488
 C179 C 0.73348 0.24193 0.64454
 C180 C 0.73381 0.22986 0.60163
 N181 N 0.75425 0.24477 0.57531
 C182 C 0.71601 0.20527 0.58870
 C183 C 0.71325 0.19672 0.53948
 C184 C 0.70062 0.17210 0.52472
 C185 C 0.70119 0.17199 0.47451
 C186 C 0.71453 0.19646 0.46015
 N187 N 0.72194 0.21158 0.49982
 C188 C 0.71852 0.20458 0.41103
 C189 C 0.73648 0.22874 0.39749
 C190 C 0.73812 0.23919 0.35181
 C191 C 0.75931 0.26171 0.35199
 C192 C 0.76989 0.26453 0.39795
 N193 N 0.75589 0.24432 0.42542
 C194 C 0.79282 0.28460 0.41216
 H195 H 0.83892 0.32083 0.45382
 H196 H 0.83769 0.32138 0.55058
 H197 H 0.76083 0.24005 0.45896
 H198 H 0.76015 0.27812 0.67381
 H199 H 0.71950 0.23524 0.67295
 H200 H 0.69201 0.15584 0.54768
 H201 H 0.69296 0.15573 0.45121
 H202 H 0.76625 0.27443 0.32150
 H203 H 0.76052 0.23968 0.54412
 H204 H 0.72558 0.23126 0.32118
 O205 O 0.98987 0.50628 -0.10118
 O206 O 1.03204 0.52001 0.10351
 O207 O 0.98251 0.52609 0.04648
 O208 O 1.04728 0.54725 -0.04099
 O209 O 0.98815 0.50547 0.10398
 O210 O 1.03483 0.52007 -0.09827
 O211 O 1.04272 0.54617 0.04567
 O212 O 0.97575 0.52199 -0.04533
 C213 C 0.98004 0.51945 -0.08920
 C214 C 1.04054 0.54201 0.09008
 C215 C 0.98412 0.52281 0.09092
 C216 C 1.04496 0.54229 -0.08519
 O217 O 1.02580 0.47613 -0.06303
 O218 O 0.98035 0.46135 0.06502
 O219 O 0.95504 0.47360 -0.03805
 O220 O 1.05656 0.51044 0.05092
 O221 O 1.02391 0.47626 0.06107
 O222 O 0.97928 0.46146 -0.07425
 O223 O 1.05786 0.50964 -0.03839
 O224 O 0.95646 0.47665 0.05244
 Co225 Co 1.00774 0.49203 -0.07560
 Co226 Co 1.00636 0.49178 0.07677
 Co227 Co 0.97141 0.49997 0.00430
 Co228 Co 1.04747 0.52606 0.00438
 O229 O 1.00812 0.50250 0.00201
 C230 C 1.04858 0.48815 -0.05650
 C231 C 0.95918 0.45869 0.06548
 C232 C 0.95808 0.45819 -0.06408
 C233 C 1.04667 0.48822 0.06325
 O234 O 0.50998 0.46506 -0.09429
 O235 O 0.48201 0.50009 0.09446
 O236 O 0.50992 0.45098 0.05391
 O237 O 0.46905 0.50191 -0.05398
 O238 O 0.48468 0.46210 0.08526
 O239 O 0.47478 0.47278 -0.08386
 O240 O 0.46220 0.49307 0.02884
 O241 O 0.50024 0.44485 -0.02928
 C242 C 0.49876 0.44467 -0.07416
 C243 C 0.46170 0.49128 0.07368
 C244 C 0.49083 0.44584 0.07890
 C245 C 0.46088 0.48190 -0.07745
 O246 O 0.50604 0.52070 -0.09638
 O247 O 0.53316 0.48827 0.09554
 O248 O 0.54722 0.48478 -0.05196
 O249 O 0.50547 0.53667 0.05122
 O250 O 0.53082 0.52649 0.08428
 O251 O 0.54075 0.51293 -0.08403
 O252 O 0.51586 0.54175 -0.03194
 O253 O 0.55366 0.49467 0.03104
 Co254 Co 0.50784 0.49291 -0.08039
 Co255 Co 0.50771 0.49421 0.08079
 Co256 Co 0.52595 0.47103 0.00081
 Co257 Co 0.48997 0.51614 -0.00135
 O258 O 0.50786 0.49356 0.00005
 C259 C 0.51701 0.54138 -0.07687
 C260 C 0.55372 0.49728 0.07573
 C261 C 0.55497 0.50432 -0.07669
 C262 C 0.52463 0.54254 0.07614
 O263 O 0.53619 0.01376 -0.07805
 O264 O 0.51887 -0.03090 0.05851
 O265 O 0.52922 0.04147 0.05020
 O266 O 0.48145 -0.06183 -0.03958
 O267 O 0.53958 0.01368 0.06551
 O268 O 0.51689 -0.03230 -0.06246
 O269 O 0.48215 -0.06022 0.04918
 O270 O 0.53025 0.04207 -0.04085
 C271 C 0.54293 0.03600 -0.06866
 C272 C 0.50420 -0.05334 0.06015
 C273 C 0.54513 0.03584 0.06465
 C274 C 0.50274 -0.05483 -0.05726
 O275 O 0.47415 -0.03705 -0.09670
 O276 O 0.49825 0.01187 0.10472
 O277 O 0.48273 0.02759 -0.04416
 O278 O 0.45175 -0.03954 0.04779
 O279 O 0.47818 -0.03289 0.10356
 O280 O 0.49250 0.00843 -0.10108
 O281 O 0.44916 -0.04297 -0.03848
 O282 O 0.48031 0.02267 0.04913
 Co283 Co 0.50414 -0.01187 -0.07617
 Co284 Co 0.50762 -0.00973 0.07621
 Co285 Co 0.50462 0.02918 0.00388
 Co286 Co 0.46873 -0.04779 0.00452
 O287 O 0.49657 -0.00979 0.00173
 C288 C 0.45280 -0.04260 -0.08291
 C289 C 0.48313 0.01933 0.09305
 C290 C 0.48234 0.02114 -0.08782
 C291 C 0.45652 -0.03844 0.09187
 C292 C 1.14065 0.44457 0.30540
 C293 C 1.14488 0.45795 0.34941
 C294 C 1.15944 0.45582 0.38627
 C295 C 1.16972 0.43998 0.38006
 C296 C 1.16485 0.42603 0.33667
 C297 C 1.15064 0.42847 0.29948
 C298 C 1.12639 0.44794 0.26534
 C299 C 1.13569 0.45249 0.21720
 C300 C 1.12285 0.45700 0.17990
 C301 C 1.10028 0.45658 0.18995
 C302 C 1.09075 0.45148 0.23788
 C303 C 1.10377 0.44738 0.27526
 C304 C 1.08712 0.46261 0.15149
 C305 C 1.06140 0.44819 0.14613
 C306 C 1.04844 0.45566 0.11462
 C307 C 1.06092 0.47791 0.08835
 C308 C 1.08683 0.49160 0.09155
 C309 C 1.09984 0.48393 0.12268
 H310 H 1.13754 0.47064 0.35464
 H311 H 1.16316 0.46693 0.41921
 H312 H 1.17253 0.41363 0.33125
 H313 H 1.14744 0.41780 0.26606
 H314 H 1.15320 0.45319 0.20876
 H315 H 1.13054 0.46087 0.14325
 H316 H 1.07353 0.45135 0.24670
 H317 H 1.09618 0.44380 0.31202
 H318 H 1.05123 0.43151 0.16749
 H319 H 1.02848 0.44467 0.11288
 H320 H 1.09692 0.50878 0.07166
 H321 H 1.11968 0.49540 0.12627
 C322 C 0.57317 0.68898 0.29746
 C323 C 0.56232 0.70429 0.29117
 C324 C 0.56379 0.72076 0.32795
 C325 C 0.57626 0.72255 0.37228
 C326 C 0.58831 0.70814 0.37726
 C327 C 0.58668 0.69150 0.34046
 C328 C 0.56903 0.66948 0.26058
 C329 C 0.58777 0.66354 0.24839
 C330 C 0.58323 0.64455 0.21475
 C331 C 0.55988 0.63122 0.19252
 C332 C 0.54124 0.63726 0.20466
 C333 C 0.54573 0.65608 0.23825
 C334 C 0.55429 0.61035 0.15827
 C335 C 0.53942 0.60682 0.11688
 C336 C 0.53091 0.58533 0.08862
 C337 C 0.53715 0.56690 0.10097
 C338 C 0.55343 0.57116 0.14029
 C339 C 0.56190 0.59269 0.16875
 H340 H 0.55219 0.70318 0.25807
 H341 H 0.55398 0.73118 0.32251
 H342 H 0.59891 0.70961 0.40986
 H343 H 0.59531 0.68002 0.34647
 H344 H 0.60598 0.67366 0.26463
 H345 H 0.59798 0.64037 0.20591
 H346 H 0.52287 0.62693 0.18917
 H347 H 0.53066 0.65968 0.24770
 H348 H 0.53372 0.62036 0.10722
 H349 H 0.51869 0.58273 0.05810
 H350 H 0.55859 0.55729 0.15060
 H351 H 0.57328 0.59487 0.20049
 C352 C 0.31362 -0.12730 0.32224
 C353 C 0.31755 -0.13076 0.37147
 C354 C 0.29776 -0.14587 0.40159
 C355 C 0.27332 -0.15805 0.38345
 C356 C 0.26941 -0.15438 0.33401
 C357 C 0.28933 -0.13912 0.30383
 C358 C 0.33498 -0.11172 0.29030
 C359 C 0.33381 -0.09497 0.25708
 C360 C 0.35409 -0.08035 0.22720
 C361 C 0.37591 -0.08226 0.22981
 C362 C 0.37707 -0.09893 0.26328
 C363 C 0.35687 -0.11346 0.29317
 C364 C 0.39690 -0.06812 0.19589
 C365 C 0.42154 -0.05855 0.21177
 C366 C 0.44112 -0.04787 0.17836
 C367 C 0.43643 -0.04657 0.12847
 C368 C 0.41193 -0.05490 0.11309
 C369 C 0.39239 -0.06560 0.14639
 H370 H 0.33602 -0.12171 0.38685
 H371 H 0.30174 -0.14853 0.43904
 H372 H 0.25088 -0.16285 0.31893
 H373 H 0.28578 -0.13682 0.26589
 H374 H 0.31730 -0.09300 0.25459
 H375 H 0.35271 -0.06749 0.20212
 H376 H 0.39337 -0.10128 0.26542
 H377 H 0.35818 -0.12649 0.31786
 H378 H 0.42563 -0.05980 0.24988
 H379 H 0.45985 -0.04136 0.19131
 H380 H 0.40773 -0.05405 0.07487
 H381 H 0.37366 -0.07294 0.13286
 C382 C 0.88846 0.57738 0.30568
 C383 C 0.89700 0.59780 0.33760
 C384 C 0.88050 0.60063 0.36888
 C385 C 0.85524 0.58320 0.36836
 C386 C 0.84647 0.56363 0.33451
 C387 C 0.86294 0.56072 0.30344
 C388 C 0.90617 0.57233 0.27751
 C389 C 0.90322 0.54826 0.27632
 C390 C 0.91969 0.54314 0.25002
 C391 C 0.93946 0.56195 0.22412
 C392 C 0.94265 0.58613 0.22573
 C393 C 0.92623 0.59131 0.25249
 C394 C 0.95538 0.55565 0.19281
 C395 C 0.96068 0.56432 0.14444
 C396 C 0.97163 0.55482 0.11199
 C397 C 0.97752 0.53652 0.12734
 C398 C 0.97410 0.52938 0.17677
 C399 C 0.96305 0.53880 0.20916
 H400 H 0.91657 0.61082 0.34023
 H401 H 0.88755 0.61572 0.39513
 H402 H 0.82705 0.54994 0.33390
 H403 H 0.85585 0.54503 0.27864
 H404 H 0.88818 0.53336 0.29594
 H405 H 0.91653 0.52426 0.24885
 H406 H 0.95777 0.60098 0.20615
 H407 H 0.92892 0.61003 0.25289
 H408 H 0.95493 0.57724 0.13078
 H409 H 0.97423 0.56084 0.07419
 H410 H 0.97870 0.51550 0.18980
 H411 H 0.95958 0.53216 0.24655
 C412 C 0.43741 0.30188 0.30562
 C413 C 0.45736 0.30234 0.33117
 C414 C 0.45331 0.28411 0.36566
 C415 C 0.42919 0.26546 0.37600
 C416 C 0.40919 0.26493 0.35050
 C417 C 0.41330 0.28288 0.31507
 C418 C 0.44189 0.32166 0.27020
 C419 C 0.43423 0.31598 0.22122
 C420 C 0.43980 0.33498 0.18738
 C421 C 0.45253 0.35987 0.20244
 C422 C 0.45963 0.36544 0.25171
 C423 C 0.45457 0.34652 0.28516
 C424 C 0.45941 0.38022 0.16695
 C425 C 0.45433 0.39967 0.17744
 C426 C 0.46338 0.42040 0.14710
 C427 C 0.47812 0.42230 0.10618
 C428 C 0.48234 0.40237 0.09456
 C429 C 0.47287 0.38140 0.12449
 H430 H 0.47609 0.31678 0.32421
 H431 H 0.46894 0.28472 0.38493
 H432 H 0.39046 0.25065 0.35813
 H433 H 0.39767 0.28230 0.29585
 H434 H 0.42451 0.29689 0.20899
 H435 H 0.43417 0.33030 0.14955
 H436 H 0.46966 0.38450 0.26401
 H437 H 0.46057 0.35127 0.32281
 H438 H 0.44386 0.39906 0.20985
 H439 H 0.45981 0.43544 0.15702
 H440 H 0.49355 0.40332 0.06314
 H441 H 0.47707 0.36664 0.11584
 C442 C 0.67262 0.15589 0.29633
 C443 C 0.66204 0.16187 0.33646
 C444 C 0.67693 0.17744 0.37380
 C445 C 0.70270 0.18723 0.37208
 C446 C 0.71334 0.18096 0.33264
 C447 C 0.69846 0.16549 0.29504
 C448 C 0.65669 0.13982 0.25601
 C449 C 0.66170 0.12211 0.23343
 C450 C 0.64606 0.10642 0.19687
 C451 C 0.62501 0.10801 0.18213
 C452 C 0.62034 0.12608 0.20405
 C453 C 0.63602 0.14182 0.24032
 C454 C 0.60710 0.09005 0.14633
 C455 C 0.59441 0.09743 0.11329
 C456 C 0.57511 0.07993 0.08462
 C457 C 0.56821 0.05469 0.08800
 C458 C 0.58195 0.04748 0.11848
 C459 C 0.60110 0.06495 0.14750
 H460 H 0.64219 0.15441 0.33918
 H461 H 0.66837 0.18205 0.40394
 H462 H 0.73320 0.18830 0.33072
 H463 H 0.70724 0.16146 0.26452
 H464 H 0.67737 0.11995 0.24482
 H465 H 0.65037 0.09291 0.18041
 H466 H 0.60414 0.12763 0.19424
 H467 H 0.63184 0.15553 0.25625
 H468 H 0.59895 0.11669 0.11055
 H469 H 0.56502 0.08606 0.06105
 H470 H 0.57703 0.02815 0.12199
 H471 H 0.61029 0.05854 0.17276
 C472 C 0.43040 0.11608 -0.31282
 C473 C 0.44174 0.14162 -0.30261
 C474 C 0.43908 0.15782 -0.33467
 C475 C 0.42537 0.14893 -0.37822
 C476 C 0.41311 0.12321 -0.38710
 C477 C 0.41557 0.10703 -0.35483
 C478 C 0.43482 0.09912 -0.28086
 C479 C 0.43781 0.07969 -0.30131
 C480 C 0.44311 0.06442 -0.27155
 C481 C 0.44569 0.06831 -0.22065
 C482 C 0.44242 0.08757 -0.20020
 C483 C 0.43694 0.10269 -0.22988
 C484 C 0.45272 0.05312 -0.18894
 C485 C 0.44327 0.04706 -0.14109
 C486 C 0.45217 0.03563 -0.10900
 C487 C 0.47043 0.02962 -0.12420
 C488 C 0.47874 0.03408 -0.17290
 C489 C 0.47008 0.04589 -0.20494
 H490 H 0.45352 0.14927 -0.27085
 H491 H 0.44899 0.17748 -0.32680
 H492 H 0.40168 0.11560 -0.41937
 H493 H 0.40598 0.08740 -0.36304
 H494 H 0.43665 0.07661 -0.34053
 H495 H 0.44527 0.04963 -0.28846
 H496 H 0.44468 0.09141 -0.16125
 H497 H 0.43447 0.11727 -0.21285
 H498 H 0.42938 0.05169 -0.12800
 H499 H 0.44518 0.03204 -0.07178
 H500 H 0.49290 0.02970 -0.18540
 H501 H 0.47789 0.05042 -0.24142
 C502 C 0.70179 0.55639 -0.30002
 C503 C 0.71839 0.54690 -0.29677
 C504 C 0.73591 0.55162 -0.33357
 C505 C 0.73716 0.56578 -0.37501
 C506 C 0.72071 0.57560 -0.37764
 C507 C 0.70331 0.57100 -0.34059
 C508 C 0.68245 0.55043 -0.26200
 C509 C 0.67685 0.56866 -0.24447
 C510 C 0.65789 0.56270 -0.21020
 C511 C 0.64398 0.53831 -0.19294
 C512 C 0.64991 0.52020 -0.20996
 C513 C 0.66895 0.52620 -0.24395
 C514 C 0.62255 0.53142 -0.15942
 C515 C 0.61689 0.51351 -0.12273
 C516 C 0.59539 0.50532 -0.09452
 C517 C 0.57913 0.51495 -0.10221
 C518 C 0.58533 0.53365 -0.13731
 C519 C 0.60673 0.54172 -0.16568
 H520 H 0.71779 0.53574 -0.26572
 H521 H 0.74800 0.54347 -0.33036
 H522 H 0.72151 0.58715 -0.40813
 H523 H 0.69068 0.57849 -0.34419
 H524 H 0.68718 0.58757 -0.25721
 H525 H 0.65410 0.57719 -0.19729
 H526 H 0.63931 0.50115 -0.19825
 H527 H 0.67261 0.51168 -0.25729
 H528 H 0.62893 0.50554 -0.11627
 H529 H 0.59121 0.49104 -0.06746
 H530 H 0.57316 0.54143 -0.14418
 H531 H 0.61030 0.55531 -0.19391
 C532 C 0.83416 0.33410 -0.29440
 C533 C 0.83855 0.31492 -0.31138
 C534 C 0.82440 0.29932 -0.34943
 C535 C 0.80578 0.30271 -0.37152
 C536 C 0.80148 0.32195 -0.35537
 C537 C 0.81544 0.33743 -0.31695
 C538 C 0.84931 0.35074 -0.25391
 C539 C 0.85639 0.37612 -0.25451
 C540 C 0.87159 0.39195 -0.21774
 C541 C 0.88026 0.38283 -0.17975
 C542 C 0.87281 0.35742 -0.17844
 C543 C 0.85740 0.34153 -0.21494
 C544 C 0.89849 0.40014 -0.14395
 C545 C 0.92002 0.39860 -0.13362
 C546 C 0.93888 0.41682 -0.10534
 C547 C 0.93649 0.43681 -0.08630
 C548 C 0.91431 0.43755 -0.09405
 C549 C 0.89555 0.41947 -0.12296
 H550 H 0.85313 0.31213 -0.29570
 H551 H 0.82798 0.28458 -0.36176
 H552 H 0.78707 0.32471 -0.37209
 H553 H 0.81132 0.35177 -0.30448
 H554 H 0.85088 0.38396 -0.28428
 H555 H 0.87739 0.41153 -0.22009
 H556 H 0.87905 0.34989 -0.14930
 H557 H 0.85188 0.32202 -0.21267
 H558 H 0.92284 0.38400 -0.14958
 H559 H 0.95575 0.41575 -0.09989
 H560 H 0.91200 0.45280 -0.08002
 H561 H 0.87902 0.42095 -0.13003
 C562 C 0.53685 -0.15720 -0.29934
 C563 C 0.55747 -0.14472 -0.33043
 C564 C 0.56197 -0.15727 -0.36856
 C565 C 0.54614 -0.18257 -0.37601
 C566 C 0.52563 -0.19520 -0.34519
 C567 C 0.52092 -0.18261 -0.30737
 C568 C 0.53206 -0.14368 -0.25893
 C569 C 0.52219 -0.15519 -0.21368
 C570 C 0.51801 -0.14219 -0.17579
 C571 C 0.52397 -0.11734 -0.18214
 C572 C 0.53365 -0.10591 -0.22731
 C573 C 0.53751 -0.11893 -0.26529
 C574 C 0.51984 -0.10314 -0.14261
 C575 C 0.53819 -0.07887 -0.13213
 C576 C 0.53316 -0.06381 -0.10100
 C577 C 0.50957 -0.07261 -0.07994
 C578 C 0.49179 -0.09752 -0.08733
 C579 C 0.49692 -0.11270 -0.11839
 H580 H 0.57044 -0.12532 -0.32483
 H581 H 0.57807 -0.14738 -0.39171
 H582 H 0.51330 -0.21480 -0.35051
 H583 H 0.50468 -0.19274 -0.28474
 H584 H 0.51806 -0.17411 -0.20721
 H585 H 0.51057 -0.15138 -0.14124
 H586 H 0.53789 -0.08692 -0.23354
 H587 H 0.54449 -0.10963 -0.29989
 H588 H 0.55615 -0.07122 -0.14964
 H589 H 0.54737 -0.04479 -0.09566
 H590 H 0.47347 -0.10483 -0.07157
 H591 H 0.48248 -0.13139 -0.12585
 C592 C 0.32012 0.44066 -0.30802
 C593 C 0.32761 0.45230 -0.35368
 C594 C 0.31012 0.44976 -0.38879
 C595 C 0.28459 0.43560 -0.37907
 C596 C 0.27718 0.42375 -0.33326
 C597 C 0.29476 0.42609 -0.29832
 C598 C 0.33883 0.44469 -0.27006
 C599 C 0.33804 0.42476 -0.24373
 C600 C 0.35623 0.42885 -0.20875
 C601 C 0.37516 0.45299 -0.19894
 C602 C 0.37570 0.47287 -0.22489
 C603 C 0.35781 0.46875 -0.26020
 C604 C 0.39485 0.45776 -0.16277
 C605 C 0.40213 0.47738 -0.12923
 C606 C 0.42281 0.48424 -0.09951
 C607 C 0.43682 0.47179 -0.10301
 C608 C 0.42872 0.45124 -0.13458
 C609 C 0.40783 0.44423 -0.16411
 H610 H 0.34708 0.46359 -0.36209
 H611 H 0.31664 0.45978 -0.42288
 H612 H 0.25773 0.41253 -0.32461
 H613 H 0.28853 0.41704 -0.26322
 H614 H 0.32362 0.40603 -0.25085
 H615 H 0.35542 0.41324 -0.18915
 H616 H 0.39027 0.49162 -0.21846
 H617 H 0.35869 0.48444 -0.27968
 H618 H 0.39219 0.48786 -0.12703
 H619 H 0.42842 0.50000 -0.07525
 H620 H 0.43910 0.44123 -0.13794
 H621 H 0.40257 0.42904 -0.18975
 C622 C 1.13215 0.68645 -0.31659
 C623 C 1.13972 0.71115 -0.30276
 C624 C 1.15425 0.73075 -0.33412
 C625 C 1.16088 0.72612 -0.38081
 C626 C 1.15332 0.70145 -0.39457
 C627 C 1.13946 0.68198 -0.36277
 C628 C 1.11726 0.66543 -0.28288
 C629 C 1.10065 0.64182 -0.30146
 C630 C 1.08813 0.62169 -0.27006
 C631 C 1.09134 0.62470 -0.21904
 C632 C 1.10699 0.64857 -0.20039
 C633 C 1.12002 0.66853 -0.23180
 C634 C 1.07919 0.60306 -0.18542
 C635 C 1.09099 0.60264 -0.14165
 C636 C 1.07970 0.58283 -0.10940
 C637 C 1.05670 0.56254 -0.12069
 C638 C 1.04503 0.56233 -0.16481
 C639 C 1.05602 0.58257 -0.19664
 H640 H 1.13417 0.71544 -0.26797
 H641 H 1.15958 0.74951 -0.32258
 H642 H 1.15877 0.69725 -0.42964
 H643 H 1.13489 0.66344 -0.37430
 H644 H 1.09739 0.63870 -0.34043
 H645 H 1.07643 0.60368 -0.28607
 H646 H 1.10945 0.65193 -0.16133
 H647 H 1.13273 0.68623 -0.21579
 H648 H 1.10914 0.61751 -0.13226
 H649 H 1.08915 0.58322 -0.07572
 H650 H 1.02714 0.54688 -0.17389
 H651 H 1.04613 0.58228 -0.22953
 C652 C 0.88508 0.57054 -0.31362
 C653 C 0.89485 0.58755 -0.35212
 C654 C 0.87910 0.59070 -0.38452
 C655 C 0.85319 0.57697 -0.37902
 C656 C 0.84357 0.56121 -0.33827
 C657 C 0.85936 0.55783 -0.30628
 C658 C 0.90157 0.56492 -0.28318
 C659 C 0.89572 0.54022 -0.27500
 C660 C 0.91144 0.53468 -0.24739
 C661 C 0.93319 0.55373 -0.22694
 C662 C 0.93910 0.57847 -0.23514
 C663 C 0.92352 0.58403 -0.26342
 C664 C 0.94868 0.54757 -0.19465
 C665 C 0.95569 0.55870 -0.14828
 C666 C 0.96709 0.55037 -0.11477
 C667 C 0.97199 0.53097 -0.12725
 C668 C 0.96648 0.52096 -0.17478
 C669 C 0.95472 0.52905 -0.20809
 H670 H 0.91463 0.59764 -0.35841
 H671 H 0.88718 0.60356 -0.41460
 H672 H 0.82377 0.55028 -0.33289
 H673 H 0.85144 0.54482 -0.27640
 H674 H 0.87907 0.52518 -0.29041
 H675 H 0.90632 0.51546 -0.24104
 H676 H 0.95577 0.59347 -0.21971
 H677 H 0.92841 0.60322 -0.26930
 H678 H 0.95113 0.57291 -0.13698
 H679 H 0.97125 0.55850 -0.07842
 H680 H 0.97002 0.50596 -0.18531
 H681 H 0.94969 0.52036 -0.24387
 C682 C 0.43061 0.29445 -0.29370
 C683 C 0.41428 0.29004 -0.33306
 C684 C 0.41169 0.27326 -0.37021
 C685 C 0.42503 0.26005 -0.36862
 C686 C 0.44022 0.26337 -0.32774
 C687 C 0.44320 0.28054 -0.29116
 C688 C 0.43596 0.31468 -0.25760
 C689 C 0.44248 0.31308 -0.20885
 C690 C 0.45046 0.33337 -0.17700
 C691 C 0.45180 0.35566 -0.19292
 C692 C 0.44380 0.35670 -0.24062
 C693 C 0.43625 0.33663 -0.27263
 C694 C 0.46312 0.37829 -0.16158
 C695 C 0.47799 0.40150 -0.18312
 C696 C 0.48923 0.42287 -0.15452
 C697 C 0.48626 0.42166 -0.10343
 C698 C 0.47152 0.39855 -0.08146
 C699 C 0.45998 0.37705 -0.11031
 H700 H 0.40364 0.29977 -0.33558
 H701 H 0.39916 0.27052 -0.40025
 H702 H 0.45091 0.25366 -0.32542
 H703 H 0.45626 0.28361 -0.26204
 H704 H 0.44196 0.29632 -0.19550
 H705 H 0.45651 0.33188 -0.14058
 H706 H 0.44396 0.37333 -0.25380
 H707 H 0.43164 0.33882 -0.30985
 H708 H 0.48143 0.40319 -0.22220
 H709 H 0.50061 0.44039 -0.17253
 H710 H 0.46885 0.39714 -0.04212
 H711 H 0.44849 0.35951 -0.09254
 C712 C 0.66882 0.15738 -0.30038
 C713 C 0.69426 0.17204 -0.29174
 C714 C 0.70980 0.18765 -0.32827
 C715 C 0.70026 0.18918 -0.37431
 C716 C 0.67463 0.17455 -0.38243
 C717 C 0.65917 0.15881 -0.34605
 C718 C 0.65236 0.14027 -0.26227
 C719 C 0.63471 0.11603 -0.27502
 C720 C 0.61899 0.09983 -0.23956
 C721 C 0.62045 0.10752 -0.19054
 C722 C 0.63806 0.13179 -0.17767
 C723 C 0.65401 0.14798 -0.21318
 C724 C 0.60314 0.09018 -0.15370
 C725 C 0.59033 0.09770 -0.12099
 C726 C 0.57156 0.08034 -0.09104
 C727 C 0.56538 0.05521 -0.09325
 C728 C 0.57937 0.04811 -0.12369
 C729 C 0.59799 0.06538 -0.15358
 H730 H 0.70222 0.17103 -0.25707
 H731 H 0.72946 0.19815 -0.32086
 H732 H 0.66637 0.17572 -0.41662
 H733 H 0.63954 0.14799 -0.35338
 H734 H 0.63318 0.10954 -0.31246
 H735 H 0.60537 0.08134 -0.25066
 H736 H 0.63959 0.13814 -0.14013
 H737 H 0.66736 0.16663 -0.20248
 H738 H 0.59393 0.11673 -0.12042
 H739 H 0.56114 0.08640 -0.06793
 H740 H 0.57530 0.02896 -0.12598
 H741 H 0.60792 0.05918 -0.17773
 C742 C 1.14771 0.44562 -0.28872
 C743 C 1.14886 0.45612 -0.33486
 C744 C 1.16169 0.45250 -0.37351
 C745 C 1.17388 0.43832 -0.36710
 C746 C 1.17213 0.42731 -0.32101
 C747 C 1.15914 0.43086 -0.28240
 C748 C 1.13513 0.45067 -0.24720
 C749 C 1.11932 0.43163 -0.21558
 C750 C 1.10668 0.43642 -0.17792
 C751 C 1.10984 0.46040 -0.17086
 C752 C 1.12618 0.47953 -0.20170
 C753 C 1.13864 0.47471 -0.23944
 C754 C 1.09489 0.46536 -0.13413
 C755 C 1.10545 0.48749 -0.10684
 C756 C 1.09057 0.49412 -0.07856
 C757 C 1.06478 0.47881 -0.07725
 C758 C 1.05447 0.45583 -0.10164
 C759 C 1.06937 0.44917 -0.12975
 H760 H 1.13996 0.46736 -0.34097
 H761 H 1.16298 0.46176 -0.40788
 H762 H 1.18083 0.41590 -0.31484
 H763 H 1.15857 0.42254 -0.24722
 H764 H 1.11622 0.41291 -0.22081
 H765 H 1.09428 0.42135 -0.15459
 H766 H 1.12874 0.49811 -0.19770
 H767 H 1.15096 0.48982 -0.26279
 H768 H 1.12514 0.50012 -0.10883
 H769 H 1.09912 0.51185 -0.05989
 H770 H 1.03467 0.44356 -0.10121
 H771 H 1.06067 0.43204 -0.15048
 C772 C 0.56992 0.68758 -0.29948
 C773 C 0.55450 0.69854 -0.29640
 C774 C 0.55530 0.71496 -0.33234
 C775 C 0.57123 0.72059 -0.37300
 C776 C 0.58692 0.70991 -0.37568
 C777 C 0.58647 0.69387 -0.33916
 C778 C 0.56749 0.66849 -0.26325
 C779 C 0.57026 0.64807 -0.27819
 C780 C 0.56540 0.62880 -0.24581
 C781 C 0.55714 0.62912 -0.19784
 C782 C 0.55552 0.65006 -0.18206
 C783 C 0.56079 0.66958 -0.21427
 C784 C 0.54833 0.60686 -0.16612
 C785 C 0.55145 0.60890 -0.11487
 C786 C 0.54157 0.58768 -0.08547
 C787 C 0.52854 0.56407 -0.10687
 C788 C 0.52589 0.56206 -0.15800
 C789 C 0.53548 0.58313 -0.18716
 H790 H 0.54106 0.69374 -0.26720
 H791 H 0.54250 0.72230 -0.32953
 H792 H 0.59983 0.71425 -0.40583
 H793 H 0.59906 0.68631 -0.34226
 H794 H 0.57516 0.64635 -0.31557
 H795 H 0.56748 0.61328 -0.25890
 H796 H 0.54915 0.65095 -0.14547
 H797 H 0.55905 0.68527 -0.20102
 H798 H 0.56148 0.62688 -0.09748
 H799 H 0.54398 0.58972 -0.04611
 H800 H 0.51586 0.54412 -0.17560
 H801 H 0.53213 0.58075 -0.22623
 C802 C 0.30756 -0.12967 -0.30949
 C803 C 0.28279 -0.14204 -0.29364
 C804 C 0.26379 -0.15694 -0.32606
 C805 C 0.26912 -0.15975 -0.37521
 C806 C 0.29405 -0.14734 -0.39060
 C807 C 0.31292 -0.13259 -0.35828
 C808 C 0.32800 -0.11430 -0.27531
 C809 C 0.34833 -0.09218 -0.29141
 C810 C 0.36846 -0.07866 -0.26048
 C811 C 0.36864 -0.08688 -0.21268
 C812 C 0.34805 -0.10863 -0.19613
 C813 C 0.32796 -0.12220 -0.22711
 C814 C 0.39050 -0.07337 -0.18053
 C815 C 0.38734 -0.07019 -0.13054
 C816 C 0.40772 -0.05939 -0.09930
 C817 C 0.43174 -0.05160 -0.11730
 C818 C 0.43506 -0.05385 -0.16763
 C819 C 0.41461 -0.06463 -0.19899
 H820 H 0.27806 -0.13993 -0.25632
 H821 H 0.24486 -0.16571 -0.31301
 H822 H 0.29914 -0.14963 -0.42756
 H823 H 0.33185 -0.12390 -0.37134
 H824 H 0.34871 -0.08536 -0.32807
 H825 H 0.38391 -0.06178 -0.27394
 H826 H 0.34782 -0.11560 -0.15968
 H827 H 0.31277 -0.13932 -0.21385
 H828 H 0.36903 -0.07635 -0.11547
 H829 H 0.40458 -0.05769 -0.06073
 H830 H 0.45336 -0.04793 -0.18251
 H831 H 0.41759 -0.06697 -0.23735
 C832 C 0.54798 -0.15344 0.28972
 C833 C 0.55987 -0.14094 0.33314
 C834 C 0.56385 -0.15356 0.37155
 C835 C 0.55544 -0.17912 0.36812
 C836 C 0.54365 -0.19164 0.32491
 C837 C 0.54024 -0.17894 0.28600
 C838 C 0.54309 -0.14013 0.24916
 C839 C 0.52194 -0.15246 0.21944
 C840 C 0.51674 -0.13980 0.18293
 C841 C 0.53215 -0.11427 0.17578
 C842 C 0.55357 -0.10205 0.20477
 C843 C 0.55910 -0.11484 0.24053
 C844 C 0.52510 -0.10018 0.14065
 C845 C 0.54323 -0.07884 0.11697
 C846 C 0.53648 -0.06407 0.08887
 C847 C 0.51146 -0.07060 0.08295
 C848 C 0.49330 -0.09265 0.10398
 C849 C 0.50002 -0.10710 0.13288
 H850 H 0.56574 -0.12146 0.33805
 H851 H 0.57326 -0.14342 0.40427
 H852 H 0.53710 -0.21134 0.32127
 H853 H 0.53160 -0.18920 0.25295
 H854 H 0.50891 -0.17180 0.22506
 H855 H 0.50037 -0.15008 0.16076
 H856 H 0.56581 -0.08237 0.20105
 H857 H 0.57587 -0.10474 0.26166
 H858 H 0.56270 -0.07320 0.12088
 H859 H 0.55085 -0.04722 0.07277
 H860 H 0.47385 -0.09804 0.10043
 H861 H 0.48544 -0.12306 0.15098
 C862 C 0.31691 0.44756 0.29570
 C863 C 0.31906 0.46837 0.32129
 C864 C 0.30238 0.46565 0.35856
 C865 C 0.28310 0.44213 0.37041
 C866 C 0.28070 0.42131 0.34475
 C867 C 0.29760 0.42398 0.30784
 C868 C 0.33529 0.45054 0.25759
 C869 C 0.34647 0.43533 0.25753
 C870 C 0.36545 0.43961 0.22441
 C871 C 0.37338 0.45899 0.19036
 C872 C 0.36148 0.47354 0.18909
 C873 C 0.34271 0.46945 0.22259
 C874 C 0.39523 0.46528 0.15894
 C875 C 0.39517 0.47086 0.10907
 C876 C 0.41657 0.47860 0.08067
 C877 C 0.43846 0.48129 0.10197
 C878 C 0.43832 0.47521 0.15153
 C879 C 0.41689 0.46715 0.17964
 H880 H 0.33398 0.48670 0.31310
 H881 H 0.30446 0.48186 0.37823
 H882 H 0.26586 0.40304 0.35359
 H883 H 0.29551 0.40769 0.28851
 H884 H 0.34117 0.42072 0.28431
 H885 H 0.37425 0.42805 0.22591
 H886 H 0.36738 0.48872 0.16348
 H887 H 0.33421 0.48128 0.22166
 H888 H 0.37863 0.46942 0.09225
 H889 H 0.41620 0.48312 0.04249
 H890 H 0.45491 0.47699 0.16878
 H891 H 0.41751 0.46321 0.21808
 C892 C 1.13181 0.68826 0.31371
 C893 C 1.12674 0.70805 0.32093
 C894 C 1.14221 0.72828 0.35025
 C895 C 1.16283 0.72893 0.37321
 C896 C 1.16830 0.70959 0.36532
 C897 C 1.15307 0.68955 0.33552
 C898 C 1.11495 0.66624 0.28404
 C899 C 1.11072 0.64244 0.29708
 C900 C 1.09604 0.62192 0.26775
 C901 C 1.08500 0.62464 0.22491
 C902 C 1.08836 0.64826 0.21303
 C903 C 1.10326 0.66882 0.24204
 C904 C 1.07167 0.60336 0.19089
 C905 C 1.07454 0.60714 0.14004
 C906 C 1.06378 0.58721 0.10765
 C907 C 1.05009 0.56290 0.12515
 C908 C 1.04658 0.55900 0.17586
 C909 C 1.05723 0.57907 0.20846
 H910 H 1.11040 0.70757 0.30523
 H911 H 1.13761 0.74296 0.35663
 H912 H 1.18410 0.70981 0.38309
 H913 H 1.15790 0.67498 0.32985
 H914 H 1.11893 0.63965 0.32981
 H915 H 1.09405 0.60408 0.27784
 H916 H 1.07976 0.65096 0.18078
 H917 H 1.10616 0.68684 0.23071
 H918 H 1.08588 0.62545 0.12513
 H919 H 1.06686 0.59085 0.06875
 H920 H 1.03588 0.54046 0.19027
 H921 H 1.05433 0.57556 0.24740
 C922 C 0.43237 0.11825 0.30936
 C923 C 0.44891 0.14383 0.30764
 C924 C 0.44539 0.16024 0.33791
 C925 C 0.42528 0.15132 0.37032
 C926 C 0.40804 0.12601 0.37036
 C927 C 0.41152 0.10959 0.34004
 C928 C 0.43761 0.10055 0.28146
 C929 C 0.41855 0.08006 0.25744
 C930 C 0.42371 0.06351 0.23116
 C931 C 0.44800 0.06706 0.22860
 C932 C 0.46693 0.08726 0.25351
 C933 C 0.46180 0.10383 0.27960
 C934 C 0.45408 0.05105 0.19699
 C935 C 0.47163 0.04398 0.21182
 C936 C 0.48003 0.03212 0.17897
 C937 C 0.47117 0.02736 0.13064
 C938 C 0.45245 0.03295 0.11691
 C939 C 0.44398 0.04465 0.14973
 H940 H 0.46491 0.15105 0.28374
 H941 H 0.45895 0.17971 0.33778
 H942 H 0.39257 0.11885 0.39562
 H943 H 0.39857 0.09000 0.34242
 H944 H 0.39975 0.07708 0.25822
 H945 H 0.40873 0.04802 0.21251
 H946 H 0.48588 0.09070 0.25166
 H947 H 0.47679 0.11919 0.29850
 H948 H 0.47944 0.04834 0.24833
 H949 H 0.49436 0.02788 0.19062
 H950 H 0.44510 0.02929 0.08000
 H951 H 0.43054 0.04995 0.13711
 C952 C 0.70286 0.56191 0.29660
 C953 C 0.71099 0.58268 0.32775
 C954 C 0.72857 0.58712 0.36420
 C955 C 0.73852 0.57106 0.36976
 C956 C 0.73093 0.55067 0.33825
 C957 C 0.71319 0.54605 0.30218
 C958 C 0.68283 0.55603 0.26012
 C959 C 0.68272 0.54490 0.21486
 C960 C 0.66270 0.53725 0.18273
 C961 C 0.64238 0.54071 0.19491
 C962 C 0.64305 0.55290 0.23906
 C963 C 0.66292 0.56032 0.27136
 C964 C 0.61989 0.53030 0.16346
 C965 C 0.59631 0.51954 0.18522
 C966 C 0.57502 0.50905 0.15650
 C967 C 0.57665 0.50880 0.10519
 C968 C 0.60013 0.51957 0.08309
 C969 C 0.62157 0.53025 0.11197
 H970 H 0.70375 0.59549 0.32406
 H971 H 0.73437 0.60301 0.38820
 H972 H 0.73840 0.53804 0.34234
 H973 H 0.70707 0.52964 0.27964
 H974 H 0.69796 0.54175 0.20453
 H975 H 0.66277 0.52784 0.14917
 H976 H 0.62795 0.55634 0.24917
 H977 H 0.66219 0.56862 0.30595
 H978 H 0.59424 0.51872 0.22468
 H979 H 0.55719 0.50086 0.17465
 H980 H 0.60191 0.51974 0.04357
 H981 H 0.63944 0.53859 0.09401
 C982 C 0.83939 0.33180 0.29778
 C983 C 0.84216 0.31168 0.31427
 C984 C 0.82708 0.29643 0.35168
 C985 C 0.80914 0.30118 0.37338
 C986 C 0.80636 0.32128 0.35736
 C987 C 0.82130 0.33644 0.31968
 C988 C 0.85556 0.34813 0.25839
 C989 C 0.84573 0.35620 0.22061
 C990 C 0.86117 0.37211 0.18427
 C991 C 0.88679 0.38043 0.18512
 C992 C 0.89651 0.37211 0.22274
 C993 C 0.88107 0.35609 0.25881
 C994 C 0.90361 0.39868 0.14863
 C995 C 0.92465 0.39764 0.13150
 C996 C 0.94213 0.41653 0.10224
 C997 C 0.93885 0.43679 0.08909
 C998 C 0.91710 0.43709 0.10355
 C999 C 0.89971 0.41830 0.13319
 H1000 H 0.85578 0.30755 0.29777
 H1001 H 0.82930 0.28087 0.36363
 H1002 H 0.79252 0.32510 0.37386
 H1003 H 0.81897 0.35198 0.30810
 H1004 H 0.82607 0.35007 0.21903
 H1005 H 0.85302 0.37788 0.15547
 H1006 H 0.91621 0.37855 0.22522
 H1007 H 0.88921 0.35045 0.28787
 H1008 H 0.92793 0.38249 0.14172
 H1009 H 0.95863 0.41570 0.09127
 H1010 H 0.91410 0.45251 0.09411
 H1011 H 0.88384 0.41982 0.14599
   
