data_POSCAR
  _audit_creation_date              2014-09-24
  _audit_creation_method            'ToBaCCo'
  _symmetry_space_group_name_H-M    'P1'
  _symmetry_Int_Tables_number       1
  _symmetry_cell_setting            triclinic
  loop_
  _symmetry_equiv_pos_as_xyz
 x,y,z
_cell_length_a 22.8083
_cell_length_b 22.8225
_cell_length_c 22.7637
_cell_angle_alpha 90.394800
_cell_angle_beta 90.839700
_cell_angle_gamma 88.643700
loop_
  _atom_site_label
  _atom_site_type_symbol
  _atom_site_fract_x
  _atom_site_fract_y
  _atom_site_fract_z
C1 C -0.00200 0.50321 0.25055
 C2 C 0.00537 0.49938 0.75071
 C3 C 0.25117 0.00431 0.50346
 C4 C 0.74837 -0.00734 0.49666
 C5 C 0.49214 0.24936 0.99868
 C6 C 0.50425 0.75102 1.00185
 B7 B 0.99566 1.06275 0.03417
 B8 B 0.99509 1.05929 -0.03972
 B9 B 1.05629 1.03982 -0.00150
 B10 B 1.03589 1.00523 0.05982
 B11 B 0.96215 1.00314 0.05934
 B12 B 0.93686 1.03643 -0.00220
 B13 B 1.00138 0.93983 -0.03470
 B14 B 1.00200 0.94339 0.03917
 B15 B 0.94071 0.96276 0.00107
 B16 B 0.96122 0.99735 -0.06026
 B17 B 1.03490 0.99952 -0.06002
 B18 B 1.06023 0.96618 0.00146
 B19 B 0.56108 0.49755 0.46360
 B20 B 0.50164 0.53700 0.44138
 B21 B 0.50072 0.46334 0.43921
 B22 B 0.53788 0.43785 0.49858
 B23 B 0.56178 0.49583 0.53751
 B24 B 0.53919 0.55712 0.50223
 B25 B 0.44208 0.49995 0.53673
 B26 B 0.50177 0.46053 0.55896
 B27 B 0.50247 0.53424 0.56121
 B28 B 0.46538 0.55982 0.50172
 B29 B 0.44158 0.50170 0.46281
 B30 B 0.46408 0.44025 0.49813
 C31 C 1.01114 1.38500 0.12597
 C32 C 0.98687 1.33661 0.15304
 C33 C 0.96390 1.34263 0.20904
 C34 C 0.96586 1.39617 0.23851
 C35 C 0.98942 1.44660 0.21247
 C36 C 1.01288 1.43916 0.15540
 C37 C 0.98884 1.27933 0.12620
 C38 C 0.99022 1.23020 0.10643
 C39 C 0.99176 1.17227 0.08441
 C40 C 0.99322 1.12328 0.06442
 H41 H 1.03068 1.38041 0.08304
 H42 H 0.94610 1.30516 0.23104
 H43 H 0.95039 1.39629 0.28285
 H44 H 1.03647 1.47373 0.13469
 C45 C 1.03103 0.66523 0.21745
 C46 C 1.00774 0.67299 0.16120
 C47 C 0.98276 0.62563 0.13160
 C48 C 0.98098 0.57065 0.15858
 C49 C 1.00538 0.56127 0.21556
 C50 C 1.02912 0.61083 0.24445
 C51 C 1.00676 0.73076 0.13623
 C52 C 1.00624 0.77992 0.11722
 C53 C 1.00559 0.83741 0.09489
 C54 C 1.00458 0.88548 0.07339
 H55 H 1.04928 0.70191 0.24142
 H56 H 0.96291 0.63160 0.08846
 H57 H 0.95695 0.53686 0.13595
 H58 H 1.04493 0.60921 0.28911
 C59 C 1.02940 1.33620 -0.20987
 C60 C 0.99262 1.32969 -0.16224
 C61 C 0.96049 1.37830 -0.14103
 C62 C 0.96566 1.43335 -0.16753
 C63 C 1.00450 1.44117 -0.21453
 C64 C 1.03454 1.39056 -0.23624
 C65 C 0.98814 1.27229 -0.13693
 C66 C 0.98736 1.22317 -0.11772
 C67 C 0.98892 1.16558 -0.09530
 C68 C 0.99140 1.11742 -0.07385
 H69 H 1.05346 1.29872 -0.22761
 H70 H 0.93082 1.37351 -0.10475
 H71 H 0.93849 1.46958 -0.15200
 H72 H 1.06114 1.39191 -0.27511
 C73 C 1.02162 0.61420 -0.12268
 C74 C 1.01291 0.66629 -0.15436
 C75 C 1.00404 0.66389 -0.21496
 C76 C 1.00241 0.61014 -0.24379
 C77 C 1.00842 0.55676 -0.21278
 C78 C 1.02012 0.55968 -0.15174
 C79 C 1.01230 0.72298 -0.12620
 C80 C 1.01049 0.77199 -0.10610
 C81 C 1.00744 0.83000 -0.08429
 C82 C 1.00460 0.87913 -0.06466
 H83 H 1.02967 0.61573 -0.07568
 H84 H 0.99796 0.70379 -0.24011
 H85 H 0.99530 0.60999 -0.29094
 H86 H 1.02881 0.52050 -0.12642
 C87 C 1.21204 0.98211 0.33946
 C88 C 1.16098 1.01610 0.33248
 C89 C 1.13820 1.04715 0.38074
 C90 C 1.16621 1.04311 0.43606
 C91 C 1.21619 1.00615 0.44452
 C92 C 1.23980 0.97802 0.39409
 C93 C 1.13357 1.01848 0.27504
 C94 C 1.11307 1.01739 0.22587
 C95 C 1.08986 1.01378 0.16808
 C96 C 1.06852 1.00989 0.11947
 H97 H 1.23103 0.95909 0.30225
 H98 H 1.09930 1.07488 0.37552
 H99 H 1.14910 1.06924 0.47205
 H100 H 1.28074 0.95318 0.39615
 C101 C 1.21790 1.00661 -0.33198
 C102 C 1.15814 0.99570 -0.33022
 C103 C 1.12677 0.98606 -0.38275
 C104 C 1.15521 0.98844 -0.43704
 C105 C 1.21525 1.00198 -0.43941
 C106 C 1.24614 1.00903 -0.38556
 C107 C 1.13040 0.99460 -0.27379
 C108 C 1.11006 0.99488 -0.22517
 C109 C 1.08737 0.99614 -0.16777
 C110 C 1.06663 0.99761 -0.11937
 H111 H 1.24290 1.01330 -0.29173
 H112 H 1.08054 0.97634 -0.38174
 H113 H 1.13032 0.97856 -0.47646
 H114 H 1.29276 1.01710 -0.38516
 C115 C 0.78513 1.02968 0.33586
 C116 C 0.84114 1.00535 0.32954
 C117 C 0.86943 0.97861 0.37752
 C118 C 0.84131 0.97597 0.43171
 C119 C 0.78444 1.00113 0.43962
 C120 C 0.75695 1.02691 0.38950
 C121 C 0.86713 1.00493 0.27245
 C122 C 0.88678 1.00485 0.22367
 C123 C 0.90929 1.00478 0.16643
 C124 C 0.93020 1.00444 0.11825
 H125 H 0.76223 1.04936 0.29859
 H126 H 0.91238 0.95802 0.37259
 H127 H 0.86296 0.95072 0.46602
 H128 H 0.71257 1.04373 0.39003
 C129 C 0.78745 0.95670 -0.34143
 C130 C 0.84258 0.98057 -0.33413
 C131 C 0.87031 1.00499 -0.38215
 C132 C 0.84214 1.00654 -0.43722
 C133 C 0.78563 0.98288 -0.44589
 C134 C 0.75917 0.95845 -0.39594
 C135 C 0.86769 0.98388 -0.27603
 C136 C 0.88651 0.98681 -0.22648
 C137 C 0.90820 0.99036 -0.16843
 C138 C 0.92881 0.99344 -0.11963
 H139 H 0.76506 0.93864 -0.30423
 H140 H 0.91261 1.02509 -0.37653
 H141 H 0.86309 1.03056 -0.47150
 H142 H 0.71527 0.94242 -0.39713
 C143 C 1.37655 1.12754 0.01366
 C144 C 1.32478 1.16075 0.00419
 C145 C 1.32752 1.22085 -0.00486
 C146 C 1.38144 1.24770 -0.00588
 C147 C 1.43459 1.21502 0.00087
 C148 C 1.43123 1.15456 0.01273
 C149 C 1.26812 1.13454 0.00345
 C150 C 1.21939 1.11541 0.00190
 C151 C 1.16211 1.09370 -0.00023
 C152 C 1.11409 1.07300 -0.00157
 H153 H 1.37465 1.08094 0.02194
 H154 H 1.28779 1.24715 -0.01141
 H155 H 1.38195 1.29456 -0.01300
 H156 H 1.47013 1.12818 0.02213
 C157 C 0.65461 1.20545 0.02541
 C158 C 0.66171 1.15616 -0.01026
 C159 C 0.61392 1.13562 -0.04318
 C160 C 0.55890 1.16435 -0.03960
 C161 C 0.55034 1.21288 -0.00149
 C162 C 0.60035 1.23400 0.02897
 C163 C 0.71913 1.12890 -0.01297
 C164 C 0.76855 1.10902 -0.01207
 C165 C 0.82681 1.08704 -0.00874
 C166 C 0.87606 1.06703 -0.00539
 H167 H 0.69157 1.22273 0.04988
 H168 H 0.61936 1.09812 -0.07217
 H169 H 0.52327 1.14920 -0.06723
 H170 H 0.59855 1.27387 0.05487
 C171 C 1.33925 0.78569 0.00554
 C172 C 1.33528 0.84547 -0.00595
 C173 C 1.38625 0.87625 -0.01794
 C174 C 1.44134 0.84722 -0.01672
 C175 C 1.44608 0.78731 -0.00178
 C176 C 1.39356 0.75692 0.00690
 C177 C 1.27814 0.87367 -0.00501
 C178 C 1.22886 0.89382 -0.00299
 C179 C 1.17057 0.91577 -0.00019
 C180 C 1.12121 0.93565 0.00157
 H181 H 1.30017 0.76111 0.01388
 H182 H 1.38341 0.92248 -0.02834
 H183 H 1.47949 0.87162 -0.02815
 H184 H 1.39484 0.71039 0.01599
 C185 C 0.66728 0.78539 -0.01877
 C186 C 0.67325 0.83824 0.01131
 C187 C 0.62470 0.86360 0.03981
 C188 C 0.56999 0.83647 0.03684
 C189 C 0.56244 0.78482 0.00326
 C190 C 0.61325 0.75853 -0.02181
 C191 C 0.72993 0.86490 0.01242
 C192 C 0.77839 0.88489 0.01075
 C193 C 0.83523 0.90779 0.00709
 C194 C 0.88286 0.92925 0.00379
 H195 H 0.70476 0.76441 -0.03964
 H196 H 0.62921 0.90389 0.06472
 H197 H 0.53389 0.85566 0.06119
 H198 H 0.61179 0.71634 -0.04367
 C199 C 0.88009 0.48590 0.37116
 C200 C 0.83062 0.51072 0.34328
 C201 C 0.83594 0.53669 0.28856
 C202 C 0.88999 0.53660 0.26088
 C203 C 0.94122 0.51165 0.28756
 C204 C 0.93456 0.48592 0.34359
 C205 C 0.77339 0.50629 0.36828
 C206 C 0.72476 0.50277 0.38762
 C207 C 0.66777 0.49934 0.41021
 C208 C 0.61982 0.49751 0.43135
 H209 H 0.87614 0.46431 0.41311
 H210 H 0.79769 0.55524 0.26608
 H211 H 0.89011 0.55425 0.21719
 H212 H 0.97007 0.46137 0.36449
 C213 C 0.11997 0.51625 0.37151
 C214 C 0.16855 0.49278 0.34215
 C215 C 0.16142 0.46883 0.28622
 C216 C 0.10644 0.46971 0.25882
 C217 C 0.05603 0.49344 0.28691
 C218 C 0.06454 0.51701 0.34421
 C219 C 0.22663 0.49656 0.36701
 C220 C 0.27595 0.49952 0.38620
 C221 C 0.33368 0.50217 0.40871
 C222 C 0.38224 0.50317 0.42998
 H223 H 0.12529 0.53624 0.41451
 H224 H 0.19895 0.45131 0.26265
 H225 H 0.10499 0.45371 0.21431
 H226 H 0.02969 0.54054 0.36655
 C227 C 0.84244 0.52623 0.70847
 C228 C 0.83530 0.48983 0.65974
 C229 C 0.88333 0.45682 0.63884
 C230 C 0.93849 0.46082 0.66673
 C231 C 0.94701 0.49937 0.71483
 C232 C 0.89690 0.53022 0.73620
 C233 C 0.77774 0.48650 0.63319
 C234 C 0.72839 0.48669 0.61338
 C235 C 0.67037 0.48923 0.59087
 C236 C 0.62155 0.49223 0.56994
 H237 H 0.80537 0.55091 0.72598
 H238 H 0.87798 0.42738 0.60173
 H239 H 0.97429 0.43309 0.65132
 H240 H 0.89872 0.55665 0.77576
 C241 C 0.11972 0.51545 0.62650
 C242 C 0.17197 0.50607 0.65872
 C243 C 0.16987 0.49627 0.71894
 C244 C 0.11620 0.49462 0.74687
 C245 C 0.06265 0.50150 0.71521
 C246 C 0.06533 0.51388 0.65461
 C247 C 0.22846 0.50619 0.63135
 C248 C 0.27713 0.50520 0.61135
 C249 C 0.33453 0.50330 0.58903
 C250 C 0.38292 0.50159 0.56849
 H251 H 0.12103 0.52425 0.57984
 H252 H 0.20992 0.48970 0.74452
 H253 H 0.11623 0.48709 0.79380
 H254 H 0.02607 0.52328 0.62895
 C255 C 0.54209 0.63725 0.12391
 C256 C 0.51309 0.66260 0.17205
 C257 C 0.48315 0.71602 0.16544
 C258 C 0.48054 0.74337 0.11110
 C259 C 0.50592 0.71705 0.06061
 C260 C 0.53958 0.66490 0.06888
 C261 C 0.51347 0.63535 0.22897
 C262 C 0.51117 0.61502 0.27764
 C263 C 0.50696 0.59188 0.33478
 C264 C 0.50357 0.57036 0.38278
 H265 H 0.56694 0.59652 0.12897
 H266 H 0.46194 0.73699 0.20263
 H267 H 0.45858 0.78586 0.10906
 H268 H 0.56417 0.64564 0.03304
 C269 C 0.48467 0.62627 0.88564
 C270 C 0.49638 0.65688 0.83403
 C271 C 0.50805 0.71643 0.83702
 C272 C 0.50967 0.74511 0.89101
 C273 C 0.50115 0.71482 0.94414
 C274 C 0.48620 0.65519 0.94037
 C275 C 0.49673 0.62866 0.77726
 C276 C 0.49822 0.60818 0.72832
 C277 C 0.50052 0.58563 0.67048
 C278 C 0.50212 0.56523 0.62155
 H279 H 0.47414 0.58027 0.88357
 H280 H 0.51617 0.74089 0.79743
 H281 H 0.51863 0.79151 0.89155
 H282 H 0.47480 0.63095 0.97898
 C283 C 0.49406 0.28285 0.16354
 C284 C 0.48643 0.34348 0.16618
 C285 C 0.47756 0.37547 0.11428
 C286 C 0.47804 0.34663 0.05955
 C287 C 0.48899 0.28555 0.05629
 C288 C 0.49471 0.25424 0.10958
 C289 C 0.48861 0.37137 0.22290
 C290 C 0.49162 0.39126 0.27195
 C291 C 0.49565 0.41291 0.32991
 C292 C 0.49868 0.43269 0.37894
 H293 H 0.50013 0.25753 0.20337
 H294 H 0.47033 0.42252 0.11610
 H295 H 0.46934 0.37221 0.02051
 H296 H 0.50116 0.20707 0.10917
 C297 C 0.53632 0.35815 0.87775
 C298 C 0.50416 0.33743 0.82929
 C299 C 0.46835 0.28946 0.83560
 C300 C 0.46384 0.26250 0.88979
 C301 C 0.49345 0.28404 0.94044
 C302 C 0.53182 0.33101 0.93265
 C303 C 0.50759 0.36357 0.77217
 C304 C 0.50755 0.38325 0.72320
 C305 C 0.50544 0.40589 0.66571
 C306 C 0.50327 0.42722 0.61749
 H307 H 0.56540 0.39460 0.87296
 H308 H 0.44443 0.27204 0.79812
 H309 H 0.43784 0.22355 0.89107
 H310 H 0.55891 0.34622 0.96881
 C311 C 0.62881 0.87486 0.51195
 C312 C 0.65741 0.82574 0.48790
 C313 C 0.71198 0.83143 0.46237
 C314 C 0.73903 0.88546 0.46250
 C315 C 0.71186 0.93627 0.48714
 C316 C 0.65572 0.92934 0.51195
 C317 C 0.63340 0.76843 0.49289
 C318 C 0.61489 0.71972 0.49691
 C319 C 0.59303 0.66277 0.50078
 C320 C 0.57206 0.61501 0.50273
 H321 H 0.58688 0.87059 0.53309
 H322 H 0.73491 0.79343 0.44430
 H323 H 0.78266 0.88574 0.44528
 H324 H 0.63433 0.96452 0.53606
 C325 C 0.62697 0.11502 0.48157
 C326 C 0.65532 0.16277 0.50683
 C327 C 0.71068 0.15493 0.53232
 C328 C 0.73859 0.10011 0.53130
 C329 C 0.71152 0.05047 0.50594
 C330 C 0.65478 0.05967 0.48072
 C331 C 0.63030 0.22096 0.50335
 C332 C 0.61149 0.27057 0.50084
 C333 C 0.58987 0.32876 0.49869
 C334 C 0.56952 0.37780 0.49781
 H335 H 0.58444 0.12101 0.46036
 H336 H 0.73347 0.19189 0.55118
 H337 H 0.78266 0.09832 0.54863
 H338 H 0.63333 0.02548 0.45606
 C339 C 0.28406 0.83893 0.50016
 C340 C 0.34412 0.83462 0.51162
 C341 C 0.37579 0.88559 0.52285
 C342 C 0.34732 0.94091 0.52120
 C343 C 0.28697 0.94586 0.50674
 C344 C 0.25582 0.89349 0.49839
 C345 C 0.37180 0.77723 0.51119
 C346 C 0.39177 0.72784 0.50944
 C347 C 0.41381 0.66956 0.50652
 C348 C 0.43401 0.62035 0.50399
 H349 H 0.25886 0.79991 0.49222
 H350 H 0.42230 0.88257 0.53301
 H351 H 0.37249 0.97911 0.53198
 H352 H 0.20905 0.89505 0.48938
 C353 C 0.29020 0.16650 0.52705
 C354 C 0.34045 0.17185 0.49371
 C355 C 0.36305 0.12286 0.46332
 C356 C 0.33556 0.06854 0.46710
 C357 C 0.28619 0.06176 0.50306
 C358 C 0.26290 0.11284 0.53084
 C359 C 0.36702 0.22847 0.49078
 C360 C 0.38705 0.27697 0.49089
 C361 C 0.40999 0.33399 0.49297
 C362 C 0.43128 0.38185 0.49538
 H363 H 0.27134 0.20431 0.54956
 H364 H 0.40130 0.12680 0.43611
 H365 H 0.35242 0.03209 0.44127
 H366 H 0.22239 0.11216 0.55489
   
