data_POSCAR
  _audit_creation_date              2014-09-24
  _audit_creation_method            'ToBaCCo'
  _symmetry_space_group_name_H-M    'P1'
  _symmetry_Int_Tables_number       1
  _symmetry_cell_setting            triclinic
  loop_
  _symmetry_equiv_pos_as_xyz
 x,y,z
_cell_length_a 15.0353
_cell_length_b 15.0114
_cell_length_c 15.9699
_cell_angle_alpha 89.575000
_cell_angle_beta 90.367300
_cell_angle_gamma 120.977000
loop_
  _atom_site_label
  _atom_site_type_symbol
  _atom_site_fract_x
  _atom_site_fract_y
  _atom_site_fract_z
O1 O 0.33568 0.53262 0.34214
 O2 O 0.15850 0.52330 0.33005
 C3 C 0.15547 0.59073 0.37581
 O4 O 0.20145 0.68610 0.35672
 O5 O 0.36618 0.85910 0.31440
 C6 C 0.44565 0.86978 0.35274
 O7 O 0.49355 0.82536 0.32921
 O8 O 0.49276 0.65454 0.29791
 C9 C 0.43361 0.58068 0.34726
 O10 O 0.34511 0.51842 0.17462
 O11 O 0.17233 0.52046 0.16146
 C12 C 0.11928 0.56395 0.15295
 O13 O 0.14022 0.64404 0.19523
 O14 O 0.30992 0.81375 0.15151
 C15 C 0.40332 0.86139 0.12761
 O16 O 0.47442 0.85404 0.16449
 O17 O 0.46190 0.67817 0.13346
 C18 C 0.41161 0.58079 0.12201
 Cr19 Cr 0.25547 0.52885 0.25175
 Cr20 Cr 0.25706 0.74834 0.25404
 Cr21 Cr 0.47566 0.75047 0.23174
 O22 O 0.32944 0.67603 0.24609
 O23 O 0.53116 0.34506 0.63320
 O24 O 0.51920 0.16875 0.66372
 C25 C 0.58884 0.15723 0.62977
 O26 O 0.68268 0.20564 0.65321
 O27 O 0.85276 0.37470 0.69519
 C28 C 0.87191 0.45506 0.65340
 O29 O 0.82550 0.50445 0.66454
 O30 O 0.65252 0.50534 0.67229
 C31 C 0.58186 0.44250 0.62253
 O32 O 0.50068 0.36606 0.79630
 O33 O 0.49991 0.19453 0.82841
 C34 C 0.54436 0.14538 0.84917
 O35 O 0.62745 0.16063 0.81532
 O36 O 0.79383 0.33427 0.85779
 C37 C 0.83858 0.42918 0.87809
 O38 O 0.83397 0.49721 0.83344
 O39 O 0.65641 0.48720 0.84087
 C40 C 0.55865 0.43664 0.84782
 Cr41 Cr 0.51819 0.27130 0.73095
 Cr42 Cr 0.73672 0.27178 0.75513
 Cr43 Cr 0.73933 0.49323 0.75246
 O44 O 0.66500 0.34545 0.74564
 C45 C 0.52826 -0.07996 0.49854
 C46 C 0.48532 -0.05987 0.42606
 C47 C 0.47717 0.02910 0.42379
 C48 C 0.51168 0.09840 0.49023
 C49 C 0.55777 0.08260 0.56052
 C50 C 0.56759 -0.00631 0.56509
 C51 C 0.52921 -0.17323 0.50861
 C52 C 0.57334 -0.19029 0.57935
 C53 C 0.61543 -0.11644 0.64234
 C54 C 0.61182 -0.02583 0.63599
 H55 H 0.49388 -0.23538 0.46377
 H56 H 0.57421 -0.26161 0.58574
 H57 H 0.64900 -0.13047 0.69735
 H58 H 0.64260 0.02754 0.68785
 H59 H 0.44378 0.04546 0.36979
 H60 H 0.50321 0.16581 0.48641
 C61 C 1.12275 0.61125 0.52880
 C62 C 1.09063 0.55578 0.45198
 C63 C 0.99159 0.46683 0.44594
 C64 C 0.92281 0.43486 0.51269
 C65 C 0.95067 0.49111 0.58732
 C66 C 1.05131 0.57933 0.59661
 C67 C 1.22482 0.69598 0.54074
 C68 C 1.25423 0.75007 0.61620
 C69 C 1.18353 0.72019 0.68160
 C70 C 1.08303 0.63533 0.67236
 H71 H 1.28353 0.72015 0.49298
 H72 H 1.33252 0.81517 0.62411
 H73 H 1.20703 0.76230 0.74011
 H74 H 1.03085 0.61340 0.72511
 H75 H 0.96594 0.42338 0.38804
 H76 H 0.84601 0.36688 0.50533
 C77 C 0.55540 0.52166 0.40034
 C78 C 0.47964 0.54942 0.41470
 C79 C 0.44249 0.54368 0.49602
 C80 C 0.47946 0.51223 0.56296
 C81 C 0.55390 0.48451 0.55053
 C82 C 0.59309 0.48925 0.46920
 C83 C 0.59144 0.52101 0.31903
 C84 C 0.66453 0.49158 0.30634
 C85 C 0.70305 0.46233 0.37390
 C86 C 0.66761 0.46067 0.45471
 H87 H 0.56264 0.54144 0.26448
 H88 H 0.69085 0.49073 0.24362
 H89 H 0.75993 0.43985 0.36355
 H90 H 0.69854 0.43641 0.50552
 H91 H 0.38412 0.56391 0.50785
 H92 H 0.44829 0.50768 0.62491
 C93 C 0.43106 -0.10881 0.97230
 C94 C 0.43126 -0.07135 1.05343
 C95 C 0.46064 0.03261 1.06448
 C96 C 0.49334 0.10091 0.99663
 C97 C 0.49817 0.06700 0.91626
 C98 C 0.46435 -0.03906 0.90291
 C99 C 0.39811 -0.21423 0.95860
 C100 C 0.39743 -0.25011 0.87817
 C101 C 0.42835 -0.18225 0.81010
 C102 C 0.46101 -0.07776 0.82198
 H103 H 0.37173 -0.26978 1.00962
 H104 H 0.37189 -0.33115 0.86853
 H105 H 0.42629 -0.21096 0.74775
 H106 H 0.48183 -0.02809 0.76736
 H107 H 0.46018 0.06148 1.12637
 H108 H 0.51834 0.18172 1.00733
 C109 C 0.96384 0.55511 1.08978
 C110 C 1.04047 0.52515 1.09557
 C111 C 1.03626 0.45432 1.03562
 C112 C 0.96968 0.42410 0.96733
 C113 C 0.90322 0.46213 0.95516
 C114 C 0.89765 0.52603 1.01760
 C115 C 0.94510 0.60624 1.15588
 C116 C 0.87219 0.63663 1.14778
 C117 C 0.81239 0.61303 1.07581
 C118 C 0.82347 0.55682 1.01213
 H119 H 0.98119 0.61889 1.21658
 H120 H 0.85996 0.67621 1.19881
 H121 H 0.75453 0.63522 1.07053
 H122 H 0.77107 0.53542 0.96009
 H123 H 1.08897 0.42538 1.03810
 H124 H 0.97294 0.37286 0.92159
 C125 C 0.37304 0.43723 1.01474
 C126 C 0.43796 0.53921 1.04746
 C127 C 0.53536 0.60337 1.01080
 C128 C 0.57062 0.56846 0.94620
 C129 C 0.51206 0.46634 0.91649
 C130 C 0.41294 0.39831 0.95290
 C131 C 0.26897 0.37287 1.04081
 C132 C 0.20979 0.27020 1.01448
 C133 C 0.25253 0.22912 0.96179
 C134 C 0.35277 0.29199 0.93126
 H135 H 0.23045 0.40075 1.07979
 H136 H 0.13063 0.22193 1.03588
 H137 H 0.20733 0.14830 0.94360
 H138 H 0.38180 0.25458 0.89230
 H139 H 0.58647 0.68177 1.03305
 H140 H 0.64605 0.62247 0.91993
   
