data_POSCAR
  _audit_creation_date              2014-09-24
  _audit_creation_method            'ToBaCCo'
  _symmetry_space_group_name_H-M    'P1'
  _symmetry_Int_Tables_number       1
  _symmetry_cell_setting            triclinic
  loop_
  _symmetry_equiv_pos_as_xyz
 x,y,z
_cell_length_a 48.5137
_cell_length_b 48.7754
_cell_length_c 45.7469
_cell_angle_alpha 90.001600
_cell_angle_beta 90.060400
_cell_angle_gamma 90.090000
loop_
  _atom_site_label
  _atom_site_type_symbol
  _atom_site_fract_x
  _atom_site_fract_y
  _atom_site_fract_z
C1 C 0.08462 0.30896 0.01413
 C2 C 0.08465 0.30880 -0.01585
 C3 C 0.05801 0.30233 -0.02458
 N4 N 0.04181 0.29848 -0.00091
 C5 C 0.05797 0.30261 0.02276
 C6 C 0.04965 0.29778 -0.05378
 C7 C 0.02193 0.29352 -0.06235
 C8 C 0.01366 0.28415 -0.08966
 C9 C -0.01466 0.28382 -0.08965
 C10 C -0.02304 0.29299 -0.06232
 N11 N -0.00060 0.29913 -0.04597
 C12 C -0.05082 0.29660 -0.05373
 C13 C -0.05925 0.30081 -0.02451
 C14 C -0.08603 0.30652 -0.01578
 C15 C -0.08598 0.30656 0.01420
 C16 C -0.05918 0.30092 0.02283
 N17 N -0.04294 0.29731 -0.00085
 C18 C -0.05067 0.29695 0.05202
 C19 C -0.02292 0.29358 0.06064
 C20 C -0.01448 0.28486 0.08809
 C21 C 0.01387 0.28528 0.08807
 C22 C 0.02199 0.29425 0.06061
 N23 N -0.00056 0.29957 0.04416
 C24 C 0.04962 0.29843 0.05195
 H25 H 0.10228 0.31293 0.02798
 H26 H 0.10236 0.31261 -0.02965
 H27 H -0.00071 0.30935 0.02401
 H28 H 0.02669 0.27824 -0.10779
 H29 H -0.02762 0.27762 -0.10776
 H30 H -0.10384 0.30990 -0.02958
 H31 H -0.10371 0.30999 0.02805
 H32 H 0.02698 0.27968 0.10627
 H33 H -0.00069 0.30920 -0.02598
 H34 H -0.02738 0.27888 0.10630
 C35 C 0.58528 0.80824 0.48520
 C36 C 0.58532 0.80815 0.51519
 C37 C 0.55858 0.80226 0.52385
 N38 N 0.54229 0.79864 0.50017
 C39 C 0.55851 0.80239 0.47651
 C40 C 0.55016 0.79811 0.55303
 C41 C 0.52245 0.79435 0.56165
 C42 C 0.51417 0.78547 0.58910
 C43 C 0.48582 0.78543 0.58908
 C44 C 0.47752 0.79427 0.56161
 N45 N 0.49998 0.79997 0.54518
 C46 C 0.44981 0.79794 0.55295
 C47 C 0.44133 0.80194 0.52375
 C48 C 0.41455 0.80768 0.51507
 C49 C 0.41451 0.80760 0.48508
 C50 C 0.44126 0.80183 0.47643
 N51 N 0.45755 0.79826 0.50009
 C52 C 0.44968 0.79774 0.44725
 C53 C 0.47741 0.79418 0.43862
 C54 C 0.48573 0.78537 0.41117
 C55 C 0.51407 0.78556 0.41118
 C56 C 0.52234 0.79447 0.43864
 N57 N 0.49986 0.79999 0.45509
 C58 C 0.55004 0.79836 0.44731
 H59 H 0.60301 0.81185 0.47138
 H60 H 0.60309 0.81167 0.52902
 H61 H 0.49984 0.80978 0.47523
 H62 H 0.52718 0.77968 0.60731
 H63 H 0.47282 0.77959 0.60726
 H64 H 0.39682 0.81123 0.52889
 H65 H 0.39675 0.81107 0.47125
 H66 H 0.52709 0.77983 0.39299
 H67 H 0.49995 0.80976 0.52504
 H68 H 0.47274 0.77947 0.39297
 C69 C 0.91448 0.69232 0.01522
 C70 C 0.91435 0.69240 -0.01476
 C71 C 0.94102 0.69861 -0.02354
 N72 N 0.95732 0.70240 0.00010
 C73 C 0.94120 0.69847 0.02380
 C74 C 0.94935 0.70296 -0.05276
 C75 C 0.97711 0.70682 -0.06133
 C76 C 0.98550 0.71596 -0.08868
 C77 C 1.01383 0.71586 -0.08863
 C78 C 1.02205 0.70670 -0.06127
 N79 N 0.99956 0.70095 -0.04491
 C80 C 1.04973 0.70271 -0.05267
 C81 C 1.05820 0.69847 -0.02351
 C82 C 1.08492 0.69236 -0.01494
 C83 C 1.08505 0.69241 0.01505
 C84 C 1.05839 0.69855 0.02383
 N85 N 1.04208 0.70233 0.00020
 C86 C 1.05007 0.70285 0.05307
 C87 C 1.02232 0.70669 0.06165
 C88 C 1.01397 0.71578 0.08902
 C89 C 0.98564 0.71572 0.08896
 C90 C 0.97738 0.70662 0.06158
 N91 N 0.99985 0.70088 0.04521
 C92 C 0.94968 0.70268 0.05296
 H93 H 0.89683 0.68852 0.02910
 H94 H 0.89658 0.68867 -0.02853
 H95 H 0.99981 0.69093 0.02515
 H96 H 0.97254 0.72198 -0.10685
 H97 H 1.02688 0.72179 -0.10675
 H98 H 1.10256 0.68864 -0.02882
 H99 H 1.10282 0.68872 0.02881
 H100 H 0.97261 0.72163 0.10709
 H101 H 0.99955 0.69095 -0.02487
 H102 H 1.02696 0.72174 0.10721
 C103 C 0.58442 0.19191 0.48528
 C104 C 0.58439 0.19181 0.51527
 C105 C 0.55766 0.19770 0.52391
 N106 N 0.54144 0.20148 0.50023
 C107 C 0.55769 0.19784 0.47658
 C108 C 0.54922 0.20175 0.55310
 C109 C 0.52154 0.20566 0.56172
 C110 C 0.51332 0.21460 0.58915
 C111 C 0.48498 0.21481 0.58912
 C112 C 0.47662 0.20597 0.56167
 N113 N 0.49903 0.20013 0.54525
 C114 C 0.44887 0.20242 0.55301
 C115 C 0.44042 0.19833 0.52382
 C116 C 0.41364 0.19258 0.51512
 C117 C 0.41366 0.19251 0.48513
 C118 C 0.44045 0.19823 0.47650
 N119 N 0.45671 0.20188 0.50018
 C120 C 0.44893 0.20224 0.44731
 C121 C 0.47665 0.20592 0.43870
 C122 C 0.48497 0.21482 0.41127
 C123 C 0.51332 0.21476 0.41130
 C124 C 0.52158 0.20582 0.43873
 N125 N 0.49910 0.20017 0.45516
 C126 C 0.54928 0.20201 0.44739
 H127 H 0.60216 0.18836 0.47147
 H128 H 0.60211 0.18818 0.52912
 H129 H 0.49905 0.19033 0.47528
 H130 H 0.52638 0.22035 0.60736
 H131 H 0.47202 0.22074 0.60729
 H132 H 0.39587 0.18912 0.52892
 H133 H 0.39591 0.18899 0.47127
 H134 H 0.52634 0.22058 0.39312
 H135 H 0.49896 0.19031 0.52512
 H136 H 0.47198 0.22070 0.39308
 C137 C 0.70133 -0.08618 -0.01523
 C138 C 0.70129 -0.08621 0.01474
 C139 C 0.70649 -0.05944 0.02348
 N140 N 0.70983 -0.04317 -0.00019
 C141 C 0.70656 -0.05940 -0.02390
 C142 C 0.71018 -0.05092 0.05276
 C143 C 0.71335 -0.02323 0.06137
 C144 C 0.72185 -0.01469 0.08892
 C145 C 0.72126 0.01348 0.08884
 C146 C 0.71242 0.02146 0.06127
 N147 N 0.70735 -0.00103 0.04480
 C148 C 0.70809 0.04892 0.05259
 C149 C 0.70399 0.05726 0.02338
 C150 C 0.69761 0.08376 0.01475
 C151 C 0.69775 0.08384 -0.01522
 C152 C 0.70423 0.05736 -0.02396
 N153 N 0.70813 0.04123 -0.00030
 C154 C 0.70863 0.04907 -0.05318
 C155 C 0.71299 0.02154 -0.06177
 C156 C 0.72210 0.01342 -0.08921
 C157 C 0.72258 -0.01474 -0.08920
 C158 C 0.71377 -0.02318 -0.06175
 N159 N 0.70769 -0.00093 -0.04532
 C160 C 0.71039 -0.05086 -0.05315
 H161 H 0.69830 -0.10394 -0.02907
 H162 H 0.69821 -0.10398 0.02853
 H163 H 0.69780 -0.00114 -0.02521
 H164 H 0.72776 -0.02744 0.10724
 H165 H 0.72663 0.02658 0.10708
 H166 H 0.69364 0.10130 0.02860
 H167 H 0.69390 0.10145 -0.02902
 H168 H 0.72862 -0.02757 -0.10741
 H169 H 0.69767 -0.00126 0.02456
 H170 H 0.72770 0.02644 -0.10742
 C171 C 0.20055 0.41498 0.48501
 C172 C 0.20049 0.41501 0.51499
 C173 C 0.20544 0.44183 0.52366
 N174 N 0.20865 0.45808 0.49998
 C175 C 0.20553 0.44178 0.47632
 C176 C 0.20893 0.45038 0.55291
 C177 C 0.21234 0.47798 0.56166
 C178 C 0.22054 0.48623 0.58938
 C179 C 0.22066 0.51441 0.58937
 C180 C 0.21253 0.52268 0.56165
 N181 N 0.20715 0.50034 0.54505
 C182 C 0.20935 0.55029 0.55288
 C183 C 0.20583 0.55880 0.52363
 C184 C 0.20103 0.58562 0.51493
 C185 C 0.20093 0.58558 0.48494
 C186 C 0.20570 0.55875 0.47629
 N187 N 0.20883 0.54249 0.49997
 C188 C 0.20912 0.55018 0.44704
 C189 C 0.21243 0.52258 0.43830
 C190 C 0.22060 0.51433 0.41060
 C191 C 0.22061 0.48614 0.41061
 C192 C 0.21244 0.47788 0.43831
 N193 N 0.20716 0.50023 0.45490
 C194 C 0.20913 0.45028 0.44707
 H195 H 0.19765 0.39719 0.47119
 H196 H 0.19756 0.39724 0.52882
 H197 H 0.19789 0.50024 0.47532
 H198 H 0.22587 0.47329 0.60776
 H199 H 0.22609 0.52733 0.60774
 H200 H 0.19831 0.60343 0.52873
 H201 H 0.19810 0.60336 0.47110
 H202 H 0.22599 0.47322 0.39225
 H203 H 0.19787 0.50034 0.52462
 H204 H 0.22597 0.52726 0.39223
 C205 C 0.27790 0.91643 0.01469
 C206 C 0.27780 0.91632 -0.01530
 C207 C 0.28517 0.94255 -0.02412
 N208 N 0.28995 0.95854 -0.00052
 C209 C 0.28530 0.94271 0.02322
 C210 C 0.28896 0.95091 -0.05342
 C211 C 0.29380 0.97841 -0.06185
 C212 C 0.30252 0.98665 -0.08939
 C213 C 0.30259 1.01484 -0.08940
 C214 C 0.29390 1.02313 -0.06187
 N215 N 0.28854 1.00078 -0.04529
 C216 C 0.28909 1.05063 -0.05351
 C217 C 0.28515 1.05910 -0.02426
 C218 C 0.27761 1.08533 -0.01565
 C219 C 0.27755 1.08539 0.01433
 C220 C 0.28507 1.05921 0.02311
 N221 N 0.28990 1.04329 -0.00053
 C222 C 0.28889 1.05085 0.05242
 C223 C 0.29374 1.02338 0.06085
 C224 C 0.30238 1.01513 0.08843
 C225 C 0.30247 0.98693 0.08839
 C226 C 0.29389 0.97869 0.06081
 N227 N 0.28853 1.00101 0.04424
 C228 C 0.28921 0.95122 0.05241
 H229 H 0.27315 0.89911 0.02860
 H230 H 0.27297 0.89889 -0.02903
 H231 H 0.27860 1.00096 0.02414
 H232 H 0.30790 0.97369 -0.10771
 H233 H 0.30802 1.02778 -0.10774
 H234 H 0.27276 1.10264 -0.02952
 H235 H 0.27264 1.10275 0.02809
 H236 H 0.30786 0.97398 0.10673
 H237 H 0.27854 1.00082 -0.02525
 H238 H 0.30770 1.02809 0.10680
 C239 C 0.77872 0.41460 0.51507
 C240 C 0.77879 0.41471 0.48507
 C241 C 0.78574 0.44111 0.47653
 N242 N 0.79015 0.45700 0.50028
 C243 C 0.78564 0.44094 0.52387
 C244 C 0.78936 0.44971 0.44733
 C245 C 0.79373 0.47725 0.43892
 C246 C 0.80192 0.48562 0.41127
 C247 C 0.80175 0.51383 0.41134
 C248 C 0.79345 0.52193 0.43904
 N249 N 0.78849 0.49951 0.45562
 C250 C 0.78881 0.54936 0.44762
 C251 C 0.78525 0.55772 0.47691
 C252 C 0.77816 0.58398 0.48569
 C253 C 0.77825 0.58388 0.51569
 C254 C 0.78539 0.55754 0.52424
 N255 N 0.78988 0.54170 0.50050
 C256 C 0.78911 0.54899 0.55345
 C257 C 0.79364 0.52149 0.56186
 C258 C 0.80194 0.51320 0.58952
 C259 C 0.80194 0.48499 0.58944
 C260 C 0.79365 0.47680 0.56175
 N261 N 0.78851 0.49918 0.54516
 C262 C 0.78917 0.44933 0.55317
 H263 H 0.77416 0.39712 0.52881
 H264 H 0.77429 0.39732 0.47116
 H265 H 0.77879 0.49921 0.52496
 H266 H 0.80716 0.47274 0.39283
 H267 H 0.80683 0.52687 0.39297
 H268 H 0.77347 0.60143 0.47195
 H269 H 0.77365 0.60122 0.52960
 H270 H 0.80715 0.47199 0.60781
 H271 H 0.77881 0.49938 0.47583
 H272 H 0.80714 0.52612 0.60796
 O273 O 0.22637 0.26468 0.28568
 O274 O 0.24410 0.20806 0.23591
 O275 O 0.26299 0.22604 0.28582
 O276 O 0.20735 0.24677 0.23575
 O277 O 0.23638 0.27397 0.21230
 O278 O 0.29202 0.25324 0.26236
 O279 O 0.27312 0.23525 0.21245
 O280 O 0.25539 0.29189 0.26223
 Cu281 Cu 0.23226 0.23364 0.26313
 Cu282 Cu 0.26714 0.26633 0.23493
 C283 C 0.23811 0.28775 0.28255
 C284 C 0.26150 0.21214 0.21568
 C285 C 0.28683 0.23635 0.28271
 C286 C 0.21252 0.26372 0.21545
 O287 O 0.70750 0.74700 0.26327
 O288 O 0.76332 0.72633 0.21350
 O289 O 0.74420 0.70825 0.26322
 O290 O 0.72672 0.76500 0.21347
 O291 O 0.75568 0.79212 0.23717
 O292 O 0.77317 0.73536 0.28693
 O293 O 0.79228 0.75345 0.23721
 O294 O 0.73647 0.77412 0.28697
 Cu295 Cu 0.73249 0.73391 0.23600
 Cu296 Cu 0.76730 0.76650 0.26450
 C297 C 0.71262 0.76388 0.28365
 C298 C 0.78715 0.73661 0.21679
 C299 C 0.76153 0.71227 0.28357
 C300 C 0.73848 0.78804 0.21672
 O301 O 0.79162 0.24569 0.23646
 O302 O 0.73577 0.22596 0.28675
 O303 O 0.75429 0.20756 0.23686
 O304 O 0.77314 0.26417 0.28628
 O305 O 0.74450 0.29163 0.26269
 O306 O 0.72565 0.23503 0.21330
 O307 O 0.70712 0.25342 0.26318
 O308 O 0.76297 0.27314 0.21288
 Cu309 Cu 0.76658 0.23307 0.26399
 Cu310 Cu 0.73215 0.26608 0.23565
 C311 C 0.78666 0.26255 0.21602
 C312 C 0.71207 0.23652 0.28358
 C313 C 0.73700 0.21183 0.21655
 C314 C 0.76188 0.28741 0.28292
 O315 O 0.27305 0.76534 0.21282
 O316 O 0.25471 0.70855 0.26214
 O317 O 0.23582 0.72697 0.21236
 O318 O 0.29180 0.74686 0.26254
 O319 O 0.26312 0.77414 0.28626
 O320 O 0.20715 0.75424 0.23607
 O321 O 0.22603 0.73583 0.28586
 O322 O 0.24438 0.79262 0.23653
 Cu323 Cu 0.26671 0.73417 0.23504
 Cu324 Cu 0.23225 0.76696 0.26354
 C325 C 0.26170 0.78852 0.21626
 C326 C 0.23752 0.71270 0.28253
 C327 C 0.21209 0.73740 0.21562
 C328 C 0.28684 0.76366 0.28303
 O329 O 0.75476 0.20678 0.76365
 O330 O 0.77300 0.26339 0.71397
 O331 O 0.79189 0.24510 0.76372
 O332 O 0.73582 0.22500 0.71383
 O333 O 0.70720 0.25238 0.73748
 O334 O 0.76328 0.27248 0.78740
 O335 O 0.74439 0.29077 0.73764
 O336 O 0.72614 0.23417 0.78731
 Cu337 Cu 0.76674 0.23230 0.73639
 Cu338 Cu 0.73235 0.26521 0.76483
 C339 C 0.73758 0.21100 0.78405
 C340 C 0.76165 0.28659 0.71732
 C341 C 0.78699 0.26200 0.78413
 C342 C 0.71210 0.23547 0.71709
 O343 O 0.29227 0.74780 0.73746
 O344 O 0.23636 0.72738 0.78729
 O345 O 0.25549 0.70920 0.73757
 O346 O 0.27324 0.76607 0.78712
 O347 O 0.24441 0.79316 0.76332
 O348 O 0.22665 0.73629 0.71376
 O349 O 0.20752 0.75446 0.76349
 O350 O 0.26343 0.77489 0.71365
 Cu351 Cu 0.26723 0.73488 0.76480
 Cu352 Cu 0.23257 0.76744 0.73618
 C353 C 0.28722 0.76458 0.71697
 C354 C 0.21256 0.73763 0.78393
 C355 C 0.23830 0.71324 0.71710
 C356 C 0.26172 0.78917 0.78368
 O357 O 0.25441 0.29202 0.73778
 O358 O 0.27264 0.23528 0.78718
 O359 O 0.29137 0.25369 0.73744
 O360 O 0.23552 0.27365 0.78755
 O361 O 0.20673 0.24635 0.76384
 O362 O 0.26258 0.22638 0.71375
 O363 O 0.24385 0.20797 0.76348
 O364 O 0.22562 0.26470 0.71407
 Cu365 Cu 0.26637 0.26642 0.76491
 Cu366 Cu 0.23176 0.23359 0.73643
 C367 C 0.23718 0.28784 0.71738
 C368 C 0.26122 0.21208 0.78375
 C369 C 0.28633 0.23686 0.71698
 C370 C 0.21174 0.26322 0.78428
 O371 O 0.73701 0.77345 0.71343
 O372 O 0.79285 0.75334 0.76361
 O373 O 0.77395 0.73491 0.71389
 O374 O 0.75604 0.79181 0.76320
 O375 O 0.72718 0.76465 0.78694
 O376 O 0.74508 0.70776 0.73763
 O377 O 0.76399 0.72619 0.78735
 O378 O 0.70814 0.74631 0.73717
 Cu379 Cu 0.76786 0.76612 0.73611
 Cu380 Cu 0.73316 0.73349 0.76463
 C381 C 0.71320 0.76312 0.71670
 C382 C 0.78778 0.73657 0.78411
 C383 C 0.76243 0.71178 0.71735
 C384 C 0.73883 0.78774 0.78360
 C385 C 0.27748 0.15069 0.15725
 C386 C 0.28742 0.15745 0.12905
 C387 C 0.29106 0.13651 0.10779
 C388 C 0.28460 0.10897 0.11480
 C389 C 0.27527 0.10212 0.14319
 C390 C 0.27172 0.12305 0.16450
 C391 C 0.26225 0.11572 0.19269
 C392 C 0.25645 0.08850 0.19965
 C393 C 0.25989 0.06805 0.17881
 C394 C 0.26917 0.07466 0.15087
 C395 C 0.30100 0.14376 0.07975
 C396 C 0.30705 0.17093 0.07286
 C397 C 0.30340 0.19142 0.09361
 C398 C 0.29372 0.18487 0.12142
 C399 C 0.28667 0.08786 0.09253
 C400 C 0.28792 0.07048 0.07383
 C401 C 0.27238 0.17228 0.17844
 C402 C 0.26767 0.19038 0.19567
 H403 H 0.25928 0.13090 0.20964
 H404 H 0.24924 0.08325 0.22133
 H405 H 0.25536 0.04693 0.18432
 H406 H 0.27153 0.05804 0.13542
 H407 H 0.30431 0.12854 0.06293
 H408 H 0.31463 0.17611 0.05130
 H409 H 0.30814 0.21250 0.08815
 H410 H 0.29130 0.20152 0.13684
 C411 C 0.77851 0.65008 0.65932
 C412 C 0.78814 0.65677 0.63099
 C413 C 0.79168 0.63577 0.60979
 C414 C 0.78542 0.60823 0.61701
 C415 C 0.77644 0.60145 0.64554
 C416 C 0.77301 0.62244 0.66678
 C417 C 0.76388 0.61518 0.69513
 C418 C 0.75832 0.58796 0.70229
 C419 C 0.76166 0.56744 0.68151
 C420 C 0.77059 0.57399 0.65342
 C421 C 0.80130 0.64296 0.58161
 C422 C 0.80714 0.67013 0.57452
 C423 C 0.80360 0.69068 0.59521
 C424 C 0.79423 0.68420 0.62316
 C425 C 0.78728 0.58708 0.59480
 C426 C 0.78834 0.56968 0.57612
 C427 C 0.77340 0.67173 0.68040
 C428 C 0.76866 0.68991 0.69751
 H429 H 0.76101 0.63042 0.71204
 H430 H 0.75138 0.58276 0.72408
 H431 H 0.75731 0.54632 0.68718
 H432 H 0.77289 0.55731 0.63802
 H433 H 0.80451 0.62768 0.56481
 H434 H 0.81448 0.67526 0.55286
 H435 H 0.80817 0.71177 0.58961
 H436 H 0.79187 0.70090 0.63853
 C437 C 0.72476 0.84856 0.15657
 C438 C 0.71026 0.87283 0.16372
 C439 C 0.70677 0.89369 0.14233
 C440 C 0.71773 0.89013 0.11391
 C441 C 0.73208 0.86580 0.10671
 C442 C 0.73562 0.84496 0.12810
 C443 C 0.75016 0.82087 0.12040
 C444 C 0.76088 0.81747 0.09238
 C445 C 0.75739 0.83784 0.07147
 C446 C 0.74318 0.86176 0.07842
 C447 C 0.69232 0.91782 0.15001
 C448 C 0.68159 0.92123 0.17802
 C449 C 0.68498 0.90082 0.19892
 C450 C 0.69914 0.87685 0.19198
 C451 C 0.71455 0.91156 0.09215
 C452 C 0.71229 0.92920 0.07383
 C453 C 0.72890 0.82743 0.17851
 C454 C 0.73291 0.80962 0.19628
 H455 H 0.75340 0.80441 0.13588
 H456 H 0.77195 0.79894 0.08688
 H457 H 0.76576 0.83510 0.04974
 H458 H 0.74103 0.87701 0.06140
 H459 H 0.68916 0.93427 0.13450
 H460 H 0.67059 0.93982 0.18353
 H461 H 0.67659 0.90357 0.22064
 H462 H 0.70125 0.86155 0.20896
 C463 C 0.22298 0.34839 0.65748
 C464 C 0.20833 0.37254 0.66466
 C465 C 0.20486 0.39348 0.64335
 C466 C 0.21600 0.39009 0.61500
 C467 C 0.23045 0.36583 0.60774
 C468 C 0.23397 0.34492 0.62904
 C469 C 0.24861 0.32090 0.62130
 C470 C 0.25946 0.31765 0.59332
 C471 C 0.25598 0.33808 0.57248
 C472 C 0.24167 0.36194 0.57948
 C473 C 0.19027 0.41752 0.65106
 C474 C 0.17937 0.42076 0.67902
 C475 C 0.18272 0.40027 0.69984
 C476 C 0.19702 0.37639 0.69286
 C477 C 0.21296 0.41162 0.59337
 C478 C 0.21087 0.42934 0.57514
 C479 C 0.22721 0.32725 0.67936
 C480 C 0.23136 0.30942 0.69706
 H481 H 0.25184 0.30440 0.63672
 H482 H 0.27061 0.29917 0.58779
 H483 H 0.26444 0.33545 0.55077
 H484 H 0.23953 0.37724 0.56251
 H485 H 0.18713 0.43403 0.63561
 H486 H 0.16825 0.43927 0.68455
 H487 H 0.17419 0.40288 0.72151
 H488 H 0.19910 0.36102 0.70978
 C489 C 0.84692 0.27938 0.15615
 C490 C 0.87242 0.29114 0.16458
 C491 C 0.89339 0.29547 0.14337
 C492 C 0.88872 0.28802 0.11386
 C493 C 0.86313 0.27648 0.10538
 C494 C 0.84216 0.27217 0.12657
 C495 C 0.81677 0.26054 0.11756
 C496 C 0.81224 0.25338 0.08846
 C497 C 0.83275 0.25756 0.06775
 C498 C 0.85795 0.26896 0.07598
 C499 C 0.91876 0.30713 0.15234
 C500 C 0.92328 0.31434 0.18143
 C501 C 0.90277 0.31013 0.20216
 C502 C 0.87759 0.29867 0.19395
 C503 C 0.91034 0.29175 0.09230
 C504 C 0.92814 0.29440 0.07415
 C505 C 0.82577 0.27410 0.17789
 C506 C 0.80803 0.26917 0.19557
 H507 H 0.80017 0.25687 0.13284
 H508 H 0.79270 0.24456 0.08194
 H509 H 0.82914 0.25195 0.04517
 H510 H 0.87326 0.27177 0.05907
 H511 H 0.93532 0.31082 0.13700
 H512 H 0.94280 0.32324 0.18792
 H513 H 0.90638 0.31577 0.22473
 H514 H 0.86227 0.29580 0.21085
 C515 C 0.34739 0.78159 0.65716
 C516 C 0.34228 0.77499 0.62750
 C517 C 0.36325 0.77906 0.60627
 C518 C 0.38917 0.78981 0.61481
 C519 C 0.39415 0.79676 0.64440
 C520 C 0.37320 0.79262 0.66565
 C521 C 0.37868 0.79960 0.69511
 C522 C 0.40416 0.81038 0.70335
 C523 C 0.42465 0.81441 0.68257
 C524 C 0.41983 0.80772 0.65340
 C525 C 0.35774 0.77208 0.57679
 C526 C 0.33219 0.76155 0.56849
 C527 C 0.31165 0.75767 0.58923
 C528 C 0.31653 0.76422 0.61843
 C529 C 0.41078 0.79325 0.59322
 C530 C 0.42860 0.79566 0.57507
 C531 C 0.32630 0.77633 0.67895
 C532 C 0.30858 0.77135 0.69661
 H533 H 0.36337 0.79685 0.71205
 H534 H 0.40801 0.81561 0.72599
 H535 H 0.44440 0.82279 0.68909
 H536 H 0.43640 0.81125 0.63803
 H537 H 0.37307 0.77467 0.55986
 H538 H 0.32832 0.75639 0.54584
 H539 H 0.29181 0.74956 0.58266
 H540 H 0.29989 0.76080 0.63374
 C541 C 0.15167 0.72010 0.15592
 C542 C 0.15642 0.72711 0.12630
 C543 C 0.13541 0.72275 0.10512
 C544 C 0.10978 0.71136 0.11365
 C545 C 0.10515 0.70404 0.14319
 C546 C 0.12616 0.70842 0.16439
 C547 C 0.12101 0.70103 0.19380
 C548 C 0.09583 0.68965 0.20205
 C549 C 0.07528 0.68539 0.18132
 C550 C 0.07977 0.69246 0.15220
 C551 C 0.14057 0.73011 0.07568
 C552 C 0.16580 0.74136 0.06739
 C553 C 0.18635 0.74558 0.08809
 C554 C 0.18183 0.73860 0.11723
 C555 C 0.08809 0.70769 0.09212
 C556 C 0.07021 0.70515 0.07397
 C557 C 0.17284 0.72553 0.17766
 C558 C 0.19063 0.73062 0.19527
 H559 H 0.13637 0.70394 0.21070
 H560 H 0.09223 0.68411 0.22464
 H561 H 0.05575 0.67655 0.18784
 H562 H 0.06319 0.68873 0.13687
 H563 H 0.12522 0.72728 0.05878
 H564 H 0.16939 0.74684 0.04478
 H565 H 0.20592 0.75434 0.08154
 H566 H 0.19848 0.74228 0.13250
 C567 C 0.65176 0.21821 0.65738
 C568 C 0.65674 0.22492 0.62773
 C569 C 0.63576 0.22071 0.60649
 C570 C 0.60995 0.20976 0.61502
 C571 C 0.60509 0.20270 0.64459
 C572 C 0.62607 0.20693 0.66584
 C573 C 0.62071 0.19982 0.69529
 C574 C 0.59533 0.18885 0.70350
 C575 C 0.57481 0.18474 0.68273
 C576 C 0.57951 0.19155 0.65357
 C577 C 0.64115 0.22778 0.57702
 C578 C 0.66657 0.23861 0.56876
 C579 C 0.68711 0.24267 0.58951
 C580 C 0.68237 0.23596 0.61868
 C581 C 0.58829 0.20629 0.59343
 C582 C 0.57045 0.20392 0.57525
 C583 C 0.67287 0.22358 0.67917
 C584 C 0.69064 0.22866 0.69680
 H585 H 0.63605 0.20263 0.71222
 H586 H 0.59157 0.18351 0.72612
 H587 H 0.55513 0.17622 0.68922
 H588 H 0.56293 0.18795 0.63819
 H589 H 0.62582 0.22506 0.56008
 H590 H 0.67033 0.24388 0.54612
 H591 H 0.70682 0.25109 0.58298
 H592 H 0.69900 0.23950 0.63400
 C593 C 0.72273 0.15035 0.84378
 C594 C 0.73040 0.15512 0.87324
 C595 C 0.72682 0.13411 0.89444
 C596 C 0.71552 0.10849 0.88610
 C597 C 0.70758 0.10382 0.85673
 C598 C 0.71120 0.12481 0.83550
 C599 C 0.70321 0.11963 0.80625
 C600 C 0.69195 0.09443 0.79820
 C601 C 0.68841 0.07391 0.81895
 C602 C 0.69610 0.07844 0.84792
 C603 C 0.73483 0.13930 0.92370
 C604 C 0.74593 0.16454 0.93181
 C605 C 0.74936 0.18510 0.91110
 C606 C 0.74176 0.18056 0.88212
 C607 C 0.71249 0.08688 0.90768
 C608 C 0.71043 0.06910 0.92586
 C609 C 0.72728 0.17156 0.82201
 C610 C 0.73163 0.18941 0.80437
 H611 H 0.70555 0.13497 0.78934
 H612 H 0.68593 0.09082 0.77574
 H613 H 0.67964 0.05438 0.81259
 H614 H 0.69293 0.06186 0.86328
 H615 H 0.73262 0.12395 0.94060
 H616 H 0.75190 0.16816 0.95429
 H617 H 0.75796 0.20468 0.91752
 H618 H 0.74484 0.19720 0.86683
 C619 C 0.22337 0.65213 0.34244
 C620 C 0.23522 0.65520 0.37057
 C621 C 0.23165 0.63432 0.39189
 C622 C 0.21633 0.61046 0.38494
 C623 C 0.20437 0.60744 0.35689
 C624 C 0.20787 0.62837 0.33557
 C625 C 0.19573 0.62491 0.30767
 C626 C 0.18057 0.60142 0.30100
 C627 C 0.17719 0.58094 0.32183
 C628 C 0.18891 0.58380 0.34949
 C629 C 0.24370 0.63784 0.41986
 C630 C 0.25888 0.66129 0.42653
 C631 C 0.26243 0.68168 0.40566
 C632 C 0.25077 0.67881 0.37798
 C633 C 0.21324 0.58893 0.40658
 C634 C 0.21111 0.57122 0.42481
 C635 C 0.22757 0.67327 0.32055
 C636 C 0.23170 0.69111 0.30285
 H637 H 0.19780 0.64028 0.29076
 H638 H 0.17142 0.59910 0.27956
 H639 H 0.16541 0.56273 0.31654
 H640 H 0.18571 0.56732 0.36497
 H641 H 0.24153 0.62255 0.43684
 H642 H 0.26797 0.66363 0.44802
 H643 H 0.27428 0.69984 0.41093
 H644 H 0.25409 0.69527 0.36252
 C645 C 0.27770 0.85085 0.84192
 C646 C 0.27186 0.87845 0.83461
 C647 C 0.27538 0.89943 0.85588
 C648 C 0.28478 0.89269 0.88429
 C649 C 0.29135 0.86520 0.89134
 C650 C 0.28772 0.84420 0.87012
 C651 C 0.29413 0.81683 0.87780
 C652 C 0.30391 0.81039 0.90561
 C653 C 0.30755 0.83093 0.92632
 C654 C 0.30139 0.85805 0.91939
 C655 C 0.26919 0.92684 0.84815
 C656 C 0.25986 0.93335 0.82019
 C657 C 0.25644 0.91285 0.79939
 C658 C 0.26232 0.88567 0.80640
 C659 C 0.28682 0.91384 0.90652
 C660 C 0.28803 0.93126 0.92518
 C661 C 0.27259 0.82920 0.82078
 C662 C 0.26789 0.81103 0.80361
 H663 H 0.29172 0.80014 0.86242
 H664 H 0.30873 0.78934 0.91111
 H665 H 0.31521 0.82583 0.94788
 H666 H 0.30470 0.87332 0.93618
 H667 H 0.27153 0.94350 0.86357
 H668 H 0.25525 0.95443 0.81463
 H669 H 0.24920 0.91802 0.77769
 H670 H 0.25937 0.87045 0.78948
 C671 C 0.77861 0.34885 0.34115
 C672 C 0.77315 0.37651 0.33378
 C673 C 0.77665 0.39744 0.35510
 C674 C 0.78566 0.39059 0.38361
 C675 C 0.79191 0.36304 0.39072
 C676 C 0.78831 0.34209 0.36945
 C677 C 0.79437 0.31465 0.37718
 C678 C 0.80381 0.30810 0.40510
 C679 C 0.80743 0.32860 0.42587
 C680 C 0.80159 0.35578 0.41888
 C681 C 0.77082 0.42492 0.34731
 C682 C 0.76185 0.43154 0.31924
 C683 C 0.75845 0.41108 0.29839
 C684 C 0.76398 0.38384 0.30546
 C685 C 0.78755 0.41167 0.40591
 C686 C 0.78862 0.42903 0.42463
 C687 C 0.77333 0.32726 0.32002
 C688 C 0.76840 0.30916 0.30284
 H689 H 0.79197 0.29800 0.36175
 H690 H 0.80837 0.28701 0.41063
 H691 H 0.81482 0.32342 0.44751
 H692 H 0.80487 0.37101 0.43572
 H693 H 0.77317 0.44155 0.36277
 H694 H 0.75752 0.45266 0.31365
 H695 H 0.75148 0.41633 0.27662
 H696 H 0.76106 0.36865 0.28849
 C697 C 0.15133 0.28065 0.84374
 C698 C 0.12577 0.29207 0.83508
 C699 C 0.10474 0.29648 0.85619
 C700 C 0.10939 0.28944 0.88580
 C701 C 0.13506 0.27830 0.89452
 C702 C 0.15610 0.27393 0.87344
 C703 C 0.18156 0.26271 0.88268
 C704 C 0.18609 0.25598 0.91189
 C705 C 0.16551 0.26021 0.93249
 C706 C 0.14024 0.27121 0.92403
 C707 C 0.07932 0.30780 0.84701
 C708 C 0.07480 0.31457 0.81780
 C709 C 0.09536 0.31026 0.79717
 C710 C 0.12060 0.29914 0.80558
 C711 C 0.08766 0.29308 0.90725
 C712 C 0.06978 0.29557 0.92534
 C713 C 0.17252 0.27518 0.82210
 C714 C 0.19031 0.27006 0.80456
 H715 H 0.19823 0.25903 0.86748
 H716 H 0.20569 0.24742 0.91857
 H717 H 0.16911 0.25492 0.95516
 H718 H 0.12487 0.27405 0.94086
 H719 H 0.06272 0.31156 0.86226
 H720 H 0.05524 0.32321 0.81115
 H721 H 0.09174 0.31556 0.77451
 H722 H 0.13597 0.29618 0.78876
 C723 C 0.65246 0.78162 0.34322
 C724 C 0.62683 0.79295 0.33469
 C725 C 0.60589 0.79729 0.35590
 C726 C 0.61072 0.79028 0.38549
 C727 C 0.63647 0.77928 0.39409
 C728 C 0.65742 0.77497 0.37290
 C729 C 0.68297 0.76386 0.38202
 C730 C 0.68768 0.75719 0.41122
 C731 C 0.66718 0.76137 0.43193
 C732 C 0.64183 0.77225 0.42359
 C733 C 0.58038 0.80850 0.34684
 C734 C 0.57570 0.81524 0.31766
 C735 C 0.59618 0.81101 0.29692
 C736 C 0.62150 0.79999 0.30522
 C737 C 0.58907 0.79380 0.40703
 C738 C 0.57124 0.79619 0.42518
 C739 C 0.67352 0.77611 0.32148
 C740 C 0.69124 0.77089 0.30390
 H741 H 0.69958 0.76023 0.36674
 H742 H 0.70735 0.74872 0.41779
 H743 H 0.67092 0.75613 0.45458
 H744 H 0.62653 0.77507 0.44050
 H745 H 0.56383 0.81219 0.36218
 H746 H 0.55607 0.82380 0.31110
 H747 H 0.59244 0.81629 0.27428
 H748 H 0.63681 0.79709 0.28831
 C749 C 0.84796 0.71961 0.84410
 C750 C 0.84291 0.72615 0.87378
 C751 C 0.86388 0.72202 0.89503
 C752 C 0.88975 0.71126 0.88652
 C753 C 0.89468 0.70437 0.85692
 C754 C 0.87373 0.70857 0.83564
 C755 C 0.87917 0.70163 0.80617
 C756 C 0.90459 0.69084 0.79795
 C757 C 0.92508 0.68675 0.81875
 C758 C 0.92030 0.69340 0.84793
 C759 C 0.85842 0.72894 0.92452
 C760 C 0.83290 0.73945 0.93281
 C761 C 0.81236 0.74337 0.91205
 C762 C 0.81720 0.73690 0.88284
 C763 C 0.91138 0.70773 0.90815
 C764 C 0.92922 0.70524 0.92632
 C765 C 0.82686 0.72489 0.82227
 C766 C 0.80914 0.72986 0.80456
 H767 H 0.86386 0.70442 0.78921
 H768 H 0.90841 0.68563 0.77531
 H769 H 0.94479 0.67836 0.81226
 H770 H 0.93686 0.68981 0.86332
 H771 H 0.87375 0.72631 0.94147
 H772 H 0.82906 0.74456 0.95547
 H773 H 0.79254 0.75145 0.91861
 H774 H 0.80056 0.74036 0.86751
 C775 C 0.34674 0.21896 0.34276
 C776 C 0.34157 0.22544 0.37243
 C777 C 0.36248 0.22127 0.39375
 C778 C 0.38838 0.21056 0.38528
 C779 C 0.39342 0.20374 0.35568
 C780 C 0.37252 0.20796 0.33435
 C781 C 0.37806 0.20110 0.30488
 C782 C 0.40352 0.19037 0.29671
 C783 C 0.42396 0.18625 0.31757
 C784 C 0.41908 0.19282 0.34675
 C785 C 0.35693 0.22813 0.42323
 C786 C 0.33140 0.23863 0.43146
 C787 C 0.31091 0.24261 0.41064
 C788 C 0.31584 0.23618 0.38143
 C789 C 0.40994 0.20704 0.40695
 C790 C 0.42773 0.20457 0.42516
 C791 C 0.32573 0.22434 0.32089
 C792 C 0.30809 0.22944 0.30315
 H793 H 0.36279 0.20391 0.28788
 H794 H 0.40741 0.18522 0.27407
 H795 H 0.44370 0.17792 0.31111
 H796 H 0.43560 0.18923 0.36219
 H797 H 0.37220 0.22545 0.44023
 H798 H 0.32749 0.24371 0.45411
 H799 H 0.29109 0.25070 0.41715
 H800 H 0.29925 0.23967 0.36605
 C801 C 0.72492 0.84843 0.84340
 C802 C 0.70996 0.87242 0.83630
 C803 C 0.70647 0.89336 0.85759
 C804 C 0.71790 0.89012 0.88587
 C805 C 0.73272 0.86605 0.89303
 C806 C 0.73626 0.84515 0.87173
 C807 C 0.75128 0.82132 0.87938
 C808 C 0.76246 0.81826 0.90726
 C809 C 0.75896 0.83868 0.92809
 C810 C 0.74428 0.86235 0.92119
 C811 C 0.69157 0.91724 0.84996
 C812 C 0.68038 0.92032 0.82208
 C813 C 0.68376 0.89983 0.80128
 C814 C 0.69837 0.87611 0.80818
 C815 C 0.71472 0.91160 0.90753
 C816 C 0.71249 0.92927 0.92580
 C817 C 0.72907 0.82724 0.82156
 C818 C 0.73313 0.80937 0.80389
 H819 H 0.75455 0.80483 0.86396
 H820 H 0.77391 0.79993 0.91271
 H821 H 0.76769 0.83620 0.94972
 H822 H 0.74214 0.87766 0.93815
 H823 H 0.68841 0.93373 0.86541
 H824 H 0.66903 0.93871 0.81661
 H825 H 0.67501 0.90232 0.77966
 H826 H 0.70045 0.86074 0.79127
 C827 C 0.22397 0.34827 0.34255
 C828 C 0.20897 0.37224 0.33543
 C829 C 0.20537 0.39316 0.35673
 C830 C 0.21672 0.38994 0.38504
 C831 C 0.23154 0.36587 0.39225
 C832 C 0.23520 0.34499 0.37094
 C833 C 0.25021 0.32117 0.37863
 C834 C 0.26126 0.31808 0.40656
 C835 C 0.25765 0.33848 0.42740
 C836 C 0.24298 0.36214 0.42046
 C837 C 0.19042 0.41700 0.34907
 C838 C 0.17928 0.42006 0.32117
 C839 C 0.18277 0.39960 0.30036
 C840 C 0.19744 0.37592 0.30728
 C841 C 0.21351 0.41146 0.40668
 C842 C 0.21126 0.42919 0.42489
 C843 C 0.22826 0.32712 0.32068
 C844 C 0.23239 0.30931 0.30296
 H845 H 0.25356 0.30470 0.36320
 H846 H 0.27269 0.29975 0.41205
 H847 H 0.26626 0.33598 0.44908
 H848 H 0.24073 0.37743 0.43743
 H849 H 0.18716 0.43347 0.36453
 H850 H 0.16788 0.43842 0.31568
 H851 H 0.17406 0.40208 0.27872
 H852 H 0.19960 0.36057 0.29036
 C853 C 0.27783 0.15047 0.84175
 C854 C 0.28796 0.15716 0.86991
 C855 C 0.29165 0.13619 0.89111
 C856 C 0.28506 0.10868 0.88407
 C857 C 0.27561 0.10189 0.85569
 C858 C 0.27201 0.12285 0.83444
 C859 C 0.26242 0.11559 0.80625
 C860 C 0.25655 0.08839 0.79925
 C861 C 0.26003 0.06790 0.82003
 C862 C 0.26942 0.07445 0.84797
 C863 C 0.30176 0.14336 0.91913
 C864 C 0.30794 0.17051 0.92604
 C865 C 0.30425 0.19103 0.90534
 C866 C 0.29440 0.18456 0.87755
 C867 C 0.28707 0.08757 0.90632
 C868 C 0.28823 0.07020 0.92503
 C869 C 0.27252 0.17211 0.82069
 C870 C 0.26762 0.19026 0.80359
 H871 H 0.25941 0.13081 0.78934
 H872 H 0.24925 0.08320 0.77757
 H873 H 0.25544 0.04681 0.81449
 H874 H 0.27183 0.05780 0.86339
 H875 H 0.30510 0.12811 0.93592
 H876 H 0.31565 0.17563 0.94758
 H877 H 0.30909 0.21209 0.91081
 H878 H 0.29196 0.20123 0.86217
 C879 C 0.77730 0.65069 0.34194
 C880 C 0.78676 0.65742 0.37035
 C881 C 0.79040 0.63642 0.39155
 C882 C 0.78439 0.60883 0.38427
 C883 C 0.77551 0.60202 0.35569
 C884 C 0.77198 0.62301 0.33444
 C885 C 0.76298 0.61571 0.30605
 C886 C 0.75762 0.58846 0.29884
 C887 C 0.76104 0.56794 0.31961
 C888 C 0.76986 0.57453 0.34775
 C889 C 0.79988 0.64366 0.41979
 C890 C 0.80549 0.67087 0.42694
 C891 C 0.80184 0.69141 0.40625
 C892 C 0.79260 0.68489 0.37824
 C893 C 0.78649 0.58763 0.40644
 C894 C 0.78778 0.57018 0.42506
 C895 C 0.77225 0.67231 0.32078
 C896 C 0.76761 0.69046 0.30356
 H897 H 0.76004 0.63094 0.28914
 H898 H 0.75078 0.58323 0.27700
 H899 H 0.75684 0.54681 0.31391
 H900 H 0.77223 0.55786 0.36315
 H901 H 0.80318 0.62839 0.43658
 H902 H 0.81273 0.67603 0.44865
 H903 H 0.80623 0.71252 0.41191
 H904 H 0.79016 0.70158 0.36289
 C905 C 0.15227 0.71988 0.84339
 C906 C 0.15727 0.72629 0.87313
 C907 C 0.13629 0.72192 0.89428
 C908 C 0.11045 0.71110 0.88559
 C909 C 0.10557 0.70434 0.85593
 C910 C 0.12655 0.70873 0.83476
 C911 C 0.12117 0.70192 0.80523
 C912 C 0.09577 0.69107 0.79685
 C913 C 0.07524 0.68679 0.81755
 C914 C 0.07997 0.69331 0.84678
 C915 C 0.14170 0.72870 0.92383
 C916 C 0.16714 0.73939 0.93227
 C917 C 0.18768 0.74362 0.91160
 C918 C 0.18292 0.73720 0.88234
 C919 C 0.08878 0.70750 0.90709
 C920 C 0.07094 0.70501 0.92522
 C921 C 0.17337 0.72544 0.82170
 C922 C 0.19113 0.73066 0.80415
 H923 H 0.13650 0.70486 0.78836
 H924 H 0.09199 0.68595 0.77417
 H925 H 0.05555 0.67837 0.81092
 H926 H 0.06339 0.68959 0.86209
 H927 H 0.12638 0.72584 0.94072
 H928 H 0.17093 0.74444 0.95497
 H929 H 0.20741 0.75194 0.91825
 H930 H 0.19955 0.74087 0.86709
 C931 C 0.65180 0.21926 0.34333
 C932 C 0.65681 0.22576 0.37304
 C933 C 0.63585 0.22142 0.39423
 C934 C 0.61001 0.21053 0.38561
 C935 C 0.60512 0.20370 0.35597
 C936 C 0.62608 0.20807 0.33476
 C937 C 0.62067 0.20119 0.30526
 C938 C 0.59527 0.19030 0.29693
 C939 C 0.57478 0.18604 0.31765
 C940 C 0.57952 0.19263 0.34687
 C941 C 0.64127 0.22828 0.42376
 C942 C 0.66671 0.23904 0.43213
 C943 C 0.68722 0.24324 0.41143
 C944 C 0.68245 0.23673 0.38220
 C945 C 0.58837 0.20690 0.40716
 C946 C 0.57053 0.20438 0.42530
 C947 C 0.67292 0.22470 0.32159
 C948 C 0.69067 0.22978 0.30396
 H949 H 0.63599 0.20411 0.28835
 H950 H 0.59148 0.18514 0.27426
 H951 H 0.55508 0.17759 0.31107
 H952 H 0.56296 0.18892 0.36220
 H953 H 0.62597 0.22544 0.44067
 H954 H 0.67050 0.24415 0.45481
 H955 H 0.70695 0.25161 0.41804
 H956 H 0.69906 0.24037 0.36692
 C957 C 0.84750 0.27911 0.84368
 C958 C 0.87281 0.29123 0.83522
 C959 C 0.89389 0.29555 0.85634
 C960 C 0.88951 0.28775 0.88578
 C961 C 0.86411 0.27586 0.89430
 C962 C 0.84303 0.27155 0.87319
 C963 C 0.81783 0.25958 0.88222
 C964 C 0.81358 0.25208 0.91127
 C965 C 0.83421 0.25625 0.93189
 C966 C 0.85923 0.26797 0.92363
 C967 C 0.91907 0.30756 0.84736
 C968 C 0.92330 0.31511 0.81832
 C969 C 0.90267 0.31091 0.79768
 C970 C 0.87767 0.29911 0.80590
 C971 C 0.91122 0.29149 0.90725
 C972 C 0.92909 0.29414 0.92536
 C973 C 0.82628 0.27378 0.82201
 C974 C 0.80845 0.26876 0.80443
 H975 H 0.80114 0.25591 0.86700
 H976 H 0.79418 0.24300 0.91780
 H977 H 0.83083 0.25037 0.95443
 H978 H 0.87465 0.27074 0.94047
 H979 H 0.93571 0.31125 0.86263
 H980 H 0.94268 0.32427 0.81182
 H981 H 0.90605 0.31682 0.77515
 H982 H 0.86224 0.29627 0.78907
 C983 C 0.34716 0.78054 0.34295
 C984 C 0.37299 0.79146 0.33443
 C985 C 0.39396 0.79574 0.35569
 C986 C 0.38897 0.78905 0.38533
 C987 C 0.36305 0.77838 0.39391
 C988 C 0.34207 0.77415 0.37267
 C989 C 0.31632 0.76345 0.38178
 C990 C 0.31145 0.75712 0.41102
 C991 C 0.33199 0.76117 0.43177
 C992 C 0.35754 0.77164 0.42343
 C993 C 0.41965 0.80658 0.34663
 C994 C 0.42449 0.81301 0.31740
 C995 C 0.40398 0.80884 0.29662
 C996 C 0.37849 0.79819 0.30491
 C997 C 0.41060 0.79268 0.40695
 C998 C 0.42844 0.79526 0.42512
 C999 C 0.32601 0.77526 0.32117
 C1000 C 0.30825 0.77031 0.30347
 H1001 H 0.29968 0.75991 0.36646
 H1002 H 0.29161 0.74906 0.41762
 H1003 H 0.32813 0.75617 0.45446
 H1004 H 0.37287 0.77437 0.44038
 H1005 H 0.43622 0.81022 0.36200
 H1006 H 0.44425 0.82129 0.31085
 H1007 H 0.40784 0.81387 0.27394
 H1008 H 0.36317 0.79532 0.28796
 C1009 C 0.27826 0.85012 0.15823
 C1010 C 0.27316 0.87781 0.16578
 C1011 C 0.27673 0.89879 0.14455
 C1012 C 0.28542 0.89195 0.11593
 C1013 C 0.29128 0.86437 0.10863
 C1014 C 0.28762 0.84337 0.12982
 C1015 C 0.29329 0.81590 0.12190
 C1016 C 0.30240 0.80936 0.09388
 C1017 C 0.30609 0.82991 0.07319
 C1018 C 0.30064 0.85713 0.08037
 C1019 C 0.27129 0.92629 0.15251
 C1020 C 0.26263 0.93289 0.18068
 C1021 C 0.25916 0.91238 0.20145
 C1022 C 0.26431 0.88511 0.19420
 C1023 C 0.28734 0.91310 0.09373
 C1024 C 0.28843 0.93051 0.07506
 C1025 C 0.27299 0.82850 0.17931
 C1026 C 0.26811 0.81035 0.19643
 H1027 H 0.29081 0.79920 0.13726
 H1028 H 0.30666 0.78825 0.08820
 H1029 H 0.31323 0.82475 0.05147
 H1030 H 0.30395 0.87240 0.06358
 H1031 H 0.27371 0.94297 0.13712
 H1032 H 0.25860 0.95404 0.18641
 H1033 H 0.25243 0.91761 0.22330
 H1034 H 0.26135 0.86988 0.21111
 C1035 C 0.77790 0.34807 0.65895
 C1036 C 0.77250 0.37574 0.66637
 C1037 C 0.77603 0.39671 0.64511
 C1038 C 0.78501 0.38990 0.61658
 C1039 C 0.79114 0.36233 0.60940
 C1040 C 0.78749 0.34135 0.63062
 C1041 C 0.79345 0.31391 0.62283
 C1042 C 0.80281 0.30739 0.59489
 C1043 C 0.80647 0.32792 0.57418
 C1044 C 0.80074 0.35511 0.58123
 C1045 C 0.77029 0.42418 0.65295
 C1046 C 0.76137 0.43076 0.68103
 C1047 C 0.75794 0.41027 0.70183
 C1048 C 0.76338 0.38303 0.69470
 C1049 C 0.78705 0.41106 0.59436
 C1050 C 0.78826 0.42851 0.57573
 C1051 C 0.77274 0.32645 0.68011
 C1052 C 0.76796 0.30834 0.69732
 H1053 H 0.79101 0.29723 0.63821
 H1054 H 0.80729 0.28629 0.58931
 H1055 H 0.81380 0.32276 0.55253
 H1056 H 0.80404 0.37036 0.56443
 H1057 H 0.77267 0.44084 0.63754
 H1058 H 0.75711 0.45189 0.68668
 H1059 H 0.75101 0.41549 0.72361
 H1060 H 0.76043 0.36781 0.71162
 C1061 C 0.72177 0.15129 0.15685
 C1062 C 0.72932 0.15613 0.12739
 C1063 C 0.72574 0.13516 0.10616
 C1064 C 0.71459 0.10948 0.11449
 C1065 C 0.70675 0.10473 0.14386
 C1066 C 0.71034 0.12571 0.16511
 C1067 C 0.70244 0.12047 0.19435
 C1068 C 0.69131 0.09522 0.20238
 C1069 C 0.68782 0.07470 0.18161
 C1070 C 0.69542 0.07928 0.15265
 C1071 C 0.73361 0.14042 0.07689
 C1072 C 0.74463 0.16570 0.06881
 C1073 C 0.74808 0.18623 0.08956
 C1074 C 0.74058 0.18162 0.11854
 C1075 C 0.71169 0.08786 0.09292
 C1076 C 0.70976 0.07006 0.07475
 C1077 C 0.72640 0.17244 0.17865
 C1078 C 0.73086 0.19026 0.19629
 H1079 H 0.70475 0.13581 0.21128
 H1080 H 0.68537 0.09155 0.22485
 H1081 H 0.67917 0.05511 0.18796
 H1082 H 0.69228 0.06271 0.13727
 H1083 H 0.73137 0.12509 0.05996
 H1084 H 0.75051 0.16937 0.04633
 H1085 H 0.75662 0.20584 0.08318
 H1086 H 0.74367 0.19825 0.13386
 C1087 C 0.22429 0.65246 0.65729
 C1088 C 0.23593 0.65549 0.62908
 C1089 C 0.23226 0.63455 0.60781
 C1090 C 0.21705 0.61067 0.61489
 C1091 C 0.20531 0.60768 0.64304
 C1092 C 0.20891 0.62866 0.66429
 C1093 C 0.19699 0.62522 0.69227
 C1094 C 0.18195 0.60170 0.69908
 C1095 C 0.17847 0.58117 0.67832
 C1096 C 0.18997 0.58401 0.65058
 C1097 C 0.24410 0.63805 0.57977
 C1098 C 0.25919 0.66152 0.57297
 C1099 C 0.26283 0.68196 0.59377
 C1100 C 0.25137 0.67911 0.62153
 C1101 C 0.21380 0.58910 0.59329
 C1102 C 0.21153 0.57137 0.57509
 C1103 C 0.22853 0.67370 0.67910
 C1104 C 0.23262 0.69159 0.69677
 H1105 H 0.19914 0.64063 0.70914
 H1106 H 0.17296 0.59940 0.72059
 H1107 H 0.16678 0.56294 0.68372
 H1108 H 0.18670 0.56749 0.63516
 H1109 H 0.24185 0.62271 0.56284
 H1110 H 0.26812 0.66384 0.55143
 H1111 H 0.27461 0.70013 0.58839
 H1112 H 0.25477 0.69561 0.63694
 C1113 C 0.84728 0.71926 0.15709
 C1114 C 0.84212 0.72555 0.12735
 C1115 C 0.86308 0.72138 0.10615
 C1116 C 0.88903 0.71087 0.11478
 C1117 C 0.89406 0.70422 0.14443
 C1118 C 0.87311 0.70843 0.16566
 C1119 C 0.87864 0.70174 0.19519
 C1120 C 0.90414 0.69118 0.20351
 C1121 C 0.92463 0.68708 0.18276
 C1122 C 0.91977 0.69349 0.15352
 C1123 C 0.85752 0.72802 0.07659
 C1124 C 0.83194 0.73834 0.06821
 C1125 C 0.81142 0.74233 0.08893
 C1126 C 0.81634 0.73610 0.11820
 C1127 C 0.91065 0.70738 0.09322
 C1128 C 0.92848 0.70495 0.07507
 C1129 C 0.82620 0.72462 0.17884
 C1130 C 0.80850 0.72971 0.19647
 H1131 H 0.86333 0.70455 0.21211
 H1132 H 0.90802 0.68615 0.22620
 H1133 H 0.94441 0.67887 0.18934
 H1134 H 0.93634 0.68992 0.13817
 H1135 H 0.87283 0.72533 0.05967
 H1136 H 0.82803 0.74325 0.04550
 H1137 H 0.79155 0.75028 0.08230
 H1138 H 0.79971 0.73959 0.13349
 C1139 C 0.34652 0.21983 0.65716
 C1140 C 0.37233 0.20892 0.66573
 C1141 C 0.39326 0.20461 0.64450
 C1142 C 0.38826 0.21124 0.61483
 C1143 C 0.36235 0.22189 0.60621
 C1144 C 0.34140 0.22614 0.62743
 C1145 C 0.31567 0.23680 0.61827
 C1146 C 0.31078 0.24306 0.58900
 C1147 C 0.33130 0.23900 0.56828
 C1148 C 0.35683 0.22857 0.57667
 C1149 C 0.41892 0.19378 0.65359
 C1150 C 0.42377 0.18738 0.68283
 C1151 C 0.40331 0.19160 0.70359
 C1152 C 0.37784 0.20225 0.69527
 C1153 C 0.40984 0.20756 0.59324
 C1154 C 0.42765 0.20494 0.57510
 C1155 C 0.32542 0.22516 0.67892
 C1156 C 0.30770 0.23016 0.69658
 H1157 H 0.29905 0.24035 0.63356
 H1158 H 0.29095 0.25108 0.58236
 H1159 H 0.32741 0.24394 0.54558
 H1160 H 0.37213 0.22583 0.55975
 H1161 H 0.43546 0.19011 0.63824
 H1162 H 0.44352 0.17911 0.68941
 H1163 H 0.40718 0.18659 0.72628
 H1164 H 0.36256 0.20514 0.71219
 C1165 C 0.15238 0.28177 0.15586
 C1166 C 0.12670 0.29289 0.16448
 C1167 C 0.10571 0.29731 0.14330
 C1168 C 0.11054 0.29057 0.11365
 C1169 C 0.13635 0.27981 0.10496
 C1170 C 0.15735 0.27542 0.12612
 C1171 C 0.18296 0.26456 0.11691
 C1172 C 0.18768 0.25820 0.08765
 C1173 C 0.16713 0.26245 0.06696
 C1174 C 0.14172 0.27309 0.07539
 C1175 C 0.08016 0.30832 0.15244
 C1176 C 0.07548 0.31480 0.18169
 C1177 C 0.09601 0.31048 0.20240
 C1178 C 0.12137 0.29965 0.19402
 C1179 C 0.08881 0.29405 0.09216
 C1180 C 0.07091 0.29638 0.07405
 C1181 C 0.17347 0.27613 0.17757
 C1182 C 0.19118 0.27082 0.19516
 H1183 H 0.19960 0.26089 0.13217
 H1184 H 0.20739 0.24992 0.08100
 H1185 H 0.17088 0.25745 0.04425
 H1186 H 0.12638 0.27598 0.05849
 H1187 H 0.06357 0.31207 0.13712
 H1188 H 0.05582 0.32321 0.18830
 H1189 H 0.09227 0.31556 0.22509
 H1190 H 0.13671 0.29669 0.21091
 C1191 C 0.65284 0.78063 0.65706
 C1192 C 0.62722 0.79193 0.66565
 C1193 C 0.60622 0.79636 0.64447
 C1194 C 0.61097 0.78947 0.61483
 C1195 C 0.63669 0.77846 0.60619
 C1196 C 0.65769 0.77406 0.62735
 C1197 C 0.68321 0.76295 0.61818
 C1198 C 0.68783 0.75637 0.58895
 C1199 C 0.66728 0.76064 0.56827
 C1200 C 0.64197 0.77153 0.57666
 C1201 C 0.58074 0.80754 0.65359
 C1202 C 0.57613 0.81418 0.68281
 C1203 C 0.59667 0.80986 0.70351
 C1204 C 0.62196 0.79887 0.69515
 C1205 C 0.58928 0.79316 0.59330
 C1206 C 0.57142 0.79572 0.57516
 C1207 C 0.67400 0.77513 0.67877
 C1208 C 0.69178 0.76999 0.69637
 H1209 H 0.69985 0.75925 0.63343
 H1210 H 0.70747 0.74790 0.58233
 H1211 H 0.67096 0.75548 0.54559
 H1212 H 0.62663 0.77442 0.55977
 H1213 H 0.56415 0.81130 0.63828
 H1214 H 0.55652 0.82272 0.68941
 H1215 H 0.59299 0.81506 0.72618
 H1216 H 0.63731 0.79590 0.71204
   
