data_POSCAR
  _audit_creation_date              2014-09-24
  _audit_creation_method            'ToBaCCo'
  _symmetry_space_group_name_H-M    'P1'
  _symmetry_Int_Tables_number       1
  _symmetry_cell_setting            triclinic
  loop_
  _symmetry_equiv_pos_as_xyz
 x,y,z
_cell_length_a 36.4846
_cell_length_b 35.7605
_cell_length_c 38.2030
_cell_angle_alpha 90.021200
_cell_angle_beta 90.491200
_cell_angle_gamma 90.208700
loop_
  _atom_site_label
  _atom_site_type_symbol
  _atom_site_fract_x
  _atom_site_fract_y
  _atom_site_fract_z
C1 C 0.16212 0.15934 0.20648
 C2 C 0.15060 0.19470 0.19467
 C3 C 0.16353 0.20923 0.16273
 C4 C 0.18748 0.18792 0.14208
 C5 C 0.19711 0.15146 0.15221
 C6 C 0.18414 0.13774 0.18429
 H7 H 0.13338 0.21194 0.21102
 H8 H 0.19756 0.19938 0.11772
 H9 H 0.19209 0.10993 0.19255
 C10 C -0.14833 0.83315 0.21568
 C11 C -0.14341 0.79904 0.19778
 C12 C -0.16362 0.79046 0.16747
 C13 C -0.18975 0.81573 0.15477
 C14 C -0.19575 0.84976 0.17221
 C15 C -0.17387 0.85883 0.20166
 H16 H -0.12342 0.77887 0.20689
 H17 H -0.20688 0.80774 0.13268
 H18 H -0.17913 0.88481 0.21518
 C19 C -0.17028 0.14249 -0.20730
 C20 C -0.20266 0.13514 -0.18852
 C21 C -0.21191 0.15630 -0.15895
 C22 C -0.18874 0.18548 -0.14780
 C23 C -0.15594 0.19296 -0.16552
 C24 C -0.14645 0.17050 -0.19430
 H25 H -0.22121 0.11310 -0.19683
 H26 H -0.19691 0.20303 -0.12613
 H27 H -0.12159 0.17727 -0.20816
 C28 C 0.16532 0.85326 -0.21290
 C29 C 0.14100 0.82431 -0.20326
 C30 C 0.15008 0.79871 -0.17671
 C31 C 0.18446 0.80141 -0.16021
 C32 C 0.20883 0.83015 -0.16885
 C33 C 0.19902 0.85629 -0.19462
 H34 H 0.11394 0.82279 -0.21500
 H35 H 0.19236 0.78123 -0.14041
 H36 H 0.21893 0.87745 -0.20167
 C37 C 0.17364 1.16537 0.78410
 C38 C 0.19943 1.14694 0.80562
 C39 C 0.20700 1.15984 0.83956
 C40 C 0.19046 1.19265 0.85154
 C41 C 0.16651 1.21261 0.82976
 C42 C 0.15715 1.19824 0.79669
 H43 H 0.21193 1.12110 0.79703
 H44 H 0.19747 1.20345 0.87727
 H45 H 0.13860 1.21400 0.78005
 C46 C 0.84872 0.86350 0.79640
 C47 C 0.81928 0.87304 0.81842
 C48 C 0.81163 0.85205 0.84841
 C49 C 0.83435 0.82206 0.85741
 C50 C 0.86279 0.81040 0.83537
 C51 C 0.87027 0.83204 0.80537
 H52 H 0.80178 0.89655 0.81231
 H53 H 0.82707 0.80562 0.88009
 H54 H 0.89208 0.82339 0.78823
 C55 C 0.16471 0.84141 1.22097
 C56 C 0.13798 0.82053 1.20236
 C57 C 0.14668 0.80260 1.17072
 C58 C 0.18165 0.80733 1.15638
 C59 C 0.20813 0.82865 1.17393
 C60 C 0.19979 0.84520 1.20605
 H61 H 0.11126 0.81552 1.21359
 H62 H 0.18850 0.79384 1.13189
 H63 H 0.22072 0.86226 1.21853
 C64 C 0.82965 1.15164 1.20664
 C65 C 0.79569 1.14587 1.18941
 C66 C 0.78600 1.16644 1.15963
 C67 C 0.81035 1.19283 1.14620
 C68 C 0.84487 1.19809 1.16178
 C69 C 0.85451 1.17736 1.19170
 H70 H 0.77656 1.12492 1.19856
 H71 H 0.80283 1.20840 1.12289
 H72 H 0.88054 1.18339 1.20430
 O73 O 0.45756 0.90445 0.94883
 O74 O 0.41239 0.93649 0.97736
 C75 C 0.42344 0.91035 0.95653
 O76 O 0.55786 0.93952 1.07428
 O77 O 0.59325 0.97368 1.03651
 C78 C 0.58901 0.95309 1.06414
 O79 O 0.45803 0.91610 1.06997
 O80 O 0.41242 0.94097 1.03571
 C81 C 0.42392 0.91903 1.06050
 O82 O 0.55814 0.92293 0.94665
 O83 O 0.59341 0.96671 0.97547
 C84 C 0.58943 0.93788 0.95502
 Zr85 Zr 0.50484 0.93589 0.96303
 O86 O 0.51346 0.87741 0.96288
 O87 O 0.50348 0.93723 0.90776
 Zr88 Zr 0.50519 0.94389 1.05136
 O89 O 0.51897 0.88652 1.05467
 O90 O 0.50105 0.94608 1.10652
 O91 O 0.47421 0.92689 1.00807
 O92 O 0.53761 0.93835 1.00777
 O93 O 0.53761 1.05470 0.93553
 O94 O 0.58313 1.02956 0.96996
 C95 C 0.57177 1.05125 0.94495
 O96 O 0.43510 1.05042 1.05856
 O97 O 0.40242 1.00440 1.03035
 C98 C 0.40460 1.03323 1.05064
 O99 O 0.53768 1.06570 1.06045
 O100 O 0.58310 1.03536 1.03044
 C101 C 0.57174 1.06057 1.05217
 O102 O 0.43492 1.04159 0.94090
 O103 O 0.40178 1.00053 0.97438
 C104 C 0.40411 1.02735 0.95179
 Zr105 Zr 0.48994 1.02804 0.95534
 O106 O 0.48278 1.08554 0.94476
 O107 O 0.48672 1.01761 0.90081
 Zr108 Zr 0.48991 1.03670 1.04374
 O109 O 0.48375 1.09538 1.03952
 O110 O 0.48641 1.04007 1.09897
 Zr111 Zr 0.44404 0.97672 1.00396
 Zr112 Zr 0.55178 0.99519 1.00317
 O113 O 0.52023 1.04436 0.99881
 O114 O 0.45693 1.03406 0.99926
 O115 O 0.53018 0.98684 0.95229
 O116 O 0.46624 0.98543 1.05427
 O117 O 0.46551 0.97604 0.95310
 O118 O 0.52983 0.99656 1.05413
 H119 H 0.55752 0.91978 1.01036
 H120 H 0.44987 0.98446 1.07481
 H121 H 0.53263 1.06896 0.99698
 H122 H 0.44844 0.97188 0.93314
 H123 H 0.51278 0.96967 1.11421
 H124 H 0.51060 1.03311 1.10884
 H125 H 0.46224 1.10010 1.02421
 H126 H 0.48101 1.09814 0.96768
 H127 H 0.51143 1.01005 0.89304
 H128 H 0.50656 0.91100 0.90001
 H129 H 0.52577 0.87099 0.98519
 H130 H 0.50012 0.87239 1.04132
 O131 O 0.07399 0.46585 -0.06482
 O132 O 0.04769 0.41753 -0.03462
 C133 C 0.07064 0.43063 -0.05729
 O134 O 0.04551 0.56637 0.06210
 O135 O 0.00545 0.59959 0.02760
 C136 C 0.02905 0.59712 0.05299
 O137 O 0.06904 0.46408 0.05968
 O138 O 0.04570 0.41685 0.02536
 C139 C 0.06678 0.42916 0.05047
 O140 O 0.04724 0.56627 -0.06955
 O141 O 0.00893 0.60044 -0.03464
 C142 C 0.03155 0.59719 -0.06043
 Zr143 Zr 0.04490 0.51283 -0.04631
 O144 O 0.09986 0.52971 -0.03705
 O145 O 0.05664 0.51286 -0.10036
 Zr146 Zr 0.04027 0.51146 0.04111
 O147 O 0.09620 0.52746 0.04262
 O148 O 0.03952 0.50733 0.09638
 O149 O 0.05642 0.48049 -0.00246
 O150 O 0.04233 0.54594 -0.00222
 O151 O -0.06678 0.54301 -0.07597
 O152 O -0.04876 0.58852 -0.03709
 C153 C -0.06499 0.57764 -0.06559
 O154 O -0.05934 0.43472 0.05207
 O155 O -0.01510 0.40328 0.02164
 C156 C -0.04171 0.40445 0.04376
 O157 O -0.07763 0.53800 0.05688
 O158 O -0.05320 0.58608 0.02492
 C159 C -0.07496 0.57319 0.04879
 O160 O -0.05340 0.43896 -0.07200
 O161 O -0.01416 0.40439 -0.03770
 C162 C -0.03818 0.40773 -0.06278
 Zr163 Zr -0.04636 0.49352 -0.05190
 O164 O -0.10400 0.48653 -0.05055
 O165 O -0.04933 0.48969 -0.10706
 Zr166 Zr -0.05078 0.49097 0.03554
 O167 O -0.10783 0.48269 0.02810
 O168 O -0.05751 0.48534 0.09017
 Zr169 Zr 0.00841 0.44755 -0.00603
 Zr170 Zr -0.01427 0.55664 -0.00491
 O171 O -0.06177 0.52328 -0.00828
 O172 O -0.04855 0.45761 -0.00899
 O173 O -0.00682 0.53507 -0.05579
 O174 O 0.00103 0.46970 0.04457
 O175 O 0.00598 0.47194 -0.05615
 O176 O -0.01236 0.53327 0.04571
 H177 H 0.05916 0.56775 -0.00140
 H178 H 0.00334 0.45338 0.06541
 H179 H -0.08563 0.53638 -0.00963
 H180 H 0.01006 0.45665 -0.07738
 H181 H 0.01969 0.52372 0.10485
 H182 H -0.03798 0.50053 0.10133
 H183 H -0.11148 0.45719 0.01859
 H184 H -0.10899 0.46024 -0.04402
 H185 H -0.02814 0.50385 -0.11617
 H186 H 0.03289 0.50989 -0.11269
 H187 H 0.11435 0.50690 -0.03232
 H188 H 0.11028 0.50783 0.03045
 O189 O 1.07345 -0.03973 0.55536
 O190 O 1.03548 -0.00534 0.59058
 C191 C 1.06321 -0.02715 0.58566
 O192 O 1.05973 0.08042 0.44593
 O193 O 1.02880 0.03925 0.41012
 C194 C 1.05181 0.06641 0.41547
 O195 O 1.06578 0.08429 0.54296
 O196 O 1.03125 0.05486 0.58469
 C197 C 1.05742 0.07727 0.57519
 O198 O 1.07180 -0.05153 0.45753
 O199 O 1.03518 -0.02416 0.41560
 C200 C 1.06207 -0.04567 0.42521
 Zr201 Zr 1.05104 -0.02952 0.50469
 O202 O 1.10885 -0.02550 0.50232
 O203 O 1.05439 -0.08794 0.51316
 Zr204 Zr 1.04138 0.06470 0.49626
 O205 O 1.09767 0.07816 0.49282
 O206 O 1.02968 0.12266 0.49579
 O207 O 1.05356 0.02127 0.53094
 O208 O 1.05318 0.01534 0.47058
 O209 O 0.94520 -0.06718 0.45689
 O210 O 0.97359 -0.03103 0.41551
 C211 C 0.95343 -0.05919 0.42471
 O212 O 0.92421 0.06852 0.54450
 O213 O 0.96556 0.04751 0.58553
 C214 C 0.93527 0.06394 0.57671
 O215 O 0.92841 0.06603 0.44631
 O216 O 0.96627 0.03266 0.41019
 C217 C 0.93854 0.05446 0.41570
 O218 O 0.93690 -0.05082 0.55376
 O219 O 0.97101 -0.01276 0.58996
 C220 C 0.94558 -0.03746 0.58432
 Zr221 Zr 0.95962 -0.03921 0.50413
 O222 O 0.90250 -0.04868 0.49958
 O223 O 0.96770 -0.09675 0.51468
 Zr224 Zr 0.95032 0.05502 0.49658
 O225 O 0.89251 0.05733 0.49395
 O226 O 0.95045 0.11424 0.49605
 Zr227 Zr 1.00067 0.01782 0.55239
 Zr228 Zr 1.00072 0.00770 0.44822
 O229 O 0.94811 0.00416 0.47027
 O230 O 0.94775 0.00999 0.53078
 O231 O 1.00624 -0.04448 0.47356
 O232 O 0.99524 0.06968 0.52699
 O233 O 1.00576 -0.03801 0.53575
 O234 O 0.99511 0.06399 0.46405
 H235 H 1.07516 0.01600 0.45557
 H236 H 0.99325 0.09203 0.54220
 H237 H 0.92653 -0.00045 0.45492
 H238 H 1.00746 -0.05775 0.55389
 H239 H 1.02251 0.12941 0.47156
 H240 H 0.95522 0.12226 0.47172
 H241 H 0.88379 0.03121 0.49208
 H242 H 0.89027 -0.02796 0.51198
 H243 H 0.98117 -0.10750 0.49472
 H244 H 1.04433 -0.10058 0.49211
 H245 H 1.11640 -0.00471 0.51793
 H246 H 1.11110 0.05431 0.49498
 C247 C 1.11128 0.13378 0.28781
 C248 C 1.13793 0.11327 0.30456
 C249 C 1.17276 0.10834 0.29133
 C250 C 1.18047 0.12448 0.25895
 C251 C 1.15365 0.14568 0.24025
 C252 C 1.11873 0.15133 0.25575
 O253 O 1.07940 0.13317 0.30460
 C254 C 1.08638 0.11190 0.33251
 C255 C 1.12198 0.09939 0.33362
 C256 C 1.13566 0.07663 0.36005
 C257 C 1.11171 0.06639 0.38675
 C258 C 1.07481 0.07845 0.38630
 C259 C 1.06167 0.10143 0.35875
 H260 H 1.19320 0.09207 0.30519
 H261 H 1.20788 0.12095 0.24886
 H262 H 1.09729 0.16669 0.24234
 H263 H 1.16379 0.06715 0.36015
 H264 H 1.12177 0.04875 0.40778
 H265 H 1.03352 0.11091 0.35801
 C266 C 0.89358 -0.11705 0.29256
 C267 C 0.90082 -0.14680 0.31422
 C268 C 0.89404 -0.18356 0.30444
 C269 C 0.87878 -0.19001 0.27114
 C270 C 0.86974 -0.15980 0.24819
 C271 C 0.87773 -0.12266 0.25953
 O272 O 0.90248 -0.08429 0.30679
 C273 C 0.91526 -0.09364 0.33826
 C274 C 0.91448 -0.13155 0.34423
 C275 C 0.92524 -0.14738 0.37595
 C276 C 0.93742 -0.12313 0.40257
 C277 C 0.93929 -0.08399 0.39680
 C278 C 0.92815 -0.06908 0.36407
 H279 H 0.89989 -0.20654 0.32203
 H280 H 0.87216 -0.21864 0.26444
 H281 H 0.87262 -0.09864 0.24301
 H282 H 0.92403 -0.17728 0.38014
 H283 H 0.94600 -0.13484 0.42745
 H284 H 0.92894 -0.03927 0.35911
 C285 C 0.87851 0.10819 0.71331
 C286 C 0.84924 0.09962 0.69192
 C287 C 0.81321 0.10168 0.70314
 C288 C 0.80699 0.11408 0.73748
 C289 C 0.83665 0.12503 0.75995
 C290 C 0.87307 0.12093 0.74737
 O291 O 0.91064 0.10433 0.69767
 C292 C 0.90140 0.09350 0.66554
 C293 C 0.86413 0.09049 0.66054
 C294 C 0.84847 0.08086 0.62843
 C295 C 0.87221 0.07364 0.60048
 C296 C 0.91080 0.07564 0.60524
 C297 C 0.92550 0.08577 0.63833
 H298 H 0.79056 0.09479 0.68580
 H299 H 0.77878 0.11750 0.74527
 H300 H 0.89683 0.12727 0.76346
 H301 H 0.81904 0.07894 0.62502
 H302 H 0.86059 0.06538 0.57546
 H303 H 0.95482 0.08753 0.64276
 C304 C 1.12456 -0.10809 0.70489
 C305 C 1.13703 -0.07186 0.70640
 C306 C 1.15934 -0.05873 0.73340
 C307 C 1.16919 -0.08397 0.76000
 C308 C 1.15605 -0.12160 0.75974
 C309 C 1.13331 -0.13344 0.73132
 O310 O 1.10395 -0.11514 0.67682
 C311 C 1.10311 -0.08249 0.66037
 C312 C 1.12269 -0.05496 0.67756
 C313 C 1.12415 -0.01821 0.66574
 C314 C 1.10449 -0.00953 0.63510
 C315 C 1.08472 -0.03755 0.61670
 C316 C 1.08414 -0.07461 0.62935
 H317 H 1.16873 -0.02999 0.73407
 H318 H 1.18569 -0.07336 0.78149
 H319 H 1.12355 -0.16194 0.72891
 H320 H 1.13927 0.00314 0.67993
 H321 H 1.10451 0.01894 0.62571
 H322 H 1.06853 -0.09625 0.61604
 C323 C 0.27803 1.11741 1.10286
 C324 C 0.27005 1.07984 1.10230
 C325 C 0.23758 1.06494 1.11472
 C326 C 0.21265 1.08956 1.12975
 C327 C 0.22012 1.12862 1.13188
 C328 C 0.25281 1.14289 1.11668
 O329 O 0.31181 1.12495 1.09173
 C330 C 0.32521 1.09132 1.08412
 C331 C 0.30044 1.06300 1.09009
 C332 C 0.30841 1.02553 1.08527
 C333 C 0.34324 1.01666 1.07311
 C334 C 0.36957 1.04501 1.06618
 C335 C 0.36060 1.08304 1.07217
 H336 H 0.23215 1.03517 1.11400
 H337 H 0.18746 1.07801 1.14006
 H338 H 0.25997 1.17225 1.11848
 H339 H 0.28848 1.00383 1.09065
 H340 H 0.34971 0.98746 1.06901
 H341 H 0.38009 1.10522 1.06703
 C342 C 0.28884 0.86687 0.88388
 C343 C 0.31215 0.83669 0.88300
 C344 C 0.30324 0.80359 0.86569
 C345 C 0.26893 0.80156 0.84877
 C346 C 0.24480 0.83259 0.84898
 C347 C 0.25500 0.86570 0.86673
 O348 O 0.30229 0.89562 0.90178
 C349 C 0.33486 0.88347 0.91228
 C350 C 0.34245 0.84770 0.90136
 C351 C 0.37582 0.83031 0.90838
 C352 C 0.40249 0.85083 0.92712
 C353 C 0.39501 0.88764 0.93886
 C354 C 0.36051 0.90391 0.93152
 H355 H 0.32194 0.78017 0.86533
 H356 H 0.26126 0.77610 0.83517
 H357 H 0.23693 0.88964 0.86747
 H358 H 0.38137 0.80228 0.89921
 H359 H 0.42890 0.83819 0.93237
 H360 H 0.35424 0.93226 0.93941
 C361 C 0.72847 0.89817 1.12052
 C362 C 0.70787 0.91198 1.14753
 C363 C 0.71775 0.90780 1.18248
 C364 C 0.75007 0.88830 1.19005
 C365 C 0.77199 0.87332 1.16286
 C366 C 0.76096 0.87867 1.12746
 O367 O 0.71294 0.90355 1.08927
 C368 C 0.68179 0.92091 1.09686
 C369 C 0.67747 0.92657 1.13221
 C370 C 0.64591 0.94174 1.14644
 C371 C 0.61737 0.95106 1.12334
 C372 C 0.62096 0.94556 1.08679
 C373 C 0.65390 0.93085 1.07320
 H374 H 0.70065 0.91833 1.20326
 H375 H 0.75715 0.88363 1.21727
 H376 H 0.77670 0.86732 1.10608
 H377 H 0.64297 0.94530 1.17440
 H378 H 0.59220 0.96221 1.13392
 H379 H 0.65690 0.92563 1.04545
 C380 C 0.70850 1.10898 0.88585
 C381 C 0.68244 1.13661 0.88346
 C382 C 0.68979 1.17169 0.86932
 C383 C 0.72529 1.17838 0.85670
 C384 C 0.75227 1.14997 0.85791
 C385 C 0.74375 1.11481 0.87284
 O386 O 0.69601 1.07779 0.90049
 C387 C 0.66125 1.08579 0.90725
 C388 C 0.65145 1.12127 0.89699
 C389 C 0.61600 1.13491 0.90050
 C390 C 0.58967 1.11115 0.91546
 C391 C 0.59931 1.07479 0.92715
 C392 C 0.63572 1.06203 0.92296
 H393 H 0.66889 1.19303 0.86781
 H394 H 0.73151 1.20522 0.84500
 H395 H 0.76386 1.09264 0.87388
 H396 H 0.60883 1.16281 0.89195
 H397 H 0.56201 1.12139 0.91872
 H398 H 0.64384 1.03441 0.93149
 C399 C 0.12688 0.29065 0.11000
 C400 C 0.13562 0.31984 0.13202
 C401 C 0.15292 0.31477 0.16426
 C402 C 0.16168 0.27808 0.17422
 C403 C 0.15350 0.24753 0.15180
 C404 C 0.13598 0.25395 0.11912
 O405 O 0.10909 0.30150 0.08123
 C406 C 0.10670 0.33836 0.08514
 C407 C 0.12279 0.35092 0.11566
 C408 C 0.12322 0.38834 0.12531
 C409 C 0.10590 0.41390 0.10288
 C410 C 0.08814 0.40181 0.07154
 C411 C 0.08899 0.36333 0.06246
 H412 H 0.15915 0.33819 0.18128
 H413 H 0.17514 0.27340 0.19920
 H414 H 0.12914 0.23100 0.10173
 H415 H 0.13605 0.39751 0.14949
 H416 H 0.10555 0.44303 0.11058
 H417 H 0.07564 0.35300 0.03893
 C418 C -0.10486 0.26961 -0.11562
 C419 C -0.09132 0.28993 -0.14321
 C420 C -0.09801 0.28059 -0.17793
 C421 C -0.11930 0.24874 -0.18468
 C422 C -0.13334 0.22658 -0.15691
 C423 C -0.12612 0.23747 -0.12174
 O424 O -0.09660 0.28471 -0.08464
 C425 C -0.07755 0.31521 -0.09303
 C426 C -0.07361 0.31947 -0.12860
 C427 C -0.05653 0.35023 -0.14360
 C428 C -0.04361 0.37827 -0.12108
 C429 C -0.04763 0.37501 -0.08436
 C430 C -0.06423 0.34270 -0.06993
 H431 H -0.08768 0.29759 -0.19913
 H432 H -0.12544 0.24183 -0.21169
 H433 H -0.13668 0.22150 -0.09996
 H434 H -0.05422 0.35307 -0.17170
 H435 H -0.03122 0.40309 -0.13225
 H436 H -0.06841 0.34012 -0.04201
 C437 C 0.09672 0.72996 -0.12157
 C438 C 0.07590 0.71239 -0.14687
 C439 C 0.07751 0.72192 -0.18210
 C440 C 0.10167 0.75069 -0.19168
 C441 C 0.12361 0.76927 -0.16609
 C442 C 0.12061 0.75884 -0.13044
 O443 O 0.09319 0.71487 -0.09003
 C444 C 0.06975 0.68699 -0.09555
 C445 C 0.05824 0.68438 -0.12992
 C446 C 0.03593 0.65554 -0.14215
 C447 C 0.02589 0.62775 -0.11820
 C448 C 0.03800 0.62954 -0.08291
 C449 C 0.05953 0.65993 -0.07113
 H450 H 0.06144 0.70710 -0.20163
 H451 H 0.10401 0.75771 -0.21913
 H452 H 0.13681 0.77236 -0.11018
 H453 H 0.02773 0.65373 -0.16939
 H454 H 0.00965 0.60419 -0.12727
 H455 H 0.06988 0.66113 -0.04449
 C456 C -0.13352 0.71114 0.10932
 C457 C -0.14819 0.68122 0.12710
 C458 C -0.16919 0.68536 0.15707
 C459 C -0.17497 0.72178 0.16946
 C460 C -0.15998 0.75302 0.15175
 C461 C -0.13929 0.74772 0.12103
 O462 O -0.11270 0.70091 0.08262
 C463 C -0.11420 0.66378 0.08366
 C464 C -0.13559 0.65038 0.11035
 C465 C -0.13955 0.61245 0.11733
 C466 C -0.12030 0.58725 0.09624
 C467 C -0.09749 0.60020 0.06875
 C468 C -0.09507 0.63917 0.06209
 H469 H -0.17998 0.66136 0.17089
 H470 H -0.19047 0.72575 0.19322
 H471 H -0.12693 0.77117 0.10758
 H472 H -0.15626 0.60262 0.13874
 H473 H -0.12262 0.55768 0.10191
 H474 H -0.07805 0.65015 0.04141
 C475 C 1.12056 0.13820 0.70443
 C476 C 1.14821 0.12428 0.68411
 C477 C 1.18440 0.12231 0.69549
 C478 C 1.19253 0.13536 0.72928
 C479 C 1.16485 0.15147 0.75052
 C480 C 1.12828 0.15306 0.73746
 O481 O 1.08763 0.13503 0.68955
 C482 C 1.09479 0.11919 0.65892
 C483 C 1.13160 0.11277 0.65413
 C484 C 1.14556 0.09737 0.62371
 C485 C 1.12052 0.08776 0.59723
 C486 C 1.08229 0.09230 0.60214
 C487 C 1.06914 0.10835 0.63341
 H488 H 1.20556 0.11064 0.67912
 H489 H 1.22076 0.13427 0.73819
 H490 H 1.10611 0.16384 0.75314
 H491 H 1.17465 0.09281 0.62052
 H492 H 1.13075 0.07511 0.57348
 H493 H 1.04008 0.11206 0.63770
 C494 C 0.89530 -0.09624 0.71822
 C495 C 0.86569 -0.08206 0.70031
 C496 C 0.83029 -0.08351 0.71320
 C497 C 0.82501 -0.10068 0.74576
 C498 C 0.85491 -0.11681 0.76474
 C499 C 0.89071 -0.11400 0.75039
 O500 O 0.92669 -0.09198 0.70129
 C501 C 0.91654 -0.07509 0.67185
 C502 C 0.87939 -0.06870 0.66986
 C503 C 0.86251 -0.05289 0.64069
 C504 C 0.88484 -0.04336 0.61236
 C505 C 0.92321 -0.04912 0.61404
 C506 C 0.93942 -0.06487 0.64430
 H507 H 0.80737 -0.07230 0.69844
 H508 H 0.79712 -0.10317 0.75483
 H509 H 0.91464 -0.12460 0.76399
 H510 H 0.83319 -0.04845 0.63963
 H511 H 0.87242 -0.03096 0.58928
 H512 H 0.96868 -0.06963 0.64597
 C513 C 1.11571 -0.11515 0.29637
 C514 C 1.14417 -0.11203 0.31991
 C515 C 1.17949 -0.12362 0.31267
 C516 C 1.18600 -0.13896 0.27963
 C517 C 1.15725 -0.14292 0.25427
 C518 C 1.12133 -0.13100 0.26338
 O519 O 1.08436 -0.10163 0.30853
 C520 C 1.09337 -0.08996 0.34054
 C521 C 1.12965 -0.09599 0.34871
 C522 C 1.14514 -0.08658 0.38082
 C523 C 1.12228 -0.07032 0.40573
 C524 C 1.08476 -0.06336 0.39810
 C525 C 1.07011 -0.07314 0.36484
 H526 H 1.20135 -0.12104 0.33187
 H527 H 1.21336 -0.14910 0.27467
 H528 H 1.09861 -0.13243 0.24503
 H529 H 1.17380 -0.09168 0.38654
 H530 H 1.13402 -0.06266 0.43088
 H531 H 1.04157 -0.06829 0.35835
 C532 C 0.88090 0.10930 0.28201
 C533 C 0.85215 0.09993 0.30323
 C534 C 0.81586 0.10593 0.29402
 C535 C 0.80869 0.12249 0.26153
 C536 C 0.83770 0.13321 0.23869
 C537 C 0.87452 0.12614 0.24956
 O538 O 0.91342 0.10177 0.29629
 C539 C 0.90485 0.08765 0.32735
 C540 C 0.86764 0.08617 0.33281
 C541 C 0.85230 0.07428 0.36401
 C542 C 0.87631 0.06376 0.39093
 C543 C 0.91481 0.06482 0.38608
 C544 C 0.92938 0.07643 0.35364
 H545 H 0.79376 0.09875 0.31155
 H546 H 0.78036 0.12868 0.25545
 H547 H 0.89772 0.13268 0.23321
 H548 H 0.82292 0.07377 0.36771
 H549 H 0.86494 0.05469 0.41563
 H550 H 0.95868 0.07792 0.34953
 C551 C 0.12864 0.29299 -0.11790
 C552 C 0.13715 0.32235 -0.13965
 C553 C 0.15363 0.31757 -0.17200
 C554 C 0.16214 0.28100 -0.18219
 C555 C 0.15445 0.25031 -0.15990
 C556 C 0.13743 0.25639 -0.12727
 O557 O 0.11181 0.30365 -0.08888
 C558 C 0.10983 0.34054 -0.09237
 C559 C 0.12529 0.35333 -0.12283
 C560 C 0.12615 0.39088 -0.13197
 C561 C 0.10967 0.41631 -0.10915
 C562 C 0.09229 0.40385 -0.07806
 C563 C 0.09293 0.36533 -0.06938
 H564 H 0.15974 0.34114 -0.18877
 H565 H 0.17551 0.27658 -0.20705
 H566 H 0.13123 0.23337 -0.10987
 H567 H 0.13853 0.40020 -0.15611
 H568 H 0.10932 0.44554 -0.11650
 H569 H 0.07981 0.35481 -0.04603
 C570 C -0.11677 0.28496 0.11961
 C571 C -0.08133 0.27386 0.11361
 C572 C -0.06793 0.23915 0.12385
 C573 C -0.09223 0.21467 0.14064
 C574 C -0.12914 0.22517 0.14645
 C575 C -0.14140 0.26101 0.13602
 O576 O -0.12409 0.31895 0.10752
 C577 C -0.09262 0.32948 0.09338
 C578 C -0.06567 0.30279 0.09627
 C579 C -0.03093 0.30742 0.08235
 C580 C -0.02363 0.34095 0.06478
 C581 C -0.05083 0.36918 0.06171
 C582 C -0.08581 0.36333 0.07642
 H583 H -0.03993 0.23106 0.11874
 H584 H -0.08266 0.18718 0.14822
 H585 H -0.16938 0.26983 0.14027
 H586 H -0.01025 0.28593 0.08479
 H587 H 0.00342 0.34508 0.05395
 H588 H -0.10714 0.38420 0.07432
 C589 C -0.10598 0.72408 -0.11923
 C590 C -0.09856 0.70155 -0.14738
 C591 C -0.09948 0.71460 -0.18163
 C592 C -0.10994 0.75196 -0.18716
 C593 C -0.12008 0.77540 -0.15859
 C594 C -0.11655 0.76105 -0.12403
 O595 O -0.10343 0.70657 -0.08875
 C596 C -0.09462 0.67202 -0.09784
 C597 C -0.09158 0.66727 -0.13342
 C598 C -0.08338 0.63289 -0.14849
 C599 C -0.07715 0.60252 -0.12587
 C600 C -0.07879 0.60723 -0.08901
 C601 C -0.08818 0.64246 -0.07496
 H602 H -0.09338 0.69638 -0.20343
 H603 H -0.11282 0.76124 -0.21398
 H604 H -0.12226 0.77790 -0.10119
 H605 H -0.08129 0.62970 -0.17657
 H606 H -0.06927 0.57590 -0.13698
 H607 H -0.08940 0.64703 -0.04696
 C608 C 0.10606 0.71663 0.12819
 C609 C 0.07076 0.72830 0.12182
 C610 C 0.05838 0.76372 0.13105
 C611 C 0.08347 0.78808 0.14750
 C612 C 0.12017 0.77681 0.15381
 C613 C 0.13147 0.74049 0.14406
 O614 O 0.11242 0.68203 0.11730
 C615 C 0.08048 0.67161 0.10355
 C616 C 0.05412 0.69897 0.10548
 C617 C 0.01911 0.69447 0.09147
 C618 C 0.01110 0.66056 0.07452
 C619 C 0.03775 0.63182 0.07231
 C620 C 0.07286 0.63739 0.08742
 H621 H 0.03046 0.77230 0.12574
 H622 H 0.07458 0.81584 0.15484
 H623 H 0.15922 0.73102 0.14890
 H624 H -0.00112 0.71646 0.09303
 H625 H -0.01584 0.65671 0.06305
 H626 H 0.09394 0.61625 0.08569
 C627 C 0.28925 1.10869 0.87571
 C628 C 0.27555 1.09688 0.90727
 C629 C 0.24032 1.10516 0.91839
 C630 C 0.21814 1.12645 0.89594
 C631 C 0.23133 1.13839 0.86299
 C632 C 0.26738 1.12932 0.85267
 O633 O 0.32382 1.09852 0.87071
 C634 C 0.33202 1.07971 0.89971
 C635 C 0.30323 1.07771 0.92269
 C636 C 0.30536 1.05912 0.95448
 C637 C 0.33859 1.04193 0.96308
 C638 C 0.36911 1.04404 0.94024
 C639 C 0.36574 1.06332 0.90804
 H640 H 0.23034 1.09572 0.94349
 H641 H 0.19052 1.13322 0.90391
 H642 H 0.27807 1.13841 0.82771
 H643 H 0.28229 1.05796 0.97208
 H644 H 0.34070 1.02771 0.98803
 H645 H 0.38851 1.06544 0.89015
 C646 C 0.28713 0.86019 1.11831
 C647 C 0.31600 0.84497 1.13674
 C648 C 0.31133 0.82333 1.16663
 C649 C 0.27541 0.81743 1.17821
 C650 C 0.24525 0.83280 1.15965
 C651 C 0.25111 0.85411 1.12904
 O652 O 0.29772 0.88177 1.09194
 C653 C 0.33406 0.88013 1.09380
 C654 C 0.34655 0.85785 1.12067
 C655 C 0.38352 0.85331 1.12833
 C656 C 0.40873 0.87283 1.10770
 C657 C 0.39672 0.89661 1.08009
 C658 C 0.35868 0.89982 1.07285
 H659 H 0.33454 0.81218 1.18099
 H660 H 0.27098 0.80137 1.20184
 H661 H 0.22844 0.86676 1.11497
 H662 H 0.39263 0.83584 1.14981
 H663 H 0.43761 0.86988 1.11379
 H664 H 0.34845 0.91782 1.05221
 C665 C 0.70646 1.11864 1.11510
 C666 C 0.68188 1.14766 1.11276
 C667 C 0.69004 1.18366 1.12438
 C668 C 0.72490 1.18986 1.13919
 C669 C 0.75023 1.16010 1.14253
 C670 C 0.74089 1.12405 1.13023
 O671 O 0.69352 1.08671 1.10233
 C672 C 0.65995 1.09565 1.09186
 C673 C 0.65131 1.13251 1.09790
 C674 C 0.61707 1.14741 1.08999
 C675 C 0.59072 1.12330 1.07521
 C676 C 0.59932 1.08539 1.06817
 C677 C 0.63449 1.07146 1.07655
 H678 H 0.67031 1.20607 1.12218
 H679 H 0.73197 1.21752 1.14869
 H680 H 0.75992 1.10097 1.13242
 H681 H 0.61078 1.17642 1.09525
 H682 H 0.56383 1.13421 1.06880
 H683 H 0.64159 1.04250 1.07188
 C684 C 0.73062 0.89610 0.89436
 C685 C 0.71056 0.86443 0.90142
 C686 C 0.72171 0.82876 0.89228
 C687 C 0.75515 0.82537 0.87512
 C688 C 0.77687 0.85736 0.86755
 C689 C 0.76426 0.89339 0.87718
 O690 O 0.71399 0.92733 0.90450
 C691 C 0.68275 0.91489 0.91808
 C692 C 0.67958 0.87657 0.91666
 C693 C 0.64890 0.85724 0.92789
 C694 C 0.61987 0.87824 0.94083
 C695 C 0.62194 0.91786 0.94250
 C696 C 0.65416 0.93655 0.93152
 H697 H 0.70500 0.80441 0.89772
 H698 H 0.76376 0.79775 0.86704
 H699 H 0.78004 0.91831 0.87144
 H700 H 0.64713 0.82707 0.92625
 H701 H 0.59559 0.86354 0.94954
 H702 H 0.65630 0.96672 0.93227
   
