data_POSCAR
  _audit_creation_date              2014-09-24
  _audit_creation_method            'ToBaCCo'
  _symmetry_space_group_name_H-M    'P1'
  _symmetry_Int_Tables_number       1
  _symmetry_cell_setting            triclinic
  loop_
  _symmetry_equiv_pos_as_xyz
 x,y,z
_cell_length_a 40.4158
_cell_length_b 40.0534
_cell_length_c 40.5967
_cell_angle_alpha 89.895600
_cell_angle_beta 89.876900
_cell_angle_gamma 90.165500
loop_
  _atom_site_label
  _atom_site_type_symbol
  _atom_site_fract_x
  _atom_site_fract_y
  _atom_site_fract_z
N1 N 0.15231 0.23377 0.23960
 N2 N 0.16169 0.20783 0.25705
 C3 C 0.14044 0.20354 0.28233
 C4 C 0.11645 0.22818 0.28069
 C5 C 0.12489 0.24689 0.25317
 H6 H 0.14247 0.18409 0.30068
 H7 H 0.11196 0.26832 0.24347
 Cu8 Cu 0.20076 0.18220 0.24506
 Cu9 Cu 0.17619 0.24867 0.20056
 Cu10 Cu 0.24481 0.20260 0.17752
 N11 N 0.23888 0.15609 0.23115
 N12 N 0.25589 0.16425 0.20472
 C13 C 0.28075 0.14239 0.20065
 C14 C 0.27937 0.11909 0.22589
 C15 C 0.25239 0.12865 0.24480
 H16 H 0.29864 0.14365 0.18088
 H17 H 0.24313 0.11646 0.26673
 N18 N 0.22973 0.24222 0.15312
 N19 N 0.20358 0.25975 0.16184
 C20 C 0.19975 0.28516 0.14041
 C21 C 0.22473 0.28360 0.11704
 C22 C 0.24324 0.25600 0.12596
 H23 H 0.18039 0.30363 0.14195
 H24 H 0.26485 0.24646 0.11348
 H25 H 0.19482 0.20223 0.18867
 H26 H 0.22178 0.23003 0.21406
 N27 N 0.65504 0.73579 0.74058
 N28 N 0.66599 0.71150 0.75936
 C29 C 0.64506 0.70724 0.78489
 C30 C 0.61964 0.73023 0.78203
 C31 C 0.62688 0.74791 0.75354
 H32 H 0.64835 0.68900 0.80424
 H33 H 0.61262 0.76793 0.74280
 Cu34 Cu 0.70672 0.68791 0.74927
 Cu35 Cu 0.67806 0.74997 0.70085
 Cu36 Cu 0.74562 0.70302 0.67716
 N37 N 0.74173 0.65909 0.73296
 N38 N 0.75678 0.66509 0.70487
 C39 C 0.78007 0.64173 0.69987
 C40 C 0.77970 0.61971 0.72627
 C41 C 0.75492 0.63162 0.74680
 H42 H 0.79623 0.64114 0.67866
 H43 H 0.74701 0.62121 0.77010
 N44 N 0.73046 0.74240 0.65245
 N45 N 0.70467 0.76030 0.66146
 C46 C 0.70068 0.78552 0.63987
 C47 C 0.72519 0.78347 0.61606
 C48 C 0.74360 0.75576 0.62491
 H49 H 0.68160 0.80426 0.64165
 H50 H 0.76495 0.74592 0.61219
 H51 H 0.69660 0.70268 0.69207
 H52 H 0.72482 0.73312 0.71295
 N53 N 0.35060 0.77262 0.73802
 N54 N 0.33869 0.79523 0.75820
 C55 C 0.35821 0.79718 0.78493
 C56 C 0.38387 0.77460 0.78132
 C57 C 0.37819 0.75945 0.75116
 H58 H 0.35405 0.81385 0.80542
 H59 H 0.39325 0.74070 0.73928
 Cu60 Cu 0.29985 0.82117 0.74666
 Cu61 Cu 0.32984 0.76323 0.69568
 Cu62 Cu 0.24767 0.78822 0.69175
 N63 N 0.25865 0.84329 0.73555
 N64 N 0.23863 0.83086 0.71324
 C65 C 0.21239 0.85121 0.70984
 C66 C 0.21602 0.87797 0.73138
 C67 C 0.24579 0.87181 0.74733
 H68 H 0.19205 0.84636 0.69327
 H69 H 0.25771 0.88715 0.76569
 N70 N 0.26667 0.75362 0.66284
 N71 N 0.29833 0.74557 0.66309
 C72 C 0.30403 0.72280 0.63939
 C73 C 0.27445 0.71593 0.62369
 C74 C 0.25129 0.73590 0.63921
 H75 H 0.32778 0.71150 0.63444
 H76 H 0.22533 0.73798 0.63316
 H77 H 0.29566 0.80228 0.68955
 H78 H 0.28643 0.76846 0.71987
 N79 N 0.84636 0.26578 0.23962
 N80 N 0.83963 0.29429 0.25405
 C81 C 0.86061 0.29885 0.27935
 C82 C 0.88194 0.27170 0.28101
 C83 C 0.87185 0.25119 0.25527
 H84 H 0.86030 0.32051 0.29515
 H85 H 0.88253 0.22768 0.24785
 Cu86 Cu 0.80469 0.32347 0.23819
 Cu87 Cu 0.82280 0.25069 0.20050
 Cu88 Cu 0.75627 0.29847 0.17541
 N89 N 0.76370 0.34634 0.22737
 N90 N 0.74516 0.33675 0.20259
 C91 C 0.71887 0.35712 0.20023
 C92 C 0.72088 0.38086 0.22493
 C93 C 0.74973 0.37314 0.24174
 H94 H 0.69957 0.35458 0.18202
 H95 H 0.76005 0.38625 0.26259
 N96 N 0.77129 0.25873 0.15128
 N97 N 0.79599 0.23984 0.16134
 C98 C 0.79967 0.21426 0.14011
 C99 C 0.77635 0.21743 0.11538
 C100 C 0.75884 0.24592 0.12328
 H101 H 0.81839 0.19513 0.14205
 H102 H 0.73825 0.25631 0.10979
 H103 H 0.80681 0.29667 0.18423
 H104 H 0.77940 0.27408 0.21411
 N105 N 0.84958 0.73015 0.26258
 N106 N 0.84113 0.70314 0.24631
 C107 C 0.86248 0.69871 0.22120
 C108 C 0.88565 0.72433 0.22173
 C109 C 0.87656 0.74379 0.24844
 H110 H 0.86101 0.67852 0.20365
 H111 H 0.88864 0.76620 0.25711
 Cu112 Cu 0.80287 0.67651 0.25923
 Cu113 Cu 0.82491 0.74584 0.30070
 Cu114 Cu 0.75555 0.70021 0.32335
 N115 N 0.76317 0.65190 0.27174
 N116 N 0.74490 0.66126 0.29686
 C117 C 0.71918 0.64012 0.30013
 C118 C 0.72130 0.61612 0.27570
 C119 C 0.74959 0.62447 0.25811
 H120 H 0.70016 0.64236 0.31874
 H121 H 0.75968 0.61143 0.23711
 N122 N 0.77032 0.74034 0.34711
 N123 N 0.79676 0.75770 0.33854
 C124 C 0.80035 0.78348 0.35948
 C125 C 0.77492 0.78238 0.38239
 C126 C 0.75638 0.75464 0.37371
 H127 H 0.81991 0.80186 0.35796
 H128 H 0.73451 0.74531 0.38602
 H129 H 0.80598 0.69996 0.31458
 H130 H 0.78011 0.72570 0.28618
 N131 N 0.34328 0.23387 -0.24059
 N132 N 0.33473 0.20700 -0.25701
 C133 C 0.35604 0.20261 -0.28215
 C134 C 0.37928 0.22827 -0.28165
 C135 C 0.37015 0.24764 -0.25479
 H136 H 0.35449 0.18230 -0.29954
 H137 H 0.38225 0.26987 -0.24573
 Cu138 Cu 0.29637 0.18062 -0.24399
 Cu139 Cu 0.31964 0.24860 -0.20147
 Cu140 Cu 0.25214 0.20107 -0.17678
 N141 N 0.25861 0.15400 -0.22976
 N142 N 0.24142 0.16219 -0.20351
 C143 C 0.21668 0.14003 -0.19932
 C144 C 0.21834 0.11655 -0.22433
 C145 C 0.24535 0.12631 -0.24317
 H146 H 0.19866 0.14124 -0.17967
 H147 H 0.25475 0.11414 -0.26498
 N148 N 0.26698 0.24131 -0.15308
 N149 N 0.29264 0.25939 -0.16253
 C150 C 0.29663 0.28493 -0.14139
 C151 C 0.27229 0.28294 -0.11741
 C152 C 0.25393 0.25494 -0.12569
 H153 H 0.31572 0.30374 -0.14346
 H154 H 0.23281 0.24498 -0.11256
 H155 H 0.30200 0.20194 -0.18810
 H156 H 0.27427 0.22834 -0.21399
 N157 N 0.64875 0.26927 -0.23994
 N158 N 0.66000 0.29257 -0.25984
 C159 C 0.63939 0.29564 -0.28561
 C160 C 0.61369 0.27279 -0.28192
 C161 C 0.62064 0.25648 -0.25246
 H162 H 0.64326 0.31293 -0.30570
 H163 H 0.60619 0.23719 -0.24049
 Cu164 Cu 0.70061 0.31658 -0.25023
 Cu165 Cu 0.67074 0.25881 -0.19844
 Cu166 Cu 0.75261 0.28522 -0.19444
 N167 N 0.73952 0.34133 -0.23637
 N168 N 0.76009 0.32890 -0.21456
 C169 C 0.78551 0.35027 -0.21044
 C170 C 0.78056 0.37767 -0.23076
 C171 C 0.75106 0.37106 -0.24683
 H172 H 0.80629 0.34581 -0.19430
 H173 H 0.73888 0.38666 -0.26483
 N174 N 0.73405 0.25026 -0.16558
 N175 N 0.70251 0.24158 -0.16581
 C176 C 0.69707 0.21906 -0.14171
 C177 C 0.72669 0.21310 -0.12573
 C178 C 0.74960 0.23326 -0.14157
 H179 H 0.67342 0.20749 -0.13647
 H180 H 0.77545 0.23617 -0.13535
 H181 H 0.70444 0.29832 -0.19307
 H182 H 0.71425 0.26411 -0.22259
 N183 N 0.15774 0.76372 0.25853
 N184 N 0.16664 0.79026 0.24160
 C185 C 0.14569 0.79426 0.21615
 C186 C 0.12231 0.76887 0.21716
 C187 C 0.13089 0.74993 0.24444
 H188 H 0.14722 0.81432 0.19838
 H189 H 0.11814 0.72820 0.25393
 Cu190 Cu 0.20403 0.81754 0.25535
 Cu191 Cu 0.18059 0.74986 0.29848
 Cu192 Cu 0.24611 0.79952 0.32425
 N193 N 0.24176 0.84436 0.26906
 N194 N 0.25760 0.83759 0.29646
 C195 C 0.28213 0.85997 0.30056
 C196 C 0.28192 0.88212 0.27415
 C197 C 0.25579 0.87123 0.25466
 H198 H 0.29904 0.85963 0.32112
 H199 H 0.24735 0.88206 0.23181
 N200 N 0.23086 0.75976 0.34874
 N201 N 0.20670 0.74021 0.33834
 C202 C 0.20308 0.71458 0.35960
 C203 C 0.22583 0.71832 0.38472
 C204 C 0.24297 0.74725 0.37706
 H205 H 0.18488 0.69489 0.35732
 H206 H 0.26321 0.75801 0.39084
 H207 H 0.19668 0.79697 0.31146
 H208 H 0.22598 0.77090 0.28702
 N209 N 0.48017 0.40462 0.49020
 N210 N 0.45426 0.41407 0.50734
 C211 C 0.44998 0.39291 0.53283
 C212 C 0.47455 0.36883 0.53162
 C213 C 0.49323 0.37718 0.50412
 H214 H 0.43056 0.39507 0.55102
 H215 H 0.51469 0.36426 0.49473
 Cu216 Cu 0.42878 0.45320 0.49469
 Cu217 Cu 0.49517 0.42859 0.45121
 Cu218 Cu 0.45103 0.49911 0.42865
 N219 N 0.40478 0.49331 0.48225
 N220 N 0.41339 0.51106 0.45635
 C221 C 0.39250 0.53700 0.45321
 C222 C 0.36953 0.53554 0.47861
 C223 C 0.37819 0.50743 0.49653
 H224 H 0.39404 0.55559 0.43394
 H225 H 0.36572 0.49766 0.51806
 N226 N 0.48989 0.48287 0.40389
 N227 N 0.50660 0.45602 0.41254
 C228 C 0.53161 0.45144 0.39108
 C229 C 0.53074 0.47660 0.36767
 C230 C 0.50389 0.49608 0.37665
 H231 H 0.54936 0.43140 0.39262
 H232 H 0.49505 0.51817 0.36421
 H233 H 0.47694 0.47476 0.46522
 H234 H 0.44976 0.44860 0.43848
 N235 N -0.02129 -0.10124 0.98802
 N236 N -0.04491 -0.09014 1.00734
 C237 C -0.04689 -0.10973 1.03423
 C238 C -0.02323 -0.13459 1.03161
 C239 C -0.00748 -0.12836 1.00184
 H240 H -0.06430 -0.10611 1.05415
 H241 H 0.01217 -0.14272 0.99066
 Cu242 Cu -0.07175 -0.05206 0.99470
 Cu243 Cu -0.01149 -0.08021 0.94581
 Cu244 Cu -0.03680 0.00250 0.94219
 N245 N -0.09297 -0.01008 0.98384
 N246 N -0.07877 0.01181 0.96418
 C247 C -0.09808 0.03909 0.96206
 C248 C -0.12616 0.03366 0.98098
 C249 C -0.12204 0.00219 0.99443
 H250 H -0.09256 0.06078 0.94709
 H251 H -0.13883 -0.01066 1.01093
 N252 N -0.00320 -0.01662 0.91227
 N253 N 0.00566 -0.04828 0.91318
 C254 C 0.02776 -0.05407 0.88908
 C255 C 0.03307 -0.02465 0.87184
 C256 C 0.01292 -0.00142 0.88731
 H257 H 0.03885 -0.07811 0.88433
 H258 H 0.00998 0.02458 0.88082
 H259 H -0.01845 -0.03717 0.97033
 H260 H -0.05059 -0.04618 0.93859
 N261 N 1.01313 0.59291 0.99105
 N262 N 1.03710 0.58145 1.00968
 C263 C 1.04194 0.60249 1.03502
 C264 C 1.01967 0.62857 1.03225
 C265 C 1.00176 0.62158 1.00400
 H266 H 1.06010 0.59882 1.05417
 H267 H 0.98216 0.63639 0.99338
 Cu268 Cu 1.05962 0.54005 0.99952
 Cu269 Cu 0.99877 0.56988 0.95134
 Cu270 Cu 1.04579 0.50216 0.92691
 N271 N 1.08912 0.50599 0.98271
 N272 N 1.08368 0.49119 0.95440
 C273 C 1.10754 0.46847 0.94909
 C274 C 1.12924 0.46902 0.97553
 C275 C 1.11664 0.49328 0.99638
 H276 H 1.10869 0.45256 0.92766
 H277 H 1.12657 0.50118 1.01980
 N278 N 1.00640 0.51733 0.90265
 N279 N 0.98848 0.54313 0.91197
 C280 C 0.96331 0.54711 0.89068
 C281 C 0.96539 0.52261 0.86671
 C282 C 0.99308 0.50419 0.87519
 H283 H 0.94462 0.56622 0.89274
 H284 H 1.00294 0.48286 0.86227
 H285 H 1.01533 0.52238 0.96266
 H286 H 1.04566 0.55131 0.94244
 N287 N 0.51543 0.09712 0.48994
 N288 N 0.54199 0.08854 0.50647
 C289 C 0.54569 0.10933 0.53223
 C290 C 0.52007 0.13230 0.53186
 C291 C 0.50136 0.12365 0.50457
 H292 H 0.56554 0.10778 0.54992
 H293 H 0.47928 0.13583 0.49571
 Cu294 Cu 0.56928 0.05118 0.49259
 Cu295 Cu 0.50111 0.07348 0.45061
 Cu296 Cu 0.54840 0.00586 0.42609
 N297 N 0.59503 0.01264 0.47895
 N298 N 0.58678 -0.00487 0.45289
 C299 C 0.60852 -0.02993 0.44898
 C300 C 0.63175 -0.02815 0.47397
 C301 C 0.62231 -0.00075 0.49254
 H302 H 0.60720 -0.04828 0.42954
 H303 H 0.63449 0.00886 0.51423
 N304 N 0.50869 0.02064 0.40221
 N305 N 0.49069 0.04639 0.41150
 C306 C 0.46538 0.05011 0.39031
 C307 C 0.46746 0.02550 0.36647
 C308 C 0.49528 0.00729 0.37489
 H309 H 0.44662 0.06917 0.39230
 H310 H 0.50523 -0.01399 0.36195
 H311 H 0.52170 0.02815 0.46358
 H312 H 0.54725 0.05627 0.43692
 N313 N -0.01430 0.09484 0.50946
 N314 N -0.03818 0.08349 0.49061
 C315 C -0.04278 0.10473 0.46533
 C316 C -0.02047 0.13087 0.46833
 C317 C -0.00276 0.12367 0.49670
 H318 H -0.06081 0.10115 0.44602
 H319 H 0.01684 0.13841 0.50749
 Cu320 Cu -0.06087 0.04186 0.50028
 Cu321 Cu -0.00019 0.07136 0.54914
 Cu322 Cu -0.04744 0.00307 0.57254
 N323 N -0.09038 0.00723 0.51650
 N324 N -0.08506 -0.00787 0.54472
 C325 C -0.10877 -0.03097 0.54967
 C326 C -0.13028 -0.03038 0.52309
 C327 C -0.11772 -0.00568 0.50253
 H328 H -0.10993 -0.04719 0.57093
 H329 H -0.12757 0.00236 0.47912
 N330 N -0.00834 0.01809 0.59730
 N331 N 0.00976 0.04406 0.58842
 C332 C 0.03475 0.04772 0.61002
 C333 C 0.03233 0.02282 0.63371
 C334 C 0.00464 0.00455 0.62473
 H335 H 0.05352 0.06692 0.60837
 H336 H -0.00543 -0.01703 0.63725
 H337 H -0.01667 0.02407 0.53718
 H338 H -0.04709 0.05257 0.55750
 N339 N 0.48629 0.59478 0.00907
 N340 N 0.46226 0.58367 -0.00973
 C341 C 0.45793 0.60496 -0.03504
 C342 C 0.48058 0.63083 -0.03205
 C343 C 0.49816 0.62344 -0.00369
 H344 H 0.43985 0.60160 -0.05435
 H345 H 0.51794 0.63793 0.00710
 Cu346 Cu 0.43914 0.54226 0.00013
 Cu347 Cu 0.50040 0.57126 0.04858
 Cu348 Cu 0.45334 0.50298 0.07214
 N349 N 0.40990 0.50738 0.01646
 N350 N 0.41553 0.49209 0.04452
 C351 C 0.39189 0.46892 0.04955
 C352 C 0.37011 0.46963 0.02318
 C353 C 0.38244 0.49449 0.00267
 H354 H 0.39095 0.45257 0.07072
 H355 H 0.37231 0.50269 -0.02058
 N356 N 0.49263 0.51801 0.09669
 N357 N 0.51056 0.54406 0.08773
 C358 C 0.53564 0.54789 0.10918
 C359 C 0.53348 0.52302 0.13287
 C360 C 0.50584 0.50456 0.12407
 H361 H 0.55433 0.56715 0.10741
 H362 H 0.49592 0.48298 0.13672
 H363 H 0.48361 0.52401 0.03651
 H364 H 0.45347 0.55245 0.05733
 N365 N 0.51765 -0.09339 0.00943
 N366 N 0.54353 -0.08394 -0.00789
 C367 C 0.54774 -0.10529 -0.03314
 C368 C 0.52315 -0.12948 -0.03159
 C369 C 0.50452 -0.12100 -0.00417
 H370 H 0.56715 -0.10325 -0.05138
 H371 H 0.48315 -0.13405 0.00547
 Cu372 Cu 0.56918 -0.04477 0.00459
 Cu373 Cu 0.50295 -0.06937 0.04842
 Cu374 Cu 0.54810 0.00082 0.07081
 N375 N 0.59407 -0.00509 0.01697
 N376 N 0.58590 0.01249 0.04304
 C377 C 0.60740 0.03802 0.04635
 C378 C 0.63030 0.03646 0.02092
 C379 C 0.62097 0.00873 0.00277
 H380 H 0.60632 0.05638 0.06580
 H381 H 0.63324 -0.00103 -0.01881
 N382 N 0.50903 -0.01514 0.09561
 N383 N 0.49193 -0.04185 0.08705
 C384 C 0.46689 -0.04623 0.10855
 C385 C 0.46812 -0.02109 0.13188
 C386 C 0.49523 -0.00183 0.12282
 H387 H 0.44886 -0.06613 0.10709
 H388 H 0.50438 0.02017 0.13521
 H389 H 0.52150 -0.02321 0.03452
 H390 H 0.54863 -0.04969 0.06092
 N391 N 1.01591 0.40514 0.50946
 N392 N 1.04499 0.41084 0.49605
 C393 C 1.04969 0.38922 0.47112
 C394 C 1.02203 0.36870 0.46877
 C395 C 1.00115 0.37970 0.49362
 H396 H 1.07167 0.38859 0.45595
 H397 H 0.97709 0.36984 0.50005
 Cu398 Cu 1.07403 0.44596 0.51221
 Cu399 Cu 0.99983 0.43016 0.54721
 Cu400 Cu 1.04797 0.49671 0.57268
 N401 N 1.09486 0.48903 0.52032
 N402 N 1.08361 0.50957 0.54291
 C403 C 1.10280 0.53710 0.54356
 C404 C 1.12766 0.53340 0.52038
 C405 C 1.12188 0.50258 0.50611
 H406 H 1.10000 0.55744 0.56082
 H407 H 1.13653 0.49071 0.48716
 N408 N 1.00648 0.48381 0.59491
 N409 N 0.98813 0.45844 0.58511
 C410 C 0.96234 0.45490 0.60585
 C411 C 0.96446 0.47922 0.62997
 C412 C 0.99276 0.49719 0.62209
 H413 H 0.94361 0.43574 0.60372
 H414 H 1.00316 0.51790 0.63564
 H415 H 1.02511 0.47334 0.53406
 H416 H 1.04480 0.44537 0.56520
 Si417 Si 0.37375 0.00080 0.24940
 Si418 Si 0.12460 -0.00278 0.75197
 Si419 Si 0.62616 0.49837 0.25079
 Si420 Si 0.87190 0.49945 0.74913
 Si421 Si 0.24958 0.37805 -0.00048
 Si422 Si 0.75268 0.12543 -0.00370
 Si423 Si 0.24873 0.62573 0.50366
 Si424 Si 0.74962 0.87789 0.49849
 Si425 Si -0.00169 0.25051 0.37436
 Si426 Si 0.00219 0.74781 0.12612
 Si427 Si 0.49660 0.25031 0.62616
 Si428 Si 0.50107 0.75110 0.87525
 C429 C 0.07931 0.20894 0.32674
 C430 C 0.08805 0.23342 0.30337
 C431 C 0.06927 0.26291 0.30182
 C432 C 0.04258 0.26780 0.32318
 C433 C 0.03428 0.24350 0.34663
 C434 C 0.05260 0.21390 0.34808
 H435 H 0.09280 0.18573 0.32844
 H436 H 0.07519 0.28241 0.28430
 H437 H 0.02845 0.29068 0.32149
 H438 H 0.04628 0.19441 0.36546
 C439 C 0.58279 0.71054 0.82803
 C440 C 0.59113 0.73505 0.80456
 C441 C 0.57189 0.76420 0.80280
 C442 C 0.54511 0.76878 0.82410
 C443 C 0.53715 0.74444 0.84763
 C444 C 0.55593 0.71514 0.84927
 H445 H 0.59669 0.68758 0.82982
 H446 H 0.57760 0.78371 0.78522
 H447 H 0.53065 0.79144 0.82230
 H448 H 0.54989 0.69565 0.86673
 C449 C 0.43083 0.73955 0.80213
 C450 C 0.41176 0.76877 0.80427
 C451 C 0.41978 0.79260 0.82839
 C452 C 0.44629 0.78738 0.84979
 C453 C 0.46500 0.75808 0.84776
 C454 C 0.45722 0.73429 0.82372
 H455 H 0.42529 0.72061 0.78398
 H456 H 0.40600 0.81562 0.83042
 H457 H 0.45218 0.80650 0.86760
 H458 H 0.47165 0.71164 0.82159
 C459 C -0.07240 0.23726 0.30195
 C460 C -0.09163 0.26659 0.30320
 C461 C -0.08339 0.29090 0.32698
 C462 C -0.05679 0.28615 0.34843
 C463 C -0.03801 0.25689 0.34697
 C464 C -0.04592 0.23257 0.32355
 H465 H -0.07749 0.21772 0.28435
 H466 H -0.09704 0.31396 0.32905
 H467 H -0.05085 0.30561 0.36587
 H468 H -0.03145 0.20991 0.32185
 C469 C -0.07768 0.70539 0.17534
 C470 C -0.08625 0.72983 0.19868
 C471 C -0.06761 0.75955 0.19978
 C472 C -0.04127 0.76470 0.17798
 C473 C -0.03323 0.74046 0.15452
 C474 C -0.05135 0.71063 0.15356
 H475 H -0.09103 0.68201 0.17394
 H476 H -0.07333 0.77901 0.21729
 H477 H -0.02724 0.78774 0.17934
 H478 H -0.04519 0.69116 0.13621
 C479 C 0.41366 0.20999 0.67184
 C480 C 0.40619 0.23339 0.69669
 C481 C 0.42652 0.26197 0.69941
 C482 C 0.45319 0.26690 0.67801
 C483 C 0.46029 0.24351 0.65349
 C484 C 0.44055 0.21491 0.65069
 H485 H 0.39919 0.18749 0.66872
 H486 H 0.42201 0.28084 0.71785
 H487 H 0.46840 0.28905 0.68068
 H488 H 0.44582 0.19616 0.63232
 C489 C 0.56482 0.24044 0.70136
 C490 C 0.58669 0.26756 0.69670
 C491 C 0.58082 0.28941 0.67005
 C492 C 0.55394 0.28447 0.64905
 C493 C 0.53272 0.25720 0.65363
 C494 C 0.53833 0.23522 0.67986
 H495 H 0.56824 0.22277 0.72122
 H496 H 0.59643 0.31089 0.66552
 H497 H 0.54991 0.30213 0.62934
 H498 H 0.52206 0.21405 0.68385
 C499 C 0.08471 0.78853 0.17186
 C500 C 0.09372 0.76377 0.19476
 C501 C 0.07482 0.73424 0.19634
 C502 C 0.04765 0.72968 0.17561
 C503 C 0.03898 0.75433 0.15274
 C504 C 0.05751 0.78388 0.15113
 H505 H 0.09830 0.81176 0.17011
 H506 H 0.08095 0.71453 0.21348
 H507 H 0.03338 0.70681 0.17740
 H508 H 0.05094 0.80358 0.13414
 C509 C 0.30082 0.07210 0.26098
 C510 C 0.30198 0.09046 0.23141
 C511 C 0.32507 0.08118 0.20712
 C512 C 0.34659 0.05448 0.21237
 C513 C 0.34563 0.03667 0.24206
 C514 C 0.32237 0.04538 0.26615
 H515 H 0.28349 0.07840 0.28030
 H516 H 0.32647 0.09426 0.18384
 H517 H 0.36375 0.04778 0.19303
 H518 H 0.32101 0.03158 0.28909
 C519 C 0.79998 0.57183 0.76101
 C520 C 0.80154 0.59039 0.73156
 C521 C 0.82440 0.58071 0.70721
 C522 C 0.84538 0.55358 0.71232
 C523 C 0.84413 0.53566 0.74194
 C524 C 0.82099 0.54463 0.76604
 H525 H 0.78272 0.57828 0.78034
 H526 H 0.82620 0.59393 0.68404
 H527 H 0.86241 0.54670 0.69295
 H528 H 0.81936 0.53073 0.78890
 C529 C 0.79972 0.42735 0.73661
 C530 C 0.80242 0.40712 0.76483
 C531 C 0.82625 0.41531 0.78870
 C532 C 0.84696 0.44301 0.78437
 C533 C 0.84451 0.46268 0.75590
 C534 C 0.82059 0.45486 0.73223
 H535 H 0.78182 0.42172 0.71762
 H536 H 0.82867 0.40058 0.81093
 H537 H 0.86473 0.44889 0.80335
 H538 H 0.81818 0.46995 0.71020
 C539 C 0.32762 -0.08153 0.29180
 C540 C 0.30342 -0.09059 0.26842
 C541 C 0.30125 -0.07151 0.23924
 C542 C 0.32259 -0.04456 0.23367
 C543 C 0.34653 -0.03594 0.25702
 C544 C 0.34872 -0.05440 0.28622
 H545 H 0.33028 -0.09495 0.31475
 H546 H 0.28328 -0.07722 0.22039
 H547 H 0.32034 -0.03033 0.21108
 H548 H 0.36651 -0.04788 0.30499
 C549 C 0.19953 -0.07203 0.76214
 C550 C 0.19454 -0.09468 0.73602
 C551 C 0.16765 -0.08910 0.71463
 C552 C 0.14683 -0.06160 0.71897
 C553 C 0.15185 -0.03957 0.74524
 C554 C 0.17825 -0.04503 0.76679
 H555 H 0.21949 -0.07518 0.77953
 H556 H 0.16287 -0.10543 0.69399
 H557 H 0.12689 -0.05777 0.70172
 H558 H 0.18253 -0.02826 0.78726
 C559 C 0.67418 0.41808 0.20758
 C560 C 0.69756 0.40865 0.23145
 C561 C 0.69859 0.42630 0.26137
 C562 C 0.67680 0.45272 0.26717
 C563 C 0.65356 0.46191 0.24329
 C564 C 0.65251 0.44455 0.21340
 H565 H 0.67291 0.40549 0.18408
 H566 H 0.71611 0.41971 0.28039
 H567 H 0.67821 0.46612 0.29028
 H568 H 0.63536 0.45159 0.19423
 C569 C 0.67478 0.57858 0.29372
 C570 C 0.69829 0.58783 0.26975
 C571 C 0.69960 0.56969 0.24013
 C572 C 0.67783 0.54312 0.23462
 C573 C 0.65426 0.53431 0.25846
 C574 C 0.65308 0.55198 0.28817
 H575 H 0.67332 0.59153 0.31702
 H576 H 0.71723 0.57607 0.22104
 H577 H 0.67934 0.52946 0.21167
 H578 H 0.63566 0.54521 0.30730
 C579 C 0.19785 0.06882 0.74097
 C580 C 0.19590 0.08767 0.77014
 C581 C 0.17220 0.07861 0.79399
 C582 C 0.15085 0.05168 0.78869
 C583 C 0.15259 0.03339 0.75937
 C584 C 0.17648 0.04187 0.73574
 H585 H 0.21568 0.07490 0.72197
 H586 H 0.17015 0.09208 0.81695
 H587 H 0.13319 0.04522 0.80770
 H588 H 0.17847 0.02771 0.71312
 C589 C 0.26039 0.30538 0.07098
 C590 C 0.23051 0.30649 0.08880
 C591 C 0.20619 0.32961 0.07923
 C592 C 0.21170 0.35116 0.05265
 C593 C 0.24168 0.35017 0.03533
 C594 C 0.26582 0.32694 0.04444
 H595 H 0.27977 0.28809 0.07757
 H596 H 0.18270 0.33092 0.09196
 H597 H 0.19233 0.36829 0.04563
 H598 H 0.28899 0.32558 0.03106
 C599 C 0.70645 0.82935 0.57822
 C600 C 0.73076 0.80616 0.58764
 C601 C 0.76048 0.80489 0.56959
 C602 C 0.76581 0.82644 0.54301
 C603 C 0.74171 0.84979 0.53410
 C604 C 0.71184 0.85087 0.55160
 H605 H 0.68306 0.83075 0.59114
 H606 H 0.77986 0.78753 0.57606
 H607 H 0.78890 0.82502 0.52950
 H608 H 0.69252 0.86812 0.54475
 C609 C 0.73875 0.80491 0.42753
 C610 C 0.76890 0.80568 0.41014
 C611 C 0.79330 0.82882 0.41971
 C612 C 0.78766 0.85063 0.44594
 C613 C 0.75747 0.84991 0.46291
 C614 C 0.73319 0.82674 0.45374
 H615 H 0.71929 0.78762 0.42091
 H616 H 0.81698 0.82989 0.40730
 H617 H 0.80713 0.86771 0.45302
 H618 H 0.70985 0.82557 0.46686
 C619 C 0.23747 0.30475 -0.07092
 C620 C 0.26709 0.30579 -0.08915
 C621 C 0.29171 0.32891 -0.08007
 C622 C 0.28672 0.35058 -0.05360
 C623 C 0.25695 0.34974 -0.03591
 C624 C 0.23254 0.32645 -0.04448
 H625 H 0.21790 0.28743 -0.07715
 H626 H 0.31504 0.33013 -0.09311
 H627 H 0.30627 0.36775 -0.04699
 H628 H 0.20952 0.32521 -0.03082
 C629 C 0.76365 0.17607 -0.09265
 C630 C 0.73256 0.19089 -0.09723
 C631 C 0.70741 0.18481 -0.07404
 C632 C 0.71360 0.16504 -0.04631
 C633 C 0.74479 0.15054 -0.04161
 C634 C 0.76958 0.15574 -0.06530
 H635 H 0.78334 0.17998 -0.11038
 H636 H 0.68325 0.19605 -0.07687
 H637 H 0.69407 0.16133 -0.02835
 H638 H 0.79365 0.14451 -0.06277
 C639 C 0.24447 0.70891 0.44274
 C640 C 0.23089 0.69620 0.41349
 C641 C 0.22238 0.66219 0.41195
 C642 C 0.22782 0.64125 0.43899
 C643 C 0.24134 0.65406 0.46811
 C644 C 0.24940 0.68806 0.46991
 H645 H 0.25094 0.73506 0.44479
 H646 H 0.21210 0.65163 0.38967
 H647 H 0.22153 0.61502 0.43712
 H648 H 0.25973 0.69864 0.49211
 C649 C 0.23808 0.67672 0.59229
 C650 C 0.26878 0.69275 0.59596
 C651 C 0.29379 0.68686 0.57262
 C652 C 0.28773 0.66630 0.54548
 C653 C 0.25682 0.65082 0.54152
 C654 C 0.23231 0.65557 0.56554
 H655 H 0.21856 0.68039 0.61022
 H656 H 0.31768 0.69895 0.57481
 H657 H 0.30705 0.66291 0.52727
 H658 H 0.20853 0.64349 0.56369
 C659 C 0.78073 0.16172 0.08758
 C660 C 0.77123 0.19543 0.08655
 C661 C 0.75643 0.20795 0.05778
 C662 C 0.75125 0.18723 0.03062
 C663 C 0.76035 0.15353 0.03190
 C664 C 0.77508 0.14089 0.06054
 H665 H 0.79194 0.15129 0.10947
 H666 H 0.74914 0.23388 0.05609
 H667 H 0.73989 0.19762 0.00882
 H668 H 0.78214 0.11487 0.06202
 C669 C 0.50832 0.32052 0.55225
 C670 C 0.47978 0.34044 0.55463
 C671 C 0.45625 0.33280 0.57913
 C672 C 0.46120 0.30606 0.60071
 C673 C 0.48984 0.28659 0.59838
 C674 C 0.51318 0.29380 0.57383
 H675 H 0.52706 0.32548 0.53384
 H676 H 0.43380 0.34719 0.58159
 H677 H 0.44246 0.30063 0.61901
 H678 H 0.53525 0.27872 0.57136
 C679 C -0.04029 0.82929 0.07934
 C680 C -0.01686 0.83768 0.05500
 C681 C 0.01248 0.81901 0.05296
 C682 C 0.01816 0.79254 0.07467
 C683 C -0.00527 0.78432 0.09884
 C684 C -0.03461 0.80272 0.10094
 H685 H -0.06336 0.84276 0.08138
 H686 H 0.03116 0.82483 0.03470
 H687 H 0.04083 0.77834 0.07249
 H688 H -0.05343 0.79645 0.11887
 C689 C -0.01303 0.67702 0.05382
 C690 C 0.01576 0.65741 0.05473
 C691 C 0.04077 0.66561 0.07739
 C692 C 0.03697 0.69264 0.09877
 C693 C 0.00799 0.71170 0.09810
 C694 C -0.01681 0.70394 0.07530
 H695 H -0.03286 0.67140 0.03684
 H696 H 0.06348 0.65143 0.07845
 H697 H 0.05680 0.69855 0.11561
 H698 H -0.03924 0.71864 0.07424
 C699 C 0.53758 0.16801 0.57972
 C700 C 0.51424 0.16024 0.55518
 C701 C 0.48541 0.17974 0.55294
 C702 C 0.48021 0.20634 0.57451
 C703 C 0.50352 0.21384 0.59886
 C704 C 0.53228 0.19462 0.60130
 H705 H 0.56018 0.15386 0.58219
 H706 H 0.46678 0.17465 0.53455
 H707 H 0.45797 0.22117 0.57209
 H708 H 0.55086 0.20021 0.61962
 C709 C -0.04078 0.16774 0.42256
 C710 C -0.01628 0.15986 0.44587
 C711 C 0.01232 0.17988 0.44736
 C712 C 0.01641 0.20686 0.42585
 C713 C -0.00788 0.21429 0.40243
 C714 C -0.03667 0.19481 0.40114
 H715 H -0.06335 0.15325 0.42098
 H716 H 0.03177 0.17456 0.46484
 H717 H 0.03870 0.22186 0.42738
 H718 H -0.05609 0.20042 0.38373
 C719 C 0.51394 0.67964 0.94755
 C720 C 0.48524 0.65981 0.94558
 C721 C 0.46107 0.66796 0.92202
 C722 C 0.46559 0.69520 0.90089
 C723 C 0.49443 0.71456 0.90274
 C724 C 0.51842 0.70679 0.92635
 H725 H 0.53317 0.67411 0.96519
 H726 H 0.43847 0.65359 0.92006
 H727 H 0.44641 0.70107 0.88330
 H728 H 0.54074 0.72169 0.92831
 C729 C 0.48885 0.82255 0.94762
 C730 C 0.51797 0.84183 0.94584
 C731 C 0.54216 0.83324 0.92238
 C732 C 0.53727 0.80623 0.90118
 C733 C 0.50803 0.78745 0.90284
 C734 C 0.48403 0.79556 0.92639
 H735 H 0.46959 0.82830 0.96522
 H736 H 0.56510 0.84709 0.92051
 H737 H 0.55653 0.80006 0.88373
 H738 H 0.46144 0.78106 0.92828
 C739 C -0.01336 0.32212 0.44661
 C740 C 0.01622 0.34075 0.44539
 C741 C 0.04030 0.33204 0.42185
 C742 C 0.03498 0.30539 0.40027
 C743 C 0.00542 0.28710 0.40162
 C744 C -0.01859 0.29550 0.42504
 H745 H -0.03254 0.32779 0.46430
 H746 H 0.06345 0.34552 0.42012
 H747 H 0.05423 0.29901 0.38289
 H748 H -0.04141 0.28134 0.42673
 C749 C 0.32466 0.55777 0.51534
 C750 C 0.34133 0.55838 0.48488
 C751 C 0.33040 0.58061 0.46037
 C752 C 0.30305 0.60118 0.46595
 C753 C 0.28615 0.59986 0.49610
 C754 C 0.29742 0.57842 0.52089
 H755 H 0.33258 0.54140 0.53500
 H756 H 0.34252 0.58176 0.43661
 H757 H 0.29499 0.61774 0.44650
 H758 H 0.28482 0.57731 0.54445
 C759 C 0.81347 0.04224 -0.00914
 C760 C 0.84499 0.05587 -0.01497
 C761 C 0.84858 0.09072 -0.01676
 C762 C 0.82107 0.11149 -0.01281
 C763 C 0.78943 0.09773 -0.00823
 C764 C 0.78595 0.06297 -0.00593
 H765 H 0.80995 0.01548 -0.00761
 H766 H 0.87270 0.10189 -0.02063
 H767 H 0.82450 0.13831 -0.01343
 H768 H 0.76209 0.05158 -0.00149
 C769 C 0.67065 0.08037 0.03965
 C770 C 0.65903 0.05885 0.01485
 C771 C 0.67549 0.05855 -0.01572
 C772 C 0.70314 0.07884 -0.02115
 C773 C 0.71504 0.09963 0.00388
 C774 C 0.69842 0.10059 0.03419
 H775 H 0.65872 0.08124 0.06350
 H776 H 0.66704 0.04273 -0.03558
 H777 H 0.71549 0.07806 -0.04484
 H778 H 0.70698 0.11664 0.05382
 C779 C 0.18739 0.54240 0.50723
 C780 C 0.15625 0.55578 0.51484
 C781 C 0.15291 0.59052 0.51788
 C782 C 0.18038 0.61148 0.51363
 C783 C 0.21180 0.59792 0.50778
 C784 C 0.21494 0.56327 0.50393
 H785 H 0.19062 0.51571 0.50467
 H786 H 0.12902 0.60146 0.52318
 H787 H 0.17712 0.63824 0.51528
 H788 H 0.23858 0.55208 0.49833
 C789 C 0.17685 0.44953 0.01038
 C790 C 0.15882 0.44773 -0.01920
 C791 C 0.16920 0.42510 -0.04357
 C792 C 0.19646 0.40443 -0.03826
 C793 C 0.21374 0.40582 -0.00844
 C794 C 0.20413 0.42886 0.01559
 H795 H 0.16989 0.46663 0.02973
 H796 H 0.15638 0.42317 -0.06683
 H797 H 0.20386 0.38746 -0.05757
 H798 H 0.21752 0.43058 0.03862
 C799 C 0.67799 0.95046 0.50942
 C800 C 0.66024 0.94928 0.47967
 C801 C 0.67005 0.92631 0.45538
 C802 C 0.69672 0.90490 0.46082
 C803 C 0.71392 0.90588 0.49070
 C804 C 0.70465 0.92902 0.51479
 H805 H 0.67123 0.96768 0.52877
 H806 H 0.65740 0.92496 0.43197
 H807 H 0.70387 0.88783 0.44150
 H808 H 0.71795 0.93037 0.53789
 C809 C 0.82975 0.92531 0.54192
 C810 C 0.84034 0.94798 0.51754
 C811 C 0.82269 0.94952 0.48772
 C812 C 0.79551 0.92861 0.48234
 C813 C 0.78563 0.90561 0.50645
 C814 C 0.80260 0.90441 0.53645
 H815 H 0.84227 0.92358 0.56536
 H816 H 0.82986 0.96662 0.46834
 H817 H 0.78235 0.93019 0.45917
 H818 H 0.79498 0.88748 0.55581
 C819 C 0.33003 0.42556 0.04238
 C820 C 0.34065 0.44803 0.01782
 C821 C 0.32291 0.44942 -0.01195
 C822 C 0.29563 0.42858 -0.01713
 C823 C 0.28572 0.40577 0.00715
 C824 C 0.30278 0.40473 0.03712
 H825 H 0.34260 0.42397 0.06580
 H826 H 0.33011 0.46636 -0.03147
 H827 H 0.28241 0.43004 -0.04027
 H828 H 0.29515 0.38797 0.05662
 C829 C 0.57667 0.45674 0.33072
 C830 C 0.55373 0.48162 0.33945
 C831 C 0.55304 0.51133 0.32093
 C832 C 0.57485 0.51607 0.29457
 C833 C 0.59789 0.49138 0.28633
 C834 C 0.59847 0.46157 0.30434
 H835 H 0.57774 0.43335 0.34399
 H836 H 0.53589 0.53111 0.32681
 H837 H 0.57383 0.53914 0.28065
 H838 H 0.61556 0.44185 0.29804
 C839 C 0.05260 0.00954 0.82352
 C840 C 0.05511 -0.01946 0.84295
 C841 C 0.07882 -0.04362 0.83435
 C842 C 0.09957 -0.03881 0.80717
 C843 C 0.09712 -0.00975 0.78813
 C844 C 0.07334 0.01425 0.79629
 H845 H 0.03447 0.02853 0.82908
 H846 H 0.08166 -0.06618 0.84872
 H847 H 0.11752 -0.05785 0.80122
 H848 H 0.07092 0.03673 0.78164
 C849 C 0.07898 0.04032 0.67081
 C850 C 0.05457 0.01681 0.66221
 C851 C 0.05159 -0.01246 0.68126
 C852 C 0.07260 -0.01811 0.70798
 C853 C 0.09719 0.00515 0.71603
 C854 C 0.09997 0.03459 0.69753
 H855 H 0.08181 0.06336 0.65716
 H856 H 0.03319 -0.03122 0.67557
 H857 H 0.06969 -0.04075 0.72235
 H858 H 0.11815 0.05339 0.70367
 C859 C 0.57934 0.54159 0.17042
 C860 C 0.55592 0.51728 0.16123
 C861 C 0.55412 0.48744 0.17950
 C862 C 0.57529 0.48205 0.20613
 C863 C 0.59879 0.50618 0.21488
 C864 C 0.60048 0.53612 0.19709
 H865 H 0.58120 0.56506 0.15733
 H866 H 0.53658 0.46806 0.17322
 H867 H 0.57340 0.45890 0.21986
 H868 H 0.61789 0.55547 0.20379
 C869 C 0.42222 -0.04076 0.16915
 C870 C 0.44528 -0.01594 0.16015
 C871 C 0.44626 0.01382 0.17849
 C872 C 0.42467 0.01861 0.20499
 C873 C 0.40157 -0.00606 0.21355
 C874 C 0.40065 -0.03589 0.19565
 H875 H 0.42092 -0.06419 0.15602
 H876 H 0.46350 0.03358 0.17238
 H877 H 0.42595 0.04170 0.21880
 H878 H 0.38349 -0.05560 0.20217
 C879 C 0.91889 0.45923 0.66737
 C880 C 0.94211 0.48399 0.65865
 C881 C 0.94392 0.51315 0.67781
 C882 C 0.92290 0.51749 0.70484
 C883 C 0.89958 0.49291 0.71310
 C884 C 0.89793 0.46361 0.69442
 H885 H 0.91704 0.43621 0.65362
 H886 H 0.96134 0.53282 0.67189
 H887 H 0.92470 0.54018 0.71921
 H888 H 0.88061 0.44396 0.70065
 C889 C 0.91936 0.54150 0.82966
 C890 C 0.94283 0.51718 0.83839
 C891 C 0.94454 0.48768 0.81971
 C892 C 0.92319 0.48260 0.79315
 C893 C 0.89958 0.50671 0.78492
 C894 C 0.89804 0.53635 0.80309
 H895 H 0.91758 0.56475 0.84304
 H896 H 0.96216 0.46832 0.82562
 H897 H 0.92503 0.45973 0.77908
 H898 H 0.88062 0.55574 0.79676
 C899 C 0.44662 -0.00988 0.31983
 C900 C 0.44482 0.01977 0.33827
 C901 C 0.42121 0.04391 0.32941
 C902 C 0.39984 0.03843 0.30293
 C903 C 0.40150 0.00864 0.28501
 C904 C 0.42523 -0.01529 0.29339
 H905 H 0.46431 -0.02913 0.32586
 H906 H 0.41936 0.06725 0.34262
 H907 H 0.38228 0.05765 0.29649
 H908 H 0.42712 -0.03829 0.27952
   
