data_POSCAR
  _audit_creation_date              2014-09-24
  _audit_creation_method            'ToBaCCo'
  _symmetry_space_group_name_H-M    'P1'
  _symmetry_Int_Tables_number       1
  _symmetry_cell_setting            triclinic
  loop_
  _symmetry_equiv_pos_as_xyz
 x,y,z
_cell_length_a 38.3457
_cell_length_b 38.1990
_cell_length_c 38.3419
_cell_angle_alpha 89.895400
_cell_angle_beta 90.001100
_cell_angle_gamma 90.102900
loop_
  _atom_site_label
  _atom_site_type_symbol
  _atom_site_fract_x
  _atom_site_fract_y
  _atom_site_fract_z
N1 N 0.58353 0.68076 0.61160
 N2 N 0.57023 0.66670 0.64001
 C3 C 0.54200 0.68527 0.64975
 C4 C 0.53770 0.71224 0.62620
 C5 C 0.56431 0.70873 0.60233
 H6 H 0.52574 0.67966 0.67213
 H7 H 0.56927 0.72526 0.57993
 Cu8 Cu 0.59126 0.62529 0.66077
 Cu9 Cu 0.62479 0.66181 0.58863
 Cu10 Cu 0.66157 0.58736 0.62560
 N11 N 0.61139 0.58333 0.68137
 N12 N 0.63898 0.56856 0.66727
 C13 C 0.64771 0.54003 0.68601
 C14 C 0.62429 0.53694 0.71312
 C15 C 0.60155 0.56465 0.70960
 H16 H 0.66942 0.52290 0.68038
 H17 H 0.57962 0.57065 0.72628
 N18 N 0.68057 0.61036 0.58350
 N19 N 0.66656 0.63866 0.56944
 C20 C 0.68543 0.64805 0.54126
 C21 C 0.71238 0.62457 0.53760
 C22 C 0.70871 0.60104 0.56461
 H23 H 0.68010 0.67030 0.52463
 H24 H 0.72536 0.57888 0.57003
 H25 H 0.61755 0.61075 0.60477
 H26 H 0.64643 0.63880 0.63212
 N27 N 0.91725 0.31840 0.11113
 N28 N 0.93135 0.33318 0.13875
 C29 C 0.95949 0.31452 0.14863
 C30 C 0.96294 0.28685 0.12589
 C31 C 0.93592 0.28991 0.10242
 H32 H 0.97615 0.32052 0.17059
 H33 H 0.93029 0.27278 0.08069
 Cu34 Cu 0.91089 0.37508 0.15887
 Cu35 Cu 0.87574 0.33711 0.08843
 Cu36 Cu 0.83899 0.41152 0.12523
 N37 N 0.89027 0.41647 0.17988
 N38 N 0.86192 0.43049 0.16652
 C39 C 0.85269 0.45845 0.18573
 C40 C 0.87652 0.46197 0.21240
 C41 C 0.90000 0.43503 0.20814
 H42 H 0.83034 0.47495 0.18074
 H43 H 0.92233 0.42942 0.22444
 N44 N 0.81980 0.38839 0.08342
 N45 N 0.83379 0.36010 0.06941
 C46 C 0.81494 0.35081 0.04123
 C47 C 0.78804 0.37434 0.03753
 C48 C 0.79171 0.39780 0.06450
 H49 H 0.82032 0.32866 0.02456
 H50 H 0.77515 0.42004 0.06981
 H51 H 0.88249 0.38841 0.10356
 H52 H 0.85501 0.36032 0.13239
 N53 N 0.41628 0.18108 -0.11094
 N54 N 0.43004 0.16663 -0.13886
 C55 C 0.45831 0.18523 -0.14859
 C56 C 0.46218 0.21256 -0.12550
 C57 C 0.43528 0.20930 -0.10194
 H58 H 0.47484 0.17942 -0.17066
 H59 H 0.42999 0.22615 -0.07992
 Cu60 Cu 0.40926 0.12509 -0.15944
 Cu61 Cu 0.37478 0.16233 -0.08828
 Cu62 Cu 0.33784 0.08795 -0.12505
 N63 N 0.38875 0.08339 -0.17999
 N64 N 0.36067 0.06902 -0.16634
 C65 C 0.35170 0.04072 -0.18521
 C66 C 0.37544 0.03734 -0.21194
 C67 C 0.39860 0.06469 -0.20808
 H68 H 0.32961 0.02387 -0.17993
 H69 H 0.42082 0.07044 -0.22448
 N70 N 0.31872 0.11108 -0.08330
 N71 N 0.33279 0.13938 -0.06931
 C72 C 0.31389 0.14882 -0.04126
 C73 C 0.28685 0.12537 -0.03762
 C74 C 0.29048 0.10180 -0.06448
 H75 H 0.31930 0.17103 -0.02466
 H76 H 0.27379 0.07961 -0.06982
 H77 H 0.38176 0.11112 -0.10389
 H78 H 0.35371 0.13921 -0.13213
 N79 N 0.08284 0.81855 0.38892
 N80 N 0.06904 0.83301 0.36097
 C81 C 0.04083 0.81431 0.35122
 C82 C 0.03704 0.78686 0.37431
 C83 C 0.06394 0.79017 0.39793
 H84 H 0.02435 0.82013 0.32907
 H85 H 0.06934 0.77327 0.41994
 Cu86 Cu 0.08965 0.87467 0.34008
 Cu87 Cu 0.12431 0.83756 0.41150
 Cu88 Cu 0.16097 0.91216 0.37487
 N89 N 0.11014 0.91672 0.31994
 N90 N 0.13813 0.93114 0.33367
 C91 C 0.14710 0.95952 0.31482
 C92 C 0.12344 0.96293 0.28803
 C93 C 0.10033 0.93552 0.29183
 H94 H 0.16916 0.97638 0.32013
 H95 H 0.07822 0.92974 0.27530
 N96 N 0.18019 0.88902 0.41660
 N97 N 0.16624 0.86062 0.43059
 C98 C 0.18518 0.85125 0.45870
 C99 C 0.21210 0.87487 0.46236
 C100 C 0.20835 0.89845 0.43544
 H101 H 0.17988 0.82898 0.47533
 H102 H 0.22491 0.92076 0.43009
 H103 H 0.11711 0.88892 0.39561
 H104 H 0.14541 0.86105 0.36750
 N105 N 0.08270 0.18171 0.11107
 N106 N 0.06897 0.16723 0.13906
 C107 C 0.04087 0.18589 0.14893
 C108 C 0.03702 0.21330 0.12585
 C109 C 0.06381 0.21002 0.10215
 H110 H 0.02445 0.18010 0.17115
 H111 H 0.06912 0.22692 0.08011
 Cu112 Cu 0.08952 0.12558 0.15968
 Cu113 Cu 0.12405 0.16288 0.08832
 Cu114 Cu 0.16079 0.08846 0.12519
 N115 N 0.11007 0.08392 0.18028
 N116 N 0.13807 0.06957 0.16659
 C117 C 0.14710 0.04136 0.18562
 C118 C 0.12351 0.03806 0.21250
 C119 C 0.10036 0.06533 0.20857
 H120 H 0.16915 0.02457 0.18036
 H121 H 0.07827 0.07112 0.22510
 N122 N 0.17984 0.11152 0.08329
 N123 N 0.16587 0.13983 0.06923
 C124 C 0.18473 0.14917 0.04105
 C125 C 0.21162 0.12564 0.03743
 C126 C 0.20795 0.10214 0.06443
 H127 H 0.17941 0.17139 0.02437
 H128 H 0.22454 0.07992 0.06983
 H129 H 0.11698 0.11164 0.10406
 H130 H 0.14514 0.13970 0.13223
 N131 N 0.41665 0.81911 0.61106
 N132 N 0.43073 0.83387 0.63868
 C133 C 0.45883 0.81516 0.64858
 C134 C 0.46231 0.78744 0.62588
 C135 C 0.43530 0.79059 0.60239
 H136 H 0.47547 0.82111 0.67056
 H137 H 0.42967 0.77346 0.58068
 Cu138 Cu 0.41022 0.87574 0.65884
 Cu139 Cu 0.37511 0.83785 0.58837
 Cu140 Cu 0.33831 0.91223 0.62517
 N141 N 0.38957 0.91711 0.67982
 N142 N 0.36122 0.93115 0.66646
 C143 C 0.35196 0.95907 0.68571
 C144 C 0.37576 0.96253 0.71239
 C145 C 0.39927 0.93563 0.70811
 H146 H 0.32961 0.97557 0.68073
 H147 H 0.42157 0.93001 0.72443
 N148 N 0.31915 0.88912 0.58334
 N149 N 0.33316 0.86084 0.56934
 C150 C 0.31430 0.85153 0.54117
 C151 C 0.28737 0.87502 0.53748
 C152 C 0.29103 0.89850 0.56444
 H153 H 0.31968 0.82938 0.52451
 H154 H 0.27444 0.92072 0.56977
 H155 H 0.38181 0.88919 0.60357
 H156 H 0.35431 0.86109 0.63237
 N157 N 0.91689 0.68127 0.38869
 N158 N 0.93068 0.66687 0.36077
 C159 C 0.95889 0.68561 0.35101
 C160 C 0.96273 0.71301 0.37407
 C161 C 0.93580 0.70961 0.39765
 H162 H 0.97539 0.67985 0.32891
 H163 H 0.93043 0.72645 0.41964
 Cu164 Cu 0.91011 0.62504 0.34028
 Cu165 Cu 0.87546 0.66221 0.41142
 Cu166 Cu 0.83873 0.58763 0.37484
 N167 N 0.88955 0.58322 0.31979
 N168 N 0.86154 0.56877 0.33351
 C169 C 0.85258 0.54044 0.31466
 C170 C 0.87625 0.53711 0.28785
 C171 C 0.89935 0.56453 0.29167
 H172 H 0.83053 0.52357 0.31998
 H173 H 0.92149 0.57036 0.27517
 N174 N 0.81958 0.61069 0.41665
 N175 N 0.83356 0.63906 0.43059
 C176 C 0.81462 0.64841 0.45869
 C177 C 0.78767 0.62482 0.46241
 C178 C 0.79141 0.60128 0.43552
 H179 H 0.81993 0.67067 0.47525
 H180 H 0.77480 0.57902 0.43019
 H181 H 0.88253 0.61084 0.39589
 H182 H 0.85439 0.63879 0.36757
 N183 N 0.58379 0.31894 -0.11139
 N184 N 0.57043 0.33304 -0.13973
 C185 C 0.54211 0.31450 -0.14939
 C186 C 0.53783 0.28752 -0.12586
 C187 C 0.56452 0.29096 -0.10209
 H188 H 0.52577 0.32015 -0.17169
 H189 H 0.56949 0.27439 -0.07974
 Cu190 Cu 0.59149 0.37446 -0.16046
 Cu191 Cu 0.62512 0.33777 -0.08851
 Cu192 Cu 0.66201 0.41232 -0.12544
 N193 N 0.61165 0.41644 -0.18102
 N194 N 0.63931 0.43122 -0.16699
 C195 C 0.64799 0.45979 -0.18572
 C196 C 0.62447 0.46297 -0.21273
 C197 C 0.60174 0.43519 -0.20914
 H198 H 0.66974 0.47695 -0.18016
 H199 H 0.57973 0.42921 -0.22573
 N200 N 0.68106 0.38920 -0.08347
 N201 N 0.66699 0.36086 -0.06944
 C202 C 0.68590 0.35136 -0.04136
 C203 C 0.71293 0.37481 -0.03773
 C204 C 0.70929 0.39844 -0.06464
 H205 H 0.68052 0.32906 -0.02478
 H206 H 0.72601 0.42061 -0.07003
 H207 H 0.61795 0.38882 -0.10450
 H208 H 0.64666 0.36084 -0.13199
 C209 C -0.01190 0.26186 0.12618
 C210 C 0.01042 0.23969 0.12617
 C211 C 0.51105 0.73863 0.62640
 C212 C 0.48879 0.76088 0.62631
 C213 C 1.01183 0.76174 0.37399
 C214 C 0.98944 0.73949 0.37389
 C215 C 0.48879 0.23900 -0.12586
 C216 C 0.51113 0.26119 -0.12598
 C217 C 0.12320 -0.01060 0.26145
 C218 C 0.12323 0.01164 0.23914
 C219 C 0.62401 0.51184 -0.26166
 C220 C 0.62406 0.48955 -0.23933
 C221 C 0.37579 1.01092 0.76149
 C222 C 0.37590 0.98879 0.73913
 C223 C 0.87671 0.48835 0.23906
 C224 C 0.87661 0.51059 0.26133
 C225 C 0.26032 0.12548 -0.01122
 C226 C 0.23808 0.12558 0.01097
 C227 C 0.73890 0.62465 0.51111
 C228 C 0.76115 0.62475 0.48889
 C229 C 0.76164 0.37448 0.01097
 C230 C 0.73944 0.37464 -0.01128
 C231 C 0.23861 0.87493 0.48882
 C232 C 0.26087 0.87500 0.51102
   
