data_POSCAR
  _audit_creation_date              2014-09-24
  _audit_creation_method            'ToBaCCo'
  _symmetry_space_group_name_H-M    'P1'
  _symmetry_Int_Tables_number       1
  _symmetry_cell_setting            triclinic
  loop_
  _symmetry_equiv_pos_as_xyz
 x,y,z
_cell_length_a 47.2995
_cell_length_b 52.5251
_cell_length_c 8.7585
_cell_angle_alpha 89.980200
_cell_angle_beta 91.261900
_cell_angle_gamma 90.004300
loop_
  _atom_site_label
  _atom_site_type_symbol
  _atom_site_fract_x
  _atom_site_fract_y
  _atom_site_fract_z
C1 C 0.17451 0.24852 0.20512
 C2 C 0.18875 0.22606 0.25064
 C3 C 0.21833 0.22740 0.27496
 C4 C 0.23358 0.24990 0.24694
 C5 C 0.21870 0.27165 0.19731
 C6 C 0.18918 0.27131 0.18022
 C7 C 0.26494 0.25074 0.27189
 C8 C 0.27831 0.27318 0.32301
 C9 C 0.30769 0.27415 0.34581
 C10 C 0.32378 0.25211 0.32294
 C11 C 0.31109 0.22899 0.27638
 C12 C 0.28161 0.22897 0.24648
 H13 H 0.15200 0.24833 0.18109
 H14 H 0.22946 0.21124 0.32338
 H15 H 0.22999 0.28910 0.17405
 H16 H 0.26590 0.28992 0.34800
 H17 H 0.34654 0.25356 0.33469
 H18 H 0.27117 0.21175 0.20870
 C19 C 0.82386 0.25030 0.16583
 C20 C 0.80864 0.27316 0.15922
 C21 C 0.77938 0.27272 0.18244
 C22 C 0.76537 0.25002 0.22285
 C23 C 0.78158 0.22744 0.23437
 C24 C 0.81043 0.22727 0.19945
 C25 C 0.73406 0.24982 0.25058
 C26 C 0.71817 0.22715 0.23503
 C27 C 0.68891 0.22639 0.26341
 C28 C 0.67524 0.24953 0.29617
 C29 C 0.69022 0.27250 0.30598
 C30 C 0.71964 0.27233 0.28962
 H31 H 0.84645 0.25046 0.14784
 H32 H 0.76776 0.29024 0.16565
 H33 H 0.77193 0.20973 0.26818
 H34 H 0.72827 0.21019 0.19324
 H35 H 0.65302 0.24989 0.32266
 H36 H 0.73095 0.29002 0.30538
 C37 C 0.67541 0.75268 0.67896
 C38 C 0.68989 0.72945 0.67302
 C39 C 0.71938 0.72917 0.69508
 C40 C 0.73442 0.75161 0.73347
 C41 C 0.71902 0.77454 0.74478
 C42 C 0.68981 0.77534 0.71328
 C43 C 0.76587 0.75111 0.76272
 C44 C 0.78231 0.77335 0.74722
 C45 C 0.81169 0.77358 0.78023
 C46 C 0.82488 0.75019 0.81636
 C47 C 0.80921 0.72763 0.82688
 C48 C 0.77979 0.72843 0.80571
 H49 H 0.65288 0.75314 0.65344
 H50 H 0.73028 0.71123 0.68380
 H51 H 0.72939 0.79196 0.78038
 H52 H 0.77245 0.79042 0.70292
 H53 H 0.84732 0.74929 0.84145
 H54 H 0.76800 0.71116 0.82513
 C55 C 0.32356 0.75109 0.66576
 C56 C 0.30792 0.77376 0.65873
 C57 C 0.27903 0.77315 0.69212
 C58 C 0.26590 0.75048 0.74003
 C59 C 0.28235 0.72811 0.74998
 C60 C 0.31089 0.72812 0.70889
 C61 C 0.23517 0.75019 0.77837
 C62 C 0.21884 0.72789 0.75969
 C63 C 0.18991 0.72716 0.79674
 C64 C 0.17715 0.75007 0.84371
 C65 C 0.19282 0.77261 0.85992
 C66 C 0.22186 0.77230 0.83188
 H67 H 0.34590 0.75140 0.64121
 H68 H 0.26682 0.79043 0.67768
 H69 H 0.27303 0.71050 0.78837
 H70 H 0.22839 0.71138 0.70846
 H71 H 0.15505 0.75061 0.87191
 H72 H 0.23396 0.78945 0.85357
 O73 O 1.02709 -0.03039 0.18278
 O74 O 0.97195 0.01862 0.21281
 O75 O 0.97234 -0.02996 0.14868
 O76 O 1.02662 0.01839 0.24198
 O77 O 1.03036 0.02643 -0.00389
 O78 O 0.97608 -0.02146 -0.09661
 O79 O 0.97567 0.02712 -0.03253
 O80 O 1.03074 -0.02221 -0.06297
 Cu81 Cu 0.99909 -0.00674 0.22075
 Cu82 Cu 1.00360 0.00334 -0.07343
 C83 C 1.03823 -0.03485 0.05494
 C84 C 0.96461 0.03151 0.09583
 C85 C 0.96508 -0.03413 0.01034
 C86 C 1.03762 0.03087 0.13398
 O87 O 0.52992 0.47199 0.64041
 O88 O 0.47628 0.52127 0.70901
 O89 O 0.47512 0.47206 0.66480
 O90 O 0.53076 0.52125 0.67915
 O91 O 0.52592 0.52675 0.43038
 O92 O 0.47034 0.47783 0.41633
 O93 O 0.47150 0.52688 0.46037
 O94 O 0.52508 0.47750 0.39169
 Cu95 Cu 0.50356 0.49599 0.69772
 Cu96 Cu 0.49768 0.50280 0.40058
 C97 C 0.53665 0.46620 0.50523
 C98 C 0.46488 0.53272 0.59567
 C99 C 0.46326 0.46647 0.53763
 C100 C 0.53767 0.53259 0.55729
 O101 O -0.02501 0.52640 0.06583
 O102 O 0.03065 0.47768 0.08384
 O103 O 0.02954 0.52675 0.03877
 O104 O -0.02407 0.47717 0.10370
 O105 O -0.02842 0.47193 -0.14542
 O106 O 0.02545 0.52104 -0.21007
 O107 O 0.02633 0.47180 -0.16476
 O108 O -0.02920 0.52114 -0.18333
 Cu109 Cu 0.00328 0.50260 0.09717
 Cu110 Cu -0.00191 0.49587 -0.20017
 C111 C -0.03652 0.53229 -0.06161
 C112 C 0.03786 0.46618 -0.03665
 C113 C 0.03656 0.53253 -0.09606
 C114 C -0.03541 0.46600 -0.01090
 O115 O 0.47006 1.02849 0.51125
 O116 O 0.52410 0.98007 0.59532
 O117 O 0.52487 1.02845 0.52789
 O118 O 0.46926 0.97988 0.57176
 O119 O 0.47112 0.97149 0.32552
 O120 O 0.52685 1.01958 0.28228
 O121 O 0.52604 0.97117 0.34976
 O122 O 0.47202 1.02020 0.26492
 Cu123 Cu 0.49686 1.00512 0.57614
 Cu124 Cu 0.49921 0.99466 0.28148
 C125 C 0.46198 1.03292 0.37468
 C126 C 0.53422 0.96716 0.48691
 C127 C 0.53520 1.03247 0.39722
 C128 C 0.46078 0.96726 0.45562
 C129 C 1.14313 0.15649 0.27925
 C130 C 1.17206 0.15620 0.25066
 C131 C 1.18734 0.17898 0.24650
 C132 C 1.17382 0.20272 0.26822
 C133 C 1.14469 0.20244 0.30191
 C134 C 1.12959 0.17960 0.30678
 C135 C 1.12686 0.13337 0.26936
 C136 C 1.11276 0.11438 0.25416
 C137 C 1.09538 0.09227 0.22704
 C138 C 1.08323 0.07912 0.34829
 C139 C 1.06493 0.05864 0.31889
 C140 C 1.05850 0.05122 0.16764
 C141 C 1.07125 0.06432 0.04703
 C142 C 1.08952 0.08466 0.07667
 H143 H 1.18269 0.13840 0.22686
 H144 H 1.20937 0.17777 0.21687
 H145 H 1.13338 0.21973 0.32804
 H146 H 1.10718 0.18004 0.32970
 H147 H 1.08749 0.08494 0.46518
 H148 H 1.05536 0.04900 0.41406
 H149 H 1.06675 0.05914 -0.07066
 H150 H 1.09869 0.09478 -0.01802
 C151 C 0.64372 0.65956 0.61432
 C152 C 0.66871 0.66340 0.53462
 C153 C 0.68377 0.68620 0.55233
 C154 C 0.67390 0.70540 0.64964
 C155 C 0.64873 0.70132 0.72874
 C156 C 0.63379 0.67857 0.71113
 C157 C 0.62805 0.63620 0.59823
 C158 C 0.61414 0.61703 0.58799
 C159 C 0.59665 0.59466 0.57848
 C160 C 0.58998 0.58136 0.71143
 C161 C 0.57131 0.56075 0.70415
 C162 C 0.55900 0.55321 0.56359
 C163 C 0.56632 0.56636 0.43005
 C164 C 0.58499 0.58699 0.43770
 H165 H 0.67656 0.64880 0.45921
 H166 H 0.70299 0.68889 0.48940
 H167 H 0.64089 0.71556 0.80659
 H168 H 0.61454 0.67575 0.77384
 H169 H 0.59877 0.58724 0.82118
 H170 H 0.56609 0.55105 0.80895
 H171 H 0.55721 0.56107 0.32003
 H172 H 0.58990 0.59724 0.33427
 C173 C -0.14524 0.34268 0.09520
 C174 C -0.16684 0.34163 0.20174
 C175 C -0.18240 0.31921 0.21964
 C176 C -0.17643 0.29754 0.13153
 C177 C -0.15507 0.29898 0.02264
 C178 C -0.13960 0.32140 0.00475
 C179 C -0.12826 0.36527 0.08084
 C180 C -0.11343 0.38377 0.06752
 C181 C -0.09504 0.40535 0.04924
 C182 C -0.08216 0.41688 0.17708
 C183 C -0.06309 0.43696 0.15821
 C184 C -0.05661 0.44565 0.01105
 C185 C -0.07001 0.43414 -0.11644
 C186 C -0.08906 0.41413 -0.09723
 H187 H -0.17135 0.35798 0.27246
 H188 H -0.19853 0.31857 0.30546
 H189 H -0.15026 0.28271 -0.04809
 H190 H -0.12301 0.32204 -0.07851
 H191 H -0.08652 0.41012 0.29102
 H192 H -0.05311 0.44538 0.25853
 H193 H -0.06555 0.44039 -0.23124
 H194 H -0.09880 0.40527 -0.19698
 C195 C 0.35169 0.84352 0.56322
 C196 C 0.35717 0.82163 0.47773
 C197 C 0.34246 0.79908 0.50604
 C198 C 0.32205 0.79814 0.62041
 C199 C 0.31619 0.82043 0.70307
 C200 C 0.33096 0.84295 0.67466
 C201 C 0.36826 0.86617 0.54122
 C202 C 0.38276 0.88480 0.52426
 C203 C 0.40081 0.90658 0.50538
 C204 C 0.41078 0.91281 0.36086
 C205 C 0.42984 0.93291 0.34417
 C206 C 0.43921 0.94706 0.47207
 C207 C 0.42863 0.94098 0.61650
 C208 C 0.40959 0.92084 0.63283
 H209 H 0.37311 0.82187 0.39074
 H210 H 0.34717 0.78234 0.43918
 H211 H 0.30083 0.82024 0.79296
 H212 H 0.32660 0.85978 0.74157
 H213 H 0.40422 0.90185 0.26140
 H214 H 0.43758 0.93707 0.23136
 H215 H 0.43546 0.95146 0.71713
 H216 H 0.40209 0.91610 0.74530
 C217 C -0.14602 0.65719 -0.10749
 C218 C -0.13898 0.67837 -0.01747
 C219 C -0.15401 0.70114 -0.03550
 C220 C -0.17625 0.70299 -0.14416
 C221 C -0.18361 0.68141 -0.23146
 C222 C -0.16855 0.65868 -0.21335
 C223 C -0.12928 0.63436 -0.09645
 C224 C -0.11471 0.61555 -0.08905
 C225 C -0.09658 0.59356 -0.08129
 C226 C -0.08523 0.58553 0.05940
 C227 C -0.06613 0.56525 0.06616
 C228 C -0.05810 0.55270 -0.06814
 C229 C -0.07004 0.56060 -0.20902
 C230 C -0.08911 0.58095 -0.21540
 H231 H -0.12160 0.67742 0.06500
 H232 H -0.14811 0.71735 0.03460
 H233 H -0.20042 0.68237 -0.31726
 H234 H -0.17410 0.64243 -0.28401
 H235 H -0.09076 0.59523 0.16381
 H236 H -0.05727 0.55971 0.17642
 H237 H -0.06425 0.55139 -0.31438
 H238 H -0.09764 0.58714 -0.32503
 C239 C 0.35903 1.16060 0.25346
 C240 C 0.36795 1.18050 0.34840
 C241 C 0.35249 1.20309 0.35376
 C242 C 0.32747 1.20636 0.26419
 C243 C 0.31898 1.18602 0.16740
 C244 C 0.33461 1.16342 0.16247
 C245 C 0.37447 1.13701 0.25661
 C246 C 0.38802 1.11765 0.26785
 C247 C 0.40491 1.09517 0.29169
 C248 C 0.41171 1.08759 0.44109
 C249 C 0.42973 1.06697 0.46746
 C250 C 0.44126 1.05354 0.34460
 C251 C 0.43378 1.06086 0.19444
 C252 C 0.41573 1.08163 0.16830
 H253 H 0.38656 1.17834 0.42179
 H254 H 0.35957 1.21727 0.43557
 H255 H 0.30070 1.18751 0.09179
 H256 H 0.32750 1.14806 0.08859
 H257 H 0.40351 1.09797 0.53742
 H258 H 0.43500 1.06183 0.58439
 H259 H 0.44234 1.05091 0.09755
 H260 H 0.41064 1.08738 0.05216
 C261 C 1.14830 -0.15838 -0.03756
 C262 C 1.14301 -0.18058 0.04559
 C263 C 1.15802 -0.20289 0.01542
 C264 C 1.17854 -0.20327 -0.09845
 C265 C 1.18426 -0.18068 -0.17846
 C266 C 1.16918 -0.15841 -0.14836
 C267 C 1.13132 -0.13600 -0.01474
 C268 C 1.11652 -0.11754 0.00142
 C269 C 1.09819 -0.09585 0.01728
 C270 C 1.08696 -0.08984 0.15925
 C271 C 1.06784 -0.06968 0.17225
 C272 C 1.05966 -0.05529 0.04296
 C273 C 1.07145 -0.06122 -0.09879
 C274 C 1.09055 -0.08138 -0.11140
 H275 H 1.12697 -0.18076 0.13204
 H276 H 1.15346 -0.21989 0.08034
 H277 H 1.19973 -0.18047 -0.26772
 H278 H 1.17340 -0.14135 -0.21361
 H279 H 1.09267 -0.10094 0.25959
 H280 H 1.05918 -0.06562 0.28304
 H281 H 1.06560 -0.05055 -0.20044
 H282 H 1.09903 -0.08593 -0.22196
 C283 C 0.64452 0.34230 0.37184
 C284 C 0.66993 0.33802 0.45305
 C285 C 0.68500 0.31538 0.43197
 C286 C 0.67471 0.29673 0.32971
 C287 C 0.64927 0.30134 0.24806
 C288 C 0.63431 0.32393 0.26907
 C289 C 0.62833 0.36511 0.39594
 C290 C 0.61396 0.38377 0.41477
 C291 C 0.59593 0.40549 0.43676
 C292 C 0.58308 0.41760 0.31074
 C293 C 0.56415 0.43769 0.33242
 C294 C 0.55777 0.44585 0.48077
 C295 C 0.57116 0.43381 0.60651
 C296 C 0.59008 0.41377 0.58452
 H297 H 0.67796 0.35207 0.53343
 H298 H 0.70438 0.31226 0.49737
 H299 H 0.64104 0.28751 0.16684
 H300 H 0.61470 0.32702 0.20552
 H301 H 0.58736 0.41126 0.19584
 H302 H 0.55417 0.44650 0.23325
 H303 H 0.56673 0.43963 0.72213
 H304 H 0.59980 0.40449 0.68297
 C305 C 0.85892 -0.15764 -0.18850
 C306 C 0.87236 -0.18034 -0.22682
 C307 C 0.85683 -0.20287 -0.24173
 C308 C 0.82731 -0.20323 -0.21827
 C309 C 0.81399 -0.17977 -0.18520
 C310 C 0.82968 -0.15732 -0.16997
 C311 C 0.87538 -0.13501 -0.16050
 C312 C 0.88961 -0.11645 -0.13341
 C313 C 0.90716 -0.09478 -0.09770
 C314 C 0.91369 -0.08888 0.05484
 C315 C 0.93205 -0.06877 0.09027
 C316 C 0.94419 -0.05433 -0.02673
 C317 C 0.93700 -0.06008 -0.17969
 C318 C 0.91863 -0.08020 -0.21476
 H319 H 0.89500 -0.18073 -0.24336
 H320 H 0.86818 -0.21979 -0.27462
 H321 H 0.79170 -0.17872 -0.16113
 H322 H 0.81906 -0.13984 -0.13942
 H323 H 0.90491 -0.10006 0.14638
 H324 H 0.93707 -0.06484 0.20929
 H325 H 0.94593 -0.04932 -0.27242
 H326 H 0.91376 -0.08462 -0.33341
 C327 C 0.35175 0.34347 0.45661
 C328 C 0.32905 0.34378 0.35135
 C329 C 0.31415 0.32137 0.31845
 C330 C 0.32190 0.29834 0.38999
 C331 C 0.34427 0.29839 0.49860
 C332 C 0.35910 0.32080 0.53147
 C333 C 0.36866 0.36596 0.48061
 C334 C 0.38354 0.38445 0.49654
 C335 C 0.40209 0.40611 0.50993
 C336 C 0.40905 0.41981 0.37902
 C337 C 0.42854 0.43976 0.38859
 C338 C 0.44142 0.44627 0.52963
 C339 C 0.43390 0.43270 0.66130
 C340 C 0.41437 0.41272 0.65132
 H341 H 0.32326 0.36120 0.29230
 H342 H 0.29721 0.32186 0.23335
 H343 H 0.35046 0.28102 0.55697
 H344 H 0.37664 0.32035 0.61319
 H345 H 0.39979 0.41478 0.26890
 H346 H 0.43385 0.44980 0.28508
 H347 H 0.44343 0.43723 0.77151
 H348 H 0.40923 0.40217 0.75333
 C349 C 0.14277 0.65811 -0.21119
 C350 C 0.12902 0.68139 -0.23253
 C351 C 0.14446 0.70406 -0.23298
 C352 C 0.17421 0.70402 -0.21147
 C353 C 0.18776 0.68013 -0.19320
 C354 C 0.17216 0.65750 -0.19271
 C355 C 0.12642 0.63509 -0.19993
 C356 C 0.11218 0.61623 -0.18592
 C357 C 0.09453 0.59425 -0.16432
 C358 C 0.08811 0.58641 -0.01628
 C359 C 0.06967 0.56602 0.00586
 C360 C 0.05735 0.55317 -0.11992
 C361 C 0.06430 0.56091 -0.26829
 C362 C 0.08275 0.58135 -0.29015
 H363 H 0.10623 0.68207 -0.24760
 H364 H 0.13278 0.72141 -0.25449
 H365 H 0.21028 0.67870 -0.17067
 H366 H 0.18302 0.63956 -0.17423
 H367 H 0.09702 0.59632 0.08197
 H368 H 0.06476 0.56058 0.12154
 H369 H 0.05513 0.55146 -0.36733
 H370 H 0.08748 0.58733 -0.40515
 C371 C 0.64289 1.15690 0.28005
 C372 C 0.62910 1.17951 0.23995
 C373 C 0.64423 1.20228 0.23120
 C374 C 0.67372 1.20298 0.26201
 C375 C 0.68742 1.17968 0.29769
 C376 C 0.67210 1.15697 0.30741
 C377 C 0.62672 1.13393 0.29866
 C378 C 0.61247 1.11516 0.31602
 C379 C 0.59464 1.09331 0.33790
 C380 C 0.58444 1.08785 0.48310
 C381 C 0.56558 1.06768 0.50317
 C382 C 0.55663 1.05272 0.37796
 C383 C 0.56748 1.05803 0.23294
 C384 C 0.58633 1.07821 0.21319
 H385 H 0.60650 1.17962 0.21670
 H386 H 0.63262 1.21913 0.19662
 H387 H 0.70973 1.17896 0.32733
 H388 H 0.68298 1.13957 0.33984
 H389 H 0.59067 1.09946 0.58034
 H390 H 0.55764 1.06410 0.61613
 H391 H 0.56102 1.04689 0.13410
 H392 H 0.59403 1.08231 0.10021
 C393 C 0.14357 0.34001 0.07181
 C394 C 0.13357 0.32322 0.18220
 C395 C 0.14834 0.30086 0.21630
 C396 C 0.17340 0.29493 0.14038
 C397 C 0.18331 0.31189 0.02914
 C398 C 0.16844 0.33431 -0.00496
 C399 C 0.12813 0.36305 0.03935
 C400 C 0.11440 0.38210 0.01784
 C401 C 0.09712 0.40448 -0.00039
 C402 C 0.08481 0.41062 -0.14243
 C403 C 0.06606 0.43115 -0.15558
 C404 C 0.05933 0.44570 -0.02641
 C405 C 0.07239 0.43972 0.11501
 C406 C 0.09112 0.41925 0.12774
 H407 H 0.11437 0.32746 0.24242
 H408 H 0.14038 0.28836 0.30379
 H409 H 0.20236 0.30771 -0.03240
 H410 H 0.17630 0.34715 -0.09106
 H411 H 0.08926 0.39924 -0.24225
 H412 H 0.05635 0.43527 -0.26596
 H413 H 0.06773 0.45054 0.21670
 H414 H 0.10048 0.41461 0.23830
 C415 C 0.64303 0.84519 0.67835
 C416 C 0.67044 0.84376 0.62207
 C417 C 0.68607 0.82130 0.63825
 C418 C 0.67438 0.79994 0.71054
 C419 C 0.64718 0.80185 0.77134
 C420 C 0.63161 0.82434 0.75523
 C421 C 0.62601 0.86745 0.64969
 C422 C 0.61128 0.88569 0.62250
 C423 C 0.59313 0.90700 0.58795
 C424 C 0.58238 0.92177 0.70618
 C425 C 0.56360 0.94166 0.67312
 C426 C 0.55525 0.94698 0.52114
 C427 C 0.56651 0.93224 0.40286
 C428 C 0.58531 0.91237 0.43626
 H429 H 0.67946 0.85979 0.56236
 H430 H 0.70686 0.82031 0.58926
 H431 H 0.63784 0.78584 0.82965
 H432 H 0.61046 0.82529 0.79996
 H433 H 0.58821 0.91771 0.82400
 H434 H 0.55529 0.95261 0.76677
 H435 H 0.56050 0.93582 0.28475
 H436 H 0.59343 0.90099 0.34383
 C437 C 0.85743 0.15733 0.17576
 C438 C 0.86045 0.17607 0.06385
 C439 C 0.84513 0.19872 0.07199
 C440 C 0.82654 0.20303 0.19262
 C441 C 0.82341 0.18399 0.30404
 C442 C 0.83883 0.16128 0.29571
 C443 C 0.87388 0.13434 0.16745
 C444 C 0.88827 0.11549 0.15714
 C445 C 0.90611 0.09348 0.14100
 C446 C 0.91678 0.08736 -0.00209
 C447 C 0.93536 0.06687 -0.01759
 C448 C 0.94356 0.05221 0.11032
 C449 C 0.93232 0.05823 0.25347
 C450 C 0.91375 0.07877 0.26869
 H451 H 0.87471 0.17318 -0.02972
 H452 H 0.84760 0.21280 -0.01709
 H453 H 0.80942 0.18682 0.39869
 H454 H 0.83638 0.14690 0.38312
 H455 H 0.91106 0.09867 -0.10148
 H456 H 0.94362 0.06276 -0.12924
 H457 H 0.93824 0.04736 0.35430
 H458 H 0.90569 0.08338 0.38019
 C459 C 0.35913 0.65874 0.70206
 C460 C 0.34108 0.66357 0.82320
 C461 C 0.32534 0.68615 0.82625
 C462 C 0.32749 0.70412 0.70778
 C463 C 0.34557 0.69895 0.58624
 C464 C 0.36129 0.67647 0.58376
 C465 C 0.37553 0.63568 0.69709
 C466 C 0.38976 0.61674 0.68628
 C467 C 0.40731 0.59467 0.66563
 C468 C 0.41946 0.58199 0.79143
 C469 C 0.43778 0.56144 0.76923
 C470 C 0.44421 0.55341 0.62060
 C471 C 0.43153 0.56607 0.49513
 C472 C 0.41325 0.58654 0.51765
 H473 H 0.33925 0.64995 0.91524
 H474 H 0.31179 0.68970 0.92200
 H475 H 0.34728 0.71218 0.49200
 H476 H 0.37511 0.67288 0.48915
 H477 H 0.41516 0.58823 0.90648
 H478 H 0.44727 0.55215 0.86808
 H479 H 0.43606 0.56043 0.37929
 H480 H 0.40410 0.59632 0.41944
   
