data_POSCAR
  _audit_creation_date              2014-09-24
  _audit_creation_method            'ToBaCCo'
  _symmetry_space_group_name_H-M    'P1'
  _symmetry_Int_Tables_number       1
  _symmetry_cell_setting            triclinic
  loop_
  _symmetry_equiv_pos_as_xyz
 x,y,z
_cell_length_a 36.4297
_cell_length_b 37.7567
_cell_length_c 13.0759
_cell_angle_alpha 89.936100
_cell_angle_beta 91.043000
_cell_angle_gamma 120.728600
loop_
  _atom_site_label
  _atom_site_type_symbol
  _atom_site_fract_x
  _atom_site_fract_y
  _atom_site_fract_z
C1 C 0.15132 0.46882 0.59555
 C2 C 0.15108 0.48950 0.50617
 C3 C 0.16809 0.48622 0.41450
 C4 C 0.19321 0.46747 0.41490
 C5 C 0.19932 0.45128 0.50808
 C6 C 0.17757 0.45100 0.59801
 C7 C 0.18252 0.43247 0.68662
 C8 C 0.21069 0.41791 0.69001
 C9 C 0.23496 0.42067 0.60479
 C10 C 0.22784 0.43594 0.51171
 C11 C 0.21571 0.46813 0.32813
 C12 C 0.24396 0.45365 0.33242
 C13 C 0.25079 0.43788 0.42354
 C14 C 0.28059 0.42459 0.42863
 C15 C 0.28622 0.40820 0.51953
 C16 C 0.26548 0.40780 0.61003
 H17 H 0.16517 0.42908 0.75539
 H18 H 0.21283 0.40394 0.76046
 H19 H 0.21302 0.48137 0.25703
 H20 H 0.26076 0.45523 0.26351
 H21 H 0.13601 0.50790 0.50609
 H22 H 0.31156 0.40117 0.52192
 C23 C 0.46048 -0.35286 0.39479
 C24 C 0.45935 -0.37038 0.48899
 C25 C 0.47006 -0.34795 0.58145
 C26 C 0.48215 -0.30573 0.57812
 C27 C 0.48190 -0.28766 0.48268
 C28 C 0.47103 -0.31135 0.39057
 C29 C 0.46948 -0.29344 0.29772
 C30 C 0.47820 -0.25305 0.29475
 C31 C 0.48881 -0.22915 0.38451
 C32 C 0.49123 -0.24619 0.47957
 C33 C 0.49186 -0.28177 0.66791
 C34 C 0.50106 -0.24123 0.66486
 C35 C 0.50087 -0.22257 0.57190
 C36 C 0.50687 -0.18222 0.56873
 C37 C 0.50518 -0.16625 0.47262
 C38 C 0.49576 -0.18896 0.38239
 H39 H 0.46042 -0.31087 0.22678
 H40 H 0.47597 -0.24084 0.22146
 H41 H 0.49101 -0.29436 0.74265
 H42 H 0.50693 -0.22538 0.73735
 H43 H 0.45325 -0.40164 0.48798
 H44 H 0.51219 -0.13476 0.46623
 C45 C 1.16439 0.71239 0.60521
 C46 C 1.15789 0.68945 0.51497
 C47 C 1.17936 0.70718 0.42541
 C48 C 1.21034 0.74944 0.42399
 C49 C 1.22053 0.77307 0.51548
 C50 C 1.19789 0.75447 0.60689
 C51 C 1.20877 0.77895 0.69578
 C52 C 1.24270 0.81936 0.69732
 C53 C 1.26660 0.83776 0.60931
 C54 C 1.25386 0.81525 0.51578
 C55 C 1.23248 0.76814 0.33475
 C56 C 1.26405 0.80954 0.33424
 C57 C 1.27550 0.83407 0.42370
 C58 C 1.30973 0.87585 0.42565
 C59 C 1.32090 0.89748 0.51981
 C60 C 1.30218 0.87844 0.61274
 H61 H 1.19161 0.76746 0.76598
 H62 H 1.24928 0.83646 0.76831
 H63 H 1.22600 0.75074 0.26430
 H64 H 1.27993 0.82121 0.26272
 H65 H 1.13612 0.65640 0.51348
 H66 H 1.34657 0.92917 0.52076
 C67 C 0.68531 0.55871 0.56911
 C68 C 0.66696 0.55289 0.47042
 C69 C 0.68808 0.55226 0.38306
 C70 C 0.72978 0.55881 0.39172
 C71 C 0.74952 0.56547 0.48987
 C72 C 0.72745 0.56573 0.57852
 C73 C 0.74872 0.57414 0.67410
 C74 C 0.78851 0.57809 0.68410
 C75 C 0.80960 0.57500 0.59874
 C76 C 0.79107 0.57089 0.49989
 C77 C 0.75202 0.55843 0.30539
 C78 C 0.79317 0.56465 0.31507
 C79 C 0.81339 0.57098 0.41161
 C80 C 0.85473 0.57626 0.42309
 C81 C 0.87257 0.58097 0.52199
 C82 C 0.84960 0.57774 0.61030
 H83 H 0.73542 0.57847 0.74283
 H84 H 0.80312 0.58486 0.75981
 H85 H 0.73774 0.55349 0.22950
 H86 H 0.80877 0.56398 0.24610
 H87 H 0.63402 0.54479 0.46010
 H88 H 0.90356 0.58377 0.52938
 C89 C 0.46522 0.29220 0.42072
 C90 C 0.45491 0.30235 0.51470
 C91 C 0.46173 0.28776 0.60701
 C92 C 0.47893 0.26171 0.60665
 C93 C 0.48641 0.24841 0.51198
 C94 C 0.47902 0.26331 0.41844
 C95 C 0.48700 0.24999 0.32572
 C96 C 0.50137 0.22220 0.32445
 C97 C 0.50938 0.20744 0.41593
 C98 C 0.50243 0.22108 0.51098
 C99 C 0.48953 0.24928 0.69820
 C100 C 0.50688 0.22393 0.69719
 C101 C 0.51183 0.20784 0.60491
 C102 C 0.52868 0.18121 0.60241
 C103 C 0.53627 0.16929 0.50757
 C104 C 0.52521 0.18021 0.41465
 H105 H 0.48214 0.26088 0.25305
 H106 H 0.50741 0.21337 0.25077
 H107 H 0.48540 0.25986 0.77165
 H108 H 0.51727 0.21803 0.76975
 H109 H 0.44313 0.32356 0.51641
 H110 H 0.54675 0.14710 0.50691
 C111 C 0.71303 0.14420 0.55583
 C112 C 0.70154 0.12750 0.45738
 C113 C 0.72582 0.14841 0.37288
 C114 C 0.76301 0.18744 0.38680
 C115 C 0.77605 0.20442 0.48704
 C116 C 0.75112 0.18245 0.57217
 C117 C 0.76366 0.20023 0.67019
 C118 C 0.79961 0.23921 0.68470
 C119 C 0.82425 0.26231 0.60148
 C120 C 0.81228 0.24461 0.50124
 C121 C 0.78656 0.21039 0.30286
 C122 C 0.82154 0.24994 0.31624
 C123 C 0.83470 0.26784 0.41433
 C124 C 0.86850 0.30893 0.42744
 C125 C 0.88035 0.32540 0.52653
 C126 C 0.85821 0.30372 0.61397
 H127 H 0.74536 0.18439 0.73669
 H128 H 0.80684 0.25140 0.76187
 H129 H 0.77758 0.19818 0.22569
 H130 H 0.83761 0.26652 0.24824
 H131 H 0.67143 0.09884 0.44533
 H132 H 0.90811 0.35604 0.53576
 N133 N 0.97157 0.56589 0.14826
 N134 N 0.94223 0.57386 0.18089
 N135 N 1.06481 0.58330 0.17335
 N136 N 1.09792 0.60595 0.23461
 N137 N 1.05965 0.60673 0.10754
 N138 N 1.08886 0.64589 0.12290
 N139 N 0.97669 0.54216 0.21348
 N140 N 0.95110 0.53323 0.29136
 C141 C 0.92973 0.55299 0.27042
 C142 C 1.11312 0.64487 0.20089
 N143 N 1.05382 0.47718 0.09709
 N144 N 1.08124 0.46421 0.10952
 N145 N 0.97323 0.46429 0.20643
 N146 N 0.95064 0.44714 0.28844
 N147 N 0.96607 0.43611 0.13712
 N148 N 0.93883 0.39883 0.17153
 N149 N 1.06121 0.50551 0.16591
 N150 N 1.09395 0.51286 0.22541
 Mn151 Mn 1.01904 0.52384 0.19054
 C152 C 1.10677 0.48751 0.18870
 C153 C 0.92921 0.40651 0.26572
 N154 N 1.04132 0.60031 -0.10907
 N155 N 1.06864 0.63734 -0.14501
 N156 N 0.94494 0.53204 -0.13744
 N157 N 0.92070 0.53278 -0.21245
 N158 N 0.95400 0.56169 -0.07089
 N159 N 0.93700 0.58363 -0.10222
 N160 N 1.03237 0.57182 -0.17859
 N161 N 1.05276 0.58837 -0.26332
 Mn162 Mn 1.00667 0.58394 0.01945
 C163 C 1.07581 0.62893 -0.24107
 C164 C 0.91497 0.56421 -0.18847
 N165 N 0.94685 0.42903 -0.08438
 N166 N 0.92374 0.39071 -0.12082
 N167 N 1.02809 0.49420 -0.18539
 N168 N 1.04842 0.49848 -0.27063
 N169 N 1.03468 0.47142 -0.12037
 N170 N 1.06016 0.45978 -0.15979
 N171 N 0.94060 0.45408 -0.14241
 N172 N 0.91235 0.43339 -0.21535
 Mn173 Mn 1.00031 0.45298 0.00756
 Mn174 Mn 0.98643 0.51292 -0.16040
 Cl175 Cl 1.00287 0.51828 0.01441
 C176 C 0.90143 0.39403 -0.20100
 C177 C 1.06873 0.47757 -0.25327
 N178 N 0.45870 0.40103 0.12470
 N179 N 0.45612 0.36749 0.16402
 N180 N 0.41682 0.45254 0.17763
 N181 N 0.39264 0.45459 0.24846
 N182 N 0.39408 0.42037 0.11743
 N183 N 0.35399 0.39939 0.14698
 N184 N 0.48174 0.43300 0.18528
 N185 N 0.49570 0.42210 0.26602
 C186 C 0.48017 0.38146 0.25126
 C187 C 0.35347 0.42157 0.22760
 N188 N 0.49988 0.56366 0.07725
 N189 N 0.50201 0.59935 0.09083
 N190 N 0.54557 0.51860 0.15932
 N191 N 0.57448 0.51995 0.22401
 N192 N 0.56415 0.54377 0.08283
 N193 N 0.60617 0.56365 0.09472
 N194 N 0.48041 0.53878 0.15353
 N195 N 0.46815 0.55673 0.22017
 Mn196 Mn 0.48117 0.48586 0.16987
 C197 C 0.48119 0.59423 0.17911
 C198 C 0.61209 0.54788 0.18228
 N199 N 0.38713 0.40956 -0.10382
 N200 N 0.34562 0.38644 -0.12494
 N201 N 0.47182 0.41643 -0.17223
 N202 N 0.48837 0.40158 -0.23566
 N203 N 0.45257 0.39074 -0.09711
 N204 N 0.45469 0.35703 -0.10900
 N205 N 0.40646 0.43530 -0.17866
 N206 N 0.37903 0.43095 -0.25139
 Mn207 Mn 0.42277 0.40491 0.01036
 C208 C 0.34123 0.40113 -0.21642
 C209 C 0.47784 0.36483 -0.19498
 N210 N 0.55703 0.53336 -0.13731
 N211 N 0.59513 0.55730 -0.17669
 N212 N 0.46835 0.52026 -0.20038
 N213 N 0.44718 0.52871 -0.26900
 N214 N 0.49197 0.55233 -0.14105
 N215 N 0.48805 0.58393 -0.16899
 N216 N 0.53366 0.50162 -0.19799
 N217 N 0.55517 0.50317 -0.27935
 Mn218 Mn 0.52859 0.54865 -0.02953
 Mn219 Mn 0.47003 0.46832 -0.18762
 Cl220 Cl 0.47565 0.47684 -0.00888
 C221 C 0.59371 0.53719 -0.26363
 C222 C 0.45949 0.56827 -0.24820
 N223 N 0.44101 -0.02760 0.13341
 N224 N 0.40292 -0.04378 0.17578
 N225 N 0.52913 0.04912 0.19633
 N226 N 0.55094 0.07920 0.26310
 N227 N 0.50382 0.05672 0.13986
 N228 N 0.50745 0.09206 0.16716
 N229 N 0.46631 -0.03506 0.19077
 N230 N 0.44629 -0.05632 0.27185
 C231 C 0.40664 -0.06256 0.26084
 C232 C 0.53725 0.10580 0.24369
 N233 N 0.61243 0.02208 0.08819
 N234 N 0.65446 0.04581 0.09827
 N235 N 0.53006 -0.05613 0.15655
 N236 N 0.51521 -0.08788 0.21821
 N237 N 0.54856 -0.06168 0.07795
 N238 N 0.54773 -0.09704 0.08555
 N239 N 0.59348 0.02822 0.16471
 N240 N 0.62168 0.05645 0.22804
 Mn241 Mn 0.52992 -0.00340 0.17771
 C242 C 0.65946 0.06729 0.18564
 C243 C 0.52601 -0.11334 0.17268
 N244 N 0.49508 0.06300 -0.07715
 N245 N 0.49045 0.09530 -0.09008
 N246 N 0.45299 -0.02402 -0.16839
 N247 N 0.42638 -0.04162 -0.24645
 N248 N 0.43292 -0.02080 -0.08948
 N249 N 0.39207 -0.03571 -0.11340
 N250 N 0.51626 0.05967 -0.15312
 N251 N 0.52695 0.08970 -0.21864
 Mn252 Mn 0.46766 0.01764 0.02695
 C253 C 0.51145 0.11219 -0.17768
 C254 C 0.38847 -0.04972 -0.21064
 N255 N 0.54033 -0.05513 -0.14217
 N256 N 0.53821 -0.08878 -0.17989
 N257 N 0.58125 0.03887 -0.18510
 N258 N 0.60534 0.06761 -0.25079
 N259 N 0.60447 0.02862 -0.12865
 N260 N 0.64504 0.05017 -0.15422
 N261 N 0.51716 -0.04482 -0.19881
 N262 N 0.49830 -0.07108 -0.27479
 Mn263 Mn 0.57674 -0.01688 -0.02636
 Mn264 Mn 0.51708 0.00760 -0.17681
 Cl265 Cl 0.52258 0.00102 0.00028
 C266 C 0.51120 -0.09849 -0.26206
 C267 C 0.64511 0.07466 -0.22992
 C268 C 1.15793 0.50226 0.32845
 C269 C 1.13746 0.47948 0.24494
 H270 H 1.15462 0.52881 0.34273
 H271 H 1.13645 0.45079 0.22983
 C272 C 0.45156 0.61966 0.30533
 C273 C 0.48079 0.62795 0.23458
 H274 H 0.42563 0.58802 0.31257
 H275 H 0.50782 0.65890 0.22680
 C276 C 0.33496 -0.10477 0.33824
 C277 C 0.37717 -0.07806 0.34685
 H278 H 0.32179 -0.11436 0.26180
 H279 H 0.39293 -0.07199 0.42115
 C280 C 0.87960 0.57460 0.33522
 C281 C 0.89888 0.55244 0.34275
 H282 H 0.88318 0.59239 0.26721
 H283 H 0.89337 0.53359 0.40983
 C284 C 0.46387 0.31470 0.32849
 C285 C 0.48387 0.35593 0.33115
 H286 H 0.44616 0.29771 0.26063
 H287 H 0.50240 0.37217 0.39903
 C288 C 0.70556 0.13196 0.27183
 C289 C 0.70021 0.09645 0.23612
 H290 H 0.68494 0.14274 0.24278
 H291 H 0.71999 0.08476 0.26517
 C292 C 0.53656 0.16281 -0.31271
 C293 C 0.51017 0.14538 -0.23415
 H294 H 0.56049 0.15414 -0.32281
 H295 H 0.48326 0.14946 -0.22222
 C296 C 0.65996 0.55236 -0.34392
 C297 C 0.62466 0.55489 -0.34518
 H298 H 0.66769 0.54265 -0.27294
 H299 H 0.61522 0.56591 -0.41103
 C300 C 0.86999 0.32501 -0.29046
 C301 C 0.88081 0.36471 -0.28643
 H302 H 0.86889 0.30940 -0.22014
 H303 H 0.87588 0.37837 -0.35446
 C304 C 0.51413 -0.15741 -0.34269
 C305 C 0.50033 -0.13053 -0.33979
 H306 H 0.53024 -0.16015 -0.27558
 H307 H 0.47955 -0.13090 -0.40063
 C308 C 0.28162 0.40316 -0.29447
 C309 C 0.30287 0.38305 -0.28236
 H310 H 0.28169 0.42125 -0.23008
 H311 H 0.30119 0.36221 -0.34149
 C312 C 1.13873 0.69191 -0.30898
 C313 C 1.09942 0.65869 -0.32093
 H314 H 1.15077 0.70195 -0.23189
 H315 H 1.08467 0.64938 -0.39624
 C316 C 0.86327 0.57096 -0.29359
 C317 C 0.90395 0.58437 -0.26845
 H318 H 0.83932 0.55184 -0.23868
 H319 H 0.92972 0.60626 -0.31556
 C320 C 0.45331 0.30360 -0.29863
 C321 C 0.48554 0.33546 -0.24902
 H322 H 0.42089 0.29654 -0.28657
 H323 H 0.51800 0.34601 -0.27159
 C324 C 0.67994 0.12399 -0.36648
 C325 C 0.68286 0.10199 -0.29028
 H326 H 0.64985 0.12249 -0.38216
 H327 H 0.71225 0.10191 -0.27675
 C328 C 1.12631 0.46768 -0.32074
 C329 C 1.09185 0.47146 -0.33464
 H330 H 1.13438 0.46376 -0.24336
 H331 H 1.08004 0.47222 -0.41058
 C332 C 0.47184 0.63251 -0.32773
 C333 C 0.44777 0.59160 -0.31654
 H334 H 0.49519 0.65035 -0.26841
 H335 H 0.42145 0.57322 -0.36924
 C336 C 0.32335 -0.10324 -0.29292
 C337 C 0.35160 -0.06304 -0.27963
 H338 H 0.32038 -0.12347 -0.23063
 H339 H 0.35435 -0.04072 -0.33545
 C340 C 0.48983 -0.16947 0.29098
 C341 C 0.52056 -0.15059 0.22253
 H342 H 0.46597 -0.16054 0.29694
 H343 H 0.54545 -0.15806 0.21601
 C344 C 0.31322 0.43635 0.34965
 C345 C 0.31631 0.40873 0.29273
 H346 H 0.33636 0.46890 0.34183
 H347 H 0.29201 0.37639 0.29612
 C348 C 1.16679 0.67900 0.33655
 C349 C 1.14429 0.68182 0.25867
 H350 H 1.16564 0.65004 0.34888
 H351 H 1.14350 0.70988 0.24777
 C352 C 0.52363 0.15717 0.32051
 C353 C 0.54936 0.14184 0.30884
 H354 H 0.49666 0.14738 0.26825
 H355 H 0.57679 0.15163 0.35941
 C356 C 0.66172 0.53809 0.28834
 C357 C 0.65357 0.56359 0.23515
 H358 H 0.64024 0.50513 0.27999
 H359 H 0.67444 0.59663 0.24307
 C360 C 0.89149 0.33629 0.33978
 C361 C 0.90144 0.37571 0.34023
 H362 H 0.90139 0.32461 0.27703
 H363 H 0.89131 0.38719 0.40306
   
