data_POSCAR
  _audit_creation_date              2014-09-24
  _audit_creation_method            'ToBaCCo'
  _symmetry_space_group_name_H-M    'P1'
  _symmetry_Int_Tables_number       1
  _symmetry_cell_setting            triclinic
  loop_
  _symmetry_equiv_pos_as_xyz
 x,y,z
_cell_length_a 43.4069
_cell_length_b 43.7966
_cell_length_c 43.0159
_cell_angle_alpha 90.124100
_cell_angle_beta 89.090900
_cell_angle_gamma 92.211100
loop_
  _atom_site_label
  _atom_site_type_symbol
  _atom_site_fract_x
  _atom_site_fract_y
  _atom_site_fract_z
C1 C -0.09155 0.32971 -0.00645
 C2 C -0.07954 0.32262 0.02270
 C3 C -0.04793 0.31656 0.02463
 C4 C -0.02832 0.31867 -0.00180
 C5 C -0.04102 0.32691 -0.03040
 C6 C -0.07268 0.33139 -0.03335
 C7 C 0.00501 0.31095 0.00001
 C8 C 0.02061 0.29942 -0.02630
 C9 C 0.05193 0.29299 -0.02534
 C10 C 0.06727 0.29526 0.00304
 C11 C 0.05197 0.30530 0.02994
 C12 C 0.02143 0.31443 0.02797
 H13 H -0.11606 0.33273 -0.00796
 H14 H -0.03861 0.30912 0.04625
 H15 H -0.02635 0.32957 -0.05086
 H16 H 0.00867 0.29547 -0.04790
 H17 H 0.09112 0.28912 0.00432
 H18 H 0.01053 0.32369 0.04853
 C19 C 0.42410 0.81125 0.49524
 C20 C 0.44098 0.82115 0.52126
 C21 C 0.47333 0.82303 0.51905
 C22 C 0.48911 0.81346 0.49201
 C23 C 0.47153 0.80305 0.46658
 C24 C 0.43926 0.80290 0.46763
 C25 C 0.52367 0.81317 0.49069
 C26 C 0.53993 0.81539 0.46204
 C27 C 0.57206 0.81284 0.46040
 C28 C 0.58840 0.80969 0.48808
 C29 C 0.57291 0.80879 0.51697
 C30 C 0.54068 0.80952 0.51799
 H31 H 0.39929 0.80851 0.49670
 H32 H 0.48605 0.83165 0.53885
 H33 H 0.48271 0.79459 0.44581
 H34 H 0.52775 0.81881 0.44067
 H35 H 0.61292 0.80636 0.48727
 H36 H 0.52904 0.80676 0.54028
 C37 C 1.07855 0.69635 -0.00540
 C38 C 1.06073 0.69723 0.02224
 C39 C 1.02846 0.69572 0.02012
 C40 C 1.01377 0.69106 -0.00855
 C41 C 1.03224 0.68903 -0.03565
 C42 C 1.06455 0.69240 -0.03459
 C43 C 0.97927 0.68894 -0.01014
 C44 C 0.96395 0.69846 -0.03686
 C45 C 0.93167 0.69693 -0.03832
 C46 C 0.91430 0.68757 -0.01196
 C47 C 0.92897 0.67835 0.01516
 C48 C 0.96128 0.67827 0.01546
 H49 H 1.10304 0.70065 -0.00428
 H50 H 1.01478 0.69841 0.04113
 H51 H 1.02152 0.68481 -0.05788
 H52 H 0.97695 0.70760 -0.05663
 H53 H 0.88953 0.68907 -0.01214
 H54 H 0.97225 0.67015 0.03611
 C55 C 0.56954 0.18974 0.50594
 C56 C 0.55173 0.19221 0.53328
 C57 C 0.51951 0.18884 0.53162
 C58 C 0.50495 0.18062 0.50352
 C59 C 0.52363 0.17634 0.47687
 C60 C 0.55552 0.18233 0.47763
 C61 C 0.47048 0.17806 0.50167
 C62 C 0.45546 0.18425 0.47366
 C63 C 0.42325 0.18379 0.47226
 C64 C 0.40556 0.17739 0.49919
 C65 C 0.41987 0.17068 0.52732
 C66 C 0.45219 0.17067 0.52818
 H67 H 0.59425 0.19405 0.50641
 H68 H 0.50597 0.19304 0.55241
 H69 H 0.51349 0.16940 0.45503
 H70 H 0.46857 0.19066 0.45294
 H71 H 0.38075 0.17783 0.49797
 H72 H 0.46292 0.16490 0.54980
 C73 C 0.71628 -0.08055 -0.00207
 C74 C 0.72133 -0.06548 0.02648
 C75 C 0.71733 -0.03376 0.02787
 C76 C 0.70588 -0.01757 0.00240
 C77 C 0.69939 -0.03380 -0.02518
 C78 C 0.70593 -0.06471 -0.02796
 C79 C 0.70139 0.01617 0.00447
 C80 C 0.70384 0.03486 -0.02222
 C81 C 0.69986 0.06658 -0.02049
 C82 C 0.69548 0.07992 0.00905
 C83 C 0.69335 0.06181 0.03598
 C84 C 0.69541 0.03011 0.03333
 H85 H 0.72055 -0.10449 -0.00492
 H86 H 0.72329 -0.02174 0.04907
 H87 H 0.69002 -0.02242 -0.04502
 H88 H 0.70922 0.02486 -0.04458
 H89 H 0.69543 0.10440 0.01157
 H90 H 0.69259 0.01645 0.05418
 C91 C 0.17818 0.40889 0.50670
 C92 C 0.18620 0.42354 0.53468
 C93 C 0.18934 0.45552 0.53550
 C94 C 0.18246 0.47328 0.50942
 C95 C 0.17256 0.45800 0.48224
 C96 C 0.17155 0.42600 0.48019
 C97 C 0.18716 0.50741 0.50991
 C98 C 0.19429 0.52351 0.48224
 C99 C 0.19894 0.55531 0.48216
 C100 C 0.19864 0.57126 0.51046
 C101 C 0.19226 0.55579 0.53859
 C102 C 0.18581 0.52411 0.53796
 H103 H 0.17868 0.38433 0.50535
 H104 H 0.19773 0.46630 0.55654
 H105 H 0.16626 0.47088 0.46204
 H106 H 0.19677 0.51147 0.46042
 H107 H 0.20492 0.59536 0.51055
 H108 H 0.18002 0.51263 0.55964
 C109 C 0.31186 1.08338 0.00921
 C110 C 0.31693 1.06709 0.03668
 C111 C 0.31924 1.03526 0.03516
 C112 C 0.31471 1.01919 0.00709
 C113 C 0.30916 1.03600 -0.01996
 C114 C 0.30864 1.06807 -0.01950
 C115 C 0.31432 0.98495 0.00629
 C116 C 0.32251 0.96902 -0.02098
 C117 C 0.32017 0.93688 -0.02255
 C118 C 0.31110 0.92054 0.00452
 C119 C 0.30383 0.93593 0.03218
 C120 C 0.30456 0.96789 0.03257
 H121 H 0.30860 1.10759 0.01062
 H122 H 0.32406 1.02307 0.05628
 H123 H 0.30464 1.02411 -0.04160
 H124 H 0.33059 0.98162 -0.04135
 H125 H 0.30796 0.89601 0.00411
 H126 H 0.29705 0.97930 0.05353
 C127 C 0.82253 0.58466 0.49575
 C128 C 0.81549 0.56998 0.52408
 C129 C 0.81499 0.53801 0.52536
 C130 C 0.82345 0.52045 0.49927
 C131 C 0.83189 0.53593 0.47147
 C132 C 0.83081 0.56784 0.46929
 C133 C 0.82211 0.48619 0.50075
 C134 C 0.81632 0.46852 0.47382
 C135 C 0.81411 0.43651 0.47513
 C136 C 0.81533 0.42201 0.50406
 C137 C 0.82013 0.43905 0.53126
 C138 C 0.82505 0.47079 0.52932
 H139 H 0.81998 0.60903 0.49402
 H140 H 0.80745 0.52705 0.54682
 H141 H 0.83908 0.52333 0.45113
 H142 H 0.81300 0.47941 0.45165
 H143 H 0.81185 0.39746 0.50570
 H144 H 0.83007 0.48333 0.55045
 O145 O 0.20295 0.24496 0.29367
 O146 O 0.24757 0.20699 0.23221
 O147 O 0.25738 0.22251 0.28980
 O148 O 0.19328 0.22983 0.23558
 O149 O 0.21294 0.27464 0.22014
 O150 O 0.27666 0.26768 0.27499
 O151 O 0.26743 0.25174 0.21692
 O152 O 0.22230 0.28980 0.27802
 Cu153 Cu 0.22328 0.22159 0.26433
 Cu154 Cu 0.24682 0.27544 0.24590
 C155 C 0.20531 0.27380 0.29656
 C156 C 0.26498 0.22289 0.21399
 C157 C 0.27769 0.24405 0.29193
 C158 C 0.19234 0.25333 0.21844
 O159 O 0.77552 0.78354 0.22019
 O160 O 0.79993 0.72999 0.28060
 O161 O 0.81192 0.73796 0.22169
 O162 O 0.76437 0.77679 0.27983
 O163 O 0.72498 0.74512 0.26968
 O164 O 0.77221 0.70731 0.20981
 O165 O 0.76072 0.69861 0.26901
 O166 O 0.73551 0.75255 0.21028
 Cu167 Cu 0.79185 0.76025 0.25177
 Cu168 Cu 0.74437 0.72276 0.23869
 C169 C 0.75140 0.77689 0.20479
 C170 C 0.78448 0.70506 0.28488
 C171 C 0.80012 0.71641 0.20553
 C172 C 0.73670 0.76750 0.28487
 O173 O 0.78406 0.24869 0.23577
 O174 O 0.71747 0.23258 0.28744
 O175 O 0.73308 0.21568 0.23146
 O176 O 0.76619 0.26868 0.29019
 O177 O 0.74247 0.30669 0.26833
 O178 O 0.70855 0.25389 0.21106
 O179 O 0.69341 0.27130 0.26742
 O180 O 0.75994 0.28663 0.21434
 Cu181 Cu 0.75264 0.23757 0.26326
 Cu182 Cu 0.72361 0.28334 0.23806
 C183 C 0.78342 0.27027 0.21624
 C184 C 0.69435 0.24940 0.28669
 C185 C 0.71513 0.22596 0.21121
 C186 C 0.75972 0.29677 0.28921
 O187 O 0.27678 0.74929 0.21720
 O188 O 0.24182 0.69999 0.27820
 O189 O 0.23353 0.70676 0.21847
 O190 O 0.28442 0.74283 0.27678
 O191 O 0.24949 0.77705 0.28670
 O192 O 0.19901 0.74152 0.22777
 O193 O 0.20664 0.73406 0.28764
 O194 O 0.24224 0.78391 0.22704
 Cu195 Cu 0.26257 0.72120 0.24667
 Cu196 Cu 0.22079 0.76254 0.25827
 C197 C 0.26538 0.77490 0.21158
 C198 C 0.21865 0.70881 0.29369
 C199 C 0.20790 0.71839 0.21272
 C200 C 0.27544 0.76587 0.29194
 O201 O 0.75282 0.21463 0.77485
 O202 O 0.76697 0.27812 0.71986
 O203 O 0.78211 0.26765 0.77671
 O204 O 0.73653 0.22597 0.71750
 O205 O 0.69441 0.24745 0.73494
 O206 O 0.73993 0.28927 0.79384
 O207 O 0.72453 0.29951 0.73666
 O208 O 0.71080 0.23629 0.79224
 Cu209 Cu 0.76376 0.24425 0.74554
 Cu210 Cu 0.71314 0.27015 0.76621
 C211 C 0.72973 0.21490 0.79329
 C212 C 0.74811 0.29953 0.71881
 C213 C 0.76874 0.28569 0.79525
 C214 C 0.70782 0.23016 0.71570
 O215 O 0.31445 0.74711 0.72802
 O216 O 0.26016 0.71471 0.78661
 O217 O 0.26742 0.70840 0.72682
 O218 O 0.30593 0.75459 0.78783
 O219 O 0.27468 0.79209 0.77893
 O220 O 0.23583 0.74578 0.71859
 O221 O 0.22867 0.75222 0.77850
 O222 O 0.28302 0.78443 0.71896
 Cu223 Cu 0.29020 0.72751 0.75812
 Cu224 Cu 0.25245 0.77243 0.74786
 C225 C 0.30796 0.77101 0.71328
 C226 C 0.23531 0.72795 0.79271
 C227 C 0.24498 0.71925 0.71238
 C228 C 0.29661 0.78110 0.79398
 O229 O 0.22826 0.26408 0.72388
 O230 O 0.25860 0.21434 0.78409
 O231 O 0.27399 0.22775 0.72672
 O232 O 0.21326 0.25066 0.78146
 O233 O 0.18293 0.21233 0.76550
 O234 O 0.24362 0.18977 0.70999
 O235 O 0.22869 0.17600 0.76737
 O236 O 0.19760 0.22604 0.70782
 Cu237 Cu 0.24656 0.24308 0.75562
 Cu238 Cu 0.21014 0.19722 0.73597
 C239 C 0.20789 0.25346 0.70547
 C240 C 0.24858 0.18677 0.78616
 C241 C 0.26911 0.20503 0.70889
 C242 C 0.18798 0.23513 0.78324
 O243 O 0.82197 0.78503 0.74975
 O244 O 0.77011 0.81440 0.69069
 O245 O 0.78359 0.82867 0.74819
 O246 O 0.80952 0.77132 0.69234
 O247 O 0.77221 0.73911 0.70835
 O248 O 0.74636 0.79667 0.76483
 O249 O 0.73300 0.78232 0.70736
 O250 O 0.78476 0.75285 0.76604
 Cu251 Cu 0.79995 0.80314 0.71853
 Cu252 Cu 0.75529 0.76453 0.73827
 C253 C 0.81206 0.76410 0.76813
 C254 C 0.74284 0.80305 0.68873
 C255 C 0.76105 0.82228 0.76645
 C256 C 0.79525 0.74558 0.69064
 C257 C 0.31663 0.08197 0.06777
 C258 C 0.31926 0.11358 0.07248
 C259 C 0.31136 0.12852 0.10241
 C260 C 0.32164 0.15885 0.10761
 C261 C 0.31237 0.17461 0.13431
 C262 C 0.29219 0.16037 0.15628
 C263 C 0.28254 0.12979 0.15139
 C264 C 0.29181 0.11407 0.12476
 C265 C 0.27975 0.17643 0.18393
 C266 C 0.28196 0.20805 0.18856
 H267 H 0.32698 0.12825 0.05349
 H268 H 0.33664 0.17056 0.09074
 H269 H 0.32095 0.19788 0.13728
 H270 H 0.26699 0.11822 0.16785
 H271 H 0.28261 0.09104 0.12136
 H272 H 0.26625 0.16278 0.20057
 H273 H 0.31317 0.06721 0.08776
 H274 H 0.29485 0.22271 0.17247
 C275 C 0.80719 0.58751 0.55228
 C276 C 0.81893 0.61722 0.55749
 C277 C 0.81103 0.63657 0.58458
 C278 C 0.82126 0.66734 0.58405
 C279 C 0.81446 0.68688 0.60864
 C280 C 0.79749 0.67598 0.63472
 C281 C 0.78704 0.64526 0.63527
 C282 C 0.79381 0.62564 0.61055
 C283 C 0.78931 0.69630 0.66092
 C284 C 0.80558 0.72367 0.66718
 H285 H 0.83501 0.62722 0.54053
 H286 H 0.83431 0.67649 0.56426
 H287 H 0.82200 0.71061 0.60664
 H288 H 0.77370 0.63636 0.65497
 H289 H 0.78560 0.60211 0.61221
 H290 H 0.76985 0.68948 0.67575
 H291 H 0.79251 0.57611 0.56951
 H292 H 0.82620 0.73000 0.65391
 C293 C 0.73026 0.91928 0.05363
 C294 C 0.73130 0.88744 0.05664
 C295 C 0.73857 0.87167 0.08594
 C296 C 0.72867 0.84098 0.08939
 C297 C 0.73503 0.82485 0.11632
 C298 C 0.75153 0.83908 0.14059
 C299 C 0.76213 0.86958 0.13691
 C300 C 0.75566 0.88582 0.10990
 C301 C 0.75921 0.82216 0.16909
 C302 C 0.74167 0.79673 0.17955
 H303 H 0.72410 0.87273 0.03775
 H304 H 0.71592 0.82934 0.07112
 H305 H 0.72755 0.80104 0.11761
 H306 H 0.77542 0.88087 0.15500
 H307 H 0.76459 0.90911 0.10772
 H308 H 0.77922 0.82988 0.18209
 H309 H 0.73484 0.93305 0.07408
 H310 H 0.72045 0.79012 0.16805
 C311 C 0.19329 0.40599 0.56291
 C312 C 0.18010 0.37698 0.56914
 C313 C 0.18710 0.35852 0.59682
 C314 C 0.17967 0.32706 0.59623
 C315 C 0.18613 0.30852 0.62151
 C316 C 0.19988 0.32118 0.64824
 C317 C 0.20707 0.35269 0.64896
 C318 C 0.20063 0.37124 0.62365
 C319 C 0.20833 0.30225 0.67509
 C320 C 0.19637 0.27266 0.68054
 H321 H 0.16415 0.36680 0.55265
 H322 H 0.16928 0.31664 0.57586
 H323 H 0.18095 0.28427 0.61951
 H324 H 0.21770 0.36303 0.66924
 H325 H 0.20603 0.39545 0.62553
 H326 H 0.22485 0.31209 0.69127
 H327 H 0.20873 0.41684 0.57942
 H328 H 0.17863 0.26275 0.66586
 C329 C 0.89978 0.32104 0.04833
 C330 C 0.90732 0.31470 0.07914
 C331 C 0.88359 0.31245 0.10429
 C332 C 0.88851 0.29365 0.12994
 C333 C 0.86589 0.28968 0.15325
 C334 C 0.83777 0.30455 0.15133
 C335 C 0.83356 0.32453 0.12645
 C336 C 0.85619 0.32855 0.10323
 C337 C 0.81225 0.29986 0.17440
 C338 C 0.81031 0.27569 0.19551
 H339 H 0.93052 0.30936 0.08522
 H340 H 0.90969 0.28151 0.13166
 H341 H 0.87074 0.27498 0.17254
 H342 H 0.81245 0.33679 0.12470
 H343 H 0.85211 0.34440 0.08463
 H344 H 0.79326 0.31517 0.17355
 H345 H 0.87576 0.32461 0.04363
 H346 H 0.82836 0.25944 0.19654
 C347 C 0.42595 0.82671 0.55193
 C348 C 0.39420 0.82986 0.55620
 C349 C 0.37801 0.82686 0.58679
 C350 C 0.39165 0.81368 0.61276
 C351 C 0.37445 0.80799 0.64004
 C352 C 0.34308 0.81492 0.64186
 C353 C 0.32987 0.82927 0.61646
 C354 C 0.34708 0.83500 0.58917
 C355 C 0.32332 0.80653 0.66923
 C356 C 0.32970 0.78241 0.68902
 H357 H 0.38013 0.83372 0.53617
 H358 H 0.41522 0.80662 0.61199
 H359 H 0.38581 0.79785 0.65944
 H360 H 0.30584 0.83510 0.61731
 H361 H 0.33593 0.84514 0.56957
 H362 H 0.30161 0.81769 0.67213
 H363 H 0.44060 0.82712 0.57204
 H364 H 0.35030 0.76969 0.68534
 C365 C 0.07389 0.70048 0.05191
 C366 C 0.10523 0.69738 0.05808
 C367 C 0.11872 0.70191 0.08926
 C368 C 0.14719 0.68921 0.09530
 C369 C 0.16165 0.69421 0.12374
 C370 C 0.14788 0.71216 0.14689
 C371 C 0.11937 0.72484 0.14086
 C372 C 0.10490 0.71984 0.11238
 C373 C 0.16352 0.72018 0.17638
 C374 C 0.18918 0.70548 0.18735
 H375 H 0.12061 0.68948 0.04005
 H376 H 0.15854 0.67566 0.07775
 H377 H 0.18400 0.68474 0.12685
 H378 H 0.10850 0.73918 0.15805
 H379 H 0.08347 0.73086 0.10833
 H380 H 0.15517 0.73948 0.18940
 H381 H 0.05846 0.70401 0.07150
 H382 H 0.19724 0.68523 0.17591
 C383 C 0.56604 0.19960 0.56358
 C384 C 0.59594 0.19146 0.57076
 C385 C 0.61104 0.19880 0.60068
 C386 C 0.63670 0.18235 0.60921
 C387 C 0.65249 0.18938 0.63656
 C388 C 0.64313 0.21342 0.65584
 C389 C 0.61715 0.22954 0.64755
 C390 C 0.60135 0.22249 0.62022
 C391 C 0.65996 0.22290 0.68425
 C392 C 0.69038 0.21560 0.69021
 H393 H 0.60856 0.17785 0.55421
 H394 H 0.64462 0.16396 0.59460
 H395 H 0.67186 0.17583 0.64237
 H396 H 0.60945 0.24820 0.66191
 H397 H 0.58218 0.23623 0.61419
 H398 H 0.64876 0.23859 0.69991
 H399 H 0.55177 0.20976 0.58134
 H400 H 0.70285 0.20117 0.67440
 C401 C 0.70131 0.08378 0.95174
 C402 C 0.69362 0.11452 0.94945
 C403 C 0.69566 0.13241 0.92017
 C404 C 0.71458 0.12438 0.89480
 C405 C 0.71668 0.14276 0.86818
 C406 C 0.70018 0.16977 0.86650
 C407 C 0.68105 0.17744 0.89170
 C408 C 0.67895 0.15912 0.91823
 C409 C 0.70253 0.19092 0.83954
 C410 C 0.72570 0.19045 0.81664
 H411 H 0.68379 0.12595 0.96931
 H412 H 0.72835 0.10435 0.89554
 H413 H 0.73131 0.13560 0.84919
 H414 H 0.66801 0.19803 0.89110
 H415 H 0.66428 0.16596 0.93743
 H416 H 0.68645 0.20923 0.83895
 H417 H 0.70729 0.07196 0.93049
 H418 H 0.74283 0.17320 0.81687
 C419 C 0.20547 0.57095 0.45218
 C420 C 0.19821 0.60127 0.44680
 C421 C 0.20370 0.61678 0.41654
 C422 C 0.18711 0.64275 0.40978
 C423 C 0.19209 0.65845 0.38177
 C424 C 0.21400 0.64848 0.35989
 C425 C 0.23064 0.62255 0.36676
 C426 C 0.22568 0.60690 0.39476
 C427 C 0.22167 0.66513 0.33061
 C428 C 0.20618 0.69030 0.31980
 H429 H 0.18631 0.61366 0.46486
 H430 H 0.17025 0.65100 0.42631
 H431 H 0.17908 0.67857 0.37790
 H432 H 0.24796 0.61458 0.35058
 H433 H 0.23969 0.58760 0.39943
 H434 H 0.24160 0.65788 0.31744
 H435 H 0.21382 0.55727 0.43308
 H436 H 0.18578 0.69804 0.33162
 C437 C 0.32493 0.92254 0.94843
 C438 C 0.32488 0.89084 0.94375
 C439 C 0.32207 0.87612 0.91276
 C440 C 0.32949 0.84535 0.90956
 C441 C 0.32392 0.82955 0.88180
 C442 C 0.31066 0.84426 0.85651
 C443 C 0.30376 0.87520 0.85953
 C444 C 0.30936 0.89100 0.88728
 C445 C 0.30124 0.82771 0.82782
 C446 C 0.31091 0.79868 0.81957
 H447 H 0.32672 0.87567 0.96334
 H448 H 0.33888 0.83321 0.92895
 H449 H 0.32892 0.80559 0.88090
 H450 H 0.29319 0.88701 0.84059
 H451 H 0.30242 0.91440 0.88900
 H452 H 0.28506 0.83862 0.81292
 H453 H 0.32826 0.93707 0.92822
 H454 H 0.32851 0.78787 0.83268
 C455 C 0.80862 0.41880 0.44626
 C456 C 0.81724 0.38853 0.44277
 C457 C 0.80981 0.36954 0.41520
 C458 C 0.78545 0.37615 0.39546
 C459 C 0.77820 0.35700 0.37043
 C460 C 0.79516 0.33080 0.36451
 C461 C 0.81914 0.32395 0.38451
 C462 C 0.82640 0.34314 0.40958
 C463 C 0.78731 0.30949 0.33879
 C464 C 0.77138 0.31847 0.31267
 H465 H 0.83082 0.37841 0.46066
 H466 H 0.77126 0.39552 0.39974
 H467 H 0.75864 0.36237 0.35647
 H468 H 0.83226 0.30369 0.38074
 H469 H 0.84498 0.33728 0.42472
 H470 H 0.79422 0.28605 0.34051
 H471 H 0.79879 0.43047 0.42685
 H472 H 0.76609 0.34220 0.30961
 C473 C 0.06801 0.28384 0.94568
 C474 C 0.09928 0.29103 0.94027
 C475 C 0.11592 0.28432 0.91087
 C476 C 0.10528 0.26199 0.88963
 C477 C 0.12231 0.25597 0.86254
 C478 C 0.15044 0.27207 0.85622
 C479 C 0.16080 0.29444 0.87744
 C480 C 0.14385 0.30039 0.90445
 C481 C 0.17036 0.26585 0.82875
 C482 C 0.16457 0.24285 0.80680
 H483 H 0.11185 0.30413 0.95763
 H484 H 0.08422 0.24861 0.89405
 H485 H 0.11333 0.23850 0.84704
 H486 H 0.18236 0.30719 0.87330
 H487 H 0.15264 0.31765 0.92044
 H488 H 0.19178 0.27929 0.82656
 H489 H 0.05420 0.27409 0.92717
 H490 H 0.14356 0.22884 0.80772
 C491 C 0.58740 0.81069 0.42940
 C492 C 0.61926 0.81459 0.42467
 C493 C 0.63569 0.80589 0.39565
 C494 C 0.66651 0.81601 0.39133
 C495 C 0.68386 0.80619 0.36581
 C496 C 0.67070 0.78586 0.34386
 C497 C 0.63973 0.77603 0.34800
 C498 C 0.62240 0.78583 0.37358
 C499 C 0.68864 0.77306 0.31747
 C500 C 0.71862 0.78291 0.30906
 H501 H 0.63317 0.82411 0.44323
 H502 H 0.67748 0.83114 0.40816
 H503 H 0.70770 0.81404 0.36416
 H504 H 0.62904 0.76015 0.33170
 H505 H 0.59904 0.77669 0.37640
 H506 H 0.67789 0.75447 0.30438
 H507 H 0.57291 0.80519 0.40977
 H508 H 0.72982 0.80207 0.32068
 C509 C 0.91678 0.70683 0.93284
 C510 C 0.88741 0.69609 0.92417
 C511 C 0.87214 0.70561 0.89540
 C512 C 0.88066 0.73289 0.87971
 C513 C 0.86502 0.74145 0.85312
 C514 C 0.84050 0.72294 0.84167
 C515 C 0.83187 0.69592 0.85755
 C516 C 0.84751 0.68736 0.88410
 C517 C 0.82227 0.73182 0.81454
 C518 C 0.83241 0.75352 0.79256
 H519 H 0.87559 0.67869 0.93823
 H520 H 0.89877 0.74817 0.88827
 H521 H 0.87171 0.76300 0.84230
 H522 H 0.81286 0.68141 0.84945
 H523 H 0.84028 0.66639 0.89588
 H524 H 0.79971 0.72074 0.81182
 H525 H 0.93033 0.72130 0.91704
 H526 H 0.85546 0.76371 0.79352
 C527 C 0.40839 0.18935 0.44223
 C528 C 0.38150 0.20559 0.44014
 C529 C 0.36481 0.20879 0.41074
 C530 C 0.34832 0.23519 0.40565
 C531 C 0.33074 0.23796 0.37892
 C532 C 0.32882 0.21402 0.35713
 C533 C 0.34513 0.18753 0.36233
 C534 C 0.36327 0.18503 0.38872
 C535 C 0.30807 0.21521 0.33030
 C536 C 0.30211 0.24237 0.31508
 H537 H 0.37285 0.21718 0.46058
 H538 H 0.34884 0.25358 0.42254
 H539 H 0.31773 0.25833 0.37597
 H540 H 0.34360 0.16863 0.34607
 H541 H 0.37512 0.16408 0.39244
 H542 H 0.29723 0.19400 0.32225
 H543 H 0.41957 0.18146 0.42117
 H544 H 0.31519 0.26313 0.32075
 C545 C 0.70300 0.91993 0.94156
 C546 C 0.72555 0.90038 0.93106
 C547 C 0.72571 0.88629 0.89990
 C548 C 0.75419 0.87999 0.88603
 C549 C 0.75552 0.86554 0.85717
 C550 C 0.72829 0.85663 0.84179
 C551 C 0.69972 0.86251 0.85582
 C552 C 0.69839 0.87759 0.88455
 C553 C 0.72963 0.83925 0.81238
 C554 C 0.75352 0.84441 0.79078
 H555 H 0.74549 0.89725 0.94539
 H556 H 0.77551 0.88615 0.89765
 H557 H 0.77790 0.86045 0.84743
 H558 H 0.67848 0.85536 0.84459
 H559 H 0.67609 0.88155 0.89511
 H560 H 0.71231 0.82126 0.80834
 H561 H 0.68519 0.92674 0.92595
 H562 H 0.76905 0.86417 0.79346
 C563 C 0.16687 0.41175 0.44915
 C564 C 0.16356 0.38027 0.44390
 C565 C 0.16798 0.36614 0.41285
 C566 C 0.15716 0.33593 0.40794
 C567 C 0.16369 0.32079 0.38005
 C568 C 0.18159 0.33554 0.35652
 C569 C 0.19163 0.36604 0.36115
 C570 C 0.18511 0.38114 0.38898
 C571 C 0.19175 0.31996 0.32763
 C572 C 0.18899 0.28846 0.32252
 H573 H 0.15837 0.36506 0.46320
 H574 H 0.14404 0.32379 0.42598
 H575 H 0.15495 0.29752 0.37745
 H576 H 0.20553 0.37798 0.34355
 H577 H 0.19471 0.40407 0.39202
 H578 H 0.20439 0.33379 0.31050
 H579 H 0.16775 0.42689 0.42928
 H580 H 0.17667 0.27364 0.33888
 C581 C 0.30356 0.08340 0.95239
 C582 C 0.30644 0.11511 0.94828
 C583 C 0.29928 0.13009 0.91860
 C584 C 0.27726 0.11742 0.89819
 C585 C 0.27016 0.13261 0.87085
 C586 C 0.28499 0.16085 0.86328
 C587 C 0.30679 0.17353 0.88386
 C588 C 0.31377 0.15838 0.91127
 C589 C 0.27724 0.17858 0.83531
 C590 C 0.25926 0.16701 0.81103
 H591 H 0.31603 0.12957 0.96637
 H592 H 0.26475 0.09622 0.90368
 H593 H 0.25246 0.12238 0.85640
 H594 H 0.31831 0.19539 0.87883
 H595 H 0.33056 0.16880 0.92680
 H596 H 0.28553 0.20222 0.83418
 H597 H 0.29830 0.06958 0.93210
 H598 H 0.25145 0.14330 0.81062
 C599 C 0.83542 0.58269 0.43849
 C600 C 0.84226 0.61399 0.43495
 C601 C 0.83877 0.63098 0.40548
 C602 C 0.82202 0.61877 0.38030
 C603 C 0.81628 0.63681 0.35440
 C604 C 0.82679 0.66761 0.35326
 C605 C 0.84454 0.67938 0.37781
 C606 C 0.85030 0.66134 0.40370
 C607 C 0.81917 0.68821 0.32738
 C608 C 0.79352 0.68314 0.30861
 H609 H 0.84952 0.62714 0.45505
 H610 H 0.81234 0.59567 0.38074
 H611 H 0.80340 0.62652 0.33552
 H612 H 0.85317 0.70292 0.37742
 H613 H 0.86321 0.67140 0.42275
 H614 H 0.83286 0.70926 0.32454
 H615 H 0.83241 0.56847 0.41810
 H616 H 0.77853 0.66311 0.31208
 C617 C 0.08150 0.69334 0.93710
 C618 C 0.11375 0.69383 0.93470
 C619 C 0.13125 0.70068 0.90552
 C620 C 0.16219 0.69265 0.90343
 C621 C 0.18040 0.70087 0.87750
 C622 C 0.16802 0.71741 0.85294
 C623 C 0.13707 0.72547 0.85501
 C624 C 0.11880 0.71718 0.88097
 C625 C 0.18717 0.72822 0.82600
 C626 C 0.21466 0.71494 0.81709
 H627 H 0.12728 0.68844 0.95468
 H628 H 0.17252 0.68044 0.92224
 H629 H 0.20439 0.69511 0.87744
 H630 H 0.12710 0.73861 0.83666
 H631 H 0.09537 0.72470 0.88212
 H632 H 0.17933 0.74735 0.81274
 H633 H 0.06867 0.69376 0.91572
 H634 H 0.22181 0.69450 0.82857
 C635 C 0.57367 0.18219 0.44835
 C636 C 0.59534 0.20567 0.44161
 C637 C 0.61197 0.20851 0.41150
 C638 C 0.62147 0.23769 0.40092
 C639 C 0.63838 0.24125 0.37319
 C640 C 0.64654 0.21553 0.35574
 C641 C 0.63716 0.18631 0.36639
 C642 C 0.61978 0.18279 0.39389
 C643 C 0.66717 0.21845 0.32819
 C644 C 0.66894 0.24434 0.30929
 H645 H 0.59844 0.22414 0.45822
 H646 H 0.61596 0.25781 0.41429
 H647 H 0.64601 0.26404 0.36613
 H648 H 0.64363 0.16617 0.35357
 H649 H 0.61337 0.15994 0.40183
 H650 H 0.68209 0.19974 0.32307
 H651 H 0.56711 0.16590 0.43044
 H652 H 0.65220 0.26188 0.31204
 C653 C 0.91536 0.33474 0.93661
 C654 C 0.88455 0.34046 0.93037
 C655 C 0.86997 0.33319 0.90022
 C656 C 0.84163 0.34585 0.89353
 C657 C 0.82504 0.33634 0.86742
 C658 C 0.83633 0.31353 0.84766
 C659 C 0.86531 0.30188 0.85360
 C660 C 0.88192 0.31142 0.87966
 C661 C 0.81833 0.30049 0.82146
 C662 C 0.78640 0.30238 0.81919
 H663 H 0.86983 0.34963 0.94830
 H664 H 0.83193 0.36267 0.90897
 H665 H 0.80333 0.34673 0.86317
 H666 H 0.87461 0.28439 0.83869
 H667 H 0.90332 0.30056 0.88432
 H668 H 0.83035 0.28666 0.80461
 H669 H 0.93074 0.33132 0.91694
 H670 H 0.77347 0.31517 0.83610
 C671 C 0.42194 0.79254 0.43995
 C672 C 0.39311 0.80352 0.43283
 C673 C 0.37583 0.79420 0.40476
 C674 C 0.35365 0.81359 0.39337
 C675 C 0.33641 0.80536 0.36727
 C676 C 0.34069 0.77720 0.35228
 C677 C 0.36303 0.75792 0.36361
 C678 C 0.38033 0.76619 0.38964
 C679 C 0.32234 0.76683 0.32518
 C680 C 0.29472 0.77952 0.31652
 H681 H 0.38360 0.82116 0.44737
 H682 H 0.34979 0.83531 0.40459
 H683 H 0.32004 0.82131 0.35900
 H684 H 0.36677 0.73608 0.35259
 H685 H 0.39663 0.75027 0.39817
 H686 H 0.32993 0.74692 0.31264
 H687 H 0.43341 0.77791 0.42349
 H688 H 0.28569 0.79864 0.32915
 C689 C 0.29380 0.91918 0.06064
 C690 C 0.30414 0.89027 0.06780
 C691 C 0.29462 0.87345 0.09637
 C692 C 0.31387 0.85124 0.10785
 C693 C 0.30539 0.83441 0.13440
 C694 C 0.27707 0.83912 0.14975
 C695 C 0.25792 0.86148 0.13831
 C696 C 0.26647 0.87840 0.11184
 C697 C 0.26643 0.82117 0.17735
 C698 C 0.27897 0.79371 0.18626
 H699 H 0.32137 0.88027 0.05286
 H700 H 0.33568 0.84703 0.09633
 H701 H 0.32128 0.81802 0.14271
 H702 H 0.23595 0.86553 0.14959
 H703 H 0.25064 0.89476 0.10322
 H704 H 0.24651 0.82900 0.19014
 H705 H 0.27977 0.93100 0.07748
 H706 H 0.29805 0.78447 0.17338
 C707 C 0.81844 0.42390 0.56191
 C708 C 0.79540 0.40158 0.56828
 C709 C 0.79177 0.38521 0.59815
 C710 C 0.76252 0.37290 0.60653
 C711 C 0.75839 0.35526 0.63335
 C712 C 0.78362 0.34926 0.65217
 C713 C 0.81292 0.36158 0.64383
 C714 C 0.81697 0.37966 0.61717
 C715 C 0.78030 0.32826 0.67897
 C716 C 0.75283 0.32423 0.69599
 H717 H 0.77812 0.39677 0.55083
 H718 H 0.74285 0.37656 0.59199
 H719 H 0.73567 0.34538 0.63857
 H720 H 0.83275 0.35688 0.65776
 H721 H 0.83994 0.38825 0.61091
 H722 H 0.80005 0.31533 0.68528
 H723 H 0.83334 0.43229 0.58026
 H724 H 0.73396 0.33916 0.69209
 C725 C 0.69200 0.07544 0.06751
 C726 C 0.68227 0.10490 0.07353
 C727 C 0.68733 0.12075 0.10355
 C728 C 0.66952 0.14582 0.11113
 C729 C 0.67559 0.16312 0.13783
 C730 C 0.70010 0.15598 0.15726
 C731 C 0.71724 0.13028 0.15022
 C732 C 0.71110 0.11293 0.12358
 C733 C 0.70920 0.17520 0.18425
 C734 C 0.70209 0.20589 0.18696
 H735 H 0.67066 0.11709 0.05555
 H736 H 0.65105 0.15227 0.09612
 H737 H 0.66111 0.18208 0.14292
 H738 H 0.73619 0.12423 0.16480
 H739 H 0.72587 0.09424 0.11820
 H740 H 0.72441 0.16566 0.20112
 H741 H 0.69950 0.06172 0.08668
 H742 H 0.68818 0.21644 0.16967
 C743 C 0.19488 0.57148 0.56913
 C744 C 0.19439 0.60320 0.57269
 C745 C 0.20361 0.61971 0.60144
 C746 C 0.19694 0.65070 0.60432
 C747 C 0.20748 0.66796 0.62965
 C748 C 0.22500 0.65453 0.65286
 C749 C 0.23147 0.62347 0.65010
 C750 C 0.22097 0.60621 0.62473
 C751 C 0.23840 0.67229 0.67915
 C752 C 0.22935 0.70140 0.68782
 H753 H 0.18726 0.61691 0.55338
 H754 H 0.18403 0.66181 0.58651
 H755 H 0.20258 0.69195 0.63023
 H756 H 0.24520 0.61260 0.66742
 H757 H 0.22746 0.58269 0.62308
 H758 H 0.25637 0.66195 0.69226
 H759 H 0.19787 0.55734 0.58937
 H760 H 0.21039 0.71180 0.67641
 C761 C 0.91172 0.67184 0.04461
 C762 C 0.87998 0.66496 0.04642
 C763 C 0.86162 0.66620 0.07581
 C764 C 0.87517 0.66621 0.10535
 C765 C 0.85737 0.67112 0.13212
 C766 C 0.82565 0.67593 0.12998
 C767 C 0.81174 0.67368 0.10084
 C768 C 0.82956 0.66897 0.07401
 C769 C 0.80692 0.68460 0.15742
 C770 C 0.81933 0.70264 0.18126
 H771 H 0.86742 0.66106 0.02518
 H772 H 0.89947 0.66275 0.10814
 H773 H 0.86855 0.67139 0.15443
 H774 H 0.78724 0.67690 0.09866
 H775 H 0.81840 0.66865 0.05166
 H776 H 0.78221 0.68012 0.15694
 H777 H 0.92468 0.67458 0.06572
 H778 H 0.84353 0.70960 0.18044
 C779 C 0.40206 0.16582 0.55675
 C780 C 0.37029 0.15921 0.55811
 C781 C 0.35133 0.16069 0.58704
 C782 C 0.36213 0.17522 0.61422
 C783 C 0.34253 0.17866 0.63996
 C784 C 0.31154 0.16811 0.63898
 C785 C 0.30110 0.15266 0.61233
 C786 C 0.32072 0.14913 0.58660
 C787 C 0.28929 0.17356 0.66472
 C788 C 0.29333 0.19715 0.68634
 H789 H 0.35838 0.15308 0.53697
 H790 H 0.38534 0.18489 0.61561
 H791 H 0.35183 0.18982 0.66039
 H792 H 0.27741 0.14409 0.61103
 H793 H 0.31173 0.13787 0.56601
 H794 H 0.26772 0.16025 0.66501
 H795 H 0.41472 0.16794 0.57813
 H796 H 0.31393 0.21181 0.68566
 C797 C 0.06775 0.30624 0.06019
 C798 C 0.08801 0.28364 0.06828
 C799 C 0.10529 0.28331 0.09763
 C800 C 0.11639 0.25547 0.10786
 C801 C 0.13464 0.25428 0.13422
 C802 C 0.14242 0.28108 0.15085
 C803 C 0.13137 0.30898 0.14062
 C804 C 0.11279 0.31012 0.11436
 C805 C 0.16382 0.28081 0.17731
 C806 C 0.16753 0.25503 0.19570
 H807 H 0.09052 0.26438 0.05271
 H808 H 0.11130 0.23456 0.09510
 H809 H 0.14352 0.23250 0.14076
 H810 H 0.13744 0.33000 0.15278
 H811 H 0.10529 0.33209 0.10666
 H812 H 0.17730 0.30154 0.18227
 H813 H 0.06158 0.32345 0.07703
 H814 H 0.15234 0.23506 0.19289
 C815 C 0.58980 0.80543 0.54630
 C816 C 0.61997 0.81696 0.55001
 C817 C 0.63763 0.81332 0.57883
 C818 C 0.66281 0.83350 0.58453
 C819 C 0.68088 0.83006 0.61081
 C820 C 0.67435 0.80596 0.63179
 C821 C 0.64891 0.78602 0.62623
 C822 C 0.63081 0.78952 0.60001
 C823 C 0.69361 0.80019 0.65919
 C824 C 0.72295 0.81352 0.66385
 H825 H 0.63077 0.83045 0.53148
 H826 H 0.66851 0.85204 0.56856
 H827 H 0.69977 0.84640 0.61437
 H828 H 0.64337 0.76722 0.64192
 H829 H 0.61208 0.77304 0.59607
 H830 H 0.68509 0.78287 0.67547
 H831 H 0.57735 0.79545 0.56602
 H832 H 0.73274 0.83037 0.64788
   
