data_POSCAR
  _audit_creation_date              2014-09-24
  _audit_creation_method            'ToBaCCo'
  _symmetry_space_group_name_H-M    'P1'
  _symmetry_Int_Tables_number       1
  _symmetry_cell_setting            triclinic
  loop_
  _symmetry_equiv_pos_as_xyz
 x,y,z
_cell_length_a 23.0298
_cell_length_b 22.9543
_cell_length_c 22.9270
_cell_angle_alpha 89.780000
_cell_angle_beta 91.038700
_cell_angle_gamma 90.291900
loop_
  _atom_site_label
  _atom_site_type_symbol
  _atom_site_fract_x
  _atom_site_fract_y
  _atom_site_fract_z
C1 C -0.00204 0.49993 0.25397
 C2 C 0.00447 0.50385 0.74601
 C3 C 0.25387 -0.00247 0.50684
 C4 C 0.74807 -0.00121 0.50095
 C5 C 0.49969 0.24947 0.99672
 C6 C 0.49506 0.74964 0.99627
 B7 B 0.99851 1.06285 0.04055
 B8 B 0.99696 1.06307 -0.03440
 B9 B 1.05866 1.04024 0.00230
 B10 B 1.03757 1.00248 0.06397
 B11 B 0.96286 1.00128 0.06621
 B12 B 0.93679 1.03791 0.00410
 B13 B 0.99756 0.94048 -0.03363
 B14 B 1.00047 0.94068 0.04164
 B15 B 0.93752 0.96285 0.00440
 B16 B 0.95933 1.00111 -0.05673
 B17 B 1.03419 1.00192 -0.05819
 B18 B 1.05968 0.96544 0.00261
 B19 B 0.56334 0.49723 0.46380
 B20 B 0.50552 0.53932 0.43860
 B21 B 0.50140 0.46465 0.43452
 B22 B 0.53445 0.43570 0.49654
 B23 B 0.55980 0.49361 0.53860
 B24 B 0.54185 0.55728 0.50252
 B25 B 0.43847 0.50040 0.53122
 B26 B 0.49626 0.45824 0.55625
 B27 B 0.50050 0.53293 0.56039
 B28 B 0.46741 0.56185 0.49839
 B29 B 0.44209 0.50392 0.45643
 B30 B 0.45995 0.44027 0.49239
 C31 C 1.04440 1.21972 0.10141
 C32 C 0.99364 1.23905 0.12645
 C33 C 0.94447 1.20367 0.12470
 C34 C 0.94663 1.14905 0.09817
 C35 C 0.99416 1.44805 0.21737
 C36 C 1.04600 1.16524 0.07494
 C37 C 0.99113 1.29724 0.14886
 C38 C 0.99071 1.34598 0.16788
 C39 C 0.99193 1.40203 0.19246
 C40 C 0.99806 1.12627 0.07481
 H41 H 1.08211 1.24808 0.09948
 H42 H 0.90341 1.21976 0.14026
 H43 H 0.90592 1.13047 0.08732
 H44 H 1.08333 1.15852 0.05009
 C45 C 1.04903 0.77963 0.08670
 C46 C 1.00929 0.76413 0.12903
 C47 C 0.96902 0.80490 0.14707
 C48 C 0.96743 0.86019 0.12153
 C49 C 0.99870 0.55378 0.21949
 C50 C 1.04726 0.83512 0.06149
 C51 C 1.00715 0.70551 0.15132
 C52 C 1.00437 0.65669 0.17061
 C53 C 1.00090 0.60043 0.19528
 C54 C 1.00608 0.87763 0.07750
 H55 H 1.07998 0.74807 0.07127
 H56 H 0.93693 0.79322 0.17913
 H57 H 0.93144 0.88678 0.13349
 H58 H 1.07540 0.84152 0.02602
 C59 C 0.98300 1.23472 -0.06736
 C60 C 1.00808 1.24140 -0.12152
 C61 C 1.02701 1.19199 -0.15066
 C62 C 1.02209 1.13669 -0.12472
 C63 C 1.00783 1.44988 -0.21927
 C64 C 0.97806 1.17961 -0.04214
 C65 C 1.01067 1.29862 -0.14787
 C66 C 1.01104 1.34690 -0.16911
 C67 C 1.00985 1.40312 -0.19483
 C68 C 0.99927 1.12821 -0.06830
 H69 H 0.96533 1.27205 -0.04509
 H70 H 1.04531 1.19595 -0.19371
 H71 H 1.03693 1.10156 -0.14998
 H72 H 0.95200 1.17837 -0.00448
 C73 C 0.96737 0.77232 -0.06751
 C74 C 0.99285 0.76400 -0.12128
 C75 C 1.01541 0.81201 -0.15074
 C76 C 1.01503 0.86727 -0.12501
 C77 C 1.00475 0.55633 -0.21745
 C78 C 0.96715 0.82757 -0.04226
 C79 C 0.99661 0.70624 -0.14555
 C80 C 0.99986 0.65801 -0.16608
 C81 C 1.00313 0.60231 -0.19204
 C82 C 0.99404 0.87660 -0.06811
 H83 H 0.94839 0.73586 -0.04436
 H84 H 1.03460 0.80666 -0.19317
 H85 H 1.03508 0.90065 -0.14933
 H86 H 0.94749 0.82989 -0.00098
 C87 C 1.12655 0.94725 0.20467
 C88 C 1.12130 0.99382 0.24322
 C89 C 1.09276 1.04398 0.22447
 C90 C 1.06877 1.04747 0.16821
 C91 C 1.21597 0.99405 0.45450
 C92 C 1.10254 0.95072 0.14808
 C93 C 1.14451 0.99081 0.30221
 C94 C 1.16447 0.99043 0.35139
 C95 C 1.19022 0.99183 0.40805
 C96 C 1.07326 1.00133 0.12750
 H97 H 1.14836 0.90773 0.21857
 H98 H 1.08758 1.08026 0.25402
 H99 H 1.04447 1.08582 0.15933
 H100 H 1.10639 0.91284 0.12112
 C101 C 1.07190 0.99856 -0.22858
 C102 C 1.13180 0.99475 -0.22869
 C103 C 1.16236 0.99340 -0.17549
 C104 C 1.13235 0.99585 -0.12262
 C105 C 1.22213 0.99510 -0.43818
 C106 C 1.04244 1.00101 -0.17637
 C107 C 1.15997 0.99349 -0.28436
 C108 C 1.17958 0.99324 -0.33285
 C109 C 1.20128 0.99385 -0.39020
 C110 C 1.07082 0.99992 -0.12081
 H111 H 1.04734 0.99973 -0.26938
 H112 H 1.20933 0.99101 -0.17468
 H113 H 1.15868 0.99656 -0.08346
 H114 H 0.99728 1.00344 -0.18240
 C115 C 0.86815 1.03948 0.20997
 C116 C 0.89558 1.00740 0.25352
 C117 C 0.94351 0.97445 0.23980
 C118 C 0.96290 0.97313 0.18248
 C119 C 0.78887 1.00183 0.45291
 C120 C 0.88802 1.03790 0.15284
 C121 C 0.87229 1.00638 0.31116
 C122 C 0.84951 1.00533 0.35795
 C123 C 0.81879 1.00371 0.41043
 C124 C 0.93540 1.00318 0.13499
 H125 H 0.83086 1.06605 0.22003
 H126 H 0.96573 0.94895 0.27316
 H127 H 0.99912 0.94547 0.17684
 H128 H 0.86396 1.06571 0.12567
 C129 C 0.88085 1.05030 -0.20383
 C130 C 0.86686 0.99732 -0.22988
 C131 C 0.87637 0.94562 -0.19922
 C132 C 0.90232 0.94697 -0.14368
 C133 C 0.77869 0.99881 -0.44261
 C134 C 0.90693 1.05158 -0.14852
 C135 C 0.84372 0.99647 -0.28844
 C136 C 0.82447 0.99690 -0.33759
 C137 C 0.80090 0.99802 -0.39467
 C138 C 0.92053 1.00001 -0.11740
 H139 H 0.87329 1.09086 -0.22704
 H140 H 0.86399 0.90415 -0.21825
 H141 H 0.90552 0.90610 -0.12110
 H142 H 0.91932 1.09339 -0.13332
 C143 C 1.19751 1.12747 -0.05417
 C144 C 1.23358 1.12892 -0.00471
 C145 C 1.21243 1.10891 0.04808
 C146 C 1.15708 1.08439 0.05065
 C147 C 1.44496 1.21655 -0.00428
 C148 C 1.14185 1.10284 -0.05116
 C149 C 1.29199 1.15130 -0.00711
 C150 C 1.34097 1.17007 -0.00710
 C151 C 1.39772 1.19360 -0.00570
 C152 C 1.12122 1.07652 0.00036
 H153 H 1.21262 1.14444 -0.09540
 H154 H 1.23882 1.11204 0.08759
 H155 H 1.14330 1.07269 0.09308
 H156 H 1.11724 1.10187 -0.09083
 C157 C 0.79927 1.13876 -0.03488
 C158 C 0.75600 1.11382 -0.00109
 C159 C 0.76905 1.06579 0.03347
 C160 C 0.82514 1.04338 0.03463
 C161 C 0.55043 1.21135 -0.00122
 C162 C 0.85553 1.11592 -0.03346
 C163 C 0.69828 1.13735 -0.00157
 C164 C 0.65031 1.15797 -0.00128
 C165 C 0.59540 1.18474 -0.00087
 C166 C 0.87129 1.06838 0.00272
 H167 H 0.78949 1.17564 -0.06297
 H168 H 0.73580 1.04510 0.05934
 H169 H 0.83149 1.00493 0.06103
 H170 H 0.88472 1.13593 -0.06245
 C171 C 1.22667 0.92681 0.03210
 C172 C 1.23797 0.88539 -0.01008
 C173 C 1.19332 0.86770 -0.04793
 C174 C 1.13781 0.89175 -0.04333
 C175 C 1.44311 0.78617 -0.00791
 C176 C 1.17130 0.95037 0.03645
 C177 C 1.29501 0.86031 -0.01280
 C178 C 1.34272 0.83894 -0.01279
 C179 C 1.39771 0.81209 -0.01076
 C180 C 1.12437 0.93364 -0.00044
 H181 H 1.26078 0.94105 0.06206
 H182 H 1.20131 0.83554 -0.08126
 H183 H 1.10643 0.87748 -0.07437
 H184 H 1.16686 0.98150 0.06988
 C185 C 0.80069 0.85450 0.03051
 C186 C 0.75822 0.87698 -0.00691
 C187 C 0.77236 0.92309 -0.04324
 C188 C 0.82796 0.94758 -0.04069
 C189 C 0.54874 0.78432 -0.00509
 C190 C 0.85641 0.87913 0.03261
 C191 C 0.69997 0.85376 -0.00701
 C192 C 0.65137 0.83389 -0.00671
 C193 C 0.59526 0.80875 -0.00598
 C194 C 0.87289 0.92743 -0.00192
 H195 H 0.79078 0.81777 0.05854
 H196 H 0.73972 0.94191 -0.07219
 H197 H 0.83194 0.98667 -0.06588
 H198 H 0.88519 0.85728 0.06057
 C199 C 0.69803 0.46748 0.35994
 C200 C 0.74384 0.49376 0.39061
 C201 C 0.73308 0.52199 0.44274
 C202 C 0.67695 0.52363 0.46428
 C203 C 0.94739 0.50001 0.29168
 C204 C 0.64178 0.46900 0.38180
 C205 C 0.80117 0.49489 0.36694
 C206 C 0.84865 0.49661 0.34585
 C207 C 0.90289 0.49878 0.31849
 C208 C 0.62910 0.49654 0.43527
 H209 H 0.70549 0.44663 0.31843
 H210 H 0.76795 0.54394 0.46639
 H211 H 0.67190 0.54899 0.50288
 H212 H 0.60868 0.45081 0.35457
 C213 C 0.28523 0.54868 0.39764
 C214 C 0.26631 0.49844 0.36955
 C215 C 0.30493 0.45273 0.36189
 C216 C 0.36142 0.45651 0.38511
 C217 C 0.05250 0.49690 0.28741
 C218 C 0.34144 0.55205 0.42071
 C219 C 0.20716 0.49464 0.34909
 C220 C 0.15749 0.49379 0.33195
 C221 C 0.10009 0.49487 0.30989
 C222 C 0.38118 0.50567 0.41709
 H223 H 0.25607 0.58512 0.40295
 H224 H 0.29118 0.41364 0.33908
 H225 H 0.38849 0.41980 0.37850
 H226 H 0.35175 0.59147 0.44179
 C227 C 0.69685 0.54381 0.63506
 C228 C 0.73560 0.49808 0.62767
 C229 C 0.71683 0.44830 0.59856
 C230 C 0.66082 0.44534 0.57464
 C231 C 0.94941 0.50327 0.71272
 C232 C 0.64058 0.54043 0.61096
 C233 C 0.79466 0.50158 0.64931
 C234 C 0.84421 0.50286 0.66731
 C235 C 0.90166 0.50320 0.69007
 C236 C 0.62090 0.49164 0.57832
 H237 H 0.71034 0.58265 0.65845
 H238 H 0.74595 0.41182 0.59326
 H239 H 0.65065 0.40613 0.55315
 H240 H 0.61359 0.57719 0.61750
 C241 C 0.26794 0.47875 0.55364
 C242 C 0.25797 0.50754 0.60577
 C243 C 0.30471 0.53249 0.63614
 C244 C 0.36082 0.52946 0.61401
 C245 C 0.05499 0.50620 0.70778
 C246 C 0.32407 0.47563 0.53174
 C247 C 0.20059 0.50838 0.63000
 C248 C 0.15331 0.50834 0.65193
 C249 C 0.09928 0.50752 0.68034
 C250 C 0.37268 0.50183 0.56030
 H251 H 0.23245 0.45759 0.53021
 H252 H 0.29808 0.55352 0.67772
 H253 H 0.39443 0.54645 0.64135
 H254 H 0.32853 0.45001 0.49318
 C255 C 0.54847 0.59884 0.28148
 C256 C 0.49912 0.62907 0.26366
 C257 C 0.45408 0.63624 0.30270
 C258 C 0.45787 0.61133 0.35847
 C259 C 0.49384 0.71760 0.05170
 C260 C 0.55187 0.57412 0.33706
 C261 C 0.49524 0.65212 0.20524
 C262 C 0.49366 0.67126 0.15619
 C263 C 0.49331 0.69492 0.09925
 C264 C 0.50656 0.57838 0.37749
 H265 H 0.58427 0.59339 0.25197
 H266 H 0.41551 0.66025 0.28985
 H267 H 0.42165 0.61791 0.38572
 H268 H 0.59056 0.55158 0.34658
 C269 C 0.47115 0.63843 0.69532
 C270 C 0.49544 0.60754 0.74204
 C271 C 0.52366 0.55529 0.73166
 C272 C 0.52652 0.53356 0.67504
 C273 C 0.49453 0.71023 0.94614
 C274 C 0.47392 0.61644 0.63870
 C275 C 0.49447 0.63139 0.79995
 C276 C 0.49415 0.65327 0.84762
 C277 C 0.49422 0.68206 0.90186
 C278 C 0.50042 0.56235 0.62647
 H279 H 0.45081 0.68021 0.70241
 H280 H 0.54445 0.53164 0.76724
 H281 H 0.55172 0.49488 0.67022
 H282 H 0.45764 0.64414 0.60512
 C283 C 0.53049 0.35924 0.29932
 C284 C 0.50487 0.38945 0.25287
 C285 C 0.47655 0.44161 0.26340
 C286 C 0.47458 0.46376 0.31994
 C287 C 0.50136 0.28694 0.04836
 C288 C 0.52858 0.38163 0.35584
 C289 C 0.50466 0.36500 0.19516
 C290 C 0.50395 0.34285 0.14757
 C291 C 0.50266 0.31428 0.09318
 C292 C 0.50155 0.43538 0.36831
 H293 H 0.55113 0.31762 0.29214
 H294 H 0.45493 0.46485 0.22804
 H295 H 0.44933 0.50241 0.32489
 H296 H 0.54592 0.35440 0.38924
 C297 C 0.54746 0.36273 0.69261
 C298 C 0.50207 0.37017 0.73116
 C299 C 0.45237 0.39922 0.71260
 C300 C 0.44904 0.42305 0.65678
 C301 C 0.50253 0.28344 0.94283
 C302 C 0.54373 0.38674 0.63650
 C303 C 0.50556 0.34832 0.78980
 C304 C 0.50609 0.33000 0.83901
 C305 C 0.50467 0.30672 0.89580
 C306 C 0.49488 0.41914 0.61699
 H307 H 0.58619 0.33931 0.70611
 H308 H 0.41623 0.40451 0.74174
 H309 H 0.41000 0.44469 0.64675
 H310 H 0.58016 0.38019 0.60949
 C311 C 0.60275 0.71373 0.54692
 C312 C 0.63024 0.73185 0.49655
 C313 C 0.63627 0.69286 0.45071
 C314 C 0.61231 0.63688 0.45457
 C315 C 0.71538 0.94418 0.49590
 C316 C 0.57895 0.65797 0.55041
 C317 C 0.65186 0.79051 0.49270
 C318 C 0.66996 0.83978 0.49179
 C319 C 0.69280 0.89680 0.49310
 C320 C 0.58126 0.61786 0.50400
 H321 H 0.59861 0.74319 0.58344
 H322 H 0.65849 0.70593 0.41149
 H323 H 0.61780 0.60953 0.41775
 H324 H 0.55854 0.64824 0.58998
 C325 C 0.63832 0.29992 0.46667
 C326 C 0.60807 0.25385 0.49187
 C327 C 0.55633 0.26483 0.52004
 C328 C 0.53467 0.32143 0.52237
 C329 C 0.71003 0.04974 0.49763
 C330 C 0.61642 0.35651 0.46892
 C331 C 0.63217 0.19613 0.49215
 C332 C 0.65408 0.14856 0.49323
 C333 C 0.68254 0.09429 0.49531
 C334 C 0.56316 0.36943 0.49597
 H335 H 0.67962 0.29238 0.44615
 H336 H 0.53308 0.22979 0.54135
 H337 H 0.49638 0.32673 0.54755
 H338 H 0.64358 0.38966 0.45184
 C339 C 0.36437 0.69794 0.52931
 C340 C 0.39500 0.74399 0.50455
 C341 C 0.44636 0.73286 0.47583
 C342 C 0.46743 0.67612 0.47275
 C343 C 0.29347 0.94788 0.50614
 C344 C 0.38571 0.64119 0.52633
 C345 C 0.37170 0.80194 0.50549
 C346 C 0.35017 0.84963 0.50580
 C347 C 0.32164 0.90379 0.50593
 C348 C 0.43881 0.62815 0.49905
 H349 H 0.32327 0.70565 0.55015
 H350 H 0.46979 0.76791 0.45473
 H351 H 0.50535 0.67074 0.44711
 H352 H 0.35824 0.60813 0.54306
 C353 C 0.36372 0.30517 0.54286
 C354 C 0.37033 0.26591 0.49731
 C355 C 0.39928 0.28359 0.44763
 C356 C 0.42365 0.33917 0.44455
 C357 C 0.28543 0.05309 0.50524
 C358 C 0.38825 0.36096 0.53938
 C359 C 0.34832 0.20729 0.50117
 C360 C 0.33010 0.15803 0.50305
 C361 C 0.30745 0.10084 0.50432
 C362 C 0.42044 0.37964 0.49061
 H363 H 0.34057 0.29243 0.58165
 H364 H 0.40412 0.25393 0.41138
 H365 H 0.44515 0.34858 0.40552
 H366 H 0.38220 0.38841 0.57598
   
