data_POSCAR
  _audit_creation_date              2014-09-24
  _audit_creation_method            'ToBaCCo'
  _symmetry_space_group_name_H-M    'P1'
  _symmetry_Int_Tables_number       1
  _symmetry_cell_setting            triclinic
  loop_
  _symmetry_equiv_pos_as_xyz
 x,y,z
_cell_length_a 26.7639
_cell_length_b 26.8755
_cell_length_c 34.3693
_cell_angle_alpha 90.982000
_cell_angle_beta 89.623800
_cell_angle_gamma 91.159500
loop_
  _atom_site_label
  _atom_site_type_symbol
  _atom_site_fract_x
  _atom_site_fract_y
  _atom_site_fract_z
O1 O -0.04185 0.45234 1.03667
 O2 O -0.04337 0.54721 0.96120
 O3 O -0.04108 0.45005 0.96109
 O4 O -0.03955 0.54960 1.03668
 O5 O 0.04309 0.55058 1.03521
 O6 O 0.04156 0.45233 0.95974
 O7 O 0.03925 0.54949 0.95972
 O8 O 0.04078 0.45332 1.03532
 Cu9 Cu -0.04977 0.49963 0.99905
 Cu10 Cu 0.04948 0.50159 0.99736
 C11 C -0.00051 0.43638 1.04850
 C12 C -0.00253 0.56480 0.94796
 C13 C 0.00021 0.43420 0.94791
 C14 C 0.00225 0.56710 1.04844
 O15 O 0.45321 -0.03994 0.46219
 O16 O 0.54827 -0.04410 0.53841
 O17 O 0.45075 -0.04076 0.53767
 O18 O 0.55078 -0.03856 0.46298
 O19 O 0.55260 0.04371 0.46629
 O20 O 0.45387 0.04150 0.54085
 O21 O 0.55139 0.03814 0.54174
 O22 O 0.45498 0.04233 0.46534
 Cu23 Cu 0.50055 -0.04911 0.50000
 Cu24 Cu 0.50350 0.04970 0.50388
 C25 C 0.43760 0.00166 0.45113
 C26 C 0.56626 -0.00391 0.55275
 C27 C 0.43519 0.00024 0.55157
 C28 C 0.56869 0.00316 0.45222
 C29 C -0.06051 0.01637 0.26815
 C30 C -0.01500 0.02521 0.24899
 C31 C -0.00635 0.07045 0.23031
 C32 C -0.04330 0.10683 0.23001
 C33 C -0.08865 0.09787 0.24992
 C34 C -0.09740 0.05282 0.26938
 C35 C 0.02365 -0.01299 0.24853
 C36 C 0.01466 -0.05887 0.22977
 C37 C 0.05139 -0.09548 0.22885
 C38 C 0.09690 -0.08602 0.24817
 C39 C 0.10602 -0.04028 0.26769
 C40 C 0.06934 -0.00365 0.26709
 H41 H -0.06695 -0.01893 0.28231
 H42 H 0.02918 0.07705 0.21579
 H43 H -0.02102 -0.06587 0.21576
 H44 H 0.07602 0.03212 0.28136
 H45 H -0.11714 0.12592 0.25027
 H46 H 0.12517 -0.11428 0.24809
 C47 C -0.01482 -0.07142 0.76823
 C48 C -0.02446 -0.02623 0.75037
 C49 C -0.07114 -0.01879 0.73353
 C50 C -0.10827 -0.05648 0.73399
 C51 C -0.09837 -0.10152 0.75250
 C52 C -0.05184 -0.10912 0.77006
 C53 C 0.01431 0.01344 0.74948
 C54 C 0.06018 0.00504 0.73097
 C55 C 0.09729 0.04273 0.72980
 C56 C 0.08837 0.08866 0.74862
 C57 C 0.04270 0.09722 0.76789
 C58 C 0.00556 0.05954 0.76753
 H59 H 0.02152 -0.07692 0.78102
 H60 H -0.07782 0.01591 0.71903
 H61 H 0.06678 -0.03091 0.71734
 H62 H -0.03016 0.06576 0.78164
 H63 H -0.12740 -0.13009 0.75416
 H64 H 0.11702 0.11770 0.74835
 C65 C 0.04855 -0.23323 0.20166
 C66 C 0.02513 -0.23271 0.16536
 C67 C 0.01018 -0.18755 0.15000
 C68 C 0.01865 -0.14306 0.17071
 C69 C 0.00384 -0.39248 0.07624
 C70 C 0.05708 -0.18868 0.22248
 C71 C 0.01786 -0.27804 0.14301
 C72 C 0.01235 -0.31510 0.12311
 C73 C 0.00700 -0.35738 0.09845
 C74 C 0.04226 -0.14306 0.20718
 H75 H 0.06040 -0.26799 0.21377
 H76 H -0.00759 -0.18666 0.12179
 H77 H 0.00751 -0.10852 0.15787
 H78 H 0.07483 -0.18993 0.25065
 C79 C -0.00354 0.19574 0.15056
 C80 C -0.01885 0.24144 0.16610
 C81 C -0.04193 0.24337 0.20276
 C82 C -0.04981 0.19969 0.22375
 C83 C -0.00098 0.39722 0.07635
 C84 C -0.01136 0.15212 0.17143
 C85 C -0.01240 0.28578 0.14355
 C86 C -0.00765 0.32195 0.12349
 C87 C -0.00326 0.36312 0.09866
 C88 C -0.03467 0.15354 0.20825
 H89 H 0.01397 0.19374 0.12207
 H90 H -0.05406 0.27855 0.21502
 H91 H -0.06735 0.20204 0.25217
 H92 H 0.00000 0.11712 0.15843
 C93 C 0.23539 0.04319 0.70318
 C94 C 0.23443 0.01822 0.66709
 C95 C 0.18887 0.00105 0.65172
 C96 C 0.14441 0.00890 0.67221
 C97 C 0.39449 0.00052 0.57894
 C98 C 0.19087 0.05109 0.72376
 C99 C 0.27973 0.01177 0.64491
 C100 C 0.31682 0.00703 0.62521
 C101 C 0.35922 0.00270 0.60085
 C102 C 0.14484 0.03411 0.70844
 H103 H 0.27047 0.05677 0.71529
 H104 H 0.18763 -0.01793 0.62367
 H105 H 0.10954 -0.00396 0.65934
 H106 H 0.19248 0.07011 0.75177
 C107 C -0.22234 -0.07947 0.67075
 C108 C -0.24485 -0.03291 0.67245
 C109 C -0.22400 0.00531 0.69566
 C110 C -0.18026 -0.00268 0.71649
 C111 C -0.39693 -0.00641 0.57958
 C112 C -0.17861 -0.08755 0.69155
 C113 C -0.28788 -0.02390 0.64886
 C114 C -0.32310 -0.01710 0.62806
 C115 C -0.36338 -0.01047 0.60247
 C116 C -0.15671 -0.04903 0.71427
 H117 H -0.23803 -0.10925 0.65272
 H118 H -0.24112 0.04149 0.69720
 H119 H -0.16467 0.02749 0.73414
 H120 H -0.16108 -0.12341 0.68886
 C121 C -0.05020 -0.24568 0.79705
 C122 C -0.02474 -0.24314 0.83251
 C123 C -0.00785 -0.19704 0.84729
 C124 C -0.01648 -0.15361 0.82686
 C125 C -0.00399 -0.39818 0.92165
 C126 C -0.05889 -0.20219 0.77651
 C127 C -0.01757 -0.28729 0.85477
 C128 C -0.01216 -0.32327 0.87465
 C129 C -0.00698 -0.36424 0.89936
 C130 C -0.04219 -0.15563 0.79126
 H131 H -0.06359 -0.28118 0.78541
 H132 H 0.01149 -0.19458 0.87487
 H133 H -0.00389 -0.11831 0.83933
 H134 H -0.07834 -0.20498 0.74901
 C135 C 0.04193 0.23517 0.79435
 C136 C 0.01827 0.23439 0.83080
 C137 C 0.00232 0.18902 0.84642
 C138 C 0.01010 0.14457 0.82585
 C139 C 0.00067 0.39383 0.92007
 C140 C 0.04977 0.19065 0.77366
 C141 C 0.01194 0.27966 0.85312
 C142 C 0.00726 0.31664 0.87305
 C143 C 0.00292 0.35881 0.89779
 C144 C 0.03400 0.14481 0.78926
 H145 H 0.05458 0.27010 0.78204
 H146 H -0.01564 0.18793 0.87475
 H147 H -0.00174 0.10988 0.83894
 H148 H 0.06780 0.19208 0.74540
 C149 C -0.18713 0.01262 0.34924
 C150 C -0.23307 0.02691 0.33432
 C151 C -0.23487 0.04966 0.29801
 C152 C -0.19082 0.05813 0.27673
 C153 C -0.39111 0.00499 0.42444
 C154 C -0.14315 0.02103 0.32807
 C155 C -0.27787 0.01954 0.35706
 C156 C -0.31449 0.01389 0.37724
 C157 C -0.35632 0.00835 0.40213
 C158 C -0.14444 0.04390 0.29157
 H159 H -0.18525 -0.00463 0.37744
 H160 H -0.27023 0.06099 0.28624
 H161 H -0.19306 0.07533 0.24856
 H162 H -0.10800 0.01036 0.34057
 C163 C 0.19595 0.00126 0.34720
 C164 C 0.24168 -0.01451 0.33198
 C165 C 0.24334 -0.03829 0.29544
 C166 C 0.19933 -0.04649 0.27428
 C167 C 0.39831 0.00212 0.42297
 C168 C 0.15200 -0.00689 0.32616
 C169 C 0.28629 -0.00810 0.35484
 C170 C 0.32266 -0.00354 0.37519
 C171 C 0.36405 0.00041 0.40037
 C172 C 0.15312 -0.03100 0.28950
 H173 H 0.19416 0.01929 0.37560
 H174 H 0.27854 -0.05081 0.28344
 H175 H 0.20146 -0.06466 0.24598
 H176 H 0.11697 0.00477 0.33896
   
