data_POSCAR
  _audit_creation_date              2014-09-24
  _audit_creation_method            'ToBaCCo'
  _symmetry_space_group_name_H-M    'P1'
  _symmetry_Int_Tables_number       1
  _symmetry_cell_setting            triclinic
  loop_
  _symmetry_equiv_pos_as_xyz
 x,y,z
_cell_length_a 33.8578
_cell_length_b 33.9514
_cell_length_c 33.8578
_cell_angle_alpha 90.000300
_cell_angle_beta 89.999900
_cell_angle_gamma 90.000000
loop_
  _atom_site_label
  _atom_site_type_symbol
  _atom_site_fract_x
  _atom_site_fract_y
  _atom_site_fract_z
Zn1 Zn 0.78103 0.71874 0.78114
 Zn2 Zn 0.78103 0.78128 0.71885
 Zn3 Zn 0.71894 0.71874 0.71885
 Zn4 Zn 0.71895 0.78127 0.78114
 O5 O 0.74999 0.75001 0.74999
 O6 O 0.83269 0.72664 0.77279
 O7 O 0.77288 0.77325 0.66722
 O8 O 0.72717 0.66724 0.72666
 O9 O 0.83269 0.77337 0.72720
 O10 O 0.77280 0.66723 0.77332
 O11 O 0.72710 0.72676 0.66721
 O12 O 0.66728 0.77337 0.77280
 O13 O 0.77280 0.83278 0.72667
 O14 O 0.66728 0.72665 0.72719
 O15 O 0.72717 0.83278 0.77333
 O16 O 0.72710 0.77325 0.83278
 O17 O 0.77288 0.72676 0.83277
 C18 C 0.85109 0.75001 0.74999
 C19 C 0.74999 0.75001 0.64882
 C20 C 0.74998 0.64886 0.74999
 C21 C 0.64888 0.75001 0.74999
 C22 C 0.74998 0.85116 0.75000
 C23 C 0.74999 0.75000 0.85117
 Zn24 Zn 0.21894 0.71874 0.71885
 Zn25 Zn 0.21895 0.78127 0.78114
 Zn26 Zn 0.28103 0.71874 0.78114
 Zn27 Zn 0.28103 0.78128 0.71885
 O28 O 0.24999 0.75001 0.74999
 O29 O 0.16728 0.72665 0.72719
 O30 O 0.22710 0.77325 0.83278
 O31 O 0.27280 0.66724 0.77332
 O32 O 0.16728 0.77337 0.77279
 O33 O 0.22717 0.66724 0.72666
 O34 O 0.27288 0.72676 0.83277
 O35 O 0.33269 0.77337 0.72720
 O36 O 0.22717 0.83278 0.77333
 O37 O 0.33269 0.72664 0.77279
 O38 O 0.27280 0.83278 0.72667
 O39 O 0.27288 0.77325 0.66722
 O40 O 0.22710 0.72676 0.66721
 C41 C 0.14888 0.75001 0.74999
 C42 C 0.24999 0.75000 0.85117
 C43 C 0.24998 0.64886 0.74999
 C44 C 0.35109 0.75001 0.74999
 C45 C 0.24998 0.85116 0.75000
 C46 C 0.24999 0.75001 0.64882
 Zn47 Zn 0.71883 0.21874 0.78104
 Zn48 Zn 0.78113 0.21874 0.71896
 Zn49 Zn 0.71883 0.28127 0.71895
 Zn50 Zn 0.78112 0.28128 0.78103
 O51 O 0.74998 0.25001 0.74999
 O52 O 0.72665 0.16724 0.77281
 O53 O 0.77278 0.22664 0.66729
 O54 O 0.66720 0.27325 0.72710
 O55 O 0.77331 0.16724 0.72718
 O56 O 0.66720 0.22677 0.77289
 O57 O 0.72718 0.27336 0.66729
 O58 O 0.77331 0.33278 0.77281
 O59 O 0.83276 0.22676 0.72711
 O60 O 0.72665 0.33278 0.72717
 O61 O 0.83276 0.27325 0.77288
 O62 O 0.77278 0.27337 0.83270
 O63 O 0.72718 0.22665 0.83270
 C64 C 0.74998 0.14886 0.75000
 C65 C 0.74998 0.25000 0.64889
 C66 C 0.64880 0.25001 0.74999
 C67 C 0.74998 0.35116 0.74999
 C68 C 0.85116 0.25001 0.74999
 C69 C 0.74998 0.25001 0.85110
 Zn70 Zn 0.28113 0.21874 0.71896
 Zn71 Zn 0.21883 0.21874 0.78104
 Zn72 Zn 0.28112 0.28128 0.78103
 Zn73 Zn 0.21883 0.28127 0.71895
 O74 O 0.24998 0.25001 0.74999
 O75 O 0.27331 0.16724 0.72718
 O76 O 0.22718 0.22665 0.83270
 O77 O 0.33276 0.27325 0.77288
 O78 O 0.22665 0.16724 0.77281
 O79 O 0.33276 0.22676 0.72711
 O80 O 0.27278 0.27337 0.83270
 O81 O 0.22665 0.33278 0.72717
 O82 O 0.16720 0.22677 0.77289
 O83 O 0.27331 0.33278 0.77281
 O84 O 0.16720 0.27325 0.72710
 O85 O 0.22718 0.27337 0.66729
 O86 O 0.27278 0.22664 0.66729
 C87 C 0.24998 0.14886 0.75000
 C88 C 0.24998 0.25001 0.85110
 C89 C 0.35116 0.25001 0.74999
 C90 C 0.24998 0.35116 0.74999
 C91 C 0.14880 0.25001 0.74999
 C92 C 0.24998 0.25000 0.64889
 Zn93 Zn 0.71898 0.71871 0.21885
 Zn94 Zn 0.78106 0.78124 0.21885
 Zn95 Zn 0.71898 0.78125 0.28114
 Zn96 Zn 0.78106 0.71871 0.28114
 O97 O 0.75002 0.74998 0.24999
 O98 O 0.72713 0.72673 0.16721
 O99 O 0.77284 0.83275 0.22666
 O100 O 0.66732 0.77334 0.27279
 O101 O 0.77291 0.77322 0.16721
 O102 O 0.66732 0.72661 0.22720
 O103 O 0.72721 0.83275 0.27332
 O104 O 0.77291 0.72674 0.33278
 O105 O 0.83273 0.77334 0.22720
 O106 O 0.72713 0.77323 0.33277
 O107 O 0.83273 0.72662 0.27279
 O108 O 0.77284 0.66721 0.27333
 O109 O 0.72721 0.66721 0.22667
 C110 C 0.75002 0.74998 0.14882
 C111 C 0.75002 0.85113 0.24999
 C112 C 0.64892 0.74998 0.24999
 C113 C 0.75002 0.74998 0.35117
 C114 C 0.85113 0.74998 0.24999
 C115 C 0.75002 0.64883 0.25000
 Zn116 Zn 0.28106 0.78124 0.21885
 Zn117 Zn 0.21898 0.71871 0.21885
 Zn118 Zn 0.28106 0.71871 0.28114
 Zn119 Zn 0.21898 0.78125 0.28114
 O120 O 0.25002 0.74998 0.24999
 O121 O 0.27291 0.77322 0.16721
 O122 O 0.22721 0.66721 0.22667
 O123 O 0.33273 0.72662 0.27279
 O124 O 0.22713 0.72673 0.16721
 O125 O 0.33273 0.77334 0.22720
 O126 O 0.27284 0.66721 0.27333
 O127 O 0.22713 0.77323 0.33277
 O128 O 0.16732 0.72661 0.22720
 O129 O 0.27291 0.72674 0.33278
 O130 O 0.16732 0.77334 0.27279
 O131 O 0.22721 0.83275 0.27332
 O132 O 0.27284 0.83275 0.22666
 C133 C 0.25002 0.74998 0.14882
 C134 C 0.25002 0.64883 0.25000
 C135 C 0.35113 0.74998 0.24999
 C136 C 0.25002 0.74998 0.35117
 C137 C 0.14892 0.74998 0.24999
 C138 C 0.25002 0.85113 0.24999
 Zn139 Zn 0.71886 0.28125 0.21896
 Zn140 Zn 0.78116 0.21871 0.21895
 Zn141 Zn 0.78116 0.28124 0.28104
 Zn142 Zn 0.71887 0.21871 0.28103
 O143 O 0.75001 0.24998 0.24999
 O144 O 0.72721 0.27335 0.16729
 O145 O 0.83279 0.22673 0.22710
 O146 O 0.77334 0.33275 0.27281
 O147 O 0.77281 0.22662 0.16729
 O148 O 0.72668 0.33275 0.22718
 O149 O 0.83279 0.27322 0.27289
 O150 O 0.72721 0.22661 0.33270
 O151 O 0.77334 0.16721 0.22717
 O152 O 0.77281 0.27334 0.33270
 O153 O 0.72669 0.16721 0.27281
 O154 O 0.66723 0.22673 0.27288
 O155 O 0.66723 0.27322 0.22711
 C156 C 0.75001 0.24998 0.14889
 C157 C 0.85119 0.24998 0.24999
 C158 C 0.75001 0.35113 0.25000
 C159 C 0.75001 0.24998 0.35110
 C160 C 0.75001 0.14883 0.24999
 C161 C 0.64883 0.24998 0.24999
 Zn162 Zn 0.21886 0.28125 0.21896
 Zn163 Zn 0.28116 0.21871 0.21895
 Zn164 Zn 0.28116 0.28124 0.28104
 Zn165 Zn 0.21887 0.21871 0.28103
 O166 O 0.25001 0.24998 0.24999
 O167 O 0.22721 0.27335 0.16729
 O168 O 0.33279 0.22674 0.22710
 O169 O 0.27334 0.33275 0.27281
 O170 O 0.27281 0.22662 0.16729
 O171 O 0.22668 0.33275 0.22718
 O172 O 0.33279 0.27322 0.27289
 O173 O 0.22721 0.22661 0.33270
 O174 O 0.27334 0.16721 0.22717
 O175 O 0.27281 0.27334 0.33270
 O176 O 0.22669 0.16721 0.27281
 O177 O 0.16723 0.22673 0.27288
 O178 O 0.16723 0.27322 0.22711
 C179 C 0.25001 0.24999 0.14889
 C180 C 0.35119 0.24998 0.24999
 C181 C 0.25001 0.35113 0.25000
 C182 C 0.25001 0.24998 0.35110
 C183 C 0.25001 0.14883 0.24999
 C184 C 0.14883 0.24998 0.24999
 C185 C -0.02187 0.75001 0.74999
 C186 C -0.04286 0.71757 0.76485
 C187 C -0.08415 0.71771 0.76518
 C188 C -0.10522 0.75001 0.74999
 C189 C -0.08415 0.78231 0.73481
 C190 C -0.04286 0.78245 0.73514
 C191 C 0.02184 0.75001 0.74999
 C192 C 0.04283 0.78245 0.76486
 C193 C 0.08412 0.78231 0.76518
 C194 C 0.10519 0.75001 0.74999
 C195 C 0.08412 0.71771 0.73480
 C196 C 0.04283 0.71757 0.73513
 H197 H -0.09958 0.69236 0.77696
 H198 H -0.09958 0.80766 0.72303
 H199 H 0.09955 0.80765 0.77697
 H200 H 0.09955 0.69236 0.72301
 H201 H -0.02727 0.80769 0.72331
 H202 H 0.02725 0.80768 0.77669
 H203 H -0.02727 0.69233 0.77668
 H204 H 0.02725 0.69234 0.72330
 C205 C 0.74998 -0.02193 0.75000
 C206 C 0.76637 -0.04309 0.71824
 C207 C 0.76661 -0.08425 0.71837
 C208 C 0.74998 -0.10527 0.75000
 C209 C 0.73335 -0.08425 0.78163
 C210 C 0.73359 -0.04309 0.78176
 C211 C 0.74998 0.02195 0.75000
 C212 C 0.71822 0.04310 0.76639
 C213 C 0.71835 0.08427 0.76663
 C214 C 0.74998 0.10528 0.75000
 C215 C 0.78160 0.08427 0.73337
 C216 C 0.78174 0.04310 0.73361
 H217 H 0.77937 -0.09964 0.69342
 H218 H 0.72059 -0.09964 0.80658
 H219 H 0.69340 0.09965 0.77939
 H220 H 0.80656 0.09965 0.72061
 H221 H 0.72139 -0.02789 0.80707
 H222 H 0.69290 0.02790 0.77859
 H223 H 0.77856 -0.02788 0.69293
 H224 H 0.80705 0.02790 0.72142
 C225 C 0.75000 0.74999 -0.02185
 C226 C 0.73509 0.78241 -0.04282
 C227 C 0.73476 0.78228 -0.08410
 C228 C 0.74999 0.75000 -0.10516
 C229 C 0.76523 0.71771 -0.08411
 C230 C 0.76491 0.71757 -0.04283
 C231 C 0.75001 0.74999 0.02184
 C232 C 0.73511 0.71757 0.04281
 C233 C 0.73478 0.71770 0.08409
 C234 C 0.75002 0.74998 0.10515
 C235 C 0.76525 0.78226 0.08409
 C236 C 0.76492 0.78241 0.04282
 H237 H 0.72294 0.80761 -0.09953
 H238 H 0.77705 0.69238 -0.09955
 H239 H 0.72297 0.69237 0.09953
 H240 H 0.77707 0.80759 0.09953
 H241 H 0.77677 0.69235 -0.02724
 H242 H 0.72324 0.69235 0.02722
 H243 H 0.72323 0.80763 -0.02723
 H244 H 0.77678 0.80763 0.02723
 C245 C 0.52184 0.75001 0.74999
 C246 C 0.54283 0.78245 0.76486
 C247 C 0.58412 0.78231 0.76518
 C248 C 0.60519 0.75001 0.74999
 C249 C 0.58412 0.71771 0.73480
 C250 C 0.54283 0.71757 0.73513
 C251 C 0.47813 0.75001 0.74999
 C252 C 0.45714 0.71757 0.76485
 C253 C 0.41585 0.71771 0.76518
 C254 C 0.39478 0.75001 0.74999
 C255 C 0.41585 0.78231 0.73481
 C256 C 0.45714 0.78245 0.73514
 H257 H 0.59955 0.80765 0.77698
 H258 H 0.59955 0.69237 0.72301
 H259 H 0.40042 0.69236 0.77696
 H260 H 0.40042 0.80766 0.72303
 H261 H 0.52725 0.69234 0.72330
 H262 H 0.47273 0.69233 0.77668
 H263 H 0.52725 0.80768 0.77669
 H264 H 0.47273 0.80769 0.72331
 C265 C 0.24998 -0.02193 0.75000
 C266 C 0.26637 -0.04309 0.71824
 C267 C 0.26661 -0.08425 0.71837
 C268 C 0.24998 -0.10527 0.75000
 C269 C 0.23335 -0.08425 0.78163
 C270 C 0.23359 -0.04309 0.78176
 C271 C 0.24998 0.02195 0.75000
 C272 C 0.21822 0.04310 0.76639
 C273 C 0.21835 0.08427 0.76663
 C274 C 0.24998 0.10528 0.75000
 C275 C 0.28160 0.08427 0.73337
 C276 C 0.28174 0.04310 0.73361
 H277 H 0.27937 -0.09964 0.69342
 H278 H 0.22059 -0.09964 0.80658
 H279 H 0.19340 0.09965 0.77939
 H280 H 0.30656 0.09965 0.72061
 H281 H 0.22139 -0.02789 0.80707
 H282 H 0.19290 0.02790 0.77859
 H283 H 0.27857 -0.02788 0.69292
 H284 H 0.30705 0.02790 0.72141
 C285 C 0.25000 0.74999 -0.02185
 C286 C 0.23509 0.78241 -0.04282
 C287 C 0.23476 0.78228 -0.08410
 C288 C 0.24999 0.75000 -0.10516
 C289 C 0.26523 0.71771 -0.08411
 C290 C 0.26490 0.71757 -0.04283
 C291 C 0.25001 0.74999 0.02184
 C292 C 0.23510 0.71757 0.04281
 C293 C 0.23478 0.71770 0.08409
 C294 C 0.25002 0.74998 0.10515
 C295 C 0.26525 0.78227 0.08409
 C296 C 0.26492 0.78241 0.04282
 H297 H 0.22294 0.80761 -0.09953
 H298 H 0.27705 0.69238 -0.09955
 H299 H 0.22296 0.69237 0.09953
 H300 H 0.27707 0.80759 0.09953
 H301 H 0.27677 0.69235 -0.02724
 H302 H 0.22324 0.69235 0.02722
 H303 H 0.22323 0.80763 -0.02723
 H304 H 0.27678 0.80763 0.02722
 C305 C -0.02187 0.25001 0.74999
 C306 C -0.04284 0.21759 0.73509
 C307 C -0.08412 0.21773 0.73476
 C308 C -0.10518 0.25001 0.74999
 C309 C -0.08412 0.28229 0.76523
 C310 C -0.04284 0.28243 0.76490
 C311 C 0.02182 0.25001 0.74999
 C312 C 0.04280 0.28243 0.73509
 C313 C 0.08408 0.28229 0.73476
 C314 C 0.10513 0.25001 0.74999
 C315 C 0.08408 0.21773 0.76523
 C316 C 0.04280 0.21759 0.76490
 H317 H -0.09956 0.19239 0.72294
 H318 H -0.09956 0.30762 0.77704
 H319 H 0.09952 0.30762 0.72294
 H320 H 0.09951 0.19240 0.77705
 H321 H -0.02725 0.30765 0.77676
 H322 H 0.02721 0.30765 0.72322
 H323 H -0.02725 0.19237 0.72323
 H324 H 0.02721 0.19237 0.77677
 C325 C 0.74998 0.52195 0.74999
 C326 C 0.73359 0.54311 0.71823
 C327 C 0.73335 0.58427 0.71836
 C328 C 0.74998 0.60528 0.74999
 C329 C 0.76661 0.58427 0.78162
 C330 C 0.76637 0.54310 0.78175
 C331 C 0.74998 0.47807 0.74999
 C332 C 0.78174 0.45691 0.76638
 C333 C 0.78160 0.41575 0.76662
 C334 C 0.74998 0.39473 0.74999
 C335 C 0.71835 0.41575 0.73335
 C336 C 0.71822 0.45691 0.73360
 H337 H 0.72059 0.59965 0.69341
 H338 H 0.77937 0.59965 0.80657
 H339 H 0.80656 0.40036 0.77938
 H340 H 0.69340 0.40036 0.72060
 H341 H 0.77856 0.52790 0.80706
 H342 H 0.80705 0.47211 0.77857
 H343 H 0.72139 0.52790 0.69291
 H344 H 0.69290 0.47211 0.72140
 C345 C 0.75000 0.25000 -0.02186
 C346 C 0.76485 0.28244 -0.04285
 C347 C 0.76517 0.28231 -0.08414
 C348 C 0.74998 0.25001 -0.10521
 C349 C 0.73480 0.21771 -0.08414
 C350 C 0.73513 0.21756 -0.04285
 C351 C 0.75000 0.25000 0.02185
 C352 C 0.76486 0.21756 0.04284
 C353 C 0.76519 0.21769 0.08412
 C354 C 0.75001 0.24999 0.10520
 C355 C 0.73482 0.28229 0.08413
 C356 C 0.73515 0.28243 0.04285
 H357 H 0.77696 0.30766 -0.09957
 H358 H 0.72301 0.19236 -0.09957
 H359 H 0.77698 0.19234 0.09955
 H360 H 0.72303 0.30764 0.09957
 H361 H 0.72330 0.19233 -0.02727
 H362 H 0.77669 0.19232 0.02725
 H363 H 0.77669 0.30768 -0.02726
 H364 H 0.72331 0.30767 0.02726
 C365 C 0.52182 0.25001 0.74999
 C366 C 0.54280 0.28243 0.73509
 C367 C 0.58408 0.28229 0.73476
 C368 C 0.60513 0.25001 0.74999
 C369 C 0.58408 0.21773 0.76523
 C370 C 0.54280 0.21759 0.76490
 C371 C 0.47813 0.25001 0.74999
 C372 C 0.45716 0.21759 0.73509
 C373 C 0.41588 0.21773 0.73476
 C374 C 0.39482 0.25001 0.74999
 C375 C 0.41588 0.28229 0.76523
 C376 C 0.45716 0.28243 0.76490
 H377 H 0.59952 0.30762 0.72294
 H378 H 0.59951 0.19240 0.77705
 H379 H 0.40044 0.19240 0.72294
 H380 H 0.40044 0.30762 0.77705
 H381 H 0.52721 0.19237 0.77677
 H382 H 0.47275 0.19237 0.72322
 H383 H 0.52721 0.30765 0.72322
 H384 H 0.47275 0.30765 0.77676
 C385 C 0.24998 0.52195 0.74999
 C386 C 0.23359 0.54311 0.71823
 C387 C 0.23335 0.58427 0.71836
 C388 C 0.24998 0.60528 0.74999
 C389 C 0.26661 0.58427 0.78162
 C390 C 0.26637 0.54310 0.78175
 C391 C 0.24998 0.47807 0.74999
 C392 C 0.28174 0.45691 0.76638
 C393 C 0.28160 0.41575 0.76662
 C394 C 0.24998 0.39473 0.74999
 C395 C 0.21835 0.41575 0.73336
 C396 C 0.21822 0.45691 0.73360
 H397 H 0.22059 0.59965 0.69341
 H398 H 0.27937 0.59965 0.80657
 H399 H 0.30655 0.40036 0.77938
 H400 H 0.19340 0.40036 0.72060
 H401 H 0.27857 0.52790 0.80706
 H402 H 0.30705 0.47211 0.77858
 H403 H 0.22139 0.52790 0.69291
 H404 H 0.19290 0.47212 0.72140
 C405 C 0.24999 0.25000 -0.02186
 C406 C 0.26485 0.28244 -0.04285
 C407 C 0.26517 0.28231 -0.08414
 C408 C 0.24998 0.25001 -0.10521
 C409 C 0.23480 0.21770 -0.08414
 C410 C 0.23513 0.21756 -0.04285
 C411 C 0.25000 0.25000 0.02185
 C412 C 0.26486 0.21756 0.04284
 C413 C 0.26519 0.21769 0.08412
 C414 C 0.25001 0.24999 0.10520
 C415 C 0.23482 0.28229 0.08413
 C416 C 0.23514 0.28243 0.04285
 H417 H 0.27696 0.30765 -0.09957
 H418 H 0.22301 0.19236 -0.09957
 H419 H 0.27698 0.19234 0.09955
 H420 H 0.22303 0.30764 0.09957
 H421 H 0.22330 0.19233 -0.02727
 H422 H 0.27669 0.19232 0.02725
 H423 H 0.27668 0.30768 -0.02726
 H424 H 0.22331 0.30767 0.02726
 C425 C -0.02183 0.74997 0.24999
 C426 C -0.04282 0.71754 0.26485
 C427 C -0.08411 0.71768 0.26518
 C428 C -0.10518 0.74998 0.24999
 C429 C -0.08411 0.78228 0.23481
 C430 C -0.04282 0.78241 0.23513
 C431 C 0.02188 0.74997 0.24999
 C432 C 0.04287 0.78241 0.26485
 C433 C 0.08416 0.78228 0.26518
 C434 C 0.10523 0.74998 0.24999
 C435 C 0.08416 0.71767 0.23481
 C436 C 0.04287 0.71754 0.23514
 H437 H -0.09955 0.69233 0.27697
 H438 H -0.09954 0.80762 0.22302
 H439 H 0.09959 0.80763 0.27697
 H440 H 0.09959 0.69233 0.22302
 H441 H -0.02724 0.80765 0.22330
 H442 H 0.02728 0.80765 0.27668
 H443 H -0.02724 0.69230 0.27669
 H444 H 0.02728 0.69230 0.22331
 C445 C 0.75002 -0.02196 0.24999
 C446 C 0.76641 -0.04312 0.21823
 C447 C 0.76666 -0.08428 0.21836
 C448 C 0.75002 -0.10530 0.24999
 C449 C 0.73339 -0.08428 0.28162
 C450 C 0.73363 -0.04312 0.28175
 C451 C 0.75002 0.02192 0.24999
 C452 C 0.71826 0.04307 0.26638
 C453 C 0.71839 0.08424 0.26662
 C454 C 0.75002 0.10525 0.24999
 C455 C 0.78164 0.08424 0.23336
 C456 C 0.78178 0.04308 0.23360
 H457 H 0.77941 -0.09967 0.19341
 H458 H 0.72063 -0.09967 0.30657
 H459 H 0.69344 0.09962 0.27938
 H460 H 0.80659 0.09963 0.22060
 H461 H 0.72144 -0.02791 0.30707
 H462 H 0.69295 0.02787 0.27858
 H463 H 0.77861 -0.02792 0.19292
 H464 H 0.80709 0.02787 0.22140
 C465 C 0.75001 0.75000 0.52184
 C466 C 0.76491 0.78242 0.54282
 C467 C 0.76523 0.78229 0.58409
 C468 C 0.75000 0.75001 0.60515
 C469 C 0.73477 0.71772 0.58409
 C470 C 0.73510 0.71758 0.54282
 C471 C 0.75002 0.75000 0.47815
 C472 C 0.76492 0.71757 0.45718
 C473 C 0.76525 0.71771 0.41590
 C474 C 0.75002 0.74999 0.39484
 C475 C 0.73479 0.78227 0.41589
 C476 C 0.73511 0.78241 0.45717
 H477 H 0.77705 0.80762 0.59953
 H478 H 0.72294 0.69239 0.59953
 H479 H 0.77708 0.69238 0.40046
 H480 H 0.72297 0.80760 0.40045
 H481 H 0.72324 0.69236 0.52722
 H482 H 0.77679 0.69236 0.47277
 H483 H 0.77678 0.80764 0.52722
 H484 H 0.72324 0.80763 0.47276
 C485 C 0.52188 0.74997 0.24999
 C486 C 0.54287 0.78241 0.26485
 C487 C 0.58416 0.78228 0.26518
 C488 C 0.60523 0.74998 0.24999
 C489 C 0.58416 0.71767 0.23481
 C490 C 0.54287 0.71754 0.23514
 C491 C 0.47817 0.74997 0.24999
 C492 C 0.45718 0.71754 0.26486
 C493 C 0.41589 0.71768 0.26518
 C494 C 0.39482 0.74998 0.24999
 C495 C 0.41589 0.78227 0.23480
 C496 C 0.45718 0.78241 0.23513
 H497 H 0.59959 0.80763 0.27696
 H498 H 0.59959 0.69232 0.22303
 H499 H 0.40046 0.69233 0.27697
 H500 H 0.40046 0.80762 0.22301
 H501 H 0.52728 0.69230 0.22331
 H502 H 0.47276 0.69230 0.27669
 H503 H 0.52728 0.80765 0.27668
 H504 H 0.47276 0.80765 0.22330
 C505 C 0.25002 -0.02196 0.24999
 C506 C 0.26641 -0.04312 0.21823
 C507 C 0.26666 -0.08428 0.21836
 C508 C 0.25002 -0.10530 0.24999
 C509 C 0.23339 -0.08428 0.28162
 C510 C 0.23363 -0.04312 0.28175
 C511 C 0.25002 0.02192 0.24999
 C512 C 0.21826 0.04307 0.26638
 C513 C 0.21839 0.08424 0.26662
 C514 C 0.25002 0.10525 0.24999
 C515 C 0.28164 0.08424 0.23335
 C516 C 0.28178 0.04308 0.23360
 H517 H 0.27941 -0.09967 0.19341
 H518 H 0.22063 -0.09967 0.30657
 H519 H 0.19344 0.09962 0.27938
 H520 H 0.30659 0.09963 0.22060
 H521 H 0.22144 -0.02791 0.30706
 H522 H 0.19294 0.02787 0.27857
 H523 H 0.27861 -0.02792 0.19291
 H524 H 0.30709 0.02787 0.22140
 C525 C 0.25001 0.75000 0.52184
 C526 C 0.26491 0.78242 0.54281
 C527 C 0.26523 0.78229 0.58409
 C528 C 0.24999 0.75001 0.60515
 C529 C 0.23476 0.71772 0.58409
 C530 C 0.23510 0.71758 0.54282
 C531 C 0.25001 0.74999 0.47815
 C532 C 0.26492 0.71757 0.45718
 C533 C 0.26525 0.71771 0.41590
 C534 C 0.25002 0.74999 0.39484
 C535 C 0.23479 0.78227 0.41589
 C536 C 0.23511 0.78241 0.45717
 H537 H 0.27705 0.80762 0.59953
 H538 H 0.22294 0.69239 0.59953
 H539 H 0.27708 0.69238 0.40046
 H540 H 0.22297 0.80760 0.40045
 H541 H 0.22323 0.69236 0.52722
 H542 H 0.27679 0.69236 0.47277
 H543 H 0.27678 0.80764 0.52722
 H544 H 0.22324 0.80763 0.47276
 C545 C -0.02183 0.24997 0.24999
 C546 C -0.04281 0.21756 0.23508
 C547 C -0.08409 0.21769 0.23476
 C548 C -0.10514 0.24998 0.24999
 C549 C -0.08409 0.28226 0.26523
 C550 C -0.04281 0.28239 0.26490
 C551 C 0.02186 0.24997 0.24999
 C552 C 0.04283 0.28240 0.23509
 C553 C 0.08411 0.28226 0.23476
 C554 C 0.10517 0.24998 0.24999
 C555 C 0.08411 0.21769 0.26522
 C556 C 0.04283 0.21755 0.26490
 H557 H -0.09953 0.19237 0.22293
 H558 H -0.09952 0.30759 0.27705
 H559 H 0.09955 0.30759 0.22295
 H560 H 0.09955 0.19236 0.27704
 H561 H -0.02722 0.30761 0.27677
 H562 H 0.02724 0.30762 0.22323
 H563 H -0.02722 0.19234 0.22322
 H564 H 0.02724 0.19233 0.27676
 C565 C 0.75002 0.52192 0.25000
 C566 C 0.73363 0.54308 0.21824
 C567 C 0.73339 0.58424 0.21837
 C568 C 0.75002 0.60525 0.25000
 C569 C 0.76666 0.58424 0.28162
 C570 C 0.76641 0.54308 0.28176
 C571 C 0.75002 0.47804 0.25000
 C572 C 0.78178 0.45688 0.26639
 C573 C 0.78164 0.41572 0.26663
 C574 C 0.75002 0.39470 0.25000
 C575 C 0.71839 0.41572 0.23337
 C576 C 0.71826 0.45688 0.23361
 H577 H 0.72064 0.59962 0.19342
 H578 H 0.77941 0.59962 0.30658
 H579 H 0.80659 0.40033 0.27939
 H580 H 0.69344 0.40034 0.22061
 H581 H 0.77861 0.52787 0.30707
 H582 H 0.80709 0.47208 0.27859
 H583 H 0.72144 0.52787 0.19292
 H584 H 0.69295 0.47209 0.22141
 C585 C 0.74999 0.24999 0.52185
 C586 C 0.73513 0.28243 0.54284
 C587 C 0.73480 0.28230 0.58412
 C588 C 0.74998 0.25000 0.60520
 C589 C 0.76517 0.21769 0.58413
 C590 C 0.76485 0.21755 0.54285
 C591 C 0.75000 0.24999 0.47814
 C592 C 0.73514 0.21755 0.45715
 C593 C 0.73482 0.21768 0.41586
 C594 C 0.75001 0.24998 0.39479
 C595 C 0.76519 0.28228 0.41586
 C596 C 0.76486 0.28242 0.45715
 H597 H 0.72301 0.30764 0.59956
 H598 H 0.77696 0.19235 0.59957
 H599 H 0.72303 0.19233 0.40043
 H600 H 0.77698 0.30763 0.40043
 H601 H 0.77668 0.19231 0.52726
 H602 H 0.72331 0.19231 0.47274
 H603 H 0.72330 0.30766 0.52725
 H604 H 0.77669 0.30766 0.47273
 C605 C 0.52186 0.24997 0.24999
 C606 C 0.54283 0.28240 0.23509
 C607 C 0.58411 0.28226 0.23477
 C608 C 0.60517 0.24998 0.24999
 C609 C 0.58411 0.21769 0.26522
 C610 C 0.54283 0.21755 0.26490
 C611 C 0.47817 0.24997 0.24999
 C612 C 0.45719 0.21756 0.23508
 C613 C 0.41591 0.21769 0.23476
 C614 C 0.39486 0.24998 0.24999
 C615 C 0.41591 0.28226 0.26523
 C616 C 0.45719 0.28239 0.26491
 H617 H 0.59955 0.30759 0.22295
 H618 H 0.59955 0.19236 0.27704
 H619 H 0.40047 0.19237 0.22293
 H620 H 0.40048 0.30758 0.27706
 H621 H 0.52724 0.19233 0.27676
 H622 H 0.47278 0.19234 0.22321
 H623 H 0.52724 0.30762 0.22323
 H624 H 0.47278 0.30761 0.27678
 C625 C 0.25002 0.52192 0.25000
 C626 C 0.23363 0.54308 0.21824
 C627 C 0.23339 0.58424 0.21837
 C628 C 0.25002 0.60525 0.25000
 C629 C 0.26665 0.58424 0.28163
 C630 C 0.26641 0.54308 0.28176
 C631 C 0.25002 0.47804 0.25000
 C632 C 0.28178 0.45688 0.26639
 C633 C 0.28164 0.41572 0.26663
 C634 C 0.25002 0.39470 0.25000
 C635 C 0.21839 0.41572 0.23337
 C636 C 0.21826 0.45688 0.23361
 H637 H 0.22064 0.59962 0.19342
 H638 H 0.27941 0.59962 0.30658
 H639 H 0.30659 0.40033 0.27939
 H640 H 0.19344 0.40034 0.22061
 H641 H 0.27861 0.52787 0.30707
 H642 H 0.30709 0.47208 0.27859
 H643 H 0.22144 0.52787 0.19292
 H644 H 0.19294 0.47209 0.22142
 C645 C 0.24999 0.24999 0.52185
 C646 C 0.23513 0.28243 0.54284
 C647 C 0.23480 0.28230 0.58412
 C648 C 0.24998 0.25000 0.60520
 C649 C 0.26517 0.21769 0.58413
 C650 C 0.26485 0.21755 0.54284
 C651 C 0.24999 0.24999 0.47814
 C652 C 0.23514 0.21755 0.45715
 C653 C 0.23482 0.21768 0.41586
 C654 C 0.25001 0.24998 0.39479
 C655 C 0.26519 0.28228 0.41586
 C656 C 0.26486 0.28242 0.45715
 H657 H 0.22301 0.30764 0.59955
 H658 H 0.27696 0.19235 0.59957
 H659 H 0.22303 0.19233 0.40043
 H660 H 0.27698 0.30763 0.40043
 H661 H 0.27668 0.19232 0.52726
 H662 H 0.22330 0.19231 0.47274
 H663 H 0.22330 0.30767 0.52725
 H664 H 0.27669 0.30766 0.47273
   
