data_POSCAR
  _audit_creation_date              2014-09-24
  _audit_creation_method            'ToBaCCo'
  _symmetry_space_group_name_H-M    'P1'
  _symmetry_Int_Tables_number       1
  _symmetry_cell_setting            triclinic
  loop_
  _symmetry_equiv_pos_as_xyz
 x,y,z
_cell_length_a 35.8788
_cell_length_b 34.6763
_cell_length_c 35.0483
_cell_angle_alpha 88.317000
_cell_angle_beta 91.243200
_cell_angle_gamma 87.614300
loop_
  _atom_site_label
  _atom_site_type_symbol
  _atom_site_fract_x
  _atom_site_fract_y
  _atom_site_fract_z
N1 N 0.26376 0.26264 0.24702
 N2 N 0.73608 -0.24809 0.25561
 N3 N 0.75750 0.24580 0.75735
 N4 N 0.24033 -0.25902 0.74855
 N5 N 0.73863 -0.25704 0.76079
 N6 N 0.25557 0.24091 0.75665
 N7 N 0.23787 -0.23924 0.24254
 N8 N 0.76507 0.25401 0.24880
 O9 O 0.28490 0.03689 0.46326
 O10 O 0.27713 -0.04109 0.53571
 O11 O 0.27702 -0.03740 0.46103
 O12 O 0.28445 0.03275 0.53758
 O13 O 0.22321 0.04224 0.53572
 O14 O 0.21584 -0.02778 0.45940
 O15 O 0.21579 -0.03250 0.53352
 O16 O 0.22370 0.04640 0.46166
 Cu17 Cu 0.28701 -0.00320 0.49947
 Cu18 Cu 0.21349 0.00800 0.49748
 C19 C 0.25571 0.05512 0.45016
 C20 C 0.24517 -0.05010 0.54701
 C21 C 0.24513 -0.04455 0.44708
 C22 C 0.25504 0.04952 0.54967
 O23 O 0.72357 0.04147 0.54085
 O24 O 0.71586 -0.03251 0.46828
 O25 O 0.71498 -0.03254 0.54255
 O26 O 0.72487 0.04170 0.46653
 O27 O 0.78599 0.03162 0.46937
 O28 O 0.77605 -0.04322 0.54463
 O29 O 0.77697 -0.04274 0.47046
 O30 O 0.78461 0.03070 0.54376
 Cu31 Cu 0.71370 0.00560 0.50422
 Cu32 Cu 0.78704 -0.00691 0.50722
 C33 C 0.75538 0.04851 0.55499
 C34 C 0.74503 -0.05036 0.45699
 C35 C 0.74388 -0.05055 0.55665
 C36 C 0.75713 0.04948 0.45503
 O37 O 0.47202 0.28312 0.03550
 O38 O 0.54587 0.27982 -0.03652
 O39 O 0.47330 0.28099 -0.03896
 O40 O 0.54469 0.28472 0.03726
 O41 O 0.54838 0.22109 0.04176
 O42 O 0.47437 0.21741 -0.03288
 O43 O 0.54727 0.21618 -0.03231
 O44 O 0.47615 0.21955 0.04109
 Cu45 Cu 0.50863 0.28855 -0.00116
 Cu46 Cu 0.51184 0.21219 0.00482
 C47 C 0.46174 0.25170 0.05083
 C48 C 0.55909 0.24723 -0.04676
 C49 C 0.46141 0.24871 -0.04880
 C50 C 0.55902 0.25370 0.05237
 O51 O 0.52537 0.71548 0.04307
 O52 O 0.45377 0.71034 -0.03376
 O53 O 0.52669 0.70994 -0.03068
 O54 O 0.45296 0.71365 0.04017
 O55 O 0.44914 0.77722 0.03440
 O56 O 0.52445 0.77355 -0.03588
 O57 O 0.45207 0.77393 -0.04014
 O58 O 0.52138 0.77909 0.03785
 Cu59 Cu 0.48998 0.70598 0.00520
 Cu60 Cu 0.48635 0.78232 -0.00154
 C61 C 0.53543 0.74830 0.05370
 C62 C 0.44099 0.74141 -0.05026
 C63 C 0.53846 0.74098 -0.04523
 C64 C 0.43845 0.74591 0.04955
 O65 O 0.04049 0.47139 0.26772
 O66 O -0.03745 0.54387 0.26944
 O67 O -0.03207 0.46863 0.26871
 O68 O 0.03502 0.54657 0.26789
 O69 O 0.03143 0.54949 0.20495
 O70 O -0.03333 0.47018 0.20572
 O71 O -0.04060 0.54513 0.20649
 O72 O 0.03876 0.47462 0.20475
 Cu73 Cu 0.00173 0.50737 0.27478
 Cu74 Cu -0.00120 0.51007 0.19919
 C75 C 0.05313 0.46079 0.23593
 C76 C -0.05245 0.55681 0.23822
 C77 C -0.04397 0.45593 0.23724
 C78 C 0.04451 0.56149 0.23618
 O79 O 0.03341 0.53162 0.72319
 O80 O -0.03689 0.45781 0.72289
 O81 O -0.03881 0.53242 0.72296
 O82 O 0.03536 0.45582 0.72439
 O83 O 0.03658 0.45475 0.78742
 O84 O -0.03813 0.53108 0.78595
 O85 O -0.03645 0.45609 0.78588
 O86 O 0.03491 0.52988 0.78623
 Cu87 Cu -0.00160 0.49456 0.71706
 Cu88 Cu -0.00062 0.49281 0.79271
 C89 C 0.04603 0.54355 0.75462
 C90 C -0.04900 0.44452 0.75418
 C91 C -0.05142 0.54464 0.75418
 C92 C 0.04850 0.44205 0.75612
 C93 C 0.34722 0.25370 0.16360
 C94 C 0.32961 0.22039 0.17647
 C95 C 0.30220 0.22340 0.20391
 C96 C 0.29183 0.25944 0.21828
 C97 C 0.30927 0.29217 0.20410
 N98 N 0.33621 0.28853 0.17756
 C99 C 0.37707 0.25217 0.13497
 N100 N 0.38532 0.28517 0.11540
 C101 C 0.41229 0.28598 0.08869
 C102 C 0.43279 0.25205 0.08027
 C103 C 0.42513 0.21789 0.10050
 C104 C 0.39763 0.21784 0.12792
 H105 H 0.28874 0.19766 0.21368
 H106 H 0.30181 0.32046 0.21451
 H107 H 0.41743 0.31301 0.07390
 H108 H 0.44061 0.19112 0.09538
 H109 H 0.33623 0.19228 0.16529
 H110 H 0.39324 0.19120 0.14363
 C111 C 0.64863 0.75661 0.17204
 C112 C 0.66391 0.79106 0.18418
 C113 C 0.69236 0.78950 0.21201
 C114 C 0.70597 0.75387 0.22756
 C115 C 0.69030 0.72015 0.21461
 N116 N 0.66247 0.72234 0.18760
 C117 C 0.61873 0.75593 0.14211
 N118 N 0.61095 0.72147 0.12666
 C119 C 0.58436 0.71816 0.09885
 C120 C 0.56378 0.75097 0.08467
 C121 C 0.57093 0.78671 0.10044
 C122 C 0.59806 0.78932 0.12921
 H123 H 0.70430 0.81605 0.22094
 H124 H 0.70018 0.69215 0.22603
 H125 H 0.57968 0.68999 0.08760
 H126 H 0.55538 0.81272 0.09069
 H127 H 0.65491 0.81899 0.17212
 H128 H 0.60214 0.81723 0.14112
 C129 C 0.67540 0.24117 -0.15763
 C130 C 0.69635 0.20745 -0.16624
 C131 C 0.72352 0.20905 -0.19405
 C132 C 0.73026 0.24410 -0.21303
 C133 C 0.70961 0.27732 -0.20292
 N134 N 0.68302 0.27503 -0.17599
 C135 C 0.64545 0.24133 -0.12906
 N136 N 0.63300 0.27575 -0.11523
 C137 C 0.60546 0.27847 -0.08925
 C138 C 0.58863 0.24513 -0.07555
 C139 C 0.60069 0.20941 -0.08971
 C140 C 0.62880 0.20737 -0.11650
 H141 H 0.73947 0.18300 -0.20066
 H142 H 0.71415 0.30488 -0.21696
 H143 H 0.59695 0.30664 -0.07920
 H144 H 0.58822 0.18297 -0.08029
 H145 H 0.69244 0.18012 -0.15161
 H146 H 0.63664 0.17948 -0.12747
 C147 C 0.32934 0.73736 -0.16960
 C148 C 0.33659 0.74570 -0.20805
 C149 C 0.30752 0.74594 -0.23511
 C150 C 0.27107 0.73865 -0.22390
 C151 C 0.26518 0.72982 -0.18515
 N152 N 0.29409 0.72923 -0.15935
 C153 C 0.35907 0.73816 -0.13997
 N154 N 0.36088 0.71081 -0.11122
 C155 C 0.38729 0.71072 -0.08273
 C156 C 0.41308 0.74001 -0.08164
 C157 C 0.41138 0.76867 -0.11076
 C158 C 0.38469 0.76761 -0.14017
 H159 H 0.31337 0.75213 -0.26478
 H160 H 0.23752 0.72408 -0.17532
 H161 H 0.38757 0.68833 -0.06053
 H162 H 0.43082 0.79175 -0.11087
 H163 H 0.36449 0.75168 -0.21709
 H164 H 0.38349 0.79012 -0.16230
 C165 C 0.17551 0.34777 0.23594
 C166 C 0.18774 0.32839 0.20349
 C167 C 0.21700 0.30066 0.20709
 C168 C 0.23395 0.29182 0.24287
 C169 C 0.22080 0.31148 0.27461
 N170 N 0.19235 0.33850 0.27041
 C171 C 0.14423 0.37718 0.23435
 N172 N 0.12792 0.38714 0.26760
 C173 C 0.09907 0.41371 0.26885
 C174 C 0.08478 0.43210 0.23512
 C175 C 0.10136 0.42265 0.20054
 C176 C 0.13111 0.39547 0.20001
 H177 H 0.22599 0.28555 0.18208
 H178 H 0.23325 0.30543 0.30265
 H179 H 0.08725 0.42021 0.29619
 H180 H 0.09151 0.43646 0.17387
 H181 H 0.17463 0.33366 0.17569
 H182 H 0.14374 0.38959 0.17299
 C183 C 0.15476 0.66026 0.75313
 C184 C 0.14565 0.69891 0.74274
 C185 C 0.17362 0.72563 0.74207
 C186 C 0.21080 0.71383 0.75095
 C187 C 0.21858 0.67489 0.76165
 N188 N 0.19073 0.64947 0.76268
 C189 C 0.12612 0.63102 0.75333
 N190 N 0.12616 0.60385 0.78219
 C191 C 0.10055 0.57600 0.78356
 C192 C 0.07360 0.57391 0.75416
 C193 C 0.07347 0.60129 0.72391
 C194 C 0.09941 0.63012 0.72360
 H195 H 0.16630 0.75551 0.73443
 H196 H 0.24686 0.66458 0.76863
 H197 H 0.10167 0.55514 0.80718
 H198 H 0.05307 0.60061 0.70072
 H199 H 0.11715 0.70839 0.73560
 H200 H 0.09911 0.65099 0.69998
 C201 C -0.17377 0.67070 0.24284
 C202 C -0.18796 0.69248 0.21088
 C203 C -0.21753 0.71926 0.21516
 C204 C -0.23279 0.72483 0.25115
 C205 C -0.21737 0.70328 0.28251
 N206 N -0.18872 0.67709 0.27763
 C207 C -0.14271 0.64135 0.24018
 N208 N -0.12401 0.62897 0.27280
 C209 C -0.09535 0.60204 0.27295
 C210 C -0.08387 0.58580 0.23869
 C211 C -0.10296 0.59778 0.20477
 C212 C -0.13242 0.62527 0.20537
 H213 H -0.22834 0.73594 0.19045
 H214 H -0.22846 0.70687 0.31071
 H215 H -0.08151 0.59355 0.29981
 H216 H -0.09533 0.58569 0.17774
 H217 H -0.17630 0.68960 0.18290
 H218 H -0.14710 0.63305 0.17884
 C219 C -0.16424 0.33374 0.75214
 C220 C -0.18501 0.32517 0.71917
 C221 C -0.21123 0.29669 0.72109
 C222 C -0.21730 0.27709 0.75574
 C223 C -0.19728 0.28751 0.78837
 N224 N -0.17145 0.31503 0.78575
 C225 C -0.13462 0.36231 0.75148
 N226 N -0.12292 0.37729 0.78498
 C227 C -0.09556 0.40324 0.78673
 C228 C -0.07815 0.41560 0.75330
 C229 C -0.08940 0.40014 0.71857
 C230 C -0.11732 0.37345 0.71753
 H231 H -0.22675 0.28974 0.69554
 H232 H -0.20143 0.27299 0.81560
 H233 H -0.08767 0.41434 0.81415
 H234 H -0.07645 0.40848 0.69212
 H235 H -0.18143 0.34018 0.69213
 H236 H -0.12451 0.36136 0.69041
 C237 C 0.26571 0.17773 0.33666
 C238 C 0.29882 0.19563 0.32692
 C239 C 0.29804 0.22393 0.29776
 C240 C 0.26442 0.23488 0.27856
 C241 C 0.23179 0.21723 0.28982
 N242 N 0.23327 0.18945 0.31806
 C243 C 0.26472 0.14648 0.36642
 N244 N 0.23116 0.13753 0.38102
 C245 C 0.22760 0.10876 0.40771
 C246 C 0.25910 0.08672 0.42127
 C247 C 0.29395 0.09523 0.40651
 C248 C 0.29689 0.12485 0.37907
 H249 H 0.32365 0.23737 0.29011
 H250 H 0.20535 0.22488 0.27555
 H251 H 0.20015 0.10315 0.41822
 H252 H 0.31896 0.07875 0.41588
 H253 H 0.32508 0.18836 0.34159
 H254 H 0.32401 0.12987 0.36756
 C255 C 0.76303 0.16061 0.67283
 C256 C 0.79614 0.17548 0.68743
 C257 C 0.79430 0.20308 0.71555
 C258 C 0.75968 0.21634 0.72903
 C259 C 0.72728 0.20096 0.71366
 N260 N 0.72975 0.17401 0.68635
 C261 C 0.76275 0.13160 0.64251
 N262 N 0.72989 0.12564 0.62385
 C263 C 0.72691 0.09957 0.59586
 C264 C 0.75834 0.07742 0.58502
 C265 C 0.79249 0.08286 0.60393
 C266 C 0.79482 0.10967 0.63273
 H267 H 0.81993 0.21425 0.72672
 H268 H 0.70003 0.21078 0.72296
 H269 H 0.69996 0.09625 0.58216
 H270 H 0.81737 0.06608 0.59679
 H271 H 0.82323 0.16673 0.67708
 H272 H 0.82137 0.11235 0.64730
 C273 C 0.23769 -0.17155 0.66107
 C274 C 0.22531 -0.20827 0.65278
 C275 C 0.22645 -0.23716 0.68141
 C276 C 0.23912 -0.22933 0.71849
 C277 C 0.25086 -0.19199 0.72557
 N278 N 0.25029 -0.16459 0.69700
 C279 C 0.23855 -0.14065 0.63134
 N280 N 0.26832 -0.11761 0.63029
 C281 C 0.27106 -0.08880 0.60349
 C282 C 0.24230 -0.08131 0.57617
 C283 C 0.21100 -0.10420 0.57718
 C284 C 0.20921 -0.13422 0.60447
 H285 H 0.21774 -0.26571 0.67458
 H286 H 0.26055 -0.18465 0.75378
 H287 H 0.29546 -0.07147 0.60384
 H288 H 0.18827 -0.09925 0.55655
 H289 H 0.21580 -0.21483 0.62425
 H290 H 0.18495 -0.15177 0.60497
 C291 C 0.73498 -0.16709 0.34394
 C292 C 0.70209 -0.18559 0.33423
 C293 C 0.70261 -0.21260 0.30551
 C294 C 0.73577 -0.22162 0.28666
 C295 C 0.76825 -0.20342 0.29790
 N296 N 0.76702 -0.17695 0.32575
 C297 C 0.73609 -0.13726 0.37336
 N298 N 0.76970 -0.12880 0.38912
 C299 C 0.77326 -0.10137 0.41575
 C300 C 0.74169 -0.08030 0.42798
 C301 C 0.70680 -0.08827 0.41192
 C302 C 0.70387 -0.11650 0.38459
 H303 H 0.67715 -0.22656 0.29797
 H304 H 0.79434 -0.20958 0.28395
 H305 H 0.80075 -0.09611 0.42726
 H306 H 0.68173 -0.07248 0.42023
 H307 H 0.67624 -0.17980 0.34868
 H308 H 0.67671 -0.12117 0.37205
 C309 C 0.65566 0.73578 -0.15515
 C310 C 0.66846 0.70211 -0.17311
 C311 C 0.69614 0.70440 -0.20035
 C312 C 0.71092 0.74005 -0.21011
 C313 C 0.69737 0.77299 -0.19171
 N314 N 0.67048 0.77007 -0.16519
 C315 C 0.62579 0.73563 -0.12650
 N316 N 0.60811 0.76979 -0.11816
 C317 C 0.58037 0.77230 -0.09241
 C318 C 0.56876 0.73897 -0.07319
 C319 C 0.58682 0.70349 -0.08100
 C320 C 0.61537 0.70169 -0.10735
 H321 H 0.70546 0.67848 -0.21445
 H322 H 0.70818 0.80099 -0.19846
 H323 H 0.56735 0.80030 -0.08716
 H324 H 0.57911 0.67709 -0.06651
 H325 H 0.65688 0.67438 -0.16717
 H326 H 0.62923 0.67401 -0.11194
 C327 C 0.34515 0.24559 -0.16371
 C328 C 0.35035 0.25682 -0.20199
 C329 C 0.32080 0.25508 -0.22833
 C330 C 0.28614 0.24289 -0.21638
 C331 C 0.28193 0.23200 -0.17799
 N332 N 0.31130 0.23323 -0.15291
 C333 C 0.37575 0.24669 -0.13502
 N334 N 0.37983 0.21806 -0.10763
 C335 C 0.40737 0.21766 -0.08029
 C336 C 0.43219 0.24785 -0.07902
 C337 C 0.42815 0.27785 -0.10670
 C338 C 0.40021 0.27720 -0.13494
 H339 H 0.32474 0.26340 -0.25794
 H340 H 0.25547 0.22212 -0.16820
 H341 H 0.40938 0.19421 -0.05917
 H342 H 0.44671 0.30169 -0.10663
 H343 H 0.37711 0.26616 -0.21155
 H344 H 0.39726 0.30072 -0.15594
 C345 C 0.32593 0.75013 0.16451
 C346 C 0.31557 0.71756 0.18606
 C347 C 0.28699 0.72125 0.21217
 C348 C 0.26905 0.75726 0.21742
 C349 C 0.28109 0.78938 0.19666
 N350 N 0.30868 0.78504 0.17091
 C351 C 0.35490 0.74778 0.13492
 N352 N 0.36982 0.78099 0.12168
 C353 C 0.39616 0.78130 0.09432
 C354 C 0.40910 0.74661 0.07858
 C355 C 0.39380 0.71214 0.09142
 C356 C 0.36665 0.71257 0.11925
 H357 H 0.27869 0.69602 0.22828
 H358 H 0.26785 0.81762 0.20016
 H359 H 0.40714 0.80857 0.08518
 H360 H 0.40260 0.68474 0.07976
 H361 H 0.32922 0.68947 0.18326
 H362 H 0.35483 0.68554 0.12757
 C363 C 0.67492 0.25943 0.16836
 C364 C 0.68537 0.29320 0.18640
 C365 C 0.71490 0.29135 0.21303
 C366 C 0.73378 0.25602 0.22215
 C367 C 0.72192 0.22279 0.20446
 N368 N 0.69332 0.22532 0.17830
 C369 C 0.64457 0.25947 0.13887
 N370 N 0.63031 0.22515 0.12929
 C371 C 0.60303 0.22251 0.10203
 C372 C 0.58846 0.25584 0.08240
 C373 C 0.60283 0.29149 0.09164
 C374 C 0.63089 0.29344 0.11958
 H375 H 0.72300 0.31742 0.22670
 H376 H 0.73587 0.19503 0.21095
 H377 H 0.59285 0.19440 0.09576
 H378 H 0.59271 0.31791 0.07696
 H379 H 0.67095 0.32079 0.18061
 H380 H 0.64198 0.32127 0.12507
 C381 C -0.17340 0.65827 0.75297
 C382 C -0.19422 0.67043 0.71998
 C383 C -0.22330 0.69808 0.72268
 C384 C -0.23213 0.71338 0.75807
 C385 C -0.21151 0.69980 0.79050
 N386 N -0.18301 0.67307 0.78717
 C387 C -0.14165 0.62949 0.75194
 N388 N -0.12913 0.61173 0.78526
 C389 C -0.10024 0.58502 0.78681
 C390 C -0.08207 0.57458 0.75333
 C391 C -0.09410 0.59288 0.71876
 C392 C -0.12358 0.62042 0.71794
 H393 H -0.23912 0.70745 0.69717
 H394 H -0.21765 0.71097 0.81828
 H395 H -0.09180 0.57172 0.81413
 H396 H -0.08062 0.58607 0.69230
 H397 H -0.18875 0.65865 0.69238
 H398 H -0.13145 0.63457 0.69092
 C399 C -0.15079 0.33611 0.23827
 C400 C -0.16753 0.32157 0.20528
 C401 C -0.19469 0.29417 0.20883
 C402 C -0.20573 0.28131 0.24500
 C403 C -0.18841 0.29643 0.27724
 N404 N -0.16191 0.32307 0.27311
 C405 C -0.12237 0.36611 0.23669
 N406 N -0.11311 0.38402 0.26946
 C407 C -0.08796 0.41228 0.27053
 C408 C -0.07055 0.42441 0.23705
 C409 C -0.07920 0.40605 0.20305
 C410 C -0.10475 0.37683 0.20274
 H411 H -0.20730 0.28313 0.18324
 H412 H -0.19641 0.28758 0.30566
 H413 H -0.08201 0.42555 0.29744
 H414 H -0.06607 0.41413 0.17662
 H415 H -0.16064 0.33141 0.17690
 H416 H -0.11003 0.36297 0.17610
 C417 C 0.16361 0.32179 0.75936
 C418 C 0.15800 0.28451 0.74651
 C419 C 0.18792 0.25747 0.74679
 C420 C 0.22367 0.26771 0.75893
 C421 C 0.22768 0.30500 0.77281
 N422 N 0.19800 0.33070 0.77269
 C423 C 0.13314 0.35174 0.75825
 N424 N 0.13040 0.37700 0.78716
 C425 C 0.10338 0.40571 0.78731
 C426 C 0.07773 0.41079 0.75658
 C427 C 0.08043 0.38543 0.72623
 C428 C 0.10785 0.35565 0.72713
 H429 H 0.18321 0.22867 0.73715
 H430 H 0.25456 0.31408 0.78285
 H431 H 0.10234 0.42490 0.81110
 H432 H 0.06114 0.38841 0.70203
 H433 H 0.13074 0.27630 0.73661
 H434 H 0.10979 0.33648 0.70336
 C435 C 0.15211 0.68040 0.23448
 C436 C 0.16847 0.69469 0.20109
 C437 C 0.19615 0.72158 0.20378
 C438 C 0.20804 0.73415 0.23953
 C439 C 0.19109 0.71925 0.27220
 N440 N 0.16409 0.69307 0.26890
 C441 C 0.12334 0.65082 0.23373
 N442 N 0.11607 0.63109 0.26676
 C443 C 0.09078 0.60296 0.26843
 C444 C 0.07115 0.59294 0.23535
 C445 C 0.07768 0.61331 0.20114
 C446 C 0.10341 0.64234 0.20023
 H447 H 0.20854 0.73239 0.17790
 H448 H 0.19980 0.72785 0.30033
 H449 H 0.08648 0.58814 0.29548
 H450 H 0.06277 0.60693 0.17503
 H451 H 0.16092 0.68485 0.17313
 H452 H 0.10708 0.65791 0.17352
 C453 C 0.73349 -0.16667 0.67646
 C454 C 0.70049 -0.18425 0.68718
 C455 C 0.70205 -0.21352 0.71546
 C456 C 0.73628 -0.22549 0.73292
 C457 C 0.76850 -0.20718 0.72157
 N458 N 0.76633 -0.17880 0.69400
 C459 C 0.73437 -0.13644 0.64571
 N460 N 0.76790 -0.12864 0.63043
 C461 C 0.77156 -0.10155 0.60214
 C462 C 0.74014 -0.08020 0.58740
 C463 C 0.70527 -0.08743 0.60285
 C464 C 0.70225 -0.11534 0.63205
 H465 H 0.67672 -0.22750 0.72309
 H466 H 0.79538 -0.21565 0.73449
 H467 H 0.79904 -0.09684 0.59122
 H468 H 0.68035 -0.07135 0.59260
 H469 H 0.67388 -0.17654 0.67343
 H470 H 0.67513 -0.11961 0.64389
 C471 C 0.23538 -0.15402 0.32693
 C472 C 0.20282 -0.16056 0.30536
 C473 C 0.20370 -0.18848 0.27748
 C474 C 0.23687 -0.20965 0.27065
 C475 C 0.26899 -0.20163 0.29199
 N476 N 0.26742 -0.17455 0.31924
 C477 C 0.23637 -0.12541 0.35761
 N478 N 0.27017 -0.11459 0.37105
 C479 C 0.27372 -0.08901 0.39944
 C480 C 0.24190 -0.07256 0.41623
 C481 C 0.20677 -0.08345 0.40308
 C482 C 0.20385 -0.10989 0.37404
 H483 H 0.17856 -0.19344 0.26101
 H484 H 0.29511 -0.21738 0.28746
 H485 H 0.30138 -0.08153 0.40874
 H486 H 0.18146 -0.07179 0.41547
 H487 H 0.17696 -0.14426 0.30931
 H488 H 0.17636 -0.11832 0.36540
 C489 C 0.76884 0.16704 0.33664
 C490 C 0.80145 0.17487 0.31670
 C491 C 0.80032 0.20374 0.28801
 C492 C 0.76687 0.22463 0.27890
 C493 C 0.73493 0.21580 0.29918
 N494 N 0.73670 0.18769 0.32706
 C495 C 0.76760 0.13653 0.36715
 N496 N 0.73361 0.12527 0.37871
 C497 C 0.72960 0.09774 0.40653
 C498 C 0.76112 0.07955 0.42471
 C499 C 0.79649 0.09079 0.41354
 C500 C 0.79989 0.11929 0.38499
 H501 H 0.82535 0.20939 0.27245
 H502 H 0.70863 0.23136 0.29295
 H503 H 0.70177 0.09008 0.41428
 H504 H 0.82157 0.07778 0.42705
 H505 H 0.82745 0.15868 0.32231
 H506 H 0.82753 0.12781 0.37774
 C507 C 0.26211 0.15903 0.66916
 C508 C 0.27732 0.14928 0.70555
 C509 C 0.27529 0.17626 0.73425
 C510 C 0.25836 0.21304 0.72680
 C511 C 0.24440 0.22193 0.68966
 N512 N 0.24610 0.19492 0.66235
 C513 C 0.26161 0.13074 0.63854
 N514 N 0.23172 0.13118 0.61392
 C515 C 0.22902 0.10554 0.58551
 C516 C 0.25783 0.07769 0.58028
 C517 C 0.28925 0.07722 0.60484
 C518 C 0.29114 0.10350 0.63417
 H519 H 0.28631 0.16818 0.76248
 H520 H 0.23197 0.25022 0.68242
 H521 H 0.20450 0.10712 0.56689
 H522 H 0.31212 0.05625 0.60167
 H523 H 0.28961 0.12075 0.71212
 H524 H 0.31561 0.10284 0.65283
   
