data_POSCAR
  _audit_creation_date              2014-09-24
  _audit_creation_method            'ToBaCCo'
  _symmetry_space_group_name_H-M    'P1'
  _symmetry_Int_Tables_number       1
  _symmetry_cell_setting            triclinic
  loop_
  _symmetry_equiv_pos_as_xyz
 x,y,z
_cell_length_a 30.5924
_cell_length_b 31.0681
_cell_length_c 30.4045
_cell_angle_alpha 88.473900
_cell_angle_beta 90.263300
_cell_angle_gamma 89.845800
loop_
  _atom_site_label
  _atom_site_type_symbol
  _atom_site_fract_x
  _atom_site_fract_y
  _atom_site_fract_z
N1 N 0.13125 0.25387 0.23564
 N2 N 0.13484 0.21854 0.26028
 C3 C 0.10449 0.21911 0.29216
 C4 C 0.08114 0.25688 0.28695
 C5 C 0.09869 0.27842 0.25113
 H6 H 0.10033 0.19459 0.31771
 H7 H 0.08875 0.30949 0.23758
 Cu8 Cu 0.18005 0.17607 0.25032
 Cu9 Cu 0.16922 0.26527 0.18567
 Cu10 Cu 0.25168 0.19130 0.16747
 N11 N 0.22816 0.13659 0.24105
 N12 N 0.25531 0.14192 0.20790
 C13 C 0.28581 0.11060 0.20984
 C14 C 0.27711 0.08486 0.24638
 C15 C 0.24079 0.10208 0.26573
 H16 H 0.31328 0.10804 0.18779
 H17 H 0.22558 0.09106 0.29601
 N18 N 0.24270 0.24330 0.13016
 N19 N 0.21081 0.27115 0.13677
 C20 C 0.21289 0.30296 0.10590
 C21 C 0.24796 0.29452 0.07918
 C22 C 0.26634 0.25681 0.09514
 H23 H 0.19103 0.33032 0.10330
 H24 H 0.29459 0.24055 0.08220
 H25 H 0.18534 0.20197 0.17405
 H26 H 0.22229 0.23166 0.21179
 N27 N 0.63723 0.75644 0.74428
 N28 N 0.64218 0.72152 0.76933
 C29 C 0.61201 0.72164 0.80149
 C30 C 0.58744 0.75877 0.79597
 C31 C 0.60405 0.78022 0.75968
 H32 H 0.60806 0.69677 0.82670
 H33 H 0.59242 0.81029 0.74517
 Cu34 Cu 0.68746 0.67921 0.75731
 Cu35 Cu 0.67295 0.76785 0.69263
 Cu36 Cu 0.75508 0.69464 0.67125
 N37 N 0.73511 0.63936 0.74565
 N38 N 0.76078 0.64543 0.71141
 C39 C 0.79077 0.61375 0.71062
 C40 C 0.78344 0.58673 0.74642
 C41 C 0.74820 0.60359 0.76824
 H42 H 0.81644 0.61109 0.68651
 H43 H 0.73361 0.59105 0.79825
 N44 N 0.74431 0.74632 0.63426
 N45 N 0.71242 0.77385 0.64198
 C46 C 0.71267 0.80521 0.61057
 C47 C 0.74655 0.79677 0.58235
 C48 C 0.76615 0.75960 0.59799
 H49 H 0.69030 0.83220 0.60851
 H50 H 0.79385 0.74340 0.58385
 H51 H 0.68894 0.70461 0.68072
 H52 H 0.72726 0.73497 0.71650
 N53 N 0.36504 0.76568 0.73540
 N54 N 0.36359 0.80378 0.75375
 C55 C 0.39147 0.80356 0.78831
 C56 C 0.41086 0.76329 0.79127
 C57 C 0.39367 0.74017 0.75757
 H58 H 0.39780 0.83069 0.80895
 H59 H 0.40255 0.70776 0.74900
 Cu60 Cu 0.32582 0.85126 0.73067
 Cu61 Cu 0.33276 0.75219 0.68158
 Cu62 Cu 0.27477 0.83280 0.63482
 N63 N 0.27640 0.88672 0.70957
 N64 N 0.25751 0.88024 0.67137
 C65 C 0.22084 0.90417 0.66814
 C66 C 0.21635 0.92695 0.70621
 C67 C 0.25215 0.91505 0.73186
 H68 H 0.19594 0.90009 0.64320
 H69 H 0.25680 0.92168 0.76633
 N70 N 0.27706 0.77656 0.60881
 N71 N 0.29901 0.74482 0.62818
 C72 C 0.29472 0.70910 0.60462
 C73 C 0.26854 0.71928 0.56887
 C74 C 0.25770 0.76214 0.57212
 H75 H 0.30969 0.67829 0.61265
 H76 H 0.23730 0.78121 0.54990
 H77 H 0.34316 0.81750 0.67515
 H78 H 0.29330 0.80048 0.70595
 N79 N 0.84793 0.23674 0.26555
 N80 N 0.82752 0.25479 0.29833
 C81 C 0.85517 0.25823 0.33249
 C82 C 0.89562 0.24310 0.32037
 C83 C 0.88993 0.22962 0.27757
 H84 H 0.84900 0.27842 0.36027
 H85 H 0.91563 0.22140 0.25492
 Cu86 Cu 0.77556 0.28963 0.28823
 Cu87 Cu 0.82066 0.23326 0.20703
 Cu88 Cu 0.72274 0.28806 0.19252
 N89 N 0.73906 0.33775 0.26867
 N90 N 0.71915 0.33758 0.23023
 C91 C 0.69622 0.37435 0.22445
 C92 C 0.70276 0.39867 0.26126
 C93 C 0.72967 0.37468 0.28889
 H94 H 0.67545 0.38204 0.19642
 H95 H 0.74086 0.38294 0.32139
 N96 N 0.74424 0.24658 0.15029
 N97 N 0.78176 0.22564 0.15504
 C98 C 0.78581 0.19811 0.12160
 C99 C 0.74900 0.20262 0.09516
 C100 C 0.72341 0.23328 0.11411
 H101 H 0.81239 0.17550 0.11783
 H102 H 0.69144 0.24411 0.10318
 H103 H 0.78637 0.29036 0.20927
 H104 H 0.75804 0.24047 0.22957
 N105 N 0.86561 0.74548 0.25779
 N106 N 0.86130 0.70991 0.23561
 C107 C 0.89307 0.70831 0.20511
 C108 C 0.91817 0.74489 0.20878
 C109 C 0.90010 0.76792 0.24217
 H110 H 0.89701 0.68322 0.18146
 H111 H 0.91076 0.79881 0.25372
 Cu112 Cu 0.81342 0.67016 0.24735
 Cu113 Cu 0.82571 0.76050 0.30458
 Cu114 Cu 0.73964 0.69082 0.32609
 N115 N 0.76401 0.63216 0.25860
 N116 N 0.73593 0.63978 0.29018
 C117 C 0.70527 0.60871 0.29098
 C118 C 0.71479 0.58063 0.25788
 C119 C 0.75188 0.59629 0.23772
 H120 H 0.67757 0.60739 0.31294
 H121 H 0.76836 0.58287 0.20983
 N122 N 0.74899 0.74422 0.35876
 N123 N 0.78216 0.77042 0.35068
 C124 C 0.78080 0.80309 0.37889
 C125 C 0.74489 0.79713 0.40553
 C126 C 0.72530 0.75975 0.39223
 H127 H 0.80435 0.82889 0.38043
 H128 H 0.69674 0.74459 0.40652
 H129 H 0.80634 0.69840 0.32118
 H130 H 0.77195 0.72844 0.27973
 N131 N 0.35946 0.21701 -0.23697
 N132 N 0.34763 0.18167 -0.25682
 C133 C 0.37045 0.17816 -0.29432
 C134 C 0.39824 0.21284 -0.29734
 C135 C 0.39046 0.23727 -0.26103
 H136 H 0.36515 0.15389 -0.31863
 H137 H 0.40394 0.26855 -0.25412
 Cu138 Cu 0.30007 0.14598 -0.23473
 Cu139 Cu 0.32964 0.23611 -0.18421
 Cu140 Cu 0.22249 0.20084 -0.18253
 N141 N 0.24334 0.12067 -0.22270
 N142 N 0.21261 0.14315 -0.20355
 C143 C 0.17523 0.12055 -0.20304
 C144 C 0.18340 0.08185 -0.22229
 C145 C 0.22678 0.08250 -0.23462
 H146 H 0.14435 0.13181 -0.19044
 H147 H 0.24421 0.05835 -0.25264
 N148 N 0.24349 0.24936 -0.14779
 N149 N 0.28472 0.26197 -0.14709
 C150 C 0.28931 0.29319 -0.11747
 C151 C 0.24882 0.30004 -0.09897
 C152 C 0.22058 0.27200 -0.11857
 H153 H 0.31976 0.30880 -0.10940
 H154 H 0.18643 0.26721 -0.11088
 H155 H 0.28578 0.18553 -0.16796
 H156 H 0.27686 0.21921 -0.21900
 N157 N 0.63183 0.24799 -0.24847
 N158 N 0.63811 0.28155 -0.27504
 C159 C 0.60563 0.28329 -0.30538
 C160 C 0.57872 0.24823 -0.29783
 C161 C 0.59582 0.22692 -0.26132
 H162 H 0.59998 0.30969 -0.32863
 H163 H 0.58055 0.20088 -0.24279
 Cu164 Cu 0.68541 0.32222 -0.26378
 Cu165 Cu 0.66461 0.23933 -0.19373
 Cu166 Cu 0.75427 0.30459 -0.17808
 N167 N 0.73512 0.36008 -0.25300
 N168 N 0.76146 0.35288 -0.21919
 C169 C 0.79232 0.38361 -0.21847
 C170 C 0.78498 0.41124 -0.25390
 C171 C 0.74873 0.39568 -0.27540
 H172 H 0.81813 0.38565 -0.19420
 H173 H 0.73341 0.40934 -0.30471
 N174 N 0.74145 0.25435 -0.13968
 N175 N 0.70663 0.22986 -0.14484
 C176 C 0.70622 0.19915 -0.11258
 C177 C 0.74262 0.20500 -0.08642
 C178 C 0.76439 0.23981 -0.10434
 H179 H 0.68182 0.17424 -0.10873
 H180 H 0.79446 0.25357 -0.09236
 H181 H 0.68776 0.30143 -0.18553
 H182 H 0.72059 0.26483 -0.22031
 N183 N 0.14664 0.75294 0.25440
 N184 N 0.15616 0.78292 0.22455
 C185 C 0.12569 0.78232 0.19232
 C186 C 0.09625 0.74996 0.20315
 C187 C 0.11029 0.73198 0.24241
 H188 H 0.12520 0.80332 0.16337
 H189 H 0.09519 0.70592 0.26105
 Cu190 Cu 0.20797 0.81907 0.23171
 Cu191 Cu 0.18118 0.74386 0.30735
 Cu192 Cu 0.28832 0.77645 0.29516
 N193 N 0.26293 0.84976 0.24070
 N194 N 0.29527 0.83146 0.26300
 C195 C 0.32742 0.86038 0.26814
 C196 C 0.31443 0.89914 0.24893
 C197 C 0.27305 0.89142 0.23220
 H198 H 0.35492 0.85560 0.29027
 H199 H 0.25009 0.91538 0.21975
 N200 N 0.26943 0.73413 0.34094
 N201 N 0.22804 0.72325 0.34630
 C202 C 0.22427 0.69680 0.38177
 C203 C 0.26535 0.69109 0.39960
 C204 C 0.29342 0.71501 0.37334
 H205 H 0.19393 0.68342 0.39401
 H206 H 0.32816 0.71932 0.37818
 H207 H 0.22606 0.79510 0.30648
 H208 H 0.23203 0.75111 0.26618
 N209 N 0.51525 0.39292 0.51672
 N210 N 0.48461 0.40350 0.54477
 C211 C 0.48281 0.37318 0.57721
 C212 C 0.51390 0.34212 0.56886
 C213 C 0.53380 0.35539 0.53025
 H214 H 0.45792 0.37136 0.60232
 H215 H 0.55720 0.33733 0.51154
 Cu216 Cu 0.44381 0.45048 0.53151
 Cu217 Cu 0.52497 0.42559 0.46188
 Cu218 Cu 0.45414 0.51044 0.43880
 N219 N 0.40351 0.49770 0.51736
 N220 N 0.40758 0.52010 0.48026
 C221 C 0.37497 0.54899 0.47656
 C222 C 0.34923 0.54441 0.51335
 C223 C 0.36793 0.51188 0.53890
 H224 H 0.37030 0.57156 0.44924
 H225 H 0.35620 0.49919 0.57013
 N226 N 0.50302 0.49606 0.40050
 N227 N 0.52944 0.46299 0.40847
 C228 C 0.55910 0.46134 0.37590
 C229 C 0.55061 0.49520 0.34675
 C230 C 0.51534 0.51672 0.36309
 H231 H 0.58544 0.43819 0.37412
 H232 H 0.50009 0.54533 0.34893
 H233 H 0.49853 0.48232 0.48278
 H234 H 0.46107 0.44512 0.45361
 N235 N -0.00165 -0.11079 0.99145
 N236 N -0.03522 -0.10475 1.01748
 C237 C -0.03590 -0.13656 1.04853
 C238 C -0.00068 -0.16324 1.04099
 C239 C 0.02050 -0.14619 1.00498
 H240 H -0.05945 -0.13964 1.07483
 H241 H 0.04971 -0.15857 0.98987
 Cu242 Cu -0.07330 -0.05494 1.00851
 Cu243 Cu 0.01054 -0.07320 0.94143
 Cu244 Cu -0.05858 0.01377 0.92162
 N245 N -0.11182 -0.00591 0.99773
 N246 N -0.10663 0.02031 0.96336
 C247 C -0.13796 0.05092 0.96370
 C248 C -0.16355 0.04321 1.00039
 C249 C -0.14628 0.00728 1.02138
 H250 H -0.14139 0.07702 0.93967
 H251 H -0.15794 -0.00795 1.05147
 N252 N -0.00766 0.00099 0.88380
 N253 N 0.01827 -0.03235 0.89223
 C254 C 0.04922 -0.03408 0.86128
 C255 C 0.04270 -0.00027 0.83197
 C256 C 0.00656 0.02175 0.84682
 H257 H 0.07446 -0.05839 0.85970
 H258 H -0.00852 0.04996 0.83162
 H259 H -0.01774 -0.01714 0.96539
 H260 H -0.05356 -0.05149 0.93100
 N261 N 1.00058 0.61127 0.99110
 N262 N 1.03655 0.60527 1.01447
 C263 C 1.03883 0.63542 1.04549
 C264 C 1.00218 0.66117 1.04108
 C265 C 0.97848 0.64521 1.00658
 H266 H 1.06466 0.63815 1.06964
 H267 H 0.94765 0.65732 0.99378
 Cu268 Cu 1.07617 0.55785 1.00276
 Cu269 Cu 0.98514 0.57471 0.94220
 Cu270 Cu 1.05633 0.49102 0.92010
 N271 N 1.11596 0.51081 0.99005
 N272 N 1.10831 0.48542 0.95691
 C273 C 1.14010 0.45550 0.95520
 C274 C 1.16880 0.46262 0.98929
 C275 C 1.15277 0.49759 1.01104
 H276 H 1.14142 0.42974 0.93201
 H277 H 1.16642 0.51171 1.04017
 N278 N 1.00213 0.50177 0.88643
 N279 N 0.97536 0.53416 0.89420
 C280 C 0.94225 0.53381 0.86475
 C281 C 0.94874 0.49931 0.83787
 C282 C 0.98662 0.47960 0.85222
 H283 H 0.91569 0.55683 0.86285
 H284 H 1.00206 0.45182 0.83821
 H285 H 1.01707 0.52026 0.96592
 H286 H 1.04819 0.55655 0.92758
 N287 N 0.51112 0.12955 0.48990
 N288 N 0.54256 0.11867 0.51786
 C289 C 0.54274 0.14662 0.55122
 C290 C 0.51001 0.17652 0.54282
 C291 C 0.49067 0.16493 0.50401
 H292 H 0.56372 0.14445 0.57992
 H293 H 0.46207 0.17953 0.48876
 Cu294 Cu 0.57888 0.06799 0.50829
 Cu295 Cu 0.49401 0.09393 0.44080
 Cu296 Cu 0.55637 0.00300 0.42468
 N297 N 0.61428 0.01694 0.49722
 N298 N 0.60542 -0.00738 0.46354
 C299 C 0.63460 -0.03963 0.46189
 C300 C 0.66305 -0.03532 0.49650
 C301 C 0.64965 0.00062 0.51860
 H302 H 0.63493 -0.06448 0.43766
 H303 H 0.66460 0.01389 0.54752
 N304 N 0.50567 0.01809 0.38830
 N305 N 0.48194 0.05318 0.39341
 C306 C 0.44834 0.05302 0.36439
 C307 C 0.45185 0.01588 0.34064
 C308 C 0.48803 -0.00547 0.35638
 H309 H 0.42255 0.07684 0.36205
 H310 H 0.49973 -0.03647 0.34614
 H311 H 0.51781 0.03741 0.46810
 H312 H 0.55537 0.06937 0.43156
 N313 N -0.00501 0.11516 0.50094
 N314 N -0.03961 0.10947 0.47580
 C315 C -0.04251 0.14211 0.44573
 C316 C -0.00769 0.16916 0.45262
 C317 C 0.01562 0.15137 0.48748
 H318 H -0.06708 0.14530 0.42017
 H319 H 0.04547 0.16357 0.50162
 Cu320 Cu -0.07596 0.05870 0.48336
 Cu321 Cu 0.01098 0.07517 0.54925
 Cu322 Cu -0.05578 -0.01378 0.56470
 N323 N -0.11264 0.00827 0.49214
 N324 N -0.10479 -0.01944 0.52473
 C325 C -0.13516 -0.05060 0.52466
 C326 C -0.16307 -0.04183 0.48994
 C327 C -0.14826 -0.00453 0.46975
 H328 H -0.13684 -0.07745 0.54796
 H329 H -0.16266 0.01219 0.44158
 N330 N -0.00470 -0.00295 0.60189
 N331 N 0.02109 0.03082 0.59630
 C332 C 0.05267 0.02915 0.62752
 C333 C 0.04587 -0.00751 0.65333
 C334 C 0.00958 -0.02705 0.63651
 H335 H 0.07814 0.05281 0.63149
 H336 H -0.00549 -0.05631 0.64897
 H337 H -0.01612 0.02162 0.52199
 H338 H -0.05135 0.05291 0.55969
 N339 N 0.49922 0.61739 0.01032
 N340 N 0.46581 0.61035 -0.01596
 C341 C 0.46352 0.64209 -0.04697
 C342 C 0.49744 0.67003 -0.03948
 C343 C 0.51968 0.65370 -0.00323
 H344 H 0.43984 0.64423 -0.07344
 H345 H 0.54857 0.66696 0.01185
 Cu346 Cu 0.42979 0.55944 -0.00848
 Cu347 Cu 0.51373 0.57871 0.05989
 Cu348 Cu 0.44913 0.48778 0.07412
 N349 N 0.39482 0.50781 -0.00115
 N350 N 0.40176 0.48033 0.03188
 C351 C 0.37201 0.44852 0.03025
 C352 C 0.34569 0.45673 -0.00601
 C353 C 0.36076 0.49425 -0.02533
 H354 H 0.36965 0.42172 0.05356
 H355 H 0.34735 0.51073 -0.05413
 N356 N 0.49867 0.50095 0.11329
 N357 N 0.52307 0.53579 0.10810
 C358 C 0.55397 0.53579 0.13990
 C359 C 0.54852 0.49911 0.16583
 C360 C 0.51352 0.47764 0.14834
 H361 H 0.57870 0.56023 0.14369
 H362 H 0.50004 0.44741 0.16024
 H363 H 0.48893 0.52364 0.03243
 H364 H 0.45167 0.55416 0.06877
 N365 N 0.49544 -0.11056 0.01435
 N366 N 0.52978 -0.10239 -0.01040
 C367 C 0.53124 -0.13079 -0.04303
 C368 C 0.49576 -0.15764 -0.03818
 C369 C 0.47353 -0.14424 -0.00180
 H370 H 0.55570 -0.13159 -0.06856
 H371 H 0.44392 -0.15792 0.01187
 Cu372 Cu 0.56848 -0.05472 0.00133
 Cu373 Cu 0.48176 -0.07680 0.06537
 Cu374 Cu 0.55049 0.00916 0.08677
 N375 N 0.60635 -0.00634 0.01296
 N376 N 0.60005 0.01826 0.04697
 C377 C 0.63119 0.04900 0.04720
 C378 C 0.65776 0.04296 0.01116
 C379 C 0.64121 0.00802 -0.00995
 H380 H 0.63371 0.07416 0.07098
 H381 H 0.65354 -0.00568 -0.03978
 N382 N 0.49860 -0.00562 0.12301
 N383 N 0.47310 -0.03899 0.11547
 C384 C 0.44086 -0.04062 0.14566
 C385 C 0.44648 -0.00642 0.17292
 C386 C 0.48291 0.01525 0.15791
 H387 H 0.41473 -0.06396 0.14696
 H388 H 0.49657 0.04424 0.17123
 H389 H 0.50998 -0.02015 0.04205
 H390 H 0.54459 -0.05605 0.07790
 N391 N 1.00671 0.38848 0.51257
 N392 N 1.04210 0.39438 0.48874
 C393 C 1.04318 0.36485 0.45703
 C394 C 1.00643 0.33955 0.46179
 C395 C 0.98388 0.35521 0.49691
 H396 H 1.06754 0.36307 0.43148
 H397 H 0.95259 0.34421 0.50913
 Cu398 Cu 1.08136 0.44217 0.49927
 Cu399 Cu 0.99123 0.42583 0.56024
 Cu400 Cu 1.05891 0.51274 0.57878
 N401 N 1.11817 0.49189 0.50917
 N402 N 1.10980 0.51908 0.54058
 C403 C 1.14055 0.55011 0.54009
 C404 C 1.16913 0.54164 0.50634
 C405 C 1.15421 0.50484 0.48726
 H406 H 1.14168 0.57690 0.56206
 H407 H 1.16850 0.48887 0.45961
 N408 N 1.00579 0.50058 0.61384
 N409 N 0.98056 0.46690 0.60701
 C410 C 0.94757 0.46652 0.63618
 C411 C 0.95232 0.50178 0.66223
 C412 C 0.98926 0.52287 0.64752
 H413 H 0.92202 0.44260 0.63833
 H414 H 1.00318 0.55183 0.66061
 H415 H 1.02147 0.48046 0.53388
 H416 H 1.05393 0.44703 0.57429
 C417 C 0.36242 0.00099 0.26019
 C418 C 0.12566 -0.01719 0.74543
 C419 C 0.63083 0.49466 0.25603
 C420 C 0.86629 0.49962 0.74800
 C421 C 0.25481 0.37835 -0.00929
 C422 C 0.74698 0.12388 0.00542
 C423 C 0.25807 0.62250 0.50098
 C424 C 0.74696 0.87906 0.49225
 C425 C -0.00405 0.26139 0.37262
 C426 C 0.00426 0.74724 0.12338
 C427 C 0.48436 0.24573 0.63738
 C428 C 0.49744 0.75921 0.87722
 N429 N 0.04690 0.27177 0.31433
 N430 N 0.03004 0.24672 0.34329
 N431 N 0.55089 0.77194 0.82138
 N432 N 0.53479 0.74681 0.85069
 N433 N 0.44513 0.74890 0.82016
 N434 N 0.46134 0.77341 0.84874
 N435 N -0.06875 0.26139 0.33446
 N436 N -0.03821 0.28309 0.34706
 N437 N -0.04632 0.75827 0.18144
 N438 N -0.03085 0.73342 0.15278
 N439 N 0.41895 0.22569 0.66726
 N440 N 0.43736 0.23810 0.63373
 N441 N 0.53773 0.24531 0.69018
 N442 N 0.49862 0.24149 0.68314
 N443 N 0.05854 0.73691 0.17920
 N444 N 0.04233 0.76067 0.14862
 N445 N 0.30364 0.05089 0.26428
 N446 N 0.33322 0.03369 0.24130
 N447 N 0.80887 0.55005 0.75970
 N448 N 0.83870 0.53605 0.73475
 N449 N 0.81005 0.44839 0.73396
 N450 N 0.83931 0.46242 0.75979
 N451 N 0.32672 -0.06399 0.26462
 N452 N 0.33715 -0.03166 0.28400
 N453 N 0.17815 -0.06423 0.72278
 N454 N 0.14206 -0.06049 0.73918
 N455 N 0.68094 0.43763 0.27192
 N456 N 0.65658 0.45728 0.24389
 N457 N 0.68949 0.54456 0.24463
 N458 N 0.65918 0.52982 0.26917
 N459 N 0.15120 0.05034 0.76833
 N460 N 0.16081 0.01283 0.75559
 N461 N 0.26288 0.31994 0.04255
 N462 N 0.24006 0.35135 0.02760
 N463 N 0.75922 0.82167 0.54453
 N464 N 0.73477 0.85203 0.53003
 N465 N 0.73245 0.82260 0.44191
 N466 N 0.75735 0.85257 0.45473
 N467 N 0.23815 0.32745 -0.06365
 N468 N 0.26654 0.35147 -0.04610
 N469 N 0.75660 0.17945 -0.04918
 N470 N 0.73181 0.15120 -0.03146
 N471 N 0.27629 0.66758 0.43911
 N472 N 0.24739 0.64601 0.46006
 N473 N 0.25603 0.69126 0.53471
 N474 N 0.26931 0.65240 0.53540
 N475 N 0.73630 0.17753 0.05857
 N476 N 0.76184 0.15031 0.04157
 N477 N 0.51437 0.29919 0.58698
 N478 N 0.49176 0.28983 0.62091
 N479 N 0.01319 0.80003 0.06638
 N480 N -0.01095 0.78364 0.09624
 N481 N -0.00982 0.69665 0.06744
 N482 N 0.01655 0.71152 0.09569
 N483 N 0.49301 0.20837 0.57119
 N484 N 0.50676 0.21413 0.61021
 N485 N 0.00478 0.20618 0.42694
 N486 N -0.02035 0.22433 0.39847
 N487 N 0.50919 0.70708 0.93456
 N488 N 0.48410 0.72211 0.90433
 N489 N 0.48396 0.80760 0.93465
 N490 N 0.50984 0.79446 0.90526
 N491 N -0.00904 0.30743 0.43303
 N492 N 0.01438 0.29276 0.40236
 N493 N 0.31113 0.56903 0.52286
 N494 N 0.29545 0.59453 0.49335
 N495 N 0.80017 0.06795 0.01510
 N496 N 0.78326 0.09737 -0.00940
 N497 N 0.69396 0.06849 -0.00343
 N498 N 0.71088 0.09675 0.02084
 N499 N 0.20637 0.56608 0.49269
 N500 N 0.22042 0.59710 0.51521
 N501 N 0.20523 0.43640 0.00234
 N502 N 0.21934 0.40739 -0.02276
 N503 N 0.69908 0.93715 0.50729
 N504 N 0.71067 0.90786 0.48121
 N505 N 0.79922 0.93424 0.47812
 N506 N 0.78531 0.90417 0.50351
 N507 N 0.30865 0.43280 -0.01996
 N508 N 0.29285 0.40288 0.00439
 N509 N 0.57517 0.50772 0.30882
 N510 N 0.60324 0.48221 0.29315
 N511 N 0.06809 0.00811 0.79332
 N512 N 0.09575 -0.02042 0.78261
 N513 N 0.06966 -0.02221 0.69135
 N514 N 0.10243 -0.00184 0.70591
 N515 N 0.57425 0.48516 0.20291
 N516 N 0.60397 0.50899 0.21856
 N517 N 0.41884 0.00692 0.20773
 N518 N 0.38911 -0.01669 0.22491
 N519 N 0.92503 0.51364 0.69798
 N520 N 0.89476 0.48863 0.71152
 N521 N 0.92301 0.48719 0.80095
 N522 N 0.89256 0.51145 0.78600
 N523 N 0.42238 -0.00078 0.30905
 N524 N 0.39122 0.02116 0.29202
   
