data_POSCAR
  _audit_creation_date              2014-09-24
  _audit_creation_method            'ToBaCCo'
  _symmetry_space_group_name_H-M    'P1'
  _symmetry_Int_Tables_number       1
  _symmetry_cell_setting            triclinic
  loop_
  _symmetry_equiv_pos_as_xyz
 x,y,z
_cell_length_a 34.5295
_cell_length_b 34.5174
_cell_length_c 34.4028
_cell_angle_alpha 89.999300
_cell_angle_beta 90.006200
_cell_angle_gamma 89.893600
loop_
  _atom_site_label
  _atom_site_type_symbol
  _atom_site_fract_x
  _atom_site_fract_y
  _atom_site_fract_z
C1 C 0.15479 0.18441 0.20998
 C2 C 0.15472 0.21242 0.18046
 C3 C 0.18314 0.21180 0.15203
 C4 C 0.21197 0.18314 0.15276
 C5 C 0.21205 0.15543 0.18193
 C6 C 0.18328 0.15607 0.21072
 C7 C 0.13033 0.17752 0.24085
 N8 N 0.14347 0.14585 0.26003
 C9 C 0.17570 0.13237 0.24204
 C10 C 0.24281 0.13091 0.17493
 N11 N 0.26109 0.14328 0.14239
 C12 C 0.24267 0.17506 0.12848
 C13 C 0.17548 0.24185 0.12681
 N14 N 0.14327 0.26042 0.13943
 C15 C 0.13024 0.24284 0.17209
 H16 H 0.10472 0.19401 0.24853
 H17 H 0.19210 0.10707 0.25084
 H18 H 0.25104 0.10581 0.19195
 H19 H 0.25076 0.19083 0.10251
 H20 H 0.19184 0.24948 0.10108
 H21 H 0.10472 0.25138 0.18827
 C22 C -0.15229 0.81821 0.21360
 C23 C -0.15289 0.78944 0.18483
 C24 C -0.18199 0.78929 0.15709
 C25 C -0.21086 0.81793 0.15779
 C26 C -0.21028 0.84638 0.18622
 C27 C -0.18081 0.84652 0.21429
 C28 C -0.12713 0.82589 0.24370
 N29 N -0.13990 0.85802 0.26237
 C30 C -0.17256 0.87100 0.24482
 C31 C -0.24121 0.87072 0.17932
 N32 N -0.26025 0.85751 0.14755
 C33 C -0.24212 0.82539 0.13404
 C34 C -0.17485 0.75864 0.13246
 N35 N -0.14230 0.74045 0.14476
 C36 C -0.12852 0.75887 0.17663
 H37 H -0.10137 0.80959 0.25126
 H38 H -0.18885 0.89644 0.25341
 H39 H -0.24902 0.89627 0.19585
 H40 H -0.25078 0.80899 0.10865
 H41 H -0.19179 0.75037 0.10731
 H42 H -0.10257 0.75081 0.19237
 C43 C -0.15809 0.18071 -0.21215
 C44 C -0.15885 0.20963 -0.18353
 C45 C -0.18717 0.20911 -0.15500
 C46 C -0.21510 0.17965 -0.15476
 C47 C -0.21436 0.15106 -0.18307
 C48 C -0.18568 0.15159 -0.21193
 C49 C -0.13349 0.17355 -0.24285
 N50 N -0.14567 0.14096 -0.26100
 C51 C -0.17743 0.12716 -0.24253
 C52 C -0.24433 0.12593 -0.17528
 N53 N -0.26296 0.13877 -0.14310
 C54 C -0.24551 0.17145 -0.13019
 C55 C -0.18031 0.24009 -0.13070
 N56 N -0.14867 0.25909 -0.14398
 C57 C -0.13523 0.24088 -0.17613
 H58 H -0.10845 0.19052 -0.25113
 H59 H -0.19307 0.10117 -0.25051
 H60 H -0.25182 0.10014 -0.19154
 H61 H -0.25410 0.18780 -0.10473
 H62 H -0.19674 0.24798 -0.10508
 H63 H -0.10994 0.24950 -0.19258
 C64 C 0.15626 0.81916 -0.21251
 C65 C 0.15529 0.78970 -0.18446
 C66 C 0.18318 0.78840 -0.15553
 C67 C 0.21241 0.81656 -0.15430
 C68 C 0.21336 0.84568 -0.18205
 C69 C 0.18512 0.84699 -0.21133
 C70 C 0.13247 0.82798 -0.24342
 N71 N 0.14638 0.86033 -0.26075
 C72 C 0.17844 0.87234 -0.24155
 C73 C 0.24428 0.86929 -0.17332
 N74 N 0.26184 0.85505 -0.14112
 C75 C 0.24278 0.82293 -0.12911
 C76 C 0.17460 0.75730 -0.13198
 N77 N 0.14236 0.73998 -0.14610
 C78 C 0.13020 0.75939 -0.17806
 H79 H 0.10684 0.81232 -0.25241
 H80 H 0.19535 0.89773 -0.24881
 H81 H 0.25311 0.89505 -0.18894
 H82 H 0.25022 0.80578 -0.10382
 H83 H 0.19032 0.74815 -0.10633
 H84 H 0.10483 0.75219 -0.19507
 C85 C 0.18517 1.15550 0.78943
 C86 C 0.21320 1.15547 0.81890
 C87 C 0.21259 1.18390 0.84733
 C88 C 0.18393 1.21271 0.84663
 C89 C 0.15619 1.21275 0.81749
 C90 C 0.15681 1.18398 0.78872
 C91 C 0.17820 1.13096 0.75866
 N92 N 0.14646 1.14405 0.73958
 C93 C 0.13302 1.17632 0.75753
 C94 C 0.13159 1.24341 0.82457
 N95 N 0.14396 1.26167 0.85713
 C96 C 0.17580 1.24332 0.87097
 C97 C 0.24258 1.17622 0.87258
 N98 N 0.26110 1.14398 0.85996
 C99 C 0.24355 1.13094 0.82730
 H100 H 0.19464 1.10531 0.75100
 H101 H 0.10766 1.19266 0.74881
 H102 H 0.10642 1.25157 0.80763
 H103 H 0.19154 1.25140 0.89697
 H104 H 0.25018 1.19255 0.89834
 H105 H 0.25204 1.10537 0.81116
 C106 C 0.81763 0.84738 0.78603
 C107 C 0.78875 0.84662 0.81464
 C108 C 0.78855 0.81743 0.84228
 C109 C 0.81723 0.78863 0.84163
 C110 C 0.84580 0.78937 0.81334
 C111 C 0.84600 0.81892 0.78537
 C112 C 0.82541 0.87271 0.75613
 N113 N 0.85766 0.86011 0.73761
 C114 C 0.87063 0.82738 0.75506
 C115 C 0.87022 0.75853 0.82030
 N116 N 0.85695 0.73941 0.85197
 C117 C 0.82470 0.75737 0.86537
 C118 C 0.75786 0.82448 0.86686
 N119 N 0.73972 0.85708 0.85459
 C120 C 0.75819 0.87096 0.82282
 H121 H 0.80910 0.89848 0.74862
 H122 H 0.89618 0.81122 0.74655
 H123 H 0.89590 0.75086 0.80391
 H124 H 0.80825 0.74863 0.89069
 H125 H 0.74956 0.80751 0.89197
 H126 H 0.75022 0.89700 0.80717
 C127 C 0.18216 0.84247 1.21360
 C128 C 0.21094 0.84166 1.18488
 C129 C 0.21029 0.81328 1.15640
 C130 C 0.18084 0.78540 1.15630
 C131 C 0.15237 0.78618 1.18468
 C132 C 0.15303 0.81488 1.21350
 C133 C 0.17504 0.86720 1.24419
 N134 N 0.14247 0.85507 1.26239
 C135 C 0.12864 0.82325 1.24406
 C136 C 0.12713 0.75633 1.17688
 N137 N 0.13980 0.73774 1.14463
 C138 C 0.17248 0.75510 1.13170
 C139 C 0.24103 0.82013 1.13187
 N140 N 0.26005 0.85182 1.14496
 C141 C 0.24208 0.86532 1.17722
 H142 H 0.19198 0.89230 1.25235
 H143 H 0.10262 0.80769 1.25208
 H144 H 0.10133 0.74890 1.19313
 H145 H 0.18864 0.74652 1.10613
 H146 H 0.24873 0.80369 1.10619
 H147 H 0.25075 0.89071 1.19352
 C148 C 0.81788 1.15577 1.21366
 C149 C 0.78845 1.15472 1.18560
 C150 C 0.78716 1.18258 1.15663
 C151 C 0.81526 1.21180 1.15536
 C152 C 0.84436 1.21284 1.18309
 C153 C 0.84568 1.18466 1.21242
 C154 C 0.82678 1.13198 1.24453
 N155 N 0.85913 1.14593 1.26178
 C156 C 0.87108 1.17801 1.24258
 C157 C 0.86799 1.24367 1.17418
 N158 N 0.85377 1.26107 1.14190
 C159 C 0.82166 1.24199 1.13003
 C160 C 0.75621 1.17392 1.13298
 N161 N 0.73895 1.14165 1.14706
 C162 C 0.75825 1.12954 1.17911
 H163 H 0.81118 1.10630 1.25353
 H164 H 0.89650 1.19491 1.24976
 H165 H 0.89379 1.25255 1.18967
 H166 H 0.80457 1.24932 1.10467
 H167 H 0.74716 1.18956 1.10725
 H168 H 0.75107 1.10412 1.19607
 O169 O 0.44531 1.06776 1.07066
 O170 O 0.40290 1.03043 1.03545
 C171 C 0.41067 1.05735 1.06047
 O172 O 0.55424 1.06445 0.93199
 O173 O 0.59686 1.02921 0.96926
 C174 C 0.58894 1.05425 0.94234
 O175 O 0.44531 1.06793 0.93566
 O176 O 0.40287 1.03060 0.97088
 C177 C 0.41068 1.05753 0.94588
 O178 O 0.55407 1.06457 1.07409
 O179 O 0.59665 1.03000 1.03623
 C180 C 0.58874 1.05474 1.06339
 Zr181 Zr 0.49981 1.04598 1.05219
 O182 O 0.50391 1.10718 1.05202
 O183 O 0.49553 1.04569 1.11358
 Zr184 Zr 0.49982 1.04609 0.95390
 O185 O 0.50402 1.10727 0.95409
 O186 O 0.49544 1.04598 0.89251
 O187 O 0.46526 1.05356 1.00306
 O188 O 0.53340 1.05308 1.00303
 O189 O 0.55464 0.92964 1.07406
 O190 O 0.59703 0.96493 1.03675
 C191 C 0.58927 0.93992 1.06369
 O192 O 0.44573 0.92634 0.93501
 O193 O 0.40318 0.96390 0.96992
 C194 C 0.41106 0.93693 0.94495
 O195 O 0.55451 0.92987 0.93177
 O196 O 0.59697 0.96483 0.96932
 C197 C 0.58915 0.94000 0.94224
 O198 O 0.44574 0.92600 1.07048
 O199 O 0.40310 0.96324 1.03524
 C200 C 0.41105 0.93635 1.06027
 Zr201 Zr 0.50011 0.94791 1.05212
 O202 O 0.50462 0.88673 1.05181
 O203 O 0.49579 0.94795 1.11350
 Zr204 Zr 0.50004 0.94812 0.95373
 O205 O 0.50448 0.88693 0.95395
 O206 O 0.49577 0.94835 0.89234
 Zr207 Zr 0.44238 0.99694 1.00305
 Zr208 Zr 0.55752 0.99702 1.00301
 O209 O 0.53371 0.94095 1.00291
 O210 O 0.46555 0.94038 1.00291
 O211 O 0.53450 0.99698 1.05978
 O212 O 0.46633 0.99711 0.94677
 O213 O 0.46636 0.99690 1.05928
 O214 O 0.53447 0.99712 0.94623
 H215 H 0.55080 1.07587 1.00296
 H216 H 0.44886 0.99723 0.92392
 H217 H 0.55134 0.91827 1.00289
 H218 H 0.44880 0.99686 1.08206
 H219 H 0.51724 1.03037 0.88232
 H220 H 0.51735 0.96422 0.88223
 H221 H 0.48263 0.87681 0.96948
 H222 H 0.48298 0.87664 1.03596
 H223 H 0.51733 0.96384 1.12367
 H224 H 0.51734 1.03004 1.12369
 H225 H 0.48212 1.11727 1.03632
 H226 H 0.48236 1.11737 0.96996
 O227 O 0.06494 0.55427 -0.07441
 O228 O 0.02962 0.59689 -0.03727
 C229 C 0.05481 0.58897 -0.06401
 O230 O -0.07387 0.44581 -0.07131
 O231 O -0.03671 0.40316 -0.03603
 C232 C -0.06360 0.41109 -0.06105
 O233 O -0.07020 0.55467 -0.07489
 O234 O -0.03557 0.59700 -0.03693
 C235 C -0.06027 0.58928 -0.06416
 O236 O 0.06802 0.44536 -0.07099
 O237 O 0.03051 0.40294 -0.03595
 C238 C 0.05754 0.41072 -0.06083
 Zr239 Zr 0.04613 0.49988 -0.05277
 O240 O 0.04562 0.49559 -0.11417
 O241 O 0.10730 0.50387 -0.05285
 Zr242 Zr -0.05181 0.50021 -0.05300
 O243 O -0.05118 0.49586 -0.11439
 O244 O -0.11296 0.50476 -0.05320
 O245 O -0.00275 0.53466 -0.06047
 O246 O -0.00289 0.46638 -0.05997
 O247 O 0.06763 0.44524 0.06402
 O248 O 0.03039 0.40288 0.02865
 C249 C 0.05724 0.41061 0.05375
 O250 O -0.07018 0.55477 0.06735
 O251 O -0.03485 0.59717 0.03007
 C252 C -0.05985 0.58941 0.05702
 O253 O -0.07394 0.44587 0.06387
 O254 O -0.03676 0.40321 0.02862
 C255 C -0.06357 0.41117 0.05371
 O256 O 0.06425 0.55410 0.06765
 O257 O 0.02947 0.59685 0.03010
 C258 C 0.05425 0.58883 0.05721
 Zr259 Zr 0.04584 0.49976 0.04567
 O260 O 0.04530 0.49534 0.10705
 O261 O 0.10701 0.50386 0.04590
 Zr262 Zr -0.05207 0.50021 0.04536
 O263 O -0.05227 0.49589 0.10674
 O264 O -0.11322 0.50481 0.04479
 Zr265 Zr -0.00278 0.55762 -0.00366
 Zr266 Zr -0.00307 0.44245 -0.00370
 O267 O -0.00320 0.46635 0.05258
 O268 O -0.00303 0.53453 0.05310
 O269 O 0.05352 0.46530 -0.00355
 O270 O -0.05889 0.53385 -0.00381
 O271 O 0.05318 0.53337 -0.00350
 O272 O -0.05959 0.46571 -0.00384
 H273 H -0.00289 0.44877 -0.08271
 H274 H -0.08160 0.55144 -0.00376
 H275 H -0.00324 0.44879 0.07536
 H276 H 0.07595 0.55079 -0.00339
 H277 H -0.12316 0.48347 -0.03695
 H278 H -0.12334 0.48279 0.02946
 H279 H -0.03619 0.51727 0.11696
 H280 H 0.02992 0.51733 0.11718
 H281 H 0.11716 0.48234 0.02986
 H282 H 0.11735 0.48260 -0.03643
 H283 H 0.03066 0.51787 -0.12428
 H284 H -0.03567 0.51774 -0.12445
 O285 O 1.07378 -0.06427 0.55508
 O286 O 1.03644 -0.02906 0.59766
 C287 C 1.06336 -0.05405 0.58984
 O288 O 1.07006 0.07369 0.44549
 O289 O 1.03497 0.03637 0.40287
 C290 C 1.05994 0.06321 0.41070
 O291 O 1.07347 0.07042 0.55483
 O292 O 1.03625 0.03535 0.59753
 C293 C 1.06308 0.06030 0.58963
 O294 O 1.07048 -0.06800 0.44594
 O295 O 1.03587 -0.03034 0.40318
 C296 C 1.06058 -0.05746 0.41114
 Zr297 Zr 1.05194 -0.04600 0.50039
 O298 O 1.11311 -0.04567 0.49611
 O299 O 1.05194 -0.10717 0.50485
 Zr300 Zr 1.05157 0.05212 0.50022
 O301 O 1.11272 0.05254 0.49600
 O302 O 1.05064 0.11331 0.50446
 O303 O 1.05934 0.00312 0.53492
 O304 O 1.05884 0.00301 0.46662
 O305 O 0.93534 -0.06790 0.44579
 O306 O 0.97000 -0.03037 0.40308
 C307 C 0.94521 -0.05735 0.41099
 O308 O 0.93154 0.07004 0.55481
 O309 O 0.96899 0.03513 0.59755
 C310 C 0.94188 0.05988 0.58962
 O311 O 0.93529 0.07356 0.44548
 O312 O 0.97053 0.03628 0.40283
 C313 C 0.94546 0.06311 0.41071
 O314 O 0.93220 -0.06442 0.55491
 O315 O 0.96932 -0.02921 0.59758
 C316 C 0.94255 -0.05423 0.58969
 Zr317 Zr 0.95399 -0.04611 0.50030
 O318 O 0.89282 -0.04618 0.49606
 O319 O 0.95465 -0.10729 0.50468
 Zr320 Zr 0.95382 0.05204 0.50021
 O321 O 0.89267 0.05266 0.49585
 O322 O 0.95458 0.11323 0.50457
 Zr323 Zr 1.00278 0.00304 0.55803
 Zr324 Zr 1.00283 0.00283 0.44244
 O325 O 0.94681 0.00293 0.46660
 O326 O 0.94626 0.00299 0.53483
 O327 O 1.00299 -0.05372 0.46562
 O328 O 1.00265 0.05913 0.53405
 O329 O 1.00296 -0.05306 0.53410
 O330 O 1.00268 0.05950 0.46544
 H331 H 1.08163 0.00304 0.44913
 H332 H 1.00252 0.08180 0.55173
 H333 H 0.92400 0.00295 0.44912
 H334 H 1.00304 -0.07575 0.55174
 H335 H 1.03565 0.12330 0.48209
 H336 H 0.96927 0.12328 0.48206
 H337 H 0.88249 0.03568 0.51661
 H338 H 0.88265 -0.03032 0.51773
 H339 H 0.96985 -0.11738 0.48250
 H340 H 1.03606 -0.11733 0.48322
 H341 H 1.12315 -0.03005 0.51799
 H342 H 1.12291 0.03607 0.51720
 C343 C 1.12676 0.12987 0.29081
 C344 C 1.11149 0.11519 0.31867
 C345 C 1.09353 0.09764 0.35106
 C346 C 1.07818 0.08222 0.37846
 C347 C 0.87732 -0.12538 0.29252
 C348 C 0.89299 -0.11017 0.31987
 C349 C 0.91130 -0.09213 0.35177
 C350 C 0.92685 -0.07644 0.37888
 C351 C 0.87143 0.12462 0.70860
 C352 C 0.88715 0.10978 0.68105
 C353 C 0.90588 0.09242 0.64897
 C354 C 0.92215 0.07759 0.62176
 C355 C 1.13049 -0.12208 0.70889
 C356 C 1.11579 -0.10618 0.68136
 C357 C 1.09808 -0.08778 0.64929
 C358 C 1.08251 -0.07226 0.62205
 C359 C 0.29157 1.12636 1.12612
 C360 C 0.31918 1.11090 1.11122
 C361 C 0.35131 1.09258 1.09363
 C362 C 0.37855 1.07668 1.07853
 C363 C 0.29224 0.87071 0.87640
 C364 C 0.31979 0.88521 0.89228
 C365 C 0.35184 0.90265 0.91076
 C366 C 0.37901 0.91801 0.92644
 C367 C 0.70899 0.87408 1.13146
 C368 C 0.68114 0.88916 1.11659
 C369 C 0.64879 0.90682 1.09873
 C370 C 0.62144 0.92192 1.08302
 C371 C 0.70699 1.12162 0.87361
 C372 C 0.67974 1.10604 0.88894
 C373 C 0.64795 1.08786 0.90716
 C374 C 0.62093 1.07244 0.92302
 C375 C 0.12571 0.29224 0.12120
 C376 C 0.11045 0.31954 0.10556
 C377 C 0.09228 0.35140 0.08735
 C378 C 0.07647 0.37850 0.07192
 C379 C -0.13170 0.29161 -0.12654
 C380 C -0.11679 0.31944 -0.11157
 C381 C -0.09883 0.35174 -0.09403
 C382 C -0.08302 0.37904 -0.07902
 C383 C 0.12388 0.70780 -0.12960
 C384 C 0.10794 0.68024 -0.11524
 C385 C 0.08928 0.64817 -0.09802
 C386 C 0.07345 0.62100 -0.08283
 C387 C -0.12505 0.70833 0.12676
 C388 C -0.11016 0.68080 0.11115
 C389 C -0.09266 0.64874 0.09263
 C390 C -0.07769 0.62154 0.07654
 C391 C 1.13033 0.12722 0.70897
 C392 C 1.11551 0.11187 0.68126
 C393 C 1.09777 0.09385 0.64906
 C394 C 1.08220 0.07850 0.62178
 C395 C 0.87437 -0.12247 0.70767
 C396 C 0.88964 -0.10662 0.68051
 C397 C 0.90773 -0.08814 0.64880
 C398 C 0.92345 -0.07252 0.62177
 C399 C 1.12609 -0.12768 0.29265
 C400 C 1.11116 -0.11187 0.32006
 C401 C 1.09362 -0.09314 0.35198
 C402 C 1.07857 -0.07696 0.37909
 C403 C 0.87685 0.13002 0.29204
 C404 C 0.89287 0.11532 0.31946
 C405 C 0.91143 0.09765 0.35141
 C406 C 0.92709 0.08214 0.37857
 C407 C 0.12693 0.29201 -0.12649
 C408 C 0.11137 0.31949 -0.11152
 C409 C 0.09293 0.35148 -0.09389
 C410 C 0.07694 0.37864 -0.07879
 C411 C -0.12966 0.29300 0.12311
 C412 C -0.11519 0.32034 0.10695
 C413 C -0.09782 0.35219 0.08814
 C414 C -0.08250 0.37922 0.07226
 C415 C -0.12641 0.70874 -0.13186
 C416 C -0.11126 0.68098 -0.11694
 C417 C -0.09351 0.64873 -0.09905
 C418 C -0.07834 0.62143 -0.08337
 C419 C 0.12152 0.70619 0.12683
 C420 C 0.10587 0.67913 0.11131
 C421 C 0.08771 0.64757 0.09281
 C422 C 0.07234 0.62069 0.07671
 C423 C 0.29278 1.12634 0.87829
 C424 C 0.31995 1.11100 0.89400
 C425 C 0.35166 1.09274 0.91228
 C426 C 0.37866 1.07684 0.92773
 C427 C 0.29230 0.86881 1.12715
 C428 C 0.31989 0.88365 1.11179
 C429 C 0.35194 0.90146 1.09379
 C430 C 0.37908 0.91712 1.07844
 C431 C 0.70699 1.12311 1.13033
 C432 C 0.67961 1.10722 1.11565
 C433 C 0.64774 1.08876 1.09798
 C434 C 0.62069 1.07314 1.08245
 C435 C 0.70768 0.87437 0.87261
 C436 C 0.68024 0.88934 0.88821
 C437 C 0.64829 0.90697 0.90671
 C438 C 0.62118 0.92205 0.92276
   
