data_POSCAR
  _audit_creation_date              2014-09-24
  _audit_creation_method            'ToBaCCo'
  _symmetry_space_group_name_H-M    'P1'
  _symmetry_Int_Tables_number       1
  _symmetry_cell_setting            triclinic
  loop_
  _symmetry_equiv_pos_as_xyz
 x,y,z
_cell_length_a 72.6093
_cell_length_b 72.7038
_cell_length_c 21.0958
_cell_angle_alpha 89.844400
_cell_angle_beta 90.167600
_cell_angle_gamma 119.990100
loop_
  _atom_site_label
  _atom_site_type_symbol
  _atom_site_fract_x
  _atom_site_fract_y
  _atom_site_fract_z
C1 C 0.24693 0.50027 0.52914
 C2 C 0.24701 0.49871 0.46472
 C3 C 0.23130 0.50076 0.42457
 C4 C 0.26307 0.49529 0.43139
 C5 C 0.26445 0.50138 0.56846
 C6 C 0.22946 0.50103 0.56340
 C7 C 0.21816 0.48439 0.38326
 C8 C 0.20284 0.48583 0.34678
 C9 C 0.20034 0.50398 0.34953
 C10 C 0.21438 0.52070 0.39030
 C11 C 0.22949 0.51902 0.42722
 C12 C 0.26675 0.47878 0.44942
 C13 C 0.28274 0.47651 0.42029
 C14 C 0.29508 0.49039 0.37146
 C15 C 0.29070 0.50632 0.35167
 C16 C 0.27488 0.50874 0.38139
 C17 C 0.28556 0.51753 0.55875
 C18 C 0.30203 0.51803 0.59455
 C19 C 0.29766 0.50236 0.64056
 C20 C 0.27646 0.48645 0.65100
 C21 C 0.25999 0.48608 0.61560
 C22 C 0.23426 0.51681 0.60900
 C23 C 0.21801 0.51772 0.64150
 C24 C 0.19656 0.50285 0.62903
 C25 C 0.19181 0.48684 0.58396
 C26 C 0.20809 0.48581 0.55201
 H27 H 0.21962 0.47031 0.37974
 H28 H 0.19376 0.47288 0.31444
 H29 H 0.21317 0.53475 0.39749
 H30 H 0.23965 0.53193 0.45867
 H31 H 0.25745 0.46786 0.48681
 H32 H 0.28573 0.46415 0.43705
 H33 H 0.27213 0.52141 0.36613
 H34 H 0.28926 0.52961 0.52303
 H35 H 0.31823 0.53039 0.58533
 H36 H 0.27265 0.47434 0.68669
 H37 H 0.24378 0.47359 0.62399
 H38 H 0.25064 0.52855 0.61914
 H39 H 0.22227 0.52997 0.67685
 H40 H 0.17549 0.47524 0.57273
 H41 H 0.20400 0.47315 0.51824
 H42 H 0.29951 0.51696 0.31318
 C43 C 0.50837 -0.24985 0.53141
 C44 C 0.50862 -0.25039 0.46684
 C45 C 0.51023 -0.26729 0.43180
 C46 C 0.50691 -0.23423 0.42819
 C47 C 0.50982 -0.23138 0.56586
 C48 C 0.50674 -0.26765 0.57005
 C49 C 0.52616 -0.27222 0.44647
 C50 C 0.52717 -0.28846 0.41432
 C51 C 0.51261 -0.29980 0.36561
 C52 C 0.49713 -0.29430 0.34963
 C53 C 0.49594 -0.27827 0.38245
 C54 C 0.52258 -0.22225 0.38320
 C55 C 0.52122 -0.20681 0.34727
 C56 C 0.50401 -0.20330 0.35519
 C57 C 0.48809 -0.21566 0.39934
 C58 C 0.48952 -0.23102 0.43546
 C59 C 0.49379 -0.23425 0.60839
 C60 C 0.49455 -0.21677 0.63852
 C61 C 0.51152 -0.19609 0.62735
 C62 C 0.52787 -0.19340 0.58601
 C63 C 0.52702 -0.21086 0.55560
 C64 C 0.48952 -0.28824 0.56228
 C65 C 0.48899 -0.30530 0.59449
 C66 C 0.50583 -0.30223 0.63509
 C67 C 0.52269 -0.28121 0.64419
 C68 C 0.52300 -0.26416 0.61252
 H69 H 0.53776 -0.26357 0.48313
 H70 H 0.53919 -0.29233 0.42834
 H71 H 0.48598 -0.30230 0.31142
 H72 H 0.48371 -0.27455 0.36968
 H73 H 0.53601 -0.22467 0.37659
 H74 H 0.53356 -0.19769 0.31299
 H75 H 0.47709 -0.24038 0.46929
 H76 H 0.48040 -0.24997 0.61688
 H77 H 0.48156 -0.21943 0.66939
 H78 H 0.54141 -0.17780 0.57736
 H79 H 0.53974 -0.20839 0.52375
 H80 H 0.47676 -0.29117 0.52978
 H81 H 0.47589 -0.32099 0.58412
 H82 H 0.53555 -0.27766 0.67686
 H83 H 0.53630 -0.24828 0.61965
 H84 H 0.47473 -0.21318 0.40672
 C85 C 1.24876 0.75571 0.53631
 C86 C 1.24905 0.75538 0.47158
 C87 C 1.26726 0.77177 0.43382
 C88 C 1.23083 0.73855 0.43523
 C89 C 1.23228 0.73737 0.57297
 C90 C 1.26482 0.77414 0.57363
 C91 C 1.26340 0.78076 0.38012
 C92 C 1.28021 0.79583 0.34352
 C93 C 1.30154 0.80269 0.36012
 C94 C 1.30526 0.79340 0.41400
 C95 C 1.28836 0.77790 0.44950
 C96 C 1.21000 0.73428 0.44641
 C97 C 1.19297 0.71851 0.41217
 C98 C 1.19643 0.70697 0.36486
 C99 C 1.21738 0.71162 0.35282
 C100 C 1.23439 0.72723 0.38771
 C101 C 1.22970 0.71707 0.56565
 C102 C 1.21394 0.69979 0.59927
 C103 C 1.20016 0.70230 0.64109
 C104 C 1.20323 0.72298 0.64864
 C105 C 1.21918 0.74025 0.61548
 C106 C 1.27531 0.77085 0.62435
 C107 C 1.29083 0.78800 0.65880
 C108 C 1.29643 0.80915 0.64359
 C109 C 1.28518 0.81214 0.59344
 C110 C 1.26953 0.79489 0.55944
 H111 H 1.24727 0.77628 0.36682
 H112 H 1.27631 0.80277 0.30397
 H113 H 1.32118 0.79730 0.42755
 H114 H 1.29180 0.77060 0.48915
 H115 H 1.20692 0.74317 0.48178
 H116 H 1.17706 0.71521 0.42330
 H117 H 1.25036 0.73046 0.37774
 H118 H 1.23980 0.71456 0.53330
 H119 H 1.21210 0.68435 0.58972
 H120 H 1.19387 0.72621 0.68181
 H121 H 1.22114 0.75589 0.62239
 H122 H 1.27163 0.75492 0.63701
 H123 H 1.29786 0.78433 0.69854
 H124 H 1.28890 0.82778 0.57779
 H125 H 1.26133 0.79780 0.52118
 H126 H 1.22069 0.70336 0.31593
 C127 C 0.75043 0.50664 0.53252
 C128 C 0.75088 0.50761 0.46786
 C129 C 0.76771 0.50623 0.43192
 C130 C 0.73467 0.50969 0.43012
 C131 C 0.73181 0.50368 0.57032
 C132 C 0.76902 0.50864 0.56826
 C133 C 0.78132 0.52276 0.39134
 C134 C 0.79763 0.52175 0.35928
 C135 C 0.80033 0.50401 0.36649
 C136 C 0.78635 0.48727 0.40611
 C137 C 0.77020 0.48838 0.43856
 C138 C 0.72887 0.52489 0.44566
 C139 C 0.71313 0.52620 0.41095
 C140 C 0.70316 0.51260 0.35917
 C141 C 0.70957 0.49793 0.34241
 C142 C 0.72513 0.49649 0.37752
 C143 C 0.71096 0.48849 0.55317
 C144 C 0.69364 0.48623 0.58817
 C145 C 0.69666 0.49857 0.64297
 C146 C 0.71777 0.51317 0.66126
 C147 C 0.73501 0.51576 0.62522
 C148 C 0.76663 0.49259 0.60989
 C149 C 0.78428 0.49403 0.64134
 C150 C 0.80489 0.51173 0.63223
 C151 C 0.80683 0.52808 0.59145
 C152 C 0.78916 0.52655 0.56019
 H153 H 0.77954 0.53660 0.38543
 H154 H 0.80804 0.53476 0.32848
 H155 H 0.78816 0.47348 0.41286
 H156 H 0.75969 0.47537 0.46922
 H157 H 0.73636 0.53559 0.48515
 H158 H 0.70851 0.53759 0.42547
 H159 H 0.72951 0.48482 0.36410
 H160 H 0.70805 0.47829 0.51260
 H161 H 0.67793 0.47411 0.57333
 H162 H 0.72115 0.52352 0.70166
 H163 H 0.75094 0.52754 0.63973
 H164 H 0.75116 0.47862 0.61661
 H165 H 0.78164 0.48063 0.67017
 H166 H 0.82183 0.54255 0.58472
 H167 H 0.79120 0.53939 0.52944
 H168 H 0.70260 0.48757 0.30197
 C169 C 0.49470 0.24337 0.53327
 C170 C 0.49519 0.24385 0.46857
 C171 C 0.49703 0.26214 0.43130
 C172 C 0.49387 0.22582 0.43165
 C173 C 0.49473 0.22577 0.56908
 C174 C 0.49408 0.26013 0.57172
 C175 C 0.48335 0.25835 0.37960
 C176 C 0.48485 0.27520 0.34371
 C177 C 0.49995 0.29623 0.35907
 C178 C 0.51382 0.30009 0.41027
 C179 C 0.51261 0.28318 0.44546
 C180 C 0.47698 0.20504 0.44077
 C181 C 0.47645 0.18809 0.40823
 C182 C 0.49253 0.19161 0.36463
 C183 C 0.50897 0.21257 0.35381
 C184 C 0.50963 0.22949 0.38706
 C185 C 0.51173 0.22191 0.56387
 C186 C 0.51119 0.20474 0.59554
 C187 C 0.49349 0.19081 0.63299
 C188 C 0.47668 0.19523 0.63869
 C189 C 0.47744 0.21259 0.60766
 C190 C 0.50892 0.27004 0.62044
 C191 C 0.50889 0.28607 0.65655
 C192 C 0.49388 0.29272 0.64522
 C193 C 0.47861 0.28214 0.59688
 C194 C 0.47868 0.26603 0.56099
 H195 H 0.47133 0.24228 0.36740
 H196 H 0.47390 0.27184 0.30465
 H197 H 0.52578 0.31618 0.42245
 H198 H 0.52380 0.28652 0.48374
 H199 H 0.46437 0.20191 0.47384
 H200 H 0.46366 0.17218 0.41827
 H201 H 0.52264 0.24545 0.37869
 H202 H 0.52527 0.23202 0.53437
 H203 H 0.52430 0.20194 0.58765
 H204 H 0.46311 0.18577 0.66875
 H205 H 0.46428 0.21552 0.61278
 H206 H 0.52072 0.26545 0.63031
 H207 H 0.52034 0.29263 0.69469
 H208 H 0.46704 0.28672 0.58423
 H209 H 0.46683 0.25833 0.52418
 H210 H 0.52134 0.21594 0.31955
 C211 C 0.75118 0.25275 0.53481
 C212 C 0.75273 0.25138 0.47064
 C213 C 0.73512 0.23451 0.43281
 C214 C 0.77183 0.26706 0.43492
 C215 C 0.76693 0.27182 0.57076
 C216 C 0.73381 0.23517 0.57167
 C217 C 0.73910 0.22160 0.39243
 C218 C 0.72259 0.20556 0.35717
 C219 C 0.70186 0.20236 0.36098
 C220 C 0.69801 0.21562 0.40045
 C221 C 0.71450 0.23156 0.43602
 C222 C 0.79235 0.27210 0.45426
 C223 C 0.81023 0.28811 0.42346
 C224 C 0.80791 0.29908 0.37186
 C225 C 0.78730 0.29322 0.35068
 C226 C 0.76946 0.27738 0.38191
 C227 C 0.77243 0.29231 0.55041
 C228 C 0.78870 0.31016 0.58043
 C229 C 0.79953 0.30807 0.63324
 C230 C 0.79283 0.28735 0.65596
 C231 C 0.77686 0.26951 0.62482
 C232 C 0.72207 0.23952 0.61577
 C233 C 0.70538 0.22303 0.64927
 C234 C 0.70000 0.20178 0.63917
 C235 C 0.71215 0.19755 0.59595
 C236 C 0.72903 0.21407 0.56332
 H237 H 0.75494 0.22376 0.38892
 H238 H 0.72605 0.19576 0.32649
 H239 H 0.68218 0.21343 0.40456
 H240 H 0.71120 0.24160 0.46620
 H241 H 0.79453 0.26402 0.49429
 H242 H 0.82584 0.29228 0.44124
 H243 H 0.75378 0.27357 0.36570
 H244 H 0.76439 0.29450 0.51025
 H245 H 0.79230 0.32559 0.56283
 H246 H 0.80075 0.28464 0.69534
 H247 H 0.77277 0.25383 0.64166
 H248 H 0.72567 0.25570 0.62369
 H249 H 0.69674 0.22696 0.68324
 H250 H 0.70840 0.18143 0.58632
 H251 H 0.73822 0.21035 0.53087
 H252 H 0.78495 0.30099 0.31016
 O253 O 0.97067 0.45753 0.12013
 O254 O 0.94700 0.46373 0.06533
 C255 C 0.95149 0.45350 0.10723
 O256 O 1.03278 0.55268 0.10968
 O257 O 1.05431 0.54551 0.04762
 C258 C 1.05137 0.55666 0.08999
 O259 O 0.97315 0.52285 0.12551
 O260 O 0.94813 0.49471 0.06769
 C261 C 0.95357 0.50894 0.11166
 O262 O 1.02994 0.48368 0.10393
 O263 O 1.05294 0.51294 0.04590
 C264 C 1.04893 0.49775 0.08568
 Zr265 Zr 1.00016 0.48049 0.08019
 O266 O 1.00415 0.48094 0.17971
 O267 O 0.99788 0.45046 0.07193
 Zr268 Zr 1.00199 0.52791 0.08450
 O269 O 1.00630 0.52890 0.18399
 O270 O 1.00070 0.55635 0.08792
 O271 O 0.98244 0.49531 0.09813
 O272 O 1.01973 0.51291 0.09090
 O273 O 1.02606 0.48358 -0.11361
 O274 O 1.05111 0.51309 -0.06041
 C275 C 1.04563 0.49774 -0.10064
 O276 O 0.96850 0.52212 -0.10552
 O277 O 0.94593 0.49436 -0.04185
 C278 C 0.94959 0.50821 -0.08595
 O279 O 1.02828 0.55261 -0.10866
 O280 O 1.05205 0.54551 -0.05832
 C281 C 1.04750 0.55671 -0.09643
 O282 O 0.96630 0.45747 -0.11111
 O283 O 0.94491 0.46332 -0.04416
 C284 C 0.94777 0.45320 -0.09005
 Zr285 Zr 0.99717 0.48042 -0.07946
 O286 O 0.99781 0.48179 -0.17975
 O287 O 0.99401 0.44988 -0.08197
 Zr288 Zr 0.99879 0.52765 -0.07544
 O289 O 0.99942 0.52842 -0.17579
 O290 O 0.99723 0.55595 -0.07344
 Zr291 Zr 0.96804 0.48925 0.00797
 Zr292 Zr 1.03116 0.51911 -0.00276
 O293 O 1.01626 0.51279 -0.09211
 O294 O 0.97881 0.49506 -0.08661
 O295 O 1.01749 0.48584 -0.00301
 O296 O 0.98210 0.52252 0.00794
 O297 O 0.98005 0.46830 0.00323
 O298 O 1.01944 0.54041 0.00162
 H299 H 1.03003 0.51744 0.12645
 H300 H 0.97287 0.52893 0.01030
 H301 H 1.02522 0.51732 -0.13069
 H302 H 0.97003 0.45278 0.00391
 H303 H 1.01214 0.56682 0.06027
 H304 H 1.00923 0.56633 -0.04720
 H305 H 0.98672 0.51537 -0.19098
 H306 H 0.98567 0.48337 -0.19374
 H307 H 1.00391 0.44976 -0.04988
 H308 H 0.99848 0.44581 0.11572
 H309 H 0.99374 0.48425 0.19888
 H310 H 0.99414 0.51595 0.20195
 O311 O 0.45037 0.47939 0.12183
 O312 O 0.45390 0.50618 0.05623
 C313 C 0.44532 0.49343 0.10390
 O314 O 0.54539 0.51389 0.09331
 O315 O 0.53740 0.48286 0.04292
 C316 C 0.54937 0.49883 0.07917
 O317 O 0.51461 0.54271 0.10083
 O318 O 0.48465 0.53635 0.04639
 C319 C 0.49986 0.54715 0.08642
 O320 O 0.47827 0.44765 0.11746
 O321 O 0.50547 0.45140 0.05354
 C322 C 0.49201 0.44225 0.09936
 Zr323 Zr 0.47285 0.47193 0.08309
 O324 O 0.47598 0.47295 0.18301
 O325 O 0.44325 0.44343 0.08648
 Zr326 Zr 0.51941 0.51797 0.06711
 O327 O 0.52379 0.51968 0.16662
 O328 O 0.54726 0.54793 0.05606
 O329 O 0.48717 0.50488 0.08782
 O330 O 0.50559 0.48594 0.08648
 O331 O 0.47117 0.44108 -0.10181
 O332 O 0.50238 0.44856 -0.05289
 C333 C 0.48607 0.43677 -0.08846
 O334 O 0.50756 0.53671 -0.12915
 O335 O 0.48086 0.53323 -0.06345
 C336 C 0.49372 0.54196 -0.11076
 O337 O 0.53846 0.50798 -0.12708
 O338 O 0.53469 0.48068 -0.06334
 C339 C 0.54385 0.49422 -0.10899
 O340 O 0.44350 0.47270 -0.10864
 O341 O 0.45039 0.50267 -0.05401
 C342 C 0.43935 0.48759 -0.09410
 Zr343 Zr 0.46808 0.46747 -0.07567
 O344 O 0.46626 0.46348 -0.17531
 O345 O 0.43805 0.43971 -0.06466
 Zr346 Zr 0.51442 0.51359 -0.09209
 O347 O 0.51201 0.50938 -0.19166
 O348 O 0.54239 0.54349 -0.10229
 Zr349 Zr 0.47804 0.50876 -0.00396
 Zr350 Zr 0.50946 0.47673 -0.00478
 O351 O 0.50007 0.48086 -0.09569
 O352 O 0.48147 0.49975 -0.09611
 O353 O 0.47639 0.45658 0.00483
 O354 O 0.51114 0.52846 -0.01327
 O355 O 0.45792 0.47577 0.00505
 O356 O 0.52996 0.50977 -0.01404
 H357 H 0.51141 0.48218 0.12369
 H358 H 0.51720 0.54403 -0.01663
 H359 H 0.50363 0.47493 -0.13286
 H360 H 0.44237 0.46996 0.00873
 H361 H 0.55736 0.54582 0.03004
 H362 H 0.55378 0.54299 -0.07785
 H363 H 0.49857 0.50855 -0.20532
 H364 H 0.46782 0.47663 -0.19438
 H365 H 0.43958 0.43105 -0.03101
 H366 H 0.43988 0.44015 0.13203
 H367 H 0.47937 0.48730 0.19678
 H368 H 0.51075 0.51824 0.18605
 O369 O 0.55031 0.02655 -0.11872
 O370 O 0.54694 0.05067 -0.05733
 C371 C 0.55581 0.04587 -0.10264
 O372 O 0.45434 -0.03136 -0.09803
 O373 O 0.46102 -0.05461 -0.04265
 C374 C 0.44967 -0.05046 -0.08142
 O375 O 0.48680 0.02816 -0.10965
 O376 O 0.51635 0.05135 -0.05305
 C377 C 0.50177 0.04721 -0.09523
 O378 O 0.52078 -0.03304 -0.10943
 O379 O 0.49249 -0.05545 -0.04718
 C380 C 0.50654 -0.05189 -0.09045
 Zr381 Zr 0.52656 -0.00270 -0.08007
 O382 O 0.52310 -0.00569 -0.17984
 O383 O 0.55639 -0.00120 -0.08569
 Zr384 Zr 0.48064 -0.00153 -0.07225
 O385 O 0.47687 -0.00437 -0.17189
 O386 O 0.45268 0.00029 -0.06098
 O387 O 0.51323 0.01677 -0.08981
 O388 O 0.49384 -0.02063 -0.08652
 O389 O 0.52515 -0.03131 0.10898
 O390 O 0.49437 -0.05465 0.05753
 C391 C 0.51017 -0.05041 0.09514
 O392 O 0.49054 0.02970 0.12185
 O393 O 0.51826 0.05221 0.05794
 C394 C 0.50488 0.04856 0.10345
 O395 O 0.45859 -0.02977 0.12143
 O396 O 0.46269 -0.05396 0.06231
 C397 C 0.45314 -0.04909 0.10545
 O398 O 0.55413 0.02842 0.11195
 O399 O 0.54873 0.05183 0.05266
 C400 C 0.55900 0.04756 0.09521
 Zr401 Zr 0.52949 -0.00151 0.08001
 O402 O 0.52963 -0.00334 0.18019
 O403 O 0.55949 0.00030 0.07674
 Zr404 Zr 0.48361 -0.00044 0.08747
 O405 O 0.48462 -0.00188 0.18760
 O406 O 0.45576 0.00194 0.09185
 Zr407 Zr 0.52155 0.03014 0.00167
 Zr408 Zr 0.48880 -0.03306 0.00597
 O409 O 0.49722 -0.01936 0.09667
 O410 O 0.51659 0.01809 0.09492
 O411 O 0.52186 -0.02107 0.00070
 O412 O 0.48846 0.01765 0.00677
 O413 O 0.54093 0.01624 -0.00181
 O414 O 0.46881 -0.01985 0.00946
 H415 H 0.48816 -0.03053 -0.12291
 H416 H 0.48275 0.02749 0.00762
 H417 H 0.49294 -0.02878 0.13431
 H418 H 0.55657 0.02553 -0.00396
 H419 H 0.44719 -0.00011 -0.10431
 H420 H 0.44564 -0.00813 0.06036
 H421 H 0.49828 0.01029 0.20181
 H422 H 0.52929 0.00917 0.19709
 H423 H 0.55809 -0.01110 0.04821
 H424 H 0.55555 -0.01287 -0.05938
 H425 H 0.52264 0.00685 -0.19602
 H426 H 0.49074 0.00584 -0.19081
 C427 C 1.18634 0.52500 0.30089
 C428 C 1.17038 0.52610 0.26676
 C429 C 1.15236 0.50765 0.24623
 C430 C 1.15064 0.48793 0.25887
 C431 C 1.16666 0.48669 0.29215
 C432 C 1.18493 0.50521 0.31492
 N433 N 1.13588 0.50932 0.21374
 N434 N 1.11785 0.49309 0.20234
 C435 C 1.10114 0.49449 0.17056
 C436 C 1.08075 0.47665 0.16979
 C437 C 1.06381 0.47765 0.14178
 C438 C 1.06708 0.49652 0.11301
 C439 C 1.08772 0.51429 0.11229
 C440 C 1.10459 0.51335 0.14126
 H441 H 1.20015 0.53997 0.31323
 H442 H 1.17202 0.54146 0.25661
 H443 H 1.13676 0.47337 0.24366
 H444 H 1.16369 0.47091 0.30286
 H445 H 1.07790 0.46201 0.19204
 H446 H 1.04815 0.46364 0.14274
 H447 H 1.09073 0.52904 0.09055
 H448 H 1.12027 0.52733 0.14098
 C449 C 0.53299 0.68374 0.31948
 C450 C 0.53364 0.66710 0.28841
 C451 C 0.51485 0.64923 0.26836
 C452 C 0.49526 0.64804 0.28039
 C453 C 0.49456 0.66452 0.31215
 C454 C 0.51342 0.68264 0.33191
 N455 N 0.51599 0.63246 0.23649
 N456 N 0.49989 0.61750 0.20879
 C457 C 0.50056 0.60035 0.17780
 C458 C 0.48328 0.58645 0.14026
 C459 C 0.48321 0.56938 0.10985
 C460 C 0.50033 0.56566 0.11741
 C461 C 0.51771 0.57967 0.15526
 C462 C 0.51788 0.59695 0.18496
 H463 H 0.54785 0.69756 0.33304
 H464 H 0.54884 0.66822 0.27934
 H465 H 0.48048 0.63428 0.26594
 H466 H 0.47919 0.66287 0.32203
 H467 H 0.46984 0.58891 0.13439
 H468 H 0.46965 0.55904 0.08075
 H469 H 0.53118 0.57732 0.16192
 H470 H 0.53139 0.60747 0.21399
 C471 C 0.31637 -0.17888 0.25856
 C472 C 0.33318 -0.16311 0.22341
 C473 C 0.35246 -0.14918 0.25274
 C474 C 0.35505 -0.15158 0.31761
 C475 C 0.33848 -0.16766 0.35264
 C476 C 0.31866 -0.18149 0.32405
 N477 N 0.36911 -0.13267 0.21600
 N478 N 0.38436 -0.11640 0.24212
 C479 C 0.40131 -0.09984 0.20647
 C480 C 0.41410 -0.08019 0.23559
 C481 C 0.43073 -0.06360 0.20233
 C482 C 0.43519 -0.06658 0.13966
 C483 C 0.42254 -0.08642 0.11063
 C484 C 0.40555 -0.10289 0.14357
 H485 H 0.30188 -0.18946 0.23340
 H486 H 0.33106 -0.16157 0.17322
 H487 H 0.36988 -0.14100 0.34129
 H488 H 0.34106 -0.16843 0.40288
 H489 H 0.41102 -0.07769 0.28410
 H490 H 0.44035 -0.04854 0.22603
 H491 H 0.42563 -0.08911 0.06231
 H492 H 0.39593 -0.11801 0.12028
 C493 C 0.81385 0.48419 0.30270
 C494 C 0.83033 0.48310 0.27213
 C495 C 0.85096 0.50059 0.27210
 C496 C 0.85495 0.51941 0.30252
 C497 C 0.83843 0.52060 0.33259
 C498 C 0.81774 0.50296 0.33324
 N499 N 0.86748 0.49884 0.24063
 N500 N 0.88693 0.51330 0.24392
 C501 C 0.90335 0.51160 0.21162
 C502 C 0.92456 0.52726 0.22131
 C503 C 0.94095 0.52627 0.18967
 C504 C 0.93633 0.50961 0.14721
 C505 C 0.91496 0.49384 0.13783
 C506 C 0.89863 0.49478 0.16987
 H507 H 0.79802 0.47043 0.30196
 H508 H 0.82705 0.46854 0.24863
 H509 H 0.87077 0.53318 0.30299
 H510 H 0.84189 0.53519 0.35626
 H511 H 0.92840 0.54031 0.25335
 H512 H 0.95719 0.53871 0.19790
 H513 H 0.91081 0.48081 0.10545
 H514 H 0.88234 0.48249 0.16145
 C515 C 0.50115 0.31375 0.25552
 C516 C 0.50129 0.33020 0.22062
 C517 C 0.50080 0.34695 0.25155
 C518 C 0.50079 0.34741 0.31819
 C519 C 0.50103 0.33116 0.35316
 C520 C 0.50094 0.31405 0.32211
 N521 N 0.50005 0.36311 0.21444
 N522 N 0.49523 0.37614 0.23884
 C523 C 0.49449 0.39244 0.20256
 C524 C 0.48536 0.40351 0.22976
 C525 C 0.48425 0.41946 0.19585
 C526 C 0.49265 0.42489 0.13426
 C527 C 0.50199 0.41387 0.10711
 C528 C 0.50277 0.39765 0.14079
 H529 H 0.50124 0.30080 0.23057
 H530 H 0.50139 0.32971 0.16933
 H531 H 0.50055 0.36027 0.34318
 H532 H 0.50075 0.33167 0.40444
 H533 H 0.47897 0.39967 0.27735
 H534 H 0.47712 0.42777 0.21827
 H535 H 0.50856 0.41768 0.05970
 H536 H 0.50999 0.38935 0.11886
 C537 C 0.66937 0.18864 0.29221
 C538 C 0.65271 0.17224 0.25824
 C539 C 0.65056 0.15202 0.25639
 C540 C 0.66546 0.14840 0.28846
 C541 C 0.68219 0.16481 0.32201
 C542 C 0.68428 0.18508 0.32446
 N543 N 0.63309 0.13543 0.22225
 N544 N 0.62934 0.11636 0.22342
 C545 C 0.61192 0.09956 0.18979
 C546 C 0.60771 0.07875 0.19859
 C547 C 0.59058 0.06187 0.16773
 C548 C 0.57741 0.06555 0.12686
 C549 C 0.58189 0.08656 0.11734
 C550 C 0.59894 0.10342 0.14877
 H551 H 0.67072 0.20417 0.29277
 H552 H 0.64137 0.17525 0.23361
 H553 H 0.66415 0.13290 0.28774
 H554 H 0.69332 0.16156 0.34695
 H555 H 0.61764 0.07559 0.23000
 H556 H 0.58768 0.04593 0.17598
 H557 H 0.57214 0.08998 0.08605
 H558 H 0.60194 0.11942 0.14103
 C559 C 0.47278 0.15450 -0.32333
 C560 C 0.47186 0.13678 -0.29412
 C561 C 0.49047 0.13695 -0.27627
 C562 C 0.51020 0.15506 -0.28866
 C563 C 0.51123 0.17270 -0.31875
 C564 C 0.49252 0.17287 -0.33653
 N565 N 0.48893 0.11860 -0.24575
 N566 N 0.50499 0.11889 -0.22034
 C567 C 0.50374 0.10064 -0.19008
 C568 C 0.52104 0.10321 -0.15405
 C569 C 0.52033 0.08588 -0.12305
 C570 C 0.50235 0.06548 -0.12844
 C571 C 0.48505 0.06288 -0.16539
 C572 C 0.48567 0.08035 -0.19568
 H573 H 0.45790 0.15324 -0.33781
 H574 H 0.45654 0.12283 -0.28529
 H575 H 0.52485 0.15560 -0.27507
 H576 H 0.52681 0.18647 -0.32543
 H577 H 0.53505 0.11876 -0.14944
 H578 H 0.53392 0.08848 -0.09497
 H579 H 0.47096 0.04741 -0.17042
 H580 H 0.47213 0.07798 -0.22361
 C581 C 0.68078 0.50091 -0.25615
 C582 C 0.66358 0.49938 -0.22204
 C583 C 0.64447 0.49404 -0.25262
 C584 C 0.64244 0.48951 -0.31771
 C585 C 0.65941 0.49052 -0.35175
 C586 C 0.67909 0.49657 -0.32189
 N587 N 0.62750 0.49362 -0.21695
 N588 N 0.61215 0.49427 -0.24400
 C589 C 0.59503 0.49382 -0.20919
 C590 C 0.58197 0.50015 -0.23968
 C591 C 0.56543 0.50043 -0.20690
 C592 C 0.56136 0.49387 -0.14328
 C593 C 0.57421 0.48708 -0.11298
 C594 C 0.59108 0.48726 -0.14550
 H595 H 0.69512 0.50481 -0.23005
 H596 H 0.66527 0.50269 -0.17168
 H597 H 0.62776 0.48529 -0.34238
 H598 H 0.65727 0.48758 -0.40222
 H599 H 0.58483 0.50516 -0.28879
 H600 H 0.55568 0.50557 -0.23154
 H601 H 0.57143 0.48199 -0.06391
 H602 H 0.60092 0.48218 -0.12112
 C603 C 0.82994 0.34452 -0.37487
 C604 C 0.84759 0.36200 -0.34791
 C605 C 0.85242 0.36193 -0.28387
 C606 C 0.83949 0.34401 -0.24675
 C607 C 0.82209 0.32628 -0.27382
 C608 C 0.81691 0.32616 -0.33854
 N609 N 0.87078 0.38003 -0.25804
 N610 N 0.87353 0.38318 -0.19860
 C611 C 0.89220 0.40095 -0.17285
 C612 C 0.89195 0.40683 -0.10993
 C613 C 0.90993 0.42406 -0.08335
 C614 C 0.92866 0.43537 -0.11901
 C615 C 0.92898 0.42930 -0.18198
 C616 C 0.91082 0.41235 -0.20895
 H617 H 0.82732 0.34517 -0.42513
 H618 H 0.85758 0.37567 -0.37715
 H619 H 0.84295 0.34362 -0.19698
 H620 H 0.81236 0.31300 -0.24302
 H621 H 0.87773 0.39812 -0.08159
 H622 H 0.90930 0.42828 -0.03451
 H623 H 0.94321 0.43778 -0.21047
 H624 H 0.91140 0.40797 -0.25760
 C625 C 0.51972 -0.15813 -0.37543
 C626 C 0.52011 -0.14060 -0.34698
 C627 C 0.51268 -0.14196 -0.28509
 C628 C 0.50496 -0.16112 -0.25146
 C629 C 0.50471 -0.17864 -0.27966
 C630 C 0.51204 -0.17739 -0.34211
 N631 N 0.51319 -0.12369 -0.25764
 N632 N 0.50489 -0.12434 -0.20401
 C633 C 0.50557 -0.10600 -0.17652
 C634 C 0.49425 -0.10834 -0.12067
 C635 C 0.49447 -0.09080 -0.09279
 C636 C 0.50625 -0.07049 -0.12012
 C637 C 0.51776 -0.06816 -0.17600
 C638 C 0.51735 -0.08576 -0.20412
 H639 H 0.52513 -0.15668 -0.42391
 H640 H 0.52604 -0.12594 -0.37347
 H641 H 0.49926 -0.16252 -0.20335
 H642 H 0.49901 -0.19308 -0.25224
 H643 H 0.48515 -0.12384 -0.09884
 H644 H 0.48553 -0.09315 -0.04957
 H645 H 0.52695 -0.05276 -0.19832
 H646 H 0.52629 -0.08353 -0.24722
 C647 C 0.33169 0.52127 -0.29752
 C648 C 0.34831 0.52121 -0.26405
 C649 C 0.34888 0.50237 -0.25647
 C650 C 0.33240 0.48341 -0.28210
 C651 C 0.31566 0.48340 -0.31497
 C652 C 0.31519 0.50235 -0.32329
 N653 N 0.36637 0.50293 -0.22310
 N654 N 0.36903 0.48691 -0.22088
 C655 C 0.38644 0.48729 -0.18765
 C656 C 0.38988 0.47011 -0.19428
 C657 C 0.40700 0.47014 -0.16374
 C658 C 0.42090 0.48734 -0.12528
 C659 C 0.41714 0.50442 -0.11775
 C660 C 0.40015 0.50447 -0.14896
 H661 H 0.33161 0.53605 -0.30278
 H662 H 0.36089 0.53591 -0.24440
 H663 H 0.33246 0.46863 -0.27680
 H664 H 0.30325 0.46864 -0.33489
 H665 H 0.37938 0.45676 -0.22383
 H666 H 0.40933 0.45668 -0.17039
 H667 H 0.42742 0.51784 -0.08817
 H668 H 0.39773 0.51789 -0.14279
 C669 C 1.18533 0.66647 -0.31174
 C670 C 1.16902 0.64907 -0.27993
 C671 C 1.15051 0.64908 -0.26226
 C672 C 1.14858 0.66694 -0.27587
 C673 C 1.16496 0.68450 -0.30690
 C674 C 1.18368 0.68462 -0.32602
 N675 N 1.13391 0.63080 -0.23085
 N676 N 1.11570 0.62877 -0.22080
 C677 C 1.09900 0.61064 -0.18920
 C678 C 1.07869 0.60830 -0.18742
 C679 C 1.06194 0.59074 -0.15758
 C680 C 1.06530 0.57528 -0.12817
 C681 C 1.08581 0.57778 -0.12944
 C682 C 1.10250 0.59525 -0.16001
 H683 H 1.19953 0.66581 -0.32273
 H684 H 1.17079 0.63546 -0.26915
 H685 H 1.13437 0.66733 -0.26281
 H686 H 1.16230 0.69751 -0.31820
 H687 H 1.07581 0.62008 -0.20960
 H688 H 1.04639 0.58938 -0.15715
 H689 H 1.08892 0.56614 -0.10732
 H690 H 1.11811 0.59675 -0.16058
 C691 C 0.84366 0.52544 -0.36339
 C692 C 0.86143 0.52649 -0.33407
 C693 C 0.85926 0.51518 -0.27842
 C694 C 0.83901 0.50278 -0.25185
 C695 C 0.82116 0.50168 -0.28089
 C696 C 0.82304 0.51297 -0.33753
 N697 N 0.87782 0.51644 -0.25017
 N698 N 0.87681 0.50588 -0.20081
 C699 C 0.89530 0.50702 -0.17256
 C700 C 0.89276 0.49422 -0.12000
 C701 C 0.91039 0.49467 -0.09172
 C702 C 0.93099 0.50806 -0.11552
 C703 C 0.93350 0.52104 -0.16812
 C704 C 0.91580 0.52051 -0.19650
 H705 H 0.84626 0.53378 -0.40787
 H706 H 0.87697 0.53596 -0.35533
 H707 H 0.83695 0.49403 -0.20834
 H708 H 0.80609 0.49253 -0.25701
 H709 H 0.87704 0.48377 -0.10113
 H710 H 0.90785 0.48449 -0.05120
 H711 H 0.94910 0.53150 -0.18771
 H712 H 0.91816 0.53057 -0.23714
 C713 C 0.51318 0.32514 -0.28946
 C714 C 0.51363 0.34173 -0.25500
 C715 C 0.49537 0.34335 -0.24907
 C716 C 0.47643 0.32801 -0.27774
 C717 C 0.47586 0.31134 -0.31219
 C718 C 0.49427 0.30951 -0.31906
 N719 N 0.49662 0.36090 -0.21469
 N720 N 0.48088 0.36397 -0.21033
 C721 C 0.48224 0.38172 -0.17688
 C722 C 0.46490 0.38509 -0.17889
 C723 C 0.46601 0.40280 -0.14939
 C724 C 0.48454 0.41744 -0.11687
 C725 C 0.50177 0.41373 -0.11363
 C726 C 0.50067 0.39607 -0.14356
 H727 H 0.52809 0.32535 -0.29478
 H728 H 0.52841 0.35361 -0.23364
 H729 H 0.46200 0.32883 -0.27331
 H730 H 0.46065 0.29956 -0.33123
 H731 H 0.45060 0.37412 -0.20430
 H732 H 0.45241 0.40509 -0.15258
 H733 H 0.51627 0.42469 -0.08901
 H734 H 0.51427 0.39376 -0.14117
 C735 C 0.66324 0.18517 -0.31407
 C736 C 0.64589 0.16836 -0.28369
 C737 C 0.64641 0.15001 -0.26693
 C738 C 0.66474 0.14879 -0.27962
 C739 C 0.68225 0.16572 -0.30903
 C740 C 0.68167 0.18407 -0.32724
 N741 N 0.62825 0.13293 -0.23676
 N742 N 0.62594 0.11444 -0.23184
 C743 C 0.60805 0.09748 -0.20034
 C744 C 0.60432 0.07674 -0.20670
 C745 C 0.58714 0.05987 -0.17588
 C746 C 0.57357 0.06356 -0.13719
 C747 C 0.57744 0.08446 -0.13072
 C748 C 0.59442 0.10124 -0.16236
 H749 H 0.66203 0.19884 -0.32828
 H750 H 0.63183 0.16947 -0.27415
 H751 H 0.66562 0.13486 -0.26626
 H752 H 0.69630 0.16446 -0.31699
 H753 H 0.61476 0.07366 -0.23573
 H754 H 0.58469 0.04400 -0.18157
 H755 H 0.56737 0.08787 -0.10110
 H756 H 0.59707 0.11717 -0.15638
 C757 C 1.18122 0.52384 -0.32269
 C758 C 1.16497 0.52497 -0.29081
 C759 C 1.14638 0.50642 -0.27350
 C760 C 1.14424 0.48659 -0.28785
 C761 C 1.16057 0.48542 -0.31913
 C762 C 1.17924 0.50404 -0.33715
 N763 N 1.13001 0.50816 -0.24120
 N764 N 1.11171 0.49213 -0.23122
 C765 C 1.09546 0.49388 -0.19821
 C766 C 1.07485 0.47637 -0.19675
 C767 C 1.05858 0.47762 -0.16535
 C768 C 1.06279 0.49639 -0.13408
 C769 C 1.08358 0.51389 -0.13508
 C770 C 1.09976 0.51269 -0.16717
 H771 H 1.19520 0.53849 -0.33675
 H772 H 1.16677 0.54034 -0.28011
 H773 H 1.13007 0.47202 -0.27440
 H774 H 1.15866 0.46993 -0.32842
 H775 H 1.07136 0.46178 -0.22038
 H776 H 1.04276 0.46383 -0.16513
 H777 H 1.08733 0.52859 -0.11160
 H778 H 1.11560 0.52642 -0.16745
 C779 C 0.52544 0.68116 -0.31992
 C780 C 0.52567 0.66370 -0.29301
 C781 C 0.50668 0.64506 -0.27981
 C782 C 0.48728 0.64395 -0.29418
 C783 C 0.48695 0.66125 -0.32200
 C784 C 0.50605 0.68028 -0.33549
 N785 N 0.50753 0.62751 -0.25204
 N786 N 0.49100 0.61127 -0.23080
 C787 C 0.49179 0.59366 -0.20329
 C788 C 0.47424 0.57855 -0.16907
 C789 C 0.47479 0.56164 -0.13942
 C790 C 0.49283 0.55932 -0.14464
 C791 C 0.51024 0.57421 -0.18053
 C792 C 0.50981 0.59135 -0.20925
 H793 H 0.54062 0.69492 -0.33110
 H794 H 0.54075 0.66468 -0.28253
 H795 H 0.47234 0.62969 -0.28409
 H796 H 0.47158 0.65978 -0.33058
 H797 H 0.46025 0.58014 -0.16433
 H798 H 0.46112 0.55042 -0.11223
 H799 H 0.52439 0.57289 -0.18517
 H800 H 0.52352 0.60278 -0.23588
 C801 C 0.31403 -0.15329 -0.32137
 C802 C 0.33056 -0.13602 -0.28968
 C803 C 0.34635 -0.13815 -0.25835
 C804 C 0.34546 -0.15785 -0.25888
 C805 C 0.32909 -0.17512 -0.29076
 C806 C 0.31294 -0.17329 -0.32298
 N807 N 0.36335 -0.12003 -0.22759
 N808 N 0.37727 -0.12148 -0.19460
 C809 C 0.39473 -0.10350 -0.16498
 C810 C 0.40853 -0.10677 -0.12642
 C811 C 0.42619 -0.08958 -0.09854
 C812 C 0.43046 -0.06868 -0.10916
 C813 C 0.41642 -0.06546 -0.14748
 C814 C 0.39867 -0.08273 -0.17507
 H815 H 0.30186 -0.15085 -0.34258
 H816 H 0.33098 -0.12092 -0.28925
 H817 H 0.35767 -0.15985 -0.23564
 H818 H 0.32992 -0.18954 -0.29204
 H819 H 0.40566 -0.12270 -0.11838
 H820 H 0.43664 -0.09268 -0.06937
 H821 H 0.41919 -0.04960 -0.15649
 H822 H 0.38822 -0.07982 -0.20484
 C823 C 0.48356 -0.19024 0.29156
 C824 C 0.48250 -0.17418 0.25806
 C825 C 0.50061 -0.15414 0.25130
 C826 C 0.51998 -0.15038 0.27775
 C827 C 0.52110 -0.16644 0.31086
 C828 C 0.50288 -0.18650 0.31843
 N829 N 0.49890 -0.13779 0.21847
 N830 N 0.51447 -0.11889 0.21530
 C831 C 0.51309 -0.10223 0.18340
 C832 C 0.53038 -0.08158 0.18709
 C833 C 0.52946 -0.06476 0.15821
 C834 C 0.51119 -0.06837 0.12459
 C835 C 0.49393 -0.08924 0.12008
 C836 C 0.49484 -0.10604 0.14947
 H837 H 0.46933 -0.20563 0.29614
 H838 H 0.46749 -0.17728 0.23780
 H839 H 0.53422 -0.13501 0.27320
 H840 H 0.53612 -0.16305 0.33168
 H841 H 0.54453 -0.07849 0.21303
 H842 H 0.54308 -0.04893 0.16233
 H843 H 0.47964 -0.09256 0.09453
 H844 H 0.48129 -0.12193 0.14586
 C845 C 0.31086 0.46856 0.33218
 C846 C 0.32756 0.46699 0.30493
 C847 C 0.34623 0.48527 0.28636
 C848 C 0.34818 0.50527 0.29617
 C849 C 0.33163 0.50689 0.32402
 C850 C 0.31269 0.48856 0.34203
 N851 N 0.36287 0.48317 0.25717
 N852 N 0.37868 0.49892 0.23104
 C853 C 0.39551 0.49729 0.20147
 C854 C 0.41004 0.51415 0.16384
 C855 C 0.42626 0.51291 0.13241
 C856 C 0.42849 0.49486 0.13907
 C857 C 0.41415 0.47811 0.17813
 C858 C 0.39767 0.47924 0.20876
 H859 H 0.29643 0.45411 0.34466
 H860 H 0.32584 0.45147 0.29745
 H861 H 0.36254 0.51966 0.28273
 H862 H 0.33380 0.52255 0.33215
 H863 H 0.40856 0.52816 0.15802
 H864 H 0.43703 0.52607 0.10277
 H865 H 0.41541 0.46397 0.18402
 H866 H 0.38665 0.46605 0.23798
 C867 C 1.16074 0.69251 0.31206
 C868 C 1.14339 0.67643 0.27951
 C869 C 1.14331 0.65787 0.26190
 C870 C 1.16084 0.65549 0.27729
 C871 C 1.17809 0.67143 0.31053
 C872 C 1.17825 0.69015 0.32846
 N873 N 1.12506 0.64150 0.22997
 N874 N 1.12502 0.62555 0.20519
 C875 C 1.10652 0.60885 0.17516
 C876 C 1.10838 0.59348 0.14057
 C877 C 1.09053 0.57670 0.11191
 C878 C 1.07039 0.57485 0.11836
 C879 C 1.06858 0.59035 0.15309
 C880 C 1.08650 0.60727 0.18097
 H881 H 1.16046 0.70684 0.32398
 H882 H 1.12998 0.67846 0.26778
 H883 H 1.16104 0.64116 0.26466
 H884 H 1.19111 0.66890 0.32327
 H885 H 1.12372 0.59451 0.13590
 H886 H 1.09246 0.56502 0.08559
 H887 H 1.05331 0.58942 0.15870
 H888 H 1.08466 0.61893 0.20775
 C889 C 0.47299 0.15566 0.31284
 C890 C 0.47280 0.13836 0.28349
 C891 C 0.49184 0.13861 0.27127
 C892 C 0.51121 0.15640 0.28896
 C893 C 0.51143 0.17361 0.31906
 C894 C 0.49232 0.17347 0.33143
 N895 N 0.49104 0.12051 0.24183
 N896 N 0.50762 0.12080 0.22109
 C897 C 0.50673 0.10249 0.19284
 C898 C 0.52442 0.10481 0.15959
 C899 C 0.52387 0.08729 0.13050
 C900 C 0.50569 0.06704 0.13531
 C901 C 0.48810 0.06469 0.16977
 C902 C 0.48855 0.08228 0.19793
 H903 H 0.45800 0.15512 0.32055
 H904 H 0.45778 0.12475 0.26988
 H905 H 0.52614 0.15687 0.28048
 H906 H 0.52657 0.18684 0.33375
 H907 H 0.53855 0.12029 0.15554
 H908 H 0.53768 0.08960 0.10441
 H909 H 0.47383 0.04932 0.17410
 H910 H 0.47473 0.08008 0.22379
 C911 C 0.68670 0.53290 0.31192
 C912 C 0.67025 0.53350 0.27904
 C913 C 0.65285 0.51477 0.25652
 C914 C 0.65199 0.49529 0.26753
 C915 C 0.66830 0.49463 0.30085
 C916 C 0.68590 0.51343 0.32338
 N917 N 0.63609 0.51584 0.22381
 N918 N 0.62105 0.49967 0.19666
 C919 C 0.60383 0.50026 0.16539
 C920 C 0.58893 0.48231 0.13216
 C921 C 0.57145 0.48198 0.10309
 C922 C 0.56847 0.49963 0.10735
 C923 C 0.58362 0.51776 0.14025
 C924 C 0.60119 0.51811 0.16887
 H925 H 0.70013 0.54770 0.32779
 H926 H 0.67110 0.54862 0.27083
 H927 H 0.63860 0.48055 0.25115
 H928 H 0.66693 0.47933 0.30988
 H929 H 0.59078 0.46846 0.12926
 H930 H 0.56009 0.46773 0.07831
 H931 H 0.58184 0.53164 0.14427
 H932 H 0.61250 0.53217 0.19446
 C933 C 0.84571 0.31633 0.33307
 C934 C 0.86352 0.33342 0.30518
 C935 C 0.86276 0.35136 0.28481
 C936 C 0.84396 0.35212 0.29306
 C937 C 0.82622 0.33516 0.32131
 C938 C 0.82683 0.31701 0.34144
 N939 N 0.88116 0.36854 0.25582
 N940 N 0.88059 0.38424 0.23116
 C941 C 0.89873 0.40163 0.20203
 C942 C 0.89599 0.41680 0.16910
 C943 C 0.91316 0.43372 0.13866
 C944 C 0.93352 0.43591 0.14137
 C945 C 0.93632 0.42084 0.17549
 C946 C 0.91904 0.40375 0.20535
 H947 H 0.84664 0.30251 0.34737
 H948 H 0.87790 0.33262 0.29894
 H949 H 0.84301 0.36588 0.27814
 H950 H 0.81212 0.33641 0.32823
 H951 H 0.88042 0.41534 0.16638
 H952 H 0.91045 0.44506 0.11292
 H953 H 0.95178 0.42203 0.17821
 H954 H 0.92153 0.39223 0.23082
   
