data_POSCAR
  _audit_creation_date              2014-09-24
  _audit_creation_method            'ToBaCCo'
  _symmetry_space_group_name_H-M    'P1'
  _symmetry_Int_Tables_number       1
  _symmetry_cell_setting            triclinic
  loop_
  _symmetry_equiv_pos_as_xyz
 x,y,z
_cell_length_a 26.3507
_cell_length_b 26.1172
_cell_length_c 26.1190
_cell_angle_alpha 89.857800
_cell_angle_beta 89.559200
_cell_angle_gamma 90.435900
loop_
  _atom_site_label
  _atom_site_type_symbol
  _atom_site_fract_x
  _atom_site_fract_y
  _atom_site_fract_z
N1 N 0.17713 1.27694 0.13981
 N2 N 0.15013 1.28554 0.18132
 C3 C 0.11954 1.32575 0.17303
 C4 C 0.12720 1.34297 0.12304
 C5 C 0.16440 1.31091 0.10346
 H6 H 0.09202 1.33945 0.20056
 H7 H 0.18066 1.31126 0.06538
 Cu8 Cu 0.15327 1.23963 0.23990
 Cu9 Cu 0.22412 1.22010 0.13450
 Cu10 Cu 0.24318 1.14952 0.24511
 N11 N 0.14774 1.18180 0.28682
 N12 N 0.18353 1.14722 0.28951
 C13 C 0.17081 1.11232 0.32539
 C14 C 0.12386 1.12523 0.34618
 C15 C 0.11057 1.16981 0.32050
 H16 H 0.19375 1.07942 0.33435
 H17 H 0.07662 1.19220 0.32570
 N18 N 0.28673 1.14350 0.18395
 N19 N 0.27986 1.17082 0.14204
 C20 C 0.31491 1.15747 0.10688
 C21 C 0.34456 1.11917 0.12728
 C22 C 0.32556 1.11113 0.17618
 H23 H 0.31753 1.17300 0.06852
 H24 H 0.33843 1.08320 0.20372
 H25 H 0.19401 1.17193 0.19100
 H26 H 0.24020 1.22260 0.21056
 N27 N 0.82860 0.71937 0.13820
 N28 N 0.86652 0.72535 0.17000
 C29 C 0.90035 0.68777 0.16231
 C30 C 0.88284 0.65651 0.12334
 C31 C 0.83693 0.67769 0.10919
 H32 H 0.93589 0.68458 0.18239
 H33 H 0.81292 0.66566 0.07800
 Cu34 Cu 0.87133 0.78456 0.21469
 Cu35 Cu 0.77573 0.77051 0.13205
 Cu36 Cu 0.76873 0.85988 0.22945
 N37 N 0.86552 0.83285 0.27074
 N38 N 0.82520 0.86141 0.27720
 C39 C 0.83247 0.89240 0.31766
 C40 C 0.88028 0.88302 0.33771
 C41 C 0.89982 0.84456 0.30678
 H42 H 0.80557 0.92089 0.33007
 H43 H 0.93656 0.82679 0.30939
 N44 N 0.71609 0.85241 0.17654
 N45 N 0.71922 0.81885 0.13898
 C46 C 0.68121 0.82705 0.10591
 C47 C 0.65280 0.86796 0.12321
 C48 C 0.67589 0.88282 0.16831
 H49 H 0.67587 0.80614 0.07070
 H50 H 0.66627 0.91564 0.19146
 H51 H 0.80861 0.83420 0.16713
 H52 H 0.77943 0.78400 0.20932
 N53 N 0.82220 1.28016 -0.13746
 N54 N 0.85479 1.28278 -0.17574
 C55 C 0.88756 1.32167 -0.16727
 C56 C 0.87507 1.34420 -0.12087
 C57 C 0.83317 1.31693 -0.10331
 H58 H 0.92005 1.33075 -0.19120
 H59 H 0.81328 1.32209 -0.06736
 Cu60 Cu 0.85435 1.23061 -0.22921
 Cu61 Cu 0.77252 1.22494 -0.13083
 Cu62 Cu 0.76452 1.13856 -0.23084
 N63 N 0.85361 1.17849 -0.28229
 N64 N 0.81842 1.14255 -0.28233
 C65 C 0.82864 1.10880 -0.31973
 C66 C 0.87278 1.12422 -0.34498
 C67 C 0.88718 1.16908 -0.32024
 H68 H 0.80598 1.07498 -0.32698
 H69 H 0.92107 1.19162 -0.32719
 N70 N 0.71439 1.14086 -0.17434
 N71 N 0.71810 1.17311 -0.13570
 C72 C 0.68133 1.16230 -0.10122
 C73 C 0.65315 1.12106 -0.11874
 C74 C 0.67503 1.10874 -0.16544
 H75 H 0.67629 1.18210 -0.06529
 H76 H 0.66476 1.07697 -0.18979
 H77 H 0.80857 1.16951 -0.17479
 H78 H 0.76548 1.21465 -0.20851
 N79 N 0.18070 0.71221 -0.15300
 N80 N 0.14121 0.71700 -0.18303
 C81 C 0.10595 0.68176 -0.16989
 C82 C 0.12427 0.65307 -0.12944
 C83 C 0.17213 0.67331 -0.12005
 H84 H 0.06918 0.67814 -0.18762
 H85 H 0.19785 0.66233 -0.08997
 Cu86 Cu 0.13842 0.77193 -0.23310
 Cu87 Cu 0.23892 0.75905 -0.15728
 Cu88 Cu 0.21477 0.87300 -0.22195
 N89 N 0.13740 0.82643 -0.28382
 N90 N 0.16710 0.86664 -0.27848
 C91 C 0.15565 0.90162 -0.31432
 C92 C 0.11641 0.88248 -0.34414
 C93 C 0.10623 0.83420 -0.32365
 H94 H 0.17381 0.93876 -0.31705
 H95 H 0.07672 0.80772 -0.33497
 N96 N 0.27280 0.86400 -0.17573
 N97 N 0.28246 0.82067 -0.15172
 C98 C 0.32299 0.82770 -0.12135
 C99 C 0.33982 0.87792 -0.12653
 C100 C 0.30714 0.89953 -0.16171
 H101 H 0.33758 0.79893 -0.09567
 H102 H 0.30755 0.93857 -0.17550
 H103 H 0.18951 0.81677 -0.16992
 H104 H 0.22729 0.79714 -0.22712
 C105 C 0.57177 1.06764 -0.01113
 H106 H 0.56874 1.07021 0.03011
 C107 C 0.60770 1.09730 -0.03741
 H108 H 0.63226 1.12245 -0.01580
 C109 C 0.54461 1.02961 -0.08861
 H110 H 0.52067 1.00232 -0.10819
 C111 C 0.58045 1.05824 -0.11643
 H112 H 0.58309 1.05320 -0.15747
 N113 N 0.54101 1.03481 -0.03690
 C114 C 0.42594 1.01002 0.08143
 H115 H 0.42946 0.96918 0.08728
 C116 C 0.39092 1.03775 0.11037
 H117 H 0.36767 1.01804 0.13865
 C118 C 0.45009 1.08478 0.03540
 H119 H 0.47232 1.10266 0.00527
 C120 C 0.41463 1.11369 0.06257
 H121 H 0.41048 1.15396 0.05374
 Zn122 Zn 0.49719 0.99313 0.00315
 N123 N 0.45499 1.03387 0.04515
 C124 C 0.54399 0.95702 0.09419
 N125 N 0.53958 0.95066 0.04273
 C126 C 0.56967 0.91736 0.01684
 C127 C 0.60574 0.88854 0.04275
 C128 C 0.57985 0.92919 0.12160
 C129 C 0.42226 0.98224 -0.06963
 C130 C 0.38577 0.95781 -0.09944
 C131 C 0.41344 0.87662 -0.06560
 C132 C 0.44960 0.90271 -0.03642
 N133 N 0.45327 0.95462 -0.03899
 H134 H 0.52111 0.98503 0.11383
 H135 H 0.56645 0.91418 -0.02430
 H136 H 0.62993 0.86320 0.02100
 H137 H 0.58314 0.93528 0.16241
 H138 H 0.42544 1.02357 -0.07022
 H139 H 0.36122 0.98106 -0.12276
 H140 H 0.41098 0.83537 -0.06265
 H141 H 0.47376 0.88153 -0.01086
 C142 C 0.38449 1.09008 0.10045
 C143 C 0.61277 1.09248 -0.09075
 C144 C 0.38055 0.90425 -0.09738
 C145 C 0.61169 0.89478 0.09577
 C146 C -0.01077 0.57264 1.07512
 H147 H 0.03007 0.57003 1.07798
 C148 C -0.03684 0.60953 1.10322
 H149 H -0.01548 0.63505 1.12762
 C150 C -0.08728 0.54406 1.03723
 H151 H -0.10658 0.51946 1.01036
 C152 C -0.11487 0.58069 1.06440
 H153 H -0.15544 0.58303 1.05883
 N154 N -0.03612 0.54092 1.04287
 C155 C 0.08108 0.42317 1.01504
 H156 H 0.08576 0.42737 0.97404
 C157 C 0.10865 0.38888 1.04046
 H158 H 0.13539 0.36600 1.01908
 C159 C 0.03785 0.44988 1.09082
 H160 H 0.00918 0.47239 1.10990
 C161 C 0.06682 0.41185 1.12045
 H162 H 0.05922 0.40884 1.16109
 Zn163 Zn 0.00384 0.49760 1.00131
 N164 N 0.04495 0.45446 1.04163
 C165 C 0.09506 0.54450 0.96303
 N166 N 0.04367 0.54136 0.95918
 C167 C 0.01778 0.57282 0.92734
 C168 C 0.04356 0.60878 0.89717
 C169 C 0.12242 0.58024 0.93369
 C170 C -0.07035 0.42287 0.98708
 C171 C -0.10027 0.38760 0.96073
 C172 C -0.06165 0.41657 0.88153
 C173 C -0.03276 0.45176 0.90942
 N174 N -0.03764 0.45423 0.96126
 H175 H 0.11484 0.52026 0.98971
 H176 H -0.02319 0.57033 0.92595
 H177 H 0.02182 0.63378 0.87278
 H178 H 0.16325 0.58227 0.93745
 H179 H -0.07272 0.42496 1.02839
 H180 H -0.12543 0.36262 0.98235
 H181 H -0.05703 0.41489 0.84036
 H182 H -0.00565 0.47614 0.88971
 C183 C 0.10087 0.38162 1.09657
 C184 C -0.08954 0.61449 1.09747
 C185 C -0.09580 0.38376 0.90726
 C186 C 0.09661 0.61314 0.90034
 C187 C 1.07521 -0.01222 0.56955
 H188 H 1.08339 0.02766 0.56145
 C189 C 1.10251 -0.03737 0.60425
 H190 H 1.13265 -0.01695 0.62344
 C191 C 1.02358 -0.08541 0.55205
 H192 H 0.99177 -0.10329 0.53306
 C193 C 1.05239 -0.11468 0.59044
 H194 H 1.04132 -0.15406 0.59726
 N195 N 1.03480 -0.03764 0.54293
 C196 C 1.01589 0.08817 0.43206
 H197 H 0.97739 0.09932 0.44109
 C198 C 1.04309 0.11499 0.39770
 H199 H 1.02579 0.14774 0.37968
 C200 C 1.08278 0.02875 0.44547
 H201 H 1.09715 -0.00598 0.46243
 C202 C 1.11412 0.05689 0.40761
 H203 H 1.15169 0.04253 0.39956
 Zn204 Zn 0.99505 0.00327 0.49921
 N205 N 1.03722 0.04415 0.45670
 C206 C 0.96889 0.09229 0.55483
 N207 N 0.95413 0.04395 0.54242
 C208 C 0.91324 0.02144 0.56538
 C209 C 0.88454 0.04812 0.60145
 C210 C 0.94185 0.12013 0.59147
 C211 C 0.98013 -0.07492 0.42885
 C212 C 0.95535 -0.10287 0.39099
 C213 C 0.88044 -0.05213 0.40584
 C214 C 0.90670 -0.02535 0.44374
 N215 N 0.95560 -0.03724 0.45454
 H216 H 1.00267 0.10875 0.53753
 H217 H 0.90341 -0.01777 0.55628
 H218 H 0.85264 0.02852 0.61912
 H219 H 0.95499 0.15831 0.60063
 H220 H 1.01953 -0.08254 0.43709
 H221 H 0.97656 -0.13220 0.37133
 H222 H 0.84182 -0.04116 0.39791
 H223 H 0.88853 0.00617 0.46312
 C224 C 1.09543 0.09855 0.38384
 C225 C 1.09026 -0.09179 0.61661
 C226 C 0.90485 -0.09130 0.37818
 C227 C 0.89907 0.09806 0.61587
   
