data_POSCAR
  _audit_creation_date              2014-09-24
  _audit_creation_method            'ToBaCCo'
  _symmetry_space_group_name_H-M    'P1'
  _symmetry_Int_Tables_number       1
  _symmetry_cell_setting            triclinic
  loop_
  _symmetry_equiv_pos_as_xyz
 x,y,z
_cell_length_a 22.2774
_cell_length_b 21.3488
_cell_length_c 22.7511
_cell_angle_alpha 89.292200
_cell_angle_beta 90.088400
_cell_angle_gamma 90.207900
loop_
  _atom_site_label
  _atom_site_type_symbol
  _atom_site_fract_x
  _atom_site_fract_y
  _atom_site_fract_z
N1 N 0.19768 0.19655 0.18693
 N2 N -0.17710 0.82016 0.19423
 N3 N -0.17550 0.16031 -0.17123
 N4 N 0.17494 0.82247 -0.18674
 N5 N 0.19855 1.19287 0.81021
 N6 N 0.80049 0.80739 0.79922
 N7 N 0.16258 0.83630 1.17930
 N8 N 0.81708 1.17880 1.18514
 O9 O 0.39536 0.87985 0.91208
 O10 O 0.34010 0.94293 0.97257
 C11 C 0.34493 0.89956 0.93368
 O12 O 0.58254 0.86974 1.10701
 O13 O 0.64840 0.92182 1.04612
 C14 C 0.63611 0.88241 1.08840
 O15 O 0.41650 0.88023 1.11760
 O16 O 0.35012 0.94418 1.06829
 C17 C 0.36286 0.90085 1.10672
 O18 O 0.56173 0.87824 0.88503
 O19 O 0.63809 0.92252 0.93817
 C20 C 0.61814 0.88902 0.89503
 Zr21 Zr 0.48534 0.90533 0.93337
 O22 O 0.48740 0.80664 0.94407
 O23 O 0.46927 0.89187 0.84284
 Zr24 Zr 0.49961 0.90699 1.07985
 O25 O 0.49716 0.80783 1.07884
 O26 O 0.50337 0.90653 1.17285
 O27 O 0.43784 0.89880 1.01174
 O28 O 0.54448 0.89038 1.00189
 O29 O 0.57993 1.08302 0.88588
 O30 O 0.64748 1.02532 0.94014
 C31 C 0.63391 1.06436 0.89825
 O32 O 0.43378 1.10186 1.11679
 O33 O 0.35822 1.05263 1.06607
 C34 C 0.37740 1.09060 1.10613
 O35 O 0.60238 1.08582 1.10234
 O36 O 0.65696 1.02456 1.03971
 C37 C 0.65285 1.06570 1.08066
 O38 O 0.41438 1.09845 0.89963
 O39 O 0.34859 1.04866 0.96230
 C40 C 0.36070 1.08452 0.91725
 Zr41 Zr 0.49778 1.06411 0.92940
 O42 O 0.51009 1.16227 0.93513
 O43 O 0.48727 1.07337 0.83734
 Zr44 Zr 0.51212 1.06556 1.07617
 O45 O 0.52299 1.16363 1.06522
 O46 O 0.52173 1.07631 1.16792
 Zr47 Zr 0.40963 0.99315 1.01241
 Zr48 Zr 0.58768 0.97790 0.99663
 O49 O 0.55817 1.07157 0.99771
 O50 O 0.45160 1.08176 1.00718
 O51 O 0.54265 0.98056 0.91499
 O52 O 0.45554 0.99039 1.09344
 O53 O 0.43968 0.98839 0.92477
 O54 O 0.55972 0.98188 1.08504
 H55 H 0.57002 0.85257 0.99945
 H56 H 0.43270 0.99169 1.13071
 H57 H 0.58833 1.10565 0.99424
 H58 H 0.41133 0.98810 0.89122
 H59 H 0.53812 0.93269 1.18439
 H60 H 0.51074 1.03571 1.18629
 H61 H 0.48305 1.18155 1.05624
 H62 H 0.47153 1.18052 0.94790
 H63 H 0.50303 1.03452 0.81997
 H64 H 0.47550 0.93300 0.82336
 H65 H 0.44705 0.79292 0.95715
 H66 H 0.45868 0.79508 1.06070
 O67 O -0.08060 0.39865 0.11431
 O68 O -0.01674 0.34027 0.05833
 C69 C -0.05643 0.34601 0.09917
 O70 O -0.13219 0.55909 -0.10275
 O71 O -0.08515 0.64127 -0.05728
 C72 C -0.12402 0.61852 -0.09380
 O73 O -0.10749 0.38475 -0.08266
 O74 O -0.03145 0.33310 -0.03421
 C75 C -0.08032 0.33403 -0.06499
 O76 O -0.09271 0.57432 0.12089
 O77 O -0.07094 0.64770 0.04964
 C78 C -0.09151 0.63145 0.10095
 Zr79 Zr -0.06645 0.49054 0.07996
 O80 O -0.16109 0.48414 0.08704
 O81 O -0.06182 0.48513 0.17266
 Zr82 Zr -0.08662 0.48042 -0.06661
 O83 O -0.18008 0.47045 -0.05251
 O84 O -0.09933 0.46503 -0.15747
 O85 O -0.07731 0.42878 0.01099
 O86 O -0.09782 0.53752 0.00589
 O87 O 0.09686 0.61635 0.08211
 O88 O 0.02306 0.66775 0.03019
 C89 C 0.06855 0.66686 0.06538
 O90 O 0.11212 0.43112 -0.11101
 O91 O 0.07102 0.35443 -0.05185
 C92 C 0.10777 0.37367 -0.09230
 O93 O 0.07191 0.60109 -0.12604
 O94 O 0.01098 0.65999 -0.06755
 C95 C 0.04770 0.65369 -0.11087
 O96 O 0.13384 0.44225 0.08676
 O97 O 0.08252 0.36049 0.04530
 C98 C 0.12539 0.38291 0.07718
 Zr99 Zr 0.08172 0.52083 0.05907
 O100 O 0.17285 0.54538 0.04539
 O101 O 0.09515 0.52199 0.15118
 Zr102 Zr 0.06077 0.51033 -0.08810
 O103 O 0.15006 0.53328 -0.11118
 O104 O 0.04197 0.49493 -0.17807
 Zr105 Zr 0.01496 0.40978 0.00066
 Zr106 Zr -0.02021 0.59174 -0.00818
 O107 O 0.07161 0.57066 -0.01848
 O108 O 0.09323 0.46370 -0.01343
 O109 O -0.00074 0.56036 0.07809
 O110 O -0.00406 0.44084 -0.08542
 O111 O 0.01903 0.45338 0.08296
 O112 O -0.02462 0.54927 -0.09135
 H113 H -0.13605 0.56073 0.00961
 H114 H -0.00302 0.40949 -0.11716
 H115 H 0.10133 0.60478 -0.02439
 H116 H 0.02829 0.42781 0.11844
 H117 H -0.07789 0.49896 -0.17879
 H118 H 0.02147 0.53268 -0.19368
 H119 H 0.17293 0.53494 -0.07400
 H120 H 0.19151 0.51127 0.02278
 H121 H 0.06741 0.55345 0.16744
 H122 H -0.02208 0.50199 0.18381
 H123 H -0.17292 0.44114 0.07603
 H124 H -0.18586 0.43492 -0.02475
 O125 O 0.88902 0.12384 0.42763
 O126 O 0.93827 0.06450 0.35952
 C127 C 0.89874 0.10606 0.37437
 O128 O 1.11450 0.13201 0.57315
 O129 O 1.06718 0.07255 0.64409
 C130 C 1.10396 0.11644 0.62766
 O131 O 1.09723 0.13071 0.40880
 O132 O 1.04093 0.06643 0.34979
 C133 C 1.07870 0.11213 0.35773
 O134 O 0.90237 0.12614 0.58924
 O135 O 0.96294 0.06971 0.65205
 C136 C 0.92152 0.11091 0.64114
 Zr137 Zr 0.92807 0.09223 0.50674
 O138 O 0.92825 0.19144 0.50764
 O139 O 0.83304 0.09022 0.50992
 Zr140 Zr 1.07900 0.09418 0.49397
 O141 O 1.08771 0.19276 0.49144
 O142 O 1.17289 0.08643 0.48162
 O143 O 0.99857 0.10439 0.44759
 O144 O 1.00768 0.10605 0.55072
 O145 O 0.90245 -0.09325 0.59913
 O146 O 0.96667 -0.03557 0.65627
 C147 C 0.92405 -0.07643 0.64981
 O148 O 1.09686 -0.10553 0.41801
 O149 O 1.04089 -0.04517 0.35432
 C150 C 1.07776 -0.09063 0.36599
 O151 O 1.12438 -0.08843 0.57773
 O152 O 1.07158 -0.03298 0.64618
 C153 C 1.11360 -0.07156 0.63109
 O154 O 0.89010 -0.09998 0.43352
 O155 O 0.94049 -0.04387 0.36215
 C156 C 0.90097 -0.08504 0.37892
 Zr157 Zr 0.92915 -0.06564 0.51246
 O158 O 0.93434 -0.16441 0.52068
 O159 O 0.83430 -0.07002 0.51571
 Zr160 Zr 1.08007 -0.06313 0.49920
 O161 O 1.08465 -0.16147 0.51086
 O162 O 1.17339 -0.06022 0.48167
 Zr163 Zr 0.99616 0.01225 0.41517
 Zr164 Zr 1.01184 0.01664 0.59076
 O165 O 1.00957 -0.07474 0.55728
 O166 O 0.99977 -0.07803 0.45399
 O167 O 0.92150 0.01467 0.56303
 O168 O 1.08590 0.01420 0.44401
 O169 O 0.91326 0.01189 0.45975
 O170 O 1.09597 0.01722 0.54823
 H171 H 1.00864 0.14412 0.57514
 H172 H 1.11794 0.01342 0.41384
 H173 H 1.01293 -0.11064 0.58510
 H174 H 0.87502 0.01104 0.43749
 H175 H 1.19129 0.07731 0.52040
 H176 H 1.19225 -0.03287 0.51128
 H177 H 1.04975 -0.17961 0.49019
 H178 H 0.94658 -0.18100 0.48210
 H179 H 0.82102 -0.03939 0.54518
 H180 H 0.82112 0.06705 0.54600
 H181 H 0.94850 0.20640 0.47137
 H182 H 1.04743 0.20994 0.49921
 N183 N 1.08243 0.20719 0.29465
 N184 N 1.11423 0.23006 0.25036
 C185 C 1.15356 0.18616 0.23281
 C186 C 1.14611 0.13245 0.26764
 C187 C 1.10005 0.14810 0.30615
 H188 H 1.17179 0.08955 0.26670
 H189 H 1.05018 0.23242 0.31767
 H190 H 1.11000 0.27580 0.23420
 N191 N 0.80605 -0.13212 0.34176
 N192 N 0.78426 -0.15389 0.29193
 C193 C 0.82749 -0.15042 0.25068
 C194 C 0.87926 -0.12524 0.27517
 C195 C 0.86347 -0.11415 0.33323
 H196 H 0.92244 -0.11798 0.25440
 H197 H 0.78179 -0.12956 0.38091
 H198 H 0.74132 -0.17294 0.28709
 N199 N 0.86534 0.19906 0.68375
 N200 N 0.84014 0.21295 0.73430
 C201 C 0.85285 0.16679 0.77295
 C202 C 0.88728 0.12139 0.74672
 C203 C 0.89416 0.14392 0.68995
 H204 H 0.90127 0.07668 0.76491
 H205 H 0.86102 0.22591 0.64529
 H206 H 0.81230 0.25142 0.74108
 N207 N 1.20269 -0.13031 0.66744
 N208 N 1.21988 -0.15761 0.71707
 C209 C 1.17937 -0.14417 0.75873
 C210 C 1.13470 -0.10669 0.73525
 C211 C 1.15104 -0.09937 0.67720
 H212 H 1.09351 -0.09177 0.75579
 H213 H 1.22438 -0.13556 0.62714
 H214 H 1.25609 -0.18830 0.72109
 N215 N 0.34240 1.13198 1.20218
 N216 N 0.29305 1.15600 1.22485
 C217 C 0.25085 1.15908 1.18256
 C218 C 0.27433 1.13634 1.13048
 C219 C 0.33262 1.11946 1.14499
 H220 H 0.25312 1.13532 1.08768
 H221 H 0.38225 1.12481 1.22552
 H222 H 0.28952 1.17298 1.26755
 N223 N 0.24248 0.85805 0.94948
 N224 N 0.19757 0.83651 0.91769
 C225 C 0.21476 0.83632 0.86095
 C226 C 0.27341 0.85770 0.85621
 C227 C 0.28906 0.87089 0.91366
 H228 H 0.29975 0.86533 0.81683
 H229 H 0.24078 0.86456 0.99481
 H230 H 0.15542 0.82469 0.93461
 N231 N 0.67821 0.78883 1.13791
 N232 N 0.72743 0.77237 1.16627
 C233 C 0.76585 0.82108 1.16495
 C234 C 0.74080 0.87087 1.13391
 C235 C 0.68488 0.84791 1.11736
 H236 H 0.75937 0.91719 1.12645
 H237 H 0.64036 0.76023 1.13351
 H238 H 0.73385 0.72917 1.18735
 N239 N 0.67803 1.10122 0.80421
 N240 N 0.72906 1.12584 0.78558
 C241 C 0.76646 1.13120 0.83193
 C242 C 0.73875 1.10814 0.88213
 C243 C 0.68268 1.08961 0.86229
 H244 H 0.75597 1.10684 0.92659
 H245 H 0.64073 1.09277 0.77755
 H246 H 0.73710 1.14003 0.74221
 N247 N 0.21903 0.34985 0.12961
 N248 N 0.23855 0.29928 0.15776
 C249 C 0.19656 0.25400 0.15339
 C250 C 0.14869 0.27590 0.12057
 C251 C 0.16466 0.33712 0.10653
 H252 H 0.10666 0.25225 0.11182
 H253 H 0.24181 0.39268 0.12785
 H254 H 0.27836 0.29702 0.18197
 N255 N -0.09642 0.21939 -0.04995
 N256 N -0.12432 0.17321 -0.07705
 C257 C -0.15303 0.19733 -0.12411
 C258 C -0.14323 0.26133 -0.12745
 C259 C -0.10695 0.27333 -0.07969
 H260 H -0.15684 0.29367 -0.16189
 H261 H -0.06942 0.21363 -0.01270
 H262 H -0.12093 0.12590 -0.06534
 N263 N 0.03567 0.76583 -0.13708
 N264 N 0.07000 0.81148 -0.15771
 C265 C 0.12204 0.78640 -0.17554
 C266 C 0.12130 0.72242 -0.16616
 C267 C 0.06552 0.71126 -0.14160
 H268 H 0.15841 0.69016 -0.17004
 H269 H -0.00538 0.77282 -0.11618
 H270 H 0.05983 0.85904 -0.15486
 N271 N -0.10274 0.67481 0.20079
 N272 N -0.12154 0.72670 0.22564
 C273 C -0.14006 0.76661 0.18309
 C274 C -0.13223 0.73910 0.12854
 C275 C -0.10888 0.68064 0.14204
 H276 H -0.14537 0.75725 0.08582
 H277 H -0.08671 0.63575 0.22394
 H278 H -0.12484 0.73277 0.27099
 N279 N 1.13449 0.21735 0.67180
 N280 N 1.15658 0.23789 0.72196
 C281 C 1.16968 0.18817 0.75693
 C282 C 1.15362 0.13339 0.72792
 C283 C 1.13184 0.15436 0.67393
 H284 H 1.15691 0.08548 0.74372
 H285 H 1.12045 0.24625 0.63707
 H286 H 1.16476 0.28508 0.73062
 N287 N 0.92903 -0.10525 0.75636
 N288 N 0.89704 -0.13680 0.79575
 C289 C 0.84717 -0.15833 0.76939
 C290 C 0.84706 -0.14001 0.71056
 C291 C 0.90030 -0.10638 0.70406
 H292 H 0.81328 -0.14957 0.67762
 H293 H 0.97008 -0.08353 0.76530
 H294 H 0.90882 -0.14228 0.83994
 N295 N 1.11630 -0.18950 0.32525
 N296 N 1.13829 -0.20947 0.27510
 C297 C 1.13581 -0.16194 0.23597
 C298 C 1.11085 -0.10964 0.26112
 C299 C 1.09926 -0.12933 0.31808
 H300 H 1.10533 -0.06337 0.24194
 H301 H 1.11420 -0.21632 0.36391
 H302 H 1.15640 -0.25389 0.26857
 N303 N 0.81828 0.17770 0.33897
 N304 N 0.79401 0.19481 0.28830
 C305 C 0.81930 0.16103 0.24559
 C306 C 0.86220 0.12147 0.26946
 C307 C 0.86028 0.13376 0.32880
 H308 H 0.89332 0.09168 0.24649
 H309 H 0.80780 0.19769 0.37934
 H310 H 0.76345 0.23141 0.28284
 N311 N 0.20874 0.32815 -0.10222
 N312 N 0.23413 0.27559 -0.12783
 C313 C 0.18998 0.24540 -0.15687
 C314 C 0.13606 0.27741 -0.15043
 C315 C 0.14997 0.32832 -0.11573
 H316 H 0.09244 0.26467 -0.16767
 H317 H 0.23160 0.36017 -0.07594
 H318 H 0.27994 0.26542 -0.12756
 N319 N -0.04556 0.23412 0.12730
 N320 N -0.07976 0.18910 0.14935
 C321 C -0.13301 0.21418 0.16346
 C322 C -0.13307 0.27760 0.15132
 C323 C -0.07654 0.28826 0.12808
 H324 H -0.16989 0.31018 0.15539
 H325 H -0.00256 0.22730 0.11040
 H326 H -0.06739 0.14208 0.15286
 N327 N -0.20901 0.64702 -0.16007
 N328 N -0.22814 0.69690 -0.18936
 C329 C -0.19031 0.74483 -0.17890
 C330 C -0.14586 0.72541 -0.14030
 C331 C -0.15950 0.66280 -0.12946
 H332 H -0.10955 0.75268 -0.12214
 H333 H -0.22971 0.60306 -0.16107
 H334 H -0.26622 0.69775 -0.21617
 N335 N 0.06011 0.78225 0.07388
 N336 N 0.08590 0.82786 0.10342
 C337 C 0.13152 0.80333 0.13452
 C338 C 0.13487 0.73944 0.12568
 C339 C 0.08847 0.72798 0.08681
 H340 H 0.16422 0.70597 0.14719
 H341 H 0.02241 0.78806 0.04703
 H342 H 0.07109 0.87421 0.10387
 N343 N 0.31504 1.08504 0.81896
 N344 N 0.27163 1.11349 0.78974
 C345 C 0.24061 1.14932 0.82749
 C346 C 0.26503 1.14160 0.88399
 C347 C 0.31256 1.10113 0.87593
 H348 H 0.25285 1.16507 0.92411
 H349 H 0.34778 1.05723 0.79947
 H350 H 0.26752 1.11213 0.74407
 N351 N 0.32070 0.84019 1.19108
 N352 N 0.26721 0.82390 1.21112
 C353 C 0.22566 0.84658 1.17359
 C354 C 0.25300 0.87920 1.12828
 C355 C 0.31350 0.87389 1.14107
 H356 H 0.23186 0.90359 1.09186
 H357 H 0.36122 0.82864 1.21160
 H358 H 0.25978 0.79703 1.24907
 N359 N 0.76121 1.08704 1.06889
 N360 N 0.80464 1.11774 1.09548
 C361 C 0.78238 1.14211 1.14510
 C362 C 0.72188 1.12707 1.15036
 C363 C 0.71032 1.09211 1.10051
 H364 H 0.69097 1.14038 1.18462
 H365 H 0.76641 1.06378 1.02911
 H366 H 0.84848 1.12137 1.07966
 N367 N 0.64617 0.84107 0.79966
 N368 N 0.69532 0.82273 0.77248
 C369 C 0.74273 0.83484 0.80720
 C370 C 0.72325 0.86117 0.85912
 C371 C 0.66150 0.86436 0.85249
 H372 H 0.74977 0.87275 0.89740
 H373 H 0.60283 0.83651 0.78261
 H374 H 0.69599 0.79979 0.73221
   
