data_POSCAR
  _audit_creation_date              2014-09-24
  _audit_creation_method            'ToBaCCo'
  _symmetry_space_group_name_H-M    'P1'
  _symmetry_Int_Tables_number       1
  _symmetry_cell_setting            triclinic
  loop_
  _symmetry_equiv_pos_as_xyz
 x,y,z
_cell_length_a 46.5528
_cell_length_b 48.1024
_cell_length_c 23.3304
_cell_angle_alpha 89.962000
_cell_angle_beta 90.165100
_cell_angle_gamma 118.490900
loop_
  _atom_site_label
  _atom_site_type_symbol
  _atom_site_fract_x
  _atom_site_fract_y
  _atom_site_fract_z
C1 C 0.12967 0.40329 0.49607
 C2 C 0.14713 0.40965 0.44432
 C3 C 0.17997 0.41641 0.44651
 C4 C 0.19515 0.41576 0.49810
 C5 C 0.17680 0.40927 0.54944
 C6 C 0.14458 0.40522 0.54973
 C7 C 0.23105 0.42533 0.49828
 C8 C 0.24999 0.43899 0.54763
 C9 C 0.28365 0.44954 0.54827
 C10 C 0.29930 0.44837 0.49795
 C11 C 0.28160 0.43624 0.44708
 C12 C 0.24733 0.42335 0.44823
 H13 H 0.10381 0.39571 0.49425
 H14 H 0.19461 0.42485 0.40830
 H15 H 0.18838 0.40919 0.58934
 H16 H 0.23916 0.44271 0.58575
 H17 H 0.32545 0.45684 0.49841
 H18 H 0.23380 0.41285 0.40937
 C19 C 0.55719 -0.29404 0.50163
 C20 C 0.55224 -0.28101 0.45090
 C21 C 0.55260 -0.25171 0.45412
 C22 C 0.56011 -0.23427 0.50527
 C23 C 0.56579 -0.24776 0.55531
 C24 C 0.56227 -0.27867 0.55508
 C25 C 0.55974 -0.20310 0.50654
 C26 C 0.55298 -0.19218 0.55795
 C27 C 0.55126 -0.16395 0.56003
 C28 C 0.55457 -0.14694 0.50954
 C29 C 0.56024 -0.15753 0.45692
 C30 C 0.56406 -0.18489 0.45619
 H31 H 0.55634 -0.31682 0.49955
 H32 H 0.54789 -0.24199 0.41589
 H33 H 0.57134 -0.23484 0.59501
 H34 H 0.54860 -0.20558 0.59706
 H35 H 0.55126 -0.12613 0.51108
 H36 H 0.57039 -0.19163 0.41596
 C37 C 1.28534 0.84187 0.50153
 C38 C 1.27453 0.82603 0.44864
 C39 C 1.24906 0.79456 0.44908
 C40 C 1.23391 0.77907 0.50010
 C41 C 1.24488 0.79603 0.55224
 C42 C 1.27124 0.82698 0.55353
 C43 C 1.20855 0.74466 0.49886
 C44 C 1.20451 0.72560 0.54705
 C45 C 1.18215 0.69304 0.54744
 C46 C 1.16549 0.67904 0.49613
 C47 C 1.16985 0.69703 0.44642
 C48 C 1.19014 0.72997 0.44889
 H49 H 1.30660 0.86504 0.50301
 H50 H 1.24075 0.78205 0.40915
 H51 H 1.23326 0.78533 0.59231
 H52 H 1.22034 0.73575 0.58366
 H53 H 1.14775 0.65420 0.49474
 H54 H 1.19204 0.74366 0.41103
 C55 C 0.87515 0.58099 0.51129
 C56 C 0.85846 0.57343 0.45873
 C57 C 0.82814 0.57292 0.45486
 C58 C 0.81490 0.58138 0.50179
 C59 C 0.83269 0.58977 0.55374
 C60 C 0.86216 0.58855 0.55943
 C61 C 0.78190 0.57964 0.49699
 C62 C 0.76149 0.57302 0.54544
 C63 C 0.72978 0.56991 0.54110
 C64 C 0.71828 0.57188 0.48614
 C65 C 0.73760 0.57733 0.43728
 C66 C 0.76975 0.58271 0.44322
 H67 H 0.89792 0.58017 0.51507
 H68 H 0.81443 0.56460 0.41541
 H69 H 0.82376 0.59710 0.59035
 H70 H 0.77055 0.57069 0.58674
 H71 H 0.69334 0.56730 0.48013
 H72 H 0.78464 0.58803 0.40516
 C73 C 0.44406 0.30441 0.51431
 C74 C 0.44956 0.29292 0.46283
 C75 C 0.44640 0.26252 0.46114
 C76 C 0.43625 0.24273 0.50981
 C77 C 0.43024 0.25483 0.56112
 C78 C 0.43606 0.28643 0.56508
 C79 C 0.43384 0.21037 0.50785
 C80 C 0.43766 0.19610 0.55826
 C81 C 0.43667 0.16631 0.55725
 C82 C 0.43312 0.15154 0.50371
 C83 C 0.43121 0.16590 0.45271
 C84 C 0.42993 0.19439 0.45524
 H85 H 0.44535 0.32748 0.51388
 H86 H 0.45302 0.25510 0.42192
 H87 H 0.42264 0.24009 0.59871
 H88 H 0.44380 0.20916 0.59796
 H89 H 0.43122 0.12828 0.50080
 H90 H 0.42702 0.20437 0.41558
 C91 C 0.69381 0.15367 0.51492
 C92 C 0.70762 0.16102 0.46013
 C93 C 0.73829 0.18779 0.45287
 C94 C 0.75403 0.20885 0.49878
 C95 C 0.73880 0.20129 0.55314
 C96 C 0.70917 0.17356 0.56161
 C97 C 0.78499 0.23943 0.48945
 C98 C 0.80570 0.25578 0.53591
 C99 C 0.83297 0.28610 0.52930
 C100 C 0.84100 0.29851 0.47338
 C101 C 0.82165 0.28222 0.42614
 C102 C 0.79344 0.25327 0.43455
 H103 H 0.67078 0.13235 0.52117
 H104 H 0.74905 0.19245 0.41069
 H105 H 0.74896 0.21732 0.58896
 H106 H 0.80116 0.24451 0.57734
 H107 H 0.86152 0.32164 0.46594
 H108 H 0.77780 0.24244 0.39794
 O109 O 0.99693 0.53792 -0.08304
 O110 O 1.02976 0.51500 0.10282
 O111 O 0.94567 0.50089 0.04036
 O112 O 1.08805 0.53358 -0.04313
 O113 O 0.96999 0.48623 0.10553
 O114 O 1.05069 0.54398 -0.07522
 O115 O 1.05438 0.54512 0.02953
 O116 O 0.94719 0.50283 -0.06840
 C117 C 0.96740 0.52958 -0.08607
 C118 C 1.04750 0.54228 0.08194
 C119 C 0.95306 0.49939 0.09161
 C120 C 1.07913 0.54733 -0.08144
 O121 O 1.02932 0.48504 -0.11937
 O122 O 0.97124 0.43454 0.05995
 O123 O 0.93943 0.44538 -0.07056
 O124 O 1.07015 0.50274 0.05235
 O125 O 1.02740 0.46003 0.05814
 O126 O 0.97464 0.47957 -0.13083
 O127 O 1.04805 0.47506 -0.04255
 O128 O 0.93124 0.44213 0.03648
 Co129 Co 1.01187 0.50986 -0.09441
 Co130 Co 0.99987 0.47538 0.07480
 Co131 Co 0.94653 0.47451 -0.01517
 Co132 Co 1.04931 0.50970 -0.00831
 O133 O 0.99952 0.49061 -0.00889
 C134 C 1.04238 0.47083 -0.09478
 C135 C 0.94159 0.42505 0.05832
 C136 C 0.95111 0.45253 -0.11991
 C137 C 1.05632 0.47575 0.07211
 O138 O 0.46752 0.45398 -0.07212
 O139 O 0.47722 0.50610 0.11044
 O140 O 0.51182 0.45126 0.05374
 O141 O 0.44984 0.53522 -0.03965
 O142 O 0.51758 0.48707 0.11787
 O143 O 0.44945 0.49259 -0.06920
 O144 O 0.44599 0.49479 0.03473
 O145 O 0.51041 0.44948 -0.05453
 C146 C 0.48174 0.43788 -0.07278
 C147 C 0.44909 0.49207 0.08762
 C148 C 0.51049 0.45900 0.10451
 C149 C 0.43998 0.51291 -0.07728
 O150 O 0.50805 0.53693 -0.11098
 O151 O 0.56376 0.54314 0.07366
 O152 O 0.56377 0.50425 -0.05652
 O153 O 0.47918 0.55287 0.05706
 O154 O 0.52734 0.56266 0.06775
 O155 O 0.52546 0.49648 -0.11886
 O156 O 0.51157 0.56367 -0.03527
 O157 O 0.56760 0.50203 0.05070
 Co158 Co 0.48937 0.49608 -0.08501
 Co159 Co 0.52024 0.52341 0.08549
 Co160 Co 0.53553 0.47965 -0.00164
 Co161 Co 0.47960 0.52807 -0.00193
 O162 O 0.50835 0.50670 0.00132
 C163 C 0.51754 0.56312 -0.08704
 C164 C 0.57982 0.52893 0.07223
 C165 C 0.55503 0.50530 -0.10672
 C166 C 0.50593 0.56994 0.07915
 O167 O 0.54889 0.03109 -0.07422
 O168 O 0.48649 -0.02916 0.12033
 O169 O 0.54709 0.04944 0.05308
 O170 O 0.47710 -0.06818 -0.04481
 O171 O 0.51380 0.02775 0.12153
 O172 O 0.52083 -0.02765 -0.07658
 O173 O 0.49920 -0.04969 0.05108
 O174 O 0.54290 0.06998 -0.04093
 C175 C 0.55859 0.06017 -0.07055
 C176 C 0.50043 -0.04414 0.10288
 C177 C 0.54255 0.04285 0.10441
 C178 C 0.50295 -0.05693 -0.07335
 O179 O 0.46504 -0.02954 -0.11235
 O180 O 0.46364 0.02981 0.06906
 O181 O 0.48261 0.05134 -0.03317
 O182 O 0.43583 -0.07703 0.05264
 O183 O 0.43432 -0.03186 0.06644
 O184 O 0.49404 0.03141 -0.10963
 O185 O 0.43312 -0.05214 -0.03786
 O186 O 0.50934 0.07559 0.05773
 Co187 Co 0.50619 0.00126 -0.08577
 Co188 Co 0.47576 -0.00080 0.08655
 Co189 Co 0.51261 0.04689 0.01297
 Co190 Co 0.46735 -0.04718 0.00989
 O191 O 0.49373 0.00009 0.00106
 C192 C 0.43692 -0.04764 -0.09144
 C193 C 0.48067 0.05933 0.08182
 C194 C 0.48243 0.04797 -0.08690
 C195 C 0.42297 -0.06136 0.07813
 C196 C 1.13331 0.41275 0.28687
 C197 C 1.11019 0.42337 0.28705
 C198 C 1.09729 0.42693 0.33875
 C199 C 1.10840 0.42113 0.39058
 C200 C 1.13301 0.41186 0.39170
 C201 C 1.14455 0.40690 0.33863
 C202 C 1.10104 0.43280 0.23491
 C203 C 1.09287 0.44198 0.19330
 C204 C 1.08213 0.45369 0.14762
 C205 C 1.07138 0.46394 0.11141
 H206 H 1.14314 0.40959 0.24683
 H207 H 1.07946 0.43535 0.33914
 H208 H 1.09919 0.42627 0.42941
 H209 H 1.16218 0.39830 0.33664
 C210 C 0.52128 0.68963 0.30289
 C211 C 0.53530 0.67013 0.29299
 C212 C 0.55503 0.66691 0.33472
 C213 C 0.56066 0.68298 0.38665
 C214 C 0.54660 0.70275 0.39793
 C215 C 0.52689 0.70587 0.35475
 C216 C 0.52837 0.65203 0.24133
 C217 C 0.52273 0.63543 0.19992
 C218 C 0.51645 0.61429 0.15434
 C219 C 0.51143 0.59475 0.11823
 H220 H 0.50553 0.69184 0.27098
 H221 H 0.56606 0.65185 0.32718
 H222 H 0.57708 0.68065 0.41680
 H223 H 0.51429 0.71954 0.36154
 C224 C 0.30582 -0.16238 0.29814
 C225 C 0.32050 -0.12959 0.29307
 C226 C 0.31973 -0.11132 0.33892
 C227 C 0.30445 -0.12585 0.39013
 C228 C 0.28963 -0.15908 0.39642
 C229 C 0.29058 -0.17703 0.34908
 C230 C 0.33879 -0.11474 0.24254
 C231 C 0.35551 -0.10271 0.20127
 C232 C 0.37691 -0.08877 0.15512
 C233 C 0.39697 -0.07657 0.11818
 H234 H 0.30697 -0.17665 0.26317
 H235 H 0.33123 -0.08579 0.33534
 H236 H 0.30360 -0.11089 0.42396
 H237 H 0.28129 -0.20232 0.35166
 C238 C 0.88215 0.56764 0.30535
 C239 C 0.89661 0.54813 0.31171
 C240 C 0.89888 0.53708 0.36617
 C241 C 0.88667 0.54541 0.41409
 C242 C 0.87198 0.56492 0.40812
 C243 C 0.86992 0.57600 0.35320
 C244 C 0.90881 0.53910 0.26244
 C245 C 0.91899 0.53107 0.22173
 C246 C 0.93087 0.52097 0.17498
 C247 C 0.94101 0.51159 0.13614
 H248 H 0.88029 0.57635 0.26341
 H249 H 0.90990 0.52185 0.37155
 H250 H 0.88819 0.53612 0.45561
 H251 H 0.85906 0.59132 0.34735
 C252 C 0.45210 0.32163 0.31045
 C253 C 0.47473 0.35377 0.31599
 C254 C 0.49026 0.36556 0.36859
 C255 C 0.48268 0.34554 0.41589
 C256 C 0.45937 0.31339 0.41124
 C257 C 0.44452 0.30148 0.35783
 C258 C 0.48147 0.37510 0.26857
 C259 C 0.48746 0.39373 0.23004
 C260 C 0.49494 0.41619 0.18593
 C261 C 0.50177 0.43567 0.14870
 H262 H 0.43992 0.31228 0.26989
 H263 H 0.50791 0.39035 0.37327
 H264 H 0.49484 0.35523 0.45632
 H265 H 0.42634 0.27687 0.35323
 C266 C 0.68455 0.11795 0.31671
 C267 C 0.65126 0.10927 0.31376
 C268 C 0.63654 0.11686 0.35884
 C269 C 0.65490 0.13325 0.40647
 C270 C 0.68839 0.14230 0.41001
 C271 C 0.70308 0.13444 0.36464
 C272 C 0.63178 0.09351 0.26428
 C273 C 0.61355 0.08084 0.22459
 C274 C 0.59031 0.06674 0.18037
 C275 C 0.56912 0.05541 0.14457
 H276 H 0.69620 0.11225 0.28191
 H277 H 0.61087 0.11051 0.35681
 H278 H 0.64301 0.13956 0.43999
 H279 H 0.72878 0.14099 0.36630
 C280 C 0.45604 0.11606 -0.34387
 C281 C 0.44644 0.12240 -0.29106
 C282 C 0.43400 0.14367 -0.28784
 C283 C 0.43095 0.15839 -0.33758
 C284 C 0.44020 0.15197 -0.39173
 C285 C 0.45306 0.13061 -0.39351
 C286 C 0.45030 0.10726 -0.24069
 C287 C 0.45496 0.09387 -0.20101
 C288 C 0.46231 0.07776 -0.15775
 C289 C 0.47041 0.06398 -0.12370
 H290 H 0.46623 0.10001 -0.34668
 H291 H 0.42648 0.14874 -0.24700
 H292 H 0.42010 0.17378 -0.33339
 H293 H 0.46227 0.12584 -0.43271
 C294 C 0.69056 0.54005 -0.31547
 C295 C 0.66585 0.54870 -0.31648
 C296 C 0.66313 0.56540 -0.36321
 C297 C 0.68453 0.57289 -0.40942
 C298 C 0.70925 0.56370 -0.41019
 C299 C 0.71216 0.54756 -0.36160
 C300 C 0.64261 0.53976 -0.27046
 C301 C 0.62266 0.53211 -0.23271
 C302 C 0.59901 0.52295 -0.18899
 C303 C 0.57881 0.51497 -0.15162
 H304 H 0.69275 0.52693 -0.27949
 H305 H 0.64431 0.57257 -0.36413
 H306 H 0.68197 0.58668 -0.44375
 H307 H 0.72978 0.53898 -0.35992
 C308 C 0.89912 0.34928 -0.38153
 C309 C 0.88292 0.34561 -0.32954
 C310 C 0.85125 0.32072 -0.32272
 C311 C 0.83528 0.30024 -0.36835
 C312 C 0.85062 0.30443 -0.42236
 C313 C 0.88329 0.32892 -0.42734
 C314 C 0.89816 0.36830 -0.28421
 C315 C 0.91055 0.38766 -0.24665
 C316 C 0.92478 0.41046 -0.20283
 C317 C 0.93680 0.42984 -0.16522
 H318 H 0.92387 0.36824 -0.38704
 H319 H 0.83843 0.31771 -0.28259
 H320 H 0.81011 0.28260 -0.36174
 H321 H 0.89712 0.33242 -0.46629
 C322 C 0.51699 -0.16270 -0.29370
 C323 C 0.53612 -0.13094 -0.27854
 C324 C 0.55993 -0.10993 -0.31620
 C325 C 0.56466 -0.12065 -0.36903
 C326 C 0.54559 -0.15251 -0.38465
 C327 C 0.52172 -0.17349 -0.34650
 C328 C 0.52974 -0.11908 -0.22659
 C329 C 0.52407 -0.10761 -0.18537
 C330 C 0.51706 -0.09212 -0.14102
 C331 C 0.51076 -0.07700 -0.10733
 H332 H 0.49815 -0.17897 -0.26512
 H333 H 0.57459 -0.08520 -0.30496
 H334 H 0.58340 -0.10415 -0.39747
 H335 H 0.50644 -0.19808 -0.35791
 C336 C 0.30806 0.45673 -0.29569
 C337 C 0.33883 0.48351 -0.29675
 C338 C 0.35125 0.49994 -0.34803
 C339 C 0.33310 0.48924 -0.39854
 C340 C 0.30241 0.46195 -0.39810
 C341 C 0.28988 0.44601 -0.34608
 C342 C 0.35885 0.49230 -0.24639
 C343 C 0.37623 0.49849 -0.20506
 C344 C 0.39740 0.50446 -0.15832
 C345 C 0.41635 0.50869 -0.12012
 H346 H 0.29850 0.44365 -0.25627
 H347 H 0.37522 0.52057 -0.34919
 H348 H 0.34309 0.50215 -0.43794
 H349 H 0.26646 0.42473 -0.34473
 C350 C 1.17230 0.67168 -0.29704
 C351 C 1.16023 0.63904 -0.29987
 C352 C 1.15717 0.62434 -0.35280
 C353 C 1.16521 0.64212 -0.40317
 C354 C 1.17638 0.67509 -0.40153
 C355 C 1.18043 0.68959 -0.34717
 C356 C 1.14749 0.62025 -0.24931
 C357 C 1.13479 0.60425 -0.20793
 C358 C 1.11760 0.58509 -0.16133
 C359 C 1.10099 0.56819 -0.12351
 H360 H 1.17418 0.68316 -0.25620
 H361 H 1.14782 0.59898 -0.35529
 H362 H 1.16301 0.62982 -0.44307
 H363 H 1.18776 0.71448 -0.34286
 C364 C 0.92667 0.60541 -0.32634
 C365 C 0.90720 0.58889 -0.27958
 C366 C 0.87317 0.57546 -0.28367
 C367 C 0.85858 0.57709 -0.33514
 C368 C 0.87786 0.59205 -0.38345
 C369 C 0.91212 0.60710 -0.37787
 C370 C 0.92166 0.58168 -0.23096
 C371 C 0.93322 0.57331 -0.19262
 C372 C 0.94604 0.56080 -0.15104
 C373 C 0.95626 0.54782 -0.11904
 H374 H 0.95302 0.61572 -0.32387
 H375 H 0.85783 0.56229 -0.24803
 H376 H 0.83216 0.56493 -0.33812
 H377 H 0.92765 0.61916 -0.41401
 C378 C 0.41983 0.29749 -0.28045
 C379 C 0.43937 0.33021 -0.27461
 C380 C 0.45685 0.34815 -0.32156
 C381 C 0.45529 0.33376 -0.37399
 C382 C 0.43591 0.30069 -0.38141
 C383 C 0.41812 0.28279 -0.33329
 C384 C 0.44281 0.34638 -0.22110
 C385 C 0.44841 0.36329 -0.17985
 C386 C 0.45777 0.38650 -0.13657
 C387 C 0.46778 0.40881 -0.10448
 H388 H 0.40598 0.28336 -0.24430
 H389 H 0.47237 0.37348 -0.31739
 H390 H 0.47096 0.34885 -0.40752
 H391 H 0.40206 0.25760 -0.33620
 C392 C 0.69586 0.15630 -0.27903
 C393 C 0.66200 0.14441 -0.27503
 C394 C 0.64408 0.14405 -0.32354
 C395 C 0.65965 0.15452 -0.37621
 C396 C 0.69345 0.16551 -0.38121
 C397 C 0.71158 0.16698 -0.33186
 C398 C 0.64471 0.13007 -0.22302
 C399 C 0.62811 0.11632 -0.18231
 C400 C 0.60624 0.09837 -0.13854
 C401 C 0.58554 0.08161 -0.10504
 H402 H 0.70993 0.15649 -0.24183
 H403 H 0.61786 0.13483 -0.32098
 H404 H 0.64517 0.15355 -0.41334
 H405 H 0.73761 0.17518 -0.33467
 C406 C 1.08914 0.41770 -0.34874
 C407 C 1.09922 0.41225 -0.29553
 C408 C 1.12317 0.40255 -0.29318
 C409 C 1.13747 0.39908 -0.34384
 C410 C 1.12826 0.40546 -0.39830
 C411 C 1.10334 0.41448 -0.39915
 C412 C 1.08646 0.41933 -0.24428
 C413 C 1.07557 0.42742 -0.20442
 C414 C 1.06301 0.43952 -0.16145
 C415 C 1.05296 0.45230 -0.12852
 H416 H 1.07098 0.42569 -0.35129
 H417 H 1.13122 0.39817 -0.25218
 H418 H 1.15541 0.39102 -0.33950
 H419 H 1.09585 0.42130 -0.43822
 C420 C 0.54329 0.65551 -0.34003
 C421 C 0.55903 0.67192 -0.29040
 C422 C 0.57645 0.70501 -0.29160
 C423 C 0.57795 0.72153 -0.34227
 C424 C 0.56210 0.70522 -0.39314
 C425 C 0.54465 0.67174 -0.39039
 C426 C 0.55581 0.65400 -0.23872
 C427 C 0.55080 0.63649 -0.19832
 C428 C 0.54223 0.61333 -0.15467
 C429 C 0.53245 0.59150 -0.12122
 H430 H 0.52924 0.62992 -0.33959
 H431 H 0.58884 0.71808 -0.25341
 H432 H 0.59244 0.74700 -0.34139
 H433 H 0.53027 0.65755 -0.42605
 C434 C 0.30956 -0.15813 -0.29759
 C435 C 0.32288 -0.12524 -0.29254
 C436 C 0.31688 -0.10842 -0.33575
 C437 C 0.29872 -0.12413 -0.38448
 C438 C 0.28632 -0.15701 -0.39105
 C439 C 0.29137 -0.17391 -0.34632
 C440 C 0.34473 -0.10851 -0.24547
 C441 C 0.36409 -0.09440 -0.20756
 C442 C 0.38806 -0.07785 -0.16482
 C443 C 0.40965 -0.06390 -0.13014
 H444 H 0.31412 -0.17148 -0.26473
 H445 H 0.32703 -0.08299 -0.33258
 H446 H 0.29501 -0.11043 -0.41771
 H447 H 0.28261 -0.19911 -0.35018
 C448 C 0.56829 -0.09319 0.35276
 C449 C 0.55017 -0.11111 0.30570
 C450 C 0.53780 -0.14399 0.30627
 C451 C 0.54251 -0.15894 0.35428
 C452 C 0.55954 -0.14124 0.40275
 C453 C 0.57300 -0.10808 0.40079
 C454 C 0.54224 -0.09605 0.25898
 C455 C 0.53454 -0.08359 0.22118
 C456 C 0.52423 -0.06926 0.17826
 C457 C 0.51419 -0.05747 0.14300
 H458 H 0.57802 -0.06775 0.35304
 H459 H 0.52360 -0.15822 0.27035
 H460 H 0.53146 -0.18450 0.35452
 H461 H 0.58657 -0.09368 0.43700
 C462 C 0.30705 0.41803 0.30207
 C463 C 0.33610 0.44616 0.29197
 C464 C 0.34654 0.47085 0.33171
 C465 C 0.32854 0.46751 0.38137
 C466 C 0.29964 0.43928 0.39266
 C467 C 0.28883 0.41463 0.35207
 C468 C 0.35609 0.45031 0.24196
 C469 C 0.37481 0.45624 0.20228
 C470 C 0.39882 0.46591 0.15859
 C471 C 0.42091 0.47648 0.12422
 H472 H 0.29865 0.39869 0.27168
 H473 H 0.36882 0.49279 0.32445
 H474 H 0.33724 0.48720 0.41102
 H475 H 0.26675 0.39259 0.35956
 C476 C 1.13844 0.63583 0.32716
 C477 C 1.12265 0.64739 0.29072
 C478 C 1.12297 0.67596 0.30430
 C479 C 1.13867 0.69257 0.35441
 C480 C 1.15402 0.68065 0.39175
 C481 C 1.15396 0.65224 0.37703
 C482 C 1.10567 0.62902 0.24066
 C483 C 1.09176 0.61182 0.20054
 C484 C 1.07581 0.58962 0.15587
 C485 C 1.06261 0.56899 0.12033
 H486 H 1.13855 0.61387 0.31723
 H487 H 1.11083 0.68520 0.27657
 H488 H 1.13815 0.71428 0.36462
 H489 H 1.16603 0.64268 0.40419
 C490 C 0.41761 0.13757 0.29742
 C491 C 0.44042 0.12647 0.29275
 C492 C 0.45989 0.12841 0.33983
 C493 C 0.45666 0.14119 0.39139
 C494 C 0.43373 0.15221 0.39704
 C495 C 0.41432 0.15050 0.34938
 C496 C 0.44455 0.11291 0.24047
 C497 C 0.45018 0.10108 0.19945
 C498 C 0.45899 0.08682 0.15488
 C499 C 0.46812 0.07438 0.11983
 H500 H 0.40240 0.13618 0.26115
 H501 H 0.47773 0.12006 0.33667
 H502 H 0.47248 0.14280 0.42681
 H503 H 0.39644 0.15876 0.35253
 C504 C 0.67725 0.54398 0.31513
 C505 C 0.69228 0.56677 0.27246
 C506 C 0.72290 0.59301 0.28288
 C507 C 0.73818 0.59650 0.33632
 C508 C 0.72267 0.57396 0.37977
 C509 C 0.69229 0.54749 0.36827
 C510 C 0.67466 0.56329 0.21987
 C511 C 0.65687 0.55817 0.17912
 C512 C 0.63280 0.54987 0.13609
 C513 C 0.60978 0.54108 0.10400
 H514 H 0.65358 0.52360 0.30758
 H515 H 0.73466 0.61088 0.25018
 H516 H 0.76163 0.61705 0.34420
 H517 H 0.68013 0.52945 0.40054
 C518 C 0.84376 0.29209 0.26830
 C519 C 0.85411 0.32437 0.26062
 C520 C 0.85176 0.34222 0.30593
 C521 C 0.84017 0.32824 0.35923
 C522 C 0.83075 0.29613 0.36801
 C523 C 0.83195 0.27797 0.32172
 C524 C 0.86965 0.34029 0.20835
 C525 C 0.88423 0.35602 0.16754
 C526 C 0.90294 0.37726 0.12396
 C527 C 0.92009 0.39781 0.09110
 H528 H 0.84567 0.27810 0.23363
 H529 H 0.85974 0.36723 0.30051
 H530 H 0.83906 0.34264 0.39393
 H531 H 0.82497 0.25322 0.32754
   
