data_POSCAR
  _audit_creation_date              2014-09-24
  _audit_creation_method            'ToBaCCo'
  _symmetry_space_group_name_H-M    'P1'
  _symmetry_Int_Tables_number       1
  _symmetry_cell_setting            triclinic
  loop_
  _symmetry_equiv_pos_as_xyz
 x,y,z
_cell_length_a 29.7322
_cell_length_b 29.6387
_cell_length_c 29.7646
_cell_angle_alpha 89.801700
_cell_angle_beta 90.054900
_cell_angle_gamma 90.110600
loop_
  _atom_site_label
  _atom_site_type_symbol
  _atom_site_fract_x
  _atom_site_fract_y
  _atom_site_fract_z
N1 N 0.57141 0.69504 0.60906
 N2 N 0.55307 0.67614 0.64461
 C3 C 0.51749 0.70090 0.65768
 C4 C 0.51305 0.73714 0.62854
 C5 C 0.54789 0.73229 0.59809
 H6 H 0.49670 0.69345 0.68652
 H7 H 0.55618 0.75480 0.57067
 Cu8 Cu 0.57892 0.62203 0.67117
 Cu9 Cu 0.62540 0.67091 0.58045
 Cu10 Cu 0.67245 0.57547 0.62902
 N11 N 0.60478 0.56793 0.69775
 N12 N 0.64308 0.55180 0.68275
 C13 C 0.65556 0.51665 0.70859
 C14 C 0.62284 0.50958 0.74101
 C15 C 0.59097 0.54277 0.73289
 H16 H 0.68547 0.49684 0.70306
 H17 H 0.56065 0.54893 0.75189
 N18 N 0.69706 0.60429 0.57446
 N19 N 0.67973 0.64120 0.55655
 C20 C 0.70447 0.65316 0.52049
 C21 C 0.73875 0.62215 0.51518
 C22 C 0.73288 0.59154 0.54990
 H23 H 0.69762 0.68188 0.49916
 H24 H 0.75353 0.56239 0.55700
 H25 H 0.61601 0.60487 0.60055
 H26 H 0.65123 0.64125 0.63775
 N27 N 0.92818 0.30039 0.11113
 N28 N 0.94436 0.31754 0.14842
 C29 C 0.98019 0.29312 0.16169
 C30 C 0.98745 0.25915 0.13052
 C31 C 0.95373 0.26513 0.09878
 H32 H 1.00028 0.30056 0.19101
 H33 H 0.94810 0.24562 0.06876
 Cu34 Cu 0.91795 0.37143 0.17447
 Cu35 Cu 0.87470 0.32432 0.08149
 Cu36 Cu 0.82644 0.41939 0.12897
 N37 N 0.89157 0.42546 0.20031
 N38 N 0.85519 0.44347 0.18272
 C39 C 0.84377 0.48018 0.20659
 C40 C 0.87472 0.48566 0.24090
 C41 C 0.90461 0.45026 0.23589
 H42 H 0.81571 0.50199 0.19884
 H43 H 0.93375 0.44326 0.25649
 N44 N 0.80242 0.39013 0.07460
 N45 N 0.82049 0.35368 0.05679
 C46 C 0.79697 0.34231 0.01981
 C47 C 0.76269 0.37323 0.01383
 C48 C 0.76719 0.40307 0.04917
 H49 H 0.80486 0.31433 -0.00199
 H50 H 0.74646 0.43222 0.05571
 H51 H 0.88335 0.38969 0.10243
 H52 H 0.84682 0.35295 0.13813
 N53 N 0.42716 0.19631 -0.10364
 N54 N 0.44527 0.17780 -0.13936
 C55 C 0.48240 0.20125 -0.15084
 C56 C 0.48783 0.23631 -0.12069
 C57 C 0.45212 0.23205 -0.09116
 H58 H 0.50460 0.19276 -0.17825
 H59 H 0.44502 0.25303 -0.06242
 Cu60 Cu 0.41930 0.12376 -0.16578
 Cu61 Cu 0.37361 0.17173 -0.07467
 Cu62 Cu 0.32774 0.07485 -0.12135
 N63 N 0.39332 0.06970 -0.19220
 N64 N 0.35706 0.05113 -0.17488
 C65 C 0.34477 0.01565 -0.20020
 C66 C 0.37510 0.01155 -0.23518
 C67 C 0.40559 0.04632 -0.22893
 H68 H 0.31574 -0.00540 -0.19380
 H69 H 0.43381 0.05460 -0.25031
 N70 N 0.30302 0.10402 -0.06735
 N71 N 0.31968 0.14159 -0.05042
 C72 C 0.29438 0.15417 -0.01513
 C73 C 0.26054 0.12266 -0.00911
 C74 C 0.26705 0.09138 -0.04286
 H75 H 0.30030 0.18400 0.00471
 H76 H 0.24625 0.06229 -0.04984
 H77 H 0.38409 0.10587 -0.09413
 H78 H 0.34745 0.14128 -0.13097
 N79 N 0.06778 0.80476 0.39816
 N80 N 0.05241 0.82142 0.36019
 C81 C 0.01755 0.79604 0.34606
 C82 C 0.00973 0.76249 0.37773
 C83 C 0.04220 0.76933 0.41044
 H84 H -0.00131 0.80215 0.31558
 H85 H 0.04825 0.74881 0.43987
 Cu86 Cu 0.07868 0.87588 0.33469
 Cu87 Cu 0.12246 0.82736 0.42662
 Cu88 Cu 0.17157 0.92249 0.37878
 N89 N 0.10502 0.93013 0.30889
 N90 N 0.14213 0.94753 0.32560
 C91 C 0.15489 0.98288 0.30004
 C92 C 0.12385 0.98814 0.26575
 C93 C 0.09263 0.95416 0.27248
 H94 H 0.18469 1.00302 0.30577
 H95 H 0.06396 0.94669 0.25140
 N96 N 0.19596 0.89207 0.43259
 N97 N 0.17787 0.85535 0.45023
 C98 C 0.20285 0.84218 0.48571
 C99 C 0.23801 0.87234 0.49096
 C100 C 0.23252 0.90354 0.45678
 H101 H 0.19569 0.81316 0.50662
 H102 H 0.25399 0.93212 0.44971
 H103 H 0.11492 0.89326 0.40600
 H104 H 0.15028 0.85658 0.36954
 N105 N 0.12392 0.12490 0.12790
 N106 N 0.37541 0.87363 0.62902
 N107 N 0.87570 0.62366 0.37680
 N108 N 0.62427 0.37427 -0.12152
 C109 C 0.02987 0.19992 0.09212
 C110 C 0.02268 0.22749 0.12972
 C111 C 0.05398 0.22351 0.16553
 C112 C 0.08749 0.18988 0.16508
 C113 C 0.09081 0.16002 0.12870
 C114 C 0.06358 0.16779 0.09138
 C115 C 0.03630 0.13534 0.06477
 C116 C -0.00116 0.17014 0.06586
 H117 H 0.05178 0.24478 0.19485
 H118 H 0.11001 0.18639 0.19347
 H119 H 0.02833 0.10391 0.08362
 H120 H 0.05053 0.13012 0.03066
 H121 H -0.03089 0.15900 0.08567
 H122 H -0.00886 0.18428 0.03209
 C123 C 0.47459 0.80429 0.59456
 C124 C 0.47982 0.77425 0.63059
 C125 C 0.45287 0.78146 0.66899
 C126 C 0.41884 0.81455 0.66871
 C127 C 0.41096 0.84089 0.63007
 C128 C 0.44093 0.83660 0.59418
 C129 C 0.43270 0.83096 0.54504
 C130 C 0.46956 0.79546 0.54547
 H131 H 0.45703 0.76086 0.69875
 H132 H 0.39761 0.81851 0.69796
 H133 H 0.44189 0.86173 0.52566
 H134 H 0.39907 0.81665 0.53715
 H135 H 0.49989 0.80579 0.52621
 H136 H 0.45704 0.76082 0.53836
 C137 C 0.96508 0.70361 0.41473
 C138 C 0.97701 0.72837 0.37653
 C139 C 0.95387 0.71658 0.33643
 C140 C 0.92100 0.68174 0.33618
 C141 C 0.90907 0.65888 0.37626
 C142 C 0.93215 0.67171 0.41480
 C143 C 0.93312 0.66568 0.46440
 C144 C 0.97014 0.70208 0.46459
 H145 H 0.96158 0.73330 0.30499
 H146 H 0.90442 0.67325 0.30494
 H147 H 0.94517 0.63168 0.47457
 H148 H 0.90140 0.67693 0.48059
 H149 H 1.00349 0.68903 0.47528
 H150 H 0.95946 0.73411 0.48069
 C151 C 0.55473 0.27458 -0.15533
 C152 C 0.52510 0.26944 -0.11910
 C153 C 0.53279 0.29647 -0.08084
 C154 C 0.56575 0.33067 -0.08146
 C155 C 0.59159 0.33858 -0.12026
 C156 C 0.58699 0.30843 -0.15602
 C157 C 0.58090 0.31665 -0.20515
 C158 C 0.54556 0.27950 -0.20444
 H159 H 0.51259 0.29226 -0.05092
 H160 H 0.57000 0.35205 -0.05235
 H161 H 0.61140 0.30761 -0.22468
 H162 H 0.56655 0.35035 -0.21298
 H163 H 0.55578 0.24911 -0.22365
 H164 H 0.51097 0.29185 -0.21154
 C165 C 0.08562 0.03179 0.20466
 C166 C 0.12487 0.02096 0.22831
 C167 C 0.16524 0.04184 0.21455
 C168 C 0.16492 0.07565 0.18119
 C169 C 0.12421 0.08984 0.16148
 C170 C 0.08511 0.06571 0.17235
 C171 C 0.03974 0.08164 0.18689
 C172 C 0.04030 0.04429 0.22198
 H173 H 0.19686 0.03293 0.23021
 H174 H 0.19616 0.09211 0.17211
 H175 H 0.01364 0.07643 0.16067
 H176 H 0.04034 0.11588 0.20195
 H177 H 0.01490 0.01750 0.21561
 H178 H 0.04141 0.05698 0.25709
 C179 C 0.65978 0.44996 -0.21535
 C180 C 0.62192 0.47577 -0.22586
 C181 C 0.58249 0.46544 -0.20073
 C182 C 0.58276 0.43142 -0.16694
 C183 C 0.62261 0.40766 -0.15656
 C184 C 0.66028 0.41858 -0.18195
 C185 C 0.70965 0.41137 -0.18443
 C186 C 0.70947 0.44711 -0.22207
 H187 H 0.55129 0.48299 -0.20718
 H188 H 0.55223 0.42436 -0.14841
 H189 H 0.71833 0.37690 -0.19609
 H190 H 0.72728 0.42277 -0.15351
 H191 H 0.71858 0.43323 -0.25547
 H192 H 0.72694 0.47889 -0.21256
 C193 C 0.41173 0.97104 0.70076
 C194 C 0.37377 0.97894 0.72736
 C195 C 0.33409 0.95512 0.71654
 C196 C 0.33447 0.92105 0.68366
 C197 C 0.37461 0.90967 0.66132
 C198 C 0.41233 0.93702 0.66886
 C199 C 0.46016 0.92546 0.67902
 C200 C 0.45947 0.96284 0.71388
 H201 H 0.30307 0.96173 0.73428
 H202 H 0.30397 0.90219 0.67711
 H203 H 0.48279 0.93284 0.65022
 H204 H 0.46431 0.89149 0.69430
 H205 H 0.48164 0.99176 0.70504
 H206 H 0.46283 0.95029 0.74898
 C207 C 0.83937 0.55102 0.28050
 C208 C 0.87652 0.52288 0.27385
 C209 C 0.91587 0.53249 0.29865
 C210 C 0.91577 0.56607 0.33208
 C211 C 0.87616 0.59010 0.34199
 C212 C 0.83903 0.58359 0.31383
 C213 C 0.79054 0.57545 0.32413
 C214 C 0.79098 0.53969 0.28761
 H215 H 0.94637 0.51345 0.29316
 H216 H 0.94600 0.57203 0.35149
 H217 H 0.76931 0.60506 0.31550
 H218 H 0.78477 0.56102 0.35811
 H219 H 0.76997 0.54874 0.25804
 H220 H 0.78604 0.50482 0.30066
 C221 C 0.20850 0.16371 0.04311
 C222 C 0.22362 0.12328 0.02415
 C223 C 0.20041 0.08333 0.03592
 C224 C 0.16693 0.08370 0.06939
 C225 C 0.15549 0.12415 0.09124
 C226 C 0.17486 0.16411 0.07531
 C227 C 0.19611 0.20166 0.10082
 C228 C 0.23341 0.20106 0.06595
 H229 H 0.20960 0.05140 0.02105
 H230 H 0.15101 0.05229 0.07915
 H231 H 0.20737 0.19118 0.13493
 H232 H 0.17545 0.23286 0.09967
 H233 H 0.26629 0.19005 0.08001
 H234 H 0.23459 0.23227 0.04516
 C235 C 0.78566 0.66025 0.45578
 C236 C 0.77389 0.62166 0.48003
 C237 C 0.79793 0.58186 0.46896
 C238 C 0.83148 0.58219 0.43496
 C239 C 0.84212 0.62236 0.41146
 C240 C 0.81828 0.66063 0.42381
 C241 C 0.81357 0.70963 0.41424
 C242 C 0.77665 0.70950 0.45053
 H243 H 0.79062 0.55041 0.48601
 H244 H 0.84911 0.55129 0.42713
 H245 H 0.80071 0.71623 0.37977
 H246 H 0.84409 0.72904 0.42392
 H247 H 0.74255 0.71638 0.43684
 H248 H 0.78592 0.72894 0.48104
 C249 C 0.72185 0.33733 -0.05053
 C250 C 0.72997 0.37510 -0.02357
 C251 C 0.70626 0.41502 -0.03401
 C252 C 0.67216 0.41499 -0.06693
 C253 C 0.66061 0.37495 -0.08957
 C254 C 0.68779 0.33707 -0.08238
 C255 C 0.67615 0.28897 -0.07274
 C256 C 0.71357 0.28926 -0.03790
 H257 H 0.71297 0.44591 -0.01594
 H258 H 0.65334 0.44560 -0.07319
 H259 H 0.68328 0.26667 -0.10181
 H260 H 0.64236 0.28456 -0.05748
 H261 H 0.74226 0.26712 -0.04698
 H262 H 0.70120 0.28541 -0.00284
 C263 C 0.29742 0.91013 0.53766
 C264 C 0.27362 0.87147 0.52560
 C265 C 0.28540 0.83138 0.54898
 C266 C 0.31926 0.83163 0.58276
 C267 C 0.34182 0.87205 0.59427
 C268 C 0.32919 0.91046 0.57050
 C269 C 0.33716 0.95989 0.56702
 C270 C 0.30099 0.95976 0.52993
 H271 H 0.26880 0.79985 0.54116
 H272 H 0.32740 0.80057 0.60014
 H273 H 0.37149 0.96792 0.55459
 H274 H 0.32668 0.97810 0.59786
 H275 H 0.31452 0.96817 0.49613
 H276 H 0.26975 0.97786 0.53953
   
