data_POSCAR
  _audit_creation_date              2014-09-24
  _audit_creation_method            'ToBaCCo'
  _symmetry_space_group_name_H-M    'P1'
  _symmetry_Int_Tables_number       1
  _symmetry_cell_setting            triclinic
  loop_
  _symmetry_equiv_pos_as_xyz
 x,y,z
_cell_length_a 50.2171
_cell_length_b 31.0471
_cell_length_c 17.5735
_cell_angle_alpha 90.016500
_cell_angle_beta 90.006000
_cell_angle_gamma 90.005100
loop_
  _atom_site_label
  _atom_site_type_symbol
  _atom_site_fract_x
  _atom_site_fract_y
  _atom_site_fract_z
C1 C 0.72712 0.26445 0.54181
 C2 C 0.72822 0.26688 0.46111
 C3 C 0.75035 0.25033 0.42241
 C4 C 0.77181 0.23082 0.46078
 C5 C 0.77142 0.22980 0.54218
 C6 C 0.74890 0.24614 0.58054
 H7 H 0.74846 0.24506 0.64215
 H8 H 0.75023 0.25142 0.36074
 C9 C 0.22783 0.76608 0.54110
 C10 C 0.22672 0.76296 0.46093
 C11 C 0.24739 0.74229 0.42196
 C12 C 0.26941 0.72515 0.46062
 C13 C 0.27061 0.72768 0.54159
 C14 C 0.24983 0.74913 0.58011
 H15 H 0.24975 0.75044 0.64175
 H16 H 0.24691 0.74125 0.36027
 C17 C 0.27159 0.26852 -0.53894
 C18 C 0.27288 0.26433 -0.45909
 C19 C 0.25185 0.24452 -0.42018
 C20 C 0.22919 0.22870 -0.45852
 C21 C 0.22843 0.23124 -0.53995
 C22 C 0.24952 0.25211 -0.57806
 H23 H 0.24955 0.25401 -0.63966
 H24 H 0.25277 0.24343 -0.35857
 C25 C -0.22991 0.77259 -0.54052
 C26 C -0.22841 0.76783 -0.46079
 C27 C -0.24894 0.74651 -0.42219
 C28 C -0.27171 0.73101 -0.46050
 C29 C -0.27303 0.73532 -0.54165
 C30 C -0.25226 0.75714 -0.57948
 H31 H -0.25232 0.75932 -0.64106
 H32 H -0.24793 0.74505 -0.36062
 N33 N 0.02829 1.04669 0.13672
 N34 N 0.04851 1.05155 0.18396
 N35 N -0.02778 1.07743 0.08520
 N36 N -0.04798 1.10401 0.09584
 N37 N -0.02773 1.04702 0.13712
 N38 N -0.04787 1.05201 0.18455
 N39 N 0.02833 1.07713 0.08484
 N40 N 0.04860 1.10359 0.09530
 C41 C 0.06091 1.08709 0.15722
 C42 C -0.06023 1.08761 0.15795
 N43 N -0.02794 1.04944 -0.13239
 N44 N -0.04744 1.05652 -0.18118
 N45 N 0.02817 1.07863 -0.07909
 N46 N 0.04783 1.10622 -0.08980
 N47 N 0.02807 1.04912 -0.13268
 N48 N 0.04766 1.05580 -0.18138
 N49 N -0.02783 1.07895 -0.07879
 N50 N -0.04725 1.10695 -0.08959
 Mn51 Mn 0.00022 1.07855 0.00310
 C52 C -0.05928 1.09233 -0.15340
 C53 C 0.05977 1.09137 -0.15357
 N54 N -0.02792 0.95439 0.13463
 N55 N -0.04780 0.94839 0.18256
 N56 N 0.02796 0.92445 0.08084
 N57 N 0.04754 0.89668 0.09146
 N58 N 0.02805 0.95400 0.13434
 N59 N 0.04767 0.94719 0.18287
 N60 N -0.02810 0.92485 0.08111
 N61 N -0.04814 0.89789 0.09112
 Mn62 Mn 0.00018 1.00053 0.13654
 C63 C -0.06018 0.91317 0.15447
 C64 C 0.05961 0.91150 0.15508
 N65 N 0.02787 0.95627 -0.13514
 N66 N 0.04764 0.95053 -0.18360
 N67 N -0.02818 0.92616 -0.08289
 N68 N -0.04786 0.89876 -0.09482
 N69 N -0.02817 0.95655 -0.13490
 N70 N -0.04783 0.95067 -0.18368
 N71 N 0.02784 0.92587 -0.08316
 N72 N 0.04760 0.89859 -0.09477
 Mn73 Mn -0.00004 1.00284 -0.13465
 Mn74 Mn -0.00012 0.92482 -0.00105
 Cl75 Cl 0.00006 1.00168 0.00094
 C76 C 0.05972 0.91456 -0.15739
 C77 C -0.05991 0.91465 -0.15762
 N78 N 0.52863 0.45320 -0.13302
 N79 N 0.54796 0.44594 -0.18232
 N80 N 0.47261 0.42343 -0.07988
 N81 N 0.45329 0.39529 -0.09129
 N82 N 0.47266 0.45286 -0.13357
 N83 N 0.45337 0.44560 -0.18300
 N84 N 0.52860 0.42370 -0.07943
 N85 N 0.54791 0.39555 -0.09076
 C86 C 0.55981 0.41008 -0.15481
 C87 C 0.44148 0.40978 -0.15553
 N88 N 0.47236 0.45555 0.13613
 N89 N 0.45249 0.45010 0.18431
 N90 N 0.52850 0.42538 0.08459
 N91 N 0.54865 0.39878 0.09569
 N92 N 0.52836 0.45587 0.13641
 N93 N 0.54839 0.45090 0.18425
 N94 N 0.47239 0.42507 0.08429
 N95 N 0.45251 0.39798 0.09576
 Mn96 Mn 0.50052 0.42388 0.00245
 C97 C 0.44034 0.41419 0.15819
 C98 C 0.56079 0.41526 0.15792
 N99 N 0.47238 0.54568 -0.13610
 N100 N 0.45241 0.55078 -0.18410
 N101 N 0.52824 0.57657 -0.08369
 N102 N 0.54786 0.60410 -0.09524
 N103 N 0.52844 0.54612 -0.13560
 N104 N 0.54821 0.55209 -0.18399
 N105 N 0.47221 0.57611 -0.08414
 N106 N 0.45211 0.60279 -0.09534
 Mn107 Mn 0.50054 0.49948 -0.13544
 C108 C 0.44001 0.58644 -0.15775
 C109 C 0.56010 0.58825 -0.15774
 N110 N 0.52817 0.54852 0.13369
 N111 N 0.54820 0.55457 0.18111
 N112 N 0.47209 0.57768 0.07982
 N113 N 0.45221 0.60494 0.08989
 N114 N 0.47217 0.54822 0.13343
 N115 N 0.45236 0.55456 0.18149
 N116 N 0.52816 0.57803 0.08015
 N117 N 0.54823 0.60502 0.08963
 Mn118 Mn 0.50026 0.50204 0.13575
 Mn119 Mn 0.50017 0.57761 -0.00198
 Cl120 Cl 0.50037 0.50074 0.00015
 C121 C 0.56046 0.58982 0.15272
 C122 C 0.44015 0.58991 0.15334
 C123 C 0.32739 0.28478 0.31910
 C124 C 0.33532 0.32702 0.33536
 C125 C 0.32195 0.35062 0.39155
 C126 C 0.30091 0.33190 0.43185
 C127 C 0.29319 0.28925 0.41668
 C128 C 0.30639 0.26601 0.35941
 C129 C 0.35748 0.34579 0.29540
 C130 C 0.37624 0.36133 0.26254
 C131 C 0.39840 0.37948 0.22496
 C132 C 0.41747 0.39514 0.19384
 H133 H 0.33760 0.26622 0.27580
 H134 H 0.32790 0.38335 0.40452
 H135 H 0.29078 0.35050 0.47521
 H136 H 0.30073 0.23309 0.34694
 C137 C -0.16064 0.79134 0.38086
 C138 C -0.16506 0.82586 0.33127
 C139 C -0.19078 0.84265 0.32273
 C140 C -0.21197 0.82514 0.36409
 C141 C -0.20757 0.79087 0.41474
 C142 C -0.18178 0.77381 0.42215
 C143 C -0.14308 0.84438 0.29025
 C144 C -0.12439 0.85985 0.25708
 C145 C -0.10223 0.87807 0.21971
 C146 C -0.08312 0.89388 0.18913
 H147 H -0.14083 0.77805 0.38777
 H148 H -0.19440 0.86938 0.28451
 H149 H -0.23171 0.83866 0.35747
 H150 H -0.17804 0.74694 0.45997
 C151 C 0.67573 0.71761 0.30697
 C152 C 0.66609 0.67686 0.32661
 C153 C 0.67740 0.65458 0.38769
 C154 C 0.69782 0.67336 0.43025
 C155 C 0.70706 0.71523 0.41324
 C156 C 0.69618 0.73652 0.34939
 C157 C 0.64402 0.65842 0.28578
 C158 C 0.62520 0.64300 0.25306
 C159 C 0.60286 0.62483 0.21644
 C160 C 0.58358 0.60906 0.18658
 H161 H 0.66711 0.73513 0.25969
 H162 H 0.67029 0.62276 0.40284
 H163 H 0.70652 0.65489 0.47622
 H164 H 0.70252 0.76875 0.33430
 C165 C 0.17840 1.15042 0.39247
 C166 C 0.16746 1.17191 0.32996
 C167 C 0.17757 1.21202 0.30825
 C168 C 0.19809 1.23115 0.35006
 C169 C 0.20857 1.21076 0.41535
 C170 C 0.19890 1.16944 0.43443
 C171 C 0.14523 1.15347 0.28985
 C172 C 0.12626 1.13826 0.25759
 C173 C 0.10371 1.12056 0.22128
 C174 C 0.08425 1.10539 0.19144
 H175 H 0.17092 1.11909 0.40924
 H176 H 0.16923 1.22893 0.25988
 H177 H 0.20474 1.26296 0.33339
 H178 H 0.20727 1.15161 0.48167
 C179 C 0.68791 0.32051 -0.30673
 C180 C 0.66186 0.31444 -0.33266
 C181 C 0.65727 0.29019 -0.39839
 C182 C 0.67866 0.27287 -0.43907
 C183 C 0.70516 0.28005 -0.41537
 C184 C 0.70935 0.30325 -0.34724
 C185 C 0.63993 0.33401 -0.29282
 C186 C 0.62161 0.35097 -0.26011
 C187 C 0.60017 0.37132 -0.22258
 C188 C 0.58181 0.38894 -0.19124
 H189 H 0.69170 0.33925 -0.25584
 H190 H 0.63714 0.28475 -0.41841
 H191 H 0.67434 0.25313 -0.48830
 H192 H 0.72928 0.31002 -0.32700
 C193 C 0.15858 0.78825 -0.38273
 C194 C 0.16346 0.82253 -0.33288
 C195 C 0.18950 0.83767 -0.32280
 C196 C 0.21053 0.81891 -0.36309
 C197 C 0.20568 0.78502 -0.41421
 C198 C 0.17957 0.76947 -0.42295
 C199 C 0.14165 0.84247 -0.29314
 C200 C 0.12315 0.85911 -0.26080
 C201 C 0.10125 0.87849 -0.22392
 C202 C 0.08238 0.89499 -0.19318
 H203 H 0.13853 0.77620 -0.39080
 H204 H 0.19349 0.86416 -0.28432
 H205 H 0.23052 0.83130 -0.35549
 H206 H 0.17546 0.74295 -0.46126
 C207 C 0.32308 0.64990 -0.39457
 C208 C 0.33376 0.67161 -0.33196
 C209 C 0.32292 0.71108 -0.30942
 C210 C 0.30180 0.72922 -0.35025
 C211 C 0.29140 0.70848 -0.41536
 C212 C 0.30200 0.66792 -0.43552
 C213 C 0.35616 0.65364 -0.29190
 C214 C 0.37515 0.63846 -0.25958
 C215 C 0.39759 0.62052 -0.22302
 C216 C 0.41689 0.60506 -0.19276
 H217 H 0.33104 0.61897 -0.41184
 H218 H 0.33103 0.72816 -0.26091
 H219 H 0.29451 0.76051 -0.33269
 H220 H 0.29364 0.64943 -0.48192
 C221 C -0.18889 1.17491 -0.30613
 C222 C -0.16289 1.18473 -0.32868
 C223 C -0.15862 1.21128 -0.39175
 C224 C -0.18023 1.22704 -0.43339
 C225 C -0.20658 1.21592 -0.41339
 C226 C -0.21055 1.19061 -0.34760
 C227 C -0.14063 1.16623 -0.28882
 C228 C -0.12202 1.14998 -0.25642
 C229 C -0.10023 1.13028 -0.21956
 C230 C -0.08158 1.11308 -0.18892
 H231 H -0.19242 1.15435 -0.25735
 H232 H -0.13856 1.21948 -0.40923
 H233 H -0.17628 1.24810 -0.48118
 H234 H -0.23037 1.18095 -0.33030
 C235 C 0.65896 0.70927 -0.39225
 C236 C 0.66384 0.68130 -0.33154
 C237 C 0.69006 0.67153 -0.31102
 C238 C 0.71134 0.68873 -0.35235
 C239 C 0.70673 0.71548 -0.41599
 C240 C 0.68016 0.72651 -0.43370
 C241 C 0.64189 0.66170 -0.29186
 C242 C 0.62336 0.64494 -0.25990
 C243 C 0.60148 0.62512 -0.22363
 C244 C 0.58267 0.60821 -0.19333
 H245 H 0.63873 0.71753 -0.40799
 H246 H 0.69405 0.64995 -0.26395
 H247 H 0.73136 0.67924 -0.33670
 H248 H 0.67570 0.74871 -0.47946
 C249 C 0.15941 1.20927 -0.39161
 C250 C 0.16386 1.18248 -0.32897
 C251 C 0.18992 1.17268 -0.30703
 C252 C 0.21148 1.18868 -0.34868
 C253 C 0.20732 1.21426 -0.41404
 C254 C 0.18089 1.22532 -0.43340
 C255 C 0.14166 1.16394 -0.28880
 C256 C 0.12301 1.14784 -0.25631
 C257 C 0.10109 1.12847 -0.21948
 C258 C 0.08228 1.11164 -0.18895
 H259 H 0.13930 1.21751 -0.40856
 H260 H 0.19360 1.15196 -0.25855
 H261 H 0.23136 1.17911 -0.33178
 H262 H 0.17678 1.24666 -0.48069
 C263 C 0.31283 0.32938 -0.31713
 C264 C 0.33883 0.31594 -0.33335
 C265 C 0.34325 0.28462 -0.38933
 C266 C 0.32177 0.26717 -0.42954
 C267 C 0.29568 0.28116 -0.41449
 C268 C 0.29136 0.31201 -0.35734
 C269 C 0.36095 0.33504 -0.29370
 C270 C 0.37940 0.35160 -0.26098
 C271 C 0.40097 0.37150 -0.22335
 C272 C 0.41942 0.38883 -0.19193
 H273 H 0.30919 0.35361 -0.27399
 H274 H 0.36328 0.27396 -0.40227
 H275 H 0.32548 0.24308 -0.47283
 H276 H 0.27140 0.32323 -0.34499
 C277 C -0.17014 0.78040 -0.32516
 C278 C -0.16404 0.82413 -0.33420
 C279 C -0.17935 0.84958 -0.38324
 C280 C -0.20049 0.83137 -0.42364
 C281 C -0.20645 0.78734 -0.41595
 C282 C -0.19131 0.76210 -0.36564
 C283 C -0.14186 0.84291 -0.29423
 C284 C -0.12321 0.85906 -0.26175
 C285 C -0.10128 0.87831 -0.22470
 C286 C -0.08245 0.89488 -0.19377
 H287 H -0.15843 0.76041 -0.28731
 H288 H -0.17486 0.88347 -0.39050
 H289 H -0.21217 0.85156 -0.46122
 H290 H -0.19561 0.72813 -0.35881
 C291 C 0.33901 0.71090 0.38095
 C292 C 0.33502 0.67750 0.32864
 C293 C 0.30944 0.66065 0.31767
 C294 C 0.28799 0.67666 0.35975
 C295 C 0.29198 0.70944 0.41369
 C296 C 0.31758 0.72696 0.42300
 C297 C 0.35731 0.65964 0.28806
 C298 C 0.37612 0.64426 0.25530
 C299 C 0.39829 0.62578 0.21835
 C300 C 0.41734 0.60962 0.18801
 H301 H 0.35871 0.72421 0.38978
 H302 H 0.30614 0.63479 0.27735
 H303 H 0.26838 0.66285 0.35159
 H304 H 0.32099 0.75266 0.46354
 C305 C -0.17742 1.15069 0.39494
 C306 C -0.16687 1.17181 0.33148
 C307 C -0.17748 1.21138 0.30868
 C308 C -0.19810 1.23037 0.35027
 C309 C -0.20821 1.21039 0.41643
 C310 C -0.19803 1.16957 0.43670
 C311 C -0.14458 1.15355 0.29136
 C312 C -0.12557 1.13852 0.25896
 C313 C -0.10301 1.12101 0.22239
 C314 C -0.08355 1.10593 0.19233
 H315 H -0.16957 1.11977 0.41259
 H316 H -0.16946 1.22801 0.25956
 H317 H -0.20514 1.26180 0.33268
 H318 H -0.20610 1.15203 0.48469
 C319 C 0.68026 0.35158 0.38754
 C320 C 0.66642 0.32824 0.33195
 C321 C 0.67351 0.28552 0.31660
 C322 C 0.69402 0.26589 0.35763
 C323 C 0.70751 0.28874 0.41489
 C324 C 0.70082 0.33200 0.42859
 C325 C 0.64435 0.34756 0.29244
 C326 C 0.62553 0.36328 0.26018
 C327 C 0.60320 0.38138 0.22342
 C328 C 0.58392 0.39677 0.19297
 H329 H 0.67495 0.38468 0.39980
 H330 H 0.66293 0.26718 0.27373
 H331 H 0.69894 0.23255 0.34617
 H332 H 0.71120 0.35026 0.47194
 C333 C 0.16918 0.77639 0.32342
 C334 C 0.16295 0.82000 0.33325
 C335 C 0.17788 0.84515 0.38379
 C336 C 0.19881 0.82672 0.42480
 C337 C 0.20490 0.78282 0.41614
 C338 C 0.19011 0.75790 0.36448
 C339 C 0.14102 0.83891 0.29246
 C340 C 0.12254 0.85505 0.25927
 C341 C 0.10076 0.87432 0.22161
 C342 C 0.08205 0.89111 0.19057
 H343 H 0.15775 0.75664 0.28445
 H344 H 0.17327 0.87895 0.39169
 H345 H 0.21023 0.84665 0.46346
 H346 H 0.19453 0.72402 0.35691
   
