data_POSCAR
  _audit_creation_date              2014-09-24
  _audit_creation_method            'ToBaCCo'
  _symmetry_space_group_name_H-M    'P1'
  _symmetry_Int_Tables_number       1
  _symmetry_cell_setting            triclinic
  loop_
  _symmetry_equiv_pos_as_xyz
 x,y,z
_cell_length_a 20.7049
_cell_length_b 20.4708
_cell_length_c 20.4417
_cell_angle_alpha 89.807900
_cell_angle_beta 89.885800
_cell_angle_gamma 93.935300
loop_
  _atom_site_label
  _atom_site_type_symbol
  _atom_site_fract_x
  _atom_site_fract_y
  _atom_site_fract_z
N1 N 0.18370 1.29278 0.10945
 N2 N 0.14366 1.30579 0.15688
 C3 C 0.10949 1.35644 0.13920
 C4 C 0.12868 1.37600 0.07666
 C5 C 0.17612 1.33468 0.05951
 H6 H 0.07151 1.37506 0.16867
 H7 H 0.20152 1.33369 0.01325
 Cu8 Cu 0.13366 1.25088 0.23406
 Cu9 Cu 0.23807 1.21873 0.11466
 Cu10 Cu 0.23639 1.13516 0.26287
 N11 N 0.11243 1.18023 0.29560
 N12 N 0.15350 1.13569 0.30818
 C13 C 0.12780 1.09394 0.35375
 C14 C 0.06674 1.11315 0.36991
 C15 C 0.05872 1.16803 0.33202
 H16 H 0.15168 1.05246 0.37252
 H17 H 0.01696 1.19704 0.33114
 N18 N 0.30064 1.12277 0.19371
 N19 N 0.30138 1.15428 0.13721
 C20 C 0.34858 1.13235 0.09935
 C21 C 0.37831 1.08421 0.13355
 C22 C 0.34658 1.07933 0.19297
 H23 H 0.35835 1.14792 0.04952
 H24 H 0.35466 1.04481 0.23179
 H25 H 0.18616 1.16099 0.18354
 H26 H 0.24613 1.22608 0.21362
 N27 N 0.82304 0.68975 0.10625
 N28 N 0.86968 0.69194 0.14981
 C29 C 0.91626 0.65376 0.12991
 C30 C 0.89754 0.62613 0.07054
 C31 C 0.83821 0.65007 0.05701
 H32 H 0.96027 0.64696 0.15671
 H33 H 0.80804 0.63900 0.01478
 Cu34 Cu 0.86441 0.74333 0.22900
 Cu35 Cu 0.74572 0.73716 0.11865
 Cu36 Cu 0.76766 0.86861 0.22498
 N37 N 0.87031 0.81170 0.29439
 N38 N 0.83185 0.86023 0.29402
 C39 C 0.84986 0.90237 0.34229
 C40 C 0.90314 0.87900 0.37367
 C41 C 0.91439 0.82140 0.34212
 H42 H 0.82817 0.94811 0.35108
 H43 H 0.95356 0.79028 0.35149
 N44 N 0.69564 0.85969 0.16132
 N45 N 0.68752 0.80893 0.12174
 C46 C 0.63832 0.81825 0.08079
 C47 C 0.61393 0.87749 0.09507
 C48 C 0.65111 0.90263 0.14667
 H49 H 0.62360 0.78599 0.04092
 H50 H 0.64838 0.95005 0.16922
 H51 H 0.80659 0.81042 0.15363
 H52 H 0.75139 0.77020 0.21614
 N53 N 0.85747 1.30472 -0.13096
 N54 N 0.90142 1.29393 -0.17537
 C55 C 0.95420 1.33483 -0.16490
 C56 C 0.94234 1.37337 -0.11128
 C57 C 0.88022 1.35305 -0.09120
 H58 H 0.99829 1.33589 -0.19348
 H59 H 0.85381 1.37036 -0.04978
 Cu60 Cu 0.88480 1.22728 -0.24227
 Cu61 Cu 0.77518 1.25328 -0.12584
 Cu62 Cu 0.77671 1.10332 -0.20329
 N63 N 0.87045 1.15123 -0.29871
 N64 N 0.82784 1.10308 -0.28313
 C65 C 0.83113 1.05447 -0.32681
 C66 C 0.87854 1.07282 -0.37214
 C67 C 0.90240 1.13492 -0.35312
 H68 H 0.80315 1.00792 -0.32407
 H69 H 0.94190 1.16469 -0.37500
 N70 N 0.71324 1.12220 -0.13527
 N71 N 0.71218 1.17966 -0.10641
 C72 C 0.66548 1.17649 -0.06037
 C73 C 0.63521 1.11430 -0.06088
 C74 C 0.66654 1.08111 -0.10910
 H75 H 0.65541 1.21597 -0.02765
 H76 H 0.65759 1.03031 -0.12266
 H77 H 0.82712 1.17647 -0.14915
 H78 H 0.77064 1.20063 -0.21462
 N79 N 0.15656 0.71520 -0.13436
 N80 N 0.11952 0.70877 -0.18683
 C81 C 0.07726 0.65634 -0.17885
 C82 C 0.08872 0.62798 -0.11900
 C83 C 0.13946 0.66640 -0.09212
 H84 H 0.03906 0.64152 -0.21280
 H85 H 0.15987 0.66146 -0.04388
 Cu86 Cu 0.12401 0.77194 -0.26019
 Cu87 Cu 0.22073 0.78995 -0.12148
 Cu88 Cu 0.23865 0.89429 -0.24729
 N89 N 0.12056 0.85257 -0.31110
 N90 N 0.16500 0.90107 -0.30438
 C91 C 0.15080 0.95100 -0.34338
 C92 C 0.09484 0.93274 -0.37708
 C93 C 0.07678 0.86962 -0.35567
 H94 H 0.17942 0.99711 -0.34735
 H95 H 0.03496 0.83866 -0.37044
 N96 N 0.29759 0.89945 -0.17404
 N97 N 0.29127 0.85826 -0.12462
 C98 C 0.33588 0.87593 -0.07889
 C99 C 0.37152 0.93141 -0.10121
 C100 C 0.34592 0.94482 -0.16158
 H101 H 0.34002 0.85199 -0.03200
 H102 H 0.35996 0.98601 -0.19301
 H103 H 0.15600 0.83013 -0.18597
 H104 H 0.21780 0.77786 -0.22056
 C105 C 0.50025 1.00164 0.02235
 C106 C 0.01912 0.50288 1.00952
 C107 C 0.98126 -0.00036 0.49630
 C108 C 0.10292 0.42299 1.03623
 C109 C 0.05486 0.45948 1.05557
 H110 H 0.12155 0.42834 0.98681
 H111 H 0.03524 0.45274 1.10446
 C112 C -0.06846 0.58027 1.02966
 C113 C -0.01716 0.54989 1.05123
 H114 H -0.08736 0.57010 0.98112
 H115 H 0.00190 0.56194 1.09936
 C116 C -0.01175 0.42233 0.91950
 C117 C -0.02840 0.45770 0.97122
 H118 H 0.03694 0.42842 0.89998
 H119 H -0.07662 0.44930 0.99144
 C120 C 0.04777 0.57542 0.91291
 C121 C 0.06612 0.54506 0.96733
 H122 H 0.00003 0.56385 0.89279
 H123 H 0.11376 0.55780 0.98727
 C124 C 1.02129 0.08465 0.41392
 C125 C 1.03238 0.03244 0.45109
 H126 H 0.97507 0.10619 0.41794
 H127 H 1.07765 0.00937 0.44585
 C128 C 1.06538 -0.02791 0.57760
 C129 C 1.01262 -0.04730 0.54279
 H130 H 1.08717 0.02125 0.57020
 H131 H 0.98890 -0.09545 0.55108
 C132 C 0.94292 -0.09184 0.42195
 C133 C 0.93094 -0.03610 0.45272
 H134 H 0.98687 -0.11532 0.43348
 H135 H 0.88773 -0.01153 0.44085
 C136 C 0.90048 0.03245 0.57879
 C137 C 0.95033 0.04983 0.53886
 H138 H 0.87794 -0.01682 0.57550
 H139 H 0.97461 0.09823 0.54276
 C140 C 0.42628 1.04002 0.10951
 C141 C 0.46165 1.05289 0.05542
 H142 H 0.43056 0.99439 0.13562
 H143 H 0.45575 1.09813 0.02909
 C144 C 0.58440 1.08861 -0.01531
 C145 C 0.54856 1.03281 -0.02677
 H146 H 0.57654 1.11634 0.02867
 H147 H 0.55793 1.00523 -0.07054
 C148 C 0.42186 0.97290 -0.06775
 C149 C 0.45098 0.95531 -0.01255
 H150 H 0.43565 1.01999 -0.08988
 H151 H 0.43590 0.90900 0.01051
 C152 C 0.56625 0.90926 0.05477
 C153 C 0.53984 0.96492 0.07125
 H154 H 0.55434 0.88682 0.00800
 H155 H 0.55323 0.98843 0.11714
   
