data_POSCAR
  _audit_creation_date              2014-09-24
  _audit_creation_method            'ToBaCCo'
  _symmetry_space_group_name_H-M    'P1'
  _symmetry_Int_Tables_number       1
  _symmetry_cell_setting            triclinic
  loop_
  _symmetry_equiv_pos_as_xyz
 x,y,z
_cell_length_a 32.6449
_cell_length_b 32.4962
_cell_length_c 32.0598
_cell_angle_alpha 87.925600
_cell_angle_beta 89.181000
_cell_angle_gamma 89.918700
loop_
  _atom_site_label
  _atom_site_type_symbol
  _atom_site_fract_x
  _atom_site_fract_y
  _atom_site_fract_z
C1 C 0.16306 1.21510 0.21362
 C2 C 0.14972 1.25123 0.19269
 C3 C 0.17129 1.26802 0.15770
 C4 C 0.20768 1.24824 0.14470
 C5 C 0.22118 1.21191 0.16521
 C6 C 0.19870 1.19516 0.19962
 C7 C 0.14058 1.19821 0.24773
 C8 C 0.15293 1.16093 0.26805
 C9 C 0.18881 1.14149 0.25364
 C10 C 0.21163 1.15819 0.21971
 C11 C 0.24677 1.13801 0.20509
 C12 C 0.26890 1.15410 0.17019
 C13 C 0.25632 1.19146 0.15104
 H14 H 0.12184 1.26599 0.20338
 H15 H 0.22558 1.25993 0.11831
 H16 H 0.11324 1.21427 0.25723
 H17 H 0.19890 1.11284 0.26863
 H18 H 0.25676 1.10992 0.22107
 H19 H 0.27338 1.20406 0.12426
 C20 C 0.83784 0.76060 0.21846
 C21 C 0.85531 0.72631 0.19963
 C22 C 0.83811 0.70979 0.16382
 C23 C 0.80206 0.72811 0.14761
 C24 C 0.78432 0.76243 0.16619
 C25 C 0.80230 0.77881 0.20166
 C26 C 0.85598 0.77741 0.25336
 C27 C 0.83937 0.81243 0.27199
 C28 C 0.80335 0.83016 0.25508
 C29 C 0.78498 0.81368 0.22004
 C30 C 0.75005 0.83219 0.20247
 C31 C 0.73237 0.81668 0.16657
 C32 C 0.74923 0.78111 0.14918
 H33 H 0.88297 0.71283 0.21266
 H34 H 0.78762 0.71680 0.12021
 H35 H 0.88362 0.76332 0.26577
 H36 H 0.78955 0.85716 0.26805
 H37 H 0.73705 0.85937 0.21622
 H38 H 0.73524 0.76763 0.12252
 C39 C 0.83002 1.23112 -0.22002
 C40 C 0.84901 1.26518 -0.20272
 C41 C 0.83385 1.28175 -0.16567
 C42 C 0.79820 1.26471 -0.14675
 C43 C 0.77920 1.23041 -0.16337
 C44 C 0.79510 1.21356 -0.20016
 C45 C 0.84607 1.21384 -0.25630
 C46 C 0.82765 1.17888 -0.27328
 C47 C 0.79240 1.16214 -0.25324
 C48 C 0.77627 1.17893 -0.21683
 C49 C 0.74219 1.16089 -0.19620
 C50 C 0.72706 1.17662 -0.15878
 C51 C 0.74507 1.21214 -0.14316
 H52 H 0.87626 1.27833 -0.21761
 H53 H 0.78499 1.27785 -0.11910
 H54 H 0.87306 1.22793 -0.27038
 H55 H 0.77779 1.13526 -0.26555
 H56 H 0.72816 1.13376 -0.20857
 H57 H 0.73283 1.22551 -0.11514
 C58 C 0.17750 0.79675 -0.22052
 C59 C 0.16117 0.75924 -0.20493
 C60 C 0.17871 0.73787 -0.17052
 C61 C 0.21378 0.75488 -0.15222
 C62 C 0.23049 0.79228 -0.16761
 C63 C 0.21229 0.81332 -0.20180
 C64 C 0.15890 0.81841 -0.25394
 C65 C 0.17473 0.85661 -0.26895
 C66 C 0.20955 0.87264 -0.25008
 C67 C 0.22833 0.85143 -0.21665
 C68 C 0.26238 0.86824 -0.19727
 C69 C 0.28083 0.84754 -0.16323
 C70 C 0.26460 0.80949 -0.14850
 H71 H 0.13418 0.74693 -0.21939
 H72 H 0.22831 0.74007 -0.12565
 H73 H 0.13166 0.80563 -0.26715
 H74 H 0.22181 0.90213 -0.26115
 H75 H 0.27439 0.89779 -0.20845
 H76 H 0.27737 0.79377 -0.12134
 C77 C 0.56494 1.05967 0.00244
 H78 H 0.56476 1.05682 0.03618
 C79 C 0.59241 1.08649 -0.01825
 H80 H 0.61233 1.10475 0.00030
 C81 C 0.53822 1.03925 -0.06191
 H82 H 0.51762 1.02019 -0.07885
 C83 C 0.56530 1.06557 -0.08391
 H84 H 0.56499 1.06679 -0.11772
 N85 N 0.53854 1.03678 -0.01948
 C86 C 0.44237 1.00282 0.07114
 H87 H 0.44350 0.96963 0.06955
 C88 C 0.41300 1.02127 0.09646
 H89 H 0.39253 1.00163 0.11492
 C90 C 0.46840 1.06808 0.04877
 H91 H 0.48939 1.08627 0.02943
 C92 C 0.43950 1.08783 0.07361
 H93 H 0.43885 1.12117 0.07343
 Zn94 Zn 0.50508 0.99874 0.01130
 N95 N 0.46928 1.02628 0.04794
 C96 C 0.53961 0.95890 0.08352
 N97 N 0.54078 0.96290 0.04114
 C98 C 0.56983 0.94345 0.01832
 C99 C 0.59907 0.91843 0.03796
 C100 C 0.56823 0.93404 0.10448
 C101 C 0.44352 0.99095 -0.04709
 C102 C 0.41627 0.97097 -0.07266
 C103 C 0.44743 0.90608 -0.05187
 C104 C 0.47422 0.92737 -0.02675
 N105 N 0.47177 0.96905 -0.02483
 H106 H 0.51703 0.97553 0.10121
 H107 H 0.57069 0.94806 -0.01528
 H108 H 0.62248 0.90460 0.01884
 H109 H 0.56708 0.93140 0.13826
 H110 H 0.44194 1.02403 -0.04458
 H111 H 0.39377 0.98893 -0.08993
 H112 H 0.45047 0.87303 -0.05323
 H113 H 0.49654 0.91046 -0.00840
 C114 C 0.41081 1.06450 0.09731
 C115 C 0.59334 1.08916 -0.06219
 C116 C 0.41752 0.92797 -0.07483
 C117 C 0.59838 0.91324 0.08175
 C118 C -0.00004 0.56403 1.04581
 H119 H 0.03288 0.56743 1.04338
 C120 C -0.02306 0.59124 1.06942
 H121 H -0.00757 0.61551 1.08527
 C122 C -0.06022 0.52897 1.02702
 H123 H -0.07470 0.50502 1.01002
 C124 C -0.08440 0.55533 1.05048
 H125 H -0.11709 0.55017 1.05187
 N126 N -0.01885 0.53378 1.02505
 C127 C 0.07057 0.43734 1.00240
 H128 H 0.06817 0.43573 0.96887
 C129 C 0.09479 0.40891 1.02448
 H130 H 0.11033 0.38533 1.00734
 C131 C 0.05026 0.46855 1.06508
 H132 H 0.03213 0.49124 1.08084
 C133 C 0.07419 0.44074 1.08842
 H134 H 0.07450 0.44252 1.12209
 Zn135 Zn 0.01395 0.50072 0.99042
 N136 N 0.04899 0.46641 1.02283
 C137 C 0.08648 0.53456 0.95338
 N138 N 0.04489 0.53678 0.95465
 C139 C 0.02452 0.56707 0.93318
 C140 C 0.04614 0.59738 0.91009
 C141 C 0.10931 0.56404 0.93044
 C142 C -0.03872 0.43483 0.98205
 C143 C -0.06293 0.40646 0.96210
 C144 C -0.04681 0.44164 0.89624
 C145 C -0.02273 0.46936 0.91753
 N146 N -0.01949 0.46566 0.95975
 H147 H 0.10218 0.51048 0.97090
 H148 H -0.00857 0.56837 0.93508
 H149 H 0.02941 0.62187 0.89403
 H150 H 0.14229 0.56109 0.92983
 H151 H -0.03478 0.43206 1.01549
 H152 H -0.07672 0.38166 0.98074
 H153 H -0.04911 0.44490 0.86261
 H154 H -0.00646 0.49357 0.90030
 C155 C 0.09691 0.41045 1.06821
 C156 C -0.06588 0.58759 1.07145
 C157 C -0.06764 0.40992 0.91855
 C158 C 0.08913 0.59676 0.90930
 C159 C 1.03254 -0.01738 0.56313
 H160 H 1.03415 0.01581 0.56428
 C161 C 1.05501 -0.04194 0.59117
 H162 H 1.07332 -0.02692 0.61394
 C163 C 1.00418 -0.07646 0.53345
 H164 H 0.98365 -0.08980 0.51157
 C165 C 1.02616 -0.10221 0.56089
 H166 H 1.02262 -0.13527 0.55951
 N167 N 1.00797 -0.03486 0.53486
 C168 C 0.99195 0.05702 0.43413
 H169 H 0.95884 0.05778 0.43310
 C170 C 1.01501 0.08013 0.40478
 H171 H 0.99898 0.09797 0.38103
 C172 C 1.05231 0.03024 0.46506
 H173 H 1.06672 0.01012 0.48805
 C174 C 1.07660 0.05297 0.43636
 H175 H 1.10964 0.05039 0.43782
 Zn176 Zn 0.97653 0.00107 0.50028
 N177 N 1.01077 0.03295 0.46366
 C178 C 0.94973 0.07717 0.53244
 N179 N 0.94636 0.03547 0.53588
 C180 C 0.92335 0.01691 0.56678
 C181 C 0.90297 0.04045 0.59617
 C182 C 0.92964 0.10194 0.56102
 C183 C 0.95888 -0.05286 0.43744
 C184 C 0.93484 -0.07378 0.40949
 C185 C 0.87448 -0.04486 0.44169
 C186 C 0.89972 -0.02458 0.46916
 N187 N 0.94111 -0.02902 0.46660
 H188 H 0.96850 0.09137 0.50794
 H189 H 0.92153 -0.01634 0.56903
 H190 H 0.88530 0.02502 0.62093
 H191 H 0.93261 0.13495 0.55699
 H192 H 0.99193 -0.05494 0.43542
 H193 H 0.94999 -0.09145 0.38585
 H194 H 0.84160 -0.04066 0.44373
 H195 H 0.88625 -0.00465 0.49187
 C196 C 1.05808 0.07858 0.40589
 C197 C 1.05215 -0.08511 0.59011
 C198 C 0.89193 -0.06997 0.41148
 C199 C 0.90647 0.08352 0.59404
 C200 C 0.15447 0.30297 1.13667
 C201 C 0.17054 0.32209 1.10222
 C202 C 0.14979 0.35580 1.07841
 C203 C 0.11982 0.37945 1.09383
 H204 H 0.19866 0.31160 1.08814
 H205 H 0.16067 0.36128 1.04670
 H206 H 0.12544 0.31401 1.14855
 H207 H 0.11170 0.37667 1.12663
 C208 C -0.14139 0.67655 1.14529
 C209 C -0.15341 0.65790 1.11069
 C210 C -0.12995 0.62504 1.09018
 C211 C -0.08969 0.61817 1.09522
 H212 H -0.18193 0.66580 1.09589
 H213 H -0.14663 0.60824 1.06744
 H214 H -0.11373 0.66559 1.16023
 H215 H -0.07245 0.63753 1.11534
 C216 C -0.14365 0.31644 0.85246
 C217 C -0.14578 0.32481 0.89316
 C218 C -0.12221 0.35717 0.91356
 C219 C -0.09216 0.38001 0.89544
 H220 H -0.16506 0.30630 0.91407
 H221 H -0.13021 0.36134 0.94596
 H222 H -0.12340 0.33396 0.83166
 H223 H -0.08490 0.37724 0.86269
 C224 C 0.15953 0.70116 0.84465
 C225 C 0.17237 0.67752 0.87730
 C226 C 0.15054 0.64078 0.89494
 C227 C 0.11139 0.63120 0.88727
 H228 H 0.20045 0.68424 0.89292
 H229 H 0.16738 0.62286 0.91799
 H230 H 0.13234 0.69176 0.82865
 H231 H 0.09357 0.65095 0.86662
 C232 C 1.13062 0.14143 0.30133
 C233 C 1.09618 0.15624 0.31900
 C234 C 1.07153 0.13398 0.35174
 C235 C 1.08447 0.10126 0.37476
 H236 H 1.08324 0.18527 0.30855
 H237 H 1.04132 0.14646 0.35735
 H238 H 1.14192 0.11184 0.31256
 H239 H 1.11582 0.09091 0.37187
 C240 C 1.15516 -0.11799 0.69733
 C241 C 1.12463 -0.13054 0.67340
 C242 C 1.10590 -0.10183 0.64251
 C243 C 1.07383 -0.11314 0.62004
 H244 H 1.11273 -0.16152 0.67653
 H245 H 1.11856 -0.07117 0.63862
 H246 H 1.16640 -0.08678 0.69218
 H247 H 1.06293 -0.14460 0.62358
 C248 C 0.86048 -0.17131 0.30584
 C249 C 0.84897 -0.13837 0.32724
 C250 C 0.87563 -0.12241 0.35969
 C251 C 0.86488 -0.08933 0.38103
 H252 H 0.82079 -0.12206 0.32083
 H253 H 0.90455 -0.13771 0.36561
 H254 H 0.88890 -0.18630 0.31493
 H255 H 0.83489 -0.07577 0.37604
 C256 C 0.84330 0.15896 0.69137
 C257 C 0.87743 0.16999 0.66967
 C258 C 0.89483 0.14691 0.63451
 C259 C 0.88603 0.10747 0.62706
 H260 H 0.89433 0.19724 0.67685
 H261 H 0.91825 0.16293 0.61622
 H262 H 0.82639 0.13253 0.68143
 H263 H 0.86494 0.09067 0.64759
 C264 C 0.30501 1.13273 0.15250
 C265 C 0.31019 1.09176 0.15578
 C266 C 0.34349 1.06933 0.13454
 C267 C 0.37907 1.08649 0.12159
 H268 H 0.28714 1.07282 0.17159
 H269 H 0.33743 1.03728 0.12930
 H270 H 0.32589 1.15119 0.13317
 H271 H 0.38487 1.11854 0.12737
 C272 C 0.69299 1.15475 -0.13640
 C273 C 0.68865 1.15444 -0.09468
 C274 C 0.65781 1.12979 -0.07063
 C275 C 0.62293 1.11557 -0.08647
 H276 H 0.71083 1.17027 -0.07632
 H277 H 0.66503 1.12342 -0.03827
 H278 H 0.67347 1.13561 -0.15457
 H279 H 0.61601 1.12231 -0.11890
 C280 C 0.31508 0.86808 -0.14228
 C281 C 0.34289 0.84793 -0.11872
 C282 C 0.37555 0.86811 -0.09518
 C283 C 0.38709 0.90758 -0.10110
 H284 H 0.34140 0.81477 -0.11491
 H285 H 0.38988 0.84900 -0.07125
 H286 H 0.31670 0.90115 -0.14659
 H287 H 0.37273 0.92680 -0.12490
 C288 C 0.69662 0.83867 0.14811
 C289 C 0.68636 0.83630 0.10782
 C290 C 0.65283 0.85961 0.08710
 C291 C 0.62970 0.88862 0.10479
 H292 H 0.70417 0.81719 0.08746
 H293 H 0.64791 0.85226 0.05496
 H294 H 0.67989 0.85886 0.16827
 H295 H 0.63333 0.89507 0.13734
   
