data_POSCAR
  _audit_creation_date              2014-09-24
  _audit_creation_method            'ToBaCCo'
  _symmetry_space_group_name_H-M    'P1'
  _symmetry_Int_Tables_number       1
  _symmetry_cell_setting            triclinic
  loop_
  _symmetry_equiv_pos_as_xyz
 x,y,z
_cell_length_a 46.8912
_cell_length_b 45.9240
_cell_length_c 42.5679
_cell_angle_alpha 89.999400
_cell_angle_beta 89.995700
_cell_angle_gamma 90.181600
loop_
  _atom_site_label
  _atom_site_type_symbol
  _atom_site_fract_x
  _atom_site_fract_y
  _atom_site_fract_z
C1 C 0.08530 0.25728 0.01648
 C2 C 0.08532 0.25607 -0.01569
 C3 C 0.06003 0.26871 -0.02568
 N4 N 0.04436 0.27713 -0.00063
 C5 C 0.05984 0.27021 0.02512
 C6 C 0.05216 0.27347 -0.05742
 C7 C 0.02350 0.27958 -0.06582
 C8 C 0.01514 0.29324 -0.09339
 C9 C -0.01413 0.29380 -0.09333
 C10 C -0.02298 0.28045 -0.06574
 N11 N 0.00012 0.27222 -0.04884
 C12 C -0.05184 0.27535 -0.05726
 C13 C -0.05980 0.27085 -0.02550
 C14 C -0.08546 0.25890 -0.01543
 C15 C -0.08532 0.26014 0.01673
 C16 C -0.05944 0.27237 0.02528
 N17 N -0.04380 0.27884 -0.00052
 C18 C -0.05118 0.27877 0.05640
 C19 C -0.02267 0.28503 0.06460
 C20 C -0.01389 0.29682 0.09300
 C21 C 0.01545 0.29624 0.09298
 C22 C 0.02367 0.28412 0.06456
 N23 N 0.00033 0.27754 0.04735
 C24 C 0.05188 0.27683 0.05628
 H25 H 0.10200 0.24934 0.03175
 H26 H 0.10203 0.24680 -0.03005
 H27 H 0.00005 0.26511 0.02691
 H28 H 0.02874 0.30212 -0.11159
 H29 H -0.02739 0.30318 -0.11148
 H30 H -0.10248 0.25005 -0.02974
 H31 H -0.10223 0.25264 0.03206
 H32 H 0.02915 0.30330 0.11199
 H33 H -0.00011 0.25968 -0.02843
 H34 H -0.02724 0.30441 0.11204
 C35 C 0.58542 0.76317 0.51621
 C36 C 0.58543 0.76319 0.48398
 C37 C 0.55892 0.77331 0.47468
 N38 N 0.54279 0.77956 0.50010
 C39 C 0.55891 0.77329 0.52552
 C40 C 0.55050 0.77815 0.44324
 C41 C 0.52198 0.78399 0.43460
 C42 C 0.51350 0.79485 0.40569
 C43 C 0.48416 0.79494 0.40569
 C44 C 0.47555 0.78414 0.43461
 N45 N 0.49873 0.77759 0.45211
 C46 C 0.44697 0.77844 0.44323
 C47 C 0.43851 0.77359 0.47466
 C48 C 0.41195 0.76342 0.48395
 C49 C 0.41195 0.76339 0.51617
 C50 C 0.43850 0.77355 0.52548
 N51 N 0.45467 0.77985 0.50008
 C52 C 0.44695 0.77835 0.55692
 C53 C 0.47552 0.78405 0.56557
 C54 C 0.48411 0.79481 0.59451
 C55 C 0.51345 0.79473 0.59452
 C56 C 0.52195 0.78392 0.56559
 N57 N 0.49871 0.77753 0.54806
 C58 C 0.55048 0.77810 0.55696
 H59 H 0.60293 0.75645 0.53107
 H60 H 0.60295 0.75648 0.46913
 H61 H 0.49865 0.76595 0.52708
 H62 H 0.52704 0.80161 0.38641
 H63 H 0.47070 0.80179 0.38642
 H64 H 0.39441 0.75666 0.46909
 H65 H 0.39440 0.75662 0.53101
 H66 H 0.52698 0.80148 0.61381
 H67 H 0.49866 0.76598 0.47307
 H68 H 0.47064 0.80163 0.61378
 C69 C 1.08441 0.74038 -0.01606
 C70 C 1.08445 0.74034 0.01609
 C71 C 1.05926 0.72704 0.02548
 N72 N 1.04363 0.71924 0.00005
 C73 C 1.05920 0.72710 -0.02541
 C74 C 1.05122 0.72185 0.05713
 C75 C 1.02235 0.71673 0.06539
 C76 C 1.01309 0.70402 0.09320
 C77 C 0.98381 0.70537 0.09315
 C78 C 0.97597 0.71847 0.06515
 N79 N 0.99954 0.72513 0.04823
 C80 C 0.94775 0.72575 0.05680
 C81 C 0.93970 0.73178 0.02556
 C82 C 0.91362 0.74305 0.01636
 C83 C 0.91359 0.74311 -0.01587
 C84 C 0.93965 0.73187 -0.02518
 N85 N 0.95558 0.72498 0.00015
 C86 C 0.94763 0.72595 -0.05647
 C87 C 0.97583 0.71868 -0.06491
 C88 C 0.98361 0.70564 -0.09297
 C89 C 1.01289 0.70427 -0.09308
 C90 C 1.02221 0.71691 -0.06526
 N91 N 0.99943 0.72528 -0.04803
 C92 C 1.05110 0.72198 -0.05705
 H93 H 1.10086 0.74968 -0.03085
 H94 H 1.10092 0.74961 0.03085
 H95 H 1.00014 0.73783 -0.02766
 H96 H 1.02609 0.69494 0.11176
 H97 H 0.96988 0.69771 0.11169
 H98 H 0.89633 0.75023 0.03129
 H99 H 0.89627 0.75034 -0.03072
 H100 H 1.02585 0.69523 -0.11170
 H101 H 1.00019 0.73772 0.02790
 H102 H 0.96964 0.69802 -0.11148
 C103 C 0.41335 0.23572 0.51593
 C104 C 0.41337 0.23583 0.48370
 C105 C 0.44000 0.22603 0.47440
 N106 N 0.45618 0.21988 0.49980
 C107 C 0.43996 0.22587 0.52522
 C108 C 0.44850 0.22141 0.44296
 C109 C 0.47711 0.21607 0.43433
 C110 C 0.48578 0.20547 0.40537
 C111 C 0.51512 0.20588 0.40539
 C112 C 0.52354 0.21673 0.43436
 N113 N 0.50025 0.22282 0.45187
 C114 C 0.55203 0.22285 0.44304
 C115 C 0.56041 0.22767 0.47450
 C116 C 0.58687 0.23804 0.48385
 C117 C 0.58684 0.23796 0.51609
 C118 C 0.56037 0.22752 0.52534
 N119 N 0.54428 0.22117 0.49988
 C120 C 0.55194 0.22252 0.55675
 C121 C 0.52344 0.21636 0.56535
 C122 C 0.51498 0.20536 0.59424
 C123 C 0.48564 0.20493 0.59420
 C124 C 0.47701 0.21568 0.56529
 N125 N 0.50017 0.22252 0.54783
 C126 C 0.44840 0.22105 0.55664
 H127 H 0.39575 0.24221 0.53079
 H128 H 0.39580 0.24240 0.46886
 H129 H 0.50007 0.23416 0.52688
 H130 H 0.47236 0.19855 0.38606
 H131 H 0.52870 0.19933 0.38610
 H132 H 0.60437 0.24498 0.46904
 H133 H 0.60432 0.24482 0.53098
 H134 H 0.47219 0.19790 0.61344
 H135 H 0.50012 0.23435 0.47289
 H136 H 0.52853 0.19871 0.61351
 C137 C 0.67720 -0.08144 -0.01588
 C138 C 0.67753 -0.08161 0.01637
 C139 C 0.69416 -0.05809 0.02556
 N140 N 0.70344 -0.04319 0.00014
 C141 C 0.69367 -0.05784 -0.02521
 C142 C 0.70284 -0.05164 0.05665
 C143 C 0.70996 -0.02247 0.06437
 C144 C 0.72726 -0.01334 0.08899
 C145 C 0.72688 0.01666 0.08887
 C146 C 0.70975 0.02493 0.06392
 N147 N 0.69989 0.00103 0.04889
 C148 C 0.70206 0.05370 0.05611
 C149 C 0.69314 0.06048 0.02538
 C150 C 0.67848 0.08527 0.01649
 C151 C 0.67820 0.08542 -0.01579
 C152 C 0.69317 0.06095 -0.02539
 N153 N 0.70169 0.04542 -0.00017
 C154 C 0.70176 0.05440 -0.05648
 C155 C 0.70897 0.02528 -0.06417
 C156 C 0.72732 0.01663 -0.08797
 C157 C 0.72751 -0.01333 -0.08789
 C158 C 0.70926 -0.02218 -0.06404
 N159 N 0.69860 0.00147 -0.04926
 C160 C 0.70212 -0.05134 -0.05633
 H161 H 0.66652 -0.09714 -0.03080
 H162 H 0.66709 -0.09743 0.03135
 H163 H 0.68319 0.00132 -0.03154
 H164 H 0.73912 -0.02677 0.10523
 H165 H 0.73813 0.03072 0.10511
 H166 H 0.66952 0.10179 0.03168
 H167 H 0.66879 0.10204 -0.03050
 H168 H 0.74008 -0.02697 -0.10327
 H169 H 0.68487 0.00079 0.03078
 H170 H 0.73975 0.03042 -0.10342
 C171 C 0.17970 0.41132 0.48370
 C172 C 0.17966 0.41132 0.51597
 C173 C 0.19137 0.43771 0.52524
 N174 N 0.19828 0.45388 0.49985
 C175 C 0.19144 0.43769 0.47445
 C176 C 0.19917 0.44520 0.55624
 C177 C 0.20548 0.47431 0.56456
 C178 C 0.22044 0.48308 0.59104
 C179 C 0.22045 0.51306 0.59104
 C180 C 0.20550 0.52174 0.56455
 N181 N 0.19653 0.49800 0.54852
 C182 C 0.19922 0.55082 0.55623
 C183 C 0.19151 0.55828 0.52520
 C184 C 0.17989 0.58462 0.51590
 C185 C 0.17997 0.58462 0.48363
 C186 C 0.19162 0.55827 0.47441
 N187 N 0.19839 0.54212 0.49983
 C188 C 0.19945 0.55079 0.44343
 C189 C 0.20575 0.52170 0.43516
 C190 C 0.22079 0.51301 0.40874
 C191 C 0.22076 0.48302 0.40875
 C192 C 0.20569 0.47428 0.43518
 N193 N 0.19671 0.49798 0.45117
 C194 C 0.19931 0.44517 0.44347
 H195 H 0.17268 0.39362 0.46876
 H196 H 0.17261 0.39363 0.53089
 H197 H 0.18281 0.49796 0.47029
 H198 H 0.23046 0.46936 0.60849
 H199 H 0.23048 0.52684 0.60848
 H200 H 0.17287 0.60229 0.53081
 H201 H 0.17301 0.60228 0.46868
 H202 H 0.23082 0.46929 0.39135
 H203 H 0.18271 0.49796 0.52933
 H204 H 0.23089 0.52677 0.39133
 C205 C 0.27909 1.08416 -0.01624
 C206 C 0.27967 1.08441 0.01590
 C207 C 0.29473 1.05991 0.02513
 N208 N 0.30305 1.04447 -0.00035
 C209 C 0.29380 1.05952 -0.02569
 C210 C 0.30073 1.05206 0.05665
 C211 C 0.30745 1.02289 0.06450
 C212 C 0.32058 1.01386 0.09206
 C213 C 0.31991 0.98390 0.09206
 C214 C 0.30681 0.97553 0.06431
 N215 N 0.29967 0.99935 0.04744
 C216 C 0.29890 0.94678 0.05657
 C217 C 0.29231 0.93854 0.02551
 C218 C 0.27831 0.91317 0.01697
 C219 C 0.27758 0.91285 -0.01521
 C220 C 0.29157 0.93786 -0.02525
 N221 N 0.30032 0.95369 -0.00026
 C222 C 0.29688 0.94563 -0.05693
 C223 C 0.30407 0.97470 -0.06500
 C224 C 0.31806 0.98312 -0.09227
 C225 C 0.31877 1.01304 -0.09230
 C226 C 0.30519 1.02209 -0.06506
 N227 N 0.29684 0.99859 -0.04820
 C228 C 0.29895 1.05138 -0.05727
 H229 H 0.26845 1.09999 -0.03093
 H230 H 0.26950 1.10044 0.03075
 H231 H 0.28394 0.99896 -0.02825
 H232 H 0.32912 1.02745 0.11061
 H233 H 0.32763 0.96988 0.11062
 H234 H 0.26925 0.89677 0.03231
 H235 H 0.26759 0.89622 -0.02951
 H236 H 0.32797 1.02661 -0.11048
 H237 H 0.28679 0.99956 0.02750
 H238 H 0.32668 0.96914 -0.11038
 C239 C 0.78660 0.41401 0.51650
 C240 C 0.78659 0.41400 0.48427
 C241 C 0.79805 0.44049 0.47496
 N242 N 0.80517 0.45660 0.50036
 C243 C 0.79807 0.44051 0.52578
 C244 C 0.80277 0.44911 0.44352
 C245 C 0.80927 0.47816 0.43516
 C246 C 0.81978 0.48692 0.40620
 C247 C 0.81973 0.51690 0.40619
 C248 C 0.80920 0.52556 0.43515
 N249 N 0.80310 0.50183 0.45273
 C250 C 0.80258 0.55455 0.44350
 C251 C 0.79780 0.56313 0.47492
 C252 C 0.78621 0.58949 0.48421
 C253 C 0.78620 0.58950 0.51644
 C254 C 0.79779 0.56315 0.52575
 N255 N 0.80498 0.54712 0.50034
 C256 C 0.80256 0.55459 0.55718
 C257 C 0.80918 0.52561 0.56555
 C258 C 0.81972 0.51696 0.59451
 C259 C 0.81980 0.48698 0.59452
 C260 C 0.80930 0.47820 0.56556
 N261 N 0.80311 0.50187 0.54798
 C262 C 0.80283 0.44914 0.55721
 H263 H 0.77878 0.39661 0.53134
 H264 H 0.77875 0.39659 0.46946
 H265 H 0.79156 0.50179 0.52713
 H266 H 0.82611 0.47314 0.38680
 H267 H 0.82601 0.53073 0.38679
 H268 H 0.77829 0.60681 0.46938
 H269 H 0.77828 0.60683 0.53125
 H270 H 0.82613 0.47322 0.61392
 H271 H 0.79154 0.50178 0.47357
 H272 H 0.82598 0.53081 0.61391
 O273 O 0.24807 0.20290 0.23703
 O274 O 0.22693 0.26164 0.29073
 O275 O 0.20615 0.23989 0.23829
 O276 O 0.26836 0.22497 0.28864
 O277 O 0.29352 0.25709 0.26176
 O278 O 0.23197 0.27062 0.21033
 O279 O 0.25116 0.29343 0.26218
 O280 O 0.27410 0.23401 0.20979
 Cu281 Cu 0.23468 0.22924 0.26635
 Cu282 Cu 0.26525 0.26691 0.23322
 C283 C 0.26478 0.20832 0.21428
 C284 C 0.23570 0.28741 0.28580
 C285 C 0.20854 0.25751 0.21539
 C286 C 0.29147 0.23886 0.28412
 O287 O 0.76714 0.72781 0.21073
 O288 O 0.70476 0.74268 0.26080
 O289 O 0.72577 0.76456 0.20859
 O290 O 0.74640 0.70563 0.26220
 O291 O 0.77275 0.73645 0.28946
 O292 O 0.74985 0.79621 0.23741
 O293 O 0.73056 0.77314 0.28913
 O294 O 0.79227 0.75985 0.23775
 Cu295 Cu 0.73336 0.73208 0.23285
 Cu296 Cu 0.76391 0.76952 0.26626
 C297 C 0.79026 0.74168 0.21534
 C298 C 0.70712 0.76011 0.28386
 C299 C 0.73448 0.79033 0.21366
 C300 C 0.76317 0.71086 0.28495
 O301 O 0.79360 0.24384 0.23756
 O302 O 0.73193 0.22986 0.28885
 O303 O 0.75138 0.20700 0.23719
 O304 O 0.77395 0.26700 0.28926
 O305 O 0.74748 0.29753 0.26199
 O306 O 0.72726 0.23840 0.20825
 O307 O 0.70601 0.26000 0.26046
 O308 O 0.76840 0.27565 0.21053
 Cu309 Cu 0.76528 0.23385 0.26604
 Cu310 Cu 0.73461 0.27096 0.23258
 C311 C 0.79155 0.26200 0.21515
 C312 C 0.70843 0.24261 0.28353
 C313 C 0.73606 0.21273 0.21340
 C314 C 0.76424 0.29248 0.28476
 O315 O 0.27256 0.76409 0.21050
 O316 O 0.25027 0.70365 0.26211
 O317 O 0.23092 0.72667 0.21036
 O318 O 0.29214 0.74085 0.26216
 O319 O 0.26658 0.77240 0.28913
 O320 O 0.20445 0.75614 0.23893
 O321 O 0.22579 0.73470 0.29113
 O322 O 0.24560 0.79423 0.23769
 Cu323 Cu 0.26407 0.73076 0.23346
 Cu324 Cu 0.23287 0.76740 0.26694
 C325 C 0.26258 0.78945 0.21504
 C326 C 0.23486 0.70916 0.28589
 C327 C 0.20722 0.73902 0.21566
 C328 C 0.28987 0.75896 0.28457
 O329 O 0.77388 0.26657 0.71074
 O330 O 0.75135 0.20642 0.76269
 O331 O 0.73194 0.22929 0.71095
 O332 O 0.79358 0.24337 0.76236
 O333 O 0.76808 0.27475 0.78963
 O334 O 0.70597 0.25947 0.73923
 O335 O 0.72686 0.23767 0.79141
 O336 O 0.74744 0.29701 0.73816
 Cu337 Cu 0.76526 0.23334 0.73385
 Cu338 Cu 0.73441 0.27029 0.76732
 C339 C 0.76421 0.29204 0.71538
 C340 C 0.73581 0.21205 0.78636
 C341 C 0.70844 0.24207 0.71617
 C342 C 0.79133 0.26130 0.78495
 O343 O 0.29188 0.74054 0.73774
 O344 O 0.23052 0.72631 0.78934
 O345 O 0.24983 0.70351 0.73750
 O346 O 0.27226 0.76349 0.78959
 O347 O 0.24578 0.79404 0.76237
 O348 O 0.22543 0.73482 0.70872
 O349 O 0.20429 0.75625 0.76107
 O350 O 0.26645 0.77225 0.71083
 Cu351 Cu 0.26371 0.73038 0.76633
 Cu352 Cu 0.23276 0.76740 0.73305
 C353 C 0.28969 0.75873 0.71538
 C354 C 0.20693 0.73892 0.78418
 C355 C 0.23439 0.70921 0.71380
 C356 C 0.26258 0.78898 0.78511
 O357 O 0.25063 0.29283 0.73718
 O358 O 0.27354 0.23308 0.78911
 O359 O 0.29291 0.25638 0.73729
 O360 O 0.23157 0.26970 0.78900
 O361 O 0.20543 0.23948 0.76076
 O362 O 0.26767 0.22436 0.71037
 O363 O 0.24719 0.20222 0.76192
 O364 O 0.22639 0.26125 0.70840
 Cu365 Cu 0.26473 0.26611 0.76594
 Cu366 Cu 0.23396 0.22874 0.73266
 C367 C 0.23520 0.28697 0.71350
 C368 C 0.26401 0.20747 0.78462
 C369 C 0.29082 0.23820 0.71491
 C370 C 0.20803 0.25681 0.78389
 O371 O 0.79210 0.76016 0.76264
 O372 O 0.73043 0.77336 0.71120
 O373 O 0.74969 0.79652 0.76289
 O374 O 0.77264 0.73669 0.71095
 O375 O 0.74628 0.70590 0.73824
 O376 O 0.72558 0.76491 0.79173
 O377 O 0.70462 0.74292 0.73955
 O378 O 0.76696 0.72815 0.78970
 Cu379 Cu 0.76377 0.76979 0.73409
 Cu380 Cu 0.73320 0.73238 0.76754
 C381 C 0.79008 0.74201 0.78508
 C382 C 0.70698 0.76033 0.71647
 C383 C 0.73430 0.79068 0.78663
 C384 C 0.76305 0.71111 0.71549
 C385 C 0.29072 0.11690 0.12636
 C386 C 0.30559 0.12360 0.09868
 C387 C 0.30967 0.10181 0.07609
 C388 C 0.29872 0.07340 0.08072
 C389 C 0.28449 0.06703 0.10920
 C390 C 0.28031 0.08869 0.13193
 C391 C 0.28526 0.14006 0.14957
 C392 C 0.26966 0.13353 0.17683
 C393 C 0.26359 0.15584 0.19825
 C394 C 0.27289 0.18458 0.19252
 C395 C 0.28900 0.19061 0.16532
 C396 C 0.29513 0.16845 0.14369
 C397 C 0.26522 0.08287 0.15976
 C398 C 0.25999 0.10491 0.18184
 C399 C 0.31560 0.15213 0.09387
 C400 C 0.31045 0.17418 0.11599
 H401 H 0.25708 0.06117 0.16434
 H402 H 0.24798 0.09958 0.20282
 H403 H 0.32718 0.15756 0.07263
 H404 H 0.31824 0.19597 0.11119
 H405 H 0.32133 0.10696 0.05478
 H406 H 0.27530 0.04562 0.11300
 H407 H 0.25124 0.15088 0.21912
 H408 H 0.29625 0.21262 0.16063
 C409 C 0.78951 0.61954 0.62793
 C410 C 0.77376 0.59348 0.62900
 C411 C 0.77866 0.57208 0.60619
 C412 C 0.79918 0.57657 0.58256
 C413 C 0.81533 0.60247 0.58227
 C414 C 0.81037 0.62420 0.60477
 C415 C 0.78355 0.64264 0.65106
 C416 C 0.79863 0.66907 0.64942
 C417 C 0.79218 0.69134 0.67083
 C418 C 0.77090 0.68722 0.69382
 C419 C 0.75639 0.66033 0.69541
 C420 C 0.76248 0.63806 0.67397
 C421 C 0.82538 0.65072 0.60422
 C422 C 0.81957 0.67281 0.62611
 C423 C 0.75305 0.58960 0.65248
 C424 C 0.74756 0.61149 0.67464
 H425 H 0.84153 0.65459 0.58647
 H426 H 0.83141 0.69306 0.62464
 H427 H 0.74083 0.56957 0.65358
 H428 H 0.73126 0.60771 0.69223
 H429 H 0.76613 0.55220 0.60632
 H430 H 0.83118 0.60588 0.56408
 H431 H 0.80354 0.71190 0.66945
 H432 H 0.73990 0.65692 0.71289
 C433 C 0.71321 0.88067 0.12356
 C434 C 0.70445 0.90827 0.13373
 C435 C 0.70014 0.93038 0.11147
 C436 C 0.70572 0.92556 0.07919
 C437 C 0.71481 0.89750 0.06978
 C438 C 0.71809 0.87500 0.09166
 C439 C 0.71777 0.85733 0.14681
 C440 C 0.72599 0.82956 0.13646
 C441 C 0.73039 0.80748 0.15860
 C442 C 0.72770 0.81334 0.19088
 C443 C 0.71974 0.84132 0.20101
 C444 C 0.71426 0.86335 0.17894
 C445 C 0.72651 0.84700 0.08223
 C446 C 0.73013 0.82457 0.10423
 C447 C 0.70041 0.91327 0.16601
 C448 C 0.70551 0.89128 0.18826
 H449 H 0.73027 0.84234 0.05763
 H450 H 0.73659 0.80327 0.09599
 H451 H 0.69366 0.93450 0.17420
 H452 H 0.70255 0.89618 0.21294
 H453 H 0.69211 0.95123 0.11937
 H454 H 0.72034 0.89325 0.04550
 H455 H 0.73690 0.78600 0.15086
 H456 H 0.71762 0.84577 0.22591
 C457 C 0.21302 0.37709 0.62366
 C458 C 0.19689 0.40150 0.63237
 C459 C 0.19178 0.42343 0.61010
 C460 C 0.20357 0.42148 0.57971
 C461 C 0.22018 0.39707 0.57169
 C462 C 0.22450 0.37457 0.59333
 C463 C 0.21823 0.35382 0.64679
 C464 C 0.23370 0.32906 0.63771
 C465 C 0.23842 0.30690 0.65968
 C466 C 0.22867 0.30990 0.69070
 C467 C 0.21358 0.33494 0.69972
 C468 C 0.20784 0.35685 0.67759
 C469 C 0.24013 0.34963 0.58524
 C470 C 0.24444 0.32712 0.60699
 C471 C 0.18640 0.40354 0.66324
 C472 C 0.19200 0.38172 0.68554
 H473 H 0.24900 0.34742 0.56185
 H474 H 0.25650 0.30818 0.59978
 H475 H 0.17401 0.42230 0.67030
 H476 H 0.18377 0.38429 0.70915
 H477 H 0.17898 0.44215 0.61641
 H478 H 0.22970 0.39563 0.54853
 H479 H 0.25033 0.28766 0.65298
 H480 H 0.20608 0.33709 0.72370
 C481 C 0.88388 0.27509 0.12707
 C482 C 0.90784 0.25695 0.12962
 C483 C 0.92927 0.25864 0.10672
 C484 C 0.92679 0.27827 0.08150
 C485 C 0.90290 0.29666 0.07956
 C486 C 0.88127 0.29504 0.10223
 C487 C 0.86081 0.27270 0.15049
 C488 C 0.83655 0.29032 0.14752
 C489 C 0.81424 0.28726 0.16922
 C490 C 0.81603 0.26668 0.19372
 C491 C 0.84081 0.24957 0.19665
 C492 C 0.86320 0.25241 0.17501
 C493 C 0.85687 0.31263 0.10032
 C494 C 0.83487 0.31029 0.12257
 C495 C 0.90963 0.23717 0.15471
 C496 C 0.88770 0.23496 0.17704
 H497 H 0.85462 0.32812 0.08130
 H498 H 0.81628 0.32404 0.12005
 H499 H 0.92803 0.22311 0.15696
 H500 H 0.88980 0.21924 0.19587
 H501 H 0.94763 0.24440 0.10810
 H502 H 0.90107 0.31180 0.06013
 H503 H 0.79531 0.30055 0.16671
 H504 H 0.84243 0.23361 0.21532
 C505 C 0.38197 0.77314 0.62747
 C506 C 0.40545 0.75426 0.62895
 C507 C 0.42687 0.75641 0.60608
 C508 C 0.42487 0.77725 0.58196
 C509 C 0.40151 0.79640 0.58114
 C510 C 0.37985 0.79430 0.60375
 C511 C 0.35890 0.77031 0.65082
 C512 C 0.33507 0.78866 0.64886
 C513 C 0.31274 0.78522 0.67048
 C514 C 0.31412 0.76360 0.69394
 C515 C 0.33847 0.74575 0.69588
 C516 C 0.36084 0.74891 0.67427
 C517 C 0.35590 0.81258 0.60286
 C518 C 0.33387 0.80978 0.62500
 C519 C 0.40679 0.73334 0.65297
 C520 C 0.38488 0.73073 0.67528
 H521 H 0.35403 0.82900 0.58470
 H522 H 0.31562 0.82411 0.62328
 H523 H 0.42482 0.71870 0.65439
 H524 H 0.38663 0.71415 0.69327
 H525 H 0.44485 0.74164 0.60662
 H526 H 0.40007 0.81251 0.56260
 H527 H 0.29415 0.79910 0.66876
 H528 H 0.33975 0.72898 0.71374
 C529 C 0.11554 0.72517 0.12682
 C530 C 0.08937 0.73899 0.13232
 C531 C 0.06787 0.73729 0.10947
 C532 C 0.07244 0.72218 0.08097
 C533 C 0.09885 0.70806 0.07627
 C534 C 0.12040 0.70953 0.09902
 C535 C 0.13853 0.72762 0.15034
 C536 C 0.16483 0.71410 0.14461
 C537 C 0.18691 0.71723 0.16654
 C538 C 0.18299 0.73403 0.19393
 C539 C 0.15629 0.74707 0.19953
 C540 C 0.13398 0.74394 0.17778
 C541 C 0.14686 0.69595 0.09434
 C542 C 0.16870 0.69817 0.11676
 C543 C 0.08544 0.75475 0.16028
 C544 C 0.10738 0.75721 0.18261
 H545 H 0.15083 0.68372 0.07302
 H546 H 0.18889 0.68761 0.11209
 H547 H 0.06534 0.76553 0.16481
 H548 H 0.10355 0.76982 0.20369
 H549 H 0.04801 0.74879 0.11331
 H550 H 0.10252 0.69572 0.05494
 H551 H 0.20734 0.70713 0.16190
 H552 H 0.15300 0.76002 0.22050
 C553 C 0.61661 0.22780 0.62767
 C554 C 0.59302 0.24654 0.62914
 C555 C 0.57174 0.24442 0.60610
 C556 C 0.57398 0.22375 0.58184
 C557 C 0.59747 0.20476 0.58102
 C558 C 0.61898 0.20683 0.60379
 C559 C 0.63952 0.23057 0.65123
 C560 C 0.66344 0.21235 0.64927
 C561 C 0.68564 0.21577 0.67105
 C562 C 0.68404 0.23721 0.69468
 C563 C 0.65958 0.25488 0.69667
 C564 C 0.63733 0.25178 0.67486
 C565 C 0.64302 0.18867 0.60292
 C566 C 0.66490 0.19142 0.62525
 C567 C 0.59143 0.26727 0.65334
 C568 C 0.61319 0.26981 0.67585
 H569 H 0.64508 0.17240 0.58464
 H570 H 0.68322 0.17719 0.62353
 H571 H 0.57332 0.28180 0.65477
 H572 H 0.61124 0.28625 0.69398
 H573 H 0.55365 0.25906 0.60666
 H574 H 0.59909 0.18876 0.56237
 H575 H 0.70430 0.20199 0.66932
 H576 H 0.65814 0.27152 0.71465
 C577 C 0.71384 0.12177 0.87650
 C578 C 0.71896 0.12738 0.90837
 C579 C 0.71522 0.10498 0.93029
 C580 C 0.70529 0.07713 0.92099
 C581 C 0.69971 0.07230 0.88869
 C582 C 0.70447 0.09430 0.86638
 C583 C 0.71878 0.14503 0.85322
 C584 C 0.71498 0.13908 0.82111
 C585 C 0.72069 0.16106 0.79901
 C586 C 0.72911 0.18896 0.80912
 C587 C 0.73218 0.19474 0.84137
 C588 C 0.72756 0.17269 0.86352
 C589 C 0.70025 0.08933 0.83412
 C590 C 0.70568 0.11125 0.81184
 C591 C 0.72804 0.15525 0.91774
 C592 C 0.73199 0.17761 0.89571
 H593 H 0.69305 0.06820 0.82597
 H594 H 0.70252 0.10639 0.78718
 H595 H 0.73200 0.15985 0.94232
 H596 H 0.73890 0.19883 0.90392
 H597 H 0.72104 0.10912 0.95452
 H598 H 0.69137 0.05149 0.88086
 H599 H 0.71829 0.15669 0.77412
 H600 H 0.73905 0.21615 0.84908
 C601 C 0.21329 0.61881 0.37582
 C602 C 0.22486 0.62144 0.40611
 C603 C 0.22053 0.59897 0.42782
 C604 C 0.20385 0.57447 0.41991
 C605 C 0.19199 0.57241 0.38955
 C606 C 0.19707 0.59432 0.36722
 C607 C 0.21844 0.64208 0.35263
 C608 C 0.20790 0.63898 0.32189
 C609 C 0.21351 0.66093 0.29972
 C610 C 0.22865 0.68606 0.30866
 C611 C 0.23861 0.68910 0.33960
 C612 C 0.23399 0.66692 0.36160
 C613 C 0.18646 0.59219 0.33641
 C614 C 0.19199 0.61402 0.31406
 C615 C 0.24057 0.64646 0.41408
 C616 C 0.24485 0.66895 0.39227
 H617 H 0.17400 0.57337 0.32944
 H618 H 0.18364 0.61140 0.29050
 H619 H 0.24951 0.64874 0.43742
 H620 H 0.25697 0.68796 0.39939
 H621 H 0.23010 0.60051 0.45095
 H622 H 0.17914 0.55361 0.38333
 H623 H 0.20584 0.65877 0.27581
 H624 H 0.25053 0.70843 0.34623
 C625 C 0.28725 0.88065 0.87337
 C626 C 0.27660 0.90871 0.86785
 C627 C 0.28059 0.93040 0.89062
 C628 C 0.29480 0.92417 0.91913
 C629 C 0.30603 0.89594 0.92369
 C630 C 0.30217 0.87414 0.90104
 C631 C 0.28210 0.85746 0.85006
 C632 C 0.29230 0.82926 0.85586
 C633 C 0.28650 0.80705 0.83413
 C634 C 0.27037 0.81285 0.80691
 C635 C 0.26073 0.84143 0.80125
 C636 C 0.26650 0.86380 0.82277
 C637 C 0.31250 0.84578 0.90577
 C638 C 0.30765 0.82372 0.88356
 C639 C 0.26151 0.91434 0.83999
 C640 C 0.25654 0.89226 0.81784
 H641 H 0.32413 0.84051 0.92700
 H642 H 0.31569 0.80206 0.88829
 H643 H 0.25319 0.93591 0.83544
 H644 H 0.24453 0.89744 0.79683
 H645 H 0.27139 0.95174 0.88680
 H646 H 0.31786 0.89097 0.94489
 H647 H 0.29400 0.78517 0.83877
 H648 H 0.24837 0.84621 0.78037
 C649 C 0.79005 0.38412 0.37265
 C650 C 0.77418 0.40999 0.37163
 C651 C 0.77894 0.43140 0.39450
 C652 C 0.79947 0.42710 0.41814
 C653 C 0.81574 0.40139 0.41839
 C654 C 0.81091 0.37965 0.39583
 C655 C 0.78426 0.36101 0.34944
 C656 C 0.79948 0.33476 0.35103
 C657 C 0.79319 0.31248 0.32953
 C658 C 0.77192 0.31640 0.30651
 C659 C 0.75726 0.34312 0.30498
 C660 C 0.76320 0.36540 0.32651
 C661 C 0.82606 0.35331 0.39633
 C662 C 0.82040 0.33122 0.37435
 C663 C 0.75348 0.41369 0.34813
 C664 C 0.74814 0.39179 0.32589
 H665 H 0.84220 0.34959 0.41409
 H666 H 0.83235 0.31110 0.37578
 H667 H 0.74115 0.43358 0.34707
 H668 H 0.73185 0.39543 0.30828
 H669 H 0.76632 0.45114 0.39440
 H670 H 0.83159 0.39813 0.43658
 H671 H 0.80465 0.29206 0.33087
 H672 H 0.74078 0.34637 0.28748
 C673 C 0.11651 0.26998 0.87297
 C674 C 0.12147 0.28560 0.90077
 C675 C 0.09994 0.28705 0.92352
 C676 C 0.07347 0.27291 0.91885
 C677 C 0.06874 0.25789 0.89031
 C678 C 0.09025 0.25617 0.86746
 C679 C 0.13947 0.26761 0.84941
 C680 C 0.13483 0.25134 0.82193
 C681 C 0.15710 0.24834 0.80012
 C682 C 0.18384 0.26150 0.80569
 C683 C 0.18783 0.27824 0.83312
 C684 C 0.16581 0.28122 0.85511
 C685 C 0.08623 0.24045 0.83946
 C686 C 0.10815 0.23804 0.81711
 C687 C 0.14799 0.29925 0.90544
 C688 C 0.16978 0.29711 0.88298
 H689 H 0.06605 0.22968 0.83492
 H690 H 0.10424 0.22548 0.79600
 H691 H 0.15202 0.31146 0.92676
 H692 H 0.19001 0.30773 0.88763
 H693 H 0.10368 0.29950 0.94478
 H694 H 0.04872 0.24656 0.88643
 H695 H 0.15375 0.23544 0.77911
 H696 H 0.20828 0.28844 0.83776
 C697 C 0.61521 0.77345 0.37234
 C698 C 0.61748 0.79450 0.39617
 C699 C 0.59595 0.79636 0.41894
 C700 C 0.57256 0.77710 0.41817
 C701 C 0.57043 0.75634 0.39396
 C702 C 0.59173 0.75443 0.37093
 C703 C 0.63813 0.77091 0.34878
 C704 C 0.63605 0.74963 0.32519
 C705 C 0.65831 0.74675 0.30338
 C706 C 0.68267 0.76472 0.30532
 C707 C 0.68416 0.78624 0.32890
 C708 C 0.66195 0.78942 0.35068
 C709 C 0.59024 0.73363 0.34677
 C710 C 0.61201 0.73130 0.32426
 C711 C 0.64142 0.81295 0.39699
 C712 C 0.66330 0.81042 0.37466
 H713 H 0.57221 0.71888 0.34539
 H714 H 0.61014 0.71480 0.30618
 H715 H 0.64340 0.82928 0.41523
 H716 H 0.68155 0.82487 0.37633
 H717 H 0.59749 0.81242 0.43754
 H718 H 0.55241 0.74150 0.39343
 H719 H 0.65697 0.73005 0.28544
 H720 H 0.70274 0.80024 0.33059
 C721 C 0.88241 0.72963 0.87320
 C722 C 0.87979 0.70966 0.89804
 C723 C 0.90146 0.70813 0.92065
 C724 C 0.92539 0.72661 0.91868
 C725 C 0.92790 0.74622 0.89342
 C726 C 0.90642 0.74785 0.87059
 C727 C 0.85932 0.73189 0.84980
 C728 C 0.86173 0.75216 0.82525
 C729 C 0.83933 0.75483 0.80360
 C730 C 0.81454 0.73759 0.80657
 C731 C 0.81273 0.71704 0.83111
 C732 C 0.83504 0.71414 0.85281
 C733 C 0.90822 0.76760 0.84546
 C734 C 0.88626 0.76971 0.82316
 C735 C 0.85536 0.69197 0.90000
 C736 C 0.83335 0.69419 0.87778
 H737 H 0.92665 0.78173 0.84316
 H738 H 0.88839 0.78541 0.80430
 H739 H 0.85311 0.67646 0.91903
 H740 H 0.81474 0.68034 0.88033
 H741 H 0.89965 0.69291 0.94004
 H742 H 0.94636 0.76044 0.89196
 H743 H 0.84097 0.77075 0.78489
 H744 H 0.79380 0.70364 0.83365
 C745 C 0.38363 0.22581 0.37229
 C746 C 0.38164 0.20456 0.39595
 C747 C 0.40326 0.20275 0.41861
 C748 C 0.42645 0.22227 0.41790
 C749 C 0.42831 0.24321 0.39386
 C750 C 0.40693 0.24507 0.37094
 C751 C 0.36060 0.22831 0.34887
 C752 C 0.36240 0.24979 0.32548
 C753 C 0.34007 0.25261 0.30379
 C754 C 0.31590 0.23436 0.30561
 C755 C 0.31466 0.21266 0.32901
 C756 C 0.33695 0.20955 0.35070
 C757 C 0.40813 0.26608 0.34698
 C758 C 0.38626 0.26837 0.32460
 C759 C 0.35787 0.18588 0.39671
 C760 C 0.33588 0.18836 0.37450
 H761 H 0.42602 0.28101 0.34565
 H762 H 0.38791 0.28502 0.30666
 H763 H 0.35611 0.16940 0.41482
 H764 H 0.31777 0.17372 0.37612
 H765 H 0.40193 0.18657 0.43710
 H766 H 0.44617 0.25826 0.39340
 H767 H 0.34123 0.26945 0.28599
 H768 H 0.29621 0.19846 0.33063
 C769 C 0.71290 0.88105 0.87668
 C770 C 0.70445 0.90874 0.86648
 C771 C 0.70005 0.93083 0.88875
 C772 C 0.70519 0.92588 0.92111
 C773 C 0.71409 0.89775 0.93052
 C774 C 0.71742 0.87528 0.90862
 C775 C 0.71751 0.85772 0.85344
 C776 C 0.72540 0.82986 0.86382
 C777 C 0.72983 0.80778 0.84168
 C778 C 0.72749 0.81372 0.80939
 C779 C 0.71988 0.84179 0.79923
 C780 C 0.71436 0.86382 0.82128
 C781 C 0.72555 0.84719 0.91808
 C782 C 0.72920 0.82478 0.89607
 C783 C 0.70079 0.91385 0.83416
 C784 C 0.70594 0.89186 0.81193
 H785 H 0.72904 0.84246 0.94272
 H786 H 0.73540 0.80340 0.90434
 H787 H 0.69430 0.93515 0.82594
 H788 H 0.70328 0.89684 0.78722
 H789 H 0.69230 0.95177 0.88080
 H790 H 0.71944 0.89340 0.95483
 H791 H 0.73609 0.78623 0.84946
 H792 H 0.71803 0.84631 0.77431
 C793 C 0.21320 0.37718 0.37594
 C794 C 0.19710 0.40162 0.36725
 C795 C 0.19196 0.42350 0.38957
 C796 C 0.20369 0.42148 0.41999
 C797 C 0.22025 0.39702 0.42799
 C798 C 0.22461 0.37457 0.40629
 C799 C 0.21846 0.35397 0.35274
 C800 C 0.23392 0.32919 0.36177
 C801 C 0.23871 0.30711 0.33973
 C802 C 0.22905 0.31022 0.30869
 C803 C 0.21397 0.33528 0.29972
 C804 C 0.20816 0.35711 0.32192
 C805 C 0.24022 0.34960 0.41434
 C806 C 0.24458 0.32716 0.39253
 C807 C 0.18669 0.40376 0.33637
 C808 C 0.19235 0.38200 0.31401
 H809 H 0.24902 0.34733 0.43774
 H810 H 0.25663 0.30820 0.39970
 H811 H 0.17432 0.42254 0.32933
 H812 H 0.18418 0.38464 0.29038
 H813 H 0.17920 0.44225 0.38328
 H814 H 0.22974 0.39552 0.45116
 H815 H 0.25062 0.28786 0.34639
 H816 H 0.20655 0.33751 0.27572
 C817 C 0.28937 0.11604 0.87273
 C818 C 0.30437 0.12270 0.90032
 C819 C 0.30829 0.10097 0.92301
 C820 C 0.29703 0.07266 0.91858
 C821 C 0.28273 0.06629 0.89014
 C822 C 0.27868 0.08790 0.86732
 C823 C 0.28408 0.13917 0.84943
 C824 C 0.26833 0.13270 0.82225
 C825 C 0.26240 0.15501 0.80077
 C826 C 0.27200 0.18367 0.80635
 C827 C 0.28828 0.18962 0.83346
 C828 C 0.29426 0.16746 0.85515
 C829 C 0.26346 0.08214 0.83956
 C830 C 0.25837 0.10416 0.81741
 C831 C 0.31470 0.15114 0.90496
 C832 C 0.30972 0.17315 0.88276
 H833 H 0.25511 0.06051 0.83510
 H834 H 0.24626 0.09887 0.79649
 H835 H 0.32640 0.15653 0.92614
 H836 H 0.31775 0.19487 0.88743
 H837 H 0.32010 0.10610 0.94422
 H838 H 0.27340 0.04493 0.88643
 H839 H 0.24992 0.15012 0.77998
 H840 H 0.29577 0.21156 0.83804
 C841 C 0.78955 0.61942 0.37267
 C842 C 0.81040 0.62411 0.39583
 C843 C 0.81535 0.60241 0.41836
 C844 C 0.79920 0.57651 0.41810
 C845 C 0.77868 0.57200 0.39447
 C846 C 0.77380 0.59336 0.37163
 C847 C 0.78362 0.64248 0.34950
 C848 C 0.76256 0.63788 0.32658
 C849 C 0.75648 0.66012 0.30510
 C850 C 0.77100 0.68701 0.30666
 C851 C 0.79226 0.69116 0.32965
 C852 C 0.79870 0.66891 0.35110
 C853 C 0.75311 0.58945 0.34814
 C854 C 0.74763 0.61131 0.32594
 C855 C 0.82542 0.65063 0.39635
 C856 C 0.81962 0.67268 0.37441
 H857 H 0.74088 0.56941 0.34707
 H858 H 0.73135 0.60750 0.30835
 H859 H 0.84155 0.65451 0.41409
 H860 H 0.83147 0.69293 0.37586
 H861 H 0.83119 0.60584 0.43655
 H862 H 0.76616 0.55211 0.39437
 H863 H 0.74000 0.65669 0.28762
 H864 H 0.80362 0.71171 0.33101
 C865 C 0.11532 0.72524 0.87314
 C866 C 0.08919 0.73915 0.86772
 C867 C 0.06771 0.73747 0.89060
 C868 C 0.07229 0.72231 0.91907
 C869 C 0.09866 0.70811 0.92369
 C870 C 0.12017 0.70954 0.90090
 C871 C 0.13828 0.72765 0.84958
 C872 C 0.16454 0.71402 0.85523
 C873 C 0.18660 0.71711 0.83326
 C874 C 0.18270 0.73398 0.80592
 C875 C 0.15604 0.74713 0.80040
 C876 C 0.13375 0.74404 0.82219
 C877 C 0.14660 0.69586 0.90551
 C878 C 0.16840 0.69804 0.88304
 C879 C 0.08527 0.75497 0.83980
 C880 C 0.10718 0.75741 0.81744
 H881 H 0.15056 0.68359 0.92680
 H882 H 0.18856 0.68740 0.88765
 H883 H 0.06519 0.76582 0.83532
 H884 H 0.10337 0.77007 0.79638
 H885 H 0.04788 0.74904 0.88683
 H886 H 0.10233 0.69572 0.94500
 H887 H 0.20700 0.70693 0.83785
 H888 H 0.15277 0.76014 0.77947
 C889 C 0.61666 0.22830 0.37210
 C890 C 0.59315 0.24713 0.37077
 C891 C 0.57189 0.24499 0.39384
 C892 C 0.57409 0.22419 0.41799
 C893 C 0.59752 0.20513 0.41869
 C894 C 0.61901 0.20722 0.39588
 C895 C 0.63954 0.23107 0.34849
 C896 C 0.66339 0.21275 0.35031
 C897 C 0.68555 0.21616 0.32850
 C898 C 0.68400 0.23772 0.30497
 C899 C 0.65960 0.25549 0.30311
 C900 C 0.63738 0.25238 0.32495
 C901 C 0.64298 0.18897 0.39661
 C902 C 0.66482 0.19172 0.37423
 C903 C 0.59159 0.26796 0.34667
 C904 C 0.61331 0.27051 0.32412
 H905 H 0.64501 0.17262 0.41481
 H906 H 0.68309 0.17741 0.37584
 H907 H 0.57352 0.28256 0.34536
 H908 H 0.61139 0.28703 0.30607
 H909 H 0.55384 0.25967 0.39337
 H910 H 0.59911 0.18904 0.43724
 H911 H 0.70417 0.20231 0.33013
 H912 H 0.65821 0.27221 0.28522
 C913 C 0.88351 0.27337 0.87339
 C914 C 0.90940 0.25904 0.86776
 C915 C 0.93101 0.26029 0.89051
 C916 C 0.92679 0.27539 0.91907
 C917 C 0.90073 0.29013 0.92383
 C918 C 0.87906 0.28910 0.90120
 C919 C 0.86039 0.27141 0.84998
 C920 C 0.83437 0.28544 0.85583
 C921 C 0.81214 0.28276 0.83399
 C922 C 0.81567 0.26591 0.80659
 C923 C 0.84211 0.25236 0.80087
 C924 C 0.86454 0.25503 0.82251
 C925 C 0.85288 0.30321 0.90602
 C926 C 0.83091 0.30142 0.88371
 C927 C 0.91293 0.24325 0.83975
 C928 C 0.89087 0.24125 0.81753
 H929 H 0.84923 0.31551 0.92736
 H930 H 0.81095 0.31238 0.88849
 H931 H 0.93281 0.23210 0.83511
 H932 H 0.89438 0.22860 0.79641
 H933 H 0.95068 0.24848 0.88655
 H934 H 0.89740 0.30266 0.94511
 H935 H 0.79191 0.29323 0.83873
 H936 H 0.84510 0.23937 0.77987
 C937 C 0.38204 0.77331 0.37263
 C938 C 0.40555 0.75448 0.37110
 C939 C 0.42695 0.75660 0.39399
 C940 C 0.42490 0.77737 0.41817
 C941 C 0.40150 0.79647 0.41904
 C942 C 0.37986 0.79439 0.39641
 C943 C 0.35898 0.77050 0.34925
 C944 C 0.33512 0.78880 0.35126
 C945 C 0.31281 0.78537 0.32960
 C946 C 0.31426 0.76383 0.30606
 C947 C 0.33865 0.74605 0.30407
 C948 C 0.36099 0.74918 0.32572
 C949 C 0.35587 0.81262 0.39735
 C950 C 0.33385 0.80984 0.37519
 C951 C 0.40695 0.73363 0.34700
 C952 C 0.38507 0.73106 0.32466
 H953 H 0.35395 0.82897 0.41557
 H954 H 0.31558 0.82412 0.37695
 H955 H 0.42501 0.71904 0.34554
 H956 H 0.38687 0.71454 0.30661
 H957 H 0.44496 0.74186 0.39341
 H958 H 0.40002 0.81253 0.43763
 H959 H 0.29419 0.79920 0.33136
 H960 H 0.33999 0.72934 0.28616
 C961 C 0.28779 0.88159 0.12751
 C962 C 0.27334 0.90823 0.13021
 C963 C 0.27771 0.92977 0.10738
 C964 C 0.29633 0.92477 0.08204
 C965 C 0.31122 0.89826 0.08010
 C966 C 0.30684 0.87646 0.10267
 C967 C 0.28229 0.85837 0.15068
 C968 C 0.29607 0.83143 0.14748
 C969 C 0.28999 0.80907 0.16895
 C970 C 0.27025 0.81353 0.19345
 C971 C 0.25703 0.84091 0.19657
 C972 C 0.26286 0.86334 0.17517
 C973 C 0.32062 0.84941 0.10056
 C974 C 0.31530 0.82726 0.12256
 C975 C 0.25435 0.91252 0.15529
 C976 C 0.24923 0.89047 0.17743
 H977 H 0.33538 0.84519 0.08152
 H978 H 0.32613 0.80660 0.11987
 H979 H 0.24313 0.93299 0.15765
 H980 H 0.23422 0.89457 0.19625
 H981 H 0.26612 0.95013 0.10877
 H982 H 0.32562 0.89446 0.06060
 H983 H 0.30033 0.78813 0.16632
 H984 H 0.24177 0.84462 0.21527
 C985 C 0.79018 0.38403 0.62795
 C986 C 0.77428 0.40988 0.62903
 C987 C 0.77904 0.43134 0.60623
 C988 C 0.79959 0.42712 0.58259
 C989 C 0.81590 0.40143 0.58229
 C990 C 0.81107 0.37964 0.60479
 C991 C 0.78436 0.36084 0.65106
 C992 C 0.79960 0.33460 0.64940
 C993 C 0.79326 0.31223 0.67079
 C994 C 0.77195 0.31606 0.69376
 C995 C 0.75728 0.34276 0.69538
 C996 C 0.76325 0.36513 0.67396
 C997 C 0.82625 0.35331 0.60422
 C998 C 0.82056 0.33114 0.62611
 C999 C 0.75354 0.41348 0.65250
 C1000 C 0.74817 0.39151 0.67465
 H1001 H 0.84242 0.34966 0.58648
 H1002 H 0.83252 0.31104 0.62462
 H1003 H 0.74119 0.43336 0.65361
 H1004 H 0.73184 0.39507 0.69223
 H1005 H 0.76639 0.45107 0.60635
 H1006 H 0.83177 0.39823 0.56411
 H1007 H 0.80474 0.29182 0.66939
 H1008 H 0.74076 0.34594 0.71285
 C1009 C 0.71450 0.12228 0.12350
 C1010 C 0.72321 0.12639 0.09226
 C1011 C 0.71937 0.10380 0.07058
 C1012 C 0.70587 0.07761 0.07954
 C1013 C 0.69669 0.07412 0.11087
 C1014 C 0.70147 0.09619 0.13310
 C1015 C 0.71941 0.14564 0.14664
 C1016 C 0.71198 0.14106 0.17826
 C1017 C 0.71760 0.16307 0.20035
 C1018 C 0.72953 0.18970 0.19059
 C1019 C 0.73623 0.19421 0.15879
 C1020 C 0.73172 0.17202 0.13676
 C1021 C 0.69378 0.09262 0.16479
 C1022 C 0.69920 0.11456 0.18704
 C1023 C 0.73573 0.15296 0.08335
 C1024 C 0.73966 0.17551 0.10517
 H1025 H 0.68379 0.07256 0.17254
 H1026 H 0.69324 0.11079 0.21130
 H1027 H 0.74243 0.15641 0.05927
 H1028 H 0.74930 0.19572 0.09732
 H1029 H 0.72698 0.10653 0.04671
 H1030 H 0.68618 0.05411 0.11794
 H1031 H 0.71243 0.15973 0.22491
 H1032 H 0.74576 0.21466 0.15145
 C1033 C 0.21280 0.61895 0.62379
 C1034 C 0.19660 0.59443 0.63238
 C1035 C 0.19161 0.57248 0.61006
 C1036 C 0.20354 0.57453 0.57974
 C1037 C 0.22021 0.59905 0.57184
 C1038 C 0.22443 0.62156 0.59353
 C1039 C 0.21787 0.64225 0.64696
 C1040 C 0.23340 0.66710 0.63800
 C1041 C 0.23799 0.68929 0.66001
 C1042 C 0.22804 0.68622 0.69095
 C1043 C 0.21289 0.66109 0.69986
 C1044 C 0.20730 0.63914 0.67769
 C1045 C 0.24012 0.64660 0.58556
 C1046 C 0.24431 0.66912 0.60735
 C1047 C 0.18595 0.59231 0.66317
 C1048 C 0.19141 0.61416 0.68551
 H1049 H 0.24911 0.64887 0.56224
 H1050 H 0.25642 0.68814 0.60024
 H1051 H 0.17351 0.57347 0.67014
 H1052 H 0.18304 0.61154 0.70907
 H1053 H 0.17877 0.55368 0.61627
 H1054 H 0.22984 0.60057 0.54874
 H1055 H 0.24993 0.70861 0.65340
 H1056 H 0.20523 0.65889 0.72378
 C1057 C 0.88260 0.72929 0.12724
 C1058 C 0.87998 0.70935 0.10238
 C1059 C 0.90164 0.70784 0.07974
 C1060 C 0.92555 0.72635 0.08171
 C1061 C 0.92808 0.74592 0.10699
 C1062 C 0.90661 0.74752 0.12985
 C1063 C 0.85952 0.73154 0.15064
 C1064 C 0.86193 0.75180 0.17521
 C1065 C 0.83953 0.75447 0.19685
 C1066 C 0.81473 0.73724 0.19387
 C1067 C 0.81293 0.71669 0.16933
 C1068 C 0.83524 0.71379 0.14763
 C1069 C 0.90842 0.76726 0.15498
 C1070 C 0.88646 0.76935 0.17729
 C1071 C 0.85556 0.69165 0.10042
 C1072 C 0.83355 0.69385 0.12265
 H1073 H 0.92685 0.78139 0.15728
 H1074 H 0.88858 0.78505 0.19616
 H1075 H 0.85330 0.67616 0.08138
 H1076 H 0.81494 0.68000 0.12010
 H1077 H 0.89981 0.69266 0.06033
 H1078 H 0.94653 0.76016 0.10845
 H1079 H 0.84116 0.77040 0.21556
 H1080 H 0.79400 0.70330 0.16679
 C1081 C 0.38329 0.22521 0.62708
 C1082 C 0.38133 0.20410 0.60328
 C1083 C 0.40304 0.20233 0.58072
 C1084 C 0.42630 0.22176 0.58166
 C1085 C 0.42814 0.24255 0.60586
 C1086 C 0.40666 0.24436 0.62868
 C1087 C 0.36016 0.22768 0.65039
 C1088 C 0.36194 0.24903 0.67392
 C1089 C 0.33953 0.25183 0.69550
 C1090 C 0.31528 0.23370 0.69345
 C1091 C 0.31404 0.21215 0.66990
 C1092 C 0.33643 0.20905 0.64830
 C1093 C 0.40785 0.26523 0.65278
 C1094 C 0.38588 0.26749 0.67505
 C1095 C 0.35748 0.18553 0.60227
 C1096 C 0.33538 0.18800 0.62437
 H1097 H 0.42579 0.28008 0.65430
 H1098 H 0.38752 0.28404 0.69312
 H1099 H 0.35573 0.16916 0.58404
 H1100 H 0.31722 0.17345 0.62254
 H1101 H 0.40173 0.18626 0.56211
 H1102 H 0.44604 0.25754 0.60650
 H1103 H 0.34070 0.26856 0.71343
 H1104 H 0.29554 0.19805 0.66809
 C1105 C 0.11670 0.27169 0.12696
 C1106 C 0.11979 0.29164 0.10216
 C1107 C 0.09825 0.29365 0.07943
 C1108 C 0.07394 0.27570 0.08131
 C1109 C 0.07098 0.25605 0.10649
 C1110 C 0.09235 0.25394 0.12941
 C1111 C 0.13965 0.26894 0.15045
 C1112 C 0.13680 0.24866 0.17496
 C1113 C 0.15908 0.24552 0.19671
 C1114 C 0.18417 0.26231 0.19387
 C1115 C 0.18640 0.28287 0.16938
 C1116 C 0.16425 0.28623 0.14759
 C1117 C 0.09010 0.23415 0.15447
 C1118 C 0.11194 0.23157 0.17687
 C1119 C 0.14454 0.30887 0.10035
 C1120 C 0.16641 0.30620 0.12268
 H1121 H 0.07141 0.22038 0.15665
 H1122 H 0.10946 0.21586 0.19567
 H1123 H 0.14715 0.32436 0.08136
 H1124 H 0.18527 0.31970 0.12026
 H1125 H 0.10045 0.30881 0.06006
 H1126 H 0.05228 0.24217 0.10782
 H1127 H 0.15712 0.22959 0.21537
 H1128 H 0.20555 0.29596 0.16695
 C1129 C 0.61515 0.77349 0.62789
 C1130 C 0.61740 0.79454 0.60406
 C1131 C 0.59590 0.79636 0.58126
 C1132 C 0.57254 0.77707 0.58202
 C1133 C 0.57042 0.75630 0.60623
 C1134 C 0.59170 0.75442 0.62928
 C1135 C 0.63805 0.77099 0.65147
 C1136 C 0.63599 0.74971 0.67506
 C1137 C 0.65822 0.74687 0.69690
 C1138 C 0.68256 0.76489 0.69498
 C1139 C 0.68403 0.78641 0.67140
 C1140 C 0.66184 0.78955 0.64959
 C1141 C 0.59023 0.73362 0.65343
 C1142 C 0.61198 0.73133 0.67597
 C1143 C 0.64131 0.81303 0.60326
 C1144 C 0.66318 0.81054 0.62562
 H1145 H 0.57222 0.71884 0.65480
 H1146 H 0.61012 0.71484 0.69405
 H1147 H 0.64328 0.82937 0.58502
 H1148 H 0.68140 0.82503 0.62396
 H1149 H 0.59742 0.81243 0.56267
 H1150 H 0.55242 0.74143 0.60674
 H1151 H 0.65689 0.73018 0.71484
 H1152 H 0.70259 0.80045 0.66973
   
