data_POSCAR
  _audit_creation_date              2014-09-24
  _audit_creation_method            'ToBaCCo'
  _symmetry_space_group_name_H-M    'P1'
  _symmetry_Int_Tables_number       1
  _symmetry_cell_setting            triclinic
  loop_
  _symmetry_equiv_pos_as_xyz
 x,y,z
_cell_length_a 21.4615
_cell_length_b 21.4939
_cell_length_c 21.5624
_cell_angle_alpha 93.880300
_cell_angle_beta 87.276500
_cell_angle_gamma 91.284400
loop_
  _atom_site_label
  _atom_site_type_symbol
  _atom_site_fract_x
  _atom_site_fract_y
  _atom_site_fract_z
C1 C 0.30170 0.26829 0.22318
 C2 C 0.25103 0.30844 0.22899
 C3 C 0.20357 0.30183 0.27541
 C4 C 0.20863 0.25563 0.31785
 C5 C 0.25969 0.21524 0.31329
 C6 C 0.30609 0.22210 0.26589
 H7 H 0.24943 0.34539 0.19744
 H8 H 0.17328 0.25226 0.35506
 H9 H 0.34615 0.19211 0.26319
 C10 C 0.68792 -0.27924 0.18381
 C11 C 0.73268 -0.32612 0.18381
 C12 C 0.77723 -0.32522 0.22953
 C13 C 0.77725 -0.27550 0.27548
 C14 C 0.73431 -0.22730 0.27555
 C15 C 0.68898 -0.23002 0.23071
 H16 H 0.73269 -0.36403 0.14788
 H17 H 0.81135 -0.27289 0.31075
 H18 H 0.65497 -0.19352 0.23351
 C19 C 0.71209 0.23379 0.79320
 C20 C 0.75721 0.28232 0.79182
 C21 C 0.80146 0.28477 0.74123
 C22 C 0.79928 0.23787 0.69251
 C23 C 0.75581 0.18824 0.69475
 C24 C 0.71230 0.18688 0.74492
 H25 H 0.75678 0.31786 0.82970
 H26 H 0.83175 0.23994 0.65260
 H27 H 0.67814 0.14897 0.74633
 C28 C 0.28853 -0.23155 0.79074
 C29 C 0.28266 -0.18759 0.74620
 C30 C 0.23378 -0.19284 0.70456
 C31 C 0.19027 -0.24256 0.70880
 C32 C 0.19467 -0.28658 0.75418
 C33 C 0.24359 -0.27972 0.79520
 H34 H 0.31578 -0.14896 0.74510
 H35 H 0.15215 -0.24499 0.67767
 H36 H 0.24625 -0.31197 0.83145
 C37 C 0.70350 -0.23547 0.78764
 C38 C 0.74951 -0.28143 0.78674
 C39 C 0.79341 -0.28935 0.73600
 C40 C 0.79066 -0.24989 0.68691
 C41 C 0.74743 -0.20160 0.68915
 C42 C 0.70371 -0.19519 0.73928
 H43 H 0.74968 -0.31140 0.82489
 H44 H 0.82280 -0.25659 0.64684
 H45 H 0.66919 -0.15900 0.74033
 C46 C 0.30001 0.28181 0.81824
 C47 C 0.25060 0.32363 0.82073
 C48 C 0.20554 0.31958 0.77535
 C49 C 0.20972 0.27168 0.72736
 C50 C 0.25945 0.22971 0.72394
 C51 C 0.30478 0.23591 0.76876
 H52 H 0.24730 0.35978 0.85827
 H53 H 0.17494 0.26719 0.69259
 H54 H 0.34395 0.20477 0.76459
 C55 C 0.28165 -0.23243 0.19963
 C56 C 0.27597 -0.18733 0.24998
 C57 C 0.22824 -0.19237 0.29680
 C58 C 0.18473 -0.24198 0.29178
 C59 C 0.18866 -0.28654 0.24118
 C60 C 0.23638 -0.28104 0.19530
 H61 H 0.30892 -0.14845 0.25260
 H62 H 0.14706 -0.24500 0.32678
 H63 H 0.23639 -0.31448 0.15554
 C64 C 0.70753 0.22854 0.20481
 C65 C 0.75134 0.27802 0.21149
 C66 C 0.79419 0.27940 0.25905
 C67 C 0.79252 0.23138 0.29979
 C68 C 0.75023 0.18103 0.29239
 C69 C 0.70770 0.18017 0.24521
 H70 H 0.75198 0.31522 0.18009
 H71 H 0.82438 0.23342 0.33742
 H72 H 0.67448 0.14160 0.23997
 O73 O 0.18286 0.06428 0.45786
 O74 O 0.20520 -0.05274 0.57264
 O75 O 0.18222 0.06727 0.57845
 O76 O 0.20449 -0.05465 0.45095
 O77 O 0.30584 -0.03438 0.44706
 O78 O 0.28350 0.08786 0.57410
 O79 O 0.30637 -0.03165 0.56866
 O80 O 0.28431 0.08415 0.45321
 Cu81 Cu 0.18361 0.00373 0.51560
 Cu82 Cu 0.30513 0.02837 0.51064
 C83 C 0.22982 0.09397 0.43586
 C84 C 0.25977 -0.06213 0.59018
 C85 C 0.22903 0.09896 0.59741
 C86 C 0.25879 -0.06474 0.42674
 O87 O 0.74825 0.04551 0.54579
 O88 O 0.74025 -0.07971 0.42155
 O89 O 0.74536 -0.07530 0.54248
 O90 O 0.74670 0.04130 0.42553
 O91 O 0.84973 0.03996 0.41856
 O92 O 0.84833 -0.07708 0.53470
 O93 O 0.84323 -0.08126 0.41406
 O94 O 0.85125 0.04417 0.53847
 Cu95 Cu 0.73471 -0.01704 0.48453
 Cu96 Cu 0.85854 -0.01899 0.47561
 C97 C 0.80092 0.06637 0.56314
 C98 C 0.79051 -0.10169 0.39651
 C99 C 0.79680 -0.09570 0.55880
 C100 C 0.79855 0.06088 0.40263
 O101 O 0.45567 0.19363 0.06638
 O102 O 0.57499 0.21563 -0.05823
 O103 O 0.57496 0.21467 0.06168
 O104 O 0.45435 0.19936 -0.05422
 O105 O 0.44099 0.30116 -0.04419
 O106 O 0.56222 0.31660 0.07163
 O107 O 0.56250 0.31756 -0.04855
 O108 O 0.44229 0.29542 0.07689
 Cu109 Cu 0.51617 0.19563 0.00273
 Cu110 Cu 0.50031 0.31792 0.01482
 C111 C 0.42911 0.24076 0.09343
 C112 C 0.58970 0.26998 -0.07431
 C113 C 0.58922 0.26817 0.08635
 C114 C 0.42721 0.24769 -0.06913
 O115 O 0.54604 0.69869 0.05187
 O116 O 0.43389 0.68398 -0.07320
 O117 O 0.55668 0.67605 -0.06632
 O118 O 0.42742 0.67840 0.04882
 O119 O 0.42136 0.78098 0.04919
 O120 O 0.55298 0.77841 -0.06937
 O121 O 0.42839 0.78651 -0.07078
 O122 O 0.53906 0.80118 0.05365
 Cu123 Cu 0.49049 0.67504 -0.01073
 Cu124 Cu 0.48621 0.79632 -0.01072
 C125 C 0.56139 0.75302 0.07423
 C126 C 0.41154 0.73297 -0.09286
 C127 C 0.57747 0.72626 -0.08743
 C128 C 0.40242 0.72896 0.06920
 O129 O 0.06027 0.44379 0.19484
 O130 O -0.06751 0.55573 0.21115
 O131 O 0.05341 0.56487 0.21459
 O132 O -0.06057 0.43699 0.18739
 O133 O -0.06932 0.42648 0.28864
 O134 O 0.04679 0.55318 0.31566
 O135 O -0.07331 0.54618 0.31271
 O136 O 0.05205 0.43181 0.29582
 Cu137 Cu -0.00242 0.50147 0.19181
 Cu138 Cu -0.01154 0.48790 0.31336
 C139 C 0.07771 0.41847 0.24246
 C140 C -0.09205 0.56999 0.26488
 C141 C 0.06918 0.58130 0.26946
 C142 C -0.08521 0.41066 0.23360
 O143 O 0.03767 0.56486 0.68768
 O144 O -0.07615 0.43853 0.71611
 O145 O -0.08087 0.55956 0.71501
 O146 O 0.04432 0.44372 0.69431
 O147 O 0.05851 0.45412 0.79521
 O148 O -0.06555 0.57029 0.81579
 O149 O -0.06256 0.45033 0.81713
 O150 O 0.05418 0.57529 0.78819
 Cu151 Cu -0.02019 0.50037 0.69322
 Cu152 Cu -0.00190 0.51352 0.81409
 C153 C 0.06504 0.59198 0.73311
 C154 C -0.08939 0.42329 0.77115
 C155 C -0.09436 0.58470 0.76897
 C156 C 0.07252 0.42889 0.74152
 C157 C 0.35002 0.27763 0.17315
 C158 C 0.38290 0.23090 0.14472
 H159 H 0.35600 0.32408 0.15679
 H160 H 0.37490 0.18364 0.15815
 C161 C 0.64395 0.71583 0.13703
 C162 C 0.60523 0.76111 0.12468
 H163 H 0.64293 0.67306 0.10728
 H164 H 0.60723 0.80671 0.14888
 C165 C 0.66502 0.22886 -0.15498
 C166 C 0.63887 0.27812 -0.12334
 H167 H 0.64841 0.18232 -0.14535
 H168 H 0.65223 0.32505 -0.13460
 C169 C 0.33990 0.77534 -0.16542
 C170 C 0.36447 0.72635 -0.14052
 H171 H 0.35817 0.82188 -0.15386
 H172 H 0.34930 0.67940 -0.15480
 C173 C 0.14991 0.34446 0.28237
 C174 C 0.12889 0.37385 0.23479
 H175 H 0.12648 0.35096 0.32792
 H176 H 0.14937 0.36516 0.18827
 C177 C 0.15152 0.66367 0.76191
 C178 C 0.10896 0.64398 0.72102
 H179 H 0.15441 0.63782 0.80318
 H180 H 0.10710 0.66385 0.67645
 C181 C -0.17806 0.62757 0.22607
 C182 C -0.14171 0.61588 0.27274
 H183 H -0.17356 0.59793 0.18337
 H184 H -0.14906 0.63824 0.31883
 C185 C -0.15289 0.33255 0.73605
 C186 C -0.13688 0.37418 0.78211
 H187 H -0.12708 0.33449 0.69168
 H188 H -0.15636 0.37163 0.82903
 C189 C 0.26781 0.16774 0.35902
 C190 C 0.22014 0.14053 0.39015
 H191 H 0.31496 0.15328 0.36572
 H192 H 0.17252 0.15135 0.38118
 C193 C 0.75345 0.13798 0.64462
 C194 C 0.80435 0.11716 0.61211
 H195 H 0.70864 0.11533 0.63654
 H196 H 0.84998 0.13657 0.62246
 C197 C 0.22462 -0.14588 0.65813
 C198 C 0.27027 -0.10847 0.63612
 H199 H 0.17850 -0.14331 0.64014
 H200 H 0.31744 -0.11235 0.65079
 C201 C 0.73548 -0.17429 0.32314
 C202 C 0.78873 -0.15209 0.34709
 H203 H 0.69175 -0.15222 0.33755
 H204 H 0.83306 -0.17103 0.32984
 C205 C 0.65390 0.77116 -0.16223
 C206 C 0.63023 0.72215 -0.13346
 H207 H 0.63308 0.81645 -0.15237
 H208 H 0.64809 0.67604 -0.14590
 C209 C 0.34695 0.28853 -0.13324
 C210 C 0.37985 0.24057 -0.11649
 H211 H 0.35306 0.33408 -0.10927
 H212 H 0.37165 0.19408 -0.13739
 C213 C 0.33159 0.77264 0.15496
 C214 C 0.35005 0.72503 0.11524
 H215 H 0.35868 0.81585 0.15501
 H216 H 0.32952 0.67895 0.11853
 C217 C 0.66188 0.22456 0.15547
 C218 C 0.63731 0.27455 0.13287
 H219 H 0.64506 0.17841 0.14003
 H220 H 0.65062 0.32109 0.15044
 C221 C -0.16062 0.66444 0.73125
 C222 C -0.14398 0.63111 0.77803
 H223 H -0.13469 0.65718 0.68699
 H224 H -0.16343 0.64000 0.82485
 C225 C -0.15953 0.33061 0.26887
 C226 C -0.13301 0.36159 0.22248
 H227 H -0.14408 0.34047 0.31574
 H228 H -0.14545 0.35007 0.17493
 C229 C 0.15437 0.36537 0.78113
 C230 C 0.12183 0.38174 0.73333
 H231 H 0.14502 0.38865 0.82670
 H232 H 0.13207 0.36143 0.68678
 C233 C 0.14232 0.66189 0.23285
 C234 C 0.11362 0.63377 0.28018
 H235 H 0.13421 0.64424 0.18556
 H236 H 0.12376 0.64838 0.32774
 C237 C 0.74620 -0.15785 0.63925
 C238 C 0.79768 -0.14127 0.60640
 H239 H 0.70233 -0.13604 0.63189
 H240 H 0.84257 -0.15941 0.61619
 C241 C 0.22071 -0.14559 0.35033
 C242 C 0.26807 -0.11142 0.37395
 H243 H 0.17446 -0.14077 0.37239
 H244 H 0.31515 -0.11772 0.35465
 C245 C 0.74853 0.12984 0.33459
 C246 C 0.80027 0.10946 0.35809
 H247 H 0.70390 0.10734 0.34501
 H248 H 0.84548 0.12888 0.34443
 C249 C 0.26723 0.18021 0.67308
 C250 C 0.21934 0.14937 0.64666
 H251 H 0.31444 0.16628 0.65952
 H252 H 0.17186 0.16010 0.66235
   
