data_POSCAR
  _audit_creation_date              2014-09-24
  _audit_creation_method            'ToBaCCo'
  _symmetry_space_group_name_H-M    'P1'
  _symmetry_Int_Tables_number       1
  _symmetry_cell_setting            triclinic
  loop_
  _symmetry_equiv_pos_as_xyz
 x,y,z
_cell_length_a 23.5947
_cell_length_b 23.4924
_cell_length_c 44.0866
_cell_angle_alpha 89.999000
_cell_angle_beta 90.001200
_cell_angle_gamma 120.438600
loop_
  _atom_site_label
  _atom_site_type_symbol
  _atom_site_fract_x
  _atom_site_fract_y
  _atom_site_fract_z
Zn1 Zn 0.95828 0.04241 1.01321
 Zn2 Zn 1.08582 0.04341 1.01342
 Zn3 Zn 0.95802 -0.08534 1.01374
 Zn4 Zn 1.00055 -0.00061 0.95835
 O5 O 1.00067 -0.00005 0.99974
 O6 O 1.00989 0.11290 1.03615
 O7 O 1.10398 -0.00769 1.03679
 O8 O 0.88821 -0.10381 1.03682
 O9 O 1.10442 0.11400 1.03621
 O10 O 0.88832 -0.00938 1.03632
 O11 O 1.00963 -0.10298 1.03695
 O12 O 0.95941 -0.08203 0.94288
 O13 O 1.14525 0.07268 0.98327
 O14 O 0.92784 -0.14555 0.98381
 O15 O 1.08134 0.03949 0.94256
 O16 O 0.96071 0.03986 0.94237
 O17 O 0.92880 0.07182 0.98298
 C18 C 1.06931 0.13801 1.04435
 C19 C 1.06901 -0.06727 1.04518
 C20 C 0.86389 -0.06882 1.04480
 C21 C 0.93113 -0.13847 0.95523
 C22 C 1.13773 0.06806 0.95473
 C23 C 0.93268 0.06805 0.95445
 Zn24 Zn 0.04292 0.95734 0.51305
 Zn25 Zn -0.08455 0.95645 0.51351
 Zn26 Zn 0.04321 1.08512 0.51383
 Zn27 Zn 0.00035 1.00067 0.45834
 O28 O 0.00049 0.99991 0.49974
 O29 O -0.00858 0.88675 0.53599
 O30 O -0.10264 1.00749 0.53694
 O31 O 0.11300 1.10339 0.53686
 O32 O -0.10295 0.88594 0.53628
 O33 O 0.11296 1.00899 0.53615
 O34 O -0.00829 1.10276 0.53712
 O35 O 0.04132 1.08221 0.44295
 O36 O -0.14416 0.92717 0.48347
 O37 O 0.07326 1.14547 0.48397
 O38 O -0.08059 0.96056 0.44265
 O39 O 0.04014 0.96030 0.44219
 O40 O 0.07222 0.92808 0.48267
 C41 C -0.06790 0.86180 0.54432
 C42 C -0.06766 1.06705 0.54535
 C43 C 0.13732 1.06835 0.54475
 C44 C 0.06967 1.13858 0.45539
 C45 C -0.13689 0.93190 0.45492
 C46 C 0.06821 0.93202 0.45415
 O47 O 0.23462 0.55448 0.27532
 O48 O 0.23788 0.66586 0.28456
 C49 C 0.26887 0.72727 0.28979
 O50 O 0.31941 0.76853 0.27506
 O51 O 0.42746 0.76625 0.28457
 C52 C 0.45744 0.73545 0.29002
 O53 O 0.44792 0.68483 0.27536
 O54 O 0.33659 0.57590 0.28482
 C55 C 0.27550 0.54543 0.29016
 O56 O 0.23754 0.57515 0.21503
 O57 O 0.23526 0.68378 0.22430
 C58 C 0.27637 0.73453 0.20958
 O59 O 0.33751 0.76560 0.21483
 O60 O 0.44838 0.76877 0.22433
 C61 C 0.45766 0.72760 0.20972
 O62 O 0.42715 0.66626 0.21511
 O63 O 0.31845 0.55453 0.22456
 C64 C 0.26814 0.54488 0.20979
 Cr65 Cr 0.24001 0.62167 0.24980
 Cr66 Cr 0.38135 0.76359 0.24969
 Cr67 Cr 0.38069 0.62221 0.24995
 O68 O 0.33402 0.66916 0.24980
 O69 O 0.76644 0.44548 0.77536
 O70 O 0.76329 0.33418 0.78476
 C71 C 0.73232 0.27279 0.79001
 O72 O 0.68193 0.23146 0.77522
 O73 O 0.57373 0.23358 0.78456
 C74 C 0.54360 0.26429 0.78984
 O75 O 0.55314 0.31480 0.77509
 O76 O 0.66431 0.42380 0.78466
 C77 C 0.72536 0.45447 0.79007
 O78 O 0.76399 0.42473 0.71509
 O79 O 0.76631 0.31615 0.72453
 C80 C 0.72528 0.26538 0.70979
 O81 O 0.66411 0.23426 0.71497
 O82 O 0.55307 0.23087 0.72428
 C83 C 0.54382 0.27195 0.70958
 O84 O 0.57439 0.33332 0.71488
 O85 O 0.68290 0.44515 0.72444
 C86 C 0.73334 0.45491 0.70976
 Cr87 Cr 0.76133 0.37828 0.74992
 Cr88 Cr 0.62005 0.23623 0.74975
 Cr89 Cr 0.62052 0.37745 0.74976
 O90 O 0.66730 0.33065 0.74980
 C91 C 0.19530 0.39936 0.14552
 C92 C 0.22548 0.40899 0.11674
 C93 C 0.20007 0.35646 0.09535
 C94 C 0.14463 0.29464 0.10288
 C95 C 0.11417 0.28518 0.13160
 C96 C 0.13960 0.33767 0.15298
 C97 C 0.10848 0.32691 0.18159
 C98 C 0.05381 0.26607 0.18885
 C99 C 0.02889 0.21477 0.16794
 C100 C 0.05851 0.22392 0.13961
 C101 C 0.23116 0.36718 0.06676
 C102 C 0.28583 0.42807 0.05951
 C103 C 0.31069 0.47943 0.08042
 C104 C 0.28105 0.47028 0.10875
 C105 C 0.11915 0.24041 0.08135
 C106 C 0.09699 0.19427 0.06408
 C107 C 0.22189 0.45237 0.16768
 C108 C 0.24337 0.49530 0.18661
 H109 H 0.12598 0.36530 0.19863
 H110 H 0.03066 0.25872 0.21084
 H111 H -0.01363 0.16759 0.17368
 H112 H 0.03727 0.18248 0.12413
 H113 H 0.21359 0.32872 0.04975
 H114 H 0.30903 0.43543 0.03754
 H115 H 0.35318 0.52662 0.07468
 H116 H 0.30213 0.51169 0.12426
 C117 C 0.60310 0.80175 0.14572
 C118 C 0.66445 0.85744 0.15351
 C119 C 0.71691 0.88376 0.13222
 C120 C 0.70777 0.85420 0.10327
 C121 C 0.64630 0.79876 0.09541
 C122 C 0.59380 0.77246 0.11671
 C123 C 0.53286 0.71693 0.10838
 C124 C 0.52402 0.68817 0.07982
 C125 C 0.57534 0.71389 0.05900
 C126 C 0.63589 0.76855 0.06658
 C127 C 0.77781 0.93941 0.14057
 C128 C 0.78664 0.96818 0.16912
 C129 C 0.73536 0.94239 0.18994
 C130 C 0.67488 0.88771 0.18236
 C131 C 0.76196 0.88054 0.08183
 C132 C 0.80796 0.90321 0.06459
 C133 C 0.55006 0.77438 0.16775
 C134 C 0.50714 0.75248 0.18659
 H135 H 0.49149 0.69519 0.12381
 H136 H 0.47708 0.64571 0.07382
 H137 H 0.56822 0.69138 0.03685
 H138 H 0.67434 0.78681 0.04963
 H139 H 0.81921 0.96131 0.12517
 H140 H 0.83354 1.01070 0.17511
 H141 H 0.74246 0.96488 0.21211
 H142 H 0.63651 0.86952 0.19934
 C143 C 0.20219 0.80638 0.14618
 C144 C 0.21292 0.80404 0.11473
 C145 C 0.18574 0.82936 0.09357
 C146 C 0.14799 0.85687 0.10400
 C147 C 0.13723 0.85916 0.13547
 C148 C 0.16440 0.83385 0.15662
 C149 C 0.15295 0.83670 0.18797
 C150 C 0.11572 0.86375 0.19812
 C151 C 0.08918 0.88851 0.17745
 C152 C 0.09964 0.88639 0.14647
 C153 C 0.19714 0.82649 0.06224
 C154 C 0.23433 0.79937 0.05210
 C155 C 0.26090 0.77462 0.07279
 C156 C 0.25048 0.77679 0.10377
 C157 C 0.12037 0.88308 0.08249
 C158 C 0.09708 0.90540 0.06514
 C159 C 0.22968 0.78047 0.16790
 C160 C 0.25162 0.75929 0.18656
 H161 H 0.17255 0.81811 0.20496
 H162 H 0.10741 0.86547 0.22217
 H163 H 0.06029 0.90949 0.18545
 H164 H 0.07793 0.90627 0.13129
 H165 H 0.17747 0.84511 0.04529
 H166 H 0.24257 0.79756 0.02805
 H167 H 0.28975 0.75360 0.06479
 H168 H 0.27214 0.75693 0.11900
 C169 C 0.80455 0.60097 0.64579
 C170 C 0.82010 0.66501 0.65507
 C171 C 0.84534 0.71747 0.63368
 C172 C 0.85496 0.70563 0.60313
 C173 C 0.83925 0.64156 0.59384
 C174 C 0.81396 0.58906 0.61524
 C175 C 0.79872 0.52546 0.60545
 C176 C 0.80819 0.51404 0.57537
 C177 C 0.83290 0.56536 0.55444
 C178 C 0.84833 0.62850 0.56344
 C179 C 0.86055 0.78107 0.64352
 C180 C 0.85115 0.79250 0.67361
 C181 C 0.82653 0.74121 0.69453
 C182 C 0.81108 0.67811 0.68550
 C183 C 0.88168 0.75968 0.58148
 C184 C 0.90438 0.80567 0.56412
 C185 C 0.77908 0.54766 0.66779
 C186 C 0.75810 0.50456 0.68662
 H187 H 0.77938 0.48399 0.62091
 H188 H 0.79630 0.46509 0.56826
 H189 H 0.84016 0.55623 0.53110
 H190 H 0.86740 0.66684 0.54635
 H191 H 0.87982 0.82260 0.62811
 H192 H 0.86306 0.84145 0.68073
 H193 H 0.81934 0.75033 0.71789
 H194 H 0.79204 0.63986 0.70263
 C195 C 0.39763 0.19805 0.64594
 C196 C 0.33220 0.15669 0.65603
 C197 C 0.27965 0.13039 0.63479
 C198 C 0.29282 0.14557 0.60357
 C199 C 0.35827 0.18678 0.59347
 C200 C 0.41084 0.21310 0.61472
 C201 C 0.47584 0.25420 0.60411
 C202 C 0.48856 0.26890 0.57336
 C203 C 0.43716 0.24318 0.55257
 C204 C 0.37266 0.20256 0.56239
 C205 C 0.21465 0.08921 0.64545
 C206 C 0.20193 0.07444 0.67619
 C207 C 0.25331 0.10015 0.69696
 C208 C 0.31777 0.14084 0.68713
 C209 C 0.23888 0.11890 0.58199
 C210 C 0.19309 0.09616 0.56463
 C211 C 0.45105 0.22514 0.66778
 C212 C 0.49420 0.24696 0.68652
 H213 H 0.51742 0.27535 0.61942
 H214 H 0.53857 0.30042 0.56562
 H215 H 0.44731 0.25475 0.52871
 H216 H 0.33432 0.18371 0.54538
 H217 H 0.17299 0.06797 0.63019
 H218 H 0.15193 0.04285 0.68393
 H219 H 0.24319 0.08850 0.72081
 H220 H 0.35602 0.15961 0.70418
 C221 C 0.79851 0.19280 0.64629
 C222 C 0.80964 0.21558 0.61593
 C223 C 0.83671 0.19016 0.59476
 C224 C 0.85247 0.14214 0.60409
 C225 C 0.84115 0.11923 0.63445
 C226 C 0.81413 0.14466 0.65561
 C227 C 0.80346 0.12114 0.68586
 C228 C 0.81902 0.07386 0.69493
 C229 C 0.84537 0.04895 0.67423
 C230 C 0.85641 0.07117 0.64432
 C231 C 0.84750 0.21376 0.56455
 C232 C 0.83205 0.26115 0.55551
 C233 C 0.80562 0.28602 0.57622
 C234 C 0.79442 0.26366 0.60611
 C235 C 0.88065 0.11642 0.58262
 C236 C 0.90421 0.09433 0.56530
 C237 C 0.77173 0.21923 0.66811
 C238 C 0.75008 0.24063 0.68679
 H239 H 0.78304 0.13897 0.70281
 H240 H 0.81056 0.05647 0.71815
 H241 H 0.85735 0.01219 0.68138
 H242 H 0.87702 0.05027 0.62908
 H243 H 0.86797 0.19589 0.54763
 H244 H 0.84064 0.27868 0.53232
 H245 H 0.79372 0.32285 0.56909
 H246 H 0.77376 0.28444 0.62139
 C247 C 0.39823 0.19270 0.85384
 C248 C 0.41223 0.19928 0.88530
 C249 C 0.35994 0.17444 0.90668
 C250 C 0.29401 0.14319 0.89646
 C251 C 0.28003 0.13655 0.86499
 C252 C 0.33228 0.16137 0.84362
 C253 C 0.31705 0.15418 0.81227
 C254 C 0.25210 0.12337 0.80232
 C255 C 0.20100 0.09908 0.82321
 C256 C 0.21449 0.10544 0.85420
 C257 C 0.37510 0.18161 0.93801
 C258 C 0.44010 0.21245 0.94793
 C259 C 0.49122 0.23674 0.92702
 C260 C 0.47773 0.23036 0.89603
 C261 C 0.24033 0.11762 0.91815
 C262 C 0.19432 0.09554 0.93537
 C263 C 0.45137 0.21842 0.83188
 C264 C 0.49426 0.23950 0.81303
 H265 H 0.35506 0.17222 0.79511
 H266 H 0.24137 0.11835 0.77828
 H267 H 0.15060 0.07517 0.81538
 H268 H 0.17301 0.08573 0.86954
 H269 H 0.33698 0.16351 0.95511
 H270 H 0.45085 0.21753 0.97198
 H271 H 0.54162 0.26065 0.93485
 H272 H 0.51912 0.25001 0.88063
 C273 C 0.79719 0.59964 0.85446
 C274 C 0.81389 0.66411 0.84534
 C275 C 0.84029 0.71644 0.86680
 C276 C 0.84992 0.70403 0.89726
 C277 C 0.83293 0.63951 0.90641
 C278 C 0.80648 0.58714 0.88493
 C279 C 0.79003 0.52310 0.89456
 C280 C 0.79945 0.51111 0.92457
 C281 C 0.82527 0.56231 0.94558
 C282 C 0.84191 0.62589 0.93673
 C283 C 0.85671 0.78049 0.85711
 C284 C 0.84737 0.79248 0.82710
 C285 C 0.82160 0.74132 0.80611
 C286 C 0.80495 0.67778 0.81499
 C287 C 0.87805 0.75803 0.91892
 C288 C 0.90198 0.80440 0.93605
 C289 C 0.77108 0.54661 0.83232
 C290 C 0.74989 0.50380 0.81335
 H291 H 0.76978 0.48170 0.87905
 H292 H 0.78663 0.46183 0.93156
 H293 H 0.83247 0.55274 0.96886
 H294 H 0.86183 0.66413 0.95387
 H295 H 0.87690 0.82196 0.87258
 H296 H 0.86020 0.84177 0.82010
 H297 H 0.81446 0.75087 0.78281
 H298 H 0.78505 0.63965 0.79781
 C299 C 0.80315 0.19873 0.85393
 C300 C 0.81873 0.15060 0.84456
 C301 C 0.84434 0.12399 0.86585
 C302 C 0.85427 0.14571 0.89639
 C303 C 0.83844 0.19364 0.90578
 C304 C 0.81280 0.22025 0.88448
 C305 C 0.79747 0.26821 0.89436
 C306 C 0.80719 0.28931 0.92444
 C307 C 0.83223 0.26328 0.94528
 C308 C 0.84777 0.21598 0.93618
 C309 C 0.85962 0.07598 0.85592
 C310 C 0.84992 0.05491 0.82584
 C311 C 0.82493 0.08096 0.80502
 C312 C 0.80941 0.12824 0.81414
 C313 C 0.88146 0.11910 0.91791
 C314 C 0.90456 0.09623 0.93505
 C315 C 0.77762 0.22617 0.83200
 C316 C 0.75674 0.24804 0.81317
 H317 H 0.77786 0.28987 0.87898
 H318 H 0.79523 0.32606 0.93162
 H319 H 0.83968 0.27982 0.96862
 H320 H 0.86710 0.19715 0.95320
 H321 H 0.87917 0.05419 0.87125
 H322 H 0.86188 0.01816 0.81865
 H323 H 0.81751 0.06447 0.78166
 H324 H 0.79008 0.14697 0.79708
 C325 C 0.60164 0.80829 0.35461
 C326 C 0.59155 0.77829 0.38349
 C327 C 0.64383 0.80335 0.40489
 C328 C 0.70584 0.85824 0.39726
 C329 C 0.71571 0.88865 0.36847
 C330 C 0.66348 0.86358 0.34708
 C331 C 0.67464 0.89460 0.31839
 C332 C 0.73563 0.94884 0.31105
 C333 C 0.78669 0.97341 0.33197
 C334 C 0.77714 0.94387 0.36037
 C335 C 0.63267 0.77243 0.43357
 C336 C 0.57159 0.71825 0.44091
 C337 C 0.52049 0.69373 0.41999
 C338 C 0.53008 0.72322 0.39157
 C339 C 0.75998 0.88301 0.41867
 C340 C 0.80630 0.90467 0.43570
 C341 C 0.54904 0.78177 0.33236
 C342 C 0.50651 0.76031 0.31333
 H343 H 0.63646 0.87738 0.30134
 H344 H 0.74329 0.97192 0.28900
 H345 H 0.83399 1.01559 0.32617
 H346 H 0.81840 0.96485 0.37586
 H347 H 0.67092 0.78977 0.45059
 H348 H 0.56388 0.69518 0.46296
 H349 H 0.47315 0.65164 0.42580
 H350 H 0.48885 0.70243 0.37605
 C351 C 0.20059 0.40105 0.35494
 C352 C 0.22935 0.41082 0.38407
 C353 C 0.20264 0.35851 0.40557
 C354 C 0.14737 0.29678 0.39780
 C355 C 0.11821 0.28724 0.36876
 C356 C 0.14492 0.33951 0.34726
 C357 C 0.11509 0.32869 0.31832
 C358 C 0.06045 0.26799 0.31085
 C359 C 0.03428 0.21689 0.33188
 C360 C 0.06261 0.22611 0.36052
 C361 C 0.23233 0.36934 0.43451
 C362 C 0.28686 0.43015 0.44200
 C363 C 0.31298 0.48130 0.42097
 C364 C 0.28475 0.47202 0.39230
 C365 C 0.12101 0.24247 0.41930
 C366 C 0.09814 0.19587 0.43631
 C367 C 0.22844 0.45378 0.33265
 C368 C 0.25057 0.49636 0.31356
 H369 H 0.13358 0.36690 0.30118
 H370 H 0.03830 0.26059 0.28861
 H371 H -0.00820 0.16983 0.32598
 H372 H 0.04040 0.18484 0.37608
 H373 H 0.21371 0.33104 0.45162
 H374 H 0.30897 0.43761 0.46424
 H375 H 0.35535 0.52843 0.42690
 H376 H 0.30677 0.51327 0.37670
 C377 C 0.19709 0.80098 0.35344
 C378 C 0.19699 0.78761 0.38476
 C379 C 0.17121 0.81416 0.40603
 C380 C 0.14571 0.85389 0.39583
 C381 C 0.14594 0.86736 0.36449
 C382 C 0.17170 0.84082 0.34324
 C383 C 0.17136 0.85496 0.31203
 C384 C 0.14632 0.89419 0.30211
 C385 C 0.12112 0.92012 0.32289
 C386 C 0.12079 0.90703 0.35373
 C387 C 0.17159 0.80010 0.43722
 C388 C 0.19672 0.76093 0.44712
 C389 C 0.22192 0.73498 0.42634
 C390 C 0.22218 0.74800 0.39548
 C391 C 0.11893 0.88082 0.41740
 C392 C 0.09611 0.90382 0.43463
 C393 C 0.22312 0.77384 0.33160
 C394 C 0.24428 0.75207 0.31286
 H395 H 0.19041 0.83595 0.29497
 H396 H 0.14652 0.90454 0.27818
 H397 H 0.10171 0.95057 0.31507
 H398 H 0.10066 0.92837 0.36899
 H399 H 0.15252 0.81921 0.45423
 H400 H 0.19664 0.75066 0.47107
 H401 H 0.24139 0.70458 0.43415
 H402 H 0.24230 0.72673 0.38017
   
