data_POSCAR
  _audit_creation_date              2014-09-24
  _audit_creation_method            'ToBaCCo'
  _symmetry_space_group_name_H-M    'P1'
  _symmetry_Int_Tables_number       1
  _symmetry_cell_setting            triclinic
  loop_
  _symmetry_equiv_pos_as_xyz
 x,y,z
_cell_length_a 32.3048
_cell_length_b 32.3048
_cell_length_c 32.3048
_cell_angle_alpha 89.999800
_cell_angle_beta 89.977300
_cell_angle_gamma 90.000700
loop_
  _atom_site_label
  _atom_site_type_symbol
  _atom_site_fract_x
  _atom_site_fract_y
  _atom_site_fract_z
Zn1 Zn 0.78274 0.71731 0.78273
 Zn2 Zn 0.78276 0.78281 0.71727
 Zn3 Zn 0.71728 0.71733 0.71725
 Zn4 Zn 0.71725 0.78280 0.78275
 O5 O 0.75001 0.75006 0.75000
 O6 O 0.83690 0.72579 0.77425
 O7 O 0.77430 0.77435 0.66311
 O8 O 0.72575 0.66317 0.72572
 O9 O 0.83691 0.77433 0.72574
 O10 O 0.77425 0.66315 0.77424
 O11 O 0.72578 0.72583 0.66310
 O12 O 0.66310 0.77431 0.77427
 O13 O 0.77427 0.83697 0.72576
 O14 O 0.66312 0.72581 0.72574
 O15 O 0.72573 0.83696 0.77428
 O16 O 0.72571 0.77430 0.83691
 O17 O 0.77423 0.72578 0.83689
 C18 C 0.85594 0.75006 0.74999
 C19 C 0.75005 0.75009 0.64407
 C20 C 0.75000 0.64413 0.74997
 C21 C 0.64408 0.75006 0.75001
 C22 C 0.75000 0.85599 0.75003
 C23 C 0.74997 0.75003 0.85593
 Zn24 Zn 0.21728 0.71731 0.71727
 Zn25 Zn 0.21725 0.78281 0.78274
 Zn26 Zn 0.28274 0.71733 0.78275
 Zn27 Zn 0.28277 0.78279 0.71725
 O28 O 0.25001 0.75006 0.75000
 O29 O 0.16312 0.72578 0.72576
 O30 O 0.22571 0.77434 0.83690
 O31 O 0.27427 0.66317 0.77428
 O32 O 0.16310 0.77432 0.77426
 O33 O 0.22577 0.66315 0.72576
 O34 O 0.27423 0.72582 0.83691
 O35 O 0.33692 0.77431 0.72573
 O36 O 0.22574 0.83696 0.77424
 O37 O 0.33690 0.72581 0.77427
 O38 O 0.27428 0.83695 0.72572
 O39 O 0.27430 0.77431 0.66310
 O40 O 0.22578 0.72579 0.66311
 C41 C 0.14408 0.75005 0.75001
 C42 C 0.24996 0.75008 0.85594
 C43 C 0.25002 0.64413 0.75002
 C44 C 0.35594 0.75006 0.75000
 C45 C 0.25001 0.85599 0.74998
 C46 C 0.25004 0.75004 0.64407
 Zn47 Zn 0.71725 0.21733 0.78276
 Zn48 Zn 0.78276 0.21732 0.71727
 Zn49 Zn 0.71727 0.28279 0.71725
 Zn50 Zn 0.78273 0.28282 0.78273
 O51 O 0.75000 0.25006 0.75000
 O52 O 0.72573 0.16317 0.77428
 O53 O 0.77429 0.22578 0.66311
 O54 O 0.66311 0.27432 0.72574
 O55 O 0.77427 0.16316 0.72576
 O56 O 0.66310 0.22581 0.77428
 O57 O 0.72577 0.27429 0.66310
 O58 O 0.77425 0.33697 0.77424
 O59 O 0.83691 0.22580 0.72574
 O60 O 0.72575 0.33695 0.72572
 O61 O 0.83690 0.27434 0.77425
 O62 O 0.77424 0.27435 0.83689
 O63 O 0.72572 0.22582 0.83691
 C64 C 0.75000 0.14413 0.75002
 C65 C 0.75003 0.25003 0.64407
 C66 C 0.64407 0.25006 0.75001
 C67 C 0.75000 0.35600 0.74997
 C68 C 0.85594 0.25007 0.75000
 C69 C 0.74998 0.25009 0.85593
 Zn70 Zn 0.28276 0.21733 0.71725
 Zn71 Zn 0.21725 0.21731 0.78273
 Zn72 Zn 0.28273 0.28279 0.78276
 Zn73 Zn 0.21728 0.28281 0.71727
 O74 O 0.25001 0.25006 0.75000
 O75 O 0.27429 0.16317 0.72572
 O76 O 0.22571 0.22577 0.83689
 O77 O 0.33690 0.27432 0.77427
 O78 O 0.22574 0.16315 0.77423
 O79 O 0.33692 0.22582 0.72573
 O80 O 0.27423 0.27430 0.83691
 O81 O 0.22576 0.33697 0.72576
 O82 O 0.16310 0.22579 0.77425
 O83 O 0.27426 0.33696 0.77429
 O84 O 0.16312 0.27434 0.72576
 O85 O 0.22577 0.27434 0.66311
 O86 O 0.27429 0.22582 0.66309
 C87 C 0.25001 0.14413 0.74997
 C88 C 0.24996 0.25003 0.85593
 C89 C 0.35594 0.25007 0.75000
 C90 C 0.25002 0.35599 0.75003
 C91 C 0.14408 0.25006 0.75001
 C92 C 0.25003 0.25008 0.64407
 Zn93 Zn 0.71721 0.71727 0.21727
 Zn94 Zn 0.78269 0.78275 0.21725
 Zn95 Zn 0.71721 0.78274 0.28276
 Zn96 Zn 0.78269 0.71726 0.28273
 O97 O 0.74995 0.75000 0.25000
 O98 O 0.72568 0.72575 0.16311
 O99 O 0.77422 0.83691 0.22574
 O100 O 0.66305 0.77427 0.27430
 O101 O 0.77421 0.77427 0.16309
 O102 O 0.66305 0.72575 0.22578
 O103 O 0.72570 0.83690 0.27428
 O104 O 0.77421 0.72573 0.33689
 O105 O 0.83685 0.77427 0.22571
 O106 O 0.72569 0.77426 0.33691
 O107 O 0.83685 0.72575 0.27423
 O108 O 0.77421 0.66310 0.27424
 O109 O 0.72569 0.66311 0.22574
 C110 C 0.74994 0.75002 0.14407
 C111 C 0.74996 0.85594 0.25002
 C112 C 0.64402 0.75001 0.25004
 C113 C 0.74995 0.74999 0.35593
 C114 C 0.85588 0.75001 0.24996
 C115 C 0.74995 0.64407 0.24999
 Zn116 Zn 0.28269 0.78274 0.21725
 Zn117 Zn 0.21720 0.71726 0.21728
 Zn118 Zn 0.28269 0.71726 0.28273
 Zn119 Zn 0.21721 0.78275 0.28276
 O120 O 0.24995 0.75000 0.25000
 O121 O 0.27421 0.77426 0.16309
 O122 O 0.22568 0.66311 0.22576
 O123 O 0.33684 0.72574 0.27423
 O124 O 0.22568 0.72574 0.16312
 O125 O 0.33685 0.77427 0.22571
 O126 O 0.27420 0.66310 0.27426
 O127 O 0.22569 0.77427 0.33692
 O128 O 0.16305 0.72575 0.22578
 O129 O 0.27421 0.72574 0.33689
 O130 O 0.16305 0.77426 0.27430
 O131 O 0.22568 0.83690 0.27427
 O132 O 0.27420 0.83690 0.22572
 C133 C 0.24995 0.75000 0.14407
 C134 C 0.24993 0.64407 0.25001
 C135 C 0.35588 0.75001 0.24996
 C136 C 0.24995 0.75001 0.35594
 C137 C 0.14401 0.75001 0.25005
 C138 C 0.24993 0.85593 0.24999
 Zn139 Zn 0.71721 0.28274 0.21727
 Zn140 Zn 0.78269 0.21725 0.21725
 Zn141 Zn 0.78269 0.28275 0.28273
 Zn142 Zn 0.71721 0.21727 0.28276
 O143 O 0.74995 0.25000 0.25000
 O144 O 0.72569 0.27425 0.16311
 O145 O 0.83685 0.22573 0.22571
 O146 O 0.77422 0.33691 0.27424
 O147 O 0.77421 0.22573 0.16309
 O148 O 0.72569 0.33690 0.22574
 O149 O 0.83685 0.27426 0.27423
 O150 O 0.72568 0.22575 0.33691
 O151 O 0.77421 0.16310 0.22574
 O152 O 0.77421 0.27428 0.33689
 O153 O 0.72569 0.16311 0.27429
 O154 O 0.66305 0.22574 0.27429
 O155 O 0.66305 0.27426 0.22577
 C156 C 0.74995 0.24999 0.14407
 C157 C 0.85588 0.24999 0.24997
 C158 C 0.74996 0.35593 0.24998
 C159 C 0.74995 0.25002 0.35593
 C160 C 0.74995 0.14407 0.25002
 C161 C 0.64402 0.24999 0.25003
 Zn162 Zn 0.21721 0.28274 0.21727
 Zn163 Zn 0.28269 0.21726 0.21725
 Zn164 Zn 0.28269 0.28275 0.28273
 Zn165 Zn 0.21720 0.21726 0.28276
 O166 O 0.24995 0.25000 0.25000
 O167 O 0.22570 0.27427 0.16311
 O168 O 0.33684 0.22573 0.22572
 O169 O 0.27420 0.33690 0.27426
 O170 O 0.27422 0.22575 0.16309
 O171 O 0.22568 0.33690 0.22576
 O172 O 0.33685 0.27426 0.27423
 O173 O 0.22568 0.22574 0.33691
 O174 O 0.27419 0.16310 0.22572
 O175 O 0.27420 0.27426 0.33689
 O176 O 0.22568 0.16310 0.27427
 O177 O 0.16304 0.22574 0.27429
 O178 O 0.16305 0.27425 0.22576
 C179 C 0.24996 0.25001 0.14407
 C180 C 0.35588 0.24999 0.24997
 C181 C 0.24993 0.35593 0.25001
 C182 C 0.24994 0.25000 0.35593
 C183 C 0.24993 0.14407 0.24999
 C184 C 0.14401 0.24999 0.25003
 C185 C -0.09965 0.75004 0.74997
 C186 C -0.06234 0.75002 0.74998
 C187 C -0.01864 0.75001 0.75001
 C188 C 0.01866 0.75001 0.75002
 C189 C 0.06236 0.75003 0.75001
 C190 C 0.09967 0.75003 0.75001
 C191 C 0.74999 -0.09960 0.75002
 C192 C 0.74996 -0.06228 0.75002
 C193 C 0.74994 -0.01859 0.75002
 C194 C 0.74995 0.01872 0.75004
 C195 C 0.74996 0.06241 0.75003
 C196 C 0.74998 0.09972 0.75002
 C197 C 0.74994 0.75001 -0.09966
 C198 C 0.74992 0.74999 -0.06235
 C199 C 0.74991 0.74998 -0.01865
 C200 C 0.74991 0.75000 0.01865
 C201 C 0.74993 0.74999 0.06235
 C202 C 0.74994 0.75001 0.09966
 C203 C 0.59967 0.75004 0.75001
 C204 C 0.56236 0.75003 0.75001
 C205 C 0.51866 0.75000 0.74999
 C206 C 0.48136 0.74999 0.74999
 C207 C 0.43766 0.75000 0.74999
 C208 C 0.40035 0.75004 0.74999
 C209 C 0.25000 -0.09960 0.74996
 C210 C 0.25002 -0.06229 0.74995
 C211 C 0.25004 -0.01859 0.74994
 C212 C 0.25004 0.01871 0.74994
 C213 C 0.25003 0.06241 0.74994
 C214 C 0.25001 0.09972 0.74996
 C215 C 0.24994 0.75007 -0.09966
 C216 C 0.24993 0.75008 -0.06234
 C217 C 0.24992 0.75007 -0.01865
 C218 C 0.24990 0.75005 0.01866
 C219 C 0.24991 0.75003 0.06235
 C220 C 0.24993 0.75001 0.09966
 C221 C -0.09965 0.25007 0.75000
 C222 C -0.06234 0.25006 0.74999
 C223 C -0.01865 0.25008 0.74999
 C224 C 0.01866 0.25008 0.75000
 C225 C 0.06235 0.25007 0.75000
 C226 C 0.09967 0.25006 0.75000
 C227 C 0.74999 0.59972 0.74996
 C228 C 0.74997 0.56241 0.74994
 C229 C 0.74996 0.51872 0.74993
 C230 C 0.74996 0.48141 0.74994
 C231 C 0.74998 0.43772 0.74995
 C232 C 0.74999 0.40040 0.74996
 C233 C 0.74997 0.25009 -0.09966
 C234 C 0.74996 0.25008 -0.06235
 C235 C 0.74994 0.25006 -0.01865
 C236 C 0.74992 0.25004 0.01866
 C237 C 0.74992 0.25001 0.06235
 C238 C 0.74994 0.24999 0.09966
 C239 C 0.59967 0.25005 0.75001
 C240 C 0.56235 0.25006 0.75001
 C241 C 0.51866 0.25005 0.75000
 C242 C 0.48135 0.25006 0.75000
 C243 C 0.43766 0.25007 0.74999
 C244 C 0.40035 0.25007 0.75000
 C245 C 0.25003 0.59972 0.75002
 C246 C 0.25003 0.56241 0.75004
 C247 C 0.25003 0.51871 0.75003
 C248 C 0.25002 0.48141 0.75005
 C249 C 0.25001 0.43771 0.75004
 C250 C 0.25002 0.40040 0.75002
 C251 C 0.24995 0.25001 -0.09966
 C252 C 0.24995 0.25001 -0.06235
 C253 C 0.24994 0.25000 -0.01865
 C254 C 0.24996 0.25000 0.01866
 C255 C 0.24995 0.25001 0.06235
 C256 C 0.24996 0.25001 0.09966
 C257 C -0.09971 0.75000 0.24995
 C258 C -0.06240 0.74999 0.24995
 C259 C -0.01871 0.75000 0.24998
 C260 C 0.01860 0.75000 0.25003
 C261 C 0.06229 0.74999 0.25006
 C262 C 0.09961 0.75000 0.25006
 C263 C 0.74996 -0.09966 0.25003
 C264 C 0.74995 -0.06234 0.25004
 C265 C 0.74997 -0.01865 0.25005
 C266 C 0.74996 0.01866 0.25006
 C267 C 0.74996 0.06235 0.25005
 C268 C 0.74995 0.09966 0.25003
 C269 C 0.75006 0.75009 0.59966
 C270 C 0.75006 0.75009 0.56235
 C271 C 0.75003 0.75006 0.51865
 C272 C 0.74999 0.75004 0.48135
 C273 C 0.74996 0.75001 0.43765
 C274 C 0.74995 0.74999 0.40034
 C275 C 0.59961 0.75001 0.25006
 C276 C 0.56230 0.75000 0.25005
 C277 C 0.51860 0.75001 0.25003
 C278 C 0.48129 0.75001 0.24999
 C279 C 0.43760 0.74999 0.24996
 C280 C 0.40029 0.75000 0.24995
 C281 C 0.24992 -0.09966 0.24997
 C282 C 0.24989 -0.06234 0.24995
 C283 C 0.24988 -0.01865 0.24993
 C284 C 0.24988 0.01866 0.24995
 C285 C 0.24990 0.06235 0.24995
 C286 C 0.24991 0.09966 0.24997
 C287 C 0.25004 0.75004 0.59966
 C288 C 0.25003 0.75003 0.56235
 C289 C 0.25000 0.75000 0.51866
 C290 C 0.25000 0.75000 0.48135
 C291 C 0.24998 0.74999 0.43766
 C292 C 0.24996 0.75000 0.40034
 C293 C -0.09971 0.24998 0.24996
 C294 C -0.06240 0.24995 0.24998
 C295 C -0.01871 0.24994 0.25000
 C296 C 0.01860 0.24993 0.25002
 C297 C 0.06229 0.24994 0.25003
 C298 C 0.09961 0.24997 0.25003
 C299 C 0.74995 0.59966 0.24998
 C300 C 0.74997 0.56235 0.24996
 C301 C 0.74997 0.51866 0.24994
 C302 C 0.74999 0.48135 0.24994
 C303 C 0.74998 0.43765 0.24995
 C304 C 0.74996 0.40034 0.24997
 C305 C 0.75003 0.25000 0.59966
 C306 C 0.75001 0.24999 0.56235
 C307 C 0.75001 0.24998 0.51866
 C308 C 0.74999 0.24997 0.48135
 C309 C 0.74997 0.24998 0.43765
 C310 C 0.74996 0.25000 0.40034
 C311 C 0.59961 0.24998 0.25004
 C312 C 0.56229 0.24996 0.25003
 C313 C 0.51860 0.24992 0.25002
 C314 C 0.48129 0.24992 0.25000
 C315 C 0.43760 0.24993 0.24998
 C316 C 0.40029 0.24997 0.24997
 C317 C 0.24992 0.59966 0.25002
 C318 C 0.24990 0.56235 0.25004
 C319 C 0.24989 0.51866 0.25006
 C320 C 0.24990 0.48135 0.25005
 C321 C 0.24990 0.43765 0.25004
 C322 C 0.24992 0.40034 0.25001
 C323 C 0.25003 0.25007 0.59966
 C324 C 0.25001 0.25005 0.56235
 C325 C 0.25000 0.25005 0.51865
 C326 C 0.24999 0.25003 0.48135
 C327 C 0.24996 0.25000 0.43765
 C328 C 0.24994 0.25000 0.40034
   
