data_POSCAR
  _audit_creation_date              2014-09-24
  _audit_creation_method            'ToBaCCo'
  _symmetry_space_group_name_H-M    'P1'
  _symmetry_Int_Tables_number       1
  _symmetry_cell_setting            triclinic
  loop_
  _symmetry_equiv_pos_as_xyz
 x,y,z
_cell_length_a 29.2708
_cell_length_b 29.2493
_cell_length_c 21.3435
_cell_angle_alpha 89.791100
_cell_angle_beta 90.048700
_cell_angle_gamma 90.022400
loop_
  _atom_site_label
  _atom_site_type_symbol
  _atom_site_fract_x
  _atom_site_fract_y
  _atom_site_fract_z
C1 C 1.28771 0.20153 0.27825
 C2 C 1.25146 0.22536 0.25089
 C3 C 1.21525 0.20150 0.22375
 C4 C 1.21396 0.15355 0.22500
 C5 C 1.25140 0.12981 0.25150
 C6 C 1.28922 0.15342 0.27745
 C7 C 1.25146 0.27562 0.25054
 C8 C 1.28757 0.29944 0.22286
 C9 C 1.28903 0.34755 0.22333
 C10 C 1.25126 0.37119 0.24935
 C11 C 1.21395 0.34743 0.27621
 C12 C 1.21534 0.29949 0.27773
 H13 H 1.31434 0.22096 0.30130
 H14 H 1.18839 0.22065 0.20064
 H15 H 1.31414 0.28000 0.19978
 H16 H 1.18854 0.28035 0.30098
 H17 H 1.25097 0.09298 0.25188
 H18 H 1.25077 0.40801 0.24869
 C19 C 0.78622 -0.29980 0.27764
 C20 C 0.74993 -0.27594 0.25054
 C21 C 0.71383 -0.29970 0.22307
 C22 C 0.71268 -0.34764 0.22371
 C23 C 0.75020 -0.37147 0.24991
 C24 C 0.78791 -0.34787 0.27625
 C25 C 0.74986 -0.22573 0.25074
 C26 C 0.78613 -0.20175 0.22378
 C27 C 0.78742 -0.15380 0.22497
 C28 C 0.74999 -0.13020 0.25131
 C29 C 0.71245 -0.15404 0.27729
 C30 C 0.71361 -0.20202 0.27794
 H31 H 0.81281 -0.28045 0.30092
 H32 H 0.68693 -0.28046 0.20016
 H33 H 0.81302 -0.22079 0.20081
 H34 H 0.68671 -0.22130 0.30072
 H35 H 0.74988 -0.40829 0.24979
 H36 H 0.75003 -0.09336 0.25156
 C37 C 0.78697 0.20208 -0.22345
 C38 C 0.75065 0.22589 -0.25063
 C39 C 0.71434 0.20199 -0.27752
 C40 C 0.71314 0.15402 -0.27631
 C41 C 0.75068 0.13035 -0.25003
 C42 C 0.78821 0.15411 -0.22407
 C43 C 0.75066 0.27612 -0.25100
 C44 C 0.78692 0.29992 -0.27829
 C45 C 0.78846 0.34801 -0.27761
 C46 C 0.75061 0.37167 -0.25188
 C47 C 0.71314 0.34792 -0.22546
 C48 C 0.71445 0.29998 -0.22407
 H49 H 0.81390 0.22128 -0.20072
 H50 H 0.68739 0.22111 -0.30049
 H51 H 0.81357 0.28047 -0.30120
 H52 H 0.68754 0.28085 -0.20105
 H53 H 0.75070 0.09351 -0.24979
 H54 H 0.75019 0.40849 -0.25239
 C55 C 1.28630 -0.29971 -0.22231
 C56 C 1.24993 -0.27578 -0.24906
 C57 C 1.21368 -0.29943 -0.27625
 C58 C 1.21246 -0.34734 -0.27563
 C59 C 1.25005 -0.37126 -0.24988
 C60 C 1.28789 -0.34775 -0.22387
 C61 C 1.24996 -0.22564 -0.24884
 C62 C 1.28631 -0.20175 -0.27568
 C63 C 1.28763 -0.15383 -0.27455
 C64 C 1.25017 -0.13016 -0.24850
 C65 C 1.21257 -0.15393 -0.22268
 C66 C 1.21368 -0.20189 -0.22186
 H67 H 1.31300 -0.28042 -0.19917
 H68 H 1.18676 -0.28012 -0.29899
 H69 H 1.31319 -0.22086 -0.29859
 H70 H 1.18673 -0.22112 -0.19912
 H71 H 1.24965 -0.40809 -0.25008
 H72 H 1.25025 -0.09332 -0.24836
 C73 C 0.20106 0.28571 0.72408
 C74 C 0.22499 0.24965 0.75167
 C75 C 0.20129 0.21329 0.77903
 C76 C 0.15323 0.21155 0.77782
 C77 C 0.12951 0.24928 0.75143
 C78 C 0.15316 0.28682 0.72490
 C79 C 0.27519 0.24991 0.75173
 C80 C 0.29888 0.28628 0.77876
 C81 C 0.34693 0.28809 0.77752
 C82 C 0.37067 0.25041 0.75147
 C83 C 0.34704 0.21285 0.72529
 C84 C 0.29913 0.21388 0.72448
 H85 H 0.22014 0.31265 0.70096
 H86 H 0.22077 0.18673 0.80238
 H87 H 0.27939 0.31282 0.80184
 H88 H 0.28006 0.18693 0.70160
 H89 H 0.09271 0.24957 0.75150
 H90 H 0.40747 0.25018 0.75152
 C91 C 0.70039 0.78674 0.72338
 C92 C 0.72416 0.75039 0.75057
 C93 C 0.70032 0.71410 0.77778
 C94 C 0.65228 0.71256 0.77659
 C95 C 0.62868 0.75049 0.75059
 C96 C 0.65235 0.78837 0.72456
 C97 C 0.77439 0.75028 0.75040
 C98 C 0.79840 0.78636 0.77768
 C99 C 0.84635 0.78752 0.77658
 C100 C 0.86989 0.75015 0.74991
 C101 C 0.84603 0.71282 0.72353
 C102 C 0.79809 0.71413 0.72289
 H103 H 0.71982 0.81339 0.70019
 H104 H 0.71971 0.68738 0.80091
 H105 H 0.77939 0.81320 0.80081
 H106 H 0.77881 0.68738 0.69991
 H107 H 0.59188 0.75053 0.75057
 H108 H 0.90669 0.75009 0.74971
 C109 C 0.70135 0.28599 0.22169
 C110 C 0.72512 0.24969 0.24898
 C111 C 0.70128 0.21334 0.27606
 C112 C 0.65337 0.21210 0.27493
 C113 C 0.62969 0.24963 0.24860
 C114 C 0.65344 0.28720 0.22248
 C115 C 0.77524 0.24977 0.24931
 C116 C 0.79891 0.28615 0.27628
 C117 C 0.84682 0.28746 0.27561
 C118 C 0.87067 0.24995 0.24993
 C119 C 0.84708 0.21237 0.22391
 C120 C 0.79917 0.21350 0.22265
 H121 H 0.72054 0.31293 0.19877
 H122 H 0.72040 0.18643 0.29916
 H123 H 0.77965 0.31305 0.29888
 H124 H 0.78013 0.18652 0.19981
 H125 H 0.59287 0.24964 0.24848
 H126 H 0.90748 0.25003 0.25017
 C127 C 0.20049 0.78629 0.22327
 C128 C 0.22426 0.74997 0.25047
 C129 C 0.20047 0.71372 0.27778
 C130 C 0.15243 0.71219 0.27671
 C131 C 0.12881 0.75011 0.25072
 C132 C 0.15247 0.78795 0.22456
 C133 C 0.27446 0.74991 0.25028
 C134 C 0.29842 0.78601 0.27755
 C135 C 0.34635 0.78725 0.27639
 C136 C 0.36994 0.74993 0.24966
 C137 C 0.34611 0.71258 0.22327
 C138 C 0.29817 0.71381 0.22270
 H139 H 0.21990 0.81293 0.20001
 H140 H 0.21989 0.68702 0.30092
 H141 H 0.27938 0.81282 0.30071
 H142 H 0.27892 0.68704 0.19973
 H143 H 0.09200 0.75016 0.25081
 H144 H 0.40674 0.74992 0.24940
 O145 O 1.07835 0.02332 0.07882
 O146 O 0.92293 -0.02348 0.07832
 O147 O 0.97745 0.07750 0.07817
 O148 O 1.02394 -0.07796 0.07890
 O149 O 0.91389 0.05327 0.04407
 O150 O 1.08758 -0.05353 0.04520
 O151 O 0.94720 -0.08709 0.04475
 O152 O 1.05419 0.08692 0.04442
 C153 C 1.07750 0.06516 0.08365
 C154 C 0.92385 -0.06530 0.08362
 C155 C 0.93566 0.07649 0.08317
 C156 C 1.06573 -0.07701 0.08417
 O157 O 1.07845 -0.02357 -0.07614
 O158 O 0.92332 0.02359 -0.07702
 O159 O 1.02445 0.07758 -0.07687
 O160 O 0.97709 -0.07779 -0.07644
 O161 O 0.91361 -0.05322 -0.04282
 O162 O 1.08794 0.05319 -0.04264
 O163 O 1.05376 -0.08713 -0.04212
 O164 O 0.94775 0.08710 -0.04316
 Co165 Co 1.07492 -0.00014 0.00129
 Co166 Co 0.92659 0.00003 0.00066
 Co167 Co 1.00093 0.07411 0.00068
 Co168 Co 1.00052 -0.07434 0.00124
 O169 O 1.00075 -0.00009 0.00097
 C170 C 1.07713 -0.06537 -0.08122
 C171 C 0.92440 0.06542 -0.08223
 C172 C 1.06625 0.07664 -0.08183
 C173 C 0.93530 -0.07668 -0.08168
 O174 O 1.07741 0.52352 0.57689
 O175 O 0.92220 0.47677 0.57688
 O176 O 0.97611 0.57797 0.57653
 O177 O 1.02337 0.42260 0.57717
 O178 O 0.91266 0.55356 0.54245
 O179 O 1.08692 0.44684 0.54313
 O180 O 0.94665 0.41319 0.54334
 O181 O 1.05292 0.58721 0.54302
 C182 C 1.07625 0.56530 0.58211
 C183 C 0.92319 0.43495 0.58220
 C184 C 0.93432 0.57695 0.58150
 C185 C 1.06516 0.42343 0.58225
 O186 O 1.07751 0.47697 0.42180
 O187 O 0.92216 0.52365 0.42148
 O188 O 1.02340 0.57817 0.42158
 O189 O 0.97648 0.42277 0.42199
 O190 O 0.91291 0.44692 0.45587
 O191 O 1.08690 0.55375 0.45580
 O192 O 1.05321 0.41330 0.45582
 O193 O 0.94652 0.58730 0.45500
 Co194 Co 1.07401 0.50027 0.49938
 Co195 Co 0.92565 0.50023 0.49919
 Co196 Co 0.99975 0.57453 0.49905
 Co197 Co 0.99991 0.42611 0.49955
 O198 O 0.99983 0.50029 0.49929
 C199 C 1.07670 0.43514 0.41685
 C200 C 0.92307 0.56547 0.41615
 C201 C 1.06521 0.57724 0.41667
 C202 C 0.93470 0.42372 0.41685
 O203 O 0.57760 0.02344 0.57834
 O204 O 0.42234 -0.02354 0.57829
 O205 O 0.47673 0.07755 0.57823
 O206 O 0.52329 -0.07800 0.57884
 O207 O 0.41308 0.05327 0.54450
 O208 O 0.58685 -0.05343 0.54506
 O209 O 0.44657 -0.08710 0.54450
 O210 O 0.55338 0.08699 0.54385
 C211 C 0.57673 0.06528 0.58306
 C212 C 0.42340 -0.06534 0.58356
 C213 C 0.43494 0.07663 0.58343
 C214 C 0.56508 -0.07693 0.58410
 O215 O 0.57756 -0.02378 0.42352
 O216 O 0.42234 0.02372 0.42307
 O217 O 0.52324 0.07757 0.42292
 O218 O 0.47647 -0.07779 0.42350
 O219 O 0.41292 -0.05316 0.45701
 O220 O 0.58682 0.05298 0.45676
 O221 O 0.55318 -0.08731 0.45785
 O222 O 0.44664 0.08718 0.45712
 Co223 Co 0.57408 -0.00018 0.50092
 Co224 Co 0.42580 0.00006 0.50072
 Co225 Co 0.49999 0.07413 0.50057
 Co226 Co 0.49988 -0.07437 0.50114
 O227 O 0.49994 -0.00010 0.50084
 C228 C 0.57652 -0.06560 0.41867
 C229 C 0.42329 0.06557 0.41799
 C230 C 0.56500 0.07632 0.41760
 C231 C 0.43468 -0.07665 0.41820
 O232 O 0.57725 0.52326 0.07586
 O233 O 0.42192 0.47655 0.07636
 O234 O 0.47579 0.57762 0.07591
 O235 O 0.52316 0.42240 0.07573
 O236 O 0.41226 0.55336 0.04185
 O237 O 0.58657 0.44672 0.04133
 O238 O 0.44635 0.41301 0.04265
 O239 O 0.55259 0.58703 0.04250
 C240 C 0.57614 0.56505 0.08130
 C241 C 0.42298 0.43471 0.08168
 C242 C 0.43399 0.57668 0.08091
 C243 C 0.56495 0.42339 0.08061
 O244 O 0.57691 0.47720 -0.07955
 O245 O 0.42156 0.52339 -0.07902
 O246 O 0.52301 0.57821 -0.07912
 O247 O 0.47562 0.42276 -0.07911
 O248 O 0.41217 0.44658 -0.04459
 O249 O 0.58650 0.55387 -0.04499
 O250 O 0.55250 0.41341 -0.04590
 O251 O 0.44619 0.58703 -0.04561
 Co252 Co 0.57361 0.50025 -0.00183
 Co253 Co 0.42518 0.49999 -0.00137
 Co254 Co 0.49939 0.57437 -0.00159
 Co255 Co 0.49941 0.42601 -0.00167
 O256 O 0.49940 0.50016 -0.00162
 C257 C 0.57597 0.43539 -0.08478
 C258 C 0.42271 0.56520 -0.08443
 C259 C 0.56481 0.57740 -0.08403
 C260 C 0.43380 0.42335 -0.08377
 C261 C 1.17559 0.12880 0.19050
 C262 C 1.12803 0.15176 0.19451
 C263 C 1.09504 0.13084 0.15958
 C264 C 1.11217 0.08857 0.12445
 C265 C 1.15302 0.10543 0.08581
 C266 C 1.18594 0.12629 0.12011
 C267 C 1.16608 0.07897 0.21051
 C268 C 1.13316 0.05797 0.17583
 H269 H 1.12036 0.18076 0.22427
 H270 H 1.05982 0.14242 0.15881
 H271 H 1.15590 0.10120 0.03544
 H272 H 1.21687 0.13982 0.09895
 H273 H 1.18092 0.06247 0.25128
 H274 H 1.12115 0.02374 0.18674
 C275 C 1.17411 0.62823 0.68968
 C276 C 1.16447 0.57837 0.70932
 C277 C 1.13156 0.55762 0.67440
 C278 C 1.11076 0.58851 0.62317
 C279 C 1.09362 0.63065 0.65855
 C280 C 1.12659 0.65130 0.69377
 C281 C 1.18460 0.62601 0.61933
 C282 C 1.15169 0.60541 0.58476
 H283 H 1.17923 0.56169 0.75002
 H284 H 1.11940 0.52341 0.68507
 H285 H 1.05842 0.64227 0.65781
 H286 H 1.11891 0.68011 0.72387
 H287 H 1.21559 0.63956 0.59837
 H288 H 1.15463 0.60142 0.53436
 C289 C 0.67481 0.12920 0.68938
 C290 C 0.66545 0.07938 0.70957
 C291 C 0.63252 0.05826 0.67506
 C292 C 0.61140 0.08876 0.62367
 C293 C 0.59422 0.13105 0.65872
 C294 C 0.62721 0.15207 0.69349
 C295 C 0.68507 0.12662 0.61898
 C296 C 0.65214 0.10564 0.58484
 H297 H 0.68046 0.06296 0.75029
 H298 H 0.62063 0.02401 0.68606
 H299 H 0.55899 0.14257 0.65799
 H300 H 0.61954 0.18110 0.72320
 H301 H 0.71594 0.14017 0.59770
 H302 H 0.65496 0.10131 0.53448
 C303 C 0.67431 0.62786 0.18891
 C304 C 0.66493 0.57784 0.20804
 C305 C 0.63195 0.55715 0.17313
 C306 C 0.61081 0.58821 0.12237
 C307 C 0.59367 0.63010 0.15833
 C308 C 0.62671 0.65069 0.19354
 C309 C 0.68452 0.62606 0.11844
 C310 C 0.65155 0.60550 0.08388
 H311 H 0.67989 0.56097 0.24846
 H312 H 0.61997 0.52284 0.18356
 H313 H 0.55845 0.64164 0.15789
 H314 H 0.61906 0.67938 0.22388
 H315 H 0.71539 0.63983 0.09740
 H316 H 0.65432 0.60178 0.03342
 C317 C 0.82574 -0.12898 0.19051
 C318 C 0.87333 -0.15185 0.19512
 C319 C 0.90635 -0.13090 0.16017
 C320 C 0.88918 -0.08870 0.12446
 C321 C 0.84846 -0.10565 0.08572
 C322 C 0.81552 -0.12655 0.12004
 C323 C 0.83508 -0.07912 0.21003
 C324 C 0.86804 -0.05809 0.17535
 H325 H 0.88097 -0.18082 0.22525
 H326 H 0.94159 -0.14241 0.15974
 H327 H 0.84567 -0.10142 0.03530
 H328 H 0.78465 -0.14012 0.09884
 H329 H 0.82009 -0.06263 0.25051
 H330 H 0.88000 -0.02386 0.18600
 C331 C 0.82490 0.37147 0.68950
 C332 C 0.87262 0.34858 0.69404
 C333 C 0.90560 0.36937 0.65884
 C334 C 0.88849 0.41157 0.62314
 C335 C 0.84766 0.39474 0.58457
 C336 C 0.81466 0.37398 0.61896
 C337 C 0.83464 0.42135 0.70903
 C338 C 0.86756 0.44225 0.67411
 H339 H 0.88052 0.31992 0.72463
 H340 H 0.94086 0.35792 0.65857
 H341 H 0.84483 0.39893 0.53414
 H342 H 0.78374 0.36054 0.59769
 H343 H 0.82030 0.43785 0.74996
 H344 H 0.87985 0.47634 0.68492
 C345 C 0.32584 -0.12907 0.69091
 C346 C 0.31523 -0.12639 0.62057
 C347 C 0.34804 -0.10546 0.58608
 C348 C 0.38897 -0.08875 0.62457
 C349 C 0.36819 -0.05825 0.67585
 C350 C 0.33538 -0.07932 0.71071
 C351 C 0.37339 -0.15208 0.69495
 C352 C 0.40626 -0.13110 0.65981
 H353 H 0.28423 -0.13983 0.59958
 H354 H 0.34500 -0.10106 0.53571
 H355 H 0.38028 -0.02407 0.68658
 H356 H 0.32061 -0.06295 0.75145
 H357 H 0.38114 -0.18111 0.72491
 H358 H 0.44149 -0.14264 0.65904
 C359 C 0.32529 0.37105 0.19001
 C360 C 0.31470 0.37350 0.11955
 C361 C 0.34750 0.39430 0.08482
 C362 C 0.38850 0.41125 0.12297
 C363 C 0.36775 0.44191 0.17411
 C364 C 0.33504 0.42097 0.20937
 C365 C 0.37308 0.34826 0.19410
 C366 C 0.40585 0.36910 0.15857
 H367 H 0.28371 0.35997 0.09858
 H368 H 0.34441 0.39846 0.03442
 H369 H 0.38002 0.47604 0.18476
 H370 H 0.32087 0.43747 0.25040
 H371 H 0.38118 0.31963 0.22464
 H372 H 0.44113 0.35773 0.15800
 C373 C 0.82654 0.12937 -0.18943
 C374 C 0.83605 0.07963 -0.20931
 C375 C 0.86893 0.05852 -0.17451
 C376 C 0.88984 0.08895 -0.12317
 C377 C 0.90704 0.13136 -0.15837
 C378 C 0.87410 0.15239 -0.19342
 C379 C 0.81608 0.12659 -0.11908
 C380 C 0.84895 0.10562 -0.08465
 H381 H 0.82118 0.06328 -0.25002
 H382 H 0.88093 0.02434 -0.18528
 H383 H 0.94227 0.14293 -0.15759
 H384 H 0.88182 0.18147 -0.22330
 H385 H 0.78513 0.14002 -0.09803
 H386 H 0.84601 0.10118 -0.03428
 C387 C 0.82443 0.62865 0.30901
 C388 C 0.83406 0.57872 0.28966
 C389 C 0.86711 0.55793 0.32450
 C390 C 0.88825 0.58874 0.37524
 C391 C 0.90524 0.63086 0.33926
 C392 C 0.87213 0.65155 0.30414
 C393 C 0.81444 0.62630 0.37961
 C394 C 0.84757 0.60565 0.41393
 H395 H 0.81964 0.56213 0.24881
 H396 H 0.87941 0.52386 0.31371
 H397 H 0.94051 0.64231 0.33931
 H398 H 0.87988 0.68019 0.27344
 H399 H 0.78360 0.63976 0.40097
 H400 H 0.84492 0.60156 0.46438
 C401 C 0.32554 0.12980 0.31045
 C402 C 0.37327 0.15275 0.30686
 C403 C 0.40605 0.13167 0.34212
 C404 C 0.38876 0.08916 0.37697
 C405 C 0.34772 0.10566 0.41530
 C406 C 0.31491 0.12670 0.38082
 C407 C 0.33540 0.08007 0.29028
 C408 C 0.36811 0.05888 0.32530
 H409 H 0.38135 0.18163 0.27676
 H410 H 0.44132 0.14310 0.34293
 H411 H 0.34462 0.10104 0.46562
 H412 H 0.28390 0.13996 0.40192
 H413 H 0.32125 0.06390 0.24893
 H414 H 0.38042 0.02487 0.31419
 C415 C 0.32436 0.62867 -0.19131
 C416 C 0.33391 0.57879 -0.21094
 C417 C 0.36690 0.55786 -0.17616
 C418 C 0.38803 0.58853 -0.12528
 C419 C 0.40513 0.63071 -0.16101
 C420 C 0.37209 0.65153 -0.19606
 C421 C 0.31431 0.62616 -0.12075
 C422 C 0.34737 0.60538 -0.08652
 H423 H 0.31947 0.56233 -0.25187
 H424 H 0.37913 0.52377 -0.18705
 H425 H 0.44042 0.64209 -0.16090
 H426 H 0.37990 0.68020 -0.22667
 H427 H 0.28347 0.63959 -0.09936
 H428 H 0.34467 0.60114 -0.03609
 C429 C 1.17442 -0.12924 -0.18819
 C430 C 1.18512 -0.12659 -0.11790
 C431 C 1.15240 -0.10563 -0.08353
 C432 C 1.11145 -0.08884 -0.12207
 C433 C 1.13223 -0.05835 -0.17369
 C434 C 1.16494 -0.07947 -0.20843
 C435 C 1.12682 -0.15219 -0.19188
 C436 C 1.09404 -0.13117 -0.15687
 H437 H 1.21611 -0.14012 -0.09686
 H438 H 1.15548 -0.10130 -0.03319
 H439 H 1.12025 -0.02413 -0.18465
 H440 H 1.17972 -0.06310 -0.24933
 H441 H 1.11895 -0.18118 -0.22157
 H442 H 1.05879 -0.14267 -0.15588
 C443 C 1.17543 0.37207 0.31053
 C444 C 1.18538 0.37420 0.38109
 C445 C 1.15226 0.39484 0.41520
 C446 C 1.11160 0.41188 0.37624
 C447 C 1.13289 0.44277 0.32543
 C448 C 1.16602 0.42201 0.29095
 C449 C 1.12788 0.34911 0.30570
 C450 C 1.09468 0.36979 0.34044
 H451 H 1.21621 0.36062 0.40249
 H452 H 1.15488 0.39883 0.46564
 H453 H 1.12091 0.47702 0.31466
 H454 H 1.18106 0.43876 0.25054
 H455 H 1.12041 0.32023 0.27561
 H456 H 1.05947 0.35815 0.34069
 C457 C 0.67420 -0.12939 0.31185
 C458 C 0.68478 -0.12673 0.38218
 C459 C 0.65197 -0.10582 0.41651
 C460 C 0.61102 -0.08907 0.37791
 C461 C 0.63184 -0.05857 0.32633
 C462 C 0.66465 -0.07962 0.29165
 C463 C 0.62662 -0.15239 0.30807
 C464 C 0.59375 -0.13143 0.34303
 H465 H 0.71576 -0.14023 0.40329
 H466 H 0.65498 -0.10151 0.46686
 H467 H 0.61981 -0.02437 0.31532
 H468 H 0.67945 -0.06321 0.25080
 H469 H 0.61884 -0.18142 0.27839
 H470 H 0.55853 -0.14301 0.34395
 C471 C 0.67464 0.37252 -0.19120
 C472 C 0.68450 0.37441 -0.12062
 C473 C 0.65138 0.39500 -0.08648
 C474 C 0.61082 0.41223 -0.12547
 C475 C 0.63222 0.44324 -0.17605
 C476 C 0.66536 0.42252 -0.21054
 C477 C 0.62705 0.34966 -0.19631
 C478 C 0.59385 0.37029 -0.16154
 H479 H 0.71528 0.36071 -0.09921
 H480 H 0.65394 0.39882 -0.03601
 H481 H 0.62031 0.47755 -0.18665
 H482 H 0.68049 0.43936 -0.25083
 H483 H 0.61957 0.32089 -0.22661
 H484 H 0.55861 0.35873 -0.16146
 C485 C 1.12980 0.17504 -0.18923
 C486 C 1.08004 0.16512 -0.20928
 C487 C 1.05912 0.13217 -0.17432
 C488 C 1.08966 0.11138 -0.12280
 C489 C 1.13200 0.09433 -0.15784
 C490 C 1.15282 0.12735 -0.19306
 C491 C 1.12703 0.18538 -0.11881
 C492 C 1.10626 0.15235 -0.08439
 H493 H 1.06364 0.17934 -0.25055
 H494 H 1.02512 0.11977 -0.18543
 H495 H 1.14350 0.05906 -0.15716
 H496 H 1.18158 0.11949 -0.22322
 H497 H 1.14032 0.21638 -0.09764
 H498 H 1.10190 0.15523 -0.03403
 C499 C 1.12892 0.67566 0.30952
 C500 C 1.07917 0.66579 0.28934
 C501 C 1.05818 0.63285 0.32423
 C502 C 1.08865 0.61201 0.37580
 C503 C 1.13101 0.59494 0.34083
 C504 C 1.15189 0.62794 0.30568
 C505 C 1.12607 0.68596 0.37995
 C506 C 1.10523 0.65293 0.41429
 H507 H 1.06285 0.68003 0.24803
 H508 H 1.02418 0.62049 0.31305
 H509 H 1.14248 0.55966 0.34149
 H510 H 1.18064 0.62004 0.27552
 H511 H 1.13937 0.71694 0.40118
 H512 H 1.10082 0.65579 0.46464
 C513 C 0.62864 0.17389 0.30972
 C514 C 0.57886 0.16442 0.28991
 C515 C 0.55783 0.13160 0.32494
 C516 C 0.58839 0.11074 0.37641
 C517 C 0.63061 0.09339 0.34133
 C518 C 0.65154 0.12626 0.30603
 C519 C 0.62614 0.18449 0.37999
 C520 C 0.60526 0.15169 0.41465
 H521 H 0.56241 0.17925 0.24909
 H522 H 0.52361 0.11960 0.31426
 H523 H 0.64211 0.05813 0.34238
 H524 H 0.68049 0.11846 0.27619
 H525 H 0.63968 0.21549 0.40082
 H526 H 0.60100 0.15473 0.46500
 C527 C 0.62870 0.67599 -0.19075
 C528 C 0.65168 0.62828 -0.19458
 C529 C 0.63072 0.59524 -0.15959
 C530 C 0.58827 0.61226 -0.12475
 C531 C 0.60477 0.65315 -0.08611
 C532 C 0.62569 0.68622 -0.12031
 C533 C 0.57898 0.66612 -0.21114
 C534 C 0.55791 0.63315 -0.17639
 H535 H 0.68050 0.62042 -0.22464
 H536 H 0.64220 0.55997 -0.15896
 H537 H 0.60024 0.65596 -0.03578
 H538 H 0.63893 0.71717 -0.09896
 H539 H 0.56275 0.68041 -0.25249
 H540 H 0.52394 0.62079 -0.18772
 C541 C 0.87126 -0.17432 -0.18877
 C542 C 0.87368 -0.18484 -0.11834
 C543 C 0.89468 -0.15207 -0.08395
 C544 C 0.91176 -0.11120 -0.12257
 C545 C 0.94225 -0.13225 -0.17368
 C546 C 0.92112 -0.16502 -0.20842
 C547 C 0.84857 -0.12660 -0.19305
 C548 C 0.86962 -0.09376 -0.15805
 H549 H 0.86001 -0.21578 -0.09721
 H550 H 0.89891 -0.15510 -0.03356
 H551 H 0.97652 -0.12038 -0.18437
 H552 H 0.93757 -0.17991 -0.24901
 H553 H 0.81962 -0.11874 -0.22299
 H554 H 0.85821 -0.05847 -0.15741
 C555 C 0.87137 0.32580 0.31005
 C556 C 0.87389 0.31529 0.38046
 C557 C 0.89466 0.34821 0.41477
 C558 C 0.91141 0.38916 0.37606
 C559 C 0.94204 0.36833 0.32494
 C560 C 0.92113 0.33541 0.29026
 C561 C 0.84832 0.37335 0.30570
 C562 C 0.86914 0.40633 0.34066
 H563 H 0.86042 0.28428 0.40163
 H564 H 0.89889 0.34526 0.46518
 H565 H 0.97623 0.38041 0.31421
 H566 H 0.93763 0.32058 0.24967
 H567 H 0.81937 0.38104 0.27568
 H568 H 0.85752 0.44155 0.34126
 C569 C 0.37112 -0.17452 0.31104
 C570 C 0.37319 -0.18486 0.38154
 C571 C 0.39401 -0.15199 0.41595
 C572 C 0.41126 -0.11122 0.37729
 C573 C 0.44201 -0.13241 0.32655
 C574 C 0.42107 -0.16528 0.29179
 C575 C 0.34844 -0.12681 0.30631
 C576 C 0.36931 -0.09387 0.34134
 H577 H 0.35943 -0.21574 0.40270
 H578 H 0.39797 -0.15487 0.46641
 H579 H 0.47631 -0.12055 0.31606
 H580 H 0.43771 -0.18024 0.25141
 H581 H 0.31962 -0.11905 0.27608
 H582 H 0.35790 -0.05858 0.34170
 C583 C 0.37034 0.32467 -0.18996
 C584 C 0.37318 0.31444 -0.11941
 C585 C 0.39392 0.34755 -0.08538
 C586 C 0.41043 0.38849 -0.12429
 C587 C 0.44097 0.36766 -0.17552
 C588 C 0.42008 0.33464 -0.21008
 C589 C 0.34726 0.37233 -0.19442
 C590 C 0.36804 0.40542 -0.15960
 H591 H 0.35995 0.28345 -0.09786
 H592 H 0.39832 0.34475 -0.03498
 H593 H 0.47494 0.38010 -0.18675
 H594 H 0.43647 0.32039 -0.25116
 H595 H 0.31845 0.38009 -0.22470
 H596 H 0.35647 0.44067 -0.15936
 C597 C 1.12902 -0.17551 0.19169
 C598 C 1.12634 -0.18576 0.12123
 C599 C 1.10564 -0.15270 0.08678
 C600 C 1.08902 -0.11179 0.12520
 C601 C 1.05839 -0.13265 0.17653
 C602 C 1.07924 -0.16563 0.21153
 C603 C 1.15205 -0.12780 0.19575
 C604 C 1.13131 -0.09476 0.16050
 H605 H 1.13964 -0.21673 0.10005
 H606 H 1.10135 -0.15552 0.03640
 H607 H 1.02440 -0.12023 0.18753
 H608 H 1.06280 -0.17985 0.25273
 H609 H 1.18076 -0.11997 0.22610
 H610 H 1.14282 -0.05949 0.15997
 C611 C 1.12846 0.32518 0.69002
 C612 C 1.15126 0.37285 0.69441
 C613 C 1.13049 0.40588 0.65915
 C614 C 1.08847 0.38870 0.62335
 C615 C 1.10559 0.34795 0.58496
 C616 C 1.12633 0.31498 0.61958
 C617 C 1.07855 0.33449 0.70924
 C618 C 1.05769 0.36747 0.67426
 H619 H 1.18008 0.38053 0.72462
 H620 H 1.14202 0.44114 0.65853
 H621 H 1.10158 0.34515 0.53453
 H622 H 1.13998 0.28410 0.59862
 H623 H 1.06188 0.31949 0.74974
 H624 H 1.02343 0.37939 0.68470
 C625 C 0.62884 -0.17513 0.69165
 C626 C 0.65192 -0.12743 0.69520
 C627 C 0.63101 -0.09449 0.65994
 C628 C 0.58852 -0.11160 0.62516
 C629 C 0.60493 -0.15265 0.58683
 C630 C 0.62579 -0.18561 0.62129
 C631 C 0.57916 -0.16513 0.71190
 C632 C 0.55814 -0.13226 0.67689
 H633 H 0.68076 -0.11950 0.72526
 H634 H 0.64253 -0.05922 0.65912
 H635 H 0.60041 -0.15563 0.53651
 H636 H 0.63898 -0.21665 0.60017
 H637 H 0.56292 -0.17926 0.75332
 H638 H 0.52420 -0.11981 0.68809
 C639 C 0.62875 0.32552 0.18784
 C640 C 0.65186 0.37307 0.19142
 C641 C 0.63088 0.40602 0.15630
 C642 C 0.58841 0.38883 0.12152
 C643 C 0.60492 0.34785 0.08310
 C644 C 0.62585 0.31496 0.11757
 C645 C 0.57911 0.33514 0.20802
 C646 C 0.55804 0.36804 0.17319
 H647 H 0.68095 0.38079 0.22110
 H648 H 0.64252 0.44124 0.15520
 H649 H 0.60038 0.34486 0.03278
 H650 H 0.63917 0.28393 0.09662
 H651 H 0.56282 0.32032 0.24894
 H652 H 0.52393 0.38014 0.18414
 C653 C 0.87190 0.17416 0.18966
 C654 C 0.92170 0.16484 0.20962
 C655 C 0.94279 0.13201 0.17506
 C656 C 0.91226 0.11098 0.12387
 C657 C 0.87006 0.09361 0.15916
 C658 C 0.84907 0.12650 0.19400
 C659 C 0.87441 0.18463 0.11925
 C660 C 0.89535 0.15181 0.08505
 H661 H 0.93811 0.17979 0.25025
 H662 H 0.97701 0.12010 0.18591
 H663 H 0.85859 0.05834 0.15856
 H664 H 0.82012 0.11870 0.22391
 H665 H 0.86084 0.21557 0.09799
 H666 H 0.89964 0.15477 0.03466
 C667 C 0.87064 0.67459 0.68873
 C668 C 0.92038 0.66491 0.70867
 C669 C 0.94136 0.63213 0.67385
 C670 C 0.91084 0.61144 0.62239
 C671 C 0.86850 0.59415 0.65747
 C672 C 0.84760 0.62699 0.69255
 C673 C 0.87329 0.68534 0.61839
 C674 C 0.89413 0.65255 0.58392
 H675 H 0.93683 0.67958 0.74945
 H676 H 0.97553 0.62004 0.68469
 H677 H 0.85687 0.55892 0.65656
 H678 H 0.81857 0.61918 0.72231
 H679 H 0.85984 0.71641 0.59737
 H680 H 0.89845 0.65569 0.53356
 C681 C 0.37174 0.17459 0.69066
 C682 C 0.42174 0.16539 0.70977
 C683 C 0.44257 0.13250 0.67498
 C684 C 0.41168 0.11124 0.62436
 C685 C 0.36982 0.09391 0.66046
 C686 C 0.34908 0.12686 0.69552
 C687 C 0.37362 0.18486 0.62013
 C688 C 0.39432 0.15198 0.58570
 H689 H 0.43849 0.18039 0.75009
 H690 H 0.47689 0.12065 0.68540
 H691 H 0.35839 0.05862 0.66018
 H692 H 0.32037 0.11908 0.72589
 H693 H 0.35980 0.21572 0.59896
 H694 H 0.39814 0.15482 0.53523
 C695 C 0.37067 0.67437 0.18839
 C696 C 0.42052 0.66484 0.20789
 C697 C 0.44138 0.63204 0.17299
 C698 C 0.41065 0.61120 0.12188
 C699 C 0.36853 0.59387 0.15742
 C700 C 0.34775 0.62673 0.19260
 C701 C 0.37293 0.68500 0.11799
 C702 C 0.39366 0.65220 0.08344
 H703 H 0.43715 0.67961 0.24847
 H704 H 0.47561 0.62002 0.18357
 H705 H 0.35696 0.55862 0.15672
 H706 H 0.31888 0.61892 0.22265
 H707 H 0.35934 0.71602 0.09700
 H708 H 0.39774 0.65527 0.03303
   
