data_POSCAR
  _audit_creation_date              2014-09-24
  _audit_creation_method            'ToBaCCo'
  _symmetry_space_group_name_H-M    'P1'
  _symmetry_Int_Tables_number       1
  _symmetry_cell_setting            triclinic
  loop_
  _symmetry_equiv_pos_as_xyz
 x,y,z
_cell_length_a 32.9404
_cell_length_b 33.0350
_cell_length_c 54.5394
_cell_angle_alpha 89.466900
_cell_angle_beta 89.168600
_cell_angle_gamma 89.376500
loop_
  _atom_site_label
  _atom_site_type_symbol
  _atom_site_fract_x
  _atom_site_fract_y
  _atom_site_fract_z
O1 O -0.02938 0.45892 1.02355
 O2 O -0.03257 0.53875 0.97592
 O3 O -0.03264 0.45976 0.97592
 O4 O -0.03026 0.53770 1.02358
 O5 O 0.03666 0.53740 1.02165
 O6 O 0.03428 0.45946 0.97379
 O7 O 0.03429 0.53826 0.97392
 O8 O 0.03754 0.45837 1.02128
 Cu9 Cu -0.03791 0.49884 0.99993
 Cu10 Cu 0.04239 0.49840 0.99747
 C11 C 0.00468 0.44481 1.03045
 C12 C 0.00036 0.55233 0.96675
 C13 C 0.00038 0.44608 0.96676
 C14 C 0.00355 0.55095 1.03078
 O15 O 0.45974 0.03847 0.52197
 O16 O 0.53829 0.03723 0.47316
 O17 O 0.45910 0.03792 0.47440
 O18 O 0.53900 0.03872 0.52076
 O19 O 0.53916 -0.02805 0.52203
 O20 O 0.46003 -0.02886 0.47491
 O21 O 0.53910 -0.02946 0.47429
 O22 O 0.46010 -0.02830 0.52265
 Cu23 Cu 0.49899 0.04476 0.49749
 Cu24 Cu 0.49967 -0.03535 0.49856
 C25 C 0.44628 0.00524 0.53056
 C26 C 0.55237 0.00363 0.46540
 C27 C 0.44582 0.00446 0.46672
 C28 C 0.55280 0.00553 0.52934
 C29 C 0.08645 -0.00512 0.25957
 H30 H 0.09025 -0.00797 0.23993
 C31 C 0.12050 -0.00380 0.27450
 H32 H 0.15055 -0.00557 0.26624
 C33 C 0.04261 0.00160 0.29417
 H34 H 0.01226 0.00430 0.30176
 C35 C 0.07580 0.00355 0.30972
 H36 H 0.07060 0.00690 0.32925
 N37 N 0.04844 -0.00324 0.26961
 C38 C -0.02599 -0.05914 0.21391
 H39 H -0.04950 -0.03621 0.21220
 C40 C -0.02679 -0.09359 0.19932
 H41 H -0.05084 -0.09668 0.18616
 C42 C 0.03433 -0.08229 0.23286
 H43 H 0.05771 -0.07817 0.24625
 C44 C 0.03470 -0.11724 0.21863
 H45 H 0.05855 -0.13962 0.22121
 Zn46 Zn 0.00362 -0.00531 0.24829
 N47 N 0.00468 -0.05373 0.22993
 C48 C 0.01195 0.03579 0.20246
 N49 N 0.00695 0.04032 0.22709
 C50 C 0.00526 0.07767 0.23736
 C51 C 0.00677 0.11241 0.22260
 C52 C 0.01407 0.06971 0.18705
 C53 C -0.05229 -0.03504 0.28286
 C54 C -0.08747 -0.03554 0.29744
 C55 C -0.10967 0.02612 0.27734
 C56 C -0.07401 0.02548 0.26319
 N57 N -0.04579 -0.00436 0.26653
 H58 H 0.01442 0.00591 0.19468
 H59 H 0.00219 0.08042 0.25705
 H60 H 0.00499 0.14193 0.23105
 H61 H 0.01735 0.06557 0.16744
 H62 H -0.02962 -0.05873 0.28489
 H63 H -0.09137 -0.05953 0.31090
 H64 H -0.13174 0.05014 0.27441
 H65 H -0.06905 0.04884 0.24954
 C66 C 0.00405 -0.12306 0.20141
 C67 C 0.11533 0.00051 0.29993
 C68 C -0.11657 -0.00441 0.29497
 C69 C 0.01102 0.10861 0.19709
 C70 C -0.03620 0.07594 0.76749
 H71 H -0.05839 0.07359 0.75322
 C72 C -0.03682 0.10996 0.78253
 H73 H -0.05964 0.13330 0.77966
 C74 C 0.02161 0.04978 0.78776
 H75 H 0.04486 0.02680 0.78953
 C76 C 0.02215 0.08328 0.80315
 H77 H 0.04531 0.08499 0.81698
 N78 N -0.00739 0.04648 0.77040
 C79 C 0.05183 -0.03139 0.71651
 H80 H 0.03232 -0.05752 0.71723
 C81 C 0.08658 -0.03167 0.70154
 H82 H 0.09336 -0.05810 0.69056
 C83 C 0.06569 0.03530 0.72941
 H84 H 0.05720 0.06147 0.74014
 C85 C 0.10077 0.03627 0.71476
 H86 H 0.11937 0.06309 0.71472
 Zn87 Zn -0.00619 0.00088 0.74918
 N88 N 0.04198 0.00185 0.72994
 C89 C -0.04586 0.00657 0.70351
 N90 N -0.05187 0.00331 0.72819
 C91 C -0.09002 0.00249 0.73811
 C92 C -0.12392 0.00368 0.72302
 C93 C -0.07889 0.00831 0.68778
 C94 C 0.02734 -0.05759 0.78111
 C95 C 0.02851 -0.09239 0.79582
 C96 C -0.03854 -0.10885 0.78203
 C97 C -0.03845 -0.07366 0.76763
 N98 N -0.00624 -0.04819 0.76789
 H99 H -0.01543 0.00790 0.69593
 H100 H -0.09409 0.00081 0.75781
 H101 H -0.15404 0.00287 0.73121
 H102 H -0.07351 0.01038 0.66817
 H103 H 0.05353 -0.03826 0.78013
 H104 H 0.05513 -0.09852 0.80671
 H105 H -0.06453 -0.12859 0.78155
 H106 H -0.06420 -0.06702 0.75627
 C107 C 0.11152 0.00257 0.70043
 C108 C -0.00731 0.11398 0.80063
 C109 C -0.00497 -0.11834 0.79666
 C110 C -0.11851 0.00655 0.69750
 C111 C 0.00504 -0.35566 0.08541
 C112 C -0.03180 -0.37246 0.07801
 C113 C -0.03220 -0.40291 0.06042
 C114 C 0.00422 -0.41737 0.04981
 C115 C 0.04112 -0.40091 0.05736
 C116 C 0.04152 -0.37038 0.07495
 C117 C 0.00526 -0.32259 0.10363
 N118 N 0.04058 -0.30507 0.11016
 N119 N 0.04061 -0.27481 0.12614
 C120 C 0.00533 -0.26080 0.13631
 N121 N -0.02995 -0.27845 0.12986
 N122 N -0.02998 -0.30868 0.11387
 C123 C 0.00520 -0.22644 0.15364
 C124 C -0.03142 -0.21210 0.16411
 C125 C -0.03173 -0.17892 0.17982
 C126 C 0.00454 -0.15927 0.18545
 C127 C 0.04122 -0.17393 0.17526
 C128 C 0.04156 -0.20712 0.15954
 H129 H -0.06048 -0.36191 0.08567
 H130 H -0.06115 -0.41497 0.05504
 H131 H 0.06971 -0.41140 0.04956
 H132 H 0.07046 -0.35818 0.08023
 H133 H -0.05997 -0.22635 0.16008
 H134 H -0.06041 -0.16874 0.18765
 H135 H 0.06963 -0.15915 0.17900
 H136 H 0.07031 -0.21728 0.15180
 C137 C 0.00868 0.34757 0.08353
 C138 C 0.04385 0.35892 0.07040
 C139 C 0.04264 0.39087 0.05346
 C140 C 0.00615 0.41196 0.04906
 C141 C -0.02898 0.40080 0.06227
 C142 C -0.02769 0.36910 0.07942
 C143 C 0.00982 0.31307 0.10108
 N144 N -0.02158 0.30634 0.11697
 N145 N -0.02076 0.27494 0.13247
 C146 C 0.01140 0.24884 0.13266
 N147 N 0.04280 0.25561 0.11679
 N148 N 0.04207 0.28710 0.10137
 C149 C 0.01193 0.21341 0.14952
 C150 C 0.04045 0.18190 0.14614
 C151 C 0.04024 0.14795 0.16162
 C152 C 0.01182 0.14498 0.18098
 C153 C -0.01632 0.17669 0.18460
 C154 C -0.01642 0.21045 0.16896
 H155 H 0.07239 0.34310 0.07320
 H156 H 0.07023 0.39868 0.04354
 H157 H -0.05754 0.41654 0.05934
 H158 H -0.05535 0.36109 0.08918
 H159 H 0.06267 0.18320 0.13134
 H160 H 0.06250 0.12409 0.15856
 H161 H -0.03879 0.17498 0.19926
 H162 H -0.03873 0.23421 0.17211
 C163 C 0.35027 0.00571 0.58506
 C164 C 0.36928 -0.03077 0.57802
 C165 C 0.40067 -0.03086 0.56051
 C166 C 0.41393 0.00554 0.54969
 C167 C 0.39536 0.04208 0.55698
 C168 C 0.36384 0.04216 0.57442
 C169 C 0.31604 0.00562 0.60303
 N170 N 0.29491 0.04019 0.60803
 N171 N 0.26359 0.03993 0.62375
 C172 C 0.25206 0.00511 0.63518
 N173 N 0.27331 -0.02942 0.63028
 N174 N 0.30459 -0.02917 0.61453
 C175 C 0.21665 0.00467 0.65230
 C176 C 0.20653 -0.03070 0.66546
 C177 C 0.17267 -0.03130 0.68121
 C178 C 0.14806 0.00340 0.68412
 C179 C 0.15833 0.03881 0.67107
 C180 C 0.19224 0.03947 0.65539
 H181 H 0.35964 -0.05941 0.58583
 H182 H 0.41439 -0.05953 0.55534
 H183 H 0.40485 0.07065 0.54899
 H184 H 0.34998 0.07082 0.57945
 H185 H 0.22476 -0.05800 0.66363
 H186 H 0.16596 -0.05890 0.69127
 H187 H 0.13968 0.06589 0.67259
 H188 H 0.19900 0.06718 0.64547
 C189 C -0.35148 0.00714 0.58227
 C190 C -0.36253 0.04254 0.56940
 C191 C -0.39392 0.04208 0.55246
 C192 C -0.41471 0.00610 0.54779
 C193 C -0.40377 -0.02930 0.56068
 C194 C -0.37264 -0.02874 0.57784
 C195 C -0.31774 0.00761 0.59994
 N196 N -0.31179 -0.02371 0.61584
 N197 N -0.28116 -0.02339 0.63153
 C198 C -0.25509 0.00818 0.63190
 N199 N -0.26106 0.03949 0.61599
 N200 N -0.29178 0.03925 0.60039
 C201 C -0.22056 0.00825 0.64901
 C202 C -0.18870 0.03584 0.64567
 C203 C -0.15563 0.03532 0.66144
 C204 C -0.15393 0.00754 0.68105
 C205 C -0.18599 -0.01966 0.68463
 C206 C -0.21886 -0.01948 0.66869
 H207 H -0.34698 0.07073 0.57244
 H208 H -0.40157 0.06984 0.54279
 H209 H -0.41929 -0.05747 0.55753
 H210 H -0.36482 -0.05656 0.58739
 H211 H -0.18902 0.05756 0.63069
 H212 H -0.13148 0.05686 0.65841
 H213 H -0.18525 -0.04160 0.69950
 H214 H -0.24294 -0.04105 0.67182
 C215 C -0.00244 -0.35383 0.91319
 C216 C -0.03868 -0.36884 0.92351
 C217 C -0.03784 -0.40002 0.94102
 C218 C -0.00066 -0.41690 0.94877
 C219 C 0.03557 -0.40195 0.93826
 C220 C 0.03466 -0.37092 0.92069
 C221 C -0.00323 -0.32019 0.89500
 N222 N 0.03150 -0.30768 0.88368
 N223 N 0.03095 -0.27698 0.86767
 C224 C -0.00435 -0.25742 0.86232
 N225 N -0.03910 -0.27001 0.87358
 N226 N -0.03856 -0.30075 0.88955
 C227 C -0.00479 -0.22260 0.84495
 C228 C -0.04048 -0.19968 0.84145
 C229 C -0.04058 -0.16614 0.82564
 C230 C -0.00506 -0.15477 0.81287
 C231 C 0.03049 -0.17802 0.81612
 C232 C 0.03065 -0.21149 0.83199
 H233 H -0.06781 -0.35646 0.91812
 H234 H -0.06644 -0.41062 0.94858
 H235 H 0.06485 -0.41406 0.94363
 H236 H 0.06317 -0.36010 0.91314
 H237 H -0.06829 -0.20725 0.85119
 H238 H -0.06834 -0.14856 0.82384
 H239 H 0.05821 -0.17050 0.80626
 H240 H 0.05861 -0.22860 0.83411
 C241 C -0.00258 0.35073 0.91345
 C242 C 0.03460 0.36697 0.92075
 C243 C 0.03554 0.39820 0.93784
 C244 C -0.00066 0.41397 0.94802
 C245 C -0.03786 0.39812 0.94051
 C246 C -0.03881 0.36687 0.92343
 C247 C -0.00351 0.31674 0.89590
 N248 N -0.03930 0.30022 0.88931
 N249 N -0.04006 0.26915 0.87394
 C250 C -0.00506 0.25324 0.86448
 N251 N 0.03070 0.26986 0.87099
 N252 N 0.03146 0.30092 0.88637
 C253 C -0.00580 0.21813 0.84773
 C254 C 0.03057 0.20171 0.83812
 C255 C 0.03001 0.16812 0.82276
 C256 C -0.00690 0.15012 0.81663
 C257 C -0.04330 0.16673 0.82603
 C258 C -0.04276 0.20033 0.84142
 H259 H 0.06309 0.35534 0.91343
 H260 H 0.06470 0.40976 0.94321
 H261 H -0.06631 0.40960 0.94799
 H262 H -0.06799 0.35517 0.91821
 H263 H 0.05958 0.21471 0.84249
 H264 H 0.05853 0.15644 0.81550
 H265 H -0.07219 0.15329 0.82185
 H266 H -0.07134 0.21213 0.84851
 C267 C -0.35410 0.00168 0.41116
 C268 C -0.37015 0.03864 0.41969
 C269 C -0.40126 0.03934 0.43740
 C270 C -0.41708 0.00303 0.44712
 C271 C -0.40122 -0.03395 0.43832
 C272 C -0.37020 -0.03458 0.42058
 C273 C -0.32032 0.00093 0.39287
 N274 N -0.30564 -0.03473 0.38402
 N275 N -0.27472 -0.03547 0.36801
 C276 C -0.25711 -0.00059 0.36017
 N277 N -0.27190 0.03507 0.36895
 N278 N -0.30284 0.03582 0.38494
 C279 C -0.22198 -0.00148 0.34285
 C280 C -0.20202 0.03445 0.33615
 C281 C -0.16814 0.03350 0.32044
 C282 C -0.15343 -0.00338 0.31100
 C283 C -0.17369 -0.03925 0.31743
 C284 C -0.20755 -0.03832 0.33318
 H285 H -0.35856 0.06716 0.41279
 H286 H -0.41260 0.06846 0.44358
 H287 H -0.41253 -0.06260 0.44523
 H288 H -0.35860 -0.06360 0.41442
 H289 H -0.21220 0.06336 0.34329
 H290 H -0.15290 0.06161 0.31613
 H291 H -0.16349 -0.06808 0.31018
 H292 H -0.22229 -0.06656 0.33783
 C293 C 0.34974 0.00434 0.41401
 C294 C 0.37138 -0.03149 0.41942
 C295 C 0.40266 -0.03150 0.43649
 C296 C 0.41326 0.00442 0.44831
 C297 C 0.39201 0.04033 0.44265
 C298 C 0.36048 0.04025 0.42579
 C299 C 0.31579 0.00425 0.39648
 N300 N 0.28952 0.03615 0.39516
 N301 N 0.25860 0.03591 0.37971
 C302 C 0.25271 0.00383 0.36483
 N303 N 0.27909 -0.02801 0.36605
 N304 N 0.30992 -0.02785 0.38160
 C305 C 0.21795 0.00340 0.34789
 C306 C 0.21618 -0.02542 0.32914
 C307 C 0.18311 -0.02602 0.31336
 C308 C 0.15092 0.00185 0.31620
 C309 C 0.15269 0.03070 0.33489
 C310 C 0.18595 0.03162 0.35048
 H311 H 0.36380 -0.05969 0.41071
 H312 H 0.41854 -0.05964 0.44043
 H313 H 0.39939 0.06849 0.45147
 H314 H 0.34456 0.06841 0.42198
 H315 H 0.24037 -0.04751 0.32660
 H316 H 0.18232 -0.04877 0.29921
 H317 H 0.12845 0.05277 0.33732
 H318 H 0.18633 0.05419 0.36474
   
