data_POSCAR
  _audit_creation_date              2014-09-24
  _audit_creation_method            'ToBaCCo'
  _symmetry_space_group_name_H-M    'P1'
  _symmetry_Int_Tables_number       1
  _symmetry_cell_setting            triclinic
  loop_
  _symmetry_equiv_pos_as_xyz
 x,y,z
_cell_length_a 32.6365
_cell_length_b 32.6369
_cell_length_c 32.6371
_cell_angle_alpha 90.008900
_cell_angle_beta 89.990800
_cell_angle_gamma 90.009100
loop_
  _atom_site_label
  _atom_site_type_symbol
  _atom_site_fract_x
  _atom_site_fract_y
  _atom_site_fract_z
N1 N 0.36454 0.36282 1.36045
 N2 N 1.13718 0.63958 0.86453
 N3 N 0.64491 -0.14491 0.14492
 N4 N -0.13955 1.13549 -0.36281
 N5 N 0.64632 0.64369 0.64073
 N6 N 0.85630 0.35929 0.14633
 N7 N 0.35233 0.14767 0.85234
 N8 N 0.14072 0.85370 0.35631
 Zn9 Zn 0.00678 1.05209 -0.02285
 Zn10 Zn -0.03207 0.96904 -0.03275
 Zn11 Zn 0.04865 0.97878 0.00992
 Zn12 Zn -0.02705 1.00970 0.04996
 O13 O -0.00110 1.00226 0.00096
 O14 O -0.01738 1.05516 -0.07136
 O15 O -0.00575 0.92234 -0.04671
 O16 O 0.09066 1.00879 -0.00827
 O17 O -0.04578 0.99424 -0.08038
 O18 O 0.05955 1.06389 -0.03219
 O19 O 0.05368 0.93087 -0.01530
 O20 O 0.00127 0.98981 0.09268
 O21 O -0.07954 0.95345 -0.00885
 O22 O 0.05816 0.96847 0.06278
 O23 O -0.07571 0.98512 0.05119
 O24 O -0.03740 1.06234 0.06133
 O25 O -0.01343 1.09373 0.00641
 C26 C -0.03805 1.03034 -0.09297
 C27 C 0.03005 0.90982 -0.03780
 C28 C 0.09198 1.04353 -0.02560
 C29 C 0.03649 0.97341 0.09468
 C30 C -0.09468 0.96255 0.02589
 C31 C -0.03116 1.09485 0.04097
 Zn32 Zn 0.49032 -0.04995 0.47297
 Zn33 Zn 0.52124 -0.00991 0.54867
 Zn34 Zn 0.53098 0.03276 0.46795
 Zn35 Zn 0.44793 0.02286 0.50680
 O36 O 0.49776 -0.00095 0.49892
 O37 O 0.51020 -0.09267 0.50129
 O38 O 0.56915 0.01531 0.55370
 O39 O 0.54656 0.00886 0.42048
 O40 O 0.53155 -0.06277 0.55818
 O41 O 0.51489 -0.05118 0.42431
 O42 O 0.57768 0.04672 0.49426
 O43 O 0.44487 0.07137 0.48265
 O44 O 0.49123 0.00828 0.59068
 O45 O 0.50579 0.08040 0.45424
 O46 O 0.43613 0.03220 0.55957
 O47 O 0.40629 -0.00639 0.48659
 O48 O 0.43767 -0.06132 0.46262
 C49 C 0.52660 -0.09467 0.53651
 C50 C 0.59020 0.03781 0.53006
 C51 C 0.53747 -0.02588 0.40535
 C52 C 0.46968 0.09298 0.46197
 C53 C 0.45649 0.02561 0.59200
 C54 C 0.40516 -0.04095 0.46886
 Zn55 Zn 1.01364 0.44739 0.47825
 Zn56 Zn 1.05263 0.52177 0.51364
 Zn57 Zn 0.97136 0.52865 0.47136
 Zn58 Zn 0.97825 0.48638 0.55262
 O59 O 1.00390 0.49612 0.50390
 O60 O 1.06662 0.43913 0.46795
 O61 O 1.05534 0.57066 0.48951
 O62 O 0.95674 0.50388 0.42441
 O63 O 1.09637 0.49363 0.49521
 O64 O 0.98952 0.44469 0.42936
 O65 O 0.99614 0.57561 0.45674
 O66 O 0.92936 0.51050 0.55533
 O67 O 1.06089 0.53207 0.56662
 O68 O 0.92441 0.54328 0.49614
 O69 O 1.00639 0.50481 0.59636
 O70 O 0.96795 0.43340 0.56088
 O71 O 0.99521 0.40366 0.50639
 C72 C 1.09846 0.46005 0.47566
 C73 C 1.03086 0.59020 0.46652
 C74 C 0.96653 0.46916 0.40982
 C75 C 0.90982 0.53349 0.53085
 C76 C 1.03998 0.52436 0.59845
 C77 C 0.97566 0.40156 0.53997
 Zn78 Zn 0.47713 0.49322 0.94793
 Zn79 Zn 0.54994 0.52705 0.99032
 Zn80 Zn 0.46723 0.53207 1.03098
 Zn81 Zn 0.50990 0.45135 1.02124
 O82 O 0.50094 0.50110 0.99776
 O83 O 0.50639 0.51343 0.90629
 O84 O 0.55117 0.57571 1.01490
 O85 O 0.41960 0.54578 1.00579
 O86 O 0.56132 0.53740 0.93768
 O87 O 0.42862 0.51738 0.94487
 O88 O 0.49114 0.57954 1.04657
 O89 O 0.48469 0.44632 1.06915
 O90 O 0.59267 0.49873 1.01021
 O91 O 0.45328 0.50575 1.07768
 O92 O 0.56276 0.44183 1.03156
 O93 O 0.49171 0.40934 0.99123
 O94 O 0.46779 0.44045 0.93613
 C95 C 0.54095 0.53116 0.90517
 C96 C 0.52587 0.59467 1.03747
 C97 C 0.40701 0.53805 0.96968
 C98 C 0.46218 0.46995 1.09020
 C99 C 0.59466 0.46351 1.02661
 C100 C 0.47438 0.40802 0.95649
 C101 C 1.25254 0.40653 0.40892
 C102 C 1.28909 0.41415 0.43038
 C103 C 1.32631 0.40000 0.41404
 C104 C 1.32689 0.37944 0.37621
 C105 C 1.29023 0.37291 0.35465
 C106 C 1.25282 0.38586 0.37116
 C107 C 1.21317 0.42005 0.42650
 C108 C 1.17662 0.41108 0.40568
 C109 C 1.13926 0.42347 0.42269
 C110 C 1.13826 0.44565 0.45969
 C111 C 1.17518 0.45491 0.48001
 C112 C 1.21281 0.44159 0.46379
 C113 C 1.21564 0.37796 0.35099
 C114 C 1.17815 0.39015 0.36809
 C115 C 1.28751 0.43545 0.46778
 C116 C 1.25006 0.44922 0.48404
 H117 H 1.21551 0.36193 0.32192
 H118 H 1.15012 0.38324 0.35169
 H119 H 1.31546 0.44164 0.48458
 H120 H 1.25024 0.46570 0.51286
 H121 H 1.35476 0.40476 0.43047
 H122 H 1.29100 0.35655 0.32576
 H123 H 1.11096 0.41675 0.40662
 H124 H 1.17453 0.47193 0.50853
 C125 C 0.24982 0.59308 0.91086
 C126 C 0.24121 0.58998 0.86884
 C127 C 0.20366 0.60435 0.85399
 C128 C 0.17458 0.62192 0.88070
 C129 C 0.18328 0.62366 0.92304
 C130 C 0.22109 0.60968 0.93823
 C131 C 0.28994 0.57917 0.92636
 C132 C 0.29906 0.58283 0.96828
 C133 C 0.33759 0.56982 0.98268
 C134 C 0.36655 0.55300 0.95536
 C135 C 0.35659 0.54966 0.91344
 C136 C 0.31853 0.56273 0.89880
 C137 C 0.23109 0.61252 0.98005
 C138 C 0.26941 0.59940 0.99480
 C139 C 0.27061 0.57321 0.84229
 C140 C 0.30861 0.55973 0.85704
 H141 H 0.20923 0.62528 1.00153
 H142 H 0.27591 0.60234 1.02722
 H143 H 0.26427 0.57065 0.80980
 H144 H 0.33049 0.54706 0.83552
 H145 H 0.19767 0.60289 0.82139
 H146 H 0.16094 0.63665 0.94388
 H147 H 0.34483 0.57240 1.01499
 H148 H 0.37856 0.53697 0.89199
 C149 C -0.24728 0.90099 0.08754
 C150 C -0.25390 0.85853 0.08910
 C151 C -0.28935 0.84353 0.10823
 C152 C -0.31872 0.87069 0.12469
 C153 C -0.31196 0.91326 0.12174
 C154 C -0.27596 0.92853 0.10396
 C155 C -0.20914 0.91689 0.06919
 C156 C -0.20152 0.95922 0.06980
 C157 C -0.16420 0.97398 0.05456
 C158 C -0.13519 0.94686 0.03783
 C159 C -0.14380 0.90468 0.03594
 C160 C -0.18055 0.88939 0.05240
 C161 C -0.26777 0.97078 0.10286
 C162 C -0.23100 0.98584 0.08640
 C163 C -0.22468 0.83196 0.07189
 C164 C -0.18879 0.84714 0.05357
 H165 H -0.28964 0.99233 0.11547
 H166 H -0.22552 1.01858 0.08685
 H167 H -0.22954 0.79912 0.07271
 H168 H -0.16698 0.82557 0.04086
 H169 H -0.29401 0.81075 0.11067
 H170 H -0.33451 0.93440 0.13387
 H171 H -0.15744 1.00649 0.05599
 H172 H -0.12115 0.88378 0.02356
 C173 C 0.74581 0.09425 0.59117
 C174 C 0.77600 0.10776 0.56369
 C175 C 0.81406 0.12065 0.57905
 C176 C 0.82187 0.12033 0.62155
 C177 C 0.79092 0.10710 0.64861
 C178 C 0.75303 0.09368 0.63358
 C179 C 0.70577 0.08057 0.57527
 C180 C 0.67584 0.06666 0.60282
 C181 C 0.63812 0.05309 0.58763
 C182 C 0.62991 0.05364 0.54522
 C183 C 0.66003 0.06834 0.51799
 C184 C 0.69823 0.08158 0.53289
 C185 C 0.72214 0.07989 0.66017
 C186 C 0.68424 0.06645 0.64503
 C187 C 0.76742 0.10827 0.52148
 C188 C 0.72917 0.09549 0.50635
 H189 H 0.72737 0.07933 0.69296
 H190 H 0.66130 0.05584 0.66656
 H191 H 0.79044 0.11870 0.49995
 H192 H 0.72384 0.09638 0.47360
 H193 H 0.83763 0.13105 0.55810
 H194 H 0.79614 0.10782 0.68138
 H195 H 0.61508 0.04215 0.60892
 H196 H 0.65406 0.06872 0.48532
 C197 C 0.41087 0.25018 0.40695
 C198 C 0.43823 0.27891 0.39034
 C199 C 0.42305 0.31671 0.37636
 C200 C 0.38071 0.32542 0.37811
 C201 C 0.35399 0.29634 0.39569
 C202 C 0.36885 0.25880 0.41006
 C203 C 0.42636 0.21005 0.42086
 C204 C 0.39880 0.18147 0.43731
 C205 C 0.41344 0.14341 0.45038
 C206 C 0.45536 0.13344 0.44703
 C207 C 0.48269 0.16240 0.43020
 C208 C 0.46828 0.20093 0.41719
 C209 C 0.34230 0.22940 0.42684
 C210 C 0.35704 0.19140 0.44032
 C211 C 0.48005 0.26890 0.38750
 C212 C 0.49480 0.23058 0.40062
 H213 H 0.30981 0.23574 0.42941
 H214 H 0.33553 0.16953 0.45300
 H215 H 0.50153 0.29076 0.37472
 H216 H 0.52722 0.22407 0.39766
 H217 H 0.44389 0.33905 0.36336
 H218 H 0.32140 0.30234 0.39716
 H219 H 0.39199 0.12145 0.46307
 H220 H 0.51499 0.15515 0.42761
 C221 C 0.90892 0.24749 0.59348
 C222 C 0.87115 0.24721 0.61414
 C223 C 0.85464 0.20979 0.62709
 C224 C 0.87621 0.17313 0.62057
 C225 C 0.91404 0.17372 0.60002
 C226 C 0.93039 0.21094 0.58587
 C227 C 0.92650 0.28685 0.57996
 C228 C 0.96380 0.28722 0.55843
 C229 C 0.98002 0.32484 0.54512
 C230 C 0.95969 0.36177 0.55436
 C231 C 0.92269 0.36076 0.57653
 C232 C 0.90567 0.32340 0.58892
 C233 C 0.96780 0.21252 0.56458
 C234 C 0.98406 0.24997 0.55082
 C235 C 0.85098 0.28438 0.62202
 C236 C 0.86808 0.32187 0.60984
 H237 H 0.98460 0.18456 0.55841
 H238 H 1.01288 0.24979 0.53435
 H239 H 0.82190 0.28451 0.63805
 H240 H 0.85167 0.34990 0.61674
 H241 H 0.82574 0.20903 0.64343
 H242 H 0.93048 0.14526 0.59527
 H243 H 1.00855 0.32550 0.52810
 H244 H 0.90661 0.38906 0.58325
 C245 C 0.09115 0.75422 -0.09423
 C246 C 0.06368 0.72402 -0.10776
 C247 C 0.07904 0.68597 -0.12064
 C248 C 0.12153 0.67816 -0.12032
 C249 C 0.14860 0.70910 -0.10708
 C250 C 0.13357 0.74699 -0.09366
 C251 C 0.07526 0.79425 -0.08056
 C252 C 0.10280 0.82418 -0.06665
 C253 C 0.08761 0.86190 -0.05308
 C254 C 0.04521 0.87011 -0.05363
 C255 C 0.01797 0.83999 -0.06833
 C256 C 0.03288 0.80180 -0.08157
 C257 C 0.16016 0.77788 -0.07987
 C258 C 0.14502 0.81578 -0.06643
 C259 C 0.02147 0.73261 -0.10827
 C260 C 0.00634 0.77086 -0.09549
 H261 H 0.19294 0.77266 -0.07930
 H262 H 0.16655 0.83872 -0.05582
 H263 H -0.00006 0.70959 -0.11870
 H264 H -0.02641 0.77619 -0.09638
 H265 H 0.05809 0.66240 -0.13104
 H266 H 0.18137 0.70388 -0.10780
 H267 H 0.10890 0.88494 -0.04214
 H268 H -0.01470 0.84597 -0.06872
 C269 C 0.58753 0.74727 1.09903
 C270 C 0.60394 0.77596 1.07148
 C271 C 0.62172 0.81196 1.08676
 C272 C 0.62468 0.81871 1.12932
 C273 C 0.60822 0.78935 1.15649
 C274 C 0.58908 0.75389 1.14149
 C275 C 0.56918 0.70914 1.08313
 C276 C 0.55239 0.68054 1.11063
 C277 C 0.53593 0.64380 1.09534
 C278 C 0.53781 0.63518 1.05316
 C279 C 0.55454 0.66419 1.02604
 C280 C 0.56979 0.70151 1.04080
 C281 C 0.57188 0.72468 1.16806
 C282 C 0.55356 0.68878 1.15288
 C283 C 0.60284 0.76777 1.02924
 C284 C 0.58638 0.73100 1.01418
 H285 H 0.57270 0.72953 1.20089
 H286 H 0.54085 0.66698 1.17445
 H287 H 0.61545 0.78964 1.00768
 H288 H 0.58683 0.72552 0.98143
 H289 H 0.63385 0.83451 1.06562
 H290 H 0.61066 0.79401 1.18927
 H291 H 0.52355 0.62114 1.11624
 H292 H 0.55597 0.65744 0.99353
 C293 C 0.40577 0.40885 1.24581
 C294 C 0.39226 0.43632 1.27601
 C295 C 0.37938 0.42096 1.31406
 C296 C 0.37969 0.37846 1.32187
 C297 C 0.39291 0.35140 1.29092
 C298 C 0.40633 0.36643 1.25304
 C299 C 0.41943 0.42474 1.20577
 C300 C 0.43334 0.39720 1.17584
 C301 C 0.44690 0.41238 1.13812
 C302 C 0.44635 0.45479 1.12991
 C303 C 0.43166 0.48203 1.16003
 C304 C 0.41843 0.46712 1.19823
 C305 C 0.42012 0.33984 1.22214
 C306 C 0.43355 0.35498 1.18424
 C307 C 0.39175 0.47853 1.26743
 C308 C 0.40453 0.49366 1.22918
 H309 H 0.42068 0.30706 1.22736
 H310 H 0.44415 0.33345 1.16130
 H311 H 0.38132 0.50006 1.29045
 H312 H 0.40363 0.52641 1.22384
 H313 H 0.36898 0.44191 1.33764
 H314 H 0.39219 0.31863 1.29614
 H315 H 0.45783 0.39109 1.11507
 H316 H 0.43128 0.51470 1.15406
 C317 C 0.59902 -0.08753 0.25274
 C318 C 0.64148 -0.08909 0.24612
 C319 C 0.65648 -0.10823 0.21066
 C320 C 0.62931 -0.12468 0.18130
 C321 C 0.58674 -0.12173 0.18806
 C322 C 0.57147 -0.10395 0.22406
 C323 C 0.58312 -0.06918 0.29088
 C324 C 0.54079 -0.06980 0.29851
 C325 C 0.52603 -0.05455 0.33583
 C326 C 0.55316 -0.03782 0.36483
 C327 C 0.59533 -0.03594 0.35621
 C328 C 0.61063 -0.05239 0.31947
 C329 C 0.52923 -0.10285 0.23226
 C330 C 0.51416 -0.08639 0.26903
 C331 C 0.66805 -0.07188 0.27533
 C332 C 0.65288 -0.05356 0.31123
 H333 H 0.50767 -0.11546 0.21038
 H334 H 0.48142 -0.08684 0.27451
 H335 H 0.70088 -0.07270 0.27048
 H336 H 0.67444 -0.04085 0.33303
 H337 H 0.68926 -0.11066 0.20600
 H338 H 0.56560 -0.13386 0.16551
 H339 H 0.49353 -0.05598 0.34259
 H340 H 0.61624 -0.02355 0.37887
 C341 C -0.09307 1.08916 -0.25017
 C342 C -0.10965 1.06179 -0.27890
 C343 C -0.12363 1.07698 -0.31670
 C344 C -0.12190 1.11932 -0.32541
 C345 C -0.10434 1.14604 -0.29632
 C346 C -0.08997 1.13118 -0.25878
 C347 C -0.07916 1.07367 -0.21004
 C348 C -0.06273 1.10122 -0.18145
 C349 C -0.04966 1.08658 -0.14339
 C350 C -0.05299 1.04467 -0.13343
 C351 C -0.06981 1.01734 -0.16239
 C352 C -0.08282 1.03175 -0.20092
 C353 C -0.07320 1.15773 -0.22937
 C354 C -0.05973 1.14299 -0.19137
 C355 C -0.11249 1.01997 -0.26890
 C356 C -0.09937 1.00522 -0.23058
 H357 H -0.07064 1.19022 -0.23571
 H358 H -0.04706 1.16451 -0.16949
 H359 H -0.12525 0.99849 -0.29077
 H360 H -0.10232 0.97280 -0.22408
 H361 H -0.13662 1.05614 -0.33905
 H362 H -0.10288 1.17863 -0.30232
 H363 H -0.03698 1.10804 -0.12142
 H364 H -0.07239 0.98504 -0.15515
 C365 C 1.09348 0.59110 0.75253
 C366 C 1.08586 0.56964 0.78908
 C367 C 1.10001 0.58598 0.82630
 C368 C 1.12056 0.62382 0.82688
 C369 C 1.12708 0.64538 0.79022
 C370 C 1.11414 0.62888 0.75281
 C371 C 1.07996 0.57352 0.71316
 C372 C 1.08892 0.59435 0.67662
 C373 C 1.07654 0.57733 0.63925
 C374 C 1.05437 0.54033 0.63825
 C375 C 1.04512 0.52000 0.67517
 C376 C 1.05843 0.53622 0.71280
 C377 C 1.12203 0.64904 0.71564
 C378 C 1.10984 0.63194 0.67814
 C379 C 1.06457 0.53223 0.78750
 C380 C 1.05081 0.51597 0.75005
 H381 H 1.13805 0.67812 0.71550
 H382 H 1.11675 0.64834 0.65012
 H383 H 1.05839 0.51543 0.81545
 H384 H 1.03434 0.48715 0.75023
 H385 H 1.09525 0.56955 0.85475
 H386 H 1.14343 0.67428 0.79099
 H387 H 1.08326 0.59340 0.61096
 H388 H 1.02810 0.49148 0.67452
 C389 C 0.75499 0.59497 0.58752
 C390 C 0.74391 0.63563 0.57908
 C391 C 0.70780 0.65152 0.59618
 C392 C 0.68238 0.62679 0.62102
 C393 C 0.69350 0.58556 0.62780
 C394 C 0.73004 0.56976 0.61183
 C395 C 0.79395 0.57873 0.57142
 C396 C 0.80593 0.53870 0.58162
 C397 C 0.84384 0.52406 0.56788
 C398 C 0.86926 0.54881 0.54338
 C399 C 0.85633 0.58843 0.53231
 C400 C 0.81890 0.60384 0.54689
 C401 C 0.74254 0.52948 0.62042
 C402 C 0.78000 0.51430 0.60580
 C403 C 0.76955 0.65980 0.55429
 C404 C 0.80627 0.64408 0.53824
 H405 H 0.72353 0.50975 0.63917
 H406 H 0.78884 0.48328 0.61368
 H407 H 0.76126 0.69120 0.54740
 H408 H 0.82523 0.66379 0.51942
 H409 H 0.70010 0.68336 0.59090
 H410 H 0.67410 0.56594 0.64625
 H411 H 0.85361 0.49340 0.57617
 H412 H 0.87602 0.60763 0.51368
 C413 C 0.74712 0.40282 1.09116
 C414 C 0.78044 0.42968 1.09593
 C415 C 0.81669 0.41514 1.11396
 C416 C 0.81950 0.37417 1.12705
 C417 C 0.78603 0.34758 1.12153
 C418 C 0.74967 0.36177 1.10380
 C419 C 0.70862 0.41808 1.07314
 C420 C 0.67509 0.39141 1.06928
 C421 C 0.63817 0.40632 1.05329
 C422 C 0.63459 0.44758 1.04108
 C423 C 0.66883 0.47374 1.04443
 C424 C 0.70587 0.45918 1.06072
 C425 C 0.71565 0.33588 1.09891
 C426 C 0.67894 0.35048 1.08200
 C427 C 0.77665 0.47052 1.08286
 C428 C 0.74002 0.48501 1.06550
 H429 H 0.71730 0.30415 1.10854
 H430 H 0.65329 0.32960 1.07909
 H431 H 0.80213 0.49153 1.08629
 H432 H 0.73831 0.51679 1.05606
 H433 H 0.84265 0.43544 1.11802
 H434 H 0.78824 0.31608 1.13181
 H435 H 0.61212 0.38587 1.05072
 H436 H 0.66638 0.50558 1.03530
 C437 C 0.24396 1.10460 -0.09058
 C438 C 0.27569 1.07689 -0.09943
 C439 C 0.31154 1.09136 -0.11816
 C440 C 0.31589 1.13320 -0.12745
 C441 C 0.28412 1.16070 -0.11776
 C442 C 0.24785 1.14648 -0.09967
 C443 C 0.20565 1.08935 -0.07213
 C444 C 0.17333 1.11678 -0.06470
 C445 C 0.13635 1.10181 -0.04869
 C446 C 0.13183 1.05984 -0.03968
 C447 C 0.16496 1.03297 -0.04635
 C448 C 0.20178 1.04748 -0.06303
 C449 C 0.21517 1.17313 -0.09105
 C450 C 0.17846 1.15850 -0.07403
 C451 C 0.27077 1.03526 -0.08968
 C452 C 0.23449 1.02083 -0.07162
 H453 H 0.21780 1.20550 -0.09795
 H454 H 0.15381 1.17999 -0.06833
 H455 H 0.29508 1.01362 -0.09623
 H456 H 0.23184 0.98845 -0.06479
 H457 H 0.33615 1.07031 -0.12550
 H458 H 0.28741 1.19287 -0.12530
 H459 H 0.11105 1.12270 -0.04354
 H460 H 0.16164 1.00056 -0.03986
 C461 C 0.25220 -0.10239 0.40619
 C462 C 0.21860 -0.07571 0.40265
 C463 C 0.18186 -0.09041 0.38596
 C464 C 0.17857 -0.13149 0.37348
 C465 C 0.21243 -0.15787 0.37722
 C466 C 0.24946 -0.14342 0.39347
 C467 C 0.29108 -0.08698 0.42325
 C468 C 0.32492 -0.11341 0.42601
 C469 C 0.36209 -0.09835 0.44143
 C470 C 0.36544 -0.05727 0.45433
 C471 C 0.33094 -0.03140 0.45189
 C472 C 0.29378 -0.04602 0.43609
 C473 C 0.28385 -0.16905 0.39708
 C474 C 0.32098 -0.15427 0.41298
 C475 C 0.22247 -0.03493 0.41584
 C476 C 0.25940 -0.02035 0.43239
 H477 H 0.28210 -0.20074 0.38735
 H478 H 0.34685 -0.17497 0.41501
 H479 H 0.19675 -0.01409 0.41333
 H480 H 0.26113 0.01133 0.44214
 H481 H 0.15564 -0.07026 0.38291
 H482 H 0.20982 -0.18939 0.36710
 H483 H 0.38840 -0.11855 0.44326
 H484 H 0.33323 0.00033 0.46147
 C485 C 0.59115 -0.24713 0.59720
 C486 C 0.59592 -0.28045 0.57034
 C487 C 0.61395 -0.31669 0.58488
 C488 C 0.62703 -0.31951 0.62585
 C489 C 0.62151 -0.28604 0.65245
 C490 C 0.60378 -0.24968 0.63825
 C491 C 0.57312 -0.20863 0.58194
 C492 C 0.56926 -0.17509 0.60861
 C493 C 0.55328 -0.13817 0.59370
 C494 C 0.54107 -0.13460 0.55243
 C495 C 0.54442 -0.16883 0.52628
 C496 C 0.56072 -0.20588 0.54084
 C497 C 0.59889 -0.21566 0.66414
 C498 C 0.58198 -0.17895 0.64955
 C499 C 0.58286 -0.27665 0.52950
 C500 C 0.56550 -0.24002 0.51501
 H501 H 0.60851 -0.21732 0.69587
 H502 H 0.57906 -0.15330 0.67042
 H503 H 0.58629 -0.30213 0.50849
 H504 H 0.55606 -0.23831 0.48323
 H505 H 0.61801 -0.34265 0.56458
 H506 H 0.63179 -0.28825 0.68395
 H507 H 0.55071 -0.11213 0.61415
 H508 H 0.53531 -0.16638 0.49444
 C509 C 1.08751 0.74503 0.40504
 C510 C 1.11181 0.76998 0.43025
 C511 C 1.12778 0.80652 0.41445
 C512 C 1.12101 0.81764 0.37321
 C513 C 1.09618 0.79221 0.34848
 C514 C 1.07907 0.75611 0.36437
 C515 C 1.07141 0.70607 0.42128
 C516 C 1.04688 0.68112 0.39617
 C517 C 1.03231 0.64369 0.41159
 C518 C 1.04338 0.63076 0.45121
 C519 C 1.06788 0.65618 0.47596
 C520 C 1.08162 0.69409 0.46131
 C521 C 1.05429 0.73046 0.34021
 C522 C 1.03823 0.69374 0.35593
 C523 C 1.12040 0.75749 0.47053
 C524 C 1.10579 0.72002 0.48571
 H525 H 1.04740 0.73875 0.30881
 H526 H 1.01942 0.67478 0.33622
 H527 H 1.13915 0.77650 0.49026
 H528 H 1.11367 0.71119 0.51673
 H529 H 1.14623 0.82593 0.43407
 H530 H 1.09089 0.79991 0.31665
 H531 H 1.01368 0.62399 0.39238
 H532 H 1.07616 0.64642 0.50662
 C533 C -0.09382 1.24782 0.10242
 C534 C -0.09737 1.28141 0.07574
 C535 C -0.11406 1.31816 0.09044
 C536 C -0.12653 1.32144 0.13151
 C537 C -0.12279 1.28758 0.15790
 C538 C -0.10653 1.25055 0.14345
 C539 C -0.07677 1.20893 0.08701
 C540 C -0.07400 1.17509 0.11344
 C541 C -0.05858 1.13792 0.09838
 C542 C -0.04569 1.13458 0.05729
 C543 C -0.04813 1.16907 0.03141
 C544 C -0.06393 1.20624 0.04604
 C545 C -0.10292 1.21617 0.16908
 C546 C -0.08702 1.17903 0.15429
 C547 C -0.08418 1.27754 0.03495
 C548 C -0.06764 1.24061 0.02038
 H549 H -0.11264 1.21792 0.20077
 H550 H -0.08499 1.15317 0.17500
 H551 H -0.08670 1.30326 0.01411
 H552 H -0.05789 1.23888 -0.01132
 H553 H -0.11711 1.34437 0.07029
 H554 H -0.13290 1.29020 0.18942
 H555 H -0.05675 1.11162 0.11857
 H556 H -0.03856 1.16678 -0.00031
 C557 C 0.40941 0.25604 0.89541
 C558 C 0.40056 0.22431 0.92313
 C559 C 0.38183 0.18847 0.90866
 C560 C 0.37255 0.18411 0.86681
 C561 C 0.38224 0.21588 0.83931
 C562 C 0.40033 0.25214 0.85353
 C563 C 0.42786 0.29435 0.91067
 C564 C 0.43529 0.32667 0.88324
 C565 C 0.45130 0.36365 0.89821
 C566 C 0.46030 0.36817 0.94018
 C567 C 0.45363 0.33504 0.96705
 C568 C 0.43695 0.29822 0.95254
 C569 C 0.40895 0.28483 0.82688
 C570 C 0.42597 0.32154 0.84151
 C571 C 0.41030 0.22924 0.96476
 C572 C 0.42835 0.26551 0.97919
 H573 H 0.40206 0.28219 0.79451
 H574 H 0.43167 0.34619 0.82002
 H575 H 0.40374 0.20493 0.98639
 H576 H 0.43518 0.26817 1.01157
 H577 H 0.37448 0.16385 0.92970
 H578 H 0.37471 0.21259 0.80714
 H579 H 0.45646 0.38895 0.87732
 H580 H 0.46011 0.33837 0.99946
 C581 C 0.60240 0.59381 0.75221
 C582 C 0.57573 0.59735 0.71860
 C583 C 0.59043 0.61404 0.68186
 C584 C 0.63150 0.62653 0.67858
 C585 C 0.65788 0.62279 0.71245
 C586 C 0.64343 0.60654 0.74947
 C587 C 0.58699 0.57676 0.79109
 C588 C 0.61342 0.57401 0.82493
 C589 C 0.59835 0.55859 0.86210
 C590 C 0.55728 0.54569 0.86544
 C591 C 0.53140 0.54811 0.83095
 C592 C 0.54602 0.56391 0.79378
 C593 C 0.66906 0.60294 0.78386
 C594 C 0.65427 0.58705 0.82100
 C595 C 0.53494 0.58415 0.72247
 C596 C 0.52037 0.56760 0.75940
 H597 H 0.70075 0.61268 0.78212
 H598 H 0.67497 0.58503 0.84687
 H599 H 0.51411 0.58665 0.69675
 H600 H 0.48868 0.55784 0.76113
 H601 H 0.57028 0.61708 0.65564
 H602 H 0.68940 0.63292 0.70983
 H603 H 0.61854 0.55677 0.88841
 H604 H 0.49968 0.53853 0.83323
 C605 C 0.39541 0.09058 0.74398
 C606 C 0.42312 0.09944 0.77571
 C607 C 0.40865 0.11817 0.81155
 C608 C 0.36680 0.12745 0.81590
 C609 C 0.33931 0.11777 0.78414
 C610 C 0.35352 0.09967 0.74787
 C611 C 0.41066 0.07213 0.70567
 C612 C 0.38323 0.06471 0.67335
 C613 C 0.39820 0.04870 0.63637
 C614 C 0.44018 0.03969 0.63185
 C615 C 0.46705 0.04636 0.66498
 C616 C 0.45253 0.06304 0.70180
 C617 C 0.32687 0.09105 0.71518
 C618 C 0.34151 0.07403 0.67847
 C619 C 0.46475 0.08969 0.77078
 C620 C 0.47918 0.07164 0.73451
 H621 H 0.29451 0.09795 0.71782
 H622 H 0.32002 0.06833 0.65382
 H623 H 0.48639 0.09625 0.79509
 H624 H 0.51156 0.06480 0.73186
 H625 H 0.42970 0.12551 0.83616
 H626 H 0.30713 0.12530 0.78742
 H627 H 0.37731 0.04354 0.61107
 H628 H 0.49946 0.03987 0.66166
 C629 C 0.09719 0.90887 0.24714
 C630 C 0.13824 0.89623 0.24968
 C631 C 0.15243 0.87851 0.28605
 C632 C 0.12584 0.87298 0.31951
 C633 C 0.08487 0.88607 0.31669
 C634 C 0.07033 0.90409 0.28045
 C635 C 0.08192 0.92689 0.20863
 C636 C 0.04082 0.93930 0.20589
 C637 C 0.02626 0.95559 0.16884
 C638 C 0.05241 0.95894 0.13460
 C639 C 0.09368 0.94674 0.13818
 C640 C 0.10859 0.93076 0.17510
 C641 C 0.02948 0.91715 0.27666
 C642 C 0.01499 0.93451 0.24003
 C643 C 0.16413 0.90113 0.21566
 C644 C 0.14953 0.91804 0.17896
 H645 H 0.00847 0.91373 0.30214
 H646 H -0.01679 0.94395 0.23832
 H647 H 0.19586 0.89151 0.21732
 H648 H 0.17040 0.92095 0.15330
 H649 H 0.18394 0.86823 0.28825
 H650 H 0.06457 0.88200 0.34266
 H651 H -0.00558 0.96471 0.16639
 H652 H 0.11413 0.94931 0.11213
 C653 C 0.90504 0.41250 0.25500
 C654 C 0.93025 0.38820 0.23005
 C655 C 0.91444 0.37223 0.19351
 C656 C 0.87321 0.37901 0.18239
 C657 C 0.84848 0.40384 0.20781
 C658 C 0.86437 0.42095 0.24391
 C659 C 0.92128 0.42861 0.29396
 C660 C 0.89618 0.45314 0.31890
 C661 C 0.91159 0.46771 0.35633
 C662 C 0.95121 0.45664 0.36926
 C663 C 0.97596 0.43214 0.34384
 C664 C 0.96131 0.41840 0.30593
 C665 C 0.84021 0.44573 0.26956
 C666 C 0.85593 0.46179 0.30628
 C667 C 0.97053 0.37961 0.24254
 C668 C 0.98571 0.39422 0.28000
 H669 H 0.80881 0.45262 0.26128
 H670 H 0.83622 0.48060 0.32524
 H671 H 0.99026 0.36086 0.22353
 H672 H 1.01673 0.38634 0.28883
 H673 H 0.93406 0.35378 0.17410
 H674 H 0.81664 0.40913 0.20012
 H675 H 0.89238 0.48634 0.37602
 H676 H 1.00662 0.42385 0.35360
   
