data_POSCAR
  _audit_creation_date              2014-09-24
  _audit_creation_method            'ToBaCCo'
  _symmetry_space_group_name_H-M    'P1'
  _symmetry_Int_Tables_number       1
  _symmetry_cell_setting            triclinic
  loop_
  _symmetry_equiv_pos_as_xyz
 x,y,z
_cell_length_a 32.9080
_cell_length_b 32.1865
_cell_length_c 7.7283
_cell_angle_alpha 89.608500
_cell_angle_beta 89.811900
_cell_angle_gamma 90.110000
loop_
  _atom_site_label
  _atom_site_type_symbol
  _atom_site_fract_x
  _atom_site_fract_y
  _atom_site_fract_z
C1 C 0.36976 0.21837 0.43892
 C2 C 0.36922 0.26091 0.43921
 C3 C 0.33318 0.27271 0.36122
 N4 N 0.31188 0.23889 0.31170
 C5 C 0.33420 0.20553 0.35878
 C6 C 0.32229 0.31416 0.32405
 C7 C 0.28350 0.32619 0.26494
 C8 C 0.27393 0.36559 0.20463
 C9 C 0.23301 0.36557 0.17075
 C10 C 0.21871 0.32593 0.20907
 N11 N 0.24966 0.30230 0.26828
 C12 C 0.17757 0.31344 0.19895
 C13 C 0.16443 0.27147 0.20391
 C14 C 0.12419 0.25897 0.19393
 C15 C 0.12422 0.21644 0.19534
 C16 C 0.16453 0.20401 0.20658
 N17 N 0.18902 0.23783 0.20958
 C18 C 0.17804 0.16218 0.19758
 C19 C 0.21941 0.14994 0.21676
 C20 C 0.23398 0.11015 0.18624
 C21 C 0.27491 0.11078 0.21826
 C22 C 0.28454 0.15055 0.27292
 N23 N 0.25037 0.17406 0.27360
 C24 C 0.32419 0.16364 0.32205
 H25 H 0.39381 0.19905 0.49035
 H26 H 0.39277 0.28090 0.48990
 H27 H 0.24769 0.20367 0.32378
 H28 H 0.29419 0.39191 0.18921
 H29 H 0.21595 0.39203 0.12423
 H30 H 0.09749 0.27839 0.18317
 H31 H 0.09747 0.19706 0.18535
 H32 H 0.29520 0.08463 0.20334
 H33 H 0.24696 0.27330 0.32640
 H34 H 0.21706 0.08319 0.14474
 C35 C 0.62344 0.21797 0.27700
 C36 C 0.62329 0.26049 0.27337
 C37 C 0.66345 0.27304 0.25782
 N38 N 0.68809 0.23947 0.25327
 C39 C 0.66372 0.20562 0.26245
 C40 C 0.67653 0.31499 0.25709
 C41 C 0.71761 0.32749 0.24282
 C42 C 0.73200 0.36709 0.27834
 C43 C 0.77294 0.36695 0.24377
 C44 C 0.78239 0.32749 0.18545
 N45 N 0.74845 0.30377 0.18371
 C46 C 0.82129 0.31524 0.12785
 C47 C 0.83204 0.27393 0.08986
 C48 C 0.86846 0.26205 0.01465
 C49 C 0.86875 0.21947 0.01583
 C50 C 0.83258 0.20684 0.09248
 N51 N 0.81027 0.24018 0.13777
 C52 C 0.82243 0.16524 0.13277
 C53 C 0.78344 0.15227 0.18973
 C54 C 0.77414 0.11228 0.24425
 C55 C 0.73331 0.11162 0.28064
 C56 C 0.71862 0.15154 0.25130
 N57 N 0.74936 0.17578 0.19202
 C58 C 0.67736 0.16383 0.27255
 H59 H 0.59679 0.19853 0.29221
 H60 H 0.59661 0.27989 0.28454
 H61 H 0.74645 0.20544 0.14120
 H62 H 0.71501 0.39356 0.32428
 H63 H 0.79327 0.39319 0.25749
 H64 H 0.89254 0.28200 -0.03364
 H65 H 0.89313 0.20004 -0.03146
 H66 H 0.71645 0.08448 0.32274
 H67 H 0.74560 0.27479 0.12738
 H68 H 0.79449 0.08601 0.25420
 C69 C 0.86960 0.75995 0.92575
 C70 C 0.86868 0.71737 0.92637
 C71 C 0.83471 0.70586 0.83249
 N72 N 0.81490 0.73992 0.77431
 C73 C 0.83617 0.77305 0.83118
 C74 C 0.82399 0.66451 0.79313
 C75 C 0.78651 0.65324 0.71758
 C76 C 0.77781 0.61428 0.65182
 C77 C 0.73734 0.61434 0.60902
 C78 C 0.72245 0.65362 0.64676
 N79 N 0.75261 0.67691 0.71499
 C80 C 0.68146 0.66617 0.62547
 C81 C 0.66827 0.70786 0.63892
 C82 C 0.62807 0.72048 0.63028
 C83 C 0.62824 0.76292 0.64132
 C84 C 0.66855 0.77504 0.65551
 N85 N 0.69298 0.74134 0.65186
 C86 C 0.68197 0.81682 0.66176
 C87 C 0.72326 0.82871 0.67483
 C88 C 0.73813 0.86809 0.63703
 C89 C 0.77909 0.86737 0.67038
 C90 C 0.78814 0.82788 0.73241
 N91 N 0.75383 0.80453 0.73448
 C92 C 0.82708 0.81501 0.79080
 H93 H 0.89231 0.77912 0.98762
 H94 H 0.89059 0.69721 0.98852
 H95 H 0.75047 0.77535 0.79063
 H96 H 0.79825 0.58813 0.64008
 H97 H 0.72087 0.58809 0.55769
 H98 H 0.60129 0.70128 0.61607
 H99 H 0.60163 0.78257 0.63637
 H100 H 0.79974 0.89326 0.65255
 H101 H 0.74923 0.70534 0.77568
 H102 H 0.72146 0.89468 0.58913
 C103 C 0.12454 0.71828 0.83031
 C104 C 0.12405 0.76079 0.82754
 C105 C 0.16387 0.77378 0.80185
 N106 N 0.18856 0.74028 0.79125
 C107 C 0.16467 0.70622 0.80676
 C108 C 0.17683 0.81594 0.80292
 C109 C 0.21769 0.82909 0.77492
 C110 C 0.23125 0.86993 0.78696
 C111 C 0.27198 0.86991 0.74868
 C112 C 0.28235 0.82928 0.71083
 N113 N 0.24904 0.80479 0.72514
 C114 C 0.32159 0.81654 0.65840
 C115 C 0.33308 0.77501 0.62695
 C116 C 0.37002 0.76322 0.55617
 C117 C 0.37026 0.72066 0.55495
 C118 C 0.33361 0.70781 0.62661
 N119 N 0.31103 0.74109 0.67082
 C120 C 0.32303 0.66599 0.66121
 C121 C 0.28432 0.65303 0.72189
 C122 C 0.27545 0.61319 0.77929
 C123 C 0.23490 0.61260 0.82175
 C124 C 0.21990 0.65236 0.79167
 N125 N 0.25020 0.67650 0.72736
 C126 C 0.17867 0.66450 0.81622
 H127 H 0.09831 0.69863 0.85276
 H128 H 0.09742 0.77985 0.84746
 H129 H 0.24683 0.70583 0.67380
 H130 H 0.21369 0.89725 0.81819
 H131 H 0.29153 0.89699 0.74577
 H132 H 0.39440 0.78319 0.51095
 H133 H 0.39490 0.70141 0.50890
 H134 H 0.21844 0.58566 0.86877
 H135 H 0.24727 0.77395 0.69089
 H136 H 0.29597 0.58705 0.78841
 O137 O 1.03953 -0.05821 0.06938
 O138 O 0.96216 0.02063 0.16316
 O139 O 0.96040 -0.05735 0.07100
 O140 O 1.04168 0.01730 0.17653
 O141 O 1.04112 0.03827 -0.09549
 O142 O 0.96433 -0.04003 -0.20565
 O143 O 0.96211 0.03802 -0.11371
 O144 O 1.04342 -0.03729 -0.20263
 Cu145 Cu 1.00040 -0.02160 0.14704
 Cu146 Cu 1.00259 0.00204 -0.18098
 C147 C 1.05587 -0.06018 -0.07930
 C148 C 0.94900 0.04292 0.03911
 C149 C 0.94940 -0.06226 -0.08455
 C150 C 1.05604 0.03995 0.05542
 O151 O 0.54004 0.44365 0.51484
 O152 O 0.46434 0.52235 0.63655
 O153 O 0.46178 0.44465 0.54205
 O154 O 0.54407 0.52007 0.61788
 O155 O 0.53942 0.54103 0.34681
 O156 O 0.45845 0.46412 0.26857
 O157 O 0.46004 0.54183 0.36340
 O158 O 0.53783 0.46456 0.24332
 Cu159 Cu 0.50270 0.48092 0.60350
 Cu160 Cu 0.49838 0.50520 0.27907
 C161 C 0.55198 0.44036 0.35900
 C162 C 0.44926 0.54560 0.52010
 C163 C 0.44683 0.44059 0.39211
 C164 C 0.55654 0.54281 0.49350
 O165 O -0.03707 0.44335 -0.08747
 O166 O 0.04438 0.51925 -0.16856
 O167 O 0.04105 0.44262 -0.06054
 O168 O -0.03578 0.52059 -0.18317
 O169 O -0.04055 0.53840 0.09116
 O170 O 0.03925 0.46338 0.21013
 O171 O 0.03926 0.53998 0.10162
 O172 O -0.03985 0.46143 0.18711
 Cu173 Cu 0.00354 0.47982 -0.15072
 Cu174 Cu -0.00082 0.50328 0.17392
 C175 C -0.05183 0.43875 0.06307
 C176 C 0.05645 0.54201 -0.04534
 C177 C 0.05319 0.43923 0.09489
 C178 C -0.05243 0.54163 -0.06412
 O179 O 0.54311 1.01785 0.30536
 O180 O 0.46207 0.94303 0.41143
 O181 O 0.46357 1.02084 0.31194
 O182 O 0.54070 0.94219 0.42036
 O183 O 0.54161 0.96372 0.69026
 O184 O 0.46201 1.03993 0.58578
 O185 O 0.46199 0.96281 0.68372
 O186 O 0.54109 1.03949 0.57513
 Cu187 Cu 0.50216 0.97895 0.33606
 Cu188 Cu 0.50162 1.00379 0.66036
 C189 C 0.55661 1.04094 0.42470
 C190 C 0.44873 0.93933 0.56494
 C191 C 0.44957 1.04369 0.43161
 C192 C 0.55455 0.93949 0.57332
 C193 C 1.14831 0.11169 -0.00811
 C194 C 1.14903 0.13133 0.15606
 C195 C 1.12061 0.11937 0.28273
 C196 C 1.09158 0.08895 0.24938
 C197 C 1.09020 0.06899 0.08885
 C198 C 1.12004 0.07899 -0.03912
 C199 C 1.17504 0.12412 -0.14270
 C200 C 1.17603 0.10291 -0.29915
 C201 C 1.15075 0.06888 -0.32448
 C202 C 1.12320 0.05679 -0.19613
 H203 H 1.19561 0.15009 -0.12755
 H204 H 1.19695 0.11252 -0.40029
 H205 H 1.15238 0.05180 -0.44461
 H206 H 1.10539 0.02929 -0.22076
 H207 H 1.12072 0.13404 0.40863
 H208 H 1.06947 0.08154 0.34928
 C209 C 0.64845 0.61483 0.41862
 C210 C 0.65052 0.63382 0.58327
 C211 C 0.62325 0.62157 0.71331
 C212 C 0.59363 0.59164 0.68226
 C213 C 0.59072 0.57226 0.52074
 C214 C 0.61957 0.58255 0.38919
 C215 C 0.67516 0.62676 0.28366
 C216 C 0.67550 0.60546 0.12742
 C217 C 0.64926 0.57212 0.10251
 C218 C 0.62153 0.56069 0.23127
 H219 H 0.69646 0.65212 0.29901
 H220 H 0.69664 0.61447 0.02613
 H221 H 0.65038 0.55499 -0.01752
 H222 H 0.60281 0.53380 0.20687
 H223 H 0.62445 0.63603 0.83935
 H224 H 0.57232 0.58408 0.78510
 C225 C -0.11633 0.34985 0.25176
 C226 C -0.14613 0.34708 0.12076
 C227 C -0.14469 0.37405 -0.02150
 C228 C -0.11398 0.40359 -0.03637
 C229 C -0.08380 0.40702 0.09053
 C230 C -0.08447 0.37957 0.23523
 C231 C -0.11730 0.32326 0.39803
 C232 C -0.08677 0.32496 0.52221
 C233 C -0.05477 0.35290 0.50279
 C234 C -0.05353 0.37982 0.36086
 H235 H -0.14146 0.30084 0.41725
 H236 H -0.08768 0.30417 0.63275
 H237 H -0.03067 0.35360 0.59752
 H238 H -0.02782 0.40016 0.34918
 H239 H -0.16748 0.37206 -0.12188
 H240 H -0.11387 0.42414 -0.14799
 C241 C 0.38153 0.85565 0.78170
 C242 C 0.35383 0.84873 0.64514
 C243 C 0.35752 0.87122 0.49087
 C244 C 0.38833 0.90039 0.46955
 C245 C 0.41668 0.90789 0.60131
 C246 C 0.41377 0.88483 0.75896
 C247 C 0.37807 0.83357 0.93978
 C248 C 0.40645 0.83912 1.07093
 C249 C 0.43886 0.86631 1.04667
 C250 C 0.44268 0.88874 0.89249
 H251 H 0.35354 0.81178 0.96319
 H252 H 0.40352 0.82190 1.19113
 H253 H 0.46128 0.86994 1.14762
 H254 H 0.46889 0.90836 0.87929
 H255 H 0.33651 0.86587 0.38565
 H256 H 0.38998 0.91734 0.34809
 C257 C -0.15301 0.60049 -0.03949
 C258 C -0.14600 0.63111 -0.16884
 C259 C -0.11000 0.63009 -0.26617
 C260 C -0.08051 0.60006 -0.23423
 C261 C -0.08627 0.57005 -0.10466
 C262 C -0.12335 0.56911 -0.01006
 C263 C -0.18891 0.60041 0.06139
 C264 C -0.19639 0.56885 0.18168
 C265 C -0.16825 0.53711 0.20499
 C266 C -0.13201 0.53717 0.11095
 H267 H -0.21164 0.62441 0.04738
 H268 H -0.22437 0.56882 0.25570
 H269 H -0.17452 0.51228 0.29643
 H270 H -0.11134 0.51158 0.13193
 H271 H -0.10447 0.65326 -0.36584
 H272 H -0.05245 0.60097 -0.30788
 C273 C 0.39197 1.13577 0.23626
 C274 C 0.35537 1.13342 0.33529
 C275 C 0.35082 1.10134 0.45789
 C276 C 0.38169 1.07270 0.48645
 C277 C 0.41811 1.07487 0.39298
 C278 C 0.42385 1.10680 0.26839
 C279 C 0.39730 1.16570 0.10319
 C280 C 0.43399 1.16885 0.01333
 C281 C 0.46584 1.14201 0.05177
 C282 C 0.46093 1.11114 0.17743
 H283 H 0.37322 1.18686 0.06710
 H284 H 0.43776 1.19236 -0.08624
 H285 H 0.49443 1.14491 -0.01699
 H286 H 0.48653 1.09105 0.20320
 H287 H 0.32346 1.09914 0.53601
 H288 H 0.37715 1.04858 0.58318
 C289 C 1.14760 -0.13079 -0.00297
 C290 C 1.14754 -0.15329 -0.16056
 C291 C 1.11875 -0.14356 -0.28797
 C292 C 1.09009 -0.11250 -0.26145
 C293 C 1.08953 -0.08981 -0.10751
 C294 C 1.11959 -0.09765 0.02042
 C295 C 1.17483 -0.14072 0.13240
 C296 C 1.17629 -0.11682 0.28189
 C297 C 1.15104 -0.08250 0.29899
 C298 C 1.12312 -0.07276 0.16971
 H299 H 1.19536 -0.16684 0.12328
 H300 H 1.19758 -0.12454 0.38357
 H301 H 1.15307 -0.06330 0.41304
 H302 H 1.10514 -0.04505 0.18674
 H303 H 1.11849 -0.16025 -0.40925
 H304 H 1.06766 -0.10668 -0.36095
 C305 C 0.61882 0.35778 0.13284
 C306 C 0.64509 0.34797 0.27184
 C307 C 0.64058 0.36834 0.42962
 C308 C 0.61096 0.39857 0.45111
 C309 C 0.58366 0.40867 0.31794
 C310 C 0.58724 0.38756 0.15661
 C311 C 0.62271 0.33755 -0.02824
 C312 C 0.59490 0.34473 -0.16024
 C313 C 0.56331 0.37262 -0.13579
 C314 C 0.55959 0.39382 0.02018
 H315 H 0.64684 0.31555 -0.05277
 H316 H 0.59764 0.32828 -0.28140
 H317 H 0.54150 0.37782 -0.23811
 H318 H 0.53435 0.41424 0.03305
 H319 H 0.66037 0.36084 0.53720
 H320 H 0.60930 0.41414 0.57472
 C321 C 0.89608 -0.15688 -0.27747
 C322 C 0.85804 -0.15467 -0.18890
 C323 C 0.85140 -0.12213 -0.07187
 C324 C 0.88142 -0.09272 -0.03965
 C325 C 0.91901 -0.09448 -0.12417
 C326 C 0.92697 -0.12704 -0.24179
 C327 C 0.90376 -0.18732 -0.40457
 C328 C 0.94167 -0.19007 -0.48473
 C329 C 0.97252 -0.16243 -0.44190
 C330 C 0.96535 -0.13108 -0.32228
 H331 H 0.88061 -0.20921 -0.44346
 H332 H 0.94720 -0.21395 -0.57983
 H333 H 1.00210 -0.16509 -0.50249
 H334 H 0.99025 -0.11038 -0.29274
 H335 H 0.82295 -0.12005 -0.00133
 H336 H 0.87523 -0.06824 0.05237
 C337 C 0.38394 0.35116 0.20076
 C338 C 0.35455 0.34643 0.33346
 C339 C 0.35587 0.37215 0.47832
 C340 C 0.38590 0.40242 0.49367
 C341 C 0.41543 0.40814 0.36417
 C342 C 0.41493 0.38185 0.21686
 C343 C 0.38329 0.32564 0.05271
 C344 C 0.41320 0.32937 -0.07425
 C345 C 0.44421 0.35837 -0.05623
 C346 C 0.44516 0.38425 0.08754
 H347 H 0.35982 0.30253 0.03392
 H348 H 0.41249 0.30945 -0.18641
 H349 H 0.46771 0.36081 -0.15402
 H350 H 0.47005 0.40561 0.09671
 H351 H 0.33349 0.36861 0.58047
 H352 H 0.38594 0.42178 0.60777
 C353 C 0.14857 0.61356 0.02300
 C354 C 0.14989 0.63339 -0.14182
 C355 C 0.12167 0.62210 -0.26856
 C356 C 0.09241 0.59189 -0.23527
 C357 C 0.09032 0.57170 -0.07428
 C358 C 0.11953 0.58142 0.05508
 C359 C 0.17531 0.62527 0.15712
 C360 C 0.17533 0.60408 0.31487
 C361 C 0.14894 0.57088 0.34210
 C362 C 0.12137 0.55949 0.21416
 H363 H 0.19661 0.65065 0.14057
 H364 H 0.19629 0.61312 0.41568
 H365 H 0.14976 0.55386 0.46337
 H366 H 0.10242 0.53280 0.24105
 H367 H 0.12216 0.63709 -0.39461
 H368 H 0.07065 0.58477 -0.33581
 C369 C 0.64819 1.11318 0.48138
 C370 C 0.64853 1.13296 0.31650
 C371 C 0.62009 1.12104 0.19145
 C372 C 0.59132 1.09044 0.22743
 C373 C 0.59035 1.07030 0.38878
 C374 C 0.62019 1.08030 0.51487
 C375 C 0.67503 1.12558 0.61412
 C376 C 0.67636 1.10413 0.77113
 C377 C 0.65129 1.06990 0.79870
 C378 C 0.62360 1.05788 0.67228
 H379 H 0.69544 1.15170 0.59705
 H380 H 0.69740 1.11368 0.87072
 H381 H 0.65323 1.05257 0.91885
 H382 H 0.60584 1.03031 0.69839
 H383 H 0.62001 1.13582 0.06498
 H384 H 0.56908 1.08301 0.12915
 C385 C 0.11987 0.35636 0.32263
 C386 C 0.14610 0.34648 0.18341
 C387 C 0.14156 0.36690 0.02471
 C388 C 0.11201 0.39724 0.00256
 C389 C 0.08480 0.40741 0.13611
 C390 C 0.08831 0.38618 0.29824
 C391 C 0.12377 0.33613 0.48462
 C392 C 0.09589 0.34318 0.61674
 C393 C 0.06428 0.37105 0.59180
 C394 C 0.06060 0.39237 0.43501
 H395 H 0.14795 0.31418 0.50974
 H396 H 0.09861 0.32663 0.73845
 H397 H 0.04245 0.37617 0.69456
 H398 H 0.03534 0.41282 0.42204
 H399 H 0.16130 0.35937 -0.08308
 H400 H 0.11033 0.41282 -0.12184
 C401 C 0.62428 0.85850 0.79265
 C402 C 0.65060 0.85004 0.65177
 C403 C 0.64513 0.87085 0.49444
 C404 C 0.61436 0.89999 0.47485
 C405 C 0.58707 0.90858 0.61005
 C406 C 0.59158 0.88712 0.77087
 C407 C 0.62914 0.83794 0.95346
 C408 C 0.60136 0.84380 1.08735
 C409 C 0.56857 0.87039 1.06438
 C410 C 0.56369 0.89183 0.90846
 H411 H 0.65410 0.81677 0.97625
 H412 H 0.60499 0.82726 1.20878
 H413 H 0.54668 0.87437 1.16781
 H414 H 0.53736 0.91114 0.89685
 H415 H 0.66481 0.86426 0.38528
 H416 H 0.61174 0.91587 0.35134
 C417 C 0.88899 0.13314 0.23326
 C418 C 0.85520 0.13356 0.11962
 C419 C 0.85328 0.10489 -0.01534
 C420 C 0.88400 0.07585 -0.03888
 C421 C 0.91777 0.07479 0.07101
 C422 C 0.92109 0.10427 0.20573
 C423 C 0.89183 0.16125 0.37223
 C424 C 0.92640 0.16232 0.47589
 C425 C 0.95868 0.13558 0.44327
 C426 C 0.95620 0.10678 0.30982
 H427 H 0.86757 0.18280 0.40119
 H428 H 0.92837 0.18439 0.58063
 H429 H 0.98584 0.13717 0.52154
 H430 H 0.98237 0.08728 0.28730
 H431 H 0.82774 0.10515 -0.10339
 H432 H 0.88131 0.05381 -0.14362
 C433 C 0.38934 0.63131 0.74988
 C434 C 0.35528 0.63399 0.63833
 C435 C 0.35299 0.60807 0.49421
 C436 C 0.38381 0.57982 0.45873
 C437 C 0.41812 0.57682 0.56525
 C438 C 0.42157 0.60337 0.71042
 C439 C 0.39231 0.65645 0.89832
 C440 C 0.42700 0.65541 1.00129
 C441 C 0.45935 0.62968 0.95792
 C442 C 0.45689 0.60402 0.81375
 H443 H 0.36803 0.67724 0.93531
 H444 H 0.42902 0.67510 1.11390
 H445 H 0.48657 0.62965 1.03610
 H446 H 0.48324 0.58547 0.78302
 H447 H 0.32723 0.61008 0.40758
 H448 H 0.38077 0.55994 0.34696
   
