data_POSCAR
  _audit_creation_date              2014-09-24
  _audit_creation_method            'ToBaCCo'
  _symmetry_space_group_name_H-M    'P1'
  _symmetry_Int_Tables_number       1
  _symmetry_cell_setting            triclinic
  loop_
  _symmetry_equiv_pos_as_xyz
 x,y,z
_cell_length_a 19.9143
_cell_length_b 20.4983
_cell_length_c 45.2670
_cell_angle_alpha 87.649200
_cell_angle_beta 98.285500
_cell_angle_gamma 124.884800
loop_
  _atom_site_label
  _atom_site_type_symbol
  _atom_site_fract_x
  _atom_site_fract_y
  _atom_site_fract_z
C1 C 0.05098 0.07826 0.51925
 C2 C 1.01337 -0.06263 0.15616
 C3 C -0.06616 0.99118 0.82211
 O4 O 0.55586 0.01694 -0.03988
 O5 O 0.43879 0.00058 0.01963
 O6 O 0.57987 0.01752 0.01828
 O7 O 0.43383 0.02826 -0.03688
 O8 O 0.35386 -0.10276 -0.04340
 O9 O 0.50458 -0.11311 0.01105
 O10 O 0.36395 -0.13024 0.01330
 O11 O 0.47670 -0.11390 -0.04683
 Cu12 Cu 0.50988 0.02856 -0.00890
 Cu13 Cu 0.41709 -0.12780 -0.01700
 C14 C 0.53579 -0.04624 -0.05359
 C15 C 0.38007 -0.06824 0.02627
 C16 C 0.56914 -0.04872 0.02357
 C17 C 0.36904 -0.03468 -0.04954
 O18 O -0.07763 0.43379 0.69260
 O19 O -0.04354 0.58206 0.63623
 O20 O -0.05507 0.44790 0.63737
 O21 O -0.08743 0.55625 0.68958
 O22 O 0.04616 0.62965 0.70681
 O23 O 0.07855 0.51971 0.65448
 O24 O 0.08968 0.65424 0.65418
 O25 O 0.05599 0.50740 0.70972
 Cu26 Cu -0.07913 0.49804 0.66226
 Cu27 Cu 0.08075 0.58509 0.68293
 C28 C -0.01585 0.44468 0.71034
 C29 C 0.02942 0.64451 0.63612
 C30 C 0.01630 0.46316 0.63754
 C31 C -0.02639 0.61201 0.70686
 O32 O 0.57838 0.58756 0.30511
 O33 O 0.44080 0.48192 0.36214
 O34 O 0.57401 0.62313 0.35887
 O35 O 0.43033 0.45519 0.30533
 O36 O 0.49673 0.39976 0.31942
 O37 O 0.63746 0.56622 0.37578
 O38 O 0.50553 0.42443 0.37559
 O39 O 0.64636 0.53462 0.32085
 Cu40 Cu 0.49940 0.54224 0.33125
 Cu41 Cu 0.57886 0.47641 0.34900
 C42 C 0.63710 0.58007 0.30364
 C43 C 0.44991 0.43475 0.37860
 C44 C 0.62841 0.62273 0.37703
 C45 C 0.43736 0.39795 0.30346
 C46 C 0.04237 0.24392 0.57293
 C47 C 0.11332 0.24367 0.57637
 C48 C 0.11348 0.18786 0.55998
 C49 C 0.04265 0.12972 0.54053
 C50 C -0.02815 0.13061 0.53857
 N51 N -0.02621 0.18678 0.55447
 C52 C 0.03944 0.30424 0.58872
 N53 N -0.03564 0.29032 0.58988
 C54 C -0.04412 0.34154 0.60428
 C55 C 0.02579 0.41179 0.61903
 C56 C 0.10399 0.42861 0.61749
 C57 C 0.11120 0.37556 0.60222
 H58 H 0.17001 0.19075 0.56199
 H59 H -0.08394 0.08947 0.52355
 H60 H -0.10575 0.32613 0.60484
 H61 H 0.15957 0.48234 0.62834
 H62 H 0.16874 0.28590 0.59134
 H63 H 0.17254 0.39120 0.60110
 C64 C 0.86097 0.76606 0.21915
 C65 C 0.94074 0.78491 0.21858
 C66 C 0.98892 0.83756 0.19760
 C67 C 0.95763 0.87016 0.17656
 C68 C 0.87756 0.84979 0.17880
 N69 N 0.83300 0.79959 0.19931
 C70 C 0.80619 0.71571 0.24135
 N71 N 0.73840 0.71606 0.24254
 C72 C 0.68386 0.67314 0.26190
 C73 C 0.69551 0.62539 0.28192
 C74 C 0.76453 0.62310 0.28107
 C75 C 0.82004 0.66812 0.26085
 H76 H 1.05162 0.85462 0.19836
 H77 H 0.85031 0.87595 0.16535
 H78 H 0.63165 0.67678 0.26160
 H79 H 0.77586 0.58686 0.29612
 H80 H 0.96717 0.76201 0.23459
 H81 H 0.87222 0.66487 0.26054
 C82 C 0.12956 -0.00592 -0.12381
 C83 C 0.04985 -0.05168 -0.11631
 C84 C -0.01193 -0.04809 -0.13289
 C85 C 0.00410 0.00225 -0.15721
 C86 C 0.08603 0.04697 -0.16400
 N87 N 0.14571 0.04239 -0.14723
 C88 C 0.19408 -0.01306 -0.10697
 N89 N 0.17131 -0.08253 -0.09382
 C90 C 0.22656 -0.09194 -0.07654
 C91 C 0.31010 -0.02817 -0.07094
 C92 C 0.33538 0.04361 -0.08473
 C93 C 0.27763 0.05107 -0.10308
 H94 H -0.07374 -0.08802 -0.12725
 H95 H 0.10196 0.08294 -0.18332
 H96 H 0.20454 -0.14816 -0.06631
 H97 H 0.39956 0.09417 -0.08104
 H98 H 0.03479 -0.09126 -0.09799
 H99 H 0.29747 0.10706 -0.11319
 C100 C 0.07698 0.90225 0.56553
 C101 C 0.07956 0.90899 0.53479
 C102 C 0.07915 0.97062 0.52062
 C103 C 0.07399 1.02501 0.53670
 C104 C 0.07433 1.01658 0.56789
 N105 N 0.07605 0.95680 0.58113
 C106 C 0.06956 0.83458 0.58127
 N107 N 0.11569 0.84850 0.60851
 C108 C 0.10606 0.78841 0.62557
 C109 C 0.04450 0.70874 0.61602
 C110 C -0.00397 0.69286 0.58802
 C111 C 0.00926 0.75575 0.57035
 H112 H 0.07776 0.97312 0.49661
 H113 H 0.06798 1.05350 0.58186
 H114 H 0.14415 0.80303 0.64718
 H115 H -0.05220 0.63214 0.57998
 H116 H 0.08020 0.86617 0.52182
 H117 H -0.02960 0.74315 0.54903
 C118 C 0.19402 0.13139 0.22188
 C119 C 0.21770 0.09165 0.20658
 C120 C 0.16038 0.03079 0.18559
 C121 C 0.07853 0.00986 0.17814
 C122 C 0.05668 0.04941 0.19521
 N123 N 0.11433 0.10918 0.21583
 C124 C 0.25507 0.19731 0.24410
 N125 N 0.24991 0.25992 0.24739
 C126 C 0.30720 0.32427 0.26614
 C127 C 0.37488 0.32829 0.28291
 C128 C 0.38020 0.26356 0.28034
 C129 C 0.32049 0.19807 0.26113
 H130 H 0.18138 -0.00047 0.17576
 H131 H -0.00641 0.03221 0.19237
 H132 H 0.29994 0.37238 0.26778
 H133 H 0.43037 0.26340 0.29320
 H134 H 0.28034 0.10746 0.21056
 H135 H 0.32547 0.14843 0.25981
 C136 C 0.74785 -0.03037 -0.13050
 C137 C 0.83195 0.02353 -0.12010
 C138 C 0.88985 0.02687 -0.13485
 C139 C 0.86565 -0.02439 -0.16001
 C140 C 0.77996 -0.07801 -0.16975
 N141 N 0.72394 -0.08024 -0.15473
 C142 C 0.68645 -0.03326 -0.11473
 N143 N 0.61894 -0.10472 -0.10865
 C144 C 0.56726 -0.11018 -0.09049
 C145 C 0.58370 -0.04108 -0.07676
 C146 C 0.65039 0.03308 -0.08410
 C147 C 0.70153 0.03720 -0.10313
 H148 H 0.95458 0.07107 -0.12677
 H149 H 0.75749 -0.11610 -0.18970
 H150 H 0.51554 -0.16859 -0.08579
 H151 H 0.66469 0.08786 -0.07441
 H152 H 0.85309 0.06298 -0.10059
 H153 H 0.75398 0.09499 -0.10801
 C154 C 0.16023 -0.09140 0.10236
 C155 C 0.10563 -0.15665 0.11844
 C156 C 0.05514 -0.15081 0.13533
 C157 C 0.06002 -0.07961 0.13658
 C158 C 0.11251 -0.01801 0.11870
 N159 N 0.16092 -0.02493 0.10289
 C160 C 0.21878 -0.08979 0.08499
 N161 N 0.28328 -0.01745 0.07779
 C162 C 0.33747 -0.00906 0.06031
 C163 C 0.32758 -0.07640 0.04826
 C164 C 0.26248 -0.15185 0.05581
 C165 C 0.20807 -0.15886 0.07419
 H166 H 0.01331 -0.20169 0.14731
 H167 H 0.11736 0.03738 0.11834
 H168 H 0.38652 0.05023 0.05511
 H169 H 0.25223 -0.20556 0.04689
 H170 H 0.10290 -0.21087 0.11861
 H171 H 0.15688 -0.21757 0.07882
 C172 C 0.83722 0.88634 0.46212
 C173 C 0.83647 0.88733 0.49297
 C174 C 0.90148 0.95359 0.51091
 C175 C 0.96902 1.01809 0.49844
 C176 C 0.96378 1.01502 0.46693
 N177 N 0.89941 0.95059 0.45010
 C178 C 0.77664 0.81564 0.44224
 N179 N 0.74859 0.82595 0.41446
 C180 C 0.70030 0.76486 0.39360
 C181 C 0.68062 0.68868 0.39981
 C182 C 0.70929 0.67662 0.42823
 C183 C 0.75663 0.73992 0.44969
 H184 H 0.90222 0.95221 0.53489
 H185 H 1.01272 1.06011 0.45530
 H186 H 0.67919 0.77637 0.37191
 H187 H 0.69466 0.61839 0.43386
 H188 H 0.78737 0.83675 0.50311
 H189 H 0.78016 0.73064 0.47137
 C190 C -0.04523 0.18788 0.77707
 C191 C -0.10394 0.11002 0.76534
 C192 C -0.10730 0.04722 0.77954
 C193 C -0.05054 0.06018 0.80522
 C194 C 0.00767 0.14016 0.81621
 N195 N 0.00924 0.20075 0.80190
 C196 C -0.04109 0.25579 0.76251
 N197 N 0.03340 0.32727 0.76339
 C198 C 0.04213 0.38983 0.74828
 C199 C -0.02661 0.38191 0.73062
 C200 C -0.10452 0.31007 0.73066
 C201 C -0.11208 0.24719 0.74666
 H202 H -0.15632 -0.01249 0.77067
 H203 H 0.04989 0.15463 0.83670
 H204 H 0.10331 0.44458 0.74915
 H205 H -0.15929 0.30161 0.71766
 H206 H -0.14732 0.09720 0.74532
 H207 H -0.17285 0.19217 0.74625
 C208 C 0.83263 -0.05027 0.09457
 C209 C 0.83618 -0.11635 0.09370
 C210 C 0.89759 -0.11650 0.11245
 C211 C 0.95697 -0.05100 0.13242
 C212 C 0.95688 0.01775 0.12997
 N213 N 0.89464 0.01575 0.11181
 C214 C 0.76255 -0.05161 0.07728
 N215 N 0.77286 0.01822 0.06972
 C216 C 0.71135 0.02062 0.05342
 C217 C 0.63394 -0.05031 0.04353
 C218 C 0.62125 -0.12271 0.05181
 C219 C 0.68483 -0.12364 0.06883
 H220 H 0.89625 -0.17009 0.11257
 H221 H 1.00428 0.07227 0.14271
 H222 H 0.72369 0.07791 0.04765
 H223 H 0.56234 -0.17870 0.04501
 H224 H 0.79144 -0.16837 0.07910
 H225 H 0.67240 -0.18045 0.07539
 C226 C 0.23226 0.25184 0.46454
 C227 C 0.16014 0.24750 0.46622
 C228 C 0.10442 0.19301 0.48439
 C229 C 0.11786 0.14020 0.50062
 C230 C 0.19312 0.14938 0.49939
 N231 N 0.24668 0.20320 0.48134
 C232 C 0.29031 0.30378 0.44358
 N233 N 0.34320 0.28741 0.43614
 C234 C 0.39531 0.32912 0.41589
 C235 C 0.39544 0.39108 0.40139
 C236 C 0.34289 0.41031 0.40912
 C237 C 0.29088 0.36745 0.43036
 H238 H 0.04818 0.18946 0.48482
 H239 H 0.20984 0.11408 0.51237
 H240 H 0.43543 0.31273 0.41078
 H241 H 0.34218 0.45861 0.39885
 H242 H 0.14438 0.28316 0.45294
 H243 H 0.25227 0.38480 0.43619
 C244 C -0.08192 0.80909 0.77048
 C245 C -0.13280 0.78493 0.79271
 C246 C -0.13450 0.84195 0.80809
 C247 C -0.08825 0.92250 0.80051
 C248 C -0.04229 0.94172 0.77660
 N249 N -0.03949 0.88610 0.76292
 C250 C -0.06676 0.75559 0.75668
 N251 N -0.12989 0.67894 0.74796
 C252 C -0.11806 0.63083 0.73293
 C253 C -0.03914 0.65951 0.72606
 C254 C 0.02690 0.73728 0.73589
 C255 C 0.01317 0.78555 0.75092
 H256 H -0.16754 0.82388 0.82710
 H257 H -0.00287 1.00253 0.77026
 H258 H -0.17046 0.57085 0.72587
 H259 H 0.08855 0.76186 0.73095
 H260 H -0.16617 0.72404 0.79949
 H261 H 0.06451 0.84625 0.75772
   
