data_POSCAR
  _audit_creation_date              2014-09-24
  _audit_creation_method            'ToBaCCo'
  _symmetry_space_group_name_H-M    'P1'
  _symmetry_Int_Tables_number       1
  _symmetry_cell_setting            triclinic
  loop_
  _symmetry_equiv_pos_as_xyz
 x,y,z
_cell_length_a 42.0559
_cell_length_b 50.5476
_cell_length_c 42.2286
_cell_angle_alpha 90.089900
_cell_angle_beta 91.041200
_cell_angle_gamma 90.192000
loop_
  _atom_site_label
  _atom_site_type_symbol
  _atom_site_fract_x
  _atom_site_fract_y
  _atom_site_fract_z
Si1 Si 1.25114 0.25348 0.25204
 Si2 Si 0.74877 -0.24657 0.24927
 Si3 Si 0.75086 0.25351 -0.24845
 Si4 Si 1.24864 -0.24664 -0.25015
 Si5 Si 0.24693 0.24739 0.74643
 Si6 Si 0.75007 0.74723 0.75017
 Si7 Si 0.74683 0.24736 0.24689
 Si8 Si 0.24976 0.74726 0.24955
 N9 N 1.05717 0.02868 0.03593
 N10 N 1.07786 0.04795 0.04097
 N11 N 1.03562 -0.02687 0.05820
 N12 N 1.04117 -0.04569 0.07922
 N13 N 1.05751 -0.02690 0.03643
 N14 N 1.07855 -0.04571 0.04207
 N15 N 1.03521 0.02883 0.05763
 N16 N 1.04035 0.04829 0.07800
 C17 C 1.06699 0.06013 0.06720
 C18 C 1.06797 -0.05739 0.06876
 N19 N 0.94492 -0.02771 0.03508
 N20 N 0.92437 -0.04696 0.04013
 N21 N 0.96667 0.02826 0.05689
 N22 N 0.96142 0.04734 0.07748
 N23 N 0.94443 0.02792 0.03468
 N24 N 0.92346 0.04680 0.03954
 N25 N 0.96711 -0.02733 0.05736
 N26 N 0.96224 -0.04628 0.07817
 Mn27 Mn 1.00115 0.00074 0.05788
 C28 C 0.93557 -0.05848 0.06703
 C29 C 0.93446 0.05887 0.06626
 N30 N 1.05708 -0.02719 -0.03183
 N31 N 1.07842 -0.04568 -0.03697
 N32 N 1.03443 0.02819 -0.05432
 N33 N 1.03968 0.04697 -0.07531
 N34 N 1.05682 0.02822 -0.03225
 N35 N 1.07808 0.04682 -0.03779
 N36 N 1.03479 -0.02760 -0.05399
 N37 N 1.04021 -0.04661 -0.07468
 Mn38 Mn 1.05746 0.00069 0.00209
 C39 C 1.06745 -0.05780 -0.06361
 C40 C 1.06693 0.05852 -0.06457
 N41 N 0.94393 0.02752 -0.03357
 N42 N 0.92299 0.04645 -0.03909
 N43 N 0.96635 -0.02799 -0.05494
 N44 N 0.96131 -0.04715 -0.07568
 N45 N 0.94443 -0.02820 -0.03320
 N46 N 0.92390 -0.04760 -0.03854
 N47 N 0.96591 0.02760 -0.05525
 N48 N 0.96050 0.04653 -0.07613
 Mn49 Mn 0.94405 -0.00013 0.00074
 Mn50 Mn 1.00037 0.00006 -0.05498
 Cl51 Cl 1.00075 0.00034 0.00143
 C52 C 0.93372 0.05824 -0.06567
 C53 C 0.93484 -0.05935 -0.06508
 N54 N 1.05406 0.53084 0.53186
 N55 N 1.07432 0.55047 0.53662
 N56 N 1.03427 0.47495 0.55507
 N57 N 1.03980 0.45573 0.57557
 N58 N 1.05616 0.47534 0.53331
 N59 N 1.07723 0.45647 0.53845
 N60 N 1.03236 0.53064 0.55379
 N61 N 1.03721 0.55023 0.57405
 C62 C 1.06341 0.56252 0.56291
 C63 C 1.06668 0.44434 0.56485
 N64 N 0.94336 0.47231 0.53275
 N65 N 0.92298 0.45307 0.53849
 N66 N 0.96400 0.52881 0.55342
 N67 N 0.95854 0.54806 0.57371
 N68 N 0.94163 0.52793 0.53135
 N69 N 0.92026 0.54654 0.53611
 N70 N 0.96570 0.47323 0.55484
 N71 N 0.96107 0.45467 0.57626
 Mn72 Mn 0.99910 0.50189 0.55465
 C73 C 0.93443 0.44211 0.56563
 C74 C 0.93125 0.55906 0.56255
 N75 N 1.05550 0.47409 0.46517
 N76 N 1.07738 0.45595 0.46045
 N77 N 1.03128 0.52821 0.44129
 N78 N 1.03623 0.54631 0.41939
 N79 N 1.05326 0.52966 0.46370
 N80 N 1.07361 0.54891 0.45780
 N81 N 1.03299 0.47260 0.44330
 N82 N 1.03883 0.45324 0.42321
 Mn83 Mn 1.05507 0.50252 0.49853
 C84 C 1.06655 0.44295 0.43435
 C85 C 1.06256 0.55925 0.43015
 N86 N 0.94098 0.52655 0.46298
 N87 N 0.92000 0.54544 0.45750
 N88 N 0.96446 0.47095 0.44277
 N89 N 0.95923 0.45171 0.42215
 N90 N 0.94258 0.47093 0.46454
 N91 N 0.92189 0.45164 0.45934
 N92 N 0.96275 0.52648 0.44109
 N93 N 0.95719 0.54531 0.42013
 Mn94 Mn 0.94177 0.49944 0.49789
 Mn95 Mn 0.99785 0.49953 0.44176
 Cl96 Cl 0.99843 0.50084 0.49820
 C97 C 0.93049 0.55704 0.43072
 C98 C 0.93271 0.43969 0.43291
 N99 N 0.55602 0.02864 0.53492
 N100 N 0.57689 0.04776 0.54020
 N101 N 0.53485 -0.02697 0.55737
 N102 N 0.54036 -0.04588 0.57826
 N103 N 0.55673 -0.02693 0.53560
 N104 N 0.57775 -0.04577 0.54111
 N105 N 0.53408 0.02874 0.55663
 N106 N 0.53940 0.04800 0.57724
 C107 C 0.56613 0.05981 0.56657
 C108 C 0.56715 -0.05753 0.56773
 N109 N 0.44420 -0.02845 0.53433
 N110 N 0.42379 -0.04778 0.53950
 N111 N 0.46552 0.02773 0.55586
 N112 N 0.46017 0.04686 0.57635
 N113 N 0.44323 0.02718 0.53369
 N114 N 0.42210 0.04597 0.53852
 N115 N 0.46638 -0.02784 0.55660
 N116 N 0.46164 -0.04672 0.57755
 Mn117 Mn 0.50020 0.00043 0.55698
 C118 C 0.43507 -0.05911 0.56648
 C119 C 0.43309 0.05819 0.56515
 N120 N 0.55633 -0.02749 0.46739
 N121 N 0.57782 -0.04588 0.46235
 N122 N 0.53326 0.02767 0.44463
 N123 N 0.53846 0.04637 0.42351
 N124 N 0.55561 0.02792 0.46674
 N125 N 0.57676 0.04657 0.46113
 N126 N 0.53403 -0.02813 0.44524
 N127 N 0.53959 -0.04719 0.42467
 Mn128 Mn 0.55648 0.00053 0.50118
 C129 C 0.56693 -0.05818 0.43578
 C130 C 0.56561 0.05810 0.43425
 N131 N 0.44277 0.02652 0.46545
 N132 N 0.42202 0.04561 0.46017
 N133 N 0.46554 -0.02893 0.44424
 N134 N 0.46031 -0.04790 0.42326
 N135 N 0.44364 -0.02921 0.46600
 N136 N 0.42296 -0.04848 0.46043
 N137 N 0.46476 0.02665 0.44377
 N138 N 0.45954 0.04578 0.42313
 Mn139 Mn 0.44308 -0.00101 0.49986
 Mn140 Mn 0.49940 -0.00068 0.44411
 Cl141 Cl 0.49977 -0.00018 0.50053
 C142 C 0.43285 0.05752 0.43373
 C143 C 0.43378 -0.06008 0.43375
 N144 N 0.55347 0.53049 0.03250
 N145 N 0.57384 0.55008 0.03709
 N146 N 0.53347 0.47478 0.05605
 N147 N 0.53898 0.45563 0.07664
 N148 N 0.55527 0.47500 0.03419
 N149 N 0.57624 0.45607 0.03934
 N150 N 0.53182 0.53048 0.05449
 N151 N 0.53680 0.55016 0.07459
 C152 C 0.56305 0.56230 0.06331
 C153 C 0.56575 0.44408 0.06585
 N154 N 0.44250 0.47244 0.03396
 N155 N 0.42237 0.45299 0.03954
 N156 N 0.46341 0.52894 0.05439
 N157 N 0.45785 0.54802 0.07489
 N158 N 0.44097 0.52807 0.03239
 N159 N 0.41946 0.54653 0.03743
 N160 N 0.46492 0.47336 0.05598
 N161 N 0.46060 0.45460 0.07719
 Mn162 Mn 0.49842 0.50188 0.05559
 C163 C 0.43405 0.44195 0.06652
 C164 C 0.43045 0.55897 0.06394
 N165 N 0.55445 0.47346 -0.03396
 N166 N 0.57646 0.45548 -0.03896
 N167 N 0.53035 0.52759 -0.05794
 N168 N 0.53510 0.54576 -0.07977
 N169 N 0.55240 0.52903 -0.03561
 N170 N 0.57262 0.54837 -0.04149
 N171 N 0.53185 0.47198 -0.05575
 N172 N 0.53777 0.45279 -0.07605
 Mn173 Mn 0.55422 0.50203 -0.00070
 C174 C 0.56562 0.44256 -0.06513
 C175 C 0.56140 0.55873 -0.06905
 N176 N 0.44015 0.52641 -0.03602
 N177 N 0.41930 0.54539 -0.04152
 N178 N 0.46333 0.47064 -0.05602
 N179 N 0.45799 0.45138 -0.07656
 N180 N 0.44144 0.47079 -0.03425
 N181 N 0.42062 0.45157 -0.03941
 N182 N 0.46186 0.52617 -0.05797
 N183 N 0.45637 0.54495 -0.07900
 Mn184 Mn 0.44089 0.49944 -0.00099
 Mn185 Mn 0.49682 0.49906 -0.05726
 Cl186 Cl 0.49757 0.50060 -0.00084
 C187 C 0.42979 0.55685 -0.06838
 C188 C 0.43140 0.43950 -0.06580
 C189 C 1.18894 0.19813 0.18681
 C190 C 1.22228 0.19636 0.18740
 C191 C 1.24053 0.21313 0.20676
 C192 C 1.22591 0.23206 0.22583
 C193 C 1.19271 0.23455 0.22450
 C194 C 1.17434 0.21755 0.20541
 C195 C 1.16967 0.17951 0.16729
 N196 N 1.13801 0.17649 0.17210
 N197 N 1.12102 0.15892 0.15533
 C198 C 1.13498 0.14374 0.13295
 N199 N 1.16656 0.14697 0.12798
 N200 N 1.18355 0.16443 0.14483
 C201 C 1.11658 0.12344 0.11509
 C202 C 1.12978 0.11103 0.08860
 C203 C 1.11329 0.09087 0.07268
 C204 C 1.08337 0.08251 0.08303
 C205 C 1.06982 0.09519 0.10911
 C206 C 1.08621 0.11556 0.12492
 H207 H 1.23433 0.18172 0.17327
 H208 H 1.26611 0.21120 0.20677
 H209 H 1.18080 0.24959 0.23800
 H210 H 1.14872 0.21970 0.20511
 H211 H 1.15302 0.11672 0.08028
 H212 H 1.12428 0.08148 0.05258
 H213 H 1.04672 0.08919 0.11750
 H214 H 1.07539 0.12471 0.14525
 C215 C 1.18574 0.69938 0.68366
 C216 C 1.17138 0.71862 0.70268
 C217 C 1.18996 0.73521 0.72209
 C218 C 1.22313 0.73244 0.72332
 C219 C 1.23751 0.71367 0.70385
 C220 C 1.21906 0.69733 0.68416
 C221 C 1.16625 0.68117 0.66380
 N222 N 1.17990 0.66650 0.64082
 N223 N 1.16273 0.64935 0.62369
 C224 C 1.13120 0.64604 0.62890
 N225 N 1.11747 0.66082 0.65178
 N226 N 1.13463 0.67809 0.66882
 C227 C 1.11267 0.62595 0.61083
 C228 C 1.08256 0.61770 0.62098
 C229 C 1.06621 0.59735 0.60510
 C230 C 1.07955 0.58507 0.57865
 C231 C 1.10914 0.59387 0.56791
 C232 C 1.12558 0.61402 0.58390
 H233 H 1.14579 0.72096 0.70246
 H234 H 1.17823 0.75016 0.73589
 H235 H 1.26307 0.71157 0.70376
 H236 H 1.23092 0.68281 0.66971
 H237 H 1.07196 0.62649 0.64165
 H238 H 1.04335 0.59099 0.61379
 H239 H 1.11994 0.58482 0.54750
 H240 H 1.14861 0.62003 0.57531
 C241 C 0.68871 0.19761 0.68667
 C242 C 0.72208 0.19616 0.68696
 C243 C 0.74030 0.21313 0.70614
 C244 C 0.72564 0.23195 0.72534
 C245 C 0.69240 0.23413 0.72429
 C246 C 0.67406 0.21694 0.70538
 C247 C 0.66946 0.17878 0.66733
 N248 N 0.63781 0.17569 0.67220
 N249 N 0.62085 0.15803 0.65552
 C250 C 0.63479 0.14283 0.63316
 N251 N 0.66636 0.14611 0.62813
 N252 N 0.68334 0.16365 0.64489
 C253 C 0.61632 0.12255 0.61523
 C254 C 0.62948 0.11013 0.58871
 C255 C 0.61283 0.09016 0.57257
 C256 C 0.58277 0.08196 0.58273
 C257 C 0.56931 0.09459 0.60889
 C258 C 0.58586 0.11478 0.62491
 H259 H 0.73419 0.18162 0.67273
 H260 H 0.76591 0.21142 0.70592
 H261 H 0.68041 0.24906 0.73791
 H262 H 0.64842 0.21886 0.70532
 H263 H 0.65279 0.11572 0.58048
 H264 H 0.62378 0.08081 0.55243
 H265 H 0.54611 0.08871 0.61717
 H266 H 0.57505 0.12391 0.64525
 C267 C 0.68581 0.69951 0.18303
 C268 C 0.67148 0.71877 0.20206
 C269 C 0.69008 0.73535 0.22146
 C270 C 0.72325 0.73257 0.22267
 C271 C 0.73761 0.71381 0.20316
 C272 C 0.71913 0.69748 0.18349
 C273 C 0.66628 0.68127 0.16326
 N274 N 0.67989 0.66647 0.14037
 N275 N 0.66269 0.64927 0.12335
 C276 C 0.63116 0.64603 0.12860
 N277 N 0.61746 0.66094 0.15138
 N278 N 0.63466 0.67826 0.16832
 C279 C 0.61257 0.62588 0.11069
 C280 C 0.58242 0.61777 0.12090
 C281 C 0.56600 0.59737 0.10520
 C282 C 0.57930 0.58488 0.07885
 C283 C 0.60892 0.59354 0.06805
 C284 C 0.62544 0.61373 0.08387
 H285 H 0.64589 0.72112 0.20187
 H286 H 0.67837 0.75030 0.23528
 H287 H 0.76317 0.71170 0.20306
 H288 H 0.73097 0.68295 0.16903
 H289 H 0.57185 0.62671 0.14149
 H290 H 0.54312 0.59113 0.11393
 H291 H 0.61969 0.58433 0.04772
 H292 H 0.64850 0.61963 0.07524
 C293 C 0.81446 -0.19377 0.18728
 C294 C 0.78631 -0.20477 0.17438
 C295 C 0.76697 -0.22092 0.19274
 C296 C 0.77544 -0.22641 0.22427
 C297 C 0.80359 -0.21577 0.23720
 C298 C 0.82301 -0.19963 0.21886
 C299 C 0.83415 -0.17561 0.16822
 N300 N 0.86143 -0.16498 0.18044
 N301 N 0.87846 -0.14789 0.16372
 C302 C 0.86892 -0.14068 0.13407
 N303 N 0.84177 -0.15146 0.12177
 N304 N 0.82477 -0.16857 0.13848
 C305 C 0.88704 -0.12072 0.11603
 C306 C 0.87565 -0.11173 0.08644
 C307 C 0.89174 -0.09182 0.07025
 C308 C 0.91958 -0.08053 0.08326
 C309 C 0.93145 -0.08992 0.11241
 C310 C 0.91533 -0.10978 0.12865
 H311 H 0.77895 -0.20066 0.15019
 H312 H 0.74514 -0.22870 0.18238
 H313 H 0.81035 -0.21967 0.26161
 H314 H 0.84446 -0.19146 0.22959
 H315 H 0.85398 -0.11974 0.07596
 H316 H 0.88212 -0.08502 0.04775
 H317 H 0.95294 -0.08161 0.12295
 H318 H 0.92486 -0.11630 0.15131
 C319 C 0.81543 0.30688 0.68880
 C320 C 0.78753 0.29530 0.67606
 C321 C 0.76860 0.27892 0.69461
 C322 C 0.77722 0.27375 0.72618
 C323 C 0.80516 0.28493 0.73894
 C324 C 0.82417 0.30130 0.72042
 C325 C 0.83468 0.32527 0.66953
 N326 N 0.86172 0.33644 0.68159
 N327 N 0.87837 0.35365 0.66463
 C328 C 0.86869 0.36045 0.63488
 N329 N 0.84176 0.34915 0.62276
 N330 N 0.82513 0.33193 0.63970
 C331 C 0.88648 0.38042 0.61644
 C332 C 0.87498 0.38884 0.58665
 C333 C 0.89086 0.40858 0.56994
 C334 C 0.91862 0.42030 0.58259
 C335 C 0.93056 0.41153 0.61200
 C336 C 0.91465 0.39183 0.62877
 H337 H 0.78003 0.29915 0.65185
 H338 H 0.74694 0.27073 0.68436
 H339 H 0.81204 0.28132 0.76339
 H340 H 0.84543 0.30990 0.73105
 H341 H 0.85342 0.38048 0.57637
 H342 H 0.88115 0.41489 0.54726
 H343 H 0.95197 0.42017 0.62229
 H344 H 0.92426 0.38577 0.65158
 C345 C 0.31435 -0.19406 0.68760
 C346 C 0.32289 -0.19979 0.71923
 C347 C 0.30346 -0.21586 0.73765
 C348 C 0.27532 -0.22656 0.72476
 C349 C 0.26686 -0.22120 0.69320
 C350 C 0.28621 -0.20513 0.67475
 C351 C 0.33404 -0.17598 0.66844
 N352 N 0.32471 -0.16915 0.63861
 N353 N 0.34169 -0.15211 0.62180
 C354 C 0.36877 -0.14118 0.63407
 N355 N 0.37826 -0.14818 0.66381
 N356 N 0.36125 -0.16521 0.68064
 C357 C 0.38684 -0.12127 0.61590
 C358 C 0.41504 -0.11014 0.62850
 C359 C 0.43108 -0.09031 0.61212
 C360 C 0.41922 -0.08115 0.58287
 C361 C 0.39148 -0.09264 0.56988
 C362 C 0.37548 -0.11251 0.58620
 H363 H 0.34433 -0.19157 0.72992
 H364 H 0.31020 -0.21965 0.76209
 H365 H 0.24505 -0.22902 0.68287
 H366 H 0.27886 -0.20112 0.65053
 H367 H 0.42454 -0.11648 0.65124
 H368 H 0.45249 -0.08185 0.62264
 H369 H 0.38188 -0.08602 0.54730
 H370 H 0.35388 -0.12067 0.57574
 C371 C 0.31605 0.30624 0.18917
 C372 C 0.32462 0.30092 0.22088
 C373 C 0.30546 0.28477 0.23948
 C374 C 0.27755 0.27358 0.22668
 C375 C 0.26909 0.27851 0.19502
 C376 C 0.28817 0.29466 0.17640
 C377 C 0.33539 0.32445 0.16983
 N378 N 0.32594 0.33095 0.13992
 N379 N 0.34257 0.34812 0.12295
 C380 C 0.36941 0.35952 0.13512
 N381 N 0.37904 0.35285 0.16493
 N382 N 0.36238 0.33569 0.18192
 C383 C 0.38706 0.37955 0.11674
 C384 C 0.41512 0.39109 0.12914
 C385 C 0.43076 0.41101 0.11252
 C386 C 0.41863 0.41986 0.08322
 C387 C 0.39103 0.40797 0.07046
 C388 C 0.37544 0.38801 0.08701
 H389 H 0.34587 0.30953 0.23152
 H390 H 0.31221 0.28130 0.26399
 H391 H 0.24745 0.27030 0.18475
 H392 H 0.28080 0.29834 0.15211
 H393 H 0.42481 0.38500 0.15190
 H394 H 0.45206 0.41979 0.12287
 H395 H 0.38122 0.41434 0.04785
 H396 H 0.35395 0.37954 0.07670
 C397 C 0.81382 0.19670 -0.18621
 C398 C 0.82135 0.20191 -0.21791
 C399 C 0.80272 0.21916 -0.23615
 C400 C 0.77622 0.23159 -0.22313
 C401 C 0.76904 0.22696 -0.19133
 C402 C 0.78757 0.20961 -0.17306
 C403 C 0.83283 0.17754 -0.16725
 N404 N 0.82386 0.17046 -0.13769
 N405 N 0.84043 0.15266 -0.12106
 C406 C 0.86671 0.14121 -0.13325
 N407 N 0.87579 0.14843 -0.16272
 N408 N 0.85920 0.16618 -0.17936
 C409 C 0.88461 0.12076 -0.11519
 C410 C 0.91265 0.10990 -0.12731
 C411 C 0.92885 0.08989 -0.11095
 C412 C 0.91735 0.08023 -0.08217
 C413 C 0.88966 0.09132 -0.06974
 C414 C 0.87348 0.11140 -0.08604
 H415 H 0.84147 0.19246 -0.22881
 H416 H 0.80912 0.22280 -0.26046
 H417 H 0.74898 0.23644 -0.18051
 H418 H 0.78117 0.20621 -0.14868
 H419 H 0.92199 0.11667 -0.14961
 H420 H 0.95019 0.08176 -0.12107
 H421 H 0.88029 0.08431 -0.04754
 H422 H 0.85201 0.11932 -0.07598
 C423 C 0.81113 0.69593 0.31092
 C424 C 0.78513 0.70904 0.32425
 C425 C 0.76671 0.72653 0.30612
 C426 C 0.77376 0.73108 0.27428
 C427 C 0.80000 0.71844 0.26106
 C428 C 0.81852 0.70105 0.27917
 C429 C 0.83005 0.67670 0.32977
 N430 N 0.85624 0.66518 0.31749
 N431 N 0.87276 0.64735 0.33405
 C432 C 0.86380 0.64023 0.36359
 N433 N 0.83770 0.65184 0.37594
 N434 N 0.82120 0.66971 0.35939
 C435 C 0.88160 0.61970 0.38152
 C436 C 0.87056 0.61044 0.41074
 C437 C 0.88665 0.59028 0.42694
 C438 C 0.91415 0.57904 0.41431
 C439 C 0.92555 0.58859 0.38545
 C440 C 0.90943 0.60867 0.36920
 H441 H 0.77887 0.70571 0.34869
 H442 H 0.74688 0.73620 0.31710
 H443 H 0.80634 0.72207 0.23673
 H444 H 0.83847 0.69144 0.26815
 H445 H 0.84923 0.61849 0.42095
 H446 H 0.87739 0.58333 0.44921
 H447 H 0.94675 0.58032 0.37519
 H448 H 0.91869 0.61538 0.34683
 C449 C 0.31409 0.19692 0.31433
 C450 C 0.28778 0.20975 0.32745
 C451 C 0.26921 0.22702 0.30914
 C452 C 0.27643 0.23161 0.27735
 C453 C 0.30298 0.21927 0.26436
 C454 C 0.32166 0.20210 0.28263
 C455 C 0.33309 0.17781 0.33329
 N456 N 0.35952 0.16654 0.32120
 N457 N 0.37605 0.14873 0.33780
 C458 C 0.36684 0.14139 0.36717
 N459 N 0.34051 0.15277 0.37934
 N460 N 0.32401 0.17062 0.36276
 C461 C 0.38456 0.12079 0.38507
 C462 C 0.37322 0.11122 0.41403
 C463 C 0.38915 0.09090 0.43009
 C464 C 0.41678 0.07979 0.41757
 C465 C 0.42852 0.08968 0.38901
 C466 C 0.41257 0.10993 0.37290
 H467 H 0.28137 0.20636 0.35183
 H468 H 0.24912 0.23645 0.31993
 H469 H 0.30941 0.22290 0.24005
 H470 H 0.34183 0.19270 0.27177
 H471 H 0.35176 0.11914 0.42411
 H472 H 0.37963 0.08369 0.45213
 H473 H 0.44984 0.08153 0.37886
 H474 H 0.42206 0.11688 0.35074
 C475 C 0.31096 0.69595 -0.18835
 C476 C 0.28496 0.70908 -0.17505
 C477 C 0.26656 0.72656 -0.19323
 C478 C 0.27363 0.73107 -0.22508
 C479 C 0.29987 0.71841 -0.23825
 C480 C 0.31838 0.70103 -0.22011
 C481 C 0.32984 0.67671 -0.16947
 N482 N 0.35597 0.66510 -0.18175
 N483 N 0.37244 0.64724 -0.16517
 C484 C 0.36347 0.64019 -0.13562
 N485 N 0.33743 0.65189 -0.12327
 N486 N 0.32099 0.66979 -0.13983
 C487 C 0.38119 0.61963 -0.11766
 C488 C 0.37017 0.61048 -0.08838
 C489 C 0.38617 0.59028 -0.07216
 C490 C 0.41355 0.57889 -0.08483
 C491 C 0.42495 0.58833 -0.11375
 C492 C 0.40892 0.60845 -0.13002
 H493 H 0.27868 0.70578 -0.15062
 H494 H 0.24672 0.73625 -0.18228
 H495 H 0.30623 0.72200 -0.26259
 H496 H 0.33833 0.69140 -0.23110
 H497 H 0.34891 0.61865 -0.07815
 H498 H 0.37691 0.58343 -0.04985
 H499 H 0.44607 0.57994 -0.12403
 H500 H 0.41817 0.61507 -0.15243
 C501 C 1.18928 -0.18961 -0.18700
 C502 C 1.18162 -0.21664 -0.18864
 C503 C 1.19958 -0.23375 -0.20719
 C504 C 1.22485 -0.22399 -0.22505
 C505 C 1.23228 -0.19695 -0.22362
 C506 C 1.21488 -0.17997 -0.20451
 C507 C 1.17084 -0.17141 -0.16716
 N508 N 1.18481 -0.14946 -0.15454
 N509 N 1.16821 -0.13270 -0.13705
 C510 C 1.13690 -0.13707 -0.13174
 N511 N 1.12286 -0.15900 -0.14440
 N512 N 1.13957 -0.17594 -0.16163
 C513 C 1.11851 -0.11792 -0.11312
 C514 C 1.08577 -0.11450 -0.11892
 C515 C 1.06899 -0.09503 -0.10268
 C516 C 1.08455 -0.07912 -0.07990
 C517 C 1.11702 -0.08313 -0.07341
 C518 C 1.13391 -0.10215 -0.09011
 H519 H 1.16212 -0.22460 -0.17518
 H520 H 1.19362 -0.25461 -0.20773
 H521 H 1.25162 -0.18880 -0.23704
 H522 H 1.22118 -0.15918 -0.20380
 H523 H 1.07337 -0.12635 -0.13664
 H524 H 1.04392 -0.09234 -0.10800
 H525 H 1.12957 -0.07110 -0.05597
 H526 H 1.15909 -0.10449 -0.08505
 C527 C 1.19100 0.31061 0.31437
 C528 C 1.18369 0.28349 0.31310
 C529 C 1.20189 0.26635 0.29482
 C530 C 1.22707 0.27616 0.27686
 C531 C 1.23416 0.30326 0.27793
 C532 C 1.21652 0.32029 0.29676
 C533 C 1.17225 0.32887 0.33385
 N534 N 1.18581 0.35119 0.34595
 N535 N 1.16890 0.36802 0.36303
 C536 C 1.13767 0.36336 0.36845
 N537 N 1.12404 0.34104 0.35632
 N538 N 1.14106 0.32404 0.33949
 C539 C 1.11890 0.38261 0.38655
 C540 C 1.08606 0.38535 0.38082
 C541 C 1.06887 0.40489 0.39650
 C542 C 1.08412 0.42158 0.41866
 C543 C 1.11672 0.41827 0.42511
 C544 C 1.13401 0.39916 0.40896
 H545 H 1.16426 0.27550 0.32663
 H546 H 1.19617 0.24545 0.29454
 H547 H 1.25340 0.31146 0.26441
 H548 H 1.22255 0.34113 0.29717
 H549 H 1.07386 0.37290 0.36356
 H550 H 1.04371 0.40703 0.39123
 H551 H 1.12905 0.43090 0.44208
 H552 H 1.15926 0.39736 0.41396
 C553 C 0.68938 -0.18974 0.31265
 C554 C 0.68174 -0.21678 0.31090
 C555 C 0.69971 -0.23383 0.29228
 C556 C 0.72497 -0.22400 0.27446
 C557 C 0.73239 -0.19697 0.27601
 C558 C 0.71498 -0.18004 0.29519
 C559 C 0.67089 -0.17160 0.33253
 N560 N 0.68478 -0.14962 0.34515
 N561 N 0.66812 -0.13291 0.36265
 C562 C 0.63682 -0.13736 0.36796
 N563 N 0.62287 -0.15933 0.35530
 N564 N 0.63964 -0.17622 0.33806
 C565 C 0.61834 -0.11824 0.38653
 C566 C 0.58558 -0.11499 0.38076
 C567 C 0.56869 -0.09554 0.39692
 C568 C 0.58416 -0.07948 0.41961
 C569 C 0.61666 -0.08333 0.42610
 C570 C 0.63367 -0.10233 0.40946
 H571 H 0.66224 -0.22478 0.32432
 H572 H 0.69375 -0.25468 0.29166
 H573 H 0.75172 -0.18876 0.26262
 H574 H 0.72127 -0.15925 0.29598
 H575 H 0.57323 -0.12694 0.36310
 H576 H 0.54360 -0.09298 0.39161
 H577 H 0.62915 -0.07118 0.44346
 H578 H 0.65886 -0.10454 0.41451
 C579 C 0.69054 0.31073 -0.18612
 C580 C 0.68334 0.28359 -0.18727
 C581 C 0.70159 0.26642 -0.20552
 C582 C 0.72671 0.27620 -0.22358
 C583 C 0.73369 0.30334 -0.22261
 C584 C 0.71602 0.32039 -0.20380
 C585 C 0.67173 0.32904 -0.16665
 N586 N 0.68519 0.35147 -0.15474
 N587 N 0.66827 0.36830 -0.13765
 C588 C 0.63709 0.36353 -0.13202
 N589 N 0.62356 0.34111 -0.14397
 N590 N 0.64060 0.32411 -0.16081
 C591 C 0.61828 0.38274 -0.11379
 C592 C 0.58536 0.38526 -0.11919
 C593 C 0.56809 0.40464 -0.10326
 C594 C 0.58334 0.42140 -0.08115
 C595 C 0.61605 0.41833 -0.07507
 C596 C 0.63341 0.39939 -0.09148
 H597 H 0.66395 0.27559 -0.17369
 H598 H 0.69593 0.24550 -0.20569
 H599 H 0.75289 0.31155 -0.23618
 H600 H 0.72199 0.34125 -0.20349
 H601 H 0.57313 0.37274 -0.13635
 H602 H 0.54286 0.40658 -0.10828
 H603 H 0.62839 0.43101 -0.05817
 H604 H 0.65872 0.39778 -0.08671
 C605 C 1.18685 0.19003 -0.19113
 C606 C 1.21233 0.18049 -0.20884
 C607 C 1.22974 0.19755 -0.22790
 C608 C 1.22247 0.22458 -0.22913
 C609 C 1.19723 0.23423 -0.21120
 C610 C 1.17925 0.21703 -0.19269
 C611 C 1.16868 0.17178 -0.17098
 N612 N 1.13751 0.17617 -0.16496
 N613 N 1.12110 0.15927 -0.14733
 C614 C 1.13534 0.13751 -0.13472
 N615 N 1.16656 0.13328 -0.14054
 N616 N 1.18285 0.15000 -0.15843
 C617 C 1.11727 0.11841 -0.11559
 C618 C 1.13303 0.10294 -0.09264
 C619 C 1.11639 0.08402 -0.07542
 C620 C 1.08382 0.07977 -0.08134
 C621 C 1.06793 0.09537 -0.10406
 C622 C 1.08445 0.11476 -0.12080
 H623 H 1.21860 0.15973 -0.20820
 H624 H 1.24909 0.18947 -0.24131
 H625 H 1.19145 0.25509 -0.21148
 H626 H 1.15987 0.22493 -0.17907
 H627 H 1.15828 0.10546 -0.08802
 H628 H 1.12921 0.07223 -0.05805
 H629 H 1.04279 0.09250 -0.10896
 H630 H 1.07177 0.12636 -0.13845
 C631 C 1.18691 0.69123 0.30791
 C632 C 1.18975 0.71806 0.31616
 C633 C 1.20862 0.73513 0.29833
 C634 C 1.22574 0.72560 0.27238
 C635 C 1.22309 0.69863 0.26449
 C636 C 1.20367 0.68175 0.28182
 C637 C 1.16667 0.67304 0.32625
 N638 N 1.15374 0.65119 0.31229
 N639 N 1.13602 0.63444 0.32877
 C640 C 1.13074 0.63868 0.35999
 N641 N 1.14367 0.66053 0.37400
 N642 N 1.16114 0.67745 0.35741
 C643 C 1.11200 0.61943 0.37841
 C644 C 1.11726 0.61656 0.41118
 C645 C 1.10100 0.59711 0.42810
 C646 C 1.07868 0.58059 0.41269
 C647 C 1.07268 0.58402 0.38014
 C648 C 1.08942 0.60305 0.36311
 H649 H 1.17695 0.72595 0.33608
 H650 H 1.20989 0.75582 0.30497
 H651 H 1.23570 0.69027 0.24483
 H652 H 1.20211 0.66111 0.27503
 H653 H 1.13460 0.62884 0.42357
 H654 H 1.10598 0.59492 0.45321
 H655 H 1.05563 0.57153 0.36767
 H656 H 1.08474 0.60492 0.33791
 C657 C 0.68643 0.18994 0.30897
 C658 C 0.71180 0.18037 0.29114
 C659 C 0.72938 0.19747 0.27228
 C660 C 0.72241 0.22457 0.27140
 C661 C 0.69731 0.23425 0.28950
 C662 C 0.67915 0.21702 0.30780
 C663 C 0.66804 0.17162 0.32883
 N664 N 0.63683 0.17603 0.33466
 N665 N 0.62023 0.15904 0.35200
 C666 C 0.63432 0.13716 0.36448
 N667 N 0.66557 0.13291 0.35885
 N668 N 0.68204 0.14972 0.34124
 C669 C 0.61612 0.11801 0.38341
 C670 C 0.63174 0.10260 0.40649
 C671 C 0.61504 0.08365 0.42359
 C672 C 0.58253 0.07931 0.41743
 C673 C 0.56676 0.09483 0.39454
 C674 C 0.58335 0.11426 0.37791
 H675 H 0.71782 0.15955 0.29148
 H676 H 0.74856 0.18934 0.25868
 H677 H 0.69171 0.25514 0.28943
 H678 H 0.65984 0.22493 0.32152
 H679 H 0.65694 0.10519 0.41133
 H680 H 0.62777 0.07193 0.44109
 H681 H 0.54166 0.09189 0.38946
 H682 H 0.57078 0.12582 0.36015
 C683 C 0.68569 0.69045 -0.19090
 C684 C 0.68753 0.71750 -0.18336
 C685 C 0.70655 0.73450 -0.20108
 C686 C 0.72468 0.72464 -0.22602
 C687 C 0.72313 0.69758 -0.23326
 C688 C 0.70357 0.68070 -0.21611
 C689 C 0.66534 0.67235 -0.17270
 N690 N 0.65303 0.65021 -0.18650
 N691 N 0.63519 0.63353 -0.17007
 C692 C 0.62917 0.63818 -0.13908
 N693 N 0.64149 0.66032 -0.12523
 N694 N 0.65908 0.67717 -0.14178
 C695 C 0.61042 0.61901 -0.12069
 C696 C 0.61553 0.61632 -0.08788
 C697 C 0.59937 0.59684 -0.07098
 C698 C 0.57731 0.58014 -0.08646
 C699 C 0.57140 0.58343 -0.11903
 C700 C 0.58807 0.60248 -0.13606
 H701 H 0.67384 0.72556 -0.16416
 H702 H 0.70716 0.75537 -0.19524
 H703 H 0.73678 0.68931 -0.25230
 H704 H 0.70278 0.65990 -0.22229
 H705 H 0.63272 0.62873 -0.07548
 H706 H 0.60424 0.59474 -0.04583
 H707 H 0.55454 0.57077 -0.13153
 H708 H 0.58353 0.60424 -0.16130
 C709 C 0.81590 -0.19784 -0.18744
 C710 C 0.79674 -0.21704 -0.17301
 C711 C 0.77763 -0.23402 -0.19143
 C712 C 0.77685 -0.23175 -0.22454
 C713 C 0.79658 -0.21311 -0.23898
 C714 C 0.81596 -0.19636 -0.22068
 C715 C 0.83526 -0.17907 -0.16812
 N716 N 0.85804 -0.16402 -0.18174
 N717 N 0.87470 -0.14643 -0.16475
 C718 C 0.86922 -0.14303 -0.13341
 N719 N 0.84653 -0.15816 -0.11972
 N720 N 0.82995 -0.17586 -0.13671
 C721 C 0.88695 -0.12261 -0.11497
 C722 C 0.87680 -0.11473 -0.08484
 C723 C 0.89257 -0.09437 -0.06838
 C724 C 0.91894 -0.08167 -0.08160
 C725 C 0.92958 -0.09000 -0.11130
 C726 C 0.91369 -0.11016 -0.12786
 H727 H 0.79653 -0.21897 -0.14749
 H728 H 0.76359 -0.24882 -0.17962
 H729 H 0.79702 -0.21136 -0.26447
 H730 H 0.83055 -0.18193 -0.23261
 H731 H 0.85627 -0.12389 -0.07425
 H732 H 0.88394 -0.08839 -0.04545
 H733 H 0.94990 -0.08062 -0.12205
 H734 H 0.92227 -0.11584 -0.15091
 C735 C 0.81040 0.30323 0.31032
 C736 C 0.78400 0.29024 0.32321
 C737 C 0.76516 0.27327 0.30454
 C738 C 0.77218 0.26915 0.27259
 C739 C 0.79875 0.28174 0.25980
 C740 C 0.81770 0.29858 0.27843
 C741 C 0.82989 0.32186 0.32976
 N742 N 0.85653 0.33307 0.31790
 N743 N 0.87358 0.35038 0.33497
 C744 C 0.86472 0.35725 0.36462
 N745 N 0.83817 0.34593 0.37657
 N746 N 0.82114 0.32858 0.35952
 C747 C 0.88306 0.37732 0.38306
 C748 C 0.87208 0.38654 0.41234
 C749 C 0.88852 0.40649 0.42884
 C750 C 0.91631 0.41756 0.41647
 C751 C 0.92775 0.40794 0.38765
 C752 C 0.91129 0.38807 0.37110
 H753 H 0.77779 0.29322 0.34773
 H754 H 0.74507 0.26364 0.31519
 H755 H 0.80508 0.27844 0.23539
 H756 H 0.83792 0.30812 0.26772
 H757 H 0.85047 0.37869 0.42229
 H758 H 0.87921 0.41349 0.45107
 H759 H 0.94918 0.41606 0.37759
 H760 H 0.92053 0.38137 0.34872
 C761 C 0.31429 -0.19815 0.31044
 C762 C 0.29723 -0.21874 0.32475
 C763 C 0.27826 -0.23594 0.30642
 C764 C 0.27521 -0.23244 0.27347
 C765 C 0.29318 -0.21244 0.25914
 C766 C 0.31245 -0.19552 0.27735
 C767 C 0.33357 -0.17925 0.32975
 N768 N 0.35515 -0.16319 0.31583
 N769 N 0.37178 -0.14557 0.33284
 C770 C 0.36744 -0.14312 0.36451
 N771 N 0.34592 -0.15924 0.37849
 N772 N 0.32939 -0.17698 0.36148
 C773 C 0.38525 -0.12277 0.38307
 C774 C 0.37571 -0.11550 0.41363
 C775 C 0.39163 -0.09530 0.43030
 C776 C 0.41761 -0.08218 0.41690
 C777 C 0.42763 -0.08987 0.38672
 C778 C 0.41155 -0.10983 0.36994
 H779 H 0.29868 -0.22168 0.35013
 H780 H 0.26630 -0.25194 0.31829
 H781 H 0.29241 -0.20963 0.23379
 H782 H 0.32549 -0.18005 0.26548
 H783 H 0.35553 -0.12503 0.42442
 H784 H 0.38345 -0.08982 0.45357
 H785 H 0.44761 -0.08015 0.37579
 H786 H 0.41968 -0.11502 0.34656
 C787 C 0.31000 0.30316 -0.18948
 C788 C 0.28356 0.29006 -0.17684
 C789 C 0.26493 0.27309 -0.19571
 C790 C 0.27217 0.26908 -0.22763
 C791 C 0.29879 0.28177 -0.24018
 C792 C 0.31755 0.29861 -0.22134
 C793 C 0.32926 0.32179 -0.16983
 N794 N 0.35607 0.33296 -0.18136
 N795 N 0.37292 0.35026 -0.16410
 C796 C 0.36369 0.35718 -0.13457
 N797 N 0.33696 0.34590 -0.12296
 N798 N 0.32013 0.32855 -0.14020
 C799 C 0.38187 0.37722 -0.11594
 C800 C 0.37054 0.38662 -0.08688
 C801 C 0.38691 0.40655 -0.07025
 C802 C 0.41498 0.41741 -0.08228
 C803 C 0.42674 0.40760 -0.11088
 C804 C 0.41036 0.38777 -0.12755
 H805 H 0.27716 0.29295 -0.15236
 H806 H 0.24478 0.26340 -0.18523
 H807 H 0.30529 0.27857 -0.26456
 H808 H 0.33781 0.30824 -0.23186
 H809 H 0.34871 0.37892 -0.07722
 H810 H 0.37735 0.41370 -0.04819
 H811 H 0.44838 0.41554 -0.12068
 H812 H 0.41989 0.38093 -0.14975
 C813 C 1.18865 -0.19588 0.18885
 C814 C 1.17609 -0.20762 0.21608
 C815 C 1.19429 -0.22523 0.23433
 C816 C 1.22556 -0.23145 0.22589
 C817 C 1.23790 -0.22002 0.19836
 C818 C 1.21970 -0.20249 0.18007
 C819 C 1.16974 -0.17654 0.17001
 N820 N 1.18151 -0.16583 0.14314
 N821 N 1.16491 -0.14800 0.12663
 C822 C 1.13580 -0.14005 0.13626
 N823 N 1.12396 -0.15084 0.16306
 N824 N 1.14055 -0.16870 0.17956
 C825 C 1.11775 -0.11960 0.11833
 C826 C 1.08860 -0.11006 0.12946
 C827 C 1.07223 -0.09008 0.11315
 C828 C 1.08459 -0.07925 0.08534
 C829 C 1.11339 -0.08905 0.07388
 C830 C 1.12981 -0.10897 0.09019
 H831 H 1.15220 -0.20311 0.22349
 H832 H 1.18363 -0.23362 0.25508
 H833 H 1.26172 -0.22457 0.19077
 H834 H 1.23015 -0.19395 0.15918
 H835 H 1.07856 -0.11779 0.15100
 H836 H 1.05003 -0.08295 0.12250
 H837 H 1.12347 -0.08111 0.05246
 H838 H 1.15211 -0.11587 0.08085
 C839 C 1.18635 0.30390 0.68161
 C840 C 1.17119 0.28466 0.70008
 C841 C 1.18905 0.26723 0.71890
 C842 C 1.22233 0.26908 0.72009
 C843 C 1.23751 0.28773 0.70101
 C844 C 1.21976 0.30495 0.68193
 C845 C 1.16761 0.32314 0.66261
 N846 N 1.18192 0.33849 0.64064
 N847 N 1.16541 0.35648 0.62432
 C848 C 1.13390 0.35998 0.62935
 N849 N 1.11952 0.34454 0.65122
 N850 N 1.13602 0.32646 0.66746
 C851 C 1.11594 0.38075 0.61200
 C852 C 1.08554 0.38846 0.62175
 C853 C 1.06937 0.40899 0.60628
 C854 C 1.08316 0.42205 0.58059
 C855 C 1.11320 0.41399 0.57038
 C856 C 1.12948 0.39365 0.58600
 H857 H 1.14551 0.28304 0.69997
 H858 H 1.17668 0.25241 0.73239
 H859 H 1.26315 0.28915 0.70086
 H860 H 1.23225 0.31939 0.66787
 H861 H 1.07445 0.37897 0.64172
 H862 H 1.04617 0.41475 0.61456
 H863 H 1.12437 0.42368 0.55059
 H864 H 1.15277 0.38813 0.57776
 C865 C 0.68810 -0.19544 0.68778
 C866 C 0.67468 -0.20864 0.71364
 C867 C 0.69290 -0.22605 0.73208
 C868 C 0.72495 -0.23043 0.72523
 C869 C 0.73825 -0.21769 0.69914
 C870 C 0.72005 -0.20038 0.68058
 C871 C 0.66911 -0.17634 0.66877
 N872 N 0.68144 -0.16479 0.64267
 N873 N 0.66474 -0.14711 0.62605
 C874 C 0.63498 -0.14018 0.63481
 N875 N 0.62258 -0.15182 0.66082
 N876 N 0.63927 -0.16954 0.67743
 C877 C 0.61686 -0.11983 0.61688
 C878 C 0.58743 -0.11070 0.62775
 C879 C 0.57106 -0.09069 0.61155
 C880 C 0.58370 -0.07946 0.58411
 C881 C 0.61275 -0.08890 0.57285
 C882 C 0.62919 -0.10883 0.58908
 H883 H 0.65009 -0.20546 0.71975
 H884 H 0.68183 -0.23582 0.75176
 H885 H 0.76272 -0.22121 0.69291
 H886 H 0.73115 -0.19071 0.66075
 H887 H 0.57721 -0.11873 0.64904
 H888 H 0.54865 -0.08383 0.62071
 H889 H 0.62303 -0.08064 0.55170
 H890 H 0.65170 -0.11544 0.57995
 C891 C 0.68584 0.30371 0.18225
 C892 C 0.67080 0.28447 0.20083
 C893 C 0.68879 0.26706 0.21957
 C894 C 0.72207 0.26894 0.22057
 C895 C 0.73712 0.28759 0.20139
 C896 C 0.71924 0.30478 0.18238
 C897 C 0.66698 0.32293 0.16335
 N898 N 0.68114 0.33820 0.14121
 N899 N 0.66454 0.35617 0.12497
 C900 C 0.63309 0.35975 0.13025
 N901 N 0.61886 0.34440 0.15230
 N902 N 0.63545 0.32632 0.16847
 C903 C 0.61506 0.38051 0.11297
 C904 C 0.58478 0.38836 0.12295
 C905 C 0.56858 0.40889 0.10750
 C906 C 0.58221 0.42180 0.08161
 C907 C 0.61211 0.41359 0.07119
 C908 C 0.62842 0.39326 0.08678
 H909 H 0.64512 0.28284 0.20088
 H910 H 0.67651 0.25226 0.23316
 H911 H 0.76276 0.28904 0.20110
 H912 H 0.73164 0.31922 0.16823
 H913 H 0.57383 0.37899 0.14306
 H914 H 0.54549 0.41478 0.11595
 H915 H 0.62317 0.42315 0.05125
 H916 H 0.65161 0.38763 0.07835
 C917 C 0.81219 0.19426 0.18503
 C918 C 0.78421 0.20529 0.17200
 C919 C 0.76499 0.22160 0.19027
 C920 C 0.77341 0.22721 0.22181
 C921 C 0.80140 0.21653 0.23485
 C922 C 0.82070 0.20027 0.21662
 C923 C 0.83182 0.17596 0.16614
 N924 N 0.85923 0.16576 0.17839
 N925 N 0.87628 0.14859 0.16188
 C926 C 0.86664 0.14084 0.13241
 N927 N 0.83934 0.15117 0.12007
 N928 N 0.82231 0.16837 0.13657
 C929 C 0.88491 0.12085 0.11460
 C930 C 0.87349 0.11120 0.08526
 C931 C 0.88987 0.09135 0.06929
 C932 C 0.91804 0.08080 0.08227
 C933 C 0.92990 0.09083 0.11118
 C934 C 0.91350 0.11062 0.12720
 H935 H 0.77690 0.20108 0.14780
 H936 H 0.74328 0.22942 0.17985
 H937 H 0.80810 0.22045 0.25930
 H938 H 0.84200 0.19208 0.22747
 H939 H 0.85159 0.11864 0.07481
 H940 H 0.88023 0.08405 0.04697
 H941 H 0.95163 0.08310 0.12170
 H942 H 0.92308 0.11765 0.14966
 C943 C 0.81121 0.69418 0.68403
 C944 C 0.82478 0.70560 0.71155
 C945 C 0.80671 0.72184 0.73102
 C946 C 0.77481 0.72701 0.72333
 C947 C 0.76123 0.71600 0.69576
 C948 C 0.77927 0.69977 0.67622
 C949 C 0.82998 0.67592 0.66422
 N950 N 0.81704 0.66474 0.63767
 N951 N 0.83355 0.64760 0.62055
 C952 C 0.86371 0.64089 0.62927
 N953 N 0.87671 0.65221 0.65569
 N954 N 0.86022 0.66936 0.67278
 C955 C 0.88167 0.62093 0.61108
 C956 C 0.91190 0.61262 0.62171
 C957 C 0.92817 0.59284 0.60560
 C958 C 0.91465 0.58095 0.57845
 C959 C 0.88481 0.58962 0.56731
 C960 C 0.86845 0.60939 0.58348
 H961 H 0.84927 0.70173 0.71833
 H962 H 0.81759 0.72993 0.75236
 H963 H 0.73654 0.71967 0.68957
 H964 H 0.76802 0.69131 0.65527
 H965 H 0.92286 0.62109 0.64281
 H966 H 0.95121 0.58662 0.61467
 H967 H 0.87386 0.58084 0.54638
 H968 H 0.84528 0.61536 0.57455
 C969 C 0.31159 0.19400 0.68418
 C970 C 0.32081 0.20060 0.71542
 C971 C 0.30176 0.21699 0.73377
 C972 C 0.27333 0.22721 0.72119
 C973 C 0.26417 0.22098 0.69000
 C974 C 0.28314 0.20455 0.67162
 C975 C 0.33098 0.17556 0.66521
 N976 N 0.32090 0.16751 0.63600
 N977 N 0.33775 0.15022 0.61944
 C978 C 0.36543 0.14026 0.63136
 N979 N 0.37562 0.14847 0.66047
 N980 N 0.35876 0.16573 0.67704
 C981 C 0.38357 0.12021 0.61350
 C982 C 0.41244 0.11027 0.62579
 C983 C 0.42878 0.09046 0.60976
 C984 C 0.41661 0.08011 0.58113
 C985 C 0.38813 0.09035 0.56846
 C986 C 0.37178 0.11021 0.58446
 H987 H 0.34249 0.19278 0.72592
 H988 H 0.30901 0.22134 0.75796
 H989 H 0.24209 0.22840 0.67997
 H990 H 0.27526 0.19987 0.64771
 H991 H 0.42230 0.11756 0.64801
 H992 H 0.45075 0.08300 0.62004
 H993 H 0.37824 0.08278 0.54637
 H994 H 0.34966 0.11743 0.57426
 C995 C 0.31019 0.69434 0.18564
 C996 C 0.32314 0.70501 0.21386
 C997 C 0.30504 0.72156 0.23298
 C998 C 0.27363 0.72793 0.22424
 C999 C 0.26071 0.71749 0.19596
 C1000 C 0.27881 0.70096 0.17682
 C1001 C 0.32893 0.67578 0.16610
 N1002 N 0.31639 0.66516 0.13904
 N1003 N 0.33286 0.64787 0.12207
 C1004 C 0.36259 0.64043 0.13143
 N1005 N 0.37519 0.65118 0.15839
 N1006 N 0.35874 0.66847 0.17534
 C1007 C 0.38055 0.62044 0.11320
 C1008 C 0.41061 0.61183 0.12400
 C1009 C 0.42696 0.59218 0.10770
 C1010 C 0.41369 0.58067 0.08018
 C1011 C 0.38398 0.58957 0.06894
 C1012 C 0.36756 0.60922 0.08529
 H1013 H 0.34718 0.70029 0.22147
 H1014 H 0.31559 0.72890 0.25487
 H1015 H 0.23637 0.72169 0.18886
 H1016 H 0.26798 0.69305 0.15535
 H1017 H 0.42141 0.62003 0.14534
 H1018 H 0.44988 0.58578 0.11688
 H1019 H 0.37320 0.58109 0.04775
 H1020 H 0.34452 0.61540 0.07621
   
