data_POSCAR
  _audit_creation_date              2014-09-24
  _audit_creation_method            'ToBaCCo'
  _symmetry_space_group_name_H-M    'P1'
  _symmetry_Int_Tables_number       1
  _symmetry_cell_setting            triclinic
  loop_
  _symmetry_equiv_pos_as_xyz
 x,y,z
_cell_length_a 26.1369
_cell_length_b 26.3312
_cell_length_c 26.3509
_cell_angle_alpha 95.998700
_cell_angle_beta 97.746900
_cell_angle_gamma 97.444100
loop_
  _atom_site_label
  _atom_site_type_symbol
  _atom_site_fract_x
  _atom_site_fract_y
  _atom_site_fract_z
C1 C 0.62756 0.55653 0.00701
 C2 C 0.61680 0.60768 0.01167
 C3 C 0.56638 0.62023 0.01478
 C4 C 0.52477 0.57886 0.01359
 C5 C 0.53463 0.52676 0.00843
 C6 C 0.58635 0.51596 0.00855
 C7 C 0.59605 0.46539 0.01485
 C8 C 0.55553 0.42508 0.01239
 C9 C 0.50330 0.43344 0.00416
 C10 C 0.49284 0.48516 0.00529
 C11 C 0.47470 0.58771 0.02282
 C12 C 0.43386 0.54723 0.01844
 C13 C 0.44104 0.49565 0.00527
 C14 C 0.39871 0.45413 -0.00291
 C15 C 0.41022 0.40314 -0.00562
 C16 C 0.46151 0.39193 -0.00200
 H17 H 0.63533 0.45647 0.02296
 H18 H 0.56590 0.38742 0.01800
 H19 H 0.46658 0.62592 0.03500
 H20 H 0.39680 0.55691 0.02720
 H21 H 0.64754 0.63832 0.00806
 H22 H 0.37861 0.37109 -0.01359
 C23 C 0.01318 0.60604 0.46057
 C24 C 0.02107 0.59048 0.41033
 C25 C 0.02316 0.53861 0.39297
 C26 C 0.02139 0.50203 0.42898
 C27 C 0.01214 0.51738 0.47978
 C28 C 0.00687 0.56930 0.49525
 C29 C -0.00541 0.58301 0.54471
 C30 C -0.00883 0.54718 0.57957
 C31 C -0.00012 0.49633 0.56630
 C32 C 0.00849 0.48079 0.51541
 C33 C 0.03182 0.45140 0.41675
 C34 C 0.02734 0.41532 0.45134
 C35 C 0.01399 0.42886 0.50029
 C36 C 0.00781 0.39224 0.53529
 C37 C 0.00187 0.40863 0.58606
 C38 C -0.00043 0.46035 0.60244
 H39 H -0.01277 0.62152 0.55702
 H40 H -0.01887 0.55970 0.61692
 H41 H 0.04448 0.43925 0.38058
 H42 H 0.03565 0.37698 0.43971
 H43 H 0.02266 0.61923 0.38375
 H44 H -0.00036 0.38072 0.61346
 C45 C 0.54151 0.00313 0.61360
 C46 C 0.59136 -0.00170 0.60084
 C47 C 0.60151 -0.00832 0.54972
 C48 C 0.56009 -0.00721 0.50883
 C49 C 0.50924 -0.00197 0.52021
 C50 C 0.49978 0.00310 0.57251
 C51 C 0.44975 0.01177 0.58204
 C52 C 0.40922 0.01127 0.54200
 C53 C 0.41753 0.00673 0.49026
 C54 C 0.46807 0.00032 0.47910
 C55 C 0.56876 -0.00742 0.45710
 C56 C 0.52816 -0.00823 0.41707
 C57 C 0.47750 -0.00382 0.42692
 C58 C 0.43602 -0.00324 0.38618
 C59 C 0.38650 0.00282 0.39836
 C60 C 0.37668 0.00844 0.44939
 H61 H 0.44100 0.02025 0.62060
 H62 H 0.37133 0.01520 0.55263
 H63 H 0.60731 -0.00590 0.44645
 H64 H 0.53756 -0.01140 0.37830
 H65 H 0.62238 -0.00479 0.63164
 H66 H 0.35498 0.00399 0.36736
 O67 O 0.44246 -0.01740 -0.08051
 O68 O 0.44036 -0.01340 0.06032
 O69 O 0.43167 0.05362 -0.00557
 O70 O 0.44952 -0.08378 -0.01418
 O71 O 0.53477 -0.06085 0.00432
 O72 O 0.51703 0.07690 0.00454
 O73 O 0.52499 0.01439 0.07486
 O74 O 0.52807 0.00368 -0.06563
 Cu75 Cu 0.43255 -0.01741 -0.01155
 Cu76 Cu 0.53471 0.01055 0.00595
 C77 C 0.48580 -0.00803 -0.09712
 C78 C 0.48227 0.00217 0.09165
 C79 C 0.47111 0.08865 0.00063
 C80 C 0.49512 -0.09589 -0.00572
 O81 O -0.03603 0.56376 1.00118
 O82 O 0.09330 0.52465 0.99416
 O83 O 0.01415 0.53322 0.92678
 O84 O 0.04322 0.55401 1.06793
 O85 O 0.00739 0.47383 1.07048
 O86 O -0.01723 0.45165 0.92938
 O87 O 0.06114 0.44402 0.99989
 O88 O -0.06955 0.48213 1.00022
 Cu89 Cu 0.03192 0.55211 0.99705
 Cu90 Cu -0.00779 0.45464 1.00021
 C91 C -0.07489 0.52950 1.00162
 C92 C 0.09953 0.47790 0.99672
 C93 C -0.00602 0.48885 0.90400
 C94 C 0.02952 0.51753 1.09336
 O95 O -0.03913 -0.07575 0.45364
 O96 O -0.01582 0.06562 0.47138
 O97 O 0.03771 -0.00734 0.44437
 O98 O -0.09320 -0.00493 0.48048
 O99 O -0.06038 -0.00312 0.56254
 O100 O 0.07075 -0.00482 0.52657
 O101 O 0.01737 0.06563 0.55303
 O102 O -0.00514 -0.07536 0.53515
 Cu103 Cu -0.03106 -0.00527 0.45423
 Cu104 Cu 0.00852 -0.00465 0.55276
 C105 C -0.02496 -0.09961 0.49127
 C106 C 0.00524 0.08972 0.51500
 C107 C 0.07641 -0.00660 0.47935
 C108 C -0.09908 -0.00369 0.52760
 C109 C -0.31544 0.50558 0.96211
 C110 C -0.32177 0.54725 0.99793
 C111 C -0.27652 0.58032 1.02313
 C112 C -0.22657 0.56968 1.01567
 C113 C -0.22135 0.52538 0.98269
 C114 C -0.26597 0.49421 0.95536
 C115 C -0.17159 0.51277 0.97784
 C116 C -0.12681 0.54465 1.00448
 C117 C -0.13210 0.58989 1.03535
 C118 C -0.18164 0.60206 1.04136
 H119 H -0.27983 0.61299 1.05053
 H120 H -0.26265 0.46098 0.92870
 H121 H -0.16762 0.47815 0.95339
 H122 H -0.18480 0.63644 1.06650
 H123 H -0.34898 0.48153 0.93896
 H124 H -0.09791 0.61490 1.05618
 C125 C 0.32924 0.49995 0.95918
 C126 C 0.34550 0.46195 0.98922
 C127 C 0.30719 0.43091 1.00996
 C128 C 0.25513 0.44028 1.00415
 C129 C 0.24068 0.48098 0.97702
 C130 C 0.27776 0.50987 0.95385
 C131 C 0.18952 0.49248 0.97394
 C132 C 0.15221 0.46327 0.99697
 C133 C 0.16629 0.42150 1.02205
 C134 C 0.21744 0.41032 1.02596
 H135 H 0.31816 0.40110 1.03292
 H136 H 0.26702 0.54031 0.93168
 H137 H 0.17880 0.52438 0.95392
 H138 H 0.22768 0.37871 1.04663
 H139 H 0.35644 0.52211 0.93942
 H140 H 0.13813 0.39850 1.04008
 C141 C 0.04740 -0.30990 0.51472
 C142 C 0.01072 -0.33884 0.47504
 C143 C -0.02755 -0.31507 0.44804
 C144 C -0.02919 -0.26244 0.46044
 C145 C 0.00750 -0.23353 0.50091
 C146 C 0.04546 -0.25762 0.52800
 C147 C 0.00666 -0.18068 0.51254
 C148 C -0.02914 -0.15601 0.48312
 C149 C -0.06569 -0.18494 0.44325
 C150 C -0.06611 -0.23798 0.43235
 H151 H -0.05559 -0.33754 0.41713
 H152 H 0.07409 -0.23590 0.55880
 H153 H 0.03548 -0.15833 0.54285
 H154 H -0.09441 -0.25960 0.40120
 H155 H 0.07747 -0.32792 0.53534
 H156 H -0.09355 -0.16639 0.42017
 C157 C -0.03144 0.31044 0.47912
 C158 C 0.00575 0.33634 0.52019
 C159 C 0.03776 0.30824 0.54985
 C160 C 0.03172 0.25449 0.53965
 C161 C -0.00590 0.22855 0.49831
 C162 C -0.03678 0.25692 0.46780
 C163 C -0.01320 0.17461 0.48930
 C164 C 0.01553 0.14633 0.52204
 C165 C 0.05313 0.17243 0.56270
 C166 C 0.06152 0.22616 0.57116
 H167 H 0.06625 0.32823 0.58179
 H168 H -0.06600 0.23764 0.43620
 H169 H -0.04251 0.15464 0.45806
 H170 H 0.09047 0.24548 0.60298
 H171 H -0.05707 0.33164 0.45654
 H172 H 0.07599 0.15122 0.58809
 C173 C 0.57512 0.03896 -0.29640
 C174 C 0.53619 0.00748 -0.33289
 C175 C 0.49496 -0.02164 -0.31410
 C176 C 0.49185 -0.01779 -0.26081
 C177 C 0.53143 0.01392 -0.22531
 C178 C 0.57279 0.04208 -0.24355
 C179 C 0.52927 0.01678 -0.17205
 C180 C 0.48737 -0.01082 -0.15351
 C181 C 0.44755 -0.04145 -0.18918
 C182 C 0.45002 -0.04534 -0.24226
 H183 H 0.46612 -0.04856 -0.34061
 H184 H 0.60341 0.06678 -0.21692
 H185 H 0.56004 0.04090 -0.14503
 H186 H 0.41914 -0.06979 -0.26878
 H187 H 0.60731 0.06225 -0.30883
 H188 H 0.41491 -0.06321 -0.17594
 C189 C 0.40836 -0.05003 0.29694
 C190 C 0.44141 -0.01031 0.33018
 C191 C 0.47602 0.02420 0.30902
 C192 C 0.47844 0.01820 0.25564
 C193 C 0.44431 -0.02145 0.22264
 C194 C 0.40956 -0.05541 0.24378
 C195 C 0.44537 -0.02635 0.16907
 C196 C 0.48129 0.00686 0.14811
 C197 C 0.51603 0.04518 0.18145
 C198 C 0.51421 0.05121 0.23458
 H199 H 0.50078 0.05575 0.33406
 H200 H 0.38323 -0.08614 0.21918
 H201 H 0.41875 -0.05636 0.14378
 H202 H 0.54089 0.08165 0.25921
 H203 H 0.38103 -0.07670 0.31227
 H204 H 0.54393 0.07129 0.16619
 C205 C 0.59827 -0.28797 0.04581
 C206 C 0.55973 -0.32652 0.01658
 C207 C 0.51687 -0.31017 -0.01284
 C208 C 0.51166 -0.25742 -0.01129
 C209 C 0.55066 -0.21975 0.01840
 C210 C 0.59382 -0.23553 0.04665
 C211 C 0.54577 -0.16696 0.01945
 C212 C 0.50159 -0.15132 -0.00784
 C213 C 0.46280 -0.18928 -0.03683
 C214 C 0.46802 -0.24167 -0.03899
 H215 H 0.48817 -0.33824 -0.03823
 H216 H 0.62408 -0.20728 0.06985
 H217 H 0.57580 -0.13817 0.04227
 H218 H 0.43762 -0.26991 -0.06197
 H219 H 0.63168 -0.29835 0.06936
 H220 H 0.42848 -0.17837 -0.05836
 C221 C 0.50030 0.31730 -0.04274
 C222 C 0.46927 0.33622 -0.00744
 C223 C 0.44336 0.30117 0.02090
 C224 C 0.44951 0.24862 0.01518
 C225 C 0.48318 0.23083 -0.01825
 C226 C 0.50811 0.26550 -0.04726
 C227 C 0.49080 0.17861 -0.02249
 C228 C 0.46340 0.14356 0.00461
 C229 C 0.42865 0.16129 0.03626
 C230 C 0.42232 0.21345 0.04212
 H231 H 0.41840 0.31486 0.04743
 H232 H 0.53320 0.25243 -0.07392
 H233 H 0.51717 0.16500 -0.04752
 H234 H 0.39598 0.22623 0.06756
 H235 H 0.51891 0.34285 -0.06666
 H236 H 0.40726 0.13487 0.05747
 C237 C -0.33916 -0.05501 0.50330
 C238 C -0.34731 -0.01653 0.54159
 C239 C -0.30309 0.01266 0.57322
 C240 C -0.25247 0.00646 0.56409
 C241 C -0.24544 -0.02924 0.52264
 C242 C -0.28895 -0.06052 0.49318
 C243 C -0.19504 -0.03278 0.51117
 C244 C -0.15149 -0.00218 0.54165
 C245 C -0.15852 0.03134 0.58433
 C246 C -0.20871 0.03610 0.59514
 H247 H -0.30792 0.04204 0.60353
 H248 H -0.28417 -0.08927 0.46230
 H249 H -0.18959 -0.05925 0.47860
 H250 H -0.21333 0.06334 0.62739
 H251 H -0.37183 -0.08096 0.48087
 H252 H -0.12527 0.05517 0.60819
 C253 C 0.31340 0.05861 0.48918
 C254 C 0.32279 0.01514 0.45805
 C255 C 0.28044 -0.02176 0.43402
 C256 C 0.22957 -0.01670 0.44303
 C257 C 0.22102 0.02533 0.47734
 C258 C 0.26308 0.06317 0.49961
 C259 C 0.17063 0.02859 0.48893
 C260 C 0.12854 -0.00857 0.46518
 C261 C 0.13681 -0.04879 0.42936
 C262 C 0.18712 -0.05324 0.41880
 H263 H 0.28732 -0.05474 0.40893
 H264 H 0.25708 0.09618 0.52514
 H265 H 0.16400 0.05999 0.51620
 H266 H 0.19290 -0.08540 0.39204
 H267 H 0.34538 0.08837 0.50648
 H268 H 0.10452 -0.07769 0.41087
 C269 C -0.01040 0.48134 1.31264
 C270 C 0.02318 0.52481 1.33968
 C271 C 0.05307 0.55698 1.31167
 C272 C 0.04936 0.54618 1.25809
 C273 C 0.01580 0.50225 1.23178
 C274 C -0.01352 0.46984 1.25940
 C275 C 0.01087 0.49226 1.17807
 C276 C 0.03819 0.52628 1.15009
 C277 C 0.07193 0.56961 1.17655
 C278 C 0.07779 0.57928 1.23024
 H279 H 0.07953 0.59040 1.33158
 H280 H -0.04003 0.43641 1.23965
 H281 H -0.01555 0.45891 1.15797
 H282 H 0.10373 0.61314 1.24985
 H283 H -0.03609 0.45726 1.33230
 H284 H 0.09353 0.59622 1.15571
 C285 C 0.04009 0.51480 0.68480
 C286 C 0.00097 0.47583 0.65825
 C287 C -0.03362 0.44873 0.68573
 C288 C -0.02870 0.45991 0.73940
 C289 C 0.01039 0.49970 0.76568
 C290 C 0.04422 0.52727 0.73800
 C291 C 0.01617 0.51014 0.81939
 C292 C -0.01535 0.48017 0.84742
 C293 C -0.05408 0.44069 0.82120
 C294 C -0.06114 0.43102 0.76745
 H295 H -0.06343 0.41818 0.66539
 H296 H 0.07474 0.55745 0.75765
 H297 H 0.04656 0.54025 0.83955
 H298 H -0.09116 0.40029 0.74794
 H299 H 0.06798 0.53508 0.66431
 H300 H -0.07885 0.41732 0.84233
   
