data_POSCAR
  _audit_creation_date              2014-09-24
  _audit_creation_method            'ToBaCCo'
  _symmetry_space_group_name_H-M    'P1'
  _symmetry_Int_Tables_number       1
  _symmetry_cell_setting            triclinic
  loop_
  _symmetry_equiv_pos_as_xyz
 x,y,z
_cell_length_a 9.8270
_cell_length_b 37.4202
_cell_length_c 9.9101
_cell_angle_alpha 88.782900
_cell_angle_beta 92.092300
_cell_angle_gamma 89.100600
loop_
  _atom_site_label
  _atom_site_type_symbol
  _atom_site_fract_x
  _atom_site_fract_y
  _atom_site_fract_z
N1 N 0.18947 0.03626 0.19012
 N2 N 0.25984 0.06562 0.20473
 N3 N 0.07135 -0.03754 0.26093
 N4 N 0.05428 -0.06857 0.32372
 N5 N 0.18713 -0.03792 0.19863
 N6 N 0.25181 -0.06877 0.21950
 N7 N 0.07234 0.03881 0.24931
 N8 N 0.05917 0.07089 0.30186
 C9 C 0.17861 0.08691 0.27541
 C10 C 0.16875 -0.08757 0.29879
 N11 N -0.28088 -0.03662 0.06328
 N12 N -0.33998 -0.06781 0.04774
 N13 N -0.21392 0.03879 0.17129
 N14 N -0.22219 0.06986 0.23066
 N15 N -0.28067 0.03975 0.05394
 N16 N -0.33406 0.07433 0.02998
 N17 N -0.21388 -0.03613 0.18049
 N18 N -0.22774 -0.06669 0.24736
 Mn19 Mn -0.07180 0.00101 0.21699
 C20 C -0.30802 -0.08612 0.16431
 C21 C -0.29500 0.09164 0.14372
 N22 N 0.25820 -0.03946 -0.08044
 N23 N 0.31858 -0.07305 -0.05629
 N24 N 0.19148 0.03536 -0.20673
 N25 N 0.20579 0.06538 -0.27566
 N26 N 0.25761 0.03645 -0.08933
 N27 N 0.31566 0.06792 -0.07510
 N28 N 0.19155 -0.03918 -0.19768
 N29 N 0.20653 -0.07009 -0.25760
 Mn30 Mn 0.22425 -0.00122 0.05508
 C31 C 0.28381 -0.09076 -0.16987
 C32 C 0.28429 0.08541 -0.19357
 N33 N -0.21139 0.03742 -0.22619
 N34 N -0.27850 0.06792 -0.24687
 N35 N -0.09435 -0.03878 -0.27731
 N36 N -0.07549 -0.07083 -0.32795
 N37 N -0.21217 -0.03699 -0.21898
 N38 N -0.27995 -0.06919 -0.23475
 N39 N -0.09425 0.03791 -0.28613
 N40 N -0.07801 0.06956 -0.34538
 Mn41 Mn -0.24752 0.00085 -0.08207
 Mn42 Mn 0.04904 -0.00118 -0.24353
 Cl43 Cl -0.01157 -0.00018 -0.01347
 C44 C -0.19536 0.08767 -0.32240
 C45 C -0.18992 -0.08925 -0.30199
 N46 N 0.70992 0.53768 0.71990
 N47 N 0.77243 0.56844 0.73465
 N48 N 0.59467 0.46171 0.78586
 N49 N 0.57739 0.42970 0.84160
 N50 N 0.71213 0.46260 0.72652
 N51 N 0.77824 0.43183 0.74405
 N52 N 0.59431 0.53800 0.78260
 N53 N 0.57562 0.56915 0.83997
 C54 C 0.68839 0.58774 0.81123
 C55 C 0.69423 0.41163 0.81711
 N56 N 0.24353 0.46345 0.58816
 N57 N 0.18389 0.43222 0.57308
 N58 N 0.30972 0.53876 0.70048
 N59 N 0.29229 0.56922 0.76270
 N60 N 0.24243 0.53937 0.58344
 N61 N 0.17926 0.57051 0.56295
 N62 N 0.30943 0.46418 0.70571
 N63 N 0.29343 0.43414 0.77405
 Mn64 Mn 0.45160 0.50065 0.74510
 C65 C 0.21415 0.41448 0.69130
 C66 C 0.20948 0.58866 0.67654
 N67 N 0.78195 0.46133 0.44642
 N68 N 0.83885 0.42925 0.46728
 N69 N 0.71436 0.53760 0.32276
 N70 N 0.72770 0.56841 0.25757
 N71 N 0.78164 0.53769 0.43983
 N72 N 0.84066 0.56885 0.45691
 N73 N 0.71588 0.46267 0.32868
 N74 N 0.72887 0.43215 0.26639
 Mn75 Mn 0.74812 0.49985 0.58361
 C76 C 0.80657 0.41153 0.35273
 C77 C 0.80811 0.58757 0.34151
 N78 N 0.31381 0.53887 0.30394
 N79 N 0.24797 0.56955 0.28275
 N80 N 0.43063 0.46256 0.24949
 N81 N 0.44649 0.43063 0.19655
 N82 N 0.31336 0.46446 0.30883
 N83 N 0.24579 0.43463 0.29426
 N84 N 0.42947 0.53875 0.24146
 N85 N 0.44525 0.56971 0.17786
 Mn86 Mn 0.27684 0.50157 0.44570
 Mn87 Mn 0.57328 0.50039 0.28414
 Cl88 Cl 0.51253 0.50065 0.51466
 C89 C 0.33018 0.58845 0.20270
 C90 C 0.32880 0.41386 0.22319
 C91 C 0.33873 0.13673 0.30972
 C92 C 0.36883 0.17297 0.30017
 C93 C 0.26708 0.19835 0.26329
 C94 C 0.13274 0.18674 0.23917
 C95 C 0.10231 0.15047 0.25154
 C96 C 0.20499 0.12526 0.28626
 C97 C 0.30650 0.23616 0.24578
 C98 C 0.21858 0.26358 0.25565
 C99 C 0.25432 0.30163 0.23615
 C100 C 0.14741 0.32644 0.21300
 C101 C 0.17244 0.36289 0.20203
 C102 C 0.30601 0.37532 0.21129
 C103 C 0.41418 0.35068 0.22973
 C104 C 0.38902 0.31408 0.24321
 H105 H 0.42013 0.11756 0.33427
 H106 H 0.47180 0.18128 0.32179
 H107 H 0.05195 0.20515 0.20561
 H108 H 0.00079 0.14180 0.22514
 H109 H 0.41182 0.24111 0.22501
 H110 H 0.11393 0.25824 0.27859
 H111 H 0.04402 0.31748 0.20398
 H112 H 0.08719 0.38148 0.18859
 H113 H 0.51706 0.36000 0.24196
 H114 H 0.47474 0.29612 0.26379
 C115 C 0.65993 0.85382 0.06697
 C116 C 0.66900 0.81663 0.07764
 C117 C 0.69588 0.79946 0.20287
 C118 C 0.70404 0.82040 0.31927
 C119 C 0.69571 0.85780 0.30825
 C120 C 0.67717 0.87481 0.18118
 C121 C 0.71422 0.75996 0.20601
 C122 C 0.78253 0.74152 0.30533
 C123 C 0.80255 0.70203 0.30712
 C124 C 0.83611 0.68464 0.43085
 C125 C 0.84607 0.64741 0.44041
 C126 C 0.82319 0.62665 0.32616
 C127 C 0.79908 0.64391 0.20030
 C128 C 0.78962 0.68126 0.19048
 H129 H 0.64454 0.86634 -0.03138
 H130 H 0.65909 0.80122 -0.01292
 H131 H 0.71787 0.80812 0.41831
 H132 H 0.70735 0.87346 0.39833
 H133 H 0.67367 0.74604 0.11940
 H134 H 0.82305 0.75554 0.39182
 H135 H 0.85051 0.69987 0.52134
 H136 H 0.86608 0.63476 0.53822
 H137 H 0.78350 0.62844 0.11019
 H138 H 0.77082 0.69351 0.09192
 C139 C 0.65270 0.14127 0.64318
 C140 C 0.63024 0.17811 0.65264
 C141 C 0.73832 0.20086 0.68447
 C142 C 0.87144 0.18636 0.69582
 C143 C 0.89410 0.14957 0.68375
 C144 C 0.78470 0.12666 0.66079
 C145 C 0.70810 0.23928 0.70569
 C146 C 0.78509 0.25973 0.78678
 C147 C 0.75622 0.29823 0.80709
 C148 C 0.86550 0.32075 0.83699
 C149 C 0.84456 0.35762 0.84658
 C150 C 0.71297 0.37254 0.83108
 C151 C 0.60235 0.34988 0.80955
 C152 C 0.62356 0.31303 0.79711
 H153 H 0.56663 0.12404 0.62548
 H154 H 0.52762 0.18876 0.63992
 H155 H 0.95792 0.20319 0.71560
 H156 H 0.99587 0.13871 0.70046
 H157 H 0.61708 0.25056 0.65555
 H158 H 0.87592 0.24843 0.83717
 H159 H 0.96776 0.30984 0.84853
 H160 H 0.93137 0.37464 0.86335
 H161 H 0.50060 0.36094 0.79484
 H162 H 0.53640 0.29634 0.77843
 C163 C 0.34688 0.85191 0.92597
 C164 C 0.34272 0.81476 0.91715
 C165 C 0.29774 0.79868 0.79742
 C166 C 0.26859 0.82059 0.68261
 C167 C 0.27002 0.85774 0.69197
 C168 C 0.30341 0.87390 0.81537
 C169 C 0.28281 0.75930 0.79749
 C170 C 0.21042 0.74184 0.70291
 C171 C 0.19689 0.70249 0.70284
 C172 C 0.16666 0.68603 0.57985
 C173 C 0.16282 0.64889 0.57257
 C174 C 0.18829 0.62747 0.68858
 C175 C 0.20928 0.64381 0.81342
 C176 C 0.21286 0.68103 0.82085
 H177 H 0.37558 0.86321 1.02227
 H178 H 0.37090 0.79859 1.00561
 H179 H 0.24276 0.80945 0.58573
 H180 H 0.24276 0.87380 0.60262
 H181 H 0.33070 0.74452 0.88170
 H182 H 0.16264 0.75637 0.61818
 H183 H 0.15046 0.70191 0.48827
 H184 H 0.14563 0.63689 0.47532
 H185 H 0.22689 0.62771 0.90448
 H186 H 0.22936 0.69275 0.91846
 C187 C 0.26529 0.13809 0.65226
 C188 C 0.24563 0.17467 0.63056
 C189 C 0.26192 0.19842 0.73678
 C190 C 0.30125 0.18463 0.86649
 C191 C 0.31845 0.14769 0.88870
 C192 C 0.29754 0.12413 0.78194
 C193 C 0.22979 0.23671 0.70702
 C194 C 0.26495 0.26320 0.78892
 C195 C 0.23288 0.30148 0.75940
 C196 C 0.24723 0.32508 0.86633
 C197 C 0.22851 0.36169 0.84507
 C198 C 0.19884 0.37581 0.71510
 C199 C 0.17886 0.35239 0.60773
 C200 C 0.19545 0.31542 0.62948
 H201 H 0.24629 0.12040 0.56907
 H202 H 0.21280 0.18440 0.53110
 H203 H 0.31251 0.20170 0.95255
 H204 H 0.34056 0.13751 0.99039
 H205 H 0.17440 0.24291 0.61293
 H206 H 0.32025 0.25702 0.88304
 H207 H 0.27752 0.31518 0.96613
 H208 H 0.24567 0.37923 0.92909
 H209 H 0.15816 0.36271 0.50604
 H210 H 0.18534 0.29841 0.54312
 C211 C 0.90774 0.85418 0.64138
 C212 C 0.90282 0.81687 0.64987
 C213 C 0.78592 0.79967 0.69337
 C214 C 0.66886 0.82067 0.71425
 C215 C 0.67430 0.85801 0.70788
 C216 C 0.79651 0.87531 0.67928
 C217 C 0.79139 0.76016 0.71512
 C218 C 0.70109 0.74173 0.78666
 C219 C 0.70635 0.70224 0.80742
 C220 C 0.58607 0.68477 0.83929
 C221 C 0.58240 0.64751 0.84873
 C222 C 0.69932 0.62681 0.82700
 C223 C 0.82247 0.64418 0.80568
 C224 C 0.82630 0.68157 0.79653
 H225 H 1.00155 0.86636 0.61279
 H226 H 0.99222 0.80142 0.62631
 H227 H 0.57360 0.80862 0.73824
 H228 H 0.58355 0.87328 0.72982
 H229 H 0.87654 0.74614 0.67341
 H230 H 0.61563 0.75558 0.82849
 H231 H 0.49332 0.69992 0.85225
 H232 H 0.48658 0.63484 0.86715
 H233 H 0.91473 0.62876 0.79165
 H234 H 0.92251 0.69401 0.77893
 C235 C 0.06709 0.85271 0.33604
 C236 C 0.07518 0.81559 0.32739
 C237 C 0.19866 0.79842 0.29993
 C238 C 0.31677 0.81906 0.29182
 C239 C 0.30840 0.85625 0.29995
 C240 C 0.18268 0.87341 0.31800
 C241 C 0.19849 0.75928 0.27990
 C242 C 0.29551 0.74154 0.21530
 C243 C 0.29588 0.70238 0.19547
 C244 C 0.41883 0.68545 0.16437
 C245 C 0.42804 0.64829 0.15725
 C246 C 0.31415 0.62735 0.18080
 C247 C 0.18840 0.64426 0.20094
 C248 C 0.17892 0.68146 0.20759
 H249 H -0.03068 0.86537 0.35040
 H250 H -0.01634 0.80032 0.33741
 H251 H 0.41521 0.80686 0.27737
 H252 H 0.39935 0.87174 0.28753
 H253 H 0.11184 0.74515 0.31655
 H254 H 0.38196 0.75576 0.17863
 H255 H 0.50926 0.70093 0.15040
 H256 H 0.52563 0.63585 0.14001
 H257 H 0.09850 0.62859 0.21669
 H258 H 0.08056 0.69340 0.22433
 C259 C 0.64386 0.15069 0.05750
 C260 C 0.65041 0.18782 0.07291
 C261 C 0.70575 0.20233 0.19240
 C262 C 0.74725 0.17882 0.29906
 C263 C 0.73984 0.14195 0.28427
 C264 C 0.69277 0.12720 0.16180
 C265 C 0.71541 0.24182 0.20303
 C266 C 0.79193 0.25825 0.29801
 C267 C 0.80140 0.29767 0.30840
 C268 C 0.84565 0.31229 0.43182
 C269 C 0.85384 0.34939 0.44601
 C270 C 0.82072 0.37250 0.33595
 C271 C 0.78402 0.35781 0.21083
 C272 C 0.77266 0.32093 0.19736
 H273 H 0.60648 0.14059 -0.03830
 H274 H 0.61506 0.20526 -0.01019
 H275 H 0.78500 0.18839 0.39500
 H276 H 0.77590 0.12501 0.36848
 H277 H 0.65697 0.25769 0.12837
 H278 H 0.85029 0.24264 0.37328
 H279 H 0.87086 0.29498 0.51841
 H280 H 0.88157 0.35998 0.54384
 H281 H 0.75859 0.37501 0.12411
 H282 H 0.74317 0.31094 0.09938
   
