data_POSCAR
  _audit_creation_date              2014-09-24
  _audit_creation_method            'ToBaCCo'
  _symmetry_space_group_name_H-M    'P1'
  _symmetry_Int_Tables_number       1
  _symmetry_cell_setting            triclinic
  loop_
  _symmetry_equiv_pos_as_xyz
 x,y,z
_cell_length_a 13.3184
_cell_length_b 13.4061
_cell_length_c 13.2910
_cell_angle_alpha 89.563700
_cell_angle_beta 89.810300
_cell_angle_gamma 89.591800
loop_
  _atom_site_label
  _atom_site_type_symbol
  _atom_site_fract_x
  _atom_site_fract_y
  _atom_site_fract_z
C1 C 0.44218 0.95796 -0.59589
 C2 C 0.54837 0.96656 -0.60005
 C3 C 0.60206 0.96755 -0.50809
 C4 C 0.55512 0.97197 -0.41275
 C5 C 0.45010 0.95907 -0.40907
 C6 C 0.39718 0.94626 -0.49974
 H7 H 0.31895 0.92628 -0.49354
 H8 H 0.68257 0.95841 -0.51103
 C9 C -0.59286 1.44722 0.03869
 C10 C -0.59785 1.55280 0.03560
 C11 C -0.50782 1.60770 0.03784
 C12 C -0.41163 1.56267 0.03072
 C13 C -0.40656 1.45738 0.03672
 C14 C -0.49628 1.40287 0.04699
 H15 H -0.48834 1.32426 0.06317
 H16 H -0.51455 1.68729 0.04783
 C17 C 0.02687 0.44853 0.40264
 C18 C 0.01499 0.55365 0.39855
 C19 C 0.01189 0.60747 0.48927
 C20 C 0.01722 0.56107 0.58445
 C21 C 0.02908 0.45695 0.58888
 C22 C 0.04095 0.40398 0.49851
 H23 H 0.06370 0.32675 0.50482
 H24 H 0.00298 0.68734 0.48522
 O25 O -0.25832 1.01619 -0.14862
 O26 O 0.25892 0.99692 -0.13576
 O27 O -0.00301 1.14629 -0.25689
 O28 O 0.01326 0.87974 -0.26337
 O29 O 0.00125 0.75092 -0.14790
 O30 O 0.00352 1.26786 -0.13507
 O31 O 0.13734 1.01219 -0.25827
 O32 O -0.12958 1.01838 -0.26492
 Zr33 Zr 0.00172 1.01050 -0.17817
 O34 O 0.08742 0.91342 -0.09433
 O35 O -0.08868 1.10208 -0.09412
 C36 C -0.22361 1.01924 -0.24013
 C37 C 0.22949 1.00476 -0.22883
 C38 C -0.00267 1.23804 -0.22771
 C39 C 0.01361 0.78628 -0.23827
 H40 H 0.13703 1.13814 -0.13060
 O41 O 0.09279 1.09526 -0.08926
 H42 H -0.13518 0.87887 -0.14553
 O43 O -0.09396 0.91924 -0.09960
 O44 O 0.25055 0.99029 0.14069
 O45 O -0.26596 1.00888 0.12636
 O46 O 0.14337 1.25747 0.00943
 O47 O 0.12602 0.74074 -0.00971
 O48 O -0.14891 0.75128 -0.00990
 O49 O -0.13255 1.26842 -0.00322
 O50 O -0.00268 1.12893 0.25557
 O51 O -0.02670 0.86213 0.24671
 O52 O 0.00564 1.25830 0.14044
 O53 O -0.01913 0.74119 0.12425
 O54 O 0.25910 1.12805 0.00860
 O55 O -0.25604 1.14871 -0.01708
 O56 O -0.26543 0.87987 -0.01096
 O57 O 0.25024 0.86036 -0.01012
 O58 O 0.12126 0.99278 0.25653
 O59 O -0.14383 1.00429 0.24899
 Zr60 Zr 0.17367 0.99755 0.00025
 Zr61 Zr -0.18022 1.01083 -0.00950
 Zr62 Zr 0.00269 1.18288 0.00058
 Zr63 Zr -0.00867 0.82674 -0.00912
 Zr64 Zr -0.00886 0.99870 0.16913
 O65 O -0.10023 0.91378 0.08081
 O66 O 0.08815 1.08919 0.09080
 C67 C 0.21523 0.99037 0.23225
 C68 C -0.23599 1.00781 0.21953
 C69 C 0.23464 1.22170 0.01172
 C70 C 0.21919 0.76907 -0.01322
 C71 C -0.24040 0.78635 -0.00967
 C72 C -0.22536 1.24014 -0.01306
 C73 C 0.00344 1.22249 0.23159
 C74 C -0.02885 0.77044 0.21647
 H75 H -0.13621 1.13920 0.12744
 O76 O -0.09374 1.09601 0.08465
 H77 H 0.12149 0.86109 0.12915
 O78 O 0.08204 0.90680 0.08562
 C79 C 0.38150 0.96479 0.31606
 C80 C 0.28298 0.98660 0.31934
 H81 H 0.41453 0.95724 0.24229
 H82 H 0.24667 1.00409 0.38989
 C83 C -0.39739 0.97262 0.30774
 C84 C -0.30763 1.01689 0.30256
 H85 H -0.42659 0.94010 0.23982
 H86 H -0.27906 1.05687 0.36680
 C87 C -0.38715 0.98572 -0.32407
 C88 C -0.29289 1.02120 -0.32597
 H89 H -0.41920 0.96755 -0.25142
 H90 H -0.26013 1.04837 -0.39539
 C91 C 0.39141 0.96239 -0.31322
 C92 C 0.30307 1.01045 -0.31094
 H93 H 0.41767 0.92241 -0.24719
 H94 H 0.27804 1.05004 -0.37786
 C95 C 0.31894 1.38765 0.03299
 C96 C 0.32163 1.28889 0.01526
 H97 H 0.24577 1.42246 0.03963
 H98 H 0.39184 1.25141 -0.00020
 C99 C 0.30542 0.60989 0.03074
 C100 C 0.29939 0.69437 -0.02358
 H101 H 0.24259 0.58737 0.07736
 H102 H 0.36300 0.71692 -0.06924
 C103 C -0.32368 0.62162 0.01946
 C104 C -0.32649 0.71815 -0.00897
 H105 H -0.25067 0.58830 0.03260
 H106 H -0.39635 0.75303 -0.03134
 C107 C -0.31011 1.40007 0.03077
 C108 C -0.30596 1.31491 -0.02127
 H109 H -0.24584 1.42344 0.07409
 H110 H -0.37129 1.29230 -0.06367
 C111 C 0.02211 1.38888 0.31461
 C112 C 0.00643 1.28977 0.31835
 H113 H 0.02616 1.42378 0.24111
 H114 H -0.00818 1.25259 0.38916
 C115 C 0.02953 1.40032 -0.31421
 C116 C -0.01311 1.31034 -0.31005
 H117 H 0.06681 1.43031 -0.24887
 H118 H -0.05180 1.28289 -0.37584
 C119 C 0.00595 0.62198 -0.32276
 C120 C 0.03289 0.71796 -0.32146
 H121 H -0.02742 0.58873 -0.25620
 H122 H 0.07018 0.75099 -0.38583
 C123 C 0.00952 0.61106 0.30214
 C124 C -0.04443 0.69562 0.29538
 H125 H 0.05845 0.59002 0.24048
 H126 H -0.09370 0.71752 0.35642
   
