data_POSCAR
  _audit_creation_date              2014-09-24
  _audit_creation_method            'ToBaCCo'
  _symmetry_space_group_name_H-M    'P1'
  _symmetry_Int_Tables_number       1
  _symmetry_cell_setting            triclinic
  loop_
  _symmetry_equiv_pos_as_xyz
 x,y,z
_cell_length_a 42.1205
_cell_length_b 50.1191
_cell_length_c 37.0119
_cell_angle_alpha 89.533300
_cell_angle_beta 89.554700
_cell_angle_gamma 89.562800
loop_
  _atom_site_label
  _atom_site_type_symbol
  _atom_site_fract_x
  _atom_site_fract_y
  _atom_site_fract_z
Si1 Si 1.24318 0.25381 0.25032
 Si2 Si 0.74812 -0.25299 0.25324
 Si3 Si 0.75009 0.25153 -0.26163
 Si4 Si 1.25061 -0.25356 -0.24627
 Si5 Si 0.24562 0.25818 0.74690
 Si6 Si 0.75493 0.74883 0.74710
 Si7 Si 0.75085 0.25145 0.25672
 Si8 Si 0.25430 0.74838 0.24888
 O9 O 0.94667 -0.03739 -0.06617
 O10 O 0.97311 -0.06689 -0.02915
 C11 C 0.95389 -0.06143 -0.05553
 O12 O 1.06071 0.03635 -0.06006
 O13 O 1.02836 0.06666 -0.03142
 C14 C 1.05203 0.06062 -0.05260
 O15 O 1.05650 -0.03806 -0.06222
 O16 O 1.02699 -0.06725 -0.02804
 C17 C 1.04825 -0.06201 -0.05261
 O18 O 0.94161 0.03722 -0.06244
 O19 O 0.97260 0.06714 -0.03230
 C20 C 0.94987 0.06133 -0.05431
 Zr21 Zr 0.96111 0.00007 -0.04612
 O22 O 0.96468 0.00330 -0.10310
 O23 O 0.91120 -0.00312 -0.05008
 Zr24 Zr 1.04078 -0.00047 -0.04361
 O25 O 1.04092 0.00236 -0.10075
 O26 O 1.09086 -0.00410 -0.04390
 O27 O 1.00112 -0.02428 -0.05116
 O28 O 1.00119 0.02321 -0.05222
 O29 O 0.93915 0.03870 0.05949
 O30 O 0.97114 0.06781 0.02819
 C31 C 0.94779 0.06261 0.05014
 O32 O 1.05245 -0.03675 0.06990
 O33 O 1.02565 -0.06661 0.03499
 C34 C 1.04520 -0.06089 0.06076
 O35 O 1.05541 0.03764 0.06441
 O36 O 1.02628 0.06736 0.03059
 C37 C 1.04770 0.06174 0.05459
 O38 O 0.94250 -0.03567 0.06632
 O39 O 0.97118 -0.06610 0.03329
 C40 C 0.95029 -0.05995 0.05791
 Zr41 Zr 0.95816 0.00111 0.04482
 O42 O 0.95652 0.00514 0.10172
 O43 O 0.90805 -0.00188 0.04351
 Zr44 Zr 1.03799 0.00038 0.04758
 O45 O 1.03600 0.00401 0.10452
 O46 O 1.08811 -0.00306 0.04914
 Zr47 Zr 0.99943 -0.03981 0.00202
 Zr48 Zr 0.99982 0.04036 -0.00051
 O49 O 0.99794 0.02413 0.05212
 O50 O 0.99775 -0.02312 0.05414
 O51 O 0.95354 0.02444 -0.00153
 O52 O 1.04524 -0.02331 0.00285
 O53 O 0.95369 -0.02263 -0.00010
 O54 O 1.04592 0.02373 0.00154
 H55 H 1.00173 0.03531 -0.07353
 H56 H 1.06395 -0.03539 0.00378
 H57 H 0.99714 0.03636 0.07302
 H58 H 0.93489 -0.03438 -0.00035
 H59 H 1.09897 0.00844 -0.02575
 H60 H 1.09702 0.01212 0.03526
 H61 H 1.02295 -0.01082 0.11407
 H62 H 0.96893 -0.00978 0.11227
 H63 H 0.89986 0.01313 0.02868
 H64 H 0.90180 0.00879 -0.03167
 H65 H 0.97569 -0.01290 -0.11198
 H66 H 1.03031 -0.01367 -0.11013
 O67 O 1.03887 0.56051 0.55070
 O68 O 1.07805 0.53432 0.52543
 C69 C 1.06838 0.55453 0.54438
 O70 O 0.95866 0.45993 0.56690
 O71 O 0.92305 0.47833 0.52698
 C72 C 0.93029 0.46287 0.55406
 O73 O 1.04576 0.46786 0.57425
 O74 O 1.08130 0.48911 0.53668
 C75 C 1.07440 0.47399 0.56430
 O76 O 0.95116 0.55781 0.54269
 O77 O 0.91907 0.52602 0.51788
 C78 C 0.92359 0.54823 0.53495
 Zr79 Zr 0.99694 0.54226 0.53292
 O80 O 0.99106 0.54883 0.58903
 O81 O 0.99529 0.58356 0.52076
 Zr82 Zr 1.00194 0.47685 0.54962
 O83 O 0.99728 0.48904 0.60392
 O84 O 1.00588 0.43646 0.56600
 O85 O 1.02778 0.51197 0.54954
 O86 O 0.97096 0.50874 0.54640
 O87 O 0.95778 0.54270 0.42194
 O88 O 0.92246 0.52010 0.45831
 C89 C 0.92918 0.53653 0.43210
 O90 O 1.05285 0.45137 0.44656
 O91 O 1.08487 0.48141 0.47516
 C92 C 1.08037 0.46042 0.45559
 O93 O 0.96513 0.44525 0.44571
 O94 O 0.92569 0.47221 0.46853
 C95 C 0.93550 0.45111 0.45137
 O96 O 1.04605 0.54423 0.42269
 O97 O 1.08134 0.52652 0.46356
 C98 C 1.07452 0.54087 0.43520
 Zr99 Zr 1.00197 0.53079 0.44340
 O100 O 1.00150 0.52163 0.38763
 O101 O 1.00152 0.57215 0.43160
 Zr102 Zr 1.00690 0.46522 0.45976
 O103 O 1.00646 0.45999 0.40302
 O104 O 1.01296 0.42362 0.46767
 Zr105 Zr 1.04963 0.50621 0.49870
 Zr106 Zr 0.95426 0.50102 0.49415
 O107 O 0.97673 0.49568 0.44375
 O108 O 1.03351 0.49864 0.44596
 O109 O 0.97093 0.54011 0.48562
 O110 O 1.03210 0.46745 0.50725
 O111 O 1.02663 0.54287 0.48830
 O112 O 0.97692 0.46411 0.50463
 H113 H 0.95526 0.51041 0.56636
 H114 H 1.04695 0.45241 0.51182
 H115 H 0.96317 0.49244 0.42249
 H116 H 1.03922 0.55934 0.48497
 H117 H 1.00981 0.42600 0.54391
 H118 H 0.99720 0.41789 0.48605
 H119 H 1.02631 0.46759 0.39302
 H120 H 1.02214 0.51322 0.38145
 H121 H 0.98955 0.58090 0.45138
 H122 H 0.99338 0.59291 0.54419
 H123 H 1.00894 0.53981 0.60143
 H124 H 0.99740 0.47245 0.61865
 O125 O 0.44613 -0.03736 0.43117
 O126 O 0.47301 -0.06672 0.46788
 C127 C 0.45395 -0.06136 0.44127
 O128 O 0.55650 0.03948 0.44381
 O129 O 0.52243 0.06833 0.47290
 C130 C 0.54676 0.06320 0.45243
 O131 O 0.55744 -0.03484 0.44102
 O132 O 0.52720 -0.06547 0.47202
 C133 C 0.54995 -0.05911 0.44980
 O134 O 0.43967 0.03675 0.43440
 O135 O 0.46610 0.06698 0.46915
 C136 C 0.44577 0.06092 0.44441
 Zr137 Zr 0.45839 -0.00000 0.45296
 O138 O 0.46083 0.00300 0.39592
 O139 O 0.40832 -0.00250 0.45274
 Zr140 Zr 0.53782 0.00182 0.45829
 O141 O 0.53832 0.00489 0.40116
 O142 O 0.58805 0.00069 0.45899
 O143 O 0.49959 -0.02311 0.44854
 O144 O 0.49755 0.02444 0.44901
 O145 O 0.43095 0.03618 0.55800
 O146 O 0.46279 0.06674 0.52918
 C147 C 0.43879 0.06050 0.54972
 O148 O 0.54926 -0.03559 0.56942
 O149 O 0.52359 -0.06593 0.53425
 C150 C 0.54322 -0.05985 0.55978
 O151 O 0.55175 0.03855 0.56295
 O152 O 0.51957 0.06806 0.53245
 C153 C 0.54286 0.06255 0.55408
 O154 O 0.43866 -0.03806 0.56375
 O155 O 0.46977 -0.06708 0.53098
 C156 C 0.44801 -0.06190 0.55498
 Zr157 Zr 0.45296 -0.00039 0.54392
 O158 O 0.45036 0.00282 0.60088
 O159 O 0.40306 -0.00439 0.54138
 Zr160 Zr 0.53209 0.00136 0.54960
 O161 O 0.52367 0.00468 0.60591
 O162 O 0.58122 0.00026 0.56064
 Zr163 Zr 0.49709 -0.03940 0.50119
 Zr164 Zr 0.49377 0.04076 0.50108
 O165 O 0.49125 0.02413 0.55335
 O166 O 0.49318 -0.02368 0.55385
 O167 O 0.44849 0.02343 0.49785
 O168 O 0.54192 -0.02129 0.50446
 O169 O 0.45074 -0.02366 0.49810
 O170 O 0.54036 0.02520 0.50423
 H171 H 0.49837 0.03673 0.42792
 H172 H 0.56145 -0.03237 0.50585
 H173 H 0.48971 0.03663 0.57392
 H174 H 0.43259 -0.03607 0.49693
 H175 H 0.59492 0.01279 0.47836
 H176 H 0.59227 0.00028 0.53700
 H177 H 0.51883 -0.01337 0.61541
 H178 H 0.46301 -0.01202 0.61130
 H179 H 0.39589 0.00612 0.52017
 H180 H 0.40200 -0.00247 0.42700
 H181 H 0.47682 -0.01016 0.38756
 H182 H 0.53164 -0.01251 0.39143
 O183 O 0.45309 0.46169 -0.07234
 O184 O 0.47611 0.43127 -0.03383
 C185 C 0.45857 0.43741 -0.06136
 O186 O 0.56878 0.53181 -0.05454
 O187 O 0.53639 0.56277 -0.02730
 C188 C 0.56071 0.55624 -0.04722
 O189 O 0.56375 0.45741 -0.05638
 O190 O 0.52928 0.42901 -0.02714
 C191 C 0.55350 0.43377 -0.04796
 O192 O 0.45279 0.53626 -0.06952
 O193 O 0.48035 0.56476 -0.03326
 C194 C 0.46040 0.55995 -0.05881
 Zr195 Zr 0.46761 0.49845 -0.05024
 O196 O 0.47298 0.50083 -0.10710
 O197 O 0.41753 0.49903 -0.05355
 Zr198 Zr 0.54667 0.49543 -0.04062
 O199 O 0.54695 0.49595 -0.09770
 O200 O 0.59689 0.49384 -0.04011
 O201 O 0.50686 0.47293 -0.05230
 O202 O 0.50890 0.52045 -0.05209
 O203 O 0.43912 0.53651 0.05319
 O204 O 0.47471 0.56500 0.02628
 C205 C 0.44934 0.56025 0.04539
 O206 O 0.54893 0.45765 0.07241
 O207 O 0.52308 0.42921 0.03452
 C208 C 0.54118 0.43394 0.06186
 O209 O 0.55718 0.53176 0.06751
 O210 O 0.53102 0.56270 0.03256
 C211 C 0.55151 0.55608 0.05708
 O212 O 0.43973 0.46211 0.05933
 O213 O 0.46993 0.43142 0.02851
 C214 C 0.44751 0.43778 0.05114
 Zr215 Zr 0.45840 0.49870 0.04045
 O216 O 0.45398 0.50227 0.09725
 O217 O 0.40844 0.49787 0.03535
 Zr218 Zr 0.53748 0.49555 0.05030
 O219 O 0.53015 0.49920 0.10674
 O220 O 0.58689 0.49074 0.05834
 Zr221 Zr 0.50083 0.45720 0.00027
 Zr222 Zr 0.50447 0.53704 -0.00024
 O223 O 0.49838 0.52064 0.05181
 O224 O 0.49614 0.47319 0.05260
 O225 O 0.45796 0.52252 -0.00588
 O226 O 0.54700 0.47222 0.00583
 O227 O 0.45609 0.47556 -0.00544
 O228 O 0.54949 0.51883 0.00540
 H229 H 0.51152 0.53256 -0.07318
 H230 H 0.56505 0.45963 0.00866
 H231 H 0.49690 0.53303 0.07250
 H232 H 0.43697 0.46430 -0.00758
 H233 H 0.60328 0.48540 -0.01705
 H234 H 0.59773 0.50214 0.04018
 H235 H 0.51804 0.48343 0.11503
 H236 H 0.46385 0.48625 0.10833
 H237 H 0.40310 0.50843 0.01349
 H238 H 0.41248 0.49948 -0.07966
 H239 H 0.48874 0.48706 -0.11420
 H240 H 0.56960 0.49575 -0.10512
 C241 C 1.17308 0.20093 0.18537
 C242 C 1.17440 0.22855 0.17869
 C243 C 1.19441 0.24466 0.19916
 C244 C 1.21336 0.23332 0.22636
 C245 C 1.21039 0.20612 0.23455
 C246 C 1.19065 0.19005 0.21411
 C247 C 1.15458 0.18300 0.16196
 C248 C 1.16830 0.15893 0.15028
 C249 C 1.15061 0.14072 0.13074
 C250 C 1.11866 0.14601 0.12254
 C251 C 1.10527 0.17066 0.13268
 C252 C 1.12314 0.18906 0.15221
 C253 C 1.09928 0.12501 0.10544
 C254 C 1.07760 0.13102 0.07777
 C255 C 1.06043 0.11060 0.06130
 C256 C 1.06459 0.08387 0.07235
 C257 C 1.08577 0.07813 0.10059
 C258 C 1.10278 0.09839 0.11690
 H259 H 1.16093 0.23746 0.15685
 H260 H 1.19594 0.26576 0.19294
 H261 H 1.22360 0.19702 0.25638
 H262 H 1.18935 0.16897 0.22054
 H263 H 1.19273 0.15404 0.15664
 H264 H 1.16186 0.12223 0.12246
 H265 H 1.08067 0.17525 0.12679
 H266 H 1.11204 0.20751 0.16089
 H267 H 1.07447 0.15137 0.06835
 H268 H 1.04428 0.11570 0.03965
 H269 H 1.08939 0.05787 0.11017
 H270 H 1.11870 0.09318 0.13873
 C271 C 1.19633 0.68550 0.68310
 C272 C 1.21715 0.67640 0.70998
 C273 C 1.23274 0.69454 0.73187
 C274 C 1.22824 0.72205 0.72673
 C275 C 1.20692 0.73121 0.70050
 C276 C 1.19104 0.71306 0.67879
 C277 C 1.17977 0.66622 0.66006
 C278 C 1.14709 0.66895 0.65422
 C279 C 1.13119 0.65056 0.63307
 C280 C 1.14770 0.62922 0.61684
 C281 C 1.18050 0.62652 0.62268
 C282 C 1.19637 0.64483 0.64423
 C283 C 1.13032 0.60982 0.59447
 C284 C 1.13728 0.58229 0.59620
 C285 C 1.11821 0.56399 0.57814
 C286 C 1.09177 0.57305 0.55871
 C287 C 1.08585 0.60050 0.55542
 C288 C 1.10512 0.61871 0.57274
 H289 H 1.22103 0.65523 0.71433
 H290 H 1.24824 0.68687 0.75269
 H291 H 1.20296 0.75240 0.69643
 H292 H 1.17505 0.72054 0.65823
 H293 H 1.13370 0.68501 0.66666
 H294 H 1.10577 0.65283 0.62997
 H295 H 1.19393 0.61048 0.61029
 H296 H 1.22169 0.64247 0.64818
 H297 H 1.15647 0.57481 0.61282
 H298 H 1.12300 0.54281 0.58097
 H299 H 1.06578 0.60784 0.54000
 H300 H 1.09975 0.63978 0.56984
 C301 C 0.68142 0.20072 0.66866
 C302 C 0.66901 0.21838 0.69446
 C303 C 0.68936 0.23409 0.71488
 C304 C 0.72235 0.23244 0.70959
 C305 C 0.73456 0.21613 0.68216
 C306 C 0.71432 0.20004 0.66224
 C307 C 0.66047 0.18170 0.65030
 C308 C 0.66754 0.15437 0.65186
 C309 C 0.64772 0.13599 0.63547
 C310 C 0.62066 0.14451 0.61633
 C311 C 0.61357 0.17201 0.61490
 C312 C 0.63316 0.19042 0.63204
 C313 C 0.60026 0.12458 0.59812
 C314 C 0.56706 0.12803 0.59589
 C315 C 0.54812 0.10826 0.58055
 C316 C 0.56204 0.08453 0.56804
 C317 C 0.59510 0.08139 0.56934
 C318 C 0.61399 0.10128 0.58369
 H319 H 0.64369 0.21928 0.69974
 H320 H 0.67919 0.24715 0.73504
 H321 H 0.75989 0.21518 0.67695
 H322 H 0.72433 0.18678 0.64211
 H323 H 0.68815 0.14718 0.66643
 H324 H 0.65350 0.11500 0.63829
 H325 H 0.59319 0.17938 0.60014
 H326 H 0.62732 0.21148 0.63058
 H327 H 0.55557 0.14559 0.60689
 H328 H 0.52261 0.11105 0.57965
 H329 H 0.60639 0.06347 0.55902
 H330 H 0.63946 0.09826 0.58357
 C331 C 0.68263 0.69252 0.18531
 C332 C 0.70359 0.71006 0.16750
 C333 C 0.72310 0.72690 0.18738
 C334 C 0.72174 0.72643 0.22521
 C335 C 0.70092 0.70899 0.24294
 C336 C 0.68125 0.69247 0.22324
 C337 C 0.66319 0.67342 0.16484
 C338 C 0.65907 0.64737 0.17821
 C339 C 0.64057 0.62923 0.15969
 C340 C 0.62611 0.63647 0.12695
 C341 C 0.63016 0.66252 0.11341
 C342 C 0.64858 0.68085 0.13221
 C343 C 0.60738 0.61651 0.10712
 C344 C 0.57874 0.62351 0.09006
 C345 C 0.56048 0.60399 0.07332
 C346 C 0.57049 0.57719 0.07376
 C347 C 0.59946 0.57042 0.09005
 C348 C 0.61777 0.58985 0.10626
 H349 H 0.70553 0.71024 0.13832
 H350 H 0.73957 0.73976 0.17316
 H351 H 0.69979 0.70818 0.27218
 H352 H 0.66501 0.67955 0.23779
 H353 H 0.67042 0.64085 0.20294
 H354 H 0.63749 0.60947 0.17119
 H355 H 0.61948 0.66860 0.08811
 H356 H 0.65114 0.70087 0.12141
 H357 H 0.57007 0.64390 0.09044
 H358 H 0.53829 0.60974 0.06076
 H359 H 0.60820 0.55004 0.09008
 H360 H 0.64016 0.58393 0.11821
 C361 C 0.81446 -0.19698 0.18557
 C362 C 0.82752 -0.21584 0.20968
 C363 C 0.80784 -0.23289 0.22964
 C364 C 0.77481 -0.23145 0.22575
 C365 C 0.76164 -0.21269 0.20187
 C366 C 0.78126 -0.19574 0.18174
 C367 C 0.83523 -0.17796 0.16562
 C368 C 0.82573 -0.15123 0.16109
 C369 C 0.84545 -0.13303 0.14338
 C370 C 0.87534 -0.14099 0.12995
 C371 C 0.88473 -0.16781 0.13395
 C372 C 0.86490 -0.18611 0.15165
 C373 C 0.89659 -0.12107 0.11252
 C374 C 0.91452 -0.12731 0.08143
 C375 C 0.93291 -0.10775 0.06411
 C376 C 0.93350 -0.08158 0.07748
 C377 C 0.91647 -0.07572 0.10927
 C378 C 0.89839 -0.09520 0.12661
 H379 H 0.85291 -0.21693 0.21387
 H380 H 0.81852 -0.24675 0.24858
 H381 H 0.73613 -0.21114 0.19881
 H382 H 0.77041 -0.18166 0.16316
 H383 H 0.80326 -0.14417 0.17189
 H384 H 0.83725 -0.11262 0.14021
 H385 H 0.90767 -0.17453 0.12406
 H386 H 0.87276 -0.20664 0.15434
 H387 H 0.91356 -0.14706 0.06987
 H388 H 0.94586 -0.11289 0.03974
 H389 H 0.91684 -0.05589 0.12069
 H390 H 0.88560 -0.08993 0.15106
 C391 C 0.80387 0.31430 0.66718
 C392 C 0.77050 0.31291 0.66710
 C393 C 0.75477 0.29300 0.68668
 C394 C 0.77195 0.27460 0.70763
 C395 C 0.80514 0.27490 0.70643
 C396 C 0.82098 0.29443 0.68616
 C397 C 0.82057 0.33714 0.64938
 C398 C 0.84863 0.34721 0.66422
 C399 C 0.86383 0.36914 0.64859
 C400 C 0.85109 0.38219 0.61811
 C401 C 0.82302 0.37215 0.60317
 C402 C 0.80813 0.34980 0.61841
 C403 C 0.86763 0.40568 0.60177
 C404 C 0.86758 0.41023 0.56412
 C405 C 0.88607 0.43050 0.54869
 C406 C 0.90543 0.44619 0.57051
 C407 C 0.90439 0.44264 0.60807
 C408 C 0.88529 0.42294 0.62359
 H409 H 0.75633 0.32783 0.65324
 H410 H 0.72905 0.29285 0.68702
 H411 H 0.81890 0.26047 0.72171
 H412 H 0.84667 0.29418 0.68590
 H413 H 0.85875 0.33849 0.68840
 H414 H 0.88582 0.37568 0.66044
 H415 H 0.81229 0.38167 0.57989
 H416 H 0.78686 0.34247 0.60576
 H417 H 0.85464 0.39729 0.54630
 H418 H 0.88695 0.43267 0.51955
 H419 H 0.91913 0.45463 0.62536
 H420 H 0.88514 0.42080 0.65270
 C421 C 0.31477 -0.19873 0.68265
 C422 C 0.31216 -0.19500 0.72007
 C423 C 0.29312 -0.21176 0.74096
 C424 C 0.27571 -0.23199 0.72464
 C425 C 0.27875 -0.23619 0.68735
 C426 C 0.29836 -0.21968 0.66643
 C427 C 0.33404 -0.18014 0.66088
 C428 C 0.35877 -0.18945 0.63860
 C429 C 0.37861 -0.17133 0.62060
 C430 C 0.37368 -0.14370 0.62438
 C431 C 0.34789 -0.13464 0.64544
 C432 C 0.32851 -0.15266 0.66376
 C433 C 0.39546 -0.12409 0.60732
 C434 C 0.40277 -0.10049 0.62563
 C435 C 0.42065 -0.08069 0.60880
 C436 C 0.43224 -0.08424 0.57356
 C437 C 0.42669 -0.10840 0.55586
 C438 C 0.40821 -0.12815 0.57253
 H439 H 0.32498 -0.17913 0.73311
 H440 H 0.29159 -0.20867 0.76986
 H441 H 0.26623 -0.25219 0.67437
 H442 H 0.30025 -0.22288 0.63759
 H443 H 0.36339 -0.21065 0.63619
 H444 H 0.39832 -0.17893 0.60469
 H445 H 0.34276 -0.11354 0.64800
 H446 H 0.30921 -0.14515 0.68043
 H447 H 0.39427 -0.09710 0.65291
 H448 H 0.42511 -0.06240 0.62325
 H449 H 0.43541 -0.11150 0.52862
 H450 H 0.40296 -0.14608 0.55767
 C451 C 0.31220 0.30014 0.17443
 C452 C 0.31436 0.30208 0.21203
 C453 C 0.29432 0.28717 0.23424
 C454 C 0.27144 0.27056 0.21914
 C455 C 0.27017 0.26764 0.18152
 C456 C 0.29052 0.28247 0.15917
 C457 C 0.33066 0.31851 0.15171
 C458 C 0.35886 0.31016 0.13484
 C459 C 0.37819 0.32879 0.11711
 C460 C 0.36940 0.35594 0.11603
 C461 C 0.34035 0.36384 0.13178
 C462 C 0.32132 0.34532 0.14971
 C463 C 0.39078 0.37628 0.09994
 C464 C 0.39348 0.40139 0.11625
 C465 C 0.41226 0.42115 0.10058
 C466 C 0.42917 0.41618 0.06848
 C467 C 0.42751 0.39081 0.05280
 C468 C 0.40832 0.37107 0.06827
 H469 H 0.33103 0.31568 0.22410
 H470 H 0.29590 0.28937 0.26327
 H471 H 0.25325 0.25441 0.16935
 H472 H 0.28871 0.28084 0.13011
 H473 H 0.36641 0.28948 0.13653
 H474 H 0.40050 0.32212 0.10545
 H475 H 0.33251 0.38445 0.13069
 H476 H 0.29955 0.35197 0.16271
 H477 H 0.38107 0.40581 0.14125
 H478 H 0.41355 0.44035 0.11367
 H479 H 0.44035 0.38646 0.02809
 H480 H 0.40664 0.35198 0.05497
 C481 C 0.81722 0.19503 -0.19440
 C482 C 0.79864 0.18486 -0.22254
 C483 C 0.77867 0.20157 -0.24262
 C484 C 0.77751 0.22902 -0.23597
 C485 C 0.79645 0.23948 -0.20861
 C486 C 0.81592 0.22267 -0.18782
 C487 C 0.83714 0.17670 -0.17172
 C488 C 0.86589 0.18518 -0.15655
 C489 C 0.88434 0.16775 -0.13541
 C490 C 0.87481 0.14121 -0.12930
 C491 C 0.84619 0.13277 -0.14475
 C492 C 0.82748 0.15029 -0.16508
 C493 C 0.89450 0.12214 -0.10745
 C494 C 0.87992 0.10134 -0.08779
 C495 C 0.89812 0.08189 -0.07021
 C496 C 0.93131 0.08321 -0.07071
 C497 C 0.94616 0.10462 -0.08842
 C498 C 0.92794 0.12376 -0.10704
 H499 H 0.79943 0.16390 -0.22926
 H500 H 0.76415 0.19275 -0.26316
 H501 H 0.79570 0.26063 -0.20282
 H502 H 0.82935 0.23132 -0.16610
 H503 H 0.87445 0.20521 -0.16130
 H504 H 0.90596 0.17521 -0.12371
 H505 H 0.83819 0.11242 -0.14160
 H506 H 0.80524 0.14300 -0.17540
 H507 H 0.85435 0.09982 -0.08612
 H508 H 0.88622 0.06571 -0.05617
 H509 H 0.97182 0.10589 -0.08918
 H510 H 0.94019 0.13921 -0.12206
 C511 C 0.79748 0.67752 0.31605
 C512 C 0.77833 0.69603 0.33480
 C513 C 0.76492 0.71793 0.31668
 C514 C 0.77043 0.72160 0.27961
 C515 C 0.78997 0.70358 0.26101
 C516 C 0.80364 0.68191 0.27908
 C517 C 0.81073 0.65353 0.33457
 C518 C 0.81325 0.62911 0.31622
 C519 C 0.82801 0.60709 0.33238
 C520 C 0.84017 0.60886 0.36743
 C521 C 0.83631 0.63278 0.38655
 C522 C 0.82185 0.65494 0.37023
 C523 C 0.85968 0.58689 0.38261
 C524 C 0.85554 0.57832 0.41856
 C525 C 0.87688 0.56007 0.43399
 C526 C 0.90301 0.55065 0.41388
 C527 C 0.90629 0.55832 0.37752
 C528 C 0.88464 0.57607 0.36191
 H529 H 0.77282 0.69309 0.36317
 H530 H 0.74929 0.73129 0.33137
 H531 H 0.79411 0.70593 0.23224
 H532 H 0.81883 0.66845 0.26396
 H533 H 0.80413 0.62709 0.28912
 H534 H 0.83045 0.58876 0.31727
 H535 H 0.84587 0.63472 0.41348
 H536 H 0.82053 0.67346 0.38504
 H537 H 0.83641 0.58637 0.43498
 H538 H 0.87414 0.55469 0.46224
 H539 H 0.92635 0.55139 0.36158
 H540 H 0.88848 0.58256 0.33425
 C541 C 0.30945 0.19810 0.31831
 C542 C 0.29488 0.22019 0.33483
 C543 C 0.27496 0.23713 0.31486
 C544 C 0.26953 0.23217 0.27818
 C545 C 0.28536 0.21090 0.26136
 C546 C 0.30479 0.19378 0.28132
 C547 C 0.32901 0.17909 0.33940
 C548 C 0.32358 0.15164 0.33653
 C549 C 0.34286 0.13333 0.35469
 C550 C 0.36839 0.14202 0.37573
 C551 C 0.37331 0.16961 0.37937
 C552 C 0.35365 0.18801 0.36149
 C553 C 0.38999 0.12216 0.39295
 C554 C 0.40254 0.12634 0.42756
 C555 C 0.42160 0.10680 0.44404
 C556 C 0.42812 0.08267 0.42631
 C557 C 0.41627 0.07882 0.39145
 C558 C 0.39769 0.09840 0.37485
 H559 H 0.29840 0.22400 0.36327
 H560 H 0.26410 0.25405 0.32813
 H561 H 0.28221 0.20724 0.23280
 H562 H 0.31628 0.17715 0.26787
 H563 H 0.30433 0.14435 0.32016
 H564 H 0.33775 0.11229 0.35216
 H565 H 0.39286 0.17697 0.39517
 H566 H 0.35829 0.20914 0.36396
 H567 H 0.39687 0.14433 0.44235
 H568 H 0.43030 0.11016 0.47108
 H569 H 0.42130 0.06055 0.37697
 H570 H 0.38924 0.09483 0.34777
 C571 C 0.32290 0.69837 -0.17699
 C572 C 0.30125 0.71544 -0.15953
 C573 C 0.27967 0.73059 -0.17987
 C574 C 0.27986 0.72875 -0.21765
 C575 C 0.30282 0.71295 -0.23497
 C576 C 0.32393 0.69761 -0.21479
 C577 C 0.34281 0.67962 -0.15642
 C578 C 0.33919 0.65223 -0.16198
 C579 C 0.35949 0.63401 -0.14533
 C580 C 0.38424 0.64284 -0.12327
 C581 C 0.38722 0.67035 -0.11682
 C582 C 0.36647 0.68865 -0.13319
 C583 C 0.40679 0.62315 -0.10764
 C584 C 0.41800 0.62579 -0.07218
 C585 C 0.43691 0.60576 -0.05673
 C586 C 0.44449 0.58270 -0.07639
 C587 C 0.43443 0.58057 -0.11222
 C588 C 0.41608 0.60072 -0.12782
 H589 H 0.30031 0.71626 -0.13031
 H590 H 0.26270 0.74326 -0.16606
 H591 H 0.30369 0.71174 -0.26418
 H592 H 0.34070 0.68467 -0.22862
 H593 H 0.32076 0.64498 -0.17956
 H594 H 0.35586 0.61295 -0.14994
 H595 H 0.40611 0.67776 -0.10004
 H596 H 0.36954 0.70981 -0.12880
 H597 H 0.41109 0.64273 -0.05588
 H598 H 0.44426 0.60769 -0.02889
 H599 H 0.44036 0.56310 -0.12802
 H600 H 0.40866 0.59847 -0.15556
 C601 C 1.18027 -0.20111 -0.17878
 C602 C 1.18223 -0.22874 -0.17232
 C603 C 1.20282 -0.24463 -0.19304
 C604 C 1.22169 -0.23305 -0.22023
 C605 C 1.21846 -0.20577 -0.22787
 C606 C 1.19811 -0.18993 -0.20724
 C607 C 1.16045 -0.18348 -0.15580
 C608 C 1.17276 -0.15907 -0.14429
 C609 C 1.15361 -0.14092 -0.12582
 C610 C 1.12164 -0.14671 -0.11844
 C611 C 1.10965 -0.17172 -0.12817
 C612 C 1.12896 -0.19002 -0.14675
 C613 C 1.10087 -0.12581 -0.10263
 C614 C 1.07966 -0.13147 -0.07413
 C615 C 1.06184 -0.11090 -0.05816
 C616 C 1.06492 -0.08442 -0.07060
 C617 C 1.08529 -0.07914 -0.10001
 C618 C 1.10297 -0.09955 -0.11579
 H619 H 1.16855 -0.23786 -0.15069
 H620 H 1.20453 -0.26582 -0.18734
 H621 H 1.23163 -0.19647 -0.24970
 H622 H 1.19632 -0.16883 -0.21353
 H623 H 1.19718 -0.15382 -0.15014
 H624 H 1.16368 -0.12206 -0.11783
 H625 H 1.08506 -0.17662 -0.12279
 H626 H 1.11894 -0.20873 -0.15536
 H627 H 1.07760 -0.15159 -0.06354
 H628 H 1.04628 -0.11561 -0.03561
 H629 H 1.08795 -0.05910 -0.11069
 H630 H 1.11856 -0.09474 -0.13829
 C631 C 1.19628 0.32021 0.32136
 C632 C 1.19349 0.29312 0.33124
 C633 C 1.20617 0.27313 0.30912
 C634 C 1.22247 0.27991 0.27728
 C635 C 1.22400 0.30675 0.26651
 C636 C 1.21107 0.32670 0.28831
 C637 C 1.18390 0.34168 0.34524
 C638 C 1.20023 0.36597 0.34838
 C639 C 1.18802 0.38651 0.36987
 C640 C 1.15946 0.38308 0.38902
 C641 C 1.14342 0.35868 0.38640
 C642 C 1.15544 0.33826 0.36470
 C643 C 1.14517 0.40518 0.41011
 C644 C 1.13085 0.39991 0.44379
 C645 C 1.11211 0.41931 0.46055
 C646 C 1.10757 0.44429 0.44406
 C647 C 1.12371 0.45041 0.41187
 C648 C 1.14260 0.43097 0.39504
 H649 H 1.18229 0.28739 0.35652
 H650 H 1.20427 0.25246 0.31754
 H651 H 1.23535 0.31249 0.24135
 H652 H 1.21265 0.34723 0.27922
 H653 H 1.22253 0.36910 0.33431
 H654 H 1.20092 0.40507 0.37159
 H655 H 1.12098 0.35569 0.40028
 H656 H 1.14196 0.32005 0.36243
 H657 H 1.13280 0.38033 0.45620
 H658 H 1.09937 0.41422 0.48519
 H659 H 1.11980 0.46943 0.39845
 H660 H 1.15321 0.43548 0.36897
 C661 C 0.68777 -0.19594 0.32591
 C662 C 0.67273 -0.21365 0.30260
 C663 C 0.69067 -0.23068 0.28079
 C664 C 0.72393 -0.23079 0.28268
 C665 C 0.73903 -0.21329 0.30622
 C666 C 0.72107 -0.19578 0.32752
 C667 C 0.66859 -0.17676 0.34694
 C668 C 0.67439 -0.14938 0.34359
 C669 C 0.65497 -0.13098 0.36141
 C670 C 0.62970 -0.13959 0.38369
 C671 C 0.62429 -0.16716 0.38738
 C672 C 0.64338 -0.18555 0.36888
 C673 C 0.60908 -0.11975 0.40253
 C674 C 0.57640 -0.12435 0.40804
 C675 C 0.55704 -0.10496 0.42432
 C676 C 0.56992 -0.08047 0.43455
 C677 C 0.60251 -0.07606 0.42972
 C678 C 0.62192 -0.09556 0.41436
 H679 H 0.64709 -0.21371 0.30050
 H680 H 0.67832 -0.24335 0.26220
 H681 H 0.76470 -0.21295 0.30778
 H682 H 0.73309 -0.18213 0.34526
 H683 H 0.69339 -0.14221 0.32625
 H684 H 0.65940 -0.10996 0.35701
 H685 H 0.60546 -0.17458 0.40469
 H686 H 0.63859 -0.20666 0.37180
 H687 H 0.56556 -0.14258 0.39894
 H688 H 0.53191 -0.10872 0.42784
 H689 H 0.61307 -0.05749 0.43814
 H690 H 0.64706 -0.09160 0.41177
 C691 C 0.69142 0.30139 -0.17760
 C692 C 0.69087 0.27332 -0.17653
 C693 C 0.70889 0.25844 -0.20125
 C694 C 0.72757 0.27134 -0.22748
 C695 C 0.72898 0.29924 -0.22778
 C696 C 0.71083 0.31409 -0.20349
 C697 C 0.67148 0.31766 -0.15265
 C698 C 0.68268 0.34216 -0.13998
 C699 C 0.66302 0.35898 -0.11988
 C700 C 0.63175 0.35156 -0.11103
 C701 C 0.62093 0.32650 -0.12235
 C702 C 0.64053 0.30979 -0.14309
 C703 C 0.61040 0.37062 -0.09169
 C704 C 0.57776 0.37230 -0.09971
 C705 C 0.55863 0.39222 -0.08430
 C706 C 0.57204 0.41107 -0.06137
 C707 C 0.60414 0.40895 -0.05227
 C708 C 0.62302 0.38869 -0.06677
 H709 H 0.67663 0.26288 -0.15656
 H710 H 0.70793 0.23685 -0.20022
 H711 H 0.74383 0.30985 -0.24686
 H712 H 0.71160 0.33563 -0.20557
 H713 H 0.70659 0.34865 -0.14611
 H714 H 0.67219 0.37824 -0.11233
 H715 H 0.59721 0.31987 -0.11558
 H716 H 0.63105 0.29112 -0.15257
 H717 H 0.56720 0.35896 -0.11899
 H718 H 0.53380 0.39368 -0.09152
 H719 H 0.61465 0.42318 -0.03409
 H720 H 0.64768 0.38754 -0.05889
 C721 C 1.18190 0.20120 -0.18234
 C722 C 1.21458 0.19610 -0.18735
 C723 C 1.23341 0.21347 -0.20788
 C724 C 1.22008 0.23621 -0.22420
 C725 C 1.18753 0.24131 -0.21971
 C726 C 1.16869 0.22416 -0.19872
 C727 C 1.16175 0.18237 -0.16077
 C728 C 1.12993 0.17770 -0.17022
 C729 C 1.11152 0.15926 -0.15082
 C730 C 1.12460 0.14475 -0.12188
 C731 C 1.15613 0.14962 -0.11200
 C732 C 1.17438 0.16835 -0.13097
 C733 C 1.10600 0.12364 -0.10317
 C734 C 1.11929 0.09812 -0.09817
 C735 C 1.10169 0.07778 -0.08179
 C736 C 1.07053 0.08256 -0.06944
 C737 C 1.05738 0.10826 -0.07379
 C738 C 1.07485 0.12854 -0.09087
 H739 H 1.22558 0.17835 -0.17608
 H740 H 1.25840 0.20888 -0.21155
 H741 H 1.17648 0.25846 -0.23242
 H742 H 1.14378 0.22901 -0.19523
 H743 H 1.11943 0.18770 -0.19329
 H744 H 1.08736 0.15566 -0.15921
 H745 H 1.16665 0.13890 -0.08950
 H746 H 1.19844 0.17181 -0.12220
 H747 H 1.14316 0.09376 -0.10764
 H748 H 1.11259 0.05826 -0.07865
 H749 H 1.03343 0.11255 -0.06456
 H750 H 1.06414 0.14810 -0.09425
 C751 C 1.20779 0.68174 0.31669
 C752 C 1.19049 0.70497 0.30803
 C753 C 1.20464 0.72566 0.28813
 C754 C 1.23658 0.72371 0.27714
 C755 C 1.25418 0.70088 0.28710
 C756 C 1.23983 0.67998 0.30626
 C757 C 1.19216 0.65901 0.33538
 C758 C 1.19381 0.63328 0.32061
 C759 C 1.17765 0.61205 0.33705
 C760 C 1.16015 0.61601 0.36904
 C761 C 1.15923 0.64158 0.38436
 C762 C 1.17479 0.66295 0.36746
 C763 C 1.14128 0.59402 0.38527
 C764 C 1.14330 0.58799 0.42234
 C765 C 1.12312 0.56903 0.43816
 C766 C 1.10007 0.55628 0.41733
 C767 C 1.09878 0.56169 0.38007
 C768 C 1.11947 0.58013 0.36411
 H769 H 1.16569 0.70672 0.31569
 H770 H 1.19033 0.74290 0.28107
 H771 H 1.27892 0.69883 0.27933
 H772 H 1.25373 0.66237 0.31288
 H773 H 1.20691 0.62980 0.29577
 H774 H 1.17867 0.59253 0.32473
 H775 H 1.14563 0.64518 0.40882
 H776 H 1.17326 0.68258 0.37940
 H777 H 1.15999 0.59842 0.43917
 H778 H 1.12424 0.56555 0.46706
 H779 H 1.08107 0.55227 0.36349
 H780 H 1.11734 0.58454 0.33553
 C781 C 0.69024 0.19675 0.33303
 C782 C 0.71595 0.18594 0.31340
 C783 C 0.73498 0.20231 0.29165
 C784 C 0.72840 0.22969 0.28878
 C785 C 0.70364 0.24069 0.30948
 C786 C 0.68474 0.22441 0.33139
 C787 C 0.66855 0.17916 0.35401
 C788 C 0.63561 0.18398 0.35402
 C789 C 0.61496 0.16676 0.37223
 C790 C 0.62672 0.14423 0.39073
 C791 C 0.65970 0.13964 0.39122
 C792 C 0.68038 0.15694 0.37314
 C793 C 0.60470 0.12498 0.40821
 C794 C 0.61268 0.11253 0.44115
 C795 C 0.59314 0.09289 0.45610
 C796 C 0.56523 0.08561 0.43855
 C797 C 0.55654 0.09844 0.40639
 C798 C 0.57616 0.11800 0.39126
 H799 H 0.72081 0.16470 0.31396
 H800 H 0.75446 0.19337 0.27681
 H801 H 0.69855 0.26184 0.30847
 H802 H 0.66566 0.23348 0.34688
 H803 H 0.62568 0.20073 0.33919
 H804 H 0.58972 0.17101 0.37167
 H805 H 0.66952 0.12229 0.40483
 H806 H 0.70563 0.15283 0.37401
 H807 H 0.63419 0.11776 0.45517
 H808 H 0.60004 0.08302 0.48102
 H809 H 0.53512 0.09275 0.39248
 H810 H 0.56954 0.12693 0.36565
 C811 C 0.69266 0.69338 -0.17947
 C812 C 0.68850 0.72123 -0.17841
 C813 C 0.70778 0.73793 -0.19957
 C814 C 0.73143 0.72702 -0.22199
 C815 C 0.73630 0.69935 -0.22214
 C816 C 0.71716 0.68271 -0.20108
 C817 C 0.67120 0.67519 -0.15914
 C818 C 0.66066 0.65167 -0.17540
 C819 C 0.64210 0.63352 -0.15606
 C820 C 0.63355 0.63841 -0.11996
 C821 C 0.64299 0.66241 -0.10399
 C822 C 0.66169 0.68065 -0.12342
 C823 C 0.61579 0.61789 -0.09912
 C824 C 0.58999 0.62476 -0.07665
 C825 C 0.57232 0.60485 -0.05905
 C826 C 0.58029 0.57774 -0.06351
 C827 C 0.60680 0.57110 -0.08502
 C828 C 0.62427 0.59089 -0.10256
 H829 H 0.66977 0.73002 -0.16210
 H830 H 0.70375 0.75929 -0.19909
 H831 H 0.75469 0.69039 -0.23870
 H832 H 0.72147 0.66139 -0.20181
 H833 H 0.66686 0.64723 -0.20317
 H834 H 0.63452 0.61552 -0.16937
 H835 H 0.63680 0.66663 -0.07616
 H836 H 0.66954 0.69860 -0.11018
 H837 H 0.58292 0.64544 -0.07356
 H838 H 0.55210 0.61068 -0.04258
 H839 H 0.61390 0.55049 -0.08885
 H840 H 0.64446 0.58502 -0.11905
 C841 C 0.82804 -0.20038 -0.18757
 C842 C 0.82688 -0.19892 -0.22560
 C843 C 0.80589 -0.21480 -0.24497
 C844 C 0.78488 -0.23192 -0.22685
 C845 C 0.78647 -0.23411 -0.18913
 C846 C 0.80791 -0.21866 -0.16972
 C847 C 0.84929 -0.18237 -0.16671
 C848 C 0.84022 -0.17309 -0.13225
 C849 C 0.85930 -0.15522 -0.11347
 C850 C 0.88761 -0.14574 -0.12893
 C851 C 0.89704 -0.15517 -0.16300
 C852 C 0.87832 -0.17347 -0.18148
 C853 C 0.90628 -0.12497 -0.11043
 C854 C 0.91430 -0.10133 -0.12884
 C855 C 0.93002 -0.08085 -0.11101
 C856 C 0.93869 -0.08379 -0.07459
 C857 C 0.93153 -0.10777 -0.05643
 C858 C 0.91509 -0.12804 -0.07407
 H859 H 0.84154 -0.18497 -0.24054
 H860 H 0.80544 -0.21315 -0.27416
 H861 H 0.77102 -0.24760 -0.17447
 H862 H 0.80860 -0.22107 -0.14066
 H863 H 0.81786 -0.17891 -0.12009
 H864 H 0.85134 -0.14800 -0.08740
 H865 H 0.91895 -0.14832 -0.17533
 H866 H 0.88668 -0.18055 -0.20743
 H867 H 0.90758 -0.09841 -0.15679
 H868 H 0.93534 -0.06264 -0.12572
 H869 H 0.93779 -0.11050 -0.02832
 H870 H 0.90919 -0.14611 -0.05933
 C871 C 0.80217 0.31877 0.31976
 C872 C 0.80102 0.31922 0.28180
 C873 C 0.78649 0.29859 0.26313
 C874 C 0.77302 0.27710 0.28202
 C875 C 0.77431 0.27641 0.31985
 C876 C 0.78870 0.29713 0.33860
 C877 C 0.81846 0.34027 0.33950
 C878 C 0.80541 0.35100 0.37141
 C879 C 0.82192 0.37030 0.39082
 C880 C 0.85187 0.37885 0.37881
 C881 C 0.86439 0.36868 0.34640
 C882 C 0.84788 0.34966 0.32694
 C883 C 0.87149 0.39675 0.40087
 C884 C 0.90312 0.38958 0.40745
 C885 C 0.92319 0.40694 0.42510
 C886 C 0.91228 0.43211 0.43658
 C887 C 0.88009 0.43883 0.43179
 C888 C 0.85975 0.42118 0.41407
 H889 H 0.81098 0.33574 0.26658
 H890 H 0.78532 0.29960 0.23393
 H891 H 0.76408 0.26002 0.33502
 H892 H 0.78968 0.29605 0.36780
 H893 H 0.78258 0.34430 0.38145
 H894 H 0.81187 0.37782 0.41580
 H895 H 0.88737 0.37513 0.33646
 H896 H 0.85863 0.34164 0.30263
 H897 H 0.91251 0.37059 0.39832
 H898 H 0.94762 0.40075 0.42903
 H899 H 0.87096 0.45799 0.44056
 H900 H 0.83530 0.42701 0.40944
 C901 C 0.32096 -0.19696 0.31247
 C902 C 0.30953 -0.18942 0.27821
 C903 C 0.28885 -0.20589 0.25941
 C904 C 0.27883 -0.23025 0.27444
 C905 C 0.28962 -0.23762 0.30896
 C906 C 0.31050 -0.22119 0.32772
 C907 C 0.34382 -0.17963 0.33187
 C908 C 0.34208 -0.17656 0.36962
 C909 C 0.36269 -0.15927 0.38738
 C910 C 0.38538 -0.14454 0.36778
 C911 C 0.38772 -0.14816 0.33025
 C912 C 0.36732 -0.16554 0.31256
 C913 C 0.40507 -0.12413 0.38588
 C914 C 0.40856 -0.09877 0.37001
 C915 C 0.42521 -0.07879 0.38762
 C916 C 0.43911 -0.08365 0.42149
 C917 C 0.43664 -0.10930 0.43690
 C918 C 0.41950 -0.12929 0.41942
 H919 H 0.31649 -0.17068 0.26588
 H920 H 0.28100 -0.19964 0.23283
 H921 H 0.28254 -0.25626 0.32141
 H922 H 0.31903 -0.22779 0.35385
 H923 H 0.32412 -0.18686 0.38536
 H924 H 0.36008 -0.15666 0.41627
 H925 H 0.40528 -0.13740 0.31449
 H926 H 0.36996 -0.16790 0.28364
 H927 H 0.39748 -0.09408 0.34441
 H928 H 0.42674 -0.05931 0.37487
 H929 H 0.44710 -0.11369 0.46291
 H930 H 0.41740 -0.14872 0.43217
 C931 C 0.32071 0.30592 -0.18767
 C932 C 0.30657 0.28314 -0.17216
 C933 C 0.28366 0.26888 -0.19113
 C934 C 0.27471 0.27711 -0.22589
 C935 C 0.28847 0.29998 -0.24114
 C936 C 0.31108 0.31428 -0.22224
 C937 C 0.34507 0.32134 -0.16806
 C938 C 0.37062 0.33288 -0.18708
 C939 C 0.39174 0.34969 -0.16967
 C940 C 0.38805 0.35510 -0.13275
 C941 C 0.36355 0.34256 -0.11321
 C942 C 0.34217 0.32590 -0.13073
 C943 C 0.40820 0.37530 -0.11539
 C944 C 0.42181 0.37043 -0.08145
 C945 C 0.43927 0.39028 -0.06444
 C946 C 0.44287 0.41554 -0.08076
 C947 C 0.42973 0.42015 -0.11504
 C948 C 0.41276 0.40019 -0.13225
 H949 H 0.31356 0.27610 -0.14564
 H950 H 0.27335 0.25134 -0.17874
 H951 H 0.28193 0.30678 -0.26793
 H952 H 0.32084 0.33208 -0.23467
 H953 H 0.37404 0.32924 -0.21565
 H954 H 0.41074 0.35882 -0.18518
 H955 H 0.36008 0.34661 -0.08475
 H956 H 0.32262 0.31752 -0.11536
 H957 H 0.41880 0.35131 -0.06804
 H958 H 0.44915 0.38611 -0.03806
 H959 H 0.43217 0.43935 -0.12839
 H960 H 0.40228 0.40450 -0.15830
 C961 C 1.18007 -0.19839 0.19103
 C962 C 1.19456 -0.21997 0.17303
 C963 C 1.21681 -0.23634 0.19054
 C964 C 1.22482 -0.23189 0.22677
 C965 C 1.20984 -0.21080 0.24513
 C966 C 1.18794 -0.19415 0.22746
 C967 C 1.15752 -0.18008 0.17167
 C968 C 1.13195 -0.16785 0.19009
 C969 C 1.11177 -0.14981 0.17227
 C970 C 1.11629 -0.14380 0.13545
 C971 C 1.14126 -0.15643 0.11675
 C972 C 1.16174 -0.17417 0.13465
 C973 C 1.09610 -0.12341 0.11704
 C974 C 1.08373 -0.12793 0.08243
 C975 C 1.06612 -0.10802 0.06456
 C976 C 1.06109 -0.08302 0.08067
 C977 C 1.07307 -0.07872 0.11549
 C978 C 1.09014 -0.09873 0.13355
 H979 H 1.18872 -0.22435 0.14530
 H980 H 1.22760 -0.25236 0.17534
 H981 H 1.21549 -0.20679 0.27307
 H982 H 1.17779 -0.17756 0.24221
 H983 H 1.12740 -0.17225 0.21832
 H984 H 1.09252 -0.14056 0.18728
 H985 H 1.14561 -0.15188 0.08849
 H986 H 1.18142 -0.18266 0.11959
 H987 H 1.08783 -0.14684 0.06916
 H988 H 1.05733 -0.11189 0.03770
 H989 H 1.06952 -0.05970 0.12869
 H990 H 1.09958 -0.09459 0.16004
 C991 C 1.19601 0.32920 0.68662
 C992 C 1.19267 0.32591 0.72427
 C993 C 1.20614 0.30386 0.74189
 C994 C 1.22261 0.28434 0.72224
 C995 C 1.22514 0.28695 0.68462
 C996 C 1.21207 0.30921 0.66696
 C997 C 1.18328 0.35356 0.66814
 C998 C 1.17074 0.35216 0.63308
 C999 C 1.15802 0.37487 0.61623
 C1000 C 1.15717 0.39945 0.63417
 C1001 C 1.17014 0.40107 0.66888
 C1002 C 1.18330 0.37846 0.68555
 C1003 C 1.14027 0.42259 0.61784
 C1004 C 1.11674 0.43608 0.63782
 C1005 C 1.09671 0.45462 0.62093
 C1006 C 1.10030 0.46045 0.58396
 C1007 C 1.12543 0.44858 0.56461
 C1008 C 1.14506 0.42956 0.58134
 H1009 H 1.17992 0.34051 0.74029
 H1010 H 1.20443 0.30244 0.77106
 H1011 H 1.23828 0.27239 0.66895
 H1012 H 1.21558 0.31117 0.63807
 H1013 H 1.16985 0.33335 0.61899
 H1014 H 1.14768 0.37299 0.58968
 H1015 H 1.16993 0.41984 0.68318
 H1016 H 1.19349 0.38053 0.71212
 H1017 H 1.11242 0.43095 0.66590
 H1018 H 1.07731 0.46334 0.63628
 H1019 H 1.12832 0.45239 0.53592
 H1020 H 1.16314 0.41950 0.56544
 C1021 C 0.68301 -0.19506 0.68600
 C1022 C 0.67674 -0.22238 0.69069
 C1023 C 0.69794 -0.23883 0.70962
 C1024 C 0.72608 -0.22847 0.72371
 C1025 C 0.73178 -0.20106 0.72029
 C1026 C 0.71055 -0.18455 0.70159
 C1027 C 0.66117 -0.17748 0.66491
 C1028 C 0.67351 -0.15697 0.64293
 C1029 C 0.65328 -0.13938 0.62471
 C1030 C 0.62020 -0.14195 0.62770
 C1031 C 0.60770 -0.16306 0.64836
 C1032 C 0.62799 -0.18061 0.66694
 C1033 C 0.59917 -0.12146 0.61117
 C1034 C 0.57285 -0.12843 0.59017
 C1035 C 0.55421 -0.10854 0.57358
 C1036 C 0.56134 -0.08140 0.57828
 C1037 C 0.58720 -0.07467 0.60016
 C1038 C 0.60589 -0.09441 0.61622
 H1039 H 0.65574 -0.23118 0.67922
 H1040 H 0.69228 -0.25972 0.71321
 H1041 H 0.75257 -0.19218 0.73189
 H1042 H 0.71565 -0.16345 0.69955
 H1043 H 0.69890 -0.15441 0.63989
 H1044 H 0.66352 -0.12351 0.60845
 H1045 H 0.58225 -0.16534 0.65125
 H1046 H 0.61767 -0.19606 0.68381
 H1047 H 0.56721 -0.14920 0.58593
 H1048 H 0.53443 -0.11437 0.55695
 H1049 H 0.59352 -0.05404 0.60447
 H1050 H 0.62573 -0.08850 0.63271
 C1051 C 0.67412 0.29870 0.19101
 C1052 C 0.68955 0.27659 0.17542
 C1053 C 0.71285 0.26249 0.19456
 C1054 C 0.72090 0.27016 0.22964
 C1055 C 0.70582 0.29239 0.24500
 C1056 C 0.68273 0.30654 0.22592
 C1057 C 0.64980 0.31418 0.17083
 C1058 C 0.62315 0.32474 0.18898
 C1059 C 0.60205 0.34174 0.17105
 C1060 C 0.60697 0.34831 0.13453
 C1061 C 0.63263 0.33670 0.11582
 C1062 C 0.65392 0.31983 0.13384
 C1063 C 0.58722 0.36907 0.11694
 C1064 C 0.57577 0.36564 0.08176
 C1065 C 0.55953 0.38640 0.06428
 C1066 C 0.55499 0.41103 0.08152
 C1067 C 0.56579 0.41417 0.11700
 C1068 C 0.58158 0.39335 0.13461
 H1069 H 0.68339 0.27003 0.14859
 H1070 H 0.72424 0.24563 0.18182
 H1071 H 0.71203 0.29907 0.27176
 H1072 H 0.67197 0.32392 0.23834
 H1073 H 0.61893 0.32027 0.21727
 H1074 H 0.58220 0.35022 0.18591
 H1075 H 0.63713 0.34173 0.08774
 H1076 H 0.67439 0.31224 0.11921
 H1077 H 0.57980 0.34705 0.06767
 H1078 H 0.55164 0.38353 0.03681
 H1079 H 0.56256 0.43293 0.13093
 H1080 H 0.59051 0.39658 0.16157
 C1081 C 0.81783 0.20034 0.18207
 C1082 C 0.82994 0.22214 0.20120
 C1083 C 0.81012 0.23740 0.22363
 C1084 C 0.77777 0.23137 0.22703
 C1085 C 0.76562 0.20973 0.20798
 C1086 C 0.78539 0.19431 0.18591
 C1087 C 0.83884 0.18347 0.15889
 C1088 C 0.82712 0.17211 0.12706
 C1089 C 0.84572 0.15432 0.10701
 C1090 C 0.87665 0.14778 0.11795
 C1091 C 0.88904 0.16002 0.14871
 C1092 C 0.87027 0.17758 0.16911
 C1093 C 0.89488 0.12670 0.09894
 C1094 C 0.92668 0.13051 0.08848
 C1095 C 0.94383 0.10995 0.07163
 C1096 C 0.92961 0.08508 0.06581
 C1097 C 0.89777 0.08142 0.07614
 C1098 C 0.88053 0.10206 0.09224
 H1099 H 0.85469 0.22756 0.19866
 H1100 H 0.82019 0.25389 0.23816
 H1101 H 0.74081 0.20447 0.21057
 H1102 H 0.77531 0.17732 0.17239
 H1103 H 0.80338 0.17672 0.11778
 H1104 H 0.83579 0.14537 0.08311
 H1105 H 0.91275 0.15509 0.15786
 H1106 H 0.88001 0.18568 0.19364
 H1107 H 0.93819 0.14939 0.09332
 H1108 H 0.96839 0.11323 0.06402
 H1109 H 0.88615 0.06252 0.07179
 H1110 H 0.85614 0.09856 0.10034
 C1111 C 0.80263 0.68715 0.66881
 C1112 C 0.82049 0.69921 0.69612
 C1113 C 0.80683 0.71883 0.71822
 C1114 C 0.77511 0.72669 0.71344
 C1115 C 0.75753 0.71507 0.68573
 C1116 C 0.77116 0.69565 0.66352
 C1117 C 0.81624 0.66509 0.64680
 C1118 C 0.81060 0.66382 0.60945
 C1119 C 0.82332 0.64296 0.58885
 C1120 C 0.84173 0.62277 0.60519
 C1121 C 0.84694 0.62383 0.64263
 C1122 C 0.83443 0.64478 0.66316
 C1123 C 0.85750 0.60178 0.58310
 C1124 C 0.85965 0.57523 0.59569
 C1125 C 0.87888 0.55659 0.57768
 C1126 C 0.89633 0.56430 0.54700
 C1127 C 0.89271 0.59025 0.53314
 C1128 C 0.87327 0.60877 0.55081
 H1129 H 0.84491 0.69326 0.70064
 H1130 H 0.82077 0.72712 0.73978
 H1131 H 0.73292 0.72029 0.68170
 H1132 H 0.75665 0.68653 0.64306
 H1133 H 0.79678 0.67922 0.59604
 H1134 H 0.81886 0.64266 0.56008
 H1135 H 0.86144 0.60882 0.65592
 H1136 H 0.83882 0.64500 0.69195
 H1137 H 0.84752 0.56923 0.62031
 H1138 H 0.88194 0.53679 0.58916
 H1139 H 0.90651 0.59663 0.50984
 H1140 H 0.87237 0.62907 0.54060
 C1141 C 0.30457 0.20174 0.67111
 C1142 C 0.31738 0.22593 0.68302
 C1143 C 0.29948 0.24314 0.70472
 C1144 C 0.26831 0.23668 0.71477
 C1145 C 0.25493 0.21312 0.70187
 C1146 C 0.27291 0.19573 0.68038
 C1147 C 0.32454 0.18246 0.65036
 C1148 C 0.31137 0.16685 0.62293
 C1149 C 0.32993 0.14791 0.60473
 C1150 C 0.36213 0.14436 0.61327
 C1151 C 0.37551 0.16029 0.64010
 C1152 C 0.35690 0.17901 0.65857
 C1153 C 0.38142 0.12331 0.59545
 C1154 C 0.41230 0.12863 0.58280
 C1155 C 0.43083 0.10838 0.56730
 C1156 C 0.41899 0.08232 0.56475
 C1157 C 0.38800 0.07711 0.57717
 C1158 C 0.36936 0.09743 0.59212
 H1159 H 0.34139 0.23153 0.67577
 H1160 H 0.31034 0.26129 0.71391
 H1161 H 0.23084 0.20780 0.70916
 H1162 H 0.26232 0.17718 0.67204
 H1163 H 0.28672 0.16928 0.61545
 H1164 H 0.31915 0.13604 0.58387
 H1165 H 0.40015 0.15767 0.64758
 H1166 H 0.36773 0.19024 0.68002
 H1167 H 0.42206 0.14849 0.58486
 H1168 H 0.45461 0.11299 0.55797
 H1169 H 0.37812 0.05729 0.57534
 H1170 H 0.34574 0.09274 0.60192
 C1171 C 0.31669 0.70034 0.16954
 C1172 C 0.32862 0.72334 0.18599
 C1173 C 0.30959 0.73845 0.20938
 C1174 C 0.27802 0.73111 0.21659
 C1175 C 0.26583 0.70851 0.19949
 C1176 C 0.28492 0.69327 0.17637
 C1177 C 0.33754 0.68309 0.14669
 C1178 C 0.32524 0.66976 0.11662
 C1179 C 0.34403 0.65171 0.09718
 C1180 C 0.37568 0.64675 0.10707
 C1181 C 0.38847 0.66088 0.13607
 C1182 C 0.36958 0.67875 0.15578
 C1183 C 0.39441 0.62538 0.08912
 C1184 C 0.42625 0.62929 0.07878
 C1185 C 0.44407 0.60838 0.06365
 C1186 C 0.43050 0.58307 0.05930
 C1187 C 0.39855 0.57938 0.06926
 C1188 C 0.38070 0.60030 0.08379
 H1189 H 0.35279 0.72963 0.18094
 H1190 H 0.32001 0.75565 0.22194
 H1191 H 0.24167 0.70217 0.20468
 H1192 H 0.27502 0.67544 0.16477
 H1193 H 0.30092 0.67305 0.10832
 H1194 H 0.33371 0.64132 0.07462
 H1195 H 0.41268 0.65719 0.14453
 H1196 H 0.37978 0.68832 0.17904
 H1197 H 0.43733 0.64849 0.08251
 H1198 H 0.46863 0.61180 0.05621
 H1199 H 0.38731 0.56019 0.06601
 H1200 H 0.35634 0.59663 0.09187
   
