data_POSCAR
  _audit_creation_date              2014-09-24
  _audit_creation_method            'ToBaCCo'
  _symmetry_space_group_name_H-M    'P1'
  _symmetry_Int_Tables_number       1
  _symmetry_cell_setting            triclinic
  loop_
  _symmetry_equiv_pos_as_xyz
 x,y,z
_cell_length_a 34.0829
_cell_length_b 33.5920
_cell_length_c 33.4454
_cell_angle_alpha 90.145200
_cell_angle_beta 89.975600
_cell_angle_gamma 89.879300
loop_
  _atom_site_label
  _atom_site_type_symbol
  _atom_site_fract_x
  _atom_site_fract_y
  _atom_site_fract_z
N1 N 0.18687 1.26924 0.15940
 N2 N 0.15913 1.26832 0.18678
 C3 C 0.13263 1.29709 0.17892
 C4 C 0.14474 1.31694 0.14511
 C5 C 0.17904 1.29863 0.13326
 H6 H 0.10609 1.30256 0.19582
 H7 H 0.19639 1.30545 0.10708
 Cu8 Cu 0.15924 1.22860 0.22900
 Cu9 Cu 0.22962 1.23077 0.15822
 Cu10 Cu 0.22969 1.15809 0.23147
 N11 N 0.15915 1.18661 0.26895
 N12 N 0.18694 1.15937 0.27002
 C13 C 0.17910 1.13338 0.29955
 C14 C 0.14474 1.14521 0.31780
 C15 C 0.13260 1.17882 0.29775
 H16 H 0.19646 1.10731 0.30649
 H17 H 0.10599 1.19563 0.30308
 N18 N 0.27045 1.16164 0.18990
 N19 N 0.27039 1.18933 0.16193
 C20 C 0.30025 1.18227 0.13644
 C21 C 0.31987 1.14874 0.14917
 C22 C 0.30036 1.13624 0.18293
 H23 H 0.30633 1.19916 0.10967
 H24 H 0.30652 1.10968 0.20003
 H25 H 0.19864 1.18557 0.18593
 H26 H 0.22936 1.21822 0.21861
 N27 N 0.81138 0.72972 0.16172
 N28 N 0.83818 0.72991 0.19005
 C29 C 0.86445 0.70075 0.18272
 C30 C 0.85321 0.68136 0.14822
 C31 C 0.81961 0.70038 0.13551
 H32 H 0.89049 0.69489 0.20024
 H33 H 0.80324 0.69426 0.10849
 Cu34 Cu 0.83714 0.77040 0.23163
 Cu35 Cu 0.76960 0.76951 0.15908
 Cu36 Cu 0.76951 0.84274 0.23276
 N37 N 0.83800 0.81163 0.27246
 N38 N 0.81119 0.83990 0.27273
 C39 C 0.81926 0.86586 0.30234
 C40 C 0.85277 0.85297 0.32143
 C41 C 0.86417 0.81871 0.30182
 H42 H 0.80287 0.89279 0.30854
 H43 H 0.89020 0.80119 0.30760
 N44 N 0.72999 0.84024 0.18974
 N45 N 0.73000 0.81237 0.16176
 C46 C 0.70078 0.81993 0.13572
 C47 C 0.68166 0.85395 0.14808
 C48 C 0.70076 0.86623 0.18220
 H49 H 0.69463 0.80282 0.10903
 H50 H 0.69458 0.89281 0.19940
 H51 H 0.80031 0.81434 0.18765
 H52 H 0.76780 0.78286 0.21928
 N53 N 0.81031 1.27111 -0.16114
 N54 N 0.83721 1.27065 -0.18939
 C55 C 0.86337 1.29984 -0.18223
 C56 C 0.85195 1.31953 -0.14793
 C57 C 0.81836 1.30066 -0.13515
 H58 H 0.88945 1.30550 -0.19972
 H59 H 0.80187 1.30703 -0.10823
 Cu60 Cu 0.83646 1.22987 -0.23069
 Cu61 Cu 0.76860 1.23143 -0.15839
 Cu62 Cu 0.76892 1.15780 -0.23170
 N63 N 0.83765 1.18831 -0.27120
 N64 N 0.81083 1.16017 -0.27146
 C65 C 0.81914 1.13392 -0.30078
 C66 C 0.85283 1.14649 -0.31969
 C67 C 0.86406 1.18087 -0.30029
 H68 H 0.80279 1.10702 -0.30689
 H69 H 0.89016 1.19822 -0.30603
 N70 N 0.72914 1.16070 -0.18887
 N71 N 0.72905 1.18866 -0.16097
 C72 C 0.69971 1.18131 -0.13500
 C73 C 0.68062 1.14734 -0.14733
 C74 C 0.69987 1.13487 -0.18134
 H75 H 0.69344 1.19852 -0.10839
 H76 H 0.69376 1.10824 -0.19845
 H77 H 0.79945 1.18632 -0.18655
 H78 H 0.76707 1.21776 -0.21844
 N79 N 0.19068 0.72906 -0.16174
 N80 N 0.16336 0.72974 -0.18953
 C81 C 0.13736 0.70045 -0.18232
 C82 C 0.14926 0.68053 -0.14844
 C83 C 0.18303 0.69933 -0.13598
 H84 H 0.11101 0.69492 -0.19944
 H85 H 0.19987 0.69282 -0.10937
 Cu86 Cu 0.16288 0.77075 -0.23050
 Cu87 Cu 0.23223 0.76873 -0.15917
 Cu88 Cu 0.23176 0.84215 -0.23196
 N89 N 0.16290 0.81199 -0.27126
 N90 N 0.19001 0.83984 -0.27167
 C91 C 0.18208 0.86580 -0.30122
 C92 C 0.14836 0.85334 -0.32018
 C93 C 0.13673 0.81932 -0.30055
 H94 H 0.19872 0.89246 -0.30747
 H95 H 0.11050 0.80216 -0.30626
 N96 N 0.27156 0.83940 -0.18930
 N97 N 0.27177 0.81142 -0.16160
 C98 C 0.30107 0.81887 -0.13559
 C99 C 0.32001 0.85294 -0.14770
 C100 C 0.30072 0.86535 -0.18163
 H101 H 0.30735 0.80169 -0.10905
 H102 H 0.30668 0.89205 -0.19856
 H103 H 0.20115 0.81398 -0.18674
 H104 H 0.23264 0.78206 -0.21939
 C105 C 0.50011 1.00063 0.00073
 C106 C 0.00116 0.50002 0.99945
 C107 C 1.00063 -0.00026 0.50044
 C108 C 0.12501 0.34612 1.12540
 C109 C 0.10719 0.37151 1.10756
 C110 C 0.08593 0.40054 1.08610
 C111 C 0.06737 0.42462 1.06726
 C112 C 0.04512 0.45187 1.04452
 C113 C 0.02560 0.47421 1.02450
 C114 C -0.12536 0.65093 1.12727
 C115 C -0.10700 0.62604 1.10915
 C116 C -0.08508 0.59769 1.08731
 C117 C -0.06600 0.57420 1.06812
 C118 C -0.04323 0.54757 1.04503
 C119 C -0.02339 0.52562 1.02476
 C120 C -0.12672 0.35007 0.87282
 C121 C -0.10834 0.37503 0.89069
 C122 C -0.08629 0.40342 0.91221
 C123 C -0.06702 0.42685 0.93115
 C124 C -0.04394 0.45328 0.95402
 C125 C -0.02382 0.47494 0.97418
 C126 C 0.12811 0.65001 0.87242
 C127 C 0.10989 0.62509 0.89042
 C128 C 0.08804 0.59676 0.91211
 C129 C 0.06896 0.57334 0.93118
 C130 C 0.04610 0.54690 0.95416
 C131 C 0.02610 0.52520 0.97433
 C132 C 1.12492 0.12557 0.34697
 C133 C 1.10699 0.10778 0.37232
 C134 C 1.08556 0.08637 0.40125
 C135 C 1.06688 0.06754 0.42522
 C136 C 1.04453 0.04480 0.45234
 C137 C 1.02499 0.02478 0.47462
 C138 C 1.12810 -0.12678 0.65108
 C139 C 1.10976 -0.10872 0.62618
 C140 C 1.08783 -0.08704 0.59778
 C141 C 1.06869 -0.06804 0.57426
 C142 C 1.04576 -0.04520 0.54765
 C143 C 1.02568 -0.02519 0.52581
 C144 C 0.87308 -0.12733 0.35030
 C145 C 0.89148 -0.10938 0.37525
 C146 C 0.91353 -0.08773 0.40360
 C147 C 0.93277 -0.06867 0.42701
 C148 C 0.95577 -0.04570 0.45346
 C149 C 0.97581 -0.02551 0.47519
 C150 C 0.87328 0.12657 0.65163
 C151 C 0.89177 0.10851 0.62674
 C152 C 0.91383 0.08683 0.59834
 C153 C 0.93304 0.06782 0.57478
 C154 C 0.95596 0.04494 0.54809
 C155 C 0.97593 0.02485 0.52609
 C156 C 0.35056 1.12791 0.12834
 C157 C 0.37557 1.10989 0.11029
 C158 C 0.40395 1.08817 0.08852
 C159 C 0.42734 1.06907 0.06939
 C160 C 0.45366 1.04606 0.04632
 C161 C 0.47519 1.02584 0.02605
 C162 C 0.65008 1.12661 -0.12641
 C163 C 0.62511 1.10872 -0.10838
 C164 C 0.59670 1.08719 -0.08668
 C165 C 0.57323 1.06830 -0.06764
 C166 C 0.54676 1.04556 -0.04471
 C167 C 0.52510 1.02559 -0.02453
 C168 C 0.35036 0.87387 -0.12659
 C169 C 0.37516 0.89192 -0.10840
 C170 C 0.40341 0.91362 -0.08656
 C171 C 0.42678 0.93264 -0.06744
 C172 C 0.45323 0.95550 -0.04448
 C173 C 0.47494 0.97556 -0.02436
 C174 C 0.65109 0.87476 0.12720
 C175 C 0.62604 0.89265 0.10922
 C176 C 0.59746 0.91411 0.08761
 C177 C 0.57381 0.93294 0.06865
 C178 C 0.54712 0.95561 0.04584
 C179 C 0.52529 0.97558 0.02579
   
