data_POSCAR
  _audit_creation_date              2014-09-24
  _audit_creation_method            'ToBaCCo'
  _symmetry_space_group_name_H-M    'P1'
  _symmetry_Int_Tables_number       1
  _symmetry_cell_setting            triclinic
  loop_
  _symmetry_equiv_pos_as_xyz
 x,y,z
_cell_length_a 18.1657
_cell_length_b 18.1278
_cell_length_c 18.1598
_cell_angle_alpha 90.159100
_cell_angle_beta 90.112900
_cell_angle_gamma 90.106300
loop_
  _atom_site_label
  _atom_site_type_symbol
  _atom_site_fract_x
  _atom_site_fract_y
  _atom_site_fract_z
C1 C 0.17689 1.26972 0.17251
 C2 C 0.23997 1.23374 0.14522
 C3 C 0.26970 1.17186 0.18076
 C4 C 0.23647 1.14594 0.24540
 C5 C 0.17196 1.17876 0.27344
 C6 C 0.14408 1.24155 0.23718
 H7 H 0.26671 1.25348 0.09597
 H8 H 0.25869 1.09680 0.27061
 H9 H 0.09502 1.26726 0.25848
 C10 C 0.83114 0.72544 0.17161
 C11 C 0.76518 0.75441 0.14228
 C12 C 0.73301 0.81861 0.17150
 C13 C 0.76554 0.85266 0.23307
 C14 C 0.82980 0.82388 0.26486
 C15 C 0.86124 0.75996 0.23450
 H16 H 0.74086 0.73047 0.09339
 H17 H 0.74330 0.90414 0.25356
 H18 H 0.90903 0.73667 0.26129
 C19 C 0.82552 1.26763 -0.16872
 C20 C 0.76137 1.23731 -0.13713
 C21 C 0.72710 1.17453 -0.16695
 C22 C 0.75537 1.14335 -0.23174
 C23 C 0.81853 1.17263 -0.26536
 C24 C 0.85259 1.23508 -0.23400
 H25 H 0.73672 1.26295 -0.08933
 H26 H 0.72978 1.09438 -0.25454
 H27 H 0.90408 1.25382 -0.25722
 C28 C 0.17135 0.73327 -0.17940
 C29 C 0.14114 0.76721 -0.24266
 C30 C 0.17313 0.83062 -0.27346
 C31 C 0.23762 0.85934 -0.24206
 C32 C 0.26823 0.82821 -0.17847
 C33 C 0.23578 0.76462 -0.14844
 H34 H 0.09213 0.74507 -0.26832
 H35 H 0.26321 0.90750 -0.26628
 H36 H 0.25740 0.74405 -0.09694
 C37 C 0.61469 1.09294 -0.01203
 H38 H 0.61778 1.08728 0.04719
 C39 C 0.66841 1.13304 -0.04926
 H40 H 0.71297 1.15757 -0.01793
 C41 C 0.55567 1.06240 -0.12457
 H42 H 0.51267 1.03319 -0.15376
 C43 C 0.60808 1.10258 -0.16412
 H44 H 0.60386 1.10510 -0.22352
 N45 N 0.56024 1.05805 -0.04991
 C46 C 0.38345 1.01440 0.10481
 H47 H 0.38051 0.95494 0.10035
 C48 C 0.32954 1.05266 0.14384
 H49 H 0.28507 1.02187 0.16887
 C50 C 0.44178 1.12651 0.07172
 H51 H 0.48442 1.15514 0.04178
 C52 C 0.38929 1.16702 0.11078
 H53 H 0.39315 1.22661 0.11177
 Zn54 Zn 0.49835 0.99571 0.00570
 N55 N 0.43743 1.05163 0.06886
 C56 C 0.55998 0.92978 0.13442
 N57 N 0.56112 0.93287 0.05960
 C58 C 0.61355 0.89720 0.02001
 C59 C 0.66891 0.85778 0.05556
 C60 C 0.61420 0.89037 0.17237
 C61 C 0.38224 0.98034 -0.09198
 C62 C 0.32843 0.94443 -0.13348
 C63 C 0.38485 0.82787 -0.10270
 C64 C 0.43760 0.86618 -0.06128
 N65 N 0.43511 0.94107 -0.05661
 H66 H 0.51853 0.95968 0.16484
 H67 H 0.61400 0.90203 -0.03936
 H68 H 0.71194 0.83288 0.02275
 H69 H 0.61305 0.88909 0.23196
 H70 H 0.38075 1.03972 -0.08602
 H71 H 0.28535 0.97692 -0.15876
 H72 H 0.38733 0.76826 -0.10561
 H73 H 0.47938 0.83595 -0.03164
 C74 C 0.33125 1.13017 0.14628
 C75 C 0.66616 1.13766 -0.12649
 C76 C 0.32882 0.86706 -0.13894
 C77 C 0.67036 0.85463 0.13288
 C78 C -0.01209 0.61179 1.10184
 H79 H 0.04744 0.61008 1.10381
 C80 C -0.04858 0.66224 1.14106
 H81 H -0.01669 0.70151 1.17279
 C82 C -0.12247 0.56243 1.05027
 H83 H -0.15078 0.52554 1.01295
 C84 C -0.16524 0.61746 1.09221
 H85 H -0.22452 0.61565 1.08701
 N86 N -0.05103 0.56090 1.05527
 C87 C 0.11590 0.38772 1.01475
 H88 H 0.11967 0.39030 0.95534
 C89 C 0.15251 0.33563 1.05171
 H90 H 0.18413 0.29620 1.02022
 C91 C 0.06252 0.43660 1.12420
 H92 H 0.02469 0.47318 1.15185
 C93 C 0.10215 0.38046 1.16744
 H94 H 0.09579 0.38219 1.22660
 Zn95 Zn 0.00703 0.49888 0.99502
 N96 N 0.06894 0.43855 1.05293
 C97 C 0.13637 0.56791 0.93917
 N98 N 0.06203 0.56207 0.93348
 C99 C 0.02294 0.60779 0.88923
 C100 C 0.05824 0.66304 0.84925
 C101 C 0.17410 0.62280 0.90054
 C102 C -0.09632 0.38793 0.97936
 C103 C -0.13865 0.33413 0.94434
 C104 C -0.08977 0.37481 0.82767
 C105 C -0.04903 0.42870 0.86518
 N106 N -0.05294 0.43400 0.93972
 H107 H 0.16634 0.53159 0.97553
 H108 H -0.03642 0.60306 0.88726
 H109 H 0.02387 0.70048 0.81837
 H110 H 0.23338 0.62498 0.90592
 H111 H -0.09674 0.39210 1.03881
 H112 H -0.16961 0.29678 0.97883
 H113 H -0.08612 0.37306 0.76824
 H114 H -0.01313 0.46513 0.83479
 C115 C 0.14440 0.32938 1.13335
 C116 C -0.13051 0.66727 1.13573
 C117 C -0.13555 0.32572 0.86705
 C118 C 0.13521 0.67292 0.85542
 C119 C 1.09153 -0.01372 0.61503
 H120 H 1.08701 0.04573 0.61776
 C121 C 1.13186 -0.05136 0.66827
 H122 H 1.15767 -0.02013 0.71221
 C123 C 1.05840 -0.12627 0.55699
 H124 H 1.02826 -0.15520 0.51442
 C125 C 1.09869 -0.16627 0.60903
 H126 H 1.10030 -0.22584 0.60509
 N127 N 1.05536 -0.05139 0.56124
 C128 C 1.01348 0.11377 0.38749
 H129 H 0.95393 0.11525 0.38807
 C130 C 1.05068 0.15143 0.33647
 H131 H 1.01934 0.18157 0.29583
 C132 C 1.12324 0.06468 0.44002
 H133 H 1.15101 0.02840 0.47806
 C134 C 1.16674 0.10489 0.38448
 H135 H 1.22602 0.09994 0.38701
 Zn136 Zn 0.99434 0.00562 0.49932
 N137 N 1.05175 0.06874 0.43986
 C138 C 0.92939 0.13479 0.56168
 N139 N 0.93147 0.05979 0.56212
 C140 C 0.89477 0.02026 0.61386
 C141 C 0.85558 0.05607 0.66935
 C142 C 0.89001 0.17294 0.61575
 C143 C 0.98017 -0.09033 0.38165
 C144 C 0.94505 -0.13104 0.32667
 C145 C 0.82798 -0.10018 0.38159
 C146 C 0.86551 -0.05946 0.43547
 N147 N 0.94029 -0.05531 0.43434
 H148 H 0.96016 0.16530 0.52103
 H149 H 0.89872 -0.03928 0.61382
 H150 H 0.83007 0.02321 0.71195
 H151 H 0.88951 0.23265 0.61486
 H152 H 1.03949 -0.08483 0.38131
 H153 H 0.97808 -0.15621 0.28391
 H154 H 0.76847 -0.10297 0.38322
 H155 H 0.83484 -0.03014 0.47720
 C156 C 1.13264 0.14594 0.33258
 C157 C 1.13536 -0.12879 0.66625
 C158 C 0.86784 -0.13618 0.32578
 C159 C 0.85361 0.13358 0.67154
   
