data_POSCAR
  _audit_creation_date              2014-09-24
  _audit_creation_method            'ToBaCCo'
  _symmetry_space_group_name_H-M    'P1'
  _symmetry_Int_Tables_number       1
  _symmetry_cell_setting            triclinic
  loop_
  _symmetry_equiv_pos_as_xyz
 x,y,z
_cell_length_a 22.4010
_cell_length_b 22.3724
_cell_length_c 56.6451
_cell_angle_alpha 90.642500
_cell_angle_beta 89.600400
_cell_angle_gamma 120.087600
loop_
  _atom_site_label
  _atom_site_type_symbol
  _atom_site_fract_x
  _atom_site_fract_y
  _atom_site_fract_z
C1 C -0.04340 0.03768 0.51521
 C2 C -0.09996 -0.01264 0.49818
 C3 C -0.08089 -0.05272 0.48540
 C4 C -0.00774 -0.03874 0.49072
 C5 C -0.02639 -0.00796 0.53036
 C6 C -0.00833 -0.04842 0.51759
 C7 C 0.02025 0.07921 0.49981
 C8 C 0.03888 0.03948 0.48696
 H9 H -0.15101 -0.01845 0.49719
 H10 H 0.00805 -0.07094 0.48030
 H11 H -0.03584 -0.01386 0.54928
 H12 H 0.04602 0.13507 0.49817
 C13 C 0.95340 -0.08543 0.18258
 C14 C 1.00483 -0.09105 0.16579
 C15 C 1.04423 -0.03189 0.15322
 C16 C 1.02845 0.02646 0.15862
 C17 C 0.99489 -0.02514 0.19724
 C18 C 1.03667 0.03628 0.18412
 C19 C 0.91107 -0.06564 0.16677
 C20 C 0.95022 -0.00714 0.15418
 H21 H 1.01157 -0.13582 0.16474
 H22 H 1.05998 0.07441 0.14834
 H23 H 1.00207 -0.02830 0.21607
 H24 H 0.85536 -0.09675 0.16490
 C25 C 0.09034 1.05081 0.84934
 C26 C 0.09692 1.10684 0.83228
 C27 C 0.03808 1.08708 0.81955
 C28 C -0.02118 1.01383 0.82493
 C29 C 0.02717 1.03383 0.86453
 C30 C -0.03105 1.01508 0.85180
 C31 C 0.06878 0.98673 0.83397
 C32 C 0.01071 0.96741 0.82117
 H33 H 0.14212 1.15809 0.83127
 H34 H -0.06892 0.99747 0.81454
 H35 H 0.03015 1.04378 0.88345
 H36 H 0.09898 0.96108 0.83235
 O37 O 0.50727 0.10666 0.02699
 O38 O 0.62251 0.11023 -0.02086
 O39 O 0.51082 0.11819 -0.01874
 O40 O 0.62571 0.10899 0.02514
 O41 O 0.56717 -0.00509 0.02296
 O42 O 0.45120 0.00410 -0.02104
 O43 O 0.56259 -0.00390 -0.02278
 O44 O 0.44905 -0.00741 0.02469
 Cu45 Cu 0.57259 0.12248 0.00347
 Cu46 Cu 0.50148 -0.01450 0.00087
 C47 C 0.45804 0.04858 0.03368
 C48 C 0.61145 0.05334 -0.02993
 C49 C 0.46194 0.06297 -0.02741
 C50 C 0.61666 0.05073 0.03124
 O51 O 0.00381 0.45212 0.64532
 O52 O 0.01163 0.57877 0.68939
 O53 O 0.01496 0.46342 0.69108
 O54 O 0.01092 0.57118 0.64363
 O55 O -0.10309 0.51610 0.64514
 O56 O -0.09898 0.40672 0.69298
 O57 O -0.10233 0.52237 0.69116
 O58 O -0.11016 0.39682 0.64722
 Cu59 Cu 0.02175 0.52189 0.66730
 Cu60 Cu -0.11509 0.45499 0.66943
 C61 C -0.05478 0.40331 0.63874
 C62 C -0.04437 0.57223 0.69749
 C63 C -0.04087 0.41636 0.69986
 C64 C -0.04634 0.56194 0.63625
 O65 O 0.59262 0.48622 0.35785
 O66 O 0.48052 0.37216 0.30987
 O67 O 0.59978 0.48478 0.31202
 O68 O 0.47694 0.36693 0.35589
 O69 O 0.42059 0.42453 0.35531
 O70 O 0.54449 0.54348 0.31133
 O71 O 0.42548 0.43112 0.30955
 O72 O 0.53589 0.54345 0.35715
 Cu73 Cu 0.54297 0.42156 0.33408
 Cu74 Cu 0.47608 0.49152 0.33339
 C75 C 0.58343 0.53480 0.36535
 C76 C 0.43423 0.38299 0.30156
 C77 C 0.59289 0.53377 0.30418
 C78 C 0.42758 0.37508 0.36281
 C79 C -0.07343 0.16889 0.55799
 N80 N -0.09982 0.14892 0.57998
 N81 N -0.09758 0.19502 0.59558
 C82 C -0.06844 0.26256 0.58971
 N83 N -0.04227 0.28251 0.56769
 N84 N -0.04451 0.23639 0.55209
 C85 C -0.06879 0.12093 0.54217
 C86 C -0.06032 0.08215 0.52953
 C87 C -0.06325 0.31258 0.60684
 C88 C -0.05885 0.35432 0.62138
 C89 C 0.82393 0.75230 0.22444
 N90 N 0.84460 0.74544 0.24619
 N91 N 0.79912 0.70093 0.26153
 C92 C 0.73153 0.66229 0.25565
 N93 N 0.71087 0.66896 0.23388
 N94 N 0.75637 0.71346 0.21853
 C95 C 0.87126 0.80541 0.20895
 C96 C 0.90953 0.85298 0.19659
 C97 C 0.68217 0.61682 0.27257
 C98 C 0.64105 0.57903 0.28696
 C99 C 0.25034 0.08234 -0.10799
 N100 N 0.25534 0.10806 -0.08584
 N101 N 0.29854 0.10591 -0.07028
 C102 C 0.33768 0.07753 -0.07635
 N103 N 0.33289 0.05204 -0.09852
 N104 N 0.28969 0.05420 -0.11408
 C105 C 0.19827 0.07733 -0.12377
 C106 C 0.15138 0.06842 -0.13638
 C107 C 0.38161 0.07218 -0.05924
 C108 C 0.41811 0.06752 -0.04474
 C109 C -0.01972 0.78969 0.55344
 N110 N 0.03650 0.79235 0.56333
 N111 N 0.02919 0.74427 0.57861
 C112 C -0.03451 0.69230 0.58456
 N113 N -0.09074 0.68947 0.57460
 N114 N -0.08342 0.73754 0.55931
 C115 C -0.01256 0.84550 0.53918
 C116 C -0.00881 0.89355 0.52852
 C117 C -0.04207 0.64373 0.60230
 C118 C -0.04592 0.60511 0.61767
 C119 C 0.20022 0.18153 0.21917
 N120 N 0.20194 0.23854 0.22839
 N121 N 0.25142 0.27924 0.24352
 C122 C 0.30049 0.26403 0.24996
 N123 N 0.29896 0.20718 0.24067
 N124 N 0.24949 0.16649 0.22553
 C125 C 0.14282 0.13341 0.20508
 C126 C 0.09333 0.08967 0.19453
 C127 C 0.35032 0.30510 0.26762
 C128 C 0.38995 0.34001 0.28295
 C129 C 0.81676 0.02621 -0.11240
 N130 N 0.82781 0.08998 -0.10660
 N131 N 0.78625 0.09733 -0.09138
 C132 C 0.73252 0.04109 -0.08143
 N133 N 0.72128 -0.02269 -0.08731
 N134 N 0.76285 -0.03003 -0.10252
 C135 C 0.86611 0.01909 -0.12660
 C136 C 0.91093 0.01542 -0.13725
 C137 C 0.69059 0.04875 -0.06377
 C138 C 0.65505 0.05272 -0.04847
 C139 C 0.20566 0.00267 0.11040
 N140 N 0.24008 -0.03236 0.11297
 N141 N 0.29275 -0.01974 0.09877
 C142 C 0.31288 0.02854 0.08163
 N143 N 0.27851 0.06363 0.07909
 N144 N 0.22585 0.05102 0.09329
 C145 C 0.14839 -0.01130 0.12549
 C146 C 0.10053 -0.02183 0.13810
 C147 C 0.36679 0.03902 0.06541
 C148 C 0.40998 0.04525 0.05125
 C149 C 0.79134 0.78663 0.44224
 N150 N 0.72194 0.75167 0.44533
 N151 N 0.68161 0.69905 0.43107
 C152 C 0.70946 0.67953 0.41336
 N153 N 0.77887 0.71445 0.41029
 N154 N 0.81920 0.76705 0.42456
 C155 C 0.83494 0.84374 0.45744
 C156 C 0.87254 0.89137 0.47015
 C157 C 0.66570 0.62570 0.39710
 C158 C 0.62848 0.58262 0.38292
 C159 C 0.00526 0.21295 0.77650
 N160 N -0.04382 0.18397 0.75952
 N161 N -0.05633 0.22352 0.74531
 C162 C -0.02041 0.29327 0.74773
 N163 N 0.02861 0.32226 0.76474
 N164 N 0.04113 0.28271 0.77895
 C165 C 0.01889 0.17014 0.79166
 C166 C 0.02892 0.13311 0.80434
 C167 C -0.03097 0.33605 0.73153
 C168 C -0.03734 0.37240 0.71739
 C169 C 0.84540 0.03916 0.10620
 N170 N 0.84065 0.01781 0.08343
 N171 N 0.79630 0.02126 0.06873
 C172 C 0.75495 0.04566 0.07638
 N173 N 0.75983 0.06721 0.09913
 N174 N 0.80419 0.06377 0.11383
 C175 C 0.88762 0.02854 0.12263
 C176 C 0.91901 0.01516 0.13681
 C177 C 0.70555 0.04711 0.06074
 C178 C 0.66435 0.04828 0.04744
 C179 C 0.18990 0.14384 0.43840
 N180 N 0.25545 0.18675 0.44582
 N181 N 0.30286 0.23136 0.43095
 C182 C 0.28602 0.23479 0.40825
 N183 N 0.22054 0.19173 0.40081
 N184 N 0.17315 0.14713 0.41568
 C185 C 0.13724 0.10160 0.45505
 C186 C 0.09250 0.07035 0.46940
 C187 C 0.33627 0.28472 0.39247
 C188 C 0.37810 0.32650 0.37908
 C189 C -0.03532 0.81431 0.77289
 N190 N -0.05887 0.74885 0.78040
 N191 N -0.06188 0.70068 0.76560
 C192 C -0.04092 0.71665 0.74287
 N193 N -0.01758 0.78204 0.73533
 N194 N -0.01457 0.83020 0.75014
 C195 C -0.02497 0.86771 0.78944
 C196 C -0.01167 0.91306 0.80371
 C197 C -0.04180 0.66547 0.72712
 C198 C -0.04248 0.62280 0.71375
   
