data_POSCAR
  _audit_creation_date              2014-09-24
  _audit_creation_method            'ToBaCCo'
  _symmetry_space_group_name_H-M    'P1'
  _symmetry_Int_Tables_number       1
  _symmetry_cell_setting            triclinic
  loop_
  _symmetry_equiv_pos_as_xyz
 x,y,z
_cell_length_a 24.0634
_cell_length_b 23.9022
_cell_length_c 55.6686
_cell_angle_alpha 88.783600
_cell_angle_beta 93.929800
_cell_angle_gamma 124.025500
loop_
  _atom_site_label
  _atom_site_type_symbol
  _atom_site_fract_x
  _atom_site_fract_y
  _atom_site_fract_z
Si1 Si 0.02124 0.02524 0.51111
 Si2 Si 0.99459 -0.04692 0.15404
 Si3 Si -0.03809 0.97971 0.83512
 O4 O 0.58547 0.06925 -0.02873
 O5 O 0.48448 0.06951 0.01812
 O6 O 0.59494 0.07327 0.01832
 O7 O 0.48283 0.07840 -0.02845
 O8 O 0.41598 -0.03295 -0.02883
 O9 O 0.53415 -0.03812 0.01562
 O10 O 0.42342 -0.04184 0.01753
 O11 O 0.51954 -0.04197 -0.03097
 Cu12 Cu 0.54343 0.08367 -0.00500
 Cu13 Cu 0.46695 -0.04984 -0.00682
 C14 C 0.56960 0.01339 -0.03790
 C15 C 0.43623 0.01362 0.02573
 C16 C 0.58470 0.01709 0.02459
 C17 C 0.42943 0.02391 -0.03615
 O18 O 0.07369 0.59965 0.69965
 O19 O 0.06587 0.48485 0.65391
 O20 O 0.08419 0.60329 0.65331
 O21 O 0.07557 0.49156 0.70088
 O22 O -0.03532 0.43066 0.69675
 O23 O -0.02612 0.55051 0.65133
 O24 O -0.04438 0.43221 0.65002
 O25 O -0.03709 0.53938 0.69767
 Cu26 Cu 0.08569 0.55035 0.67724
 Cu27 Cu -0.04660 0.48270 0.67370
 C28 C 0.01899 0.58871 0.70648
 C29 C 0.00886 0.43896 0.64403
 C30 C 0.03115 0.59733 0.64448
 C31 C 0.01926 0.44131 0.70663
 O32 O 0.58172 0.53569 0.35444
 O33 O 0.45290 0.41486 0.30921
 O34 O 0.57332 0.52461 0.30749
 O35 O 0.46557 0.42105 0.35574
 O36 O 0.42068 0.48023 0.35469
 O37 O 0.52603 0.58149 0.30565
 O38 O 0.40642 0.47258 0.30772
 O39 O 0.53697 0.59499 0.35247
 Cu40 Cu 0.52327 0.46852 0.33184
 Cu41 Cu 0.46798 0.53819 0.33002
 C42 C 0.58139 0.58596 0.36126
 C43 C 0.40733 0.42284 0.30083
 C44 C 0.56763 0.57020 0.29811
 C45 C 0.42466 0.43290 0.36348
 C46 C 0.08335 0.17124 0.56292
 C47 C 0.03359 0.18538 0.56230
 C48 C -0.02514 0.14499 0.54674
 C49 C -0.03118 0.09531 0.53142
 C50 C 0.02043 0.08482 0.53173
 C51 C 0.07665 0.12199 0.54786
 C52 C -0.07713 0.15472 0.54654
 C53 C -0.07271 0.20292 0.56165
 C54 C -0.01496 0.24484 0.57723
 C55 C 0.03999 0.23750 0.57685
 C56 C 0.10014 0.28333 0.59068
 C57 C 0.10556 0.33255 0.60531
 C58 C 0.05130 0.33795 0.60700
 C59 C -0.00987 0.29429 0.59306
 C60 C -0.06370 0.30124 0.59598
 C61 C -0.05692 0.34888 0.61216
 C62 C 0.00368 0.39168 0.62585
 C63 C 0.05787 0.38646 0.62291
 H64 H 0.12778 0.19657 0.57505
 H65 H -0.07544 0.06547 0.51926
 H66 H 0.11658 0.11359 0.54861
 H67 H -0.12210 0.12432 0.53471
 H68 H -0.11514 0.20704 0.56029
 H69 H 0.14494 0.28358 0.59027
 H70 H 0.15270 0.36635 0.61566
 H71 H -0.11232 0.26957 0.58654
 H72 H -0.09978 0.35169 0.61410
 H73 H 0.10482 0.41890 0.63355
 C74 C 0.89770 0.78332 0.19660
 C75 C 0.83590 0.77538 0.20032
 C76 C 0.82087 0.81719 0.18709
 C77 C 0.86676 0.86600 0.17172
 C78 C 0.92899 0.87573 0.16932
 C79 C 0.94353 0.83309 0.18143
 C80 C 0.76115 0.81212 0.18986
 C81 C 0.71734 0.76925 0.20661
 C82 C 0.73154 0.72937 0.22134
 C83 C 0.78992 0.72975 0.21730
 C84 C 0.80071 0.68535 0.23064
 C85 C 0.75774 0.64421 0.24804
 C86 C 0.70316 0.64655 0.25324
 C87 C 0.68936 0.68935 0.24005
 C88 C 0.63507 0.69194 0.24670
 C89 C 0.59610 0.65330 0.26542
 C90 C 0.60936 0.61047 0.27817
 C91 C 0.66283 0.60701 0.27186
 H92 H 0.91341 0.75385 0.20584
 H93 H 0.85481 0.89876 0.16262
 H94 H 0.99138 0.83960 0.17986
 H95 H 0.74882 0.84296 0.17935
 H96 H 0.67236 0.76848 0.20748
 H97 H 0.84200 0.68091 0.22799
 H98 H 0.76826 0.61118 0.25791
 H99 H 0.62221 0.72458 0.23828
 H100 H 0.55531 0.65724 0.26993
 H101 H 0.67397 0.57445 0.28174
 C102 C 0.05214 -0.03554 -0.10408
 C103 C 0.12092 0.00192 -0.10865
 C104 C 0.14125 0.04420 -0.12893
 C105 C 0.09311 0.04280 -0.14527
 C106 C 0.02442 0.00060 -0.14146
 C107 C 0.00497 -0.03663 -0.12035
 C108 C 0.20919 0.08546 -0.13333
 C109 C 0.25747 0.08512 -0.11819
 C110 C 0.23933 0.04137 -0.09846
 C111 C 0.16967 -0.00234 -0.09408
 C112 C 0.15054 -0.05127 -0.07608
 C113 C 0.19773 -0.05684 -0.06256
 C114 C 0.26600 -0.01274 -0.06584
 C115 C 0.28817 0.03816 -0.08340
 C116 C 0.35842 0.08413 -0.08488
 C117 C 0.40407 0.07894 -0.06973
 C118 C 0.38142 0.02711 -0.05306
 C119 C 0.31233 -0.01888 -0.05135
 H120 H 0.03289 -0.06539 -0.08824
 H121 H 0.10920 0.07145 -0.16163
 H122 H -0.04735 -0.06958 -0.11665
 H123 H 0.22526 0.11813 -0.14875
 H124 H 0.30861 0.11778 -0.12310
 H125 H 0.09887 -0.08811 -0.07258
 H126 H 0.18051 -0.09588 -0.04919
 H127 H 0.37974 0.12587 -0.09701
 H128 H 0.45743 0.11569 -0.07106
 H129 H 0.29462 -0.05804 -0.03800
 C130 C -0.03507 0.88297 0.56296
 C131 C 0.01207 0.86532 0.56358
 C132 C 0.06876 0.90372 0.54964
 C133 C 0.07464 0.95437 0.53434
 C134 C 0.02492 0.96769 0.53310
 C135 C -0.02866 0.93297 0.54789
 C136 C 0.11853 0.89064 0.55087
 C137 C 0.11371 0.84075 0.56575
 C138 C 0.05755 0.80030 0.57956
 C139 C 0.00481 0.81127 0.57771
 C140 C -0.05437 0.76673 0.58953
 C141 C -0.06080 0.71516 0.60359
 C142 C -0.00843 0.70618 0.60676
 C143 C 0.05172 0.74864 0.59493
 C144 C 0.10391 0.73826 0.59945
 C145 C 0.09650 0.68845 0.61513
 C146 C 0.03680 0.64672 0.62664
 C147 C -0.01580 0.65532 0.62207
 H148 H -0.07733 0.85955 0.57400
 H149 H 0.11677 0.98210 0.52313
 H150 H -0.06710 0.94346 0.54740
 H151 H 0.16197 0.91957 0.54029
 H152 H 0.15427 0.83391 0.56553
 H153 H -0.09778 0.76920 0.58782
 H154 H -0.10719 0.68236 0.61232
 H155 H 0.15180 0.76895 0.59172
 H156 H 0.13814 0.68303 0.61843
 H157 H -0.06192 0.62384 0.63111
 C158 C 0.12482 0.04436 0.21387
 C159 C 0.14433 0.11220 0.21370
 C160 C 0.11288 0.13052 0.19572
 C161 C 0.06674 0.08319 0.17793
 C162 C 0.04939 0.01670 0.17827
 C163 C 0.07871 -0.00201 0.19636
 C164 C 0.12837 0.19615 0.19544
 C165 C 0.17401 0.24403 0.21270
 C166 C 0.20773 0.22868 0.23064
 C167 C 0.19413 0.16223 0.23064
 C168 C 0.23217 0.14844 0.24709
 C169 C 0.28094 0.19723 0.26327
 C170 C 0.29305 0.26133 0.26414
 C171 C 0.25595 0.27793 0.24822
 C172 C 0.26859 0.34305 0.25078
 C173 C 0.31709 0.38970 0.26797
 C174 C 0.35497 0.37338 0.28298
 C175 C 0.34242 0.30897 0.28097
 H176 H 0.14381 0.02503 0.22734
 H177 H 0.04631 0.09896 0.16351
 H178 H 0.06716 -0.05266 0.19682
 H179 H 0.10467 0.21063 0.18176
 H180 H 0.18334 0.29354 0.21104
 H181 H 0.22704 0.10073 0.24751
 H182 H 0.30937 0.18443 0.27534
 H183 H 0.24119 0.35920 0.24007
 H184 H 0.32546 0.43905 0.26933
 H185 H 0.37067 0.29544 0.29282
 C186 C 0.78885 -0.10180 -0.12724
 C187 C 0.78357 -0.04605 -0.12437
 C188 C 0.83006 0.01460 -0.13585
 C189 C 0.87993 0.01922 -0.14898
 C190 C 0.88581 -0.03543 -0.15109
 C191 C 0.83950 -0.09619 -0.14031
 C192 C 0.82818 0.07144 -0.13370
 C193 C 0.78327 0.07099 -0.11932
 C194 C 0.73798 0.01323 -0.10644
 C195 C 0.73587 -0.04724 -0.10986
 C196 C 0.68672 -0.10637 -0.09847
 C197 C 0.64310 -0.10589 -0.08346
 C198 C 0.64740 -0.04639 -0.07880
 C199 C 0.69498 0.01413 -0.09015
 C200 C 0.69901 0.07365 -0.08406
 C201 C 0.65778 0.07283 -0.06744
 C202 C 0.61069 0.01290 -0.05640
 C203 C 0.60521 -0.04680 -0.06241
 H204 H 0.75628 -0.14961 -0.11892
 H205 H 0.91604 0.06710 -0.15674
 H206 H 0.84404 -0.13865 -0.14109
 H207 H 0.86287 0.11749 -0.14289
 H208 H 0.78524 0.11707 -0.11882
 H209 H 0.68039 -0.15425 -0.10089
 H210 H 0.60645 -0.15246 -0.07499
 H211 H 0.73482 0.12227 -0.09122
 H212 H 0.66330 0.11973 -0.06308
 H213 H 0.56942 -0.09344 -0.05376
 C214 C 0.09205 -0.11559 0.11779
 C215 C 0.15002 -0.05484 0.11018
 C216 C 0.15911 0.00680 0.11688
 C217 C 0.11180 0.00706 0.13005
 C218 C 0.05521 -0.05311 0.13732
 C219 C 0.04540 -0.11446 0.13117
 C220 C 0.21507 0.06824 0.11029
 C221 C 0.26263 0.07050 0.09689
 C222 C 0.25596 0.01093 0.08928
 C223 C 0.19868 -0.05286 0.09599
 C224 C 0.19151 -0.11235 0.08796
 C225 C 0.23759 -0.10990 0.07348
 C226 C 0.29313 -0.04829 0.06660
 C227 C 0.30395 0.01309 0.07472
 C228 C 0.36211 0.07414 0.06762
 C229 C 0.40552 0.07392 0.05232
 C230 C 0.39316 0.01317 0.04364
 C231 C 0.33741 -0.04786 0.05125
 H232 H 0.08102 -0.16477 0.11367
 H233 H 0.11907 0.05473 0.13463
 H234 H 0.00113 -0.16162 0.13628
 H235 H 0.22212 0.11540 0.11547
 H236 H 0.30370 0.12026 0.09248
 H237 H 0.15002 -0.16206 0.09224
 H238 H 0.22931 -0.15700 0.06744
 H239 H 0.37564 0.12320 0.07335
 H240 H 0.44851 0.12186 0.04696
 H241 H 0.32747 -0.09534 0.04481
 C242 C 0.86358 0.94823 0.45794
 C243 C 0.84232 0.87980 0.45531
 C244 C 0.87528 0.85747 0.47067
 C245 C 0.92613 0.90125 0.48779
 C246 C 0.94649 0.96838 0.49021
 C247 C 0.91547 0.99191 0.47503
 C248 C 0.85848 0.79169 0.46874
 C249 C 0.81089 0.74741 0.45129
 C250 C 0.77748 0.76703 0.43504
 C251 C 0.79118 0.83325 0.43771
 C252 C 0.75291 0.85017 0.42286
 C253 C 0.70389 0.80454 0.40573
 C254 C 0.69232 0.74106 0.40219
 C255 C 0.72994 0.72196 0.41647
 C256 C 0.71930 0.65878 0.41125
 C257 C 0.67172 0.61568 0.39329
 C258 C 0.63280 0.63352 0.37984
 C259 C 0.64353 0.69657 0.38434
 H260 H 0.84261 0.97002 0.44660
 H261 H 0.95154 0.88286 0.49864
 H262 H 0.93218 1.04435 0.47605
 H263 H 0.88303 0.77431 0.48074
 H264 H 0.80047 0.69735 0.45138
 H265 H 0.75878 0.89809 0.42439
 H266 H 0.67527 0.81952 0.39491
 H267 H 0.74786 0.64150 0.42032
 H268 H 0.66513 0.56771 0.39006
 H269 H 0.61447 0.71143 0.37375
 C270 C -0.05983 0.06497 0.77562
 C271 C -0.01946 0.13499 0.78097
 C272 C 0.02497 0.15731 0.80200
 C273 C 0.02383 0.11036 0.81804
 C274 C -0.02011 0.04092 0.81312
 C275 C -0.06051 0.01902 0.79156
 C276 C 0.06854 0.22621 0.80728
 C277 C 0.06911 0.27362 0.79219
 C278 C 0.02418 0.25379 0.77151
 C279 C -0.02245 0.18324 0.76634
 C280 C -0.07237 0.16307 0.74731
 C281 C -0.07558 0.21005 0.73335
 C282 C -0.02827 0.27894 0.73727
 C283 C 0.02310 0.30201 0.75611
 C284 C 0.07201 0.37241 0.75839
 C285 C 0.06970 0.41736 0.74260
 C286 C 0.01803 0.39409 0.72440
 C287 C -0.03137 0.32489 0.72205
 H288 H -0.09196 0.04384 0.75935
 H289 H 0.05409 0.12805 0.83495
 H290 H -0.09521 -0.03434 0.78728
 H291 H 0.10262 0.24376 0.82331
 H292 H 0.10381 0.32568 0.79776
 H293 H -0.11143 0.11097 0.74319
 H294 H -0.11515 0.19210 0.71908
 H295 H 0.11406 0.39422 0.77160
 H296 H 0.10891 0.47073 0.74454
 H297 H -0.07062 0.30652 0.70762
 C298 C 0.88727 -0.05362 0.09222
 C299 C 0.85647 -0.02053 0.09848
 C300 C 0.87735 0.01466 0.12096
 C301 C 0.92230 0.01081 0.13732
 C302 C 0.94923 -0.02548 0.13122
 C303 C 0.93241 -0.05629 0.10843
 C304 C 0.85159 0.05163 0.12729
 C305 C 0.80560 0.05468 0.11176
 C306 C 0.78127 0.01834 0.08961
 C307 C 0.80516 -0.02203 0.08335
 C308 C 0.77487 -0.06496 0.06278
 C309 C 0.72388 -0.06753 0.04852
 C310 C 0.70262 -0.02579 0.05361
 C311 C 0.73218 0.01916 0.07384
 C312 C 0.71204 0.06382 0.07714
 C313 C 0.66398 0.06279 0.06121
 C314 C 0.63329 0.01631 0.04192
 C315 C 0.65243 -0.02819 0.03832
 H316 H 0.87743 -0.07813 0.07495
 H317 H 0.93309 0.03279 0.15523
 H318 H 0.95219 -0.08503 0.10333
 H319 H 0.86725 0.07865 0.14444
 H320 H 0.78766 0.08372 0.11814
 H321 H 0.78766 -0.09946 0.05769
 H322 H 0.70140 -0.10206 0.03312
 H323 H 0.73408 0.10163 0.09136
 H324 H 0.65053 0.09839 0.06402
 H325 H 0.62999 -0.06300 0.02298
 C326 C 0.16605 0.09136 0.46119
 C327 C 0.19052 0.16065 0.45856
 C328 C 0.16479 0.18746 0.47334
 C329 C 0.11721 0.14684 0.48978
 C330 C 0.09302 0.07859 0.49196
 C331 C 0.11749 0.05097 0.47753
 C332 C 0.18520 0.25447 0.47134
 C333 C 0.22875 0.29542 0.45423
 C334 C 0.25433 0.27104 0.43844
 C335 C 0.23763 0.20367 0.44139
 C336 C 0.26870 0.18195 0.42712
 C337 C 0.31294 0.22374 0.41010
 C338 C 0.32656 0.28802 0.40609
 C339 C 0.29664 0.31223 0.41994
 C340 C 0.30893 0.37613 0.41425
 C341 C 0.35025 0.41465 0.39600
 C342 C 0.38122 0.39142 0.38285
 C343 C 0.36933 0.32801 0.38806
 H344 H 0.18158 0.06634 0.45031
 H345 H 0.09697 0.16852 0.50012
 H346 H 0.09786 -0.00226 0.47845
 H347 H 0.16639 0.27535 0.48292
 H348 H 0.24230 0.34666 0.45414
 H349 H 0.26066 0.13302 0.42898
 H350 H 0.33585 0.20500 0.39964
 H351 H 0.28600 0.39724 0.42307
 H352 H 0.35807 0.46314 0.39222
 H353 H 0.39219 0.30903 0.37768
 C354 C -0.10590 0.79758 0.79969
 C355 C -0.04601 0.80890 0.79124
 C356 C 0.01468 0.87214 0.79697
 C357 C 0.01474 0.92146 0.81003
 C358 C -0.04440 0.90937 0.81838
 C359 C -0.10485 0.84734 0.81305
 C360 C 0.07538 0.88663 0.78949
 C361 C 0.07776 0.83988 0.77619
 C362 C 0.01901 0.77636 0.76955
 C363 C -0.04403 0.76061 0.77709
 C364 C -0.10289 0.69773 0.76988
 C365 C -0.10071 0.65245 0.75540
 C366 C -0.03989 0.66731 0.74777
 C367 C 0.02108 0.72874 0.75510
 C368 C 0.08152 0.74011 0.74737
 C369 C 0.08080 0.69397 0.73217
 C370 C 0.02016 0.63476 0.72422
 C371 C -0.03995 0.62124 0.73249
 H372 H -0.15436 0.75111 0.79626
 H373 H 0.06155 0.97007 0.81350
 H374 H -0.15155 0.83759 0.81869
 H375 H 0.12185 0.93504 0.79393
 H376 H 0.12681 0.85596 0.77103
 H377 H -0.15201 0.68222 0.77479
 H378 H -0.14743 0.60529 0.74998
 H379 H 0.13042 0.78422 0.75257
 H380 H 0.12805 0.70546 0.72629
 H381 H -0.08729 0.57515 0.72669
   
