data_POSCAR
  _audit_creation_date              2014-09-24
  _audit_creation_method            'ToBaCCo'
  _symmetry_space_group_name_H-M    'P1'
  _symmetry_Int_Tables_number       1
  _symmetry_cell_setting            triclinic
  loop_
  _symmetry_equiv_pos_as_xyz
 x,y,z
_cell_length_a 47.7921
_cell_length_b 45.9971
_cell_length_c 7.0702
_cell_angle_alpha 89.671400
_cell_angle_beta 89.906500
_cell_angle_gamma 90.002000
loop_
  _atom_site_label
  _atom_site_type_symbol
  _atom_site_fract_x
  _atom_site_fract_y
  _atom_site_fract_z
C1 C 0.33773 0.26435 0.29343
 C2 C 0.33796 0.23460 0.28381
 C3 C 0.31023 0.22576 0.27272
 N4 N 0.29322 0.24923 0.27452
 C5 C 0.30990 0.27287 0.28640
 C6 C 0.30122 0.19645 0.26877
 C7 C 0.27282 0.18747 0.26550
 C8 C 0.26395 0.15910 0.29713
 C9 C 0.23532 0.15913 0.28327
 C10 C 0.22723 0.18749 0.24280
 N11 N 0.25029 0.20455 0.22995
 C12 C 0.19910 0.19642 0.21529
 C13 C 0.19011 0.22570 0.20339
 C14 C 0.16258 0.23445 0.17666
 C15 C 0.16239 0.26420 0.18632
 C16 C 0.18983 0.27280 0.21706
 N17 N 0.20663 0.24921 0.22744
 C18 C 0.19867 0.30203 0.23254
 C19 C 0.22687 0.31120 0.24957
 C20 C 0.23545 0.34000 0.23973
 C21 C 0.26410 0.34001 0.25343
 C22 C 0.27244 0.31123 0.27242
 N23 N 0.24954 0.29388 0.27300
 C24 C 0.30070 0.30211 0.28635
 H25 H 0.35602 0.27812 0.30400
 H26 H 0.35646 0.22101 0.28654
 H27 H 0.24930 0.27174 0.29794
 H28 H 0.27677 0.14031 0.32911
 H29 H 0.22194 0.14033 0.30191
 H30 H 0.14443 0.22080 0.15431
 H31 H 0.14412 0.27792 0.17164
 H32 H 0.27730 0.35912 0.24724
 H33 H 0.25082 0.22592 0.18305
 H34 H 0.22247 0.35909 0.22093
 C35 C 0.83845 0.26526 0.20228
 C36 C 0.83825 0.23551 0.19186
 C37 C 0.81051 0.22690 0.20724
 N38 N 0.79385 0.25046 0.22475
 C39 C 0.81077 0.27399 0.22180
 C40 C 0.80142 0.19765 0.21221
 C41 C 0.77324 0.18854 0.23176
 C42 C 0.76507 0.15989 0.26099
 C43 C 0.73642 0.15984 0.27466
 C44 C 0.72768 0.18845 0.25425
 N45 N 0.75025 0.20573 0.22486
 C46 C 0.69939 0.19750 0.26491
 C47 C 0.69040 0.22672 0.27574
 C48 C 0.66277 0.23534 0.29717
 C49 C 0.66291 0.26509 0.30736
 C50 C 0.69061 0.27377 0.29018
 N51 N 0.70729 0.25026 0.27168
 C52 C 0.69964 0.30302 0.28332
 C53 C 0.72779 0.31214 0.26157
 C54 C 0.73586 0.34074 0.22993
 C55 C 0.76451 0.34087 0.21649
 C56 C 0.77338 0.31230 0.23924
 N57 N 0.75083 0.29502 0.26944
 C58 C 0.80176 0.30329 0.23083
 H59 H 0.85688 0.27891 0.19495
 H60 H 0.85650 0.22181 0.17560
 H61 H 0.75129 0.27326 0.30714
 H62 H 0.77839 0.14095 0.27364
 H63 H 0.72353 0.14086 0.30014
 H64 H 0.64438 0.22165 0.30524
 H65 H 0.64463 0.27876 0.32378
 H66 H 0.77733 0.35987 0.18987
 H67 H 0.74987 0.22755 0.18860
 H68 H 0.72249 0.35961 0.21592
 C69 C 0.66262 0.73512 0.70662
 C70 C 0.66277 0.76490 0.69718
 C71 C 0.69050 0.77352 0.71183
 N72 N 0.70719 0.74994 0.72844
 C73 C 0.69028 0.72642 0.72532
 C74 C 0.69959 0.80276 0.71679
 C75 C 0.72780 0.81176 0.73605
 C76 C 0.73601 0.84033 0.76524
 C77 C 0.76467 0.84030 0.77842
 C78 C 0.77336 0.81170 0.75778
 N79 N 0.75076 0.79453 0.72882
 C80 C 0.80164 0.80257 0.76794
 C81 C 0.81062 0.77330 0.77792
 C82 C 0.83825 0.76467 0.79951
 C83 C 0.83814 0.73490 0.80889
 C84 C 0.81045 0.72618 0.79114
 N85 N 0.79377 0.74974 0.77295
 C86 C 0.80140 0.69688 0.78401
 C87 C 0.77315 0.68791 0.76264
 C88 C 0.76488 0.65942 0.73021
 C89 C 0.73623 0.65951 0.71695
 C90 C 0.72757 0.68804 0.74079
 N91 N 0.75019 0.70513 0.77145
 C92 C 0.69928 0.69717 0.73309
 H93 H 0.64422 0.72145 0.69885
 H94 H 0.64450 0.77861 0.68213
 H95 H 0.74979 0.72678 0.81034
 H96 H 0.72273 0.85928 0.77785
 H97 H 0.77759 0.85921 0.80360
 H98 H 0.85661 0.77837 0.80853
 H99 H 0.85643 0.72123 0.82552
 H100 H 0.72330 0.64067 0.68987
 H101 H 0.75115 0.77277 0.69283
 H102 H 0.77813 0.64047 0.71566
 C103 C 0.16118 0.76467 0.79744
 C104 C 0.16127 0.73491 0.80634
 C105 C 0.18901 0.72621 0.79149
 N106 N 0.20575 0.74979 0.77557
 C107 C 0.18888 0.77336 0.77909
 C108 C 0.19806 0.69689 0.78571
 C109 C 0.22631 0.68785 0.76575
 C110 C 0.23459 0.65927 0.73649
 C111 C 0.26324 0.65932 0.72274
 C112 C 0.27190 0.68792 0.74305
 N113 N 0.24928 0.70508 0.77222
 C114 C 0.30017 0.69703 0.73251
 C115 C 0.30918 0.72628 0.72259
 C116 C 0.33680 0.73493 0.69984
 C117 C 0.33670 0.76471 0.69118
 C118 C 0.30904 0.77336 0.71029
 N119 N 0.29234 0.74982 0.72888
 C120 C 0.30004 0.80259 0.71844
 C121 C 0.27190 0.81161 0.74132
 C122 C 0.26386 0.84011 0.77535
 C123 C 0.23521 0.84017 0.78936
 C124 C 0.22633 0.81168 0.76433
 N125 N 0.24886 0.79451 0.73218
 C126 C 0.19795 0.80267 0.77184
 H127 H 0.14279 0.77835 0.80503
 H128 H 0.14294 0.72124 0.82099
 H129 H 0.24836 0.77294 0.69140
 H130 H 0.22134 0.64029 0.72422
 H131 H 0.27617 0.64041 0.69743
 H132 H 0.35514 0.72123 0.68937
 H133 H 0.35498 0.77840 0.67406
 H134 H 0.22239 0.85908 0.81718
 H135 H 0.24965 0.72686 0.80767
 H136 H 0.27724 0.85895 0.79028
 O137 O 0.97333 0.01818 0.20722
 O138 O 1.02799 -0.03438 0.07571
 O139 O 1.02819 0.01824 0.20676
 O140 O 0.97361 -0.03437 0.07506
 O141 O 0.97349 -0.01792 -0.21920
 O142 O 1.02805 0.03467 -0.08758
 O143 O 1.02829 -0.01795 -0.21865
 O144 O 0.97364 0.03463 -0.08711
 Cu145 Cu 1.00077 -0.00990 0.16988
 Cu146 Cu 1.00087 0.01020 -0.18194
 C147 C 0.96418 0.03531 0.08024
 C148 C 1.03742 -0.03509 -0.09169
 C149 C 1.03742 0.03536 0.07976
 C150 C 0.96429 -0.03508 -0.09247
 O151 O 0.47244 0.48197 0.29231
 O152 O 0.52711 0.53446 0.42433
 O153 O 0.52729 0.48191 0.29276
 O154 O 0.47273 0.53454 0.42460
 O155 O 0.47243 0.51805 0.71880
 O156 O 0.52700 0.46541 0.58699
 O157 O 0.52724 0.51796 0.71848
 O158 O 0.47258 0.46547 0.58651
 Cu159 Cu 0.49990 0.51006 0.32981
 Cu160 Cu 0.49980 0.48988 0.68149
 C161 C 0.46321 0.46482 0.41909
 C162 C 0.53647 0.53509 0.59170
 C163 C 0.53644 0.46476 0.41955
 C164 C 0.46330 0.53522 0.59202
 O165 O -0.02744 0.53471 0.08450
 O166 O 0.02712 0.48199 0.21886
 O167 O 0.02701 0.53462 0.08473
 O168 O -0.02770 0.48205 0.21956
 O169 O -0.02742 0.46578 -0.07390
 O170 O 0.02728 0.51837 -0.20882
 O171 O 0.02695 0.46572 -0.07460
 O172 O -0.02761 0.51845 -0.20901
 Cu173 Cu -0.00026 0.51018 0.18050
 Cu174 Cu -0.00020 0.49026 -0.17017
 C175 C -0.03682 0.53553 -0.08293
 C176 C 0.03630 0.46492 0.09284
 C177 C 0.03647 0.53540 -0.08266
 C178 C -0.03686 0.46498 0.09354
 O179 O 0.47237 1.03451 0.57382
 O180 O 0.52709 0.98197 0.70856
 O181 O 0.52680 1.03459 0.57336
 O182 O 0.47223 0.98188 0.70844
 O183 O 0.47254 0.96556 0.41506
 O184 O 0.52711 1.01827 0.28001
 O185 O 0.52696 0.96564 0.41522
 O186 O 0.47225 1.01818 0.28051
 Cu187 Cu 0.49961 1.01006 0.66946
 Cu188 Cu 0.49972 0.99008 0.31897
 C189 C 0.46300 1.03525 0.40640
 C190 C 0.53635 0.96490 0.58259
 C191 C 0.53626 1.03536 0.40596
 C192 C 0.46310 0.96479 0.58246
 C193 C 1.10813 0.11574 0.00446
 C194 C 1.10838 0.14140 0.14507
 C195 C 1.13915 0.13467 0.18976
 C196 C 1.13922 0.10934 0.04930
 C197 C 1.09946 0.09526 0.16683
 C198 C 1.13025 0.08852 0.21142
 C199 C 1.09938 0.12061 0.30731
 C200 C 1.13053 0.11423 0.35237
 C201 C 1.16109 0.15678 0.20034
 C202 C 1.17896 0.17522 0.20759
 C203 C 1.07729 0.07351 0.14757
 C204 C 1.05903 0.05589 0.12266
 H205 H 1.09871 0.11615 -0.13897
 H206 H 1.09968 0.16339 0.11716
 H207 H 1.15577 0.10502 -0.05734
 H208 H 1.13899 0.06654 0.23863
 H209 H 1.08278 0.12502 0.41330
 H210 H 1.13996 0.11384 0.49582
 C211 C 0.61304 0.60915 0.50971
 C212 C 0.60988 0.63907 0.60630
 C213 C 0.63818 0.63424 0.70426
 C214 C 0.64166 0.60463 0.60768
 C215 C 0.59856 0.59478 0.68054
 C216 C 0.62686 0.58992 0.77847
 C217 C 0.59506 0.62440 0.77676
 C218 C 0.62371 0.61992 0.87526
 C219 C 0.66008 0.65639 0.71543
 C220 C 0.67795 0.67481 0.72365
 C221 C 0.57639 0.57309 0.66024
 C222 C 0.55812 0.55554 0.63479
 H223 H 0.60834 0.60448 0.35920
 H224 H 0.60314 0.65950 0.53570
 H225 H 0.66095 0.59681 0.53643
 H226 H 0.63354 0.56951 0.84985
 H227 H 0.57557 0.63225 0.84505
 H228 H 0.62840 0.62461 1.02572
 C229 C -0.09594 0.37580 0.28652
 C230 C -0.12523 0.38045 0.37582
 C231 C -0.13848 0.36533 0.20458
 C232 C -0.10955 0.36035 0.11563
 C233 C -0.09897 0.40500 0.18205
 C234 C -0.11226 0.38986 0.01091
 C235 C -0.12791 0.41003 0.27098
 C236 C -0.14152 0.39453 0.10005
 C237 C -0.16030 0.34304 0.21514
 C238 C -0.17810 0.32451 0.22263
 C239 C -0.07680 0.42681 0.16262
 C240 C -0.05852 0.44445 0.13731
 H241 H -0.07690 0.36831 0.36225
 H242 H -0.13088 0.37635 0.52603
 H243 H -0.10225 0.33969 0.05183
 H244 H -0.10668 0.39403 -0.13931
 H245 H -0.13524 0.43066 0.33521
 H246 H -0.16043 0.40184 0.02213
 C247 C 0.40309 0.87665 0.78880
 C248 C 0.37309 0.88216 0.86417
 C249 C 0.36128 0.86548 0.69436
 C250 C 0.39091 0.85964 0.61915
 C251 C 0.40107 0.90482 0.67173
 C252 C 0.38920 0.88813 0.50215
 C253 C 0.37145 0.91070 0.74689
 C254 C 0.35926 0.89365 0.57777
 C255 C 0.33930 0.84337 0.70461
 C256 C 0.32139 0.82496 0.71125
 C257 C 0.42326 0.92658 0.65213
 C258 C 0.44151 0.94423 0.62650
 H259 H 0.42140 0.86986 0.87471
 H260 H 0.36619 0.87959 1.01339
 H261 H 0.39855 0.83839 0.56625
 H262 H 0.39605 0.89095 0.35307
 H263 H 0.36368 0.93189 0.79998
 H264 H 0.34114 0.90035 0.48965
 C265 C -0.09577 0.62513 -0.27028
 C266 C -0.12470 0.62062 -0.36463
 C267 C -0.13867 0.63500 -0.19309
 C268 C -0.11011 0.63986 -0.09927
 C269 C -0.09897 0.59553 -0.17078
 C270 C -0.11298 0.60998 0.00062
 C271 C -0.12755 0.59066 -0.26472
 C272 C -0.14188 0.60543 -0.09336
 C273 C -0.16058 0.65718 -0.20306
 C274 C -0.17844 0.67566 -0.20945
 C275 C -0.07675 0.57374 -0.15179
 C276 C -0.05846 0.55610 -0.12659
 H277 H -0.07654 0.63308 -0.34189
 H278 H -0.12978 0.62526 -0.51507
 H279 H -0.10329 0.66035 -0.03101
 H280 H -0.10789 0.60540 0.15100
 H281 H -0.13453 0.57023 -0.33277
 H282 H -0.16102 0.59770 -0.01931
 C283 C 0.40431 1.12496 0.22333
 C284 C 0.37576 1.12077 0.12330
 C285 C 0.36111 1.13450 0.29467
 C286 C 0.38931 1.13904 0.39400
 C287 C 0.40078 1.09502 0.31748
 C288 C 0.38613 1.10880 0.48867
 C289 C 0.37258 1.09045 0.21796
 C290 C 0.35760 1.10457 0.38922
 C291 C 0.33922 1.15673 0.28442
 C292 C 0.32138 1.17523 0.27708
 C293 C 0.42300 1.07329 0.33696
 C294 C 0.44131 1.05571 0.36247
 H295 H 0.42382 1.13308 0.15596
 H296 H 0.37125 1.12595 -0.02719
 H297 H 0.39594 1.15927 0.46612
 H298 H 0.39065 1.10373 0.63935
 H299 H 0.36596 1.07025 0.14534
 H300 H 0.33822 1.09644 0.45825
 C301 C 1.11357 -0.10952 -0.00733
 C302 C 1.11010 -0.13957 -0.10174
 C303 C 1.13841 -0.13520 -0.20091
 C304 C 1.14221 -0.10546 -0.10668
 C305 C 1.09919 -0.09529 -0.17878
 C306 C 1.12751 -0.09089 -0.27804
 C307 C 1.09539 -0.12504 -0.27287
 C308 C 1.12406 -0.12102 -0.37251
 C309 C 1.16010 -0.15756 -0.21150
 C310 C 1.17785 -0.17611 -0.21927
 C311 C 1.07718 -0.07336 -0.15958
 C312 C 1.05900 -0.05566 -0.13456
 H313 H 1.10895 -0.10455 0.14292
 H314 H 1.10321 -0.15983 -0.02941
 H315 H 1.16166 -0.09779 -0.03722
 H316 H 1.13444 -0.07068 -0.35075
 H317 H 1.07585 -0.13283 -0.34031
 H318 H 1.12869 -0.12602 -0.52276
 C319 C 0.59545 0.37560 0.23050
 C320 C 0.62445 0.38047 0.13699
 C321 C 0.63831 0.36569 0.30834
 C322 C 0.60968 0.36046 0.40132
 C323 C 0.59848 0.40492 0.33117
 C324 C 0.61236 0.39009 0.50228
 C325 C 0.62712 0.41017 0.23809
 C326 C 0.64133 0.39501 0.40918
 C327 C 0.66033 0.34368 0.29794
 C328 C 0.67827 0.32534 0.29092
 C329 C 0.57629 0.42663 0.35079
 C330 C 0.55804 0.44424 0.37626
 H331 H 0.57630 0.36788 0.15785
 H332 H 0.62972 0.37622 -0.01333
 H333 H 0.60282 0.33977 0.46846
 H334 H 0.60706 0.39423 0.65264
 H335 H 0.63402 0.43080 0.17053
 H336 H 0.66036 0.40268 0.48375
 C337 C 0.87400 -0.09013 -0.27749
 C338 C 0.87711 -0.12009 -0.37477
 C339 C 0.86270 -0.13447 -0.20372
 C340 C 0.85926 -0.10489 -0.10661
 C341 C 0.90233 -0.09501 -0.17996
 C342 C 0.88791 -0.10944 -0.00908
 C343 C 0.90580 -0.12460 -0.27668
 C344 C 0.89103 -0.13933 -0.10631
 C345 C 0.84081 -0.15663 -0.21476
 C346 C 0.82295 -0.17506 -0.22272
 C347 C 0.92449 -0.07326 -0.16065
 C348 C 0.94272 -0.05563 -0.13559
 H349 H 0.86727 -0.06967 -0.34798
 H350 H 0.87240 -0.12471 -0.52540
 H351 H 0.83996 -0.09707 -0.03555
 H352 H 0.89263 -0.10490 0.14172
 H353 H 0.92525 -0.13245 -0.34542
 H354 H 0.89776 -0.15981 -0.03619
 C355 C 0.40442 0.37553 0.23199
 C356 C 0.39026 0.36028 0.40285
 C357 C 0.36162 0.36528 0.31018
 C358 C 0.37541 0.38018 0.13877
 C359 C 0.40118 0.40484 0.33274
 C360 C 0.37252 0.40985 0.23990
 C361 C 0.38735 0.38988 0.50411
 C362 C 0.35837 0.39456 0.41120
 C363 C 0.33979 0.34304 0.30026
 C364 C 0.32198 0.32454 0.29367
 C365 C 0.42333 0.42665 0.35125
 C366 C 0.44159 0.44429 0.37598
 H367 H 0.42364 0.36787 0.15940
 H368 H 0.39724 0.33961 0.46953
 H369 H 0.37022 0.37595 -0.01166
 H370 H 0.36542 0.43047 0.17329
 H371 H 0.39255 0.39406 0.65452
 H372 H 0.33921 0.40204 0.48540
 C373 C 0.09534 0.62498 -0.27138
 C374 C 0.10936 0.63992 -0.10020
 C375 C 0.13809 0.63505 -0.19218
 C376 C 0.12444 0.62045 -0.36392
 C377 C 0.09847 0.59550 -0.17048
 C378 C 0.12721 0.59060 -0.26253
 C379 C 0.11214 0.61015 0.00100
 C380 C 0.14120 0.60558 -0.09112
 C381 C 0.16000 0.65724 -0.20156
 C382 C 0.17787 0.67570 -0.20773
 C383 C 0.07634 0.57365 -0.15153
 C384 C 0.05810 0.55596 -0.12640
 H385 H 0.07617 0.63272 -0.34439
 H386 H 0.10232 0.66047 -0.03369
 H387 H 0.12977 0.62497 -0.51416
 H388 H 0.13430 0.57008 -0.32916
 H389 H 0.10679 0.60572 0.15130
 H390 H 0.16024 0.59787 -0.01642
 C391 C 0.61332 1.10881 0.48749
 C392 C 0.64178 1.10458 0.38642
 C393 C 0.63824 1.13457 0.29286
 C394 C 0.61011 1.13910 0.39368
 C395 C 0.59854 1.09514 0.31670
 C396 C 0.59500 1.12514 0.22324
 C397 C 0.62668 1.09058 0.21573
 C398 C 0.62350 1.12095 0.12190
 C399 C 0.66019 1.15669 0.28180
 C400 C 0.67808 1.17510 0.27397
 C401 C 0.57628 1.07344 0.33659
 C402 C 0.55794 1.05587 0.36218
 H403 H 0.60886 1.10359 0.63801
 H404 H 0.66121 1.09649 0.45466
 H405 H 0.60358 1.15931 0.46647
 H406 H 0.57549 1.13339 0.15730
 H407 H 0.63327 1.07044 0.14225
 H408 H 0.62797 1.12620 -0.02862
 C409 C 0.11252 0.39076 0.01103
 C410 C 0.14116 0.39493 0.10913
 C411 C 0.13758 0.36507 0.20469
 C412 C 0.10926 0.36061 0.10662
 C413 C 0.09809 0.40474 0.18239
 C414 C 0.09449 0.37489 0.27765
 C415 C 0.12641 0.40925 0.28045
 C416 C 0.12317 0.37901 0.37624
 C417 C 0.15943 0.34283 0.21497
 C418 C 0.17730 0.32438 0.22286
 C419 C 0.07603 0.42661 0.16246
 C420 C 0.05785 0.44432 0.13678
 H421 H 0.10787 0.39582 -0.13943
 H422 H 0.16050 0.40290 0.03860
 H423 H 0.10243 0.34040 0.03504
 H424 H 0.07502 0.36695 0.34643
 H425 H 0.13314 0.42946 0.35244
 H426 H 0.12782 0.37392 0.52660
 C427 C 0.61238 0.89040 0.50011
 C428 C 0.64140 0.89512 0.59191
 C429 C 0.63837 0.86569 0.69354
 C430 C 0.60968 0.86066 0.60188
 C431 C 0.59860 0.90507 0.67151
 C432 C 0.59557 0.87562 0.77305
 C433 C 0.62731 0.91012 0.76322
 C434 C 0.62463 0.88030 0.86515
 C435 C 0.66035 0.84357 0.70330
 C436 C 0.67826 0.82516 0.70979
 C437 C 0.57635 0.92681 0.65209
 C438 C 0.55803 0.94440 0.62655
 H439 H 0.60704 0.89480 0.34998
 H440 H 0.66042 0.90275 0.51595
 H441 H 0.60274 0.84008 0.53541
 H442 H 0.57643 0.86778 0.84625
 H443 H 0.63432 0.93065 0.82991
 H444 H 0.62995 0.87589 1.01542
 C445 C 0.90521 0.12442 0.26821
 C446 C 0.89122 0.13979 0.09738
 C447 C 0.86248 0.13463 0.18902
 C448 C 0.87610 0.11960 0.36029
 C449 C 0.90214 0.09521 0.16616
 C450 C 0.87339 0.09002 0.25771
 C451 C 0.88850 0.11028 -0.00499
 C452 C 0.85942 0.10544 0.08674
 C453 C 0.84059 0.15681 0.19887
 C454 C 0.82274 0.17526 0.20526
 C455 C 0.92431 0.07345 0.14755
 C456 C 0.94256 0.05582 0.12307
 H457 H 0.92436 0.13200 0.34164
 H458 H 0.89828 0.16053 0.03192
 H459 H 0.87071 0.12364 0.51073
 H460 H 0.86634 0.06930 0.32357
 H461 H 0.89386 0.10628 -0.15556
 H462 H 0.84040 0.09791 0.01132
 C463 C 0.37279 0.58993 0.77821
 C464 C 0.37583 0.61996 0.87450
 C465 C 0.36132 0.63417 0.70365
 C466 C 0.35794 0.60452 0.60746
 C467 C 0.40107 0.59487 0.67948
 C468 C 0.38655 0.60912 0.50867
 C469 C 0.40446 0.62453 0.77528
 C470 C 0.38959 0.63908 0.60501
 C471 C 0.33937 0.65627 0.71487
 C472 C 0.32149 0.67467 0.72300
 C473 C 0.42334 0.57323 0.65989
 C474 C 0.44166 0.55570 0.63493
 H475 H 0.36616 0.56950 0.84958
 H476 H 0.37112 0.62464 1.02513
 H477 H 0.33863 0.59663 0.53718
 H478 H 0.39126 0.60447 0.35799
 H479 H 0.42391 0.63252 0.84299
 H480 H 0.39625 0.65953 0.53406
   
