data_POSCAR
  _audit_creation_date              2014-09-24
  _audit_creation_method            'ToBaCCo'
  _symmetry_space_group_name_H-M    'P1'
  _symmetry_Int_Tables_number       1
  _symmetry_cell_setting            triclinic
  loop_
  _symmetry_equiv_pos_as_xyz
 x,y,z
_cell_length_a 47.1454
_cell_length_b 44.1522
_cell_length_c 42.3465
_cell_angle_alpha 89.849400
_cell_angle_beta 90.088800
_cell_angle_gamma 90.248600
loop_
  _atom_site_label
  _atom_site_type_symbol
  _atom_site_fract_x
  _atom_site_fract_y
  _atom_site_fract_z
C1 C 1.20978 0.26153 0.29796
 H2 H 1.20983 0.23706 0.29937
 C3 C 1.19141 0.27812 0.31692
 H4 H 1.17734 0.26623 0.33296
 C5 C 1.22781 0.30657 0.27485
 H6 H 1.24205 0.31758 0.25846
 C7 C 1.20973 0.32412 0.29345
 H8 H 1.21003 0.34843 0.29044
 N9 N 1.22705 0.27583 0.27695
 C10 C 1.23573 0.20555 0.20523
 H11 H 1.25840 0.20184 0.20476
 C12 C 1.21780 0.18810 0.18608
 H13 H 1.22710 0.17123 0.17090
 C14 C 1.19653 0.23291 0.22500
 H15 H 1.18823 0.25074 0.23967
 C16 C 1.17794 0.21622 0.20621
 H17 H 1.15546 0.22115 0.20708
 Zn18 Zn 1.24919 0.25015 0.25111
 N19 N 1.22481 0.22700 0.22471
 C20 C 1.26891 0.19438 0.27823
 N21 N 1.27025 0.22513 0.27891
 C22 C 1.28694 0.23983 0.30014
 C23 C 1.30412 0.22359 0.32091
 C24 C 1.28575 0.17713 0.29866
 C25 C 1.26410 0.29347 0.20443
 C26 C 1.28254 0.31069 0.18563
 C27 C 1.32188 0.28349 0.20856
 C28 C 1.30274 0.26705 0.22696
 N29 N 1.27446 0.27264 0.22510
 H30 H 1.25501 0.18309 0.26170
 H31 H 1.28729 0.26433 0.30047
 H32 H 1.31764 0.23596 0.33714
 H33 H 1.28453 0.15279 0.29675
 H34 H 1.24144 0.29700 0.20284
 H35 H 1.27338 0.32739 0.17006
 H36 H 1.34432 0.27870 0.21084
 H37 H 1.31063 0.24971 0.24265
 C38 C 1.18835 0.19318 0.18675
 C39 C 1.19101 0.30979 0.31467
 C40 C 1.31208 0.30596 0.18773
 C41 C 1.30402 0.19178 0.32027
 C42 C 0.71149 -0.24023 0.29952
 H43 H 0.71124 -0.26472 0.30032
 C44 C 0.69345 -0.22381 0.31904
 H45 H 0.67932 -0.23587 0.33489
 C46 C 0.72991 -0.19492 0.27738
 H47 H 0.74415 -0.18375 0.26111
 C48 C 0.71215 -0.17755 0.29654
 H49 H 0.71273 -0.15319 0.29410
 N50 N 0.72880 -0.22570 0.27873
 C51 C 0.73647 -0.29358 0.20440
 H52 H 0.75912 -0.29729 0.20353
 C53 C 0.71835 -0.31038 0.18484
 H54 H 0.72749 -0.32669 0.16888
 C55 C 0.69747 -0.26692 0.22566
 H56 H 0.68933 -0.24965 0.24114
 C57 C 0.67869 -0.28298 0.20648
 H58 H 0.65622 -0.27811 0.20781
 Zn59 Zn 0.75051 -0.25093 0.25193
 N60 N 0.72574 -0.27284 0.22482
 C61 C 0.76888 -0.30808 0.27688
 N62 N 0.77118 -0.27743 0.27871
 C63 C 0.78800 -0.26412 0.30078
 C64 C 0.80429 -0.28166 0.32135
 C65 C 0.78482 -0.32657 0.29698
 C66 C 0.76524 -0.20694 0.20608
 C67 C 0.78345 -0.18935 0.18738
 C68 C 0.82314 -0.21608 0.21013
 C69 C 0.80421 -0.23295 0.22843
 N70 N 0.77586 -0.22784 0.22652
 H71 H 0.75475 -0.31832 0.25986
 H72 H 0.78892 -0.23967 0.30221
 H73 H 0.81721 -0.26981 0.33837
 H74 H 0.78291 -0.35094 0.29474
 H75 H 0.74254 -0.20372 0.20453
 H76 H 0.77405 -0.17270 0.17193
 H77 H 0.84565 -0.22053 0.21238
 H78 H 0.81230 -0.25022 0.24408
 C79 C 0.68891 -0.30538 0.18612
 C80 C 0.69340 -0.19209 0.31756
 C81 C 0.81304 -0.19368 0.18936
 C82 C 0.80326 -0.31356 0.31936
 C83 C 0.70851 0.25675 -0.19743
 H84 H 0.70773 0.23228 -0.19619
 C85 C 0.69094 0.27394 -0.17817
 H86 H 0.67657 0.26255 -0.16206
 C87 C 0.72793 0.30121 -0.22043
 H88 H 0.74240 0.31173 -0.23691
 C89 C 0.71066 0.31934 -0.20161
 H90 H 0.71177 0.34363 -0.20456
 N91 N 0.72607 0.27052 -0.21851
 C92 C 0.73327 0.20299 -0.29263
 H93 H 0.75594 0.19934 -0.29347
 C94 C 0.71527 0.18667 -0.31263
 H95 H 0.72445 0.17072 -0.32896
 C96 C 0.69418 0.22935 -0.27106
 H97 H 0.68601 0.24637 -0.25530
 C98 C 0.67549 0.21374 -0.29070
 H99 H 0.65302 0.21861 -0.28946
 Zn100 Zn 0.74723 0.24466 -0.24476
 N101 N 0.72243 0.22333 -0.27187
 C102 C 0.76482 0.18741 -0.22003
 N103 N 0.76705 0.21803 -0.21778
 C104 C 0.78322 0.23119 -0.19504
 C105 C 0.79900 0.21351 -0.17419
 C106 C 0.78032 0.16878 -0.19973
 C107 C 0.76188 0.28675 -0.29133
 C108 C 0.77930 0.30436 -0.31055
 C109 C 0.82077 0.27829 -0.28506
 C110 C 0.80119 0.26214 -0.26712
 N111 N 0.77290 0.26696 -0.27008
 H112 H 0.75116 0.17734 -0.23763
 H113 H 0.78404 0.25563 -0.19334
 H114 H 0.81149 0.22525 -0.15669
 H115 H 0.77860 0.14443 -0.20235
 H116 H 0.73910 0.28908 -0.29309
 H117 H 0.76969 0.32018 -0.32689
 H118 H 0.84317 0.27398 -0.28175
 H119 H 0.80886 0.24544 -0.25057
 C120 C 0.68586 0.19172 -0.31139
 C121 C 0.69165 0.30561 -0.18029
 C122 C 0.81159 0.30179 -0.30875
 C123 C 0.79817 0.18165 -0.17669
 C124 C 1.21194 -0.23859 -0.20028
 H125 H 1.21211 -0.26305 -0.19872
 C126 C 1.19358 -0.22199 -0.18133
 H127 H 1.17962 -0.23385 -0.16515
 C128 C 1.22965 -0.19358 -0.22378
 H129 H 1.24377 -0.18261 -0.24031
 C130 C 1.21158 -0.17603 -0.20520
 H131 H 1.21175 -0.15174 -0.20838
 N132 N 1.22903 -0.22432 -0.22148
 C133 C 1.23829 -0.29452 -0.29304
 H134 H 1.26103 -0.29764 -0.29370
 C135 C 1.22063 -0.31244 -0.31199
 H136 H 1.23023 -0.32910 -0.32720
 C137 C 1.19861 -0.26821 -0.27285
 H138 H 1.19003 -0.25064 -0.25806
 C139 C 1.18027 -0.28542 -0.29143
 H140 H 1.15769 -0.28113 -0.29030
 Zn141 Zn 1.25120 -0.24993 -0.24726
 N142 N 1.22701 -0.27339 -0.27344
 C143 C 1.27097 -0.30549 -0.22018
 N144 N 1.27246 -0.27475 -0.21955
 C145 C 1.28933 -0.26009 -0.19847
 C146 C 1.30657 -0.27639 -0.17784
 C147 C 1.28784 -0.32279 -0.19987
 C148 C 1.26533 -0.20699 -0.29436
 C149 C 1.28341 -0.18976 -0.31355
 C150 C 1.32326 -0.21611 -0.29060
 C151 C 1.30447 -0.23258 -0.27181
 N152 N 1.27612 -0.22741 -0.27352
 H153 H 1.25690 -0.31674 -0.23656
 H154 H 1.28977 -0.23559 -0.19817
 H155 H 1.32026 -0.26408 -0.16172
 H156 H 1.28649 -0.34712 -0.20177
 H157 H 1.24262 -0.20383 -0.29581
 H158 H 1.27392 -0.17340 -0.32927
 H159 H 1.34578 -0.22054 -0.28847
 H160 H 1.31268 -0.24961 -0.25595
 C161 C 1.19108 -0.30817 -0.31098
 C162 C 1.19302 -0.19034 -0.18380
 C163 C 1.31301 -0.19406 -0.31166
 C164 C 1.30631 -0.30821 -0.17844
 C165 C 0.26324 0.20609 0.70291
 H166 H 0.24061 0.20201 0.70204
 C167 C 0.28142 0.18956 0.68335
 H168 H 0.27231 0.17303 0.66751
 C169 C 0.30212 0.23340 0.72413
 H170 H 0.31021 0.25085 0.73955
 C171 C 0.32096 0.21760 0.70497
 H172 H 0.34340 0.22286 0.70632
 N173 N 0.27387 0.22709 0.72326
 C174 C 0.21076 0.23653 0.79809
 H175 H 0.21033 0.26100 0.79917
 C176 C 0.19347 0.21951 0.81810
 H177 H 0.17981 0.23137 0.83447
 C178 C 0.22918 0.19197 0.77510
 H179 H 0.24328 0.18135 0.75843
 C180 C 0.21226 0.17391 0.79481
 H181 H 0.21372 0.14967 0.79212
 Zn182 Zn 0.24908 0.24899 0.75024
 N183 N 0.22773 0.22268 0.77669
 C184 C 0.19565 0.26627 0.72594
 N185 N 0.22393 0.27230 0.72482
 C186 C 0.23438 0.29427 0.70544
 C187 C 0.21604 0.31205 0.68718
 C188 C 0.17661 0.28329 0.70807
 C189 C 0.28811 0.25904 0.79813
 C190 C 0.30565 0.27509 0.81872
 C191 C 0.28651 0.32174 0.79795
 C192 C 0.26932 0.30467 0.77762
 N193 N 0.27081 0.27392 0.77768
 H194 H 0.18768 0.24812 0.74061
 H195 H 0.25702 0.29826 0.70447
 H196 H 0.22527 0.32961 0.67264
 H197 H 0.15417 0.27808 0.70974
 H198 H 0.28859 0.23454 0.79800
 H199 H 0.31960 0.26257 0.83434
 H200 H 0.28510 0.34610 0.79658
 H201 H 0.25498 0.31610 0.76170
 C202 C 0.19368 0.18766 0.81665
 C203 C 0.31085 0.19508 0.68452
 C204 C 0.30531 0.30691 0.81880
 C205 C 0.18650 0.30679 0.68848
 C206 C 0.75662 0.70655 0.70062
 H207 H 0.73371 0.70500 0.70094
 C208 C 0.77219 0.68845 0.67990
 H209 H 0.76114 0.67291 0.66436
 C210 C 0.79883 0.72882 0.72031
 H211 H 0.80917 0.74505 0.73555
 C212 C 0.81519 0.71124 0.69999
 H213 H 0.83792 0.71460 0.69985
 N214 N 0.77012 0.72574 0.72080
 C215 C 0.71117 0.73745 0.79914
 H216 H 0.71122 0.76192 0.80050
 C217 C 0.69428 0.72055 0.81972
 H218 H 0.68141 0.73249 0.83681
 C219 C 0.72795 0.69276 0.77491
 H220 H 0.74125 0.68202 0.75753
 C221 C 0.71145 0.67484 0.79514
 H222 H 0.71237 0.65061 0.79205
 Zn223 Zn 0.74804 0.74902 0.74928
 N224 N 0.72709 0.72347 0.77686
 C225 C 0.69432 0.76867 0.72775
 N226 N 0.72274 0.77324 0.72515
 C227 C 0.73339 0.79436 0.70491
 C228 C 0.71518 0.81275 0.68718
 C229 C 0.67538 0.78633 0.71043
 C230 C 0.79019 0.75857 0.79450
 C231 C 0.80826 0.77468 0.81454
 C232 C 0.78749 0.82122 0.79556
 C233 C 0.76989 0.80412 0.77573
 N234 N 0.77179 0.77339 0.77525
 H235 H 0.68616 0.75116 0.74313
 H236 H 0.75612 0.79717 0.70281
 H237 H 0.72462 0.82956 0.67188
 H238 H 0.65283 0.78227 0.71321
 H239 H 0.79094 0.73409 0.79410
 H240 H 0.82294 0.76223 0.82933
 H241 H 0.78555 0.84556 0.79471
 H242 H 0.75465 0.81551 0.76086
 C243 C 0.69388 0.68871 0.81790
 C244 C 0.80190 0.69017 0.67989
 C245 C 0.80721 0.80649 0.81539
 C246 C 0.68554 0.80896 0.68991
 C247 C 0.76690 0.20934 0.20263
 H248 H 0.74453 0.20423 0.20214
 C249 C 0.78521 0.19340 0.18280
 H250 H 0.77626 0.17648 0.16730
 C251 C 0.80518 0.23837 0.22262
 H252 H 0.81295 0.25623 0.23775
 C253 C 0.82420 0.22306 0.20319
 H254 H 0.84649 0.22909 0.20397
 N255 N 0.77713 0.23101 0.22247
 C256 C 0.73068 0.21832 0.30348
 H257 H 0.74672 0.22994 0.31706
 C258 C 0.71195 0.19861 0.31888
 H259 H 0.71405 0.19568 0.34412
 C260 C 0.70726 0.21002 0.25477
 H261 H 0.70476 0.21547 0.23004
 C262 C 0.68814 0.19014 0.26917
 H263 H 0.67145 0.17991 0.25513
 Zn264 Zn 0.75219 0.25162 0.25055
 N265 N 0.72827 0.22340 0.27187
 C266 C 0.70624 0.29058 0.24322
 N267 N 0.72840 0.27809 0.22757
 C268 C 0.73293 0.28389 0.19644
 C269 C 0.71473 0.30313 0.17978
 C270 C 0.68753 0.30986 0.22756
 C271 C 0.79334 0.25954 0.29840
 C272 C 0.81050 0.27554 0.31950
 C273 C 0.78765 0.32180 0.30295
 C274 C 0.77097 0.30485 0.28210
 N275 N 0.77402 0.27429 0.28020
 H276 H 0.70308 0.28542 0.26796
 H277 H 0.75065 0.27354 0.18448
 H278 H 0.71896 0.30679 0.15501
 H279 H 0.66998 0.31942 0.24062
 H280 H 0.79571 0.23528 0.29615
 H281 H 0.82588 0.26320 0.33350
 H282 H 0.78481 0.34604 0.30311
 H283 H 0.75590 0.31631 0.26707
 C284 C 0.69037 0.18405 0.30158
 C285 C 0.81444 0.19991 0.18328
 C286 C 0.80794 0.30716 0.32210
 C287 C 0.69152 0.31654 0.19538
 C288 C 0.29517 0.74524 0.20240
 H289 H 0.29626 0.76956 0.20528
 C290 C 0.31423 0.73066 0.18239
 H291 H 0.32993 0.74391 0.16974
 C292 C 0.27396 0.69831 0.21621
 H293 H 0.25877 0.68565 0.23006
 C294 C 0.29258 0.68282 0.19650
 H295 H 0.29143 0.65837 0.19581
 N296 N 0.27535 0.72899 0.21853
 C297 C 0.22943 0.71910 0.30021
 H298 H 0.24452 0.73242 0.31351
 C299 C 0.21133 0.69916 0.31609
 H300 H 0.21270 0.69775 0.34154
 C301 C 0.20815 0.70651 0.25120
 H302 H 0.20692 0.70985 0.22591
 C303 C 0.18967 0.68632 0.26609
 H304 H 0.17419 0.67405 0.25212
 Zn305 Zn 0.25106 0.74986 0.24636
 N306 N 0.22768 0.72219 0.26831
 C307 C 0.20599 0.79007 0.24074
 N308 N 0.22694 0.77647 0.22405
 C309 C 0.22973 0.78108 0.19246
 C310 C 0.21142 0.80069 0.17654
 C311 C 0.18711 0.80969 0.22581
 C312 C 0.29436 0.75638 0.29101
 C313 C 0.31243 0.77160 0.31177
 C314 C 0.28868 0.81836 0.29858
 C315 C 0.27111 0.80219 0.27804
 N316 N 0.27407 0.77176 0.27486
 H317 H 0.20398 0.78559 0.26577
 H318 H 0.24601 0.76940 0.17944
 H319 H 0.21422 0.80329 0.15139
 H320 H 0.17061 0.82025 0.23970
 H321 H 0.29653 0.73222 0.28762
 H322 H 0.32846 0.75880 0.32435
 H323 H 0.28577 0.84255 0.29985
 H324 H 0.25535 0.81414 0.26439
 C325 C 0.19123 0.68229 0.29889
 C326 C 0.31291 0.69910 0.17904
 C327 C 0.30977 0.80304 0.31599
 C328 C 0.18973 0.81556 0.19331
 O329 O 1.04001 0.05122 0.05673
 O330 O 1.07104 0.02446 0.02591
 C331 C 1.06546 0.04367 0.04812
 O332 O 0.95943 -0.05642 0.05341
 O333 O 0.92817 -0.02656 0.02590
 C334 C 0.93392 -0.04805 0.04584
 O335 O 1.03861 -0.05437 0.05614
 O336 O 1.07024 -0.02685 0.02644
 C337 C 1.06420 -0.04663 0.04809
 O338 O 0.96064 0.05477 0.05399
 O339 O 0.92875 0.02630 0.02564
 C340 C 0.93496 0.04730 0.04591
 Zr341 Zr 1.00005 0.03712 0.03897
 O342 O 0.99696 0.03633 0.08885
 O343 O 1.00388 0.08492 0.03944
 Zr344 Zr 0.99915 -0.03926 0.03832
 O345 O 0.99618 -0.03961 0.08821
 O346 O 1.00138 -0.08713 0.03755
 O347 O 1.02501 -0.00133 0.04489
 O348 O 0.97487 -0.00091 0.04449
 O349 O 0.96050 0.05611 -0.05476
 O350 O 0.92864 0.02697 -0.02712
 C351 C 0.93487 0.04864 -0.04666
 O352 O 1.03823 -0.05208 -0.06033
 O353 O 1.07008 -0.02629 -0.02929
 C354 C 1.06390 -0.04491 -0.05191
 O355 O 0.95911 -0.05471 -0.05712
 O356 O 0.92799 -0.02601 -0.02837
 C357 C 0.93364 -0.04676 -0.04906
 O358 O 1.03944 0.05205 -0.05883
 O359 O 1.07066 0.02428 -0.02907
 C360 C 1.06492 0.04391 -0.05096
 Zr361 Zr 0.99980 0.03784 -0.04054
 O362 O 0.99663 0.03784 -0.09043
 O363 O 1.00374 0.08563 -0.04051
 Zr364 Zr 0.99890 -0.03859 -0.04104
 O365 O 0.99842 -0.04235 -0.09085
 O366 O 0.99939 -0.08624 -0.03623
 Zr367 Zr 1.04200 -0.00103 -0.00117
 Zr368 Zr 0.95691 -0.00038 -0.00106
 O369 O 0.97457 -0.00004 -0.04664
 O370 O 1.02457 -0.00051 -0.04708
 O371 O 0.97463 0.04361 -0.00069
 O372 O 1.02391 -0.04466 -0.00152
 O373 O 1.02473 0.04286 -0.00085
 O374 O 0.97344 -0.04465 -0.00140
 H375 H 0.96218 -0.00091 0.06311
 H376 H 1.03664 -0.06246 -0.00180
 H377 H 0.96160 0.00058 -0.06505
 H378 H 1.03765 0.06061 -0.00091
 H379 H 0.98681 -0.09439 0.02247
 H380 H 0.99984 -0.09442 -0.05799
 H381 H 0.99121 -0.02302 -0.09939
 H382 H 1.01183 0.02459 -0.09857
 H383 H 0.98874 0.09370 -0.02663
 H384 H 0.98811 0.09323 0.02672
 H385 H 1.01303 0.02427 0.09698
 H386 H 1.01211 -0.02733 0.09653
 O387 O 1.04335 0.55131 0.55923
 O388 O 1.07354 0.52426 0.52766
 C389 C 1.06854 0.54311 0.55039
 O390 O 0.96002 0.44705 0.55342
 O391 O 0.92941 0.47800 0.52631
 C392 C 0.93475 0.45605 0.54574
 O393 O 1.03941 0.44648 0.55568
 O394 O 1.07153 0.47348 0.52607
 C395 C 1.06516 0.45354 0.54748
 O396 O 0.96452 0.55790 0.55690
 O397 O 0.93147 0.53151 0.52805
 C398 C 0.93855 0.55169 0.54892
 Zr399 Zr 1.00310 0.53928 0.54096
 O400 O 1.00080 0.53720 0.59083
 O401 O 1.00831 0.58691 0.54262
 Zr402 Zr 1.00023 0.46315 0.53852
 O403 O 1.00213 0.46145 0.58853
 O404 O 1.00043 0.41523 0.53640
 O405 O 1.02704 0.50005 0.54560
 O406 O 0.97680 0.50204 0.54577
 O407 O 0.96340 0.56147 0.44757
 O408 O 0.93092 0.53296 0.47506
 C409 C 0.93760 0.55461 0.45562
 O410 O 1.03833 0.44995 0.44031
 O411 O 1.07100 0.47528 0.47071
 C412 C 1.06422 0.45662 0.44834
 O413 O 0.95925 0.44937 0.44500
 O414 O 0.92898 0.47921 0.47358
 C415 C 0.93403 0.45795 0.45326
 O416 O 1.04219 0.55519 0.44327
 O417 O 1.07295 0.52612 0.47232
 C418 C 1.06751 0.54635 0.45094
 Zr419 Zr 1.00232 0.54189 0.46138
 O420 O 0.99889 0.54306 0.41154
 O421 O 1.00750 0.58953 0.46265
 Zr422 Zr 0.99948 0.46599 0.45877
 O423 O 0.99796 0.47267 0.40937
 O424 O 0.99829 0.41847 0.45257
 Zr425 Zr 1.04374 0.50088 0.49950
 Zr426 Zr 0.95869 0.50429 0.50040
 O427 O 0.97584 0.50503 0.45458
 O428 O 1.02630 0.50312 0.45369
 O429 O 0.97763 0.54764 0.50166
 O430 O 1.02436 0.45794 0.49821
 O431 O 1.02765 0.54523 0.50109
 O432 O 0.97441 0.45961 0.49875
 H433 H 0.96388 0.50225 0.56417
 H434 H 1.03654 0.43974 0.49761
 H435 H 0.96267 0.50604 0.43634
 H436 H 1.04110 0.56253 0.50154
 H437 H 0.98459 0.40889 0.52250
 H438 H 1.00418 0.40918 0.47276
 H439 H 0.99651 0.45222 0.39994
 H440 H 1.01289 0.52858 0.40303
 H441 H 0.99243 0.59777 0.47634
 H442 H 0.99293 0.59601 0.52990
 H443 H 1.01340 0.52059 0.59777
 H444 H 0.98499 0.47112 0.59729
 O445 O 0.53850 0.05146 0.55655
 O446 O 0.56991 0.02475 0.52620
 C447 C 0.56403 0.04396 0.54827
 O448 O 0.45941 -0.05684 0.55319
 O449 O 0.42790 -0.02808 0.52485
 C450 C 0.43385 -0.04917 0.54510
 O451 O 0.53869 -0.05384 0.55591
 O452 O 0.57001 -0.02618 0.52594
 C453 C 0.56421 -0.04592 0.54774
 O454 O 0.45918 0.05413 0.55353
 O455 O 0.42780 0.02513 0.52512
 C456 C 0.43363 0.04619 0.54543
 Zr457 Zr 0.49882 0.03700 0.53850
 O458 O 0.49548 0.03637 0.58836
 O459 O 0.50213 0.08484 0.53874
 Zr460 Zr 0.49900 -0.03933 0.53806
 O461 O 0.49591 -0.03946 0.58795
 O462 O 0.50199 -0.08717 0.53769
 O463 O 0.52431 -0.00105 0.54455
 O464 O 0.47415 -0.00137 0.54406
 O465 O 0.45900 0.05464 0.44373
 O466 O 0.42770 0.02532 0.47200
 C467 C 0.43349 0.04651 0.45174
 O468 O 0.53853 -0.05308 0.44061
 O469 O 0.56991 -0.02569 0.47072
 C470 C 0.56406 -0.04517 0.44878
 O471 O 0.45953 -0.05707 0.44437
 O472 O 0.42794 -0.02798 0.47199
 C473 C 0.43395 -0.04930 0.45215
 O474 O 0.53831 0.05248 0.44088
 O475 O 0.56980 0.02528 0.47097
 C476 C 0.56388 0.04491 0.44912
 Zr477 Zr 0.49872 0.03763 0.45886
 O478 O 0.49593 0.03758 0.40896
 O479 O 0.50176 0.08549 0.45927
 Zr480 Zr 0.49895 -0.03840 0.45825
 O481 O 0.49761 -0.03301 0.40867
 O482 O 0.50040 -0.08600 0.45333
 Zr483 Zr 0.54137 -0.00060 0.49852
 Zr484 Zr 0.45633 -0.00114 0.49846
 O485 O 0.47387 -0.00062 0.45280
 O486 O 0.52432 -0.00020 0.45248
 O487 O 0.47338 0.04312 0.49870
 O488 O 0.52365 -0.04440 0.49814
 O489 O 0.52350 0.04302 0.49873
 O490 O 0.47375 -0.04511 0.49813
 H491 H 0.46137 -0.00154 0.56261
 H492 H 0.53643 -0.06215 0.49803
 H493 H 0.46092 -0.00072 0.43434
 H494 H 0.53624 0.06093 0.49883
 H495 H 0.48570 -0.09509 0.52542
 H496 H 0.50149 -0.09453 0.47486
 H497 H 0.49707 -0.05374 0.39978
 H498 H 0.51051 0.02344 0.40105
 H499 H 0.48576 0.09322 0.47195
 H500 H 0.48633 0.09289 0.52588
 H501 H 0.51162 0.02453 0.59670
 H502 H 0.51202 -0.02748 0.59631
 O503 O 0.54053 0.55161 0.05670
 O504 O 0.57173 0.52416 0.02681
 C505 C 0.56602 0.54385 0.04852
 O506 O 0.46082 0.44310 0.05459
 O507 O 0.42950 0.47210 0.02619
 C508 C 0.43529 0.45100 0.04653
 O509 O 0.54007 0.44575 0.05726
 O510 O 0.57150 0.47313 0.02713
 C511 C 0.56562 0.45348 0.04900
 O512 O 0.46107 0.55431 0.05339
 O513 O 0.42937 0.52506 0.02557
 C514 C 0.43545 0.54644 0.04542
 Zr515 Zr 0.50077 0.53688 0.03901
 O516 O 0.49758 0.53650 0.08888
 O517 O 0.50417 0.58471 0.03919
 Zr518 Zr 0.50045 0.46055 0.03949
 O519 O 0.49751 0.46127 0.08938
 O520 O 0.50292 0.41269 0.03973
 O521 O 0.52605 0.49873 0.04543
 O522 O 0.47586 0.49877 0.04509
 O523 O 0.46100 0.55371 -0.05600
 O524 O 0.42957 0.52498 -0.02731
 C525 C 0.43547 0.54585 -0.04786
 O526 O 0.53949 0.44702 -0.05921
 O527 O 0.57124 0.47326 -0.02846
 C528 C 0.56511 0.45443 -0.05089
 O529 O 0.46039 0.44333 -0.05550
 O530 O 0.42927 0.47225 -0.02705
 C531 C 0.43493 0.45131 -0.04749
 O532 O 0.54022 0.55122 -0.05865
 O533 O 0.57157 0.52391 -0.02860
 C534 C 0.56573 0.54339 -0.05059
 Zr535 Zr 0.50059 0.53665 -0.04061
 O536 O 0.49755 0.53655 -0.09051
 O537 O 0.50392 0.58450 -0.04049
 Zr538 Zr 0.50010 0.46006 -0.03983
 O539 O 0.49825 0.45543 -0.08945
 O540 O 0.50125 0.41250 -0.03433
 Zr541 Zr 0.54302 0.49857 -0.00064
 Zr542 Zr 0.45805 0.49869 -0.00052
 O543 O 0.47571 0.49838 -0.04612
 O544 O 0.52555 0.49832 -0.04658
 O545 O 0.47536 0.54282 -0.00083
 O546 O 0.52521 0.45478 -0.00030
 O547 O 0.52544 0.54231 -0.00088
 O548 O 0.47477 0.45450 -0.00012
 H549 H 0.46303 0.49886 0.06360
 H550 H 0.53805 0.43706 -0.00040
 H551 H 0.46300 0.49834 -0.06477
 H552 H 0.53826 0.56015 -0.00101
 H553 H 0.48880 0.40510 0.02431
 H554 H 0.50170 0.40403 -0.05597
 H555 H 0.49956 0.47607 -0.09834
 H556 H 0.51384 0.52495 -0.09878
 H557 H 0.48772 0.59246 -0.02829
 H558 H 0.48892 0.59269 0.02548
 H559 H 0.51383 0.52483 0.09721
 H560 H 0.51389 0.47300 0.09747
 C561 C 1.16763 0.17556 0.16779
 C562 C 1.17340 0.14815 0.15268
 C563 C 1.15105 0.13038 0.13632
 C564 C 1.15857 0.11100 0.11152
 C565 C 1.13783 0.09421 0.09545
 C566 C 1.10909 0.09622 0.10425
 C567 C 1.10177 0.11514 0.12951
 C568 C 1.12244 0.13188 0.14548
 C569 C 1.08590 0.07974 0.08778
 C570 C 1.08975 0.05816 0.06410
 H571 H 1.19478 0.13945 0.15221
 H572 H 1.18052 0.10921 0.10423
 H573 H 1.14457 0.08013 0.07608
 H574 H 1.07989 0.11696 0.13703
 H575 H 1.11586 0.14558 0.16527
 H576 H 1.06439 0.08503 0.09481
 H577 H 1.14631 0.18446 0.16648
 H578 H 1.11076 0.05161 0.05673
 C579 C 1.17063 0.67352 0.67044
 C580 C 1.17706 0.64657 0.65480
 C581 C 1.15489 0.62813 0.63904
 C582 C 1.16210 0.61003 0.61310
 C583 C 1.14133 0.59300 0.59737
 C584 C 1.11294 0.59347 0.60769
 C585 C 1.10601 0.61095 0.63418
 C586 C 1.12669 0.62794 0.64979
 C587 C 1.08963 0.57721 0.59131
 C588 C 1.09316 0.55648 0.56677
 H589 H 1.19873 0.63883 0.65334
 H590 H 1.18375 0.60957 0.60459
 H591 H 1.14768 0.58008 0.57697
 H592 H 1.08441 0.61157 0.64284
 H593 H 1.12049 0.64061 0.67047
 H594 H 1.06823 0.58215 0.59900
 H595 H 1.14896 0.68150 0.66984
 H596 H 1.11407 0.55000 0.55897
 C597 C 0.66526 0.17498 0.66888
 C598 C 0.67065 0.14689 0.65512
 C599 C 0.64846 0.12957 0.63821
 C600 C 0.65639 0.10914 0.61457
 C601 C 0.63583 0.09259 0.59806
 C602 C 0.60685 0.09596 0.60528
 C603 C 0.59909 0.11594 0.62944
 C604 C 0.61959 0.13247 0.64582
 C605 C 0.58389 0.07963 0.58841
 C606 C 0.58808 0.05835 0.56458
 H607 H 0.69161 0.13713 0.65648
 H608 H 0.67855 0.10628 0.60856
 H609 H 0.64296 0.07751 0.57972
 H610 H 0.57700 0.11878 0.63575
 H611 H 0.61269 0.14706 0.66476
 H612 H 0.56229 0.08490 0.59510
 H613 H 0.64438 0.18480 0.66632
 H614 H 0.60915 0.05198 0.55727
 C615 C 0.66805 0.67751 0.16684
 C616 C 0.67355 0.64992 0.15194
 C617 C 0.65116 0.63229 0.13546
 C618 C 0.65882 0.61212 0.11141
 C619 C 0.63814 0.59515 0.09545
 C620 C 0.60929 0.59778 0.10360
 C621 C 0.60179 0.61760 0.12803
 C622 C 0.62240 0.63453 0.14389
 C623 C 0.58621 0.58099 0.08728
 C624 C 0.59020 0.55860 0.06445
 H625 H 0.69479 0.64080 0.15197
 H626 H 0.68085 0.60976 0.10467
 H627 H 0.64503 0.58039 0.07670
 H628 H 0.57982 0.61995 0.13503
 H629 H 0.61566 0.64889 0.16309
 H630 H 0.56464 0.58670 0.09371
 H631 H 0.64690 0.68681 0.16534
 H632 H 0.61126 0.55166 0.05767
 C633 C 0.83304 -0.17665 0.17199
 C634 C 0.82674 -0.15352 0.15034
 C635 C 0.84910 -0.13562 0.13400
 C636 C 0.84281 -0.12155 0.10504
 C637 C 0.86352 -0.10478 0.08889
 C638 C 0.89095 -0.10149 0.10163
 C639 C 0.89706 -0.11517 0.13079
 C640 C 0.87638 -0.13179 0.14694
 C641 C 0.91404 -0.08500 0.08510
 C642 C 0.90985 -0.06374 0.06104
 H643 H 0.80503 -0.14881 0.14387
 H644 H 0.82193 -0.12397 0.09463
 H645 H 0.85807 -0.09507 0.06623
 H646 H 0.91793 -0.11282 0.14125
 H647 H 0.88187 -0.14118 0.16974
 H648 H 0.93551 -0.08914 0.09315
 H649 H 0.85516 -0.18217 0.17556
 H650 H 0.88863 -0.05766 0.05371
 C651 C 0.83433 0.32063 0.67159
 C652 C 0.82750 0.34307 0.64988
 C653 C 0.84982 0.36029 0.63306
 C654 C 0.84207 0.38365 0.61226
 C655 C 0.86285 0.40053 0.59646
 C656 C 0.89167 0.39426 0.60120
 C657 C 0.89948 0.37085 0.62181
 C658 C 0.87878 0.35400 0.63762
 C659 C 0.91543 0.41354 0.58350
 C660 C 0.91050 0.44050 0.56012
 H661 H 0.80545 0.34855 0.64546
 H662 H 0.81992 0.38894 0.60834
 H663 H 0.85646 0.41852 0.58060
 H664 H 0.92161 0.36562 0.62578
 H665 H 0.88555 0.33613 0.65344
 H666 H 0.93828 0.40309 0.59186
 H667 H 0.82144 0.31195 0.68071
 H668 H 0.91289 0.42587 0.57282
 C669 C 0.33289 -0.17728 0.67066
 C670 C 0.32649 -0.15436 0.64886
 C671 C 0.34889 -0.13656 0.63261
 C672 C 0.34302 -0.12334 0.60314
 C673 C 0.36387 -0.10673 0.58709
 C674 C 0.39096 -0.10274 0.60048
 C675 C 0.39665 -0.11559 0.63012
 C676 C 0.37583 -0.13206 0.64617
 C677 C 0.41411 -0.08626 0.58417
 C678 C 0.40989 -0.06516 0.56003
 H679 H 0.30479 -0.14976 0.64227
 H680 H 0.32238 -0.12633 0.59226
 H681 H 0.35881 -0.09770 0.56401
 H682 H 0.41727 -0.11269 0.64106
 H683 H 0.38092 -0.14081 0.66936
 H684 H 0.43554 -0.09012 0.59253
 H685 H 0.35504 -0.18271 0.67419
 H686 H 0.38866 -0.05936 0.55248
 C687 C 0.33233 0.32271 0.17048
 C688 C 0.32641 0.34599 0.14891
 C689 C 0.34913 0.36366 0.13298
 C690 C 0.34345 0.37751 0.10378
 C691 C 0.36454 0.39408 0.08802
 C692 C 0.39170 0.39740 0.10144
 C693 C 0.39721 0.38389 0.13082
 C694 C 0.37616 0.36745 0.14657
 C695 C 0.41509 0.41385 0.08541
 C696 C 0.41116 0.43521 0.06143
 H697 H 0.30481 0.35099 0.14225
 H698 H 0.32277 0.37509 0.09287
 H699 H 0.35956 0.40361 0.06514
 H700 H 0.41788 0.38625 0.14179
 H701 H 0.38114 0.35817 0.16957
 H702 H 0.43645 0.40967 0.09379
 H703 H 0.35438 0.31691 0.17416
 H704 H 0.39002 0.44128 0.05385
 C705 C 0.81473 0.16225 -0.15779
 C706 C 0.83508 0.17200 -0.13588
 C707 C 0.85474 0.15108 -0.11970
 C708 C 0.88157 0.16202 -0.11096
 C709 C 0.90132 0.14288 -0.09682
 C710 C 0.89450 0.11253 -0.09053
 C711 C 0.86738 0.10160 -0.09858
 C712 C 0.84762 0.12076 -0.11300
 C713 C 0.91670 0.09298 -0.07684
 C714 C 0.91139 0.06612 -0.06039
 H715 H 0.83917 0.19581 -0.13244
 H716 H 0.88751 0.18532 -0.11573
 H717 H 0.92208 0.15183 -0.09086
 H718 H 0.86153 0.07821 -0.09447
 H719 H 0.82686 0.11178 -0.11872
 H720 H 0.93840 0.10102 -0.07864
 H721 H 0.81268 0.13813 -0.16181
 H722 H 0.88988 0.05857 -0.05606
 C723 C 0.81997 0.66714 0.33835
 C724 C 0.84092 0.67699 0.35955
 C725 C 0.86005 0.65617 0.37683
 C726 C 0.88691 0.66691 0.38577
 C727 C 0.90602 0.64805 0.40139
 C728 C 0.89858 0.61814 0.40905
 C729 C 0.87144 0.60739 0.40075
 C730 C 0.85231 0.62627 0.38478
 C731 C 0.92027 0.59880 0.42422
 C732 C 0.91444 0.57252 0.44156
 H733 H 0.84568 0.70080 0.36185
 H734 H 0.89336 0.68987 0.38010
 H735 H 0.92680 0.65688 0.40745
 H736 H 0.86510 0.58433 0.40587
 H737 H 0.83153 0.61743 0.37894
 H738 H 0.94210 0.60638 0.42248
 H739 H 0.81737 0.64296 0.33512
 H740 H 0.89278 0.56542 0.44575
 C741 C 0.32277 0.17630 0.34050
 C742 C 0.32479 0.14478 0.34343
 C743 C 0.34721 0.13011 0.36258
 C744 C 0.34229 0.10122 0.37536
 C745 C 0.36336 0.08651 0.39286
 C746 C 0.38993 0.10044 0.39767
 C747 C 0.39498 0.12908 0.38437
 C748 C 0.37390 0.14381 0.36705
 C749 C 0.41332 0.08535 0.41488
 C750 C 0.40937 0.06174 0.43645
 H751 H 0.30925 0.13010 0.33252
 H752 H 0.32208 0.08996 0.37174
 H753 H 0.35894 0.06404 0.40181
 H754 H 0.41542 0.14005 0.38724
 H755 H 0.37890 0.16555 0.35656
 H756 H 0.43464 0.09375 0.41083
 H757 H 0.33680 0.18992 0.35501
 H758 H 0.38822 0.05419 0.44254
 C759 C 0.32512 0.67621 -0.15838
 C760 C 0.32688 0.64469 -0.15542
 C761 C 0.34936 0.62983 -0.13657
 C762 C 0.34429 0.60100 -0.12372
 C763 C 0.36541 0.58609 -0.10651
 C764 C 0.39214 0.59974 -0.10206
 C765 C 0.39734 0.62831 -0.11545
 C766 C 0.37622 0.64325 -0.13250
 C767 C 0.41551 0.58447 -0.08504
 C768 C 0.41144 0.56109 -0.06326
 H769 H 0.31108 0.63015 -0.16607
 H770 H 0.32394 0.58996 -0.12706
 H771 H 0.36086 0.56367 -0.09748
 H772 H 0.41791 0.63907 -0.11285
 H773 H 0.38130 0.66492 -0.14308
 H774 H 0.43688 0.59263 -0.08931
 H775 H 0.33939 0.68974 -0.14406
 H776 H 0.39025 0.55380 -0.05698
 C777 C 1.17180 -0.17360 -0.16500
 C778 C 1.17231 -0.14232 -0.16019
 C779 C 1.14949 -0.12642 -0.14300
 C780 C 1.15561 -0.09901 -0.12770
 C781 C 1.13444 -0.08355 -0.11124
 C782 C 1.10663 -0.09523 -0.10998
 C783 C 1.10038 -0.12215 -0.12610
 C784 C 1.12153 -0.13762 -0.14242
 C785 C 1.08341 -0.07983 -0.09295
 C786 C 1.08774 -0.05877 -0.06887
 H787 H 1.19047 -0.12915 -0.16777
 H788 H 1.17687 -0.08962 -0.12833
 H789 H 1.13993 -0.06234 -0.10005
 H790 H 1.07904 -0.13135 -0.12600
 H791 H 1.11572 -0.15804 -0.15498
 H792 H 1.06186 -0.08653 -0.09866
 H793 H 1.15524 -0.18685 -0.15382
 H794 H 1.10900 -0.05281 -0.06145
 C795 C 1.16984 0.32654 0.33357
 C796 C 1.17056 0.35778 0.33872
 C797 C 1.14801 0.37374 0.35634
 C798 C 1.15445 0.40113 0.37152
 C799 C 1.13359 0.41673 0.38832
 C800 C 1.10574 0.40522 0.39009
 C801 C 1.09916 0.37828 0.37414
 C802 C 1.12000 0.36267 0.35746
 C803 C 1.08282 0.42090 0.40740
 C804 C 1.08765 0.44201 0.43132
 H805 H 1.18876 0.37087 0.33112
 H806 H 1.17574 0.41042 0.37050
 H807 H 1.13934 0.43794 0.39936
 H808 H 1.07777 0.36921 0.37464
 H809 H 1.11392 0.34227 0.34505
 H810 H 1.06115 0.41450 0.40195
 H811 H 1.15323 0.31330 0.34467
 H812 H 1.10905 0.44761 0.43851
 C813 C 0.67243 -0.17550 0.33691
 C814 C 0.67310 -0.14429 0.34230
 C815 C 0.65033 -0.12844 0.35970
 C816 C 0.65647 -0.10099 0.37495
 C817 C 0.63530 -0.08541 0.39133
 C818 C 0.60745 -0.09699 0.39256
 C819 C 0.60122 -0.12404 0.37664
 C820 C 0.62235 -0.13961 0.36039
 C821 C 0.58411 -0.08134 0.40921
 C822 C 0.58814 -0.05934 0.43245
 H823 H 0.69128 -0.13110 0.33483
 H824 H 0.67773 -0.09161 0.37427
 H825 H 0.64083 -0.06417 0.40242
 H826 H 0.57987 -0.13320 0.37674
 H827 H 0.61649 -0.16005 0.34791
 H828 H 0.56263 -0.08845 0.40372
 H829 H 0.65584 -0.18883 0.34794
 H830 H 0.60930 -0.05278 0.43966
 C831 C 0.67113 0.32309 -0.16139
 C832 C 0.67263 0.35435 -0.15680
 C833 C 0.65002 0.37110 -0.14030
 C834 C 0.65669 0.39827 -0.12485
 C835 C 0.63567 0.41446 -0.10899
 C836 C 0.60751 0.40375 -0.10853
 C837 C 0.60075 0.37710 -0.12486
 C838 C 0.62173 0.36091 -0.14058
 C839 C 0.58446 0.41976 -0.09199
 C840 C 0.58893 0.44054 -0.06772
 H841 H 0.69126 0.36685 -0.16418
 H842 H 0.67825 0.40687 -0.12487
 H843 H 0.64157 0.43545 -0.09759
 H844 H 0.57914 0.36866 -0.12534
 H845 H 0.61557 0.34072 -0.15333
 H846 H 0.56286 0.41362 -0.09812
 H847 H 0.65410 0.31050 -0.15024
 H848 H 0.61018 0.44614 -0.06000
 C849 C 1.17568 0.17205 -0.16439
 C850 C 1.17352 0.14041 -0.16216
 C851 C 1.15105 0.12543 -0.14319
 C852 C 1.15610 0.09682 -0.12984
 C853 C 1.13503 0.08206 -0.11223
 C854 C 1.10835 0.09560 -0.10794
 C855 C 1.10314 0.12387 -0.12194
 C856 C 1.12421 0.13867 -0.13932
 C857 C 1.08504 0.08065 -0.09029
 C858 C 1.08902 0.05783 -0.06781
 H859 H 1.18896 0.12588 -0.17319
 H860 H 1.17643 0.08591 -0.13299
 H861 H 1.13959 0.05987 -0.10268
 H862 H 1.08262 0.13456 -0.11947
 H863 H 1.11915 0.16016 -0.15026
 H864 H 1.06373 0.08891 -0.09440
 H865 H 1.16162 0.18501 -0.14941
 H866 H 1.11017 0.05039 -0.06176
 C867 C 1.17060 0.66178 0.31434
 C868 C 1.17412 0.65015 0.34479
 C869 C 1.15202 0.63204 0.36099
 C870 C 1.15979 0.61321 0.38627
 C871 C 1.13927 0.59657 0.40277
 C872 C 1.11046 0.59864 0.39428
 C873 C 1.10276 0.61769 0.36915
 C874 C 1.12321 0.63428 0.35274
 C875 C 1.08755 0.58247 0.41133
 C876 C 1.09172 0.56043 0.43458
 H877 H 1.19404 0.65355 0.35701
 H878 H 1.18181 0.61144 0.39336
 H879 H 1.14620 0.58268 0.42231
 H880 H 1.08070 0.62004 0.36236
 H881 H 1.11617 0.64937 0.33419
 H882 H 1.06597 0.58831 0.40502
 H883 H 1.15224 0.65499 0.30067
 H884 H 1.11277 0.55312 0.44108
 C885 C 0.66893 0.16394 0.31649
 C886 C 0.67171 0.15138 0.34668
 C887 C 0.64917 0.13302 0.36203
 C888 C 0.65638 0.11420 0.38755
 C889 C 0.63561 0.09722 0.40328
 C890 C 0.60700 0.09879 0.39379
 C891 C 0.59981 0.11784 0.36845
 C892 C 0.62055 0.13482 0.35279
 C893 C 0.58386 0.08204 0.41004
 C894 C 0.58793 0.05974 0.43308
 H895 H 0.69148 0.15408 0.35936
 H896 H 0.67820 0.11270 0.39544
 H897 H 0.64219 0.08344 0.42304
 H898 H 0.57794 0.11984 0.36087
 H899 H 0.61383 0.14981 0.33401
 H900 H 0.56230 0.08760 0.40334
 H901 H 0.65049 0.15820 0.30247
 H902 H 0.60902 0.05282 0.43989
 C903 C 0.67624 0.67319 -0.16265
 C904 C 0.67378 0.64155 -0.16073
 C905 C 0.65151 0.62652 -0.14153
 C906 C 0.65640 0.59746 -0.12921
 C907 C 0.63542 0.58247 -0.11170
 C908 C 0.60898 0.59625 -0.10647
 C909 C 0.60395 0.62504 -0.11934
 C910 C 0.62495 0.64007 -0.13662
 C911 C 0.58571 0.58099 -0.08908
 C912 C 0.58976 0.55761 -0.06727
 H913 H 0.68884 0.62697 -0.17233
 H914 H 0.67650 0.58632 -0.13318
 H915 H 0.63979 0.55992 -0.10301
 H916 H 0.58362 0.63594 -0.11611
 H917 H 0.62001 0.66195 -0.14675
 H918 H 0.56442 0.58946 -0.09278
 H919 H 0.66277 0.68619 -0.14704
 H920 H 0.61094 0.55004 -0.06148
 C921 C 0.82620 -0.17806 -0.16449
 C922 C 0.82675 -0.14668 -0.15947
 C923 C 0.84876 -0.13163 -0.13984
 C924 C 0.84274 -0.10370 -0.12562
 C925 C 0.86335 -0.08853 -0.10771
 C926 C 0.89057 -0.10099 -0.10389
 C927 C 0.89666 -0.12870 -0.11850
 C928 C 0.87607 -0.14388 -0.13626
 C929 C 0.91362 -0.08538 -0.08634
 C930 C 0.90951 -0.06183 -0.06483
 H931 H 0.81016 -0.13247 -0.16889
 H932 H 0.82201 -0.09353 -0.12845
 H933 H 0.85799 -0.06684 -0.09764
 H934 H 0.91758 -0.13859 -0.11639
 H935 H 0.88193 -0.16477 -0.14778
 H936 H 0.93503 -0.09339 -0.09019
 H937 H 0.84134 -0.19165 -0.15148
 H938 H 0.88834 -0.05438 -0.05900
 C939 C 0.82641 0.32268 0.34273
 C940 C 0.82577 0.35387 0.34883
 C941 C 0.84788 0.36954 0.36774
 C942 C 0.84147 0.39726 0.38223
 C943 C 0.86223 0.41325 0.39910
 C944 C 0.88997 0.40183 0.40161
 C945 C 0.89637 0.37426 0.38687
 C946 C 0.87566 0.35830 0.37011
 C947 C 0.91322 0.41828 0.41791
 C948 C 0.90952 0.44262 0.43856
 H949 H 0.80835 0.36753 0.34045
 H950 H 0.82035 0.40666 0.38032
 H951 H 0.85653 0.43474 0.40939
 H952 H 0.91765 0.36514 0.38802
 H953 H 0.88180 0.33764 0.35833
 H954 H 0.93459 0.41030 0.41374
 H955 H 0.84228 0.30937 0.35492
 H956 H 0.88851 0.45035 0.44464
 C957 C 0.32876 -0.18221 0.33657
 C958 C 0.32774 -0.15143 0.34438
 C959 C 0.34982 -0.13628 0.36363
 C960 C 0.34309 -0.10929 0.37930
 C961 C 0.36369 -0.09368 0.39666
 C962 C 0.39156 -0.10480 0.39860
 C963 C 0.39833 -0.13161 0.38264
 C964 C 0.37776 -0.14719 0.36530
 C965 C 0.41451 -0.08862 0.41556
 C966 C 0.41008 -0.06543 0.43734
 H967 H 0.30989 -0.13774 0.33733
 H968 H 0.32184 -0.10014 0.37792
 H969 H 0.35770 -0.07265 0.40776
 H970 H 0.41974 -0.14041 0.38331
 H971 H 0.38412 -0.16725 0.35258
 H972 H 0.43609 -0.09562 0.41081
 H973 H 0.34517 -0.19583 0.34743
 H974 H 0.38886 -0.05881 0.44393
 C975 C 0.32429 0.32222 -0.16098
 C976 C 0.32601 0.35368 -0.15715
 C977 C 0.34843 0.36825 -0.13775
 C978 C 0.34331 0.39666 -0.12414
 C979 C 0.36436 0.41129 -0.10641
 C980 C 0.39111 0.39782 -0.10217
 C981 C 0.39634 0.36967 -0.11626
 C982 C 0.37529 0.35500 -0.13382
 C983 C 0.41453 0.41287 -0.08475
 C984 C 0.41071 0.43621 -0.06297
 H985 H 0.31019 0.36833 -0.16745
 H986 H 0.32297 0.40758 -0.12728
 H987 H 0.35974 0.43339 -0.09681
 H988 H 0.41689 0.35903 -0.11384
 H989 H 0.38044 0.33369 -0.14492
 H990 H 0.43583 0.40466 -0.08888
 H991 H 0.33866 0.30846 -0.14711
 H992 H 0.38960 0.44365 -0.05687
 C993 C 1.17017 -0.16470 0.17897
 C994 C 1.17153 -0.15471 0.14759
 C995 C 1.14916 -0.13590 0.13291
 C996 C 1.15605 -0.11779 0.10674
 C997 C 1.13525 -0.10058 0.09155
 C998 C 1.10700 -0.10127 0.10225
 C999 C 1.10011 -0.11965 0.12824
 C1000 C 1.12090 -0.13680 0.14342
 C1001 C 1.08387 -0.08440 0.08640
 C1002 C 1.08812 -0.06149 0.06408
 H1003 H 1.18996 -0.15940 0.13334
 H1004 H 1.17760 -0.11706 0.09791
 H1005 H 1.14146 -0.08742 0.07115
 H1006 H 1.07845 -0.12098 0.13667
 H1007 H 1.11452 -0.15130 0.16279
 H1008 H 1.06231 -0.09031 0.09285
 H1009 H 1.15317 -0.15609 0.19354
 H1010 H 1.10927 -0.05412 0.05785
 C1011 C 1.16634 0.32393 0.67158
 C1012 C 1.17242 0.34791 0.65086
 C1013 C 1.14987 0.36568 0.63487
 C1014 C 1.15600 0.38035 0.60621
 C1015 C 1.13516 0.39708 0.59039
 C1016 C 1.10775 0.39981 0.60320
 C1017 C 1.10177 0.38546 0.63205
 C1018 C 1.12258 0.36879 0.64785
 C1019 C 1.08462 0.41653 0.58705
 C1020 C 1.08892 0.43783 0.56304
 H1021 H 1.19408 0.35334 0.64476
 H1022 H 1.17687 0.37845 0.59576
 H1023 H 1.14057 0.40722 0.56793
 H1024 H 1.08092 0.38731 0.64256
 H1025 H 1.11722 0.35881 0.67043
 H1026 H 1.06314 0.41239 0.59511
 H1027 H 1.14427 0.31775 0.67468
 H1028 H 1.11017 0.44373 0.55562
 C1029 C 0.66557 -0.17331 0.67345
 C1030 C 0.67193 -0.15001 0.65200
 C1031 C 0.64958 -0.13178 0.63627
 C1032 C 0.65539 -0.11810 0.60700
 C1033 C 0.63458 -0.10127 0.59125
 C1034 C 0.60756 -0.09748 0.60475
 C1035 C 0.60198 -0.11070 0.63427
 C1036 C 0.62276 -0.12741 0.65001
 C1037 C 0.58432 -0.08111 0.58852
 C1038 C 0.58832 -0.06054 0.56378
 H1039 H 0.69358 -0.14560 0.64504
 H1040 H 0.67592 -0.12096 0.59598
 H1041 H 0.63961 -0.09199 0.56828
 H1042 H 0.58142 -0.10799 0.64528
 H1043 H 0.61773 -0.13653 0.67307
 H1044 H 0.56294 -0.08505 0.59701
 H1045 H 0.64339 -0.17846 0.67751
 H1046 H 0.60949 -0.05464 0.55603
 C1047 C 0.67184 0.33571 0.18033
 C1048 C 0.67343 0.34560 0.14891
 C1049 C 0.65096 0.36415 0.13388
 C1050 C 0.65785 0.38235 0.10775
 C1051 C 0.63704 0.39960 0.09254
 C1052 C 0.60875 0.39886 0.10316
 C1053 C 0.60185 0.38030 0.12900
 C1054 C 0.62262 0.36309 0.14417
 C1055 C 0.58559 0.41590 0.08746
 C1056 C 0.58968 0.43866 0.06489
 H1057 H 0.69200 0.34097 0.13487
 H1058 H 0.67943 0.38320 0.09903
 H1059 H 0.64328 0.41289 0.07225
 H1060 H 0.58018 0.37888 0.13738
 H1061 H 0.61616 0.34848 0.16342
 H1062 H 0.56405 0.41020 0.09422
 H1063 H 0.65428 0.34378 0.19441
 H1064 H 0.61080 0.44581 0.05829
 C1065 C 0.83545 0.18351 0.16369
 C1066 C 0.83006 0.15612 0.14817
 C1067 C 0.85221 0.13905 0.13092
 C1068 C 0.84396 0.11825 0.10760
 C1069 C 0.86421 0.10127 0.09130
 C1070 C 0.89327 0.10453 0.09832
 C1071 C 0.90143 0.12522 0.12180
 C1072 C 0.88122 0.14217 0.13803
 C1073 C 0.91586 0.08722 0.08203
 C1074 C 0.91121 0.06353 0.06074
 H1075 H 0.80893 0.14656 0.14830
 H1076 H 0.82173 0.11525 0.10181
 H1077 H 0.85682 0.08589 0.07326
 H1078 H 0.92360 0.12810 0.12790
 H1079 H 0.88850 0.15711 0.15656
 H1080 H 0.93760 0.09329 0.08759
 H1081 H 0.85647 0.19331 0.16225
 H1082 H 0.88995 0.05636 0.05472
 C1083 C 0.81833 0.67031 0.65844
 C1084 C 0.84641 0.66211 0.66471
 C1085 C 0.86445 0.64325 0.64391
 C1086 C 0.89359 0.64225 0.65047
 C1087 C 0.91180 0.62495 0.63203
 C1088 C 0.90143 0.60786 0.60659
 C1089 C 0.87218 0.60862 0.59987
 C1090 C 0.85384 0.62616 0.61838
 C1091 C 0.92223 0.59026 0.58793
 C1092 C 0.91572 0.56852 0.56499
 H1093 H 0.85619 0.67021 0.68624
 H1094 H 0.90243 0.65510 0.66994
 H1095 H 0.93421 0.62488 0.63778
 H1096 H 0.86333 0.59601 0.58034
 H1097 H 0.83150 0.62592 0.61268
 H1098 H 0.94439 0.59426 0.59337
 H1099 H 0.80758 0.66144 0.63788
 H1100 H 0.89395 0.56322 0.55907
 C1101 C 0.33184 0.17843 0.66513
 C1102 C 0.32623 0.15177 0.64838
 C1103 C 0.34869 0.13474 0.63155
 C1104 C 0.34117 0.11574 0.60633
 C1105 C 0.36186 0.09928 0.59008
 C1106 C 0.39059 0.10123 0.59907
 C1107 C 0.39797 0.11997 0.62454
 C1108 C 0.37735 0.13637 0.64072
 C1109 C 0.41364 0.08472 0.58267
 C1110 C 0.40953 0.06181 0.56035
 H1111 H 0.30482 0.14303 0.64704
 H1112 H 0.31922 0.11389 0.59893
 H1113 H 0.35513 0.08547 0.57041
 H1114 H 0.41986 0.12179 0.63216
 H1115 H 0.38399 0.14980 0.66074
 H1116 H 0.43523 0.09058 0.58912
 H1117 H 0.35318 0.18753 0.66473
 H1118 H 0.38841 0.05457 0.55384
 C1119 C 0.33393 0.68386 0.15869
 C1120 C 0.33010 0.65463 0.14682
 C1121 C 0.35218 0.63817 0.12903
 C1122 C 0.34419 0.61312 0.11070
 C1123 C 0.36454 0.59619 0.09462
 C1124 C 0.39347 0.60399 0.09668
 C1125 C 0.40141 0.62898 0.11515
 C1126 C 0.38109 0.64585 0.13124
 C1127 C 0.41618 0.58656 0.08091
 C1128 C 0.41163 0.56272 0.05984
 H1129 H 0.30983 0.64344 0.14987
 H1130 H 0.32208 0.60651 0.10893
 H1131 H 0.35733 0.57693 0.08112
 H1132 H 0.42354 0.63534 0.11747
 H1133 H 0.38831 0.66433 0.14594
 H1134 H 0.43787 0.59310 0.08613
 H1135 H 0.35267 0.69663 0.15217
 H1136 H 0.39044 0.55582 0.05322
   
