data_POSCAR
  _audit_creation_date              2014-09-24
  _audit_creation_method            'ToBaCCo'
  _symmetry_space_group_name_H-M    'P1'
  _symmetry_Int_Tables_number       1
  _symmetry_cell_setting            triclinic
  loop_
  _symmetry_equiv_pos_as_xyz
 x,y,z
_cell_length_a 29.1593
_cell_length_b 29.1130
_cell_length_c 29.2357
_cell_angle_alpha 89.999500
_cell_angle_beta 90.242900
_cell_angle_gamma 90.000000
loop_
  _atom_site_label
  _atom_site_type_symbol
  _atom_site_fract_x
  _atom_site_fract_y
  _atom_site_fract_z
C1 C 0.24972 0.50004 0.99948
 C2 C 0.75029 0.50002 0.00054
 C3 C 0.00000 0.24989 0.50000
 C4 C 0.99999 0.74989 0.50002
 C5 C 0.50105 0.00015 0.24996
 C6 C 0.49894 0.00018 0.75002
 C7 C 0.32119 0.03446 0.44387
 H8 H 0.32308 0.05997 0.47072
 C9 C 0.35202 0.03598 0.40755
 H10 H 0.37798 0.06258 0.40661
 C11 C 0.28670 -0.03272 0.41348
 H12 H 0.26219 -0.06028 0.41648
 C13 C 0.31671 -0.03226 0.37633
 H14 H 0.31492 -0.05941 0.35111
 N15 N 0.28925 0.00053 0.44621
 C16 C 0.17927 0.05366 0.53161
 H17 H 0.17675 0.02589 0.55605
 C18 C 0.14844 0.09019 0.53342
 H19 H 0.12181 0.09036 0.55913
 C20 C 0.21581 0.08637 0.46704
 H21 H 0.24153 0.08431 0.44067
 C22 C 0.18568 0.12375 0.46776
 H23 H 0.18831 0.15011 0.44180
 Zn24 Zn 0.25057 -0.00009 0.49827
 N25 N 0.21211 0.05232 0.49877
 C26 C 0.28447 0.03212 0.58430
 N27 N 0.28827 -0.00056 0.55117
 C28 C 0.32057 -0.03412 0.55391
 C29 C 0.35092 -0.03553 0.59086
 C30 C 0.31407 0.03179 0.62207
 C31 C 0.18300 -0.05815 0.46196
 C32 C 0.15283 -0.09530 0.46078
 C33 C 0.18263 -0.12012 0.53393
 C34 C 0.21302 -0.08301 0.53327
 N35 N 0.21250 -0.05280 0.49770
 H36 H 0.25916 0.05901 0.58115
 H37 H 0.32313 -0.05936 0.52688
 H38 H 0.37726 -0.06174 0.59208
 H39 H 0.31145 0.05855 0.64762
 H40 H 0.18265 -0.03317 0.43457
 H41 H 0.12915 -0.09885 0.43236
 H42 H 0.18258 -0.14312 0.56300
 H43 H 0.23601 -0.07768 0.56183
 C44 C 0.15138 0.12558 0.50110
 C45 C 0.34993 0.00228 0.37338
 C46 C 0.15183 -0.12618 0.49753
 C47 C 0.34793 -0.00216 0.62525
 C48 C 0.67880 0.03449 0.55610
 H49 H 0.67690 0.06000 0.52924
 C50 C 0.64797 0.03602 0.59243
 H51 H 0.62201 0.06261 0.59336
 C52 C 0.71329 -0.03268 0.58650
 H53 H 0.73780 -0.06025 0.58351
 C54 C 0.68328 -0.03222 0.62365
 H55 H 0.68507 -0.05936 0.64888
 N56 N 0.71074 0.00056 0.55377
 C57 C 0.82072 0.05368 0.46837
 H58 H 0.82324 0.02590 0.44392
 C59 C 0.85155 0.09021 0.46655
 H60 H 0.87819 0.09037 0.44084
 C61 C 0.78418 0.08639 0.53293
 H62 H 0.75846 0.08433 0.55931
 C63 C 0.81432 0.12377 0.53222
 H64 H 0.81168 0.15013 0.55817
 Zn65 Zn 0.74942 -0.00007 0.50171
 N66 N 0.78788 0.05234 0.50121
 C67 C 0.71552 0.03212 0.41568
 N68 N 0.71172 -0.00055 0.44881
 C69 C 0.67943 -0.03411 0.44608
 C70 C 0.64907 -0.03553 0.40913
 C71 C 0.68592 0.03178 0.37791
 C72 C 0.81699 -0.05812 0.53803
 C73 C 0.84716 -0.09527 0.53923
 C74 C 0.81735 -0.12012 0.46609
 C75 C 0.78697 -0.08300 0.46674
 N76 N 0.78749 -0.05278 0.50229
 H77 H 0.74083 0.05901 0.41882
 H78 H 0.67687 -0.05935 0.47311
 H79 H 0.62273 -0.06174 0.40792
 H80 H 0.68854 0.05853 0.35235
 H81 H 0.81734 -0.03313 0.56542
 H82 H 0.87084 -0.09882 0.56765
 H83 H 0.81740 -0.14313 0.43703
 H84 H 0.76398 -0.07768 0.43817
 C85 C 0.84861 0.12560 0.49887
 C86 C 0.65006 0.00232 0.62660
 C87 C 0.84815 -0.12617 0.50249
 C88 C 0.65206 -0.00217 0.37473
 C89 C 0.46671 0.17836 1.05402
 H90 H 0.44220 0.17515 1.02632
 C91 C 0.46550 0.14766 1.09060
 H92 H 0.44013 0.12049 1.09091
 C93 C 0.53103 0.21633 1.08643
 H94 H 0.55712 0.24254 1.08424
 C95 C 0.53092 0.18637 1.12382
 H96 H 0.55700 0.18965 1.15005
 N97 N 0.49920 0.21180 1.05248
 C98 C 0.44595 0.32157 0.96650
 H99 H 0.47372 0.32473 0.94228
 C100 C 0.40933 0.35233 0.96499
 H101 H 0.40906 0.37950 0.93967
 C102 C 0.41341 0.28365 1.03039
 H103 H 0.41556 0.25741 1.05640
 C104 C 0.37598 0.31368 1.02996
 H105 H 0.34968 0.31043 1.05577
 Zn106 Zn 0.50000 0.24994 1.00000
 N107 N 0.44743 0.28813 0.99891
 C108 C 0.46895 0.21634 0.91357
 N109 N 0.50079 0.21181 0.94751
 C110 C 0.53328 0.17837 0.94598
 C111 C 0.53449 0.14767 0.90939
 C112 C 0.46907 0.18639 0.87618
 C113 C 0.55405 0.32156 1.03351
 C114 C 0.59067 0.35232 1.03504
 C115 C 0.62402 0.31367 0.97006
 C116 C 0.58659 0.28364 0.96963
 N117 N 0.55256 0.28812 1.00110
 H118 H 0.44287 0.24255 0.91576
 H119 H 0.55779 0.17516 0.97367
 H120 H 0.55986 0.12050 0.90908
 H121 H 0.44298 0.18967 0.84995
 H122 H 0.52628 0.32472 1.05774
 H123 H 0.59094 0.37949 1.06035
 H124 H 0.65032 0.31043 0.94425
 H125 H 0.58443 0.25741 0.94361
 C126 C 0.37405 0.34867 0.99717
 C127 C 0.49805 0.15139 1.12579
 C128 C 0.62595 0.34866 1.00286
 C129 C 0.50193 0.15140 0.87420
 C130 C 0.46621 0.82184 -0.05405
 H131 H 0.44194 0.82502 -0.02633
 C132 C 0.46460 0.85252 -0.09064
 H133 H 0.43919 0.87966 -0.09094
 C134 C 0.53028 0.78395 -0.08649
 H135 H 0.55641 0.75776 -0.08432
 C136 C 0.52977 0.81391 -0.12389
 H137 H 0.55562 0.81065 -0.15014
 N138 N 0.49876 0.78844 -0.05252
 C139 C 0.44606 0.67865 0.03344
 H140 H 0.47393 0.67550 0.05778
 C141 C 0.40945 0.64787 0.03482
 H142 H 0.40928 0.62072 0.06014
 C143 C 0.41325 0.71651 -0.03062
 H144 H 0.41530 0.74271 -0.05666
 C145 C 0.37583 0.68647 -0.03034
 H146 H 0.34943 0.68969 -0.05627
 Zn147 Zn 0.50002 0.75027 -0.00002
 N148 N 0.44742 0.71207 0.00100
 C149 C 0.46975 0.78394 0.08645
 N150 N 0.50127 0.78843 0.05248
 C151 C 0.53382 0.82183 0.05401
 C152 C 0.53542 0.85251 0.09061
 C153 C 0.47025 0.81389 0.12385
 C154 C 0.55398 0.67865 -0.03349
 C155 C 0.59059 0.64787 -0.03485
 C156 C 0.62420 0.68646 0.03031
 C157 C 0.58677 0.71651 0.03058
 N158 N 0.55262 0.71207 -0.00105
 H159 H 0.44362 0.75775 0.08427
 H160 H 0.55809 0.82502 0.02630
 H161 H 0.56083 0.87965 0.09092
 H162 H 0.44440 0.81063 0.15010
 H163 H 0.52611 0.67551 -0.05783
 H164 H 0.59076 0.62072 -0.06018
 H165 H 0.65059 0.68968 0.05624
 H166 H 0.58473 0.74271 0.05662
 C167 C 0.37403 0.65149 0.00247
 C168 C 0.49683 0.84884 -0.12587
 C169 C 0.62599 0.65149 -0.00250
 C170 C 0.50319 0.84883 0.12583
 C171 C 1.05974 0.46298 0.18385
 H172 H 1.03588 0.43456 0.18517
 C173 C 1.09669 0.46155 0.15372
 H174 H 1.10115 0.43199 0.13170
 C175 C 1.08194 0.53697 0.20947
 H176 H 1.07551 0.56681 0.23040
 C177 C 1.11889 0.53729 0.17918
 H178 H 1.14068 0.56730 0.17738
 N179 N 1.05329 0.50009 0.21134
 C180 C 0.96601 0.44383 0.31844
 H181 H 0.93958 0.46991 0.31883
 C182 C 0.96409 0.40720 0.34911
 H183 H 0.93634 0.40535 0.37355
 C184 C 1.03564 0.41562 0.28770
 H185 H 1.06425 0.41969 0.26477
 C186 C 1.03481 0.37814 0.31759
 H187 H 1.06277 0.35370 0.31735
 Zn188 Zn 1.00120 0.49985 0.25002
 N189 N 1.00135 0.44740 0.28847
 C190 C 0.91941 0.46303 0.21091
 N191 N 0.94840 0.49966 0.21215
 C192 C 0.94152 0.53686 0.18485
 C193 C 0.90409 0.53838 0.15504
 C194 C 0.88197 0.46277 0.18087
 C195 C 1.03837 0.56032 0.31492
 C196 C 1.03926 0.59753 0.34498
 C197 C 0.96249 0.61732 0.32070
 C198 C 0.96330 0.58013 0.29053
 N199 N 1.00090 0.55249 0.28819
 H200 H 0.92595 0.43341 0.23222
 H201 H 0.96542 0.56526 0.18609
 H202 H 0.89935 0.56795 0.13303
 H203 H 0.85996 0.43289 0.17936
 H204 H 1.06744 0.53731 0.31311
 H205 H 1.06905 0.60305 0.36654
 H206 H 0.93191 0.63822 0.32297
 H207 H 0.93327 0.57260 0.27016
 C208 C 0.99877 0.37391 0.34880
 C209 C 1.12627 0.49933 0.15070
 C210 C 1.00068 0.62599 0.34858
 C211 C 0.87439 0.50065 0.15224
 C212 C -0.05972 0.46294 0.81617
 H213 H -0.03586 0.43453 0.81485
 C214 C -0.09667 0.46151 0.84630
 H215 H -0.10113 0.43195 0.86833
 C216 C -0.08194 0.53693 0.79054
 H217 H -0.07550 0.56677 0.76961
 C218 C -0.11888 0.53725 0.82083
 H219 H -0.14067 0.56726 0.82263
 N220 N -0.05328 0.50005 0.78868
 C221 C 0.03401 0.44380 0.68158
 H222 H 0.06043 0.46989 0.68119
 C223 C 0.03593 0.40717 0.65090
 H224 H 0.06368 0.40532 0.62646
 C225 C -0.03562 0.41559 0.71232
 H226 H -0.06423 0.41965 0.73525
 C227 C -0.03479 0.37811 0.68242
 H228 H -0.06275 0.35367 0.68267
 Zn229 Zn -0.00119 0.49982 0.75000
 N230 N -0.00134 0.44737 0.71155
 C231 C 0.08061 0.46301 0.78911
 N232 N 0.05161 0.49964 0.78787
 C233 C 0.05848 0.53684 0.81517
 C234 C 0.09591 0.53837 0.84498
 C235 C 0.11804 0.46276 0.81915
 C236 C -0.03837 0.56028 0.68510
 C237 C -0.03926 0.59750 0.65504
 C238 C 0.03750 0.61731 0.67933
 C239 C 0.03669 0.58011 0.70949
 N240 N -0.00090 0.55246 0.71183
 H241 H 0.07408 0.43340 0.76780
 H242 H 0.03457 0.56524 0.81392
 H243 H 0.10064 0.56794 0.86699
 H244 H 0.14006 0.43289 0.82066
 H245 H -0.06743 0.53727 0.68690
 H246 H -0.06906 0.60302 0.63349
 H247 H 0.06807 0.63821 0.67706
 H248 H 0.06673 0.57258 0.72986
 C249 C 0.00125 0.37389 0.65121
 C250 C -0.12626 0.49929 0.84932
 C251 C -0.00070 0.62597 0.65145
 C252 C 0.12562 0.50065 0.84778
 C253 C 0.09877 0.18949 0.54190
 C254 C 0.09366 0.23278 0.51143
 C255 C 0.04368 0.21880 0.50018
 C256 C 0.04886 0.17576 0.53076
 C257 C 0.06066 0.19125 0.45835
 C258 C 0.11070 0.20482 0.46962
 C259 C 0.11493 0.16197 0.50014
 C260 C 0.06538 0.14822 0.48890
 H261 H 0.11475 0.18875 0.57642
 H262 H 0.10628 0.26737 0.52113
 H263 H 0.02530 0.16184 0.55689
 H264 H 0.04653 0.19134 0.42310
 H265 H 0.13622 0.21715 0.44439
 H266 H 0.05356 0.11320 0.47952
 C267 C 0.70508 0.61126 0.03005
 C268 C 0.69160 0.56123 0.04158
 C269 C 0.71927 0.54379 0.00008
 C270 C 0.73320 0.59376 -0.01140
 C271 C 0.67640 0.54859 -0.03087
 C272 C 0.64873 0.56555 0.01065
 C273 C 0.66240 0.61507 -0.00086
 C274 C 0.69009 0.59847 -0.04226
 H275 H 0.71724 0.63713 0.05520
 H276 H 0.69167 0.54751 0.07693
 H277 H 0.76772 0.60646 -0.02082
 H278 H 0.66258 0.52475 -0.05696
 H279 H 0.61375 0.55375 0.01982
 H280 H 0.68945 0.61406 -0.07690
 C281 C 0.90030 -0.19036 0.45897
 C282 C 0.95052 -0.17661 0.46868
 C283 C 0.95632 -0.21902 0.50001
 C284 C 0.90606 -0.23305 0.49017
 C285 C 0.94039 -0.19055 0.54165
 C286 C 0.93511 -0.14816 0.51032
 C287 C 0.88521 -0.16197 0.50062
 C288 C 0.89009 -0.20417 0.53181
 H289 H 0.88412 -0.19073 0.42455
 H290 H 0.97334 -0.16310 0.44172
 H291 H 0.89306 -0.26774 0.48138
 H292 H 0.95497 -0.19007 0.57669
 H293 H 0.94752 -0.11306 0.51857
 H294 H 0.86488 -0.21544 0.55783
 C295 C 0.30983 0.40162 0.95706
 C296 C 0.26681 0.40632 0.98769
 C297 C 0.28075 0.45629 0.99922
 C298 C 0.32353 0.45151 0.96850
 C299 C 0.30856 0.43889 1.04088
 C300 C 0.29506 0.38885 1.02930
 C301 C 0.33764 0.38505 0.99862
 C302 C 0.35133 0.43458 1.01019
 H303 H 0.31036 0.38600 0.92244
 H304 H 0.23227 0.39358 0.97808
 H305 H 0.33725 0.47535 0.94247
 H306 H 0.30859 0.45262 1.07622
 H307 H 0.28299 0.36298 1.05439
 H308 H 0.38634 0.44640 1.01954
 C309 C 0.88930 0.20483 0.53037
 C310 C 0.93934 0.19125 0.54164
 C311 C 0.95633 0.21880 0.49981
 C312 C 0.90635 0.23280 0.48856
 C313 C 0.95114 0.17577 0.46922
 C314 C 0.93461 0.14822 0.51108
 C315 C 0.88507 0.16198 0.49984
 C316 C 0.90123 0.18951 0.45808
 H317 H 0.86378 0.21716 0.55560
 H318 H 0.95347 0.19134 0.57688
 H319 H 0.89374 0.26739 0.47887
 H320 H 0.97470 0.16185 0.44309
 H321 H 0.94643 0.11320 0.52045
 H322 H 0.88525 0.18877 0.42356
 C323 C 0.29494 0.61127 -0.03006
 C324 C 0.30842 0.56124 -0.04158
 C325 C 0.28074 0.54381 -0.00007
 C326 C 0.26682 0.59378 0.01139
 C327 C 0.32362 0.54861 0.03087
 C328 C 0.35129 0.56556 -0.01066
 C329 C 0.33762 0.61508 0.00085
 C330 C 0.30994 0.59849 0.04225
 H331 H 0.28278 0.63713 -0.05521
 H332 H 0.30834 0.54751 -0.07693
 H333 H 0.23230 0.60648 0.02082
 H334 H 0.33744 0.52477 0.05697
 H335 H 0.38627 0.55375 -0.01983
 H336 H 0.31058 0.61409 0.07688
 C337 C 0.09968 -0.19037 0.54107
 C338 C 0.04946 -0.17661 0.53136
 C339 C 0.04365 -0.21902 0.50003
 C340 C 0.09392 -0.23306 0.50986
 C341 C 0.05959 -0.19056 0.45839
 C342 C 0.06487 -0.14816 0.48971
 C343 C 0.11477 -0.16197 0.49942
 C344 C 0.10988 -0.20418 0.46823
 H345 H 0.11586 -0.19073 0.57548
 H346 H 0.02664 -0.16310 0.55832
 H347 H 0.10691 -0.26774 0.51867
 H348 H 0.04500 -0.19007 0.42335
 H349 H 0.05246 -0.11306 0.48146
 H350 H 0.13510 -0.21545 0.44221
 C351 C 0.69017 0.40161 1.04296
 C352 C 0.73319 0.40630 1.01234
 C353 C 0.71926 0.45628 1.00081
 C354 C 0.67648 0.45150 1.03152
 C355 C 0.69145 0.43887 0.95915
 C356 C 0.70495 0.38883 0.97073
 C357 C 0.66236 0.38504 1.00141
 C358 C 0.64867 0.43456 0.98983
 H359 H 0.68963 0.38600 1.07759
 H360 H 0.76773 0.39356 1.02196
 H361 H 0.66275 0.47534 1.05754
 H362 H 0.69143 0.45260 0.92380
 H363 H 0.71702 0.36296 0.94565
 H364 H 0.61367 0.44638 0.98048
 C365 C 0.51141 0.06555 1.14863
 C366 C 0.54235 0.06130 1.19145
 C367 C 0.50070 0.04388 1.21899
 C368 C 0.46974 0.04861 1.17617
 C369 C 0.48915 0.09385 1.23281
 C370 C 0.53074 0.11135 1.20481
 C371 C 0.49980 0.11507 1.16219
 C372 C 0.45827 0.09849 1.18976
 H373 H 0.52067 0.05372 1.11377
 H374 H 0.57778 0.04750 1.19169
 H375 H 0.44360 0.02476 1.16236
 H376 H 0.47964 0.10650 1.26725
 H377 H 0.55591 0.13726 1.21692
 H378 H 0.42354 0.11406 1.18906
 C379 C 0.04247 0.68998 0.59873
 C380 C 0.03181 0.67623 0.54883
 C381 C 0.00052 0.71879 0.54356
 C382 C 0.01130 0.73281 0.59351
 C383 C -0.04110 0.69055 0.56018
 C384 C -0.00983 0.64800 0.56495
 C385 C 0.00084 0.66179 0.61452
 C386 C -0.03030 0.70415 0.61016
 H387 H 0.07726 0.69029 0.61424
 H388 H 0.05837 0.66263 0.52559
 H389 H 0.02046 0.76745 0.60635
 H390 H -0.07645 0.69016 0.54618
 H391 H -0.01852 0.61290 0.55284
 H392 H -0.05590 0.71556 0.63575
 C393 C 0.45651 0.90173 -0.18996
 C394 C 0.46799 0.95162 -0.17633
 C395 C 0.49872 0.95641 -0.21905
 C396 C 0.48715 0.90643 -0.23292
 C397 C 0.54053 0.93902 -0.19137
 C398 C 0.50983 0.93472 -0.14865
 C399 C 0.49822 0.88518 -0.16226
 C400 C 0.52892 0.88897 -0.20479
 H401 H 0.42180 0.88610 -0.18936
 H402 H 0.44189 0.97545 -0.16262
 H403 H 0.47747 0.89378 -0.26739
 H404 H 0.57595 0.95282 -0.19147
 H405 H 0.51926 0.94656 -0.11376
 H406 H 0.55406 0.86310 -0.21685
 C407 C 1.03031 0.29498 0.38965
 C408 C 1.04149 0.30871 0.43954
 C409 C 0.99966 0.28099 0.45646
 C410 C 0.98850 0.26686 0.40663
 C411 C 0.96880 0.32388 0.45119
 C412 C 1.01065 0.35160 0.43470
 C413 C 0.99952 0.33768 0.38530
 C414 C 0.95775 0.30999 0.40141
 H415 H 1.05566 0.28274 0.36420
 H416 H 1.07682 0.30874 0.45365
 H417 H 0.97892 0.23221 0.39412
 H418 H 0.94253 0.33773 0.47464
 H419 H 1.01986 0.38669 0.44641
 H420 H 0.92316 0.31051 0.38544
 C421 C 0.49017 0.93470 0.14863
 C422 C 0.45947 0.93899 0.19134
 C423 C 0.50128 0.95638 0.21902
 C424 C 0.53201 0.95160 0.17631
 C425 C 0.51285 0.90640 0.23289
 C426 C 0.47109 0.88894 0.20476
 C427 C 0.50179 0.88516 0.16223
 C428 C 0.54349 0.90171 0.18993
 H429 H 0.48075 0.94654 0.11374
 H430 H 0.42405 0.95279 0.19144
 H431 H 0.55811 0.97544 0.16261
 H432 H 0.52253 0.89376 0.26737
 H433 H 0.44595 0.86307 0.21681
 H434 H 0.57821 0.88609 0.18934
 C435 C -0.01063 0.35158 0.56531
 C436 C 0.03122 0.32387 0.54881
 C437 C 0.00035 0.28098 0.54354
 C438 C -0.04148 0.30870 0.56047
 C439 C 0.01151 0.26684 0.59336
 C440 C 0.04227 0.30997 0.59859
 C441 C 0.00050 0.33766 0.61471
 C442 C -0.03030 0.29497 0.61035
 H443 H -0.01983 0.38669 0.55361
 H444 H 0.05749 0.33772 0.52537
 H445 H -0.07680 0.30873 0.54635
 H446 H 0.02109 0.23219 0.60587
 H447 H 0.07686 0.31048 0.61457
 H448 H -0.05565 0.28272 0.63580
 C449 C 0.48857 0.06557 0.85135
 C450 C 0.45763 0.06132 0.80854
 C451 C 0.49928 0.04391 0.78099
 C452 C 0.53025 0.04864 0.82381
 C453 C 0.51083 0.09388 0.76717
 C454 C 0.46923 0.11137 0.79518
 C455 C 0.50018 0.11510 0.83780
 C456 C 0.54171 0.09852 0.81022
 H457 H 0.47933 0.05373 0.88622
 H458 H 0.42221 0.04752 0.80830
 H459 H 0.55639 0.02479 0.83762
 H460 H 0.52033 0.10653 0.73273
 H461 H 0.44406 0.13729 0.78307
 H462 H 0.57644 0.11410 0.81092
 C463 C 0.95750 0.68998 0.40130
 C464 C 0.96817 0.67623 0.45120
 C465 C 0.99946 0.71880 0.45648
 C466 C 0.98868 0.73282 0.40653
 C467 C 1.04107 0.69055 0.43986
 C468 C 1.00981 0.64800 0.43508
 C469 C 0.99914 0.66180 0.38551
 C470 C 1.03028 0.70416 0.38988
 H471 H 0.92271 0.69029 0.38579
 H472 H 0.94160 0.66263 0.47444
 H473 H 0.97950 0.76746 0.39369
 H474 H 1.07643 0.69017 0.45385
 H475 H 1.01850 0.61291 0.44718
 H476 H 1.05587 0.71558 0.36429
 C477 C 1.20416 0.46915 0.10956
 C478 C 1.19049 0.45849 0.05954
 C479 C 1.21874 0.50016 0.04294
 C480 C 1.23286 0.51078 0.09290
 C481 C 1.17631 0.53157 0.04808
 C482 C 1.14807 0.48990 0.06419
 C483 C 1.16196 0.50047 0.11378
 C484 C 1.19019 0.54211 0.09796
 H485 H 1.21554 0.44343 0.13524
 H486 H 1.19024 0.42316 0.04546
 H487 H 1.26755 0.51976 0.10572
 H488 H 1.16269 0.55826 0.02477
 H489 H 1.11299 0.48133 0.05199
 H490 H 1.19063 0.57694 0.11336
 C491 C 0.56418 -0.01037 0.64885
 C492 C 0.55977 -0.04134 0.69152
 C493 C 0.54256 0.00044 0.71918
 C494 C 0.54743 0.03144 0.67651
 C495 C 0.59249 0.01180 0.73327
 C496 C 0.60977 -0.02994 0.70518
 C497 C 0.61366 0.00103 0.66270
 C498 C 0.59728 0.04270 0.69037
 H499 H 0.55235 -0.01957 0.61389
 H500 H 0.54589 -0.07678 0.69158
 H501 H 0.52373 0.05772 0.66271
 H502 H 0.60516 0.02128 0.76780
 H503 H 0.63553 -0.05525 0.71733
 H504 H 0.61299 0.07743 0.68990
 C505 C -0.20415 0.46911 0.89046
 C506 C -0.19048 0.45846 0.94049
 C507 C -0.21872 0.50013 0.95708
 C508 C -0.23284 0.51075 0.90712
 C509 C -0.17630 0.53154 0.95194
 C510 C -0.14805 0.48987 0.93584
 C511 C -0.16194 0.50043 0.88624
 C512 C -0.19018 0.54207 0.90205
 H513 H -0.21552 0.44339 0.86479
 H514 H -0.19023 0.42313 0.95457
 H515 H -0.26753 0.51973 0.89430
 H516 H -0.16268 0.55823 0.97524
 H517 H -0.11297 0.48130 0.94804
 H518 H -0.19062 0.57690 0.88666
 C519 C 0.43581 -0.01040 0.35112
 C520 C 0.44022 -0.04138 0.30845
 C521 C 0.45743 0.00040 0.28080
 C522 C 0.45256 0.03140 0.32346
 C523 C 0.40749 0.01176 0.26671
 C524 C 0.39022 -0.02998 0.29480
 C525 C 0.38633 0.00098 0.33727
 C526 C 0.40270 0.04266 0.30960
 H527 H 0.44764 -0.01960 0.38609
 H528 H 0.45410 -0.07682 0.30840
 H529 H 0.47625 0.05769 0.33727
 H530 H 0.39483 0.02124 0.23217
 H531 H 0.36446 -0.05529 0.28265
 H532 H 0.38699 0.07738 0.31008
 C533 C 0.14788 0.51001 0.93427
 C534 C 0.17625 0.46838 0.95048
 C535 C 0.21863 0.49987 0.95583
 C536 C 0.19026 0.54149 0.93912
 C537 C 0.23258 0.48929 0.90593
 C538 C 0.18994 0.45789 0.90065
 C539 C 0.16158 0.49949 0.88473
 C540 C 0.20375 0.53088 0.88915
 H541 H 0.11284 0.51851 0.94634
 H542 H 0.16275 0.44168 0.97372
 H543 H 0.19001 0.57682 0.95322
 H544 H 0.26724 0.48037 0.89327
 H545 H 0.19035 0.42308 0.88520
 H546 H 0.21499 0.55662 0.86354
 C547 C 0.56639 0.01075 0.35152
 C548 C 0.56199 0.04173 0.30883
 C549 C 0.54477 -0.00005 0.28103
 C550 C 0.54965 -0.03105 0.32373
 C551 C 0.59470 -0.01139 0.26734
 C552 C 0.61200 0.03034 0.29560
 C553 C 0.61588 -0.00065 0.33810
 C554 C 0.59949 -0.04231 0.31027
 H555 H 0.55455 0.01995 0.38638
 H556 H 0.54809 0.07716 0.30867
 H557 H 0.52598 -0.05735 0.33735
 H558 H 0.60729 -0.02087 0.23288
 H559 H 0.63778 0.05565 0.28372
 H560 H 0.61520 -0.07703 0.31086
 C561 C 0.79625 0.53088 0.11087
 C562 C 0.80975 0.54148 0.06090
 C563 C 0.78137 0.49985 0.04419
 C564 C 0.76742 0.48928 0.09409
 C565 C 0.82376 0.46837 0.04955
 C566 C 0.85212 0.51000 0.06575
 C567 C 0.83842 0.49948 0.11530
 C568 C 0.81006 0.45788 0.09938
 H569 H 0.78502 0.55663 0.13647
 H570 H 0.81000 0.57680 0.04678
 H571 H 0.73276 0.48037 0.10675
 H572 H 0.83726 0.44166 0.02632
 H573 H 0.88717 0.51849 0.05368
 H574 H 0.80965 0.42308 0.11484
 C575 C 0.38799 0.03035 0.70438
 C576 C 0.40529 -0.01138 0.73264
 C577 C 0.45522 -0.00003 0.71895
 C578 C 0.43800 0.04176 0.69115
 C579 C 0.45034 -0.03103 0.67625
 C580 C 0.40051 -0.04229 0.68971
 C581 C 0.38411 -0.00063 0.66188
 C582 C 0.43360 0.01077 0.64846
 H583 H 0.36220 0.05566 0.71626
 H584 H 0.39270 -0.02085 0.76710
 H585 H 0.45189 0.07719 0.69131
 H586 H 0.47402 -0.05732 0.66263
 H587 H 0.38480 -0.07702 0.68912
 H588 H 0.44544 0.01997 0.61360
   
