data_POSCAR
  _audit_creation_date              2014-09-24
  _audit_creation_method            'ToBaCCo'
  _symmetry_space_group_name_H-M    'P1'
  _symmetry_Int_Tables_number       1
  _symmetry_cell_setting            triclinic
  loop_
  _symmetry_equiv_pos_as_xyz
 x,y,z
_cell_length_a 37.4202
_cell_length_b 39.8027
_cell_length_c 39.1162
_cell_angle_alpha 88.025600
_cell_angle_beta 89.947500
_cell_angle_gamma 89.672400
loop_
  _atom_site_label
  _atom_site_type_symbol
  _atom_site_fract_x
  _atom_site_fract_y
  _atom_site_fract_z
C1 C 0.18092 0.20666 0.24077
 N2 N 0.21049 0.18751 0.23510
 C3 C 0.22860 0.19108 0.20508
 N4 N 0.21707 0.21382 0.18087
 C5 C 0.18748 0.23268 0.18614
 N6 N 0.16940 0.22910 0.21615
 C7 C 0.68334 0.71605 0.74977
 N8 N 0.71222 0.69617 0.74367
 C9 C 0.73307 0.70247 0.71577
 N10 N 0.72493 0.72872 0.69402
 C11 C 0.69614 0.74855 0.69979
 N12 N 0.67531 0.74212 0.72771
 C13 C 0.29030 0.79014 0.71421
 N14 N 0.27912 0.77585 0.68499
 C15 C 0.26360 0.79481 0.65968
 N16 N 0.25988 0.82830 0.66336
 C17 C 0.26977 0.84285 0.69272
 N18 N 0.28477 0.82366 0.71850
 C19 C 0.77708 0.24209 0.23360
 N20 N 0.76146 0.22415 0.20876
 C21 C 0.72575 0.22611 0.20336
 N22 N 0.70555 0.24667 0.22244
 C23 C 0.72089 0.26558 0.24654
 N24 N 0.75673 0.26327 0.25227
 C25 C 0.83832 0.71116 0.29151
 N26 N 0.83230 0.68047 0.27871
 C27 C 0.80629 0.66042 0.29213
 N28 N 0.78602 0.67129 0.31837
 C29 C 0.79202 0.70190 0.33151
 N30 N 0.81821 0.72182 0.31802
 C31 C 0.28111 0.23245 -0.25723
 N32 N 0.25076 0.21479 -0.25097
 C33 C 0.23031 0.22082 -0.22321
 N34 N 0.24031 0.24492 -0.20142
 C35 C 0.27073 0.26269 -0.20729
 N36 N 0.29120 0.25627 -0.23516
 C37 C 0.67944 0.27418 -0.21332
 N38 N 0.69041 0.30193 -0.23135
 C39 C 0.72100 0.31790 -0.22277
 N40 N 0.74086 0.30564 -0.19588
 C41 C 0.73001 0.27756 -0.17790
 N42 N 0.69934 0.26209 -0.18672
 C43 C 0.22114 0.75566 0.25742
 N44 N 0.23888 0.74525 0.28609
 C45 C 0.26394 0.76508 0.30000
 N46 N 0.27124 0.79566 0.28518
 C47 C 0.25346 0.80637 0.25649
 N48 N 0.22833 0.78628 0.24279
 C49 C 0.50506 0.44809 0.49495
 N50 N 0.47728 0.46094 0.51264
 C51 C 0.46116 0.48989 0.50151
 N52 N 0.47266 0.50581 0.47231
 C53 C 0.50052 0.49309 0.45451
 N54 N 0.51665 0.46421 0.46591
 C55 C -0.00068 -0.05700 0.99377
 N56 N 0.00639 -0.04338 0.96222
 C57 C -0.01424 -0.01808 0.94900
 N58 N -0.04186 -0.00619 0.96753
 C59 C -0.04901 -0.01937 0.99921
 N60 N -0.02854 -0.04510 1.01223
 C61 C 1.01712 0.57117 0.97050
 N62 N 1.00269 0.55355 0.94472
 C63 C 1.02074 0.52696 0.93207
 N64 N 1.05323 0.51819 0.94512
 C65 C 1.06792 0.53591 0.97043
 N66 N 1.04974 0.56228 0.98312
 C67 C 0.56346 0.08741 0.46332
 N68 N 0.59203 0.07063 0.45112
 C69 C 0.58787 0.04223 0.43350
 N70 N 0.55441 0.03115 0.42675
 C71 C 0.52542 0.04896 0.43719
 N72 N 0.53001 0.07661 0.45625
 C73 C -0.03991 0.06656 0.52657
 N74 N -0.06563 0.05101 0.50863
 C75 C -0.07511 0.01881 0.51706
 N76 N -0.05811 0.00202 0.54324
 C77 C -0.03180 0.01731 0.56084
 N78 N -0.02308 0.04960 0.55261
 C79 C 0.45133 0.55331 0.02881
 N80 N 0.48178 0.55985 0.04623
 C81 C 0.49362 0.53780 0.07123
 N82 N 0.47495 0.50925 0.07861
 C83 C 0.44470 0.50261 0.06104
 N84 N 0.43309 0.52467 0.03633
 C85 C 0.51349 -0.07268 0.01828
 N86 N 0.54041 -0.06145 -0.00247
 C87 C 0.56004 -0.03442 0.00620
 N88 N 0.55309 -0.01905 0.03589
 C89 C 0.52665 -0.03030 0.05697
 N90 N 0.50673 -0.05699 0.04802
 C91 C 1.01506 0.44333 0.50595
 N92 N 1.00574 0.45659 0.53632
 C93 C 1.02590 0.48083 0.55011
 N94 N 1.05527 0.49227 0.53315
 C95 C 1.06475 0.47948 0.50274
 N96 N 1.04476 0.45474 0.48924
 C97 C 0.44936 0.02157 0.21769
 H98 H 0.45040 0.04072 0.23664
 C99 C 0.47537 0.02080 0.19216
 H100 H 0.49635 0.03933 0.19221
 C101 C 0.41964 -0.02471 0.19433
 H102 H 0.39770 -0.04223 0.19500
 C103 C 0.44506 -0.02632 0.16823
 H104 H 0.44236 -0.04520 0.14912
 N105 N 0.42166 -0.00042 0.21789
 C106 C 0.32687 0.05370 0.25213
 H107 H 0.31568 0.03667 0.27134
 C108 C 0.30765 0.08258 0.24168
 H109 H 0.28210 0.08779 0.25344
 C110 C 0.37234 0.06663 0.21182
 H111 H 0.39702 0.06032 0.19939
 C112 C 0.35419 0.09560 0.20072
 H113 H 0.36607 0.11110 0.18059
 Zn114 Zn 0.38370 0.00562 0.24968
 N115 N 0.35878 0.04632 0.23728
 C116 C 0.38091 0.01758 0.32070
 N117 N 0.40245 0.00754 0.29490
 C118 C 0.43750 0.00005 0.30075
 C119 C 0.45267 0.00490 0.33281
 C120 C 0.39496 0.02268 0.35321
 C121 C 0.32938 -0.03045 0.21913
 C122 C 0.30635 -0.05731 0.21439
 C123 C 0.32862 -0.08344 0.26689
 C124 C 0.35123 -0.05597 0.27066
 N125 N 0.35139 -0.03038 0.24673
 H126 H 0.35297 0.02255 0.31594
 H127 H 0.45403 -0.00913 0.28042
 H128 H 0.48091 -0.00010 0.33648
 H129 H 0.37735 0.03177 0.37280
 H130 H 0.33024 -0.00980 0.20042
 H131 H 0.28960 -0.05681 0.19189
 H132 H 0.32915 -0.10382 0.28595
 H133 H 0.36913 -0.05537 0.29232
 C134 C 0.32116 0.10381 0.21539
 C135 C 0.47296 -0.00291 0.16646
 C136 C 0.30596 -0.08449 0.23832
 C137 C 0.43159 0.01723 0.35933
 C138 C 0.08929 -0.02365 0.70163
 H139 H 0.09881 -0.04394 0.71833
 C140 C 0.06622 -0.03065 0.67488
 H141 H 0.05911 -0.05652 0.67098
 C142 C 0.08602 0.03471 0.68788
 H143 H 0.09274 0.06021 0.69384
 C144 C 0.06278 0.02881 0.66073
 H145 H 0.05236 0.04996 0.64562
 N146 N 0.09825 0.00858 0.70803
 C147 C 0.16208 -0.04608 0.75827
 H148 H 0.13732 -0.05626 0.76828
 C149 C 0.19010 -0.06792 0.75020
 H150 H 0.18648 -0.09479 0.75377
 C151 C 0.19542 0.00079 0.73769
 H152 H 0.19723 0.02735 0.73179
 C153 C 0.22379 -0.02010 0.72890
 H154 H 0.24692 -0.00929 0.71611
 Zn155 Zn 0.12256 0.01479 0.74984
 N156 N 0.16464 -0.01252 0.75062
 C157 C 0.10037 -0.01014 0.81605
 N158 N 0.09005 0.00164 0.78450
 C159 C 0.05560 0.01072 0.77790
 C160 C 0.03015 0.00944 0.80375
 C161 C 0.07555 -0.01191 0.84283
 C162 C 0.15209 0.07997 0.73314
 C163 C 0.16216 0.11279 0.74045
 C164 C 0.13185 0.10668 0.79476
 C165 C 0.12278 0.07403 0.78663
 N166 N 0.13350 0.06095 0.75655
 H167 H 0.12816 -0.01623 0.82089
 H168 H 0.04820 0.02080 0.75289
 H169 H 0.00313 0.01752 0.79788
 H170 H 0.08427 -0.02004 0.86819
 H171 H 0.15970 0.06951 0.70902
 H172 H 0.17790 0.12721 0.72199
 H173 H 0.12391 0.11573 0.81940
 H174 H 0.10794 0.05894 0.80506
 C175 C 0.22054 -0.05502 0.73359
 C176 C 0.05187 -0.00417 0.65452
 C177 C 0.15242 0.12633 0.77185
 C178 C 0.04027 -0.00090 0.83696
 C179 C 0.59399 0.48481 0.20437
 H180 H 0.58498 0.46228 0.21780
 C181 C 0.57596 0.49640 0.17490
 H182 H 0.55337 0.48236 0.16582
 C183 C 0.63328 0.53118 0.20049
 H184 H 0.65481 0.54545 0.21106
 C185 C 0.61613 0.54359 0.17098
 H186 H 0.62542 0.56690 0.15922
 N187 N 0.62212 0.50226 0.21662
 C188 C 0.68872 0.43033 0.26126
 H189 H 0.71079 0.44749 0.25843
 C190 C 0.69567 0.39583 0.26492
 H191 H 0.72304 0.38687 0.26422
 C192 C 0.62651 0.42086 0.26644
 H193 H 0.59963 0.43082 0.26777
 C194 C 0.63228 0.38629 0.27063
 H195 H 0.60942 0.37002 0.27400
 Zn196 Zn 0.64407 0.48902 0.25899
 N197 N 0.65449 0.44215 0.26161
 C198 C 0.61768 0.48358 0.32611
 N199 N 0.61219 0.49860 0.29481
 C200 C 0.58429 0.52006 0.28895
 C201 C 0.56038 0.52706 0.31523
 C202 C 0.59422 0.48959 0.35301
 C203 C 0.71208 0.51300 0.23962
 C204 C 0.74152 0.53432 0.24049
 C205 C 0.71768 0.55771 0.29200
 C206 C 0.68880 0.53584 0.29023
 N207 N 0.68626 0.51440 0.26404
 H208 H 0.64018 0.46671 0.33006
 H209 H 0.58056 0.53181 0.26387
 H210 H 0.53815 0.54389 0.30984
 H211 H 0.59882 0.47719 0.37771
 H212 H 0.70903 0.49624 0.21864
 H213 H 0.76102 0.53344 0.22013
 H214 H 0.71874 0.57522 0.31256
 H215 H 0.66784 0.53686 0.30918
 C216 C 0.66728 0.37334 0.26982
 C217 C 0.58680 0.52632 0.15792
 C218 C 0.74421 0.55750 0.26664
 C219 C 0.56516 0.51160 0.34775
 C220 C 0.93444 0.52092 0.70801
 H221 H 0.93443 0.53829 0.72868
 C222 C 0.96153 0.52246 0.68365
 H223 H 0.98204 0.54119 0.68619
 C224 C 0.90664 0.47619 0.67997
 H225 H 0.88514 0.45828 0.67869
 C226 C 0.93337 0.47694 0.65478
 H227 H 0.93216 0.45947 0.63420
 N228 N 0.90745 0.49843 0.70561
 C229 C 0.82506 0.55772 0.75516
 H230 H 0.81942 0.54400 0.77889
 C231 C 0.80851 0.58897 0.74808
 H232 H 0.79026 0.59924 0.76656
 C233 C 0.85526 0.56105 0.70197
 H234 H 0.87264 0.54994 0.68341
 C235 C 0.83957 0.59208 0.69400
 H236 H 0.84547 0.60404 0.66942
 Zn237 Zn 0.87235 0.50270 0.74025
 N238 N 0.84849 0.54472 0.73238
 C239 C 0.90082 0.52651 0.80355
 N240 N 0.89856 0.50088 0.78155
 C241 C 0.91861 0.47253 0.78603
 C242 C 0.94228 0.46903 0.81332
 C243 C 0.92449 0.52413 0.83129
 C244 C 0.81791 0.46323 0.71230
 C245 C 0.79245 0.43767 0.71187
 C246 C 0.80963 0.42083 0.76944
 C247 C 0.83457 0.44683 0.76886
 N248 N 0.83853 0.46722 0.74044
 H249 H 0.88528 0.54919 0.79904
 H250 H 0.91670 0.45282 0.76776
 H251 H 0.95786 0.44615 0.81579
 H252 H 0.92665 0.54500 0.84819
 H253 H 0.82122 0.48000 0.69018
 H254 H 0.77665 0.43490 0.68902
 H255 H 0.80687 0.40498 0.79234
 H256 H 0.85040 0.45085 0.79138
 C257 C 0.81619 0.60677 0.71731
 C258 C 0.96116 0.50051 0.65631
 C259 C 0.78802 0.41606 0.74080
 C260 C 0.94602 0.49528 0.83611
 C261 C 0.21900 0.43374 0.02277
 H262 H 0.23500 0.42742 0.04512
 C263 C 0.19688 0.46196 0.02264
 H264 H 0.19609 0.47704 0.04511
 C265 C 0.19969 0.42043 -0.03283
 H266 H 0.20076 0.40405 -0.05425
 C267 C 0.17665 0.44829 -0.03383
 H268 H 0.16010 0.45318 -0.05617
 N269 N 0.21983 0.41347 -0.00450
 C270 C 0.24117 0.31573 0.04444
 H271 H 0.26717 0.30881 0.03472
 C272 C 0.22543 0.29641 0.07091
 H273 H 0.23951 0.27454 0.08134
 C274 C 0.19186 0.35327 0.04355
 H275 H 0.17876 0.37554 0.03305
 C276 C 0.17508 0.33462 0.06969
 H277 H 0.14946 0.34321 0.07881
 Zn278 Zn 0.24894 0.37470 0.00174
 N279 N 0.22490 0.34436 0.03233
 C280 C 0.30501 0.37790 0.05202
 N281 N 0.29189 0.39010 0.02157
 C282 C 0.30781 0.41625 0.00442
 C283 C 0.33829 0.43099 0.01753
 C284 C 0.33573 0.39184 0.06603
 C285 C 0.23295 0.34079 -0.05966
 C286 C 0.24085 0.32726 -0.09146
 C287 C 0.30291 0.34072 -0.08285
 C288 C 0.29396 0.35356 -0.05124
 N289 N 0.25936 0.35420 -0.04055
 H290 H 0.29149 0.35781 0.06587
 H291 H 0.29646 0.42588 -0.01941
 H292 H 0.35038 0.45189 0.00341
 H293 H 0.34549 0.38201 0.09041
 H294 H 0.20571 0.34094 -0.05039
 H295 H 0.21951 0.31713 -0.10661
 H296 H 0.33066 0.34071 -0.09063
 H297 H 0.31488 0.36315 -0.03541
 C298 C 0.19239 0.30636 0.08453
 C299 C 0.17498 0.46932 -0.00575
 C300 C 0.27615 0.32778 -0.10368
 C301 C 0.35264 0.41887 0.04871
 C302 C 0.72205 0.05026 -0.02412
 H303 H 0.75005 0.04354 -0.02344
 C304 C 0.69681 0.02574 -0.03112
 H305 H 0.70558 0.00023 -0.03530
 C306 C 0.67638 0.09121 -0.01859
 H307 H 0.66860 0.11681 -0.01363
 C308 C 0.65019 0.06718 -0.02428
 H309 H 0.62222 0.07428 -0.02343
 N310 N 0.71147 0.08206 -0.01697
 C311 C 0.78238 0.16896 -0.03318
 H312 H 0.80117 0.16536 -0.01244
 C313 C 0.78696 0.19586 -0.05672
 H314 H 0.80902 0.21285 -0.05330
 C315 C 0.73136 0.15082 -0.06295
 H316 H 0.70965 0.13334 -0.06540
 C317 C 0.73487 0.17737 -0.08696
 H318 H 0.71569 0.17987 -0.10762
 Zn319 Zn 0.74665 0.11280 -0.00208
 N320 N 0.75455 0.14737 -0.03629
 C321 C 0.81701 0.08816 -0.01447
 N322 N 0.78879 0.08810 0.00741
 C323 C 0.78855 0.06828 0.03642
 C324 C 0.81734 0.04700 0.04426
 C325 C 0.84636 0.06713 -0.00767
 C326 C 0.75528 0.15427 0.05389
 C327 C 0.74659 0.16940 0.08448
 C328 C 0.69121 0.13862 0.08590
 C329 C 0.70121 0.12370 0.05554
 N330 N 0.73237 0.13236 0.03961
 H331 H 0.81630 0.10373 -0.03766
 H332 H 0.76549 0.06847 0.05311
 H333 H 0.81605 0.03103 0.06714
 H334 H 0.86834 0.06700 -0.02570
 H335 H 0.78057 0.15981 0.04180
 H336 H 0.76507 0.18701 0.09526
 H337 H 0.66627 0.13141 0.09802
 H338 H 0.68416 0.10484 0.04525
 C339 C 0.76268 0.20060 -0.08385
 C340 C 0.66039 0.03393 -0.03005
 C341 C 0.71394 0.16204 0.10053
 C342 C 0.84660 0.04594 0.02184
 C343 C 0.22586 0.57451 0.46471
 H344 H 0.25036 0.57481 0.45000
 C345 C 0.19993 0.55031 0.45877
 H346 H 0.20485 0.53218 0.43932
 C347 C 0.19085 0.59717 0.50894
 H348 H 0.18778 0.61504 0.52893
 C349 C 0.16431 0.57324 0.50401
 H350 H 0.14073 0.57325 0.52008
 N351 N 0.22088 0.59738 0.48934
 C352 C 0.29545 0.67788 0.46275
 H353 H 0.30960 0.67871 0.48682
 C354 C 0.30344 0.70108 0.43638
 H355 H 0.32392 0.71954 0.44054
 C356 C 0.25070 0.65315 0.42913
 H357 H 0.22964 0.63493 0.42673
 C358 C 0.25778 0.67595 0.40206
 H359 H 0.24219 0.67476 0.37883
 Zn360 Zn 0.25910 0.62698 0.49765
 N361 N 0.26953 0.65454 0.45872
 C362 C 0.32836 0.60045 0.48874
 N363 N 0.29915 0.60021 0.50941
 C364 C 0.29695 0.57904 0.53734
 C365 C 0.32499 0.55687 0.54545
 C366 C 0.35691 0.57873 0.49583
 C367 C 0.22120 0.67921 0.52559
 C368 C 0.21613 0.70691 0.54593
 C369 C 0.26577 0.68778 0.58108
 C370 C 0.26996 0.66039 0.55996
 N371 N 0.24822 0.65707 0.53244
 H372 H 0.32923 0.61678 0.46614
 H373 H 0.27308 0.57900 0.55296
 H374 H 0.32233 0.53992 0.56748
 H375 H 0.37970 0.57899 0.47873
 H376 H 0.20475 0.67627 0.50316
 H377 H 0.19497 0.72457 0.53935
 H378 H 0.28423 0.69087 0.60203
 H379 H 0.29187 0.64301 0.56443
 C380 C 0.28424 0.70052 0.40560
 C381 C 0.16869 0.54932 0.47872
 C382 C 0.23938 0.71208 0.57341
 C383 C 0.35534 0.55635 0.52428
 C384 C 0.70301 0.92536 0.49049
 H385 H 0.71757 0.92724 0.51423
 C386 C 0.68463 0.95313 0.47699
 H387 H 0.68465 0.97634 0.49068
 C388 C 0.68753 0.89351 0.44257
 H389 H 0.69008 0.87060 0.42869
 C390 C 0.66854 0.92096 0.42805
 H391 H 0.65615 0.91907 0.40319
 N392 N 0.70473 0.89652 0.47301
 C393 C 0.74649 0.82789 0.55325
 H394 H 0.77174 0.82030 0.54236
 C395 C 0.73574 0.81453 0.58518
 H396 H 0.75306 0.79680 0.59885
 C397 C 0.69279 0.85943 0.54819
 H398 H 0.67556 0.87616 0.53335
 C399 C 0.68114 0.84689 0.58002
 H400 H 0.65514 0.85454 0.58909
 Zn401 Zn 0.73876 0.86547 0.49092
 N402 N 0.72504 0.84996 0.53549
 C403 C 0.80029 0.89769 0.51969
 N404 N 0.78179 0.89037 0.49096
 C405 C 0.78987 0.90529 0.46016
 C406 C 0.81637 0.92963 0.45749
 C407 C 0.82735 0.92197 0.51811
 C408 C 0.71411 0.80798 0.45941
 C409 C 0.71577 0.78019 0.43859
 C410 C 0.77694 0.79441 0.42489
 C411 C 0.77423 0.82169 0.44623
 N412 N 0.74300 0.82818 0.46260
 H413 H 0.79288 0.88612 0.54406
 H414 H 0.77436 0.89940 0.43784
 H415 H 0.82155 0.94167 0.43278
 H416 H 0.84091 0.92865 0.54134
 H417 H 0.68969 0.81364 0.47292
 H418 H 0.69228 0.76476 0.43605
 H419 H 0.80194 0.78975 0.41186
 H420 H 0.79713 0.83761 0.44964
 C421 C 0.70264 0.82399 0.59897
 C422 C 0.66800 0.95136 0.44507
 C423 C 0.74751 0.77325 0.42089
 C424 C 0.83472 0.93906 0.48688
 C425 C -0.01984 0.23174 0.44332
 H426 H -0.01001 0.25675 0.44744
 C427 C -0.02020 0.20818 0.47047
 H428 H -0.01148 0.21587 0.49534
 C429 C -0.04170 0.19140 0.40549
 H430 H -0.04898 0.18487 0.37981
 C431 C -0.04245 0.16692 0.43207
 H432 H -0.05070 0.14161 0.42670
 N433 N -0.02989 0.22293 0.41148
 C434 C 0.04057 0.26281 0.33124
 H435 H 0.02699 0.28528 0.32165
 C436 C 0.07267 0.25267 0.31615
 H437 H 0.08368 0.26753 0.29499
 C438 C 0.04250 0.21576 0.36991
 H439 H 0.03070 0.20103 0.39060
 C440 C 0.07470 0.20501 0.35593
 H441 H 0.08675 0.18203 0.36611
 Zn442 Zn -0.02058 0.25423 0.37503
 N443 N 0.02561 0.24382 0.35705
 C444 C 0.00935 0.31524 0.39886
 N445 N -0.02130 0.29776 0.39387
 C446 C -0.05290 0.30834 0.40700
 C447 C -0.05438 0.33633 0.42732
 C448 C 0.00909 0.34352 0.41931
 C449 C -0.04663 0.24704 0.30736
 C450 C -0.07236 0.24398 0.28187
 C451 C -0.11837 0.24805 0.32478
 C452 C -0.09169 0.25049 0.34960
 N453 N -0.05651 0.25055 0.34055
 H454 H 0.03438 0.30614 0.38881
 H455 H -0.07683 0.29403 0.40344
 H456 H -0.07985 0.34349 0.43804
 H457 H 0.03395 0.35617 0.42448
 H458 H -0.01879 0.24621 0.30042
 H459 H -0.06375 0.24128 0.25568
 H460 H -0.14617 0.24777 0.33249
 H461 H -0.09922 0.25137 0.37619
 C462 C 0.08994 0.22319 0.32827
 C463 C -0.03060 0.17499 0.46484
 C464 C -0.10877 0.24447 0.29046
 C465 C -0.02291 0.35355 0.43484
 C466 C -0.02420 0.71131 0.07503
 H467 H -0.04209 0.73238 0.07840
 C468 C -0.03125 0.68823 0.04981
 H469 H -0.05481 0.69177 0.03410
 C470 C 0.02906 0.68227 0.09076
 H471 H 0.05301 0.68053 0.10611
 C472 C 0.02312 0.65870 0.06582
 H473 H 0.04243 0.63867 0.06269
 N474 N 0.00551 0.70794 0.09489
 C475 C -0.01683 0.76998 0.18239
 H476 H 0.00574 0.78682 0.18068
 C477 C -0.04099 0.77221 0.20944
 H478 H -0.03675 0.79098 0.22833
 C479 C -0.04836 0.72395 0.16049
 H480 H -0.05061 0.70468 0.14185
 C481 C -0.07298 0.72511 0.18726
 H482 H -0.09439 0.70692 0.18862
 Zn483 Zn 0.01534 0.74251 0.12541
 N484 N -0.02096 0.74621 0.15858
 C485 C -0.00139 0.80986 0.10299
 N486 N 0.01972 0.78244 0.09855
 C487 C 0.04483 0.78199 0.07347
 C488 C 0.05022 0.81019 0.05208
 C489 C 0.00295 0.83864 0.08197
 C490 C 0.06020 0.70609 0.17056
 C491 C 0.09002 0.70039 0.19144
 C492 C 0.11517 0.75239 0.16897
 C493 C 0.08499 0.75702 0.14847
 N494 N 0.05825 0.73402 0.14963
 H495 H -0.02177 0.80939 0.12257
 H496 H 0.06080 0.75957 0.07021
 H497 H 0.07025 0.80895 0.03223
 H498 H -0.01410 0.86028 0.08573
 H499 H 0.03816 0.68861 0.17155
 H500 H 0.09056 0.67832 0.20834
 H501 H 0.13586 0.77131 0.16810
 H502 H 0.08252 0.77960 0.13254
 C503 C -0.06938 0.74936 0.21225
 C504 C -0.00721 0.66161 0.04476
 C505 C 0.11783 0.72399 0.19107
 C506 C 0.02915 0.83908 0.05624
 C507 C 0.49670 0.20660 0.56879
 H508 H 0.47265 0.22078 0.56272
 C509 C 0.51083 0.18464 0.54506
 H510 H 0.49734 0.18157 0.52089
 C511 C 0.54500 0.19501 0.60667
 H512 H 0.55893 0.19991 0.63011
 C513 C 0.56042 0.17353 0.58341
 H514 H 0.58566 0.16138 0.58968
 N515 N 0.51392 0.21140 0.59887
 C516 C 0.43580 0.26343 0.66227
 H517 H 0.45121 0.28490 0.66971
 C518 C 0.40132 0.25853 0.67530
 H519 H 0.39018 0.27652 0.69258
 C520 C 0.43217 0.21317 0.63177
 H521 H 0.44462 0.19489 0.61580
 C522 C 0.39763 0.20747 0.64392
 H523 H 0.38412 0.18485 0.63673
 Zn524 Zn 0.49850 0.24660 0.62676
 N525 N 0.45046 0.24088 0.64088
 C526 C 0.47941 0.30971 0.59364
 N527 N 0.50528 0.28620 0.59989
 C528 C 0.53822 0.28904 0.58543
 C529 C 0.54639 0.31635 0.56373
 C530 C 0.48654 0.33769 0.57214
 C531 C 0.52698 0.22089 0.68866
 C532 C 0.55008 0.21955 0.71671
 C533 C 0.57235 0.27430 0.69902
 C534 C 0.54878 0.27464 0.67145
 N535 N 0.52740 0.24779 0.66628
 H536 H 0.45325 0.30668 0.60502
 H537 H 0.55821 0.26983 0.59075
 H538 H 0.57291 0.31799 0.55281
 H539 H 0.46568 0.35619 0.56719
 H540 H 0.50945 0.20001 0.68405
 H541 H 0.55007 0.19739 0.73349
 H542 H 0.58979 0.29559 0.70222
 H543 H 0.54812 0.29617 0.65390
 C544 C 0.38178 0.23024 0.66613
 C545 C 0.54360 0.16867 0.55195
 C546 C 0.57365 0.24630 0.72177
 C547 C 0.52031 0.34103 0.55665
 C548 C 0.47759 0.69851 0.93672
 H549 H 0.49783 0.71540 0.94548
 C550 C 0.46945 0.66957 0.95651
 H551 H 0.48419 0.66408 0.97987
 C552 C 0.43233 0.68604 0.89704
 H553 H 0.41720 0.69250 0.87436
 C554 C 0.42324 0.65708 0.91604
 H555 H 0.40185 0.64170 0.90679
 N556 N 0.45973 0.70578 0.90701
 C557 C 0.52399 0.74421 0.82575
 H558 H 0.50256 0.75414 0.80985
 C559 C 0.55711 0.73699 0.81091
 H560 H 0.56070 0.74112 0.78361
 C561 C 0.54571 0.72701 0.88043
 H562 H 0.54157 0.72356 0.90755
 C563 C 0.57899 0.71909 0.86663
 H564 H 0.59988 0.70966 0.88355
 Zn565 Zn 0.47235 0.74482 0.87969
 N566 N 0.51860 0.73842 0.85990
 C567 C 0.50151 0.80249 0.90990
 N568 N 0.47287 0.78167 0.90884
 C569 C 0.44439 0.78553 0.92995
 C570 C 0.44420 0.81080 0.95381
 C571 C 0.50236 0.82825 0.93331
 C572 C 0.43510 0.72768 0.82074
 C573 C 0.40733 0.72837 0.79703
 C574 C 0.38637 0.78038 0.82016
 C575 C 0.41441 0.77841 0.84395
 N576 N 0.43750 0.75179 0.84441
 H577 H 0.52388 0.79889 0.89288
 H578 H 0.42202 0.76853 0.92858
 H579 H 0.42122 0.81318 0.97034
 H580 H 0.52556 0.84435 0.93413
 H581 H 0.45397 0.70696 0.82132
 H582 H 0.40554 0.70836 0.77907
 H583 H 0.36753 0.80111 0.82069
 H584 H 0.41698 0.79761 0.86266
 C585 C 0.58482 0.72346 0.83132
 C586 C 0.44206 0.64831 0.94612
 C587 C 0.38196 0.75450 0.79711
 C588 C 0.47369 0.83235 0.95601
 C589 C 0.16149 0.20350 0.27342
 C590 C 0.17113 0.18208 0.30028
 C591 C 0.14598 0.18683 0.32489
 C592 C 0.12273 0.21088 0.31123
 O593 O 0.13229 0.22109 0.27998
 H594 H 0.19372 0.16498 0.30171
 H595 H 0.14497 0.17418 0.34978
 C596 C 0.66108 0.70977 0.78033
 C597 C 0.66992 0.68762 0.80686
 C598 C 0.64278 0.69004 0.82990
 C599 C 0.61920 0.71344 0.81567
 O600 O 0.63030 0.72539 0.78549
 H601 H 0.69340 0.67170 0.80916
 H602 H 0.64029 0.67590 0.85389
 C603 C 0.31050 0.76930 0.73943
 C604 C 0.30991 0.73466 0.74005
 C605 C 0.33584 0.72464 0.76248
 C606 C 0.35070 0.75387 0.77390
 O607 O 0.33512 0.78117 0.76014
 H608 H 0.29333 0.71862 0.72497
 H609 H 0.34344 0.69898 0.76919
 C610 C -0.18641 0.23804 0.24001
 C611 C -0.16366 0.21970 0.21990
 C612 C -0.13124 0.22074 0.23547
 C613 C -0.13650 0.23930 0.26424
 O614 O -0.17002 0.24993 0.26704
 H615 H -0.17003 0.20675 0.19681
 H616 H -0.10702 0.20830 0.22744
 C617 C -0.13417 0.73276 0.27577
 C618 C -0.12422 0.76379 0.28695
 C619 C -0.09831 0.77467 0.26467
 C620 C -0.09453 0.74941 0.24148
 O621 O -0.11635 0.72406 0.24828
 H622 H -0.13464 0.77689 0.30864
 H623 H -0.08427 0.79831 0.26526
 C624 C 0.30233 0.22503 0.71465
 C625 C 0.29360 0.20151 0.69096
 C626 C 0.32177 0.20080 0.66903
 C627 C 0.34587 0.22386 0.68091
 O628 O 0.33391 0.23880 0.70851
 H629 H 0.26968 0.18638 0.68998
 H630 H 0.32427 0.18508 0.64714
 C631 C 0.64648 0.25712 0.77702
 C632 C 0.63256 0.22915 0.79387
 C633 C 0.60275 0.22124 0.77587
 C634 C 0.60073 0.24505 0.74933
 O635 O 0.62726 0.26683 0.75016
 H636 H 0.64305 0.21598 0.81639
 H637 H 0.58491 0.20051 0.78153
 C638 C 0.19306 0.73466 0.24329
 C639 C 0.18520 0.70241 0.25473
 C640 C 0.15626 0.69327 0.23612
 C641 C 0.14856 0.72077 0.21475
 O642 O 0.17105 0.74579 0.21907
 H643 H 0.19862 0.68756 0.27460
 H644 H 0.14237 0.66955 0.23840
 C645 C 0.26059 0.17070 0.19834
 C646 C 0.28192 0.17572 0.16994
 C647 C 0.30777 0.15170 0.17264
 C648 C 0.30041 0.13355 0.20261
 O649 O 0.27160 0.14512 0.21825
 H650 H 0.27880 0.19452 0.14949
 H651 H 0.32887 0.14773 0.15431
 C652 C 0.76415 0.68101 0.70860
 C653 C 0.78903 0.68887 0.68368
 C654 C 0.81223 0.66252 0.68407
 C655 C 0.79977 0.64014 0.70912
 O656 O 0.77060 0.65154 0.72429
 H657 H 0.79002 0.71116 0.66706
 H658 H 0.83547 0.66016 0.66786
 C659 C 0.73170 0.34653 0.75827
 C660 C 0.71364 0.35955 0.72999
 C661 C 0.73249 0.38709 0.71926
 C662 C 0.76076 0.38909 0.74178
 O663 O 0.76027 0.36444 0.76554
 H664 H 0.68947 0.35018 0.71858
 H665 H 0.72578 0.40393 0.69792
 C666 C 0.26046 -0.16198 0.24174
 C667 C 0.24360 -0.14856 0.21301
 C668 C 0.25811 -0.11750 0.20769
 C669 C 0.28287 -0.11417 0.23360
 O670 O 0.28421 -0.14122 0.25427
 H671 H 0.22312 -0.15997 0.19778
 H672 H 0.25114 -0.09966 0.18729
 C673 C 0.26361 -0.12282 0.69569
 C674 C 0.26304 -0.10060 0.66783
 C675 C 0.25105 -0.07109 0.67994
 C676 C 0.24386 -0.07756 0.71414
 O677 O 0.25176 -0.10902 0.72394
 H678 H 0.26942 -0.10571 0.64150
 H679 H 0.24486 -0.04849 0.66488
 C680 C 0.69861 0.29010 0.26390
 C681 C 0.66560 0.28250 0.27756
 C682 C 0.64994 0.31269 0.28358
 C683 C 0.67434 0.33665 0.27249
 O684 O 0.70402 0.32287 0.26070
 H685 H 0.65371 0.25790 0.28104
 H686 H 0.62331 0.31654 0.29354
 C687 C 0.79916 0.62766 0.27760
 C688 C 0.81950 0.61315 0.25263
 C689 C 0.80236 0.58408 0.24550
 C690 C 0.77272 0.58310 0.26666
 O691 O 0.77095 0.60951 0.28622
 H692 H 0.84363 0.62285 0.24072
 H693 H 0.81045 0.56618 0.22677
 C694 C 0.20077 0.20064 0.78370
 C695 C 0.17773 0.20401 0.81091
 C696 C 0.15511 0.17736 0.80946
 C697 C 0.16613 0.15956 0.78150
 O698 O 0.19361 0.17395 0.76573
 H699 H 0.17795 0.22307 0.83000
 H700 H 0.13379 0.17139 0.82728
 C701 C 0.17598 0.25724 0.15951
 C702 C 0.14455 0.27535 0.15993
 C703 C 0.14554 0.29569 0.13116
 C704 C 0.17769 0.28853 0.11534
 O705 O 0.19602 0.26506 0.13259
 H706 H 0.12365 0.27414 0.17907
 H707 H 0.12535 0.31389 0.12333
 C708 C 0.68770 0.77655 0.67557
 C709 C 0.65951 0.79859 0.67892
 C710 C 0.66126 0.81978 0.65083
 C711 C 0.69047 0.80908 0.63229
 O712 O 0.70655 0.78287 0.64746
 H713 H 0.63997 0.79907 0.69931
 H714 H 0.64328 0.84052 0.64488
 C715 C 0.76988 0.71381 0.35969
 C716 C 0.74054 0.69720 0.37307
 C717 C 0.72775 0.71724 0.39795
 C718 C 0.75039 0.74456 0.39796
 O719 O 0.77597 0.74242 0.37474
 H720 H 0.72970 0.67343 0.36550
 H721 H 0.70493 0.71218 0.41427
 C722 C 0.28246 0.28729 -0.18246
 C723 C 0.31348 0.30562 -0.18547
 C724 C 0.31523 0.32354 -0.15649
 C725 C 0.28508 0.31484 -0.13779
 O726 O 0.26505 0.29292 -0.15368
 H727 H 0.33274 0.30559 -0.20613
 H728 H 0.33605 0.34092 -0.14997
 C729 C 0.75086 0.26299 -0.14917
 C730 C 0.78239 0.27535 -0.13667
 C731 C 0.79173 0.25363 -0.11025
 C732 C 0.76512 0.22958 -0.10870
 O733 O 0.74046 0.23539 -0.13236
 H734 H 0.79676 0.29745 -0.14567
 H735 H 0.81514 0.25535 -0.09425
 C736 C 0.28113 0.75390 0.33208
 C737 C 0.30841 0.77029 0.34807
 C738 C 0.31433 0.75211 0.37778
 C739 C 0.29001 0.72602 0.37768
 O740 O 0.27003 0.72717 0.34984
 H741 H 0.32191 0.79300 0.33941
 H742 H 0.33363 0.75783 0.39725
 C743 C 0.24971 0.77928 0.62890
 C744 C 0.22876 0.79600 0.60481
 C745 C 0.22113 0.77285 0.58114
 C746 C 0.23807 0.74358 0.59248
 O747 O 0.25550 0.74752 0.62154
 H748 H 0.22013 0.82201 0.60451
 H749 H 0.20584 0.77731 0.55798
 C750 C 0.70934 0.20676 0.17636
 C751 C 0.67318 0.20140 0.17301
 C752 C 0.66979 0.18303 0.14441
 C753 C 0.70420 0.17883 0.13234
 O754 O 0.72818 0.19322 0.15176
 H755 H 0.65189 0.21003 0.18932
 H756 H 0.64510 0.17460 0.13328
 C757 C 0.52112 0.41605 0.50646
 C758 C 0.55150 0.40214 0.49279
 C759 C 0.55594 0.37212 0.51012
 C760 C 0.52775 0.36994 0.53301
 O761 O 0.50665 0.39665 0.53072
 H762 H 0.56812 0.41247 0.47241
 H763 H 0.57680 0.35383 0.50581
 C764 C 0.02017 0.91400 0.00662
 C765 C 0.05182 0.90344 -0.00760
 C766 C 0.06036 0.87427 0.00974
 C767 C 0.03304 0.86905 0.03315
 O768 O 0.00877 0.89335 0.03137
 H769 H 0.06651 0.91527 -0.02856
 H770 H 0.08349 0.85864 0.00525
 C771 C -0.00119 0.59782 -0.01526
 C772 C -0.03449 0.60962 -0.02511
 C773 C -0.04178 0.63539 -0.00393
 C774 C -0.01235 0.63733 0.01732
 O775 O 0.01215 0.61452 0.01034
 H776 H -0.05142 0.60053 -0.04517
 H777 H -0.06579 0.65063 -0.00407
 C778 C 0.56949 0.11484 0.48680
 C779 C 0.60310 0.12567 0.49561
 C780 C 0.59776 0.14755 0.52101
 C781 C 0.56126 0.14858 0.52582
 O782 O 0.54390 0.12888 0.50494
 H783 H 0.62858 0.11767 0.48548
 H784 H 0.61808 0.16096 0.53461
 C785 C -0.03050 0.10167 0.51819
 C786 C -0.00903 0.12083 0.53831
 C787 C -0.00684 0.15125 0.52154
 C788 C -0.02713 0.14847 0.49223
 O789 O -0.04150 0.11825 0.49020
 H790 H 0.00373 0.11340 0.56224
 H791 H 0.00865 0.17245 0.52950
 C792 C 0.43761 0.57673 1.00191
 C793 C 0.40580 0.57203 0.98508
 C794 C 0.40290 0.59831 0.96217
 C795 C 0.43330 0.61730 0.96650
 O796 O 0.45438 0.60423 0.99085
 H797 H 0.38690 0.55177 0.98905
 H798 H 0.38095 0.60289 0.94464
 C799 C 0.49324 0.89970 1.00923
 C800 C 0.46481 0.88693 1.02792
 C801 C 0.45310 0.86019 1.01031
 C802 C 0.47528 0.85848 0.98210
 O803 O 0.49967 0.88250 0.98150
 H804 H 0.45403 0.89588 1.05165
 H805 H 0.43142 0.84365 1.01776
 C806 C -0.00575 0.41810 0.49231
 C807 C -0.03751 0.40701 0.50650
 C808 C -0.04877 0.38221 0.48616
 C809 C -0.02302 0.37969 0.46098
 O810 O 0.00323 0.40152 0.46472
 H811 H -0.05073 0.41572 0.52920
 H812 H -0.07236 0.36701 0.49019
 C813 C 0.43033 0.50314 0.51995
 C814 C 0.41747 0.49026 0.55069
 C815 C 0.38774 0.50892 0.55735
 C816 C 0.38468 0.53175 0.53002
 O817 O 0.41064 0.52823 0.50746
 H818 H 0.42819 0.46948 0.56611
 H819 H 0.37033 0.50573 0.57928
 C820 C 0.92215 -0.00679 0.01728
 C821 C 0.91137 -0.01766 0.04949
 C822 C 0.88164 0.00104 0.05630
 C823 C 0.87655 0.02193 0.02766
 O824 O 0.90123 0.01717 0.00415
 H825 H 0.92345 -0.03703 0.06587
 H826 H 0.86568 -0.00075 0.07933
 C827 C 0.58969 -0.02212 -0.01528
 C828 C 0.60569 -0.03945 -0.04117
 C829 C 0.63431 -0.02031 -0.05118
 C830 C 0.63314 0.00743 -0.03096
 O831 O 0.60618 0.00630 -0.00919
 H832 H 0.59827 -0.06369 -0.05057
 H833 H 0.65405 -0.02615 -0.07035
 C834 C 0.09639 0.49297 0.48488
 C835 C 0.10990 0.48177 0.45452
 C836 C 0.13906 0.50137 0.44767
 C837 C 0.14112 0.52316 0.47441
 O838 O 0.11515 0.51800 0.49690
 H839 H 0.09972 0.46178 0.43925
 H840 H 0.15641 0.49991 0.42564
 C841 C 0.10288 0.52597 -0.01549
 C842 C 0.12067 0.54287 0.00944
 C843 C 0.15080 0.52442 0.01603
 C844 C 0.14912 0.49754 -0.00539
 O845 O 0.12008 0.49861 -0.02466
 H846 H 0.11243 0.56566 0.02162
 H847 H 0.17130 0.52991 0.03446
 C848 C 0.61809 1.02336 0.42598
 C849 C 0.65178 1.03712 0.42322
 C850 C 0.67473 1.01063 0.42486
 C851 C 0.65357 0.98256 0.42921
 O852 O 0.61903 0.99013 0.42946
 H853 H 0.65883 1.06348 0.42267
 H854 H 0.70355 1.01183 0.42674
 C855 C 0.89769 1.00330 0.49916
 C856 C 0.88107 1.01746 0.47064
 C857 C 0.85610 0.99474 0.46158
 C858 C 0.85901 0.96836 0.48536
 O859 O 0.88429 0.97354 0.50827
 H860 H 0.88630 1.04160 0.45808
 H861 H 0.83719 0.99774 0.44079
 C862 C 0.42418 0.47185 0.06800
 C863 C 0.43109 0.44788 0.09344
 C864 C 0.40505 0.42423 0.09011
 C865 C 0.38435 0.43564 0.06277
 O866 O 0.39606 0.46447 0.04949
 H867 H 0.45243 0.44769 0.11210
 H868 H 0.40190 0.40142 0.10562
 C869 C 0.51226 0.50937 0.42222
 C870 C 0.49699 0.53783 0.40727
 C871 C 0.51488 0.54301 0.37716
 C872 C 0.53978 0.51726 0.37604
 O873 O 0.53820 0.49694 0.40346
 H874 H 0.47520 0.55276 0.41697
 H875 H 0.51020 0.56319 0.35845
 C876 C -0.00786 -0.00493 0.91417
 C877 C -0.02983 0.01788 0.89710
 C878 C -0.01508 0.02220 0.86548
 C879 C 0.01487 0.00165 0.86566
 O880 O 0.01932 -0.01475 0.89531
 H881 H -0.05378 0.02980 0.90654
 H882 H -0.02478 0.03889 0.84510
 C883 C -0.01211 -0.00079 0.58826
 C884 C -0.01648 -0.03423 0.59739
 C885 C 0.00733 -0.04049 0.62323
 C886 C 0.02453 -0.01030 0.62800
 O887 O 0.01262 0.01377 0.60671
 H888 H -0.03480 -0.05188 0.58652
 H889 H 0.01103 -0.06422 0.63710
 C890 C 0.52624 0.54464 0.09061
 C891 C 0.54843 0.57164 0.08440
 C892 C 0.57470 0.56845 0.10845
 C893 C 0.56655 0.53965 0.12770
 O894 O 0.53711 0.52522 0.11672
 H895 H 0.54570 0.59135 0.06480
 H896 H 0.59685 0.58540 0.11143
 C897 C 0.52045 -0.01412 0.08969
 C898 C 0.54111 0.01145 0.10171
 C899 C 0.52666 0.01894 0.13249
 C900 C 0.49807 -0.00265 0.13707
 O901 O 0.49440 -0.02279 0.11103
 H902 H 0.56400 0.02324 0.08947
 H903 H 0.53600 0.03809 0.14919
 C904 C 1.01638 0.49432 0.58343
 C905 C 1.03635 0.51778 0.59987
 C906 C 1.01870 0.52317 0.62959
 C907 C 0.98900 0.50258 0.62921
 O908 O 0.98770 0.48496 0.60110
 H909 H 1.06095 0.52949 0.59124
 H910 H 1.02693 0.54016 0.64902
 C911 C 1.00546 0.50745 0.90453
 C912 C 1.01945 0.47733 0.89435
 C913 C 0.99862 0.46813 0.86788
 C914 C 0.97331 0.49344 0.86364
 O915 O 0.97749 0.51736 0.88604
 H916 H 1.04239 0.46385 0.90478
 H917 H 1.00235 0.44588 0.85320
 C918 C 0.48952 0.04007 0.42549
 C919 C 0.45820 0.04981 0.44090
 C920 C 0.43166 0.04083 0.41921
 C921 C 0.44880 0.02657 0.39184
 O922 O 0.48395 0.02596 0.39589
 H923 H 0.45520 0.06303 0.46445
 H924 H 0.40343 0.04566 0.42252
   
