data_POSCAR
  _audit_creation_date              2014-09-24
  _audit_creation_method            'ToBaCCo'
  _symmetry_space_group_name_H-M    'P1'
  _symmetry_Int_Tables_number       1
  _symmetry_cell_setting            triclinic
  loop_
  _symmetry_equiv_pos_as_xyz
 x,y,z
_cell_length_a 20.3069
_cell_length_b 20.6632
_cell_length_c 52.2291
_cell_angle_alpha 90.462000
_cell_angle_beta 90.274100
_cell_angle_gamma 120.363900
loop_
  _atom_site_label
  _atom_site_type_symbol
  _atom_site_fract_x
  _atom_site_fract_y
  _atom_site_fract_z
C1 C 0.01037 0.00210 0.50263
 C2 C 0.99477 -0.00433 0.16673
 C3 C -0.00413 1.00436 0.83012
 O4 O 0.58947 0.06271 -0.02656
 O5 O 0.46033 0.05936 0.02373
 O6 O 0.59193 0.06560 0.02319
 O7 O 0.46292 0.06656 -0.02605
 O8 O 0.39945 -0.05748 -0.02729
 O9 O 0.52972 -0.05844 0.02212
 O10 O 0.39812 -0.06466 0.02246
 O11 O 0.52578 -0.06135 -0.02757
 Cu12 Cu 0.53242 0.07603 -0.00131
 Cu13 Cu 0.45686 -0.07294 -0.00267
 C14 C 0.57941 0.00085 -0.03541
 C15 C 0.40721 -0.00360 0.03150
 C16 C 0.58322 0.00377 0.03084
 C17 C 0.40936 0.00501 -0.03495
 O18 O -0.05901 0.53366 0.64134
 O19 O -0.06105 0.40681 0.69120
 O20 O -0.06787 0.52986 0.69089
 O21 O -0.06177 0.40583 0.64155
 O22 O 0.06442 0.46913 0.64308
 O23 O 0.05829 0.59485 0.69250
 O24 O 0.06512 0.47184 0.69274
 O25 O 0.06718 0.59693 0.64298
 Cu26 Cu -0.07513 0.46259 0.66609
 Cu27 Cu 0.07644 0.53963 0.66800
 C28 C 0.00479 0.58717 0.63394
 C29 C 0.00209 0.41778 0.70018
 C30 C -0.00615 0.58375 0.69982
 C31 C 0.00196 0.41578 0.63415
 O32 O 0.59967 0.53313 0.35940
 O33 O 0.46764 0.40401 0.30959
 O34 O 0.59855 0.52954 0.30967
 O35 O 0.47384 0.40322 0.35933
 O36 O 0.40914 0.46296 0.36021
 O37 O 0.53528 0.59071 0.31031
 O38 O 0.40435 0.46515 0.31045
 O39 O 0.53489 0.59281 0.36001
 Cu40 Cu 0.54129 0.46134 0.33440
 Cu41 Cu 0.46443 0.53394 0.33529
 C42 C 0.58946 0.58506 0.36800
 C43 C 0.41339 0.41282 0.30174
 C44 C 0.58866 0.58180 0.30174
 C45 C 0.42044 0.41136 0.36813
 C46 C -0.00360 0.26079 0.58373
 C47 C 0.00357 0.27343 0.55702
 C48 C -0.00169 0.21681 0.54007
 C49 C -0.01400 0.14800 0.54995
 C50 C -0.02152 0.13518 0.57664
 C51 C -0.01604 0.19185 0.59360
 C52 C -0.02257 0.17820 0.62026
 C53 C -0.03427 0.11047 0.62986
 C54 C -0.04000 0.05491 0.61325
 C55 C -0.03376 0.06680 0.58693
 C56 C 0.00627 0.23088 0.51345
 C57 C 0.01933 0.29907 0.50387
 C58 C 0.02455 0.35447 0.52044
 C59 C 0.01668 0.34207 0.54673
 C60 C -0.01229 0.09318 0.53290
 C61 C -0.00577 0.05006 0.51897
 C62 C 0.00075 0.31808 0.60108
 C63 C 0.00268 0.36403 0.61590
 H64 H -0.01842 0.21969 0.63396
 H65 H -0.03896 0.10105 0.65030
 H66 H -0.04932 0.00231 0.62079
 H67 H -0.03878 0.02183 0.57477
 H68 H 0.00252 0.18946 0.49979
 H69 H 0.02559 0.30899 0.48346
 H70 H 0.03481 0.40739 0.51290
 H71 H 0.02131 0.38691 0.55887
 C72 C 0.74197 0.72671 0.25007
 C73 C 0.73037 0.71229 0.22339
 C74 C 0.78506 0.76341 0.20592
 C75 C 0.85115 0.82842 0.21525
 C76 C 0.86351 0.84211 0.24194
 C77 C 0.80865 0.79123 0.25941
 C78 C 0.82186 0.80659 0.28600
 C79 C 0.88745 0.87029 0.29507
 C80 C 0.94123 0.91989 0.27799
 C81 C 0.92969 0.90628 0.25171
 C82 C 0.77185 0.74834 0.17933
 C83 C 0.70655 0.68440 0.17024
 C84 C 0.65320 0.63424 0.18732
 C85 C 0.66467 0.64774 0.21361
 C86 C 0.90377 0.88385 0.19748
 C87 C 0.94606 0.93259 0.18319
 C88 C 0.68568 0.67516 0.26796
 C89 C 0.64024 0.63254 0.28315
 H90 H 0.78176 0.76966 0.30006
 H91 H 0.89662 0.88117 0.31546
 H92 H 0.99222 0.96913 0.28513
 H93 H 0.97329 0.94638 0.23920
 H94 H 0.81185 0.78562 0.16531
 H95 H 0.69733 0.67371 0.14984
 H96 H 0.60260 0.58461 0.18017
 H97 H 0.62153 0.60713 0.22615
 C98 C 0.26344 0.01218 -0.08759
 C99 C 0.28439 0.07990 -0.10049
 C100 C 0.23214 0.08355 -0.11781
 C101 C 0.15941 0.01951 -0.12213
 C102 C 0.13859 -0.04835 -0.10934
 C103 C 0.19083 -0.05206 -0.09208
 C104 C 0.16880 -0.12053 -0.07959
 C105 C 0.09714 -0.18352 -0.08400
 C106 C 0.04592 -0.17988 -0.10082
 C107 C 0.06604 -0.11327 -0.11338
 C108 C 0.25410 0.15175 -0.13042
 C109 C 0.32583 0.21472 -0.12607
 C110 C 0.37699 0.21122 -0.10916
 C111 C 0.35682 0.14473 -0.09646
 C112 C 0.10548 0.02212 -0.13978
 C113 C 0.05663 0.01786 -0.15409
 C114 C 0.31571 0.00894 -0.06928
 C115 C 0.35854 0.00650 -0.05377
 H116 H 0.20666 -0.12620 -0.06634
 H117 H 0.08126 -0.23542 -0.07430
 H118 H -0.00974 -0.22891 -0.10416
 H119 H 0.02403 -0.11337 -0.12621
 H120 H 0.21614 0.15707 -0.14373
 H121 H 0.34177 0.26650 -0.13587
 H122 H 0.43264 0.26029 -0.10585
 H123 H 0.39858 0.14471 -0.08351
 C124 C 0.01871 0.74335 0.58334
 C125 C 0.00637 0.72799 0.55673
 C126 C 0.01344 0.78465 0.53982
 C127 C 0.03275 0.85624 0.54964
 C128 C 0.04573 0.87186 0.57621
 C129 C 0.03853 0.81519 0.59313
 C130 C 0.05079 0.83182 0.61969
 C131 C 0.06964 0.90240 0.62921
 C132 C 0.07682 0.95784 0.61263
 C133 C 0.06509 0.94308 0.58642
 C134 C 0.00006 0.76782 0.51331
 C135 C -0.01993 0.69696 0.50379
 C136 C -0.02680 0.64156 0.52033
 C137 C -0.01378 0.65660 0.54651
 C138 C 0.03233 0.91132 0.53275
 C139 C 0.02644 0.95451 0.51892
 C140 C 0.01152 0.68566 0.60069
 C141 C 0.00711 0.63935 0.61556
 H142 H 0.04576 0.79054 0.63337
 H143 H 0.07878 0.91413 0.64957
 H144 H 0.09156 1.01261 0.62012
 H145 H 0.07155 0.98808 0.57427
 H146 H 0.00489 0.80914 0.49968
 H147 H -0.03024 0.68498 0.48348
 H148 H -0.04235 0.58659 0.51284
 H149 H -0.01992 0.61167 0.55863
 C150 C 0.25568 0.26897 0.24940
 C151 C 0.17953 0.22205 0.25752
 C152 C 0.12322 0.17145 0.23983
 C153 C 0.14342 0.16790 0.21418
 C154 C 0.21925 0.21551 0.20596
 C155 C 0.27556 0.26623 0.22363
 C156 C 0.35114 0.31279 0.21504
 C157 C 0.37057 0.30918 0.18972
 C158 C 0.31551 0.25954 0.17245
 C159 C 0.24062 0.21313 0.18037
 C160 C 0.04762 0.12470 0.24839
 C161 C 0.02820 0.12772 0.27374
 C162 C 0.08327 0.17704 0.29107
 C163 C 0.15812 0.22387 0.28315
 C164 C 0.08804 0.11091 0.19689
 C165 C 0.04405 0.06062 0.18295
 C166 C 0.31336 0.31983 0.26760
 C167 C 0.36008 0.36212 0.28300
 H168 H 0.39597 0.35227 0.22777
 H169 H 0.42868 0.34511 0.18348
 H170 H 0.33090 0.25684 0.15281
 H171 H 0.19976 0.17557 0.16621
 H172 H 0.00276 0.08553 0.23561
 H173 H -0.02987 0.09147 0.27997
 H174 H 0.06792 0.17908 0.31075
 H175 H 0.19890 0.26127 0.29735
 C176 C 0.72301 -0.00795 -0.08809
 C177 C 0.74021 0.03194 -0.11134
 C178 C 0.79063 0.02724 -0.12903
 C179 C 0.82374 -0.01710 -0.12331
 C180 C 0.80588 -0.05770 -0.10023
 C181 C 0.75536 -0.05313 -0.08255
 C182 C 0.73895 -0.09370 -0.05947
 C183 C 0.77163 -0.13736 -0.05401
 C184 C 0.82106 -0.14175 -0.07132
 C185 C 0.83819 -0.10252 -0.09420
 C186 C 0.80745 0.06804 -0.15207
 C187 C 0.77557 0.11243 -0.15744
 C188 C 0.72633 0.11709 -0.14012
 C189 C 0.70857 0.07736 -0.11731
 C190 C 0.88066 -0.01603 -0.14022
 C191 C 0.93090 -0.01032 -0.15389
 C192 C 0.67239 -0.00248 -0.06980
 C193 C 0.63019 0.00047 -0.05429
 H194 H 0.70092 -0.09203 -0.04538
 H195 H 0.75856 -0.16790 -0.03625
 H196 H 0.84631 -0.17573 -0.06700
 H197 H 0.87687 -0.10777 -0.10709
 H198 H 0.84521 0.06602 -0.16619
 H199 H 0.78918 0.14337 -0.17513
 H200 H 0.70174 0.15169 -0.14436
 H201 H 0.67000 0.08278 -0.10443
 C202 C 0.25353 -0.01825 0.08481
 C203 C 0.27727 0.01866 0.10891
 C204 C 0.22201 0.01343 0.12666
 C205 C 0.14340 -0.02837 0.12016
 C206 C 0.11955 -0.06639 0.09628
 C207 C 0.17475 -0.06147 0.07856
 C208 C 0.14948 -0.09965 0.05473
 C209 C 0.07197 -0.14121 0.04856
 C210 C 0.01806 -0.14577 0.06587
 C211 C 0.04124 -0.10891 0.08950
 C212 C 0.24709 0.05128 0.15057
 C213 C 0.32455 0.09324 0.15673
 C214 C 0.37859 0.09847 0.13934
 C215 C 0.35556 0.06165 0.11569
 C216 C 0.08793 -0.02675 0.13711
 C217 C 0.04396 -0.02030 0.15080
 C218 C 0.30986 -0.01116 0.06630
 C219 C 0.35535 -0.00648 0.05059
 H220 H 0.18922 -0.09778 0.04061
 H221 H 0.05366 -0.16999 0.03023
 H222 H -0.04207 -0.17803 0.06098
 H223 H -0.00281 -0.11427 0.10237
 H224 H 0.20722 0.04872 0.16476
 H225 H 0.34270 0.12189 0.17508
 H226 H 0.43871 0.13120 0.14421
 H227 H 0.39971 0.06734 0.10280
 C228 C 0.73494 0.74002 0.42049
 C229 C 0.75397 0.71874 0.44382
 C230 C 0.80518 0.77469 0.46141
 C231 C 0.83703 0.85156 0.45553
 C232 C 0.81709 0.87287 0.43241
 C233 C 0.76596 0.81695 0.41481
 C234 C 0.74757 0.83968 0.39165
 C235 C 0.77882 0.91543 0.38607
 C236 C 0.82872 0.97007 0.40333
 C237 C 0.84785 0.94936 0.42627
 C238 C 0.82396 0.75207 0.48452
 C239 C 0.79315 0.67637 0.49007
 C240 C 0.74310 0.62168 0.47286
 C241 C 0.72344 0.64228 0.44999
 C242 C 0.89464 0.90818 0.47238
 C243 C 0.94529 0.95279 0.48619
 C244 C 0.68374 0.68309 0.40225
 C245 C 0.64101 0.63720 0.38680
 H246 H 0.70906 0.79930 0.37761
 H247 H 0.76421 0.93181 0.36826
 H248 H 0.85280 1.02883 0.39892
 H249 H 0.88679 0.99386 0.43912
 H250 H 0.86241 0.79250 0.49857
 H251 H 0.80825 0.66009 0.50781
 H252 H 0.71930 0.56294 0.47726
 H253 H 0.68426 0.59771 0.43721
 C254 C 0.01217 0.27303 0.75076
 C255 C -0.00333 0.27417 0.77711
 C256 C 0.00208 0.22354 0.79404
 C257 C 0.02291 0.17209 0.78452
 C258 C 0.03917 0.17142 0.75823
 C259 C 0.03364 0.22194 0.74128
 C260 C 0.04915 0.21950 0.71499
 C261 C 0.06954 0.16863 0.70575
 C262 C 0.07513 0.11938 0.72236
 C263 C 0.06019 0.12050 0.74832
 C264 C -0.01451 0.22509 0.82027
 C265 C -0.03596 0.27515 0.82948
 C266 C -0.04121 0.32471 0.81292
 C267 C -0.02507 0.32454 0.78701
 C268 C 0.02050 0.11536 0.80126
 C269 C 0.01272 0.06530 0.81493
 C270 C 0.00637 0.32442 0.73337
 C271 C 0.00305 0.36704 0.71851
 H272 H 0.04550 0.25662 0.70130
 H273 H 0.08111 0.16747 0.68559
 H274 H 0.09111 0.08005 0.71511
 H275 H 0.06546 0.08122 0.76052
 H276 H -0.01104 0.18776 0.83391
 H277 H -0.04869 0.27539 0.84957
 H278 H -0.05791 0.36349 0.82017
 H279 H -0.03005 0.36406 0.77487
 C280 C 0.73951 0.01171 0.08236
 C281 C 0.73904 0.03214 0.10828
 C282 C 0.79483 0.03593 0.12575
 C283 C 0.85062 0.01917 0.11719
 C284 C 0.85196 0.00003 0.09117
 C285 C 0.79615 -0.00384 0.07371
 C286 C 0.79826 -0.02371 0.04784
 C287 C 0.85396 -0.03922 0.03946
 C288 C 0.90863 -0.03528 0.05652
 C289 C 0.90792 -0.01595 0.08210
 C290 C 0.79311 0.05615 0.15158
 C291 C 0.73778 0.07219 0.15994
 C292 C 0.68315 0.06842 0.14288
 C293 C 0.68350 0.04865 0.11732
 C294 C 0.90353 0.01665 0.13534
 C295 C 0.94596 0.01022 0.14994
 C296 C 0.68238 0.00743 0.06450
 C297 C 0.63611 0.00478 0.04934
 H298 H 0.75698 -0.02752 0.03384
 H299 H 0.85469 -0.05432 0.01961
 H300 H 0.95190 -0.04717 0.04990
 H301 H 0.95182 -0.01341 0.09461
 H302 H 0.83455 0.06000 0.16554
 H303 H 0.73731 0.08764 0.17977
 H304 H 0.64026 0.08087 0.14948
 H305 H 0.63981 0.04641 0.10478
 C306 C 0.28252 0.26003 0.42139
 C307 C 0.25843 0.28251 0.44341
 C308 C 0.20839 0.22778 0.46100
 C309 C 0.18267 0.15090 0.45644
 C310 C 0.20829 0.12860 0.43480
 C311 C 0.25842 0.18333 0.41721
 C312 C 0.28285 0.15958 0.39560
 C313 C 0.25838 0.08398 0.39147
 C314 C 0.20925 0.03050 0.40866
 C315 C 0.18430 0.05224 0.43012
 C316 C 0.18453 0.25152 0.48279
 C317 C 0.20938 0.32713 0.48705
 C318 C 0.25834 0.38063 0.46984
 C319 C 0.28279 0.35891 0.44825
 C320 C 0.12562 0.09488 0.47302
 C321 C 0.07528 0.05082 0.48658
 C322 C 0.33118 0.31544 0.40285
 C323 C 0.37162 0.36023 0.38716
 H324 H 0.32112 0.19907 0.38170
 H325 H 0.27765 0.06681 0.37484
 H326 H 0.19043 -0.02815 0.40537
 H327 H 0.14633 0.00867 0.44301
 H328 H 0.14678 0.21208 0.49680
 H329 H 0.19064 0.34429 0.50382
 H330 H 0.27755 0.43932 0.47325
 H331 H 0.32100 0.40260 0.43544
 C332 C -0.02209 0.72876 0.74962
 C333 C -0.02940 0.78807 0.73930
 C334 C -0.03488 0.83983 0.75595
 C335 C -0.03269 0.83216 0.78280
 C336 C -0.02692 0.77206 0.79312
 C337 C -0.02164 0.72015 0.77648
 C338 C -0.01527 0.66087 0.78724
 C339 C -0.01399 0.65320 0.81369
 C340 C -0.01901 0.70406 0.82998
 C341 C -0.02545 0.76289 0.81992
 C342 C -0.04169 0.89893 0.74523
 C343 C -0.04299 0.90671 0.71878
 C344 C -0.03744 0.85621 0.70248
 C345 C -0.03073 0.79747 0.71250
 C346 C -0.02945 0.88970 0.79971
 C347 C -0.02159 0.94000 0.81361
 C348 C -0.01493 0.67689 0.73256
 C349 C -0.00989 0.63421 0.71794
 H350 H -0.01114 0.61996 0.77535
 H351 H -0.00904 0.60756 0.82160
 H352 H -0.01797 0.69788 0.85051
 H353 H -0.02955 0.80083 0.83334
 H354 H -0.04646 0.93944 0.75713
 H355 H -0.04841 0.95212 0.71090
 H356 H -0.03847 0.86250 0.68195
 H357 H -0.02660 0.75965 0.69903
   
