data_POSCAR
  _audit_creation_date              2014-09-24
  _audit_creation_method            'ToBaCCo'
  _symmetry_space_group_name_H-M    'P1'
  _symmetry_Int_Tables_number       1
  _symmetry_cell_setting            triclinic
  loop_
  _symmetry_equiv_pos_as_xyz
 x,y,z
_cell_length_a 53.9596
_cell_length_b 30.4024
_cell_length_c 18.4421
_cell_angle_alpha 89.993100
_cell_angle_beta 90.003200
_cell_angle_gamma 90.021000
loop_
  _atom_site_label
  _atom_site_type_symbol
  _atom_site_fract_x
  _atom_site_fract_y
  _atom_site_fract_z
C1 C 0.73072 0.27054 0.53860
 C2 C 0.72843 0.26153 0.46321
 C3 C 0.74714 0.23820 0.42724
 C4 C 0.76915 0.22539 0.46236
 C5 C 0.77132 0.23289 0.53862
 C6 C 0.75266 0.25730 0.57399
 H7 H 0.75433 0.26274 0.63185
 H8 H 0.74528 0.23342 0.36920
 C9 C 0.22994 0.76694 0.53940
 C10 C 0.22973 0.76641 0.46269
 C11 C 0.24959 0.74704 0.42567
 C12 C 0.26973 0.72852 0.46261
 C13 C 0.27044 0.72937 0.53993
 C14 C 0.25018 0.74864 0.57659
 H15 H 0.24990 0.74953 0.63533
 H16 H 0.24948 0.74655 0.36683
 C17 C 0.27027 0.26542 -0.53830
 C18 C 0.26789 0.27360 -0.46327
 C19 C 0.24634 0.26008 -0.42713
 C20 C 0.22743 0.23624 -0.46269
 C21 C 0.22960 0.22898 -0.53925
 C22 C 0.25157 0.24225 -0.57452
 H23 H 0.25342 0.23782 -0.63261
 H24 H 0.24533 0.26532 -0.36905
 C25 C -0.23069 0.76885 -0.53788
 C26 C -0.23228 0.77433 -0.46202
 C27 C -0.25302 0.75801 -0.42509
 C28 C -0.27233 0.73548 -0.46106
 C29 C -0.27119 0.73155 -0.53850
 C30 C -0.24992 0.74740 -0.57463
 H31 H -0.24855 0.74463 -0.63312
 H32 H -0.25350 0.76160 -0.36660
 O33 O -0.03410 0.92435 0.13520
 O34 O -0.06178 0.96354 0.06618
 C35 C -0.05645 0.93550 0.11687
 O36 O 0.03494 1.08141 0.12555
 O37 O 0.06213 1.03920 0.05988
 C38 C 0.05716 1.06979 0.10667
 O39 O -0.03430 1.07751 0.13363
 O40 O -0.06181 1.03759 0.06519
 C41 C -0.05662 1.06608 0.11520
 O42 O 0.03508 0.92087 0.12747
 O43 O 0.06222 0.96262 0.06073
 C44 C 0.05729 0.93263 0.10860
 Zr45 Zr 0.00030 0.94510 0.09211
 O46 O 0.00328 0.94430 0.20655
 O47 O -0.00240 0.87562 0.08971
 Zr48 Zr 0.00026 1.05625 0.09163
 O49 O 0.00335 1.05627 0.20610
 O50 O -0.00252 1.12572 0.09047
 O51 O -0.02181 1.00068 0.10682
 O52 O 0.02184 1.00077 0.10470
 O53 O 0.03450 0.92048 -0.12640
 O54 O 0.06210 0.96257 -0.06163
 C55 C 0.05685 0.93220 -0.10861
 O56 O -0.03509 1.07662 -0.13200
 O57 O -0.06218 1.03724 -0.06131
 C58 C -0.05729 1.06523 -0.11233
 O59 O 0.03434 1.08051 -0.12768
 O60 O 0.06180 1.03857 -0.06249
 C61 C 0.05666 1.06882 -0.10964
 O62 O -0.03498 0.92477 -0.13297
 O63 O -0.06209 0.96375 -0.06187
 C64 C -0.05719 0.93626 -0.11360
 Zr65 Zr -0.00024 0.94470 -0.09037
 O66 O 0.00227 0.94248 -0.20482
 O67 O -0.00317 0.87527 -0.08633
 Zr68 Zr -0.00027 1.05590 -0.09113
 O69 O 0.00213 1.05607 -0.20573
 O70 O -0.00304 1.12538 -0.08969
 Zr71 Zr -0.03710 1.00044 0.00157
 Zr72 Zr 0.03705 1.00053 -0.00037
 O73 O 0.02120 1.00029 -0.10469
 O74 O -0.02238 1.00028 -0.10445
 O75 O 0.02229 0.93629 0.00036
 O76 O -0.02163 1.06403 0.00073
 O77 O -0.02169 0.93687 0.00141
 O78 O 0.02221 1.06470 -0.00037
 H79 H 0.03304 1.00098 0.14727
 H80 H -0.03281 1.08987 0.00080
 H81 H 0.03213 1.00022 -0.14786
 H82 H -0.03302 0.91121 0.00156
 H83 H 0.01130 1.13713 0.06070
 H84 H 0.01152 1.13689 -0.06318
 H85 H -0.01173 1.03806 -0.22450
 H86 H -0.00989 0.96377 -0.22418
 H87 H 0.01184 0.86389 -0.06195
 H88 H 0.01217 0.86429 0.06307
 H89 H -0.00964 0.96416 0.22589
 H90 H -0.01064 1.03887 0.22560
 O91 O 0.46562 0.42118 0.13116
 O92 O 0.43835 0.46111 0.06190
 C93 C 0.44338 0.43264 0.11215
 O94 O 0.53493 0.57801 0.12827
 O95 O 0.56254 0.53632 0.06293
 C96 C 0.55728 0.56660 0.11006
 O97 O 0.46549 0.57375 0.13469
 O98 O 0.43836 0.53492 0.06336
 C99 C 0.44327 0.56245 0.11502
 O100 O 0.53503 0.41759 0.12537
 O101 O 0.56252 0.46031 0.06142
 C102 C 0.55735 0.42948 0.10764
 Zr103 Zr 0.50030 0.44232 0.09029
 O104 O 0.50281 0.44068 0.20481
 O105 O 0.49754 0.37287 0.08682
 Zr106 Zr 0.50022 0.55345 0.09277
 O107 O 0.50284 0.55300 0.20731
 O108 O 0.49732 0.62291 0.09294
 O109 O 0.47811 0.49772 0.10537
 O110 O 0.52173 0.49784 0.10548
 O111 O 0.53545 0.41953 -0.12786
 O112 O 0.56254 0.46101 -0.06058
 C113 C 0.55765 0.43116 -0.10868
 O114 O 0.46616 0.57607 -0.13204
 O115 O 0.43862 0.53602 -0.06387
 C116 C 0.44384 0.56458 -0.11382
 O117 O 0.53547 0.57964 -0.12477
 O118 O 0.56254 0.53721 -0.05909
 C119 C 0.55767 0.56767 -0.10613
 O120 O 0.46610 0.42338 -0.13565
 O121 O 0.43867 0.46217 -0.06532
 C122 C 0.44380 0.43462 -0.11674
 Zr123 Zr 0.50069 0.44375 -0.09238
 O124 O 0.50369 0.44394 -0.20684
 O125 O 0.49791 0.37427 -0.09155
 Zr126 Zr 0.50069 0.55499 -0.08994
 O127 O 0.50361 0.55675 -0.20437
 O128 O 0.49796 0.62444 -0.08587
 Zr129 Zr 0.46335 0.49859 -0.00057
 Zr130 Zr 0.53745 0.49872 0.00108
 O131 O 0.52220 0.49949 -0.10399
 O132 O 0.47861 0.49947 -0.10591
 O133 O 0.52271 0.43447 -0.00077
 O134 O 0.47879 0.56218 0.00115
 O135 O 0.47882 0.43503 -0.00164
 O136 O 0.52266 0.56290 0.00207
 H137 H 0.53278 0.49757 0.14839
 H138 H 0.46754 0.58793 0.00157
 H139 H 0.53334 0.49980 -0.14669
 H140 H 0.46759 0.40925 -0.00241
 H141 H 0.51149 0.63465 0.06493
 H142 H 0.51262 0.63559 -0.05942
 H143 H 0.49038 0.53773 -0.22420
 H144 H 0.49043 0.46318 -0.22587
 H145 H 0.51238 0.36269 -0.06475
 H146 H 0.51203 0.36169 0.05964
 H147 H 0.48943 0.45953 0.22419
 H148 H 0.48934 0.53412 0.22589
 N149 N 0.31905 0.27850 0.32249
 C150 C 0.32758 0.31955 0.33676
 N151 N 0.31736 0.34281 0.39180
 N152 N 0.29924 0.32550 0.43162
 C153 C 0.29081 0.28416 0.41822
 N154 N 0.30090 0.26116 0.36236
 C155 C 0.34736 0.33815 0.29481
 C156 C 0.36413 0.35422 0.26073
 C157 C 0.38430 0.37365 0.22152
 N158 N 0.40800 0.36288 0.23812
 N159 N 0.42682 0.38159 0.20298
 C160 C 0.42257 0.41175 0.15011
 N161 N 0.39880 0.42246 0.13354
 N162 N 0.37997 0.40373 0.16872
 N163 N -0.16708 0.79617 0.40232
 C164 C -0.17150 0.81906 0.34054
 N165 N -0.19519 0.82457 0.31794
 N166 N -0.21392 0.80812 0.35635
 C167 C -0.20964 0.78581 0.41893
 N168 N -0.18583 0.77969 0.44075
 C169 C -0.15144 0.83836 0.30061
 C170 C -0.13469 0.85515 0.26738
 C171 C -0.11475 0.87549 0.22838
 N172 N -0.11947 0.90527 0.17539
 N173 N -0.10090 0.92447 0.13971
 C174 C -0.07700 0.91454 0.15597
 N175 N -0.07236 0.88472 0.20909
 N176 N -0.09092 0.86553 0.24472
 N177 N 0.69536 0.68356 0.30955
 C178 C 0.67162 0.68536 0.33308
 N179 N 0.66673 0.70356 0.39858
 N180 N 0.68510 0.71874 0.43987
 C181 C 0.70911 0.71571 0.41794
 N182 N 0.71370 0.69876 0.35092
 C183 C 0.65201 0.66663 0.29056
 C184 C 0.63547 0.65011 0.25605
 C185 C 0.61560 0.62980 0.21661
 N186 N 0.59178 0.64078 0.23114
 N187 N 0.57323 0.62086 0.19661
 C188 C 0.57786 0.58921 0.14644
 N189 N 0.60176 0.57834 0.13182
 N190 N 0.62033 0.59829 0.16641
 N191 N 0.19657 1.17957 0.30923
 C192 C 0.17266 1.18393 0.33036
 N193 N 0.16760 1.20394 0.39426
 N194 N 0.18591 1.21855 0.43628
 C195 C 0.21003 1.21314 0.41673
 N196 N 0.21486 1.19420 0.35132
 C197 C 0.15299 1.16620 0.28700
 C198 C 0.13631 1.15060 0.25196
 C199 C 0.11621 1.13135 0.21215
 N200 N 0.09252 1.14314 0.22690
 N201 N 0.07373 1.12390 0.19246
 C202 C 0.07798 1.09217 0.14216
 N203 N 0.10175 1.08054 0.12726
 N204 N 0.12055 1.09980 0.16176
 N205 N 0.66959 0.30911 -0.40553
 C206 C 0.67402 0.32274 -0.33687
 N207 N 0.69724 0.31928 -0.30963
 N208 N 0.71549 0.30281 -0.35005
 C209 C 0.71134 0.28939 -0.41950
 N210 N 0.68786 0.29265 -0.44578
 C211 C 0.65429 0.34054 -0.29375
 C212 C 0.63747 0.35557 -0.25858
 C213 C 0.61717 0.37367 -0.21814
 N214 N 0.62125 0.40411 -0.16575
 N215 N 0.60229 0.42199 -0.13003
 C216 C 0.57862 0.41001 -0.14554
 N217 N 0.57462 0.37938 -0.19785
 N218 N 0.59358 0.36152 -0.23353
 N219 N 0.16685 0.79351 -0.39543
 C220 C 0.17176 0.81818 -0.33588
 N221 N 0.19566 0.82580 -0.31707
 N222 N 0.21409 0.80948 -0.35684
 C223 C 0.20929 0.78522 -0.41711
 N224 N 0.18530 0.77717 -0.43521
 C225 C 0.15193 0.83661 -0.29390
 C226 C 0.13526 0.85251 -0.25914
 C227 C 0.11532 0.87185 -0.21873
 N228 N 0.09156 0.86001 -0.23242
 N229 N 0.07296 0.87890 -0.19659
 C230 C 0.07748 0.91026 -0.14583
 N231 N 0.10132 0.92194 -0.13204
 N232 N 0.11993 0.90304 -0.16791
 N233 N 0.30734 0.69306 -0.30558
 C234 C 0.32840 0.67907 -0.33818
 N235 N 0.33044 0.68237 -0.41110
 N236 N 0.31189 0.69880 -0.45026
 C237 C 0.29048 0.71241 -0.41854
 N238 N 0.28882 0.70949 -0.34496
 C239 C 0.34815 0.66021 -0.29645
 C240 C 0.36490 0.64390 -0.26257
 C241 C 0.38502 0.62414 -0.22353
 N242 N 0.40876 0.63484 -0.23981
 N243 N 0.42751 0.61591 -0.20467
 C244 C 0.42314 0.58557 -0.15213
 N245 N 0.39932 0.57493 -0.13592
 N246 N 0.38057 0.59388 -0.17109
 N247 N -0.18605 1.21275 -0.31198
 C248 C -0.17456 1.17546 -0.33405
 N249 N -0.18144 1.15667 -0.39747
 N250 N -0.19896 1.17506 -0.43826
 C251 C -0.21004 1.21331 -0.41796
 N252 N -0.20359 1.23111 -0.35288
 C253 C -0.15476 1.15681 -0.29229
 C254 C -0.13776 1.14108 -0.25878
 C255 C -0.11723 1.12225 -0.22040
 N256 N -0.09368 1.13325 -0.23854
 N257 N -0.07454 1.11519 -0.20393
 C258 C -0.07833 1.08549 -0.15006
 N259 N -0.10196 1.07457 -0.13200
 N260 N -0.12109 1.09263 -0.16662
 N261 N 0.68006 0.65952 -0.39788
 C262 C 0.67431 0.67684 -0.33234
 N263 N 0.68671 0.71285 -0.30886
 N264 N 0.70400 0.73144 -0.35032
 C265 C 0.70933 0.71525 -0.41739
 N266 N 0.69736 0.67817 -0.43926
 C267 C 0.65469 0.65827 -0.28963
 C268 C 0.63785 0.64303 -0.25482
 C269 C 0.61745 0.62495 -0.21474
 N270 N 0.62137 0.59414 -0.16286
 N271 N 0.60232 0.57640 -0.12736
 C272 C 0.57871 0.58891 -0.14253
 N273 N 0.57486 0.61992 -0.19431
 N274 N 0.59392 0.63765 -0.22979
 N275 N 0.17929 1.16176 -0.39838
 C276 C 0.17295 1.18049 -0.33441
 N277 N 0.18505 1.21716 -0.31231
 N278 N 0.20266 1.23497 -0.35363
 C279 C 0.20862 1.21724 -0.41917
 N280 N 0.19689 1.17961 -0.43960
 C281 C 0.15322 1.16224 -0.29171
 C282 C 0.13635 1.14678 -0.25719
 C283 C 0.11604 1.12803 -0.21753
 N284 N 0.12017 1.09711 -0.16596
 N285 N 0.10123 1.07864 -0.13094
 C286 C 0.07752 1.09046 -0.14633
 N287 N 0.07346 1.12155 -0.19786
 N288 N 0.09241 1.14001 -0.23287
 N289 N 0.33087 0.29770 -0.39532
 C290 C 0.32625 0.32641 -0.34082
 N291 N 0.30246 0.33762 -0.32585
 N292 N 0.28387 0.32085 -0.36465
 C293 C 0.28846 0.29254 -0.42007
 N294 N 0.31231 0.28095 -0.43405
 C295 C 0.34639 0.34498 -0.30022
 C296 C 0.36353 0.36051 -0.26702
 C297 C 0.38407 0.37908 -0.22818
 N298 N 0.38013 0.40816 -0.17370
 N299 N 0.39921 0.42574 -0.13811
 C300 C 0.42286 0.41485 -0.15581
 N301 N 0.42674 0.38568 -0.21041
 N302 N 0.40766 0.36810 -0.24601
 N303 N -0.18359 0.85232 -0.40326
 C304 C -0.17539 0.83314 -0.34136
 N305 N -0.18622 0.79544 -0.31827
 N306 N -0.20450 0.77717 -0.35635
 C307 C -0.21250 0.79582 -0.41906
 N308 N -0.20189 0.83405 -0.44135
 C309 C -0.15506 0.85175 -0.30163
 C310 C -0.13781 0.86677 -0.26822
 C311 C -0.11719 0.88428 -0.22841
 N312 N -0.12098 0.91269 -0.17287
 N313 N -0.10183 0.92898 -0.13598
 C314 C -0.07826 0.91735 -0.15326
 N315 N -0.07453 0.88882 -0.20887
 N316 N -0.09368 0.87253 -0.24576
 N317 N 0.31087 0.64606 0.37905
 C318 C 0.32570 0.67161 0.33718
 N319 N 0.32179 0.71564 0.33529
 N320 N 0.30377 0.73367 0.37468
 C321 C 0.28917 0.70826 0.41757
 N322 N 0.29284 0.66407 0.41847
 C323 C 0.34576 0.65249 0.29706
 C324 C 0.36286 0.63665 0.26412
 C325 C 0.38340 0.61793 0.22560
 N326 N 0.37951 0.58890 0.17099
 N327 N 0.39862 0.57132 0.13560
 C328 C 0.42225 0.58218 0.15365
 N329 N 0.42608 0.61129 0.20837
 N330 N 0.40696 0.62886 0.24375
 N331 N -0.19700 1.17551 0.31269
 C332 C -0.17321 1.18006 0.33498
 N333 N -0.16852 1.20070 0.39855
 N334 N -0.18708 1.21556 0.43929
 C335 C -0.21109 1.20981 0.41881
 N336 N -0.21556 1.19042 0.35354
 C337 C -0.15323 1.16174 0.29350
 C338 C -0.13626 1.14569 0.26027
 C339 C -0.11591 1.12599 0.22217
 N340 N -0.09224 1.13663 0.23957
 N341 N -0.07331 1.11757 0.20543
 C342 C -0.07744 1.08714 0.15287
 N343 N -0.10118 1.07658 0.13559
 N344 N -0.12010 1.09564 0.16974
 N345 N 0.68596 0.34093 0.37687
 C346 C 0.67249 0.31465 0.33247
 N347 N 0.67744 0.27093 0.33053
 N348 N 0.69523 0.25397 0.37218
 C349 C 0.70847 0.28011 0.41764
 N350 N 0.70373 0.32399 0.41849
 C351 C 0.65288 0.33289 0.28937
 C352 C 0.63623 0.34872 0.25447
 C353 C 0.61618 0.36810 0.21457
 N354 N 0.59247 0.35610 0.22858
 N355 N 0.57374 0.37529 0.19376
 C356 C 0.57809 0.40718 0.14377
 N357 N 0.60188 0.41903 0.12964
 N358 N 0.62062 0.39982 0.16450
 N359 N 0.18168 0.84380 0.39779
 C360 C 0.17323 0.82303 0.33760
 N361 N 0.18335 0.78397 0.31831
 N362 N 0.20128 0.76607 0.35823
 C363 C 0.20961 0.78644 0.41914
 N364 N 0.19963 0.82589 0.43771
 C365 C 0.15352 0.84178 0.29543
 C366 C 0.13677 0.85725 0.26047
 C367 C 0.11657 0.87554 0.21982
 N368 N 0.09295 0.86315 0.23437
 N369 N 0.07409 0.88088 0.19807
 C370 C 0.07820 0.91155 0.14589
 N371 N 0.10190 0.92376 0.13122
 N372 N 0.12077 0.90602 0.16755
   
