data_POSCAR
  _audit_creation_date              2014-09-24
  _audit_creation_method            'ToBaCCo'
  _symmetry_space_group_name_H-M    'P1'
  _symmetry_Int_Tables_number       1
  _symmetry_cell_setting            triclinic
  loop_
  _symmetry_equiv_pos_as_xyz
 x,y,z
_cell_length_a 24.9133
_cell_length_b 24.9836
_cell_length_c 71.3629
_cell_angle_alpha 90.721300
_cell_angle_beta 88.254800
_cell_angle_gamma 120.494000
loop_
  _atom_site_label
  _atom_site_type_symbol
  _atom_site_fract_x
  _atom_site_fract_y
  _atom_site_fract_z
C1 C 0.01158 0.08841 0.52152
 H2 H 0.05920 0.09862 0.51999
 C3 C -0.00220 0.12598 0.53282
 H4 H 0.03517 0.16521 0.53990
 C5 C -0.09546 0.02178 0.51535
 H6 H -0.13160 -0.01982 0.50885
 C7 C -0.11146 0.05764 0.52684
 H8 H -0.16002 0.04382 0.52900
 N9 N -0.03483 0.03722 0.51316
 C10 C 0.00041 -0.11658 0.51473
 H11 H 0.00367 -0.12687 0.50013
 C12 C -0.00172 -0.15687 0.52860
 H13 H 0.00064 -0.19756 0.52456
 C14 C -0.01187 -0.05425 0.53778
 H15 H -0.01702 -0.01507 0.54145
 C16 C -0.01424 -0.09309 0.55199
 H17 H -0.02020 -0.08256 0.56640
 Zn18 Zn -0.01373 -0.01756 0.50087
 N19 N -0.00566 -0.06689 0.51950
 C20 C 0.09822 0.00640 0.48114
 N21 N 0.06113 0.02972 0.48641
 C22 C 0.07290 0.08573 0.47991
 C23 C 0.12340 0.12066 0.46772
 C24 C 0.14908 0.03966 0.46875
 C25 C -0.11760 -0.13005 0.48835
 C26 C -0.15948 -0.16931 0.47502
 C27 C -0.11915 -0.08216 0.45378
 C28 C -0.07849 -0.04478 0.46758
 N29 N -0.07716 -0.06940 0.48425
 H30 H 0.08767 -0.03857 0.48615
 H31 H 0.04161 0.10246 0.48361
 H32 H 0.13059 0.16418 0.46230
 H33 H 0.17758 0.02012 0.46442
 H34 H -0.11724 -0.14834 0.50196
 H35 H -0.19171 -0.21646 0.47942
 H36 H -0.11387 -0.06003 0.44042
 H37 H -0.04592 0.00372 0.46465
 C38 C -0.01066 -0.14598 0.54747
 C39 C -0.06446 0.11002 0.53591
 C40 C -0.16015 -0.14669 0.45692
 C41 C 0.16182 0.09741 0.46180
 C42 C 1.02923 0.00425 0.12854
 H43 H 0.98876 0.00660 0.12493
 C44 C 1.07131 0.00960 0.11436
 H45 H 1.06213 0.01513 0.09999
 C46 C 1.09148 -0.00381 0.15152
 H47 H 1.10007 -0.00685 0.16612
 C48 C 1.13490 0.00116 0.13768
 H49 H 1.17658 0.00139 0.14171
 N50 N 1.04016 -0.00152 0.14675
 C51 C 0.95044 0.08722 0.15301
 H52 H 0.99097 0.12231 0.16012
 C53 C 0.91646 0.10482 0.14198
 H54 H 0.93084 0.15348 0.14077
 C55 C 0.88424 -0.01846 0.14497
 H56 H 0.87345 -0.06616 0.14561
 C57 C 0.84857 -0.00307 0.13405
 H58 H 0.81032 -0.03928 0.12635
 Zn59 Zn 0.98697 0.00288 0.16557
 N60 N 0.93454 0.02654 0.15400
 C61 C 1.02311 0.04716 0.20204
 N62 N 1.03697 0.06232 0.18359
 C63 C 1.08787 0.11697 0.17810
 C64 C 1.12767 0.15854 0.19147
 C65 C 1.06138 0.08724 0.21581
 C66 C 0.95987 -0.11240 0.18156
 C67 C 0.92655 -0.16397 0.19335
 C68 C 0.84605 -0.13754 0.19706
 C69 C 0.88106 -0.08631 0.18540
 N70 N 0.93705 -0.07440 0.17800
 H71 H 0.98288 0.00336 0.20616
 H72 H 1.09825 0.12763 0.16332
 H73 H 1.16823 0.20164 0.18688
 H74 H 1.05030 0.07321 0.23037
 H75 H 1.00493 -0.10152 0.17584
 H76 H 0.94600 -0.19289 0.19647
 H77 H 0.80286 -0.14463 0.20339
 H78 H 0.86487 -0.05427 0.18299
 C79 C 0.86543 0.05939 0.13210
 C80 C 1.12558 0.00940 0.11888
 C81 C 0.86928 -0.17643 0.20148
 C82 C 1.11476 0.14359 0.21062
 C83 C 0.11735 0.98807 0.85201
 H84 H 0.08211 0.93949 0.85103
 C85 C 0.16946 1.00561 0.86275
 H86 H 0.17393 0.97009 0.86988
 C87 C 0.15098 1.09341 0.84542
 H88 H 0.14266 1.12741 0.83904
 C89 C 0.20356 1.11309 0.85630
 H90 H 0.23579 1.16230 0.85807
 N91 N 0.10868 1.03177 0.84375
 C92 C -0.08329 0.98994 0.84841
 H93 H -0.09899 0.98008 0.83415
 C94 C -0.12104 0.99494 0.86245
 H95 H -0.16535 0.98899 0.85854
 C96 C -0.00405 1.01475 0.87009
 H97 H 0.04159 1.02266 0.87312
 C98 C -0.03947 1.02127 0.88440
 H99 H -0.02053 1.03180 0.89829
 Zn100 Zn 0.02983 1.00336 0.83312
 N101 N -0.02576 1.00032 0.85242
 C102 C -0.05889 0.87915 0.82218
 N103 N 0.00237 0.92418 0.82223
 C104 C 0.04628 0.91703 0.81260
 C105 C 0.02920 0.86382 0.80201
 C106 C -0.07819 0.82539 0.81148
 C107 C 0.03887 1.11321 0.81887
 C108 C 0.03306 1.14957 0.80520
 C109 C 0.01841 1.07202 0.78214
 C110 C 0.02462 1.03741 0.79615
 N111 N 0.03380 1.05786 0.81417
 H112 H -0.09314 0.88583 0.82979
 H113 H 0.09447 0.95407 0.81250
 H114 H 0.06462 0.86030 0.79383
 H115 H -0.12730 0.79085 0.81101
 H116 H 0.04477 1.12786 0.83336
 H117 H 0.03493 1.19240 0.80924
 H118 H 0.01011 1.05435 0.76794
 H119 H 0.02011 0.99322 0.79262
 C120 C -0.09864 1.01278 0.88077
 C121 C 0.21261 1.06883 0.86538
 C122 C 0.02119 1.12816 0.78665
 C123 C -0.03387 0.81785 0.80100
 C124 C 0.41060 0.09279 -0.00571
 C125 C 0.44982 0.10413 -0.02147
 C126 C 0.50578 0.10433 -0.01954
 C127 C 0.52177 0.09049 -0.00217
 C128 C 0.48033 0.07748 0.01336
 C129 C 0.42578 0.08034 0.01182
 C130 C 0.58136 0.08998 -0.00021
 C131 C 0.60988 0.10100 0.01734
 C132 C 0.66487 0.09954 0.01935
 C133 C 0.69324 0.08936 0.00360
 C134 C 0.66729 0.08008 -0.01414
 C135 C 0.61057 0.07880 -0.01584
 H136 H 0.36694 0.09177 -0.00722
 H137 H 0.53679 0.11624 -0.03168
 H138 H 0.49020 0.06549 0.02680
 H139 H 0.59048 0.11179 0.02957
 H140 H 0.73509 0.08704 0.00530
 H141 H 0.58982 0.06940 -0.02944
 C142 C -0.07271 0.59478 0.67302
 C143 C -0.08095 0.55946 0.68906
 C144 C -0.08092 0.50352 0.68728
 C145 C -0.06995 0.48369 0.66970
 C146 C -0.05972 0.52138 0.65384
 C147 C -0.06288 0.57582 0.65532
 C148 C -0.07011 0.42368 0.66789
 C149 C -0.08489 0.39085 0.65077
 C150 C -0.08516 0.33478 0.64899
 C151 C -0.07323 0.30963 0.66463
 C152 C -0.05954 0.34042 0.68190
 C153 C -0.05631 0.39811 0.68329
 H154 H -0.07211 0.63833 0.67439
 H155 H -0.09057 0.47548 0.69972
 H156 H -0.04986 0.50859 0.64020
 H157 H -0.09733 0.40771 0.63874
 H158 H -0.07275 0.26663 0.66320
 H159 H -0.04352 0.42235 0.69652
 C160 C 0.66424 0.60478 0.33072
 C161 C 0.64318 0.56931 0.31435
 C162 C 0.58850 0.51087 0.31522
 C163 C 0.55368 0.48831 0.33215
 C164 C 0.57569 0.52503 0.34840
 C165 C 0.63098 0.58295 0.34779
 C166 C 0.49351 0.42779 0.33271
 C167 C 0.47294 0.39117 0.34913
 C168 C 0.41493 0.33588 0.35002
 C169 C 0.37797 0.31617 0.33413
 C170 C 0.39771 0.35137 0.31757
 C171 C 0.45516 0.40718 0.31698
 H172 H 0.70632 0.65002 0.33015
 H173 H 0.57355 0.48304 0.30262
 H174 H 0.54898 0.50991 0.36147
 H175 H 0.50195 0.40520 0.36129
 H176 H 0.33307 0.27364 0.33473
 H177 H 0.46863 0.43534 0.30441
 C178 C -0.09408 0.20848 0.58048
 C179 C -0.13074 0.14339 0.57990
 C180 C -0.12399 0.11159 0.56452
 C181 C -0.07978 0.14438 0.55008
 C182 C -0.04504 0.20976 0.55055
 C183 C -0.05194 0.24209 0.56575
 C184 C -0.09711 0.24175 0.59733
 C185 C -0.05844 0.30659 0.59826
 C186 C -0.05791 0.33744 0.61488
 C187 C -0.09439 0.30360 0.63060
 C188 C -0.13452 0.23892 0.62922
 C189 C -0.13600 0.20770 0.61261
 C190 C -0.01556 0.30711 0.56693
 C191 C -0.01890 0.33884 0.58289
 C192 C -0.17108 0.11123 0.59514
 C193 C -0.17354 0.14284 0.61124
 H194 H 0.01685 0.33357 0.55560
 H195 H 0.01102 0.38886 0.58341
 H196 H -0.19970 0.06104 0.59483
 H197 H -0.20399 0.11613 0.62289
 H198 H -0.15017 0.06124 0.56436
 H199 H -0.01110 0.23513 0.53942
 H200 H -0.02643 0.38713 0.61597
 H201 H -0.16290 0.21282 0.64128
 C202 C 0.77344 0.69556 0.24644
 C203 C 0.83885 0.73071 0.24607
 C204 C 0.87024 0.76968 0.23069
 C205 C 0.83657 0.77453 0.21594
 C206 C 0.77110 0.73722 0.21623
 C207 C 0.73926 0.69781 0.23149
 C208 C 0.74003 0.65828 0.26322
 C209 C 0.67458 0.62519 0.26391
 C210 C 0.64304 0.59333 0.28040
 C211 C 0.67656 0.59541 0.29620
 C212 C 0.74216 0.62714 0.29505
 C213 C 0.77416 0.65887 0.27861
 C214 C 0.67385 0.66254 0.23246
 C215 C 0.64205 0.62676 0.24839
 C216 C 0.87140 0.72831 0.26147
 C217 C 0.83960 0.69304 0.27748
 H218 H 0.64696 0.66366 0.22097
 H219 H 0.59156 0.60129 0.24873
 H220 H 0.92186 0.75510 0.26133
 H221 H 0.86644 0.69361 0.28922
 H222 H 0.92054 0.79889 0.23070
 H223 H 0.74498 0.74045 0.20486
 H224 H 0.59258 0.56963 0.28126
 H225 H 0.76819 0.62840 0.30712
 C226 C 0.33880 0.10651 -0.09046
 C227 C 0.30789 0.14026 -0.09148
 C228 C 0.27018 0.13112 -0.10679
 C229 C 0.26213 0.08750 -0.12075
 C230 C 0.29560 0.05604 -0.11991
 C231 C 0.33381 0.06516 -0.10474
 C232 C 0.37378 0.11158 -0.07357
 C233 C 0.40205 0.07544 -0.07213
 C234 C 0.43073 0.07645 -0.05540
 C235 C 0.42983 0.11207 -0.04007
 C236 C 0.40349 0.14993 -0.04203
 C237 C 0.37513 0.14966 -0.05873
 C238 C 0.36470 0.03156 -0.10311
 C239 C 0.39835 0.03670 -0.08709
 C240 C 0.31265 0.17996 -0.07669
 C241 C 0.34563 0.18451 -0.06057
 H242 H 0.36148 -0.00023 -0.11408
 H243 H 0.42015 0.00876 -0.08618
 H244 H 0.28918 0.20639 -0.07733
 H245 H 0.34666 0.21433 -0.04926
 H246 H 0.24387 0.15480 -0.10719
 H247 H 0.28980 0.02264 -0.13068
 H248 H 0.45032 0.04670 -0.05390
 H249 H 0.40312 0.17779 -0.03031
 C250 C -0.03681 0.72833 0.59185
 C251 C 0.01077 0.74324 0.57827
 C252 C 0.01869 0.78344 0.56346
 C253 C -0.02018 0.80904 0.56241
 C254 C -0.06826 0.79255 0.57601
 C255 C -0.07670 0.75243 0.59075
 C256 C -0.04448 0.68749 0.60771
 C257 C -0.09159 0.67343 0.62136
 C258 C -0.09779 0.63598 0.63664
 C259 C -0.05703 0.61292 0.63848
 C260 C -0.01059 0.62657 0.62450
 C261 C -0.00401 0.66409 0.60907
 C262 C -0.12382 0.73658 0.60455
 C263 C -0.13116 0.69770 0.61960
 C264 C 0.04992 0.71835 0.57998
 C265 C 0.04268 0.67951 0.59512
 H266 H -0.15496 0.75482 0.60380
 H267 H -0.16776 0.68701 0.63004
 H268 H 0.08679 0.72940 0.56961
 H269 H 0.07419 0.66175 0.59597
 H270 H 0.05589 0.79609 0.55307
 H271 H -0.09912 0.81110 0.57510
 H272 H -0.13431 0.62484 0.64716
 H273 H 0.02124 0.60937 0.62587
 C274 C 0.23796 0.24883 0.25455
 C275 C 0.26312 0.24368 0.23720
 C276 C 0.22283 0.21158 0.22254
 C277 C 0.15783 0.18435 0.22522
 C278 C 0.13377 0.19208 0.24252
 C279 C 0.17352 0.22374 0.25727
 C280 C 0.27960 0.27895 0.27037
 C281 C 0.25401 0.28172 0.28791
 C282 C 0.29325 0.30725 0.30317
 C283 C 0.35760 0.32968 0.30100
 C284 C 0.38285 0.32832 0.28319
 C285 C 0.34388 0.30245 0.26784
 C286 C 0.14990 0.22908 0.27488
 C287 C 0.18947 0.25751 0.28996
 C288 C 0.32784 0.26893 0.23508
 C289 C 0.36754 0.29791 0.25013
 H290 H 0.10027 0.21006 0.27713
 H291 H 0.16925 0.25966 0.30340
 H292 H 0.34788 0.26542 0.22177
 H293 H 0.41705 0.31595 0.24797
 H294 H 0.24180 0.20536 0.20937
 H295 H 0.08394 0.17214 0.24464
 H296 H 0.27372 0.30894 0.31680
 H297 H 0.43229 0.34515 0.28148
 C298 C 0.80035 0.04510 -0.07613
 C299 C 0.86564 0.07864 -0.07643
 C300 C 0.89847 0.06764 -0.09072
 C301 C 0.86695 0.02371 -0.10501
 C302 C 0.80092 -0.00830 -0.10467
 C303 C 0.76756 0.00162 -0.09014
 C304 C 0.76574 0.05535 -0.06073
 C305 C 0.70034 0.02051 -0.06002
 C306 C 0.66782 0.02905 -0.04493
 C307 C 0.70049 0.07246 -0.03073
 C308 C 0.76606 0.10818 -0.03208
 C309 C 0.79886 0.09930 -0.04686
 C310 C 0.70202 -0.03176 -0.08913
 C311 C 0.66901 -0.02269 -0.07429
 C312 C 0.89710 0.12265 -0.06239
 C313 C 0.86426 0.13299 -0.04788
 H314 H 0.67600 -0.06561 -0.09981
 H315 H 0.61856 -0.04985 -0.07397
 H316 H 0.94758 0.14913 -0.06254
 H317 H 0.89029 0.16710 -0.03726
 H318 H 0.94886 0.09545 -0.09098
 H319 H 0.77509 -0.04321 -0.11511
 H320 H 0.61745 0.00093 -0.04401
 H321 H 0.79174 0.14278 -0.02153
 C322 C 0.25967 0.04311 0.07477
 C323 C 0.23326 0.08103 0.07647
 C324 C 0.19027 0.07008 0.09111
 C325 C 0.17341 0.02159 0.10404
 C326 C 0.20130 -0.01527 0.10242
 C327 C 0.24425 -0.00494 0.08767
 C328 C 0.30361 0.05341 0.05901
 C329 C 0.32926 0.01486 0.05702
 C330 C 0.36987 0.02401 0.04170
 C331 C 0.38463 0.07130 0.02845
 C332 C 0.35916 0.11009 0.03093
 C333 C 0.31844 0.10116 0.04608
 C334 C 0.27142 -0.04213 0.08535
 C335 C 0.31311 -0.03247 0.07028
 C336 C 0.24981 0.12876 0.06336
 C337 C 0.29178 0.13873 0.04843
 H338 H 0.25999 -0.07936 0.09519
 H339 H 0.33259 -0.06252 0.06894
 H340 H 0.22981 0.15840 0.06459
 H341 H 0.30301 0.17579 0.03855
 H342 H 0.16977 0.09928 0.09248
 H343 H 0.18833 -0.05277 0.11230
 H344 H 0.38878 -0.00641 0.03985
 H345 H 0.37110 0.14731 0.02103
 C346 C 0.73783 0.73630 0.41260
 C347 C 0.74622 0.71036 0.42873
 C348 C 0.77847 0.74915 0.44375
 C349 C 0.80339 0.81458 0.44293
 C350 C 0.79119 0.83844 0.42660
 C351 C 0.75962 0.80001 0.41147
 C352 C 0.70700 0.69619 0.39637
 C353 C 0.70048 0.72271 0.37999
 C354 C 0.67408 0.68506 0.36429
 C355 C 0.65416 0.62130 0.36490
 C356 C 0.65926 0.59502 0.38161
 C357 C 0.68622 0.63245 0.39736
 C358 C 0.75047 0.82452 0.39504
 C359 C 0.72163 0.78657 0.37954
 C360 C 0.72390 0.64614 0.42931
 C361 C 0.69430 0.60785 0.41391
 H362 H 0.76681 0.87371 0.39401
 H363 H 0.71655 0.80754 0.36703
 H364 H 0.72999 0.62536 0.44170
 H365 H 0.67846 0.55876 0.41489
 H366 H 0.78731 0.72760 0.45535
 H367 H 0.80448 0.88672 0.42548
 H368 H 0.66956 0.70533 0.35152
 H369 H 0.64435 0.54604 0.38210
 C370 C -0.01685 0.22178 0.74373
 C371 C -0.05538 0.15736 0.74613
 C372 C -0.04292 0.12757 0.76037
 C373 C 0.00773 0.16151 0.77219
 C374 C 0.04525 0.22637 0.76989
 C375 C 0.03335 0.25674 0.75554
 C376 C -0.02880 0.25298 0.72837
 C377 C 0.01032 0.31724 0.72566
 C378 C -0.00031 0.34628 0.71065
 C379 C -0.04951 0.31123 0.69841
 C380 C -0.08891 0.24707 0.70163
 C381 C -0.07861 0.21769 0.71649
 C382 C 0.07104 0.32110 0.75256
 C383 C 0.05978 0.35081 0.73786
 C384 C -0.10524 0.12381 0.73411
 C385 C -0.11671 0.15349 0.71954
 H386 H 0.10990 0.34867 0.76155
 H387 H 0.09030 0.40041 0.73596
 H388 H -0.13537 0.07409 0.73588
 H389 H -0.15535 0.12585 0.71048
 H390 H -0.07268 0.07783 0.76229
 H391 H 0.08439 0.25270 0.77891
 H392 H 0.03051 0.39558 0.70820
 H393 H -0.12753 0.21995 0.69250
 C394 C 0.77616 0.09634 0.08812
 C395 C 0.73940 0.05189 0.10185
 C396 C 0.76854 0.04238 0.11692
 C397 C 0.83388 0.07683 0.11823
 C398 C 0.86971 0.12324 0.10481
 C399 C 0.84116 0.13264 0.08959
 C400 C 0.74647 0.10235 0.07134
 C401 C 0.78383 0.14368 0.05700
 C402 C 0.75619 0.14513 0.04035
 C403 C 0.69181 0.10550 0.03799
 C404 C 0.65451 0.06651 0.05283
 C405 C 0.68179 0.06411 0.06947
 C406 C 0.87660 0.17541 0.07532
 C407 C 0.84843 0.18072 0.05927
 C408 C 0.67459 0.01597 0.09980
 C409 C 0.64624 0.02211 0.08390
 H410 H 0.92675 0.20378 0.07631
 H411 H 0.87765 0.21302 0.04834
 H412 H 0.64570 -0.01822 0.11035
 H413 H 0.59631 -0.00751 0.08266
 H414 H 0.74078 0.00678 0.12726
 H415 H 0.92007 0.14923 0.10559
 H416 H 0.78492 0.17537 0.02895
 H417 H 0.60504 0.03546 0.05096
 C418 C 0.29094 0.19788 0.41697
 C419 C 0.28882 0.23006 0.43298
 C420 C 0.24912 0.19653 0.44813
 C421 C 0.21128 0.13139 0.44726
 C422 C 0.21609 0.09964 0.43143
 C423 C 0.25541 0.13275 0.41615
 C424 C 0.32832 0.23322 0.40036
 C425 C 0.32748 0.20118 0.38396
 C426 C 0.35893 0.23508 0.36775
 C427 C 0.39044 0.30051 0.36782
 C428 C 0.39303 0.33189 0.38461
 C429 C 0.36152 0.29844 0.40089
 C430 C 0.25771 0.10228 0.39973
 C431 C 0.29310 0.13592 0.38390
 C432 C 0.32438 0.29526 0.43321
 C433 C 0.36018 0.32888 0.41743
 H434 H 0.23068 0.05206 0.39894
 H435 H 0.29235 0.11067 0.37136
 H436 H 0.32336 0.32059 0.44552
 H437 H 0.38576 0.37917 0.41804
 H438 H 0.24597 0.22117 0.46034
 H439 H 0.18654 0.04961 0.43056
 H440 H 0.35728 0.21067 0.35492
 H441 H 0.41655 0.38219 0.38472
 C442 C -0.07448 0.68424 0.75770
 C443 C -0.11008 0.71327 0.75955
 C444 C -0.09966 0.75363 0.77463
 C445 C -0.05294 0.76621 0.78749
 C446 C -0.01936 0.73485 0.78584
 C447 C -0.02984 0.69389 0.77093
 C448 C -0.08136 0.64610 0.74100
 C449 C -0.04371 0.61940 0.73872
 C450 C -0.04686 0.58735 0.72212
 C451 C -0.08608 0.58342 0.70771
 C452 C -0.12517 0.60847 0.71051
 C453 C -0.12288 0.64003 0.72713
 C454 C 0.00541 0.66463 0.76849
 C455 C -0.00153 0.62787 0.75268
 C456 C -0.15308 0.70386 0.74576
 C457 C -0.15927 0.66797 0.72980
 H458 H 0.03974 0.67144 0.77866
 H459 H 0.02762 0.60736 0.75111
 H460 H -0.18093 0.72587 0.74705
 H461 H -0.19172 0.66331 0.71924
 H462 H -0.12500 0.77832 0.77566
 H463 H 0.01649 0.74424 0.79576
 H464 H -0.01619 0.56875 0.71993
 H465 H -0.15570 0.60517 0.69949
   
