data_POSCAR
  _audit_creation_date              2014-09-24
  _audit_creation_method            'ToBaCCo'
  _symmetry_space_group_name_H-M    'P1'
  _symmetry_Int_Tables_number       1
  _symmetry_cell_setting            triclinic
  loop_
  _symmetry_equiv_pos_as_xyz
 x,y,z
_cell_length_a 43.7684
_cell_length_b 43.0791
_cell_length_c 43.4499
_cell_angle_alpha 90.939200
_cell_angle_beta 87.984100
_cell_angle_gamma 90.271400
loop_
  _atom_site_label
  _atom_site_type_symbol
  _atom_site_fract_x
  _atom_site_fract_y
  _atom_site_fract_z
N1 N 0.57420 0.66071 0.60336
 N2 N 0.55981 0.64755 0.62684
 C3 C 0.53653 0.66584 0.63681
 C4 C 0.53599 0.69152 0.61828
 C5 C 0.56020 0.68758 0.59723
 H6 H 0.52121 0.66094 0.65622
 H7 H 0.56775 0.70358 0.57958
 Cu8 Cu 0.57266 0.60792 0.64252
 Cu9 Cu 0.61135 0.64321 0.58418
 Cu10 Cu 0.64153 0.57991 0.62039
 N11 N 0.59199 0.57529 0.66510
 N12 N 0.61964 0.56555 0.65729
 C13 C 0.62803 0.54388 0.67726
 C14 C 0.60408 0.53955 0.69853
 C15 C 0.58155 0.55976 0.69001
 H16 H 0.64954 0.53163 0.67575
 H17 H 0.55939 0.56316 0.70134
 N18 N 0.66013 0.59762 0.58266
 N19 N 0.64884 0.62189 0.56886
 C20 C 0.66652 0.62814 0.54366
 C21 C 0.68981 0.60652 0.54149
 C22 C 0.68499 0.58754 0.56643
 H23 H 0.66237 0.64655 0.52774
 H24 H 0.69858 0.56769 0.57213
 H25 H 0.60510 0.59753 0.59676
 H26 H 0.62342 0.62427 0.62517
 N27 N 0.90858 0.30843 0.13643
 N28 N 0.91143 0.31730 0.16528
 C29 C 0.93501 0.30219 0.17716
 C30 C 0.94789 0.28308 0.15443
 C31 C 0.93055 0.28765 0.12877
 H32 H 0.94252 0.30515 0.20049
 H33 H 0.93303 0.27616 0.10653
 Cu34 Cu 0.88496 0.34865 0.18420
 Cu35 Cu 0.87506 0.32258 0.11191
 Cu36 Cu 0.82703 0.37827 0.14582
 N37 N 0.86650 0.38807 0.19635
 N38 N 0.84320 0.39919 0.18184
 C39 C 0.83371 0.42560 0.19604
 C40 C 0.85247 0.43161 0.22037
 C41 C 0.87307 0.40731 0.21994
 H42 H 0.81467 0.43948 0.18912
 H43 H 0.89095 0.40347 0.23599
 N44 N 0.82140 0.36096 0.10415
 N45 N 0.83953 0.33964 0.09129
 C46 C 0.82889 0.33161 0.06354
 C47 C 0.80327 0.34908 0.05852
 C48 C 0.79913 0.36751 0.08468
 H49 H 0.83878 0.31410 0.04817
 H50 H 0.78080 0.38379 0.08955
 H51 H 0.87084 0.36572 0.13367
 H52 H 0.84549 0.33371 0.14780
 N53 N 0.41985 0.18278 -0.13031
 N54 N 0.42926 0.16862 -0.15593
 C55 C 0.45396 0.18369 -0.16768
 C56 C 0.46060 0.20817 -0.14811
 C57 C 0.43851 0.20697 -0.12460
 H58 H 0.46635 0.17734 -0.18881
 H59 H 0.43576 0.22293 -0.10525
 Cu60 Cu 0.40860 0.13169 -0.17128
 Cu61 Cu 0.38325 0.16986 -0.10716
 Cu62 Cu 0.34402 0.10610 -0.13544
 N63 N 0.38601 0.09609 -0.18691
 N64 N 0.36029 0.08686 -0.17336
 C65 C 0.34860 0.06309 -0.18972
 C66 C 0.36825 0.05681 -0.21455
 C67 C 0.39178 0.07818 -0.21214
 H68 H 0.32738 0.05120 -0.18404
 H69 H 0.41109 0.08102 -0.22806
 N70 N 0.33118 0.12862 -0.09737
 N71 N 0.34575 0.15334 -0.08698
 C72 C 0.33086 0.16419 -0.06139
 C73 C 0.30606 0.14515 -0.05516
 C74 C 0.30689 0.12282 -0.07839
 H75 H 0.33752 0.18439 -0.04808
 H76 H 0.29063 0.10417 -0.08157
 H77 H 0.38498 0.12354 -0.12031
 H78 H 0.36201 0.14966 -0.14435
 N79 N 0.07092 0.84255 0.40131
 N80 N 0.05357 0.86326 0.38862
 C81 C 0.02645 0.85020 0.38235
 C82 C 0.02691 0.81958 0.39135
 C83 C 0.05557 0.81547 0.40333
 H84 H 0.00792 0.86197 0.37161
 H85 H 0.06449 0.79470 0.41332
 Cu86 Cu 0.06843 0.90493 0.38009
 Cu87 Cu 0.11108 0.85328 0.41629
 Cu88 Cu 0.14369 0.91980 0.38610
 N89 N 0.08823 0.93938 0.35896
 N90 N 0.11781 0.94434 0.36040
 C91 C 0.12592 0.96754 0.34138
 C92 C 0.09996 0.97765 0.32731
 C93 C 0.07644 0.95946 0.33917
 H94 H 0.14903 0.97603 0.33774
 H95 H 0.05279 0.95981 0.33274
 N96 N 0.16571 0.89167 0.41286
 N97 N 0.15366 0.86563 0.42348
 C98 C 0.17411 0.85164 0.44105
 C99 C 0.19993 0.87010 0.44202
 C100 C 0.19391 0.89525 0.42384
 H101 H 0.17009 0.83030 0.45334
 H102 H 0.20883 0.91483 0.41924
 H103 H 0.11053 0.90167 0.41547
 H104 H 0.11811 0.88018 0.37824
 N105 N 0.09906 0.16997 0.11283
 N106 N 0.08483 0.15817 0.13714
 C107 C 0.05848 0.17359 0.14274
 C108 C 0.05609 0.19608 0.12057
 C109 C 0.08214 0.19308 0.10194
 H110 H 0.04194 0.16834 0.16101
 H111 H 0.08835 0.20670 0.08195
 Cu112 Cu 0.10177 0.12307 0.15822
 Cu113 Cu 0.13888 0.15499 0.09779
 Cu114 Cu 0.15725 0.08153 0.12266
 N115 N 0.12237 0.09011 0.17935
 N116 N 0.14445 0.07413 0.16534
 C117 C 0.15432 0.05237 0.18445
 C118 C 0.13739 0.05469 0.21180
 C119 C 0.11729 0.07892 0.20786
 H120 H 0.17207 0.03567 0.17865
 H121 H 0.10027 0.08769 0.22438
 N122 N 0.17703 0.10069 0.08627
 N123 N 0.17122 0.12929 0.07783
 C124 C 0.18927 0.13620 0.05313
 C125 C 0.20718 0.11059 0.04568
 C126 C 0.19874 0.08849 0.06704
 H127 H 0.18874 0.15788 0.04098
 H128 H 0.20802 0.06537 0.06865
 H129 H 0.12369 0.11155 0.10680
 H130 H 0.15262 0.12691 0.13372
 N131 N 0.41940 0.83854 0.57610
 N132 N 0.43140 0.84584 0.60259
 C133 C 0.45314 0.82498 0.60860
 C134 C 0.45496 0.80373 0.58438
 C135 C 0.43343 0.81314 0.56408
 H136 H 0.46702 0.82554 0.62870
 H137 H 0.42819 0.80215 0.54233
 Cu138 Cu 0.41808 0.88258 0.62592
 Cu139 Cu 0.38640 0.86244 0.55926
 Cu140 Cu 0.35724 0.92315 0.60461
 N141 N 0.40496 0.91995 0.64828
 N142 N 0.38028 0.93485 0.64059
 C143 C 0.37552 0.95900 0.66018
 C144 C 0.39862 0.95939 0.68110
 C145 C 0.41702 0.93446 0.67278
 H146 H 0.35715 0.97554 0.65875
 H147 H 0.43752 0.92741 0.68390
 N148 N 0.33768 0.90785 0.56709
 N149 N 0.34848 0.88444 0.55004
 C150 C 0.32976 0.87925 0.52650
 C151 C 0.30642 0.90078 0.52868
 C152 C 0.31223 0.91861 0.55446
 H153 H 0.33314 0.86154 0.50880
 H154 H 0.29872 0.93791 0.56337
 H155 H 0.39451 0.90494 0.58135
 H156 H 0.36914 0.87642 0.60191
 N157 N 0.91250 0.67182 0.38844
 N158 N 0.93235 0.65090 0.37824
 C159 C 0.96056 0.66348 0.37772
 C160 C 0.95818 0.69401 0.38765
 C161 C 0.92733 0.69862 0.39422
 H162 H 0.98126 0.65151 0.37024
 H163 H 0.91651 0.71957 0.40319
 Cu164 Cu 0.91936 0.60984 0.36489
 Cu165 Cu 0.86909 0.66238 0.39417
 Cu166 Cu 0.84980 0.58468 0.38687
 N167 N 0.90096 0.57371 0.34533
 N168 N 0.87328 0.56432 0.35352
 C169 C 0.86593 0.53928 0.33638
 C170 C 0.89043 0.53265 0.31637
 C171 C 0.91233 0.55479 0.32281
 H172 H 0.84461 0.52661 0.33873
 H173 H 0.93475 0.55709 0.31176
 N174 N 0.82363 0.61492 0.40908
 N175 N 0.83020 0.64482 0.41076
 C176 C 0.80819 0.65925 0.42804
 C177 C 0.78706 0.63729 0.43788
 C178 C 0.79748 0.60943 0.42525
 H179 H 0.80836 0.68364 0.43436
 H180 H 0.78717 0.58674 0.42797
 H181 H 0.88000 0.61813 0.40527
 H182 H 0.86516 0.62315 0.36585
 N183 N 0.60652 0.32774 -0.10719
 N184 N 0.59342 0.33999 -0.13088
 C185 C 0.56729 0.32448 -0.13620
 C186 C 0.56387 0.30144 -0.11448
 C187 C 0.58907 0.30425 -0.09640
 H188 H 0.55174 0.32983 -0.15414
 H189 H 0.59449 0.29006 -0.07703
 Cu190 Cu 0.61200 0.37496 -0.15240
 Cu191 Cu 0.64592 0.34236 -0.09319
 Cu192 Cu 0.66322 0.41774 -0.11450
 N193 N 0.62963 0.41253 -0.16994
 N194 N 0.65069 0.42843 -0.15555
 C195 C 0.65970 0.45262 -0.17289
 C196 C 0.64306 0.45209 -0.19929
 C197 C 0.62414 0.42637 -0.19674
 H198 H 0.67675 0.46959 -0.16655
 H199 H 0.60808 0.41810 -0.21338
 N200 N 0.68219 0.39725 -0.07982
 N201 N 0.67684 0.36797 -0.07287
 C202 C 0.69393 0.36032 -0.04901
 C203 C 0.71071 0.38616 -0.04047
 C204 C 0.70263 0.40916 -0.06035
 H205 H 0.69332 0.33799 -0.03799
 H206 H 0.71117 0.43275 -0.06069
 H207 H 0.62985 0.38535 -0.10069
 H208 H 0.66145 0.37269 -0.12795
 C209 C -0.02735 0.26325 0.15785
 C210 C -0.01385 0.24758 0.13429
 C211 C 0.01165 0.22637 0.13942
 C212 C 0.03076 0.21773 0.11625
 H213 H -0.02107 0.25069 0.11095
 H214 H 0.01514 0.21824 0.16251
 H215 H -0.01844 0.26104 0.18068
 H216 H 0.02834 0.22747 0.09362
 C217 C 0.51505 0.71804 0.62206
 C218 C 0.50939 0.73707 0.59901
 C219 C 0.48853 0.76353 0.60385
 C220 C 0.47582 0.77719 0.58010
 H221 H 0.51963 0.73276 0.57627
 H222 H 0.48293 0.77139 0.62719
 H223 H 0.50325 0.72137 0.64421
 H224 H 0.47995 0.76801 0.55696
 C225 C 1.00294 0.79827 0.38872
 C226 C 1.00555 0.76817 0.39523
 C227 C 0.97947 0.74679 0.39208
 C228 C 0.98366 0.71610 0.39096
 H229 H 1.02712 0.75884 0.40224
 H230 H 0.95678 0.75632 0.38992
 H231 H 0.98148 0.80663 0.38034
 H232 H 1.00662 0.70682 0.39140
 C233 C 0.48543 0.23102 -0.15243
 C234 C 0.49661 0.24719 -0.12885
 C235 C 0.52148 0.26987 -0.13372
 C236 C 0.53874 0.27894 -0.11045
 H237 H 0.48798 0.24309 -0.10557
 H238 H 0.52623 0.27854 -0.15668
 H239 H 0.49548 0.23374 -0.17540
 H240 H 0.53518 0.26863 -0.08801
 C241 C 0.09750 0.00104 0.30317
 C242 C 0.12167 0.01013 0.28590
 C243 C 0.11828 0.03182 0.26043
 C244 C 0.14038 0.03465 0.23864
 H245 H 0.14401 0.00037 0.28954
 H246 H 0.09707 0.04446 0.25881
 H247 H 0.07495 0.00959 0.29832
 H248 H 0.16081 0.02063 0.23963
 C249 C 0.60197 0.51898 -0.27695
 C250 C 0.62584 0.50283 -0.26747
 C251 C 0.62226 0.48100 -0.24192
 C252 C 0.64596 0.47396 -0.22485
 H253 H 0.64846 0.50622 -0.27784
 H254 H 0.59985 0.47129 -0.23647
 H255 H 0.58008 0.51673 -0.26467
 H256 H 0.66774 0.48555 -0.22882
 C257 C 0.36360 1.03337 0.76103
 C258 C 0.38668 1.02213 0.74332
 C259 C 0.38102 0.99920 0.71868
 C260 C 0.40370 0.98200 0.70620
 H261 H 0.40995 1.02948 0.74729
 H262 H 0.35789 0.99602 0.71104
 H263 H 0.34063 1.02452 0.75813
 H264 H 0.42645 0.98390 0.71514
 C265 C 0.84967 0.45770 0.24256
 C266 C 0.87289 0.46697 0.25966
 C267 C 0.86918 0.49274 0.28209
 C268 C 0.89348 0.50709 0.29360
 H269 H 0.89499 0.45583 0.25680
 H270 H 0.84631 0.50037 0.28882
 H271 H 0.82815 0.47009 0.24427
 H272 H 0.91628 0.50057 0.28544
 C273 C 0.28338 0.14909 -0.02959
 C274 C 0.26525 0.12593 -0.01995
 C275 C 0.24277 0.13073 0.00566
 C276 C 0.22979 0.10660 0.02005
 H277 H 0.26738 0.10305 -0.03053
 H278 H 0.23731 0.15422 0.01318
 H279 H 0.28225 0.17144 -0.01778
 H280 H 0.23660 0.08318 0.01351
 C281 C 0.71421 0.60266 0.51758
 C282 C 0.72220 0.62481 0.49766
 C283 C 0.74737 0.61933 0.47487
 C284 C 0.76064 0.64257 0.45930
 H285 H 0.71090 0.64714 0.49871
 H286 H 0.75597 0.59590 0.47179
 H287 H 0.72672 0.58099 0.51711
 H288 H 0.75303 0.66621 0.46355
 C289 C 0.78371 0.34645 0.03172
 C290 C 0.76476 0.36906 0.02409
 C291 C 0.74481 0.36515 -0.00227
 C292 C 0.73149 0.38956 -0.01471
 H293 H 0.76415 0.39073 0.03712
 H294 H 0.74131 0.34206 -0.01181
 H295 H 0.78545 0.32556 0.01753
 H296 H 0.73646 0.41279 -0.00625
 C297 C 0.22704 0.86459 0.46027
 C298 C 0.24443 0.88797 0.47027
 C299 C 0.27041 0.88240 0.49003
 C300 C 0.28107 0.90524 0.50788
 H301 H 0.23860 0.91171 0.46512
 H302 H 0.28002 0.85930 0.49087
 H303 H 0.23161 0.84107 0.46725
 H304 H 0.26995 0.92769 0.50837
   
