data_POSCAR
  _audit_creation_date              2014-09-24
  _audit_creation_method            'ToBaCCo'
  _symmetry_space_group_name_H-M    'P1'
  _symmetry_Int_Tables_number       1
  _symmetry_cell_setting            triclinic
  loop_
  _symmetry_equiv_pos_as_xyz
 x,y,z
_cell_length_a 45.2356
_cell_length_b 48.1065
_cell_length_c 47.1231
_cell_angle_alpha 90.421800
_cell_angle_beta 90.734300
_cell_angle_gamma 92.337500
loop_
  _atom_site_label
  _atom_site_type_symbol
  _atom_site_fract_x
  _atom_site_fract_y
  _atom_site_fract_z
Si1 Si 0.24869 0.25154 0.25790
 Si2 Si 0.75084 0.75400 0.25536
 Si3 Si 0.75199 0.25209 0.74327
 Si4 Si 0.25489 0.75033 0.76815
 C5 C 0.03711 0.04554 0.00696
 H6 H 0.03904 0.04703 -0.01585
 C7 C 0.05425 0.06340 0.02464
 H8 H 0.06965 0.07839 0.01526
 C9 C 0.01484 0.02394 0.04681
 H10 H -0.00093 0.00893 0.05544
 C11 C 0.03152 0.04135 0.06525
 H12 H 0.02836 0.03946 0.08790
 N13 N 0.01823 0.02600 0.01826
 C14 C 0.00756 -0.03971 -0.04586
 H15 H -0.01632 -0.04141 -0.04760
 C16 C 0.02475 -0.05744 -0.06170
 H17 H 0.01390 -0.07290 -0.07550
 C18 C 0.05056 -0.01807 -0.02490
 H19 H 0.06056 -0.00300 -0.01024
 C20 C 0.06860 -0.03541 -0.04030
 H21 H 0.09239 -0.03303 -0.03773
 Zn22 Zn -0.00435 0.00232 -0.00679
 N23 N 0.02064 -0.02031 -0.02814
 C24 C -0.02361 0.02379 -0.05968
 N25 N -0.02638 0.02521 -0.03100
 C26 C -0.04414 0.04387 -0.01871
 C27 C -0.06056 0.06162 -0.03544
 C28 C -0.03964 0.04115 -0.07721
 C29 C -0.01663 -0.04074 0.03098
 C30 C -0.03372 -0.05857 0.04796
 C31 C -0.07764 -0.03781 0.02942
 C32 C -0.05967 -0.02036 0.01275
 N33 N -0.02972 -0.02177 0.01424
 H34 H -0.00877 0.00941 -0.06905
 H35 H -0.04559 0.04485 0.00417
 H36 H -0.07498 0.07597 -0.02525
 H37 H -0.03693 0.03987 -0.09997
 H38 H 0.00724 -0.04158 0.03153
 H39 H -0.02277 -0.07292 0.06179
 H40 H -0.10143 -0.03635 0.02806
 H41 H -0.06972 -0.00564 -0.00120
 C42 C 0.05573 -0.05541 -0.05904
 C43 C 0.05171 0.06128 0.05423
 C44 C -0.06465 -0.05705 0.04755
 C45 C -0.05850 0.06034 -0.06514
 C46 C 0.04981 0.55321 0.50854
 H47 H 0.04973 0.55415 0.48560
 C48 C 0.06820 0.57163 0.52441
 H49 H 0.08253 0.58650 0.51350
 C50 C 0.03132 0.53243 0.55050
 H51 H 0.01656 0.51747 0.56063
 C52 C 0.04936 0.55042 0.56720
 H53 H 0.04824 0.54907 0.59008
 N54 N 0.03215 0.53387 0.52171
 C55 C 0.01669 0.46690 0.45975
 H56 H -0.00724 0.46533 0.45958
 C57 C 0.03258 0.44876 0.44311
 H58 H 0.02069 0.43313 0.43029
 C59 C 0.06116 0.48866 0.47750
 H60 H 0.07224 0.50398 0.49119
 C61 C 0.07793 0.47092 0.46123
 H62 H 0.10184 0.47321 0.46218
 Zn63 Zn 0.00775 0.50981 0.49861
 N64 N 0.03109 0.48655 0.47624
 C65 C -0.01453 0.53035 0.44640
 N66 N -0.01549 0.53241 0.47517
 C67 C -0.03242 0.55137 0.48808
 C68 C -0.04992 0.56872 0.47195
 C69 C -0.03170 0.54728 0.42945
 C70 C -0.00340 0.46745 0.53792
 C71 C -0.02029 0.44894 0.55441
 C72 C -0.06452 0.46896 0.53566
 C73 C -0.04677 0.48711 0.51955
 N74 N -0.01678 0.48622 0.52115
 H75 H -0.00033 0.51573 0.43648
 H76 H -0.03245 0.55283 0.51101
 H77 H -0.06371 0.58326 0.48266
 H78 H -0.03049 0.54545 0.40658
 H79 H 0.02048 0.46680 0.53835
 H80 H -0.00921 0.43399 0.56742
 H81 H -0.08833 0.47027 0.53438
 H82 H -0.05706 0.50170 0.50563
 C83 C 0.06365 0.45067 0.44367
 C84 C 0.06825 0.57027 0.55417
 C85 C -0.05131 0.44956 0.55342
 C86 C -0.04982 0.56670 0.44220
 C87 C 0.53005 0.03540 0.50934
 H88 H 0.53008 0.03655 0.48642
 C89 C 0.54782 0.05410 0.52547
 H90 H 0.56180 0.06939 0.51474
 C91 C 0.51194 0.01375 0.55101
 H92 H 0.49757 -0.00170 0.56091
 C93 C 0.52938 0.03204 0.56797
 H94 H 0.52821 0.03043 0.59084
 N95 N 0.51287 0.01550 0.52224
 C96 C 0.50036 -0.05054 0.45874
 H97 H 0.47647 -0.05269 0.45790
 C98 C 0.51726 -0.06771 0.44193
 H99 H 0.50618 -0.08318 0.42831
 C100 C 0.54376 -0.02826 0.47822
 H101 H 0.55406 -0.01312 0.49263
 C102 C 0.56150 -0.04501 0.46184
 H103 H 0.58533 -0.04211 0.46343
 Zn104 Zn 0.48938 -0.00874 0.49850
 N105 N 0.51377 -0.03105 0.47614
 C106 C 0.46760 0.01251 0.44636
 N107 N 0.46606 0.01383 0.47514
 C108 C 0.44873 0.03233 0.48824
 C109 C 0.43156 0.05010 0.47229
 C110 C 0.45078 0.02990 0.42957
 C111 C 0.47853 -0.05167 0.53721
 C112 C 0.46178 -0.07028 0.55370
 C113 C 0.41737 -0.05083 0.53466
 C114 C 0.43499 -0.03257 0.51855
 N115 N 0.46500 -0.03305 0.52039
 H116 H 0.48211 -0.00175 0.43632
 H117 H 0.44826 0.03321 0.51118
 H118 H 0.41756 0.06437 0.48313
 H119 H 0.45256 0.02877 0.40670
 H120 H 0.50243 -0.05199 0.53784
 H121 H 0.47299 -0.08499 0.56689
 H122 H 0.39354 -0.04972 0.53335
 H123 H 0.42459 -0.01808 0.50458
 C124 C 0.54828 -0.06500 0.44330
 C125 C 0.54774 0.05250 0.55521
 C126 C 0.43074 -0.06991 0.55268
 C127 C 0.43243 0.04901 0.44252
 C128 C 0.54693 0.53451 0.01056
 H129 H 0.54776 0.53642 -0.01228
 C130 C 0.56440 0.55247 0.02783
 H131 H 0.57856 0.56829 0.01811
 C132 C 0.52651 0.51225 0.05093
 H133 H 0.51137 0.49690 0.05992
 C134 C 0.54353 0.52977 0.06897
 H135 H 0.54174 0.52722 0.09170
 N136 N 0.52867 0.51472 0.02228
 C137 C 0.51368 0.45093 -0.04333
 H138 H 0.48975 0.44945 -0.04375
 C139 C 0.52967 0.43371 -0.06090
 H140 H 0.51785 0.41885 -0.07469
 C141 C 0.55806 0.47157 -0.02410
 H142 H 0.56906 0.48610 -0.00951
 C143 C 0.57493 0.45472 -0.04126
 H144 H 0.59882 0.45692 -0.04006
 Zn145 Zn 0.50459 0.49190 -0.00233
 N146 N 0.52800 0.46963 -0.02567
 C147 C 0.48250 0.51517 -0.05343
 N148 N 0.48171 0.51583 -0.02459
 C149 C 0.46523 0.53443 -0.01060
 C150 C 0.44802 0.55285 -0.02567
 C151 C 0.46564 0.53326 -0.06935
 C152 C 0.49295 0.44821 0.03519
 C153 C 0.47601 0.43048 0.05245
 C154 C 0.43206 0.45224 0.03535
 C155 C 0.44985 0.46955 0.01842
 N156 N 0.47977 0.46765 0.01911
 H157 H 0.49622 0.50069 -0.06419
 H158 H 0.46547 0.53487 0.01237
 H159 H 0.43518 0.56759 -0.01411
 H160 H 0.46615 0.53208 -0.09229
 H161 H 0.51677 0.44693 0.03506
 H162 H 0.48702 0.41578 0.06580
 H163 H 0.40830 0.45414 0.03463
 H164 H 0.43969 0.48458 0.00492
 C165 C 0.56074 0.43553 -0.06007
 C166 C 0.56278 0.55024 0.05748
 C167 C 0.44515 0.43262 0.05294
 C168 C 0.44799 0.55235 -0.05547
 C169 C 0.19385 -0.19417 -0.21069
 C170 C 0.19577 -0.19337 -0.18102
 C171 C 0.21587 -0.20994 -0.16684
 C172 C 0.23399 -0.22726 -0.18225
 C173 C 0.23208 -0.22820 -0.21201
 C174 C 0.21194 -0.21147 -0.22612
 C175 C 0.17724 -0.17545 -0.16514
 C176 C 0.16177 -0.16041 -0.15183
 C177 C 0.14371 -0.14276 -0.13622
 C178 C 0.12835 -0.12766 -0.12286
 C179 C 0.11008 -0.10959 -0.10685
 C180 C 0.11729 -0.10308 -0.07855
 C181 C 0.09964 -0.08547 -0.06299
 C182 C 0.07448 -0.07414 -0.07555
 C183 C 0.06739 -0.08086 -0.10402
 C184 C 0.08510 -0.09846 -0.11955
 H185 H 0.17841 -0.18139 -0.22188
 H186 H 0.21760 -0.20941 -0.14389
 H187 H 0.24949 -0.23969 -0.17077
 H188 H 0.21017 -0.21173 -0.24908
 H189 H 0.13654 -0.11165 -0.06849
 H190 H 0.10545 -0.08101 -0.04101
 H191 H 0.04839 -0.07221 -0.11440
 H192 H 0.07936 -0.10331 -0.14147
 C193 C 0.17857 0.29049 0.29545
 C194 C 0.19285 0.30995 0.31374
 C195 C 0.22379 0.31174 0.31526
 C196 C 0.24037 0.29414 0.29860
 C197 C 0.22618 0.27448 0.28036
 C198 C 0.19515 0.27287 0.27878
 C199 C 0.17579 0.32819 0.33078
 C200 C 0.16157 0.34352 0.34504
 C201 C 0.14496 0.36153 0.36173
 C202 C 0.13081 0.37696 0.37597
 C203 C 0.11395 0.39541 0.39296
 C204 C 0.12331 0.40233 0.42063
 C205 C 0.10698 0.42030 0.43714
 C206 C 0.08103 0.43159 0.42616
 C207 C 0.07180 0.42447 0.39832
 C208 C 0.08817 0.40651 0.38185
 H209 H 0.15464 0.28900 0.29402
 H210 H 0.23509 0.32680 0.32923
 H211 H 0.26430 0.29595 0.29983
 H212 H 0.18363 0.25817 0.26466
 H213 H 0.14319 0.39379 0.42947
 H214 H 0.11445 0.42508 0.45861
 H215 H 0.05214 0.43308 0.38914
 H216 H 0.08078 0.40135 0.36042
 C217 C 0.67686 -0.21375 0.29299
 C218 C 0.68913 -0.19290 0.31094
 C219 C 0.71984 -0.18800 0.31208
 C220 C 0.73819 -0.20395 0.29542
 C221 C 0.72603 -0.22504 0.27757
 C222 C 0.69521 -0.22971 0.27632
 C223 C 0.67025 -0.17652 0.32814
 C224 C 0.65451 -0.16276 0.34260
 C225 C 0.63619 -0.14660 0.35958
 C226 C 0.62065 -0.13273 0.37413
 C227 C 0.60227 -0.11606 0.39156
 C228 C 0.61052 -0.11014 0.41975
 C229 C 0.59291 -0.09366 0.43663
 C230 C 0.56677 -0.08287 0.42551
 C231 C 0.55858 -0.08908 0.39718
 C232 C 0.57624 -0.10555 0.38033
 H233 H 0.65311 -0.21764 0.29185
 H234 H 0.72959 -0.17185 0.32580
 H235 H 0.76189 -0.19979 0.29640
 H236 H 0.68518 -0.24557 0.26251
 H237 H 0.63058 -0.11824 0.42868
 H238 H 0.59961 -0.08958 0.45845
 H239 H 0.53879 -0.08080 0.38790
 H240 H 0.56969 -0.10995 0.35851
 C241 C 0.67988 0.28738 -0.21860
 C242 C 0.69324 0.30539 -0.19831
 C243 C 0.72410 0.30726 -0.19557
 C244 C 0.74152 0.29128 -0.21312
 C245 C 0.72828 0.27338 -0.23368
 C246 C 0.69731 0.27138 -0.23616
 C247 C 0.67535 0.32196 -0.18029
 C248 C 0.66053 0.33595 -0.16515
 C249 C 0.64336 0.35246 -0.14739
 C250 C 0.62882 0.36665 -0.13220
 C251 C 0.61159 0.38372 -0.11404
 C252 C 0.62069 0.38887 -0.08593
 C253 C 0.60415 0.40566 -0.06834
 C254 C 0.57823 0.41753 -0.07866
 C255 C 0.56923 0.41215 -0.10694
 C256 C 0.58582 0.39537 -0.12450
 H257 H 0.65600 0.28569 -0.22082
 H258 H 0.73469 0.32104 -0.17987
 H259 H 0.76537 0.29284 -0.21062
 H260 H 0.68648 0.25750 -0.25154
 H261 H 0.64057 0.37990 -0.07760
 H262 H 0.61144 0.40909 -0.04658
 H263 H 0.54961 0.42127 -0.11562
 H264 H 0.57863 0.39159 -0.14625
 C265 C -0.21216 0.21123 -0.18774
 C266 C -0.18907 0.19683 -0.19973
 C267 C -0.18355 0.19919 -0.22879
 C268 C -0.20102 0.21590 -0.24576
 C269 C -0.22406 0.23058 -0.23383
 C270 C -0.22962 0.22793 -0.20470
 C271 C -0.17144 0.17928 -0.18231
 C272 C -0.15685 0.16449 -0.16764
 C273 C -0.13995 0.14707 -0.15041
 C274 C -0.12564 0.13212 -0.13566
 C275 C -0.10868 0.11418 -0.11803
 C276 C -0.10540 0.08641 -0.12602
 C277 C -0.08907 0.06891 -0.10885
 C278 C -0.07580 0.07896 -0.08341
 C279 C -0.07922 0.10692 -0.07557
 C280 C -0.09555 0.12439 -0.09279
 H281 H -0.21683 0.20935 -0.16533
 H282 H -0.16589 0.18797 -0.23835
 H283 H -0.19659 0.21705 -0.26818
 H284 H -0.24772 0.23830 -0.19499
 H285 H -0.11555 0.07826 -0.14546
 H286 H -0.08717 0.04741 -0.11528
 H287 H -0.06896 0.11538 -0.05632
 H288 H -0.09789 0.14587 -0.08643
 C289 C -0.20474 0.72033 0.32408
 C290 C -0.18921 0.69899 0.31151
 C291 C -0.19186 0.69417 0.28225
 C292 C -0.20978 0.71075 0.26561
 C293 C -0.22504 0.73249 0.27800
 C294 C -0.22268 0.73691 0.30744
 C295 C -0.17085 0.68186 0.32867
 C296 C -0.15549 0.66748 0.34303
 C297 C -0.13753 0.65060 0.35982
 C298 C -0.12223 0.63612 0.37413
 C299 C -0.10401 0.61876 0.39119
 C300 C -0.10101 0.59083 0.38369
 C301 C -0.08337 0.57391 0.40024
 C302 C -0.06848 0.58472 0.42457
 C303 C -0.07164 0.61284 0.43192
 C304 C -0.08929 0.62973 0.41532
 H305 H -0.20307 0.72408 0.34675
 H306 H -0.18024 0.67749 0.27233
 H307 H -0.21209 0.70622 0.24316
 H308 H -0.23466 0.75298 0.31778
 H309 H -0.11239 0.58210 0.36510
 H310 H -0.08171 0.55227 0.39423
 H311 H -0.06018 0.62187 0.45030
 H312 H -0.09139 0.65135 0.42127
 C313 C 0.28884 0.21279 0.32610
 C314 C 0.30221 0.19031 0.31318
 C315 C 0.29918 0.18614 0.28385
 C316 C 0.28311 0.20452 0.26749
 C317 C 0.27013 0.22742 0.28022
 C318 C 0.27274 0.23117 0.30974
 C319 C 0.31893 0.17151 0.33003
 C320 C 0.33301 0.15585 0.34416
 C321 C 0.34959 0.13762 0.36075
 C322 C 0.36383 0.12213 0.37494
 C323 C 0.38091 0.10373 0.39194
 C324 C 0.38358 0.07599 0.38354
 C325 C 0.40030 0.05817 0.39999
 C326 C 0.41456 0.06788 0.42508
 C327 C 0.41169 0.09581 0.43334
 C328 C 0.39499 0.11359 0.41686
 H329 H 0.29082 0.21608 0.34883
 H330 H 0.30915 0.16863 0.27366
 H331 H 0.28049 0.20056 0.24495
 H332 H 0.26243 0.24814 0.32033
 H333 H 0.37271 0.06813 0.36432
 H334 H 0.40178 0.03671 0.39325
 H335 H 0.42273 0.10401 0.45232
 H336 H 0.39314 0.13505 0.42350
 C337 C 0.28090 0.68984 -0.17909
 C338 C 0.31173 0.69387 -0.17840
 C339 C 0.32516 0.71554 -0.19390
 C340 C 0.30787 0.73304 -0.21014
 C341 C 0.27695 0.72898 -0.21101
 C342 C 0.26357 0.70731 -0.19533
 C343 C 0.32959 0.67562 -0.16203
 C344 C 0.34457 0.66026 -0.14843
 C345 C 0.36211 0.64219 -0.13262
 C346 C 0.37708 0.62670 -0.11917
 C347 C 0.39491 0.60813 -0.10315
 C348 C 0.42347 0.60256 -0.11208
 C349 C 0.44076 0.58443 -0.09660
 C350 C 0.42969 0.57164 -0.07193
 C351 C 0.40095 0.57742 -0.06313
 C352 C 0.38370 0.59553 -0.07866
 H353 H 0.27027 0.67313 -0.16718
 H354 H 0.34900 0.71884 -0.19350
 H355 H 0.31879 0.74963 -0.22196
 H356 H 0.23975 0.70381 -0.19568
 H357 H 0.43240 0.61226 -0.13099
 H358 H 0.46293 0.58070 -0.10372
 H359 H 0.39166 0.56762 -0.04446
 H360 H 0.36158 0.59963 -0.07161
 C361 C -0.21636 -0.17713 0.21127
 C362 C -0.19330 -0.18790 0.19562
 C363 C -0.18658 -0.21588 0.19848
 C364 C -0.20296 -0.23307 0.21678
 C365 C -0.22612 -0.22243 0.23254
 C366 C -0.23275 -0.19432 0.22958
 C367 C -0.17697 -0.17048 0.17613
 C368 C -0.16332 -0.15608 0.15961
 C369 C -0.14728 -0.13939 0.14017
 C370 C -0.13347 -0.12523 0.12357
 C371 C -0.11678 -0.10836 0.10386
 C372 C -0.09295 -0.11943 0.08959
 C373 C -0.07622 -0.10288 0.07098
 C374 C -0.08313 -0.07500 0.06640
 C375 C -0.10735 -0.06416 0.08060
 C376 C -0.12403 -0.08075 0.09922
 H377 H -0.22191 -0.15555 0.20905
 H378 H -0.16891 -0.22449 0.18633
 H379 H -0.19772 -0.25470 0.21818
 H380 H -0.25095 -0.18568 0.24084
 H381 H -0.08719 -0.14081 0.09296
 H382 H -0.05795 -0.11193 0.06009
 H383 H -0.11298 -0.04269 0.07782
 H384 H -0.14240 -0.07196 0.11022
 C385 C -0.20534 0.32079 0.70637
 C386 C -0.18976 0.30896 0.68418
 C387 C -0.19211 0.28018 0.67948
 C388 C -0.20967 0.26331 0.69714
 C389 C -0.22482 0.27499 0.71985
 C390 C -0.22291 0.30394 0.72400
 C391 C -0.17147 0.32644 0.66629
 C392 C -0.15617 0.34137 0.65159
 C393 C -0.13828 0.35914 0.63464
 C394 C -0.12304 0.37452 0.62034
 C395 C -0.10490 0.39309 0.60344
 C396 C -0.11351 0.39923 0.57563
 C397 C -0.09609 0.41754 0.55934
 C398 C -0.06977 0.42998 0.57066
 C399 C -0.06126 0.42360 0.59862
 C400 C -0.07873 0.40529 0.61488
 H401 H -0.20394 0.34307 0.71004
 H402 H -0.18044 0.27081 0.66215
 H403 H -0.21171 0.24120 0.69276
 H404 H -0.23488 0.31375 0.74072
 H405 H -0.13370 0.38986 0.56654
 H406 H -0.10304 0.42171 0.53777
 H407 H -0.04133 0.43309 0.60807
 H408 H -0.07190 0.40078 0.63643
 C409 C 0.29518 -0.18758 0.72400
 C410 C 0.29951 -0.20096 0.69794
 C411 C 0.29107 -0.22919 0.69432
 C412 C 0.27807 -0.24435 0.71669
 C413 C 0.27551 -0.23053 0.74352
 C414 C 0.28292 -0.20222 0.74672
 C415 C 0.31465 -0.18592 0.67578
 C416 C 0.32813 -0.17266 0.65820
 C417 C 0.34470 -0.15647 0.63870
 C418 C 0.35938 -0.14216 0.62288
 C419 C 0.37746 -0.12460 0.60488
 C420 C 0.36857 -0.11937 0.57694
 C421 C 0.38595 -0.10173 0.55985
 C422 C 0.41247 -0.08908 0.57053
 C423 C 0.42125 -0.09462 0.59861
 C424 C 0.40386 -0.11224 0.61563
 H425 H 0.30161 -0.16577 0.72682
 H426 H 0.29571 -0.23988 0.67466
 H427 H 0.27782 -0.27154 0.71457
 H428 H 0.27930 -0.19153 0.76660
 H429 H 0.34819 -0.12885 0.56839
 H430 H 0.37876 -0.09816 0.53822
 H431 H 0.44129 -0.08492 0.60760
 H432 H 0.41088 -0.11603 0.63728
 C433 C 0.28869 0.31808 0.21531
 C434 C 0.31078 0.30554 0.19980
 C435 C 0.31469 0.27696 0.20230
 C436 C 0.29647 0.26095 0.22012
 C437 C 0.27426 0.27337 0.23574
 C438 C 0.27046 0.30207 0.23313
 C439 C 0.32885 0.32184 0.18071
 C440 C 0.34376 0.33549 0.16453
 C441 C 0.36099 0.35152 0.14545
 C442 C 0.37555 0.36532 0.12913
 C443 C 0.39280 0.38201 0.10970
 C444 C 0.41610 0.37049 0.09501
 C445 C 0.43303 0.38685 0.07636
 C446 C 0.42681 0.41496 0.07217
 C447 C 0.40321 0.42628 0.08694
 C448 C 0.38635 0.40990 0.10557
 H449 H 0.28529 0.34015 0.21334
 H450 H 0.33157 0.26699 0.19023
 H451 H 0.29954 0.23885 0.22125
 H452 H 0.25305 0.31213 0.24428
 H453 H 0.42122 0.34890 0.09799
 H454 H 0.45082 0.37746 0.06506
 H455 H 0.39815 0.44794 0.08449
 H456 H 0.36840 0.41904 0.11690
 C457 C 0.18856 0.19095 0.22752
 C458 C 0.18769 0.19594 0.19828
 C459 C 0.20493 0.21790 0.18699
 C460 C 0.22307 0.23473 0.20480
 C461 C 0.22413 0.22972 0.23407
 C462 C 0.20671 0.20779 0.24536
 C463 C 0.16938 0.17845 0.17977
 C464 C 0.15425 0.16385 0.16403
 C465 C 0.13675 0.14674 0.14544
 C466 C 0.12193 0.13206 0.12952
 C467 C 0.10435 0.11437 0.11056
 C468 C 0.09231 0.12519 0.08567
 C469 C 0.07525 0.10794 0.06726
 C470 C 0.06999 0.07964 0.07357
 C471 C 0.08226 0.06898 0.09863
 C472 C 0.09932 0.08624 0.11698
 H473 H 0.17531 0.17400 0.23648
 H474 H 0.20440 0.22196 0.16440
 H475 H 0.23614 0.25162 0.19560
 H476 H 0.20727 0.20366 0.26791
 H477 H 0.09604 0.14695 0.08053
 H478 H 0.06582 0.11683 0.04832
 H479 H 0.07898 0.04721 0.10388
 H480 H 0.10863 0.07763 0.13614
 C481 C 0.18923 0.70955 0.72395
 C482 C 0.20310 0.70537 0.69791
 C483 C 0.23278 0.71421 0.69430
 C484 C 0.24892 0.72743 0.71666
 C485 C 0.23466 0.72997 0.74347
 C486 C 0.20486 0.72208 0.74666
 C487 C 0.18726 0.68996 0.67582
 C488 C 0.17343 0.67623 0.65831
 C489 C 0.15670 0.65932 0.63888
 C490 C 0.14205 0.64429 0.62312
 C491 C 0.12422 0.62571 0.60522
 C492 C 0.11007 0.63562 0.58095
 C493 C 0.09201 0.61759 0.56419
 C494 C 0.08782 0.58941 0.57158
 C495 C 0.10234 0.57965 0.59590
 C496 C 0.12038 0.59768 0.61258
 H497 H 0.16632 0.70278 0.72677
 H498 H 0.24392 0.70974 0.67468
 H499 H 0.19377 0.72551 0.76655
 H500 H 0.11276 0.65731 0.57513
 H501 H 0.08088 0.62581 0.54578
 H502 H 0.09992 0.55800 0.60193
 H503 H 0.13124 0.58978 0.63131
 C504 C 0.70824 0.18274 0.70732
 C505 C 0.69185 0.19406 0.68514
 C506 C 0.69385 0.22277 0.68028
 C507 C 0.71207 0.24006 0.69764
 C508 C 0.72838 0.22879 0.71997
 C509 C 0.72643 0.20002 0.72467
 C510 C 0.67279 0.17620 0.66763
 C511 C 0.65683 0.16102 0.65321
 C512 C 0.63816 0.14301 0.63655
 C513 C 0.62226 0.12747 0.62245
 C514 C 0.60335 0.10876 0.60571
 C515 C 0.58856 0.11843 0.58170
 C516 C 0.57038 0.10020 0.56533
 C517 C 0.56674 0.07199 0.57279
 C518 C 0.58162 0.06251 0.59704
 C519 C 0.59980 0.08077 0.61336
 H520 H 0.70682 0.16058 0.71130
 H521 H 0.68126 0.23176 0.66320
 H522 H 0.71330 0.26224 0.69375
 H523 H 0.73866 0.19085 0.74186
 H524 H 0.59107 0.14007 0.57563
 H525 H 0.55893 0.10823 0.54701
 H526 H 0.57959 0.04086 0.60313
 H527 H 0.61120 0.07304 0.63187
 C528 C 0.69677 0.68787 0.22674
 C529 C 0.69487 0.69233 0.19745
 C530 C 0.70968 0.71545 0.18556
 C531 C 0.72638 0.73404 0.20284
 C532 C 0.72840 0.72963 0.23218
 C533 C 0.71348 0.70647 0.24405
 C534 C 0.67770 0.67328 0.17952
 C535 C 0.66336 0.65751 0.16428
 C536 C 0.64657 0.63923 0.14626
 C537 C 0.63215 0.62372 0.13081
 C538 C 0.61481 0.60530 0.11238
 C539 C 0.62717 0.59466 0.08769
 C540 C 0.61026 0.57680 0.06977
 C541 C 0.58076 0.56933 0.07636
 C542 C 0.56854 0.58021 0.10121
 C543 C 0.58547 0.59807 0.11907
 H544 H 0.68536 0.67006 0.23617
 H545 H 0.70830 0.71913 0.16293
 H546 H 0.73751 0.75184 0.19320
 H547 H 0.71480 0.70279 0.26667
 H548 H 0.64989 0.60010 0.08234
 H549 H 0.62039 0.56852 0.05098
 H550 H 0.54577 0.57519 0.10665
 H551 H 0.57565 0.60629 0.13806
   
