data_POSCAR
  _audit_creation_date              2014-09-24
  _audit_creation_method            'ToBaCCo'
  _symmetry_space_group_name_H-M    'P1'
  _symmetry_Int_Tables_number       1
  _symmetry_cell_setting            triclinic
  loop_
  _symmetry_equiv_pos_as_xyz
 x,y,z
_cell_length_a 33.5145
_cell_length_b 36.2748
_cell_length_c 39.4556
_cell_angle_alpha 90.137800
_cell_angle_beta 90.250800
_cell_angle_gamma 90.058200
loop_
  _atom_site_label
  _atom_site_type_symbol
  _atom_site_fract_x
  _atom_site_fract_y
  _atom_site_fract_z
C1 C 0.17054 0.14846 0.21064
 N2 N 0.14355 0.17181 0.19662
 C3 C 0.15175 0.18982 0.16717
 N4 N 0.18706 0.18344 0.15111
 C5 C 0.21470 0.16088 0.16552
 N6 N 0.20629 0.14420 0.19532
 C7 C -0.16581 0.84924 0.22883
 N8 N -0.19495 0.86382 0.20948
 C9 C -0.20338 0.85133 0.17788
 N10 N -0.18247 0.82187 0.16563
 C11 C -0.15290 0.80639 0.18503
 N12 N -0.14440 0.82075 0.21625
 C13 C -0.12585 0.16739 -0.20779
 N14 N -0.15248 0.14133 -0.19775
 C15 C -0.17854 0.14823 -0.17222
 N16 N -0.17734 0.18155 -0.15650
 C17 C -0.15009 0.20735 -0.16537
 N18 N -0.12455 0.20044 -0.19129
 C19 C 0.13927 0.83325 -0.21101
 N20 N 0.12423 0.80099 -0.19918
 C21 C 0.12657 0.79205 -0.16591
 N22 N 0.14522 0.81549 -0.14420
 C23 C 0.16217 0.84727 -0.15563
 N24 N 0.15869 0.85620 -0.18911
 C25 C 0.14113 1.17189 0.78258
 N26 N 0.17556 1.15933 0.79652
 C27 C 0.18686 1.17036 0.82807
 N28 N 0.16344 1.19396 0.84596
 C29 C 0.12850 1.20628 0.83240
 N30 N 0.11809 1.19535 0.80066
 C31 C 0.85341 0.82818 0.77980
 N32 N 0.81530 0.83862 0.78656
 C33 C 0.79547 0.82347 0.81329
 N34 N 0.81344 0.79712 0.83266
 C35 C 0.85096 0.78561 0.82523
 N36 N 0.87039 0.80174 0.79920
 C37 C 0.14362 0.83828 1.21191
 N38 N 0.13938 0.80495 1.19641
 C39 C 0.16145 0.79608 1.16888
 N40 N 0.18822 0.82066 1.15672
 C41 C 0.19227 0.85441 1.17127
 N42 N 0.16978 0.86323 1.19877
 C43 C 0.84151 1.14106 1.21799
 N44 N 0.82021 1.12267 1.19385
 C45 C 0.81747 1.13598 1.16182
 N46 N 0.83514 1.16854 1.15398
 C47 C 0.85514 1.18817 1.17811
 N48 N 0.85858 1.17390 1.20989
 O49 O 0.47141 1.07868 1.04133
 O50 O 0.41551 1.05443 1.01605
 C51 C 0.43312 1.07708 1.03677
 O52 O 0.56386 1.04374 0.91384
 O53 O 0.60011 1.00135 0.94414
 C54 C 0.59642 1.02580 0.92051
 O55 O 0.45758 1.07220 0.92290
 O56 O 0.40867 1.05103 0.95835
 C57 C 0.42111 1.07181 0.93383
 O58 O 0.57774 1.04821 1.03728
 O59 O 0.60751 1.00495 1.00322
 C60 C 0.60875 1.03034 1.02645
 Zr61 Zr 0.51723 1.04487 1.02199
 O62 O 0.53690 1.10011 1.01765
 O63 O 0.52130 1.04604 1.07548
 Zr64 Zr 0.50727 1.04032 0.93741
 O65 O 0.52486 1.09629 0.93741
 O66 O 0.49874 1.03946 0.88422
 O67 O 0.47975 1.05835 0.98163
 O68 O 0.54781 1.04043 0.97692
 O69 O 0.54384 0.93131 1.04818
 O70 O 0.59104 0.94692 1.00873
 C71 C 0.58026 0.93204 1.03707
 O72 O 0.41910 0.94374 0.93252
 O73 O 0.39049 0.98932 0.96488
 C74 C 0.38840 0.96136 0.94449
 O75 O 0.52807 0.92344 0.91737
 O76 O 0.58296 0.94258 0.94761
 C77 C 0.56620 0.92357 0.92359
 O78 O 0.43367 0.94982 1.04963
 O79 O 0.39798 0.99349 1.02044
 C80 C 0.40115 0.96809 1.04333
 Zr81 Zr 0.49125 0.95488 1.02784
 O82 O 0.48075 0.89730 1.02794
 O83 O 0.49210 0.95484 1.08141
 Zr84 Zr 0.48110 0.95023 0.94347
 O85 O 0.47141 0.89313 0.95101
 O86 O 0.46887 0.94252 0.89136
 Zr87 Zr 0.44198 1.01233 0.98672
 Zr88 Zr 0.55668 0.98305 0.97857
 O89 O 0.51850 0.93737 0.98373
 O90 O 0.44968 0.95458 0.98862
 O91 O 0.53874 0.99192 1.02906
 O92 O 0.46018 1.00332 0.93644
 O93 O 0.47180 1.00862 1.03356
 O94 O 0.52728 0.98651 0.93131
 H95 H 0.57115 1.05701 0.97457
 H96 H 0.44054 1.00628 0.91781
 H97 H 0.53131 0.91275 0.98394
 H98 H 0.45732 1.01387 1.05487
 H99 H 0.51390 1.01822 0.87520
 H100 H 0.47714 0.96545 0.87988
 H101 H 0.44493 0.89023 0.96167
 H102 H 0.45261 0.89330 1.02115
 H103 H 0.50745 0.97692 1.08844
 H104 H 0.52973 1.07137 1.08174
 H105 H 0.51827 1.11275 1.00201
 H106 H 0.52479 1.10414 0.91337
 O107 O 0.04797 0.54100 -0.05288
 O108 O 0.02326 0.58569 -0.01745
 C109 C 0.04238 0.57520 -0.04440
 O110 O -0.09942 0.45073 -0.03302
 O111 O -0.06087 0.40765 -0.00588
 C112 C -0.08981 0.41689 -0.02600
 O113 O -0.08462 0.55273 -0.04009
 O114 O -0.04124 0.59092 -0.01150
 C115 C -0.06852 0.58464 -0.03417
 O116 O 0.04261 0.43867 -0.04806
 O117 O 0.00659 0.40181 -0.01204
 C118 C 0.02953 0.40690 -0.03795
 Zr119 Zr 0.02953 0.49187 -0.02909
 O120 O 0.02488 0.48870 -0.08249
 O121 O 0.09241 0.48815 -0.03044
 Zr122 Zr -0.07048 0.50065 -0.01900
 O123 O -0.07746 0.49753 -0.07225
 O124 O -0.13208 0.51025 -0.01126
 O125 O -0.01815 0.52847 -0.03124
 O126 O -0.02454 0.46456 -0.02968
 O127 O 0.05980 0.44047 0.07249
 O128 O 0.01471 0.40270 0.04535
 C129 C 0.04415 0.40842 0.06605
 O130 O -0.06420 0.55445 0.08775
 O131 O -0.03371 0.59243 0.04924
 C132 C -0.05342 0.58674 0.07697
 O133 O -0.07861 0.45195 0.08733
 O134 O -0.05263 0.40808 0.05168
 C135 C -0.07284 0.41791 0.07808
 O136 O 0.06954 0.54305 0.07096
 O137 O 0.03196 0.58637 0.04298
 C138 C 0.06062 0.57681 0.06328
 Zr139 Zr 0.04224 0.49336 0.05496
 O140 O 0.05219 0.49184 0.10795
 O141 O 0.10433 0.49037 0.04556
 Zr142 Zr -0.05801 0.50190 0.06519
 O143 O -0.05863 0.50155 0.11872
 O144 O -0.12045 0.51078 0.06573
 Zr145 Zr -0.00875 0.55208 0.01695
 Zr146 Zr -0.01952 0.44205 0.01917
 O147 O -0.00999 0.46635 0.06712
 O148 O -0.00363 0.53013 0.06622
 O149 O 0.04023 0.45867 0.01285
 O150 O -0.06813 0.53456 0.02315
 O151 O 0.04607 0.52457 0.01136
 O152 O -0.07516 0.46861 0.02464
 H153 H -0.02906 0.44845 -0.04964
 H154 H -0.08895 0.55386 0.02492
 H155 H -0.00827 0.45114 0.08787
 H156 H 0.07059 0.53948 0.00829
 H157 H -0.14245 0.48955 0.00241
 H158 H -0.13356 0.48643 0.06343
 H159 H -0.03057 0.49887 0.12609
 H160 H 0.03561 0.51145 0.11818
 H161 H 0.10945 0.46709 0.03318
 H162 H 0.09964 0.48759 -0.05475
 H163 H -0.00122 0.49962 -0.08860
 H164 H -0.10643 0.49993 -0.07695
 O165 O 0.94141 0.07102 0.45861
 O166 O 0.97005 0.03149 0.42023
 C167 C 0.94595 0.05793 0.42816
 O168 O 1.09507 0.06740 0.53898
 O169 O 1.06259 0.03626 0.58146
 C170 C 1.08761 0.06074 0.57067
 O171 O 1.08203 0.06079 0.44482
 O172 O 1.03684 0.02744 0.41324
 C173 C 1.06687 0.04981 0.41623
 O174 O 0.95584 0.07626 0.55332
 O175 O 0.99515 0.04089 0.58834
 C176 C 0.97020 0.06756 0.58292
 Zr177 Zr 0.96747 0.05273 0.50504
 O178 O 0.97031 0.11102 0.50398
 O179 O 0.90493 0.05292 0.51158
 Zr180 Zr 1.06759 0.04528 0.49483
 O181 O 1.07475 0.10320 0.49318
 O182 O 1.12950 0.03779 0.48677
 O183 O 1.01356 0.05472 0.46955
 O184 O 1.02232 0.05726 0.52837
 O185 O 0.94439 -0.05436 0.56064
 O186 O 0.99091 -0.02166 0.59128
 C187 C 0.96179 -0.04498 0.58888
 O188 O 1.06614 -0.07418 0.45210
 O189 O 1.03103 -0.03587 0.41665
 C190 C 1.05315 -0.06439 0.42236
 O191 O 1.08524 -0.06622 0.54559
 O192 O 1.05848 -0.02658 0.58472
 C193 C 1.08015 -0.05483 0.57648
 O194 O 0.93207 -0.06087 0.46587
 O195 O 0.96666 -0.03181 0.42337
 C196 C 0.93940 -0.05415 0.43416
 Zr197 Zr 0.96007 -0.03970 0.51024
 O198 O 0.95516 -0.09757 0.51580
 O199 O 0.89742 -0.03380 0.51427
 Zr200 Zr 1.06032 -0.04700 0.49958
 O201 O 1.06282 -0.10500 0.50356
 O202 O 1.12237 -0.04673 0.48951
 Zr203 Zr 1.00630 0.00006 0.45255
 Zr204 Zr 1.02173 0.00543 0.55250
 O205 O 1.01410 -0.04866 0.53408
 O206 O 1.00496 -0.05228 0.47567
 O207 O 0.96101 0.00883 0.53873
 O208 O 1.06664 -0.00318 0.46710
 O209 O 0.95223 0.00530 0.47912
 O210 O 1.07645 0.00021 0.52680
 H211 H 1.02571 0.08040 0.54143
 H212 H 1.08717 -0.00639 0.44934
 H213 H 1.01428 -0.06997 0.54971
 H214 H 0.92654 0.00588 0.46661
 H215 H 1.14115 0.02785 0.50795
 H216 H 1.13625 -0.03837 0.51035
 H217 H 1.03507 -0.11352 0.50660
 H218 H 0.96811 -0.10907 0.49592
 H219 H 0.89230 -0.01539 0.53228
 H220 H 0.89677 0.07917 0.51117
 H221 H 0.98583 0.11801 0.48373
 H222 H 1.05350 0.11298 0.47826
 C223 C 1.11914 0.11305 0.28759
 C224 C 1.14927 0.09196 0.30108
 C225 C 1.18631 0.08819 0.28605
 C226 C 1.19286 0.10702 0.25572
 C227 C 1.16263 0.12961 0.24100
 C228 C 1.12506 0.13249 0.25744
 O229 O 1.08619 0.11271 0.30630
 C230 C 1.09600 0.09104 0.33218
 C231 C 1.13442 0.07788 0.33009
 C232 C 1.15173 0.05574 0.35472
 C233 C 1.12857 0.04692 0.38292
 C234 C 1.08886 0.05983 0.38570
 C235 C 1.07198 0.08192 0.35989
 H236 H 1.20944 0.07131 0.29728
 H237 H 1.22183 0.10401 0.24400
 H238 H 1.10116 0.14924 0.24722
 H239 H 1.18213 0.04601 0.35251
 H240 H 1.14145 0.02990 0.40267
 H241 H 1.04176 0.09225 0.36178
 C242 C 0.88162 -0.12629 0.31132
 C243 C 0.85070 -0.10732 0.32610
 C244 C 0.81431 -0.10175 0.31016
 C245 C 0.80949 -0.11617 0.27751
 C246 C 0.84034 -0.13701 0.26173
 C247 C 0.87682 -0.14262 0.27939
 O248 O 0.91499 -0.12511 0.32963
 C249 C 0.90463 -0.10526 0.35656
 C250 C 0.86535 -0.09433 0.35583
 C251 C 0.84817 -0.07281 0.38106
 C252 C 0.87266 -0.06165 0.40805
 C253 C 0.91358 -0.07115 0.40861
 C254 C 0.92987 -0.09344 0.38268
 H255 H 0.79081 -0.08594 0.32204
 H256 H 0.78122 -0.11148 0.26485
 H257 H 0.90139 -0.15745 0.26797
 H258 H 0.81722 -0.06444 0.37973
 H259 H 0.86032 -0.04420 0.42769
 H260 H 0.96127 -0.10047 0.38248
 C261 C 0.92027 0.12023 0.71645
 C262 C 0.93084 0.15028 0.69729
 C263 C 0.92697 0.18633 0.70895
 C264 C 0.91058 0.19167 0.74132
 C265 C 0.89771 0.16119 0.76100
 C266 C 0.90346 0.12492 0.74848
 O267 O 0.92538 0.08836 0.70040
 C268 C 0.93911 0.09850 0.67031
 C269 C 0.94259 0.13613 0.66697
 C270 C 0.95388 0.15282 0.63677
 C271 C 0.96200 0.12980 0.60897
 C272 C 0.95942 0.09094 0.61201
 C273 C 0.94818 0.07505 0.64325
 H274 H 0.93537 0.20958 0.69337
 H275 H 0.90615 0.21959 0.75028
 H276 H 0.89373 0.10106 0.76268
 H277 H 0.95589 0.18251 0.63457
 H278 H 0.97100 0.14216 0.58523
 H279 H 0.94577 0.04545 0.64610
 C280 C 1.12970 -0.11409 0.70828
 C281 C 1.12193 -0.14265 0.68628
 C282 C 1.11981 -0.17915 0.69647
 C283 C 1.12566 -0.18671 0.73088
 C284 C 1.13489 -0.15808 0.75442
 C285 C 1.13769 -0.12115 0.74258
 O286 O 1.12652 -0.08115 0.69366
 C287 C 1.11688 -0.08931 0.66174
 C288 C 1.11441 -0.12665 0.65597
 C289 C 1.10410 -0.14170 0.62480
 C290 C 1.09543 -0.11730 0.59840
 C291 C 1.09606 -0.07857 0.60373
 C292 C 1.10723 -0.06431 0.63592
 H293 H 1.11272 -0.20099 0.67869
 H294 H 1.12339 -0.21515 0.73895
 H295 H 1.14357 -0.09843 0.75975
 H296 H 1.10206 -0.17121 0.62109
 H297 H 1.08621 -0.12875 0.57420
 H298 H 1.10739 -0.03494 0.64081
 C299 C 0.29697 1.14527 1.10442
 C300 C 0.32832 1.14212 1.12683
 C301 C 0.32399 1.14513 1.16163
 C302 C 0.28564 1.15131 1.17405
 C303 C 0.25271 1.15635 1.15167
 C304 C 0.25875 1.15431 1.11613
 O305 O 0.30677 1.13561 1.07296
 C306 C 0.34515 1.12659 1.07573
 C307 C 0.35976 1.13106 1.10809
 C308 C 0.39840 1.12195 1.11748
 C309 C 0.42304 1.10677 1.09268
 C310 C 0.40838 1.09978 1.05946
 C311 C 0.36892 1.11034 1.05069
 H312 H 0.34892 1.14103 1.17874
 H313 H 0.28176 1.15264 1.20127
 H314 H 0.23402 1.15641 1.09848
 H315 H 0.40886 1.12541 1.14328
 H316 H 0.45286 1.09842 1.10003
 H317 H 0.35673 1.10471 1.02574
 C318 C 0.24485 0.90629 0.87606
 C319 C 0.24092 0.90103 0.91038
 C320 C 0.21029 0.88031 0.92437
 C321 C 0.18316 0.86343 0.90207
 C322 C 0.18630 0.86825 0.86638
 C323 C 0.21697 0.89129 0.85343
 O324 O 0.27846 0.92355 0.86785
 C325 C 0.29600 0.92943 0.89766
 C326 C 0.27391 0.91659 0.92450
 C327 C 0.28703 0.91873 0.95792
 C328 C 0.32449 0.93469 0.96397
 C329 C 0.34836 0.94713 0.93673
 C330 C 0.33395 0.94461 0.90306
 H331 H 0.20836 0.87592 0.95144
 H332 H 0.16000 0.84619 0.91274
 H333 H 0.22123 0.89487 0.82644
 H334 H 0.26924 0.90813 0.97855
 H335 H 0.33555 0.93635 0.98977
 H336 H 0.35181 0.95378 0.88187
 C337 C 0.71874 0.87535 1.11283
 C338 C 0.70187 0.90488 1.12922
 C339 C 0.71539 0.91845 1.15986
 C340 C 0.74745 0.90058 1.17498
 C341 C 0.76571 0.86907 1.15974
 C342 C 0.75130 0.85665 1.12760
 O343 O 0.69998 0.86728 1.08379
 C344 C 0.67069 0.89221 1.08238
 C345 C 0.67084 0.91553 1.10989
 C346 C 0.64266 0.94285 1.11507
 C347 C 0.61268 0.94653 1.09081
 C348 C 0.61158 0.92346 1.06184
 C349 C 0.64123 0.89602 1.05709
 H350 H 0.70146 0.94193 1.17196
 H351 H 0.75752 0.91163 1.19906
 H352 H 0.76416 0.83294 1.11503
 H353 H 0.64362 0.96064 1.13712
 H354 H 0.59060 0.96803 1.09421
 H355 H 0.64100 0.87830 1.03498
 C356 C 0.73187 1.10632 0.86668
 C357 C 0.73444 1.07073 0.85483
 C358 C 0.76520 1.05904 0.83382
 C359 C 0.79421 1.08516 0.82453
 C360 C 0.79260 1.12200 0.83704
 C361 C 0.76084 1.13228 0.85873
 O362 O 0.69987 1.11242 0.88545
 C363 C 0.68185 1.07992 0.88570
 C364 C 0.70189 1.05323 0.86769
 C365 C 0.68863 1.01684 0.86578
 C366 C 0.65349 1.00775 0.88330
 C367 C 0.63218 1.03523 0.90126
 C368 C 0.64645 1.07176 0.90233
 H369 H 0.76658 1.03095 0.82459
 H370 H 0.81812 1.07640 0.80799
 H371 H 0.75792 1.16003 0.86861
 H372 H 0.70504 0.99614 0.85181
 H373 H 0.64274 0.97957 0.88279
 H374 H 0.63096 1.09295 0.91649
 C375 C 0.10926 0.26968 0.11716
 C376 C 0.08473 0.28491 0.14126
 C377 C 0.07826 0.26888 0.17265
 C378 C 0.09868 0.23620 0.17996
 C379 C 0.12560 0.22050 0.15622
 C380 C 0.13034 0.23728 0.12404
 O381 O 0.11156 0.28986 0.08913
 C382 C 0.08825 0.31857 0.09591
 C383 C 0.07149 0.31690 0.12766
 C384 C 0.04762 0.34469 0.14084
 C385 C 0.04025 0.37533 0.12026
 C386 C 0.05637 0.37738 0.08721
 C387 C 0.08061 0.34862 0.07465
 H388 H 0.05886 0.28155 0.19119
 H389 H 0.09483 0.22419 0.20483
 H390 H 0.15080 0.22625 0.10545
 H391 H 0.03523 0.34292 0.16607
 H392 H 0.02129 0.39721 0.12973
 H393 H 0.09295 0.34965 0.04935
 C394 C -0.11861 0.28639 -0.10924
 C395 C -0.15340 0.30655 -0.10846
 C396 C -0.18737 0.29635 -0.12659
 C397 C -0.18555 0.26383 -0.14590
 C398 C -0.14989 0.24292 -0.14743
 C399 C -0.11579 0.25454 -0.12911
 O400 O -0.09017 0.30032 -0.08948
 C401 C -0.10727 0.33000 -0.07616
 C402 C -0.14581 0.33528 -0.08716
 C403 C -0.16855 0.36561 -0.07745
 C404 C -0.15043 0.39203 -0.05623
 C405 C -0.11073 0.38710 -0.04448
 C406 C -0.08931 0.35510 -0.05403
 H407 H -0.21453 0.31241 -0.12535
 H408 H -0.21192 0.25471 -0.15951
 H409 H -0.08852 0.23857 -0.12935
 H410 H -0.19871 0.36937 -0.08670
 H411 H -0.16702 0.41651 -0.04937
 H412 H -0.05883 0.35074 -0.04583
 C413 C 0.09242 0.71291 -0.11023
 C414 C 0.08821 0.68576 -0.13432
 C415 C 0.09454 0.69171 -0.16862
 C416 C 0.10616 0.72710 -0.17862
 C417 C 0.11185 0.75566 -0.15437
 C418 C 0.10467 0.74839 -0.11957
 O419 O 0.08443 0.70117 -0.07902
 C420 C 0.07530 0.66578 -0.08365
 C421 C 0.07760 0.65511 -0.11705
 C422 C 0.07055 0.61929 -0.12785
 C423 C 0.06042 0.59325 -0.10328
 C424 C 0.05673 0.60336 -0.06860
 C425 C 0.06428 0.64034 -0.05865
 H426 H 0.09082 0.66980 -0.18704
 H427 H 0.11156 0.73192 -0.20528
 H428 H 0.10861 0.76955 -0.10045
 H429 H 0.07275 0.61164 -0.15431
 H430 H 0.05421 0.56534 -0.11157
 H431 H 0.06173 0.64893 -0.03245
 C432 C -0.11247 0.72626 0.13295
 C433 C -0.09560 0.70569 0.15848
 C434 C -0.09566 0.71655 0.19217
 C435 C -0.11394 0.75007 0.20010
 C436 C -0.13231 0.77198 0.17458
 C437 C -0.13151 0.75978 0.14036
 O438 O -0.10929 0.71024 0.10267
 C439 C -0.09022 0.67888 0.10947
 C440 C -0.08151 0.67485 0.14335
 C441 C -0.06354 0.64357 0.15668
 C442 C -0.05433 0.61496 0.13420
 C443 C -0.06252 0.61831 0.09908
 C444 C -0.08030 0.65095 0.08636
 H445 H -0.08234 0.69966 0.21175
 H446 H -0.11444 0.75843 0.22645
 H447 H -0.14530 0.77569 0.12032
 H448 H -0.05751 0.64099 0.18354
 H449 H -0.04077 0.59010 0.14411
 H450 H -0.08736 0.65385 0.05970
 C451 C 1.13630 0.12496 0.69901
 C452 C 1.11272 0.14949 0.68159
 C453 C 1.09604 0.18048 0.69651
 C454 C 1.10459 0.18691 0.73075
 C455 C 1.13092 0.16334 0.74901
 C456 C 1.14707 0.13188 0.73264
 O457 O 1.14522 0.09507 0.68105
 C458 C 1.12730 0.10122 0.65150
 C459 C 1.10788 0.13463 0.65039
 C460 C 1.08658 0.14670 0.62231
 C461 C 1.08423 0.12289 0.59446
 C462 C 1.10173 0.08739 0.59575
 C463 C 1.12398 0.07640 0.62448
 H464 H 1.07643 0.19864 0.68248
 H465 H 1.09167 0.21107 0.74257
 H466 H 1.16618 0.11264 0.74595
 H467 H 1.07136 0.17300 0.62221
 H468 H 1.06620 0.13099 0.57286
 H469 H 1.13635 0.04891 0.62638
 C470 C 0.88390 -0.11745 0.70384
 C471 C 0.92417 -0.12450 0.70444
 C472 C 0.94234 -0.14671 0.72837
 C473 C 0.91808 -0.16259 0.75297
 C474 C 0.87622 -0.15549 0.75397
 C475 C 0.85899 -0.13217 0.72892
 O476 O 0.87303 -0.09645 0.67772
 C477 C 0.90735 -0.09007 0.66183
 C478 C 0.93943 -0.10642 0.67761
 C479 C 0.97834 -0.10317 0.66622
 C480 C 0.98466 -0.08210 0.63722
 C481 C 0.95230 -0.06542 0.61984
 C482 C 0.91288 -0.06958 0.63209
 H483 H 0.97412 -0.15198 0.72794
 H484 H 0.93251 -0.17998 0.77161
 H485 H 0.82732 -0.12634 0.72846
 H486 H 1.00301 -0.11628 0.67925
 H487 H 1.01479 -0.07934 0.62780
 H488 H 0.88777 -0.05704 0.61920
 C489 C 1.10799 -0.11452 0.28998
 C490 C 1.08773 -0.14299 0.30514
 C491 C 1.08269 -0.17716 0.28984
 C492 C 1.10005 -0.18260 0.25795
 C493 C 1.12291 -0.15429 0.24217
 C494 C 1.12612 -0.11943 0.25848
 O495 O 1.10923 -0.08419 0.30887
 C496 C 1.08969 -0.09391 0.33666
 C497 C 1.07629 -0.12977 0.33581
 C498 C 1.05675 -0.14619 0.36295
 C499 C 1.05053 -0.12465 0.39207
 C500 C 1.06313 -0.08740 0.39307
 C501 C 1.08282 -0.07174 0.36497
 H502 H 1.06630 -0.19905 0.30218
 H503 H 1.09661 -0.20944 0.24624
 H504 H 1.14289 -0.09695 0.24747
 H505 H 1.04683 -0.17458 0.36182
 H506 H 1.03507 -0.13656 0.41347
 H507 H 1.09267 -0.04328 0.36532
 C508 C 0.88045 0.12341 0.30504
 C509 C 0.85783 0.09330 0.31371
 C510 C 0.82920 0.07812 0.29226
 C511 C 0.82370 0.09449 0.26042
 C512 C 0.84629 0.12597 0.25063
 C513 C 0.87472 0.14084 0.27383
 O514 O 0.90833 0.13155 0.32797
 C515 C 0.90306 0.10605 0.35169
 C516 C 0.87223 0.08220 0.34421
 C517 C 0.86261 0.05225 0.36450
 C518 C 0.88611 0.04625 0.39339
 C519 C 0.91855 0.06984 0.40130
 C520 C 0.92706 0.10044 0.38041
 H521 H 0.81234 0.05393 0.29944
 H522 H 0.80178 0.08242 0.24347
 H523 H 0.89326 0.16421 0.26729
 H524 H 0.83862 0.03356 0.35782
 H525 H 0.88009 0.02238 0.40900
 H526 H 0.95257 0.11800 0.38539
 C527 C 0.09431 0.27756 -0.10647
 C528 C 0.05880 0.28730 -0.12151
 C529 C 0.04393 0.27025 -0.15037
 C530 C 0.06701 0.24239 -0.16493
 C531 C 0.10446 0.23198 -0.15056
 C532 C 0.11768 0.24945 -0.12026
 O533 O 0.10376 0.29879 -0.08011
 C534 C 0.07357 0.32246 -0.07869
 C535 C 0.04534 0.31646 -0.10356
 C536 C 0.01223 0.33890 -0.10815
 C537 C 0.00799 0.36885 -0.08614
 C538 C 0.03628 0.37536 -0.06009
 C539 C 0.06962 0.35199 -0.05612
 H540 H 0.01596 0.27869 -0.16176
 H541 H 0.05569 0.22946 -0.18780
 H542 H 0.14610 0.24279 -0.10864
 H543 H -0.00922 0.33385 -0.12822
 H544 H -0.01731 0.38712 -0.08933
 H545 H 0.09177 0.35696 -0.03657
 C546 C -0.11927 0.27418 0.13173
 C547 C -0.10771 0.29632 0.15832
 C548 C -0.10532 0.28368 0.19147
 C549 C -0.11617 0.24692 0.19765
 C550 C -0.13017 0.22371 0.17093
 C551 C -0.13108 0.23779 0.13733
 O552 O -0.11825 0.29127 0.10200
 C553 C -0.10617 0.32506 0.11009
 C554 C -0.09982 0.32971 0.14430
 C555 C -0.08791 0.36314 0.15842
 C556 C -0.08160 0.39281 0.13631
 C557 C -0.08643 0.38834 0.10081
 C558 C -0.09912 0.35396 0.08755
 H559 H -0.09555 0.30152 0.21192
 H560 H -0.11488 0.23715 0.22355
 H561 H -0.14100 0.22116 0.11607
 H562 H -0.08331 0.36618 0.18545
 H563 H -0.07116 0.41877 0.14670
 H564 H -0.10264 0.34970 0.06052
 C565 C -0.12796 0.71011 -0.11301
 C566 C -0.09220 0.69805 -0.12576
 C567 C -0.07348 0.71407 -0.15319
 C568 C -0.09250 0.74380 -0.16864
 C569 C -0.13021 0.75681 -0.15700
 C570 C -0.14805 0.73960 -0.12841
 O571 O -0.13995 0.69062 -0.08632
 C572 C -0.11110 0.66571 -0.08250
 C573 C -0.08148 0.66919 -0.10634
 C574 C -0.04899 0.64571 -0.10838
 C575 C -0.04657 0.61752 -0.08455
 C576 C -0.07557 0.61387 -0.05888
 C577 C -0.10876 0.63796 -0.05781
 H578 H -0.04518 0.70395 -0.16249
 H579 H -0.07777 0.75603 -0.19025
 H580 H -0.17654 0.74861 -0.11858
 H581 H -0.02656 0.64871 -0.12784
 H582 H -0.02218 0.59818 -0.08613
 H583 H -0.13148 0.63528 -0.03856
 C584 C 0.11388 0.71138 0.13101
 C585 C 0.14704 0.69281 0.11970
 C586 C 0.18558 0.70655 0.12356
 C587 C 0.19006 0.74086 0.13969
 C588 C 0.15635 0.76008 0.15219
 C589 C 0.11776 0.74498 0.14794
 O590 O 0.07988 0.69431 0.12364
 C591 C 0.09184 0.66417 0.10751
 C592 C 0.13268 0.66172 0.10476
 C593 C 0.15163 0.63201 0.08938
 C594 C 0.12746 0.60369 0.07628
 C595 C 0.08533 0.60615 0.07807
 C596 C 0.06724 0.63684 0.09383
 H597 H 0.21119 0.69163 0.11412
 H598 H 0.21972 0.75231 0.14277
 H599 H 0.09151 0.75938 0.15680
 H600 H 0.18380 0.63060 0.08768
 H601 H 0.14141 0.58022 0.06417
 H602 H 0.03510 0.63908 0.09572
 C603 C 0.27324 1.13570 0.88051
 C604 C 0.30437 1.14566 0.85981
 C605 C 0.29897 1.16329 0.82893
 C606 C 0.25980 1.17106 0.81890
 C607 C 0.22723 1.16172 0.83996
 C608 C 0.23392 1.14409 0.87139
 O609 O 0.28501 1.11683 0.90761
 C610 C 0.32438 1.11503 0.90390
 C611 C 0.33758 1.13259 0.87521
 C612 C 0.37731 1.13336 0.86565
 C613 C 0.40471 1.11466 0.88615
 C614 C 0.39201 1.09514 0.91542
 C615 C 0.35116 1.09591 0.92468
 H616 H 0.32396 1.17016 0.81284
 H617 H 0.25472 1.18454 0.79478
 H618 H 0.20932 1.13619 0.88753
 H619 H 0.38682 1.14729 0.84283
 H620 H 0.43567 1.11449 0.87841
 H621 H 0.34032 1.08105 0.94655
 C622 C 0.28019 0.89308 1.12408
 C623 C 0.27128 0.93009 1.12409
 C624 C 0.23812 0.94440 1.14075
 C625 C 0.21286 0.91943 1.15754
 C626 C 0.22080 0.88102 1.15674
 C627 C 0.25526 0.86787 1.14006
 O628 O 0.31295 0.88495 1.10689
 C629 C 0.32492 0.91747 1.09550
 C630 C 0.30031 0.94602 1.10501
 C631 C 0.30655 0.98217 1.09451
 C632 C 0.33958 0.98912 1.07360
 C633 C 0.36582 0.96017 1.06419
 C634 C 0.35831 0.92387 1.07539
 H635 H 0.23172 0.97364 1.14055
 H636 H 0.18650 0.92981 1.17012
 H637 H 0.26225 0.83874 1.13918
 H638 H 0.28657 1.00417 1.10193
 H639 H 0.34515 1.01707 1.06524
 H640 H 0.37757 0.90120 1.06827
 C641 C 0.73212 1.08965 1.11644
 C642 C 0.75030 1.07892 1.08679
 C643 C 0.79035 1.08611 1.08018
 C644 C 0.81240 1.10519 1.10509
 C645 C 0.79434 1.11580 1.13602
 C646 C 0.75375 1.10763 1.14186
 O647 O 0.69335 1.08234 1.11698
 C648 C 0.68684 1.06653 1.08710
 C649 C 0.72072 1.06335 1.06776
 C650 C 0.72031 1.04794 1.03539
 C651 C 0.68341 1.03589 1.02230
 C652 C 0.64788 1.04010 1.04138
 C653 C 0.64989 1.05529 1.07441
 H654 H 0.80393 1.07796 1.05649
 H655 H 0.84349 1.11151 1.10048
 H656 H 0.73919 1.11610 1.16505
 H657 H 0.74733 1.04565 1.02062
 H658 H 0.68234 1.02438 0.99695
 H659 H 0.62335 1.05878 1.08965
 C660 C 0.70703 0.85555 0.86370
 C661 C 0.67937 0.86096 0.83833
 C662 C 0.68795 0.85502 0.80426
 C663 C 0.72656 0.84287 0.79608
 C664 C 0.75514 0.83626 0.82195
 C665 C 0.74511 0.84256 0.85623
 O666 O 0.69379 0.86490 0.89417
 C667 C 0.65686 0.87625 0.88798
 C668 C 0.64636 0.87398 0.85428
 C669 C 0.60913 0.88481 0.84223
 C670 C 0.58190 0.89917 0.86577
 C671 C 0.59262 0.90311 0.90044
 C672 C 0.63056 0.89103 0.91167
 H673 H 0.66595 0.86009 0.78466
 H674 H 0.73409 0.83825 0.76975
 H675 H 0.76669 0.83843 0.87637
 H676 H 0.60155 0.88288 0.81559
 H677 H 0.55318 0.90875 0.85673
 H678 H 0.63972 0.89394 0.93790
   
