data_POSCAR
  _audit_creation_date              2014-09-24
  _audit_creation_method            'ToBaCCo'
  _symmetry_space_group_name_H-M    'P1'
  _symmetry_Int_Tables_number       1
  _symmetry_cell_setting            triclinic
  loop_
  _symmetry_equiv_pos_as_xyz
 x,y,z
_cell_length_a 34.8723
_cell_length_b 34.8363
_cell_length_c 34.9345
_cell_angle_alpha 89.916700
_cell_angle_beta 89.841100
_cell_angle_gamma 89.981800
loop_
  _atom_site_label
  _atom_site_type_symbol
  _atom_site_fract_x
  _atom_site_fract_y
  _atom_site_fract_z
N1 N 0.20629 1.20670 0.20620
 N2 N 0.79909 0.79145 0.20520
 N3 N 0.79396 1.20212 -0.19872
 N4 N 0.20486 0.79959 -0.20902
 C5 C 0.55823 1.04814 -0.00395
 H6 H 0.55722 1.04843 0.02700
 C7 C 0.58534 1.07039 -0.02331
 H8 H 0.60496 1.08790 -0.00689
 C9 C 0.53451 1.02384 -0.06259
 H10 H 0.51536 1.00490 -0.07777
 C11 C 0.56128 1.04554 -0.08312
 H12 H 0.56190 1.04340 -0.11403
 N13 N 0.53334 1.02567 -0.02371
 C14 C 0.44239 1.00533 0.05986
 H15 H 0.44232 0.97427 0.06012
 C16 C 0.41597 1.02553 0.08214
 H17 H 0.39577 1.00965 0.09963
 C18 C 0.46817 1.06341 0.03558
 H19 H 0.48792 1.07804 0.01669
 C20 C 0.44215 1.08479 0.05733
 H21 H 0.44260 1.11579 0.05522
 Zn22 Zn 0.49990 0.99430 0.00548
 N23 N 0.46784 1.02440 0.03727
 C24 C 0.53202 0.96275 0.07377
 N25 N 0.53147 0.96153 0.03486
 C26 C 0.55594 0.93859 0.01500
 C27 C 0.58243 0.91566 0.03423
 C28 C 0.55818 0.94030 0.09422
 C29 C 0.44438 0.98497 -0.05128
 C30 C 0.41820 0.96544 -0.07427
 C31 C 0.43825 0.90595 -0.04482
 C32 C 0.46458 0.92657 -0.02287
 N33 N 0.46720 0.96537 -0.02653
 H34 H 0.51294 0.98185 0.08900
 H35 H 0.55524 0.93866 -0.01596
 H36 H 0.60190 0.89801 0.01769
 H37 H 0.55858 0.94212 0.12515
 H38 H 0.44640 1.01592 -0.05292
 H39 H 0.40021 0.98162 -0.09368
 H40 H 0.43627 0.87513 -0.04126
 H41 H 0.48219 0.91164 -0.00226
 C42 C 0.41537 1.06584 0.08082
 C43 C 0.58729 1.06912 -0.06346
 C44 C 0.41466 0.92544 -0.07094
 C45 C 0.58412 0.91662 0.07440
 C46 C -0.00438 0.55818 1.04674
 H47 H 0.02664 0.55766 1.04633
 C48 C -0.02366 0.58520 1.06909
 H49 H -0.00711 0.60524 1.08598
 C50 C -0.06330 0.53320 1.02416
 H51 H -0.07864 0.51358 1.00586
 C52 C -0.08377 0.55977 1.04610
 H53 H -0.11478 0.55982 1.04475
 N54 N -0.02430 0.53272 1.02506
 C55 C 0.05943 0.44198 1.00470
 H56 H 0.05954 0.44172 0.97373
 C57 C 0.08180 0.41567 1.02490
 H58 H 0.09920 0.39536 1.00911
 C59 C 0.03544 0.46812 1.06258
 H60 H 0.01663 0.48799 1.07713
 C61 C 0.05728 0.44222 1.08395
 H62 H 0.05531 0.44286 1.11488
 Zn63 Zn 0.00492 0.49939 0.99368
 N64 N 0.03692 0.46754 1.02367
 C65 C 0.07320 0.53172 0.96188
 N66 N 0.03422 0.53111 0.96083
 C67 C 0.01427 0.55560 0.93805
 C68 C 0.03349 0.58220 0.91512
 C69 C 0.09364 0.55797 0.93942
 C70 C -0.05162 0.44328 0.98462
 C71 C -0.07443 0.41680 0.96523
 C72 C -0.04522 0.43726 0.90581
 C73 C -0.02347 0.46388 0.92629
 N74 N -0.02708 0.46643 0.96499
 H75 H 0.08849 0.51262 0.98085
 H76 H -0.01675 0.55485 0.93825
 H77 H 0.01689 0.60169 0.89759
 H78 H 0.12463 0.55842 0.94111
 H79 H -0.05319 0.44521 1.01549
 H80 H -0.09364 0.39851 0.98143
 H81 H -0.04168 0.43533 0.87506
 H82 H -0.00301 0.48176 0.91132
 C83 C 0.08066 0.41531 1.06511
 C84 C -0.06393 0.58638 1.06886
 C85 C -0.07110 0.41330 0.92533
 C86 C 0.07373 0.58395 0.91591
 C87 C 1.04711 -0.00325 0.55832
 H88 H 1.04695 0.02780 0.55768
 C89 C 1.06942 -0.02261 0.58525
 H90 H 1.08653 -0.00608 0.60510
 C91 C 1.02394 -0.06216 0.53373
 H92 H 1.00542 -0.07748 0.51432
 C93 C 1.04583 -0.08271 0.56022
 H94 H 1.04422 -0.11375 0.56040
 N95 N 1.02515 -0.02314 0.53311
 C96 C 1.00499 0.06089 0.44274
 H97 H 0.97397 0.06117 0.44272
 C98 C 1.02524 0.08322 0.41637
 H99 H 1.00943 0.10077 0.39626
 C100 C 1.06295 0.03647 0.46833
 H101 H 1.07750 0.01752 0.48800
 C102 C 1.08437 0.05827 0.44235
 H103 H 1.11534 0.05612 0.44274
 Zn104 Zn 0.99383 0.00619 0.49989
 N105 N 1.02398 0.03817 0.46804
 C106 C 0.96290 0.07458 0.53263
 N107 N 0.96111 0.03559 0.53156
 C108 C 0.93769 0.01571 0.55559
 C109 C 0.91477 0.03500 0.58208
 C110 C 0.94057 0.09509 0.55889
 C111 C 0.98452 -0.05051 0.44415
 C112 C 0.96502 -0.07348 0.41794
 C113 C 0.90560 -0.04403 0.43817
 C114 C 0.92619 -0.02210 0.46452
 N115 N 0.96494 -0.02580 0.46710
 H116 H 0.98238 0.08980 0.51391
 H117 H 0.93735 -0.01533 0.55453
 H118 H 0.89673 0.01843 0.60120
 H119 H 0.94284 0.12607 0.55972
 H120 H 1.01544 -0.05214 0.44609
 H121 H 0.98118 -0.09288 0.39986
 H122 H 0.87482 -0.04047 0.43626
 H123 H 0.91127 -0.00149 0.48220
 C124 C 1.06550 0.08183 0.41567
 C125 C 1.06886 -0.06291 0.58659
 C126 C 0.92506 -0.07015 0.41450
 C127 C 0.91634 0.07523 0.58432
 C128 C 0.15869 0.29924 1.14786
 N129 N 0.15361 0.29539 1.18622
 N130 N 0.16932 0.26606 1.20502
 C131 C 0.19072 0.23943 1.18621
 N132 N 0.19600 0.24355 1.14786
 N133 N 0.18029 0.27286 1.12907
 C134 C 0.13990 0.33047 1.12674
 N135 N 0.14351 0.33300 1.08813
 N136 N 0.12516 0.36026 1.06868
 C137 C 0.10245 0.38611 1.08703
 N138 N 0.09914 0.38369 1.12574
 N139 N 0.11748 0.35640 1.14521
 C140 C -0.14349 0.70186 1.15115
 N141 N -0.12373 0.72915 1.17051
 N142 N -0.14212 0.75761 1.18817
 C143 C -0.18100 0.75987 1.18725
 N144 N -0.20074 0.73244 1.16791
 N145 N -0.18235 0.70398 1.15021
 C146 C -0.12305 0.67119 1.13074
 N147 N -0.14255 0.64461 1.11016
 N148 N -0.12383 0.61747 1.09081
 C149 C -0.08489 0.61584 1.09127
 N150 N -0.06549 0.64239 1.11208
 N151 N -0.08418 0.66953 1.13142
 C152 C -0.15273 0.29576 0.84912
 N153 N -0.18763 0.28420 0.86180
 N154 N -0.20515 0.25430 0.84582
 C155 C -0.18851 0.23423 0.81673
 N156 N -0.15356 0.24640 0.80405
 N157 N -0.13611 0.27648 0.81977
 C158 C -0.13258 0.32753 0.86793
 N159 N -0.10043 0.34284 0.85212
 N160 N -0.08131 0.37060 0.87002
 C161 C -0.09339 0.38388 0.90456
 N162 N -0.12565 0.36858 0.92025
 N163 N -0.14495 0.34105 0.90222
 C164 C 0.15130 0.70341 0.83734
 N165 N 0.13081 0.73024 0.81800
 N166 N 0.14812 0.76069 0.80270
 C167 C 0.18662 0.76557 0.80612
 N168 N 0.20716 0.73841 0.82511
 N169 N 0.18982 0.70795 0.84048
 C170 C 0.13168 0.67109 0.85601
 N171 N 0.15149 0.64528 0.87737
 N172 N 0.13322 0.61719 0.89586
 C173 C 0.09444 0.61382 0.89373
 N174 N 0.07480 0.63951 0.87202
 N175 N 0.09302 0.66757 0.85355
 C176 C 1.14818 0.15943 0.29909
 N177 N 1.18654 0.15418 0.29494
 N178 N 1.20527 0.16978 0.26549
 C179 C 1.18638 0.19124 0.23904
 N180 N 1.14803 0.19669 0.24346
 N181 N 1.12931 0.18109 0.27288
 C182 C 1.12711 0.14077 0.33046
 N183 N 1.08848 0.14460 0.33331
 N184 N 1.06905 0.12635 0.36070
 C185 C 1.08744 0.10353 0.38635
 N186 N 1.12617 0.10000 0.38361
 N187 N 1.14563 0.11824 0.35620
 C188 C 1.15091 -0.14277 0.70172
 N189 N 1.17044 -0.12304 0.72887
 N190 N 1.18806 -0.14150 0.75723
 C191 C 1.18693 -0.18043 0.75953
 N192 N 1.16742 -0.20013 0.73225
 N193 N 1.14976 -0.18166 0.70389
 C194 C 1.13056 -0.12225 0.67115
 N195 N 1.10979 -0.14172 0.64473
 N196 N 1.09049 -0.12293 0.61767
 C197 C 1.09121 -0.08395 0.61595
 N198 N 1.11221 -0.06459 0.64234
 N199 N 1.13148 -0.08335 0.66940
 C200 C 0.84814 -0.15330 0.29872
 N201 N 0.86097 -0.18826 0.28738
 N202 N 0.84478 -0.20623 0.25794
 C203 C 0.81534 -0.18985 0.23838
 N204 N 0.80242 -0.15493 0.25003
 N205 N 0.81840 -0.13706 0.27967
 C206 C 0.86717 -0.13270 0.32999
 N207 N 0.85136 -0.10046 0.34505
 N208 N 0.86943 -0.08097 0.37239
 C209 C 0.90415 -0.09278 0.38547
 N210 N 0.91985 -0.12512 0.37042
 N211 N 0.90165 -0.14479 0.34331
 C212 C 0.83842 0.15188 0.70444
 N213 N 0.81564 0.13168 0.72864
 N214 N 0.80072 0.14824 0.75961
 C215 C 0.80790 0.18574 0.76796
 N216 N 0.83042 0.20591 0.74312
 N217 N 0.84537 0.18939 0.71210
 C218 C 0.85681 0.13276 0.67175
 N219 N 0.88076 0.15230 0.64802
 N220 N 0.89909 0.13424 0.61976
 C221 C 0.89425 0.09593 0.61418
 N222 N 0.86997 0.07658 0.63778
 N223 N 0.85162 0.09461 0.66597
 C224 C 0.29902 1.14850 0.15872
 N225 N 0.27276 1.12960 0.18042
 N226 N 0.24339 1.14836 0.19611
 C227 C 0.23909 1.18676 0.19069
 N228 N 0.26559 1.20567 0.16918
 N229 N 0.29498 1.18691 0.15350
 C230 C 0.33031 1.12741 0.13995
 N231 N 0.35611 1.14598 0.11743
 N232 N 0.38347 1.12653 0.09912
 C233 C 0.38608 1.08775 0.10256
 N234 N 0.36036 1.06930 0.12536
 N235 N 0.33303 1.08873 0.14369
 C236 C 0.70407 1.14992 -0.14286
 N237 N 0.72854 1.17312 -0.12363
 N238 N 0.75745 1.19031 -0.14180
 C239 C 0.76336 1.18507 -0.18000
 N240 N 0.73842 1.16188 -0.19906
 N241 N 0.70946 1.14469 -0.18094
 C242 C 0.67297 1.12998 -0.12254
 N243 N 0.64849 1.10665 -0.14168
 N244 N 0.62102 1.08767 -0.12301
 C245 C 0.61698 1.09123 -0.08447
 N246 N 0.64144 1.11477 -0.06545
 N247 N 0.66888 1.13378 -0.08410
 C248 C 0.29866 0.84855 -0.15395
 N249 N 0.28736 0.86146 -0.18879
 N250 N 0.25783 0.84530 -0.20671
 C251 C 0.23814 0.81581 -0.19038
 N252 N 0.24974 0.80283 -0.15556
 N253 N 0.27946 0.81877 -0.13775
 C254 C 0.33001 0.86756 -0.13340
 N255 N 0.34499 0.85169 -0.10123
 N256 N 0.37238 0.86975 -0.08177
 C257 C 0.38561 0.90451 -0.09354
 N258 N 0.37065 0.92026 -0.12582
 N259 N 0.34348 0.90208 -0.14544
 C260 C 0.70317 0.83796 0.15184
 N261 N 0.72991 0.81842 0.13139
 N262 N 0.76027 0.80307 0.14863
 C263 C 0.76516 0.80665 0.18704
 N264 N 0.73810 0.82585 0.20755
 N265 N 0.70772 0.84127 0.19028
 C266 C 0.67095 0.85667 0.13228
 N267 N 0.64524 0.87824 0.15203
 N268 N 0.61724 0.89676 0.13379
 C269 C 0.61388 0.89443 0.09510
 N270 N 0.63947 0.87251 0.07551
 N271 N 0.66744 0.85402 0.09371
   
