data_POSCAR
  _audit_creation_date              2014-09-24
  _audit_creation_method            'ToBaCCo'
  _symmetry_space_group_name_H-M    'P1'
  _symmetry_Int_Tables_number       1
  _symmetry_cell_setting            triclinic
  loop_
  _symmetry_equiv_pos_as_xyz
 x,y,z
_cell_length_a 34.1095
_cell_length_b 34.2400
_cell_length_c 30.6928
_cell_angle_alpha 89.570600
_cell_angle_beta 89.909000
_cell_angle_gamma 89.995900
loop_
  _atom_site_label
  _atom_site_type_symbol
  _atom_site_fract_x
  _atom_site_fract_y
  _atom_site_fract_z
O1 O 0.34874 0.40578 0.04034
 O2 O 0.40327 0.34786 -0.04036
 O3 O 0.34966 0.40127 -0.04408
 O4 O 0.40339 0.35179 0.04486
 O5 O 0.35940 0.30444 0.04504
 O6 O 0.30244 0.35765 -0.03768
 O7 O 0.35637 0.30344 -0.03872
 O8 O 0.30519 0.35825 0.04674
 Cu9 Cu 0.38095 0.38125 0.00009
 Cu10 Cu 0.32622 0.32643 0.00418
 C11 C 0.31775 0.39175 0.05722
 C12 C 0.38886 0.31587 -0.05362
 C13 C 0.31632 0.38833 -0.05549
 C14 C 0.39105 0.31909 0.05917
 O15 O 0.65225 0.60007 0.04583
 O16 O 0.59651 0.64597 -0.04364
 O17 O 0.65584 0.59181 -0.03497
 O18 O 0.59952 0.65058 0.04303
 O19 O 0.64330 0.69757 0.03510
 O20 O 0.68952 0.64399 -0.05453
 O21 O 0.63814 0.69541 -0.04645
 O22 O 0.69988 0.64234 0.03256
 Cu23 Cu 0.62074 0.61786 0.00134
 Cu24 Cu 0.67320 0.67377 -0.00774
 C25 C 0.68643 0.61289 0.05321
 C26 C 0.60682 0.67906 -0.05885
 C27 C 0.68198 0.60792 -0.05857
 C28 C 0.61253 0.68406 0.05316
 O29 O 0.64821 0.40292 0.95470
 O30 O 0.59757 0.35201 1.04523
 O31 O 0.65145 0.40552 1.04048
 O32 O 0.59438 0.34870 0.96095
 O33 O 0.64103 0.30384 0.95979
 O34 O 0.69741 0.36029 1.03967
 O35 O 0.64281 0.30586 1.04375
 O36 O 0.69419 0.35759 0.95561
 Cu37 Cu 0.61842 0.38203 1.00028
 Cu38 Cu 0.67353 0.32742 0.99995
 C39 C 0.68002 0.38891 0.93986
 C40 C 0.61120 0.31973 1.05913
 C41 C 0.68436 0.39265 1.05370
 C42 C 0.60800 0.31655 0.94717
 O43 O 0.34663 0.59300 0.96364
 O44 O 0.40506 0.65251 1.03910
 O45 O 0.35148 0.59833 1.04821
 O46 O 0.40017 0.64727 0.95502
 O47 O 0.35570 0.69403 0.95741
 O48 O 0.30353 0.64132 1.04401
 O49 O 0.35706 0.69586 1.04172
 O50 O 0.30230 0.64003 0.95982
 Cu51 Cu 0.38047 0.61815 1.00159
 Cu52 Cu 0.32500 0.67235 1.00079
 C53 C 0.31482 0.60671 0.94852
 C54 C 0.39081 0.68419 1.05335
 C55 C 0.31841 0.61091 1.06122
 C56 C 0.38668 0.67965 0.94113
 O57 O 0.03893 0.33281 0.39756
 O58 O -0.04052 0.39223 0.34997
 O59 O -0.03193 0.32825 0.40306
 O60 O 0.03944 0.39226 0.34983
 O61 O 0.03567 0.35649 0.29041
 O62 O -0.04490 0.29993 0.34042
 O63 O -0.03836 0.35817 0.28922
 O64 O 0.03352 0.29298 0.34143
 Cu65 Cu -0.00000 0.36659 0.37987
 Cu66 Cu -0.00298 0.32235 0.30997
 C67 C 0.04855 0.30180 0.37792
 C68 C -0.05227 0.38606 0.31129
 C69 C -0.05053 0.30303 0.38120
 C70 C 0.05076 0.38456 0.31143
 O71 O 0.04209 0.66755 0.60318
 O72 O -0.03791 0.60879 0.65098
 O73 O -0.02897 0.67239 0.59707
 O74 O 0.04178 0.60866 0.65170
 O75 O 0.03682 0.64453 0.71096
 O76 O -0.04262 0.70109 0.65934
 O77 O -0.03678 0.64371 0.71111
 O78 O 0.03610 0.70794 0.65874
 Cu79 Cu 0.00280 0.63419 0.62096
 Cu80 Cu -0.00090 0.67908 0.69022
 C81 C 0.05155 0.69874 0.62252
 C82 C -0.05027 0.61541 0.68939
 C83 C -0.04789 0.69770 0.61855
 C84 C 0.05218 0.61630 0.69040
 O85 O 1.03853 0.59959 0.35599
 O86 O 0.96051 0.65786 0.40766
 O87 O 0.96180 0.59968 0.35419
 O88 O 1.03779 0.65879 0.40841
 O89 O 1.03676 0.70040 0.35331
 O90 O 0.96341 0.64000 0.29774
 O91 O 0.96076 0.69825 0.35129
 O92 O 1.03915 0.64066 0.30020
 Cu93 Cu 0.99966 0.62494 0.38725
 Cu94 Cu 1.00023 0.67394 0.32010
 C95 C 1.05198 0.61012 0.31912
 C96 C 0.94705 0.68781 0.38808
 C97 C 0.94975 0.60980 0.31659
 C98 C 1.05013 0.68998 0.39024
 O99 O 0.96126 0.34136 0.59202
 O100 O 1.03811 0.40012 0.64546
 O101 O 1.03849 0.34163 0.59172
 O102 O 0.96131 0.40040 0.64406
 O103 O 0.96203 0.36038 0.70083
 O104 O 1.03676 0.29996 0.64673
 O105 O 1.03779 0.35887 0.70108
 O106 O 0.96081 0.30113 0.64854
 Cu107 Cu 0.99996 0.37492 0.61263
 Cu108 Cu 0.99948 0.32600 0.67986
 C109 C 0.94768 0.31136 0.61151
 C110 C 1.05082 0.38954 0.68263
 C111 C 1.05060 0.31043 0.60995
 C112 C 0.94858 0.39041 0.68142
 O113 O 0.39603 0.03909 0.35160
 O114 O 0.33728 -0.04140 0.39798
 O115 O 0.39681 -0.03761 0.34618
 O116 O 0.33508 0.03377 0.40337
 O117 O 0.29780 0.03990 0.34483
 O118 O 0.35629 -0.03569 0.29016
 O119 O 0.29567 -0.03582 0.34309
 O120 O 0.35834 0.03988 0.29317
 Cu121 Cu 0.37052 -0.00165 0.38036
 Cu122 Cu 0.32309 0.00228 0.31204
 C123 C 0.38753 0.05284 0.31421
 C124 C 0.30598 -0.05157 0.37889
 C125 C 0.38666 -0.04933 0.30869
 C126 C 0.30601 0.04894 0.38378
 O127 O 0.66300 -0.03828 0.60024
 O128 O 0.60482 0.03836 0.65323
 O129 O 0.66472 0.03705 0.60047
 O130 O 0.60357 -0.03843 0.65242
 O131 O 0.64414 -0.04043 0.70839
 O132 O 0.70377 0.03740 0.65794
 O133 O 0.64365 0.03543 0.71067
 O134 O 0.70450 -0.03794 0.65544
 Cu135 Cu 0.62975 -0.00006 0.62108
 Cu136 Cu 0.67792 -0.00155 0.68893
 C137 C 0.69410 -0.05058 0.61841
 C138 C 0.61418 0.04981 0.69109
 C139 C 0.69474 0.04973 0.62018
 C140 C 0.61375 -0.05277 0.68896
 O141 O 0.34137 1.04101 0.59545
 O142 O 0.39959 0.96194 0.64558
 O143 O 0.34048 0.96475 0.59244
 O144 O 0.40042 1.03844 0.64840
 O145 O 0.35997 1.03629 0.70463
 O146 O 0.29932 0.96381 0.64804
 O147 O 0.35902 0.96090 0.70174
 O148 O 0.30060 1.03936 0.65136
 Cu149 Cu 0.37460 1.00166 0.61486
 Cu150 Cu 0.32564 0.99985 0.68205
 C151 C 0.31098 1.05361 0.61480
 C152 C 0.38929 0.94813 0.68238
 C153 C 0.30949 0.95195 0.61056
 C154 C 0.39040 1.04989 0.68609
 O155 O 0.66095 1.03713 0.40474
 O156 O 0.60209 0.96163 0.35019
 O157 O 0.66063 0.96044 0.40418
 O158 O 0.60176 1.03802 0.35257
 O159 O 0.64300 1.03961 0.29704
 O160 O 0.70173 0.96164 0.34841
 O161 O 0.64252 0.96394 0.29396
 O162 O 0.70300 1.03665 0.35011
 Cu163 Cu 0.62725 0.99908 0.38353
 Cu164 Cu 0.67657 1.00053 0.31669
 C165 C 0.69231 1.04958 0.38695
 C166 C 0.61215 0.95024 0.31250
 C167 C 0.69129 0.94810 0.38526
 C168 C 0.61245 1.05220 0.31611
 C169 C 0.83594 0.78529 0.47800
 C170 C 0.84134 0.79017 0.52375
 C171 C 0.81766 0.81744 0.54562
 C172 C 0.78967 0.84003 0.52354
 C173 C 0.78569 0.83617 0.47803
 C174 C 0.80838 0.80865 0.45595
 H175 H 0.80519 0.80604 0.42094
 H176 H 0.82138 0.82182 0.58029
 C177 C 0.15855 0.20876 0.47431
 C178 C 0.16005 0.21234 0.52034
 C179 C 0.18711 0.18940 0.54371
 C180 C 0.21216 0.16295 0.52268
 C181 C 0.21033 0.15940 0.47671
 C182 C 0.18400 0.18287 0.45326
 H183 H 0.18205 0.17973 0.41819
 H184 H 0.18894 0.19230 0.57880
 C185 C 0.16095 0.79097 0.52403
 C186 C 0.16121 0.78755 0.47792
 C187 C 0.18740 0.81089 0.45364
 C188 C 0.21240 0.83761 0.47398
 C189 C 0.21254 0.84043 0.51991
 C190 C 0.18705 0.81672 0.54430
 H191 H 0.18670 0.81913 0.57951
 H192 H 0.18784 0.80895 0.41841
 C193 C 0.83670 0.21295 0.52265
 C194 C 0.83998 0.20941 0.47654
 C195 C 0.81519 0.18291 0.45509
 C196 C 0.78898 0.15861 0.47801
 C197 C 0.78810 0.16041 0.52413
 C198 C 0.81093 0.18827 0.54553
 H199 H 0.80956 0.18991 0.58078
 H200 H 0.81682 0.18048 0.42001
 C201 C 0.47873 0.82563 0.76522
 C202 C 0.52011 0.82505 0.76726
 C203 C 0.53881 0.79680 0.79325
 C204 C 0.51720 0.77021 0.81872
 C205 C 0.47569 0.77088 0.81676
 C206 C 0.45715 0.79818 0.78933
 H207 H 0.42539 0.79923 0.78813
 H208 H 0.57053 0.79705 0.79564
 C209 C 0.48030 0.17594 0.23640
 C210 C 0.52175 0.17557 0.23621
 C211 C 0.54209 0.20332 0.21108
 C212 C 0.52216 0.23060 0.18497
 C213 C 0.48068 0.23091 0.18505
 C214 C 0.46033 0.20393 0.21126
 H215 H 0.42856 0.20318 0.21005
 H216 H 0.57386 0.20228 0.20997
 C217 C 0.52174 0.16788 0.77612
 C218 C 0.48037 0.16721 0.77518
 C219 C 0.45922 0.19381 0.80048
 C220 C 0.47829 0.22058 0.82763
 C221 C 0.51987 0.22107 0.82880
 C222 C 0.54097 0.19508 0.80247
 H223 H 0.57273 0.19469 0.80407
 H224 H 0.42744 0.19298 0.79975
 C225 C 0.52105 0.83435 0.22260
 C226 C 0.47967 0.83419 0.22142
 C227 C 0.46027 0.80717 0.19500
 C228 C 0.48113 0.78073 0.16893
 C229 C 0.52274 0.78091 0.17019
 C230 C 0.54198 0.80759 0.19732
 H231 H 0.57377 0.80814 0.19815
 H232 H 0.42852 0.80785 0.19340
 C233 C 0.77217 0.47770 0.81662
 C234 C 0.77472 0.51896 0.82209
 C235 C 0.80332 0.53959 0.79795
 C236 C 0.82944 0.52063 0.76983
 C237 C 0.82719 0.47979 0.76532
 C238 C 0.79824 0.45903 0.78800
 H239 H 0.79726 0.42750 0.78491
 H240 H 0.80673 0.57077 0.80242
 C241 C 0.22594 0.48048 0.17929
 C242 C 0.22684 0.52187 0.18221
 C243 C 0.20042 0.54057 0.21040
 C244 C 0.17233 0.51955 0.23424
 C245 C 0.17175 0.47842 0.23161
 C246 C 0.19891 0.45942 0.20482
 H247 H 0.19747 0.42789 0.20198
 H248 H 0.20058 0.57217 0.21259
 C249 C 0.77727 0.52256 0.17467
 C250 C 0.77657 0.48113 0.17428
 C251 C 0.80191 0.46071 0.20252
 C252 C 0.82873 0.48033 0.22914
 C253 C 0.82951 0.52154 0.22898
 C254 C 0.80316 0.54212 0.20241
 H255 H 0.80426 0.57378 0.20159
 H256 H 0.80201 0.42904 0.20259
 C257 C 0.22193 0.51810 0.82776
 C258 C 0.22231 0.47668 0.82545
 C259 C 0.19598 0.45797 0.79724
 C260 C 0.16887 0.47917 0.77224
 C261 C 0.16890 0.52034 0.77425
 C262 C 0.19568 0.53924 0.80147
 H263 H 0.19467 0.57083 0.80381
 H264 H 0.19579 0.42635 0.79550
 C265 C 0.27321 0.44687 0.07393
 C266 C 0.29542 0.41496 0.08852
 C267 C 0.29482 0.40447 0.13271
 C268 C 0.27267 0.42619 0.16226
 C269 C 0.25034 0.45830 0.14786
 C270 C 0.25025 0.46797 0.10325
 H271 H 0.27297 0.45486 0.03970
 H272 H 0.31163 0.37965 0.14428
 H273 H 0.27288 0.41796 0.19640
 H274 H 0.23239 0.49182 0.09112
 C275 C 0.69819 0.58772 0.12818
 C276 C 0.71097 0.59227 0.08501
 C277 C 0.74586 0.57436 0.07150
 C278 C 0.76727 0.55122 0.10066
 C279 C 0.75437 0.54651 0.14378
 C280 C 0.72029 0.56566 0.15772
 H281 H 0.67117 0.60123 0.13893
 H282 H 0.75578 0.57729 0.03808
 H283 H 0.79380 0.53693 0.08969
 H284 H 0.71030 0.56255 0.19108
 C285 C 0.68379 0.43767 0.87808
 C286 C 0.70183 0.40947 0.90493
 C287 C 0.74191 0.40163 0.89929
 C288 C 0.76400 0.42290 0.86927
 C289 C 0.74653 0.45224 0.84371
 C290 C 0.70590 0.45849 0.84711
 H291 H 0.65282 0.44396 0.88146
 H292 H 0.75666 0.38007 0.91941
 H293 H 0.79527 0.41757 0.86732
 H294 H 0.69180 0.48075 0.82737
 C295 C 0.29189 0.59339 0.87340
 C296 C 0.29188 0.58362 0.91778
 C297 C 0.26890 0.55241 0.93286
 C298 C 0.24582 0.53125 0.90376
 C299 C 0.24639 0.54032 0.85899
 C300 C 0.26948 0.57173 0.84414
 H301 H 0.30938 0.61762 0.86145
 H302 H 0.26831 0.54491 0.96722
 H303 H 0.22750 0.50784 0.91616
 H304 H 0.27016 0.57942 0.80985
 C305 C 0.06290 0.24989 0.43187
 C306 C 0.07624 0.27524 0.39902
 C307 C 0.11629 0.27729 0.38930
 C308 C 0.14302 0.25485 0.41320
 C309 C 0.12989 0.23037 0.44716
 C310 C 0.08953 0.22724 0.45554
 H311 H 0.03197 0.24822 0.43971
 H312 H 0.12689 0.29705 0.36419
 H313 H 0.17404 0.25748 0.40618
 H314 H 0.07883 0.20808 0.48115
 C315 C 0.11961 0.72168 0.60901
 C316 C 0.07933 0.72515 0.60122
 C317 C 0.06568 0.75167 0.56974
 C318 C 0.09219 0.77402 0.54546
 C319 C 0.13268 0.76961 0.55199
 C320 C 0.14620 0.74400 0.58464
 H321 H 0.13044 0.70099 0.63300
 H322 H 0.03457 0.75435 0.56330
 H323 H 0.08124 0.79399 0.52079
 H324 H 0.17734 0.74036 0.59018
 C325 C 0.90982 0.75019 0.39538
 C326 C 0.91562 0.71121 0.40841
 C327 C 0.89188 0.69539 0.44164
 C328 C 0.86389 0.71864 0.46254
 C329 C 0.86020 0.75837 0.45149
 C330 C 0.88253 0.77356 0.41683
 H331 H 0.92754 0.76312 0.36976
 H332 H 0.89535 0.66526 0.45189
 H333 H 0.84658 0.70624 0.48882
 H334 H 0.88015 0.80409 0.40770
 C335 C 0.89230 0.30334 0.55842
 C336 C 0.91676 0.28758 0.59093
 C337 C 0.91193 0.24834 0.60344
 C338 C 0.88472 0.22474 0.58233
 C339 C 0.86139 0.23994 0.54858
 C340 C 0.86433 0.27985 0.53792
 H341 H 0.89506 0.33366 0.54861
 H342 H 0.93027 0.23544 0.62847
 H343 H 0.88308 0.19408 0.59111
 H344 H 0.84629 0.29227 0.51233
 C345 C 0.42993 0.11215 0.32115
 C346 C 0.41175 0.08414 0.29476
 C347 C 0.41621 0.08668 0.24933
 C348 C 0.43899 0.11631 0.23065
 C349 C 0.45714 0.14426 0.25700
 C350 C 0.45182 0.14247 0.30230
 H351 H 0.42633 0.11116 0.35621
 H352 H 0.40244 0.06546 0.22830
 H353 H 0.44239 0.11757 0.19557
 H354 H 0.46420 0.16471 0.32300
 C355 C 0.58699 0.08038 0.75822
 C356 C 0.59060 0.08013 0.71264
 C357 C 0.57195 0.10937 0.68794
 C358 C 0.55018 0.13850 0.70855
 C359 C 0.54549 0.13789 0.75394
 C360 C 0.56433 0.10887 0.77868
 H361 H 0.60118 0.05816 0.77794
 H362 H 0.57494 0.11016 0.65280
 H363 H 0.53727 0.16162 0.68913
 H364 H 0.56136 0.10829 0.81382
 C365 C 0.41689 0.91587 0.74861
 C366 C 0.41277 0.91705 0.70312
 C367 C 0.43073 0.88805 0.67786
 C368 C 0.45197 0.85796 0.69793
 C369 C 0.45697 0.85749 0.74328
 C370 C 0.43912 0.88651 0.76848
 H371 H 0.40327 0.93794 0.76871
 H372 H 0.42737 0.88807 0.64278
 H373 H 0.46406 0.83485 0.67816
 H374 H 0.44220 0.88618 0.80361
 C375 C 0.58488 0.92207 0.24428
 C376 C 0.58832 0.92085 0.28985
 C377 C 0.56938 0.89101 0.31340
 C378 C 0.54775 0.86252 0.29159
 C379 C 0.54340 0.86447 0.24620
 C380 C 0.56231 0.89426 0.22267
 H381 H 0.59930 0.94480 0.22546
 H382 H 0.57223 0.88914 0.34850
 H383 H 0.53491 0.83871 0.31006
 H384 H 0.55975 0.89578 0.18752
 C385 C 0.40260 0.25224 0.91040
 C386 C 0.41038 0.29235 0.91409
 C387 C 0.43948 0.30930 0.88758
 C388 C 0.46072 0.28639 0.85828
 C389 C 0.45395 0.24598 0.85590
 C390 C 0.42432 0.22927 0.88181
 H391 H 0.38045 0.23836 0.93055
 H392 H 0.44582 0.34023 0.88950
 H393 H 0.48292 0.30007 0.83804
 H394 H 0.41864 0.19817 0.88074
 C395 C 0.55251 0.72465 0.92450
 C396 C 0.58195 0.69952 0.90961
 C397 C 0.58981 0.69709 0.86490
 C398 C 0.56831 0.71968 0.83522
 C399 C 0.53884 0.74503 0.85001
 C400 C 0.53127 0.74746 0.89493
 H401 H 0.54672 0.72732 0.95907
 H402 H 0.61296 0.67823 0.85312
 H403 H 0.57482 0.71766 0.80076
 H404 H 0.50929 0.76745 0.90712
 C405 C 0.40484 0.70962 0.12733
 C406 C 0.41408 0.70819 0.08291
 C407 C 0.44528 0.73050 0.06652
 C408 C 0.46693 0.75437 0.09430
 C409 C 0.45843 0.75527 0.13913
 C410 C 0.42703 0.73282 0.15533
 H411 H 0.38066 0.69261 0.14030
 H412 H 0.45239 0.72996 0.03211
 H413 H 0.49019 0.77225 0.08076
 H414 H 0.41976 0.73323 0.18968
 C415 C 0.56862 0.31649 0.12551
 C416 C 0.58949 0.29738 0.09247
 C417 C 0.58874 0.25644 0.09070
 C418 C 0.56658 0.23499 0.12072
 C419 C 0.54538 0.25405 0.15350
 C420 C 0.54742 0.29487 0.15642
 H421 H 0.56928 0.34803 0.12781
 H422 H 0.60450 0.24110 0.06538
 H423 H 0.56572 0.20345 0.11826
 H424 H 0.53293 0.30998 0.18272
 C425 C 0.30267 0.10842 0.56109
 C426 C 0.28695 0.08447 0.59414
 C427 C 0.24748 0.08921 0.60615
 C428 C 0.22365 0.11587 0.58395
 C429 C 0.23892 0.13856 0.54963
 C430 C 0.27899 0.13566 0.53948
 H431 H 0.33314 0.10574 0.55159
 H432 H 0.23460 0.07120 0.63156
 H433 H 0.19285 0.11763 0.59239
 H434 H 0.29157 0.15341 0.51367
 C435 C 0.75441 0.08429 0.39498
 C436 C 0.71543 0.07748 0.40818
 C437 C 0.70031 0.09898 0.44330
 C438 C 0.72349 0.12662 0.46440
 C439 C 0.76316 0.13159 0.45302
 C440 C 0.77818 0.11033 0.41773
 H441 H 0.76719 0.06827 0.36816
 H442 H 0.67023 0.09519 0.45389
 H443 H 0.71047 0.14373 0.49016
 H444 H 0.80860 0.11326 0.40814
 C445 C 0.75955 0.92157 0.59950
 C446 C 0.71855 0.92055 0.59577
 C447 C 0.70103 0.89237 0.56921
 C448 C 0.72415 0.86566 0.54664
 C449 C 0.76520 0.86767 0.54875
 C450 C 0.78273 0.89551 0.57586
 H451 H 0.77365 0.94320 0.61974
 H452 H 0.66942 0.89067 0.56642
 H453 H 0.70993 0.84323 0.52773
 H454 H 0.81435 0.89734 0.57832
 C455 C 0.24317 0.92901 0.41362
 C456 C 0.28088 0.91884 0.39946
 C457 C 0.29531 0.88117 0.40782
 C458 C 0.27225 0.85395 0.43039
 C459 C 0.23532 0.86477 0.44644
 C460 C 0.22068 0.90223 0.43745
 H461 H 0.23183 0.95812 0.40768
 H462 H 0.32444 0.87300 0.39713
 H463 H 0.28376 0.82500 0.43689
 H464 H 0.19213 0.91086 0.44952
 C465 C 0.10773 0.43587 0.68128
 C466 C 0.08080 0.41309 0.70505
 C467 C 0.08301 0.41246 0.75074
 C468 C 0.11131 0.43451 0.77229
 C469 C 0.13825 0.45721 0.74859
 C470 C 0.13670 0.45721 0.70290
 H471 H 0.10701 0.43634 0.64600
 H472 H 0.06257 0.39518 0.76985
 H473 H 0.11233 0.43380 0.80757
 H474 H 0.15828 0.47306 0.68395
 C475 C 0.08600 0.58661 0.25221
 C476 C 0.08268 0.58658 0.29781
 C477 C 0.10904 0.56415 0.32269
 C478 C 0.13852 0.54249 0.30225
 C479 C 0.14113 0.54181 0.25665
 C480 C 0.11481 0.56421 0.23183
 H481 H 0.06603 0.60361 0.23228
 H482 H 0.10745 0.56414 0.35793
 H483 H 0.15961 0.52689 0.32205
 H484 H 0.11672 0.56442 0.19659
 C485 C 0.88707 0.42703 0.31619
 C486 C 0.91774 0.41135 0.29126
 C487 C 0.91890 0.41869 0.24620
 C488 C 0.89012 0.44164 0.22642
 C489 C 0.85936 0.45706 0.25119
 C490 C 0.85759 0.44914 0.29607
 H491 H 0.88531 0.42119 0.35087
 H492 H 0.94227 0.40687 0.22633
 H493 H 0.89165 0.44721 0.19166
 H494 H 0.83332 0.45978 0.31539
 C495 C 0.91734 0.58651 0.75498
 C496 C 0.91950 0.59018 0.70940
 C497 C 0.89201 0.57051 0.68360
 C498 C 0.86245 0.54809 0.70317
 C499 C 0.86080 0.54392 0.74867
 C500 C 0.88838 0.56340 0.77441
 H501 H 0.93822 0.60135 0.77562
 H502 H 0.89270 0.57339 0.64845
 H503 H 0.84046 0.53465 0.68285
 H504 H 0.88736 0.56079 0.80959
 C505 C 0.71539 0.60185 0.87176
 C506 C 0.70346 0.58575 0.91182
 C507 C 0.71546 0.54775 0.92287
 C508 C 0.74050 0.52711 0.89528
 C509 C 0.74981 0.54160 0.85342
 C510 C 0.73668 0.57939 0.84215
 H511 H 0.70663 0.63116 0.86243
 H512 H 0.70802 0.53519 0.95434
 H513 H 0.75260 0.49989 0.90712
 H514 H 0.74310 0.59188 0.81043
 C515 C 0.25486 0.39839 0.90541
 C516 C 0.29432 0.40838 0.91282
 C517 C 0.31072 0.43955 0.88872
 C518 C 0.28802 0.46055 0.85873
 C519 C 0.24801 0.45203 0.85356
 C520 C 0.23191 0.42029 0.87666
 H521 H 0.24106 0.37460 0.92315
 H522 H 0.34114 0.44778 0.89291
 H523 H 0.30148 0.48413 0.84039
 H524 H 0.20115 0.41305 0.87341
 C525 C 0.25819 0.60066 0.10245
 C526 C 0.29748 0.59075 0.09378
 C527 C 0.31442 0.55945 0.11716
 C528 C 0.29228 0.53823 0.14765
 C529 C 0.25235 0.54669 0.15395
 C530 C 0.23584 0.57857 0.13154
 H531 H 0.24394 0.62450 0.08530
 H532 H 0.34472 0.55125 0.11191
 H533 H 0.30604 0.51446 0.16535
 H534 H 0.20512 0.58575 0.13550
 C535 C 0.69017 0.44627 0.10582
 C536 C 0.70658 0.41429 0.08366
 C537 C 0.74594 0.40444 0.09211
 C538 C 0.76846 0.42658 0.12079
 C539 C 0.75203 0.45835 0.14314
 C540 C 0.71233 0.46732 0.13599
 H541 H 0.65981 0.45444 0.10085
 H542 H 0.75984 0.38021 0.07565
 H543 H 0.79901 0.41893 0.12527
 H544 H 0.69811 0.49026 0.15411
 C545 C 0.89047 0.73356 0.61625
 C546 C 0.92588 0.72218 0.59678
 C547 C 0.93480 0.73580 0.55467
 C548 C 0.90903 0.76068 0.53276
 C549 C 0.87144 0.76818 0.54967
 C550 C 0.86283 0.75482 0.59221
 H551 H 0.88295 0.72362 0.64881
 H552 H 0.96263 0.72879 0.53952
 H553 H 0.91837 0.77318 0.50202
 H554 H 0.83444 0.76017 0.60679
 C555 C 0.93317 0.26327 0.44397
 C556 C 0.92343 0.27817 0.40270
 C557 C 0.88746 0.26776 0.38396
 C558 C 0.86006 0.24623 0.40822
 C559 C 0.86954 0.23164 0.45001
 C560 C 0.90768 0.23807 0.46579
 H561 H 0.96140 0.26957 0.45848
 H562 H 0.87935 0.27871 0.35200
 H563 H 0.83124 0.24169 0.39446
 H564 H 0.91764 0.22456 0.49572
 C565 C 0.08756 0.24936 0.60470
 C566 C 0.07904 0.28726 0.58922
 C567 C 0.09927 0.30112 0.55214
 C568 C 0.12686 0.27764 0.53104
 C569 C 0.13348 0.23899 0.54497
 C570 C 0.11394 0.22539 0.58247
 H571 H 0.07277 0.23754 0.63314
 H572 H 0.09418 0.33033 0.53959
 H573 H 0.14255 0.28954 0.50328
 H574 H 0.11844 0.19580 0.59413
 C575 C 0.09895 0.69925 0.44779
 C576 C 0.07848 0.71318 0.41100
 C577 C 0.08693 0.75107 0.39545
 C578 C 0.11369 0.77490 0.41717
 C579 C 0.13379 0.76115 0.45415
 C580 C 0.12701 0.72256 0.46830
 H581 H 0.09389 0.67003 0.46036
 H582 H 0.07189 0.76299 0.36727
 H583 H 0.11811 0.80447 0.40542
 H584 H 0.14308 0.71049 0.49563
 C585 C 0.58887 0.91099 0.75436
 C586 C 0.59005 0.91581 0.70891
 C587 C 0.56869 0.89007 0.68257
 C588 C 0.54658 0.85999 0.70139
 C589 C 0.54432 0.85605 0.74682
 C590 C 0.56594 0.88152 0.77316
 H591 H 0.60515 0.93041 0.77534
 H592 H 0.56975 0.89273 0.64740
 H593 H 0.53163 0.83958 0.68047
 H594 H 0.56486 0.87865 0.80832
 C595 C 0.43113 0.89274 0.31076
 C596 C 0.41041 0.92084 0.28646
 C597 C 0.41224 0.91993 0.24077
 C598 C 0.43512 0.89190 0.21978
 C599 C 0.45602 0.86402 0.24411
 C600 C 0.45315 0.86409 0.28968
 H601 H 0.42954 0.89240 0.34601
 H602 H 0.39645 0.94126 0.22134
 H603 H 0.43661 0.89194 0.18452
 H604 H 0.46749 0.84172 0.30892
 C605 C 0.56797 0.10992 0.32180
 C606 C 0.58918 0.08371 0.29580
 C607 C 0.58824 0.08810 0.25031
 C608 C 0.56586 0.11775 0.23113
 C609 C 0.54455 0.14382 0.25712
 C610 C 0.54643 0.14020 0.30259
 H611 H 0.56882 0.10755 0.35699
 H612 H 0.60436 0.06828 0.22959
 H613 H 0.56512 0.12042 0.19594
 H614 H 0.53174 0.16108 0.32323
 C615 C 0.41594 0.07973 0.75430
 C616 C 0.41417 0.07944 0.70860
 C617 C 0.43447 0.10817 0.68471
 C618 C 0.45576 0.13705 0.70626
 C619 C 0.45830 0.13669 0.75186
 C620 C 0.43809 0.10798 0.77573
 H621 H 0.40047 0.05790 0.77340
 H622 H 0.43293 0.10893 0.64947
 H623 H 0.46965 0.16000 0.68740
 H624 H 0.43933 0.10763 0.81100
 C625 C 0.59856 0.74826 0.08803
 C626 C 0.59117 0.70800 0.08531
 C627 C 0.56218 0.69135 0.11228
 C628 C 0.54062 0.71468 0.14089
 C629 C 0.54709 0.75517 0.14232
 C630 C 0.57664 0.77159 0.11607
 H631 H 0.62057 0.76197 0.06756
 H632 H 0.55602 0.66035 0.11109
 H633 H 0.51844 0.70126 0.16137
 H634 H 0.58211 0.80275 0.11649
 C635 C 0.43237 0.31626 0.12646
 C636 C 0.41399 0.29715 0.09173
 C637 C 0.41733 0.25644 0.08827
 C638 C 0.43944 0.23522 0.11848
 C639 C 0.45791 0.25424 0.15315
 C640 C 0.45345 0.29477 0.15758
 H641 H 0.42958 0.34758 0.13009
 H642 H 0.40339 0.24114 0.06169
 H643 H 0.44217 0.20389 0.11486
 H644 H 0.46591 0.30970 0.18522
 C645 C 0.55524 0.26868 0.93276
 C646 C 0.58494 0.29318 0.91684
 C647 C 0.59350 0.29392 0.87220
 C648 C 0.57213 0.27061 0.84353
 C649 C 0.54215 0.24613 0.85927
 C650 C 0.53426 0.24497 0.90423
 H651 H 0.54877 0.26750 0.96732
 H652 H 0.61666 0.31251 0.85964
 H653 H 0.57887 0.27173 0.80905
 H654 H 0.51193 0.22563 0.91723
 C655 C 0.40019 0.74176 0.90112
 C656 C 0.40766 0.70171 0.90675
 C657 C 0.43615 0.68373 0.88054
 C658 C 0.45726 0.70569 0.84982
 C659 C 0.45090 0.74612 0.84566
 C660 C 0.42172 0.76374 0.87112
 H661 H 0.37854 0.75648 0.92096
 H662 H 0.44227 0.65283 0.88399
 H663 H 0.47919 0.69134 0.83004
 H664 H 0.41641 0.79487 0.86880
 C665 C 0.69967 0.88229 0.41927
 C666 C 0.71563 0.91847 0.40687
 C667 C 0.75493 0.92678 0.41638
 C668 C 0.77766 0.89975 0.43945
 C669 C 0.76166 0.86372 0.45223
 C670 C 0.72289 0.85465 0.44096
 H671 H 0.66941 0.87543 0.41190
 H672 H 0.76760 0.95464 0.40708
 H673 H 0.80766 0.90698 0.44767
 H674 H 0.71037 0.82669 0.45006
 C675 C 0.24433 0.92166 0.59535
 C676 C 0.28491 0.92317 0.58774
 C677 C 0.30176 0.89698 0.55812
 C678 C 0.27845 0.86962 0.53669
 C679 C 0.23769 0.86889 0.54322
 C680 C 0.22090 0.89497 0.57303
 H681 H 0.23063 0.94161 0.61797
 H682 H 0.33308 0.89716 0.55223
 H683 H 0.29236 0.84872 0.51544
 H684 H 0.18957 0.89485 0.57880
 C685 C 0.27903 0.11583 0.39275
 C686 C 0.28115 0.07689 0.40681
 C687 C 0.25913 0.06458 0.44295
 C688 C 0.23516 0.09104 0.46491
 C689 C 0.23423 0.13058 0.45220
 C690 C 0.25603 0.14261 0.41556
 H691 H 0.29581 0.12562 0.36473
 H692 H 0.26010 0.03439 0.45372
 H693 H 0.21768 0.08073 0.49213
 H694 H 0.25559 0.17284 0.40494
 C695 C 0.71566 0.11813 0.60550
 C696 C 0.72006 0.07805 0.59812
 C697 C 0.74796 0.06492 0.56810
 C698 C 0.77093 0.09171 0.54500
 C699 C 0.76568 0.13201 0.55102
 C700 C 0.73842 0.14503 0.58208
 H701 H 0.69411 0.12853 0.62864
 H702 H 0.75163 0.03396 0.56227
 H703 H 0.79223 0.08108 0.52173
 H704 H 0.73404 0.17598 0.58727
 C705 C 0.89239 0.56420 0.31871
 C706 C 0.91936 0.58655 0.29450
 C707 C 0.91638 0.58747 0.24887
 C708 C 0.88729 0.56606 0.22781
 C709 C 0.86035 0.54375 0.25198
 C710 C 0.86271 0.54347 0.29761
 H711 H 0.89364 0.56356 0.35397
 H712 H 0.93678 0.60449 0.22944
 H713 H 0.88577 0.56683 0.19255
 H714 H 0.84130 0.52774 0.31692
 C715 C 0.88894 0.43273 0.67741
 C716 C 0.91771 0.41373 0.70251
 C717 C 0.91627 0.41648 0.74809
 C718 C 0.88697 0.43844 0.76820
 C719 C 0.85827 0.45738 0.74313
 C720 C 0.85895 0.45379 0.69767
 H721 H 0.88911 0.43045 0.64223
 H722 H 0.93810 0.40204 0.76811
 H723 H 0.88655 0.44059 0.80340
 H724 H 0.83621 0.46701 0.67794
 C725 C 0.11226 0.57477 0.68705
 C726 C 0.08225 0.59197 0.71172
 C727 C 0.08104 0.58556 0.75693
 C728 C 0.10895 0.56164 0.77701
 C729 C 0.13878 0.54433 0.75229
 C730 C 0.14081 0.55176 0.70738
 H731 H 0.11409 0.57983 0.65223
 H732 H 0.05814 0.59851 0.77659
 H733 H 0.10741 0.55668 0.81187
 H734 H 0.16465 0.54010 0.68816
 C735 C 0.11100 0.42565 0.31687
 C736 C 0.08183 0.40843 0.29111
 C737 C 0.08263 0.41414 0.24577
 C738 C 0.11168 0.43739 0.22663
 C739 C 0.14065 0.45475 0.25245
 C740 C 0.14065 0.44803 0.29754
 H741 H 0.11134 0.42109 0.35183
 H742 H 0.06045 0.40113 0.22525
 H743 H 0.11165 0.44186 0.19165
 H744 H 0.16377 0.45973 0.31770
   
