data_POSCAR
  _audit_creation_date              2014-09-24
  _audit_creation_method            'ToBaCCo'
  _symmetry_space_group_name_H-M    'P1'
  _symmetry_Int_Tables_number       1
  _symmetry_cell_setting            triclinic
  loop_
  _symmetry_equiv_pos_as_xyz
 x,y,z
_cell_length_a 35.4801
_cell_length_b 35.5356
_cell_length_c 35.5753
_cell_angle_alpha 89.953400
_cell_angle_beta 90.063900
_cell_angle_gamma 90.056000
loop_
  _atom_site_label
  _atom_site_type_symbol
  _atom_site_fract_x
  _atom_site_fract_y
  _atom_site_fract_z
N1 N 0.13708 0.16325 0.23997
 N2 N 0.16106 0.13521 0.23759
 C3 C 0.15413 0.11056 0.26552
 C4 C 0.12383 0.12363 0.28638
 C5 C 0.11416 0.15748 0.26957
 H6 H 0.17016 0.08520 0.27045
 H7 H 0.09178 0.17627 0.27809
 Cu8 Cu 0.19913 0.13357 0.19825
 Cu9 Cu 0.13657 0.20438 0.20372
 Cu10 Cu 0.20466 0.20277 0.13383
 N11 N 0.23796 0.13370 0.15962
 N12 N 0.24031 0.16097 0.13476
 C13 C 0.26967 0.15422 0.11176
 C14 C 0.28647 0.12065 0.12246
 C15 C 0.26566 0.10861 0.15322
 H16 H 0.27814 0.17220 0.08872
 H17 H 0.27041 0.08374 0.17001
 N18 N 0.16612 0.24265 0.13763
 N19 N 0.14047 0.24339 0.16446
 C20 C 0.11758 0.27308 0.15879
 C21 C 0.12956 0.29223 0.12710
 C22 C 0.16010 0.27184 0.11416
 H23 H 0.09312 0.27954 0.17564
 H24 H 0.17604 0.27743 0.08888
 H25 H 0.16037 0.17509 0.15949
 H26 H 0.19328 0.20160 0.19070
 N27 N -0.13550 0.83756 0.24165
 N28 N -0.16173 0.86367 0.24133
 C29 C -0.15515 0.88795 0.26967
 C30 C -0.12291 0.87658 0.28851
 C31 C -0.11155 0.84420 0.27023
 H32 H -0.17239 0.91216 0.27609
 H33 H -0.08734 0.82702 0.27698
 Cu34 Cu -0.20104 0.86364 0.20304
 Cu35 Cu -0.13312 0.79785 0.20402
 Cu36 Cu -0.20273 0.79792 0.13547
 N37 N -0.24049 0.86323 0.16487
 N38 N -0.24070 0.83742 0.13842
 C39 C -0.26970 0.84385 0.11492
 C40 C -0.28859 0.87583 0.12685
 C41 C -0.26952 0.88701 0.15905
 H42 H -0.27642 0.82644 0.09094
 H43 H -0.27606 0.91104 0.17649
 N44 N -0.16193 0.76030 0.13727
 N45 N -0.13556 0.76015 0.16347
 C46 C -0.11164 0.73152 0.15675
 C47 C -0.12317 0.71310 0.12451
 C48 C -0.15542 0.73181 0.11320
 H49 H -0.08744 0.72460 0.17388
 H50 H -0.17283 0.72507 0.08919
 H51 H -0.16000 0.82734 0.16191
 H52 H -0.19008 0.79676 0.19221
 N53 N -0.14270 0.16532 -0.24457
 N54 N -0.16902 0.13928 -0.24435
 C55 C -0.16317 0.11560 -0.27335
 C56 C -0.13174 0.12774 -0.29299
 C57 C -0.11923 0.15907 -0.27357
 H58 H -0.17982 0.09080 -0.27915
 H59 H -0.09443 0.17566 -0.27979
 Cu60 Cu -0.20721 0.13807 -0.20508
 Cu61 Cu -0.14014 0.20475 -0.20668
 Cu62 Cu -0.20725 0.20247 -0.13588
 N63 N -0.24515 0.13735 -0.16557
 N64 N -0.24469 0.16226 -0.13828
 C65 C -0.27318 0.15492 -0.11442
 C66 C -0.29308 0.12407 -0.12775
 C67 C -0.27402 0.11332 -0.16000
 H68 H -0.27893 0.17065 -0.08905
 H69 H -0.28020 0.08934 -0.17761
 N70 N -0.16720 0.24102 -0.13858
 N71 N -0.14212 0.24221 -0.16593
 C72 C -0.11903 0.27178 -0.16033
 C73 C -0.13015 0.29029 -0.12798
 C74 C -0.16053 0.26976 -0.11476
 H75 H -0.09534 0.27879 -0.17804
 H76 H -0.17637 0.27539 -0.08945
 H77 H -0.16516 0.17374 -0.16404
 H78 H -0.19661 0.20461 -0.19268
 N79 N 0.13708 0.84074 -0.23900
 N80 N 0.16484 0.86525 -0.23928
 C81 C 0.15944 0.88956 -0.26790
 C82 C 0.12627 0.88001 -0.28615
 C83 C 0.11314 0.84859 -0.26725
 H84 H 0.17813 0.91252 -0.27506
 H85 H 0.08816 0.83242 -0.27376
 Cu86 Cu 0.20489 0.86285 -0.20179
 Cu87 Cu 0.13368 0.80044 -0.20213
 Cu88 Cu 0.20579 0.79416 -0.13664
 N89 N 0.24535 0.85894 -0.16487
 N90 N 0.24562 0.83185 -0.13969
 C91 C 0.27556 0.83640 -0.11686
 C92 C 0.29565 0.86773 -0.12867
 C93 C 0.27515 0.88169 -0.15884
 H94 H 0.28150 0.81906 -0.09259
 H95 H 0.28090 0.90723 -0.17434
 N96 N 0.16292 0.75879 -0.13811
 N97 N 0.13519 0.76157 -0.16271
 C98 C 0.10981 0.73420 -0.15594
 C99 C 0.12194 0.71333 -0.12544
 C100 C 0.15595 0.72942 -0.11517
 H101 H 0.08449 0.72955 -0.17220
 H102 H 0.17409 0.72038 -0.09247
 H103 H 0.16391 0.82697 -0.15998
 H104 H 0.19106 0.79625 -0.19277
 N105 N 0.17112 1.14262 0.75484
 N106 N 0.14330 1.16699 0.75628
 C107 C 0.11989 1.16074 0.72712
 C108 C 0.13406 1.13126 0.70604
 C109 C 0.16643 1.12021 0.72473
 H110 H 0.09387 1.17572 0.72202
 H111 H 0.18442 1.09668 0.71784
 Cu112 Cu 0.13956 1.20328 0.79710
 Cu113 Cu 0.20997 1.13998 0.79336
 Cu114 Cu 0.20514 1.20535 0.86531
 N115 N 0.13793 1.24046 0.83727
 N116 N 0.16379 1.24096 0.86373
 C117 C 0.15631 1.26897 0.88795
 C118 C 0.12372 1.28684 0.87641
 C119 C 0.11306 1.26834 0.84381
 H120 H 0.17352 1.27604 0.91202
 H121 H 0.08910 1.27489 0.82621
 N122 N 0.24484 1.16707 0.86214
 N123 N 0.24659 1.14194 0.83493
 C124 C 0.27586 1.11880 0.84158
 C125 C 0.29347 1.13007 0.87437
 C126 C 0.27296 1.16070 0.88671
 H127 H 0.28359 1.09499 0.82433
 H128 H 0.27741 1.17650 0.91223
 H129 H 0.17819 1.16243 0.83646
 H130 H 0.20691 1.19607 0.80795
 N131 N 0.83601 0.86216 0.75596
 N132 N 0.86071 0.83464 0.75519
 C133 C 0.88461 0.84035 0.72633
 C134 C 0.87413 0.87312 0.70798
 C135 C 0.84343 0.88634 0.72784
 H136 H 0.90839 0.82256 0.71978
 H137 H 0.82791 0.91193 0.72231
 Cu138 Cu 0.86007 0.79516 0.79314
 Cu139 Cu 0.79627 0.86498 0.79346
 Cu140 Cu 0.79468 0.79510 0.86154
 N141 N 0.85885 0.75599 0.83138
 N142 N 0.83337 0.75633 0.85817
 C143 C 0.83954 0.72716 0.88150
 C144 C 0.87027 0.70712 0.86844
 C145 C 0.88216 0.72658 0.83688
 H146 H 0.82346 0.72143 0.90666
 H147 H 0.90658 0.72026 0.81987
 N148 N 0.75794 0.83667 0.85986
 N149 N 0.75830 0.86295 0.83364
 C150 C 0.72962 0.88696 0.83977
 C151 C 0.71023 0.87519 0.87136
 C152 C 0.72913 0.84343 0.88350
 H153 H 0.72378 0.91152 0.82287
 H154 H 0.72224 0.82665 0.90792
 H155 H 0.82565 0.83697 0.83548
 H156 H 0.79377 0.80814 0.80527
 N157 N 0.16587 0.85835 1.24552
 N158 N 0.14114 0.83082 1.24677
 C159 C 0.11754 0.83670 1.27581
 C160 C 0.12832 0.86945 1.29394
 C161 C 0.15880 0.88265 1.27361
 H162 H 0.09370 0.81904 1.28268
 H163 H 0.17435 0.90835 1.27868
 Cu164 Cu 0.14099 0.79071 1.20956
 Cu165 Cu 0.20518 0.86077 1.20758
 Cu166 Cu 0.20400 0.79216 1.13869
 N167 N 0.14006 0.75349 1.16946
 N168 N 0.16429 0.75465 1.14157
 C169 C 0.15662 0.72659 1.11740
 C170 C 0.12626 0.70637 1.13105
 C171 C 0.11619 0.72451 1.16396
 H172 H 0.17177 0.72136 1.09156
 H173 H 0.09267 0.71770 1.18201
 N174 N 0.24209 0.83229 1.14058
 N175 N 0.24267 0.85837 1.16694
 C176 C 0.27198 0.88162 1.16064
 C177 C 0.29105 0.86928 1.12910
 C178 C 0.27097 0.83829 1.11680
 H179 H 0.27868 0.90610 1.17738
 H180 H 0.27685 0.82167 1.09207
 H181 H 0.17387 0.83322 1.16694
 H182 H 0.20698 0.80390 1.19556
 N183 N 0.83235 1.14382 1.24734
 N184 N 0.85885 1.16961 1.24541
 C185 C 0.88347 1.16421 1.27375
 C186 C 0.87143 1.13368 1.29476
 C187 C 0.83919 1.12118 1.27684
 H188 H 0.90893 1.18037 1.27808
 H189 H 0.82259 1.09672 1.28416
 Cu190 Cu 0.85981 1.20601 1.20458
 Cu191 Cu 0.79209 1.13997 1.21047
 Cu192 Cu 0.79412 1.20332 1.13645
 N193 N 0.85992 1.24197 1.16336
 N194 N 0.83472 1.24007 1.13632
 C195 C 0.84167 1.26725 1.11092
 C196 C 0.87305 1.28725 1.12257
 C197 C 0.88364 1.27067 1.15615
 H198 H 0.82471 1.27239 1.08621
 H199 H 0.90703 1.27896 1.17382
 N200 N 0.75519 1.16424 1.14175
 N201 N 0.75395 1.14060 1.17034
 C202 C 0.72426 1.11739 1.16589
 C203 C 0.70585 1.12703 1.13300
 C204 C 0.72645 1.15655 1.11827
 H205 H 0.71731 1.09441 1.18453
 H206 H 0.72107 1.17087 1.09199
 H207 H 0.82278 1.16250 1.16656
 H208 H 0.79276 1.19575 1.19403
 O209 O 0.44787 0.92848 0.93574
 O210 O 0.40624 0.96458 0.96925
 C211 C 0.41391 0.93852 0.94501
 O212 O 0.55216 0.93329 1.07201
 O213 O 0.59363 0.96724 1.03595
 C214 C 0.58607 0.94313 1.06220
 O215 O 0.44604 0.92980 1.06696
 O216 O 0.40534 0.96527 1.03146
 C217 C 0.41238 0.93970 1.05645
 O218 O 0.55395 0.93250 0.93387
 O219 O 0.59454 0.96643 0.97096
 C220 C 0.58758 0.94216 0.94472
 Zr221 Zr 0.50062 0.94965 0.95453
 O222 O 0.50498 0.89024 0.95612
 O223 O 0.49727 0.94840 0.89513
 Zr224 Zr 0.49936 0.95056 1.04960
 O225 O 0.50357 0.89113 1.04968
 O226 O 0.49438 0.95080 1.10889
 O227 O 0.46638 0.94267 1.00162
 O228 O 0.53274 0.94330 1.00263
 O229 O 0.55393 1.06249 0.93304
 O230 O 0.59461 1.02867 0.97007
 C231 C 0.58761 1.05284 0.94370
 O232 O 0.44559 1.06687 1.06530
 O233 O 0.40507 1.02961 1.03144
 C234 C 0.41194 1.05618 1.05540
 O235 O 0.55184 1.06385 1.07029
 O236 O 0.59354 1.03007 1.03446
 C237 C 0.58579 1.05444 1.06034
 O238 O 0.44795 1.06597 0.93499
 O239 O 0.40623 1.02972 0.96846
 C240 C 0.41403 1.05563 0.94403
 Zr241 Zr 0.50059 1.04484 0.95351
 O242 O 0.50485 1.10426 0.95272
 O243 O 0.49714 1.04384 0.89410
 Zr244 Zr 0.49908 1.04582 1.04858
 O245 O 0.50315 1.10526 1.04783
 O246 O 0.49406 1.04637 1.10787
 Zr247 Zr 0.44399 0.99760 1.00065
 Zr248 Zr 0.55582 0.99786 1.00245
 O249 O 0.53248 1.05229 1.00148
 O250 O 0.46621 1.05265 1.00043
 O251 O 0.53427 0.99725 0.94720
 O252 O 0.46649 0.99815 1.05543
 O253 O 0.46802 0.99713 0.94661
 O254 O 0.53270 0.99838 1.05701
 H255 H 0.54996 0.92137 1.00311
 H256 H 0.44918 0.99831 1.07727
 H257 H 0.54947 1.07444 1.00141
 H258 H 0.45129 0.99691 0.92429
 H259 H 0.51478 0.96693 1.11888
 H260 H 0.51508 1.03128 1.11818
 H261 H 0.48197 1.11488 1.03250
 H262 H 0.48404 1.11427 0.96824
 H263 H 0.51890 1.02924 0.88472
 H264 H 0.51734 0.96506 0.88535
 H265 H 0.48288 0.88057 0.97004
 H266 H 0.48224 0.88122 1.03472
 O267 O 0.06385 0.55280 -0.07006
 O268 O 0.02958 0.59375 -0.03385
 C269 C 0.05407 0.58650 -0.05982
 O270 O -0.07072 0.44662 -0.06593
 O271 O -0.03457 0.40569 -0.03145
 C272 C -0.06075 0.41288 -0.05580
 O273 O -0.06747 0.55281 -0.06904
 O274 O -0.03256 0.59388 -0.03339
 C275 C -0.05730 0.58657 -0.05920
 O276 O 0.06629 0.44692 -0.06756
 O277 O 0.03020 0.40583 -0.03315
 C278 C 0.05602 0.41319 -0.05778
 Zr279 Zr 0.04578 0.49983 -0.04910
 O280 O 0.04481 0.49619 -0.10849
 O281 O 0.10532 0.50365 -0.04955
 Zr282 Zr -0.04976 0.49973 -0.04798
 O283 O -0.05116 0.49582 -0.10734
 O284 O -0.10928 0.50372 -0.04644
 O285 O -0.00205 0.53327 -0.05591
 O286 O -0.00210 0.46725 -0.05547
 O287 O 0.06781 0.44664 0.06396
 O288 O 0.03103 0.40561 0.03024
 C289 C 0.05747 0.41288 0.05432
 O290 O -0.06621 0.55271 0.06812
 O291 O -0.03274 0.59376 0.03113
 C292 C -0.05671 0.58645 0.05759
 O293 O -0.06875 0.44671 0.06564
 O294 O -0.03288 0.40570 0.03103
 C295 C -0.05854 0.41300 0.05585
 O296 O 0.06448 0.55265 0.06731
 O297 O 0.03012 0.59380 0.03127
 C298 C 0.05462 0.58641 0.05727
 Zr299 Zr 0.04695 0.49971 0.04597
 O300 O 0.04851 0.49553 0.10530
 O301 O 0.10646 0.50389 0.04443
 Zr302 Zr -0.04856 0.49973 0.04694
 O303 O -0.04839 0.49595 0.10633
 O304 O -0.10812 0.50350 0.04672
 Zr305 Zr -0.00129 0.55554 -0.00101
 Zr306 Zr -0.00135 0.44396 -0.00108
 O307 O -0.00072 0.46725 0.05333
 O308 O -0.00071 0.53320 0.05389
 O309 O 0.05376 0.46615 -0.00166
 O310 O -0.05595 0.53242 -0.00049
 O311 O 0.05327 0.53244 -0.00158
 O312 O -0.05648 0.46608 -0.00041
 H313 H -0.00249 0.45031 -0.07758
 H314 H -0.07803 0.54948 -0.00038
 H315 H -0.00039 0.45043 0.07556
 H316 H 0.07534 0.54956 -0.00168
 H317 H -0.11878 0.48189 -0.03200
 H318 H -0.11791 0.48146 0.03282
 H319 H -0.03239 0.51663 0.11594
 H320 H 0.03191 0.51543 0.11542
 H321 H 0.11600 0.48199 0.03018
 H322 H 0.11518 0.48239 -0.03452
 H323 H 0.02935 0.51734 -0.11791
 H324 H -0.03517 0.51629 -0.11739
 O325 O 1.06721 -0.06594 0.44726
 O326 O 1.03263 -0.03011 0.40611
 C327 C 1.05715 -0.05607 0.41352
 O328 O 0.93434 -0.06340 0.55362
 O329 O 0.97008 -0.02818 0.59430
 C330 C 0.94436 -0.05311 0.58722
 O331 O 0.93623 -0.06658 0.44794
 O332 O 0.97014 -0.03042 0.40657
 C333 C 0.94578 -0.05650 0.41415
 O334 O 1.07140 -0.06195 0.55313
 O335 O 1.03540 -0.02741 0.59403
 C336 C 1.06142 -0.05187 0.58680
 Zr337 Zr 1.04992 -0.04447 0.50015
 O338 O 1.05054 -0.10387 0.50470
 O339 O 1.10941 -0.04366 0.49564
 Zr340 Zr 0.95453 -0.04513 0.50055
 O341 O 0.95484 -0.10455 0.50473
 O342 O 0.89496 -0.04496 0.49706
 O343 O 1.00206 -0.05234 0.46690
 O344 O 1.00248 -0.05151 0.53297
 O345 O 1.07077 0.06886 0.55220
 O346 O 1.03424 0.03536 0.59359
 C347 C 1.06051 0.05953 0.58602
 O348 O 0.93613 0.07110 0.44719
 O349 O 0.96997 0.03471 0.40606
 C350 C 0.94559 0.06077 0.41348
 O351 O 0.93263 0.06746 0.55295
 O352 O 0.96958 0.03399 0.59402
 C353 C 0.94303 0.05791 0.58668
 O354 O 1.06701 0.07136 0.44618
 O355 O 1.03294 0.03430 0.40567
 C356 C 1.05723 0.06064 0.41260
 Zr357 Zr 1.04935 0.05076 0.49947
 O358 O 1.04851 0.11021 0.50319
 O359 O 1.10885 0.05135 0.49513
 Zr360 Zr 0.95403 0.05010 0.50003
 O361 O 0.95389 0.10952 0.50415
 O362 O 0.89450 0.04989 0.49580
 Zr363 Zr 1.00157 0.00252 0.44428
 Zr364 Zr 1.00229 0.00309 0.55581
 O365 O 1.00182 0.05747 0.53233
 O366 O 1.00144 0.05763 0.46618
 O367 O 1.05723 0.00338 0.53330
 O368 O 0.94715 0.00231 0.46772
 O369 O 1.05629 0.00296 0.46721
 O370 O 0.94709 0.00258 0.53381
 H371 H 1.00279 -0.07351 0.55010
 H372 H 0.92496 0.00216 0.45078
 H373 H 1.00163 0.07960 0.54925
 H374 H 1.07833 0.00288 0.45012
 H375 H 0.88537 -0.03028 0.51863
 H376 H 0.88471 0.03414 0.51654
 H377 H 0.96939 0.11939 0.48325
 H378 H 1.03402 0.11976 0.48142
 H379 H 1.11889 0.03574 0.51587
 H380 H 1.11926 -0.02873 0.51695
 H381 H 1.03473 -0.11397 0.48413
 H382 H 0.97033 -0.11428 0.48379
 C383 C 1.10682 0.10705 0.31896
 C384 C 1.11921 0.12608 0.35579
 C385 C 1.10304 0.11119 0.38719
 C386 C 1.07573 0.07854 0.37901
 C387 C 1.04729 0.09471 0.35068
 C388 C 1.06345 0.10939 0.31922
 C389 C 1.11521 0.06487 0.32492
 C390 C 1.09905 0.05015 0.35631
 H391 H 1.13914 0.14926 0.35708
 H392 H 1.10916 0.12183 0.41512
 H393 H 1.01699 0.09436 0.35488
 H394 H 1.04678 0.12129 0.29654
 H395 H 1.13137 0.04749 0.30579
 H396 H 1.10199 0.02068 0.36390
 C397 C 0.89550 -0.10531 0.32221
 C398 C 0.88244 -0.12250 0.35963
 C399 C 0.89884 -0.10676 0.39049
 C400 C 0.92700 -0.07513 0.38114
 C401 C 0.95516 -0.09315 0.35378
 C402 C 0.93876 -0.10877 0.32289
 C403 C 0.88807 -0.06284 0.32621
 C404 C 0.90446 -0.04715 0.35704
 H405 H 0.86199 -0.14515 0.36166
 H406 H 0.89233 -0.11614 0.41879
 H407 H 0.98543 -0.09340 0.35821
 H408 H 0.95520 -0.12202 0.30087
 H409 H 0.87198 -0.04624 0.30626
 H410 H 0.90197 -0.01739 0.36348
 C411 C 0.88770 0.10875 0.67448
 C412 C 0.86248 0.08307 0.65029
 C413 C 0.88106 0.06602 0.62144
 C414 C 0.92308 0.07617 0.61922
 C415 C 0.92402 0.11936 0.61750
 C416 C 0.90538 0.13639 0.64624
 C417 C 0.92041 0.08349 0.68717
 C418 C 0.93892 0.06641 0.65840
 H419 H 0.83253 0.07902 0.65491
 H420 H 0.86705 0.04724 0.60182
 H421 H 0.93791 0.13521 0.59538
 H422 H 0.90322 0.16677 0.64845
 H423 H 0.92831 0.07934 0.71637
 H424 H 0.96265 0.04777 0.66329
 C425 C 1.10908 -0.10147 0.67972
 C426 C 1.11408 -0.05846 0.67818
 C427 C 1.09887 -0.04221 0.64696
 C428 C 1.07981 -0.07031 0.62014
 C429 C 1.11050 -0.09960 0.61137
 C430 C 1.12576 -0.11583 0.64257
 C431 C 1.06628 -0.10753 0.67582
 C432 C 1.05111 -0.09138 0.64466
 H433 H 1.12808 -0.04211 0.69984
 H434 H 1.10012 -0.01210 0.64191
 H435 H 1.11965 -0.10690 0.58321
 H436 H 1.14780 -0.13694 0.64098
 H437 H 1.04903 -0.12236 0.69618
 H438 H 1.02118 -0.09288 0.63840
 C439 C 0.31883 1.10346 1.10553
 C440 C 0.31591 1.10027 1.06245
 C441 C 0.34704 1.08526 1.04589
 C442 C 0.37833 1.07434 1.07377
 C443 C 0.38643 1.11059 1.09600
 C444 C 0.35534 1.12576 1.11252
 C445 C 0.32794 1.06304 1.11864
 C446 C 0.35899 1.04800 1.10202
 H447 H 0.29127 1.10858 1.04634
 H448 H 0.34883 1.08077 1.01578
 H449 H 0.41407 1.12346 1.09839
 H450 H 0.35667 1.15138 1.12910
 H451 H 0.31121 1.04689 1.13838
 H452 H 0.36855 1.01958 1.10798
 C453 C 0.32647 0.88560 0.89025
 C454 C 0.35280 0.85865 0.91185
 C455 C 0.38141 0.87633 0.93036
 C456 C 0.38150 0.91927 0.92548
 C457 C 0.38169 0.92559 0.88276
 C458 C 0.35309 0.90791 0.86429
 C459 C 0.31330 0.91423 0.91979
 C460 C 0.34194 0.93181 0.93822
 H461 H 0.34974 0.82826 0.91214
 H462 H 0.40232 0.86110 0.94665
 H463 H 0.40281 0.94224 0.86821
 H464 H 0.35019 0.90932 0.83394
 H465 H 0.28389 0.92007 0.92585
 H466 H 0.33669 0.95250 0.96002
 C467 C 0.67898 0.89323 1.11018
 C468 C 0.67242 0.88343 1.06845
 C469 C 0.64126 0.89973 1.05337
 C470 C 0.61934 0.92469 1.08089
 C471 C 0.61069 0.89898 1.11463
 C472 C 0.64190 0.88260 1.12993
 C473 C 0.67984 0.93659 1.11086
 C474 C 0.64859 0.95296 1.09577
 H475 H 0.69102 0.86613 1.05157
 H476 H 0.63318 0.89562 1.02420
 H477 H 0.58265 0.89428 1.12584
 H478 H 0.64032 0.86391 1.15404
 H479 H 0.70308 0.95311 1.12194
 H480 H 0.64514 0.98328 1.09431
 C481 C 0.67593 1.10544 0.89019
 C482 C 0.64787 1.13242 0.90918
 C483 C 0.61907 1.11471 0.92723
 C484 C 0.62044 1.07160 0.92446
 C485 C 0.62230 1.06330 0.88217
 C486 C 0.65115 1.08103 0.86414
 C487 C 0.68863 1.07863 0.92164
 C488 C 0.65973 1.06089 0.93954
 H489 H 0.65016 1.16288 0.90832
 H490 H 0.59712 1.13005 0.94192
 H491 H 0.60232 1.04532 0.86756
 H492 H 0.65519 1.07839 0.83404
 H493 H 0.71792 1.07387 0.92914
 H494 H 0.66462 1.04105 0.96224
 C495 C 0.11036 0.32483 0.10776
 C496 C 0.08371 0.31215 0.07617
 C497 C 0.06609 0.34100 0.05814
 C498 C 0.07676 0.38023 0.07329
 C499 C 0.06827 0.37826 0.11555
 C500 C 0.08584 0.34941 0.13363
 C501 C 0.13756 0.35277 0.08887
 C502 C 0.11997 0.38163 0.07071
 H503 H 0.07920 0.28292 0.06853
 H504 H 0.04667 0.33616 0.03504
 H505 H 0.05012 0.39805 0.13009
 H506 H 0.08290 0.34503 0.16366
 H507 H 0.16803 0.35023 0.08983
 H508 H 0.13542 0.40352 0.05601
 C509 C -0.11160 0.32353 -0.10909
 C510 C -0.08894 0.31210 -0.07413
 C511 C -0.07219 0.34147 -0.05615
 C512 C -0.07966 0.37997 -0.07470
 C513 C -0.06693 0.37513 -0.11562
 C514 C -0.08355 0.34570 -0.13365
 C515 C -0.13953 0.35344 -0.09493
 C516 C -0.12284 0.38286 -0.07678
 H517 H -0.08648 0.28331 -0.06420
 H518 H -0.05566 0.33752 -0.03076
 H519 H -0.04678 0.39355 -0.12938
 H520 H -0.07770 0.33959 -0.16292
 H521 H -0.16981 0.35168 -0.09893
 H522 H -0.13888 0.40609 -0.06515
 C523 C 0.10337 0.67931 -0.10809
 C524 C 0.06057 0.67629 -0.11481
 C525 C 0.04457 0.64514 -0.09924
 C526 C 0.07260 0.61982 -0.07819
 C527 C 0.10348 0.61087 -0.10720
 C528 C 0.11955 0.64203 -0.12275
 C529 C 0.10774 0.67711 -0.06513
 C530 C 0.09184 0.64594 -0.04957
 H531 H 0.04398 0.69708 -0.12982
 H532 H 0.01461 0.63925 -0.10141
 H533 H 0.11210 0.58262 -0.11490
 H534 H 0.14175 0.64031 -0.14365
 H535 H 0.12190 0.69831 -0.04829
 H536 H 0.09275 0.64045 -0.01954
 C537 C -0.10529 0.67910 0.10652
 C538 C -0.06210 0.67751 0.11043
 C539 C -0.04629 0.64638 0.09472
 C540 C -0.07492 0.61971 0.07624
 C541 C -0.10355 0.61069 0.10748
 C542 C -0.11937 0.64180 0.12327
 C543 C -0.11244 0.67558 0.06399
 C544 C -0.09668 0.64448 0.04825
 H545 H -0.04527 0.69912 0.12397
 H546 H -0.01613 0.64136 0.09517
 H547 H -0.11080 0.58243 0.11654
 H548 H -0.14005 0.64003 0.14567
 H549 H -0.12786 0.69605 0.04738
 H550 H -0.09903 0.63836 0.01842
 C551 C 1.11495 0.11194 0.67352
 C552 C 1.14073 0.08715 0.64908
 C553 C 1.12244 0.06961 0.62032
 C554 C 1.08013 0.07843 0.61840
 C555 C 1.06491 0.06805 0.65764
 C556 C 1.08314 0.08562 0.68633
 C557 C 1.09623 0.13912 0.64551
 C558 C 1.07789 0.12158 0.61680
 H559 H 1.17083 0.08406 0.65343
 H560 H 1.13684 0.05133 0.60056
 H561 H 1.04189 0.04855 0.66265
 H562 H 1.07568 0.08105 0.71557
 H563 H 1.09746 0.16955 0.64790
 H564 H 1.06331 0.13702 0.59482
 C565 C 0.89321 -0.10757 0.67540
 C566 C 0.86550 -0.09167 0.64613
 C567 C 0.88248 -0.07310 0.61725
 C568 C 0.92568 -0.07241 0.61990
 C569 C 0.93408 -0.05523 0.65878
 C570 C 0.91705 -0.07365 0.68771
 C571 C 0.92031 -0.13234 0.65248
 C572 C 0.93724 -0.11390 0.62350
 H573 H 0.83512 -0.09486 0.64785
 H574 H 0.86661 -0.06025 0.59451
 H575 H 0.95172 -0.03068 0.66333
 H576 H 0.92036 -0.06492 0.71676
 H577 H 0.92545 -0.16191 0.65797
 H578 H 0.95698 -0.12768 0.60472
 C579 C 1.10901 -0.11107 0.32621
 C580 C 1.08184 -0.08011 0.31313
 C581 C 1.06437 -0.06168 0.34173
 C582 C 1.07571 -0.07587 0.38110
 C583 C 1.06764 -0.11832 0.38024
 C584 C 1.08509 -0.13681 0.35161
 C585 C 1.13631 -0.09123 0.35337
 C586 C 1.11888 -0.07270 0.38192
 H587 H 1.07666 -0.07337 0.28380
 H588 H 1.04433 -0.03919 0.33659
 H589 H 1.04993 -0.13267 0.40060
 H590 H 1.08250 -0.16700 0.34794
 H591 H 1.16676 -0.09185 0.35056
 H592 H 1.13443 -0.05730 0.40326
 C593 C 0.89159 0.11459 0.32672
 C594 C 0.86498 0.09649 0.35567
 C595 C 0.88314 0.07826 0.38400
 C596 C 0.92631 0.08006 0.38120
 C597 C 0.93537 0.06428 0.34191
 C598 C 0.91715 0.08238 0.31350
 C599 C 0.91742 0.14033 0.35013
 C600 C 0.93562 0.12220 0.37859
 H601 H 0.83446 0.09806 0.35425
 H602 H 0.86813 0.06405 0.40649
 H603 H 0.95426 0.04085 0.33672
 H604 H 0.92058 0.07444 0.28424
 H605 H 0.92088 0.17026 0.34516
 H606 H 0.95480 0.13656 0.39757
 C607 C 0.10547 0.32071 -0.10590
 C608 C 0.06232 0.32183 -0.10985
 C609 C 0.04623 0.35290 -0.09436
 C610 C 0.07463 0.38000 -0.07604
 C611 C 0.09658 0.35569 -0.04785
 C612 C 0.11260 0.32462 -0.06336
 C613 C 0.11923 0.35800 -0.12293
 C614 C 0.10316 0.38907 -0.10734
 H615 H 0.04572 0.29990 -0.12318
 H616 H 0.01599 0.35756 -0.09471
 H617 H 0.09914 0.36226 -0.01816
 H618 H 0.12837 0.30453 -0.04662
 H619 H 0.13986 0.35979 -0.14537
 H620 H 0.11014 0.41733 -0.11662
 C621 C -0.10890 0.32094 0.10419
 C622 C -0.11826 0.35797 0.12435
 C623 C -0.10179 0.38884 0.10870
 C624 C -0.07724 0.37985 0.07422
 C625 C -0.04905 0.35013 0.08825
 C626 C -0.06560 0.31924 0.10370
 C627 C -0.12003 0.32770 0.06286
 C628 C -0.10345 0.35852 0.04728
 H629 H -0.13622 0.35972 0.14898
 H630 H -0.10566 0.41687 0.12015
 H631 H -0.01865 0.35305 0.08607
 H632 H -0.04933 0.29574 0.11451
 H633 H -0.13865 0.30962 0.04677
 H634 H -0.10836 0.36683 0.01831
 C635 C -0.11034 0.67453 -0.11249
 C636 C -0.08041 0.68732 -0.08406
 C637 C -0.06253 0.65850 -0.06627
 C638 C -0.07619 0.61919 -0.07856
 C639 C -0.11898 0.61987 -0.07222
 C640 C -0.13689 0.64867 -0.09003
 C641 C -0.08933 0.64781 -0.13927
 C642 C -0.07139 0.61894 -0.12148
 H643 H -0.07354 0.71661 -0.07870
 H644 H -0.04040 0.66345 -0.04575
 H645 H -0.13396 0.59922 -0.05538
 H646 H -0.16723 0.65226 -0.08863
 H647 H -0.08880 0.65105 -0.16959
 H648 H -0.05534 0.59783 -0.13661
 C649 C 0.10673 0.67398 0.11189
 C650 C 0.13400 0.64609 0.09318
 C651 C 0.11651 0.61743 0.07475
 C652 C 0.07330 0.61889 0.07693
 C653 C 0.06440 0.62057 0.11913
 C654 C 0.08188 0.64934 0.13749
 C655 C 0.08042 0.68690 0.08013
 C656 C 0.06287 0.65820 0.06184
 H657 H 0.16447 0.64852 0.09445
 H658 H 0.13204 0.59559 0.06013
 H659 H 0.04610 0.60066 0.13339
 H660 H 0.07872 0.65356 0.16751
 H661 H 0.07589 0.71620 0.07273
 H662 H 0.04341 0.66323 0.03882
 C663 C 0.32602 1.11075 0.89341
 C664 C 0.31538 1.07168 0.90855
 C665 C 0.34444 1.05309 0.92517
 C666 C 0.38172 1.07531 0.92521
 C667 C 0.38867 1.08498 0.88363
 C668 C 0.35959 1.10369 0.86708
 C669 C 0.34312 1.13160 0.92737
 C670 C 0.37225 1.11300 0.94388
 H671 H 0.28741 1.05950 0.90606
 H672 H 0.34121 1.02494 0.93659
 H673 H 0.41420 1.07774 0.86849
 H674 H 0.36039 1.11258 0.83788
 H675 H 0.33388 1.15885 0.93741
 H676 H 0.38738 1.12425 0.96793
 C677 C 0.32384 0.88794 1.10978
 C678 C 0.31130 0.91611 1.07955
 C679 C 0.34033 0.93341 1.06153
 C680 C 0.37955 0.92092 1.07540
 C681 C 0.37887 0.92788 1.11800
 C682 C 0.34984 0.91056 1.13603
 C683 C 0.35044 0.86061 1.08927
 C684 C 0.37949 0.87792 1.07117
 H685 H 0.28201 0.92195 1.07289
 H686 H 0.33559 0.95398 1.03946
 H687 H 0.39967 0.94477 1.13276
 H688 H 0.34622 0.91242 1.16625
 H689 H 0.34702 0.83026 1.08921
 H690 H 0.40059 0.86241 1.05546
 C691 C 0.67333 1.10730 1.11433
 C692 C 0.65005 1.08102 1.13979
 C693 C 0.62122 1.06337 1.12164
 C694 C 0.61816 1.07353 1.07980
 C695 C 0.61546 1.11667 1.07893
 C696 C 0.64419 1.13434 1.09715
 C697 C 0.68610 1.08242 1.08150
 C698 C 0.65737 1.06471 1.06342
 H699 H 0.65515 1.07701 1.16958
 H700 H 0.60217 1.04412 1.13583
 H701 H 0.59281 1.13201 1.06527
 H702 H 0.64595 1.16477 1.09919
 H703 H 0.71533 1.07899 1.07320
 H704 H 0.66233 1.04627 1.03963
 C705 C 0.67711 0.89356 0.89034
 C706 C 0.65758 0.92517 0.86795
 C707 C 0.62802 0.94116 0.88632
 C708 C 0.62056 0.92426 0.92531
 C709 C 0.61578 0.88182 0.91843
 C710 C 0.64526 0.86582 0.89995
 C711 C 0.68785 0.91167 0.92803
 C712 C 0.65838 0.92779 0.94634
 H713 H 0.66557 0.93401 0.83991
 H714 H 0.61134 0.96368 0.87411
 H715 H 0.59127 0.86575 0.92718
 H716 H 0.64580 0.83613 0.89279
 H717 H 0.71626 0.91172 0.93940
 H718 H 0.66181 0.94144 0.97341
   
