data_POSCAR
  _audit_creation_date              2014-09-24
  _audit_creation_method            'ToBaCCo'
  _symmetry_space_group_name_H-M    'P1'
  _symmetry_Int_Tables_number       1
  _symmetry_cell_setting            triclinic
  loop_
  _symmetry_equiv_pos_as_xyz
 x,y,z
_cell_length_a 40.2206
_cell_length_b 40.2730
_cell_length_c 22.7696
_cell_angle_alpha 89.845700
_cell_angle_beta 90.074900
_cell_angle_gamma 119.998000
loop_
  _atom_site_label
  _atom_site_type_symbol
  _atom_site_fract_x
  _atom_site_fract_y
  _atom_site_fract_z
O1 O 0.45385 0.96344 0.55542
 O2 O 0.49183 1.03813 0.44081
 O3 O 0.45440 0.96351 0.44099
 O4 O 0.49130 1.03806 0.55528
 O5 O 0.54625 1.03798 0.55616
 O6 O 0.50935 0.96343 0.44188
 O7 O 0.54677 1.03805 0.44169
 O8 O 0.50880 0.96336 0.55630
 Cu9 Cu 0.46731 1.00080 0.49803
 Cu10 Cu 0.53334 1.00071 0.49909
 C11 C 0.47494 0.95084 0.57526
 C12 C 0.52569 1.05065 0.42181
 C13 C 0.47567 0.95093 0.42209
 C14 C 0.52497 1.05054 0.57510
 O15 O -0.03749 0.50847 0.55956
 O16 O 0.03719 0.54630 0.44504
 O17 O -0.03751 0.50893 0.44510
 O18 O 0.03724 0.54584 0.55950
 O19 O 0.03731 0.49097 0.55905
 O20 O -0.03744 0.45405 0.44465
 O21 O 0.03726 0.49142 0.44458
 O22 O -0.03742 0.45360 0.55911
 Cu23 Cu -0.00015 0.53292 0.50236
 Cu24 Cu -0.00007 0.46697 0.50181
 C25 C -0.05002 0.47467 0.57874
 C26 C 0.04976 0.52521 0.42538
 C27 C -0.05003 0.47529 0.42547
 C28 C 0.04985 0.52462 0.57866
 O29 O 0.50945 0.54597 0.55758
 O30 O 0.54615 0.50811 0.44324
 O31 O 0.50883 0.54545 0.44316
 O32 O 0.54680 0.50865 0.55770
 O33 O 0.49182 0.45375 0.55871
 O34 O 0.45384 0.49055 0.44416
 O35 O 0.49116 0.45321 0.44425
 O36 O 0.45445 0.49107 0.55858
 Cu37 Cu 0.53336 0.53258 0.50033
 Cu38 Cu 0.46727 0.46660 0.50154
 C39 C 0.47577 0.52489 0.57743
 C40 C 0.52481 0.47430 0.42435
 C41 C 0.47495 0.52418 0.42425
 C42 C 0.52570 0.47501 0.57763
 O43 O 0.38924 0.66834 -0.06743
 O44 O 0.39078 0.73307 -0.05006
 C45 C 0.36672 0.73837 -0.07874
 O46 O 0.33113 0.72106 -0.06780
 O47 O 0.26631 0.65789 -0.04993
 C48 C 0.26101 0.62857 -0.07843
 O49 O 0.27834 0.61033 -0.06737
 O50 O 0.34160 0.60877 -0.04960
 C51 C 0.37097 0.63279 -0.07823
 O52 O 0.39088 0.65800 0.04953
 O53 O 0.38920 0.72111 0.06691
 C54 C 0.37090 0.73838 0.07772
 O55 O 0.34152 0.73304 0.04907
 O56 O 0.27834 0.66826 0.06696
 C57 C 0.26109 0.63272 0.07808
 O58 O 0.26639 0.60871 0.04955
 O59 O 0.33126 0.61037 0.06730
 C60 C 0.36686 0.62866 0.07821
 Cr61 Cr 0.38787 0.69406 -0.00026
 Cr62 Cr 0.30540 0.69399 -0.00042
 Cr63 Cr 0.30547 0.61169 -0.00004
 O64 O 0.33291 0.66658 -0.00025
 O65 O 0.60896 0.34200 -0.05002
 O66 O 0.61067 0.27893 -0.06765
 C67 C 0.62903 0.26173 -0.07857
 O68 O 0.65837 0.26701 -0.04987
 O69 O 0.72159 0.33182 -0.06733
 C70 C 0.73887 0.36739 -0.07827
 O71 O 0.73346 0.39133 -0.04973
 O72 O 0.66859 0.38965 -0.06761
 C73 C 0.63301 0.37138 -0.07862
 O74 O 0.61047 0.33144 0.06692
 O75 O 0.60893 0.26674 0.04927
 C76 C 0.63296 0.26141 0.07796
 O77 O 0.66856 0.27873 0.06710
 O78 O 0.73338 0.34195 0.04965
 C79 C 0.73862 0.37121 0.07824
 O80 O 0.72133 0.38949 0.06716
 O81 O 0.65809 0.39105 0.04929
 C82 C 0.62873 0.36697 0.07789
 Cr83 Cr 0.61191 0.30585 -0.00037
 Cr84 Cr 0.69440 0.30595 -0.00012
 Cr85 Cr 0.69429 0.38823 -0.00023
 O86 O 0.66687 0.33334 -0.00024
 C87 C 0.43333 0.86912 -0.29464
 C88 C 0.44444 0.83801 -0.30180
 C89 C 0.43079 0.81122 -0.25812
 C90 C 0.40737 0.81818 -0.21157
 C91 C 0.37573 0.82040 -0.24609
 C92 C 0.38938 0.84719 -0.28976
 C93 C 0.44771 0.88591 -0.23327
 C94 C 0.43407 0.85914 -0.18961
 C95 C 0.44808 0.89806 -0.34149
 C96 C 0.46029 0.92205 -0.37968
 C97 C 0.39273 0.78945 -0.16443
 C98 C 0.38080 0.76602 -0.12542
 H99 H 0.46150 0.83709 -0.33800
 H100 H 0.43615 0.78735 -0.25691
 H101 H 0.34528 0.80251 -0.23704
 H102 H 0.37062 0.85224 -0.31813
 H103 H 0.46693 0.91618 -0.22484
 H104 H 0.44159 0.86647 -0.14379
 C105 C 0.13009 0.56418 -0.29388
 C106 C 0.13863 0.60301 -0.26880
 C107 C 0.16545 0.61621 -0.22523
 C108 C 0.18110 0.58929 -0.21100
 C109 C 0.19607 0.58334 -0.26974
 C110 C 0.16924 0.57013 -0.31333
 C111 C 0.11869 0.53727 -0.24056
 C112 C 0.14550 0.55047 -0.19700
 C113 C 0.10112 0.54991 -0.34064
 C114 C 0.07710 0.53807 -0.37876
 C115 C 0.20987 0.60345 -0.16395
 C116 C 0.23332 0.61497 -0.12502
 H117 H 0.12485 0.61876 -0.28396
 H118 H 0.17464 0.64327 -0.20306
 H119 H 0.22516 0.58900 -0.27651
 H120 H 0.17536 0.56449 -0.35744
 H121 H 0.09192 0.51021 -0.23732
 H122 H 0.14169 0.53472 -0.15644
 C123 C 0.43549 0.56636 -0.29303
 C124 C 0.46673 0.59287 -0.24961
 C125 C 0.45351 0.60647 -0.20617
 C126 C 0.41034 0.59224 -0.21039
 C127 C 0.39096 0.54833 -0.21143
 C128 C 0.40418 0.53473 -0.25487
 C129 C 0.41768 0.58990 -0.31583
 C130 C 0.40445 0.60351 -0.27237
 C131 C 0.44978 0.55167 -0.33965
 C132 C 0.46160 0.53950 -0.37767
 C133 C 0.39616 0.60683 -0.16350
 C134 C 0.38461 0.61873 -0.12469
 H135 H 0.49660 0.60031 -0.25271
 H136 H 0.47206 0.62556 -0.17207
 H137 H 0.36879 0.52958 -0.18075
 H138 H 0.39334 0.50432 -0.26140
 H139 H 0.41563 0.59539 -0.36202
 H140 H 0.39107 0.62065 -0.28134
 C141 C 0.56513 0.13182 -0.29473
 C142 C 0.56592 0.11535 -0.23419
 C143 C 0.57903 0.14195 -0.19047
 C144 C 0.59008 0.18242 -0.21154
 C145 C 0.55408 0.17785 -0.24245
 C146 C 0.54097 0.15125 -0.28618
 C147 C 0.60627 0.16486 -0.30464
 C148 C 0.61939 0.19147 -0.26090
 C149 C 0.55095 0.10306 -0.34164
 C150 C 0.53916 0.07920 -0.37986
 C151 C 0.60413 0.21096 -0.16432
 C152 C 0.61555 0.23423 -0.12527
 H153 H 0.55697 0.08543 -0.22635
 H154 H 0.58131 0.13481 -0.14519
 H155 H 0.54014 0.19410 -0.23102
 H156 H 0.51579 0.14470 -0.31222
 H157 H 0.62356 0.16716 -0.34267
 H158 H 0.64792 0.21657 -0.26145
 C159 C 0.86980 0.43401 -0.29371
 C160 C 0.84196 0.39063 -0.29706
 C161 C 0.81515 0.37702 -0.25345
 C162 C 0.81882 0.40813 -0.21078
 C163 C 0.81727 0.43851 -0.24971
 C164 C 0.84407 0.45212 -0.29332
 C165 C 0.88709 0.44088 -0.23178
 C166 C 0.86030 0.42727 -0.18819
 C167 C 0.89875 0.44871 -0.34050
 C168 C 0.92276 0.46087 -0.37864
 C169 C 0.79006 0.39351 -0.16372
 C170 C 0.76659 0.38155 -0.12481
 H171 H 0.84318 0.37223 -0.33072
 H172 H 0.79340 0.34696 -0.24977
 H173 H 0.79690 0.44844 -0.24359
 H174 H 0.84667 0.47371 -0.32455
 H175 H 0.91770 0.45517 -0.22293
 H176 H 0.86795 0.42991 -0.14201
 C177 C 0.56647 0.43561 -0.29461
 C178 C 0.59277 0.42083 -0.31664
 C179 C 0.60640 0.40768 -0.27293
 C180 C 0.59240 0.41060 -0.21149
 C181 C 0.54842 0.38897 -0.21591
 C182 C 0.53479 0.40212 -0.25960
 C183 C 0.59030 0.46608 -0.24848
 C184 C 0.60393 0.45294 -0.20479
 C185 C 0.55174 0.44982 -0.34150
 C186 C 0.53954 0.46161 -0.37970
 C187 C 0.60702 0.39649 -0.16432
 C188 C 0.61894 0.38498 -0.12530
 H189 H 0.60003 0.42070 -0.36251
 H190 H 0.62535 0.39628 -0.28135
 H191 H 0.52964 0.36539 -0.18725
 H192 H 0.50434 0.38980 -0.26838
 H193 H 0.59597 0.49541 -0.25000
 H194 H 0.62128 0.47101 -0.16889
 C195 C 0.86861 0.43513 0.29498
 C196 C 0.88620 0.44382 0.23317
 C197 C 0.85959 0.43070 0.18931
 C198 C 0.81799 0.41018 0.21154
 C199 C 0.81543 0.43916 0.25221
 C200 C 0.84205 0.45228 0.29609
 C201 C 0.84156 0.39154 0.29634
 C202 C 0.81495 0.37841 0.25247
 C203 C 0.89737 0.44932 0.34204
 C204 C 0.92126 0.46111 0.38034
 C205 C 0.78945 0.39612 0.16419
 C206 C 0.76616 0.38468 0.12504
 H207 H 0.91686 0.45894 0.22459
 H208 H 0.86747 0.43460 0.14317
 H209 H 0.79454 0.44853 0.24704
 H210 H 0.84396 0.47289 0.32849
 H211 H 0.84316 0.37264 0.32892
 H212 H 0.79374 0.34828 0.24745
 C213 C 0.56641 0.13071 0.29397
 C214 C 0.54926 0.15726 0.29448
 C215 C 0.56288 0.18402 0.25076
 C216 C 0.59231 0.18159 0.21081
 C217 C 0.57196 0.14013 0.18836
 C218 C 0.55835 0.11339 0.23207
 C219 C 0.61005 0.15769 0.29620
 C220 C 0.62367 0.18445 0.25248
 C221 C 0.55171 0.10182 0.34088
 C222 C 0.53952 0.07785 0.37912
 C223 C 0.60692 0.21030 0.16362
 C224 C 0.61885 0.23372 0.12461
 H225 H 0.52829 0.15525 0.32639
 H226 H 0.55357 0.20491 0.24521
 H227 H 0.56855 0.13245 0.14218
 H228 H 0.54327 0.08280 0.22333
 H229 H 0.62861 0.15595 0.32923
 H230 H 0.65390 0.20562 0.24805
 C231 C 0.56476 0.43299 0.29407
 C232 C 0.54789 0.38937 0.29600
 C233 C 0.56097 0.37583 0.25223
 C234 C 0.58964 0.40726 0.21083
 C235 C 0.62154 0.43634 0.25105
 C236 C 0.60846 0.44987 0.29482
 C237 C 0.55564 0.44143 0.23218
 C238 C 0.56871 0.42790 0.18844
 C239 C 0.55064 0.44761 0.34102
 C240 C 0.53891 0.45974 0.37926
 C241 C 0.60367 0.39275 0.16360
 C242 C 0.61514 0.38092 0.12456
 H243 H 0.52749 0.37075 0.32885
 H244 H 0.55177 0.34562 0.24760
 H245 H 0.65174 0.44548 0.24565
 H246 H 0.62746 0.47061 0.32690
 H247 H 0.54025 0.45669 0.22348
 H248 H 0.56452 0.43157 0.14227
 C249 C 0.13107 0.56649 0.29481
 C250 C 0.16216 0.55528 0.30176
 C251 C 0.18878 0.56882 0.25787
 C252 C 0.18168 0.59225 0.21135
 C253 C 0.17973 0.62393 0.24584
 C254 C 0.15312 0.61039 0.28972
 C255 C 0.11394 0.55214 0.23357
 C256 C 0.14054 0.56567 0.18971
 C257 C 0.10231 0.55187 0.34188
 C258 C 0.07844 0.53975 0.38021
 C259 C 0.21022 0.60678 0.16399
 C260 C 0.23352 0.61866 0.12485
 H261 H 0.16320 0.53822 0.33797
 H262 H 0.21261 0.56337 0.25649
 H263 H 0.19768 0.65432 0.23663
 H264 H 0.14827 0.62918 0.31810
 H265 H 0.08358 0.53301 0.22538
 H266 H 0.13296 0.55814 0.14395
 C267 C 0.43531 0.86922 0.29256
 C268 C 0.44466 0.88647 0.23048
 C269 C 0.43145 0.85967 0.18705
 C270 C 0.41019 0.81824 0.20992
 C271 C 0.37835 0.81595 0.24979
 C272 C 0.39157 0.84276 0.29324
 C273 C 0.45183 0.84216 0.29517
 C274 C 0.43862 0.81535 0.25171
 C275 C 0.44959 0.89817 0.33918
 C276 C 0.46144 0.92216 0.37720
 C277 C 0.39602 0.78948 0.16301
 C278 C 0.38450 0.76605 0.12419
 H279 H 0.46028 0.91704 0.22144
 H280 H 0.43576 0.86729 0.14080
 H281 H 0.34811 0.79510 0.24440
 H282 H 0.37264 0.84488 0.32507
 H283 H 0.47210 0.84388 0.32824
 H284 H 0.44757 0.79411 0.24757
 C285 C 0.43343 0.56440 0.29412
 C286 C 0.44234 0.55601 0.23218
 C287 C 0.42872 0.56919 0.18851
 C288 C 0.40752 0.58946 0.21103
 C289 C 0.43622 0.62114 0.25190
 C290 C 0.44984 0.60796 0.29559
 C291 C 0.38967 0.54706 0.29549
 C292 C 0.37605 0.56023 0.25180
 C293 C 0.44813 0.55016 0.34099
 C294 C 0.46032 0.53836 0.37919
 C295 C 0.39291 0.60358 0.16388
 C296 C 0.38097 0.61509 0.12488
 H297 H 0.45797 0.54105 0.22339
 H298 H 0.43270 0.56550 0.14232
 H299 H 0.44505 0.65126 0.24697
 H300 H 0.47034 0.62679 0.32809
 H301 H 0.37104 0.52628 0.32793
 H302 H 0.34575 0.55074 0.24682
   
