data_POSCAR
  _audit_creation_date              2014-09-24
  _audit_creation_method            'ToBaCCo'
  _symmetry_space_group_name_H-M    'P1'
  _symmetry_Int_Tables_number       1
  _symmetry_cell_setting            triclinic
  loop_
  _symmetry_equiv_pos_as_xyz
 x,y,z
_cell_length_a 27.2783
_cell_length_b 27.9967
_cell_length_c 30.3825
_cell_angle_alpha 91.486800
_cell_angle_beta 93.455600
_cell_angle_gamma 90.611500
loop_
  _atom_site_label
  _atom_site_type_symbol
  _atom_site_fract_x
  _atom_site_fract_y
  _atom_site_fract_z
C1 C 0.18817 1.27092 0.28992
 C2 C 0.15148 1.30234 0.27463
 C3 C 0.15531 1.32650 0.23469
 C4 C 0.19810 1.31973 0.21139
 C5 C 0.23480 1.28833 0.22618
 C6 C 0.22988 1.26381 0.26557
 C7 C 0.18275 1.24517 0.32840
 C8 C 0.21863 1.21235 0.34328
 C9 C 0.26074 1.20648 0.31895
 C10 C 0.26604 1.23113 0.27990
 C11 C 0.30584 1.22189 0.25385
 C12 C 0.31021 1.24535 0.21395
 C13 C 0.27528 1.27945 0.20093
 H14 H 0.11964 1.30655 0.29378
 H15 H 0.20305 1.33777 0.18095
 H16 H 0.15040 1.25110 0.34667
 H17 H 0.28842 1.18077 0.32854
 H18 H 0.33291 1.19571 0.26412
 H19 H 0.27801 1.29715 0.16986
 C20 C 0.88277 0.82121 0.14157
 C21 C 0.89806 0.79309 0.10625
 C22 C 0.86391 0.76559 0.07955
 C23 C 0.81353 0.76930 0.08661
 C24 C 0.79746 0.80084 0.11931
 C25 C 0.83235 0.82527 0.14812
 C26 C 0.91737 0.84443 0.17095
 C27 C 0.90259 0.87096 0.20789
 C28 C 0.85182 0.87585 0.21330
 C29 C 0.81682 0.85395 0.18330
 C30 C 0.76650 0.86106 0.18743
 C31 C 0.73170 0.84032 0.15652
 C32 C 0.74723 0.80915 0.12328
 H33 H 0.93703 0.78994 0.10178
 H34 H 0.78679 0.74926 0.06545
 H35 H 0.95584 0.83946 0.16570
 H36 H 0.83906 0.89745 0.24026
 H37 H 0.75458 0.88484 0.21331
 H38 H 0.72027 0.79232 0.10001
 C39 C 0.81721 1.16016 -0.24242
 C40 C 0.85156 1.18960 -0.21835
 C41 C 0.84115 1.20917 -0.17698
 C42 C 0.79573 1.19909 -0.15955
 C43 C 0.76117 1.16904 -0.18297
 C44 C 0.77183 1.14992 -0.22481
 C45 C 0.82806 1.14025 -0.28351
 C46 C 0.79430 1.10955 -0.30771
 C47 C 0.74851 1.10050 -0.28994
 C48 C 0.73733 1.12013 -0.24881
 C49 C 0.69244 1.10952 -0.23091
 C50 C 0.68197 1.12741 -0.18894
 C51 C 0.71646 1.15717 -0.16508
 H52 H 0.88642 1.19758 -0.23204
 H53 H 0.78785 1.21364 -0.12736
 H54 H 0.86329 1.14876 -0.29600
 H55 H 0.72132 1.07745 -0.30716
 H56 H 0.66618 1.08605 -0.24915
 H57 H 0.70832 1.17131 -0.13281
 C58 C 0.17349 0.73719 -0.22870
 C59 C 0.16946 0.68949 -0.21640
 C60 C 0.17575 0.67696 -0.17178
 C61 C 0.18997 0.71284 -0.13992
 C62 C 0.19648 0.76042 -0.15211
 C63 C 0.18662 0.77287 -0.19646
 C64 C 0.16280 0.74993 -0.27258
 C65 C 0.16410 0.79803 -0.28455
 C66 C 0.17765 0.83342 -0.25232
 C67 C 0.18922 0.82112 -0.20849
 C68 C 0.20302 0.85635 -0.17643
 C69 C 0.21524 0.84390 -0.13274
 C70 C 0.21187 0.79598 -0.12062
 H71 H 0.15783 0.66297 -0.24154
 H72 H 0.19650 0.70385 -0.10561
 H73 H 0.15165 0.72247 -0.29704
 H74 H 0.17943 0.87056 -0.26135
 H75 H 0.20548 0.89343 -0.18565
 H76 H 0.22049 0.78665 -0.08664
 C77 C 0.54779 1.06275 -0.00929
 H78 H 0.56274 1.06869 0.02423
 C79 C 0.57329 1.07947 -0.04455
 H80 H 0.60772 1.09851 -0.03766
 C81 C 0.48464 1.03078 -0.05863
 H82 H 0.45050 1.01113 -0.06428
 C83 C 0.50890 1.04661 -0.09471
 H84 H 0.49268 1.03842 -0.12740
 N85 N 0.50378 1.03974 -0.01684
 C86 C 0.41862 1.06269 0.09875
 H87 H 0.40677 1.02639 0.10400
 C88 C 0.40083 1.10019 0.12417
 H89 H 0.37522 1.09196 0.14878
 C90 C 0.46471 1.11685 0.05865
 H91 H 0.48882 1.12343 0.03254
 C92 C 0.44796 1.15543 0.08341
 H93 H 0.46047 1.19099 0.07624
 Zn94 Zn 0.46844 1.01870 0.03127
 N95 N 0.44994 1.07153 0.06671
 C96 C 0.51798 0.98541 0.10893
 N97 N 0.50875 0.97669 0.06495
 C98 C 0.53027 0.93968 0.04392
 C99 C 0.56288 0.90994 0.06724
 C100 C 0.54991 0.95636 0.13353
 C101 C 0.37505 1.01701 -0.00966
 C102 C 0.33173 0.99793 -0.02986
 C103 C 0.35916 0.91916 -0.01008
 C104 C 0.40210 0.93988 0.00999
 N105 N 0.40958 0.98794 0.00897
 H106 H 0.50152 1.01556 0.12496
 H107 H 0.52280 0.93386 0.00880
 H108 H 0.58011 0.88102 0.04984
 H109 H 0.55756 0.96496 0.16819
 H110 H 0.38195 1.05512 -0.00992
 H111 H 0.30599 1.02199 -0.04583
 H112 H 0.35421 0.88078 -0.00969
 H113 H 0.42977 0.91745 0.02545
 C114 C 0.41503 1.14751 0.11639
 C115 C 0.55360 1.07187 -0.08806
 C116 C 0.32356 0.94829 -0.03092
 C117 C 0.57325 0.91833 0.11265
 C118 C -0.07489 0.53962 1.03638
 H119 H -0.06906 0.51850 1.06539
 C120 C -0.09626 0.58458 1.04019
 H121 H -0.10669 0.59745 1.07219
 C122 C -0.06317 0.55143 0.96073
 H123 H -0.04828 0.53907 0.93032
 C124 C -0.08285 0.59715 0.96347
 H125 H -0.08313 0.61980 0.93509
 N126 N -0.05740 0.52467 0.99740
 C127 C 0.06109 0.46076 1.06301
 H128 H 0.08577 0.47656 1.04088
 C129 C 0.07999 0.44306 1.10295
 H130 H 0.11903 0.44630 1.11138
 C131 C -0.01917 0.43533 1.07811
 H132 H -0.05756 0.43112 1.06744
 C133 C -0.00186 0.41752 1.11861
 H134 H -0.02728 0.39968 1.13892
 Zn135 Zn -0.01175 0.47435 0.99438
 N136 N 0.01231 0.45644 1.05126
 C137 C 0.06224 0.54007 0.97588
 N138 N 0.04027 0.49807 0.96202
 C139 C 0.05113 0.47640 0.92332
 C140 C 0.08400 0.49780 0.89618
 C141 C 0.09540 0.56273 0.94975
 C142 C -0.08408 0.41779 0.94338
 C143 C -0.10014 0.37640 0.91959
 C144 C -0.02389 0.33862 0.94253
 C145 C -0.00952 0.38033 0.96593
 N146 N -0.03900 0.41914 0.96514
 H147 H 0.05247 0.55691 1.00654
 H148 H 0.03272 0.44353 0.91232
 H149 H 0.09033 0.48012 0.86507
 H150 H 0.11127 0.59664 0.96130
 H151 H -0.10693 0.44912 0.94347
 H152 H -0.13538 0.37625 0.90121
 H153 H 0.00061 0.30847 0.94319
 H154 H 0.02595 0.38238 0.98387
 C155 C 0.04847 0.42060 1.13106
 C156 C -0.09804 0.61467 1.00396
 C157 C -0.06926 0.33656 0.91824
 C158 C 0.10566 0.54236 0.90853
 C159 C 1.06847 -0.03486 0.56827
 H160 H 1.06379 0.00168 0.57957
 C161 C 1.09081 -0.06775 0.59655
 H162 H 1.10352 -0.05577 0.62943
 C163 C 1.05743 -0.09412 0.51139
 H164 H 1.04354 -0.10450 0.47846
 C165 C 1.07939 -0.12826 0.53864
 H166 H 1.08194 -0.16451 0.52593
 N167 N 1.05300 -0.04827 0.52637
 C168 C 1.05336 0.08335 0.45355
 H169 H 1.01539 0.08396 0.44104
 C170 C 1.08726 0.11557 0.43802
 H171 H 1.07437 0.14093 0.41388
 C172 C 1.11599 0.04656 0.49760
 H173 H 1.12752 0.01847 0.51944
 C174 C 1.15106 0.07831 0.48322
 H175 H 1.18878 0.07469 0.49558
 Zn176 Zn 1.02321 -0.00107 0.49056
 N177 N 1.06839 0.04893 0.48184
 C178 C 0.96613 0.06636 0.53623
 N179 N 0.96798 0.02101 0.51927
 C180 C 0.93198 -0.01160 0.52559
 C181 C 0.89175 0.00096 0.54945
 C182 C 0.92689 0.08022 0.56107
 C183 C 1.04232 -0.04283 0.40982
 C184 C 1.03317 -0.06001 0.36661
 C185 C 0.94727 -0.04248 0.37239
 C186 C 0.95809 -0.02574 0.41570
 N187 N 1.00500 -0.02661 0.43358
 H188 H 0.99571 0.09137 0.53158
 H189 H 0.93504 -0.04773 0.51261
 H190 H 0.86396 -0.02582 0.55472
 H191 H 0.92618 0.11622 0.57490
 H192 H 1.07943 -0.04225 0.42458
 H193 H 1.06363 -0.07346 0.34901
 H194 H 0.90980 -0.04095 0.35872
 H195 H 0.92915 -0.01125 0.43458
 C196 C 1.13733 0.11223 0.45158
 C197 C 1.09673 -0.11524 0.58184
 C198 C 0.98513 -0.05988 0.34716
 C199 C 0.88918 0.04720 0.56798
 N200 N 0.04336 0.38886 1.20707
 N201 N 0.07341 0.36255 1.23602
 C202 C 0.11658 0.35515 1.21729
 C203 C 0.11471 0.37747 1.17670
 C204 C 0.06863 0.39755 1.17140
 H205 H 0.14191 0.37716 1.15230
 H206 H 0.00743 0.39886 1.21256
 H207 H 0.06216 0.35030 1.26596
 N208 N -0.06928 0.69827 1.00262
 N209 N -0.07797 0.74026 1.02631
 C210 C -0.11944 0.73374 1.04751
 C211 C -0.13788 0.68784 1.03797
 C212 C -0.10466 0.66642 1.01088
 H213 H -0.16762 0.67024 1.05347
 H214 H -0.03699 0.69119 0.98694
 H215 H -0.05488 0.77032 1.02786
 N216 N -0.04919 0.26521 0.87201
 N217 N -0.07257 0.23220 0.84679
 C218 C -0.12127 0.23889 0.84820
 C219 C -0.12928 0.27813 0.87560
 C220 C -0.08244 0.29394 0.88995
 H221 H -0.16412 0.29344 0.88325
 H222 H -0.01098 0.26847 0.87568
 H223 H -0.05514 0.20553 0.82907
 N224 N 0.14337 0.55341 0.83594
 N225 N 0.16185 0.59154 0.81318
 C226 C 0.16493 0.63009 0.84082
 C227 C 0.14935 0.61704 0.88167
 C228 C 0.13472 0.56923 0.87706
 H229 H 0.14413 0.64087 0.90950
 H230 H 0.13530 0.51985 0.82148
 H231 H 0.17089 0.58928 0.78030
 N232 N 1.22353 0.12993 0.43180
 N233 N 1.24601 0.15710 0.40074
 C234 C 1.21127 0.18397 0.38018
 C235 C 1.16651 0.17504 0.39843
 C236 C 1.17528 0.14028 0.42979
 H237 H 1.13118 0.18893 0.38755
 H238 H 1.24141 0.10350 0.45001
 H239 H 1.28333 0.15542 0.39521
 N240 N 1.13516 -0.19459 0.59871
 N241 N 1.15285 -0.21726 0.63372
 C242 C 1.14972 -0.18854 0.66970
 C243 C 1.12912 -0.14569 0.65690
 C244 C 1.12009 -0.15090 0.61157
 H245 H 1.12033 -0.11573 0.67805
 H246 H 1.13400 -0.20917 0.56670
 H247 H 1.16716 -0.25168 0.63258
 N248 N 1.00946 -0.08551 0.27193
 N249 N 0.98645 -0.10500 0.23329
 C250 C 0.93786 -0.10880 0.23917
 C251 C 0.92929 -0.09153 0.28148
 C252 C 0.97486 -0.07790 0.30106
 H253 H 0.89477 -0.09131 0.29715
 H254 H 1.04705 -0.07816 0.27619
 H255 H 1.00498 -0.11334 0.20511
 N256 N 0.80350 0.03976 0.59206
 N257 N 0.77709 0.05709 0.62684
 C258 C 0.80671 0.08737 0.65200
 C259 C 0.85197 0.09030 0.63291
 C260 C 0.84858 0.05986 0.59609
 H261 H 0.88467 0.10971 0.64511
 H262 H 0.79002 0.01497 0.56793
 H263 H 0.74111 0.04644 0.63162
 N264 N 0.39484 1.23417 0.12838
 N265 N 0.36743 1.25997 0.15414
 C266 C 0.34853 1.23129 0.18391
 C267 C 0.36489 1.18524 0.17687
 C268 C 0.39379 1.18825 0.14091
 H269 H 0.35426 1.15363 0.19383
 H270 H 0.41184 1.24793 0.10150
 H271 H 0.36085 1.29636 0.15037
 N272 N 0.55920 1.09108 -0.16795
 N273 N 0.59281 1.10564 -0.19424
 C274 C 0.63520 1.11402 -0.17013
 C275 C 0.62819 1.10449 -0.12637
 C276 C 0.57945 1.08941 -0.12635
 H277 H 0.65552 1.10602 -0.09903
 H278 H 0.52310 1.08258 -0.17890
 H279 H 0.58652 1.10968 -0.22819
 N280 N 0.24007 0.95228 -0.07013
 N281 N 0.21172 0.92473 -0.09712
 C282 C 0.23219 0.88138 -0.10028
 C283 C 0.27549 0.88115 -0.07403
 C284 C 0.27971 0.92722 -0.05589
 H285 H 0.30223 0.85291 -0.07197
 H286 H 0.23258 0.98800 -0.06287
 H287 H 0.17965 0.93605 -0.11409
 N288 N 0.61493 0.88736 0.18189
 N289 N 0.65676 0.86646 0.19349
 C290 C 0.67986 0.85483 0.15683
 C291 C 0.65121 0.86860 0.12023
 C292 C 0.61062 0.88991 0.13753
 H293 H 0.66124 0.86807 0.08630
 H294 H 0.59084 0.90103 0.20435
 H295 H 0.66999 0.86207 0.22610
   
