data_POSCAR
  _audit_creation_date              2014-09-24
  _audit_creation_method            'ToBaCCo'
  _symmetry_space_group_name_H-M    'P1'
  _symmetry_Int_Tables_number       1
  _symmetry_cell_setting            triclinic
  loop_
  _symmetry_equiv_pos_as_xyz
 x,y,z
_cell_length_a 30.3866
_cell_length_b 30.3866
_cell_length_c 25.9077
_cell_angle_alpha 90.000000
_cell_angle_beta 90.000000
_cell_angle_gamma 90.000000
loop_
  _atom_site_label
  _atom_site_type_symbol
  _atom_site_fract_x
  _atom_site_fract_y
  _atom_site_fract_z
C1 C 0.34569 -0.00000 0.25000
 C2 C 0.15431 -0.00000 0.75000
 C3 C 0.65431 0.50000 0.25000
 C4 C 0.84569 0.50000 0.75000
 C5 C 0.25000 0.40431 1.00000
 C6 C 0.75000 0.09569 1.00000
 C7 C 0.25000 0.59569 0.50000
 C8 C 0.75000 0.90431 0.50000
 C9 C 0.00000 0.25000 0.37500
 C10 C 0.00000 0.75000 0.12500
 C11 C 0.50000 0.25000 0.62500
 C12 C 0.50000 0.75000 0.87500
 C13 C -0.25000 0.59569 1.00000
 C14 C -0.25000 0.40431 0.50000
 C15 C 0.25000 -0.09569 0.00000
 C16 C 0.25000 1.09569 0.50000
 C17 C 0.15431 0.50000 0.25000
 C18 C -0.15431 1.00000 0.25000
 C19 C 0.34569 0.50000 -0.25000
 C20 C 0.65431 -0.00000 -0.25000
 C21 C 0.00000 0.25000 0.87500
 C22 C 0.50000 0.25000 0.12500
 C23 C 0.00000 0.75000 0.62500
 C24 C 0.50000 0.75000 0.37500
 B25 B -0.02773 0.02223 1.04404
 B26 B -0.04907 0.01113 0.98616
 B27 B -0.01100 0.05060 0.99231
 B28 B 0.02592 0.03471 1.03753
 B29 B 0.00975 -0.01617 1.05862
 B30 B -0.03737 -0.03029 1.02672
 B31 B 0.02773 -0.02223 0.95596
 B32 B 0.04907 -0.01114 1.01384
 B33 B 0.01100 -0.05061 1.00769
 B34 B -0.02592 -0.03472 0.96247
 B35 B -0.00975 0.01617 0.94138
 B36 B 0.03738 0.03029 0.97328
 B37 B 0.47227 0.52223 0.54404
 B38 B 0.45093 0.51113 0.48616
 B39 B 0.48900 0.55060 0.49231
 B40 B 0.52592 0.53471 0.53753
 B41 B 0.50975 0.48383 0.55862
 B42 B 0.46263 0.46971 0.52672
 B43 B 0.52773 0.47777 0.45596
 B44 B 0.54907 0.48886 0.51384
 B45 B 0.51100 0.44939 0.50769
 B46 B 0.47408 0.46528 0.46247
 B47 B 0.49025 0.51617 0.44138
 B48 B 0.53738 0.53029 0.47328
 B49 B 0.52773 0.97777 0.54404
 B50 B 0.54907 0.98886 0.48616
 B51 B 0.51100 0.94939 0.49231
 B52 B 0.47408 0.96528 0.53753
 B53 B 0.49025 1.01617 0.55862
 B54 B 0.53738 1.03029 0.52672
 B55 B 0.47227 1.02223 0.45596
 B56 B 0.45093 1.01113 0.51384
 B57 B 0.48900 1.05060 0.50769
 B58 B 0.52592 1.03471 0.46247
 B59 B 0.50975 0.98383 0.44138
 B60 B 0.46263 0.96971 0.47328
 B61 B 0.02773 0.47777 1.04404
 B62 B 0.04907 0.48886 0.98616
 B63 B 0.01100 0.44939 0.99231
 B64 B -0.02592 0.46528 1.03753
 B65 B -0.00975 0.51617 1.05862
 B66 B 0.03738 0.53029 1.02672
 B67 B -0.02773 0.52223 0.95596
 B68 B -0.04907 0.51113 1.01384
 B69 B -0.01100 0.55060 1.00769
 B70 B 0.02592 0.53471 0.96247
 B71 B 0.00975 0.48383 0.94138
 B72 B -0.03737 0.46971 0.97328
 B73 B 0.02773 0.52223 0.45596
 B74 B 0.04907 0.51113 0.51384
 B75 B 0.01100 0.55060 0.50769
 B76 B -0.02592 0.53471 0.46247
 B77 B -0.00975 0.48383 0.44138
 B78 B 0.03738 0.46971 0.47328
 B79 B -0.02773 0.47777 0.54404
 B80 B -0.04907 0.48886 0.48616
 B81 B -0.01100 0.44939 0.49231
 B82 B 0.02592 0.46528 0.53753
 B83 B 0.00975 0.51617 0.55862
 B84 B -0.03737 0.53029 0.52672
 B85 B 0.52773 0.02223 -0.04404
 B86 B 0.54907 0.01113 0.01384
 B87 B 0.51100 0.05060 0.00769
 B88 B 0.47408 0.03471 -0.03753
 B89 B 0.49025 -0.01617 -0.05862
 B90 B 0.53738 -0.03029 -0.02672
 B91 B 0.47227 -0.02223 0.04404
 B92 B 0.45093 -0.01114 -0.01384
 B93 B 0.48900 -0.05061 -0.00769
 B94 B 0.52592 -0.03472 0.03753
 B95 B 0.50975 0.01617 0.05862
 B96 B 0.46263 0.03029 0.02672
 B97 B 0.47227 0.47777 -0.04404
 B98 B 0.45093 0.48886 0.01384
 B99 B 0.48900 0.44939 0.00769
 B100 B 0.52592 0.46528 -0.03753
 B101 B 0.50975 0.51617 -0.05862
 B102 B 0.46263 0.53029 -0.02672
 B103 B 0.52773 0.52223 0.04404
 B104 B 0.54907 0.51113 -0.01384
 B105 B 0.51100 0.55060 -0.00769
 B106 B 0.47408 0.53471 0.03753
 B107 B 0.49025 0.48383 0.05862
 B108 B 0.53738 0.46971 0.02672
 B109 B -0.02773 0.97777 0.45596
 B110 B -0.04907 0.98886 0.51384
 B111 B -0.01100 0.94939 0.50769
 B112 B 0.02592 0.96528 0.46247
 B113 B 0.00975 1.01617 0.44138
 B114 B -0.03737 1.03029 0.47328
 B115 B 0.02773 1.02223 0.54404
 B116 B 0.04907 1.01113 0.48616
 B117 B 0.01100 1.05060 0.49231
 B118 B -0.02592 1.03471 0.53753
 B119 B -0.00975 0.98383 0.55862
 B120 B 0.03738 0.96971 0.52672
 B121 B 0.77223 0.22227 0.20596
 B122 B 0.76114 0.20093 0.26384
 B123 B 0.80061 0.23900 0.25769
 B124 B 0.78472 0.27592 0.21247
 B125 B 0.73383 0.25975 0.19138
 B126 B 0.71971 0.21262 0.22328
 B127 B 0.72777 0.27773 0.29404
 B128 B 0.73886 0.29907 0.23616
 B129 B 0.69940 0.26100 0.24231
 B130 B 0.71529 0.22408 0.28753
 B131 B 0.76617 0.24025 0.30862
 B132 B 0.78029 0.28737 0.27672
 B133 B 0.72777 0.77773 0.70596
 B134 B 0.73886 0.79907 0.76384
 B135 B 0.69940 0.76100 0.75769
 B136 B 0.71529 0.72408 0.71247
 B137 B 0.76617 0.74025 0.69138
 B138 B 0.78029 0.78737 0.72328
 B139 B 0.77223 0.72227 0.79404
 B140 B 0.76114 0.70093 0.73616
 B141 B 0.80061 0.73900 0.74231
 B142 B 0.78472 0.77592 0.78753
 B143 B 0.73383 0.75975 0.80862
 B144 B 0.71971 0.71262 0.77672
 B145 B 0.27223 0.27773 0.79404
 B146 B 0.26114 0.29907 0.73616
 B147 B 0.30061 0.26100 0.74231
 B148 B 0.28472 0.22408 0.78753
 B149 B 0.23383 0.24025 0.80862
 B150 B 0.21971 0.28737 0.77672
 B151 B 0.22777 0.22227 0.70596
 B152 B 0.23886 0.20093 0.76384
 B153 B 0.19940 0.23900 0.75769
 B154 B 0.21529 0.27592 0.71247
 B155 B 0.26617 0.25975 0.69138
 B156 B 0.28029 0.21262 0.72328
 B157 B 0.22777 0.72227 0.29404
 B158 B 0.23886 0.70093 0.23616
 B159 B 0.19940 0.73900 0.24231
 B160 B 0.21529 0.77592 0.28753
 B161 B 0.26617 0.75975 0.30862
 B162 B 0.28029 0.71262 0.27672
 B163 B 0.27223 0.77773 0.20596
 B164 B 0.26114 0.79907 0.26384
 B165 B 0.30061 0.76100 0.25769
 B166 B 0.28472 0.72408 0.21247
 B167 B 0.23383 0.74025 0.19138
 B168 B 0.21971 0.78737 0.22328
 B169 B 0.27223 0.72227 0.70596
 B170 B 0.26114 0.70093 0.76384
 B171 B 0.30061 0.73900 0.75769
 B172 B 0.28472 0.77592 0.71247
 B173 B 0.23383 0.75975 0.69138
 B174 B 0.21971 0.71262 0.72328
 B175 B 0.22777 0.77773 0.79404
 B176 B 0.23886 0.79907 0.73616
 B177 B 0.19940 0.76100 0.74231
 B178 B 0.21529 0.72408 0.78753
 B179 B 0.26617 0.74025 0.80862
 B180 B 0.28029 0.78737 0.77672
 B181 B 0.22777 0.27773 0.20596
 B182 B 0.23886 0.29907 0.26384
 B183 B 0.19940 0.26100 0.25769
 B184 B 0.21529 0.22408 0.21247
 B185 B 0.26617 0.24025 0.19138
 B186 B 0.28029 0.28737 0.22328
 B187 B 0.27223 0.22227 0.29404
 B188 B 0.26114 0.20093 0.23616
 B189 B 0.30061 0.23900 0.24231
 B190 B 0.28472 0.27592 0.28753
 B191 B 0.23383 0.25975 0.30862
 B192 B 0.21971 0.21262 0.27672
 B193 B 0.77223 0.77773 0.29404
 B194 B 0.76114 0.79907 0.23616
 B195 B 0.80061 0.76100 0.24231
 B196 B 0.78472 0.72408 0.28753
 B197 B 0.73383 0.74025 0.30862
 B198 B 0.71971 0.78737 0.27672
 B199 B 0.72777 0.72227 0.20596
 B200 B 0.73886 0.70093 0.26384
 B201 B 0.69940 0.73900 0.25769
 B202 B 0.71529 0.77592 0.21247
 B203 B 0.76617 0.75975 0.19138
 B204 B 0.78029 0.71262 0.22328
 B205 B 0.72777 0.22227 0.79404
 B206 B 0.73886 0.20093 0.73616
 B207 B 0.69940 0.23900 0.74231
 B208 B 0.71529 0.27592 0.78753
 B209 B 0.76617 0.25975 0.80862
 B210 B 0.78029 0.21262 0.77672
 B211 B 0.77223 0.27773 0.70596
 B212 B 0.76114 0.29907 0.76384
 B213 B 0.80061 0.26100 0.75769
 B214 B 0.78472 0.22408 0.71247
 B215 B 0.73383 0.24025 0.69138
 B216 B 0.71971 0.28737 0.72328
 C217 C 0.37318 1.01411 0.29318
 C218 C 0.39513 1.02576 0.32932
 C219 C 0.42101 1.03551 0.37274
 C220 C 0.44380 1.03657 0.41056
 C221 C -0.12682 0.51411 0.79318
 C222 C -0.10487 0.52576 0.82932
 C223 C -0.07899 0.53551 0.87274
 C224 C -0.05620 0.53657 0.91056
 C225 C 0.12682 -0.01411 0.79318
 C226 C 0.10488 -0.02576 0.82932
 C227 C 0.07900 -0.03551 0.87274
 C228 C 0.05620 -0.03657 0.91056
 C229 C 0.62682 0.48589 0.29318
 C230 C 0.60488 0.47424 0.32932
 C231 C 0.57900 0.46449 0.37274
 C232 C 0.55620 0.46343 0.41056
 C233 C 0.62682 0.51411 0.20682
 C234 C 0.60488 0.52576 0.17068
 C235 C 0.57900 0.53551 0.12726
 C236 C 0.55620 0.53657 0.08944
 C237 C 0.12682 1.01411 0.70682
 C238 C 0.10488 1.02576 0.67068
 C239 C 0.07900 1.03551 0.62726
 C240 C 0.05620 1.03657 0.58944
 C241 C -0.12682 0.48589 0.70682
 C242 C -0.10487 0.47424 0.67068
 C243 C -0.07899 0.46449 0.62726
 C244 C -0.05620 0.46343 0.58944
 C245 C 0.37318 -0.01411 0.20682
 C246 C 0.39513 -0.02576 0.17068
 C247 C 0.42101 -0.03551 0.12726
 C248 C 0.44380 -0.03657 0.08944
 C249 C 0.28773 0.43100 0.01493
 C250 C 0.32225 0.44901 0.02283
 C251 C 0.36513 0.46577 0.02630
 C252 C 0.40286 0.47727 0.02418
 C253 C -0.21227 0.93100 0.51493
 C254 C -0.17775 0.94901 0.52283
 C255 C -0.13487 0.96577 0.52630
 C256 C -0.09714 0.97727 0.52418
 C257 C -0.21227 0.06900 0.98507
 C258 C -0.17775 0.05099 0.97717
 C259 C -0.13487 0.03423 0.97370
 C260 C -0.09714 0.02273 0.97582
 C261 C 0.28773 0.56900 0.48507
 C262 C 0.32225 0.55099 0.47717
 C263 C 0.36513 0.53423 0.47370
 C264 C 0.40286 0.52273 0.47582
 C265 C 0.21227 0.56900 0.51493
 C266 C 0.17775 0.55099 0.52283
 C267 C 0.13487 0.53423 0.52630
 C268 C 0.09715 0.52273 0.52418
 C269 C 0.71227 0.06900 0.01493
 C270 C 0.67775 0.05099 0.02283
 C271 C 0.63487 0.03423 0.02630
 C272 C 0.59715 0.02273 0.02418
 C273 C 0.71227 0.93100 0.48507
 C274 C 0.67775 0.94901 0.47717
 C275 C 0.63487 0.96577 0.47370
 C276 C 0.59715 0.97727 0.47582
 C277 C 0.21227 0.43100 0.98507
 C278 C 0.17775 0.44901 0.97717
 C279 C 0.13487 0.46577 0.97370
 C280 C 0.09715 0.47727 0.97582
 C281 C -0.00773 0.28924 0.40783
 C282 C -0.01317 0.32257 0.43302
 C283 C -0.01743 0.36344 0.45966
 C284 C -0.01786 0.40010 0.47831
 C285 C 0.49227 -0.21076 -0.09217
 C286 C 0.48683 -0.17743 -0.06698
 C287 C 0.48257 -0.13656 -0.04034
 C288 C 0.48214 -0.09990 -0.02169
 C289 C 0.00773 -0.21076 1.09217
 C290 C 0.01317 -0.17743 1.06698
 C291 C 0.01743 -0.13656 1.04034
 C292 C 0.01786 -0.09990 1.02169
 C293 C 0.50773 0.28924 0.59217
 C294 C 0.51317 0.32257 0.56698
 C295 C 0.51743 0.36344 0.54034
 C296 C 0.51786 0.40010 0.52169
 C297 C 0.49227 1.21075 0.59217
 C298 C 0.48683 1.17743 0.56698
 C299 C 0.48257 1.13656 0.54034
 C300 C 0.48214 1.09989 0.52169
 C301 C -0.00773 0.71075 1.09217
 C302 C -0.01317 0.67743 1.06698
 C303 C -0.01743 0.63656 1.04034
 C304 C -0.01786 0.59989 1.02169
 C305 C 0.50773 0.71075 -0.09217
 C306 C 0.51317 0.67743 -0.06698
 C307 C 0.51743 0.63656 -0.04034
 C308 C 0.51786 0.59989 -0.02169
 C309 C 0.00773 1.21075 0.40783
 C310 C 0.01317 1.17743 0.43302
 C311 C 0.01743 1.13656 0.45966
 C312 C 0.01786 1.09989 0.47831
 C313 C 0.76411 0.62318 0.95682
 C314 C 0.77576 0.64512 0.92068
 C315 C 0.78551 0.67100 0.87726
 C316 C 0.78657 0.69380 0.83944
 C317 C 0.26411 0.12318 0.45682
 C318 C 0.27576 0.14512 0.42068
 C319 C 0.28551 0.17100 0.37726
 C320 C 0.28657 0.19380 0.33944
 C321 C 0.73589 0.37682 0.45682
 C322 C 0.72424 0.35487 0.42068
 C323 C 0.71449 0.32899 0.37726
 C324 C 0.71343 0.30620 0.33944
 C325 C 0.23589 0.87682 0.95682
 C326 C 0.22424 0.85487 0.92068
 C327 C 0.21449 0.82899 0.87726
 C328 C 0.21343 0.80620 0.83944
 C329 C 0.26411 0.87682 0.04318
 C330 C 0.27576 0.85487 0.07932
 C331 C 0.28551 0.82899 0.12274
 C332 C 0.28657 0.80620 0.16056
 C333 C 0.76411 0.37682 0.54318
 C334 C 0.77576 0.35487 0.57932
 C335 C 0.78551 0.32899 0.62274
 C336 C 0.78657 0.30620 0.66056
 C337 C 0.23589 0.12318 0.54318
 C338 C 0.22424 0.14512 0.57932
 C339 C 0.21449 0.17100 0.62274
 C340 C 0.21343 0.19380 0.66056
 C341 C 0.73589 0.62318 0.04318
 C342 C 0.72424 0.64512 0.07932
 C343 C 0.71449 0.67100 0.12274
 C344 C 0.71343 0.69380 0.16056
 C345 C 0.18100 0.53773 0.23507
 C346 C 0.19901 0.57225 0.22717
 C347 C 0.21577 0.61513 0.22370
 C348 C 0.22727 0.65285 0.22582
 C349 C 0.68100 0.03773 0.73507
 C350 C 0.69901 0.07225 0.72717
 C351 C 0.71577 0.11513 0.72370
 C352 C 0.72727 0.15285 0.72582
 C353 C 0.81900 0.03773 0.26493
 C354 C 0.80099 0.07225 0.27283
 C355 C 0.78423 0.11513 0.27630
 C356 C 0.77273 0.15285 0.27418
 C357 C 0.31900 0.53773 0.76493
 C358 C 0.30099 0.57225 0.77283
 C359 C 0.28423 0.61513 0.77630
 C360 C 0.27273 0.65285 0.77418
 C361 C 0.31900 0.46227 0.73507
 C362 C 0.30099 0.42775 0.72717
 C363 C 0.28423 0.38487 0.72370
 C364 C 0.27273 0.34714 0.72582
 C365 C 0.81900 0.96227 0.23507
 C366 C 0.80099 0.92775 0.22717
 C367 C 0.78423 0.88487 0.22370
 C368 C 0.77273 0.84714 0.22582
 C369 C 0.68100 0.96227 0.76493
 C370 C 0.69901 0.92775 0.77283
 C371 C 0.71577 0.88487 0.77630
 C372 C 0.72727 0.84714 0.77418
 C373 C 0.18100 0.46227 0.26493
 C374 C 0.19901 0.42775 0.27283
 C375 C 0.21577 0.38487 0.27630
 C376 C 0.22727 0.34714 0.27418
 C377 C 0.03925 0.24227 0.84217
 C378 C 0.07257 0.23683 0.81698
 C379 C 0.11344 0.23257 0.79034
 C380 C 0.15011 0.23214 0.77169
 C381 C 0.53925 0.74227 0.34217
 C382 C 0.57257 0.73683 0.31698
 C383 C 0.61344 0.73257 0.29034
 C384 C 0.65011 0.73214 0.27169
 C385 C 0.53925 0.25773 0.15783
 C386 C 0.57257 0.26317 0.18302
 C387 C 0.61344 0.26743 0.20966
 C388 C 0.65011 0.26786 0.22831
 C389 C 0.03925 0.75773 0.65783
 C390 C 0.07257 0.76317 0.68302
 C391 C 0.11344 0.76743 0.70966
 C392 C 0.15011 0.76786 0.72831
 C393 C 0.96075 0.74226 0.65783
 C394 C 0.92743 0.73683 0.68302
 C395 C 0.88656 0.73257 0.70966
 C396 C 0.84990 0.73214 0.72831
 C397 C 0.46075 0.24226 0.15783
 C398 C 0.42743 0.23683 0.18302
 C399 C 0.38656 0.23257 0.20966
 C400 C 0.34990 0.23214 0.22831
 C401 C 0.46075 0.75773 0.34217
 C402 C 0.42743 0.76317 0.31698
 C403 C 0.38656 0.76743 0.29034
 C404 C 0.34990 0.76786 0.27169
 C405 C 0.96075 0.25773 0.84217
 C406 C 0.92743 0.26317 0.81698
 C407 C 0.88656 0.26743 0.79034
 C408 C 0.84990 0.26786 0.77169
 C409 C 0.62682 0.98589 0.70682
 C410 C 0.60488 0.97424 0.67068
 C411 C 0.57900 0.96449 0.62726
 C412 C 0.55620 0.96343 0.58944
 C413 C 0.12682 0.48589 1.20682
 C414 C 0.10488 0.47424 1.17068
 C415 C 0.07900 0.46449 1.12726
 C416 C 0.05620 0.46343 1.08944
 C417 C -0.12682 0.01411 1.20682
 C418 C -0.10487 0.02576 1.17068
 C419 C -0.07899 0.03551 1.12726
 C420 C -0.05620 0.03657 1.08944
 C421 C 0.37318 0.51411 0.70682
 C422 C 0.39513 0.52576 0.67068
 C423 C 0.42101 0.53551 0.62726
 C424 C 0.44380 0.53657 0.58944
 C425 C 0.37318 0.48589 -0.20682
 C426 C 0.39513 0.47424 -0.17068
 C427 C 0.42101 0.46449 -0.12726
 C428 C 0.44380 0.46343 -0.08944
 C429 C -0.12682 0.98589 0.29318
 C430 C -0.10487 0.97424 0.32932
 C431 C -0.07899 0.96449 0.37274
 C432 C -0.05620 0.96343 0.41056
 C433 C 0.12682 0.51411 0.29318
 C434 C 0.10488 0.52576 0.32932
 C435 C 0.07900 0.53551 0.37274
 C436 C 0.05620 0.53657 0.41056
 C437 C 0.62682 0.01411 -0.20682
 C438 C 0.60488 0.02576 -0.17068
 C439 C 0.57900 0.03551 -0.12726
 C440 C 0.55620 0.03657 -0.08944
 C441 C 0.71227 0.56900 -0.01493
 C442 C 0.67775 0.55099 -0.02283
 C443 C 0.63487 0.53423 -0.02630
 C444 C 0.59715 0.52273 -0.02418
 C445 C 0.21227 1.06900 0.48507
 C446 C 0.17775 1.05099 0.47717
 C447 C 0.13487 1.03423 0.47370
 C448 C 0.09715 1.02273 0.47582
 C449 C 0.21227 -0.06900 1.01493
 C450 C 0.17775 -0.05099 1.02283
 C451 C 0.13487 -0.03423 1.02630
 C452 C 0.09715 -0.02273 1.02418
 C453 C 0.71227 0.43100 0.51493
 C454 C 0.67775 0.44901 0.52283
 C455 C 0.63487 0.46577 0.52630
 C456 C 0.59715 0.47727 0.52418
 C457 C -0.21227 0.43100 0.48507
 C458 C -0.17775 0.44901 0.47717
 C459 C -0.13487 0.46577 0.47370
 C460 C -0.09714 0.47727 0.47582
 C461 C 0.28773 -0.06900 -0.01493
 C462 C 0.32225 -0.05099 -0.02283
 C463 C 0.36513 -0.03423 -0.02630
 C464 C 0.40286 -0.02274 -0.02418
 C465 C 0.28773 1.06900 0.51493
 C466 C 0.32225 1.05099 0.52283
 C467 C 0.36513 1.03423 0.52630
 C468 C 0.40286 1.02273 0.52418
 C469 C -0.21227 0.56900 1.01493
 C470 C -0.17775 0.55099 1.02283
 C471 C -0.13487 0.53423 1.02630
 C472 C -0.09714 0.52273 1.02418
 C473 C 0.00773 0.71075 0.59217
 C474 C 0.01317 0.67743 0.56698
 C475 C 0.01743 0.63656 0.54034
 C476 C 0.01786 0.59989 0.52169
 C477 C 0.50773 0.21075 0.09217
 C478 C 0.51317 0.17743 0.06698
 C479 C 0.51743 0.13656 0.04034
 C480 C 0.51786 0.09989 0.02169
 C481 C -0.00773 0.21075 0.90783
 C482 C -0.01317 0.17743 0.93302
 C483 C -0.01743 0.13656 0.95966
 C484 C -0.01786 0.09989 0.97831
 C485 C 0.49227 0.71075 0.40783
 C486 C 0.48683 0.67743 0.43302
 C487 C 0.48257 0.63656 0.45966
 C488 C 0.48214 0.59989 0.47831
 C489 C 0.50773 0.78924 0.40783
 C490 C 0.51317 0.82257 0.43302
 C491 C 0.51743 0.86344 0.45966
 C492 C 0.51786 0.90010 0.47831
 C493 C 0.00773 0.28924 0.90783
 C494 C 0.01317 0.32257 0.93302
 C495 C 0.01743 0.36344 0.95966
 C496 C 0.01786 0.40010 0.97831
 C497 C 0.49227 0.28924 0.09217
 C498 C 0.48683 0.32257 0.06698
 C499 C 0.48257 0.36344 0.04034
 C500 C 0.48214 0.40010 0.02169
 C501 C -0.00773 0.78924 0.59217
 C502 C -0.01317 0.82257 0.56698
 C503 C -0.01743 0.86344 0.54034
 C504 C -0.01786 0.90010 0.52169
 C505 C 0.23589 0.37682 0.04318
 C506 C 0.22424 0.35487 0.07932
 C507 C 0.21449 0.32899 0.12274
 C508 C 0.21343 0.30620 0.16056
 C509 C 0.73589 0.87682 0.54318
 C510 C 0.72424 0.85487 0.57932
 C511 C 0.71449 0.82899 0.62274
 C512 C 0.71343 0.80620 0.66056
 C513 C 0.26411 0.62318 0.54318
 C514 C 0.27576 0.64512 0.57932
 C515 C 0.28551 0.67100 0.62274
 C516 C 0.28657 0.69380 0.66056
 C517 C 0.76411 0.12318 0.04318
 C518 C 0.77576 0.14512 0.07932
 C519 C 0.78551 0.17100 0.12274
 C520 C 0.78657 0.19380 0.16056
 C521 C 0.73589 0.12318 0.95682
 C522 C 0.72424 0.14512 0.92068
 C523 C 0.71449 0.17100 0.87726
 C524 C 0.71343 0.19380 0.83944
 C525 C 0.23589 0.62318 0.45682
 C526 C 0.22424 0.64512 0.42068
 C527 C 0.21449 0.67100 0.37726
 C528 C 0.21343 0.69380 0.33944
 C529 C 0.76411 0.87682 0.45682
 C530 C 0.77576 0.85487 0.42068
 C531 C 0.78551 0.82899 0.37726
 C532 C 0.78657 0.80620 0.33944
 C533 C 0.26411 0.37682 0.95682
 C534 C 0.27576 0.35487 0.92068
 C535 C 0.28551 0.32899 0.87726
 C536 C 0.28657 0.30620 0.83944
 C537 C 0.81900 0.46227 0.76493
 C538 C 0.80099 0.42775 0.77283
 C539 C 0.78423 0.38487 0.77630
 C540 C 0.77273 0.34714 0.77418
 C541 C 0.31900 0.96227 0.26493
 C542 C 0.30099 0.92775 0.27283
 C543 C 0.28423 0.88487 0.27630
 C544 C 0.27273 0.84714 0.27418
 C545 C 0.18100 0.96227 0.73507
 C546 C 0.19901 0.92775 0.72717
 C547 C 0.21577 0.88487 0.72370
 C548 C 0.22727 0.84714 0.72582
 C549 C 0.68100 0.46227 0.23507
 C550 C 0.69901 0.42775 0.22717
 C551 C 0.71577 0.38487 0.22370
 C552 C 0.72727 0.34714 0.22582
 C553 C 0.68100 0.53773 0.26493
 C554 C 0.69901 0.57225 0.27283
 C555 C 0.71577 0.61513 0.27630
 C556 C 0.72727 0.65285 0.27418
 C557 C 0.18100 0.03773 0.76493
 C558 C 0.19901 0.07225 0.77283
 C559 C 0.21577 0.11513 0.77630
 C560 C 0.22727 0.15285 0.77418
 C561 C 0.31900 0.03773 0.23507
 C562 C 0.30099 0.07225 0.22717
 C563 C 0.28423 0.11513 0.22370
 C564 C 0.27273 0.15285 0.22582
 C565 C 0.81900 0.53773 0.73507
 C566 C 0.80099 0.57225 0.72717
 C567 C 0.78423 0.61513 0.72370
 C568 C 0.77273 0.65285 0.72582
 C569 C 0.96075 0.75773 0.15783
 C570 C 0.92743 0.76317 0.18302
 C571 C 0.88656 0.76743 0.20966
 C572 C 0.84990 0.76786 0.22831
 C573 C 0.46075 0.25773 0.65783
 C574 C 0.42743 0.26317 0.68302
 C575 C 0.38656 0.26743 0.70966
 C576 C 0.34990 0.26786 0.72831
 C577 C 0.46075 0.74226 0.84217
 C578 C 0.42743 0.73683 0.81698
 C579 C 0.38656 0.73257 0.79034
 C580 C 0.34990 0.73214 0.77169
 C581 C 0.96075 0.24226 0.34217
 C582 C 0.92743 0.23683 0.31698
 C583 C 0.88656 0.23257 0.29034
 C584 C 0.84990 0.23214 0.27169
 C585 C 0.03925 0.25773 0.34217
 C586 C 0.07257 0.26317 0.31698
 C587 C 0.11344 0.26743 0.29034
 C588 C 0.15011 0.26786 0.27169
 C589 C 0.53925 0.75773 0.84217
 C590 C 0.57257 0.76317 0.81698
 C591 C 0.61344 0.76743 0.79034
 C592 C 0.65011 0.76786 0.77169
 C593 C 0.53925 0.24227 0.65783
 C594 C 0.57257 0.23683 0.68302
 C595 C 0.61344 0.23257 0.70966
 C596 C 0.65011 0.23214 0.72831
 C597 C 0.03925 0.74227 0.15783
 C598 C 0.07257 0.73683 0.18302
 C599 C 0.11344 0.73257 0.20966
 C600 C 0.15011 0.73214 0.22831
   
