data_POSCAR
  _audit_creation_date              2014-09-24
  _audit_creation_method            'ToBaCCo'
  _symmetry_space_group_name_H-M    'P1'
  _symmetry_Int_Tables_number       1
  _symmetry_cell_setting            triclinic
  loop_
  _symmetry_equiv_pos_as_xyz
 x,y,z
_cell_length_a 29.6791
_cell_length_b 31.3889
_cell_length_c 44.9481
_cell_angle_alpha 90.038800
_cell_angle_beta 90.006200
_cell_angle_gamma 117.996700
loop_
  _atom_site_label
  _atom_site_type_symbol
  _atom_site_fract_x
  _atom_site_fract_y
  _atom_site_fract_z
C1 C 0.02444 0.52120 1.27770
 C2 C -0.02600 0.48145 1.27769
 C3 C -0.04960 0.46174 1.25020
 C4 C -0.02676 0.48262 1.22283
 C5 C 0.02316 0.52240 1.22310
 C6 C 0.04731 0.54167 1.25028
 H7 H 0.08648 0.57018 1.24981
 H8 H -0.08873 0.43317 1.25016
 C9 C 0.50815 0.48230 1.22316
 C10 C 0.49217 0.51811 1.22300
 C11 C 0.48421 0.53582 1.25001
 C12 C 0.48990 0.51740 1.27752
 C13 C 0.50595 0.48122 1.27745
 C14 C 0.51447 0.46409 1.25034
 H15 H 0.52836 0.43770 1.25042
 H16 H 0.47005 0.56198 1.24935
 C17 C 0.48261 0.97478 1.27816
 C18 C 0.51747 1.02535 1.27820
 C19 C 0.53468 1.04912 1.25068
 C20 C 0.51705 1.02508 1.22353
 C21 C 0.48273 0.97532 1.22349
 C22 C 0.46526 0.95115 1.25059
 H23 H 0.44074 0.91244 1.24997
 H24 H 0.55920 1.08783 1.25015
 C25 C 0.97535 0.48059 0.72312
 C26 C 1.02686 0.51651 0.72295
 C27 C 1.05233 0.53424 0.74999
 C28 C 1.02834 0.51580 0.77750
 C29 C 0.97642 0.47947 0.77742
 C30 C 0.95096 0.46226 0.75029
 H31 H 0.91090 0.43578 0.75035
 H32 H 1.09243 0.56052 0.74935
 C33 C 0.50828 0.48258 0.72310
 C34 C 0.49157 0.51800 0.72313
 C35 C 0.48394 0.53563 0.75034
 C36 C 0.49173 0.51802 0.77750
 C37 C 0.50838 0.48255 0.77746
 C38 C 0.51605 0.46495 0.75026
 H39 H 0.53001 0.43863 0.75022
 H40 H 0.46997 0.56195 0.75038
 C41 C 0.50648 0.02386 0.72236
 C42 C 0.48841 -0.02692 0.72233
 C43 C 0.48168 -0.05053 0.74992
 C44 C 0.49058 -0.02558 0.77698
 C45 C 0.50867 0.02477 0.77678
 C46 C 0.51600 0.04872 0.74952
 H47 H 0.53133 0.08762 0.74943
 H48 H 0.46603 -0.08944 0.75061
 O49 O 0.41636 0.66657 0.97556
 O50 O 0.41119 0.74550 0.96651
 C51 C 0.38578 0.76711 0.95991
 O52 O 0.34675 0.76166 0.97460
 O53 O 0.26510 0.68027 0.96550
 C54 C 0.24347 0.63554 0.95982
 O55 O 0.25031 0.60527 0.97541
 O56 O 0.33798 0.60702 0.96659
 C57 C 0.38517 0.63001 0.96069
 O58 O 0.41276 0.68014 1.03500
 O59 O 0.41207 0.76159 1.02583
 C60 C 0.37869 0.76751 1.04049
 O61 O 0.33175 0.74619 1.03390
 O62 O 0.24777 0.66741 1.02502
 C63 C 0.24271 0.63120 1.04023
 O64 O 0.26689 0.60798 1.03451
 O65 O 0.35222 0.60528 1.02568
 C66 C 0.38989 0.63549 1.04084
 Cr67 Cr 0.41037 0.71217 1.00074
 Cr68 Cr 0.29926 0.71257 0.99976
 Cr69 Cr 0.30316 0.60903 1.00054
 O70 O 0.33762 0.67794 1.00036
 O71 O 0.58377 0.33333 0.97517
 O72 O 0.58867 0.25415 0.96652
 C73 C 0.61435 0.23284 0.95974
 O74 O 0.65363 0.23856 0.97427
 O75 O 0.73590 0.31970 0.96587
 C76 C 0.75716 0.36429 0.95981
 O77 O 0.74947 0.39463 0.97481
 O78 O 0.66201 0.39322 0.96656
 C79 C 0.61489 0.37010 0.96050
 O80 O 0.58736 0.32056 1.03468
 O81 O 0.58763 0.23883 1.02594
 C82 C 0.62083 0.23251 1.04047
 O83 O 0.66767 0.25331 1.03374
 O84 O 0.75173 0.33180 1.02552
 C85 C 0.75766 0.36878 1.04017
 O86 O 0.73441 0.39271 1.03402
 O87 O 0.64883 0.39522 1.02582
 C88 C 0.61080 0.36514 1.04077
 Cr89 Cr 0.58968 0.28803 1.00058
 Cr90 Cr 0.70077 0.28720 0.99984
 Cr91 Cr 0.69730 0.39122 1.00031
 O92 O 0.66260 0.32216 1.00025
 O93 O 0.66240 0.39390 0.53390
 O94 O 0.74973 0.39518 0.52526
 C95 C 0.75733 0.36479 0.54025
 O96 O 0.73585 0.32016 0.53422
 O97 O 0.65343 0.23906 0.52559
 C98 C 0.61451 0.23367 0.54039
 O99 O 0.58904 0.25529 0.53388
 O100 O 0.58402 0.33435 0.52512
 C101 C 0.61527 0.37093 0.53991
 O102 O 0.64854 0.39588 0.47470
 O103 O 0.73399 0.39331 0.46610
 C104 C 0.75732 0.36948 0.45992
 O105 O 0.75168 0.33267 0.47463
 O106 O 0.66749 0.25450 0.46612
 C107 C 0.62056 0.23362 0.45960
 O108 O 0.58737 0.23931 0.47457
 O109 O 0.58732 0.32112 0.46568
 C110 C 0.61065 0.36571 0.45965
 Cr111 Cr 0.69731 0.39189 0.49999
 Cr112 Cr 0.70066 0.28791 0.50017
 Cr113 Cr 0.58972 0.28882 0.49980
 O114 O 0.66260 0.32290 0.50000
 O115 O 0.33779 0.60644 0.53363
 O116 O 0.25038 0.60480 0.52445
 C117 C 0.24285 0.63506 0.53967
 O118 O 0.26449 0.67978 0.53390
 O119 O 0.34675 0.76115 0.52518
 C120 C 0.38507 0.76597 0.54040
 O121 O 0.41064 0.74437 0.53406
 O122 O 0.41625 0.66571 0.52475
 C123 C 0.38494 0.62932 0.53965
 O124 O 0.35265 0.60467 0.47454
 O125 O 0.26708 0.60700 0.46538
 C126 C 0.24339 0.63056 0.45935
 O127 O 0.24851 0.66700 0.47433
 O128 O 0.33258 0.74527 0.46574
 C129 C 0.37960 0.76657 0.45949
 O130 O 0.41279 0.76134 0.47477
 O131 O 0.41310 0.67972 0.46533
 C132 C 0.39010 0.63508 0.45933
 Cr133 Cr 0.30329 0.60835 0.49951
 Cr134 Cr 0.29951 0.71203 0.49982
 Cr135 Cr 0.41050 0.71152 0.49971
 O136 O 0.33773 0.67727 0.49969
 C137 C 0.45120 0.56748 0.35578
 C138 C 0.43637 0.51817 0.35281
 C139 C 0.44952 0.50170 0.32693
 C140 C 0.47748 0.53411 0.30396
 C141 C 0.49137 0.58351 0.30737
 C142 C 0.47875 0.60037 0.33326
 C143 C 0.43682 0.58490 0.38277
 C144 C 0.45165 0.63425 0.38570
 C145 C 0.43727 0.65055 0.41118
 C146 C 0.40752 0.61777 0.43341
 C147 C 0.39309 0.56837 0.43016
 C148 C 0.40788 0.55178 0.40491
 C149 C 0.49310 0.64953 0.33706
 C150 C 0.47990 0.66621 0.36289
 C151 C 0.40799 0.48617 0.37560
 C152 C 0.39388 0.50268 0.40119
 H153 H 0.51457 0.67530 0.31987
 H154 H 0.49151 0.70437 0.36489
 H155 H 0.39632 0.44800 0.37355
 H156 H 0.37166 0.47678 0.41814
 H157 H 0.43600 0.46332 0.32422
 H158 H 0.51344 0.60920 0.29026
 H159 H 0.44817 0.68857 0.41334
 H160 H 0.37033 0.54291 0.44718
 C161 C 0.43978 0.88784 0.35552
 C162 C 0.40327 0.88013 0.33346
 C163 C 0.41783 0.90893 0.30788
 C164 C 0.46841 0.94613 0.30432
 C165 C 0.50459 0.95296 0.32680
 C166 C 0.49046 0.92397 0.35237
 C167 C 0.42468 0.85720 0.38234
 C168 C 0.46138 0.86408 0.40417
 C169 C 0.44682 0.83433 0.42949
 C170 C 0.39578 0.79854 0.43314
 C171 C 0.35956 0.79250 0.41102
 C172 C 0.37384 0.82142 0.38553
 C173 C 0.52608 0.93006 0.37477
 C174 C 0.51183 0.90055 0.40018
 C175 C 0.35279 0.84381 0.33744
 C176 C 0.33827 0.81503 0.36308
 H177 H 0.56536 0.95780 0.37259
 H178 H 0.54054 0.90636 0.41684
 H179 H 0.32423 0.83760 0.32059
 H180 H 0.29893 0.78741 0.36530
 H181 H 0.38922 0.90341 0.29118
 H182 H 0.54412 0.97981 0.32401
 H183 H 0.47492 0.83927 0.44639
 H184 H 0.32031 0.76471 0.41339
 C185 C 0.11483 0.56808 0.35572
 C186 C 0.08401 0.51857 0.35072
 C187 C 0.05391 0.50333 0.32498
 C188 C 0.05470 0.53710 0.30389
 C189 C 0.08713 0.58676 0.30905
 C190 C 0.11651 0.60241 0.33514
 C191 C 0.14649 0.58424 0.38285
 C192 C 0.17672 0.63384 0.38817
 C193 C 0.20696 0.64895 0.41396
 C194 C 0.20830 0.61474 0.43369
 C195 C 0.17799 0.56519 0.42794
 C196 C 0.14645 0.54973 0.40275
 C197 C 0.14743 0.65174 0.34116
 C198 C 0.17676 0.66719 0.36730
 C199 C 0.08430 0.48516 0.37141
 C200 C 0.11525 0.50047 0.39688
 H201 H 0.14893 0.67865 0.32554
 H202 H 0.20008 0.70554 0.37104
 H203 H 0.06071 0.44682 0.36776
 H204 H 0.11474 0.47350 0.41211
 H205 H 0.03114 0.46499 0.32090
 H206 H 0.08800 0.61336 0.29336
 H207 H 0.23078 0.68712 0.41816
 H208 H 0.17891 0.53881 0.44315
 C209 C 0.54771 0.43254 0.35647
 C210 C 0.57051 0.48220 0.35038
 C211 C 0.55662 0.49800 0.32451
 C212 C 0.52013 0.46449 0.30497
 C213 C 0.49776 0.41488 0.31130
 C214 C 0.51131 0.39867 0.33712
 C215 C 0.56274 0.41563 0.38340
 C216 C 0.54029 0.36597 0.38932
 C217 C 0.55540 0.34999 0.41463
 C218 C 0.59304 0.38323 0.43386
 C219 C 0.61483 0.43300 0.42770
 C220 C 0.59978 0.44938 0.40248
 C221 C 0.48942 0.34931 0.34391
 C222 C 0.50365 0.33322 0.36960
 C223 C 0.60699 0.51494 0.37016
 C224 C 0.62143 0.49880 0.39577
 H225 H 0.46123 0.32288 0.32918
 H226 H 0.48607 0.29481 0.37396
 H227 H 0.62476 0.55333 0.36571
 H228 H 0.64998 0.52520 0.41035
 H229 H 0.57428 0.53620 0.31938
 H230 H 0.46967 0.38915 0.29619
 H231 H 0.53847 0.31160 0.41902
 H232 H 0.64377 0.45893 0.44231
 C233 C 0.56043 0.11216 0.35565
 C234 C 0.50972 0.07610 0.35246
 C235 C 0.49556 0.04711 0.32686
 C236 C 0.53173 0.05391 0.30440
 C237 C 0.58235 0.09102 0.30801
 C238 C 0.59694 0.11981 0.33362
 C239 C 0.57554 0.14283 0.38248
 C240 C 0.62642 0.17855 0.38572
 C241 C 0.64070 0.20753 0.41121
 C242 C 0.60443 0.20160 0.43326
 C243 C 0.55338 0.16587 0.42957
 C244 C 0.53882 0.13606 0.40426
 C245 C 0.64746 0.15605 0.33765
 C246 C 0.66199 0.18485 0.36331
 C247 C 0.47408 0.07009 0.37481
 C248 C 0.48835 0.09965 0.40023
 H249 H 0.67602 0.16220 0.32083
 H250 H 0.70135 0.21241 0.36557
 H251 H 0.43478 0.04240 0.37260
 H252 H 0.45963 0.09392 0.41686
 H253 H 0.45601 0.02030 0.32403
 H254 H 0.61093 0.09650 0.29131
 H255 H 0.67996 0.23528 0.41364
 H256 H 0.52527 0.16103 0.44643
 C257 C 0.88520 0.43320 0.35616
 C258 C 0.91605 0.48278 0.35148
 C259 C 0.94563 0.49841 0.32559
 C260 C 0.94436 0.46500 0.30405
 C261 C 0.91196 0.41526 0.30892
 C262 C 0.88304 0.39920 0.33515
 C263 C 0.85395 0.41665 0.38341
 C264 C 0.82355 0.36699 0.38837
 C265 C 0.79351 0.35152 0.41422
 C266 C 0.79255 0.38549 0.43435
 C267 C 0.82313 0.43509 0.42898
 C268 C 0.85442 0.45088 0.40373
 C269 C 0.85205 0.34979 0.34085
 C270 C 0.82306 0.33396 0.36708
 C271 C 0.91625 0.51588 0.37260
 C272 C 0.88570 0.50022 0.39820
 H273 H 0.85017 0.32312 0.32489
 H274 H 0.79962 0.29556 0.37055
 H275 H 0.93987 0.55427 0.36920
 H276 H 0.88654 0.52695 0.41376
 H277 H 0.96833 0.53682 0.32176
 H278 H 0.91070 0.38893 0.29287
 H279 H 0.76947 0.31331 0.41812
 H280 H 0.82248 0.46128 0.44449
 C281 C 0.54808 0.43281 1.14377
 C282 C 0.51171 0.39914 1.16318
 C283 C 0.49851 0.41559 1.18906
 C284 C 0.52131 0.46523 1.19543
 C285 C 0.55758 0.49853 1.17574
 C286 C 0.57110 0.48250 1.14981
 C287 C 0.56296 0.41566 1.11686
 C288 C 0.60006 0.44923 1.09777
 C289 C 0.61505 0.43262 1.07261
 C290 C 0.59318 0.38281 1.06651
 C291 C 0.55546 0.34974 1.08575
 C292 C 0.54039 0.36596 1.11101
 C293 C 0.60759 0.51506 1.12999
 C294 C 0.62187 0.49869 1.10441
 C295 C 0.48963 0.34973 1.15643
 C296 C 0.50371 0.33340 1.13076
 H297 H 0.62552 0.55348 1.13441
 H298 H 0.65045 0.52495 1.08981
 H299 H 0.46146 0.32344 1.17121
 H300 H 0.48602 0.29496 1.12646
 H301 H 0.47054 0.39000 1.20426
 H302 H 0.57566 0.53675 1.18087
 H303 H 0.64404 0.45844 1.05799
 H304 H 0.53845 0.31133 1.08141
 C305 C 0.88617 0.43339 1.14373
 C306 C 0.88400 0.39960 1.16487
 C307 C 0.91261 0.41595 1.19122
 C308 C 0.94461 0.46578 1.19614
 C309 C 0.94601 0.49892 1.17439
 C310 C 0.91680 0.48301 1.14837
 C311 C 0.85493 0.41657 1.11646
 C312 C 0.85526 0.45061 1.09607
 C313 C 0.82384 0.43459 1.07087
 C314 C 0.79317 0.38495 1.06564
 C315 C 0.79428 0.35116 1.08582
 C316 C 0.82452 0.36686 1.11161
 C317 C 0.91695 0.51592 1.12714
 C318 C 0.88646 0.50000 1.10152
 C319 C 0.85314 0.35013 1.15924
 C320 C 0.82416 0.33403 1.13300
 H321 H 0.94042 0.55435 1.13052
 H322 H 0.88720 0.52660 1.08590
 H323 H 0.85127 0.32361 1.17529
 H324 H 0.80075 0.29560 1.12961
 H325 H 0.91123 0.38976 1.20739
 H326 H 0.96797 0.53737 1.17829
 H327 H 0.82307 0.46065 1.05532
 H328 H 0.77014 0.31291 1.08204
 C329 C 0.56085 0.11011 1.14403
 C330 C 0.59873 0.11130 1.16329
 C331 C 0.58418 0.08304 1.18914
 C332 C 0.53225 0.05365 1.19564
 C333 C 0.49473 0.05273 1.17607
 C334 C 0.50884 0.08094 1.15019
 C335 C 0.57592 0.14054 1.11713
 C336 C 0.53810 0.14014 1.09815
 C337 C 0.55272 0.16995 1.07289
 C338 C 0.60478 0.19975 1.06653
 C339 C 0.64209 0.19922 1.08578
 C340 C 0.62790 0.16992 1.11113
 C341 C 0.47207 0.08106 1.13054
 C342 C 0.48645 0.11021 1.10498
 C343 C 0.65036 0.14104 1.15643
 C344 C 0.66471 0.16984 1.13077
 H345 H 0.43183 0.05866 1.13505
 H346 H 0.45687 0.10946 1.09052
 H347 H 0.67992 0.14224 1.17108
 H348 H 0.70496 0.19246 1.12636
 H349 H 0.61305 0.08376 1.20422
 H350 H 0.45469 0.03064 1.18130
 H351 H 0.52369 0.17002 1.05829
 H352 H 0.68228 0.22220 1.08134
 C353 C 0.45349 0.56775 1.14333
 C354 C 0.48955 0.60141 1.16292
 C355 C 0.50261 0.58491 1.18881
 C356 C 0.47992 0.53525 1.19501
 C357 C 0.44407 0.50196 1.17511
 C358 C 0.43071 0.51803 1.14917
 C359 C 0.43850 0.58495 1.11651
 C360 C 0.40159 0.55138 1.09728
 C361 C 0.38637 0.56802 1.07226
 C362 C 0.40780 0.61786 1.06643
 C363 C 0.44537 0.65094 1.08577
 C364 C 0.46067 0.63469 1.11090
 C365 C 0.39448 0.48548 1.12921
 C366 C 0.38013 0.50189 1.10369
 C367 C 0.51132 0.65086 1.15638
 C368 C 0.49714 0.66723 1.13079
 H369 H 0.37676 0.44703 1.13347
 H370 H 0.35170 0.47564 1.08899
 H371 H 0.53925 0.67714 1.17129
 H372 H 0.51454 0.70571 1.12667
 H373 H 0.53020 0.61049 1.20421
 H374 H 0.42604 0.46372 1.18015
 H375 H 0.35752 0.54220 1.05755
 H376 H 0.46205 0.68938 1.08161
 C377 C 0.11346 0.56900 1.14369
 C378 C 0.10662 0.60298 1.16083
 C379 C 0.07737 0.58783 1.18699
 C380 C 0.05446 0.53900 1.19558
 C381 C 0.06173 0.50550 1.17811
 C382 C 0.09133 0.52031 1.15220
 C383 C 0.14497 0.58478 1.11651
 C384 C 0.15303 0.55101 1.09996
 C385 C 0.18438 0.56640 1.07474
 C386 C 0.20708 0.61506 1.06575
 C387 C 0.19769 0.64832 1.08219
 C388 C 0.16708 0.63343 1.10786
 C389 C 0.09959 0.48747 1.13478
 C390 C 0.13010 0.50259 1.10917
 C391 C 0.12927 0.65134 1.15144
 C392 C 0.15884 0.66627 1.12537
 H393 H 0.08268 0.44981 1.14114
 H394 H 0.13593 0.47619 1.09652
 H395 H 0.12421 0.67790 1.16439
 H396 H 0.17577 0.70392 1.11902
 H397 H 0.07178 0.61362 1.20046
 H398 H 0.04463 0.46801 1.18492
 H399 H 0.19127 0.54056 1.06213
 H400 H 0.21552 0.68593 1.07559
 C401 C 0.43877 0.89045 1.14389
 C402 C 0.40092 0.88938 1.16312
 C403 C 0.41552 0.91762 1.18900
 C404 C 0.46746 0.94687 1.19555
 C405 C 0.50495 0.94773 1.17599
 C406 C 0.49079 0.91952 1.15009
 C407 C 0.42364 0.85995 1.11699
 C408 C 0.46144 0.86021 1.09806
 C409 C 0.44677 0.83028 1.07283
 C410 C 0.39471 0.80047 1.06647
 C411 C 0.35742 0.80118 1.08565
 C412 C 0.37165 0.83063 1.11097
 C413 C 0.52753 0.91928 1.13047
 C414 C 0.51311 0.89007 1.10492
 C415 C 0.34927 0.85974 1.15622
 C416 C 0.33488 0.83089 1.13055
 H417 H 0.56779 0.94161 1.13501
 H418 H 0.54265 0.89071 1.09049
 H419 H 0.31974 0.85865 1.17085
 H420 H 0.29461 0.80834 1.12611
 H421 H 0.38668 0.91696 1.20408
 H422 H 0.54501 0.96973 1.18126
 H423 H 0.47579 0.83007 1.05828
 H424 H 0.31722 0.77822 1.08120
 C425 C 0.54906 0.43535 0.64294
 C426 C 0.50978 0.40146 0.66082
 C427 C 0.49634 0.41703 0.68708
 C428 C 0.52145 0.46612 0.69508
 C429 C 0.56027 0.49967 0.67674
 C430 C 0.57451 0.48443 0.65073
 C431 C 0.56453 0.41902 0.61583
 C432 C 0.60509 0.45268 0.59861
 C433 C 0.62099 0.43674 0.57353
 C434 C 0.59612 0.38768 0.56534
 C435 C 0.55466 0.35454 0.58243
 C436 C 0.53913 0.36996 0.60798
 C437 C 0.61420 0.51715 0.63259
 C438 C 0.62940 0.50151 0.60704
 C439 C 0.48513 0.35270 0.65219
 C440 C 0.49942 0.33725 0.62616
 H441 H 0.63408 0.55510 0.63837
 H442 H 0.66062 0.52783 0.59387
 H443 H 0.45468 0.32621 0.66573
 H444 H 0.47959 0.29929 0.62041
 H445 H 0.46640 0.39126 0.70125
 H446 H 0.57991 0.53740 0.68311
 H447 H 0.65278 0.46245 0.56040
 H448 H 0.53575 0.31663 0.57643
 C449 C 0.55071 0.11067 0.64363
 C450 C 0.57203 0.07994 0.64942
 C451 C 0.55716 0.05121 0.67510
 C452 C 0.52129 0.05322 0.69479
 C453 C 0.50043 0.08429 0.68870
 C454 C 0.51485 0.11300 0.66308
 C455 C 0.56663 0.14143 0.61689
 C456 C 0.54538 0.17221 0.61124
 C457 C 0.56087 0.20167 0.58599
 C458 C 0.59773 0.20097 0.56646
 C459 C 0.61874 0.16985 0.57248
 C460 C 0.60314 0.13984 0.59766
 C461 C 0.49437 0.14418 0.65660
 C462 C 0.50934 0.17326 0.63108
 C463 C 0.60809 0.07896 0.62955
 C464 C 0.62345 0.10846 0.60414
 H465 H 0.46665 0.14623 0.67141
 H466 H 0.49275 0.19696 0.62693
 H467 H 0.62479 0.05538 0.63375
 H468 H 0.65155 0.10678 0.58949
 H469 H 0.57369 0.02768 0.68000
 H470 H 0.47284 0.08581 0.70390
 H471 H 0.54465 0.22568 0.58182
 H472 H 0.64709 0.16898 0.55765
 C473 C 0.88667 0.43159 0.64353
 C474 C 0.88946 0.39778 0.66289
 C475 C 0.91879 0.41405 0.68887
 C476 C 0.94522 0.46364 0.69537
 C477 C 0.94207 0.49707 0.67576
 C478 C 0.91288 0.48123 0.64974
 C479 C 0.85501 0.41464 0.61651
 C480 C 0.85143 0.44836 0.59747
 C481 C 0.82016 0.43196 0.57223
 C482 C 0.79255 0.38220 0.56599
 C483 C 0.79728 0.34896 0.58516
 C484 C 0.82828 0.36498 0.61051
 C485 C 0.90890 0.51394 0.62997
 C486 C 0.87864 0.49777 0.60427
 C487 C 0.86255 0.34842 0.65599
 C488 C 0.83248 0.33228 0.63021
 H489 H 0.92906 0.55232 0.63450
 H490 H 0.87626 0.52414 0.58971
 H491 H 0.86449 0.32201 0.67071
 H492 H 0.81203 0.29387 0.62580
 H493 H 0.92128 0.38835 0.70400
 H494 H 0.96188 0.53525 0.68100
 H495 H 0.81691 0.45790 0.55767
 H496 H 0.77613 0.31058 0.58071
 C497 C 0.45075 0.56519 0.64296
 C498 C 0.48981 0.59915 0.66097
 C499 C 0.50323 0.58360 0.68724
 C500 C 0.47832 0.53448 0.69514
 C501 C 0.43967 0.50088 0.67668
 C502 C 0.42547 0.51609 0.65065
 C503 C 0.43537 0.58147 0.61580
 C504 C 0.39505 0.54773 0.59843
 C505 C 0.37926 0.56359 0.57328
 C506 C 0.40402 0.61267 0.56516
 C507 C 0.44522 0.64590 0.58241
 C508 C 0.46063 0.63055 0.60803
 C509 C 0.38600 0.48329 0.63237
 C510 C 0.37088 0.49888 0.60678
 C511 C 0.51428 0.64793 0.65244
 C512 C 0.50007 0.66333 0.62637
 H513 H 0.36624 0.44533 0.63807
 H514 H 0.33985 0.47249 0.59350
 H515 H 0.54455 0.67448 0.66608
 H516 H 0.51977 0.70131 0.62070
 H517 H 0.53303 0.60942 0.70149
 H518 H 0.42016 0.46312 0.68296
 H519 H 0.34765 0.53782 0.56003
 H520 H 0.46403 0.68381 0.57647
 C521 C 0.44633 0.88736 0.64440
 C522 C 0.43340 0.92481 0.64708
 C523 C 0.44791 0.95361 0.67276
 C524 C 0.47506 0.94513 0.69589
 C525 C 0.48699 0.90674 0.69273
 C526 C 0.47323 0.87819 0.66701
 C527 C 0.43086 0.85672 0.61755
 C528 C 0.44427 0.81957 0.61483
 C529 C 0.42959 0.79058 0.58933
 C530 C 0.40092 0.79790 0.56679
 C531 C 0.38731 0.83505 0.56996
 C532 C 0.40263 0.86490 0.59525
 C533 C 0.48586 0.84060 0.66347
 C534 C 0.47179 0.81188 0.63777
 C535 C 0.40556 0.93225 0.62419
 C536 C 0.39030 0.90271 0.59877
 H537 H 0.50677 0.83328 0.68074
 H538 H 0.48227 0.78323 0.63591
 H539 H 0.39527 0.96101 0.62601
 H540 H 0.36867 0.90954 0.58173
 H541 H 0.43593 0.98112 0.67525
 H542 H 0.50846 0.89994 0.70991
 H543 H 0.43976 0.76172 0.58728
 H544 H 0.36536 0.84098 0.55270
 C545 C 0.11376 0.56676 0.64289
 C546 C 0.08741 0.51701 0.64869
 C547 C 0.05864 0.50076 0.67481
 C548 C 0.05605 0.53390 0.69494
 C549 C 0.08250 0.58361 0.68880
 C550 C 0.11143 0.60028 0.66273
 C551 C 0.14519 0.58413 0.61583
 C552 C 0.17217 0.63389 0.61026
 C553 C 0.20310 0.65030 0.58491
 C554 C 0.20754 0.61734 0.56533
 C555 C 0.17962 0.56746 0.57112
 C556 C 0.14842 0.55068 0.59635
 C557 C 0.13851 0.64976 0.65622
 C558 C 0.16836 0.66630 0.63041
 C559 C 0.09096 0.48459 0.62846
 C560 C 0.12100 0.50115 0.60272
 H561 H 0.13692 0.67595 0.67132
 H562 H 0.18899 0.70479 0.62633
 H563 H 0.07070 0.44612 0.63268
 H564 H 0.12310 0.47499 0.58782
 H565 H 0.03885 0.46250 0.67977
 H566 H 0.08047 0.60908 0.70435
 H567 H 0.22449 0.68876 0.58080
 H568 H 0.18261 0.54172 0.55624
 C569 C 0.45127 0.56543 0.85771
 C570 C 0.42582 0.51632 0.84997
 C571 C 0.43994 0.50103 0.82393
 C572 C 0.47866 0.53455 0.80553
 C573 C 0.50377 0.58366 0.81348
 C574 C 0.49045 0.59929 0.83975
 C575 C 0.43591 0.58180 0.88484
 C576 C 0.46129 0.63089 0.89263
 C577 C 0.44581 0.64637 0.91818
 C578 C 0.40442 0.61324 0.93532
 C579 C 0.37961 0.56415 0.92720
 C580 C 0.39545 0.54816 0.90212
 C581 C 0.51508 0.64807 0.84834
 C582 C 0.50089 0.66357 0.87438
 C583 C 0.38625 0.48362 0.86819
 C584 C 0.37115 0.49931 0.89375
 H585 H 0.54545 0.67454 0.83474
 H586 H 0.52069 0.70155 0.88008
 H587 H 0.36637 0.44566 0.86245
 H588 H 0.34001 0.47300 0.90698
 H589 H 0.42028 0.46328 0.81761
 H590 H 0.53363 0.60941 0.79926
 H591 H 0.46467 0.68429 0.92413
 H592 H 0.34788 0.53845 0.94038
 C593 C 0.11619 0.56671 0.85593
 C594 C 0.08236 0.51732 0.85301
 C595 C 0.05310 0.50055 0.82706
 C596 C 0.05725 0.53276 0.80397
 C597 C 0.09215 0.58225 0.80731
 C598 C 0.12127 0.59940 0.83328
 C599 C 0.14757 0.58445 0.88301
 C600 C 0.18146 0.63388 0.88588
 C601 C 0.21178 0.65048 0.91145
 C602 C 0.20901 0.61792 0.93383
 C603 C 0.17464 0.56845 0.93063
 C604 C 0.14364 0.55154 0.90530
 C605 C 0.15544 0.64864 0.83701
 C606 C 0.18494 0.66562 0.86292
 C607 C 0.07897 0.48554 0.87594
 C608 C 0.10919 0.50236 0.90163
 H609 H 0.15954 0.67425 0.81973
 H610 H 0.21100 0.70384 0.86489
 H611 H 0.05296 0.44731 0.87394
 H612 H 0.10570 0.47662 0.91869
 H613 H 0.02872 0.46213 0.82440
 H614 H 0.09553 0.60778 0.79011
 H615 H 0.23842 0.68856 0.91355
 H616 H 0.17213 0.54314 0.94777
 C617 C 0.44938 0.88996 0.85661
 C618 C 0.48504 0.88751 0.83706
 C619 C 0.49887 0.91574 0.81122
 C620 C 0.47748 0.94634 0.80501
 C621 C 0.44206 0.94868 0.82491
 C622 C 0.42779 0.92045 0.85078
 C623 C 0.43372 0.85939 0.88344
 C624 C 0.39723 0.86097 0.90269
 C625 C 0.38169 0.83099 0.92787
 C626 C 0.40271 0.79989 0.93388
 C627 C 0.43964 0.79925 0.91437
 C628 C 0.45507 0.82869 0.88910
 C629 C 0.39186 0.92152 0.87072
 C630 C 0.37678 0.89222 0.89621
 C631 C 0.50573 0.85650 0.84359
 C632 C 0.49104 0.82762 0.86921
 H633 H 0.37498 0.94494 0.86647
 H634 H 0.34869 0.89390 0.91089
 H635 H 0.53330 0.85435 0.82870
 H636 H 0.50772 0.80400 0.87336
 H637 H 0.52610 0.91395 0.79585
 H638 H 0.42503 0.97177 0.81990
 H639 H 0.35331 0.83183 0.94270
 H640 H 0.45588 0.77526 0.91855
 C641 C 0.54890 0.43493 0.85757
 C642 C 0.57431 0.48406 0.84995
 C643 C 0.56019 0.49942 0.82394
 C644 C 0.52150 0.46595 0.80545
 C645 C 0.49643 0.41680 0.81330
 C646 C 0.50977 0.40110 0.83954
 C647 C 0.56425 0.41848 0.88467
 C648 C 0.53890 0.36936 0.89236
 C649 C 0.55436 0.35382 0.91788
 C650 C 0.59568 0.38691 0.93513
 C651 C 0.62047 0.43603 0.92710
 C652 C 0.60466 0.45208 0.90204
 C653 C 0.48516 0.35229 0.84801
 C654 C 0.49935 0.33673 0.87402
 C655 C 0.61384 0.51671 0.86824
 C656 C 0.62893 0.50096 0.89377
 H657 H 0.45483 0.32585 0.83436
 H658 H 0.47956 0.29873 0.87964
 H659 H 0.63370 0.55470 0.86259
 H660 H 0.66003 0.52724 0.90706
 H661 H 0.57981 0.53719 0.81771
 H662 H 0.46659 0.39108 0.79903
 H663 H 0.53550 0.31588 0.92375
 H664 H 0.65216 0.46172 0.94034
 C665 C 0.88632 0.43082 0.85650
 C666 C 0.88910 0.39693 0.83718
 C667 C 0.91872 0.41311 0.81134
 C668 C 0.94556 0.46272 0.80495
 C669 C 0.94226 0.49624 0.82445
 C670 C 0.91274 0.48046 0.85035
 C671 C 0.85457 0.41396 0.88347
 C672 C 0.85105 0.44775 0.90252
 C673 C 0.81981 0.43142 0.92777
 C674 C 0.79220 0.38167 0.93401
 C675 C 0.79682 0.34838 0.91481
 C676 C 0.82776 0.36432 0.88946
 C677 C 0.90876 0.51323 0.87010
 C678 C 0.87839 0.49714 0.89575
 C679 C 0.86204 0.34758 0.84404
 C680 C 0.83189 0.33154 0.86976
 H681 H 0.92906 0.55161 0.86561
 H682 H 0.87606 0.52357 0.91030
 H683 H 0.86399 0.32113 0.82934
 H684 H 0.81138 0.29314 0.87416
 H685 H 0.92129 0.38736 0.79626
 H686 H 0.96246 0.53442 0.81929
 H687 H 0.81664 0.45741 0.94235
 H688 H 0.77566 0.31001 0.91925
 C689 C 0.55115 0.11037 0.85609
 C690 C 0.51528 0.11263 0.83662
 C691 C 0.50129 0.08425 0.81080
 C692 C 0.52268 0.05365 0.80455
 C693 C 0.55843 0.05162 0.82433
 C694 C 0.57286 0.08001 0.85018
 C695 C 0.56675 0.14089 0.88299
 C696 C 0.60336 0.13943 0.90219
 C697 C 0.61877 0.16929 0.92746
 C698 C 0.59750 0.20016 0.93362
 C699 C 0.56047 0.20069 0.91414
 C700 C 0.54517 0.17137 0.88877
 C701 C 0.60896 0.07909 0.87005
 C702 C 0.62402 0.10836 0.89559
 C703 C 0.49442 0.14347 0.84326
 C704 C 0.50906 0.17231 0.86893
 H705 H 0.62595 0.05578 0.86574
 H706 H 0.65220 0.10678 0.91022
 H707 H 0.46668 0.14547 0.82844
 H708 H 0.49221 0.19577 0.87317
 H709 H 0.47375 0.08577 0.79557
 H710 H 0.57543 0.02850 0.81931
 H711 H 0.64723 0.16853 0.94225
 H712 H 0.54404 0.22451 0.91842
   
