data_POSCAR
  _audit_creation_date              2014-09-24
  _audit_creation_method            'ToBaCCo'
  _symmetry_space_group_name_H-M    'P1'
  _symmetry_Int_Tables_number       1
  _symmetry_cell_setting            triclinic
  loop_
  _symmetry_equiv_pos_as_xyz
 x,y,z
_cell_length_a 18.7841
_cell_length_b 19.0631
_cell_length_c 27.3781
_cell_angle_alpha 90.000000
_cell_angle_beta 89.772800
_cell_angle_gamma 90.000000
loop_
  _atom_site_label
  _atom_site_type_symbol
  _atom_site_fract_x
  _atom_site_fract_y
  _atom_site_fract_z
O1 O 0.12148 0.03843 0.06022
 O2 O -0.12162 -0.03474 0.06097
 O3 O -0.03675 0.12168 0.06089
 O4 O 0.03649 -0.11796 0.06073
 O5 O -0.13525 0.08309 0.03481
 O6 O 0.13510 -0.07921 0.03414
 O7 O -0.08292 -0.13143 0.03372
 O8 O 0.08271 0.13522 0.03342
 C9 C 0.11281 0.10173 0.06665
 C10 C -0.11295 -0.09810 0.06721
 C11 C -0.10119 0.11366 0.06778
 C12 C 0.10078 -0.10949 0.06722
 O13 O 0.12147 -0.03475 -0.06072
 O14 O -0.12163 0.03841 -0.05997
 O15 O 0.03660 0.12166 -0.06066
 O16 O -0.03663 -0.11799 -0.06046
 O17 O -0.13523 -0.07922 -0.03388
 O18 O 0.13510 0.08309 -0.03457
 O19 O 0.08278 -0.13143 -0.03345
 O20 O -0.08286 0.13521 -0.03319
 Co21 Co 0.11599 0.00189 -0.00022
 Co22 Co -0.11613 0.00188 0.00047
 Co23 Co -0.00008 0.11630 0.00012
 Co24 Co -0.00007 -0.11256 0.00013
 O25 O -0.00007 0.00188 0.00013
 C26 C 0.11280 -0.09811 -0.06695
 C27 C -0.11297 0.10172 -0.06641
 C28 C 0.10104 0.11364 -0.06755
 C29 C -0.10092 -0.10951 -0.06695
 O30 O 0.41682 0.36514 0.46724
 O31 O 0.58314 0.63237 0.46708
 O32 O 0.36511 0.57958 0.46556
 O33 O 0.63489 0.41799 0.46504
 O34 O 0.46392 0.61863 0.43939
 O35 O 0.53627 0.37871 0.43925
 O36 O 0.62145 0.53588 0.43946
 O37 O 0.37846 0.46182 0.44009
 C38 C 0.38682 0.39844 0.43389
 C39 C 0.61311 0.59930 0.43348
 C40 C 0.39970 0.60993 0.43262
 C41 C 0.60050 0.38756 0.43223
 O42 O 0.58303 0.36513 0.53300
 O43 O 0.41672 0.63238 0.53319
 O44 O 0.36497 0.41799 0.53521
 O45 O 0.63475 0.57957 0.53470
 O46 O 0.53594 0.61860 0.56088
 O47 O 0.46358 0.37868 0.56098
 O48 O 0.62139 0.46181 0.56016
 O49 O 0.37842 0.53588 0.56079
 Co50 Co 0.49993 0.38413 0.50012
 Co51 Co 0.49993 0.61328 0.50013
 Co52 Co 0.38396 0.49882 0.50040
 Co53 Co 0.61590 0.49882 0.49985
 O54 O 0.49993 0.49875 0.50013
 C55 C 0.61302 0.39843 0.56635
 C56 C 0.38675 0.59930 0.56678
 C57 C 0.39936 0.38755 0.56801
 C58 C 0.60016 0.60990 0.56764
 C59 C 0.20371 0.20241 0.19171
 C60 C 0.21117 0.13004 0.18525
 C61 C 0.18104 0.09730 0.14469
 C62 C 0.14315 0.13669 0.10994
 C63 C 0.13522 0.20932 0.11694
 C64 C 0.16544 0.24200 0.15764
 C65 C 0.23597 0.23589 0.23311
 C66 C 0.26327 0.26367 0.26782
 C67 C 0.29554 0.29725 0.30918
 C68 C 0.33369 0.25775 0.34336
 C69 C 0.36401 0.29058 0.38397
 C70 C 0.35631 0.36329 0.39074
 C71 C 0.31852 0.40257 0.35588
 C72 C 0.28830 0.36968 0.31542
 H73 H 0.24056 0.09894 0.21146
 H74 H 0.18782 0.04120 0.14039
 H75 H 0.10601 0.24082 0.09090
 H76 H 0.15926 0.29809 0.16242
 H77 H 0.33972 0.20162 0.33873
 H78 H 0.39314 0.25916 0.41009
 H79 H 0.31192 0.45872 0.36002
 H80 H 0.25900 0.40071 0.28913
 C81 C 0.79625 0.79952 0.19207
 C82 C 0.78834 0.87194 0.18603
 C83 C 0.81847 0.90532 0.14555
 C84 C 0.85678 0.86651 0.11050
 C85 C 0.86518 0.79386 0.11712
 C86 C 0.83499 0.76057 0.15772
 C87 C 0.76397 0.76527 0.23331
 C88 C 0.73667 0.73672 0.26786
 C89 C 0.70437 0.70233 0.30904
 C90 C 0.66579 0.74117 0.34354
 C91 C 0.63547 0.70768 0.38402
 C92 C 0.64359 0.63494 0.39037
 C93 C 0.68179 0.59628 0.35519
 C94 C 0.71204 0.62985 0.31483
 H95 H 0.75857 0.90255 0.21247
 H96 H 0.81134 0.96141 0.14151
 H97 H 0.89473 0.76280 0.09084
 H98 H 0.84152 0.70446 0.16218
 H99 H 0.65944 0.79733 0.33927
 H100 H 0.60602 0.73863 0.41041
 H101 H 0.68871 0.54013 0.35902
 H102 H 0.74168 0.59933 0.28827
 C103 C 0.79612 0.20236 0.80853
 C104 C 0.78867 0.12999 0.81499
 C105 C 0.81880 0.09726 0.85555
 C106 C 0.85669 0.13666 0.89029
 C107 C 0.86461 0.20929 0.88329
 C108 C 0.83440 0.24196 0.84259
 C109 C 0.76386 0.23583 0.76712
 C110 C 0.73656 0.26361 0.73241
 C111 C 0.70429 0.29720 0.69106
 C112 C 0.66615 0.25771 0.65687
 C113 C 0.63583 0.29055 0.61626
 C114 C 0.64353 0.36326 0.60950
 C115 C 0.68131 0.40253 0.64436
 C116 C 0.71153 0.36963 0.68482
 H117 H 0.75927 0.09888 0.78879
 H118 H 0.81202 0.04116 0.85986
 H119 H 0.89383 0.24079 0.90933
 H120 H 0.84058 0.29805 0.83780
 H121 H 0.66012 0.20157 0.66148
 H122 H 0.60671 0.25914 0.59013
 H123 H 0.68791 0.45868 0.64024
 H124 H 0.74082 0.40066 0.71112
 C125 C 0.20360 0.79949 0.80820
 C126 C 0.16487 0.76054 0.84256
 C127 C 0.13468 0.79384 0.88316
 C128 C 0.14307 0.86650 0.88977
 C129 C 0.18137 0.90530 0.85471
 C130 C 0.21150 0.87191 0.81423
 C131 C 0.23588 0.76524 0.76696
 C132 C 0.26318 0.73669 0.73241
 C133 C 0.29548 0.70230 0.69123
 C134 C 0.28781 0.62983 0.68543
 C135 C 0.31806 0.59626 0.64507
 C136 C 0.35626 0.63493 0.60990
 C137 C 0.36439 0.70766 0.61625
 C138 C 0.33407 0.74115 0.65673
 H139 H 0.15834 0.70444 0.83810
 H140 H 0.10513 0.76279 0.90944
 H141 H 0.18850 0.96139 0.85874
 H142 H 0.24127 0.90251 0.78778
 H143 H 0.25816 0.59930 0.71199
 H144 H 0.31114 0.54011 0.64124
 H145 H 0.39384 0.73862 0.58987
 H146 H 0.34042 0.79730 0.66101
 C147 C 0.20084 0.20207 0.81053
 C148 C 0.24091 0.16480 0.84485
 C149 C 0.20765 0.13448 0.88555
 C150 C 0.13345 0.14117 0.89267
 C151 C 0.09371 0.17810 0.85723
 C152 C 0.12723 0.20825 0.81671
 C153 C 0.23510 0.23467 0.76917
 C154 C 0.26341 0.26231 0.73451
 C155 C 0.29744 0.29510 0.69314
 C156 C 0.37086 0.28771 0.68613
 C157 C 0.40401 0.31838 0.64564
 C158 C 0.36406 0.35682 0.61144
 C159 C 0.29040 0.36470 0.61901
 C160 C 0.25732 0.33395 0.65963
 H161 H 0.29798 0.15950 0.84030
 H162 H 0.24034 0.10628 0.91150
 H163 H 0.03657 0.18439 0.86081
 H164 H 0.09565 0.23680 0.79030
 H165 H 0.40248 0.25792 0.71184
 H166 H 0.46088 0.31155 0.64093
 H167 H 0.25837 0.39426 0.59345
 H168 H 0.20045 0.34016 0.66476
 C169 C 0.79715 0.79724 0.80883
 C170 C 0.75691 0.83579 0.84265
 C171 C 0.78998 0.86683 0.88298
 C172 C 0.86375 0.85953 0.88992
 C173 C 0.90381 0.82140 0.85541
 C174 C 0.87067 0.79045 0.81522
 C175 C 0.76321 0.76408 0.76777
 C176 C 0.73513 0.73605 0.73335
 C177 C 0.70135 0.70288 0.69224
 C178 C 0.62791 0.70990 0.68558
 C179 C 0.59499 0.67901 0.64527
 C180 C 0.63520 0.64072 0.61093
 C181 C 0.70888 0.63317 0.61817
 C182 C 0.74173 0.66415 0.65860
 H183 H 0.69996 0.84153 0.83799
 H184 H 0.75787 0.89615 0.90881
 H185 H 0.96076 0.81501 0.85964
 H186 H 0.90237 0.76088 0.78925
 H187 H 0.59610 0.73961 0.71140
 H188 H 0.53810 0.68559 0.64082
 H189 H 0.74110 0.60373 0.59247
 H190 H 0.79862 0.65823 0.66347
 C191 C 0.20272 0.79730 0.19145
 C192 C 0.12920 0.79051 0.18507
 C193 C 0.09606 0.82145 0.14487
 C194 C 0.13612 0.85957 0.11035
 C195 C 0.20988 0.86687 0.11729
 C196 C 0.24296 0.83583 0.15762
 C197 C 0.23666 0.76414 0.23250
 C198 C 0.26474 0.73611 0.26692
 C199 C 0.29852 0.70293 0.30803
 C200 C 0.25814 0.66419 0.34167
 C201 C 0.29099 0.63320 0.38210
 C202 C 0.36466 0.64076 0.38934
 C203 C 0.40488 0.67906 0.35500
 C204 C 0.37196 0.70996 0.31470
 H205 H 0.09749 0.76096 0.21104
 H206 H 0.03911 0.81507 0.14065
 H207 H 0.24199 0.89617 0.09145
 H208 H 0.29991 0.84157 0.16228
 H209 H 0.20125 0.65827 0.33679
 H210 H 0.25877 0.60376 0.40779
 H211 H 0.46177 0.68564 0.35946
 H212 H 0.40376 0.73968 0.28888
 C213 C 0.79900 0.20210 0.18970
 C214 C 0.87262 0.20830 0.18351
 C215 C 0.90614 0.17814 0.14300
 C216 C 0.86640 0.14119 0.10756
 C217 C 0.79220 0.13450 0.11469
 C218 C 0.75895 0.16482 0.15539
 C219 C 0.76475 0.23471 0.23106
 C220 C 0.73644 0.26234 0.26572
 C221 C 0.70241 0.29513 0.30709
 C222 C 0.74253 0.33396 0.34061
 C223 C 0.70945 0.36471 0.38123
 C224 C 0.63579 0.35685 0.38879
 C225 C 0.59583 0.31842 0.35459
 C226 C 0.62898 0.28776 0.31409
 H227 H 0.90419 0.23686 0.20992
 H228 H 0.96328 0.18444 0.13942
 H229 H 0.75952 0.10628 0.08874
 H230 H 0.70188 0.15951 0.15994
 H231 H 0.79940 0.34016 0.33548
 H232 H 0.74149 0.39425 0.40680
 H233 H 0.53896 0.31160 0.35929
 H234 H 0.59736 0.25798 0.28837
   
