data_POSCAR
  _audit_creation_date              2014-09-24
  _audit_creation_method            'ToBaCCo'
  _symmetry_space_group_name_H-M    'P1'
  _symmetry_Int_Tables_number       1
  _symmetry_cell_setting            triclinic
  loop_
  _symmetry_equiv_pos_as_xyz
 x,y,z
_cell_length_a 28.3221
_cell_length_b 25.7316
_cell_length_c 11.3121
_cell_angle_alpha 90.169100
_cell_angle_beta 90.165600
_cell_angle_gamma 118.701500
loop_
  _atom_site_label
  _atom_site_type_symbol
  _atom_site_fract_x
  _atom_site_fract_y
  _atom_site_fract_z
C1 C 0.45653 0.87502 0.62051
 C2 C 0.42889 0.84782 0.51566
 C3 C 0.44152 0.87742 0.40783
 C4 C 0.48211 0.93720 0.40297
 C5 C 0.50997 0.96650 0.50770
 C6 C 0.49796 0.93501 0.61640
 C7 C 0.52599 0.96540 0.71873
 C8 C 0.56404 1.02486 0.71514
 C9 C 0.57534 1.05759 0.60967
 C10 C 0.54967 1.02755 0.50383
 C11 C 0.49662 0.96783 0.29556
 C12 C 0.53669 1.02669 0.29107
 C13 C 0.56284 1.05841 0.39461
 C14 C 0.60317 1.11915 0.39116
 C15 C 0.62847 1.14778 0.49779
 C16 C 0.61239 1.11919 0.60797
 H17 H 0.51849 0.94434 0.80410
 H18 H 0.58518 1.04446 0.79676
 H19 H 0.47757 0.94625 0.21327
 H20 H 0.54711 1.04625 0.20431
 H21 H 0.39843 0.80152 0.51579
 H22 H 0.65530 1.19502 0.49612
 C23 C 0.10806 0.57174 0.61505
 C24 C 0.13736 0.59153 0.51041
 C25 C 0.11215 0.58808 0.40192
 C26 C 0.05547 0.56394 0.39758
 C27 C 0.02517 0.54431 0.50338
 C28 C 0.05171 0.54865 0.61254
 C29 C 0.02147 0.53133 0.71689
 C30 C -0.03388 0.50955 0.71427
 C31 C -0.06150 0.50267 0.60678
 C32 C -0.03179 0.52001 0.50013
 C33 C 0.02817 0.55778 0.29033
 C34 C -0.02771 0.53256 0.28670
 C35 C -0.05886 0.51239 0.39031
 C36 C -0.11599 0.48672 0.38746
 C37 C -0.14411 0.47335 0.49538
 C38 C -0.11794 0.47955 0.60393
 H39 H 0.04044 0.53545 0.80214
 H40 H -0.05459 0.49863 0.79814
 H41 H 0.04969 0.57210 0.20771
 H42 H -0.04590 0.53060 0.20151
 H43 H 0.18072 0.60960 0.51342
 H44 H -0.18769 0.45143 0.49526
 C45 C 0.54770 0.42333 0.39219
 C46 C 0.55791 0.40369 0.49934
 C47 C 0.54095 0.41575 0.60809
 C48 C 0.50944 0.44539 0.60710
 C49 C 0.49752 0.46404 0.49812
 C50 C 0.51754 0.45379 0.39074
 C51 C 0.50594 0.47311 0.28387
 C52 C 0.47462 0.50123 0.28197
 C53 C 0.45352 0.51098 0.38680
 C54 C 0.46525 0.49276 0.49613
 C55 C 0.48695 0.45409 0.71123
 C56 C 0.45533 0.48198 0.70925
 C57 C 0.44457 0.50288 0.60306
 C58 C 0.41146 0.53069 0.59991
 C59 C 0.39861 0.54568 0.48928
 C60 C 0.42000 0.53739 0.38431
 H61 H 0.52013 0.46566 0.20009
 H62 H 0.46623 0.51426 0.19690
 H63 H 0.49165 0.43754 0.79565
 H64 H 0.43796 0.48477 0.79232
 H65 H 0.58400 0.38376 0.49740
 H66 H 0.37562 0.56923 0.48399
 O67 O 0.38005 0.61805 -0.11905
 O68 O 0.39700 0.72723 -0.13545
 C69 C 0.37799 0.76265 -0.14698
 O70 O 0.34477 0.76556 -0.07559
 O71 O 0.24724 0.68365 -0.10749
 C72 C 0.21534 0.63176 -0.14236
 O73 O 0.21407 0.58571 -0.09815
 O74 O 0.29231 0.56510 -0.15610
 C75 C 0.34081 0.58118 -0.18128
 O76 O 0.38568 0.62933 0.11682
 O77 O 0.40944 0.74001 0.10092
 C78 C 0.38455 0.75717 0.17019
 O79 O 0.33516 0.74227 0.15842
 O80 O 0.23420 0.66066 0.12682
 C81 C 0.21829 0.60937 0.17059
 O82 O 0.23260 0.57298 0.13178
 O83 O 0.30795 0.54796 0.07558
 C84 C 0.35153 0.57553 0.13452
 Cr85 Cr 0.39022 0.67785 -0.00885
 Cr86 Cr 0.29122 0.71076 0.02517
 Cr87 Cr 0.26373 0.57106 -0.01126
 O88 O 0.31494 0.65319 0.00255
 O89 O 0.59297 0.30261 -0.14379
 O90 O 0.63124 0.23066 -0.10504
 C91 C 0.67346 0.24214 -0.16303
 O92 O 0.71948 0.28363 -0.13511
 O93 O 0.78225 0.39540 -0.09892
 C94 C 0.77230 0.43077 -0.15874
 O95 O 0.73366 0.44076 -0.13590
 O96 O 0.63049 0.39977 -0.10852
 C97 C 0.60010 0.35377 -0.16850
 O98 O 0.58079 0.31175 0.09256
 O99 O 0.62361 0.24373 0.12930
 C100 C 0.66442 0.23864 0.15831
 O101 O 0.70919 0.26465 0.10418
 O102 O 0.76946 0.37809 0.13549
 C103 C 0.77252 0.42763 0.16050
 O104 O 0.74796 0.44990 0.10309
 O105 O 0.64469 0.40475 0.12728
 C106 C 0.59957 0.36035 0.14947
 Cr107 Cr 0.60991 0.27492 -0.00654
 Cr108 Cr 0.74255 0.33067 0.00135
 Cr109 Cr 0.68900 0.42074 -0.00352
 O110 O 0.68053 0.34217 -0.00178
 C111 C 0.44303 0.84120 -0.27477
 C112 C 0.39239 0.80021 -0.25139
 H113 H 0.47343 0.84958 -0.20830
 H114 H 0.35938 0.79586 -0.30671
 C115 C 0.13789 0.57504 -0.27516
 C116 C 0.17971 0.62625 -0.24148
 H117 H 0.12572 0.53527 -0.22348
 H118 H 0.18919 0.66608 -0.29106
 C119 C 0.39562 0.54852 -0.29561
 C120 C 0.35208 0.55637 -0.28805
 H121 H 0.41971 0.55661 -0.21641
 H122 H 0.32275 0.54233 -0.35906
 C123 C 0.62597 0.15266 -0.28561
 C124 C 0.66851 0.20659 -0.26970
 H125 H 0.59890 0.13442 -0.21147
 H126 H 0.70010 0.22556 -0.33503
 C127 C 0.84901 0.45361 -0.28898
 C128 C 0.80689 0.46126 -0.26053
 H129 H 0.85944 0.42645 -0.23320
 H130 H 0.79686 0.48933 -0.31458
 C131 C 0.55996 0.40349 -0.28532
 C132 C 0.57302 0.35999 -0.27427
 H133 H 0.56476 0.43055 -0.20810
 H134 H 0.56292 0.32704 -0.34334
 C135 C 0.85474 0.46705 0.28023
 C136 C 0.80507 0.46001 0.26362
 H137 H 0.87255 0.45526 0.20737
 H138 H 0.78758 0.47778 0.32616
 C139 C 0.61297 0.15309 0.28674
 C140 C 0.65976 0.20143 0.26127
 H141 H 0.58087 0.13987 0.22240
 H142 H 0.69539 0.21347 0.31462
 C143 C 0.57455 0.41738 0.28510
 C144 C 0.56767 0.36488 0.24739
 H145 H 0.60109 0.45744 0.23781
 H146 H 0.53854 0.32458 0.29030
 C147 C 0.14657 0.60910 0.29530
 C148 C 0.18211 0.59015 0.27270
 H149 H 0.14200 0.63897 0.23482
 H150 H 0.18311 0.55669 0.32913
 C151 C 0.41192 0.84318 0.30207
 C152 C 0.41510 0.79495 0.26986
 H153 H 0.38790 0.85763 0.25123
 H154 H 0.44281 0.78401 0.31575
 C155 C 0.41111 0.56288 0.27527
 C156 C 0.36184 0.54369 0.23011
 H157 H 0.44571 0.59939 0.23467
 H158 H 0.32798 0.50515 0.26767
   
