data_POSCAR
  _audit_creation_date              2014-09-24
  _audit_creation_method            'ToBaCCo'
  _symmetry_space_group_name_H-M    'P1'
  _symmetry_Int_Tables_number       1
  _symmetry_cell_setting            triclinic
  loop_
  _symmetry_equiv_pos_as_xyz
 x,y,z
_cell_length_a 33.9161
_cell_length_b 34.6718
_cell_length_c 35.0939
_cell_angle_alpha 90.952700
_cell_angle_beta 88.732800
_cell_angle_gamma 89.703300
loop_
  _atom_site_label
  _atom_site_type_symbol
  _atom_site_fract_x
  _atom_site_fract_y
  _atom_site_fract_z
N1 N 0.28483 0.38552 1.35478
 N2 N 0.29905 0.36815 1.38483
 C3 C 0.27734 0.37853 1.41592
 C4 C 0.24722 0.40255 1.40489
 C5 C 0.25278 0.40644 1.36579
 H6 H 0.28177 0.36771 1.44425
 H7 H 0.23542 0.42365 1.34688
 Cu8 Cu 0.34070 0.32789 1.38145
 Cu9 Cu 0.31055 0.38099 1.30366
 Cu10 Cu 0.37528 0.30861 1.29394
 N11 N 0.36660 0.27872 1.36831
 N12 N 0.37832 0.27064 1.33313
 C13 C 0.39489 0.23539 1.33143
 C14 C 0.39442 0.22076 1.36773
 C15 C 0.37623 0.24903 1.39065
 H16 H 0.40787 0.22211 1.30598
 H17 H 0.37037 0.24832 1.42105
 N18 N 0.38080 0.35461 1.26420
 N19 N 0.35426 0.38243 1.26561
 C20 C 0.36526 0.40982 1.24059
 C21 C 0.40101 0.39847 1.22373
 C22 C 0.40995 0.36358 1.23954
 H23 H 0.34950 0.43655 1.23629
 H24 H 0.43578 0.34589 1.23346
 H25 H 0.31490 0.32601 1.32928
 H26 H 0.35445 0.36243 1.33567
 N27 N 1.23276 0.60296 0.85545
 N28 N 1.24112 0.63167 0.87880
 C29 C 1.27358 0.62243 0.89817
 C30 C 1.28575 0.58593 0.88630
 C31 C 1.25916 0.57438 0.85944
 H32 H 1.28651 0.64015 0.92020
 H33 H 1.25893 0.54705 0.84417
 Cu34 Cu 1.20625 0.67617 0.88431
 Cu35 Cu 1.18872 0.60451 0.82139
 Cu36 Cu 1.12574 0.68298 0.83037
 N37 N 1.17069 0.72020 0.88908
 N38 N 1.13873 0.72187 0.86863
 C39 C 1.11791 0.75357 0.87885
 C40 C 1.13782 0.77290 0.90742
 C41 C 1.17129 0.75098 0.91307
 H42 H 1.09020 0.76148 0.86651
 H43 H 1.19376 0.75668 0.93381
 N44 N 1.11811 0.64065 0.79317
 N45 N 1.14278 0.61123 0.78931
 C46 C 1.13140 0.58846 0.76024
 C47 C 1.09784 0.60425 0.74518
 C48 C 1.08997 0.63708 0.76685
 H49 H 1.14641 0.56236 0.75069
 H50 H 1.06614 0.65738 0.76292
 H51 H 1.18260 0.66407 0.82029
 H52 H 1.15298 0.63828 0.85743
 N53 N 0.69874 -0.10165 0.13713
 N54 N 0.70240 -0.12690 0.10899
 C55 C 0.73709 -0.12141 0.09062
 C56 C 0.75593 -0.09093 0.10844
 C57 C 0.73083 -0.07915 0.13782
 H58 H 0.74762 -0.13838 0.06632
 H59 H 0.73532 -0.05564 0.15790
 Cu60 Cu 0.66147 -0.16432 0.09912
 Cu61 Cu 0.65178 -0.09866 0.16906
 Cu62 Cu 0.59745 -0.18316 0.17159
 N63 N 0.63144 -0.21141 0.10063
 N64 N 0.60834 -0.22014 0.12979
 C65 C 0.59320 -0.25556 0.12367
 C66 C 0.60748 -0.26922 0.08853
 C67 C 0.63147 -0.24042 0.07482
 H68 H 0.57255 -0.26962 0.14274
 H69 H 0.64815 -0.24079 0.04817
 N70 N 0.59112 -0.14084 0.21005
 N71 N 0.61198 -0.10886 0.20836
 C72 C 0.60157 -0.08531 0.23758
 C73 C 0.57243 -0.10301 0.25881
 C74 C 0.56617 -0.13808 0.24051
 H75 H 0.61407 -0.05713 0.24269
 H76 H 0.54513 -0.15987 0.24888
 H77 H 0.65235 -0.15813 0.16773
 H78 H 0.61104 -0.13525 0.14187
 N79 N -0.20434 1.10130 -0.36576
 N80 N -0.21100 1.12922 -0.38975
 C81 C -0.24162 1.11939 -0.41170
 C82 C -0.25460 1.08325 -0.40104
 C83 C -0.23009 1.07253 -0.37206
 H84 H -0.25340 1.13704 -0.43392
 H85 H -0.23180 1.04626 -0.35592
 Cu86 Cu -0.17901 1.17581 -0.39033
 Cu87 Cu -0.16571 1.10623 -0.32550
 Cu88 Cu -0.10572 1.18664 -0.32785
 N89 N -0.13934 1.21602 -0.39598
 N90 N -0.11180 1.22095 -0.37062
 C91 C -0.08922 1.25115 -0.38049
 C92 C -0.10318 1.26589 -0.41416
 C93 C -0.13492 1.24275 -0.42322
 H94 H -0.06417 1.26103 -0.36461
 H95 H -0.15358 1.24545 -0.44765
 N96 N -0.10360 1.14836 -0.28717
 N97 N -0.12530 1.11687 -0.28695
 C98 C -0.11634 1.09613 -0.25608
 C99 C -0.08769 1.11568 -0.23601
 C100 C -0.08047 1.14861 -0.25647
 H101 H -0.13020 1.06928 -0.24836
 H102 H -0.05975 1.17108 -0.24937
 H103 H -0.16301 1.16546 -0.32368
 H104 H -0.12829 1.13989 -0.35782
 N105 N 0.71866 0.63834 0.63674
 N106 N 0.71219 0.66456 0.61068
 C107 C 0.73972 0.66090 0.58259
 C108 C 0.76515 0.63140 0.59149
 C109 C 0.75091 0.61759 0.62601
 H110 H 0.74171 0.67891 0.55776
 H111 H 0.76330 0.59448 0.64230
 Cu112 Cu 0.66943 0.70308 0.61509
 Cu113 Cu 0.68595 0.63433 0.68415
 Cu114 Cu 0.61579 0.70293 0.69586
 N115 N 0.61893 0.72992 0.61978
 N116 N 0.59767 0.72985 0.65150
 C117 C 0.56606 0.75305 0.64779
 C118 C 0.56785 0.76887 0.61193
 C119 C 0.60181 0.75341 0.59482
 H120 H 0.54448 0.75954 0.67016
 H121 H 0.61414 0.75978 0.56699
 N122 N 0.62414 0.66412 0.73380
 N123 N 0.65038 0.63631 0.72900
 C124 C 0.64849 0.61309 0.75954
 C125 C 0.61957 0.62756 0.78457
 C126 C 0.60493 0.65983 0.76731
 H127 H 0.66705 0.58807 0.76344
 H128 H 0.58157 0.67858 0.77824
 H129 H 0.64632 0.66015 0.64806
 H130 H 0.68338 0.69151 0.67151
 N131 N 0.77878 0.37339 0.17357
 N132 N 0.78041 0.34843 0.14493
 C133 C 0.74995 0.35525 0.12185
 C134 C 0.72826 0.38602 0.13719
 C135 C 0.74739 0.39668 0.16987
 H136 H 0.74370 0.33864 0.09636
 H137 H 0.73878 0.41958 0.18970
 Cu138 Cu 0.82124 0.30849 0.14121
 Cu139 Cu 0.81634 0.37371 0.21429
 Cu140 Cu 0.87853 0.29524 0.21746
 N141 N 0.85380 0.26228 0.14642
 N142 N 0.87394 0.25643 0.17742
 C143 C 0.89218 0.22197 0.17458
 C144 C 0.88376 0.20557 0.13973
 C145 C 0.85928 0.23183 0.12238
 H146 H 0.91119 0.21008 0.19582
 H147 H 0.84602 0.22872 0.09475
 N148 N 0.87934 0.33770 0.25514
 N149 N 0.85633 0.36836 0.25338
 C150 C 0.86455 0.39275 0.28240
 C151 C 0.89417 0.37640 0.30333
 C152 C 0.90277 0.34164 0.28535
 H153 H 0.84986 0.42006 0.28803
 H154 H 0.92477 0.32092 0.29367
 H155 H 0.86159 0.34320 0.18686
 H156 H 0.82111 0.31450 0.21014
 N157 N 0.26764 0.12270 0.84297
 N158 N 0.26984 0.14262 0.87506
 C159 C 0.23653 0.13763 0.89586
 C160 C 0.21210 0.11363 0.87538
 C161 C 0.23251 0.10491 0.84190
 H162 H 0.23034 0.15085 0.92350
 H163 H 0.22299 0.08604 0.81908
 Cu164 Cu 0.31501 0.17444 0.88631
 Cu165 Cu 0.31187 0.11841 0.80694
 Cu166 Cu 0.38803 0.18251 0.82038
 N167 N 0.35206 0.21684 0.88757
 N168 N 0.38081 0.21962 0.86206
 C169 C 0.40144 0.25186 0.86917
 C170 C 0.38455 0.27032 0.90082
 C171 C 0.35326 0.24736 0.91172
 H172 H 0.42622 0.26150 0.85200
 H173 H 0.33265 0.25272 0.93520
 N174 N 0.38900 0.14278 0.77982
 N175 N 0.35974 0.11854 0.77424
 C176 C 0.36880 0.09562 0.74388
 C177 C 0.40550 0.10622 0.72978
 C178 C 0.41737 0.13612 0.75313
 H179 H 0.34984 0.07346 0.73253
 H180 H 0.44448 0.15221 0.75038
 H181 H 0.35635 0.13629 0.84235
 H182 H 0.32760 0.17490 0.81814
 N183 N 0.21524 0.87627 0.36321
 N184 N 0.20484 0.85145 0.38943
 C185 C 0.23122 0.85254 0.41762
 C186 C 0.25967 0.87945 0.40875
 C187 C 0.24861 0.89405 0.37391
 H188 H 0.23007 0.83502 0.44282
 H189 H 0.26347 0.91603 0.35760
 Cu190 Cu 0.15801 0.81976 0.38441
 Cu191 Cu 0.18404 0.88381 0.31757
 Cu192 Cu 0.09954 0.82834 0.30857
 N193 N 0.11197 0.78731 0.37772
 N194 N 0.08884 0.79071 0.34839
 C195 C 0.06031 0.76376 0.35064
 C196 C 0.06604 0.74224 0.38299
 C197 C 0.09907 0.75817 0.39948
 H198 H 0.03772 0.75937 0.32976
 H199 H 0.11325 0.74882 0.42502
 N200 N 0.11549 0.86777 0.27115
 N201 N 0.14855 0.88755 0.27367
 C202 C 0.15250 0.90990 0.24270
 C203 C 0.12018 0.90445 0.21996
 C204 C 0.09728 0.87756 0.23886
 H205 H 0.17700 0.92896 0.23703
 H206 H 0.07001 0.86519 0.22914
 H207 H 0.13060 0.86726 0.34147
 H208 H 0.15995 0.82903 0.31558
 Zn209 Zn 0.04251 0.97459 0.00459
 Zn210 Zn -0.00036 1.04178 -0.02952
 Zn211 Zn -0.03237 0.96301 -0.03820
 Zn212 Zn -0.03408 1.00181 0.03834
 O213 O -0.00595 0.99530 -0.00616
 O214 O 0.08190 1.00634 -0.00852
 O215 O -0.02201 1.04348 -0.07580
 O216 O -0.00355 0.92234 -0.05256
 O217 O 0.05029 1.05436 -0.03603
 O218 O 0.05210 0.93006 -0.02145
 O219 O -0.04694 0.98503 -0.08147
 O220 O -0.07858 0.97484 0.03855
 O221 O -0.02353 1.08057 -0.00296
 O222 O -0.07659 0.94443 -0.01738
 O223 O -0.04832 1.05109 0.04761
 O224 O -0.00853 0.98501 0.07911
 O225 O 0.04832 0.96378 0.05450
 C226 C 0.08198 1.03809 -0.02603
 C227 C -0.04123 1.01846 -0.09441
 C228 C 0.03084 0.91120 -0.04453
 C229 C -0.09327 0.95150 0.01461
 C230 C -0.04291 1.08141 0.02837
 C231 C 0.02487 0.96905 0.08291
 Zn232 Zn 0.47953 0.01589 0.44744
 Zn233 Zn 0.46583 -0.03254 0.51631
 Zn234 Zn 0.54869 -0.01214 0.48978
 Zn235 Zn 0.49724 0.04853 0.52345
 O236 O 0.49768 0.00467 0.49437
 O237 O 0.43624 -0.00972 0.43663
 O238 O 0.49356 -0.07591 0.52663
 O239 O 0.56534 -0.01708 0.44132
 O240 O 0.42453 -0.04668 0.48637
 O241 O 0.51332 0.00264 0.40977
 O242 O 0.55405 -0.05904 0.50823
 O243 O 0.54523 0.06445 0.53698
 O244 O 0.44452 -0.01605 0.56144
 O245 O 0.58404 0.01816 0.51339
 O246 O 0.46971 0.04266 0.56632
 O247 O 0.47524 0.08857 0.50063
 O248 O 0.46578 0.06547 0.44245
 C249 C 0.41545 -0.03454 0.45360
 C250 C 0.53022 -0.08332 0.52220
 C251 C 0.54783 -0.01154 0.41037
 C252 C 0.57926 0.04980 0.53168
 C253 C 0.44875 0.01562 0.57964
 C254 C 0.46352 0.09280 0.46695
 Zn255 Zn 0.99235 0.49906 0.56114
 Zn256 Zn 1.00508 0.45795 0.48731
 Zn257 Zn 0.97415 0.53980 0.48875
 Zn258 Zn 1.05818 0.52173 0.50967
 O259 O 1.00731 0.50481 0.51152
 O260 O 0.98280 0.45012 0.57334
 O261 O 0.97110 0.45848 0.44991
 O262 O 0.93433 0.55618 0.52070
 O263 O 0.99017 0.41911 0.51800
 O264 O 0.94835 0.52482 0.57325
 O265 O 0.94993 0.51894 0.44793
 O266 O 1.06136 0.56794 0.48869
 O267 O 1.05091 0.44409 0.46422
 O268 O 1.00028 0.58243 0.47232
 O269 O 1.09094 0.49106 0.48168
 O270 O 1.07930 0.52820 0.55574
 O271 O 1.02815 0.51584 0.59369
 C272 C 0.98197 0.41928 0.55351
 C273 C 0.95040 0.48449 0.43495
 C274 C 0.92637 0.54734 0.55510
 C275 C 1.03672 0.59081 0.47430
 C276 C 1.08452 0.45998 0.46325
 C277 C 1.06347 0.52674 0.58873
 Zn278 Zn 0.46781 0.47502 0.99079
 Zn279 Zn 0.53235 0.48772 1.04556
 Zn280 Zn 0.55104 0.45886 0.96592
 Zn281 Zn 0.52410 0.53984 0.97939
 O282 O 0.51888 0.49033 0.99546
 O283 O 0.44403 0.46480 1.03540
 O284 O 0.57377 0.45623 1.05211
 O285 O 0.52476 0.42032 0.94349
 O286 O 0.49256 0.47164 1.07600
 O287 O 0.46312 0.43215 0.96240
 O288 O 0.58821 0.43603 0.99311
 O289 O 0.55709 0.54404 0.93924
 O290 O 0.54587 0.53367 1.06538
 O291 O 0.57635 0.48380 0.92809
 O292 O 0.54103 0.57187 1.01578
 O293 O 0.47874 0.56002 0.96411
 O294 O 0.43783 0.51081 0.96975
 C295 C 0.45682 0.46396 1.06902
 C296 C 0.59506 0.43665 1.02850
 C297 C 0.48850 0.41157 0.94427
 C298 C 0.57658 0.51921 0.91951
 C299 C 0.54847 0.56671 1.05063
 C300 C 0.44491 0.54533 0.96045
 C301 C 1.21780 0.41819 0.42919
 C302 C 1.18422 0.43342 0.41678
 C303 C 1.15417 0.44898 0.44395
 C304 C 1.11583 0.44269 0.43856
 H305 H 1.17761 0.43262 0.38671
 H306 H 1.16362 0.46499 0.46890
 H307 H 1.22164 0.41582 0.45967
 H308 H 1.10699 0.42416 0.41510
 C309 C 0.31836 0.56256 0.90028
 C310 C 0.34829 0.57822 0.91884
 C311 C 0.37988 0.55379 0.93313
 C312 C 0.41329 0.56924 0.94538
 H313 H 0.34982 0.60920 0.92312
 H314 H 0.37585 0.52277 0.93328
 H315 H 0.31812 0.53176 0.89437
 H316 H 0.41786 0.60010 0.94369
 C317 C -0.20606 0.92672 0.09868
 C318 C -0.18620 0.91814 0.06642
 C319 C -0.14908 0.93776 0.05740
 C320 C -0.13038 0.93190 0.02395
 H321 H -0.19764 0.89730 0.04622
 H322 H -0.13706 0.95753 0.07836
 H323 H -0.19470 0.94833 0.11818
 H324 H -0.14253 0.91225 0.00297
 C325 C 0.71235 0.06059 0.58367
 C326 C 0.68159 0.07722 0.56712
 C327 C 0.64838 0.05422 0.55266
 C328 C 0.61344 0.07090 0.54663
 H329 H 0.68017 0.10837 0.56526
 H330 H 0.65231 0.02349 0.54764
 H331 H 0.71248 0.02968 0.58780
 H332 H 0.60931 0.10121 0.55383
 C333 C 0.41073 0.18542 0.37768
 C334 C 0.41467 0.17449 0.41371
 C335 C 0.43352 0.13739 0.42207
 C336 C 0.44600 0.13007 0.45702
 H337 H 0.40531 0.19326 0.43722
 H338 H 0.43749 0.11606 0.39934
 H339 H 0.42204 0.16671 0.35483
 H340 H 0.44265 0.15190 0.47936
 C341 C 0.91084 0.29729 0.56496
 C342 C 0.93948 0.32057 0.57730
 C343 C 0.95237 0.35442 0.55544
 C344 C 0.97102 0.38342 0.57286
 H345 H 0.95260 0.31597 0.60473
 H346 H 0.94490 0.35653 0.52566
 H347 H 0.89692 0.30354 0.53821
 H348 H 0.97578 0.38214 0.60327
 C349 C 0.12669 0.80659 -0.07255
 C350 C 0.09260 0.82481 -0.07861
 C351 C 0.08071 0.86001 -0.05726
 C352 C 0.04539 0.87562 -0.06331
 H353 H 0.07244 0.81367 -0.09955
 H354 H 0.10054 0.87304 -0.03701
 H355 H 0.14627 0.81785 -0.05109
 H356 H 0.02597 0.86183 -0.08352
 C357 C 0.59949 0.69647 1.06897
 C358 C 0.57900 0.66733 1.08385
 C359 C 0.57032 0.63336 1.05987
 C360 C 0.55932 0.59986 1.07488
 H361 H 0.56877 0.66827 1.11332
 H362 H 0.57319 0.63586 1.02916
 H363 H 0.61115 0.69342 1.04002
 H364 H 0.55812 0.59670 1.10556
 C365 C 0.42662 0.41855 1.19634
 C366 C 0.41278 0.43596 1.16578
 C367 C 0.44054 0.44925 1.13593
 C368 C 0.42906 0.45383 1.10014
 H369 H 0.38128 0.43725 1.16127
 H370 H 0.47131 0.45296 1.14286
 H371 H 0.45819 0.41452 1.19883
 H372 H 0.39850 0.44885 1.09312
 C373 C 0.55200 -0.08733 0.29313
 C374 C 0.56786 -0.05898 0.31397
 C375 C 0.54746 -0.04290 0.34796
 C376 C 0.56742 -0.02379 0.37461
 H377 H 0.59694 -0.04818 0.30671
 H378 H 0.51623 -0.04842 0.35222
 H379 H 0.52404 -0.09978 0.30182
 H380 H 0.59920 -0.02115 0.37198
 C381 C -0.06892 1.10548 -0.19995
 C382 C -0.07350 1.07120 -0.18361
 C383 C -0.05457 1.06264 -0.14721
 C384 C -0.05801 1.02787 -0.13157
 H385 H -0.09128 1.04920 -0.19705
 H386 H -0.03813 1.08513 -0.13287
 H387 H -0.05039 1.12698 -0.18661
 H388 H -0.07446 1.00557 -0.14617
 C389 C 1.07537 0.58997 0.71258
 C390 C 1.09155 0.56641 0.68600
 C391 C 1.06861 0.55283 0.65349
 C392 C 1.08640 0.53871 0.62185
 H393 H 1.12227 0.55794 0.68752
 H394 H 1.03674 0.55575 0.65493
 H395 H 1.04538 0.60025 0.70963
 H396 H 1.11832 0.53818 0.61940
 C397 C 0.80037 0.61914 0.56876
 C398 C 0.82785 0.59572 0.58246
 C399 C 0.86328 0.58417 0.55971
 C400 C 0.89095 0.56242 0.57548
 H401 H 0.82452 0.58508 0.61119
 H402 H 0.86647 0.59291 0.53030
 H403 H 0.80426 0.63061 0.54039
 H404 H 0.88699 0.55406 0.60497
 C405 C 0.69205 0.40428 1.12364
 C406 C 0.67683 0.39648 1.08967
 C407 C 0.64141 0.41727 1.07756
 C408 C 0.62884 0.41419 1.04188
 H409 H 0.69105 0.37575 1.07036
 H410 H 0.62620 0.43639 1.09784
 H411 H 0.67801 0.42589 1.14215
 H412 H 0.64468 0.39576 1.02143
 C413 C 0.17297 1.09942 -0.11337
 C414 C 0.16334 1.09313 -0.07696
 C415 C 0.12467 1.07727 -0.06652
 C416 C 0.11995 1.05604 -0.03540
 H417 H 0.18481 1.09777 -0.05494
 H418 H 0.10031 1.08124 -0.08562
 H419 H 0.15266 1.09167 -0.13562
 H420 H 0.14509 1.04951 -0.01802
 C421 C 0.29376 -0.11035 0.43254
 C422 C 0.32050 -0.08421 0.42205
 C423 C 0.35442 -0.07399 0.44603
 C424 C 0.38045 -0.04821 0.43323
 H425 H 0.31744 -0.06979 0.39512
 H426 H 0.35799 -0.08716 0.47354
 H427 H 0.29678 -0.12481 0.45947
 H428 H 0.37587 -0.03570 0.40552
 C429 C 0.54195 -0.20029 0.59799
 C430 C 0.55146 -0.18029 0.56698
 C431 C 0.52954 -0.14547 0.55622
 C432 C 0.54693 -0.12076 0.53252
 H433 H 0.57790 -0.18780 0.55058
 H434 H 0.50093 -0.13892 0.56918
 H435 H 0.51631 -0.19192 0.61523
 H436 H 0.57645 -0.12720 0.52158
 C437 C 1.04307 0.70831 0.39567
 C438 C 1.05473 0.68675 0.42469
 C439 C 1.03416 0.65136 0.43682
 C440 C 1.05232 0.62780 0.46071
 H441 H 1.08130 0.69443 0.43948
 H442 H 1.00555 0.64412 0.42565
 H443 H 1.01702 0.70029 0.38014
 H444 H 1.08167 0.63523 0.46998
 C445 C -0.10137 1.16798 0.12550
 C446 C -0.09465 1.16031 0.08854
 C447 C -0.07721 1.12302 0.07619
 C448 C -0.06015 1.11846 0.04172
 H449 H -0.10037 1.18214 0.06756
 H450 H -0.07755 1.09930 0.09593
 H451 H -0.09296 1.14696 0.14641
 H452 H -0.05867 1.14270 0.02262
 C453 C 0.39603 0.30698 0.91908
 C454 C 0.42934 0.32521 0.90962
 C455 C 0.44028 0.36133 0.92910
 C456 C 0.47608 0.37651 0.92379
 H457 H 0.44927 0.31310 0.88800
 H458 H 0.41922 0.37501 0.94879
 H459 H 0.37685 0.31883 0.94151
 H460 H 0.49745 0.36197 0.90506
 C461 C 0.60572 0.61362 0.82192
 C462 C 0.61467 0.57911 0.83587
 C463 C 0.59638 0.56738 0.87240
 C464 C 0.59902 0.53137 0.88525
 H465 H 0.63370 0.55923 0.81986
 H466 H 0.57857 0.58847 0.88827
 H467 H 0.58559 0.63242 0.83803
 H468 H 0.61609 0.50991 0.86915
 C469 C 0.42719 0.09195 0.69567
 C470 C 0.41570 0.06181 0.67454
 C471 C 0.43737 0.05222 0.63889
 C472 C 0.42849 0.02178 0.61684
 H473 H 0.39000 0.04520 0.68271
 H474 H 0.46082 0.07147 0.62996
 H475 H 0.45344 0.10767 0.68721
 H476 H 0.40584 0.00176 0.62586
 C477 C 0.11340 0.92223 0.18260
 C478 C 0.07731 0.92595 0.16834
 C479 C 0.07087 0.94289 0.13052
 C480 C 0.03490 0.95507 0.12109
 H481 H 0.05187 0.91677 0.18501
 H482 H 0.09540 0.94500 0.11034
 H483 H 0.13863 0.93347 0.16698
 H484 H 0.01115 0.95413 0.14226
 C485 C 0.91326 0.39113 0.33774
 C486 C 0.90712 0.42649 0.35252
 C487 C 0.92849 0.43828 0.38674
 C488 C 0.92690 0.47414 0.40146
 H489 H 0.88724 0.44658 0.33934
 H490 H 0.94683 0.41675 0.39990
 H491 H 0.93393 0.37191 0.35113
 H492 H 0.90899 0.49604 0.38842
   
