data_POSCAR
  _audit_creation_date              2014-09-24
  _audit_creation_method            'ToBaCCo'
  _symmetry_space_group_name_H-M    'P1'
  _symmetry_Int_Tables_number       1
  _symmetry_cell_setting            triclinic
  loop_
  _symmetry_equiv_pos_as_xyz
 x,y,z
_cell_length_a 27.3610
_cell_length_b 27.2023
_cell_length_c 47.5349
_cell_angle_alpha 90.381700
_cell_angle_beta 92.055700
_cell_angle_gamma 94.211000
loop_
  _atom_site_label
  _atom_site_type_symbol
  _atom_site_fract_x
  _atom_site_fract_y
  _atom_site_fract_z
C1 C -0.03103 0.34907 0.98365
 C2 C -0.03512 0.34894 1.01229
 C3 C -0.01733 0.39532 1.02202
 N4 N -0.00348 0.42407 1.00021
 C5 C -0.01165 0.39570 0.97678
 C6 C -0.01103 0.40963 1.05072
 C7 C -0.00458 0.46009 1.05881
 C8 C 0.01678 0.47756 1.08421
 C9 C 0.01530 0.52790 1.08410
 C10 C -0.00706 0.54007 1.05867
 N11 N -0.01857 0.49850 1.04321
 C12 C -0.01668 0.58860 1.05038
 C13 C -0.02426 0.60037 1.02164
 C14 C -0.04536 0.64211 1.01173
 C15 C -0.04117 0.64205 0.98309
 C16 C -0.01835 0.59996 0.97641
 N17 N -0.00827 0.57431 0.99994
 C18 C -0.00359 0.58771 0.94927
 C19 C 0.00919 0.53993 0.94233
 C20 C 0.03316 0.52737 0.91838
 C21 C 0.03448 0.47688 0.91842
 C22 C 0.01146 0.46024 0.94244
 N23 N -0.00376 0.49884 0.95689
 C24 C 0.00163 0.41037 0.94953
 H25 H -0.04110 0.31837 0.96949
 H26 H -0.04929 0.31807 1.02457
 H27 H -0.02674 0.49668 0.97390
 H28 H 0.03270 0.45635 1.10090
 H29 H 0.02994 0.55276 1.10070
 H30 H -0.06167 0.66997 1.02392
 H31 H -0.05338 0.66985 0.96882
 H32 H 0.05007 0.45490 0.90243
 H33 H -0.03859 0.49610 1.02411
 H34 H 0.04760 0.55190 0.90236
 C35 C 0.34799 -0.02113 0.48806
 C36 C 0.35121 -0.02124 0.51692
 C37 C 0.39990 -0.00854 0.52455
 N38 N 0.42645 -0.00053 0.50141
 C39 C 0.39483 -0.00839 0.47906
 C40 C 0.41820 -0.00065 0.55245
 C41 C 0.46858 0.00800 0.55977
 C42 C 0.48675 0.02833 0.58517
 C43 C 0.53695 0.02927 0.58458
 C44 C 0.54823 0.00855 0.55903
 N45 N 0.50617 -0.00410 0.54395
 C46 C 0.59643 0.00102 0.55051
 C47 C 0.60679 -0.00764 0.52190
 C48 C 0.64984 -0.02526 0.51260
 C49 C 0.64648 -0.02553 0.48378
 C50 C 0.60110 -0.00921 0.47635
 N51 N 0.57687 0.00184 0.49963
 C52 C 0.58424 -0.00177 0.44842
 C53 C 0.53522 0.00654 0.44092
 C54 C 0.51911 0.02211 0.41469
 C55 C 0.46888 0.02209 0.41533
 C56 C 0.45575 0.00636 0.44190
 N57 N 0.49640 -0.00329 0.45729
 C58 C 0.40703 -0.00119 0.45071
 H59 H 0.31487 -0.02904 0.47519
 H60 H 0.32103 -0.02911 0.53070
 H61 H 0.49729 -0.02088 0.47661
 H62 H 0.46599 0.04162 0.60224
 H63 H 0.56224 0.04391 0.60111
 H64 H 0.68054 -0.03687 0.52522
 H65 H 0.67420 -0.03675 0.46989
 H66 H 0.44475 0.03203 0.39808
 H67 H 0.50304 -0.02434 0.52525
 H68 H 0.54117 0.03187 0.39684
 C69 C 0.07247 0.04393 0.27750
 H70 H 0.06567 0.07643 0.26559
 C71 C 0.11371 0.04471 0.29573
 H72 H 0.13792 0.07798 0.29771
 C73 C 0.05086 -0.03930 0.28881
 H74 H 0.02686 -0.07233 0.28558
 C75 C 0.09189 -0.04026 0.30706
 H76 H 0.09834 -0.07376 0.31835
 N77 N 0.04139 0.00260 0.27477
 C78 C -0.05775 -0.08742 0.22380
 H79 H -0.09118 -0.07896 0.23364
 C80 C -0.05781 -0.12839 0.20587
 H81 H -0.09154 -0.15115 0.20196
 C82 C 0.02628 -0.06671 0.21586
 H83 H 0.05878 -0.04216 0.21975
 C84 C 0.02785 -0.10715 0.19781
 H85 H 0.06198 -0.11386 0.18813
 Zn86 Zn -0.01570 0.00041 0.25053
 N87 N -0.01618 -0.05735 0.22817
 C88 C -0.01514 0.04839 0.19808
 N89 N -0.01427 0.05624 0.22640
 C90 C -0.01308 0.10277 0.23729
 C91 C -0.01136 0.14358 0.21952
 C92 C -0.01364 0.08802 0.17960
 C93 C -0.08002 -0.03895 0.29121
 C94 C -0.12013 -0.04051 0.30861
 C95 C -0.14543 0.03381 0.28676
 C96 C -0.10505 0.03372 0.26960
 N97 N -0.07269 -0.00177 0.27246
 H98 H -0.01726 0.01132 0.18966
 H99 H -0.01336 0.10822 0.25984
 H100 H -0.00940 0.18028 0.22863
 H101 H -0.01489 0.08072 0.15716
 H102 H -0.05464 -0.06742 0.29281
 H103 H -0.12466 -0.06977 0.32384
 H104 H -0.17053 0.06261 0.28437
 H105 H -0.09965 0.06225 0.25413
 C106 C -0.01473 -0.13827 0.19233
 C107 C 0.12366 0.00230 0.31090
 C108 C -0.15305 -0.00338 0.30677
 C109 C -0.01124 0.13646 0.19023
 C110 C 0.01518 0.09901 0.76279
 H111 H 0.01212 0.10318 0.74019
 C112 C 0.01515 0.14035 0.78042
 H113 H 0.01271 0.17643 0.77122
 C114 C 0.02204 0.04682 0.80223
 H115 H 0.02394 0.01030 0.81075
 C116 C 0.02221 0.08703 0.82057
 H117 H 0.02406 0.08083 0.84305
 N118 N 0.01912 0.05344 0.77390
 C119 C 0.08386 -0.04116 0.71333
 H120 H 0.05846 -0.07346 0.71429
 C121 C 0.12439 -0.04155 0.69634
 H122 H 0.12980 -0.07423 0.68404
 C123 C 0.10683 0.04116 0.72770
 H124 H 0.10006 0.07323 0.74006
 C125 C 0.14759 0.04252 0.71078
 H126 H 0.17192 0.07573 0.71029
 Zn127 Zn 0.01802 -0.00194 0.74945
 N128 N 0.07543 0.00004 0.72823
 C129 C -0.03259 -0.00239 0.69654
 N130 N -0.03796 -0.00085 0.72486
 C131 C -0.08265 0.00357 0.73589
 C132 C -0.12437 0.00560 0.71820
 C133 C -0.07321 -0.00041 0.67813
 C134 C 0.05773 -0.07051 0.78531
 C135 C 0.05818 -0.11110 0.80308
 C136 C -0.02738 -0.13089 0.79055
 C137 C -0.02605 -0.09013 0.77279
 N138 N 0.01583 -0.06032 0.77100
 H139 H 0.00322 -0.00498 0.68809
 H140 H -0.08578 0.00578 0.75848
 H141 H -0.15959 0.00948 0.72732
 H142 H -0.06816 -0.00250 0.65568
 H143 H 0.09066 -0.04644 0.78329
 H144 H 0.09197 -0.11840 0.81430
 H145 H -0.06163 -0.15294 0.79255
 H146 H -0.05885 -0.08178 0.76104
 C147 C 0.15647 0.00092 0.69464
 C148 C 0.01896 0.13461 0.80975
 C149 C 0.01497 -0.14145 0.80632
 C150 C -0.11988 0.00368 0.68887
 C151 C -0.01470 -0.29681 0.11125
 C152 C 0.00974 -0.28871 0.08608
 C153 C 0.00920 -0.32689 0.06616
 C154 C -0.01585 -0.37322 0.07101
 C155 C -0.03976 -0.38067 0.09668
 C156 C -0.03942 -0.34258 0.11678
 C157 C -0.01450 -0.25650 0.13217
 C158 C -0.03928 -0.26435 0.15730
 C159 C -0.03924 -0.22567 0.17702
 C160 C -0.01451 -0.17953 0.17173
 C161 C 0.01016 -0.17249 0.14639
 C162 C 0.01028 -0.21079 0.12656
 C163 C -0.06363 -0.34913 0.14223
 C164 C -0.06358 -0.31069 0.16213
 C165 C 0.03428 -0.24250 0.08126
 C166 C 0.03452 -0.20418 0.10116
 H167 H -0.08289 -0.38425 0.14677
 H168 H -0.08279 -0.31729 0.18144
 H169 H 0.05333 -0.23585 0.06190
 H170 H 0.05376 -0.16906 0.09660
 H171 H 0.02920 -0.32083 0.04705
 H172 H -0.05983 -0.41566 0.10065
 H173 H -0.05796 -0.23157 0.19656
 H174 H 0.02858 -0.13692 0.14188
 C175 C -0.00650 0.29732 0.11175
 C176 C -0.03383 0.33800 0.11670
 C177 C -0.03449 0.37573 0.09670
 C178 C -0.00866 0.37264 0.07159
 C179 C 0.01930 0.33169 0.06743
 C180 C 0.02039 0.29404 0.08732
 C181 C -0.00654 0.25700 0.13235
 C182 C 0.02056 0.21621 0.12724
 C183 C 0.01959 0.17750 0.14653
 C184 C -0.00868 0.17896 0.17070
 C185 C -0.03516 0.22055 0.17569
 C186 C -0.03422 0.25968 0.15655
 C187 C 0.04756 0.25292 0.08311
 C188 C 0.04769 0.21468 0.10275
 C189 C -0.06062 0.33968 0.14133
 C190 C -0.06088 0.30116 0.16089
 H191 H 0.06860 0.25009 0.06436
 H192 H 0.06884 0.18344 0.09861
 H193 H -0.08189 0.37085 0.14542
 H194 H -0.08234 0.30375 0.17949
 H195 H -0.05661 0.40655 0.10016
 H196 H 0.04076 0.32943 0.04878
 H197 H 0.04084 0.14619 0.14273
 H198 H -0.05741 0.22191 0.19405
 C199 C 0.31141 0.00300 0.61576
 C200 C 0.34010 -0.03764 0.61413
 C201 C 0.37591 -0.03810 0.59376
 C202 C 0.38241 0.00138 0.57501
 C203 C 0.35382 0.04203 0.57704
 C204 C 0.31820 0.04308 0.59746
 C205 C 0.27290 0.00318 0.63667
 C206 C 0.24398 0.04363 0.63815
 C207 C 0.20671 0.04315 0.65764
 C208 C 0.19786 0.00233 0.67531
 C209 C 0.22747 -0.03777 0.67370
 C210 C 0.26516 -0.03747 0.65445
 C211 C 0.28879 0.08303 0.59972
 C212 C 0.25237 0.08335 0.61976
 C213 C 0.33181 -0.07726 0.63258
 C214 C 0.29490 -0.07723 0.65236
 H215 H 0.29376 0.11418 0.58575
 H216 H 0.23028 0.11475 0.62069
 H217 H 0.35371 -0.10879 0.63154
 H218 H 0.28939 -0.10874 0.66601
 H219 H 0.39802 -0.06938 0.59201
 H220 H 0.35909 0.07236 0.56251
 H221 H 0.18365 0.07383 0.65852
 H222 H 0.22110 -0.06909 0.68741
 C223 C -0.28566 0.00660 0.61079
 C224 C -0.32944 -0.02115 0.61644
 C225 C -0.36873 -0.02238 0.59658
 C226 C -0.36442 0.00362 0.57103
 C227 C -0.32021 0.03194 0.56611
 C228 C -0.28079 0.03337 0.58580
 C229 C -0.24383 0.00711 0.63128
 C230 C -0.19988 0.03441 0.62543
 C231 C -0.15985 0.03385 0.64461
 C232 C -0.16335 0.00599 0.66945
 C233 C -0.20801 -0.02059 0.67519
 C234 C -0.24836 -0.02026 0.65612
 C235 C -0.23644 0.06078 0.58086
 C236 C -0.19665 0.06129 0.60035
 C237 C -0.33277 -0.04770 0.64165
 C238 C -0.29291 -0.04728 0.66114
 H239 H -0.23231 0.08170 0.56167
 H240 H -0.16295 0.08258 0.59563
 H241 H -0.36636 -0.06926 0.64627
 H242 H -0.29692 -0.06853 0.68023
 H243 H -0.40210 -0.04487 0.60057
 H244 H -0.31669 0.05329 0.54701
 H245 H -0.12593 0.05507 0.64022
 H246 H -0.21094 -0.04251 0.69410
 C247 C 0.00632 -0.29832 0.88745
 C248 C 0.03284 -0.29175 0.91322
 C249 C 0.02985 -0.32943 0.93316
 C250 C 0.00008 -0.37308 0.92763
 C251 C -0.02631 -0.37914 0.90172
 C252 C -0.02314 -0.34188 0.88146
 C253 C 0.00919 -0.25867 0.86644
 C254 C -0.01725 -0.26517 0.84066
 C255 C -0.01468 -0.22713 0.82085
 C256 C 0.01366 -0.18260 0.82681
 C257 C 0.03992 -0.17692 0.85285
 C258 C 0.03799 -0.21485 0.87266
 C259 C -0.04896 -0.34711 0.85539
 C260 C -0.04596 -0.30946 0.83531
 C261 C 0.06157 -0.24753 0.91858
 C262 C 0.06399 -0.20966 0.89867
 H263 H -0.07173 -0.38055 0.85049
 H264 H -0.06653 -0.31495 0.81550
 H265 H 0.08215 -0.24204 0.93839
 H266 H 0.08636 -0.17601 0.90369
 H267 H 0.05036 -0.32488 0.95306
 H268 H -0.04936 -0.41270 0.89750
 H269 H -0.03456 -0.23227 0.80079
 H270 H 0.06108 -0.14259 0.85799
 C271 C 0.01321 0.29656 0.88799
 C272 C -0.02055 0.33236 0.88315
 C273 C -0.02369 0.37005 0.90315
 C274 C 0.00648 0.37176 0.92779
 C275 C 0.04054 0.33602 0.93215
 C276 C 0.04398 0.29820 0.91233
 C277 C 0.01584 0.25613 0.86741
 C278 C 0.04903 0.21994 0.87250
 C279 C 0.05053 0.18090 0.85325
 C280 C 0.01893 0.17764 0.82913
 C281 C -0.01362 0.21472 0.82413
 C282 C -0.01541 0.25400 0.84327
 C283 C 0.07713 0.26165 0.91651
 C284 C 0.07963 0.22318 0.89692
 C285 C -0.05086 0.32929 0.85862
 C286 C -0.04835 0.29077 0.83902
 H287 H 0.10109 0.26258 0.93519
 H288 H 0.10544 0.19551 0.90104
 H289 H -0.07701 0.35670 0.85463
 H290 H -0.07264 0.28957 0.82048
 H291 H -0.04999 0.39758 0.89989
 H292 H 0.06386 0.33755 0.95112
 H293 H 0.07620 0.15296 0.85707
 H294 H -0.03844 0.21226 0.80580
 C295 C -0.30802 -0.00151 0.38553
 C296 C -0.33562 -0.04563 0.39141
 C297 C -0.37173 -0.04532 0.41161
 C298 C -0.37966 -0.00144 0.42596
 C299 C -0.35205 0.04249 0.41978
 C300 C -0.31614 0.04272 0.39947
 C301 C -0.26933 -0.00178 0.36473
 C302 C -0.24157 0.04225 0.35899
 C303 C -0.20424 0.04163 0.33957
 C304 C -0.19423 -0.00271 0.32619
 C305 C -0.22264 -0.04649 0.33208
 C306 C -0.26035 -0.04621 0.35130
 C307 C -0.28780 0.08607 0.39304
 C308 C -0.25120 0.08586 0.37309
 C309 C -0.32602 -0.08920 0.37727
 C310 C -0.28896 -0.08951 0.35759
 H311 H -0.29378 0.12040 0.40362
 H312 H -0.23000 0.12005 0.36885
 H313 H -0.34704 -0.12345 0.38162
 H314 H -0.28247 -0.12399 0.34732
 H315 H -0.39305 -0.07910 0.41663
 H316 H -0.35835 0.07614 0.43101
 H317 H -0.18211 0.07532 0.33541
 H318 H -0.21542 -0.08064 0.32167
 C319 C 0.28841 0.00177 0.38978
 C320 C 0.31780 -0.03849 0.39016
 C321 C 0.35708 -0.03897 0.40992
 C322 C 0.36651 0.00021 0.42924
 C323 C 0.33697 0.04038 0.42856
 C324 C 0.29781 0.04140 0.40879
 C325 C 0.24673 0.00224 0.36926
 C326 C 0.21737 0.04248 0.36889
 C327 C 0.17752 0.04255 0.34951
 C328 C 0.16670 0.00255 0.33078
 C329 C 0.19662 -0.03747 0.33142
 C330 C 0.23680 -0.03774 0.35057
 C331 C 0.26767 0.08103 0.40774
 C332 C 0.22817 0.08160 0.38809
 C333 C 0.30701 -0.07758 0.37094
 C334 C 0.26714 -0.07725 0.35152
 H335 H 0.27459 0.11181 0.42227
 H336 H 0.20575 0.11282 0.38802
 H337 H 0.32940 -0.10882 0.37102
 H338 H 0.25992 -0.10826 0.33717
 H339 H 0.37996 -0.06987 0.41060
 H340 H 0.34451 0.07050 0.44351
 H341 H 0.15432 0.07319 0.34935
 H342 H 0.18881 -0.06812 0.31686
   
