data_POSCAR
  _audit_creation_date              2014-09-24
  _audit_creation_method            'ToBaCCo'
  _symmetry_space_group_name_H-M    'P1'
  _symmetry_Int_Tables_number       1
  _symmetry_cell_setting            triclinic
  loop_
  _symmetry_equiv_pos_as_xyz
 x,y,z
_cell_length_a 34.1543
_cell_length_b 33.9148
_cell_length_c 33.8172
_cell_angle_alpha 94.949600
_cell_angle_beta 87.215200
_cell_angle_gamma 85.318000
loop_
  _atom_site_label
  _atom_site_type_symbol
  _atom_site_fract_x
  _atom_site_fract_y
  _atom_site_fract_z
N1 N 0.31064 0.17964 0.20125
 N2 N 0.29312 0.20206 0.17640
 C3 C 0.31956 0.20958 0.14778
 C4 C 0.35565 0.19074 0.15514
 C5 C 0.34887 0.17202 0.18923
 H6 H 0.31294 0.22771 0.12379
 H7 H 0.37034 0.15448 0.20433
 Cu8 Cu 0.23772 0.22013 0.18423
 Cu9 Cu 0.28257 0.16290 0.24771
 Cu10 Cu 0.18789 0.20671 0.26966
 N11 N 0.18803 0.25030 0.20043
 N12 N 0.16857 0.24519 0.23385
 C13 C 0.13621 0.27103 0.23841
 C14 C 0.13556 0.29356 0.20607
 C15 C 0.16884 0.27954 0.18264
 H16 H 0.11542 0.27380 0.26384
 H17 H 0.17892 0.29062 0.15521
 N18 N 0.21313 0.16689 0.30183
 N19 N 0.24915 0.15009 0.29327
 C20 C 0.25803 0.12434 0.32033
 C21 C 0.22625 0.12503 0.34726
 C22 C 0.19820 0.15231 0.33465
 H23 H 0.28565 0.10638 0.32063
 H24 H 0.16909 0.16083 0.34819
 H25 H 0.22535 0.17008 0.22986
 H26 H 0.24574 0.21489 0.25452
 N27 N 0.68272 -0.22893 0.18679
 N28 N 0.69493 -0.26275 0.16635
 C29 C 0.67176 -0.26883 0.13575
 C30 C 0.64337 -0.23719 0.13728
 C31 C 0.65124 -0.21227 0.17012
 H32 H 0.67492 -0.29464 0.11431
 H33 H 0.63523 -0.18451 0.18159
 Cu34 Cu 0.73873 -0.29639 0.18268
 Cu35 Cu 0.70716 -0.21043 0.23473
 Cu36 Cu 0.80028 -0.25568 0.24636
 N37 N 0.79076 -0.32130 0.18897
 N38 N 0.81516 -0.30515 0.21319
 C39 C 0.84866 -0.32923 0.21214
 C40 C 0.84474 -0.36225 0.18583
 C41 C 0.80775 -0.35607 0.17164
 H42 H 0.87332 -0.32354 0.23002
 H43 H 0.79398 -0.37579 0.15073
 N44 N 0.77885 -0.20578 0.27722
 N45 N 0.74318 -0.18911 0.27295
 C46 C 0.73622 -0.15671 0.29893
 C47 C 0.76883 -0.15285 0.32089
 C48 C 0.79546 -0.18441 0.30640
 H49 H 0.70911 -0.13761 0.30221
 H50 H 0.82433 -0.19178 0.31682
 H51 H 0.76044 -0.23305 0.20793
 H52 H 0.74129 -0.26091 0.24888
 N53 N 0.72814 0.22528 0.81129
 N54 N 0.73228 0.26114 0.82772
 C55 C 0.70821 0.26843 0.86066
 C56 C 0.68782 0.23546 0.86509
 C57 C 0.70122 0.20850 0.83323
 H58 H 0.70490 0.29608 0.87948
 H59 H 0.69128 0.17949 0.82573
 Cu60 Cu 0.76682 0.29607 0.80370
 Cu61 Cu 0.75560 0.20453 0.76108
 Cu62 Cu 0.82683 0.26068 0.72434
 N63 N 0.81162 0.32342 0.78711
 N64 N 0.83530 0.30937 0.75644
 C65 C 0.86342 0.33437 0.75149
 C66 C 0.85679 0.36588 0.78070
 C67 C 0.82375 0.35788 0.80275
 H68 H 0.88640 0.33008 0.72802
 H69 H 0.80949 0.37594 0.82816
 N70 N 0.81351 0.21054 0.69646
 N71 N 0.78653 0.18898 0.71067
 C72 C 0.78293 0.15754 0.68436
 C73 C 0.80888 0.15950 0.65199
 C74 C 0.82776 0.19340 0.66067
 H75 H 0.76211 0.13562 0.68802
 H76 H 0.84959 0.20513 0.64176
 H77 H 0.80369 0.23606 0.77322
 H78 H 0.76767 0.25775 0.73923
 N79 N 0.28977 -0.20017 0.81623
 N80 N 0.28071 -0.23411 0.82861
 C81 C 0.30123 -0.24172 0.86039
 C82 C 0.32463 -0.21105 0.86825
 C83 C 0.31668 -0.18502 0.83963
 H84 H 0.30007 -0.26817 0.87599
 H85 H 0.33010 -0.15780 0.83534
 Cu86 Cu 0.24490 -0.26643 0.80090
 Cu87 Cu 0.26800 -0.18061 0.76874
 Cu88 Cu 0.18474 -0.22434 0.73764
 N89 N 0.19739 -0.28939 0.78593
 N90 N 0.17315 -0.27281 0.76194
 C91 C 0.14249 -0.29518 0.75737
 C92 C 0.14821 -0.32736 0.77990
 C93 C 0.18323 -0.32258 0.79754
 H94 H 0.11834 -0.28868 0.73877
 H95 H 0.19737 -0.34189 0.81744
 N96 N 0.20258 -0.17552 0.71676
 N97 N 0.23439 -0.15927 0.72858
 C98 C 0.24030 -0.12816 0.70756
 C99 C 0.21111 -0.12468 0.68101
 C100 C 0.18754 -0.15513 0.68764
 H101 H 0.26478 -0.11001 0.71039
 H102 H 0.16221 -0.16277 0.67159
 H103 H 0.21584 -0.20252 0.78464
 H104 H 0.24444 -0.23024 0.74116
 N105 N 0.69006 -0.18561 0.80375
 N106 N 0.70718 -0.20824 0.82869
 C107 C 0.68150 -0.21186 0.85943
 C108 C 0.64643 -0.19024 0.85316
 C109 C 0.65295 -0.17414 0.81757
 H110 H 0.68784 -0.22904 0.88418
 H111 H 0.63216 -0.15557 0.80269
 Cu112 Cu 0.76105 -0.23144 0.81752
 Cu113 Cu 0.71665 -0.17388 0.75449
 Cu114 Cu 0.81815 -0.18923 0.75290
 N115 N 0.81248 -0.25665 0.79795
 N116 N 0.83530 -0.23921 0.77366
 C117 C 0.86873 -0.26265 0.76438
 C118 C 0.86655 -0.29699 0.78328
 C119 C 0.83043 -0.29211 0.80467
 H120 H 0.89218 -0.25591 0.74402
 H121 H 0.81761 -0.31289 0.82293
 N122 N 0.79054 -0.15409 0.71818
 N123 N 0.75186 -0.15028 0.71709
 C124 C 0.74188 -0.12820 0.68737
 C125 C 0.77606 -0.11779 0.66881
 C126 C 0.80630 -0.13438 0.68929
 H127 H 0.71200 -0.12060 0.67974
 H128 H 0.83750 -0.13385 0.68240
 H129 H 0.76658 -0.21397 0.74922
 H130 H 0.76499 -0.16945 0.78593
 N131 N 0.29902 0.21930 0.83565
 N132 N 0.28162 0.24891 0.85954
 C133 C 0.30404 0.25610 0.89062
 C134 C 0.33759 0.23010 0.88555
 C135 C 0.33343 0.20710 0.85034
 H136 H 0.29752 0.27985 0.91406
 H137 H 0.35412 0.18372 0.83609
 Cu138 Cu 0.23388 0.27837 0.84531
 Cu139 Cu 0.27673 0.20040 0.78614
 Cu140 Cu 0.18142 0.23859 0.77353
 N141 N 0.19317 0.31032 0.82105
 N142 N 0.17229 0.29435 0.79323
 C143 C 0.14608 0.32233 0.78183
 C144 C 0.15101 0.35798 0.80350
 C145 C 0.18107 0.34922 0.82819
 H146 H 0.12537 0.31694 0.75920
 H147 H 0.19328 0.36967 0.84962
 N148 N 0.20616 0.19069 0.74256
 N149 N 0.24287 0.17669 0.74630
 C150 C 0.25183 0.14541 0.71908
 C151 C 0.21934 0.13982 0.69700
 C152 C 0.19084 0.16902 0.71287
 H153 H 0.28016 0.12841 0.71497
 H154 H 0.16152 0.17501 0.70295
 H155 H 0.23849 0.24913 0.77662
 H156 H 0.22194 0.21372 0.81194
 N157 N 0.26364 -0.21672 0.18991
 N158 N 0.25380 -0.24765 0.16762
 C159 C 0.27730 -0.25258 0.13405
 C160 C 0.30318 -0.22325 0.13549
 C161 C 0.29358 -0.20093 0.17140
 H162 H 0.27660 -0.27643 0.11077
 H163 H 0.30805 -0.17597 0.18394
 Cu164 Cu 0.21292 -0.27979 0.18604
 Cu165 Cu 0.23958 -0.20141 0.24286
 Cu166 Cu 0.15982 -0.25103 0.27186
 N167 N 0.17006 -0.30944 0.20442
 N168 N 0.14931 -0.29781 0.23777
 C169 C 0.12207 -0.32354 0.24371
 C170 C 0.12593 -0.35293 0.21236
 C171 C 0.15656 -0.34298 0.18797
 H172 H 0.10131 -0.32106 0.26913
 H173 H 0.16826 -0.35927 0.16046
 N174 N 0.17558 -0.20321 0.30234
 N175 N 0.20609 -0.18443 0.29130
 C176 C 0.21006 -0.15387 0.31857
 C177 C 0.18076 -0.15359 0.34836
 C178 C 0.15950 -0.18522 0.33712
 H179 H 0.23304 -0.13387 0.31719
 H180 H 0.13456 -0.19474 0.35357
 H181 H 0.21838 -0.25523 0.25556
 H182 H 0.18618 -0.22106 0.22813
 N183 N 0.72024 0.19702 0.19510
 N184 N 0.73142 0.22554 0.17423
 C185 C 0.70439 0.23293 0.14735
 C186 C 0.67482 0.20767 0.15189
 C187 C 0.68590 0.18546 0.18240
 H188 H 0.70593 0.25517 0.12640
 H189 H 0.66995 0.16257 0.19452
 Cu190 Cu 0.77988 0.25052 0.18525
 Cu191 Cu 0.75035 0.17701 0.23769
 Cu192 Cu 0.83613 0.22049 0.25784
 N193 N 0.82858 0.27468 0.19725
 N194 N 0.85024 0.26230 0.22559
 C195 C 0.88116 0.28417 0.22909
 C196 C 0.87899 0.31191 0.20168
 C197 C 0.84521 0.30515 0.18177
 H198 H 0.90319 0.28093 0.25076
 H199 H 0.83318 0.32171 0.15858
 N200 N 0.81733 0.17778 0.28746
 N201 N 0.78479 0.16085 0.27965
 C202 C 0.77944 0.13349 0.30560
 C203 C 0.81007 0.13347 0.33095
 C204 C 0.83341 0.16186 0.31865
 H205 H 0.75456 0.11580 0.30668
 H206 H 0.85982 0.17066 0.33206
 H207 H 0.77594 0.22893 0.25220
 H208 H 0.80415 0.19131 0.21569
 C209 C 0.20781 0.02473 0.48213
 C210 C 0.20696 -0.01704 0.47920
 C211 C 0.20452 -0.03656 0.51414
 C212 C 0.20318 -0.01567 0.55206
 C213 C 0.20478 0.02604 0.55498
 C214 C 0.20683 0.04560 0.51998
 H215 H 0.20931 0.07735 0.52224
 H216 H 0.20543 -0.06868 0.51172
 C217 C 0.78371 -0.03162 0.45518
 C218 C 0.78355 0.01008 0.45505
 C219 C 0.78435 0.03356 0.49136
 C220 C 0.78405 0.01655 0.52784
 C221 C 0.78231 -0.02487 0.52791
 C222 C 0.78291 -0.04846 0.49168
 H223 H 0.78210 -0.08031 0.49201
 H224 H 0.78293 0.06557 0.49133
 C225 C 0.47968 0.22419 0.02185
 C226 C 0.48186 0.21987 -0.02032
 C227 C 0.51915 0.21842 -0.04038
 C228 C 0.55358 0.22315 -0.01997
 C229 C 0.55111 0.22879 0.02197
 C230 C 0.51423 0.22874 0.04232
 H231 H 0.51216 0.23393 0.07445
 H232 H 0.52197 0.21371 -0.07238
 C233 C 0.44702 0.79326 -0.01394
 C234 C 0.44371 0.79112 0.02763
 C235 C 0.47816 0.78744 0.04858
 C236 C 0.51572 0.78588 0.02930
 C237 C 0.51909 0.78712 -0.01239
 C238 C 0.48463 0.79069 -0.03336
 H239 H 0.48703 0.78992 -0.06547
 H240 H 0.47575 0.78430 0.08019
 C241 C 0.02773 0.43705 0.18822
 C242 C -0.01391 0.44045 0.18905
 C243 C -0.03390 0.47868 0.19305
 C244 C -0.01358 0.51322 0.19464
 C245 C 0.02800 0.50928 0.19273
 C246 C 0.04806 0.47135 0.18871
 H247 H 0.07998 0.46851 0.18742
 H248 H -0.06569 0.48165 0.19657
 C249 C 0.01752 0.55752 0.75694
 C250 C -0.02395 0.55790 0.76009
 C251 C -0.04126 0.52165 0.75821
 C252 C -0.01831 0.48510 0.75467
 C253 C 0.02310 0.48473 0.75397
 C254 C 0.04049 0.52087 0.75453
 H255 H 0.07227 0.52024 0.75170
 H256 H -0.07300 0.52190 0.75818
 C257 C 0.39380 0.19040 0.13267
 C258 C 0.39832 0.20946 0.09997
 C259 C 0.43698 0.20807 0.07836
 C260 C 0.44134 0.22599 0.04488
 H261 H 0.37344 0.22609 0.08880
 H262 H 0.46196 0.19144 0.08945
 H263 H 0.41895 0.17381 0.14347
 H264 H 0.41584 0.24140 0.03346
 C265 C 0.61302 0.76681 0.11137
 C266 C 0.58557 0.79777 0.11500
 C267 C 0.55205 0.80161 0.08921
 C268 C 0.55091 0.78198 0.05317
 H269 H 0.58596 0.82081 0.13914
 H270 H 0.52760 0.82264 0.10033
 H271 H 0.61167 0.74295 0.08823
 H272 H 0.57633 0.76335 0.04058
 C273 C 0.65602 0.23266 -0.10455
 C274 C 0.63619 0.20030 -0.10276
 C275 C 0.60111 0.19842 -0.07585
 C276 C 0.59155 0.22342 -0.04323
 H277 H 0.64385 0.17472 -0.12390
 H278 H 0.58227 0.17508 -0.08365
 H279 H 0.64779 0.25904 -0.08466
 H280 H 0.61161 0.24476 -0.03344
 C281 C 0.35387 0.79017 -0.10125
 C282 C 0.37790 0.81929 -0.09648
 C283 C 0.41033 0.81841 -0.06913
 C284 C 0.41182 0.79660 -0.03786
 H285 H 0.37605 0.84340 -0.11545
 H286 H 0.43398 0.83680 -0.07527
 H287 H 0.35673 0.76491 -0.08385
 H288 H 0.38688 0.78090 -0.02956
 C289 C 0.10788 0.32739 0.19835
 C290 C 0.07716 0.34105 0.22337
 C291 C 0.05058 0.37694 0.21874
 C292 C 0.05151 0.39858 0.18737
 H293 H 0.07167 0.32635 0.24999
 H294 H 0.02972 0.38671 0.24351
 H295 H 0.11431 0.34174 0.17180
 H296 H 0.07288 0.39114 0.16274
 C297 C 0.12544 0.64082 0.78444
 C298 C 0.09161 0.63636 0.76701
 C299 C 0.07088 0.60054 0.77204
 C300 C 0.03719 0.59484 0.75480
 H301 H 0.07959 0.65834 0.74845
 H302 H 0.08368 0.57826 0.78985
 H303 H 0.13642 0.61829 0.80301
 H304 H 0.02408 0.61795 0.73823
 C305 C -0.12951 0.60377 0.17633
 C306 C -0.09435 0.59814 0.19169
 C307 C -0.07062 0.55986 0.18310
 C308 C -0.03611 0.55291 0.19937
 H309 H -0.08359 0.62090 0.21180
 H310 H -0.08208 0.53675 0.16394
 H311 H -0.13929 0.58044 0.15611
 H312 H -0.02447 0.57700 0.21689
 C313 C -0.12257 0.39954 0.78697
 C314 C -0.09049 0.40561 0.76482
 C315 C -0.07088 0.44245 0.77153
 C316 C -0.03793 0.44768 0.75042
 H317 H -0.07863 0.38369 0.74118
 H318 H -0.08351 0.46549 0.79380
 H319 H -0.13346 0.42174 0.81084
 H320 H -0.02509 0.42381 0.72923
 C321 C 0.22415 0.10112 0.38164
 C322 C 0.19367 0.10541 0.40863
 C323 C 0.19142 0.08252 0.44390
 C324 C 0.21086 0.04681 0.44609
 H325 H 0.16987 0.12801 0.40622
 H326 H 0.17127 0.09506 0.46832
 H327 H 0.24920 0.08029 0.38508
 H328 H 0.22837 0.03286 0.42047
 C329 C 0.81413 0.13325 0.61469
 C330 C 0.79515 0.10050 0.60883
 C331 C 0.79968 0.07573 0.57068
 C332 C 0.78144 0.04237 0.56579
 H333 H 0.77570 0.09188 0.63220
 H334 H 0.81813 0.08470 0.54665
 H335 H 0.83389 0.14140 0.59129
 H336 H 0.76444 0.03326 0.59081
 C337 C 0.20926 -0.09633 0.65029
 C338 C 0.18165 -0.09566 0.62347
 C339 C 0.18157 -0.07036 0.58987
 C340 C 0.20168 -0.03806 0.58801
 H341 H 0.15926 -0.11643 0.62418
 H342 H 0.16347 -0.07890 0.56568
 H343 H 0.23277 -0.07691 0.64900
 H344 H 0.21716 -0.02755 0.61335
 C345 C 0.77187 -0.12232 0.35402
 C346 C 0.80267 -0.12194 0.37705
 C347 C 0.80423 -0.09355 0.41252
 C348 C 0.78353 -0.05793 0.41776
 H349 H 0.82663 -0.14500 0.37175
 H350 H 0.82396 -0.10238 0.43491
 H351 H 0.74675 -0.10078 0.36053
 H352 H 0.76653 -0.04759 0.39402
 C353 C 0.60919 0.81502 -0.12235
 C354 C 0.60355 0.79726 -0.08904
 C355 C 0.56511 0.80287 -0.06666
 C356 C 0.55815 0.78353 -0.03454
 H357 H 0.62696 0.77800 -0.07858
 H358 H 0.54222 0.82306 -0.07672
 H359 H 0.58531 0.83389 -0.13261
 H360 H 0.58187 0.76440 -0.02454
 C361 C 0.37171 0.23021 -0.08931
 C362 C 0.40799 0.21730 -0.10411
 C363 C 0.44352 0.22201 -0.08167
 C364 C 0.44564 0.21554 -0.04313
 H365 H 0.41262 0.20703 -0.13533
 H366 H 0.46861 0.23032 -0.09865
 H367 H 0.36740 0.24434 -0.05927
 H368 H 0.41971 0.20648 -0.02793
 C369 C 0.33622 0.78005 0.10646
 C370 C 0.36126 0.80836 0.11127
 C371 C 0.39753 0.81015 0.08597
 C372 C 0.40491 0.79110 0.04960
 H373 H 0.35697 0.83010 0.13677
 H374 H 0.41923 0.82853 0.09835
 H375 H 0.34080 0.75727 0.08189
 H376 H 0.38244 0.77504 0.03572
 C377 C 0.63857 0.20407 0.13026
 C378 C 0.63010 0.22410 0.09898
 C379 C 0.59367 0.21832 0.07818
 C380 C 0.58668 0.23522 0.04462
 H381 H 0.65029 0.24428 0.08818
 H382 H 0.57297 0.19900 0.08975
 H383 H 0.61835 0.18350 0.14029
 H384 H 0.60846 0.25317 0.03281
 C385 C -0.10539 0.67032 0.77867
 C386 C -0.10975 0.63663 0.79591
 C387 C -0.08185 0.60052 0.78997
 C388 C -0.04965 0.59570 0.76498
 H389 H -0.13542 0.63446 0.81537
 H390 H -0.08881 0.57635 0.80731
 H391 H -0.07964 0.67302 0.75959
 H392 H -0.04147 0.61954 0.74808
 C393 C -0.09372 0.34310 0.19826
 C394 C -0.09729 0.37067 0.17231
 C395 C -0.07225 0.40431 0.17155
 C396 C -0.03669 0.40472 0.18699
 H397 H -0.12127 0.37057 0.15253
 H398 H -0.08390 0.42960 0.15703
 H399 H -0.07099 0.34396 0.21941
 H400 H -0.02358 0.37792 0.19765
 C401 C 0.12944 0.39722 0.80143
 C402 C 0.10108 0.40319 0.77614
 C403 C 0.07897 0.44230 0.77565
 C404 C 0.04833 0.44682 0.75276
 H405 H 0.09334 0.37884 0.75600
 H406 H 0.08666 0.46707 0.79535
 H407 H 0.13693 0.42174 0.82157
 H408 H 0.04026 0.42124 0.73455
 C409 C 0.10333 0.61202 0.20563
 C410 C 0.07573 0.60300 0.23219
 C411 C 0.05240 0.56813 0.22750
 C412 C 0.05169 0.54389 0.19413
 H413 H 0.06993 0.62166 0.25977
 H414 H 0.03421 0.56255 0.25325
 H415 H 0.11049 0.59324 0.17837
 H416 H 0.07014 0.54738 0.16804
 C417 C 0.78045 -0.09613 0.63319
 C418 C 0.75103 -0.09054 0.60896
 C419 C 0.75508 -0.07134 0.57168
 C420 C 0.78040 -0.04404 0.56559
 H421 H 0.72332 -0.10283 0.61496
 H422 H 0.73471 -0.07862 0.54912
 H423 H 0.80924 -0.08678 0.62574
 H424 H 0.79827 -0.03367 0.58928
 C425 C 0.17421 -0.12734 0.38560
 C426 C 0.19530 -0.09644 0.39383
 C427 C 0.18947 -0.07219 0.43227
 C428 C 0.21024 -0.04092 0.44005
 H429 H 0.21757 -0.08917 0.37240
 H430 H 0.16823 -0.08011 0.45446
 H431 H 0.15166 -0.13404 0.40707
 H432 H 0.23047 -0.03291 0.41704
 C433 C 0.81622 0.11075 0.36565
 C434 C 0.79463 0.08116 0.37406
 C435 C 0.80050 0.06074 0.41025
 C436 C 0.78048 0.02970 0.41765
 H437 H 0.77214 0.07217 0.35449
 H438 H 0.82118 0.07135 0.43118
 H439 H 0.83924 0.11887 0.38498
 H440 H 0.76093 0.01873 0.39579
 C441 C 0.21742 0.11058 0.66230
 C442 C 0.18681 0.11125 0.63889
 C443 C 0.18530 0.08519 0.60173
 C444 C 0.20576 0.04967 0.59398
 H445 H 0.16263 0.13391 0.64519
 H446 H 0.16540 0.09564 0.58015
 H447 H 0.24285 0.08960 0.65492
 H448 H 0.22335 0.03765 0.61653
   
