data_POSCAR
  _audit_creation_date              2014-09-24
  _audit_creation_method            'ToBaCCo'
  _symmetry_space_group_name_H-M    'P1'
  _symmetry_Int_Tables_number       1
  _symmetry_cell_setting            triclinic
  loop_
  _symmetry_equiv_pos_as_xyz
 x,y,z
_cell_length_a 43.9510
_cell_length_b 44.0169
_cell_length_c 44.1710
_cell_angle_alpha 89.999400
_cell_angle_beta 89.998800
_cell_angle_gamma 90.004600
loop_
  _atom_site_label
  _atom_site_type_symbol
  _atom_site_fract_x
  _atom_site_fract_y
  _atom_site_fract_z
N1 N 0.29857 0.23777 0.21391
 N2 N 0.28600 0.26212 0.20200
 C3 C 0.30217 0.27065 0.17750
 C4 C 0.32592 0.25050 0.17407
 C5 C 0.32309 0.22992 0.19740
 H6 H 0.29714 0.28997 0.16324
 H7 H 0.33771 0.21069 0.20195
 Cu8 Cu 0.24984 0.28006 0.21994
 Cu9 Cu 0.28221 0.21798 0.24986
 Cu10 Cu 0.21758 0.25019 0.28198
 N11 N 0.21375 0.29810 0.23790
 N12 N 0.20128 0.28624 0.26226
 C13 C 0.17681 0.30284 0.27014
 C14 C 0.17398 0.32623 0.24964
 C15 C 0.19764 0.32274 0.22947
 H16 H 0.16216 0.29823 0.28927
 H17 H 0.20266 0.33707 0.21023
 N18 N 0.23759 0.21367 0.29847
 N19 N 0.26216 0.20141 0.28626
 C20 C 0.27030 0.17692 0.30268
 C21 C 0.24989 0.17379 0.32612
 C22 C 0.22949 0.19729 0.32295
 H23 H 0.28959 0.16242 0.29802
 H24 H 0.21023 0.20204 0.33743
 H25 H 0.23757 0.23160 0.24394
 H26 H 0.26202 0.25613 0.26825
 N27 N 0.70096 -0.23791 0.21312
 N28 N 0.71346 -0.26233 0.20124
 C29 C 0.69736 -0.27074 0.17664
 C30 C 0.67366 -0.25052 0.17322
 C31 C 0.67644 -0.23000 0.19660
 H32 H 0.70241 -0.29006 0.16234
 H33 H 0.66176 -0.21085 0.20130
 Cu34 Cu 0.74964 -0.28040 0.21924
 Cu35 Cu 0.71724 -0.21820 0.24912
 Cu36 Cu 0.78189 -0.25045 0.28119
 N37 N 0.78588 -0.29845 0.23716
 N38 N 0.79840 -0.28650 0.26148
 C39 C 0.82292 -0.30309 0.26936
 C40 C 0.82583 -0.32647 0.24881
 C41 C 0.80211 -0.32301 0.22865
 H42 H 0.83744 -0.29852 0.28860
 H43 H 0.79708 -0.33732 0.20937
 N44 N 0.76181 -0.21394 0.29779
 N45 N 0.73724 -0.20168 0.28559
 C46 C 0.72908 -0.17718 0.30201
 C47 C 0.74947 -0.17404 0.32547
 C48 C 0.76989 -0.19754 0.32228
 H49 H 0.70980 -0.16267 0.29732
 H50 H 0.78916 -0.20225 0.33676
 H51 H 0.76162 -0.23190 0.24318
 H52 H 0.73719 -0.25632 0.26756
 N53 N 0.70158 0.23790 0.78597
 N54 N 0.71413 0.26226 0.79792
 C55 C 0.69793 0.27070 0.82244
 C56 C 0.67419 0.25051 0.82583
 C57 C 0.67707 0.22998 0.80246
 H58 H 0.70291 0.29001 0.83674
 H59 H 0.66250 0.21072 0.79786
 Cu60 Cu 0.75037 0.28032 0.78000
 Cu61 Cu 0.71795 0.21816 0.75003
 Cu62 Cu 0.78255 0.25038 0.71797
 N63 N 0.78658 0.29840 0.76198
 N64 N 0.79903 0.28651 0.73761
 C65 C 0.82355 0.30308 0.72970
 C66 C 0.82645 0.32652 0.75020
 C67 C 0.80277 0.32304 0.77040
 H68 H 0.83816 0.29837 0.71055
 H69 H 0.79774 0.33736 0.78967
 N70 N 0.76252 0.21383 0.70142
 N71 N 0.73795 0.20158 0.71363
 C72 C 0.72978 0.17708 0.69723
 C73 C 0.75015 0.17391 0.67378
 C74 C 0.77058 0.19741 0.67693
 H75 H 0.71047 0.16259 0.70193
 H76 H 0.78983 0.20213 0.66244
 H77 H 0.76246 0.23182 0.75619
 H78 H 0.73797 0.25636 0.73183
 N79 N 0.29873 -0.23802 0.78669
 N80 N 0.28583 -0.26203 0.79897
 C81 C 0.30205 -0.27053 0.82346
 C82 C 0.32615 -0.25069 0.82651
 C83 C 0.32349 -0.23038 0.80293
 H84 H 0.29682 -0.28961 0.83799
 H85 H 0.33842 -0.21147 0.79800
 Cu86 Cu 0.24927 -0.27948 0.78114
 Cu87 Cu 0.28253 -0.21830 0.75058
 Cu88 Cu 0.21785 -0.25058 0.71848
 N89 N 0.21342 -0.29816 0.76306
 N90 N 0.20131 -0.28663 0.73833
 C91 C 0.17707 -0.30347 0.73018
 C92 C 0.17397 -0.32669 0.75089
 C93 C 0.19729 -0.32285 0.77146
 H94 H 0.16281 -0.29913 0.71069
 H95 H 0.20210 -0.33692 0.79096
 N96 N 0.23799 -0.21408 0.70186
 N97 N 0.26256 -0.20182 0.71406
 C98 C 0.27068 -0.17728 0.69769
 C99 C 0.25029 -0.17413 0.67424
 C100 C 0.22988 -0.19765 0.67740
 H101 H 0.28994 -0.16274 0.70241
 H102 H 0.21059 -0.20234 0.66295
 H103 H 0.23794 -0.23136 0.75621
 H104 H 0.26237 -0.25658 0.73263
 N105 N 0.70186 -0.23792 0.78643
 N106 N 0.71480 -0.26191 0.79872
 C107 C 0.69862 -0.27040 0.82324
 C108 C 0.67452 -0.25058 0.82629
 C109 C 0.67712 -0.23028 0.80270
 H110 H 0.70389 -0.28946 0.83777
 H111 H 0.66218 -0.21139 0.79778
 Cu112 Cu 0.75130 -0.27934 0.78086
 Cu113 Cu 0.71798 -0.21822 0.75029
 Cu114 Cu 0.78261 -0.25050 0.71812
 N115 N 0.78709 -0.29801 0.76275
 N116 N 0.79916 -0.28651 0.73799
 C117 C 0.82338 -0.30335 0.72982
 C118 C 0.82648 -0.32653 0.75056
 C119 C 0.80321 -0.32267 0.77116
 H120 H 0.83762 -0.29905 0.71031
 H121 H 0.79844 -0.33673 0.79068
 N122 N 0.76244 -0.21404 0.70150
 N123 N 0.73789 -0.20178 0.71374
 C124 C 0.72972 -0.17727 0.69736
 C125 C 0.75007 -0.17413 0.67388
 C126 C 0.77050 -0.19763 0.67702
 H127 H 0.71047 -0.16274 0.70210
 H128 H 0.78977 -0.20232 0.66254
 H129 H 0.73813 -0.25653 0.73235
 H130 H 0.76260 -0.23127 0.75586
 N131 N 0.29865 0.23766 0.78617
 N132 N 0.28616 0.26209 0.79800
 C133 C 0.30221 0.27048 0.82263
 C134 C 0.32587 0.25024 0.82610
 C135 C 0.32308 0.22972 0.80274
 H136 H 0.29713 0.28974 0.83694
 H137 H 0.33775 0.21053 0.79811
 Cu138 Cu 0.25006 0.28008 0.78005
 Cu139 Cu 0.28235 0.21791 0.75017
 Cu140 Cu 0.21775 0.25011 0.71806
 N141 N 0.21396 0.29806 0.76210
 N142 N 0.20142 0.28611 0.73782
 C143 C 0.17688 0.30261 0.72999
 C144 C 0.17399 0.32595 0.75052
 C145 C 0.19770 0.32257 0.77064
 H146 H 0.16230 0.29803 0.71079
 H147 H 0.20265 0.33684 0.78993
 N148 N 0.23781 0.21367 0.70152
 N149 N 0.26238 0.20141 0.71372
 C150 C 0.27050 0.17690 0.69733
 C151 C 0.25009 0.17378 0.67390
 C152 C 0.22969 0.19728 0.67705
 H153 H 0.28975 0.16236 0.70203
 H154 H 0.21041 0.20199 0.66260
 H155 H 0.26228 0.25613 0.73165
 H156 H 0.23780 0.23168 0.75608
 N157 N 0.29878 -0.23775 0.21400
 N158 N 0.28592 -0.26175 0.20170
 C159 C 0.30213 -0.27021 0.17721
 C160 C 0.32621 -0.25041 0.17421
 C161 C 0.32356 -0.23010 0.19778
 H162 H 0.29685 -0.28923 0.16263
 H163 H 0.33849 -0.21121 0.20273
 Cu164 Cu 0.24924 -0.27953 0.21876
 Cu165 Cu 0.28243 -0.21817 0.24995
 Cu166 Cu 0.21788 -0.25023 0.28188
 N167 N 0.21358 -0.29766 0.23748
 N168 N 0.20146 -0.28609 0.26215
 C169 C 0.17717 -0.30284 0.27025
 C170 C 0.17409 -0.32599 0.24953
 C171 C 0.19740 -0.32223 0.22905
 H172 H 0.16285 -0.29853 0.28969
 H173 H 0.20211 -0.33630 0.20954
 N174 N 0.23789 -0.21387 0.29849
 N175 N 0.26248 -0.20164 0.28634
 C176 C 0.27060 -0.17714 0.30274
 C177 C 0.25015 -0.17400 0.32614
 C178 C 0.22973 -0.19748 0.32294
 H179 H 0.28988 -0.16262 0.29808
 H180 H 0.21041 -0.20219 0.33735
 H181 H 0.26215 -0.25682 0.26753
 H182 H 0.23773 -0.23148 0.24391
 N183 N 0.70131 0.23763 0.21379
 N184 N 0.71385 0.26199 0.20187
 C185 C 0.69771 0.27044 0.17733
 C186 C 0.67402 0.25023 0.17391
 C187 C 0.67683 0.22971 0.19727
 H188 H 0.70272 0.28974 0.16304
 H189 H 0.66216 0.21054 0.20194
 Cu190 Cu 0.74981 0.28023 0.21987
 Cu191 Cu 0.71763 0.21795 0.24977
 Cu192 Cu 0.78216 0.25011 0.28186
 N193 N 0.78606 0.29796 0.23778
 N194 N 0.79851 0.28607 0.26213
 C195 C 0.82302 0.30259 0.27001
 C196 C 0.82590 0.32594 0.24949
 C197 C 0.80224 0.32254 0.22934
 H198 H 0.83757 0.29803 0.28923
 H199 H 0.79727 0.33688 0.21009
 N200 N 0.76213 0.21369 0.29841
 N201 N 0.73757 0.20144 0.28620
 C202 C 0.72945 0.17692 0.30259
 C203 C 0.74985 0.17379 0.32601
 C204 C 0.77026 0.19730 0.32286
 H205 H 0.71019 0.16238 0.29789
 H206 H 0.78954 0.20202 0.33732
 H207 H 0.73763 0.25632 0.26820
 H208 H 0.76214 0.23187 0.24373
 O209 O 0.27512 0.02941 0.47059
 O210 O 0.27523 -0.02972 0.52958
 O211 O 0.27516 -0.02971 0.47061
 O212 O 0.27515 0.02941 0.52953
 O213 O 0.22497 0.02936 0.52957
 O214 O 0.22498 -0.02976 0.47065
 O215 O 0.22504 -0.02977 0.52962
 O216 O 0.22494 0.02936 0.47063
 Cu217 Cu 0.28021 -0.00015 0.50007
 Cu218 Cu 0.21993 -0.00021 0.50012
 C219 C 0.25002 0.03951 0.46049
 C220 C 0.25015 -0.03986 0.53973
 C221 C 0.25007 -0.03985 0.46051
 C222 C 0.25006 0.03951 0.53966
 O223 O 0.72475 0.02936 0.52932
 O224 O 0.72463 -0.02977 0.47031
 O225 O 0.72474 -0.02979 0.52930
 O226 O 0.72475 0.02936 0.47037
 O227 O 0.77493 0.02931 0.47032
 O228 O 0.77493 -0.02984 0.52924
 O229 O 0.77481 -0.02982 0.47025
 O230 O 0.77494 0.02931 0.52927
 Cu231 Cu 0.71968 -0.00021 0.49983
 Cu232 Cu 0.77995 -0.00027 0.49977
 C233 C 0.74986 0.03947 0.53941
 C234 C 0.74969 -0.03990 0.46014
 C235 C 0.74984 -0.03993 0.53939
 C236 C 0.74984 0.03947 0.46024
 O237 O 0.47038 0.27582 0.02943
 O238 O 0.52960 0.27581 -0.02954
 O239 O 0.47039 0.27582 -0.02950
 O240 O 0.52957 0.27583 0.02942
 O241 O 0.52957 0.22571 0.02943
 O242 O 0.47038 0.22571 -0.02949
 O243 O 0.52959 0.22570 -0.02953
 O244 O 0.47037 0.22571 0.02944
 Cu245 Cu 0.49999 0.28086 -0.00005
 Cu246 Cu 0.49998 0.22066 -0.00004
 C247 C 0.46024 0.25077 0.03955
 C248 C 0.53973 0.25075 -0.03966
 C249 C 0.46025 0.25076 -0.03960
 C250 C 0.53970 0.25077 0.03954
 O251 O 0.53016 0.72421 0.02995
 O252 O 0.47093 0.72423 -0.02902
 O253 O 0.53014 0.72425 -0.02902
 O254 O 0.47094 0.72420 0.02992
 O255 O 0.47093 0.77431 0.02994
 O256 O 0.53013 0.77436 -0.02900
 O257 O 0.47092 0.77434 -0.02901
 O258 O 0.53015 0.77432 0.02997
 Cu259 Cu 0.50055 0.71918 0.00046
 Cu260 Cu 0.50053 0.77937 0.00048
 C261 C 0.54029 0.74927 0.04008
 C262 C 0.46078 0.74928 -0.03914
 C263 C 0.54026 0.74931 -0.03914
 C264 C 0.46079 0.74925 0.04004
 O265 O 0.02913 0.47088 0.27404
 O266 O -0.03016 0.53003 0.27390
 O267 O -0.03000 0.47088 0.27402
 O268 O 0.02910 0.52993 0.27402
 O269 O 0.02916 0.52988 0.22408
 O270 O -0.02994 0.47081 0.22407
 O271 O -0.03010 0.52997 0.22396
 O272 O 0.02917 0.47083 0.22409
 Cu273 Cu -0.00051 0.50046 0.27903
 Cu274 Cu -0.00044 0.50039 0.21902
 C275 C 0.03930 0.46072 0.24908
 C276 C -0.04031 0.54013 0.24890
 C277 C -0.04005 0.46068 0.24905
 C278 C 0.03930 0.53997 0.24905
 O279 O 0.02963 0.52987 0.72587
 O280 O -0.02976 0.47060 0.72580
 O281 O -0.02971 0.52988 0.72581
 O282 O 0.02948 0.47072 0.72582
 O283 O 0.02945 0.47069 0.77576
 O284 O -0.02975 0.52985 0.77574
 O285 O -0.02979 0.47058 0.77573
 O286 O 0.02960 0.52984 0.77580
 Cu287 Cu -0.00011 0.50029 0.72082
 Cu288 Cu -0.00015 0.50025 0.78076
 C289 C 0.03984 0.53997 0.75085
 C290 C -0.03992 0.46039 0.75076
 C291 C -0.03988 0.54002 0.75077
 C292 C 0.03961 0.46058 0.75079
 C293 C 0.39118 0.25080 0.10838
 C294 C 0.40249 0.22329 0.09718
 C295 C 0.42497 0.22324 0.07478
 C296 C 0.34882 0.25074 0.15089
 C297 C 0.42496 0.27832 0.07475
 C298 C 0.40247 0.27830 0.09714
 C299 C 0.36810 0.25081 0.13148
 C300 C 0.43645 0.25078 0.06329
 H301 H 0.39394 0.20186 0.10576
 H302 H 0.43334 0.20166 0.06649
 H303 H 0.43332 0.29990 0.06643
 H304 H 0.39391 0.29972 0.10569
 C305 C 0.60935 0.74921 0.10896
 C306 C 0.59806 0.72173 0.09769
 C307 C 0.57557 0.72171 0.07529
 C308 C 0.65187 0.74924 0.15136
 C309 C 0.57556 0.77679 0.07535
 C310 C 0.59805 0.77673 0.09775
 C311 C 0.63250 0.74917 0.13203
 C312 C 0.56408 0.74926 0.06384
 H313 H 0.60662 0.70030 0.10623
 H314 H 0.56721 0.70013 0.06696
 H315 H 0.56718 0.79837 0.06706
 H316 H 0.60659 0.79816 0.10633
 C317 C 0.60881 0.25075 -0.10852
 C318 C 0.59749 0.22324 -0.09730
 C319 C 0.57500 0.22321 -0.07490
 C320 C 0.65123 0.25069 -0.15102
 C321 C 0.57502 0.27828 -0.07489
 C322 C 0.59751 0.27825 -0.09729
 C323 C 0.63191 0.25074 -0.13162
 C324 C 0.56352 0.25075 -0.06342
 H325 H 0.60602 0.20181 -0.10587
 H326 H 0.56662 0.20163 -0.06659
 H327 H 0.56666 0.29987 -0.06658
 H328 H 0.60607 0.29967 -0.10585
 C329 C 0.39175 0.74920 -0.10804
 C330 C 0.40306 0.72172 -0.09678
 C331 C 0.42553 0.72172 -0.07437
 C332 C 0.34919 0.74912 -0.15041
 C333 C 0.42550 0.77679 -0.07440
 C334 C 0.40302 0.77673 -0.09682
 C335 C 0.36858 0.74913 -0.13109
 C336 C 0.43700 0.74927 -0.06290
 H337 H 0.39451 0.70029 -0.10532
 H338 H 0.43390 0.70015 -0.06603
 H339 H 0.43384 0.79839 -0.06609
 H340 H 0.39445 0.79815 -0.10538
 C341 C 0.10843 0.39178 0.24915
 C342 C 0.09716 0.40301 0.22173
 C343 C 0.07465 0.42545 0.22168
 C344 C 0.15099 0.34937 0.24933
 C345 C 0.07461 0.42546 0.27657
 C346 C 0.09711 0.40302 0.27655
 C347 C 0.13161 0.36872 0.24919
 C348 C 0.06312 0.43694 0.24911
 H349 H 0.10577 0.39444 0.20039
 H350 H 0.06630 0.43377 0.20016
 H351 H 0.06622 0.43379 0.29807
 H352 H 0.10569 0.39445 0.29791
 C353 C 0.10946 0.60880 0.75099
 C354 C 0.09809 0.59759 0.72357
 C355 C 0.07546 0.57521 0.72348
 C356 C 0.15219 0.65129 0.75104
 C357 C 0.07542 0.57514 0.77835
 C358 C 0.09804 0.59752 0.77836
 C359 C 0.13276 0.63189 0.75105
 C360 C 0.06384 0.56371 0.75089
 H361 H 0.10670 0.60617 0.70223
 H362 H 0.06710 0.56692 0.70195
 H363 H 0.06702 0.56681 0.79984
 H364 H 0.10662 0.60604 0.79973
 C365 C -0.10974 0.60900 0.24866
 C366 C -0.09839 0.59783 0.27610
 C367 C -0.07580 0.57544 0.27622
 C368 C -0.15241 0.65151 0.24863
 C369 C -0.07573 0.57532 0.22135
 C370 C -0.09832 0.59771 0.22130
 C371 C -0.13301 0.63209 0.24860
 C372 C -0.06421 0.56390 0.24883
 H373 H -0.10702 0.60641 0.29743
 H374 H -0.06744 0.56717 0.29776
 H375 H -0.06731 0.56695 0.19987
 H376 H -0.10689 0.60620 0.19991
 C377 C -0.10907 0.39109 0.75071
 C378 C -0.09778 0.40240 0.77812
 C379 C -0.07527 0.42490 0.77817
 C380 C -0.15171 0.34848 0.75047
 C381 C -0.07521 0.42489 0.72331
 C382 C -0.09772 0.40239 0.72333
 C383 C -0.13230 0.36791 0.75064
 C384 C -0.06373 0.43646 0.75074
 H385 H -0.10637 0.39384 0.79947
 H386 H -0.06692 0.43324 0.79969
 H387 H -0.06683 0.43321 0.70180
 H388 H -0.10627 0.39381 0.70197
 C389 C 0.24993 0.10841 0.39159
 C390 C 0.22240 0.09714 0.40286
 C391 C 0.22239 0.07472 0.42528
 C392 C 0.24991 0.15079 0.34916
 C393 C 0.27755 0.07475 0.42524
 C394 C 0.27749 0.09717 0.40281
 C395 C 0.24992 0.13148 0.36851
 C396 C 0.24998 0.06327 0.43674
 H397 H 0.20093 0.10569 0.39432
 H398 H 0.20078 0.06638 0.43363
 H399 H 0.29918 0.06642 0.43354
 H400 H 0.29893 0.10573 0.39423
 C401 C 0.74996 0.10839 0.60835
 C402 C 0.77749 0.09712 0.59706
 C403 C 0.77749 0.07469 0.57463
 C404 C 0.75007 0.15086 0.65074
 C405 C 0.72234 0.07470 0.57470
 C406 C 0.72240 0.09713 0.59713
 C407 C 0.75001 0.13150 0.63143
 C408 C 0.74990 0.06323 0.56318
 H409 H 0.79896 0.10566 0.60559
 H410 H 0.79909 0.06636 0.56628
 H411 H 0.70071 0.06637 0.56639
 H412 H 0.70096 0.10568 0.60571
 C413 C 0.25027 -0.10865 0.60879
 C414 C 0.27780 -0.09737 0.59749
 C415 C 0.27779 -0.07499 0.57502
 C416 C 0.25030 -0.15106 0.65123
 C417 C 0.22264 -0.07506 0.57505
 C418 C 0.22271 -0.09744 0.59752
 C419 C 0.25030 -0.13172 0.63190
 C420 C 0.25020 -0.06358 0.56353
 H421 H 0.29927 -0.10588 0.60605
 H422 H 0.29939 -0.06665 0.56666
 H423 H 0.20101 -0.06677 0.56672
 H424 H 0.20127 -0.10600 0.60611
 C425 C 0.74950 -0.10862 0.39100
 C426 C 0.72199 -0.09734 0.40231
 C427 C 0.72202 -0.07499 0.42481
 C428 C 0.74944 -0.15100 0.34851
 C429 C 0.77717 -0.07509 0.42476
 C430 C 0.77707 -0.09745 0.40226
 C431 C 0.74945 -0.13167 0.36786
 C432 C 0.74963 -0.06360 0.43631
 H433 H 0.70050 -0.10583 0.39375
 H434 H 0.70043 -0.06663 0.43318
 H435 H 0.79881 -0.06682 0.43309
 H436 H 0.79850 -0.10601 0.39366
 C437 C 0.60912 0.74928 -0.10815
 C438 C 0.59786 0.72179 -0.09687
 C439 C 0.57545 0.72177 -0.07441
 C440 C 0.65154 0.74923 -0.15060
 C441 C 0.57545 0.77685 -0.07444
 C442 C 0.59786 0.77680 -0.09691
 C443 C 0.63221 0.74923 -0.13124
 C444 C 0.56400 0.74932 -0.06292
 H445 H 0.60640 0.70036 -0.10543
 H446 H 0.56711 0.70019 -0.06606
 H447 H 0.56710 0.79844 -0.06611
 H448 H 0.60640 0.79823 -0.10550
 C449 C 0.39128 0.25074 -0.10844
 C450 C 0.40256 0.22324 -0.09721
 C451 C 0.42502 0.22321 -0.07480
 C452 C 0.34883 0.25055 -0.15082
 C453 C 0.42499 0.27829 -0.07481
 C454 C 0.40253 0.27825 -0.09721
 C455 C 0.36816 0.25070 -0.13148
 C456 C 0.43648 0.25076 -0.06334
 H457 H 0.39401 0.20180 -0.10577
 H458 H 0.43338 0.20163 -0.06648
 H459 H 0.43334 0.29988 -0.06648
 H460 H 0.39396 0.29966 -0.10578
 C461 C 0.39169 0.74918 0.10878
 C462 C 0.40298 0.77669 0.09758
 C463 C 0.42548 0.77675 0.07521
 C464 C 0.34921 0.74931 0.15115
 C465 C 0.42548 0.72167 0.07517
 C466 C 0.40298 0.72168 0.09754
 C467 C 0.36856 0.74919 0.13182
 C468 C 0.43698 0.74922 0.06374
 H469 H 0.39438 0.79811 0.10613
 H470 H 0.43385 0.79835 0.06693
 H471 H 0.43386 0.70009 0.06686
 H472 H 0.39439 0.70025 0.10606
 C473 C 0.60866 0.25077 0.10839
 C474 C 0.59737 0.22327 0.09717
 C475 C 0.57491 0.22323 0.07477
 C476 C 0.65105 0.25055 0.15083
 C477 C 0.57495 0.27832 0.07475
 C478 C 0.59741 0.27828 0.09715
 C479 C 0.63173 0.25072 0.13147
 C480 C 0.56346 0.25078 0.06329
 H481 H 0.60592 0.20184 0.10574
 H482 H 0.56654 0.20165 0.06646
 H483 H 0.56660 0.29990 0.06642
 H484 H 0.60599 0.29970 0.10571
 C485 C -0.10913 0.60898 0.75077
 C486 C -0.09780 0.59773 0.77817
 C487 C -0.07526 0.57530 0.77821
 C488 C -0.15176 0.65148 0.75073
 C489 C -0.07522 0.57534 0.72333
 C490 C -0.09776 0.59776 0.72336
 C491 C -0.13237 0.63208 0.75078
 C492 C -0.06371 0.56382 0.75077
 H493 H -0.10639 0.60628 0.79952
 H494 H -0.06690 0.56696 0.79972
 H495 H -0.06682 0.56702 0.70182
 H496 H -0.10632 0.60634 0.70201
 C497 C -0.10888 0.39164 0.24911
 C498 C -0.09764 0.40292 0.27651
 C499 C -0.07518 0.42537 0.27653
 C500 C -0.15122 0.34912 0.24927
 C501 C -0.07516 0.42530 0.22162
 C502 C -0.09762 0.40284 0.22168
 C503 C -0.13194 0.36853 0.24916
 C504 C -0.06373 0.43684 0.24906
 H505 H -0.10622 0.39435 0.29787
 H506 H -0.06682 0.43373 0.29803
 H507 H -0.06677 0.43360 0.20010
 H508 H -0.10618 0.39421 0.20034
 C509 C 0.10870 0.39166 0.75079
 C510 C 0.09742 0.40290 0.72337
 C511 C 0.07492 0.42534 0.72334
 C512 C 0.15109 0.34914 0.75073
 C513 C 0.07492 0.42533 0.77824
 C514 C 0.09742 0.40289 0.77820
 C515 C 0.13180 0.36856 0.75079
 C516 C 0.06342 0.43681 0.75079
 H517 H 0.10602 0.39433 0.70202
 H518 H 0.06655 0.43367 0.70182
 H519 H 0.06655 0.43365 0.79975
 H520 H 0.10601 0.39431 0.79954
 C521 C 0.10865 0.60850 0.24911
 C522 C 0.09728 0.59735 0.27652
 C523 C 0.07470 0.57502 0.27653
 C524 C 0.15115 0.65088 0.24927
 C525 C 0.07481 0.57497 0.22162
 C526 C 0.09739 0.59730 0.22168
 C527 C 0.13181 0.63152 0.24915
 C528 C 0.06320 0.56359 0.24907
 H529 H 0.10585 0.60592 0.29787
 H530 H 0.06626 0.56672 0.29803
 H531 H 0.06645 0.56663 0.20010
 H532 H 0.10605 0.60584 0.20034
 C533 C 0.74989 -0.10869 0.60843
 C534 C 0.77743 -0.09749 0.59710
 C535 C 0.77744 -0.07511 0.57463
 C536 C 0.74999 -0.15109 0.65087
 C537 C 0.72228 -0.07506 0.57474
 C538 C 0.72234 -0.09743 0.59721
 C539 C 0.74994 -0.13176 0.63153
 C540 C 0.74985 -0.06365 0.56318
 H541 H 0.79889 -0.10604 0.60563
 H542 H 0.79905 -0.06682 0.56625
 H543 H 0.70066 -0.06672 0.56644
 H544 H 0.70089 -0.10595 0.60583
 C545 C 0.25007 -0.10864 0.39157
 C546 C 0.22252 -0.09744 0.40285
 C547 C 0.22249 -0.07505 0.42530
 C548 C 0.25012 -0.15099 0.34915
 C549 C 0.27765 -0.07499 0.42524
 C550 C 0.27762 -0.09738 0.40280
 C551 C 0.25009 -0.13168 0.36848
 C552 C 0.25007 -0.06357 0.43675
 H553 H 0.20107 -0.10602 0.39431
 H554 H 0.20087 -0.06674 0.43365
 H555 H 0.29927 -0.06664 0.43355
 H556 H 0.29908 -0.10591 0.39421
 C557 C 0.74988 0.10837 0.39139
 C558 C 0.72233 0.09714 0.40264
 C559 C 0.72228 0.07471 0.42505
 C560 C 0.74987 0.15077 0.34901
 C561 C 0.77744 0.07467 0.42502
 C562 C 0.77742 0.09710 0.40261
 C563 C 0.74988 0.13144 0.36833
 C564 C 0.74985 0.06322 0.43650
 H565 H 0.70088 0.10572 0.39409
 H566 H 0.70066 0.06639 0.43337
 H567 H 0.79905 0.06631 0.43334
 H568 H 0.79888 0.10564 0.39405
 C569 C 0.25004 0.10837 0.60853
 C570 C 0.27759 0.09715 0.59728
 C571 C 0.27763 0.07474 0.57485
 C572 C 0.25007 0.15075 0.65091
 C573 C 0.22246 0.07470 0.57487
 C574 C 0.22249 0.09711 0.59729
 C575 C 0.25004 0.13142 0.63159
 C576 C 0.25005 0.06326 0.56339
 H577 H 0.29904 0.10571 0.60583
 H578 H 0.29925 0.06642 0.56652
 H579 H 0.20085 0.06635 0.56655
 H580 H 0.20103 0.10565 0.60586
   
