data_POSCAR
  _audit_creation_date              2014-09-24
  _audit_creation_method            'ToBaCCo'
  _symmetry_space_group_name_H-M    'P1'
  _symmetry_Int_Tables_number       1
  _symmetry_cell_setting            triclinic
  loop_
  _symmetry_equiv_pos_as_xyz
 x,y,z
_cell_length_a 29.9676
_cell_length_b 30.1632
_cell_length_c 8.8493
_cell_angle_alpha 89.803900
_cell_angle_beta 89.619100
_cell_angle_gamma 89.912000
loop_
  _atom_site_label
  _atom_site_type_symbol
  _atom_site_fract_x
  _atom_site_fract_y
  _atom_site_fract_z
O1 O 0.23112 0.30143 0.01065
 O2 O 0.31354 0.21598 0.11724
 O3 O 0.23395 0.21554 -0.00034
 O4 O 0.31143 0.30226 0.12308
 O5 O 0.28285 0.30004 0.35356
 O6 O 0.20610 0.21195 0.23095
 O7 O 0.28529 0.21406 0.34829
 O8 O 0.20253 0.29813 0.24099
 Cu9 Cu 0.27549 0.25913 0.03962
 Cu10 Cu 0.24123 0.25582 0.31648
 C11 C 0.20251 0.31406 0.10790
 C12 C 0.31354 0.20064 0.25114
 C13 C 0.20678 0.19885 0.09437
 C14 C 0.31053 0.31594 0.25871
 O15 O 0.80396 0.28955 0.39112
 O16 O 0.71801 0.20557 0.45648
 O17 O 0.80174 0.20291 0.37849
 O18 O 0.71817 0.29203 0.43783
 O19 O 0.70307 0.29105 0.19396
 O20 O 0.78592 0.20366 0.13510
 O21 O 0.70224 0.20472 0.21319
 O22 O 0.78895 0.29022 0.14715
 Cu23 Cu 0.76203 0.24757 0.43993
 Cu24 Cu 0.74356 0.24741 0.14836
 C25 C 0.81106 0.30453 0.25940
 C26 C 0.69562 0.19048 0.34721
 C27 C 0.80762 0.18798 0.24538
 C28 C 0.69643 0.30664 0.32476
 O29 O 0.71415 0.80221 0.65057
 O30 O 0.80155 0.71894 0.70097
 O31 O 0.71532 0.71586 0.66441
 O32 O 0.79860 0.80513 0.72111
 O33 O 0.78346 0.80339 0.96546
 O34 O 0.70222 0.71482 0.91027
 O35 O 0.78810 0.71684 0.94651
 O36 O 0.69906 0.80112 0.89493
 Cu37 Cu 0.75880 0.76072 0.66033
 Cu38 Cu 0.74190 0.75902 0.95328
 C39 C 0.69147 0.81584 0.76260
 C40 C 0.80974 0.70339 0.83085
 C41 C 0.69475 0.70013 0.77917
 C42 C 0.80502 0.81944 0.85454
 O43 O 0.19859 0.79409 0.67890
 O44 O 0.28239 0.70958 0.57599
 O45 O 0.19814 0.70826 0.65594
 O46 O 0.28229 0.79524 0.59689
 O47 O 0.30147 0.79027 0.83689
 O48 O 0.21707 0.70289 0.89594
 O49 O 0.30141 0.70437 0.81609
 O50 O 0.21782 0.78858 0.91876
 Cu51 Cu 0.23832 0.75227 0.60294
 Cu52 Cu 0.26145 0.74586 0.89092
 C53 C 0.19379 0.80557 0.81601
 C54 C 0.30660 0.69301 0.67912
 C55 C 0.19277 0.69107 0.78593
 C56 C 0.30642 0.80742 0.70660
 O57 O 1.04863 -0.05350 0.12135
 O58 O 0.96047 0.02791 0.21756
 O59 O 0.96166 -0.05420 0.12182
 O60 O 1.04661 0.02672 0.22998
 O61 O 1.04932 0.05172 -0.00488
 O62 O 0.96278 -0.02934 -0.11321
 O63 O 0.96286 0.05262 -0.01763
 O64 O 1.04971 -0.02826 -0.11326
 Cu65 Cu 1.00405 -0.01598 0.19602
 Cu66 Cu 1.00626 0.01417 -0.08584
 C67 C 1.06416 -0.05454 -0.01283
 C68 C 0.94726 0.05464 0.11566
 C69 C 0.94776 -0.05583 -0.01302
 C70 C 1.06232 0.05314 0.13166
 O71 O 0.55254 0.45922 0.54682
 O72 O 0.46329 0.53847 0.62651
 O73 O 0.46569 0.45580 0.54303
 O74 O 0.54988 0.54439 0.59422
 O75 O 0.54564 0.56033 0.35100
 O76 O 0.46243 0.47337 0.30102
 O77 O 0.45884 0.55595 0.38453
 O78 O 0.54919 0.47507 0.30344
 Cu79 Cu 0.50824 0.49793 0.60160
 Cu80 Cu 0.50368 0.51792 0.31120
 C81 C 0.56608 0.45325 0.41250
 C82 C 0.44556 0.56049 0.52070
 C83 C 0.44985 0.44959 0.41169
 C84 C 0.56219 0.56724 0.47989
 O85 O -0.04503 0.54777 0.02254
 O86 O 0.04027 0.46231 0.07891
 O87 O 0.04223 0.54602 0.01032
 O88 O -0.04633 0.46184 0.06305
 O89 O -0.04557 0.44942 -0.18270
 O90 O 0.04261 0.53221 -0.23456
 O91 O 0.04142 0.44836 -0.16578
 O92 O -0.04445 0.53510 -0.22293
 Cu93 Cu -0.00243 0.50593 0.06768
 Cu94 Cu -0.00149 0.48995 -0.22552
 C95 C -0.05938 0.55617 -0.10891
 C96 C 0.05555 0.44078 -0.03296
 C97 C 0.05775 0.55301 -0.12189
 C98 C -0.06085 0.44119 -0.05190
 O99 O 0.53680 0.97916 0.70693
 O100 O 0.45005 1.05790 0.58187
 O101 O 0.45004 0.97724 0.68782
 O102 O 0.53631 1.06044 0.60391
 O103 O 0.54220 1.03557 0.37014
 O104 O 0.45568 0.95211 0.45435
 O105 O 0.45610 1.03262 0.34865
 O106 O 0.54250 0.95430 0.47327
 Cu107 Cu 0.49275 1.02117 0.66866
 Cu108 Cu 0.49981 0.99094 0.38838
 C109 C 0.55443 0.95324 0.61077
 C110 C 0.43850 1.05878 0.44385
 C111 C 0.43797 0.95063 0.58525
 C112 C 0.55361 1.06257 0.47281
 C113 C 1.17746 0.16608 0.04562
 C114 C 1.14934 0.14511 0.13943
 C115 C 1.11810 0.11147 0.08324
 C116 C 1.09526 0.08608 0.18022
 H117 H 1.14931 0.15251 0.25933
 H118 H 1.11380 0.10748 -0.03751
 H119 H 1.17788 0.15727 -0.07315
 H120 H 1.10088 0.08951 0.30056
 C121 C 0.66180 0.66435 0.76427
 C122 C 0.64758 0.64949 0.63132
 C123 C 0.61383 0.61406 0.62471
 C124 C 0.59615 0.60217 0.49309
 H125 H 0.66031 0.66391 0.52725
 H126 H 0.60302 0.59799 0.72842
 H127 H 0.64810 0.65026 0.86750
 H128 H 0.60670 0.61893 0.39032
 C129 C -0.15483 0.33918 0.24081
 C130 C -0.14388 0.35688 0.10727
 C131 C -0.10972 0.39189 0.09729
 C132 C -0.09570 0.40711 -0.03653
 H133 H -0.15992 0.34541 0.00516
 H134 H -0.09541 0.40482 0.20036
 H135 H -0.13818 0.35068 0.34179
 H136 H -0.10945 0.39332 -0.13916
 C137 C 0.34094 0.84151 0.68379
 C138 C 0.35099 0.85764 0.54625
 C139 C 0.38641 0.89064 0.51610
 C140 C 0.40304 0.91790 0.62082
 H141 H 0.33385 0.84479 0.44833
 H142 H 0.39799 0.89337 0.40023
 H143 H 0.35932 0.85204 0.78211
 H144 H 0.39027 0.91731 0.73540
 C145 C -0.15531 0.66925 -0.15692
 C146 C -0.14592 0.64816 -0.02763
 C147 C -0.11129 0.61329 -0.01369
 C148 C -0.09369 0.59066 -0.13049
 H149 H -0.16349 0.65743 0.07490
 H150 H -0.10095 0.60524 0.10021
 H151 H -0.13702 0.66159 -0.25928
 H152 H -0.10483 0.59661 -0.24470
 C153 C 0.34694 1.16702 0.29309
 C154 C 0.35058 1.15184 0.43521
 C155 C 0.38422 1.11903 0.48434
 C156 C 0.40471 1.09057 0.39088
 H157 H 0.32922 1.16536 0.52291
 H158 H 0.39116 1.11766 0.60424
 H159 H 0.36955 1.15576 0.20546
 H160 H 0.39657 1.08998 0.27199
 C161 C 1.15960 -0.16117 -0.14580
 C162 C 1.15096 -0.14883 -0.00292
 C163 C 1.11618 -0.11620 0.03986
 C164 C 1.09914 -0.08635 -0.05629
 H165 H 1.16890 -0.16445 0.08887
 H166 H 1.10525 -0.11627 0.15677
 H167 H 1.14047 -0.14777 -0.23854
 H168 H 1.11117 -0.08441 -0.17157
 C169 C 0.66294 0.34203 0.34172
 C170 C 0.65485 0.36231 0.47332
 C171 C 0.62047 0.39704 0.49457
 C172 C 0.60142 0.42034 0.38225
 H173 H 0.67286 0.35191 0.57311
 H174 H 0.61103 0.40389 0.61053
 H175 H 0.64423 0.35084 0.24195
 H176 H 0.61155 0.41561 0.26596
 C177 C 0.83597 -0.14725 -0.11607
 C178 C 0.86190 -0.12814 -0.22214
 C179 C 0.89586 -0.09397 -0.18689
 C180 C 0.91398 -0.08940 -0.04955
 H181 H 0.85783 -0.13689 -0.33989
 H182 H 0.90729 -0.07308 -0.27907
 H183 H 0.83844 -0.13677 0.00035
 H184 H 0.90473 -0.11161 0.04148
 C185 C 0.34198 0.35050 0.30750
 C186 C 0.37043 0.36949 0.20951
 C187 C 0.40242 0.40482 0.24738
 C188 C 0.41667 0.41432 0.38706
 H189 H 0.36949 0.36005 0.09156
 H190 H 0.41622 0.42274 0.15167
 H191 H 0.34096 0.36068 0.42457
 H192 H 0.40502 0.39557 0.48396
 C193 C 0.15928 0.65941 -0.19457
 C194 C 0.14968 0.64047 -0.06050
 C195 C 0.11320 0.60798 -0.03659
 C196 C 0.09378 0.58527 -0.14826
 H197 H 0.16801 0.65021 0.03913
 H198 H 0.10294 0.60188 0.07921
 H199 H 0.13977 0.65142 -0.29310
 H200 H 0.10495 0.58920 -0.26388
 C201 C 0.66390 1.15786 0.37821
 C202 C 0.63873 1.13871 0.27184
 C203 C 0.60538 1.10372 0.30525
 C204 C 0.58703 1.09718 0.44226
 H205 H 0.64352 1.14757 0.15409
 H206 H 0.59461 1.08364 0.21106
 H207 H 0.66078 1.14738 0.49483
 H208 H 0.59541 1.11851 0.53577
 C209 C 0.16890 0.34739 0.06454
 C210 C 0.13872 0.36265 0.16411
 C211 C 0.10450 0.39644 0.12997
 C212 C 0.09021 0.40678 -0.00916
 H213 H 0.13981 0.35121 0.28020
 H214 H 0.08931 0.41240 0.22702
 H215 H 0.16970 0.35976 -0.05033
 H216 H 0.10338 0.38985 -0.10740
 C217 C 0.65583 0.84894 0.73870
 C218 C 0.64536 0.86282 0.59900
 C219 C 0.60971 0.89481 0.56137
 C220 C 0.58909 0.92165 0.66013
 H221 H 0.66302 0.84898 0.50287
 H222 H 0.60119 0.89694 0.44278
 H223 H 0.63774 0.86090 0.83654
 H224 H 0.59796 0.92132 0.77838
 C225 C 0.83949 0.15201 0.21412
 C226 C 0.86444 0.13239 0.32041
 C227 C 0.89690 0.09647 0.28702
 C228 C 0.91395 0.08916 0.14873
 H229 H 0.86044 0.14210 0.43744
 H230 H 0.90834 0.07666 0.38150
 H231 H 0.84130 0.14108 0.09807
 H232 H 0.90491 0.11025 0.05481
 C233 C 0.34183 0.66067 0.64252
 C234 C 0.35161 0.64814 0.50056
 C235 C 0.38812 0.61692 0.46027
 C236 C 0.40918 0.59113 0.56084
 H237 H 0.33307 0.66239 0.40759
 H238 H 0.39731 0.61484 0.34192
 H239 H 0.36098 0.64849 0.73691
 H240 H 0.39950 0.59139 0.67858
   
