data_POSCAR
  _audit_creation_date              2014-09-24
  _audit_creation_method            'ToBaCCo'
  _symmetry_space_group_name_H-M    'P1'
  _symmetry_Int_Tables_number       1
  _symmetry_cell_setting            triclinic
  loop_
  _symmetry_equiv_pos_as_xyz
 x,y,z
_cell_length_a 44.7122
_cell_length_b 44.7729
_cell_length_c 44.8258
_cell_angle_alpha 89.918300
_cell_angle_beta 90.076500
_cell_angle_gamma 89.966300
loop_
  _atom_site_label
  _atom_site_type_symbol
  _atom_site_fract_x
  _atom_site_fract_y
  _atom_site_fract_z
N1 N 0.26858 0.20678 0.18619
 N2 N 0.25775 0.23102 0.17356
 C3 C 0.27542 0.23869 0.15044
 C4 C 0.29835 0.21808 0.14853
 C5 C 0.29336 0.19815 0.17152
 H6 H 0.27217 0.25799 0.13629
 H7 H 0.30706 0.17913 0.17742
 Cu8 Cu 0.22216 0.25047 0.18926
 Cu9 Cu 0.25056 0.18873 0.22134
 Cu10 Cu 0.18751 0.22335 0.25006
 N11 N 0.18652 0.26947 0.20544
 N12 N 0.17328 0.25887 0.22939
 C13 C 0.15015 0.27670 0.23660
 C14 C 0.14885 0.29967 0.21604
 C15 C 0.17220 0.29443 0.19658
 H16 H 0.13565 0.27354 0.25564
 H17 H 0.17852 0.30815 0.17775
 N18 N 0.20522 0.18711 0.26772
 N19 N 0.22916 0.17383 0.25674
 C20 C 0.23626 0.15036 0.27423
 C21 C 0.21580 0.14886 0.29722
 C22 C 0.19646 0.17243 0.29245
 H23 H 0.25526 0.13579 0.27094
 H24 H 0.17779 0.17872 0.30640
 H25 H 0.20773 0.20399 0.21363
 H26 H 0.23198 0.22771 0.23782
 N27 N 0.73080 -0.20548 0.18750
 N28 N 0.74274 -0.22843 0.17363
 C29 C 0.72532 -0.23580 0.15022
 C30 C 0.70122 -0.21641 0.14950
 C31 C 0.70544 -0.19742 0.17344
 H32 H 0.72948 -0.25422 0.13518
 H33 H 0.69087 -0.17945 0.18042
 Cu34 Cu 0.77917 -0.24745 0.18812
 Cu35 Cu 0.74833 -0.18843 0.22332
 Cu36 Cu 0.81156 -0.22291 0.25148
 N37 N 0.81393 -0.26724 0.20542
 N38 N 0.82641 -0.25759 0.23016
 C39 C 0.84921 -0.27576 0.23763
 C40 C 0.85102 -0.29811 0.21647
 C41 C 0.82839 -0.29199 0.19627
 H42 H 0.86310 -0.27320 0.25723
 H43 H 0.82264 -0.30490 0.17670
 N44 N 0.79336 -0.18754 0.27004
 N45 N 0.76922 -0.17435 0.25932
 C46 C 0.76198 -0.15124 0.27713
 C47 C 0.78255 -0.14991 0.30009
 C48 C 0.80211 -0.17320 0.29496
 H49 H 0.74300 -0.13660 0.27391
 H50 H 0.82110 -0.17937 0.30862
 H51 H 0.79184 -0.20197 0.21527
 H52 H 0.76777 -0.22795 0.23747
 N53 N 0.73195 0.20659 0.81333
 N54 N 0.74251 0.23097 0.82582
 C55 C 0.72505 0.23835 0.84915
 C56 C 0.70238 0.21754 0.85124
 C57 C 0.70742 0.19767 0.82825
 H58 H 0.72825 0.25764 0.86329
 H59 H 0.69394 0.17847 0.82250
 Cu60 Cu 0.77740 0.25113 0.80977
 Cu61 Cu 0.75007 0.18887 0.77806
 Cu62 Cu 0.81276 0.22428 0.74943
 N63 N 0.81287 0.27046 0.79388
 N64 N 0.82660 0.25986 0.77023
 C65 C 0.84976 0.27780 0.76339
 C66 C 0.85052 0.30086 0.78387
 C67 C 0.82685 0.29551 0.80295
 H68 H 0.86464 0.27459 0.74466
 H69 H 0.82009 0.30910 0.82170
 N70 N 0.79533 0.18803 0.73154
 N71 N 0.77153 0.17449 0.74252
 C72 C 0.76474 0.15093 0.72512
 C73 C 0.78523 0.14965 0.70215
 C74 C 0.80428 0.17344 0.70684
 H75 H 0.74602 0.13605 0.72855
 H76 H 0.82299 0.17982 0.69298
 H77 H 0.79279 0.20454 0.78625
 H78 H 0.76833 0.22771 0.76159
 N79 N 0.26906 -0.20622 0.81280
 N80 N 0.25754 -0.22960 0.82632
 C81 C 0.27505 -0.23702 0.84968
 C82 C 0.29871 -0.21722 0.85075
 C83 C 0.29423 -0.19796 0.82707
 H84 H 0.27122 -0.25567 0.86454
 H85 H 0.30848 -0.17959 0.82050
 Cu86 Cu 0.22150 -0.24900 0.81160
 Cu87 Cu 0.25110 -0.18870 0.77733
 Cu88 Cu 0.18808 -0.22362 0.74898
 N89 N 0.18697 -0.26902 0.79428
 N90 N 0.17397 -0.25900 0.76990
 C91 C 0.15111 -0.27719 0.76268
 C92 C 0.14979 -0.29986 0.78361
 C93 C 0.17285 -0.29401 0.80336
 H94 H 0.13674 -0.27434 0.74345
 H95 H 0.17900 -0.30715 0.82269
 N96 N 0.20568 -0.18754 0.73090
 N97 N 0.22972 -0.17425 0.74167
 C98 C 0.23672 -0.15090 0.72401
 C99 C 0.21612 -0.14951 0.70107
 C100 C 0.19678 -0.17302 0.70608
 H101 H 0.25569 -0.13628 0.72717
 H102 H 0.17796 -0.17931 0.69229
 H103 H 0.20786 -0.20315 0.78525
 H104 H 0.23213 -0.22823 0.76237
 N105 N 0.73352 -0.20549 0.81530
 N106 N 0.74436 -0.22977 0.82784
 C107 C 0.72679 -0.23752 0.85101
 C108 C 0.70378 -0.21700 0.85297
 C109 C 0.70876 -0.19696 0.83005
 H110 H 0.73015 -0.25681 0.86519
 H111 H 0.69504 -0.17793 0.82423
 Cu112 Cu 0.77979 -0.24916 0.81178
 Cu113 Cu 0.75127 -0.18757 0.77983
 Cu114 Cu 0.81467 -0.22191 0.75132
 N115 N 0.81542 -0.26820 0.79579
 N116 N 0.82901 -0.25730 0.77217
 C117 C 0.85254 -0.27478 0.76538
 C118 C 0.85366 -0.29790 0.78583
 C119 C 0.82987 -0.29299 0.80490
 H120 H 0.86740 -0.27123 0.74670
 H121 H 0.82342 -0.30672 0.82370
 N122 N 0.79665 -0.18595 0.73338
 N123 N 0.77247 -0.17291 0.74415
 C124 C 0.76523 -0.14959 0.72652
 C125 C 0.78585 -0.14794 0.70367
 C126 C 0.80543 -0.17126 0.70866
 H127 H 0.74612 -0.13514 0.72971
 H128 H 0.82432 -0.17733 0.69491
 H129 H 0.77035 -0.22614 0.76336
 H130 H 0.79428 -0.20243 0.78784
 N131 N 0.26650 0.20287 0.81425
 N132 N 0.25560 0.22691 0.82710
 C133 C 0.27310 0.23426 0.85046
 C134 C 0.29614 0.21371 0.85219
 C135 C 0.29123 0.19410 0.82896
 H136 H 0.26967 0.25331 0.86488
 H137 H 0.30495 0.17517 0.82294
 Cu138 Cu 0.21990 0.24627 0.81155
 Cu139 Cu 0.24854 0.18522 0.77884
 Cu140 Cu 0.18486 0.21989 0.75076
 N141 N 0.18432 0.26571 0.79566
 N142 N 0.17061 0.25510 0.77196
 C143 C 0.14724 0.27286 0.76524
 C144 C 0.14631 0.29582 0.78576
 C145 C 0.17012 0.29063 0.80478
 H146 H 0.13238 0.26968 0.74647
 H147 H 0.17681 0.30432 0.82350
 N148 N 0.20286 0.18404 0.73255
 N149 N 0.22708 0.17089 0.74322
 C150 C 0.23454 0.14802 0.72519
 C151 C 0.21407 0.14677 0.70217
 C152 C 0.19430 0.16984 0.70748
 H153 H 0.25381 0.13372 0.72813
 H154 H 0.17550 0.17615 0.69367
 H155 H 0.22923 0.22382 0.76287
 H156 H 0.20541 0.19969 0.78696
 N157 N 0.26793 -0.20453 0.18490
 N158 N 0.25705 -0.22870 0.17226
 C159 C 0.27478 -0.23656 0.14928
 C160 C 0.29787 -0.21619 0.14746
 C161 C 0.29290 -0.19620 0.17037
 H162 H 0.27153 -0.25589 0.13520
 H163 H 0.30679 -0.17738 0.17636
 Cu164 Cu 0.22133 -0.24794 0.18769
 Cu165 Cu 0.24978 -0.18652 0.22006
 Cu166 Cu 0.18603 -0.22069 0.24788
 N167 N 0.18558 -0.26694 0.20338
 N168 N 0.17177 -0.25603 0.22685
 C169 C 0.14831 -0.27363 0.23354
 C170 C 0.14745 -0.29680 0.21324
 C171 C 0.17135 -0.29188 0.19435
 H172 H 0.13331 -0.27019 0.25211
 H173 H 0.17802 -0.30572 0.17575
 N174 N 0.20394 -0.18478 0.26603
 N175 N 0.22821 -0.17176 0.25543
 C176 C 0.23543 -0.14858 0.27319
 C177 C 0.21479 -0.14703 0.29600
 C178 C 0.19513 -0.17023 0.29080
 H179 H 0.25463 -0.13423 0.27019
 H180 H 0.17620 -0.17636 0.30447
 H181 H 0.23049 -0.22533 0.23634
 H182 H 0.20682 -0.20136 0.21171
 N183 N 0.73197 0.20448 0.18644
 N184 N 0.74315 0.22824 0.17331
 C185 C 0.72574 0.23564 0.14994
 C186 C 0.70244 0.21548 0.14841
 C187 C 0.70704 0.19596 0.17187
 H188 H 0.72942 0.25450 0.13537
 H189 H 0.69304 0.17725 0.17808
 Cu190 Cu 0.77864 0.24787 0.18873
 Cu191 Cu 0.75000 0.18684 0.22183
 Cu192 Cu 0.81362 0.22129 0.24970
 N193 N 0.81420 0.26702 0.20469
 N194 N 0.82783 0.25651 0.22849
 C195 C 0.85114 0.27435 0.23520
 C196 C 0.85202 0.29723 0.21453
 C197 C 0.82832 0.29192 0.19549
 H198 H 0.86600 0.27130 0.25405
 H199 H 0.82162 0.30547 0.17671
 N200 N 0.79574 0.18541 0.26800
 N201 N 0.77148 0.17235 0.25741
 C202 C 0.76442 0.14904 0.27511
 C203 C 0.78517 0.14744 0.29786
 C204 C 0.80471 0.17073 0.29271
 H205 H 0.74535 0.13453 0.27204
 H206 H 0.82376 0.17673 0.30630
 H207 H 0.76922 0.22562 0.23759
 H208 H 0.79301 0.20138 0.21349
 C209 C 0.21893 -0.01616 0.52646
 C210 C 0.21881 0.01545 0.52660
 C211 C 0.21861 0.03091 0.49936
 C212 C 0.21895 0.01581 0.47196
 C213 C 0.21896 -0.01579 0.47181
 C214 C 0.21868 -0.03126 0.49905
 H215 H 0.21838 -0.05548 0.49891
 H216 H 0.21830 0.05514 0.49949
 C217 C 0.78127 -0.01591 0.47377
 C218 C 0.78118 0.01569 0.47359
 C219 C 0.78154 0.03109 0.50084
 C220 C 0.78144 0.01593 0.52827
 C221 C 0.78157 -0.01567 0.52842
 C222 C 0.78183 -0.03107 0.50119
 H223 H 0.78237 -0.05529 0.50134
 H224 H 0.78184 0.05531 0.50069
 C225 C 0.47252 0.22098 0.01494
 C226 C 0.47264 0.22048 -0.01661
 C227 C 0.50014 0.22070 -0.03166
 C228 C 0.52745 0.22143 -0.01620
 C229 C 0.52733 0.22149 0.01537
 C230 C 0.49983 0.22114 0.03042
 H231 H 0.49962 0.22093 0.05462
 H232 H 0.50030 0.22038 -0.05586
 C233 C 0.52802 0.77835 0.01648
 C234 C 0.52839 0.77811 -0.01508
 C235 C 0.50121 0.77820 -0.03077
 C236 C 0.47359 0.77785 -0.01594
 C237 C 0.47321 0.77803 0.01561
 C238 C 0.50038 0.77855 0.03129
 H239 H 0.49997 0.77916 0.05547
 H240 H 0.50159 0.77858 -0.05497
 C241 C -0.01707 0.47356 0.21710
 C242 C 0.01457 0.47356 0.21671
 C243 C 0.02986 0.50090 0.21590
 C244 C 0.01458 0.52826 0.21632
 C245 C -0.01705 0.52824 0.21706
 C246 C -0.03238 0.50092 0.21704
 H247 H -0.05665 0.50097 0.21714
 H248 H 0.05411 0.50084 0.21516
 C249 C 0.01657 0.52749 0.78344
 C250 C -0.01507 0.52796 0.78356
 C251 C -0.03075 0.50082 0.78377
 C252 C -0.01585 0.47324 0.78309
 C253 C 0.01580 0.47277 0.78298
 C254 C 0.03149 0.49991 0.78360
 H255 H 0.05575 0.49957 0.78399
 H256 H -0.05500 0.50117 0.78429
 C257 C 0.37052 0.21803 0.08928
 N258 N 0.34987 0.24027 0.08840
 N259 N 0.32673 0.24019 0.10711
 C260 C 0.32344 0.21790 0.12741
 N261 N 0.34403 0.19562 0.12821
 N262 N 0.36713 0.19568 0.10948
 C263 C 0.39641 0.21837 0.06914
 N264 N 0.41709 0.19620 0.07033
 N265 N 0.44094 0.19678 0.05257
 C266 C 0.44486 0.21939 0.03275
 N267 N 0.42435 0.24174 0.03179
 N268 N 0.40048 0.24117 0.04955
 C269 C 0.62999 0.78282 0.09150
 N270 N 0.63150 0.80326 0.11379
 N271 N 0.65471 0.80361 0.13245
 C272 C 0.67726 0.78350 0.12959
 N273 N 0.67580 0.76310 0.10722
 N274 N 0.65260 0.76278 0.08852
 C275 C 0.60404 0.78215 0.07133
 N276 N 0.60252 0.76209 0.04871
 N277 N 0.57864 0.76116 0.03089
 C278 C 0.55549 0.78035 0.03489
 N279 N 0.55695 0.80024 0.05770
 N280 N 0.58081 0.80121 0.07550
 C281 C 0.62997 0.21800 -0.08986
 N282 N 0.63283 0.19612 -0.11060
 N283 N 0.65605 0.19585 -0.12916
 C284 C 0.67729 0.21742 -0.12766
 N285 N 0.67453 0.23925 -0.10684
 N286 N 0.65127 0.23954 -0.08827
 C287 C 0.60392 0.21855 -0.06994
 N288 N 0.60017 0.24099 -0.04993
 N289 N 0.57614 0.24169 -0.03238
 C290 C 0.55516 0.21985 -0.03398
 N291 N 0.55878 0.19762 -0.05421
 N292 N 0.58277 0.19691 -0.07177
 C293 C 0.37126 0.78202 -0.09032
 N294 N 0.36961 0.80255 -0.11258
 N295 N 0.34637 0.80290 -0.13119
 C296 C 0.32394 0.78272 -0.12825
 N297 N 0.32551 0.76223 -0.10593
 N298 N 0.34875 0.76189 -0.08729
 C299 C 0.39733 0.78129 -0.07038
 N300 N 0.39925 0.76091 -0.04800
 N301 N 0.42326 0.76000 -0.03036
 C302 C 0.44613 0.77953 -0.03431
 N303 N 0.44430 0.79968 -0.05690
 N304 N 0.42032 0.80062 -0.07452
 C305 C 0.08943 0.37180 0.21494
 N306 N 0.08740 0.35048 0.23641
 N307 N 0.10626 0.32742 0.23670
 C308 C 0.12783 0.32488 0.21556
 N309 N 0.12982 0.34617 0.19408
 N310 N 0.11097 0.36921 0.19378
 C311 C 0.06915 0.39756 0.21490
 N312 N 0.07176 0.41909 0.19372
 N313 N 0.05392 0.44291 0.19403
 C314 C 0.03262 0.44597 0.21537
 N315 N 0.03022 0.42458 0.23671
 N316 N 0.04805 0.40073 0.23641
 C317 C 0.09166 0.62911 0.78524
 N318 N 0.08969 0.65014 0.76348
 N319 N 0.10844 0.67326 0.76303
 C320 C 0.12989 0.67620 0.78432
 N321 N 0.13174 0.65521 0.80616
 N322 N 0.11299 0.63210 0.80660
 C323 C 0.07147 0.60323 0.78530
 N324 N 0.07397 0.58178 0.80659
 N325 N 0.05612 0.55797 0.80623
 C326 C 0.03493 0.55485 0.78473
 N327 N 0.03268 0.57613 0.76326
 N328 N 0.05053 0.59995 0.76360
 C329 C -0.09133 0.63044 0.21569
 N330 N -0.11190 0.63404 0.19368
 N331 N -0.13051 0.65728 0.19388
 C332 C -0.12924 0.67781 0.21610
 N333 N -0.10861 0.67424 0.23811
 N334 N -0.09001 0.65097 0.23792
 C335 C -0.07124 0.60449 0.21565
 N336 N -0.05133 0.60015 0.23815
 N337 N -0.03366 0.57617 0.23838
 C338 C -0.03503 0.55584 0.21599
 N339 N -0.05515 0.56004 0.19368
 N340 N -0.07284 0.58398 0.19344
 C341 C -0.09143 0.37192 0.78529
 N342 N -0.11316 0.36934 0.80627
 N343 N -0.13191 0.34621 0.80592
 C344 C -0.12962 0.32481 0.78459
 N345 N -0.10779 0.32737 0.76370
 N346 N -0.08907 0.35050 0.76404
 C347 C -0.07114 0.39772 0.78522
 N348 N -0.04992 0.40063 0.76378
 N349 N -0.03193 0.42435 0.76334
 C350 C -0.03430 0.44590 0.78446
 N351 N -0.05575 0.44312 0.80571
 N352 N -0.07375 0.41942 0.80617
 C353 C 0.21556 0.08983 0.36959
 N354 N 0.23677 0.08759 0.34806
 N355 N 0.23673 0.10623 0.32485
 C356 C 0.21549 0.12777 0.32235
 N357 N 0.19421 0.12991 0.34381
 N358 N 0.19425 0.11129 0.36700
 C359 C 0.21599 0.06990 0.39565
 N360 N 0.19538 0.07302 0.41762
 N361 N 0.19612 0.05546 0.44161
 C362 C 0.21735 0.03394 0.44444
 N363 N 0.23815 0.03104 0.42260
 N364 N 0.23743 0.04861 0.39859
 C365 C 0.78584 0.09008 0.63037
 N366 N 0.76507 0.08751 0.65229
 N367 N 0.76506 0.10631 0.67531
 C368 C 0.78580 0.12835 0.67725
 N369 N 0.80669 0.13080 0.65543
 N370 N 0.80670 0.11201 0.63241
 C371 C 0.78525 0.07005 0.60443
 N372 N 0.80530 0.07347 0.58199
 N373 N 0.80429 0.05589 0.55807
 C374 C 0.78335 0.03405 0.55577
 N375 N 0.76313 0.03082 0.57810
 N376 N 0.76410 0.04842 0.60203
 C377 C 0.21563 -0.09031 0.62877
 N378 N 0.19463 -0.11209 0.63105
 N379 N 0.19464 -0.13077 0.65421
 C380 C 0.21567 -0.12838 0.67594
 N381 N 0.23658 -0.10651 0.67376
 N382 N 0.23656 -0.08781 0.65059
 C383 C 0.21605 -0.07033 0.60275
 N384 N 0.23720 -0.04875 0.60008
 N385 N 0.23791 -0.03116 0.57608
 C386 C 0.21737 -0.03432 0.55398
 N387 N 0.19644 -0.05613 0.55653
 N388 N 0.19571 -0.07372 0.58050
 C389 C 0.78355 -0.09056 0.37204
 N390 N 0.76218 -0.08837 0.35060
 N391 N 0.76195 -0.10716 0.32756
 C392 C 0.78308 -0.12881 0.32514
 N393 N 0.80452 -0.13091 0.34651
 N394 N 0.80474 -0.11214 0.36954
 C395 C 0.78344 -0.07039 0.39786
 N396 N 0.80440 -0.07326 0.41961
 N397 N 0.80394 -0.05551 0.44342
 C398 C 0.78268 -0.03404 0.44628
 N399 N 0.76154 -0.03139 0.42468
 N400 N 0.76197 -0.04914 0.40084
 C401 C 0.63139 0.78258 -0.08799
 N402 N 0.65243 0.76073 -0.08673
 N403 N 0.67562 0.76094 -0.10539
 C404 C 0.67858 0.78298 -0.12600
 N405 N 0.65757 0.80485 -0.12722
 N406 N 0.63441 0.80466 -0.10856
 C407 C 0.60529 0.78191 -0.06815
 N408 N 0.58393 0.80339 -0.07014
 N409 N 0.55979 0.80238 -0.05281
 C410 C 0.55620 0.78001 -0.03266
 N411 N 0.57738 0.75835 -0.03091
 N412 N 0.60156 0.75935 -0.04822
 C413 C 0.36958 0.21447 -0.08996
 N414 N 0.34733 0.23491 -0.08701
 N415 N 0.32376 0.23453 -0.10524
 C416 C 0.32157 0.21363 -0.12703
 N417 N 0.34372 0.19309 -0.12988
 N418 N 0.36731 0.19351 -0.11170
 C419 C 0.39591 0.21542 -0.07033
 N420 N 0.41921 0.19646 -0.07464
 N421 N 0.44335 0.19786 -0.05724
 C422 C 0.44502 0.21806 -0.03470
 N423 N 0.42177 0.23708 -0.03054
 N424 N 0.39765 0.23576 -0.04797
 C425 C 0.37041 0.78271 0.08872
 N426 N 0.36766 0.80465 0.10941
 N427 N 0.34444 0.80508 0.12797
 C428 C 0.32310 0.78360 0.12653
 N429 N 0.32577 0.76169 0.10578
 N430 N 0.34902 0.76124 0.08722
 C431 C 0.39645 0.78191 0.06885
 N432 N 0.40011 0.75934 0.04898
 N433 N 0.42422 0.75834 0.03156
 C434 C 0.44537 0.78001 0.03315
 N435 N 0.44182 0.80240 0.05322
 N436 N 0.41775 0.80341 0.07065
 C437 C 0.63011 0.21666 0.08919
 N438 N 0.65243 0.23706 0.08663
 N439 N 0.67563 0.23656 0.10535
 C440 C 0.67733 0.21563 0.12726
 N441 N 0.65510 0.19518 0.12970
 N442 N 0.63192 0.19570 0.11103
 C443 C 0.60399 0.21757 0.06928
 N444 N 0.58112 0.19808 0.07325
 N445 N 0.55702 0.19919 0.05581
 C446 C 0.55494 0.21967 0.03354
 N447 N 0.57773 0.23934 0.02971
 N448 N 0.60186 0.23827 0.04720
 C449 C -0.08834 0.63096 0.78659
 N450 N -0.08581 0.65268 0.76557
 N451 N -0.10444 0.67592 0.76549
 C452 C -0.12629 0.67830 0.78640
 N453 N -0.12867 0.65664 0.80749
 N454 N -0.11006 0.63341 0.80757
 C455 C -0.06846 0.60485 0.78632
 N456 N -0.07197 0.58272 0.80672
 N457 N -0.05453 0.55862 0.80612
 C458 C -0.03272 0.55583 0.78526
 N459 N -0.02938 0.57786 0.76470
 N460 N -0.04684 0.60199 0.76528
 C461 C -0.09020 0.37060 0.21363
 N462 N -0.11190 0.36782 0.19260
 N463 N -0.13015 0.34429 0.19271
 C464 C -0.12734 0.32272 0.21386
 N465 N -0.10556 0.32545 0.23479
 N466 N -0.08732 0.34895 0.23467
 C467 C -0.07058 0.39686 0.21402
 N468 N -0.04909 0.39973 0.23523
 N469 N -0.03172 0.42388 0.23601
 C470 C -0.03504 0.44594 0.21549
 N471 N -0.05674 0.44318 0.19446
 N472 N -0.07412 0.41904 0.19365
 C473 C 0.08826 0.36913 0.78596
 N474 N 0.08581 0.34767 0.76472
 N475 N 0.10412 0.32417 0.76483
 C476 C 0.12553 0.32127 0.78616
 N477 N 0.12787 0.34265 0.80746
 N478 N 0.10957 0.36614 0.80736
 C479 C 0.06873 0.39552 0.78549
 N480 N 0.07219 0.41738 0.80614
 N481 N 0.05498 0.44164 0.80551
 C482 C 0.03345 0.44489 0.78437
 N483 N 0.03021 0.42319 0.76349
 N484 N 0.04745 0.39889 0.76409
 C485 C 0.08848 0.63072 0.21254
 N486 N 0.11066 0.63281 0.19199
 N487 N 0.12930 0.65601 0.19208
 C488 C 0.12648 0.67795 0.21276
 N489 N 0.10429 0.67587 0.23331
 N490 N 0.08562 0.65269 0.23320
 C491 C 0.06848 0.60474 0.21284
 N492 N 0.04596 0.60274 0.23302
 N493 N 0.02839 0.57873 0.23381
 C494 C 0.03255 0.55590 0.21436
 N495 N 0.05520 0.55787 0.19430
 N496 N 0.07275 0.58187 0.19346
 C497 C 0.78575 -0.08922 0.63104
 N498 N 0.76427 -0.08733 0.65234
 N499 N 0.76446 -0.10582 0.67566
 C500 C 0.78614 -0.12687 0.67852
 N501 N 0.80772 -0.12864 0.65732
 N502 N 0.80753 -0.11015 0.63402
 C503 C 0.78510 -0.06943 0.60489
 N504 N 0.80623 -0.07185 0.58331
 N505 N 0.80532 -0.05433 0.55929
 C506 C 0.78342 -0.03354 0.55606
 N507 N 0.76209 -0.03139 0.57745
 N508 N 0.76297 -0.04892 0.60149
 C509 C 0.21529 -0.08885 0.36898
 N510 N 0.19364 -0.10991 0.36613
 N511 N 0.19335 -0.12826 0.34276
 C512 C 0.21470 -0.12622 0.32136
 N513 N 0.23631 -0.10509 0.32414
 N514 N 0.23660 -0.08674 0.34752
 C515 C 0.21588 -0.06916 0.39517
 N516 N 0.23769 -0.04832 0.39847
 N517 N 0.23845 -0.03095 0.42258
 C518 C 0.21731 -0.03357 0.44413
 N519 N 0.19570 -0.05463 0.44094
 N520 N 0.19492 -0.07200 0.41686
 C521 C 0.78512 0.08890 0.37067
 N522 N 0.76400 0.08655 0.34900
 N523 N 0.76418 0.10500 0.32564
 C524 C 0.78549 0.12645 0.32310
 N525 N 0.80670 0.12867 0.34468
 N526 N 0.80651 0.11024 0.36803
 C527 C 0.78450 0.06919 0.39688
 N528 N 0.80515 0.07227 0.41887
 N529 N 0.80428 0.05488 0.44298
 C530 C 0.78288 0.03357 0.44592
 N531 N 0.76205 0.03070 0.42406
 N532 N 0.76290 0.04810 0.39993
 C533 C 0.21449 0.08870 0.62919
 N534 N 0.19298 0.10994 0.63187
 N535 N 0.19278 0.12834 0.65519
 C536 C 0.21408 0.12618 0.67669
 N537 N 0.23557 0.10492 0.67405
 N538 N 0.23578 0.08652 0.65071
 C539 C 0.21508 0.06890 0.60312
 N540 N 0.23699 0.04814 0.60000
 N541 N 0.23794 0.03073 0.57594
 C542 C 0.21689 0.03324 0.55425
 N543 N 0.19514 0.05420 0.55726
 N544 N 0.19418 0.07161 0.58131
   
