data_POSCAR
  _audit_creation_date              2014-09-24
  _audit_creation_method            'ToBaCCo'
  _symmetry_space_group_name_H-M    'P1'
  _symmetry_Int_Tables_number       1
  _symmetry_cell_setting            triclinic
  loop_
  _symmetry_equiv_pos_as_xyz
 x,y,z
_cell_length_a 16.7979
_cell_length_b 16.8336
_cell_length_c 41.9181
_cell_angle_alpha 89.695300
_cell_angle_beta 90.729500
_cell_angle_gamma 119.730500
loop_
  _atom_site_label
  _atom_site_type_symbol
  _atom_site_fract_x
  _atom_site_fract_y
  _atom_site_fract_z
C1 C -0.08717 -0.09803 0.47743
 C2 C -0.01945 -0.04831 0.50035
 C3 C 0.00376 -0.09346 0.52357
 C4 C -0.04078 -0.18969 0.52466
 C5 C -0.11092 -0.23862 0.50174
 C6 C -0.13388 -0.19428 0.47750
 C7 C 0.02945 0.05208 0.49971
 C8 C 0.01609 0.10042 0.52420
 C9 C 0.06374 0.19625 0.52430
 C10 C 0.12528 0.24315 0.49956
 C11 C 0.13924 0.19529 0.47486
 C12 C 0.09078 0.09938 0.47510
 H13 H -0.10011 -0.06045 0.45900
 H14 H 0.05989 -0.05187 0.53967
 H15 H -0.03053 0.06322 0.54337
 H16 H 0.10027 0.06145 0.45613
 H17 H -0.15292 -0.31180 0.50412
 H18 H 0.16252 0.31727 0.49955
 C19 C 1.10038 0.00977 0.14342
 C20 C 1.05270 0.02618 0.16734
 C21 C 1.10063 0.09057 0.19129
 C22 C 1.19646 0.13919 0.19155
 C23 C 1.24388 0.12265 0.16743
 C24 C 1.19703 0.05787 0.14292
 C25 C 0.95205 -0.02395 0.16720
 C26 C 0.90475 -0.08548 0.19185
 C27 C 0.80867 -0.13359 0.19192
 C28 C 0.76058 -0.11890 0.16699
 C29 C 0.80738 -0.05712 0.14219
 C30 C 0.90345 -0.00993 0.14246
 H31 H 1.06097 -0.03847 0.12473
 H32 H 1.06314 0.10191 0.20991
 H33 H 0.94291 -0.09511 0.21107
 H34 H 0.94056 0.03714 0.12334
 H35 H 1.31795 0.15888 0.16872
 H36 H 0.68630 -0.15578 0.16689
 C37 C 0.07153 0.98089 0.85802
 C38 C 0.00863 0.96634 0.83330
 C39 C -0.00457 0.90549 0.80849
 C40 C 0.04465 0.85861 0.80820
 C41 C 0.10684 0.87277 0.83322
 C42 C 0.12170 0.93411 0.85852
 C43 C -0.04196 1.01679 0.83294
 C44 C -0.02482 1.08121 0.80897
 C45 C -0.07123 1.13092 0.80848
 C46 C -0.13558 1.11503 0.83232
 C47 C -0.15415 1.05030 0.85692
 C48 C -0.10617 1.00126 0.85668
 H49 H 0.07868 1.02694 0.87717
 H50 H -0.05199 0.89603 0.78917
 H51 H 0.02437 1.09208 0.79058
 H52 H -0.11543 0.95309 0.87544
 H53 H 0.14616 0.83789 0.83198
 H54 H -0.17273 1.15214 0.83087
 O55 O 0.60572 0.07936 -0.03168
 O56 O 0.46153 0.08086 0.03096
 O57 O 0.60515 0.05982 0.03052
 O58 O 0.44126 0.05856 -0.03114
 O59 O 0.37051 -0.09214 -0.03004
 O60 O 0.52641 -0.09085 0.03011
 O61 O 0.38264 -0.06984 0.03210
 O62 O 0.53502 -0.07137 -0.03206
 Cu63 Cu 0.53539 0.08375 -0.00036
 Cu64 Cu 0.44661 -0.09516 0.00006
 C65 C 0.59626 0.00575 -0.04300
 C66 C 0.39828 0.00778 0.04268
 C67 C 0.59201 -0.01725 0.04094
 C68 C 0.37821 -0.01904 -0.04138
 O69 O -0.06275 0.54445 0.63199
 O70 O -0.08173 0.38817 0.69530
 O71 O -0.05970 0.55308 0.69448
 O72 O -0.05464 0.39467 0.63365
 O73 O 0.09604 0.46732 0.63839
 O74 O 0.09081 0.61884 0.69837
 O75 O 0.06866 0.45419 0.69988
 O76 O 0.08844 0.61800 0.63620
 Cu77 Cu -0.07939 0.46323 0.66353
 Cu78 Cu 0.10056 0.54631 0.66867
 C79 C 0.01485 0.60703 0.62301
 C80 C -0.01126 0.39303 0.70846
 C81 C 0.01627 0.61337 0.70684
 C82 C 0.02314 0.40584 0.62539
 O83 O 0.38169 0.47110 0.36329
 O84 O 0.53396 0.62392 0.30366
 O85 O 0.39371 0.45857 0.30193
 O86 O 0.54825 0.61343 0.36639
 O87 O 0.62008 0.53382 0.36630
 O88 O 0.47210 0.38554 0.30409
 O89 O 0.61424 0.55279 0.30353
 O90 O 0.45590 0.39379 0.36535
 Cu91 Cu 0.45838 0.54920 0.33392
 Cu92 Cu 0.54840 0.46048 0.33461
 C93 C 0.39112 0.40674 0.37484
 C94 C 0.59943 0.61575 0.29292
 C95 C 0.40766 0.39465 0.29218
 C96 C 0.61030 0.59778 0.37760
 C97 C -0.03608 0.22421 0.56168
 C98 C 0.05165 0.24768 0.55060
 C99 C 0.12874 0.32140 0.56475
 C100 C 0.11871 0.37131 0.58920
 C101 C 0.03119 0.34921 0.60008
 C102 C -0.04629 0.27492 0.58612
 H103 H -0.09669 0.16775 0.55102
 H104 H 0.19714 0.34014 0.55702
 H105 H 0.18003 0.42805 0.59938
 H106 H -0.11452 0.25630 0.59398
 C107 C 0.68328 0.80531 0.23178
 C108 C 0.75799 0.80295 0.21834
 C109 C 0.78269 0.73955 0.23016
 C110 C 0.73202 0.67838 0.25457
 C111 C 0.65642 0.68034 0.26767
 C112 C 0.63334 0.74508 0.25607
 H113 H 0.66362 0.85437 0.22359
 H114 H 0.83997 0.73614 0.22009
 H115 H 0.75152 0.62944 0.26299
 H116 H 0.57587 0.74914 0.26563
 C117 C 0.23271 0.03138 -0.09951
 C118 C 0.18516 -0.05237 -0.11645
 C119 C 0.20297 -0.12313 -0.10779
 C120 C 0.26545 -0.11093 -0.08362
 C121 C 0.31336 -0.02751 -0.06717
 C122 C 0.29686 0.04391 -0.07541
 H123 H 0.22372 0.08900 -0.10557
 H124 H 0.16602 -0.19022 -0.11862
 H125 H 0.27609 -0.16779 -0.07781
 H126 H 0.33291 0.10901 -0.06312
 C127 C -0.03757 0.67222 0.54324
 C128 C -0.01703 0.76360 0.54816
 C129 C 0.02625 0.80561 0.57748
 C130 C 0.04312 0.75670 0.60121
 C131 C 0.01684 0.66481 0.59641
 C132 C -0.02216 0.62346 0.56718
 H133 H -0.06514 0.63723 0.52083
 H134 H 0.04200 0.87428 0.58343
 H135 H 0.07151 0.78897 0.62403
 H136 H -0.04264 0.55229 0.56311
 C137 C 0.22446 0.26948 0.22815
 C138 C 0.24787 0.20437 0.21772
 C139 C 0.32186 0.20164 0.23237
 C140 C 0.37241 0.26318 0.25650
 C141 C 0.35059 0.32954 0.26677
 C142 C 0.27571 0.33193 0.25244
 H143 H 0.16764 0.27303 0.21714
 H144 H 0.34041 0.15120 0.22530
 H145 H 0.42922 0.25866 0.26704
 H146 H 0.25712 0.38204 0.25986
 C147 C 0.76610 0.10812 -0.10980
 C148 C 0.78222 0.03666 -0.11864
 C149 C 0.73376 -0.04756 -0.10213
 C150 C 0.67157 -0.05937 -0.07798
 C151 C 0.65749 0.01302 -0.06934
 C152 C 0.70526 0.09647 -0.08566
 H153 H 0.80357 0.17551 -0.12026
 H154 H 0.74097 -0.10589 -0.10840
 H155 H 0.63544 -0.12459 -0.06586
 H156 H 0.69636 0.15404 -0.07958
 C157 C 0.33333 0.11338 0.10936
 C158 C 0.24599 0.04287 0.11841
 C159 C 0.20951 -0.04187 0.10208
 C160 C 0.25900 -0.05509 0.07792
 C161 C 0.34525 0.01639 0.06907
 C162 C 0.38163 0.10035 0.08520
 H163 H 0.36376 0.18108 0.11969
 H164 H 0.14409 -0.09954 0.10853
 H165 H 0.22939 -0.12066 0.06594
 H166 H 0.44797 0.15723 0.07895
 C167 C 0.74886 0.78896 0.43711
 C168 C 0.79955 0.75435 0.45353
 C169 C 0.78371 0.66689 0.44475
 C170 C 0.72156 0.61703 0.42059
 C171 C 0.67217 0.65193 0.40419
 C172 C 0.68545 0.73798 0.41292
 H173 H 0.75560 0.85428 0.44337
 H174 H 0.82259 0.63766 0.45521
 H175 H 0.71316 0.55083 0.41448
 H176 H 0.64794 0.76639 0.40078
 C177 C 0.03521 0.26064 0.77289
 C178 C -0.05438 0.19803 0.78268
 C179 C -0.12856 0.19980 0.76768
 C180 C -0.11383 0.26300 0.74366
 C181 C -0.02442 0.32636 0.73395
 C182 C 0.05012 0.32450 0.74879
 H183 H 0.09371 0.26105 0.78422
 H184 H -0.19834 0.15149 0.77431
 H185 H -0.17302 0.26207 0.73270
 H186 H 0.11971 0.37231 0.74183
 C187 C 0.68071 -0.12151 0.10188
 C188 C 0.75536 -0.04465 0.11565
 C189 C 0.77867 0.04288 0.10407
 C190 C 0.72654 0.05303 0.07958
 C191 C 0.65092 -0.02433 0.06616
 C192 C 0.62938 -0.11157 0.07750
 H193 H 0.66214 -0.18977 0.10989
 H194 H 0.83594 0.10336 0.11441
 H195 H 0.74485 0.12101 0.07137
 H196 H 0.57195 -0.17296 0.06770
 C197 C 0.19960 0.32038 0.43461
 C198 C 0.20263 0.24613 0.44856
 C199 C 0.26691 0.22240 0.43750
 C200 C 0.32849 0.27373 0.41335
 C201 C 0.32595 0.34893 0.39975
 C202 C 0.26017 0.37091 0.41055
 H203 H 0.14989 0.33929 0.44227
 H204 H 0.27075 0.16546 0.44800
 H205 H 0.37823 0.25508 0.40552
 H206 H 0.25570 0.42808 0.40059
 C207 C 0.11393 0.80467 0.76749
 C208 C 0.03510 0.79791 0.78114
 C209 C -0.05149 0.73231 0.76914
 C210 C -0.05875 0.67257 0.74458
 C211 C 0.02057 0.67807 0.73158
 C212 C 0.10683 0.74571 0.74310
 H213 H 0.18151 0.85579 0.77576
 H214 H -0.11340 0.72579 0.77931
 H215 H -0.12607 0.62137 0.73617
 H216 H 0.16957 0.75282 0.73348
   
