data_POSCAR
  _audit_creation_date              2014-09-24
  _audit_creation_method            'ToBaCCo'
  _symmetry_space_group_name_H-M    'P1'
  _symmetry_Int_Tables_number       1
  _symmetry_cell_setting            triclinic
  loop_
  _symmetry_equiv_pos_as_xyz
 x,y,z
_cell_length_a 44.8365
_cell_length_b 44.9515
_cell_length_c 20.7215
_cell_angle_alpha 90.028400
_cell_angle_beta 89.982800
_cell_angle_gamma 119.693600
loop_
  _atom_site_label
  _atom_site_type_symbol
  _atom_site_fract_x
  _atom_site_fract_y
  _atom_site_fract_z
C1 C 0.48400 0.96955 0.53857
 C2 C 0.48781 0.96850 0.47087
 C3 C 0.50710 0.99911 0.43670
 C4 C 0.52227 1.03148 0.46693
 C5 C 0.51798 1.03284 0.53497
 C6 C 0.49895 1.00178 0.56893
 H7 H 0.49615 1.00266 0.62075
 H8 H 0.50914 0.99748 0.38480
 C9 C 0.03012 0.50963 0.53111
 C10 C 0.03020 0.51174 0.46324
 C11 C -0.00107 0.49682 0.42983
 C12 C -0.03289 0.47945 0.46214
 C13 C -0.03275 0.47809 0.53076
 C14 C -0.00131 0.49301 0.56398
 H15 H -0.00129 0.49214 0.61629
 H16 H -0.00031 0.49792 0.37755
 C17 C 0.48593 0.51914 0.53535
 C18 C 0.48553 0.51844 0.46683
 C19 C 0.50240 0.50381 0.43389
 C20 C 0.51936 0.48926 0.46672
 C21 C 0.51930 0.48886 0.53523
 C22 C 0.50274 0.50413 0.56812
 H23 H 0.50287 0.50424 0.62043
 H24 H 0.50225 0.50367 0.38152
 O25 O 0.38740 0.67406 -0.06688
 O26 O 0.38564 0.73005 -0.04031
 C27 C 0.36561 0.73605 -0.07459
 O28 O 0.33315 0.71939 -0.06866
 O29 O 0.27451 0.66221 -0.05857
 C30 C 0.27092 0.63802 -0.09517
 O31 O 0.28766 0.62245 -0.08690
 O32 O 0.34370 0.62038 -0.06328
 C33 C 0.37206 0.64332 -0.08667
 O34 O 0.38196 0.65822 0.05947
 O35 O 0.37835 0.71300 0.08611
 C36 C 0.36213 0.72895 0.09604
 O37 O 0.33742 0.72501 0.06045
 O38 O 0.28107 0.66566 0.07040
 C39 C 0.26529 0.63325 0.07592
 O40 O 0.27157 0.61398 0.04006
 O41 O 0.32867 0.61380 0.06366
 C42 C 0.35957 0.62966 0.08292
 Cr43 Cr 0.38142 0.69286 0.00917
 Cr44 Cr 0.30751 0.69213 0.00084
 Cr45 Cr 0.30884 0.61956 -0.01120
 O46 O 0.33267 0.66811 -0.00046
 O47 O 0.61189 0.32841 -0.06967
 O48 O 0.61072 0.27122 -0.04128
 C49 C 0.63058 0.26441 -0.07432
 O50 O 0.66289 0.27976 -0.06615
 O51 O 0.72250 0.33556 -0.05472
 C52 C 0.72720 0.35978 -0.09236
 O53 O 0.71134 0.37635 -0.08571
 O54 O 0.65664 0.38139 -0.06452
 C55 C 0.62822 0.35919 -0.08894
 O56 O 0.61648 0.34476 0.05648
 O57 O 0.61715 0.28880 0.08516
 C58 C 0.63211 0.27184 0.09715
 O59 O 0.65677 0.27437 0.06298
 O60 O 0.71442 0.33263 0.07404
 C61 C 0.73162 0.36505 0.07838
 O62 O 0.72664 0.38482 0.04142
 O63 O 0.67061 0.38756 0.06280
 C64 C 0.63948 0.37280 0.08076
 Cr65 Cr 0.61596 0.30917 0.00735
 Cr66 Cr 0.68823 0.30655 0.00391
 Cr67 Cr 0.69031 0.38065 -0.01107
 O68 O 0.66475 0.33218 0.00000
 C69 C 0.43444 0.91186 -0.44134
 C70 C 0.41738 0.88301 -0.40164
 C71 C 0.43190 0.88124 -0.34302
 C72 C 0.46360 0.90891 -0.32407
 C73 C 0.48046 0.93782 -0.36311
 C74 C 0.46643 0.93973 -0.42284
 N75 N 0.41408 0.85153 -0.30293
 N76 N 0.42859 0.84745 -0.25363
 C77 C 0.41199 0.81883 -0.21087
 C78 C 0.43172 0.81496 -0.16299
 C79 C 0.41665 0.78790 -0.11925
 C80 C 0.38127 0.76431 -0.12211
 C81 C 0.36137 0.76826 -0.17028
 C82 C 0.37666 0.79526 -0.21463
 H83 H 0.42179 0.91284 -0.48507
 H84 H 0.39271 0.86205 -0.41645
 H85 H 0.47539 0.90831 -0.27887
 H86 H 0.50518 0.95831 -0.34725
 H87 H 0.45894 0.83307 -0.15955
 H88 H 0.43272 0.78575 -0.08266
 H89 H 0.33408 0.75046 -0.17382
 H90 H 0.36090 0.79792 -0.25121
 C91 C 0.08618 0.51321 -0.44041
 C92 C 0.11620 0.52689 -0.40340
 C93 C 0.12291 0.55212 -0.35704
 C94 C 0.09911 0.56355 -0.34801
 C95 C 0.06899 0.54967 -0.38450
 C96 C 0.06233 0.52447 -0.43104
 N97 N 0.15332 0.56503 -0.31833
 N98 N 0.16202 0.59023 -0.28027
 C99 C 0.19126 0.60306 -0.23858
 C100 C 0.19930 0.63187 -0.20102
 C101 C 0.22590 0.64382 -0.15606
 C102 C 0.24500 0.62697 -0.14747
 C103 C 0.23753 0.59852 -0.18669
 C104 C 0.21085 0.58664 -0.23199
 H105 H 0.08131 0.49357 -0.47579
 H106 H 0.13421 0.51774 -0.41064
 H107 H 0.10355 0.58287 -0.31224
 H108 H 0.05089 0.55866 -0.37665
 H109 H 0.18437 0.64471 -0.20570
 H110 H 0.23093 0.66583 -0.12694
 H111 H 0.25173 0.58497 -0.18132
 H112 H 0.20501 0.56424 -0.26056
 C113 C 0.43680 0.52810 -0.44327
 C114 C 0.42100 0.54210 -0.40532
 C115 C 0.43802 0.56260 -0.35201
 C116 C 0.47103 0.56868 -0.33639
 C117 C 0.48660 0.55419 -0.37340
 C118 C 0.46995 0.53397 -0.42798
 N119 N 0.42083 0.57568 -0.31271
 N120 N 0.43699 0.59946 -0.27173
 C121 C 0.41989 0.61137 -0.22942
 C122 C 0.43951 0.64131 -0.19373
 C123 C 0.42384 0.65242 -0.14883
 C124 C 0.38826 0.63327 -0.13802
 C125 C 0.36853 0.60347 -0.17465
 C126 C 0.38416 0.59273 -0.22030
 H127 H 0.42231 0.51138 -0.48269
 H128 H 0.39528 0.53673 -0.41719
 H129 H 0.48460 0.58420 -0.29499
 H130 H 0.51222 0.55971 -0.36022
 H131 H 0.46708 0.65580 -0.20015
 H132 H 0.43973 0.67536 -0.12111
 H133 H 0.34104 0.58828 -0.16756
 H134 H 0.36849 0.56939 -0.24711
 C135 C 0.56891 0.08839 -0.43832
 C136 C 0.58512 0.11724 -0.39833
 C137 C 0.56712 0.12188 -0.34777
 C138 C 0.53246 0.09747 -0.33803
 C139 C 0.51633 0.06860 -0.37739
 C140 C 0.53421 0.06346 -0.42822
 N141 N 0.58458 0.15076 -0.30553
 N142 N 0.56849 0.15658 -0.26119
 C143 C 0.58485 0.18432 -0.21640
 C144 C 0.56433 0.18991 -0.17284
 C145 C 0.57917 0.21602 -0.12702
 C146 C 0.61504 0.23695 -0.12355
 C147 C 0.63568 0.23131 -0.16754
 C148 C 0.62070 0.20525 -0.21377
 H149 H 0.58401 0.08492 -0.47523
 H150 H 0.61195 0.13572 -0.40605
 H151 H 0.51788 0.10042 -0.29939
 H152 H 0.48949 0.05048 -0.36858
 H153 H 0.53667 0.17383 -0.17430
 H154 H 0.56249 0.21957 -0.09393
 H155 H 0.66338 0.24705 -0.16631
 H156 H 0.63708 0.20127 -0.24688
 C157 C 0.91329 0.47806 -0.43711
 C158 C 0.88369 0.46568 -0.39917
 C159 C 0.87583 0.43971 -0.35392
 C160 C 0.89806 0.42623 -0.34686
 C161 C 0.92775 0.43876 -0.38439
 C162 C 0.93549 0.46461 -0.43006
 N163 N 0.84582 0.42808 -0.31450
 N164 N 0.83623 0.40281 -0.27630
 C165 C 0.80718 0.39129 -0.23443
 C166 C 0.79824 0.36267 -0.19569
 C167 C 0.77160 0.35187 -0.15099
 C168 C 0.75337 0.36971 -0.14395
 C169 C 0.76179 0.39799 -0.18424
 C170 C 0.78851 0.40873 -0.22919
 H171 H 0.91905 0.49830 -0.47160
 H172 H 0.86692 0.47642 -0.40482
 H173 H 0.89270 0.40630 -0.31194
 H174 H 0.94461 0.42815 -0.37817
 H175 H 0.81245 0.34904 -0.19935
 H176 H 0.76581 0.32995 -0.12098
 H177 H 0.74827 0.41228 -0.18008
 H178 H 0.79501 0.43099 -0.25871
 C179 C 0.56801 0.47914 -0.44397
 C180 C 0.58355 0.46476 -0.40633
 C181 C 0.56644 0.44438 -0.35295
 C182 C 0.53370 0.43890 -0.33685
 C183 C 0.51843 0.45379 -0.37350
 C184 C 0.53511 0.47382 -0.42823
 N185 N 0.58320 0.43064 -0.31417
 N186 N 0.56657 0.40656 -0.27403
 C187 C 0.58298 0.39378 -0.23200
 C188 C 0.56266 0.36354 -0.19768
 C189 C 0.57752 0.35158 -0.15282
 C190 C 0.61301 0.37015 -0.14064
 C191 C 0.63347 0.40025 -0.17597
 C192 C 0.61862 0.41186 -0.22163
 H193 H 0.58251 0.49567 -0.48359
 H194 H 0.60906 0.46965 -0.41860
 H195 H 0.52008 0.42350 -0.29538
 H196 H 0.49297 0.44867 -0.35999
 H197 H 0.53514 0.34948 -0.20508
 H198 H 0.56107 0.32843 -0.12614
 H199 H 0.66090 0.41503 -0.16777
 H200 H 0.63480 0.43543 -0.24737
 C201 C 0.90938 0.43050 0.44059
 C202 C 0.88006 0.41438 0.40172
 C203 C 0.87712 0.43071 0.34667
 C204 C 0.90391 0.46352 0.33080
 C205 C 0.93331 0.47952 0.36908
 C206 C 0.93656 0.46342 0.42495
 N207 N 0.84731 0.41331 0.30653
 N208 N 0.84241 0.42844 0.25927
 C209 C 0.81368 0.41186 0.21659
 C210 C 0.80917 0.43164 0.16980
 C211 C 0.78226 0.41646 0.12560
 C212 C 0.75940 0.38094 0.12700
 C213 C 0.76385 0.36105 0.17442
 C214 C 0.79074 0.37642 0.21908
 H215 H 0.91133 0.41637 0.48106
 H216 H 0.85979 0.38890 0.41404
 H217 H 0.90232 0.47673 0.28841
 H218 H 0.95317 0.50502 0.35565
 H219 H 0.82677 0.45896 0.16735
 H220 H 0.77970 0.43257 0.08973
 H221 H 0.74665 0.33366 0.17687
 H222 H 0.79386 0.36061 0.25481
 C223 C 0.55991 0.06212 0.37577
 C224 C 0.57524 0.09035 0.33466
 C225 C 0.56921 0.11777 0.34251
 C226 C 0.54795 0.11700 0.39302
 C227 C 0.53283 0.08888 0.43490
 C228 C 0.53859 0.06092 0.42695
 N229 N 0.58444 0.14548 0.29740
 N230 N 0.57760 0.16978 0.29597
 C231 C 0.59301 0.19659 0.24889
 C232 C 0.58112 0.21996 0.24241
 C233 C 0.59419 0.24492 0.19391
 C234 C 0.61967 0.24707 0.15138
 C235 C 0.63227 0.22420 0.15945
 C236 C 0.61901 0.19916 0.20748
 H237 H 0.56550 0.04152 0.36835
 H238 H 0.59164 0.09070 0.29593
 H239 H 0.54273 0.13788 0.39969
 H240 H 0.51560 0.08850 0.47191
 H241 H 0.56113 0.21831 0.27405
 H242 H 0.58401 0.26221 0.18918
 H243 H 0.65189 0.22510 0.12768
 H244 H 0.62881 0.18155 0.21164
 C245 C 0.52063 0.43658 0.43126
 C246 C 0.53341 0.42039 0.39132
 C247 C 0.55972 0.43945 0.34717
 C248 C 0.57326 0.47508 0.34343
 C249 C 0.56024 0.49121 0.38277
 C250 C 0.53391 0.47211 0.42706
 N251 N 0.57127 0.42198 0.30494
 N252 N 0.59758 0.43808 0.26914
 C253 C 0.60831 0.42086 0.22461
 C254 C 0.63980 0.43964 0.19286
 C255 C 0.65034 0.42393 0.14701
 C256 C 0.62919 0.38915 0.13145
 C257 C 0.59768 0.37028 0.16384
 C258 C 0.58739 0.38594 0.21024
 H259 H 0.50005 0.42142 0.46471
 H260 H 0.52263 0.39290 0.39437
 H261 H 0.59342 0.49033 0.30935
 H262 H 0.57064 0.51862 0.37874
 H263 H 0.65608 0.46660 0.20337
 H264 H 0.67470 0.43918 0.12278
 H265 H 0.58089 0.34341 0.15319
 H266 H 0.56285 0.37091 0.23397
 C267 C 0.08544 0.56458 0.43480
 C268 C 0.11455 0.58167 0.39564
 C269 C 0.12098 0.56401 0.34685
 C270 C 0.09820 0.52879 0.33833
 C271 C 0.06910 0.51178 0.37717
 C272 C 0.06238 0.52956 0.42542
 N273 N 0.14992 0.58240 0.30506
 N274 N 0.15705 0.56708 0.26122
 C275 C 0.18496 0.58451 0.21704
 C276 C 0.19161 0.56498 0.17300
 C277 C 0.21783 0.58084 0.12759
 C278 C 0.23787 0.61677 0.12510
 C279 C 0.23125 0.63641 0.16973
 C280 C 0.20501 0.62040 0.21548
 H281 H 0.08046 0.57880 0.47135
 H282 H 0.13182 0.60880 0.40261
 H283 H 0.10253 0.51451 0.30096
 H284 H 0.05159 0.48476 0.36925
 H285 H 0.17624 0.53731 0.17367
 H286 H 0.22214 0.56487 0.09405
 H287 H 0.24626 0.66410 0.16923
 H288 H 0.20021 0.63601 0.24904
 C289 C 0.48502 0.91258 0.44454
 C290 C 0.47190 0.88258 0.40765
 C291 C 0.44714 0.87573 0.35997
 C292 C 0.43575 0.89939 0.34937
 C293 C 0.44910 0.92945 0.38560
 C294 C 0.47365 0.93618 0.43366
 N295 N 0.43461 0.84533 0.32149
 N296 N 0.40926 0.83637 0.28353
 C297 C 0.39658 0.80734 0.24155
 C298 C 0.36733 0.79896 0.20490
 C299 C 0.35554 0.77273 0.15933
 C300 C 0.37302 0.75437 0.14912
 C301 C 0.40191 0.76213 0.18747
 C302 C 0.41362 0.78844 0.23344
 H303 H 0.50419 0.91756 0.48112
 H304 H 0.48104 0.86469 0.41608
 H305 H 0.41687 0.89490 0.31252
 H306 H 0.44016 0.94746 0.37645
 H307 H 0.35403 0.81338 0.21074
 H308 H 0.33317 0.76745 0.13094
 H309 H 0.41595 0.74849 0.18085
 H310 H 0.43639 0.79458 0.26126
 C311 C 0.48312 0.57051 0.43124
 C312 C 0.46960 0.58615 0.39170
 C313 C 0.44311 0.56660 0.34817
 C314 C 0.43019 0.53106 0.34459
 C315 C 0.44395 0.51549 0.38353
 C316 C 0.47041 0.53507 0.42726
 N317 N 0.43073 0.58349 0.30642
 N318 N 0.40427 0.56687 0.27119
 C319 C 0.39268 0.58351 0.22706
 C320 C 0.36131 0.56401 0.19533
 C321 C 0.35007 0.57910 0.14953
 C322 C 0.37039 0.61400 0.13405
 C323 C 0.40173 0.63361 0.16661
 C324 C 0.41272 0.61856 0.21291
 H325 H 0.50378 0.58604 0.46428
 H326 H 0.47990 0.61357 0.39462
 H327 H 0.40991 0.51544 0.31099
 H328 H 0.43396 0.48813 0.37970
 H329 H 0.34570 0.53694 0.20569
 H330 H 0.32587 0.56328 0.12520
 H331 H 0.41789 0.66059 0.15603
 H332 H 0.43715 0.63414 0.23665
   
