data_POSCAR
  _audit_creation_date              2014-09-24
  _audit_creation_method            'ToBaCCo'
  _symmetry_space_group_name_H-M    'P1'
  _symmetry_Int_Tables_number       1
  _symmetry_cell_setting            triclinic
  loop_
  _symmetry_equiv_pos_as_xyz
 x,y,z
_cell_length_a 15.9638
_cell_length_b 23.2499
_cell_length_c 16.1018
_cell_angle_alpha 90.242400
_cell_angle_beta 89.773500
_cell_angle_gamma 89.856900
loop_
  _atom_site_label
  _atom_site_type_symbol
  _atom_site_fract_x
  _atom_site_fract_y
  _atom_site_fract_z
N1 N 0.14634 0.06128 0.08829
 N2 N 0.19797 0.10498 0.09856
 N3 N 0.08856 -0.05927 0.14754
 N4 N 0.09861 -0.10273 0.19913
 N5 N 0.14717 -0.05976 0.09004
 N6 N 0.19872 -0.10357 0.10086
 N7 N 0.08775 0.06172 0.14578
 N8 N 0.09779 0.10571 0.19682
 C9 C 0.16668 0.13205 0.16641
 C10 C 0.16756 -0.12971 0.16914
 N11 N -0.14957 -0.06005 0.08918
 N12 N -0.20054 -0.10407 0.09967
 N13 N -0.09258 0.06173 0.14523
 N14 N -0.10327 0.10612 0.19569
 N15 N -0.15030 0.06096 0.08740
 N16 N -0.20444 0.10758 0.09821
 N17 N -0.09180 -0.05932 0.14702
 N18 N -0.10178 -0.10279 0.19853
 Mn19 Mn -0.00203 0.00122 0.14737
 C20 C -0.16984 -0.13002 0.16812
 C21 C -0.17181 0.13353 0.16609
 N22 N 0.14852 -0.06136 -0.08878
 N23 N 0.20290 -0.10782 -0.09938
 N24 N 0.08993 0.05878 -0.14866
 N25 N 0.10007 0.10233 -0.20014
 N26 N 0.14756 0.05959 -0.09065
 N27 N 0.19852 0.10365 -0.10103
 N28 N 0.09076 -0.06238 -0.14657
 N29 N 0.10170 -0.10681 -0.19688
 Mn30 Mn 0.14839 -0.00006 -0.00028
 C31 C 0.17040 -0.13393 -0.16713
 C32 C 0.16806 0.12965 -0.16956
 N33 N -0.14899 0.05903 -0.09154
 N34 N -0.20019 0.10304 -0.10213
 N35 N -0.08992 -0.06281 -0.14714
 N36 N -0.09988 -0.10719 -0.19770
 N37 N -0.14846 -0.06194 -0.08964
 N38 N -0.20233 -0.10842 -0.10075
 N39 N -0.09054 0.05834 -0.14919
 N40 N -0.10028 0.10189 -0.20063
 Mn41 Mn -0.15033 -0.00049 -0.00116
 Mn42 Mn 0.00007 -0.00205 -0.14892
 Cl43 Cl -0.00097 -0.00034 -0.00077
 C44 C -0.16894 0.12906 -0.17042
 C45 C -0.16877 -0.13446 -0.16843
 N46 N 0.64959 0.56070 0.58973
 N47 N 0.70141 0.60433 0.59996
 N48 N 0.59118 0.43990 0.64734
 N49 N 0.60120 0.39602 0.69812
 N50 N 0.64934 0.43963 0.58940
 N51 N 0.70060 0.39554 0.59912
 N52 N 0.59139 0.56100 0.64765
 N53 N 0.60202 0.60485 0.69893
 C54 C 0.67085 0.63125 0.66827
 C55 C 0.66967 0.36903 0.66717
 N56 N 0.35253 0.44013 0.59056
 N57 N 0.30116 0.39625 0.60060
 N58 N 0.41078 0.56121 0.64841
 N59 N 0.40027 0.60504 0.69983
 N60 N 0.35258 0.56118 0.59098
 N61 N 0.30081 0.60498 0.60166
 N62 N 0.41068 0.44010 0.64807
 N63 N 0.40049 0.39618 0.69885
 Mn64 Mn 0.50101 0.50057 0.64888
 C65 C 0.33193 0.36948 0.66837
 C66 C 0.33149 0.63167 0.66974
 N67 N 0.64929 0.43920 0.41044
 N68 N 0.70082 0.39524 0.39965
 N69 N 0.59117 0.56031 0.35345
 N70 N 0.60119 0.60411 0.30255
 N71 N 0.64944 0.56029 0.41081
 N72 N 0.70081 0.60413 0.40057
 N73 N 0.59105 0.43931 0.35302
 N74 N 0.60130 0.39546 0.30158
 Mn75 Mn 0.65043 0.49995 0.50009
 C76 C 0.66997 0.36860 0.33155
 C77 C 0.66979 0.63076 0.33281
 N78 N 0.35260 0.56112 0.41210
 N79 N 0.30103 0.60503 0.40212
 N80 N 0.41072 0.43991 0.35377
 N81 N 0.40022 0.39626 0.30224
 N82 N 0.35252 0.44006 0.41165
 N83 N 0.30071 0.39649 0.40116
 N84 N 0.41082 0.56091 0.35421
 N85 N 0.40050 0.60466 0.30320
 Mn86 Mn 0.35156 0.50062 0.50134
 Mn87 Mn 0.50094 0.50011 0.35265
 Cl88 Cl 0.50099 0.50031 0.50076
 C89 C 0.33183 0.63155 0.33398
 C90 C 0.33144 0.36983 0.33273
 C91 C 0.20212 0.18306 0.20185
 C92 C 0.23168 0.22594 0.23182
 C93 C 0.26621 0.27611 0.26702
 C94 C 0.29583 0.31894 0.29708
 C95 C 0.79563 0.81876 0.20352
 C96 C 0.76694 0.77565 0.23331
 C97 C 0.73344 0.72514 0.26816
 C98 C 0.70463 0.68201 0.29780
 C99 C 0.79648 0.18040 0.79436
 C100 C 0.76754 0.22363 0.76500
 C101 C 0.73365 0.27431 0.73082
 C102 C 0.70457 0.31758 0.70173
 C103 C 0.20178 0.81945 0.80003
 C104 C 0.23115 0.77632 0.76997
 C105 C 0.26589 0.72587 0.73505
 C106 C 0.29577 0.68283 0.70528
 C107 C 0.20301 0.18101 0.79523
 C108 C 0.23246 0.22421 0.76605
 C109 C 0.26707 0.27485 0.73209
 C110 C 0.29666 0.31807 0.70310
 C111 C 0.80043 0.81893 0.79832
 C112 C 0.77135 0.77584 0.76810
 C113 C 0.73667 0.72540 0.73318
 C114 C 0.70674 0.68239 0.70356
 C115 C 0.20276 0.81918 0.20481
 C116 C 0.23223 0.77619 0.23460
 C117 C 0.26676 0.72579 0.26934
 C118 C 0.29635 0.68276 0.29889
 C119 C 0.79718 0.18026 0.19924
 C120 C 0.76842 0.22349 0.22981
 C121 C 0.73452 0.27410 0.26546
 C122 C 0.70528 0.31726 0.29573
   
