data_POSCAR
  _audit_creation_date              2014-09-24
  _audit_creation_method            'ToBaCCo'
  _symmetry_space_group_name_H-M    'P1'
  _symmetry_Int_Tables_number       1
  _symmetry_cell_setting            triclinic
  loop_
  _symmetry_equiv_pos_as_xyz
 x,y,z
_cell_length_a 40.6810
_cell_length_b 41.8404
_cell_length_c 39.4949
_cell_angle_alpha 91.472600
_cell_angle_beta 93.355300
_cell_angle_gamma 88.978000
loop_
  _atom_site_label
  _atom_site_type_symbol
  _atom_site_fract_x
  _atom_site_fract_y
  _atom_site_fract_z
C1 C 0.35741 0.38310 1.35800
 C2 C 0.37993 0.38172 1.33218
 C3 C 0.40696 0.36115 1.33503
 C4 C 0.41192 0.34169 1.36325
 C5 C 0.38972 0.34281 1.38839
 C6 C 0.36263 0.36398 1.38602
 C7 C 0.32850 0.40021 1.36231
 N8 N 0.31655 0.39217 1.39246
 C9 C 0.33738 0.37013 1.40700
 C10 C 0.39924 0.31959 1.41123
 N11 N 0.42683 0.30447 1.40048
 C12 C 0.43498 0.31825 1.37144
 C13 C 0.42386 0.36356 1.30617
 N14 N 0.40812 0.38517 1.28574
 C15 C 0.38112 0.39652 1.30135
 H16 H 0.31756 0.41755 1.34499
 H17 H 0.33421 0.35908 1.43108
 H18 H 0.38658 0.31406 1.43363
 H19 H 0.45533 0.31072 1.35646
 H20 H 0.44589 0.35017 1.30016
 H21 H 0.36325 0.41358 1.29090
 C22 C 1.12128 0.58463 0.89257
 C23 C 1.09800 0.58676 0.86510
 C24 C 1.07303 0.60969 0.86553
 C25 C 1.07126 0.63102 0.89346
 C26 C 1.09406 0.62850 0.92070
 C27 C 1.11911 0.60521 0.92027
 C28 C 1.15067 0.56798 0.89678
 N29 N 1.16642 0.57824 0.92636
 C30 C 1.14702 0.60070 0.94099
 C31 C 1.08954 0.65447 0.94192
 N32 N 1.06495 0.67314 0.92815
 C33 C 1.05328 0.65882 0.89858
 C34 C 1.05586 0.60781 0.83444
 N35 N 1.06994 0.58455 0.81526
 C36 C 1.09575 0.57156 0.83380
 H37 H 1.16032 0.55112 0.87853
 H38 H 1.15380 0.61440 0.96392
 H39 H 1.10471 0.66055 0.96456
 H40 H 1.03472 0.66860 0.88086
 H41 H 1.03521 0.62286 0.82598
 H42 H 1.11193 0.55260 0.82523
 C43 C 0.66912 -0.13293 0.14969
 C44 C 0.64574 -0.13727 0.17369
 C45 C 0.62465 -0.16284 0.17034
 C46 C 0.62636 -0.18414 0.14248
 C47 C 0.64940 -0.17984 0.11865
 C48 C 0.67101 -0.15398 0.12229
 C49 C 0.69340 -0.11083 0.14754
 N50 N 0.71009 -0.11775 0.11945
 C51 C 0.69648 -0.14416 0.10371
 C52 C 0.64567 -0.20438 0.09488
 N53 N 0.62077 -0.22324 0.10352
 C54 C 0.60888 -0.21099 0.13275
 C55 C 0.60551 -0.16167 0.19800
 N56 N 0.61425 -0.13575 0.21758
 C57 C 0.63891 -0.12073 0.20299
 H58 H 0.69882 -0.09127 0.16539
 H59 H 0.70464 -0.15597 0.08095
 H60 H 0.65999 -0.20820 0.07282
 H61 H 0.58929 -0.22076 0.14645
 H62 H 0.58668 -0.17840 0.20357
 H63 H 0.65154 -0.09979 0.21335
 C64 C -0.15329 1.14463 -0.37479
 C65 C -0.12825 1.14322 -0.34887
 C66 C -0.10503 1.16694 -0.34556
 C67 C -0.10637 1.19228 -0.36806
 C68 C -0.13086 1.19368 -0.39381
 C69 C -0.15477 1.16979 -0.39697
 C70 C -0.18023 1.12590 -0.38271
 N71 N -0.19833 1.13925 -0.40897
 C72 C -0.18288 1.16609 -0.41778
 C73 C -0.12625 1.22129 -0.41118
 N74 N -0.09967 1.23660 -0.39626
 C75 C -0.08762 1.21907 -0.36978
 C76 C -0.08468 1.16040 -0.31752
 N77 N -0.09497 1.13332 -0.30361
 C78 C -0.12170 1.12257 -0.32262
 H79 H -0.18666 1.10500 -0.36913
 H80 H -0.19186 1.18217 -0.43744
 H81 H -0.14169 1.22975 -0.43243
 H82 H -0.06665 1.22540 -0.35292
 H83 H -0.06422 1.17466 -0.30750
 H84 H -0.13587 1.10179 -0.31754
 C85 C 0.69100 0.63260 0.64503
 C86 C 0.66661 0.63311 0.66857
 C87 C 0.64105 0.65537 0.66631
 C88 C 0.64007 0.67801 0.64047
 C89 C 0.66440 0.67751 0.61726
 C90 C 0.69000 0.65451 0.61943
 C91 C 0.71866 0.61374 0.64182
 N92 N 0.73459 0.62344 0.61481
 C93 C 0.71733 0.64852 0.60089
 C94 C 0.65814 0.70282 0.59617
 N95 N 0.63082 0.71890 0.60591
 C96 C 0.61947 0.70379 0.63299
 C97 C 0.62166 0.65033 0.69326
 N98 N 0.63528 0.62583 0.71156
 C99 C 0.66278 0.61537 0.69675
 H100 H 0.72673 0.59431 0.65807
 H101 H 0.72409 0.66166 0.57919
 H102 H 0.67292 0.70952 0.57562
 H103 H 0.59839 0.71114 0.64690
 H104 H 0.60002 0.66410 0.69968
 H105 H 0.67905 0.59640 0.70613
 C106 C 0.83230 0.37301 0.12201
 C107 C 0.86259 0.37567 0.14052
 C108 C 0.88646 0.35201 0.13754
 C109 C 0.88029 0.32528 0.11615
 C110 C 0.85036 0.32261 0.09788
 C111 C 0.82634 0.34691 0.10045
 C112 C 0.80411 0.39163 0.12126
 N113 N 0.78143 0.37793 0.09917
 C114 C 0.79478 0.35044 0.08633
 C115 C 0.85020 0.29306 0.08173
 N116 N 0.87933 0.27785 0.08957
 C117 C 0.89799 0.29755 0.11053
 C118 C 0.91238 0.35983 0.15995
 N119 N 0.90486 0.38767 0.17633
 C120 C 0.87438 0.39757 0.16460
 H121 H 0.80040 0.41367 0.13564
 H122 H 0.78233 0.33365 0.06892
 H123 H 0.82997 0.28296 0.06616
 H124 H 0.92192 0.29179 0.12240
 H125 H 0.93469 0.34578 0.16483
 H126 H 0.86107 0.41838 0.17364
 C127 C 0.32963 0.10451 0.88099
 C128 C 0.35254 0.10214 0.85584
 C129 C 0.37646 0.12506 0.85430
 C130 C 0.37787 0.15065 0.87800
 C131 C 0.35534 0.15286 0.90291
 C132 C 0.33091 0.12980 0.90423
 C133 C 0.30255 0.08679 0.88725
 N134 N 0.28717 0.10099 0.91355
 C135 C 0.30443 0.12727 0.92404
 C136 C 0.36210 0.18019 0.92193
 N137 N 0.38792 0.19478 0.90901
 C138 C 0.39781 0.17691 0.88210
 C139 C 0.39423 0.11749 0.82651
 N140 N 0.38158 0.09055 0.81114
 C141 C 0.35613 0.08104 0.82897
 H142 H 0.29415 0.06602 0.87258
 H143 H 0.29772 0.14382 0.94413
 H144 H 0.34895 0.18910 0.94338
 H145 H 0.41809 0.18239 0.86679
 H146 H 0.41440 0.13110 0.81803
 H147 H 0.34092 0.06057 0.82241
 C148 C 0.14548 0.90386 0.38888
 C149 C 0.11886 0.90831 0.36493
 C150 C 0.09198 0.88841 0.36480
 C151 C 0.09168 0.86337 0.38759
 C152 C 0.11798 0.85872 0.41072
 C153 C 0.14482 0.87928 0.41164
 C154 C 0.17521 0.91896 0.39508
 N155 N 0.19233 0.90411 0.42113
 C156 C 0.17386 0.87980 0.43116
 C157 C 0.11252 0.83094 0.42727
 N158 N 0.08361 0.81854 0.41441
 C159 C 0.07054 0.83844 0.39044
 C160 C 0.07039 0.89714 0.33853
 N161 N 0.08356 0.92148 0.32224
 C162 C 0.11322 0.92863 0.33807
 H163 H 0.18342 0.93915 0.38146
 H164 H 0.18115 0.86347 0.45120
 H165 H 0.12910 0.82013 0.44626
 H166 H 0.04818 0.83408 0.37489
 H167 H 0.04726 0.88587 0.33100
 H168 H 0.12955 0.94691 0.33042
 Zn169 Zn 0.02811 0.95981 0.00303
 Zn170 Zn -0.03703 0.96421 -0.03499
 Zn171 Zn -0.02758 0.99633 0.03317
 Zn172 Zn 0.00501 1.02162 -0.02643
 O173 O -0.00787 0.98552 -0.00623
 O174 O 0.02365 0.92020 -0.01496
 O175 O -0.07536 0.95824 -0.01685
 O176 O -0.00394 0.98281 0.07023
 O177 O -0.02324 0.92482 -0.04594
 O178 O 0.03709 0.95583 0.04761
 O179 O -0.06816 0.98002 0.03469
 O180 O -0.00477 1.05721 -0.00296
 O181 O -0.04613 0.98409 -0.07399
 O182 O -0.03221 1.03886 0.03916
 O183 O -0.01461 1.02664 -0.06783
 O184 O 0.04830 1.02208 -0.03212
 O185 O 0.06500 0.97495 -0.01282
 C186 C 0.00160 0.90844 -0.03545
 C187 C -0.08565 0.96476 0.01221
 C188 C 0.02274 0.96657 0.07330
 C189 C -0.02114 1.06190 0.02311
 C190 C -0.03550 1.00984 -0.08513
 C191 C 0.07085 1.00127 -0.02631
 Zn192 Zn 0.48313 0.01610 0.46454
 Zn193 Zn 0.47595 -0.01456 0.53136
 Zn194 Zn 0.54013 -0.01877 0.49785
 Zn195 Zn 0.51746 0.04414 0.52597
 O196 O 0.50411 0.00664 0.50509
 O197 O 0.44277 0.00073 0.46038
 O198 O 0.49177 -0.05353 0.54356
 O199 O 0.54451 -0.02805 0.45382
 O200 O 0.43582 -0.02111 0.50991
 O201 O 0.50382 0.00028 0.42898
 O202 O 0.53905 -0.05624 0.51850
 O203 O 0.56131 0.04676 0.53199
 O204 O 0.46934 0.00705 0.57057
 O205 O 0.57808 -0.00059 0.51275
 O206 O 0.50165 0.04889 0.56695
 O207 O 0.50362 0.07932 0.50369
 O208 O 0.47730 0.05794 0.45834
 C209 C 0.42510 -0.01383 0.48013
 C210 C 0.51822 -0.06841 0.53689
 C211 C 0.52858 -0.01839 0.42732
 C212 C 0.58420 0.02678 0.52595
 C213 C 0.48173 0.03282 0.58294
 C214 C 0.48635 0.08217 0.47611
 Zn215 Zn 1.02070 0.47257 0.45369
 Zn216 Zn 1.05937 0.52147 0.49386
 Zn217 Zn 0.99585 0.54010 0.45569
 Zn218 Zn 0.99472 0.50042 0.51722
 O219 O 1.01768 0.50871 0.48013
 O220 O 1.06225 0.46108 0.44605
 O221 O 1.06672 0.56153 0.48170
 O222 O 0.98384 0.52762 0.41286
 O223 O 1.09144 0.49715 0.47603
 O224 O 1.00155 0.47733 0.41256
 O225 O 1.02014 0.57506 0.45328
 O226 O 0.95768 0.52414 0.51959
 O227 O 1.06667 0.52184 0.53919
 O228 O 0.95859 0.55363 0.47399
 O229 O 1.01803 0.50821 0.55618
 O230 O 0.98246 0.45960 0.51824
 O231 O 1.00151 0.43885 0.47094
 C232 C 1.08972 0.47297 0.45591
 C233 C 1.04893 0.58171 0.46526
 C234 C 0.98731 0.50074 0.39777
 C235 C 0.94498 0.54554 0.50047
 C236 C 1.04752 0.51684 0.56267
 C237 C 0.98630 0.43608 0.49782
 Zn238 Zn 0.46993 0.48869 0.93672
 Zn239 Zn 0.46126 0.52333 1.00302
 Zn240 Zn 0.49776 0.46108 1.00157
 Zn241 Zn 0.52724 0.51912 0.97341
 O242 O 0.48903 0.49806 0.97874
 O243 O 0.42859 0.50327 0.93225
 O244 O 0.45108 0.50591 1.04192
 O245 O 0.48471 0.42630 0.97728
 O246 O 0.42238 0.53039 0.98044
 O247 O 0.46747 0.44655 0.92794
 O248 O 0.47828 0.45970 1.04126
 O249 O 0.56293 0.49649 0.98777
 O250 O 0.47873 0.56126 1.01535
 O251 O 0.54089 0.45483 1.01101
 O252 O 0.52870 0.55676 0.99601
 O253 O 0.53309 0.52867 0.93023
 O254 O 0.49034 0.50607 0.90270
 C255 C 0.41113 0.52013 0.95159
 C256 C 0.45932 0.47964 1.05553
 C257 C 0.47318 0.42279 0.94685
 C258 C 0.56582 0.47037 1.00336
 C259 C 0.50719 0.57232 1.01201
 C260 C 0.51615 0.52264 0.90289
 C261 C 1.28909 0.40365 0.40714
 C262 C 1.26477 0.42219 0.39018
 C263 C 1.23535 0.43354 0.40729
 N264 N 1.20641 0.43822 0.38908
 N265 N 1.17957 0.44814 0.40438
 C266 C 1.18076 0.45415 0.43841
 N267 N 1.20983 0.44995 0.45654
 N268 N 1.23656 0.43960 0.44131
 C269 C 1.15137 0.46584 0.45535
 C270 C 1.11973 0.45891 0.44211
 H271 H 1.26583 0.42643 0.36337
 H272 H 1.15468 0.47957 0.47890
 H273 H 1.28505 0.39683 0.43287
 H274 H 1.11675 0.44280 0.42026
 C275 C 0.19747 0.57079 0.93861
 C276 C 0.21910 0.55123 0.92093
 C277 C 0.25405 0.54802 0.93209
 N278 N 0.27515 0.53245 0.91180
 N279 N 0.30712 0.53037 0.92091
 C280 C 0.31918 0.54383 0.95065
 N281 N 0.29806 0.55923 0.97106
 N282 N 0.26608 0.56138 0.96190
 C283 C 0.35435 0.54131 0.96112
 C284 C 0.37686 0.52686 0.94009
 H285 H 0.21120 0.53959 0.89719
 H286 H 0.36247 0.55009 0.98622
 H287 H 0.20650 0.58215 0.96226
 H288 H 0.36864 0.51827 0.91495
 C289 C -0.26363 0.89916 0.11053
 C290 C -0.24712 0.89262 0.08107
 C291 C -0.21766 0.91025 0.07317
 N292 N -0.20426 0.90516 0.04283
 N293 N -0.17715 0.92033 0.03556
 C294 C -0.16234 0.94111 0.05838
 N295 N -0.17573 0.94621 0.08876
 N296 N -0.20293 0.93111 0.09599
 C297 C -0.13161 0.95695 0.05102
 C298 C -0.11834 0.95328 0.01943
 H299 H -0.25573 0.87431 0.06306
 H300 H -0.11872 0.97073 0.07107
 H301 H -0.25511 0.91874 0.12712
 H302 H -0.13173 0.93993 -0.00064
 C303 C 0.77214 0.12942 0.57677
 C304 C 0.75814 0.10037 0.58437
 C305 C 0.72475 0.09158 0.57159
 N306 N 0.71493 0.06086 0.57328
 N307 N 0.68437 0.05272 0.56301
 C308 C 0.66239 0.07508 0.55097
 N309 N 0.67214 0.10583 0.54944
 N310 N 0.70279 0.11393 0.55945
 C311 C 0.62821 0.06668 0.54079
 C312 C 0.61866 0.03513 0.53471
 H313 H 0.77192 0.08315 0.59969
 H314 H 0.61021 0.08591 0.53746
 H315 H 0.75900 0.14465 0.55856
 H316 H 0.63704 0.01606 0.53557
 C317 C 0.44319 0.27882 0.41430
 C318 C 0.42997 0.26006 0.43871
 C319 C 0.44593 0.22990 0.44937
 N320 N 0.42714 0.20463 0.45604
 N321 N 0.44110 0.17672 0.46451
 C322 C 0.47439 0.17317 0.46712
 N323 N 0.49325 0.19863 0.46114
 N324 N 0.47926 0.22644 0.45210
 C325 C 0.48962 0.14221 0.47624
 C326 C 0.47489 0.11384 0.46482
 H327 H 0.40542 0.26498 0.44682
 H328 H 0.51286 0.14168 0.49108
 H329 H 0.46609 0.27087 0.40383
 H330 H 0.45368 0.11487 0.44693
 C331 C 0.91328 0.26487 0.59535
 C332 C 0.90392 0.28082 0.56560
 C333 C 0.91882 0.31141 0.55808
 N334 N 0.91936 0.32105 0.52558
 N335 N 0.93328 0.34854 0.51861
 C336 C 0.94686 0.36751 0.54396
 N337 N 0.94588 0.35808 0.57646
 N338 N 0.93230 0.33045 0.58339
 C339 C 0.96185 0.39811 0.53685
 C340 C 0.97235 0.40496 0.50493
 H341 H 0.88707 0.27007 0.54660
 H342 H 0.96572 0.41530 0.55763
 H343 H 0.93281 0.27496 0.61197
 H344 H 0.97082 0.38689 0.48478
 C345 C 0.05725 0.70259 -0.05893
 C346 C 0.03486 0.72373 -0.07504
 C347 C 0.03206 0.75728 -0.06329
 N348 N 0.01042 0.77754 -0.07952
 N349 N 0.00871 0.80826 -0.06994
 C350 C 0.02871 0.81987 -0.04389
 N351 N 0.05030 0.79962 -0.02765
 N352 N 0.05196 0.76891 -0.03718
 C353 C 0.02739 0.85373 -0.03313
 C354 C 0.00419 0.87503 -0.04739
 H355 H 0.02029 0.71640 -0.09757
 H356 H 0.04463 0.86186 -0.01292
 H357 H 0.07059 0.71074 -0.03582
 H358 H -0.01362 0.86669 -0.06696
 C359 C 0.61060 0.75022 1.08541
 C360 C 0.58351 0.73240 1.09359
 C361 C 0.57338 0.70322 1.07447
 N362 N 0.54511 0.68869 1.08153
 N363 N 0.53581 0.66190 1.06499
 C364 C 0.55453 0.64858 1.04082
 N365 N 0.58282 0.66308 1.03377
 N366 N 0.59206 0.68995 1.05023
 C367 C 0.54517 0.61844 1.02312
 C368 C 0.51529 0.60371 1.02761
 H369 H 0.56875 0.73991 1.11431
 H370 H 0.56251 0.60736 1.00644
 H371 H 0.62381 0.74282 1.06339
 H372 H 0.49748 0.61525 1.04343
 C373 C 0.41889 0.39255 1.25286
 C374 C 0.40569 0.41761 1.23347
 C375 C 0.41827 0.42462 1.20016
 N376 N 0.40718 0.45081 1.18310
 N377 N 0.41869 0.45744 1.15317
 C378 C 0.44167 0.43808 1.13913
 N379 N 0.45262 0.41183 1.15612
 N380 N 0.44118 0.40525 1.18604
 C381 C 0.45482 0.44497 1.10613
 C382 C 0.44617 0.47260 1.08848
 H383 H 0.38643 0.43288 1.24305
 H384 H 0.47209 0.42794 1.09566
 H385 H 0.43895 0.37832 1.24319
 H386 H 0.42929 0.48987 1.09920
 C387 C 0.60065 -0.12687 0.24917
 C388 C 0.60001 -0.09513 0.26063
 C389 C 0.58813 -0.08556 0.29379
 N390 N 0.57934 -0.05464 0.29998
 N391 N 0.56928 -0.04538 0.33022
 C392 C 0.56803 -0.06665 0.35549
 N393 N 0.57713 -0.09752 0.34941
 N394 N 0.58687 -0.10686 0.31904
 C395 C 0.55762 -0.05652 0.38911
 C396 C 0.53888 -0.02876 0.39377
 H397 H 0.60769 -0.07655 0.24438
 H398 H 0.56374 -0.07181 0.41038
 H399 H 0.58966 -0.14510 0.26368
 H400 H 0.53026 -0.01503 0.37203
 C401 C -0.08009 1.12026 -0.27303
 C402 C -0.09108 1.09248 -0.25887
 C403 C -0.07656 1.08065 -0.22649
 N404 N -0.08786 1.05347 -0.21359
 N405 N -0.07535 1.04283 -0.18396
 C406 C -0.05110 1.05902 -0.16613
 N407 N -0.03977 1.08616 -0.17906
 N408 N -0.05226 1.09678 -0.20868
 C409 C -0.03746 1.04799 -0.13309
 C410 C -0.04810 1.02019 -0.11877
 H411 H -0.11104 1.07915 -0.27136
 H412 H -0.01884 1.06237 -0.11956
 H413 H -0.05972 1.13293 -0.26029
 H414 H -0.06651 1.00566 -0.13242
 C415 C 1.05897 0.57585 0.78112
 C416 C 1.07966 0.56005 0.75897
 C417 C 1.06867 0.55099 0.72397
 N418 N 1.09106 0.54120 0.70159
 N419 N 1.08149 0.53297 0.66975
 C420 C 1.04911 0.53401 0.65924
 N421 N 1.02670 0.54353 0.68171
 N422 N 1.03629 0.55194 0.71347
 C423 C 1.03803 0.52545 0.62415
 C424 C 1.05969 0.52199 0.59815
 H425 H 1.10509 0.55514 0.76699
 H426 H 1.01177 0.52370 0.61826
 H427 H 1.03437 0.58303 0.77202
 H428 H 1.08582 0.52547 0.60352
 C429 C 0.76470 0.60874 0.60443
 C430 C 0.78023 0.61722 0.57544
 C431 C 0.81088 0.60098 0.56565
 N432 N 0.82527 0.60924 0.53704
 N433 N 0.85293 0.59460 0.52802
 C434 C 0.86723 0.57113 0.54730
 N435 N 0.85285 0.56291 0.57588
 N436 N 0.82523 0.57752 0.58487
 C437 C 0.89785 0.55466 0.53802
 C438 C 0.91397 0.56174 0.50899
 H439 H 0.76977 0.63580 0.55940
 H440 H 0.90808 0.53645 0.55478
 H441 H 0.77552 0.58976 0.61981
 H442 H 0.90383 0.57992 0.49216
 C443 C 0.75067 0.39022 1.09240
 C444 C 0.73026 0.37982 1.06487
 C445 C 0.69761 0.39446 1.05820
 N446 N 0.68615 0.39977 1.02587
 N447 N 0.65678 0.41367 1.01965
 C448 C 0.63767 0.42228 1.04555
 N449 N 0.64887 0.41643 1.07784
 N450 N 0.67848 0.40303 1.08410
 C451 C 0.60507 0.43700 1.03883
 C452 C 0.59892 0.45752 1.01195
 H453 H 0.73936 0.36317 1.04608
 H454 H 0.58597 0.43268 1.05608
 H455 H 0.74233 0.41029 1.10779
 H456 H 0.61903 0.46476 0.99720
 C457 C 0.25840 1.09254 -0.07348
 C458 C 0.24213 1.06427 -0.08294
 C459 C 0.20945 1.05742 -0.07114
 N460 N 0.19777 1.02723 -0.07377
 N461 N 0.16782 1.02090 -0.06399
 C462 C 0.14835 1.04462 -0.05156
 N463 N 0.15994 1.07483 -0.04918
 N464 N 0.18999 1.08111 -0.05866
 C465 C 0.11491 1.03823 -0.04162
 C466 C 0.10458 1.00747 -0.03547
 H467 H 0.25353 1.04637 -0.09884
 H468 H 0.09826 1.05841 -0.03818
 H469 H 0.24764 1.10839 -0.05483
 H470 H 0.12192 0.98754 -0.03637
 C471 C 0.22261 -0.08890 0.43573
 C472 C 0.24219 -0.06455 0.42482
 C473 C 0.27507 -0.05799 0.44091
 N474 N 0.29464 -0.03669 0.42689
 N475 N 0.32458 -0.03072 0.44076
 C476 C 0.33614 -0.04570 0.46929
 N477 N 0.31647 -0.06683 0.48353
 N478 N 0.28650 -0.07291 0.46956
 C479 C 0.36953 -0.03938 0.48438
 C480 C 0.39145 -0.02141 0.46723
 H481 H 0.23393 -0.05025 0.40346
 H482 H 0.37711 -0.04942 0.50866
 H483 H 0.23218 -0.10322 0.45670
 H484 H 0.38377 -0.01248 0.44245
 C485 C 0.61891 -0.25393 0.59090
 C486 C 0.59121 -0.23673 0.60121
 C487 C 0.58065 -0.20626 0.58548
 N488 N 0.55338 -0.19030 0.59560
 N489 N 0.54413 -0.16242 0.58204
 C490 C 0.56186 -0.14945 0.55787
 N491 N 0.58904 -0.16543 0.54776
 N492 N 0.59824 -0.19326 0.56125
 C493 C 0.55290 -0.11828 0.54303
 C494 C 0.52499 -0.10034 0.55107
 H495 H 0.57710 -0.24519 0.62143
 H496 H 0.56935 -0.10895 0.52522
 H497 H 0.63192 -0.24487 0.57005
 H498 H 0.50802 -0.10968 0.56833
 C499 C 1.06996 0.78819 0.42146
 C500 C 1.08825 0.76442 0.43849
 C501 C 1.07595 0.73181 0.44107
 N502 N 1.09561 0.70892 0.45573
 N503 N 1.08522 0.67903 0.45736
 C504 C 1.05479 0.67093 0.44430
 N505 N 1.03508 0.69384 0.42973
 N506 N 1.04549 0.72373 0.42808
 C507 C 1.04283 0.63813 0.44609
 C508 C 1.06203 0.61371 0.46081
 H509 H 1.11300 0.76905 0.44863
 H510 H 1.01794 0.63332 0.43625
 H511 H 1.04551 0.78281 0.41070
 H512 H 1.08689 0.61849 0.47075
 C513 C -0.11331 1.24734 0.07946
 C514 C -0.08211 1.23336 0.08527
 C515 C -0.07530 1.19970 0.07633
 N516 N -0.04391 1.18968 0.07194
 N517 N -0.03730 1.15917 0.06414
 C518 C -0.06179 1.13748 0.06093
 N519 N -0.09314 1.14740 0.06580
 N520 N -0.09981 1.17800 0.07322
 C521 C -0.05478 1.10384 0.05204
 C522 C -0.02716 1.09499 0.03458
 H523 H -0.06163 1.24749 0.09533
 H524 H -0.07281 1.08607 0.05705
 H525 H -0.13230 1.23341 0.06585
 H526 H -0.01094 1.11326 0.02660
 C527 C 0.40184 0.22402 0.92251
 C528 C 0.41967 0.24405 0.90298
 C529 C 0.43196 0.27501 0.91639
 N530 N 0.44165 0.29727 0.89483
 N531 N 0.45196 0.32573 0.90658
 C532 C 0.45322 0.33286 0.94038
 N533 N 0.44397 0.31043 0.96197
 N534 N 0.43343 0.28207 0.95020
 C535 C 0.46372 0.36441 0.95377
 C536 C 0.46574 0.39062 0.93295
 H537 H 0.42296 0.23791 0.87659
 H538 H 0.46796 0.36754 0.98099
 H539 H 0.39635 0.23168 0.94801
 H540 H 0.45968 0.38794 0.90597
 C541 C 0.62493 0.61370 0.74277
 C542 C 0.59194 0.61256 0.75029
 C543 C 0.58217 0.59715 0.78125
 N544 N 0.55074 0.58747 0.78375
 N545 N 0.54206 0.57282 0.81139
 C546 C 0.56447 0.56747 0.83762
 N547 N 0.59575 0.57748 0.83525
 N548 N 0.60448 0.59188 0.80754
 C549 C 0.55538 0.55197 0.86871
 C550 C 0.52600 0.53565 0.87074
 H551 H 0.57301 0.62106 0.73214
 H552 H 0.57259 0.55333 0.89067
 H553 H 0.64334 0.60231 0.75960
 H554 H 0.50946 0.53288 0.84840
 C555 C 0.39157 0.07471 0.78059
 C556 C 0.41669 0.08607 0.76182
 C557 C 0.42560 0.07096 0.72952
 N558 N 0.44927 0.08412 0.71181
 N559 N 0.45731 0.07126 0.68218
 C560 C 0.44201 0.04473 0.66910
 N561 N 0.41840 0.03144 0.68688
 N562 N 0.41032 0.04433 0.71655
 C563 C 0.45043 0.03076 0.63603
 C564 C 0.47321 0.04513 0.61653
 H565 H 0.43000 0.10717 0.77041
 H566 H 0.43810 0.00928 0.62667
 H567 H 0.37847 0.05355 0.77152
 H568 H 0.48514 0.06681 0.62595
 C569 C 0.06819 0.93555 0.29250
 C570 C 0.08637 0.94504 0.26580
 C571 C 0.07021 0.95286 0.23261
 N572 N 0.08774 0.95157 0.20441
 N573 N 0.07301 0.95681 0.17397
 C574 C 0.04022 0.96369 0.17062
 N575 N 0.02281 0.96550 0.19889
 N576 N 0.03748 0.96001 0.22929
 C577 C 0.02356 0.96910 0.13708
 C578 C 0.03819 0.96023 0.10714
 H579 H 0.11298 0.94328 0.26810
 H580 H -0.00103 0.97954 0.13599
 H581 H 0.04162 0.93448 0.28880
 H582 H 0.06212 0.94839 0.10844
 C583 C 0.92515 0.40163 0.20354
 C584 C 0.91709 0.43051 0.21974
 C585 C 0.93546 0.44172 0.25082
 N586 N 0.92618 0.46920 0.26691
 N587 N 0.94144 0.47849 0.29622
 C588 C 0.96651 0.46057 0.31043
 N589 N 0.97594 0.43329 0.29419
 N590 N 0.96073 0.42404 0.26493
 C591 C 0.98220 0.46883 0.34380
 C592 C 0.97418 0.49629 0.36252
 H593 H 0.89607 0.44461 0.21054
 H594 H 0.99993 0.45177 0.35464
 H595 H 0.94698 0.38844 0.21252
 H596 H 0.95762 0.51427 0.35153
   
