data_POSCAR
  _audit_creation_date              2014-09-24
  _audit_creation_method            'ToBaCCo'
  _symmetry_space_group_name_H-M    'P1'
  _symmetry_Int_Tables_number       1
  _symmetry_cell_setting            triclinic
  loop_
  _symmetry_equiv_pos_as_xyz
 x,y,z
_cell_length_a 26.4244
_cell_length_b 24.5522
_cell_length_c 63.5891
_cell_angle_alpha 92.251900
_cell_angle_beta 87.296200
_cell_angle_gamma 115.371500
loop_
  _atom_site_label
  _atom_site_type_symbol
  _atom_site_fract_x
  _atom_site_fract_y
  _atom_site_fract_z
C1 C 0.01910 -0.03301 0.48105
 C2 C 0.98148 0.03672 0.17583
 C3 C 0.00296 0.99513 0.84596
 O4 O 0.46564 0.07530 0.03152
 O5 O 0.56321 0.06457 -0.01050
 O6 O 0.46839 0.07545 -0.00966
 O7 O 0.56510 0.07773 0.03003
 O8 O 0.52171 -0.02141 0.03208
 O9 O 0.42554 -0.02378 -0.00881
 O10 O 0.52027 -0.03455 -0.00891
 O11 O 0.42275 -0.02402 0.03198
 Cu12 Cu 0.51962 0.08308 0.01011
 Cu13 Cu 0.46847 -0.03578 0.01158
 C14 C 0.42743 0.02693 0.03894
 C15 C 0.55886 0.01272 -0.01656
 C16 C 0.43016 0.02594 -0.01596
 C17 C 0.56003 0.02902 0.03794
 O18 O 0.05211 0.44386 0.64129
 O19 O 0.05052 0.55078 0.68400
 O20 O 0.05870 0.44796 0.68227
 O21 O 0.05943 0.55290 0.64309
 O22 O -0.03293 0.50917 0.64285
 O23 O -0.03369 0.40531 0.68384
 O24 O -0.04182 0.50810 0.68394
 O25 O -0.04031 0.40031 0.64314
 Cu26 Cu 0.06426 0.50299 0.66267
 Cu27 Cu -0.04624 0.45165 0.66361
 C28 C 0.00552 0.40361 0.63497
 C29 C 0.00345 0.54792 0.69101
 C30 C 0.01297 0.40860 0.68978
 C31 C 0.01398 0.54896 0.63599
 O32 O 0.46467 0.42995 0.30251
 O33 O 0.57001 0.50987 0.34299
 O34 O 0.47602 0.41057 0.34173
 O35 O 0.56410 0.51963 0.30281
 O36 O 0.52272 0.57904 0.31135
 O37 O 0.43188 0.46723 0.35024
 O38 O 0.52509 0.56587 0.35133
 O39 O 0.42300 0.48894 0.31118
 Cu40 Cu 0.52279 0.46159 0.32175
 Cu41 Cu 0.47130 0.53079 0.33185
 C42 C 0.42564 0.44630 0.30002
 C43 C 0.56576 0.55266 0.35381
 C44 C 0.43844 0.41932 0.35245
 C45 C 0.55946 0.56831 0.30056
 C46 C -0.00783 0.10823 0.51817
 C47 C 0.04229 0.12215 0.50653
 C48 C 0.04969 0.07874 0.49366
 C49 C 0.00720 0.01906 0.49187
 C50 C -0.04461 0.00697 0.50265
 C51 C -0.05192 0.05071 0.51556
 C52 C -0.01146 0.15180 0.53440
 C53 C -0.03704 0.13151 0.55424
 C54 C -0.03491 0.17262 0.57037
 C55 C -0.00686 0.23495 0.56709
 C56 C 0.01756 0.25537 0.54716
 C57 C 0.01504 0.21425 0.53095
 C58 C -0.00301 0.27835 0.58450
 C59 C 0.04787 0.32857 0.58849
 C60 C 0.05126 0.36899 0.60512
 C61 C 0.00364 0.36019 0.61789
 C62 C -0.04712 0.30989 0.61384
 C63 C -0.05034 0.26936 0.59740
 H64 H 0.07742 0.16587 0.50827
 H65 H 0.09031 0.09284 0.48598
 H66 H -0.07834 -0.03803 0.50244
 H67 H -0.09148 0.03867 0.52415
 H68 H -0.05678 0.08386 0.55759
 H69 H -0.05369 0.15566 0.58565
 H70 H 0.03856 0.30319 0.54412
 H71 H 0.03442 0.23137 0.51576
 H72 H 0.08514 0.33616 0.57889
 H73 H 0.09086 0.40740 0.60783
 H74 H -0.08462 0.30176 0.62338
 H75 H -0.09015 0.23135 0.59458
 C76 C 0.86190 0.88824 0.21368
 C77 C 0.89730 0.87706 0.19866
 C78 C 0.93718 0.92413 0.18678
 C79 C 0.94328 0.98385 0.18992
 C80 C 0.90666 0.99397 0.20480
 C81 C 0.86714 0.94727 0.21656
 C82 C 0.81793 0.83880 0.22589
 C83 C 0.80610 0.84855 0.24713
 C84 C 0.76201 0.80407 0.25829
 C85 C 0.72891 0.74855 0.24854
 C86 C 0.74143 0.73808 0.22746
 C87 C 0.78544 0.78282 0.21623
 C88 C 0.68227 0.70150 0.26057
 C89 C 0.67487 0.64137 0.25936
 C90 C 0.63372 0.59782 0.27188
 C91 C 0.59878 0.61335 0.28580
 C92 C 0.60474 0.67303 0.28644
 C93 C 0.64626 0.71675 0.27401
 H94 H 0.89386 0.83181 0.19596
 H95 H 0.96168 0.91299 0.17475
 H96 H 0.90823 1.03860 0.20710
 H97 H 0.83943 0.95724 0.22750
 H98 H 0.83101 0.89076 0.25515
 H99 H 0.75414 0.81286 0.27465
 H100 H 0.71640 0.69575 0.21954
 H101 H 0.79298 0.77422 0.19982
 H102 H 0.70222 0.62841 0.24926
 H103 H 0.63011 0.55216 0.27099
 H104 H 0.57850 0.68636 0.29701
 H105 H 0.65061 0.76267 0.27504
 C106 C 0.13750 0.02363 -0.11283
 C107 C 0.09123 -0.03229 -0.11465
 C108 C 0.04755 -0.03965 -0.12749
 C109 C 0.04917 0.00812 -0.13972
 C110 C 0.09337 0.06590 -0.13613
 C111 C 0.13737 0.07325 -0.12307
 C112 C 0.18536 0.02871 -0.10030
 C113 C 0.20981 0.07601 -0.08559
 C114 C 0.25160 0.07697 -0.07261
 C115 C 0.26989 0.03080 -0.07421
 C116 C 0.24673 -0.01517 -0.08950
 C117 C 0.20499 -0.01622 -0.10236
 C118 C 0.31181 0.02946 -0.05968
 C119 C 0.30586 -0.02541 -0.05142
 C120 C 0.34467 -0.02680 -0.03749
 C121 C 0.39027 0.02668 -0.03145
 C122 C 0.39649 0.08148 -0.03983
 C123 C 0.35773 0.08285 -0.05378
 H124 H 0.08894 -0.07078 -0.10620
 H125 H 0.01287 -0.08399 -0.12852
 H126 H 0.09455 0.10558 -0.14334
 H127 H 0.17187 0.11744 -0.12135
 H128 H 0.19519 0.11097 -0.08359
 H129 H 0.26828 0.11277 -0.06087
 H130 H 0.26079 -0.05055 -0.09149
 H131 H 0.18762 -0.05260 -0.11387
 H132 H 0.27049 -0.06727 -0.05539
 H133 H 0.33848 -0.06968 -0.03123
 H134 H 0.43124 0.12353 -0.03554
 H135 H 0.36394 0.12570 -0.06006
 C136 C 0.04039 0.85172 0.52798
 C137 C 0.01712 0.89171 0.53401
 C138 C 0.01366 0.93123 0.51966
 C139 C 0.03325 0.93254 0.49846
 C140 C 0.06273 0.89695 0.49340
 C141 C 0.06542 0.85650 0.50777
 C142 C 0.03604 0.80402 0.54261
 C143 C 0.08011 0.78704 0.54429
 C144 C 0.07573 0.74329 0.55863
 C145 C 0.02724 0.71566 0.57163
 C146 C -0.01718 0.73184 0.56959
 C147 C -0.01295 0.77516 0.55520
 C148 C 0.02361 0.67181 0.58778
 C149 C -0.02736 0.62178 0.59245
 C150 C -0.03092 0.58200 0.60824
 C151 C 0.01653 0.59117 0.61955
 C152 C 0.06746 0.64093 0.61479
 C153 C 0.07091 0.68084 0.59918
 H154 H 0.00021 0.89161 0.54987
 H155 H -0.00569 0.95930 0.52576
 H156 H 0.08117 0.89766 0.47779
 H157 H 0.08481 0.82709 0.50268
 H158 H 0.11840 0.80841 0.53485
 H159 H 0.11042 0.73118 0.55957
 H160 H -0.05487 0.71206 0.57945
 H161 H -0.04825 0.78612 0.55398
 H162 H -0.06445 0.61302 0.58378
 H163 H -0.07061 0.54380 0.61143
 H164 H 0.10478 0.64948 0.62330
 H165 H 0.11049 0.71948 0.59633
 C166 C 0.10217 0.19078 0.21061
 C167 C 0.07022 0.13669 0.22087
 C168 C 0.02932 0.08840 0.21025
 C169 C 0.01726 0.09326 0.18915
 C170 C 0.04856 0.14886 0.17919
 C171 C 0.09068 0.19685 0.18975
 C172 C 0.15026 0.23806 0.22138
 C173 C 0.20427 0.26039 0.21191
 C174 C 0.25093 0.29815 0.22335
 C175 C 0.24415 0.31486 0.24431
 C176 C 0.18983 0.29433 0.25343
 C177 C 0.14342 0.25604 0.24213
 C178 C 0.29328 0.35166 0.25707
 C179 C 0.29263 0.39897 0.26999
 C180 C 0.33638 0.43044 0.28347
 C181 C 0.38176 0.41511 0.28448
 C182 C 0.38326 0.36880 0.27112
 C183 C 0.33948 0.33751 0.25746
 H184 H 0.07931 0.13043 0.23679
 H185 H 0.00983 0.04628 0.21845
 H186 H 0.04231 0.15404 0.16282
 H187 H 0.11523 0.23817 0.18147
 H188 H 0.21058 0.24649 0.19601
 H189 H 0.29233 0.31372 0.21593
 H190 H 0.18344 0.30609 0.26962
 H191 H 0.10217 0.23920 0.24975
 H192 H 0.25783 0.41120 0.26984
 H193 H 0.33393 0.46606 0.29345
 H194 H 0.41767 0.35604 0.27150
 H195 H 0.34074 0.30084 0.24775
 C196 C 0.86181 -0.01841 -0.11194
 C197 C 0.90896 0.03634 -0.11495
 C198 C 0.95404 0.03887 -0.12770
 C199 C 0.95308 -0.01300 -0.13850
 C200 C 0.90773 -0.06893 -0.13390
 C201 C 0.86229 -0.07144 -0.12093
 C202 C 0.81253 -0.01877 -0.09965
 C203 C 0.78527 -0.06144 -0.08403
 C204 C 0.74185 -0.05785 -0.07140
 C205 C 0.72471 -0.01172 -0.07426
 C206 C 0.75079 0.02951 -0.09041
 C207 C 0.79416 0.02606 -0.10292
 C208 C 0.68100 -0.00539 -0.06011
 C209 C 0.68665 0.05200 -0.05312
 C210 C 0.64644 0.05808 -0.03936
 C211 C 0.59972 0.00691 -0.03221
 C212 C 0.59365 -0.05041 -0.03944
 C213 C 0.63379 -0.05648 -0.05322
 H214 H 0.91078 0.07762 -0.10755
 H215 H 0.98925 0.08234 -0.12992
 H216 H 0.90682 -0.11075 -0.14028
 H217 H 0.82696 -0.11459 -0.11835
 H218 H 0.79884 -0.09620 -0.08109
 H219 H 0.72295 -0.09001 -0.05897
 H220 H 0.73775 0.06467 -0.09336
 H221 H 0.81371 0.05884 -0.11514
 H222 H 0.72293 0.09226 -0.05789
 H223 H 0.65255 0.10282 -0.03399
 H224 H 0.55805 -0.09081 -0.03428
 H225 H 0.62776 -0.10122 -0.05855
 C226 C 0.12184 0.02561 0.13962
 C227 C 0.10970 0.00540 0.16042
 C228 C 0.06281 0.00564 0.17161
 C229 C 0.02603 0.02487 0.16218
 C230 C 0.03896 0.04481 0.14121
 C231 C 0.08524 0.04408 0.13008
 C232 C 0.17317 0.02955 0.12785
 C233 C 0.20342 0.07873 0.11476
 C234 C 0.24849 0.08026 0.10206
 C235 C 0.26487 0.03291 0.10226
 C236 C 0.23638 -0.01489 0.11613
 C237 C 0.19095 -0.01658 0.12878
 C238 C 0.30882 0.03157 0.08702
 C239 C 0.30239 -0.02301 0.07709
 C240 C 0.34130 -0.02426 0.06171
 C241 C 0.38750 0.02910 0.05571
 C242 C 0.39453 0.08370 0.06579
 C243 C 0.35568 0.08490 0.08134
 H244 H 0.13768 -0.00825 0.16832
 H245 H 0.05635 -0.00707 0.18797
 H246 H 0.01508 0.06398 0.13341
 H247 H 0.09306 0.05943 0.11400
 H248 H 0.19160 0.11573 0.11405
 H249 H 0.26909 0.11753 0.09149
 H250 H 0.24859 -0.05156 0.11695
 H251 H 0.16857 -0.05500 0.13872
 H252 H 0.26632 -0.06471 0.08073
 H253 H 0.33449 -0.06712 0.05422
 H254 H 0.42995 0.12546 0.06163
 H255 H 0.36227 0.12762 0.08887
 C256 C 0.87622 0.83769 0.44485
 C257 C 0.88063 0.89561 0.45006
 C258 C 0.92578 0.93668 0.46147
 C259 C 0.96730 0.92073 0.46891
 C260 C 0.96314 0.86302 0.46262
 C261 C 0.91843 0.82235 0.45110
 C262 C 0.82924 0.79404 0.43224
 C263 C 0.80666 0.73175 0.43600
 C264 C 0.76376 0.69054 0.42372
 C265 C 0.74195 0.71076 0.40763
 C266 C 0.76415 0.77287 0.40391
 C267 C 0.80745 0.81401 0.41600
 C268 C 0.69554 0.66763 0.39488
 C269 C 0.64974 0.68002 0.39108
 C270 C 0.60700 0.64145 0.37831
 C271 C 0.60916 0.58968 0.36883
 C272 C 0.65442 0.57643 0.37299
 C273 C 0.69710 0.61493 0.38604
 H274 H 0.84931 0.90957 0.44524
 H275 H 0.92865 0.98172 0.46379
 H276 H 0.99455 0.84820 0.46593
 H277 H 0.91792 0.77915 0.44655
 H278 H 0.82174 0.71479 0.44859
 H279 H 0.74690 0.64295 0.42706
 H280 H 0.74852 0.78956 0.39140
 H281 H 0.82452 0.86136 0.41232
 H282 H 0.64713 0.71986 0.39794
 H283 H 0.57279 0.65311 0.37548
 H284 H 0.65730 0.53698 0.36591
 H285 H 0.73215 0.60453 0.38871
 C286 C 0.02041 0.12056 0.79731
 C287 C -0.03036 0.09100 0.80851
 C288 C -0.03530 0.05199 0.82453
 C289 C 0.01108 0.04216 0.83070
 C290 C 0.06154 0.07024 0.81848
 C291 C 0.06654 0.11011 0.80244
 C292 C 0.02368 0.16091 0.78005
 C293 C 0.06711 0.21931 0.77887
 C294 C 0.06624 0.25937 0.76396
 C295 C 0.02214 0.24158 0.74985
 C296 C -0.02005 0.18230 0.75060
 C297 C -0.01934 0.14253 0.76554
 C298 C 0.01961 0.28469 0.73459
 C299 C -0.03197 0.28479 0.72998
 C300 C -0.03438 0.32500 0.71548
 C301 C 0.01478 0.36622 0.70537
 C302 C 0.06633 0.36635 0.71009
 C303 C 0.06870 0.32604 0.72447
 H304 H -0.06684 0.09766 0.80474
 H305 H -0.07675 0.02827 0.83162
 H306 H 0.09712 0.06077 0.82113
 H307 H 0.10588 0.13126 0.79358
 H308 H 0.10046 0.23468 0.79000
 H309 H 0.09917 0.30486 0.76394
 H310 H -0.05381 0.16661 0.73964
 H311 H -0.05289 0.09738 0.76592
 H312 H -0.07051 0.25420 0.73776
 H313 H -0.07467 0.32393 0.71226
 H314 H 0.10503 0.39729 0.70249
 H315 H 0.10896 0.32664 0.72741
 C316 C 0.84982 0.04558 0.13878
 C317 C 0.86838 0.00026 0.13521
 C318 C 0.91100 -0.00089 0.14689
 C319 C 0.93879 0.04474 0.16197
 C320 C 0.92030 0.09049 0.16553
 C321 C 0.87649 0.09094 0.15402
 C322 C 0.80263 0.04450 0.12659
 C323 C 0.80181 0.09813 0.12008
 C324 C 0.75969 0.09633 0.10716
 C325 C 0.71786 0.04085 0.10013
 C326 C 0.71773 -0.01265 0.10727
 C327 C 0.75906 -0.01082 0.12051
 C328 C 0.67624 0.03855 0.08467
 C329 C 0.62178 -0.00878 0.08469
 C330 C 0.58410 -0.01256 0.06935
 C331 C 0.59958 0.03167 0.05398
 C332 C 0.65338 0.07948 0.05413
 C333 C 0.69145 0.08254 0.06913
 H334 H 0.84991 -0.03478 0.12335
 H335 H 0.92251 -0.03800 0.14416
 H336 H 0.93795 0.12468 0.17770
 H337 H 0.86246 0.12586 0.15750
 H338 H 0.83462 0.14155 0.12442
 H339 H 0.76046 0.13858 0.10246
 H340 H 0.68676 -0.05629 0.10214
 H341 H 0.75724 -0.05310 0.12569
 H342 H 0.60800 -0.04287 0.09662
 H343 H 0.54257 -0.04947 0.06970
 H344 H 0.66651 0.11395 0.04233
 H345 H 0.73324 0.11879 0.06818
 C346 C 0.15720 0.07773 0.43881
 C347 C 0.10210 0.05071 0.43188
 C348 C 0.05859 0.01125 0.44466
 C349 C 0.06857 -0.00412 0.46475
 C350 C 0.12512 0.01914 0.47075
 C351 C 0.16864 0.05953 0.45799
 C352 C 0.20094 0.12867 0.42701
 C353 C 0.25690 0.13659 0.42543
 C354 C 0.29760 0.18552 0.41459
 C355 C 0.28324 0.22760 0.40509
 C356 C 0.22736 0.21974 0.40682
 C357 C 0.18690 0.17120 0.41770
 C358 C 0.32563 0.27844 0.39282
 C359 C 0.32416 0.33514 0.39311
 C360 C 0.36140 0.38143 0.38033
 C361 C 0.40124 0.37222 0.36711
 C362 C 0.40383 0.31619 0.36732
 C363 C 0.36642 0.26986 0.37995
 H364 H 0.09202 0.06233 0.41688
 H365 H 0.01675 -0.00412 0.43902
 H366 H 0.13548 0.01134 0.48626
 H367 H 0.21062 0.07988 0.46392
 H368 H 0.26914 0.10469 0.43239
 H369 H 0.34040 0.19057 0.41377
 H370 H 0.21453 0.25064 0.39947
 H371 H 0.14453 0.16744 0.41901
 H372 H 0.29396 0.34367 0.40313
 H373 H 0.35858 0.42418 0.38064
 H374 H 0.43390 0.30746 0.35727
 H375 H 0.36831 0.22665 0.37909
 C376 C -0.01335 0.84605 0.80191
 C377 C -0.05919 0.85999 0.80632
 C378 C -0.05470 0.90660 0.82069
 C379 C -0.00487 0.93928 0.83163
 C380 C 0.04157 0.92654 0.82604
 C381 C 0.03710 0.88043 0.81180
 C382 C -0.01615 0.79807 0.78636
 C383 C 0.01207 0.76214 0.78992
 C384 C 0.01470 0.72124 0.77451
 C385 C -0.01134 0.71476 0.75526
 C386 C -0.04124 0.74906 0.75193
 C387 C -0.04352 0.79043 0.76730
 C388 C -0.00708 0.67247 0.73872
 C389 C -0.05455 0.63421 0.72771
 C390 C -0.05087 0.59385 0.71231
 C391 C 0.00050 0.59113 0.70740
 C392 C 0.04819 0.62977 0.71827
 C393 C 0.04435 0.66985 0.73387
 H394 H -0.09844 0.83506 0.79860
 H395 H -0.09012 0.91756 0.82305
 H396 H 0.08255 0.95334 0.83223
 H397 H 0.07410 0.87307 0.80800
 H398 H 0.03263 0.76603 0.80460
 H399 H 0.03702 0.69450 0.77768
 H400 H -0.06147 0.74517 0.73716
 H401 H -0.06498 0.81789 0.76396
 H402 H -0.09478 0.63488 0.73125
 H403 H -0.08843 0.56481 0.70419
 H404 H 0.08832 0.62878 0.71483
 H405 H 0.08176 0.69931 0.74199
   
