data_POSCAR
  _audit_creation_date              2014-09-24
  _audit_creation_method            'ToBaCCo'
  _symmetry_space_group_name_H-M    'P1'
  _symmetry_Int_Tables_number       1
  _symmetry_cell_setting            triclinic
  loop_
  _symmetry_equiv_pos_as_xyz
 x,y,z
_cell_length_a 35.1211
_cell_length_b 31.9764
_cell_length_c 35.1903
_cell_angle_alpha 89.415000
_cell_angle_beta 94.728500
_cell_angle_gamma 89.321800
loop_
  _atom_site_label
  _atom_site_type_symbol
  _atom_site_fract_x
  _atom_site_fract_y
  _atom_site_fract_z
C1 C 0.60657 0.65364 0.62501
 C2 C 0.60763 0.62267 0.65374
 C3 C 0.63695 0.59217 0.65744
 C4 C 0.66478 0.59230 0.63067
 C5 C 0.66388 0.62280 0.60162
 C6 C 0.63445 0.65310 0.59877
 H7 H 0.58544 0.62222 0.67337
 H8 H 0.68715 0.56874 0.63160
 H9 H 0.63298 0.67626 0.57600
 C10 C 0.90696 0.34957 0.13890
 C11 C 0.90442 0.37864 0.16837
 C12 C 0.87484 0.40880 0.16696
 C13 C 0.84665 0.40880 0.13637
 C14 C 0.84828 0.37978 0.10685
 C15 C 0.87821 0.35024 0.10836
 H16 H 0.92564 0.37775 0.19254
 H17 H 0.82324 0.43121 0.13588
 H18 H 0.87809 0.32750 0.08585
 C19 C 0.39784 0.15457 -0.12517
 C20 C 0.37101 0.15314 -0.09782
 C21 C 0.34325 0.12191 -0.09876
 C22 C 0.34203 0.09217 -0.12800
 C23 C 0.36867 0.09320 -0.15571
 C24 C 0.39684 0.12401 -0.15367
 H25 H 0.37183 0.17639 -0.07556
 H26 H 0.32044 0.06827 -0.12910
 H27 H 0.41806 0.12393 -0.17433
 C28 C 0.09501 0.84807 0.36068
 C29 C 0.09909 0.87541 0.32974
 C30 C 0.13023 0.90260 0.32964
 C31 C 0.15889 0.90052 0.35973
 C32 C 0.15577 0.87308 0.39071
 C33 C 0.12348 0.84777 0.39149
 H34 H 0.07773 0.87576 0.30567
 H35 H 0.18299 0.92136 0.35959
 H36 H 0.12209 0.82656 0.41543
 N37 N 0.08145 0.18678 0.08003
 N38 N 0.07332 0.17614 0.11459
 C39 C 0.04244 0.19810 0.12359
 C40 C 0.03054 0.22369 0.09282
 C41 C 0.05577 0.21556 0.06566
 H42 H 0.02914 0.19490 0.15010
 H43 H 0.05554 0.22976 0.03761
 Cu44 Cu 0.10260 0.13324 0.14391
 Cu45 Cu 0.12536 0.16343 0.05689
 Cu46 Cu 0.17072 0.07843 0.10320
 N47 N 0.12232 0.08025 0.16508
 N48 N 0.14933 0.05921 0.14956
 C49 C 0.15752 0.02402 0.17010
 C50 C 0.13412 0.02274 0.19976
 C51 C 0.11214 0.05901 0.19578
 H52 H 0.17850 0.00068 0.16364
 H53 H 0.09043 0.06931 0.21378
 N54 N 0.18767 0.10292 0.05591
 N55 N 0.17047 0.13553 0.03839
 C56 C 0.18910 0.14560 0.00770
 C57 C 0.21920 0.11786 0.00562
 C58 C 0.21755 0.09117 0.03664
 H59 H 0.18154 0.17136 -0.01171
 H60 H 0.23701 0.06564 0.04496
 H61 H 0.11933 0.10603 0.08334
 H62 H 0.15682 0.14142 0.10561
 N63 N 0.42543 0.81463 0.60073
 N64 N 0.43868 0.82747 0.63458
 C65 C 0.47018 0.80493 0.64625
 C66 C 0.47698 0.77642 0.61817
 C67 C 0.44814 0.78359 0.58965
 H68 H 0.48660 0.80871 0.67331
 H69 H 0.44355 0.76670 0.56323
 Cu70 Cu 0.41300 0.87139 0.66090
 Cu71 Cu 0.37846 0.83736 0.57476
 Cu72 Cu 0.32924 0.91181 0.62320
 N73 N 0.38528 0.91364 0.68729
 N74 N 0.35218 0.92872 0.67281
 C75 C 0.33955 0.95760 0.69654
 C76 C 0.36630 0.96075 0.72752
 C77 C 0.39488 0.93250 0.72069
 H78 H 0.31346 0.97570 0.69106
 H79 H 0.42096 0.92668 0.73860
 N80 N 0.31084 0.89101 0.57256
 N81 N 0.33028 0.86387 0.55349
 C82 C 0.31109 0.85725 0.51937
 C83 C 0.27795 0.88127 0.51705
 C84 C 0.27860 0.90204 0.55124
 H85 H 0.32017 0.83602 0.49810
 H86 H 0.25724 0.92392 0.55967
 H87 H 0.37978 0.89514 0.60077
 H88 H 0.35389 0.85260 0.62423
 N89 N 0.91822 0.69038 0.41729
 N90 N 0.93144 0.67609 0.38596
 C91 C 0.96257 0.69797 0.37849
 C92 C 0.96925 0.72723 0.40688
 C93 C 0.94077 0.72140 0.43112
 H94 H 0.97977 0.69228 0.35493
 H95 H 0.93674 0.73857 0.45683
 Cu96 Cu 0.90782 0.62850 0.35990
 Cu97 Cu 0.87231 0.66821 0.43739
 Cu98 Cu 0.82997 0.58350 0.39010
 N99 N 0.88518 0.58024 0.33408
 N100 N 0.85444 0.56293 0.34593
 C101 C 0.84478 0.53007 0.32369
 C102 C 0.87105 0.52634 0.29675
 C103 C 0.89630 0.55875 0.30410
 H104 H 0.82074 0.50994 0.32714
 H105 H 0.92087 0.56612 0.28883
 N106 N 0.80975 0.60902 0.43532
 N107 N 0.82566 0.64144 0.45303
 C108 C 0.80487 0.65211 0.48201
 C109 C 0.77451 0.62502 0.48260
 C110 C 0.77859 0.59803 0.45282
 H111 H 0.81145 0.67753 0.50135
 H112 H 0.75989 0.57254 0.44439
 H113 H 0.87869 0.60807 0.41763
 H114 H 0.84774 0.64464 0.38680
 N115 N 0.57655 0.31189 -0.10069
 N116 N 0.56089 0.32923 -0.13231
 C117 C 0.52998 0.30724 -0.14483
 C118 C 0.52606 0.27442 -0.11952
 C119 C 0.55598 0.27843 -0.09183
 H120 H 0.51172 0.31478 -0.17028
 H121 H 0.56238 0.25828 -0.06721
 Cu122 Cu 0.58189 0.37907 -0.15415
 Cu123 Cu 0.62246 0.33387 -0.07360
 Cu124 Cu 0.66750 0.41387 -0.11845
 N125 N 0.61089 0.41859 -0.18208
 N126 N 0.64465 0.43148 -0.16844
 C127 C 0.65826 0.45837 -0.19355
 C128 C 0.63143 0.46259 -0.22450
 C129 C 0.60171 0.43707 -0.21620
 H130 H 0.68518 0.47438 -0.18916
 H131 H 0.57534 0.43243 -0.23370
 N132 N 0.68592 0.39162 -0.06774
 N133 N 0.66912 0.36056 -0.05096
 C134 C 0.68870 0.35184 -0.01722
 C135 C 0.71892 0.37897 -0.01239
 C136 C 0.71639 0.40378 -0.04495
 H137 H 0.68147 0.32772 0.00260
 H138 H 0.73559 0.42842 -0.05177
 H139 H 0.61868 0.39475 -0.09427
 H140 H 0.64294 0.35549 -0.12353
 C141 C -0.06219 0.32073 0.14153
 C142 C -0.05192 0.29691 0.11281
 C143 C -0.01906 0.26782 0.11836
 C144 C -0.00247 0.25262 0.08848
 H145 H -0.06623 0.29969 0.08449
 H146 H -0.00780 0.25963 0.14711
 H147 H -0.04442 0.31889 0.16826
 H148 H -0.01255 0.26277 0.05988
 C149 C 0.57630 0.68648 0.62139
 C150 C 0.56008 0.70166 0.65166
 C151 C 0.53061 0.73512 0.64950
 C152 C 0.50719 0.74395 0.61836
 H153 H 0.57017 0.69099 0.68004
 H154 H 0.52700 0.75147 0.67575
 H155 H 0.56912 0.70014 0.59341
 H156 H 0.50892 0.72601 0.59264
 C157 C 1.06329 0.82132 0.35884
 C158 C 1.05184 0.79906 0.38825
 C159 C 1.01947 0.77033 0.38254
 C160 C 1.00088 0.75697 0.41188
 H161 H 1.06522 0.80232 0.41683
 H162 H 1.01046 0.76043 0.35386
 H163 H 1.04623 0.81931 0.33177
 H164 H 1.00837 0.76891 0.44020
 C165 C 0.42725 0.18747 -0.12250
 C166 C 0.44275 0.20312 -0.15311
 C167 C 0.47178 0.23625 -0.15101
 C168 C 0.49664 0.24187 -0.12058
 H169 H 0.43238 0.19322 -0.18137
 H170 H 0.47386 0.25499 -0.17651
 H171 H 0.43472 0.20061 -0.09468
 H172 H 0.49652 0.22125 -0.09600
 C173 C 0.13344 -0.06645 0.29852
 C174 C 0.10273 -0.04707 0.28086
 C175 C 0.10488 -0.01381 0.25174
 C176 C 0.13339 -0.01064 0.22887
 H177 H 0.07464 -0.05336 0.28997
 H178 H 0.08076 0.00763 0.24803
 H179 H 0.16182 -0.05700 0.29238
 H180 H 0.15620 -0.03381 0.23038
 C181 C 0.63687 0.56289 -0.31227
 C182 C 0.66571 0.53626 -0.30126
 C183 C 0.66453 0.50776 -0.26808
 C184 C 0.63235 0.48996 -0.25832
 H185 H 0.69255 0.53727 -0.31411
 H186 H 0.69149 0.50003 -0.25228
 H187 H 0.61237 0.56339 -0.29543
 H188 H 0.60587 0.49479 -0.27594
 C189 C 0.36867 1.06197 0.81350
 C190 C 0.33687 1.04342 0.79857
 C191 C 0.33661 1.01372 0.76665
 C192 C 0.36664 0.98944 0.76003
 H193 H 0.30938 1.05233 0.80796
 H194 H 0.31006 1.01096 0.74899
 H195 H 0.39547 1.05625 0.80116
 H196 H 0.39237 0.98993 0.77920
 C197 C 0.87215 0.44010 0.19742
 C198 C 0.90304 0.45572 0.21702
 C199 C 0.90128 0.48827 0.24634
 C200 C 0.87137 0.49410 0.26710
 H201 H 0.93128 0.44653 0.20978
 H202 H 0.92675 0.50662 0.25212
 H203 H 0.84407 0.45255 0.20186
 H204 H 0.84685 0.47392 0.26343
 C205 C 0.31517 0.12208 -0.06962
 C206 C 0.29969 0.08707 -0.05675
 C207 C 0.27196 0.08704 -0.02740
 C208 C 0.24723 0.11856 -0.02329
 H209 H 0.30918 0.05688 -0.06620
 H210 H 0.27066 0.05893 -0.01019
 H211 H 0.30869 0.15183 -0.05702
 H212 H 0.24644 0.14533 -0.04244
 C213 C 0.69364 0.62164 0.57416
 C214 C 0.70683 0.65632 0.55831
 C215 C 0.73758 0.65599 0.53211
 C216 C 0.74403 0.62409 0.50898
 H217 H 0.69672 0.68671 0.56668
 H218 H 0.75403 0.68426 0.53059
 H219 H 0.70670 0.59162 0.56891
 H220 H 0.72574 0.59705 0.50818
 C221 C 0.81834 0.37849 0.07472
 C222 C 0.80023 0.41287 0.06007
 C223 C 0.77131 0.41179 0.02718
 C224 C 0.74778 0.37957 0.02042
 H225 H 0.80857 0.44338 0.07065
 H226 H 0.76817 0.43954 0.00928
 H227 H 0.81285 0.34858 0.06130
 H228 H 0.74868 0.35325 0.04010
 C229 C 0.18543 0.87097 0.42309
 C230 C 0.22271 0.87512 0.41851
 C231 C 0.25269 0.87158 0.45036
 C232 C 0.24748 0.88418 0.48575
 H233 H 0.23211 0.87843 0.39010
 H234 H 0.28058 0.86054 0.44364
 H235 H 0.17645 0.86307 0.45097
 H236 H 0.22063 0.89862 0.49183
   
