data_POSCAR
  _audit_creation_date              2014-09-24
  _audit_creation_method            'ToBaCCo'
  _symmetry_space_group_name_H-M    'P1'
  _symmetry_Int_Tables_number       1
  _symmetry_cell_setting            triclinic
  loop_
  _symmetry_equiv_pos_as_xyz
 x,y,z
_cell_length_a 28.9645
_cell_length_b 28.6077
_cell_length_c 28.9967
_cell_angle_alpha 89.887000
_cell_angle_beta 90.024800
_cell_angle_gamma 89.980800
loop_
  _atom_site_label
  _atom_site_type_symbol
  _atom_site_fract_x
  _atom_site_fract_y
  _atom_site_fract_z
C1 C 0.59050 0.65837 0.62561
 C2 C 0.59091 0.62411 0.66021
 C3 C 0.62554 0.58985 0.66068
 C4 C 0.65975 0.58994 0.62648
 C5 C 0.65933 0.62420 0.59189
 C6 C 0.62471 0.65840 0.59148
 H7 H 0.56436 0.62418 0.68660
 H8 H 0.68662 0.56349 0.62671
 H9 H 0.62438 0.68492 0.56470
 C10 C 0.91093 0.34045 0.12502
 C11 C 0.87672 0.34054 0.09079
 C12 C 0.84214 0.37480 0.09108
 C13 C 0.84175 0.40899 0.12560
 C14 C 0.87590 0.40897 0.15982
 C15 C 0.91048 0.37471 0.15953
 H16 H 0.87692 0.31409 0.06401
 H17 H 0.81499 0.43552 0.12582
 H18 H 0.93689 0.37477 0.18609
 C19 C 0.40953 0.15942 -0.12539
 C20 C 0.37528 0.15945 -0.09129
 C21 C 0.34069 0.12522 -0.09159
 C22 C 0.34038 0.09095 -0.12604
 C23 C 0.37461 0.09089 -0.16017
 C24 C 0.40917 0.12513 -0.15983
 H25 H 0.37554 0.18598 -0.06462
 H26 H 0.31361 0.06445 -0.12630
 H27 H 0.43568 0.12510 -0.18624
 C28 C 0.08888 0.83977 0.37482
 C29 C 0.08923 0.87419 0.34032
 C30 C 0.12374 0.90851 0.34003
 C31 C 0.15790 0.90843 0.37424
 C32 C 0.15761 0.87408 0.40874
 C33 C 0.12311 0.83977 0.40903
 H34 H 0.06281 0.87434 0.31377
 H35 H 0.18461 0.93500 0.37403
 H36 H 0.12297 0.81321 0.43580
 N37 N 0.07057 0.20052 0.10523
 N38 N 0.05290 0.18180 0.14276
 C39 C 0.01549 0.20664 0.15551
 C40 C 0.00976 0.24256 0.12430
 C41 C 0.04508 0.23787 0.09284
 H42 H -0.00600 0.19927 0.18513
 H43 H 0.05169 0.25993 0.06324
 Cu44 Cu 0.08046 0.12681 0.17119
 Cu45 Cu 0.12518 0.17511 0.07524
 Cu46 Cu 0.17396 0.07600 0.12413
 N47 N 0.10764 0.07062 0.19763
 N48 N 0.14421 0.05092 0.17905
 C49 C 0.15590 0.01292 0.20392
 C50 C 0.12497 0.00880 0.23978
 C51 C 0.09479 0.04574 0.23500
 H52 H 0.18470 -0.00996 0.19656
 H53 H 0.06580 0.05377 0.25710
 N54 N 0.19906 0.10652 0.06857
 N55 N 0.18048 0.14429 0.04995
 C56 C 0.20539 0.15674 0.01265
 C57 C 0.24105 0.12530 0.00785
 C58 C 0.23626 0.09395 0.04361
 H59 H 0.19826 0.18641 -0.00940
 H60 H 0.25830 0.06430 0.05081
 H61 H 0.11532 0.10704 0.09724
 H62 H 0.15362 0.14461 0.13335
 N63 N 0.42869 0.79987 0.60523
 N64 N 0.44682 0.81910 0.64223
 C65 C 0.48435 0.79439 0.65502
 C66 C 0.48969 0.75805 0.62436
 C67 C 0.45401 0.76234 0.59321
 H68 H 0.50617 0.80212 0.68429
 H69 H 0.44704 0.73989 0.56407
 Cu70 Cu 0.41952 0.87448 0.66990
 Cu71 Cu 0.37370 0.82490 0.57540
 Cu72 Cu 0.32451 0.92368 0.62423
 N73 N 0.39165 0.92987 0.69700
 N74 N 0.35444 0.94894 0.67893
 C75 C 0.34232 0.98651 0.70408
 C76 C 0.37361 0.99099 0.73958
 C77 C 0.40446 0.95472 0.73432
 H78 H 0.31299 1.00886 0.69711
 H79 H 0.43388 0.94713 0.75605
 N80 N 0.29931 0.89300 0.56888
 N81 N 0.31805 0.85537 0.55028
 C82 C 0.29308 0.84285 0.51307
 C83 C 0.25722 0.87408 0.50830
 C84 C 0.26195 0.90539 0.54398
 H85 H 0.30035 0.81331 0.49102
 H86 H 0.23980 0.93493 0.55114
 H87 H 0.38291 0.89326 0.59642
 H88 H 0.34593 0.85540 0.63368
 N89 N 0.92960 0.69954 0.39504
 N90 N 0.94766 0.68050 0.35791
 C91 C 0.98502 0.70540 0.34507
 C92 C 0.99033 0.74166 0.37582
 C93 C 0.95481 0.73713 0.40708
 H94 H 1.00675 0.69783 0.31570
 H95 H 0.94788 0.75945 0.43633
 Cu96 Cu 0.92047 0.62510 0.33017
 Cu97 Cu 0.87486 0.67420 0.42499
 Cu98 Cu 0.82588 0.57538 0.37604
 N99 N 0.89272 0.56969 0.30300
 N100 N 0.85569 0.55041 0.32116
 C101 C 0.84361 0.51287 0.29594
 C102 C 0.87476 0.50863 0.26030
 C103 C 0.90547 0.54501 0.26556
 H104 H 0.81443 0.49038 0.30295
 H105 H 0.93476 0.55279 0.24375
 N106 N 0.80081 0.60580 0.43158
 N107 N 0.81946 0.64344 0.45022
 C108 C 0.79457 0.65579 0.48753
 C109 C 0.75885 0.62443 0.49232
 C110 C 0.76358 0.59322 0.45655
 H111 H 0.80178 0.68533 0.50960
 H112 H 0.74150 0.56364 0.44936
 H113 H 0.88427 0.60594 0.40373
 H114 H 0.84695 0.64376 0.36672
 N115 N 0.57116 0.30097 -0.10532
 N116 N 0.55311 0.32016 -0.14246
 C117 C 0.51561 0.29546 -0.15521
 C118 C 0.51021 0.25915 -0.12439
 C119 C 0.54582 0.26346 -0.09318
 H120 H 0.49387 0.30316 -0.18459
 H121 H 0.55274 0.24101 -0.06393
 Cu122 Cu 0.58050 0.37548 -0.17036
 Cu123 Cu 0.62611 0.32597 -0.07552
 Cu124 Cu 0.67547 0.42461 -0.12479
 N125 N 0.60845 0.43079 -0.19770
 N126 N 0.64564 0.44984 -0.17967
 C127 C 0.65782 0.48737 -0.20499
 C128 C 0.62657 0.49184 -0.24056
 C129 C 0.59570 0.45562 -0.23515
 H130 H 0.68713 0.50970 -0.19808
 H131 H 0.56629 0.44805 -0.25687
 N132 N 0.70054 0.39397 -0.06923
 N133 N 0.68174 0.35639 -0.05046
 C134 C 0.70665 0.34387 -0.01316
 C135 C 0.74254 0.37504 -0.00850
 C136 C 0.73790 0.40632 -0.04434
 H137 H 0.69933 0.31435 0.00901
 H138 H 0.76010 0.43579 -0.05164
 H139 H 0.61700 0.39431 -0.09692
 H140 H 0.65402 0.35635 -0.13392
 C141 C -0.05545 0.30713 0.12475
 C142 C -0.02569 0.27766 0.12453
 C143 C 0.55494 0.69352 0.62515
 C144 C 0.52516 0.72296 0.62478
 C145 C 1.05533 0.80641 0.37512
 C146 C 1.02566 0.77686 0.37542
 C147 C 0.44504 0.19459 -0.12507
 C148 C 0.47479 0.22405 -0.12477
 C149 C 0.12410 -0.05616 0.30463
 C150 C 0.12446 -0.02654 0.27502
 C151 C 0.62592 0.55651 -0.30570
 C152 C 0.62624 0.52700 -0.27596
 C153 C 0.37425 1.05568 0.80445
 C154 C 0.37396 1.02617 0.77484
 C155 C 0.87547 0.44412 0.19526
 C156 C 0.87513 0.47356 0.22494
 C157 C 0.30553 0.12525 -0.05654
 C158 C 0.27610 0.12527 -0.02717
 C159 C 0.69444 0.62426 0.55679
 C160 C 0.72384 0.62432 0.52737
 C161 C 0.80703 0.37486 0.05595
 C162 C 0.77761 0.37493 0.02653
 C163 C 0.19273 0.87406 0.44386
 C164 C 0.22215 0.87406 0.47327
   
