data_POSCAR
  _audit_creation_date              2014-09-24
  _audit_creation_method            'ToBaCCo'
  _symmetry_space_group_name_H-M    'P1'
  _symmetry_Int_Tables_number       1
  _symmetry_cell_setting            triclinic
  loop_
  _symmetry_equiv_pos_as_xyz
 x,y,z
_cell_length_a 46.6487
_cell_length_b 46.6336
_cell_length_c 46.6543
_cell_angle_alpha 89.972100
_cell_angle_beta 89.998900
_cell_angle_gamma 89.990300
loop_
  _atom_site_label
  _atom_site_type_symbol
  _atom_site_fract_x
  _atom_site_fract_y
  _atom_site_fract_z
C1 C 0.27043 0.25027 0.22924
 N2 N 0.24976 0.27080 0.22942
 C3 C 0.22903 0.27091 0.24988
 N4 N 0.22914 0.25016 0.27034
 C5 C 0.24965 0.22947 0.27049
 N6 N 0.27021 0.22969 0.24986
 C7 C 0.72878 -0.25042 0.22872
 N8 N 0.74960 -0.27085 0.22888
 C9 C 0.77038 -0.27103 0.24932
 N10 N 0.77013 -0.25034 0.26983
 C11 C 0.74955 -0.22973 0.27008
 N12 N 0.72898 -0.22994 0.24947
 C13 C 0.72989 0.25050 0.77025
 N14 N 0.75051 0.27107 0.77004
 C15 C 0.77125 0.27131 0.74956
 N16 N 0.77110 0.25053 0.72911
 C17 C 0.75065 0.22979 0.72898
 N18 N 0.73012 0.22994 0.74963
 C19 C 0.27136 -0.25023 0.77176
 N20 N 0.27122 -0.22978 0.75096
 C21 C 0.25068 -0.22956 0.73032
 N22 N 0.23005 -0.25012 0.73058
 C23 C 0.22980 -0.27073 0.75116
 N24 N 0.25051 -0.27062 0.77164
 C25 C 0.72879 -0.25025 0.77165
 N26 N 0.74956 -0.27073 0.77146
 C27 C 0.77029 -0.27097 0.75097
 N28 N 0.77003 -0.25028 0.73042
 C29 C 0.74950 -0.22963 0.73020
 N30 N 0.72898 -0.22978 0.75087
 C31 C 0.27050 0.25018 0.77040
 N32 N 0.24979 0.27067 0.77024
 C33 C 0.22908 0.27081 0.74975
 N34 N 0.22926 0.25013 0.72925
 C35 C 0.24980 0.22947 0.72907
 N36 N 0.27034 0.22966 0.74973
 C37 C 0.27092 -0.25075 0.22848
 N38 N 0.27077 -0.23031 0.24927
 C39 C 0.25022 -0.23009 0.26990
 N40 N 0.22959 -0.25065 0.26963
 C41 C 0.22929 -0.27131 0.24908
 N42 N 0.25006 -0.27113 0.22862
 C43 C 0.73022 0.25080 0.22942
 N44 N 0.75084 0.27137 0.22962
 C45 C 0.77159 0.27160 0.25011
 N46 N 0.77144 0.25080 0.27056
 C47 C 0.75098 0.23006 0.27070
 N48 N 0.73045 0.23023 0.25004
 O49 O 0.22645 0.02717 0.47191
 O50 O 0.22674 -0.02858 0.52781
 O51 O 0.22652 0.02724 0.52770
 O52 O 0.22665 -0.02867 0.47199
 O53 O 0.27393 -0.02850 0.47192
 O54 O 0.27380 0.02741 0.52763
 O55 O 0.27402 -0.02841 0.52774
 O56 O 0.27372 0.02733 0.47184
 Cu57 Cu 0.22185 -0.00073 0.49986
 Cu58 Cu 0.27860 -0.00053 0.49977
 C59 C 0.25004 0.03681 0.46230
 C60 C 0.25043 -0.03804 0.53737
 C61 C 0.25013 0.03692 0.53721
 C62 C 0.25031 -0.03816 0.46239
 O63 O 0.77407 0.02745 0.52780
 O64 O 0.77379 -0.02837 0.47202
 O65 O 0.77412 0.02747 0.47201
 O66 O 0.77376 -0.02838 0.52784
 O67 O 0.72648 -0.02811 0.52781
 O68 O 0.72684 0.02774 0.47198
 O69 O 0.72651 -0.02809 0.47199
 O70 O 0.72679 0.02772 0.52777
 Cu71 Cu 0.77867 -0.00049 0.49992
 Cu72 Cu 0.72192 -0.00017 0.49988
 C73 C 0.75048 0.03716 0.53733
 C74 C 0.75010 -0.03779 0.46244
 C75 C 0.75054 0.03719 0.46243
 C76 C 0.75006 -0.03781 0.53741
 O77 O 0.47248 0.22688 0.02787
 O78 O 0.52825 0.22687 -0.02795
 O79 O 0.52829 0.22694 0.02785
 O80 O 0.47244 0.22683 -0.02793
 O81 O 0.47239 0.27412 -0.02800
 O82 O 0.52824 0.27423 0.02778
 O83 O 0.52820 0.27416 -0.02803
 O84 O 0.47242 0.27417 0.02780
 Cu85 Cu 0.50037 0.22214 -0.00003
 Cu86 Cu 0.50031 0.27891 -0.00012
 C87 C 0.46289 0.25053 0.03740
 C88 C 0.53778 0.25051 -0.03756
 C89 C 0.53784 0.25061 0.03737
 C90 C 0.46284 0.25045 -0.03753
 O91 O 0.52790 0.77304 0.02821
 O92 O 0.47214 0.77307 -0.02764
 O93 O 0.47208 0.77297 0.02817
 O94 O 0.52795 0.77312 -0.02760
 O95 O 0.52801 0.72582 -0.02765
 O96 O 0.47213 0.72568 0.02812
 O97 O 0.47220 0.72577 -0.02769
 O98 O 0.52796 0.72575 0.02817
 Cu99 Cu 0.50001 0.77779 0.00029
 Cu100 Cu 0.50008 0.72102 0.00023
 C101 C 0.53748 0.74939 0.03776
 C102 C 0.46261 0.74942 -0.03723
 C103 C 0.46252 0.74930 0.03770
 C104 C 0.53756 0.74949 -0.03719
 O105 O 0.02753 0.47291 0.22588
 O106 O -0.02828 0.52874 0.22569
 O107 O 0.02756 0.52874 0.22564
 O108 O -0.02827 0.47291 0.22593
 O109 O -0.02822 0.47308 0.27321
 O110 O 0.02760 0.52891 0.27291
 O111 O -0.02823 0.52891 0.27297
 O112 O 0.02758 0.47308 0.27315
 Cu113 Cu -0.00037 0.50081 0.22105
 Cu114 Cu -0.00031 0.50102 0.27779
 C115 C 0.03711 0.46342 0.24955
 C116 C -0.03783 0.53839 0.24930
 C117 C 0.03717 0.53838 0.24923
 C118 C -0.03780 0.46341 0.24962
 O119 O 0.02714 0.52827 0.77436
 O120 O -0.02866 0.47245 0.77396
 O121 O 0.02714 0.47245 0.77403
 O122 O -0.02869 0.52829 0.77429
 O123 O -0.02863 0.52859 0.72702
 O124 O 0.02720 0.47274 0.72676
 O125 O -0.02860 0.47275 0.72668
 O126 O 0.02720 0.52857 0.72709
 Cu127 Cu -0.00078 0.50034 0.77890
 Cu128 Cu -0.00071 0.50070 0.72215
 C129 C 0.03675 0.53797 0.75080
 C130 C -0.03818 0.46302 0.75025
 C131 C 0.03674 0.46302 0.75035
 C132 C -0.03824 0.53800 0.75070
 C133 C 0.33575 0.25043 0.16424
 C134 C 0.31457 0.27168 0.16432
 C135 C 0.29332 0.27166 0.18544
 C136 C 0.29297 0.25033 0.20682
 C137 C 0.31439 0.22906 0.20652
 C138 C 0.33562 0.22914 0.18537
 C139 C 0.35760 0.25047 0.14247
 C140 C 0.37590 0.25050 0.12423
 C141 C 0.39774 0.25051 0.10246
 C142 C 0.40830 0.27648 0.09176
 C143 C 0.42951 0.27651 0.07059
 C144 C 0.44044 0.25052 0.05984
 C145 C 0.42967 0.22453 0.07075
 C146 C 0.40846 0.22455 0.09192
 H147 H 0.31449 0.28827 0.14805
 H148 H 0.27719 0.28836 0.18499
 H149 H 0.31480 0.21232 0.22261
 H150 H 0.35192 0.21259 0.18549
 H151 H 0.40014 0.29669 0.09978
 H152 H 0.43733 0.29689 0.06265
 H153 H 0.43762 0.20416 0.06294
 H154 H 0.40043 0.20433 0.10007
 C155 C 0.66451 0.74944 0.16473
 C156 C 0.68580 0.72833 0.16471
 C157 C 0.70705 0.72832 0.18583
 C158 C 0.70738 0.74953 0.20742
 C159 C 0.68572 0.77069 0.20713
 C160 C 0.66452 0.77059 0.18596
 C161 C 0.64268 0.74941 0.14295
 C162 C 0.62439 0.74940 0.12469
 C163 C 0.60257 0.74939 0.10289
 C164 C 0.59202 0.72343 0.09220
 C165 C 0.57083 0.72340 0.07100
 C166 C 0.55991 0.74939 0.06022
 C167 C 0.57067 0.77539 0.07113
 C168 C 0.59186 0.77535 0.09233
 H169 H 0.68598 0.71185 0.14835
 H170 H 0.72319 0.71164 0.18513
 H171 H 0.68504 0.78741 0.22322
 H172 H 0.64812 0.78705 0.18615
 H173 H 0.60017 0.70321 0.10024
 H174 H 0.56302 0.70303 0.06307
 H175 H 0.56273 0.79576 0.06330
 H176 H 0.59988 0.79558 0.10046
 C177 C 0.66469 0.25047 -0.16462
 C178 C 0.66484 0.22919 -0.18574
 C179 C 0.68602 0.22917 -0.20694
 C180 C 0.70739 0.25049 -0.20728
 C181 C 0.70703 0.27180 -0.18591
 C182 C 0.68582 0.27176 -0.16474
 C183 C 0.64289 0.25046 -0.14281
 C184 C 0.62462 0.25046 -0.12454
 C185 C 0.60283 0.25048 -0.10272
 C186 C 0.59219 0.22452 -0.09208
 C187 C 0.57102 0.22450 -0.07087
 C188 C 0.56021 0.25051 -0.06002
 C189 C 0.57106 0.27649 -0.07087
 C190 C 0.59223 0.27645 -0.09208
 H191 H 0.64857 0.21261 -0.18583
 H192 H 0.68561 0.21245 -0.22302
 H193 H 0.72312 0.28853 -0.18550
 H194 H 0.68590 0.28834 -0.14848
 H195 H 0.60025 0.20430 -0.10017
 H196 H 0.56313 0.20414 -0.06298
 H197 H 0.56321 0.29687 -0.06298
 H198 H 0.60034 0.29667 -0.10017
 C199 C 0.33558 0.74958 -0.16420
 C200 C 0.31426 0.72852 -0.16415
 C201 C 0.29302 0.72853 -0.18528
 C202 C 0.29275 0.74970 -0.20691
 C203 C 0.31443 0.77082 -0.20666
 C204 C 0.33562 0.77071 -0.18547
 C205 C 0.35741 0.74953 -0.14241
 C206 C 0.37569 0.74950 -0.12415
 C207 C 0.39751 0.74948 -0.10235
 C208 C 0.40812 0.72350 -0.09170
 C209 C 0.42932 0.72345 -0.07051
 C210 C 0.44018 0.74944 -0.05969
 C211 C 0.42936 0.77544 -0.07055
 C212 C 0.40817 0.77543 -0.09174
 H213 H 0.31404 0.71205 -0.14775
 H214 H 0.27685 0.71187 -0.18455
 H215 H 0.31516 0.78751 -0.22279
 H216 H 0.35206 0.78713 -0.18569
 H217 H 0.40001 0.70329 -0.09978
 H218 H 0.43717 0.70308 -0.06262
 H219 H 0.43725 0.79581 -0.06268
 H220 H 0.40010 0.79566 -0.09984
 C221 C 0.16392 0.33617 0.24988
 C222 C 0.18516 0.33613 0.22871
 C223 C 0.20635 0.31493 0.22869
 C224 C 0.20657 0.29342 0.24988
 C225 C 0.18507 0.29367 0.27108
 C226 C 0.16392 0.31491 0.27105
 C227 C 0.14213 0.35801 0.24986
 C228 C 0.12389 0.37631 0.24983
 C229 C 0.10212 0.39817 0.24976
 C230 C 0.09148 0.40888 0.27568
 C231 C 0.07033 0.43012 0.27564
 C232 C 0.05953 0.44094 0.24962
 C233 C 0.07038 0.43002 0.22367
 C234 C 0.09153 0.40878 0.22377
 H235 H 0.18535 0.35250 0.21222
 H236 H 0.22252 0.31542 0.21205
 H237 H 0.18456 0.27749 0.28772
 H238 H 0.14756 0.31475 0.28754
 H239 H 0.09953 0.40080 0.29591
 H240 H 0.06244 0.43805 0.29598
 H241 H 0.06253 0.43788 0.20329
 H242 H 0.09963 0.40064 0.20359
 C243 C 0.16428 0.66445 0.75138
 C244 C 0.16446 0.68560 0.73011
 C245 C 0.18574 0.70670 0.73002
 C246 C 0.20719 0.70691 0.75126
 C247 C 0.20680 0.68551 0.77256
 C248 C 0.18547 0.66445 0.77259
 C249 C 0.14237 0.64273 0.75139
 C250 C 0.12401 0.62455 0.75135
 C251 C 0.10209 0.60285 0.75122
 C252 C 0.09143 0.59207 0.77711
 C253 C 0.07014 0.57097 0.77700
 C254 C 0.05924 0.56037 0.75095
 C255 C 0.07011 0.57137 0.72504
 C256 C 0.09139 0.59247 0.72521
 H257 H 0.14814 0.68579 0.71358
 H258 H 0.18536 0.72280 0.71330
 H259 H 0.22294 0.68500 0.78923
 H260 H 0.18553 0.64816 0.78916
 H261 H 0.09957 0.59997 0.79737
 H262 H 0.06225 0.56296 0.79731
 H263 H 0.06219 0.56368 0.70462
 H264 H 0.09950 0.60068 0.70505
 C265 C -0.16523 0.66505 0.24911
 C266 C -0.16531 0.68624 0.27030
 C267 C -0.18656 0.70738 0.27042
 C268 C -0.20818 0.70768 0.24924
 C269 C -0.20778 0.68614 0.22799
 C270 C -0.18648 0.66505 0.22798
 C271 C -0.14335 0.64331 0.24907
 C272 C -0.12501 0.62509 0.24907
 C273 C -0.10312 0.60336 0.24912
 C274 C -0.09252 0.59262 0.22320
 C275 C -0.07126 0.57149 0.22322
 C276 C -0.06031 0.56080 0.24923
 C277 C -0.07111 0.57175 0.27519
 C278 C -0.09237 0.59289 0.27510
 H279 H -0.14894 0.68642 0.28677
 H280 H -0.18593 0.72344 0.28717
 H281 H -0.22389 0.68545 0.21129
 H282 H -0.18660 0.64872 0.21146
 H283 H -0.10070 0.60058 0.20297
 H284 H -0.06342 0.56352 0.20288
 H285 H -0.06316 0.56400 0.29557
 H286 H -0.10043 0.60106 0.29529
 C287 C -0.16480 0.33564 0.74955
 C288 C -0.18604 0.33556 0.77069
 C289 C -0.20720 0.31434 0.77074
 C290 C -0.20746 0.29273 0.74955
 C291 C -0.18586 0.29313 0.72835
 C292 C -0.16475 0.31441 0.72840
 C293 C -0.14305 0.35751 0.74958
 C294 C -0.12484 0.37584 0.74966
 C295 C -0.10310 0.39772 0.74980
 C296 C -0.09243 0.40850 0.72392
 C297 C -0.07131 0.42977 0.72404
 C298 C -0.06058 0.44053 0.75009
 C299 C -0.07147 0.42954 0.77600
 C300 C -0.09259 0.40828 0.77582
 H301 H -0.18626 0.35192 0.78717
 H302 H -0.22330 0.31496 0.78745
 H303 H -0.18514 0.27703 0.71164
 H304 H -0.14838 0.31429 0.71193
 H305 H -0.10043 0.40047 0.70365
 H306 H -0.06339 0.43776 0.70373
 H307 H -0.06368 0.43735 0.79642
 H308 H -0.10071 0.40007 0.79598
 C309 C 0.24957 0.16408 0.33549
 C310 C 0.22833 0.18526 0.33543
 C311 C 0.22832 0.20654 0.31431
 C312 C 0.24961 0.20690 0.29291
 C313 C 0.27087 0.18546 0.29318
 C314 C 0.27082 0.16422 0.31433
 C315 C 0.24958 0.14221 0.35725
 C316 C 0.24963 0.12389 0.37548
 C317 C 0.24972 0.10202 0.39725
 C318 C 0.22382 0.09133 0.40794
 C319 C 0.22389 0.07009 0.42911
 C320 C 0.24992 0.05927 0.43986
 C321 C 0.27586 0.07017 0.42894
 C322 C 0.27572 0.09140 0.40778
 H323 H 0.21178 0.18534 0.35172
 H324 H 0.21164 0.22268 0.31478
 H325 H 0.28757 0.18506 0.27707
 H326 H 0.28737 0.14791 0.31418
 H327 H 0.20356 0.09941 0.39993
 H328 H 0.20356 0.06217 0.43704
 H329 H 0.29626 0.06231 0.43675
 H330 H 0.29590 0.09954 0.39964
 C331 C 0.75084 0.16446 0.66399
 C332 C 0.72961 0.16454 0.68517
 C333 C 0.72952 0.18576 0.70632
 C334 C 0.75073 0.20725 0.70656
 C335 C 0.77199 0.20696 0.68514
 C336 C 0.77201 0.18570 0.66402
 C337 C 0.75086 0.14261 0.64223
 C338 C 0.75084 0.12429 0.62401
 C339 C 0.75076 0.10242 0.60227
 C340 C 0.72476 0.09185 0.59170
 C341 C 0.72464 0.07060 0.57057
 C342 C 0.75058 0.05964 0.55973
 C343 C 0.77661 0.07042 0.57052
 C344 C 0.77667 0.09167 0.59165
 H345 H 0.71311 0.14819 0.68534
 H346 H 0.71284 0.18530 0.72244
 H347 H 0.78863 0.22313 0.68465
 H348 H 0.78855 0.18583 0.64771
 H349 H 0.70458 0.10003 0.59978
 H350 H 0.70424 0.06278 0.56273
 H351 H 0.79694 0.06245 0.56265
 H352 H 0.79692 0.09971 0.59970
 C353 C 0.25086 -0.16458 0.66491
 C354 C 0.22955 -0.18568 0.66511
 C355 C 0.22946 -0.20682 0.68636
 C356 C 0.25075 -0.20714 0.70775
 C357 C 0.27210 -0.18580 0.70734
 C358 C 0.27213 -0.16468 0.68605
 C359 C 0.25088 -0.14284 0.64302
 C360 C 0.25085 -0.12463 0.62467
 C361 C 0.25076 -0.10291 0.60276
 C362 C 0.22475 -0.09246 0.59207
 C363 C 0.22461 -0.07135 0.57077
 C364 C 0.25055 -0.06042 0.55989
 C365 C 0.27659 -0.07109 0.57079
 C366 C 0.27666 -0.09219 0.59209
 H367 H 0.21298 -0.18579 0.64883
 H368 H 0.21271 -0.22288 0.68599
 H369 H 0.28881 -0.18537 0.72344
 H370 H 0.28873 -0.14844 0.68609
 H371 H 0.20458 -0.10062 0.60019
 H372 H 0.20421 -0.06361 0.56286
 H373 H 0.29691 -0.06314 0.56288
 H374 H 0.29691 -0.10015 0.60022
 C375 C 0.74956 -0.16463 0.33531
 C376 C 0.77084 -0.18577 0.33514
 C377 C 0.77086 -0.20696 0.31395
 C378 C 0.74954 -0.20728 0.29258
 C379 C 0.72823 -0.18589 0.29297
 C380 C 0.72827 -0.16474 0.31419
 C381 C 0.74960 -0.14284 0.35713
 C382 C 0.74966 -0.12459 0.37542
 C383 C 0.74977 -0.10282 0.39725
 C384 C 0.77577 -0.09240 0.40796
 C385 C 0.77591 -0.07124 0.42918
 C386 C 0.74998 -0.06022 0.43997
 C387 C 0.72394 -0.07085 0.42906
 C388 C 0.72387 -0.09201 0.40784
 H389 H 0.78743 -0.18589 0.35140
 H390 H 0.78759 -0.22305 0.31434
 H391 H 0.71150 -0.18546 0.27689
 H392 H 0.71169 -0.14846 0.31413
 H393 H 0.79595 -0.10063 0.39991
 H394 H 0.79632 -0.06352 0.43711
 H395 H 0.70362 -0.06283 0.43690
 H396 H 0.70361 -0.09993 0.39970
 C397 C 0.66463 0.74974 -0.16421
 C398 C 0.68588 0.72859 -0.16422
 C399 C 0.70710 0.72855 -0.18538
 C400 C 0.70743 0.74975 -0.20699
 C401 C 0.68582 0.77095 -0.20667
 C402 C 0.66465 0.77090 -0.18545
 C403 C 0.64280 0.74972 -0.14240
 C404 C 0.62452 0.74969 -0.12412
 C405 C 0.60271 0.74965 -0.10230
 C406 C 0.59215 0.72366 -0.09164
 C407 C 0.57095 0.72358 -0.07045
 C408 C 0.56002 0.74955 -0.05963
 C409 C 0.57080 0.77556 -0.07050
 C410 C 0.59199 0.77558 -0.09169
 H411 H 0.68606 0.71210 -0.14785
 H412 H 0.72321 0.71183 -0.18470
 H413 H 0.68514 0.78768 -0.22277
 H414 H 0.64827 0.78738 -0.18563
 H415 H 0.60029 0.70346 -0.09971
 H416 H 0.56313 0.70319 -0.06255
 H417 H 0.56286 0.79592 -0.06264
 H418 H 0.60002 0.79582 -0.09980
 C419 C 0.33573 0.25023 -0.16447
 C420 C 0.33566 0.22901 -0.18565
 C421 C 0.31447 0.22896 -0.20685
 C422 C 0.29301 0.25020 -0.20714
 C423 C 0.29330 0.27146 -0.18571
 C424 C 0.31452 0.27145 -0.16455
 C425 C 0.35756 0.25025 -0.14267
 C426 C 0.37585 0.25027 -0.12441
 C427 C 0.39767 0.25032 -0.10261
 C428 C 0.40839 0.22438 -0.09199
 C429 C 0.42960 0.22439 -0.07080
 C430 C 0.44038 0.25041 -0.05996
 C431 C 0.42945 0.27638 -0.07079
 C432 C 0.40824 0.27630 -0.09197
 H433 H 0.35199 0.21248 -0.18579
 H434 H 0.31493 0.21228 -0.22297
 H435 H 0.27714 0.28813 -0.18525
 H436 H 0.31438 0.28798 -0.14824
 H437 H 0.40036 0.20414 -0.10007
 H438 H 0.43754 0.20404 -0.06294
 H439 H 0.43727 0.29677 -0.06292
 H440 H 0.40008 0.29651 -0.10005
 C441 C 0.33520 0.74911 0.16446
 C442 C 0.33522 0.77021 0.18574
 C443 C 0.31401 0.77031 0.20691
 C444 C 0.29232 0.74920 0.20717
 C445 C 0.29261 0.72804 0.18553
 C446 C 0.31387 0.72805 0.16441
 C447 C 0.35706 0.74909 0.14268
 C448 C 0.37537 0.74910 0.12445
 C449 C 0.39725 0.74914 0.10268
 C450 C 0.40792 0.77513 0.09214
 C451 C 0.42917 0.77521 0.07100
 C452 C 0.44003 0.74924 0.06011
 C453 C 0.42914 0.72322 0.07086
 C454 C 0.40790 0.72321 0.09201
 H455 H 0.35165 0.78664 0.18597
 H456 H 0.31473 0.78699 0.22304
 H457 H 0.27644 0.71139 0.18480
 H458 H 0.31367 0.71160 0.14801
 H459 H 0.39983 0.79533 0.10026
 H460 H 0.43708 0.79560 0.06319
 H461 H 0.43703 0.70287 0.06295
 H462 H 0.39978 0.70296 0.10002
 C463 C 0.66499 0.25080 0.16428
 C464 C 0.68613 0.27208 0.16439
 C465 C 0.70735 0.27211 0.18555
 C466 C 0.70771 0.25080 0.20695
 C467 C 0.68633 0.22949 0.20662
 C468 C 0.66514 0.22952 0.18543
 C469 C 0.64317 0.25079 0.14247
 C470 C 0.62488 0.25077 0.12421
 C471 C 0.60304 0.25073 0.10242
 C472 C 0.59237 0.22475 0.09188
 C473 C 0.57116 0.22468 0.07071
 C474 C 0.56031 0.25065 0.05980
 C475 C 0.57119 0.27666 0.07055
 C476 C 0.59241 0.27667 0.09172
 H477 H 0.68621 0.28866 0.14811
 H478 H 0.72344 0.28884 0.18512
 H479 H 0.68592 0.21277 0.22272
 H480 H 0.64887 0.21294 0.18554
 H481 H 0.60046 0.20454 0.10003
 H482 H 0.56326 0.20429 0.06291
 H483 H 0.56331 0.29702 0.06262
 H484 H 0.60052 0.29691 0.09973
 C485 C -0.16547 0.66493 0.75108
 C486 C -0.16556 0.68611 0.72986
 C487 C -0.18675 0.70731 0.72978
 C488 C -0.20832 0.70768 0.75101
 C489 C -0.20792 0.68614 0.77228
 C490 C -0.18667 0.66499 0.77226
 C491 C -0.14363 0.64312 0.75108
 C492 C -0.12533 0.62486 0.75105
 C493 C -0.10347 0.60307 0.75097
 C494 C -0.09273 0.59265 0.72498
 C495 C -0.07150 0.57148 0.72486
 C496 C -0.06071 0.56045 0.75080
 C497 C -0.07166 0.57108 0.77682
 C498 C -0.09289 0.59225 0.77688
 H499 H -0.14923 0.68625 0.71334
 H500 H -0.18613 0.72337 0.71301
 H501 H -0.22398 0.68550 0.78903
 H502 H -0.18679 0.64866 0.78880
 H503 H -0.10077 0.60088 0.70480
 H504 H -0.06355 0.56376 0.70447
 H505 H -0.06383 0.56306 0.79715
 H506 H -0.10106 0.60017 0.79712
 C507 C -0.16445 0.33596 0.25013
 C508 C -0.18569 0.33589 0.22899
 C509 C -0.20684 0.31465 0.22894
 C510 C -0.20711 0.29303 0.25012
 C511 C -0.18551 0.29341 0.27132
 C512 C -0.16441 0.31470 0.27127
 C513 C -0.14270 0.35784 0.25011
 C514 C -0.12448 0.37618 0.25006
 C515 C -0.10275 0.39808 0.24995
 C516 C -0.09222 0.40872 0.22395
 C517 C -0.07109 0.42998 0.22381
 C518 C -0.06021 0.44091 0.24974
 C519 C -0.07095 0.43008 0.27577
 C520 C -0.09208 0.40881 0.27585
 H521 H -0.18591 0.35227 0.21251
 H522 H -0.22294 0.31530 0.21222
 H523 H -0.18479 0.27729 0.28803
 H524 H -0.14804 0.31456 0.28775
 H525 H -0.10034 0.40056 0.20378
 H526 H -0.06330 0.43785 0.20341
 H527 H -0.06304 0.43802 0.29610
 H528 H -0.10008 0.40073 0.29610
 C529 C 0.16380 0.33595 0.74985
 C530 C 0.18503 0.33588 0.77103
 C531 C 0.20627 0.31472 0.77103
 C532 C 0.20656 0.29328 0.74978
 C533 C 0.18509 0.29357 0.72856
 C534 C 0.16388 0.31476 0.72863
 C535 C 0.14196 0.35775 0.74990
 C536 C 0.12367 0.37602 0.74996
 C537 C 0.10185 0.39784 0.75005
 C538 C 0.09123 0.40837 0.77605
 C539 C 0.07004 0.42958 0.77618
 C540 C 0.05918 0.44055 0.75025
 C541 C 0.07001 0.42981 0.72422
 C542 C 0.09120 0.40860 0.72415
 H543 H 0.18517 0.35219 0.78757
 H544 H 0.22243 0.31519 0.78768
 H545 H 0.18463 0.27743 0.71189
 H546 H 0.14754 0.31462 0.71212
 H547 H 0.09933 0.40019 0.79623
 H548 H 0.06218 0.43738 0.79658
 H549 H 0.06212 0.43778 0.70389
 H550 H 0.09927 0.40059 0.70390
 C551 C 0.16477 0.66489 0.24885
 C552 C 0.16492 0.68605 0.27006
 C553 C 0.18620 0.70716 0.27018
 C554 C 0.20780 0.70745 0.24899
 C555 C 0.20734 0.68594 0.22771
 C556 C 0.18600 0.66488 0.22769
 C557 C 0.14284 0.64318 0.24881
 C558 C 0.12447 0.62499 0.24884
 C559 C 0.10254 0.60329 0.24892
 C560 C 0.09182 0.59283 0.27492
 C561 C 0.07054 0.57172 0.27505
 C562 C 0.05967 0.56078 0.24912
 C563 C 0.07059 0.57146 0.22309
 C564 C 0.09188 0.59257 0.22302
 H565 H 0.14856 0.68625 0.28656
 H566 H 0.18562 0.72319 0.28696
 H567 H 0.22343 0.68524 0.21098
 H568 H 0.18607 0.64858 0.21115
 H569 H 0.09993 0.60098 0.29510
 H570 H 0.06261 0.56398 0.29545
 H571 H 0.06270 0.56350 0.20276
 H572 H 0.10003 0.60051 0.20277
 C573 C 0.74947 -0.16456 0.66483
 C574 C 0.72824 -0.16461 0.68601
 C575 C 0.72821 -0.18574 0.70728
 C576 C 0.74948 -0.20718 0.70765
 C577 C 0.77074 -0.20692 0.68622
 C578 C 0.77071 -0.18575 0.66499
 C579 C 0.74950 -0.14279 0.64296
 C580 C 0.74956 -0.12456 0.62462
 C581 C 0.74968 -0.10280 0.60273
 C582 C 0.72379 -0.09200 0.59209
 C583 C 0.72388 -0.07086 0.57082
 C584 C 0.74993 -0.06023 0.55991
 C585 C 0.77585 -0.07124 0.57076
 C586 C 0.77569 -0.09238 0.59202
 H587 H 0.71169 -0.14830 0.68609
 H588 H 0.71152 -0.18526 0.72340
 H589 H 0.78743 -0.22305 0.68582
 H590 H 0.78726 -0.18592 0.64869
 H591 H 0.70352 -0.09991 0.60024
 H592 H 0.70356 -0.06284 0.56295
 H593 H 0.79626 -0.06353 0.56283
 H594 H 0.79586 -0.10060 0.60010
 C595 C 0.25041 -0.16507 0.33525
 C596 C 0.27168 -0.16520 0.31411
 C597 C 0.27166 -0.18633 0.29285
 C598 C 0.25030 -0.20766 0.29245
 C599 C 0.22900 -0.20732 0.31385
 C600 C 0.22909 -0.18617 0.33507
 C601 C 0.25045 -0.14330 0.35710
 C602 C 0.25045 -0.12505 0.37541
 C603 C 0.25042 -0.10327 0.39725
 C604 C 0.27636 -0.09252 0.40781
 C605 C 0.27635 -0.07134 0.42902
 C606 C 0.25035 -0.06063 0.43996
 C607 C 0.22438 -0.07159 0.42919
 C608 C 0.22445 -0.09277 0.40799
 H609 H 0.28830 -0.14897 0.31405
 H610 H 0.28837 -0.18591 0.27675
 H611 H 0.21224 -0.22338 0.31423
 H612 H 0.21252 -0.18626 0.35134
 H613 H 0.29658 -0.10050 0.39965
 H614 H 0.29670 -0.06336 0.43683
 H615 H 0.20401 -0.06382 0.43714
 H616 H 0.20425 -0.10095 0.39996
 C617 C 0.75111 0.16466 0.33573
 C618 C 0.72990 0.16476 0.31454
 C619 C 0.72984 0.18601 0.29338
 C620 C 0.75104 0.20750 0.29314
 C621 C 0.77229 0.20718 0.31458
 C622 C 0.77230 0.18590 0.33571
 C623 C 0.75111 0.14278 0.35750
 C624 C 0.75106 0.12444 0.37573
 C625 C 0.75094 0.10254 0.39748
 C626 C 0.72492 0.09196 0.40802
 C627 C 0.72476 0.07069 0.42915
 C628 C 0.75068 0.05970 0.44002
 C629 C 0.77673 0.07048 0.42926
 C630 C 0.77683 0.09176 0.40813
 H631 H 0.71339 0.14842 0.31436
 H632 H 0.71316 0.18556 0.27724
 H633 H 0.78893 0.22335 0.31507
 H634 H 0.78882 0.18602 0.35203
 H635 H 0.70476 0.10016 0.39991
 H636 H 0.70435 0.06286 0.43696
 H637 H 0.79705 0.06250 0.43717
 H638 H 0.79709 0.09980 0.40012
 C639 C 0.24986 0.16422 0.66395
 C640 C 0.22860 0.18539 0.66402
 C641 C 0.22856 0.20663 0.68517
 C642 C 0.24982 0.20696 0.70660
 C643 C 0.27110 0.18554 0.70631
 C644 C 0.27109 0.16434 0.68513
 C645 C 0.24988 0.14238 0.64217
 C646 C 0.24992 0.12407 0.62393
 C647 C 0.24997 0.10221 0.60217
 C648 C 0.22404 0.09150 0.59154
 C649 C 0.22407 0.07025 0.57041
 C650 C 0.25008 0.05942 0.55961
 C651 C 0.27603 0.07034 0.57044
 C652 C 0.27595 0.09159 0.59157
 H653 H 0.21206 0.18550 0.64772
 H654 H 0.21185 0.22274 0.68471
 H655 H 0.28779 0.18511 0.72243
 H656 H 0.28765 0.14805 0.68527
 H657 H 0.20381 0.09957 0.59960
 H658 H 0.20372 0.06231 0.56254
 H659 H 0.29642 0.06248 0.56259
 H660 H 0.29614 0.09973 0.59965
   
