data_POSCAR
  _audit_creation_date              2014-09-24
  _audit_creation_method            'ToBaCCo'
  _symmetry_space_group_name_H-M    'P1'
  _symmetry_Int_Tables_number       1
  _symmetry_cell_setting            triclinic
  loop_
  _symmetry_equiv_pos_as_xyz
 x,y,z
_cell_length_a 39.1447
_cell_length_b 40.7865
_cell_length_c 39.6412
_cell_angle_alpha 91.950600
_cell_angle_beta 91.404400
_cell_angle_gamma 90.556000
loop_
  _atom_site_label
  _atom_site_type_symbol
  _atom_site_fract_x
  _atom_site_fract_y
  _atom_site_fract_z
Si1 Si 0.24894 0.26215 0.25421
 Si2 Si 0.75470 0.75410 0.25110
 Si3 Si 0.75730 0.24526 0.74251
 Si4 Si 0.26218 0.75378 0.76081
 C5 C 0.04817 0.04728 0.01170
 H6 H 0.04781 0.04742 -0.01560
 C7 C 0.07047 0.06816 0.03035
 H8 H 0.08718 0.08451 0.01727
 C9 C 0.02639 0.02602 0.06187
 H10 H 0.00907 0.00961 0.07399
 C11 C 0.04802 0.04683 0.08155
 H12 H 0.04750 0.04602 0.10881
 N13 N 0.02721 0.02634 0.02759
 C14 C 0.00869 -0.05349 -0.04670
 H15 H -0.01895 -0.05426 -0.04763
 C16 C 0.02713 -0.07586 -0.06634
 H17 H 0.01352 -0.09362 -0.08269
 C18 C 0.06002 -0.02935 -0.02420
 H19 H 0.07283 -0.01173 -0.00722
 C20 C 0.07943 -0.05109 -0.04351
 H21 H 0.10705 -0.04985 -0.04125
 Zn22 Zn -0.00136 -0.00145 -0.00013
 N23 N 0.02530 -0.03058 -0.02648
 C24 C -0.02668 0.02265 -0.06238
 N25 N -0.02776 0.02570 -0.02814
 C26 C -0.04770 0.04857 -0.01274
 C27 C -0.06920 0.06817 -0.03188
 C28 C -0.04738 0.04214 -0.08252
 C29 C -0.01574 -0.05075 0.04525
 C30 C -0.03612 -0.07173 0.06358
 C31 C -0.08604 -0.04394 0.04247
 C32 C -0.06479 -0.02389 0.02420
 N33 N -0.03029 -0.02736 0.02611
 H34 H -0.01000 0.00496 -0.07416
 H35 H -0.04747 0.05098 0.01453
 H36 H -0.08546 0.08581 -0.01927
 H37 H -0.04681 0.03902 -0.10974
 H38 H 0.01173 -0.05344 0.04581
 H39 H -0.02400 -0.09067 0.07796
 H40 H -0.11336 -0.04013 0.04105
 H41 H -0.07610 -0.00583 0.00825
 C42 C 0.06300 -0.07465 -0.06502
 C43 C 0.07068 0.06796 0.06573
 C44 C -0.07187 -0.06849 0.06234
 C45 C -0.06939 0.06480 -0.06720
 C46 C 0.04654 0.55664 0.52199
 H47 H 0.04992 0.55545 0.49498
 C48 C 0.06620 0.57858 0.54233
 H49 H 0.08488 0.59424 0.53095
 C50 C 0.01764 0.53812 0.56976
 H51 H -0.00152 0.52253 0.58033
 C52 C 0.03622 0.56018 0.59091
 H53 H 0.03158 0.56112 0.61775
 N54 N 0.02334 0.53648 0.53602
 C55 C 0.01030 0.45239 0.46543
 H56 H -0.01730 0.45058 0.46438
 C57 C 0.02974 0.42947 0.44755
 H58 H 0.01695 0.41020 0.43243
 C59 C 0.06051 0.47978 0.48638
 H60 H 0.07253 0.49893 0.50206
 C61 C 0.08090 0.45764 0.46857
 H62 H 0.10845 0.46016 0.47054
 Zn63 Zn -0.00271 0.50713 0.50742
 N64 N 0.02584 0.47719 0.48400
 C65 C -0.02683 0.52638 0.44282
 N66 N -0.02805 0.53245 0.47671
 C67 C -0.04758 0.55692 0.48979
 C68 C -0.06807 0.57557 0.46862
 C69 C -0.04691 0.54444 0.42071
 C70 C -0.01859 0.45984 0.55409
 C71 C -0.03936 0.44037 0.57359
 C72 C -0.08885 0.46720 0.55010
 C73 C -0.06718 0.48586 0.53073
 N74 N -0.03271 0.48217 0.53335
 H75 H -0.01053 0.50737 0.43283
 H76 H -0.04776 0.56146 0.51683
 H77 H -0.08427 0.59423 0.47963
 H78 H -0.04572 0.53918 0.39381
 H79 H 0.00888 0.45722 0.55544
 H80 H -0.02774 0.42287 0.59019
 H81 H -0.11623 0.47037 0.54773
 H82 H -0.07803 0.50315 0.51357
 C83 C 0.06551 0.43219 0.44874
 C84 C 0.06104 0.58048 0.57722
 C85 C -0.07495 0.44412 0.57183
 C86 C -0.06821 0.56915 0.43359
 C87 C 0.53030 0.04918 0.50317
 H88 H 0.52498 0.05209 0.47653
 C89 C 0.55247 0.07108 0.52070
 H90 H 0.56366 0.09108 0.50736
 C91 C 0.52131 0.01991 0.55283
 H92 H 0.50911 -0.00002 0.56530
 C93 C 0.54368 0.04100 0.57126
 H94 H 0.54882 0.03653 0.59765
 N95 N 0.51547 0.02404 0.51929
 C96 C 0.49812 -0.06008 0.45039
 H97 H 0.47084 -0.06373 0.45238
 C98 C 0.51725 -0.08234 0.43127
 H99 H 0.50446 -0.10293 0.41824
 C100 C 0.54792 -0.02874 0.46501
 H101 H 0.55989 -0.00808 0.47852
 C102 C 0.56795 -0.05022 0.44600
 H103 H 0.59525 -0.04589 0.44518
 Zn104 Zn 0.48666 -0.00504 0.49312
 N105 N 0.51362 -0.03382 0.46662
 C106 C 0.45633 0.01403 0.43105
 N107 N 0.45839 0.02050 0.46494
 C108 C 0.44142 0.04613 0.47933
 C109 C 0.42108 0.06626 0.45948
 C110 C 0.43608 0.03336 0.41032
 C111 C 0.47554 -0.05445 0.53935
 C112 C 0.45661 -0.07502 0.55948
 C113 C 0.40538 -0.04718 0.54172
 C114 C 0.42528 -0.02717 0.52195
 N115 N 0.45973 -0.03097 0.52127
 H116 H 0.47049 -0.00603 0.41997
 H117 H 0.44380 0.05096 0.50629
 H118 H 0.40748 0.08635 0.47139
 H119 H 0.43489 0.02795 0.38338
 H120 H 0.50290 -0.05742 0.53782
 H121 H 0.46961 -0.09387 0.57329
 H122 H 0.37803 -0.04350 0.54221
 H123 H 0.41308 -0.00874 0.50703
 C124 C 0.55264 -0.07743 0.42881
 C125 C 0.55979 0.06695 0.55519
 C126 C 0.42099 -0.07158 0.56077
 C127 C 0.41813 0.05988 0.42449
 C128 C 0.55212 0.54111 0.01164
 H129 H 0.55341 0.54209 -0.01554
 C130 C 0.57094 0.56356 0.03222
 H131 H 0.58683 0.58177 0.02077
 C132 C 0.52873 0.51703 0.05964
 H133 H 0.51193 0.49915 0.07027
 C134 C 0.54674 0.53924 0.08110
 H135 H 0.54401 0.53794 0.10815
 N136 N 0.53167 0.51834 0.02559
 C137 C 0.51504 0.43821 -0.04916
 H138 H 0.48760 0.43543 -0.04771
 C139 C 0.53319 0.41784 -0.07113
 H140 H 0.51957 0.39916 -0.08633
 C141 C 0.56604 0.46580 -0.03076
 H142 H 0.57879 0.48445 -0.01496
 C143 C 0.58524 0.44587 -0.05234
 H144 H 0.61259 0.44981 -0.05326
 Zn145 Zn 0.50423 0.49020 -0.00305
 N146 N 0.53149 0.46214 -0.03014
 C147 C 0.47679 0.51218 -0.06517
 N148 N 0.47727 0.51717 -0.03105
 C149 C 0.46075 0.54298 -0.01648
 C150 C 0.44294 0.56505 -0.03643
 C151 C 0.45901 0.53338 -0.08599
 C152 C 0.49232 0.43781 0.03838
 C153 C 0.47431 0.41761 0.05956
 C154 C 0.42427 0.45063 0.05036
 C155 C 0.44317 0.46999 0.02893
 N156 N 0.47667 0.46350 0.02371
 H157 H 0.49054 0.49202 -0.07650
 H158 H 0.46213 0.54686 0.01065
 H159 H 0.43081 0.58592 -0.02431
 H160 H 0.45866 0.52855 -0.11302
 H161 H 0.51898 0.43315 0.03372
 H162 H 0.48730 0.39708 0.07055
 H163 H 0.39798 0.45692 0.05504
 H164 H 0.43122 0.49054 0.01706
 C165 C 0.56872 0.42184 -0.07327
 C166 C 0.56805 0.56296 0.06742
 C167 C 0.43988 0.42408 0.06622
 C168 C 0.44205 0.56051 -0.07177
 C169 C 0.22246 -0.16214 -0.19873
 C170 C 0.19470 -0.17313 -0.17967
 C171 C 0.18782 -0.20732 -0.18014
 C172 C 0.20851 -0.22929 -0.19819
 C173 C 0.23613 -0.21801 -0.21658
 C174 C 0.24268 -0.18422 -0.21680
 C175 C 0.16033 -0.21955 -0.16259
 C176 C 0.13924 -0.19863 -0.14452
 C177 C 0.14504 -0.16437 -0.14289
 C178 C 0.17358 -0.15146 -0.16032
 C179 C 0.18035 -0.11739 -0.15741
 C180 C 0.16000 -0.09659 -0.13838
 C181 C 0.13185 -0.10866 -0.12173
 C182 C 0.12358 -0.14262 -0.12400
 C183 C 0.09408 -0.15323 -0.10723
 C184 C 0.07438 -0.13118 -0.08851
 C185 C 0.08330 -0.09787 -0.08576
 C186 C 0.11197 -0.08679 -0.10267
 H187 H 0.22920 -0.13663 -0.20058
 H188 H 0.20294 -0.25540 -0.19802
 H189 H 0.26359 -0.17438 -0.23079
 H190 H 0.15498 -0.24570 -0.16287
 H191 H 0.11881 -0.21030 -0.13159
 H192 H 0.20167 -0.10588 -0.16910
 H193 H 0.16642 -0.07066 -0.13669
 H194 H 0.08532 -0.17835 -0.10810
 H195 H 0.05236 -0.14036 -0.07562
 H196 H 0.11866 -0.06091 -0.10121
 C197 C 0.21328 0.34677 0.30173
 C198 C 0.19110 0.33519 0.32652
 C199 C 0.18721 0.30074 0.32896
 C200 C 0.20546 0.27915 0.30791
 C201 C 0.22654 0.29119 0.28313
 C202 C 0.23060 0.32503 0.28044
 C203 C 0.16478 0.28797 0.35203
 C204 C 0.14513 0.30857 0.37211
 C205 C 0.14772 0.34304 0.37046
 C206 C 0.17221 0.35654 0.34840
 C207 C 0.17721 0.39090 0.34916
 C208 C 0.15816 0.41148 0.36979
 C209 C 0.13287 0.39886 0.38996
 C210 C 0.12693 0.36451 0.39040
 C211 C 0.09988 0.35323 0.41027
 C212 C 0.08009 0.37515 0.42907
 C213 C 0.08669 0.40893 0.42901
 C214 C 0.11322 0.42058 0.40948
 H215 H 0.21718 0.37245 0.29745
 H216 H 0.20256 0.25285 0.31018
 H217 H 0.24710 0.33496 0.26173
 H218 H 0.16192 0.26166 0.35421
 H219 H 0.12853 0.29664 0.38926
 H220 H 0.19625 0.40276 0.33454
 H221 H 0.16299 0.43769 0.36957
 H222 H 0.09280 0.32771 0.41127
 H223 H 0.05963 0.36561 0.44395
 H224 H 0.11802 0.44678 0.40882
 C225 C 0.70762 -0.16195 0.28802
 C226 C 0.68363 -0.17356 0.31113
 C227 C 0.68124 -0.20797 0.31497
 C228 C 0.70260 -0.22941 0.29692
 C229 C 0.72602 -0.21732 0.27427
 C230 C 0.72842 -0.18354 0.27006
 C231 C 0.65763 -0.22084 0.33682
 C232 C 0.63600 -0.20042 0.35493
 C233 C 0.63739 -0.16598 0.35227
 C234 C 0.66204 -0.15230 0.33045
 C235 C 0.66461 -0.11781 0.32902
 C236 C 0.64383 -0.09735 0.34795
 C237 C 0.61933 -0.11023 0.36882
 C238 C 0.61533 -0.14468 0.37106
 C239 C 0.58928 -0.15624 0.39201
 C240 C 0.56886 -0.13448 0.41033
 C241 C 0.57363 -0.10053 0.40856
 C242 C 0.59882 -0.08863 0.38755
 H243 H 0.71092 -0.13639 0.28292
 H244 H 0.70097 -0.25563 0.30044
 H245 H 0.74653 -0.17349 0.25292
 H246 H 0.65573 -0.24710 0.33989
 H247 H 0.61875 -0.21252 0.37131
 H248 H 0.68291 -0.10560 0.31384
 H249 H 0.64700 -0.07102 0.34618
 H250 H 0.58381 -0.18192 0.39475
 H251 H 0.54958 -0.14430 0.42645
 H252 H 0.60224 -0.06236 0.38551
 C253 C 0.72898 0.29716 -0.17121
 C254 C 0.69747 0.31166 -0.18040
 C255 C 0.68490 0.30582 -0.21399
 C256 C 0.70327 0.28639 -0.23703
 C257 C 0.73400 0.27205 -0.22716
 C258 C 0.74681 0.27771 -0.19429
 C259 C 0.65397 0.31920 -0.22443
 C260 C 0.63477 0.33801 -0.20225
 C261 C 0.64586 0.34446 -0.16847
 C262 C 0.67799 0.33146 -0.15749
 C263 C 0.68957 0.33875 -0.12402
 C264 C 0.67046 0.35771 -0.10190
 C265 C 0.63893 0.37009 -0.11197
 C266 C 0.62598 0.36358 -0.14530
 C267 C 0.59352 0.37642 -0.15387
 C268 C 0.57515 0.39502 -0.13048
 C269 C 0.58828 0.40158 -0.09775
 C270 C 0.62024 0.38896 -0.08870
 H271 H 0.74054 0.30003 -0.14637
 H272 H 0.69345 0.28210 -0.26263
 H273 H 0.77079 0.26712 -0.18626
 H274 H 0.64433 0.31491 -0.25010
 H275 H 0.61128 0.34734 -0.21262
 H276 H 0.71359 0.33033 -0.11397
 H277 H 0.68051 0.36267 -0.07648
 H278 H 0.58139 0.37255 -0.17835
 H279 H 0.55066 0.40476 -0.13827
 H280 H 0.63043 0.39350 -0.06327
 C281 C -0.15536 0.20277 -0.21734
 C282 C -0.16797 0.17988 -0.19454
 C283 C -0.20382 0.17812 -0.19048
 C284 C -0.22589 0.19724 -0.20997
 C285 C -0.21291 0.21907 -0.23300
 C286 C -0.17753 0.22216 -0.23594
 C287 C -0.21748 0.15758 -0.16675
 C288 C -0.19630 0.13921 -0.14628
 C289 C -0.16044 0.13996 -0.14942
 C290 C -0.14621 0.15944 -0.17504
 C291 C -0.11083 0.15733 -0.18079
 C292 C -0.08981 0.13776 -0.16144
 C293 C -0.10294 0.12016 -0.13509
 C294 C -0.13833 0.12139 -0.12825
 C295 C -0.14996 0.10438 -0.10008
 C296 C -0.12748 0.08638 -0.08027
 C297 C -0.09285 0.08446 -0.08795
 C298 C -0.08074 0.10139 -0.11541
 H299 H -0.12846 0.20712 -0.22054
 H300 H -0.25319 0.19561 -0.20658
 H301 H -0.16657 0.24003 -0.25211
 H302 H -0.24488 0.15600 -0.16363
 H303 H -0.20897 0.12387 -0.12876
 H304 H -0.09866 0.16984 -0.20084
 H305 H -0.06284 0.13671 -0.16696
 H306 H -0.17609 0.10505 -0.09219
 H307 H -0.13731 0.07355 -0.05902
 H308 H -0.05378 0.10043 -0.12104
 C309 C -0.18537 0.72910 0.33343
 C310 C -0.18157 0.69463 0.32969
 C311 C -0.19938 0.67834 0.30228
 C312 C -0.21935 0.69603 0.27948
 C313 C -0.22159 0.73011 0.28297
 C314 C -0.20509 0.74640 0.31037
 C315 C -0.19687 0.64449 0.29737
 C316 C -0.17639 0.62626 0.31856
 C317 C -0.15742 0.64121 0.34579
 C318 C -0.16049 0.67590 0.35181
 C319 C -0.14216 0.69070 0.37953
 C320 C -0.12123 0.67251 0.40038
 C321 C -0.11747 0.63889 0.39451
 C322 C -0.13542 0.62264 0.36717
 C323 C -0.13025 0.58848 0.36227
 C324 C -0.10845 0.57145 0.38367
 C325 C -0.09096 0.58765 0.41069
 C326 C -0.09564 0.62144 0.41592
 H327 H -0.17314 0.74362 0.35353
 H328 H -0.23255 0.68314 0.25863
 H329 H -0.20693 0.77280 0.31363
 H330 H -0.21066 0.63191 0.27662
 H331 H -0.17605 0.60031 0.31275
 H332 H -0.14336 0.71650 0.38596
 H333 H -0.10764 0.68503 0.42130
 H334 H -0.14250 0.57404 0.34214
 H335 H -0.10566 0.54526 0.37929
 H336 H -0.08186 0.63433 0.43648
 C337 C 0.31980 0.23162 0.32557
 C338 C 0.31742 0.19687 0.32377
 C339 C 0.29398 0.18237 0.29967
 C340 C 0.27364 0.20193 0.27895
 C341 C 0.27652 0.23611 0.28109
 C342 C 0.29956 0.25078 0.30457
 C343 C 0.29076 0.14837 0.29633
 C344 C 0.31054 0.12813 0.31611
 C345 C 0.33433 0.14112 0.34050
 C346 C 0.33737 0.17607 0.34487
 C347 C 0.35996 0.18901 0.37039
 C348 C 0.37916 0.16869 0.39072
 C349 C 0.37709 0.13468 0.38629
 C350 C 0.35494 0.12031 0.36094
 C351 C 0.35463 0.08563 0.35700
 C352 C 0.37506 0.06633 0.37756
 C353 C 0.39645 0.08069 0.40284
 C354 C 0.39728 0.11494 0.40707
 H355 H 0.33713 0.24486 0.34270
 H356 H 0.25549 0.19029 0.26124
 H357 H 0.30188 0.27726 0.30677
 H358 H 0.27276 0.13719 0.27804
 H359 H 0.30611 0.10223 0.31187
 H360 H 0.36318 0.21492 0.37570
 H361 H 0.39601 0.17982 0.41008
 H362 H 0.33921 0.07250 0.33807
 H363 H 0.37384 0.03990 0.37387
 H364 H 0.41421 0.12631 0.42623
 C365 C 0.29494 0.70659 -0.15545
 C366 C 0.32288 0.68787 -0.16682
 C367 C 0.33337 0.69211 -0.20037
 C368 C 0.31505 0.71259 -0.22198
 C369 C 0.28630 0.72964 -0.21079
 C370 C 0.27719 0.72711 -0.17701
 C371 C 0.36202 0.67579 -0.21229
 C372 C 0.38065 0.65531 -0.19165
 C373 C 0.37088 0.64967 -0.15824
 C374 C 0.34091 0.66548 -0.14599
 C375 C 0.32940 0.65766 -0.11371
 C376 C 0.34678 0.63563 -0.09382
 C377 C 0.37669 0.62095 -0.10485
 C378 C 0.38957 0.62813 -0.13694
 C379 C 0.42078 0.61354 -0.14620
 C380 C 0.43768 0.59204 -0.12498
 C381 C 0.42419 0.58410 -0.09381
 C382 C 0.39369 0.59893 -0.08389
 H383 H 0.28643 0.70641 -0.12982
 H384 H 0.32359 0.71542 -0.24752
 H385 H 0.25628 0.74079 -0.16664
 H386 H 0.37020 0.67892 -0.23792
 H387 H 0.40215 0.64345 -0.20308
 H388 H 0.30629 0.66744 -0.10338
 H389 H 0.33670 0.63013 -0.06939
 H390 H 0.43326 0.61865 -0.16939
 H391 H 0.46176 0.58190 -0.13294
 H392 H 0.38281 0.59300 -0.05994
 C393 C -0.15821 -0.19985 0.21722
 C394 C -0.16982 -0.18364 0.18813
 C395 C -0.20444 -0.18852 0.17758
 C396 C -0.22668 -0.20717 0.19672
 C397 C -0.21488 -0.22204 0.22594
 C398 C -0.18044 -0.21884 0.23564
 C399 C -0.21677 -0.17471 0.14808
 C400 C -0.19542 -0.15636 0.12841
 C401 C -0.16089 -0.15029 0.13803
 C402 C -0.14827 -0.16308 0.16906
 C403 C -0.11492 -0.15409 0.18048
 C404 C -0.09438 -0.13374 0.16205
 C405 C -0.10575 -0.12227 0.13105
 C406 C -0.13883 -0.13099 0.11817
 C407 C -0.14830 -0.12024 0.08573
 C408 C -0.12641 -0.10055 0.06770
 C409 C -0.09439 -0.09062 0.08126
 C410 C -0.08418 -0.10192 0.11294
 H411 H -0.13196 -0.19892 0.22606
 H412 H -0.25329 -0.21014 0.18885
 H413 H -0.17044 -0.23083 0.25761
 H414 H -0.24323 -0.17828 0.13995
 H415 H -0.20716 -0.14628 0.10626
 H416 H -0.10425 -0.16152 0.20430
 H417 H -0.06916 -0.12708 0.17210
 H418 H -0.17213 -0.12719 0.07318
 H419 H -0.13459 -0.09338 0.04275
 H420 H -0.05955 -0.09450 0.12389
 C421 C -0.17600 0.27490 0.66971
 C422 C -0.17735 0.30960 0.67137
 C423 C -0.20095 0.32439 0.69367
 C424 C -0.22079 0.30510 0.71458
 C425 C -0.21815 0.27094 0.71330
 C426 C -0.19610 0.25605 0.69037
 C427 C -0.20446 0.35836 0.69524
 C428 C -0.18514 0.37820 0.67509
 C429 C -0.16079 0.36484 0.65294
 C430 C -0.15619 0.33004 0.65173
 C431 C -0.13000 0.31689 0.63164
 C432 C -0.10928 0.33686 0.61304
 C433 C -0.11412 0.37065 0.61309
 C434 C -0.14031 0.38517 0.63250
 C435 C -0.14493 0.41947 0.63041
 C436 C -0.12389 0.43837 0.61061
 C437 C -0.09748 0.42390 0.59241
 C438 C -0.09281 0.39000 0.59370
 H439 H -0.15995 0.26145 0.65258
 H440 H -0.23811 0.31684 0.73199
 H441 H -0.19393 0.22958 0.68884
 H442 H -0.22245 0.36980 0.71224
 H443 H -0.18930 0.40417 0.67824
 H444 H -0.12413 0.29115 0.63039
 H445 H -0.08925 0.32566 0.59831
 H446 H -0.16484 0.43247 0.64332
 H447 H -0.12803 0.46456 0.60985
 H448 H -0.07280 0.37858 0.57909
 C449 C 0.34227 -0.19253 0.72847
 C450 C 0.33216 -0.18436 0.69521
 C451 C 0.30011 -0.19658 0.68265
 C452 C 0.27940 -0.21594 0.70259
 C453 C 0.28993 -0.22386 0.73527
 C454 C 0.32136 -0.21180 0.74812
 C455 C 0.28854 -0.18919 0.65033
 C456 C 0.30783 -0.16957 0.63002
 C457 C 0.33980 -0.15642 0.64122
 C458 C 0.35236 -0.16420 0.67424
 C459 C 0.38459 -0.15147 0.68519
 C460 C 0.40369 -0.13149 0.66496
 C461 C 0.39163 -0.12331 0.63300
 C462 C 0.35958 -0.13565 0.62053
 C463 C 0.34865 -0.12643 0.58788
 C464 C 0.36859 -0.10586 0.56878
 C465 C 0.40012 -0.09366 0.58131
 C466 C 0.41153 -0.10265 0.61347
 H467 H 0.36593 -0.18413 0.74036
 H468 H 0.25469 -0.22437 0.69262
 H469 H 0.32972 -0.21681 0.77366
 H470 H 0.26409 -0.19856 0.64060
 H471 H 0.29673 -0.16521 0.60550
 H472 H 0.39599 -0.15648 0.70942
 H473 H 0.42824 -0.12224 0.67456
 H474 H 0.32480 -0.13453 0.57619
 H475 H 0.35937 -0.09977 0.54381
 H476 H 0.43574 -0.09307 0.62360
 C477 C 0.27409 0.31985 0.17472
 C478 C 0.31024 0.32200 0.17602
 C479 C 0.32770 0.30568 0.20227
 C480 C 0.30956 0.28712 0.22527
 C481 C 0.27390 0.28543 0.22344
 C482 C 0.25637 0.30193 0.19816
 C483 C 0.36316 0.30815 0.20564
 C484 C 0.38180 0.32718 0.18411
 C485 C 0.36570 0.34401 0.15761
 C486 C 0.32953 0.34019 0.15261
 C487 C 0.31395 0.35423 0.12409
 C488 C 0.33280 0.37216 0.10177
 C489 C 0.36773 0.37760 0.10730
 C490 C 0.38465 0.36405 0.13554
 C491 C 0.41978 0.37165 0.14080
 C492 C 0.43731 0.39111 0.11851
 C493 C 0.42073 0.40358 0.08999
 C494 C 0.38579 0.39666 0.08467
 H495 H 0.25863 0.33239 0.15648
 H496 H 0.32329 0.27444 0.24485
 H497 H 0.22870 0.30110 0.19661
 H498 H 0.37669 0.29555 0.22549
 H499 H 0.40907 0.32755 0.18842
 H500 H 0.28718 0.35111 0.11776
 H501 H 0.31973 0.38224 0.08009
 H502 H 0.43432 0.36371 0.16239
 H503 H 0.46396 0.39685 0.12407
 H504 H 0.37254 0.40591 0.06269
 C505 C 0.16009 0.21755 0.21478
 C506 C 0.17191 0.19481 0.18999
 C507 C 0.20748 0.19451 0.18397
 C508 C 0.23008 0.21493 0.20326
 C509 C 0.21796 0.23617 0.22853
 C510 C 0.18283 0.23792 0.23357
 C511 C 0.22039 0.17376 0.15884
 C512 C 0.19880 0.15335 0.13916
 C513 C 0.16323 0.15237 0.14428
 C514 C 0.14971 0.17272 0.17080
 C515 C 0.11462 0.16980 0.17775
 C516 C 0.09327 0.14831 0.15907
 C517 C 0.10574 0.12927 0.13234
 C518 C 0.14077 0.13129 0.12417
 C519 C 0.15171 0.11231 0.09592
 C520 C 0.12894 0.09195 0.07718
 C521 C 0.09461 0.08959 0.08590
 C522 C 0.08319 0.10829 0.11358
 H523 H 0.13342 0.22065 0.21993
 H524 H 0.25729 0.21416 0.19878
 H525 H 0.17263 0.25505 0.25199
 H526 H 0.24757 0.17337 0.15420
 H527 H 0.21106 0.13797 0.12056
 H528 H 0.10287 0.18327 0.19813
 H529 H 0.06656 0.14676 0.16553
 H530 H 0.17753 0.11297 0.08720
 H531 H 0.13834 0.07771 0.05584
 H532 H 0.05647 0.10699 0.12009
 C533 C 0.23380 0.68147 0.69241
 C534 C 0.19819 0.68560 0.68749
 C535 C 0.18242 0.71102 0.70655
 C536 C 0.20191 0.73198 0.72844
 C537 C 0.23708 0.72723 0.73342
 C538 C 0.25274 0.70197 0.71491
 C539 C 0.14723 0.71551 0.70368
 C540 C 0.12700 0.69473 0.68301
 C541 C 0.14138 0.66900 0.66350
 C542 C 0.17772 0.66533 0.66460
 C543 C 0.19239 0.64201 0.64230
 C544 C 0.17228 0.62235 0.62033
 C545 C 0.13676 0.62436 0.62035
 C546 C 0.12068 0.64723 0.64238
 C547 C 0.08449 0.64686 0.64280
 C548 C 0.06534 0.62518 0.62172
 C549 C 0.08147 0.60351 0.59930
 C550 C 0.11718 0.60328 0.59862
 H551 H 0.24778 0.66228 0.67973
 H552 H 0.18931 0.75222 0.74107
 H553 H 0.27990 0.69798 0.71733
 H554 H 0.13505 0.73510 0.71796
 H555 H 0.10011 0.70009 0.68213
 H556 H 0.21958 0.63889 0.64053
 H557 H 0.18472 0.60501 0.60345
 H558 H 0.07018 0.66236 0.65973
 H559 H 0.03771 0.62546 0.62278
 H560 H 0.12972 0.58602 0.58172
 C561 C 0.67456 0.18395 0.71836
 C562 C 0.67566 0.17879 0.68287
 C563 C 0.70267 0.19403 0.66583
 C564 C 0.72669 0.21417 0.68362
 C565 C 0.72528 0.21874 0.71865
 C566 C 0.69902 0.20359 0.73580
 C567 C 0.70570 0.18913 0.63109
 C568 C 0.68299 0.16876 0.61274
 C569 C 0.65572 0.15281 0.62839
 C570 C 0.65121 0.15891 0.66379
 C571 C 0.62216 0.14535 0.67876
 C572 C 0.59873 0.12596 0.66007
 C573 C 0.60363 0.11854 0.62595
 C574 C 0.63243 0.13142 0.60968
 C575 C 0.63697 0.12184 0.57543
 C576 C 0.61352 0.10109 0.55809
 C577 C 0.58456 0.08918 0.57400
 C578 C 0.57986 0.09812 0.60806
 H579 H 0.65547 0.17283 0.73354
 H580 H 0.74653 0.22607 0.66991
 H581 H 0.69702 0.20726 0.76284
 H582 H 0.72613 0.20096 0.61791
 H583 H 0.68710 0.16664 0.58601
 H584 H 0.61630 0.14985 0.70490
 H585 H 0.57668 0.11632 0.67263
 H586 H 0.65884 0.12921 0.56145
 H587 H 0.61855 0.09385 0.53217
 H588 H 0.55751 0.08932 0.62074
 C589 C 0.73115 0.68607 0.17413
 C590 C 0.69506 0.68299 0.17406
 C591 C 0.67725 0.70212 0.19835
 C592 C 0.69497 0.72386 0.22094
 C593 C 0.73058 0.72624 0.22069
 C594 C 0.74846 0.70735 0.19714
 C595 C 0.64186 0.69933 0.20020
 C596 C 0.62359 0.67729 0.17912
 C597 C 0.64002 0.65743 0.15469
 C598 C 0.67615 0.66128 0.15120
 C599 C 0.69205 0.64362 0.12476
 C600 C 0.67361 0.62221 0.10309
 C601 C 0.63875 0.61693 0.10723
 C602 C 0.62146 0.63411 0.13332
 C603 C 0.58637 0.62672 0.13727
 C604 C 0.56934 0.60372 0.11592
 C605 C 0.58644 0.58741 0.08981
 C606 C 0.62115 0.59426 0.08550
 H607 H 0.74690 0.67191 0.15730
 H608 H 0.68089 0.73857 0.23893
 H609 H 0.77609 0.70890 0.19666
 H610 H 0.62809 0.71410 0.21851
 H611 H 0.59635 0.67691 0.18220
 H612 H 0.71880 0.64625 0.11963
 H613 H 0.68693 0.60931 0.08308
 H614 H 0.57143 0.63772 0.15701
 H615 H 0.54248 0.59882 0.11971
 H616 H 0.63467 0.58130 0.06565
   
