data_POSCAR
  _audit_creation_date              2014-09-24
  _audit_creation_method            'ToBaCCo'
  _symmetry_space_group_name_H-M    'P1'
  _symmetry_Int_Tables_number       1
  _symmetry_cell_setting            triclinic
  loop_
  _symmetry_equiv_pos_as_xyz
 x,y,z
_cell_length_a 39.3198
_cell_length_b 45.4474
_cell_length_c 37.2608
_cell_angle_alpha 87.814500
_cell_angle_beta 89.109400
_cell_angle_gamma 89.151400
loop_
  _atom_site_label
  _atom_site_type_symbol
  _atom_site_fract_x
  _atom_site_fract_y
  _atom_site_fract_z
C1 C 1.25933 0.21135 0.28060
 C2 C 1.24039 0.22703 0.25447
 C3 C 1.22083 0.21190 0.23019
 C4 C 1.22052 0.18102 0.23169
 C5 C 1.23909 0.16555 0.25824
 C6 C 1.25857 0.18035 0.28299
 C7 C 1.24118 0.25938 0.25248
 C8 C 1.26951 0.27389 0.23731
 C9 C 1.26995 0.30482 0.23373
 C10 C 1.24172 0.32090 0.24698
 C11 C 1.21398 0.30651 0.26342
 C12 C 1.21359 0.27569 0.26573
 H13 H 1.27352 0.22371 0.29940
 H14 H 1.20688 0.22418 0.20957
 H15 H 1.29078 0.26090 0.22742
 H16 H 1.19190 0.26438 0.27772
 H17 H 1.23860 0.14166 0.25928
 H18 H 1.24139 0.34468 0.24640
 C19 C 0.75308 -0.28656 0.27259
 C20 C 0.73293 -0.27216 0.24664
 C21 C 0.71754 -0.28819 0.22022
 C22 C 0.72278 -0.31873 0.21917
 C23 C 0.74402 -0.33296 0.24450
 C24 C 0.75926 -0.31703 0.27166
 C25 C 0.73011 -0.23998 0.24535
 C26 C 0.75654 -0.22334 0.22979
 C27 C 0.75346 -0.19266 0.22623
 C28 C 0.72396 -0.17864 0.23931
 C29 C 0.69806 -0.19512 0.25629
 C30 C 0.70100 -0.22592 0.25884
 H31 H 0.76489 -0.27369 0.29281
 H32 H 0.70250 -0.27664 0.19989
 H33 H 0.77916 -0.23439 0.21967
 H34 H 0.68076 -0.23891 0.27117
 H35 H 0.74729 -0.35658 0.24344
 H36 H 0.72171 -0.15484 0.23783
 C37 C 0.76804 0.21206 -0.24950
 C38 C 0.74672 0.22909 -0.27208
 C39 C 0.72765 0.21561 -0.29811
 C40 C 0.73010 0.18501 -0.30181
 C41 C 0.75116 0.16810 -0.27879
 C42 C 0.77009 0.18144 -0.25253
 C43 C 0.74562 0.26118 -0.26908
 C44 C 0.77325 0.27779 -0.28183
 C45 C 0.77398 0.30836 -0.27714
 C46 C 0.74708 0.32160 -0.25807
 C47 C 0.71916 0.30503 -0.24531
 C48 C 0.71824 0.27488 -0.25165
 H49 H 0.78228 0.22269 -0.22909
 H50 H 0.71194 0.22907 -0.31607
 H51 H 0.79429 0.26631 -0.29438
 H52 H 0.69700 0.26185 -0.24165
 H53 H 0.75279 0.14442 -0.28129
 H54 H 0.74731 0.34511 -0.25414
 C55 C 1.26572 -0.28064 -0.22482
 C56 C 1.24745 -0.26212 -0.24866
 C57 C 1.22671 -0.27410 -0.27436
 C58 C 1.22337 -0.30463 -0.27564
 C59 C 1.24098 -0.32312 -0.25094
 C60 C 1.26274 -0.31142 -0.22575
 C61 C 1.25001 -0.23011 -0.24616
 C62 C 1.28099 -0.21643 -0.25401
 C63 C 1.28425 -0.18599 -0.25030
 C64 C 1.25679 -0.16979 -0.23627
 C65 C 1.22572 -0.18356 -0.22782
 C66 C 1.22221 -0.21357 -0.23388
 H67 H 1.28101 -0.27058 -0.20489
 H68 H 1.21308 -0.25965 -0.29317
 H69 H 1.30240 -0.22968 -0.26291
 H70 H 1.19839 -0.22439 -0.22732
 H71 H 1.23890 -0.34681 -0.25238
 H72 H 1.25931 -0.14635 -0.23291
 C73 C 0.22140 0.27177 0.74115
 C74 C 0.24015 0.24786 0.75601
 C75 C 0.22303 0.22438 0.77361
 C76 C 0.18720 0.22470 0.77666
 C77 C 0.16901 0.24860 0.76095
 C78 C 0.18566 0.27207 0.74314
 C79 C 0.27779 0.24759 0.75360
 C80 C 0.29621 0.27038 0.76823
 C81 C 0.33215 0.27006 0.76708
 C82 C 0.34902 0.24697 0.74966
 C83 C 0.33096 0.22425 0.73446
 C84 C 0.29524 0.22445 0.73710
 H85 H 0.23482 0.29001 0.72823
 H86 H 0.23802 0.20616 0.78460
 H87 H 0.28196 0.28797 0.78041
 H88 H 0.28079 0.20672 0.72655
 H89 H 0.14143 0.24911 0.76270
 H90 H 0.37660 0.24646 0.74812
 C91 C 0.72636 0.77489 0.73656
 C92 C 0.74715 0.75389 0.75433
 C93 C 0.73243 0.73186 0.77645
 C94 C 0.69698 0.73047 0.78160
 C95 C 0.67626 0.75178 0.76336
 C96 C 0.69054 0.77391 0.74028
 C97 C 0.78461 0.75509 0.75036
 C98 C 0.80242 0.77850 0.76432
 C99 C 0.83823 0.77884 0.76284
 C100 C 0.85582 0.75608 0.74562
 C101 C 0.83832 0.73283 0.73076
 C102 C 0.80261 0.73223 0.73388
 H103 H 0.73876 0.79187 0.72033
 H104 H 0.74899 0.71588 0.79008
 H105 H 0.78815 0.79612 0.77655
 H106 H 0.78862 0.71396 0.72397
 H107 H 0.64893 0.75147 0.76676
 H108 H 0.88337 0.75635 0.74401
 C109 C 0.71877 0.28002 0.24321
 C110 C 0.74050 0.25918 0.25989
 C111 C 0.72682 0.23670 0.28223
 C112 C 0.69157 0.23490 0.28833
 C113 C 0.66993 0.25599 0.27130
 C114 C 0.68327 0.27826 0.24812
 C115 C 0.77762 0.26065 0.25361
 C116 C 0.79616 0.28413 0.26642
 C117 C 0.83171 0.28508 0.26147
 C118 C 0.84815 0.26287 0.24231
 C119 C 0.82982 0.23963 0.22870
 C120 C 0.79452 0.23839 0.23497
 H121 H 0.72981 0.29754 0.22657
 H122 H 0.74380 0.22065 0.29507
 H123 H 0.78271 0.30140 0.28026
 H124 H 0.78008 0.22013 0.22570
 H125 H 0.64273 0.25536 0.27602
 H126 H 0.87549 0.26358 0.23813
 C127 C 0.22719 0.77420 0.22814
 C128 C 0.24341 0.75119 0.24750
 C129 C 0.22399 0.72948 0.26549
 C130 C 0.18811 0.73064 0.26455
 C131 C 0.17228 0.75367 0.24427
 C132 C 0.19153 0.77576 0.22600
 C133 C 0.28094 0.74949 0.24810
 C134 C 0.29944 0.77110 0.26491
 C135 C 0.33521 0.76956 0.26554
 C136 C 0.35218 0.74674 0.24785
 C137 C 0.33400 0.72527 0.23031
 C138 C 0.29823 0.72649 0.23123
 H139 H 0.24265 0.79073 0.21422
 H140 H 0.23744 0.71176 0.27955
 H141 H 0.28579 0.78905 0.27722
 H142 H 0.28359 0.70973 0.21887
 H143 H 0.14487 0.75393 0.24289
 H144 H 0.37975 0.74569 0.24771
 N145 N 1.04845 0.03037 0.05033
 N146 N 1.07091 0.05040 0.05801
 N147 N 1.01597 -0.02935 0.07437
 N148 N 1.01617 -0.05039 0.09982
 N149 N 1.04323 -0.03128 0.05375
 N150 N 1.06280 -0.05361 0.06467
 N151 N 1.02137 0.03248 0.07116
 N152 N 1.02449 0.05419 0.09339
 C153 C 1.05550 0.06515 0.08482
 C154 C 1.04547 -0.06540 0.09330
 N155 N 0.92442 -0.02163 0.03413
 N156 N 0.89807 -0.03907 0.03816
 N157 N 0.94956 0.03809 0.05956
 N158 N 0.94187 0.05936 0.08150
 N159 N 0.93021 0.03984 0.03114
 N160 N 0.90861 0.06230 0.03312
 N161 N 0.94372 -0.02354 0.06259
 N162 N 0.93095 -0.04244 0.08683
 Mn163 Mn 0.98262 0.00436 0.06731
 C164 C 0.90270 -0.05215 0.07087
 C165 C 0.91647 0.07440 0.06454
 N166 N 1.05514 -0.03247 -0.02268
 N167 N 1.07950 -0.05247 -0.02602
 N168 N 1.04113 0.03030 -0.05471
 N169 N 1.05279 0.04981 -0.07882
 N170 N 1.06053 0.02901 -0.02628
 N171 N 1.08603 0.04749 -0.03041
 N172 N 1.03584 -0.03129 -0.05122
 N173 N 1.04676 -0.05045 -0.07472
 Mn174 Mn 1.05215 -0.00109 0.01386
 C175 C 1.07361 -0.06382 -0.05825
 C176 C 1.08065 0.06047 -0.06314
 N177 N 0.94216 0.03835 -0.04536
 N178 N 0.92172 0.05966 -0.05725
 N179 N 0.96319 -0.02578 -0.06300
 N180 N 0.95876 -0.04693 -0.08588
 N181 N 0.93631 -0.02312 -0.04193
 N182 N 0.91301 -0.04233 -0.04972
 N183 N 0.96905 0.03605 -0.06647
 N184 N 0.96772 0.05599 -0.09319
 Mn185 Mn 0.93302 0.00844 -0.00558
 Mn186 Mn 1.00235 0.00227 -0.05924
 Cl187 Cl 0.99255 0.00346 0.00406
 C188 C 0.93817 0.07068 -0.08681
 C189 C 0.92733 -0.05710 -0.07702
 N190 N 1.06217 0.53099 0.54260
 N191 N 1.08402 0.55133 0.55121
 N192 N 1.03926 0.46769 0.56575
 N193 N 1.04582 0.44650 0.59018
 N194 N 1.06390 0.46919 0.54158
 N195 N 1.08757 0.44909 0.54857
 N196 N 1.03716 0.52942 0.56636
 N197 N 1.04110 0.54854 0.59152
 C198 C 1.07011 0.56223 0.58159
 C199 C 1.07595 0.43497 0.57868
 N200 N 0.94362 0.46907 0.53608
 N201 N 0.92208 0.44715 0.53971
 N202 N 0.96441 0.52978 0.56315
 N203 N 0.95721 0.55026 0.58648
 N204 N 0.94258 0.53105 0.53681
 N205 N 0.91984 0.55226 0.54157
 N206 N 0.96562 0.46793 0.56224
 N207 N 0.95935 0.44550 0.58478
 Mn208 Mn 1.00158 0.49859 0.56476
 C209 C 0.93222 0.43271 0.57016
 C210 C 0.92938 0.56415 0.57253
 N211 N 1.06797 0.47166 0.46468
 N212 N 1.08981 0.44959 0.46101
 N213 N 1.04493 0.53427 0.43852
 N214 N 1.05281 0.55528 0.41441
 N215 N 1.06669 0.53359 0.46494
 N216 N 1.08997 0.55393 0.45950
 N217 N 1.04579 0.47235 0.43867
 N218 N 1.05211 0.45101 0.41637
 Mn219 Mn 1.06552 0.50145 0.50344
 C220 C 1.07960 0.43699 0.43074
 C221 C 1.08082 0.56748 0.42814
 N222 N 0.94689 0.53377 0.45915
 N223 N 0.92234 0.55230 0.44909
 N224 N 0.97222 0.47232 0.43510
 N225 N 0.96673 0.45246 0.41080
 N226 N 0.94761 0.47203 0.45934
 N227 N 0.92501 0.45200 0.45252
 N228 N 0.97175 0.53411 0.43514
 N229 N 0.96477 0.55280 0.40827
 Mn230 Mn 0.94488 0.50157 0.49788
 Mn231 Mn 1.00874 0.50323 0.43647
 Cl232 Cl 1.00518 0.50124 0.50061
 C233 C 0.93426 0.56436 0.41766
 C234 C 0.93725 0.43984 0.42241
 N235 N 0.55670 0.03043 0.53339
 N236 N 0.57611 0.05368 0.53581
 N237 N 0.54026 -0.03258 0.56364
 N238 N 0.54910 -0.05302 0.58815
 N239 N 0.56284 -0.03133 0.53727
 N240 N 0.58761 -0.05076 0.54318
 N241 N 0.53393 0.02939 0.55957
 N242 N 0.53704 0.05202 0.58036
 C243 C 0.56339 0.06694 0.56516
 C244 C 0.57863 -0.06428 0.57483
 N245 N 0.44304 -0.03864 0.54403
 N246 N 0.42398 -0.06177 0.55141
 N247 N 0.46095 0.02500 0.56432
 N248 N 0.45385 0.04602 0.58695
 N249 N 0.43662 0.02315 0.54080
 N250 N 0.41235 0.04281 0.54676
 N251 N 0.46703 -0.03670 0.56794
 N252 N 0.46466 -0.05825 0.59257
 Mn253 Mn 0.50059 -0.00372 0.56430
 C254 C 0.43780 -0.07372 0.58167
 C255 C 0.42351 0.05701 0.57546
 N256 N 0.55959 -0.03240 0.46000
 N257 N 0.58196 -0.05399 0.45579
 N258 N 0.52932 0.02784 0.43288
 N259 N 0.53098 0.04940 0.40825
 N260 N 0.55404 0.02966 0.45593
 N261 N 0.57337 0.05258 0.44741
 N262 N 0.53512 -0.03383 0.43656
 N263 N 0.54023 -0.05625 0.41563
 Mn264 Mn 0.55873 -0.00088 0.49662
 C265 C 0.56952 -0.06858 0.42797
 C266 C 0.55847 0.06468 0.41760
 N267 N 0.43386 0.02243 0.46367
 N268 N 0.41112 0.04390 0.45956
 N269 N 0.46215 -0.03821 0.44065
 N270 N 0.45626 -0.05884 0.41753
 N271 N 0.43967 -0.03932 0.46705
 N272 N 0.41791 -0.06068 0.46266
 N273 N 0.45671 0.02374 0.43761
 N274 N 0.45042 0.04629 0.41527
 Mn275 Mn 0.43795 -0.00813 0.50394
 Mn276 Mn 0.49584 -0.00515 0.43656
 Cl277 Cl 0.49830 -0.00449 0.50038
 C278 C 0.42186 0.05853 0.42923
 C279 C 0.42876 -0.07285 0.43190
 N280 N 0.55521 0.53075 0.03290
 N281 N 0.57596 0.55257 0.03869
 N282 N 0.53606 0.46738 0.06062
 N283 N 0.54315 0.44647 0.08515
 N284 N 0.56037 0.46903 0.03602
 N285 N 0.58444 0.44920 0.04300
 N286 N 0.53110 0.52932 0.05768
 N287 N 0.53443 0.55045 0.08063
 C288 C 0.56241 0.56478 0.06836
 C289 C 0.57334 0.43523 0.07357
 N290 N 0.43945 0.46408 0.03449
 N291 N 0.41522 0.44527 0.04283
 N292 N 0.45837 0.52629 0.05713
 N293 N 0.45096 0.54730 0.07961
 N294 N 0.43578 0.52588 0.03159
 N295 N 0.41222 0.54649 0.03613
 N296 N 0.46207 0.46434 0.06007
 N297 N 0.45342 0.44568 0.08675
 Mn298 Mn 0.49695 0.49669 0.05929
 C299 C 0.42445 0.43358 0.07505
 C300 C 0.42218 0.55977 0.06607
 N301 N 0.56247 0.46877 -0.04102
 N302 N 0.58786 0.45011 -0.04615
 N303 N 0.53440 0.52857 -0.07022
 N304 N 0.53705 0.55040 -0.09436
 N305 N 0.55731 0.53069 -0.04521
 N306 N 0.57660 0.55399 -0.05210
 N307 N 0.53955 0.46670 -0.06604
 N308 N 0.54896 0.44661 -0.08910
 Mn309 Mn 0.55920 0.49995 -0.00432
 C310 C 0.57897 0.43625 -0.07591
 C311 C 0.56344 0.56603 -0.08292
 N312 N 0.43793 0.52519 -0.04590
 N313 N 0.41529 0.54633 -0.05243
 N314 N 0.46574 0.46349 -0.06688
 N315 N 0.46012 0.44307 -0.09041
 N316 N 0.44151 0.46352 -0.04221
 N317 N 0.41899 0.44314 -0.04807
 N318 N 0.46195 0.52551 -0.07075
 N319 N 0.45666 0.54723 -0.09461
 Mn320 Mn 0.43843 0.49476 -0.00553
 Mn321 Mn 0.50045 0.49590 -0.06886
 Cl322 Cl 0.49879 0.49675 -0.00483
 C323 C 0.42745 0.55990 -0.08282
 C324 C 0.43102 0.43036 -0.07790
 C325 C 1.20288 0.16408 0.20478
 C326 C 1.17188 0.17276 0.18984
 C327 C 1.15464 0.15369 0.16502
 N328 N 1.12039 0.15549 0.16123
 N329 N 1.10453 0.13715 0.14019
 C330 C 1.12243 0.11658 0.12192
 N331 N 1.15671 0.11521 0.12516
 N332 N 1.17250 0.13332 0.14643
 C333 C 1.10544 0.09529 0.09978
 C334 C 1.07097 0.08922 0.10375
 H335 H 1.15891 0.19246 0.19863
 H336 H 1.12112 0.08227 0.08203
 H337 H 1.21350 0.14268 0.19862
 H338 H 1.05547 0.10095 0.12295
 C339 C 1.20262 0.68299 0.69620
 C340 C 1.18390 0.65760 0.70272
 C341 C 1.16566 0.64327 0.67441
 N342 N 1.14168 0.62320 0.68366
 N343 N 1.12564 0.60905 0.65851
 C344 C 1.13319 0.61421 0.62316
 N345 N 1.15745 0.63412 0.61384
 N346 N 1.17333 0.64852 0.63906
 C347 C 1.11603 0.59770 0.59574
 C348 C 1.08588 0.58340 0.60445
 H349 H 1.18204 0.64804 0.72976
 H350 H 1.12741 0.59619 0.56920
 H351 H 1.20129 0.69451 0.67025
 H352 H 1.07373 0.58673 0.63030
 C353 C 0.71204 0.17018 0.66984
 C354 C 0.67974 0.17887 0.65843
 C355 C 0.66140 0.16121 0.63310
 N356 N 0.62691 0.16093 0.63381
 N357 N 0.61018 0.14302 0.61303
 C358 C 0.62737 0.12504 0.59052
 N359 N 0.66180 0.12595 0.58911
 N360 N 0.67853 0.14362 0.61014
 C361 C 0.60965 0.10327 0.56992
 C362 C 0.57768 0.09317 0.58047
 H363 H 0.66642 0.19686 0.67103
 H364 H 0.62375 0.09234 0.54892
 H365 H 0.72327 0.15006 0.65995
 H366 H 0.56432 0.10280 0.60289
 C367 C 0.70710 0.66388 0.19133
 C368 C 0.67513 0.67087 0.17750
 C369 C 0.65895 0.65232 0.15148
 N370 N 0.62477 0.65386 0.14722
 N371 N 0.60958 0.63632 0.12476
 C372 C 0.62810 0.61685 0.10544
 N373 N 0.66235 0.61572 0.10917
 N374 N 0.67751 0.63306 0.13188
 C375 C 0.61153 0.59623 0.08215
 C376 C 0.57747 0.58905 0.08709
 H377 H 0.66048 0.68909 0.18793
 H378 H 0.62720 0.58424 0.06333
 H379 H 0.71989 0.64377 0.18355
 H380 H 0.56237 0.59938 0.10779
 C381 C 0.78168 -0.17575 0.20964
 C382 C 0.77610 -0.14999 0.18907
 C383 C 0.80408 -0.13365 0.17165
 N384 N 0.79727 -0.11361 0.14479
 N385 N 0.82231 -0.09865 0.12852
 C386 C 0.85508 -0.10302 0.13867
 N387 N 0.86190 -0.12282 0.16586
 N388 N 0.83684 -0.13799 0.18196
 C389 C 0.88263 -0.08625 0.12093
 C390 C 0.87751 -0.07169 0.08794
 H391 H 0.75036 -0.14240 0.18383
 H392 H 0.90708 -0.08539 0.13382
 H393 H 0.80723 -0.18489 0.21156
 H394 H 0.85372 -0.07415 0.07416
 C395 C 0.80060 0.32612 0.70943
 C396 C 0.82449 0.31743 0.68361
 C397 C 0.84981 0.33803 0.66870
 N398 N 0.86147 0.33531 0.63453
 N399 N 0.88302 0.35484 0.61992
 C400 C 0.89402 0.37752 0.63917
 N401 N 0.88301 0.37983 0.67363
 N402 N 0.86113 0.36051 0.68810
 C403 C 0.91598 0.40017 0.62264
 C404 C 0.91460 0.40714 0.58603
 H405 H 0.82244 0.29664 0.67072
 H406 H 0.93043 0.41378 0.63995
 H407 H 0.80130 0.34874 0.71765
 H408 H 0.89751 0.39545 0.56926
 C409 C 0.31562 -0.17060 0.73822
 C410 C 0.33567 -0.18017 0.70964
 C411 C 0.36223 -0.16187 0.69275
 N412 N 0.37231 -0.16688 0.65855
 N413 N 0.39405 -0.14893 0.64139
 C414 C 0.40679 -0.12550 0.65796
 N415 N 0.39750 -0.12096 0.69256
 N416 N 0.37546 -0.13877 0.70963
 C417 C 0.42762 -0.10383 0.63793
 C418 C 0.42360 -0.09934 0.60111
 H419 H 0.32894 -0.19982 0.69602
 H420 H 0.44248 -0.08862 0.65271
 H421 H 0.32061 -0.14941 0.74930
 H422 H 0.40613 -0.11279 0.58693
 C423 C 0.29848 0.31849 0.21728
 C424 C 0.29925 0.34822 0.20618
 C425 C 0.32849 0.36161 0.18719
 N426 N 0.32333 0.38626 0.16633
 N427 N 0.34904 0.39878 0.14827
 C428 C 0.38106 0.38738 0.15068
 N429 N 0.38649 0.36300 0.17217
 N430 N 0.36058 0.35021 0.18999
 C431 C 0.40884 0.40110 0.12941
 C432 C 0.40127 0.41481 0.09645
 H433 H 0.27671 0.36198 0.20780
 H434 H 0.43461 0.40037 0.13925
 H435 H 0.32052 0.30492 0.21096
 H436 H 0.37593 0.41262 0.08590
 C437 C 0.79022 0.16280 -0.22734
 C438 C 0.82102 0.17162 -0.21356
 C439 C 0.83894 0.15317 -0.18655
 N440 N 0.87294 0.15586 -0.18210
 N441 N 0.88919 0.13895 -0.15766
 C442 C 0.87186 0.11909 -0.13655
 N443 N 0.83783 0.11675 -0.14068
 N444 N 0.82169 0.13338 -0.16533
 C445 C 0.88897 0.09999 -0.10968
 C446 C 0.92360 0.09331 -0.11140
 H447 H 0.83263 0.19186 -0.22349
 H448 H 0.87309 0.08873 -0.08966
 H449 H 0.78102 0.14092 -0.22039
 H450 H 0.93941 0.10274 -0.13282
 C451 C 0.78033 0.66972 0.29790
 C452 C 0.79490 0.64166 0.29573
 C453 C 0.81749 0.62967 0.32373
 N454 N 0.84200 0.60976 0.31523
 N455 N 0.86299 0.59892 0.34024
 C456 C 0.86001 0.60736 0.37473
 N457 N 0.83513 0.62693 0.38340
 N458 N 0.81437 0.63808 0.35825
 C459 C 0.88257 0.59468 0.40238
 C460 C 0.91415 0.58300 0.39291
 H461 H 0.79278 0.62920 0.27175
 H462 H 0.87399 0.59385 0.43016
 H463 H 0.78749 0.68273 0.32033
 H464 H 0.92363 0.58600 0.36557
 C465 C 0.27608 0.16342 0.30926
 C466 C 0.30139 0.17386 0.33115
 C467 C 0.31885 0.15362 0.35660
 N468 N 0.35242 0.15684 0.36300
 N469 N 0.36899 0.13718 0.38391
 C470 C 0.35242 0.11388 0.39953
 N471 N 0.31866 0.11114 0.39393
 N472 N 0.30220 0.13057 0.37265
 C473 C 0.37079 0.09091 0.42038
 C474 C 0.40473 0.08438 0.41282
 H475 H 0.31137 0.19579 0.32706
 H476 H 0.35646 0.07666 0.43883
 H477 H 0.27085 0.14003 0.31155
 H478 H 0.41823 0.09695 0.39198
 C479 C 0.28040 0.66912 -0.20229
 C480 C 0.30813 0.67692 -0.18187
 C481 C 0.32549 0.65506 -0.15849
 N482 N 0.35913 0.65766 -0.15201
 N483 N 0.37541 0.63731 -0.13187
 C484 C 0.35847 0.61389 -0.11712
 N485 N 0.32468 0.61163 -0.12296
 N486 N 0.30850 0.63178 -0.14348
 C487 C 0.37625 0.59082 -0.09594
 C488 C 0.41066 0.58486 -0.10149
 H489 H 0.31964 0.69830 -0.18543
 H490 H 0.36139 0.57657 -0.07800
 H491 H 0.27339 0.64610 -0.20144
 H492 H 0.42494 0.59732 -0.12182
 C493 C 1.19687 -0.16726 -0.21201
 C494 C 1.20178 -0.14660 -0.18604
 C495 C 1.17328 -0.13297 -0.16664
 N496 N 1.17912 -0.11954 -0.13552
 N497 N 1.15360 -0.10727 -0.11729
 C498 C 1.12130 -0.10785 -0.12958
 N499 N 1.11545 -0.12105 -0.16091
 N500 N 1.14098 -0.13356 -0.17902
 C501 C 1.09337 -0.09320 -0.11026
 C502 C 1.09755 -0.08408 -0.07541
 H503 H 1.22733 -0.14197 -0.17760
 H504 H 1.06980 -0.08843 -0.12413
 H505 H 1.17129 -0.17412 -0.21769
 H506 H 1.12050 -0.09013 -0.06103
 C507 C 1.18591 0.32433 0.27831
 C508 C 1.17198 0.31806 0.31229
 C509 C 1.14914 0.33919 0.32980
 N510 N 1.14691 0.33930 0.36616
 N511 N 1.12804 0.35963 0.38236
 C512 C 1.11049 0.38038 0.36273
 N513 N 1.11214 0.37987 0.32638
 N514 N 1.13128 0.35975 0.31019
 C515 C 1.09076 0.40373 0.38006
 C516 C 1.09698 0.41162 0.41508
 H517 H 1.18110 0.29905 0.32793
 H518 H 1.07284 0.41657 0.36391
 H519 H 1.17957 0.34509 0.26458
 H520 H 1.11649 0.40016 0.43058
 C521 C 0.66880 -0.17959 0.27219
 C522 C 0.65701 -0.18699 0.30673
 C523 C 0.63386 -0.16721 0.32580
 N524 N 0.63499 -0.16621 0.36209
 N525 N 0.61626 -0.14650 0.37947
 C526 C 0.59552 -0.12731 0.36113
 N527 N 0.59375 -0.12881 0.32494
 N528 N 0.61275 -0.14829 0.30753
 C529 C 0.57634 -0.10429 0.37946
 C530 C 0.58632 -0.09421 0.41244
 H531 H 0.66860 -0.20530 0.32173
 H532 H 0.55587 -0.09310 0.36508
 H533 H 0.66010 -0.15924 0.25903
 H534 H 0.60818 -0.10398 0.42591
 C535 C 0.69092 0.31893 -0.22527
 C536 C 0.69684 0.34105 -0.20139
 C537 C 0.66956 0.35570 -0.18120
 N538 N 0.67777 0.37266 -0.15360
 N539 N 0.65370 0.38691 -0.13545
 C540 C 0.62047 0.38491 -0.14432
 N541 N 0.61220 0.36803 -0.17209
 N542 N 0.63632 0.35357 -0.19015
 C543 C 0.59415 0.40173 -0.12507
 C544 C 0.60182 0.41528 -0.09338
 H545 H 0.72273 0.34734 -0.19627
 H546 H 0.56902 0.40424 -0.13638
 H547 H 0.66552 0.31035 -0.22755
 H548 H 0.62653 0.41153 -0.08145
 C549 C 1.16848 0.20224 -0.20548
 C550 C 1.18209 0.17930 -0.18379
 C551 C 1.15978 0.15745 -0.16558
 N552 N 1.17148 0.14032 -0.13766
 N553 N 1.15118 0.12094 -0.12062
 C554 C 1.11849 0.11788 -0.13104
 N555 N 1.10694 0.13476 -0.15920
 N556 N 1.12715 0.15424 -0.17606
 C557 C 1.09565 0.09657 -0.11282
 C558 C 1.10358 0.08224 -0.08026
 H559 H 1.20890 0.17807 -0.17794
 H560 H 1.07149 0.09247 -0.12517
 H561 H 1.14100 0.20349 -0.20736
 H562 H 1.12699 0.08710 -0.06690
 C563 C 1.16732 0.70959 0.28264
 C564 C 1.17882 0.68797 0.30754
 C565 C 1.15572 0.66676 0.32579
 N566 N 1.16709 0.64989 0.35405
 N567 N 1.14676 0.63050 0.37091
 C568 C 1.11427 0.62710 0.36007
 N569 N 1.10292 0.64383 0.33163
 N570 N 1.12323 0.66337 0.31486
 C571 C 1.09184 0.60531 0.37830
 C572 C 1.10116 0.59084 0.41037
 H573 H 1.20504 0.68699 0.31571
 H574 H 1.06770 0.60056 0.36631
 H575 H 1.14017 0.71084 0.27800
 H576 H 1.12472 0.59645 0.42297
 C577 C 0.67867 0.21110 0.31317
 C578 C 0.64547 0.20058 0.31295
 C579 C 0.63399 0.17601 0.33702
 N580 N 0.60254 0.16481 0.33305
 N581 N 0.59184 0.14235 0.35411
 C582 C 0.61212 0.13023 0.38009
 N583 N 0.64352 0.14156 0.38425
 N584 N 0.65427 0.16399 0.36310
 C585 C 0.60068 0.10494 0.40307
 C586 C 0.57017 0.09090 0.39682
 H587 H 0.62752 0.20959 0.29363
 H588 H 0.61697 0.09670 0.42448
 H589 H 0.69671 0.20034 0.33122
 H590 H 0.55439 0.09877 0.37480
 C591 C 0.68417 0.70786 -0.19502
 C592 C 0.64975 0.70171 -0.18850
 C593 C 0.63875 0.67712 -0.16404
 N594 N 0.60572 0.66885 -0.16340
 N595 N 0.59539 0.64640 -0.14208
 C596 C 0.61762 0.63141 -0.12032
 N597 N 0.65060 0.63989 -0.12062
 N598 N 0.66098 0.66226 -0.14211
 C599 C 0.60648 0.60590 -0.09741
 C600 C 0.57507 0.59293 -0.10240
 H601 H 0.62997 0.71403 -0.20242
 H602 H 0.62387 0.59622 -0.07787
 H603 H 0.70254 0.69353 -0.18138
 H604 H 0.55870 0.60182 -0.12339
 C605 C 0.85808 -0.19754 -0.22108
 C606 C 0.84582 -0.18098 -0.19269
 C607 C 0.86624 -0.15864 -0.17547
 N608 N 0.85301 -0.14455 -0.14690
 N609 N 0.87091 -0.12439 -0.13070
 C610 C 0.90280 -0.11749 -0.14240
 N611 N 0.91608 -0.13156 -0.17105
 N612 N 0.89815 -0.15178 -0.18728
 C613 C 0.92263 -0.09499 -0.12459
 C614 C 0.90946 -0.08050 -0.09500
 H615 H 0.82074 -0.18512 -0.18146
 H616 H 0.94770 -0.08955 -0.13509
 H617 H 0.88407 -0.19440 -0.23039
 H618 H 0.88439 -0.08606 -0.08463
 C619 C 0.85257 0.30871 0.27588
 C620 C 0.84315 0.32398 0.30632
 C621 C 0.86547 0.34542 0.32251
 N622 N 0.85591 0.35737 0.35393
 N623 N 0.87579 0.37647 0.36944
 C624 C 0.90605 0.38442 0.35419
 N625 N 0.91562 0.37255 0.32263
 N626 N 0.89572 0.35335 0.30710
 C627 C 0.92791 0.40578 0.37141
 C628 C 0.91863 0.41696 0.40450
 H629 H 0.81939 0.31906 0.32015
 H630 H 0.95101 0.41307 0.35782
 H631 H 0.87746 0.31252 0.26384
 H632 H 0.89556 0.40935 0.41787
 C633 C 0.35560 -0.20826 0.28354
 C634 C 0.34343 -0.19267 0.31279
 C635 C 0.36417 -0.17110 0.33095
 N636 N 0.35211 -0.15890 0.36138
 N637 N 0.37029 -0.13919 0.37807
 C638 C 0.40124 -0.13084 0.36493
 N639 N 0.41330 -0.14299 0.33443
 N640 N 0.39514 -0.16279 0.31778
 C641 C 0.42125 -0.10853 0.38273
 C642 C 0.41067 -0.09676 0.41515
 H643 H 0.31826 -0.19699 0.32371
 H644 H 0.44452 -0.10090 0.36978
 H645 H 0.38177 -0.20536 0.27475
 H646 H 0.38776 -0.10477 0.42848
 C647 C 0.35201 0.29164 -0.21724
 C648 C 0.33937 0.31343 -0.19485
 C649 C 0.36165 0.33439 -0.17768
 N650 N 0.34881 0.35111 -0.15119
 N651 N 0.36844 0.36999 -0.13495
 C652 C 0.40168 0.37303 -0.14466
 N653 N 0.41452 0.35650 -0.17142
 N654 N 0.39489 0.33744 -0.18756
 C655 C 0.42334 0.39411 -0.12675
 C656 C 0.41210 0.40754 -0.09566
 H657 H 0.31275 0.31454 -0.18745
 H658 H 0.44824 0.39908 -0.13806
 H659 H 0.37935 0.29053 -0.22146
 H660 H 0.38773 0.40156 -0.08380
 C661 C 1.17683 -0.20096 0.20513
 C662 C 1.14191 -0.19485 0.20237
 C663 C 1.12866 -0.17067 0.17882
 N664 N 1.09522 -0.16292 0.18061
 N665 N 1.08282 -0.14116 0.15942
 C666 C 1.10339 -0.12646 0.13547
 N667 N 1.13677 -0.13433 0.13351
 N668 N 1.14919 -0.15599 0.15481
 C669 C 1.09026 -0.10228 0.11193
 C670 C 1.05750 -0.09058 0.11584
 H671 H 1.12339 -0.20716 0.21821
 H672 H 1.10731 -0.09278 0.09168
 H673 H 1.19394 -0.18630 0.19029
 H674 H 1.04065 -0.09926 0.13680
 C675 C 1.16463 0.29658 0.72765
 C676 C 1.17482 0.31427 0.69816
 C677 C 1.15186 0.33641 0.68113
 N678 N 1.16160 0.35059 0.65008
 N679 N 1.14096 0.37022 0.63386
 C680 C 1.10975 0.37650 0.64802
 N681 N 1.10003 0.36244 0.67922
 N682 N 1.12068 0.34271 0.69543
 C683 C 1.08691 0.39835 0.63010
 C684 C 1.09588 0.41150 0.59701
 H685 H 1.19954 0.31079 0.68575
 H686 H 1.06316 0.40438 0.64317
 H687 H 1.13894 0.29922 0.73812
 H688 H 1.11954 0.40509 0.58404
 C689 C 0.66850 -0.20572 0.72216
 C690 C 0.67869 -0.18518 0.69513
 C691 C 0.65501 -0.16411 0.67690
 N692 N 0.66623 -0.14770 0.64801
 N693 N 0.64569 -0.12824 0.63126
 C694 C 0.61306 -0.12428 0.64279
 N695 N 0.60181 -0.14063 0.67178
 N696 N 0.62235 -0.16022 0.68849
 C697 C 0.59030 -0.10232 0.62468
 C698 C 0.59992 -0.08724 0.59283
 H699 H 0.70467 -0.18476 0.68539
 H700 H 0.56554 -0.09794 0.63663
 H701 H 0.64157 -0.20658 0.72872
 H702 H 0.62426 -0.09231 0.58036
 C703 C 0.65971 0.29963 0.22981
 C704 C 0.66792 0.31407 0.19709
 C705 C 0.64515 0.33556 0.17858
 N706 N 0.65498 0.34780 0.14638
 N707 N 0.63524 0.36761 0.12922
 C708 C 0.60482 0.37601 0.14357
 N709 N 0.59490 0.36374 0.17580
 N710 N 0.61469 0.34387 0.19301
 C711 C 0.58316 0.39841 0.12492
 C712 C 0.59311 0.41165 0.09210
 H713 H 0.69186 0.30914 0.18377
 H714 H 0.55937 0.40497 0.13752
 H715 H 0.63463 0.30300 0.24153
 H716 H 0.61694 0.40507 0.07960
 C717 C 0.84856 0.21651 0.20933
 C718 C 0.83410 0.20024 0.18260
 C719 C 0.85369 0.17758 0.16366
 N720 N 0.84041 0.16493 0.13467
 N721 N 0.85784 0.14419 0.11755
 C722 C 0.88914 0.13530 0.12890
 N723 N 0.90234 0.14788 0.15793
 N724 N 0.88500 0.16867 0.17494
 C725 C 0.90841 0.11180 0.11124
 C726 C 0.89799 0.09955 0.07958
 H727 H 0.80818 0.20478 0.17446
 H728 H 0.93149 0.10367 0.12392
 H729 H 0.87535 0.21335 0.21497
 H730 H 0.87564 0.10813 0.06590
 C731 C 0.85818 0.70908 0.71343
 C732 C 0.84511 0.69179 0.68680
 C733 C 0.86534 0.66849 0.66955
 N734 N 0.85251 0.65470 0.64117
 N735 N 0.87028 0.63349 0.62532
 C736 C 0.90156 0.62516 0.63731
 N737 N 0.91436 0.63888 0.66578
 N738 N 0.89663 0.66018 0.68157
 C739 C 0.92133 0.60144 0.62028
 C740 C 0.91054 0.58846 0.58918
 H741 H 0.81958 0.69596 0.67725
 H742 H 0.94496 0.59409 0.63247
 H743 H 0.88464 0.70613 0.72062
 H744 H 0.88738 0.59628 0.57641
 C745 C 0.35046 0.20032 0.71710
 C746 C 0.33726 0.18297 0.69064
 C747 C 0.35783 0.16009 0.67303
 N748 N 0.34476 0.14560 0.64533
 N749 N 0.36303 0.12495 0.62903
 C750 C 0.39510 0.11795 0.63984
 N751 N 0.40814 0.13238 0.66761
 N752 N 0.38988 0.15308 0.68388
 C753 C 0.41553 0.09500 0.62223
 C754 C 0.40387 0.08061 0.59252
 H755 H 0.31157 0.18682 0.68142
 H756 H 0.44031 0.08927 0.63296
 H757 H 0.37697 0.19735 0.72409
 H758 H 0.37932 0.08657 0.58141
 C759 C 0.35313 0.70167 0.21195
 C760 C 0.34016 0.68654 0.18333
 C761 C 0.35981 0.66347 0.16507
 N762 N 0.34682 0.65091 0.13589
 N763 N 0.36414 0.62991 0.11915
 C764 C 0.39514 0.62065 0.13103
 N765 N 0.40811 0.63319 0.16024
 N766 N 0.39081 0.65422 0.17693
 C767 C 0.41449 0.59717 0.11325
 C768 C 0.40312 0.58405 0.08248
 H769 H 0.31523 0.69222 0.17308
 H770 H 0.43835 0.58986 0.12496
 H771 H 0.37909 0.69713 0.22007
 H772 H 0.37955 0.59146 0.07025
   
