data_POSCAR
  _audit_creation_date              2014-09-24
  _audit_creation_method            'ToBaCCo'
  _symmetry_space_group_name_H-M    'P1'
  _symmetry_Int_Tables_number       1
  _symmetry_cell_setting            triclinic
  loop_
  _symmetry_equiv_pos_as_xyz
 x,y,z
_cell_length_a 33.7577
_cell_length_b 24.7480
_cell_length_c 25.7238
_cell_angle_alpha 90.052800
_cell_angle_beta 90.022500
_cell_angle_gamma 85.990700
loop_
  _atom_site_label
  _atom_site_type_symbol
  _atom_site_fract_x
  _atom_site_fract_y
  _atom_site_fract_z
C1 C 1.22303 0.21439 0.19795
 C2 C 1.25066 0.24809 0.16628
 C3 C 1.27298 0.28000 0.19619
 C4 C 1.26551 0.27526 0.25535
 C5 C 1.25001 0.18228 0.23648
 C6 C 1.27219 0.21405 0.26659
 C7 C 1.19833 0.25523 0.23112
 C8 C 1.22025 0.28688 0.26137
 H9 H 1.25308 0.24595 0.12420
 H10 H 1.28354 0.30133 0.27974
 H11 H 1.25156 0.13839 0.23955
 H12 H 1.16610 0.25637 0.23333
 C13 C 0.72459 -0.28721 0.19799
 C14 C 0.75215 -0.25415 0.16567
 C15 C 0.77426 -0.22153 0.19499
 C16 C 0.76686 -0.22508 0.25417
 C17 C 0.75147 -0.31845 0.23713
 C18 C 0.77346 -0.28597 0.26666
 C19 C 0.69976 -0.24572 0.23033
 C20 C 0.72169 -0.21342 0.25990
 H21 H 0.75412 -0.25641 0.12355
 H22 H 0.78489 -0.19849 0.27803
 H23 H 0.75259 -0.36219 0.24163
 H24 H 0.66755 -0.24473 0.23272
 C25 C 0.72381 0.21506 -0.30192
 C26 C 0.75086 0.24575 -0.33236
 C27 C 0.77405 0.27971 -0.30083
 C28 C 0.76569 0.27623 -0.24481
 C29 C 0.74846 0.18460 -0.26410
 C30 C 0.77156 0.21831 -0.23249
 C31 C 0.69981 0.25498 -0.27206
 C32 C 0.72268 0.28862 -0.24040
 H33 H 0.75361 0.24318 -0.37443
 H34 H 0.78354 0.30260 -0.22035
 H35 H 0.75025 0.14066 -0.26086
 H36 H 0.66753 0.25616 -0.26989
 C37 C 1.22481 -0.28604 -0.30218
 C38 C 1.25281 -0.25324 -0.33408
 C39 C 1.27486 -0.22092 -0.30429
 C40 C 1.26694 -0.22444 -0.24528
 C41 C 1.25122 -0.31757 -0.26275
 C42 C 1.27316 -0.28533 -0.23291
 C43 C 1.19993 -0.24439 -0.27014
 C44 C 1.22179 -0.21237 -0.24023
 H45 H 1.25525 -0.25562 -0.37615
 H46 H 1.28488 -0.19806 -0.22109
 H47 H 1.25256 -0.36139 -0.25884
 H48 H 1.16768 -0.24307 -0.26822
 C49 C 0.22518 0.21580 0.80280
 C50 C 0.25136 0.24730 0.83332
 C51 C 0.27468 0.28103 0.80225
 C52 C 0.26757 0.27705 0.74625
 C53 C 0.20031 0.25682 0.76990
 C54 C 0.22231 0.28875 0.74003
 C55 C 0.25188 0.18384 0.76373
 C56 C 0.27404 0.21594 0.73394
 H57 H 0.25378 0.24479 0.87540
 H58 H 0.28560 0.30332 0.72207
 H59 H 0.16809 0.25784 0.76751
 H60 H 0.25317 0.14001 0.75996
 C61 C 0.72296 0.71567 0.80071
 C62 C 0.74983 0.74672 0.83118
 C63 C 0.77327 0.78028 0.79964
 C64 C 0.76528 0.77612 0.74355
 C65 C 0.69919 0.75524 0.77018
 C66 C 0.72230 0.78850 0.73851
 C67 C 0.74788 0.68473 0.76344
 C68 C 0.77123 0.71805 0.73181
 H69 H 0.75241 0.74449 0.87328
 H70 H 0.78332 0.80219 0.71907
 H71 H 0.66692 0.75657 0.76777
 H72 H 0.74959 0.64077 0.76052
 C73 C 0.72449 0.21369 0.30035
 C74 C 0.75194 0.24700 0.33265
 C75 C 0.77405 0.27948 0.30326
 C76 C 0.76676 0.27557 0.24409
 C77 C 0.69965 0.25493 0.26777
 C78 C 0.72161 0.28709 0.23816
 C79 C 0.75146 0.18228 0.26142
 C80 C 0.77344 0.21464 0.23187
 H81 H 0.75391 0.24491 0.37478
 H82 H 0.78479 0.30206 0.22020
 H83 H 0.66745 0.25576 0.26520
 H84 H 0.75264 0.13850 0.25706
 C85 C 0.22316 0.71450 0.30099
 C86 C 0.25080 0.74837 0.33263
 C87 C 0.27313 0.78020 0.30269
 C88 C 0.26565 0.77520 0.24352
 C89 C 0.19847 0.75522 0.26773
 C90 C 0.22038 0.78679 0.23746
 C91 C 0.25016 0.68228 0.26253
 C92 C 0.27235 0.71392 0.23237
 H93 H 0.25314 0.74650 0.37473
 H94 H 0.28367 0.80118 0.21908
 H95 H 0.16623 0.75649 0.26564
 H96 H 0.25170 0.63837 0.25953
 O97 O 1.05091 0.09221 0.09051
 O98 O 1.09610 0.04073 0.04142
 C99 C 1.08687 0.07666 0.07668
 O100 O 0.94498 -0.09668 0.08669
 O101 O 0.89961 -0.04356 0.03912
 C102 C 0.90900 -0.08105 0.07316
 O103 O 1.05589 -0.09497 0.09310
 O104 O 1.09876 -0.04917 0.04293
 C105 C 1.09124 -0.08241 0.07987
 O106 O 0.93993 0.10153 0.08584
 O107 O 0.89707 0.05214 0.03891
 C108 C 0.90471 0.08919 0.07252
 Zr109 Zr 0.99600 0.06783 0.06178
 O110 O 0.99136 0.06619 0.14388
 O111 O 0.99792 0.15314 0.06317
 Zr112 Zr 0.99954 -0.06883 0.06161
 O113 O 0.99535 -0.07278 0.14356
 O114 O 1.00405 -0.15416 0.05516
 O115 O 1.03304 -0.00204 0.07250
 O116 O 0.96309 0.00116 0.07084
 O117 O 0.94098 0.10183 -0.09453
 O118 O 0.89762 0.05261 -0.04844
 C119 C 0.90557 0.08978 -0.08177
 O120 O 1.05716 -0.09554 -0.09876
 O121 O 1.09928 -0.04918 -0.04779
 C122 C 1.09224 -0.08264 -0.08472
 O123 O 0.94604 -0.09755 -0.09527
 O124 O 0.90017 -0.04296 -0.04995
 C125 C 0.90985 -0.08137 -0.08307
 O126 O 1.05178 0.09225 -0.09703
 O127 O 1.09623 0.04094 -0.04688
 C128 C 1.08750 0.07681 -0.08225
 Zr129 Zr 0.99673 0.06746 -0.06960
 O130 O 0.99307 0.06434 -0.15176
 O131 O 0.99862 0.15273 -0.07190
 Zr132 Zr 1.00035 -0.06902 -0.06929
 O133 O 0.99653 -0.07021 -0.15140
 O134 O 1.00675 -0.15470 -0.06745
 Zr135 Zr 1.05725 -0.00330 -0.00302
 Zr136 Zr 0.93852 0.00236 -0.00443
 O137 O 0.96389 0.00089 -0.07924
 O138 O 1.03408 -0.00235 -0.07921
 O139 O 0.96066 0.08003 -0.00427
 O140 O 1.03501 -0.08055 -0.00336
 O141 O 1.03034 0.07607 -0.00351
 O142 O 0.96453 -0.07761 -0.00417
 H143 H 0.94514 0.00203 0.10135
 H144 H 1.05421 -0.11274 -0.00307
 H145 H 0.94619 0.00182 -0.11000
 H146 H 1.04690 0.10758 -0.00327
 H147 H 1.00495 -0.16820 0.09123
 H148 H 0.98664 -0.16691 -0.04293
 H149 H 1.01623 -0.04599 -0.16488
 H150 H 1.01821 0.04638 -0.16486
 H151 H 0.97826 0.16816 -0.04743
 H152 H 0.97645 0.16849 0.04028
 H153 H 1.01594 0.04725 0.15763
 H154 H 1.01150 -0.04439 0.15773
 O155 O 1.05206 0.59126 0.59643
 O156 O 1.09659 0.53999 0.54618
 C157 C 1.08778 0.57567 0.58172
 O158 O 0.94626 0.40221 0.59390
 O159 O 0.90031 0.45667 0.54864
 C160 C 0.91006 0.41832 0.58172
 O161 O 1.05739 0.40472 0.59758
 O162 O 1.09947 0.45116 0.54671
 C163 C 1.09249 0.41768 0.58364
 O164 O 0.94104 0.60119 0.59420
 O165 O 0.89768 0.55215 0.54780
 C166 C 0.90562 0.58915 0.58139
 Zr167 Zr 0.99680 0.56715 0.56886
 O168 O 0.99324 0.56427 0.65102
 O169 O 0.99870 0.65242 0.57132
 Zr170 Zr 1.00048 0.43055 0.56763
 O171 O 0.99744 0.42593 0.64964
 O172 O 1.00506 0.34528 0.56053
 O173 O 1.03407 0.49732 0.57802
 O174 O 0.96407 0.50042 0.57815
 O175 O 0.93986 0.60177 0.41358
 O176 O 0.89706 0.55233 0.46046
 C177 C 0.90465 0.58938 0.42687
 O178 O 1.05590 0.40465 0.40575
 O179 O 1.09867 0.44963 0.45685
 C180 C 1.09122 0.41678 0.41950
 O181 O 0.94513 0.40352 0.41169
 O182 O 0.89976 0.45745 0.45849
 C183 C 0.90915 0.41963 0.42476
 O184 O 1.05084 0.59266 0.40867
 O185 O 1.09610 0.54052 0.45698
 C186 C 1.08683 0.57680 0.42211
 Zr187 Zr 0.99602 0.56821 0.43756
 O188 O 0.99127 0.56739 0.35546
 O189 O 0.99790 0.65354 0.43720
 Zr190 Zr 0.99967 0.43145 0.43685
 O191 O 0.99484 0.43052 0.35483
 O192 O 1.00605 0.34575 0.43848
 Zr193 Zr 1.05731 0.49691 0.50189
 Zr194 Zr 0.93859 0.50224 0.50342
 O195 O 0.96320 0.50150 0.42813
 O196 O 1.03314 0.49836 0.42635
 O197 O 0.96066 0.57997 0.50365
 O198 O 1.03515 0.41956 0.50188
 O199 O 1.03044 0.57624 0.50287
 O200 O 0.96459 0.42226 0.50261
 H201 H 0.94651 0.50117 0.60903
 H202 H 1.05427 0.38730 0.50166
 H203 H 0.94528 0.50261 0.39758
 H204 H 1.04716 0.60758 0.50282
 H205 H 1.00669 0.33097 0.59648
 H206 H 0.98578 0.33342 0.46272
 H207 H 1.01403 0.45528 0.34104
 H208 H 1.01541 0.54745 0.34159
 H209 H 0.97607 0.66867 0.45964
 H210 H 0.97791 0.66792 0.54749
 H211 H 1.01823 0.54583 0.66407
 H212 H 1.01379 0.45420 0.66361
 O213 O 0.55390 0.09157 0.59448
 O214 O 0.59872 0.03976 0.54516
 C215 C 0.58977 0.07587 0.58037
 O216 O 0.44805 -0.09754 0.59098
 O217 O 0.40245 -0.04341 0.54476
 C218 C 0.41201 -0.08146 0.57812
 O219 O 0.55913 -0.09583 0.59606
 O220 O 0.60153 -0.04966 0.54552
 C221 C 0.59436 -0.08315 0.58241
 O222 O 0.44292 0.10108 0.59091
 O223 O 0.39985 0.05187 0.54412
 C224 C 0.40762 0.08884 0.57779
 Zr225 Zr 0.49884 0.06718 0.56631
 O226 O 0.49475 0.06474 0.64844
 O227 O 0.50068 0.15247 0.56822
 Zr228 Zr 0.50248 -0.06954 0.56552
 O229 O 0.49882 -0.07355 0.64751
 O230 O 0.50700 -0.15485 0.55889
 O231 O 0.53601 -0.00275 0.57619
 O232 O 0.46603 0.00043 0.57532
 O233 O 0.44256 0.09943 0.40849
 O234 O 0.39959 0.05141 0.45641
 C235 C 0.40726 0.08762 0.42202
 O236 O 0.55889 -0.09609 0.40480
 O237 O 0.60132 -0.04925 0.45474
 C238 C 0.59404 -0.08292 0.41808
 O239 O 0.44780 -0.09746 0.40920
 O240 O 0.40226 -0.04395 0.45612
 C241 C 0.41171 -0.08171 0.42227
 O242 O 0.55360 0.08930 0.40481
 O243 O 0.59861 0.03968 0.45580
 C244 C 0.58946 0.07446 0.41957
 Zr245 Zr 0.49865 0.06799 0.43537
 O246 O 0.49667 0.07564 0.35359
 O247 O 0.50054 0.15322 0.44119
 Zr248 Zr 0.50231 -0.06916 0.43467
 O249 O 0.49816 -0.07011 0.35253
 O250 O 0.50857 -0.15485 0.43621
 Zr251 Zr 0.55959 -0.00357 0.50033
 Zr252 Zr 0.44099 0.00199 0.50026
 O253 O 0.46603 0.00097 0.42529
 O254 O 0.53560 -0.00215 0.42450
 O255 O 0.46285 0.07984 0.50082
 O256 O 0.53746 -0.08088 0.50008
 O257 O 0.53301 0.07591 0.50073
 O258 O 0.46698 -0.07800 0.50013
 H259 H 0.44829 0.00127 0.60603
 H260 H 0.55665 -0.11307 0.50005
 H261 H 0.44825 0.00156 0.39461
 H262 H 0.55008 0.10689 0.50060
 H263 H 0.50811 -0.16896 0.59493
 H264 H 0.48864 -0.16710 0.46098
 H265 H 0.51964 -0.04899 0.33868
 H266 H 0.49623 0.03866 0.33933
 H267 H 0.47456 0.16821 0.45452
 H268 H 0.48027 0.16771 0.54373
 H269 H 0.51956 0.04607 0.66179
 H270 H 0.51557 -0.04576 0.66154
 O271 O 0.55341 0.58887 0.09311
 O272 O 0.59829 0.53842 0.04267
 C273 C 0.58923 0.57363 0.07859
 O274 O 0.44795 0.39991 0.08798
 O275 O 0.40215 0.45458 0.04269
 C276 C 0.41179 0.41619 0.07573
 O277 O 0.55901 0.40247 0.09238
 O278 O 0.60128 0.44945 0.04229
 C279 C 0.59413 0.41568 0.07889
 O280 O 0.44248 0.59826 0.09018
 O281 O 0.39941 0.54967 0.04283
 C282 C 0.40715 0.58619 0.07700
 Zr283 Zr 0.49837 0.56486 0.06477
 O284 O 0.49450 0.56128 0.14688
 O285 O 0.50009 0.65014 0.06789
 Zr286 Zr 0.50229 0.42831 0.06216
 O287 O 0.49902 0.42247 0.14407
 O288 O 0.50695 0.34313 0.05412
 O289 O 0.53571 0.49507 0.07352
 O290 O 0.46576 0.49795 0.07311
 O291 O 0.44196 0.60117 -0.09034
 O292 O 0.39917 0.55074 -0.04454
 C293 C 0.40676 0.58841 -0.07741
 O294 O 0.55848 0.40395 -0.09926
 O295 O 0.60090 0.44890 -0.04760
 C296 C 0.59371 0.41614 -0.08513
 O297 O 0.44751 0.40220 -0.09401
 O298 O 0.40196 0.45485 -0.04625
 C299 C 0.41145 0.41754 -0.08047
 O300 O 0.55295 0.59244 -0.09461
 O301 O 0.59813 0.53993 -0.04652
 C302 C 0.58892 0.57667 -0.08100
 Zr303 Zr 0.49808 0.56716 -0.06669
 O304 O 0.49364 0.56617 -0.14882
 O305 O 0.49973 0.65250 -0.06720
 Zr306 Zr 0.50198 0.43052 -0.06865
 O307 O 0.49736 0.43120 -0.15071
 O308 O 0.50853 0.34482 -0.06846
 Zr309 Zr 0.55926 0.49555 -0.00242
 Zr310 Zr 0.44059 0.50047 -0.00180
 O311 O 0.46532 0.50047 -0.07697
 O312 O 0.53544 0.49761 -0.07818
 O313 O 0.46252 0.57825 -0.00065
 O314 O 0.53722 0.41811 -0.00342
 O315 O 0.53218 0.57474 -0.00093
 O316 O 0.46673 0.42057 -0.00319
 H317 H 0.44816 0.49835 0.10393
 H318 H 0.55638 0.38589 -0.00375
 H319 H 0.44730 0.50169 -0.10742
 H320 H 0.54881 0.60618 -0.00048
 H321 H 0.50842 0.32840 0.08992
 H322 H 0.48883 0.33205 -0.04365
 H323 H 0.51738 0.45501 -0.16405
 H324 H 0.51834 0.54760 -0.16260
 H325 H 0.47886 0.66737 -0.04318
 H326 H 0.47899 0.66581 0.04462
 H327 H 0.51939 0.54257 0.15995
 H328 H 0.51479 0.45112 0.15852
 C329 C 1.19764 0.18080 0.16744
 C330 C 1.17428 0.15461 0.14497
 C331 C 1.14488 0.12576 0.12078
 C332 C 1.11867 0.10259 0.10080
 C333 C 1.19963 0.68000 0.66790
 C334 C 1.17615 0.65350 0.64634
 C335 C 1.14642 0.62454 0.62360
 C336 C 1.11985 0.60142 0.60481
 C337 C 0.70011 0.18264 0.66906
 C338 C 0.67710 0.15567 0.64675
 C339 C 0.64792 0.12591 0.62314
 C340 C 0.62172 0.10213 0.60380
 C341 C 0.69951 0.67852 0.16812
 C342 C 0.67640 0.65178 0.14606
 C343 C 0.64722 0.62254 0.12228
 C344 C 0.62105 0.59928 0.10254
 C345 C 0.80220 -0.18755 0.17119
 C346 C 0.82543 -0.16065 0.14905
 C347 C 0.85311 -0.13094 0.12185
 C348 C 0.87776 -0.10720 0.09887
 C349 C 0.80151 0.31131 0.67759
 C350 C 0.82555 0.33799 0.65643
 C351 C 0.85396 0.36772 0.63016
 C352 C 0.87889 0.39168 0.60762
 C353 C 0.30348 -0.18754 0.67275
 C354 C 0.32737 -0.16095 0.65162
 C355 C 0.35574 -0.13146 0.62567
 C356 C 0.38077 -0.10776 0.60349
 C357 C 0.30229 0.31262 0.17306
 C358 C 0.32661 0.33837 0.15144
 C359 C 0.35535 0.36696 0.12468
 C360 C 0.38051 0.39010 0.10182
 C361 C 0.79783 0.19632 -0.19659
 C362 C 0.82090 0.17374 -0.16649
 C363 C 0.84852 0.14479 -0.13369
 C364 C 0.87345 0.11938 -0.10827
 C365 C 0.79947 0.69172 0.30675
 C366 C 0.82130 0.67006 0.33869
 C367 C 0.84790 0.64236 0.37342
 C368 C 0.87246 0.61794 0.40000
 C369 C 0.29948 0.19068 0.30492
 C370 C 0.32235 0.16842 0.33542
 C371 C 0.34994 0.14040 0.36885
 C372 C 0.37497 0.11598 0.39487
 C373 C 0.29982 0.69199 -0.19382
 C374 C 0.32228 0.67007 -0.16283
 C375 C 0.34955 0.64208 -0.12928
 C376 C 0.37449 0.61738 -0.10360
 C377 C 1.20214 -0.17844 -0.20150
 C378 C 1.18101 -0.15330 -0.17112
 C379 C 1.15227 -0.12715 -0.13847
 C380 C 1.12551 -0.10652 -0.11288
 C381 C 1.20053 0.32045 0.30066
 C382 C 1.17938 0.34541 0.33137
 C383 C 1.15076 0.37165 0.36453
 C384 C 1.12425 0.39253 0.39065
 C385 C 0.70227 -0.17947 0.29891
 C386 C 0.68154 -0.15419 0.32971
 C387 C 0.65337 -0.12776 0.36308
 C388 C 0.62704 -0.10689 0.38932
 C389 C 0.70381 0.31989 -0.20292
 C390 C 0.68261 0.34479 -0.17219
 C391 C 0.65374 0.37103 -0.13935
 C392 C 0.62699 0.39192 -0.11361
 C393 C 1.19974 0.18194 -0.16731
 C394 C 1.17609 0.15547 -0.14595
 C395 C 1.14624 0.12635 -0.12347
 C396 C 1.11962 0.10297 -0.10496
 C397 C 1.19772 0.68098 0.33152
 C398 C 1.17431 0.65482 0.35393
 C399 C 1.14486 0.62596 0.37805
 C400 C 1.11864 0.60276 0.39798
 C401 C 0.69945 0.17946 0.33016
 C402 C 0.67640 0.15263 0.35211
 C403 C 0.64730 0.12325 0.37574
 C404 C 0.62120 0.09996 0.39544
 C405 C 0.69904 0.68362 -0.17019
 C406 C 0.67596 0.65689 -0.14772
 C407 C 0.64680 0.62723 -0.12388
 C408 C 0.62072 0.60334 -0.10440
 C409 C 0.80088 -0.18825 -0.17877
 C410 C 0.82504 -0.16166 -0.15764
 C411 C 0.85358 -0.13197 -0.13143
 C412 C 0.87860 -0.10803 -0.10894
 C413 C 0.80205 0.31346 0.32693
 C414 C 0.82537 0.34037 0.34892
 C415 C 0.85316 0.37003 0.37595
 C416 C 0.87789 0.39367 0.39891
 C417 C 0.30228 -0.18676 0.32580
 C418 C 0.32648 -0.16061 0.34731
 C419 C 0.35515 -0.13151 0.37386
 C420 C 0.38030 -0.10803 0.39649
 C421 C 0.30220 0.31210 -0.17582
 C422 C 0.32638 0.33835 -0.15456
 C423 C 0.35499 0.36758 -0.12838
 C424 C 0.38013 0.39118 -0.10603
 C425 C 1.20059 -0.17935 0.19842
 C426 C 1.17938 -0.15414 0.16794
 C427 C 1.15072 -0.12764 0.13497
 C428 C 1.12423 -0.10663 0.10889
 C429 C 1.20272 0.32246 0.70095
 C430 C 1.18150 0.34741 0.67043
 C431 C 1.15264 0.37339 0.63767
 C432 C 1.12583 0.39392 0.61197
 C433 C 0.70371 -0.18017 0.70087
 C434 C 0.68277 -0.15511 0.66995
 C435 C 0.65417 -0.12859 0.63686
 C436 C 0.62759 -0.10749 0.61095
 C437 C 0.70228 0.32055 0.19880
 C438 C 0.68164 0.34542 0.16768
 C439 C 0.65353 0.37141 0.13401
 C440 C 0.62719 0.39197 0.10763
 C441 C 0.79950 0.19217 0.19196
 C442 C 0.82136 0.17034 0.16018
 C443 C 0.84799 0.14245 0.12568
 C444 C 0.87256 0.11786 0.09927
 C445 C 0.79761 0.69567 0.69618
 C446 C 0.82078 0.67292 0.66626
 C447 C 0.84850 0.64394 0.63354
 C448 C 0.87348 0.61860 0.60808
 C449 C 0.30089 0.19298 0.69501
 C450 C 0.32339 0.17078 0.66410
 C451 C 0.35061 0.14254 0.63046
 C452 C 0.37544 0.11775 0.60451
 C453 C 0.29963 0.69033 0.19404
 C454 C 0.32244 0.66784 0.16354
 C455 C 0.34995 0.63952 0.13011
 C456 C 0.37490 0.61485 0.10411
   
