data_POSCAR
  _audit_creation_date              2014-09-24
  _audit_creation_method            'ToBaCCo'
  _symmetry_space_group_name_H-M    'P1'
  _symmetry_Int_Tables_number       1
  _symmetry_cell_setting            triclinic
  loop_
  _symmetry_equiv_pos_as_xyz
 x,y,z
_cell_length_a 31.0321
_cell_length_b 29.8453
_cell_length_c 28.1422
_cell_angle_alpha 88.639500
_cell_angle_beta 92.600500
_cell_angle_gamma 90.599300
loop_
  _atom_site_label
  _atom_site_type_symbol
  _atom_site_fract_x
  _atom_site_fract_y
  _atom_site_fract_z
C1 C 0.20045 0.53020 1.07924
 H2 H 0.21169 0.56083 1.06253
 C3 C 0.16559 0.53178 1.10862
 H4 H 0.15384 0.56439 1.11755
 C5 C 0.20280 0.45133 1.08782
 H6 H 0.21671 0.41988 1.07829
 C7 C 0.16609 0.45118 1.11517
 H8 H 0.15264 0.41912 1.12585
 N9 N 0.21864 0.49046 1.06956
 C10 C 0.32126 0.54285 0.97964
 H11 H 0.31794 0.51857 0.95174
 C12 C 0.35250 0.57672 0.97697
 H13 H 0.37321 0.57852 0.94701
 C14 C 0.30078 0.56806 1.05449
 H15 H 0.28257 0.56317 1.08598
 C16 C 0.33150 0.60261 1.05313
 H17 H 0.33594 0.62464 1.08303
 Zn18 Zn 0.25707 0.48920 1.01872
 N19 N 0.29563 0.53944 1.01761
 C20 C 0.22173 0.52092 0.92809
 N21 N 0.22070 0.48831 0.96272
 C22 C 0.19010 0.45535 0.96124
 C23 C 0.15800 0.45517 0.92498
 C24 C 0.19072 0.52139 0.89048
 C25 C 0.32336 0.43599 1.05875
 C26 C 0.35681 0.40502 1.05796
 C27 C 0.32479 0.37655 0.98471
 C28 C 0.29223 0.40836 0.98658
 N29 N 0.29269 0.43796 1.02266
 H30 H 0.24545 0.54756 0.93029
 H31 H 0.18977 0.42995 0.98925
 H32 H 0.13290 0.42967 0.92526
 H33 H 0.19131 0.54785 0.86350
 H34 H 0.32333 0.46039 1.08657
 H35 H 0.38236 0.40535 1.08549
 H36 H 0.32518 0.35438 0.95482
 H37 H 0.26815 0.41097 0.95774
 C38 C 0.35804 0.60673 1.01424
 C39 C 0.14539 0.49186 1.12436
 C40 C 0.35851 0.37603 1.01965
 C41 C 0.15747 0.48918 0.88982
 C42 C 0.81276 0.47097 -0.06713
 H43 H 0.81218 0.45315 -0.03339
 C44 C 0.84380 0.46001 -0.09897
 H45 H 0.86589 0.43291 -0.09004
 C46 C 0.78847 0.53127 -0.11733
 H47 H 0.76808 0.56008 -0.12354
 C48 C 0.81958 0.52179 -0.14999
 H49 H 0.82288 0.54343 -0.18109
 N50 N 0.78574 0.50598 -0.07666
 C51 C 0.72326 0.60883 -0.00659
 H52 H 0.74499 0.60528 0.02434
 C53 C 0.69359 0.64373 -0.00910
 H54 H 0.69269 0.66678 0.01999
 C55 C 0.69395 0.57998 -0.07906
 H56 H 0.69256 0.55349 -0.10467
 C57 C 0.66359 0.61418 -0.08280
 H58 H 0.63922 0.61415 -0.11161
 Zn59 Zn 0.74992 0.52160 -0.02690
 N60 N 0.72162 0.57676 -0.04021
 C61 C 0.78041 0.50107 0.06785
 N62 N 0.78692 0.52635 0.02791
 C63 C 0.82296 0.55225 0.02376
 C64 C 0.85536 0.55169 0.05981
 C65 C 0.81206 0.49947 0.10473
 C66 C 0.66463 0.48811 -0.01773
 C67 C 0.63244 0.45570 -0.01191
 C68 C 0.68767 0.39943 -0.00276
 C69 C 0.71879 0.43281 -0.00931
 N70 N 0.70698 0.47627 -0.01712
 H71 H 0.75152 0.48079 0.07035
 H72 H 0.82737 0.57170 -0.00862
 H73 H 0.88482 0.57082 0.05535
 H74 H 0.80761 0.47780 0.13558
 H75 H 0.65545 0.52272 -0.02237
 H76 H 0.59888 0.46548 -0.01323
 H77 H 0.69753 0.36499 0.00337
 H78 H 0.75232 0.42378 -0.00755
 C79 C 0.66214 0.64533 -0.04643
 C80 C 0.84791 0.48597 -0.14062
 C81 C 0.64399 0.41087 -0.00398
 C82 C 0.85041 0.52410 0.10012
 C83 C -0.04710 0.30198 0.43409
 H84 H -0.07629 0.29273 0.45163
 C85 C -0.04780 0.33711 0.40038
 H86 H -0.07779 0.35478 0.39344
 C87 C 0.02819 0.29500 0.42851
 H88 H 0.05831 0.28068 0.44186
 C89 C 0.02884 0.32911 0.39362
 H90 H 0.05940 0.33810 0.37877
 N91 N -0.00975 0.28040 0.44616
 C92 C -0.06725 0.17488 0.53536
 H93 H -0.04439 0.17743 0.56530
 C94 C -0.10269 0.14617 0.53862
 H95 H -0.10667 0.12648 0.57099
 C96 C -0.08923 0.19637 0.45645
 H97 H -0.08318 0.21508 0.42404
 C98 C -0.12537 0.16779 0.45820
 H99 H -0.14737 0.16516 0.42739
 Zn100 Zn -0.01005 0.23568 0.49581
 N101 N -0.06132 0.19979 0.49504
 C102 C -0.04030 0.27607 0.57786
 N103 N -0.00484 0.26719 0.55304
 C104 C 0.03446 0.28498 0.56543
 C105 C 0.03907 0.31381 0.60364
 C106 C -0.03707 0.30463 0.61647
 C107 C 0.05693 0.19000 0.45145
 C108 C 0.09092 0.16002 0.44964
 C109 C 0.08052 0.13900 0.53171
 C110 C 0.04828 0.17121 0.53270
 N111 N 0.03692 0.19579 0.49285
 H112 H -0.07149 0.26285 0.56631
 H113 H 0.06184 0.27813 0.54438
 H114 H 0.07008 0.32940 0.61199
 H115 H -0.06576 0.31324 0.63467
 H116 H 0.04618 0.20795 0.41941
 H117 H 0.10742 0.15704 0.41678
 H118 H 0.08820 0.11881 0.56338
 H119 H 0.03187 0.17616 0.56520
 C120 C -0.13257 0.14274 0.50000
 C121 C -0.00979 0.35017 0.37769
 C122 C 0.10200 0.13272 0.48956
 C123 C 0.00286 0.32430 0.62908
 C124 C 0.96688 0.68130 0.55565
 H125 H 0.94023 0.68292 0.52953
 C126 C 0.96943 0.64574 0.58866
 H127 H 0.94454 0.62002 0.58803
 C128 C 1.03340 0.71093 0.58610
 H129 H 1.05992 0.73419 0.58344
 C130 C 1.03624 0.67708 0.62101
 H131 H 1.06377 0.67619 0.64609
 N132 N 0.99885 0.71275 0.55449
 C133 C 0.94175 0.82317 0.46963
 H134 H 0.96304 0.82397 0.44023
 C135 C 0.91041 0.85604 0.47258
 H136 H 0.90720 0.88193 0.44506
 C137 C 0.92120 0.78956 0.54252
 H138 H 0.92636 0.76431 0.57030
 C139 C 0.88929 0.82171 0.54676
 H140 H 0.86927 0.82055 0.57732
 Zn141 Zn 0.99514 0.75372 0.50197
 N142 N 0.94681 0.79111 0.50453
 C143 C 1.02586 0.68849 0.44653
 N144 N 0.99275 0.71778 0.44757
 C145 C 0.95990 0.71764 0.41380
 C146 C 0.95994 0.68701 0.37675
 C147 C 1.02686 0.65717 0.41081
 C148 C 1.05898 0.81193 0.54077
 C149 C 1.09572 0.83911 0.54027
 C150 C 1.09557 0.83187 0.45503
 C151 C 1.06104 0.80177 0.45779
 N152 N 1.04390 0.79188 0.50040
 H153 H 1.05107 0.68884 0.47437
 H154 H 0.93342 0.74065 0.41598
 H155 H 0.93369 0.68686 0.35005
 H156 H 1.05294 0.63330 0.41137
 H157 H 1.04269 0.80653 0.57360
 H158 H 1.10851 0.85242 0.57351
 H159 H 1.10692 0.84134 0.42037
 H160 H 1.04691 0.78750 0.42566
 C161 C 0.88441 0.85599 0.51201
 C162 C 1.00501 0.64290 0.62111
 C163 C 1.11473 0.84959 0.49691
 C164 C 0.99399 0.65653 0.37493
 C165 C 0.42949 -0.04734 0.30681
 H166 H 0.44474 -0.07901 0.30103
 C167 C 0.39334 -0.04643 0.33455
 H168 H 0.37989 -0.07773 0.34763
 C169 C 0.42997 0.03172 0.29928
 H170 H 0.44432 0.06229 0.28620
 C171 C 0.39600 0.03428 0.32974
 H172 H 0.38592 0.06697 0.34054
 N173 N 0.44606 -0.00869 0.28807
 C174 C 0.53469 -0.07171 0.19259
 H175 H 0.56238 -0.04976 0.19651
 C176 C 0.53675 -0.10900 0.16379
 H177 H 0.56592 -0.11395 0.14496
 C178 C 0.46166 -0.08767 0.20672
 H179 H 0.43146 -0.07798 0.22070
 C180 C 0.46287 -0.12649 0.18016
 H181 H 0.43403 -0.14712 0.17774
 Zn182 Zn 0.49718 -0.01011 0.25277
 N183 N 0.49777 -0.06214 0.21432
 C184 C 0.58591 -0.00256 0.28257
 N185 N 0.54515 -0.01013 0.29717
 C186 C 0.53746 -0.01637 0.34410
 C187 C 0.57145 -0.01684 0.37814
 C188 C 0.62105 -0.00326 0.31557
 C189 C 0.49743 0.03636 0.16454
 C190 C 0.50197 0.07322 0.13375
 C191 C 0.51175 0.12050 0.20195
 C192 C 0.50893 0.08240 0.23148
 N193 N 0.50118 0.04143 0.21247
 H194 H 0.59120 0.00429 0.24542
 H195 H 0.50497 -0.02132 0.35541
 H196 H 0.56485 -0.02230 0.41532
 H197 H 0.65345 0.00188 0.30360
 H198 H 0.49121 0.00364 0.15000
 H199 H 0.49980 0.06844 0.09568
 H200 H 0.51679 0.15306 0.21756
 H201 H 0.51302 0.08552 0.26962
 C202 C 0.50114 -0.13857 0.15864
 C203 C 0.37595 -0.00512 0.34639
 C204 C 0.50961 0.11591 0.15236
 C205 C 0.61387 -0.01145 0.36382
 C206 C 0.54396 -0.03108 0.69167
 H207 H 0.52177 -0.05898 0.69401
 C208 C 0.57944 -0.03453 0.66337
 H209 H 0.58358 -0.06449 0.64315
 C210 C 0.56723 0.04082 0.71659
 H211 H 0.56285 0.06993 0.73777
 C212 C 0.60318 0.03884 0.68840
 H213 H 0.62601 0.06652 0.68779
 N214 N 0.53816 0.00627 0.71745
 C215 C 0.44906 -0.05734 0.81380
 H216 H 0.42085 -0.03673 0.80718
 C217 C 0.44712 -0.09494 0.84427
 H218 H 0.41737 -0.10334 0.86123
 C219 C 0.52291 -0.07062 0.80155
 H220 H 0.55274 -0.06027 0.78603
 C221 C 0.52225 -0.10868 0.83137
 H222 H 0.55147 -0.12771 0.83841
 Zn223 Zn 0.48867 0.00779 0.75560
 N224 N 0.48664 -0.04581 0.79334
 C225 C 0.42986 -0.02442 0.68639
 N226 N 0.43765 0.01081 0.71534
 C227 C 0.40986 0.04595 0.71517
 C228 C 0.37315 0.04682 0.68420
 C229 C 0.39413 -0.02468 0.65476
 C230 C 0.49509 0.04900 0.84452
 C231 C 0.49933 0.08407 0.87626
 C232 C 0.49686 0.13658 0.80955
 C233 C 0.49260 0.10039 0.77892
 N234 N 0.49217 0.05754 0.79676
 H235 H 0.45116 -0.05272 0.68802
 H236 H 0.41584 0.07329 0.73908
 H237 H 0.35131 0.07487 0.68424
 H238 H 0.38916 -0.05272 0.63131
 H239 H 0.49489 0.01490 0.85821
 H240 H 0.50229 0.07680 0.91416
 H241 H 0.49798 0.17050 0.79509
 H242 H 0.49027 0.10642 0.74083
 C243 C 0.48408 -0.12093 0.85321
 C244 C 0.60954 0.00063 0.66171
 C245 C 0.50094 0.12831 0.85873
 C246 C 0.36491 0.01091 0.65378
 C247 C 0.24181 -0.00159 0.48873
 C248 C 0.74606 -0.00952 0.52265
 C249 C 0.51523 0.26423 1.00850
 C250 C 0.50364 0.73721 0.00343
 C251 C 0.99475 0.50447 0.24371
 C252 C 0.00741 0.48354 0.75135
 C253 C 0.13813 0.06817 0.44932
 C254 C 0.13610 0.09811 0.48740
 C255 C 0.16763 0.09568 0.52425
 C256 C 0.20070 0.06473 0.52415
 C257 C 0.20685 0.03683 0.48495
 C258 C 0.17483 0.04002 0.44612
 C259 C 0.10361 0.06451 0.41495
 C260 C 0.10686 0.03777 0.37553
 C261 C 0.14428 0.01399 0.36965
 C262 C 0.17764 0.01505 0.40439
 H263 H 0.07344 0.08160 0.41848
 H264 H 0.08039 0.03583 0.34923
 H265 H 0.14731 -0.00593 0.33835
 H266 H 0.20571 -0.00339 0.39746
 H267 H 0.16620 0.11744 0.55440
 H268 H 0.22028 0.06253 0.55662
 C269 C 0.62294 0.71897 -0.03728
 C270 C 0.62274 0.67195 -0.04114
 C271 C 0.58489 0.64799 -0.03401
 C272 C 0.54808 0.66906 -0.02061
 C273 C 0.54676 0.71565 -0.01224
 C274 C 0.58528 0.74128 -0.02244
 C275 C 0.66029 0.74412 -0.04746
 C276 C 0.66154 0.79029 -0.04194
 C277 C 0.62609 0.81203 -0.02532
 C278 C 0.58876 0.78795 -0.01519
 H279 H 0.68873 0.72823 -0.05995
 H280 H 0.69044 0.80918 -0.04976
 H281 H 0.62769 0.84775 -0.01955
 H282 H 0.56395 0.80640 0.00057
 H283 H 0.58406 0.61188 -0.03748
 H284 H 0.52043 0.64733 -0.01768
 C285 C 0.85245 -0.07897 0.55499
 C286 C 0.85185 -0.10855 0.51648
 C287 C 0.81978 -0.10431 0.48066
 C288 C 0.78733 -0.07306 0.48323
 C289 C 0.78299 -0.04583 0.52344
 C290 C 0.81799 -0.04791 0.55907
 C291 C 0.88721 -0.07918 0.58923
 C292 C 0.88753 -0.05097 0.62788
 C293 C 0.85323 -0.02241 0.63340
 C294 C 0.81896 -0.02110 0.59970
 H295 H 0.91469 -0.10076 0.58624
 H296 H 0.91429 -0.05165 0.65392
 H297 H 0.85299 -0.00130 0.66414
 H298 H 0.79264 -0.00022 0.60707
 H299 H 0.82001 -0.12536 0.44981
 H300 H 0.76614 -0.07046 0.45194
 C301 C 0.42484 0.35472 0.97595
 C302 C 0.39716 0.34800 1.01407
 C303 C 0.40643 0.31436 1.04786
 C304 C 0.44248 0.28747 1.04498
 C305 C 0.47134 0.29178 1.00729
 C306 C 0.46068 0.32558 0.97099
 C307 C 0.41786 0.39066 0.94288
 C308 C 0.44344 0.39635 0.90389
 C309 C 0.47611 0.36630 0.89674
 C310 C 0.48447 0.33139 0.92944
 H311 H 0.39278 0.41497 0.94688
 H312 H 0.43744 0.42382 0.87873
 H313 H 0.49517 0.37001 0.86558
 H314 H 0.50899 0.30863 0.92034
 H315 H 0.38585 0.30939 1.07769
 H316 H 0.44811 0.26483 1.07490
 C317 C 0.80194 0.11206 0.54128
 C318 C 0.83040 0.11091 0.50353
 C319 C 0.82793 0.07525 0.47281
 C320 C 0.79971 0.03975 0.48027
 C321 C 0.77285 0.03638 0.51988
 C322 C 0.77518 0.07385 0.55231
 C323 C 0.80072 0.15088 0.56898
 C324 C 0.77670 0.15174 0.60928
 C325 C 0.75462 0.11364 0.62359
 C326 C 0.75446 0.07524 0.59635
 H327 H 0.81848 0.18098 0.55963
 H328 H 0.77643 0.18159 0.63037
 H329 H 0.73786 0.11353 0.65652
 H330 H 0.73974 0.04706 0.61325
 H331 H 0.84928 0.07396 0.44346
 H332 H 0.79950 0.01350 0.45439
 C333 C 0.43159 0.63308 0.04497
 C334 C 0.39451 0.63917 0.01472
 C335 C 0.39203 0.67642 -0.01590
 C336 C 0.42596 0.70715 -0.01805
 C337 C 0.46546 0.70141 0.00882
 C338 C 0.46666 0.66453 0.04317
 C339 C 0.43471 0.59554 0.07661
 C340 C 0.47066 0.58955 0.10724
 C341 C 0.50432 0.62036 0.10664
 C342 C 0.50238 0.65697 0.07505
 H343 H 0.40955 0.57027 0.07799
 H344 H 0.47248 0.56077 0.13137
 H345 H 0.53248 0.61556 0.13028
 H346 H 0.52984 0.67816 0.07524
 H347 H 0.36318 0.68201 -0.03833
 H348 H 0.42024 0.73581 -0.04144
 C349 C 0.18477 -0.12014 0.46243
 C350 C 0.15134 -0.11748 0.49497
 C351 C 0.15057 -0.08055 0.52422
 C352 C 0.18124 -0.04696 0.52162
 C353 C 0.21207 -0.04474 0.48595
 C354 C 0.21198 -0.08188 0.45341
 C355 C 0.19192 -0.16054 0.43896
 C356 C 0.22038 -0.16208 0.40240
 C357 C 0.24169 -0.12340 0.38817
 C358 C 0.23732 -0.08386 0.41280
 H359 H 0.17566 -0.19138 0.44885
 H360 H 0.22488 -0.19307 0.38410
 H361 H 0.26201 -0.12399 0.35791
 H362 H 0.25293 -0.05552 0.39716
 H363 H 0.12575 -0.07702 0.54963
 H364 H 0.17998 -0.02113 0.54786
 C365 C 0.58304 0.37340 1.04014
 C366 C 0.61067 0.37552 1.00156
 C367 C 0.60790 0.34246 0.96757
 C368 C 0.57834 0.30757 0.97060
 C369 C 0.55035 0.30261 1.00879
 C370 C 0.55305 0.33686 1.04436
 C371 C 0.58603 0.40594 1.07588
 C372 C 0.56028 0.40300 1.11501
 C373 C 0.53225 0.36694 1.12027
 C374 C 0.52924 0.33397 1.08606
 H375 H 0.60875 0.43357 1.07450
 H376 H 0.56298 0.42820 1.14205
 H377 H 0.51347 0.36383 1.15170
 H378 H 0.50982 0.30527 1.09448
 H379 H 0.62860 0.34407 0.93755
 H380 H 0.57733 0.28509 0.94120
 C381 C 0.55069 0.18472 1.12160
 C382 C 0.51451 0.15535 1.11958
 C383 C 0.48248 0.16199 1.08420
 C384 C 0.48512 0.19673 1.05123
 C385 C 0.51893 0.22911 1.05200
 C386 C 0.55343 0.22225 1.08849
 C387 C 0.58541 0.17577 1.15476
 C388 C 0.62114 0.20385 1.15824
 C389 C 0.62412 0.24040 1.12760
 C390 C 0.59164 0.24895 1.09296
 H391 H 0.58607 0.14639 1.17787
 H392 H 0.64716 0.19656 1.18411
 H393 H 0.65270 0.26154 1.12950
 H394 H 0.60006 0.27525 1.06910
 H395 H 0.45479 0.13958 1.08170
 H396 H 0.45897 0.19883 1.02451
 C397 C 0.04592 0.57569 0.65730
 C398 C 0.00938 0.60385 0.65447
 C399 C -0.02491 0.59433 0.68317
 C400 C -0.02459 0.55722 0.71350
 C401 C 0.01024 0.52674 0.71746
 C402 C 0.04723 0.53787 0.68972
 C403 C 0.08042 0.58314 0.62674
 C404 C 0.11660 0.55606 0.62951
 C405 C 0.11863 0.52000 0.66134
 C406 C 0.08433 0.51053 0.69025
 H407 H 0.07969 0.60930 0.59958
 H408 H 0.14278 0.56249 0.60605
 H409 H 0.14634 0.49818 0.66247
 H410 H 0.08676 0.47985 0.71030
 H411 H -0.05272 0.61608 0.68208
 H412 H -0.05238 0.55401 0.73488
 C413 C 0.48633 0.79606 -0.12435
 C414 C 0.48403 0.84137 -0.11160
 C415 C 0.48350 0.85193 -0.06391
 C416 C 0.48784 0.81902 -0.02848
 C417 C 0.49206 0.77278 -0.03835
 C418 C 0.48906 0.76140 -0.08814
 C419 C 0.48524 0.78461 -0.17279
 C420 C 0.48604 0.74005 -0.18599
 C421 C 0.48711 0.70615 -0.15140
 C422 C 0.48819 0.71652 -0.10335
 H423 H 0.48322 0.80998 -0.20091
 H424 H 0.48503 0.73177 -0.22327
 H425 H 0.48657 0.67146 -0.16184
 H426 H 0.48663 0.68858 -0.07894
 H427 H 0.48197 0.88668 -0.05375
 H428 H 0.49124 0.83201 0.00677
 C429 C 0.95438 0.39356 0.30992
 C430 C 0.99002 0.38545 0.34250
 C431 C 1.02442 0.41647 0.34260
 C432 C 1.02392 0.45389 0.31208
 C433 C 0.98904 0.46329 0.27959
 C434 C 0.95100 0.43544 0.28439
 C435 C 0.92211 0.36055 0.30115
 C436 C 0.88343 0.37153 0.27700
 C437 C 0.87610 0.41551 0.26205
 C438 C 0.90912 0.44734 0.26652
 H439 H 0.92635 0.32617 0.31334
 H440 H 0.85842 0.34633 0.27181
 H441 H 0.84489 0.42497 0.24643
 H442 H 0.90038 0.48112 0.25687
 H443 H 1.05175 0.41300 0.36767
 H444 H 1.05191 0.47574 0.31355
 C445 C 0.54099 0.79738 0.12507
 C446 C 0.50285 0.82281 0.12980
 C447 C 0.46583 0.80969 0.10328
 C448 C 0.46774 0.77877 0.06764
 C449 C 0.50708 0.76072 0.05363
 C450 C 0.54399 0.76652 0.08673
 C451 C 0.57484 0.79940 0.16049
 C452 C 0.61256 0.77553 0.15683
 C453 C 0.61665 0.74705 0.11938
 C454 C 0.58281 0.74160 0.08582
 H455 H 0.57195 0.81830 0.19247
 H456 H 0.63821 0.77807 0.18405
 H457 H 0.64558 0.72731 0.11747
 H458 H 0.58786 0.71501 0.06211
 H459 H 0.43534 0.82641 0.10618
 H460 H 0.43820 0.77367 0.04645
 C461 C 0.00067 0.35594 0.71224
 C462 C 0.00534 0.36149 0.66283
 C463 C 0.01115 0.40409 0.64349
 C464 C 0.01183 0.44136 0.67161
 C465 C 0.00858 0.43877 0.72180
 C466 C 0.00299 0.39421 0.74226
 C467 C -0.00545 0.31272 0.73241
 C468 C -0.00904 0.30658 0.78120
 C469 C -0.00575 0.34309 0.81080
 C470 C 0.00055 0.38609 0.79182
 H471 H -0.00718 0.28326 0.71069
 H472 H -0.01367 0.27324 0.79620
 H473 H -0.00745 0.33803 0.84889
 H474 H 0.00534 0.41208 0.81708
 H475 H 0.01356 0.40885 0.60536
 H476 H 0.01245 0.47248 0.65171
 C477 C 0.54769 0.17011 0.91914
 C478 C 0.50853 0.16540 0.89219
 C479 C 0.47461 0.19393 0.89989
 C480 C 0.47800 0.22580 0.93507
 C481 C 0.51627 0.23234 0.96392
 C482 C 0.55181 0.20301 0.95531
 C483 C 0.58304 0.14229 0.91061
 C484 C 0.62142 0.14550 0.93774
 C485 C 0.62560 0.17673 0.97332
 C486 C 0.59154 0.20506 0.98174
 H487 H 0.58149 0.11794 0.88270
 H488 H 0.64813 0.12388 0.93089
 H489 H 0.65568 0.17958 0.99413
 H490 H 0.59779 0.22952 1.00793
 H491 H 0.44416 0.19001 0.87992
 H492 H 0.44873 0.24373 0.94049
 C493 C 1.03215 0.61459 0.31206
 C494 C 0.99480 0.62207 0.33763
 C495 C 0.96069 0.59143 0.33408
 C496 C 0.96268 0.55439 0.30522
 C497 C 0.99892 0.54557 0.27824
 C498 C 1.03651 0.57375 0.28722
 C499 C 1.06618 0.64644 0.31250
 C500 C 1.10585 0.63615 0.29472
 C501 C 1.11271 0.59357 0.27809
 C502 C 1.07894 0.56243 0.27553
 H503 H 1.06254 0.67926 0.32730
 H504 H 1.13194 0.66052 0.29605
 H505 H 1.14451 0.58436 0.26762
 H506 H 1.08797 0.52916 0.26705
 H507 H 0.93238 0.59569 0.35463
 H508 H 0.93479 0.53252 0.30344
 C509 C 1.07483 0.52747 0.14046
 C510 C 1.10593 0.49306 0.14881
 C511 C 1.09768 0.46080 0.18444
 C512 C 1.06236 0.46399 0.21305
 C513 C 1.03468 0.50158 0.21084
 C514 C 1.04305 0.53504 0.17450
 C515 C 1.07303 0.55333 0.09757
 C516 C 1.04710 0.59100 0.09243
 C517 C 1.02238 0.60344 0.12966
 C518 C 1.02048 0.57600 0.17024
 H519 H 1.09158 0.54454 0.06759
 H520 H 1.04703 0.61117 0.05995
 H521 H 1.00381 0.63396 0.12673
 H522 H 1.00153 0.58796 0.19805
 H523 H 1.11940 0.43316 0.19193
 H524 H 1.05795 0.43624 0.23747
 C525 C 0.67915 -0.03575 0.63936
 C526 C 0.64710 -0.00278 0.63133
 C527 C 0.64812 0.02498 0.59123
 C528 C 0.68002 0.02076 0.55889
 C529 C 0.71311 -0.01192 0.56393
 C530 C 0.71097 -0.04274 0.60468
 C531 C 0.67952 -0.06226 0.68168
 C532 C 0.70840 -0.09712 0.68920
 C533 C 0.73663 -0.10699 0.65436
 C534 C 0.73752 -0.08091 0.61269
 H535 H 0.65742 -0.05626 0.70945
 H536 H 0.70807 -0.11732 0.72165
 H537 H 0.75780 -0.13550 0.65935
 H538 H 0.75810 -0.09372 0.58715
 H539 H 0.62366 0.05032 0.58464
 H540 H 0.67957 0.04511 0.52981
 C541 C -0.11709 0.47439 0.78033
 C542 C -0.11414 0.48008 0.83002
 C543 C -0.07371 0.48258 0.85311
 C544 C -0.03648 0.48197 0.82809
 C545 C -0.03686 0.48106 0.77768
 C546 C -0.07879 0.47577 0.75359
 C547 C -0.15762 0.46710 0.75679
 C548 C -0.16122 0.46312 0.70766
 C549 C -0.12476 0.46694 0.68107
 C550 C -0.08431 0.47351 0.70349
 H551 H -0.18684 0.46401 0.77621
 H552 H -0.19253 0.45772 0.69008
 H553 H -0.12783 0.46519 0.64268
 H554 H -0.05822 0.47868 0.68044
 H555 H -0.07072 0.48575 0.89142
 H556 H -0.00718 0.48187 0.85004
 C557 C 0.30741 0.03007 0.37549
 C558 C 0.33994 -0.00302 0.37972
 C559 C 0.34143 -0.03145 0.42000
 C560 C 0.31035 -0.02936 0.45379
 C561 C 0.27728 0.00307 0.45084
 C562 C 0.28096 0.03764 0.41462
 C563 C 0.30118 0.05678 0.33367
 C564 C 0.27612 0.09518 0.33362
 C565 C 0.25806 0.10802 0.37540
 C566 C 0.26120 0.08009 0.41581
 H567 H 0.31617 0.04859 0.30106
 H568 H 0.27253 0.11616 0.30181
 H569 H 0.24146 0.13967 0.37653
 H570 H 0.24969 0.09355 0.44790
 H571 H 0.36661 -0.05613 0.42537
 H572 H 0.31143 -0.05467 0.48191
 C573 C 0.09165 0.52772 0.85109
 C574 C 0.12092 0.49163 0.85405
 C575 C 0.11388 0.45524 0.82471
 C576 C 0.07857 0.45347 0.79284
 C577 C 0.04740 0.48792 0.78837
 C578 C 0.05499 0.52638 0.81822
 C579 C 0.09709 0.56433 0.88194
 C580 C 0.06825 0.59966 0.87998
 C581 C 0.03266 0.59870 0.84854
 C582 C 0.02573 0.56249 0.81880
 H583 H 0.12317 0.56595 0.90857
 H584 H 0.07302 0.62743 0.90378
 H585 H 0.00950 0.62560 0.84812
 H586 H -0.00428 0.56256 0.79884
 H587 H 0.13623 0.42751 0.82648
 H588 H 0.07716 0.42456 0.77063
 C589 C 0.65673 -0.05387 0.42860
 C590 C 0.65023 -0.01499 0.39972
 C591 C 0.67602 0.02266 0.40796
 C592 C 0.70685 0.02329 0.44538
 C593 C 0.71442 -0.01420 0.47662
 C594 C 0.68765 -0.05341 0.46785
 C595 C 0.63283 -0.09351 0.41887
 C596 C 0.63737 -0.13140 0.44822
 C597 C 0.66608 -0.13083 0.48735
 C598 C 0.69087 -0.09266 0.49682
 H599 H 0.61066 -0.09581 0.38822
 H600 H 0.61868 -0.16138 0.44044
 H601 H 0.66977 -0.16042 0.51013
 H602 H 0.71339 -0.09528 0.52622
 H603 H 0.67076 0.05294 0.38655
 H604 H 0.72252 0.05526 0.45094
 C605 C 0.91218 0.47850 0.13623
 C606 C 0.88691 0.51758 0.13506
 C607 C 0.89619 0.55104 0.16750
 C608 C 0.92969 0.54644 0.20160
 C609 C 0.95580 0.50759 0.20569
 C610 C 0.94608 0.47266 0.17193
 C611 C 0.90416 0.44494 0.10221
 C612 C 0.92766 0.40552 0.10400
 C613 C 0.95916 0.39849 0.13981
 C614 C 0.96811 0.43126 0.17336
 H615 H 0.87966 0.44878 0.07385
 H616 H 0.92097 0.38004 0.07786
 H617 H 0.97669 0.36728 0.14185
 H618 H 0.99150 0.42242 0.20095
 H619 H 0.87726 0.58140 0.16630
 H620 H 0.93504 0.57491 0.22393
 C621 C 0.30085 -0.02891 0.61527
 C622 C 0.32688 0.00995 0.61965
 C623 C 0.32290 0.04376 0.58479
 C624 C 0.29483 0.03884 0.54524
 C625 C 0.27004 -0.00074 0.53727
 C626 C 0.27718 -0.03723 0.57160
 C627 C 0.30076 -0.06134 0.65270
 C628 C 0.28309 -0.10370 0.64539
 C629 C 0.26747 -0.11496 0.60027
 C630 C 0.26590 -0.08270 0.56358
 H631 H 0.31542 -0.05437 0.68743
 H632 H 0.28397 -0.12862 0.67399
 H633 H 0.25732 -0.14909 0.59333
 H634 H 0.25883 -0.09550 0.52896
 H635 H 0.34305 0.07356 0.58712
 H636 H 0.29314 0.06631 0.51943
   
