data_POSCAR
  _audit_creation_date              2014-09-24
  _audit_creation_method            'ToBaCCo'
  _symmetry_space_group_name_H-M    'P1'
  _symmetry_Int_Tables_number       1
  _symmetry_cell_setting            triclinic
  loop_
  _symmetry_equiv_pos_as_xyz
 x,y,z
_cell_length_a 40.3631
_cell_length_b 40.1670
_cell_length_c 28.2843
_cell_angle_alpha 90.588900
_cell_angle_beta 89.282500
_cell_angle_gamma 89.769000
loop_
  _atom_site_label
  _atom_site_type_symbol
  _atom_site_fract_x
  _atom_site_fract_y
  _atom_site_fract_z
O1 O 0.24118 0.28033 0.19703
 O2 O 0.28957 0.21232 0.24966
 O3 O 0.23517 0.21371 0.21077
 O4 O 0.30051 0.27312 0.24146
 O5 O 0.27219 0.28859 0.30541
 O6 O 0.20539 0.23141 0.27193
 O7 O 0.26399 0.22280 0.31769
 O8 O 0.21723 0.29200 0.26575
 Cu9 Cu 0.26825 0.24524 0.21688
 Cu10 Cu 0.23794 0.25850 0.29786
 C11 C 0.22094 0.29767 0.22197
 C12 C 0.28480 0.20597 0.29305
 C13 C 0.20884 0.21257 0.23577
 C14 C 0.29783 0.29045 0.27914
 O15 O 0.79056 0.28943 0.24827
 O16 O 0.74967 0.23295 0.33259
 O17 O 0.80504 0.23178 0.28164
 O18 O 0.73668 0.29163 0.29937
 O19 O 0.70846 0.26663 0.24285
 O20 O 0.77772 0.20795 0.22320
 O21 O 0.72381 0.20849 0.27362
 O22 O 0.76266 0.26637 0.19001
 Cu23 Cu 0.77320 0.26371 0.29649
 Cu24 Cu 0.74050 0.23511 0.22638
 C25 C 0.78374 0.28740 0.20461
 C26 C 0.72940 0.21118 0.31758
 C27 C 0.80322 0.21007 0.24886
 C28 C 0.71072 0.28893 0.27481
 O29 O 0.79203 0.72203 0.75714
 O30 O 0.73046 0.78331 0.71745
 O31 O 0.78793 0.78588 0.75736
 O32 O 0.73459 0.71859 0.71419
 O33 O 0.70862 0.71718 0.78318
 O34 O 0.76433 0.78257 0.82784
 O35 O 0.70638 0.78213 0.78784
 O36 O 0.76571 0.71842 0.82593
 Cu37 Cu 0.76358 0.75243 0.72938
 Cu38 Cu 0.73356 0.74981 0.81306
 C39 C 0.78967 0.71044 0.79865
 C40 C 0.70815 0.79360 0.74621
 C41 C 0.78598 0.79522 0.80036
 C42 C 0.71210 0.70675 0.74083
 O43 O 0.25856 0.78993 0.69524
 O44 O 0.20907 0.71970 0.73919
 O45 O 0.26134 0.72559 0.68523
 O46 O 0.20615 0.78419 0.74927
 O47 O 0.17378 0.78643 0.68726
 O48 O 0.23020 0.72955 0.62197
 O49 O 0.17837 0.72160 0.67520
 O50 O 0.22638 0.79345 0.63303
 Cu51 Cu 0.23688 0.75461 0.72357
 Cu52 Cu 0.19881 0.75822 0.64826
 C53 C 0.25114 0.80353 0.65640
 C54 C 0.18570 0.70825 0.71424
 C55 C 0.25538 0.71771 0.64254
 C56 C 0.18035 0.79529 0.72942
 C57 C 1.03105 0.03401 0.16966
 C58 C 0.99735 0.03287 0.17716
 C59 C 0.98376 0.02127 0.13544
 N60 N 1.00784 0.01547 0.10277
 C61 C 1.03676 0.02356 0.12335
 C62 C 0.94963 0.01905 0.12592
 C63 C 0.93793 0.00018 0.08712
 C64 C 0.90659 0.00278 0.06779
 C65 C 0.90413 -0.02220 0.03440
 C66 C 0.93417 -0.03902 0.03387
 N67 N 0.95469 -0.02515 0.06584
 C68 C 0.94130 -0.06794 0.00691
 C69 C 0.97408 -0.07828 -0.00307
 C70 C 0.98329 -0.10874 -0.02266
 C71 C 1.01696 -0.10750 -0.03001
 C72 C 1.02704 -0.07624 -0.01484
 N73 N 1.00081 -0.05848 0.00167
 C74 C 1.05935 -0.06333 -0.01945
 C75 C 1.06866 -0.03331 0.00301
 C76 C 1.09532 -0.01379 -0.01028
 C77 C 1.09724 0.01162 0.02262
 C78 C 1.07214 0.00643 0.05575
 N79 N 1.05451 -0.02074 0.04298
 C80 C 1.06745 0.02458 0.09865
 H81 H 1.04916 0.04208 0.19518
 H82 H 0.98431 0.03998 0.20940
 H83 H 1.03645 -0.03244 0.06347
 H84 H 0.88729 0.02054 0.07706
 H85 H 0.88265 -0.02750 0.01313
 H86 H 0.96741 -0.12957 -0.03103
 H87 H 1.03217 -0.12723 -0.04515
 H88 H 1.11539 0.03136 0.02235
 H89 H 0.97733 -0.03493 0.07648
 H90 H 1.11170 -0.01754 -0.04048
 C91 C 0.48443 0.46456 0.34833
 C92 C 0.51845 0.46448 0.34579
 C93 C 0.52941 0.47658 0.38888
 N94 N 0.50334 0.48412 0.41750
 C95 C 0.47582 0.47667 0.39291
 C96 C 0.56278 0.47793 0.40316
 C97 C 0.57242 0.49627 0.44368
 C98 C 0.60237 0.49278 0.46678
 C99 C 0.60343 0.51749 0.50075
 C100 C 0.57393 0.53506 0.49789
 N101 N 0.55509 0.52191 0.46326
 C102 C 0.56606 0.56409 0.52426
 C103 C 0.53316 0.57544 0.53037
 C104 C 0.52382 0.60591 0.54985
 C105 C 0.48984 0.60588 0.55257
 C106 C 0.47966 0.57542 0.53456
 N107 N 0.50616 0.55685 0.52107
 C108 C 0.44665 0.56408 0.53375
 C109 C 0.43720 0.53538 0.50812
 C110 C 0.40793 0.51812 0.51510
 C111 C 0.40714 0.49345 0.48100
 C112 C 0.43576 0.49665 0.45372
 N113 N 0.45407 0.52212 0.47079
 C114 C 0.44335 0.47801 0.41216
 H115 H 0.46796 0.45635 0.32070
 H116 H 0.53338 0.45619 0.31585
 H117 H 0.47488 0.53239 0.45452
 H118 H 0.62171 0.47464 0.45955
 H119 H 0.62368 0.52217 0.52461
 H120 H 0.53977 0.62598 0.56116
 H121 H 0.47443 0.62591 0.56642
 H122 H 0.38749 0.47548 0.47659
 H123 H 0.53358 0.53244 0.44988
 H124 H 0.38905 0.52290 0.54186
 C125 C 0.03156 0.39252 0.03588
 C126 C -0.00192 0.39321 0.04470
 C127 C -0.01342 0.42346 0.02828
 N128 N 0.01187 0.44134 0.01002
 C129 C 0.03942 0.42248 0.01463
 C130 C -0.04627 0.43516 0.03387
 C131 C -0.05866 0.46341 0.01037
 C132 C -0.08862 0.47895 0.02099
 C133 C -0.09228 0.50425 -0.01091
 C134 C -0.06439 0.50356 -0.04006
 N135 N -0.04413 0.47845 -0.02709
 C136 C -0.05876 0.52521 -0.07842
 C137 C -0.02685 0.53047 -0.09827
 C138 C -0.02023 0.54986 -0.13750
 C139 C 0.01352 0.55260 -0.14098
 C140 C 0.02661 0.53380 -0.10479
 N141 N 0.00184 0.52049 -0.07857
 C142 C 0.06063 0.53173 -0.09363
 C143 C 0.07388 0.50724 -0.06338
 C144 C 0.10656 0.50609 -0.04865
 C145 C 0.10984 0.47806 -0.02159
 C146 C 0.07911 0.46284 -0.02038
 N147 N 0.05751 0.48039 -0.04663
 C148 C 0.07196 0.43312 0.00396
 H149 H 0.04829 0.37252 0.04494
 H150 H -0.01612 0.37382 0.06173
 H151 H 0.03387 0.47283 -0.05588
 H152 H -0.10609 0.47271 0.04883
 H153 H -0.11300 0.52139 -0.01219
 H154 H -0.03782 0.56164 -0.16060
 H155 H 0.02658 0.56706 -0.16720
 H156 H 0.13228 0.46994 -0.00453
 H157 H -0.02331 0.47006 -0.04573
 H158 H 0.12626 0.52334 -0.05695
 C159 C 0.48198 1.09428 0.44219
 C160 C 0.51536 1.09073 0.43409
 C161 C 0.52631 1.06624 0.46442
 N162 N 0.50075 1.05508 0.49118
 C163 C 0.47349 1.07178 0.47713
 C164 C 0.55973 1.05595 0.46853
 C165 C 0.57021 1.03043 0.49908
 C166 C 0.60280 1.02459 0.51170
 C167 C 0.60279 0.99650 0.53905
 C168 C 0.57028 0.98553 0.54174
 N169 N 0.55061 1.00639 0.51730
 C170 C 0.56004 0.95559 0.56336
 C171 C 0.52645 0.94747 0.57180
 C172 C 0.51523 0.91635 0.58520
 C173 C 0.48164 0.91918 0.59180
 C174 C 0.47341 0.95198 0.58234
 N175 N 0.50088 0.96924 0.57028
 C176 C 0.44121 0.96571 0.58703
 C177 C 0.43260 0.99773 0.57066
 C178 C 0.40317 1.01416 0.58153
 C179 C 0.40310 1.04304 0.55586
 C180 C 0.43265 1.04368 0.53028
 N181 N 0.45037 1.01585 0.53936
 C182 C 0.44129 1.06823 0.49682
 H183 H 0.46595 1.11177 0.42461
 H184 H 0.52991 1.10501 0.40919
 H185 H 0.47123 1.00768 0.52082
 H186 H 0.62448 1.03881 0.50198
 H187 H 0.62443 0.98509 0.55438
 H188 H 0.52970 0.89387 0.58954
 H189 H 0.46517 0.89930 0.60223
 H190 H 0.38324 1.06120 0.55563
 H191 H 0.52612 1.00207 0.50848
 H192 H 0.38349 1.00593 0.60492
 C193 C 1.19048 0.16188 0.19595
 C194 C 1.16498 0.14023 0.18257
 C195 C 1.13164 0.14910 0.19229
 C196 C 1.12459 0.17777 0.21930
 C197 C 1.15029 0.19778 0.23587
 C198 C 1.18339 0.19080 0.22286
 C199 C 1.10599 0.12894 0.17535
 C200 C 1.11333 0.09867 0.15223
 C201 C 1.14663 0.08814 0.14709
 C202 C 1.17230 0.10954 0.16059
 C203 C 1.15362 0.05623 0.12907
 C204 C 1.12787 0.03513 0.11568
 C205 C 1.09475 0.04629 0.11683
 C206 C 1.08785 0.07842 0.13499
 H207 H 1.21596 0.15550 0.18703
 H208 H 1.09921 0.18454 0.22801
 H209 H 1.14406 0.21977 0.25670
 H210 H 1.08039 0.13637 0.18120
 H211 H 1.19790 0.10201 0.15496
 H212 H 1.17896 0.04736 0.12610
 H213 H 1.13394 0.01019 0.10343
 H214 H 1.06259 0.08768 0.13600
 C215 C 0.69058 0.67253 0.67353
 C216 C 0.66726 0.65063 0.65424
 C217 C 0.64236 0.63690 0.68365
 C218 C 0.64155 0.64498 0.73200
 C219 C 0.66466 0.66713 0.75084
 C220 C 0.68916 0.68139 0.72175
 C221 C 0.61832 0.61589 0.66409
 C222 C 0.61859 0.60889 0.61537
 C223 C 0.64372 0.62240 0.58608
 C224 C 0.66802 0.64295 0.60576
 C225 C 0.64377 0.61564 0.53735
 C226 C 0.61875 0.59630 0.51758
 C227 C 0.59341 0.58323 0.54620
 C228 C 0.59373 0.58914 0.59524
 H229 H 0.70928 0.68335 0.65062
 H230 H 0.62269 0.63465 0.75510
 H231 H 0.66303 0.67346 0.78811
 H232 H 0.59906 0.60556 0.68658
 H233 H 0.68711 0.65351 0.58320
 H234 H 0.66286 0.62576 0.51443
 H235 H 0.61881 0.59191 0.47973
 H236 H 0.57428 0.57886 0.61740
 C237 C -0.17230 0.32910 0.18544
 C238 C -0.15386 0.34771 0.15278
 C239 C -0.16212 0.34667 0.10436
 C240 C -0.18897 0.32728 0.08960
 C241 C -0.20701 0.30853 0.12231
 C242 C -0.19870 0.30901 0.17044
 C243 C -0.14311 0.36456 0.07146
 C244 C -0.11570 0.38315 0.08635
 C245 C -0.10763 0.38432 0.13490
 C246 C -0.12686 0.36677 0.16778
 C247 C -0.08013 0.40270 0.14975
 C248 C -0.06049 0.41940 0.11678
 C249 C -0.06808 0.41810 0.06854
 C250 C -0.09588 0.40020 0.05344
 H251 H -0.16551 0.32965 0.22241
 H252 H -0.19571 0.32622 0.05266
 H253 H -0.22724 0.29332 0.10977
 H254 H -0.14932 0.36360 0.03427
 H255 H -0.12050 0.36754 0.20493
 H256 H -0.07364 0.40389 0.18678
 H257 H -0.03916 0.43324 0.12880
 H258 H -0.10166 0.39921 0.01612
 C259 C 0.29802 0.84386 0.66470
 C260 C 0.31954 0.86771 0.64559
 C261 C 0.31507 0.87867 0.59874
 C262 C 0.28862 0.86625 0.57230
 C263 C 0.26732 0.84250 0.59156
 C264 C 0.27208 0.83068 0.63761
 C265 C 0.33744 0.90133 0.57876
 C266 C 0.36435 0.91304 0.60496
 C267 C 0.36836 0.90272 0.65224
 C268 C 0.34588 0.88021 0.67229
 C269 C 0.39522 0.91461 0.67840
 C270 C 0.41840 0.93579 0.65755
 C271 C 0.41512 0.94535 0.61024
 C272 C 0.38777 0.93434 0.58431
 H273 H 0.30189 0.83511 0.70035
 H274 H 0.28474 0.87447 0.53641
 H275 H 0.24754 0.83283 0.56992
 H276 H 0.33426 0.90937 0.54260
 H277 H 0.34923 0.87195 0.70832
 H278 H 0.39858 0.90711 0.71473
 H279 H 0.43932 0.94427 0.67797
 H280 H 0.38527 0.94174 0.54776
 C281 C -0.18768 0.65526 -0.17751
 C282 C -0.16219 0.63615 -0.15771
 C283 C -0.13290 0.65202 -0.14234
 C284 C -0.12914 0.68640 -0.14827
 C285 C -0.15426 0.70501 -0.16887
 C286 C -0.18363 0.68965 -0.18314
 C287 C -0.10774 0.63333 -0.12148
 C288 C -0.11091 0.59879 -0.11710
 C289 C -0.13967 0.58266 -0.13368
 C290 C -0.16539 0.60152 -0.15321
 C291 C -0.14196 0.54788 -0.13096
 C292 C -0.11574 0.52925 -0.11289
 C293 C -0.08716 0.54513 -0.09624
 C294 C -0.08535 0.58002 -0.09732
 H295 H -0.21048 0.64353 -0.18861
 H296 H -0.10681 0.69889 -0.13693
 H297 H -0.15109 0.73162 -0.17282
 H298 H -0.08545 0.64559 -0.10935
 H299 H -0.18761 0.58923 -0.16549
 H300 H -0.16374 0.53506 -0.14361
 H301 H -0.11760 0.50237 -0.11219
 H302 H -0.06352 0.59243 -0.08393
 C303 C 0.31344 1.18113 0.36241
 C304 C 0.33444 1.15690 0.38160
 C305 C 0.34518 1.12964 0.35316
 C306 C 0.33489 1.12712 0.30614
 C307 C 0.31487 1.15181 0.28698
 C308 C 0.30410 1.17902 0.31477
 C309 C 0.36674 1.10580 0.37168
 C310 C 0.37861 1.10938 0.41779
 C311 C 0.36816 1.13674 0.44623
 C312 C 0.34572 1.16005 0.42820
 C313 C 0.38101 1.14072 0.49183
 C314 C 0.40454 1.11824 0.50863
 C315 C 0.41498 1.09113 0.48048
 C316 C 0.40158 1.08653 0.43540
 H317 H 0.30552 1.20231 0.38385
 H318 H 0.34294 1.10644 0.28387
 H319 H 0.30784 1.14970 0.25023
 H320 H 0.37500 1.08498 0.34977
 H321 H 0.33777 1.18109 0.44993
 H322 H 0.37339 1.16156 0.51408
 H323 H 0.41488 1.12208 0.54341
 H324 H 0.40991 1.06567 0.41362
 C325 C 1.16626 -0.17248 -0.19912
 C326 C 1.14474 -0.15108 -0.17382
 C327 C 1.11544 -0.13955 -0.19517
 C328 C 1.10836 -0.14935 -0.24164
 C329 C 1.12988 -0.17066 -0.26665
 C330 C 1.15902 -0.18272 -0.24572
 C331 C 1.09353 -0.11872 -0.16959
 C332 C 1.10042 -0.10953 -0.12273
 C333 C 1.12992 -0.12082 -0.10154
 C334 C 1.15194 -0.14137 -0.12728
 C335 C 1.13665 -0.11179 -0.05462
 C336 C 1.11398 -0.09250 -0.02847
 C337 C 1.08432 -0.08175 -0.04884
 C338 C 1.07797 -0.08979 -0.09635
 H339 H 1.18856 -0.18127 -0.18219
 H340 H 1.08603 -0.14070 -0.25859
 H341 H 1.12345 -0.17785 -0.30239
 H342 H 1.07093 -0.11008 -0.18588
 H343 H 1.17445 -0.15017 -0.11087
 H344 H 1.15915 -0.12015 -0.03787
 H345 H 1.11922 -0.08650 0.00810
 H346 H 1.05519 -0.08128 -0.11226
 C347 C 0.68734 0.34509 0.29378
 C348 C 0.66082 0.36546 0.30878
 C349 C 0.62925 0.35124 0.31685
 C350 C 0.62426 0.31738 0.30679
 C351 C 0.65060 0.29750 0.29059
 C352 C 0.68240 0.31101 0.28525
 C353 C 0.60342 0.37091 0.33573
 C354 C 0.60854 0.40477 0.34563
 C355 C 0.63942 0.41947 0.33455
 C356 C 0.66549 0.39965 0.31668
 C357 C 0.64387 0.45367 0.34234
 C358 C 0.61839 0.47290 0.36252
 C359 C 0.58836 0.45813 0.37652
 C360 C 0.58345 0.42406 0.36724
 H361 H 0.71189 0.35557 0.28925
 H362 H 0.60017 0.30616 0.31226
 H363 H 0.64649 0.27119 0.28431
 H364 H 0.57952 0.35978 0.34327
 H365 H 0.68948 0.41072 0.30953
 H366 H 0.66718 0.46546 0.33336
 H367 H 0.62246 0.49923 0.36862
 H368 H 0.56038 0.41244 0.37789
 C369 C 0.80920 -0.17306 -0.13366
 C370 C 0.83380 -0.15202 -0.11562
 C371 C 0.85766 -0.13817 -0.14661
 C372 C 0.85633 -0.14529 -0.19510
 C373 C 0.83220 -0.16672 -0.21270
 C374 C 0.80856 -0.18125 -0.18223
 C375 C 0.88288 -0.11797 -0.12858
 C376 C 0.88490 -0.11192 -0.07981
 C377 C 0.86095 -0.12563 -0.04876
 C378 C 0.83540 -0.14536 -0.06691
 C379 C 0.86326 -0.11976 0.00004
 C380 C 0.88932 -0.10090 0.01800
 C381 C 0.91335 -0.08749 -0.01254
 C382 C 0.91082 -0.09276 -0.06149
 H383 H 0.79131 -0.18391 -0.10946
 H384 H 0.87438 -0.13481 -0.21935
 H385 H 0.83244 -0.17222 -0.25028
 H386 H 0.90128 -0.10751 -0.15237
 H387 H 0.81716 -0.15603 -0.04306
 H388 H 0.84514 -0.13005 0.02434
 H389 H 0.89096 -0.09696 0.05584
 H390 H 0.92924 -0.08217 -0.08511
 C391 C 0.31914 0.34549 0.30628
 C392 C 0.34507 0.36562 0.32256
 C393 C 0.37708 0.35173 0.32788
 C394 C 0.38299 0.31850 0.31444
 C395 C 0.35729 0.29900 0.29679
 C396 C 0.32518 0.31214 0.29353
 C397 C 0.40257 0.37118 0.34677
 C398 C 0.39679 0.40465 0.35900
 C399 C 0.36534 0.41906 0.35115
 C400 C 0.33952 0.39933 0.33368
 C401 C 0.36025 0.45298 0.36110
 C402 C 0.38589 0.47231 0.37940
 C403 C 0.41675 0.45787 0.38952
 C404 C 0.42199 0.42393 0.37903
 H405 H 0.29434 0.35568 0.30330
 H406 H 0.40741 0.30756 0.31783
 H407 H 0.36219 0.27325 0.28718
 H408 H 0.42690 0.36030 0.35186
 H409 H 0.31518 0.41020 0.32870
 H410 H 0.33646 0.46458 0.35469
 H411 H 0.38147 0.49851 0.38652
 H412 H 0.44567 0.41252 0.38678
 C413 C 0.16292 0.67306 -0.22087
 C414 C 0.14536 0.64509 -0.20519
 C415 C 0.13283 0.62200 -0.23850
 C416 C 0.13731 0.62781 -0.28696
 C417 C 0.15399 0.65624 -0.30228
 C418 C 0.16715 0.67888 -0.26943
 C419 C 0.11563 0.59379 -0.22286
 C420 C 0.10965 0.58908 -0.17441
 C421 C 0.12133 0.61277 -0.14124
 C422 C 0.13967 0.64022 -0.15677
 C423 C 0.11384 0.60901 -0.09310
 C424 C 0.09428 0.58251 -0.07801
 C425 C 0.08283 0.55869 -0.11052
 C426 C 0.09127 0.56163 -0.15861
 H427 H 0.17273 0.69065 -0.19536
 H428 H 0.12773 0.61050 -0.31300
 H429 H 0.15715 0.66022 -0.33989
 H430 H 0.10623 0.57596 -0.24839
 H431 H 0.14884 0.65819 -0.13125
 H432 H 0.12242 0.62700 -0.06725
 H433 H 0.08786 0.58059 -0.04084
 H434 H 0.08246 0.54323 -0.18374
 C435 C 0.69103 1.16552 0.33243
 C436 C 0.67131 1.14696 0.36354
 C437 C 0.67232 1.15359 0.41265
 C438 C 0.69423 1.17772 0.42990
 C439 C 0.71412 1.19593 0.39868
 C440 C 0.71214 1.19069 0.34945
 C441 C 0.65106 1.13637 0.44351
 C442 C 0.62903 1.11245 0.42576
 C443 C 0.62910 1.10497 0.37674
 C444 C 0.65013 1.12233 0.34600
 C445 C 0.60772 1.08056 0.35905
 C446 C 0.58593 1.06415 0.38943
 C447 C 0.58488 1.07212 0.43781
 C448 C 0.60661 1.09615 0.45600
 H449 H 0.68939 1.16061 0.29475
 H450 H 0.69560 1.18291 0.46749
 H451 H 0.73019 1.21490 0.41315
 H452 H 0.65136 1.14187 0.48113
 H453 H 0.64966 1.11699 0.30834
 H454 H 0.60762 1.07441 0.32166
 H455 H 0.56927 1.04565 0.37509
 H456 H 0.60573 1.10227 0.49341
 C457 C 0.19836 0.32661 0.15071
 C458 C 0.17638 0.34958 0.13058
 C459 C 0.15686 0.37054 0.16036
 C460 C 0.16012 0.36877 0.20947
 C461 C 0.18168 0.34569 0.22916
 C462 C 0.20064 0.32404 0.20017
 C463 C 0.13376 0.39237 0.14075
 C464 C 0.12950 0.39324 0.09172
 C465 C 0.14940 0.37285 0.06167
 C466 C 0.17289 0.35128 0.08130
 C467 C 0.14489 0.37388 0.01256
 C468 C 0.12024 0.39417 -0.00643
 C469 C 0.09988 0.41367 0.02342
 C470 C 0.10500 0.41361 0.07235
 H471 H 0.21278 0.31003 0.12797
 H472 H 0.14546 0.38476 0.23275
 H473 H 0.18307 0.34443 0.26731
 H474 H 0.11853 0.40809 0.16372
 H475 H 0.18785 0.33530 0.05835
 H476 H 0.15997 0.35855 -0.01105
 H477 H 0.11652 0.39414 -0.04428
 H478 H 0.08925 0.42882 0.09528
 C479 C 0.68233 0.82851 0.68344
 C480 C 0.65910 0.85233 0.66901
 C481 C 0.63736 0.86716 0.70278
 C482 C 0.63911 0.85780 0.75027
 C483 C 0.66209 0.83388 0.76426
 C484 C 0.68393 0.81902 0.73110
 C485 C 0.61410 0.89093 0.68854
 C486 C 0.61203 0.89983 0.64086
 C487 C 0.63361 0.88486 0.60697
 C488 C 0.65713 0.86134 0.62131
 C489 C 0.63110 0.89351 0.55921
 C490 C 0.60727 0.91656 0.54509
 C491 C 0.58583 0.93156 0.57853
 C492 C 0.58847 0.92325 0.62643
 H493 H 0.69893 0.81715 0.65745
 H494 H 0.62261 0.86888 0.77660
 H495 H 0.66282 0.82711 0.80119
 H496 H 0.59745 0.90231 0.71448
 H497 H 0.67370 0.84990 0.59534
 H498 H 0.64737 0.88224 0.53276
 H499 H 0.60539 0.92265 0.50800
 H500 H 0.57189 0.93485 0.65224
 C501 C 0.82709 0.15356 0.23411
 C502 C 0.85367 0.13297 0.21989
 C503 C 0.88473 0.14733 0.20871
 C504 C 0.88927 0.18168 0.21500
 C505 C 0.86294 0.20183 0.23049
 C506 C 0.83159 0.18803 0.23885
 C507 C 0.91045 0.12728 0.19037
 C508 C 0.90570 0.09298 0.18385
 C509 C 0.87546 0.07829 0.19815
 C510 C 0.84952 0.09842 0.21572
 C511 C 0.87138 0.04378 0.19346
 C512 C 0.89637 0.02424 0.17259
 C513 C 0.92549 0.03895 0.15500
 C514 C 0.93035 0.07328 0.16195
 H515 H 0.80288 0.14293 0.24100
 H516 H 0.91299 0.19304 0.20712
 H517 H 0.86665 0.22844 0.23392
 H518 H 0.93389 0.13846 0.18032
 H519 H 0.82595 0.08729 0.22524
 H520 H 0.84861 0.03200 0.20497
 H521 H 0.89242 -0.00228 0.16834
 H522 H 0.95277 0.08485 0.14861
 C523 C 0.30406 0.67871 0.63989
 C524 C 0.32609 0.65764 0.61494
 C525 C 0.32215 0.65257 0.56577
 C526 C 0.29598 0.66827 0.54259
 C527 C 0.27412 0.68913 0.56769
 C528 C 0.27806 0.69479 0.61644
 C529 C 0.34459 0.63219 0.54050
 C530 C 0.37101 0.61689 0.56372
 C531 C 0.37467 0.62155 0.61304
 C532 C 0.35215 0.64183 0.63833
 C533 C 0.40110 0.60616 0.63614
 C534 C 0.42409 0.58692 0.61050
 C535 C 0.42103 0.58278 0.56141
 C536 C 0.39418 0.59744 0.53827
 H537 H 0.30730 0.68270 0.67751
 H538 H 0.29255 0.66461 0.50496
 H539 H 0.25431 0.70115 0.54873
 H540 H 0.34172 0.62855 0.50271
 H541 H 0.35513 0.64560 0.67607
 H542 H 0.40421 0.60934 0.67391
 H543 H 0.44459 0.57556 0.62880
 H544 H 0.39185 0.59425 0.50034
   
