data_POSCAR
  _audit_creation_date              2014-09-24
  _audit_creation_method            'ToBaCCo'
  _symmetry_space_group_name_H-M    'P1'
  _symmetry_Int_Tables_number       1
  _symmetry_cell_setting            triclinic
  loop_
  _symmetry_equiv_pos_as_xyz
 x,y,z
_cell_length_a 27.0299
_cell_length_b 26.9770
_cell_length_c 26.9635
_cell_angle_alpha 80.347300
_cell_angle_beta 98.211900
_cell_angle_gamma 98.159100
loop_
  _atom_site_label
  _atom_site_type_symbol
  _atom_site_fract_x
  _atom_site_fract_y
  _atom_site_fract_z
C1 C 0.61339 0.59301 0.00410
 C2 C 0.62246 0.54621 -0.00725
 C3 C 0.58183 0.50716 -0.00912
 C4 C 0.53421 0.51308 0.00317
 C5 C 0.52765 0.55987 0.01669
 C6 C 0.56590 0.60126 0.01457
 C7 C 0.49090 0.47127 0.00062
 C8 C 0.44065 0.48243 -0.00613
 C9 C 0.39989 0.44400 -0.00570
 C10 C 0.40899 0.39374 -0.00287
 C11 C 0.45823 0.38142 0.00104
 C12 C 0.49897 0.41999 0.00465
 H13 H 0.64461 0.62225 0.00900
 H14 H 0.58683 0.47292 -0.02254
 H15 H 0.49177 0.56476 0.02679
 H16 H 0.43227 0.52112 -0.01257
 H17 H 0.37769 0.36381 -0.00246
 H18 H 0.53671 0.40957 0.01010
 C19 C -0.00012 0.61349 0.38719
 C20 C -0.01068 0.62114 0.43489
 C21 C -0.01320 0.57905 0.47360
 C22 C -0.00087 0.53172 0.46726
 C23 C 0.01148 0.52620 0.41953
 C24 C 0.00947 0.56591 0.37814
 C25 C -0.00191 0.48807 0.51020
 C26 C -0.00870 0.43744 0.50081
 C27 C -0.00847 0.39671 0.54074
 C28 C -0.00481 0.40633 0.59062
 C29 C 0.00001 0.45596 0.60118
 C30 C 0.00342 0.49654 0.56118
 H31 H 0.00474 0.64569 0.35783
 H32 H -0.02700 0.58280 0.50823
 H33 H 0.02065 0.49012 0.41411
 H34 H -0.01517 0.42880 0.46256
 H35 H -0.00449 0.37507 0.62163
 H36 H 0.00962 0.53457 0.57035
 C37 C 0.59318 -0.00378 0.60972
 C38 C 0.54384 -0.00758 0.62157
 C39 C 0.50361 -0.00782 0.58246
 C40 C 0.51217 -0.00106 0.53126
 C41 C 0.56252 0.00511 0.52044
 C42 C 0.60346 0.00137 0.55923
 C43 C 0.46897 -0.00109 0.48924
 C44 C 0.47494 -0.01302 0.44154
 C45 C 0.43605 -0.01010 0.40112
 C46 C 0.38910 0.00084 0.40940
 C47 C 0.38113 0.01076 0.45682
 C48 C 0.42146 0.01114 0.49603
 H49 H 0.62380 -0.00209 0.64022
 H50 H 0.46574 -0.01417 0.59265
 H51 H 0.56977 0.01092 0.48158
 H52 H 0.50998 -0.02399 0.43485
 H53 H 0.35826 0.00042 0.37895
 H54 H 0.41541 0.02188 0.53134
 O55 O 0.46556 -0.01770 -0.06070
 O56 O 0.45146 -0.03004 0.07437
 O57 O 0.45412 0.04493 0.00017
 O58 O 0.46739 -0.09140 0.01474
 O59 O 0.54975 -0.07355 0.03295
 O60 O 0.53660 0.06208 0.01785
 O61 O 0.53383 -0.01231 0.09269
 O62 O 0.54806 -0.00053 -0.04307
 Cu63 Cu 0.45133 -0.02522 0.00531
 Cu64 Cu 0.55035 -0.00426 0.02685
 C65 C 0.50914 -0.00777 -0.07470
 C66 C 0.49001 -0.02295 0.10628
 C67 C 0.49318 0.07644 0.00709
 C68 C 0.51107 -0.10533 0.02602
 O69 O -0.04718 0.55183 0.97700
 O70 O 0.08856 0.54050 0.98800
 O71 O 0.01499 0.54066 0.91537
 O72 O 0.02740 0.55548 1.04987
 O73 O 0.01110 0.47258 1.07117
 O74 O -0.00099 0.45762 0.93620
 O75 O 0.07217 0.45757 1.00934
 O76 O -0.06309 0.46883 0.99800
 Cu77 Cu 0.02255 0.55551 0.98071
 Cu78 Cu 0.00318 0.45582 1.00598
 C79 C -0.07805 0.51216 0.98549
 C80 C 0.10307 0.49683 0.99960
 C81 C 0.00546 0.49665 0.90310
 C82 C 0.02102 0.51676 1.08320
 O83 O -0.02611 -0.05068 0.44358
 O84 O -0.01555 0.08364 0.45769
 O85 O 0.04776 0.02295 0.44688
 O86 O -0.08811 0.01025 0.45834
 O87 O -0.07130 -0.01052 0.54137
 O88 O 0.06386 0.00255 0.52999
 O89 O 0.00066 0.06340 0.54085
 O90 O -0.00953 -0.07137 0.52661
 Cu91 Cu -0.02206 0.01836 0.44319
 Cu92 Cu -0.00233 -0.00622 0.54305
 C93 C -0.01950 -0.08370 0.48253
 C94 C -0.00640 0.09614 0.50163
 C95 C 0.07873 0.01506 0.48664
 C96 C -0.10242 -0.00142 0.50210
 C97 C -0.22746 0.52560 0.97833
 C98 C -0.24368 0.57338 0.96428
 C99 C -0.29344 0.57991 0.96724
 C100 C -0.32834 0.53866 0.98479
 C101 C -0.31174 0.49012 0.99654
 C102 C -0.26174 0.48385 0.99364
 C103 C -0.17504 0.52017 0.97953
 C104 C -0.13083 0.51640 0.98170
 H105 H -0.21761 0.60590 0.95170
 H106 H -0.30433 0.61751 0.95487
 H107 H -0.33608 0.45716 1.01119
 H108 H -0.24950 0.44661 1.00479
 C109 C 0.24896 0.47623 0.99620
 C110 C 0.25792 0.44160 0.96618
 C111 C 0.30703 0.43165 0.96479
 C112 C 0.34788 0.45628 0.99345
 C113 C 0.33853 0.49155 1.02299
 C114 C 0.28937 0.50140 1.02436
 C115 C 0.19815 0.48505 0.99859
 C116 C 0.15506 0.49121 0.99982
 H117 H 0.22689 0.42201 0.94411
 H118 H 0.31308 0.40476 0.94127
 H119 H 0.36912 0.51060 1.04601
 H120 H 0.28285 0.52818 1.04781
 C121 C -0.02390 -0.23062 0.46184
 C122 C -0.00887 -0.26736 0.50200
 C123 C -0.00573 -0.31643 0.49343
 C124 C -0.01729 -0.32988 0.44413
 C125 C -0.03372 -0.29233 0.40428
 C126 C -0.03686 -0.24335 0.41315
 C127 C -0.02369 -0.17924 0.47009
 C128 C -0.02234 -0.13582 0.47628
 H129 H 0.00168 -0.25776 0.53985
 H130 H 0.00865 -0.34262 0.52535
 H131 H -0.04540 -0.30058 0.36617
 H132 H -0.04898 -0.21522 0.38179
 C133 C -0.00836 0.24332 0.51728
 C134 C 0.02003 0.28283 0.48930
 C135 C 0.01894 0.33294 0.49593
 C136 C -0.01052 0.34402 0.53074
 C137 C -0.03969 0.30409 0.55791
 C138 C -0.03857 0.25406 0.55120
 C139 C -0.00641 0.19166 0.51157
 C140 C -0.00563 0.14813 0.50709
 H141 H 0.04348 0.27487 0.46289
 H142 H 0.04222 0.36288 0.47494
 H143 H -0.06318 0.31155 0.58451
 H144 H -0.06095 0.22373 0.57278
 C145 C 0.52337 -0.00808 -0.22319
 C146 C 0.49488 0.02048 -0.26223
 C147 C 0.50051 0.01960 -0.31284
 C148 C 0.53484 -0.00981 -0.32498
 C149 C 0.56255 -0.03914 -0.28546
 C150 C 0.55683 -0.03824 -0.23494
 C151 C 0.51845 -0.00659 -0.17102
 C152 C 0.51443 -0.00630 -0.12712
 H153 H 0.46877 0.04386 -0.25355
 H154 H 0.47909 0.04300 -0.34242
 H155 H 0.58880 -0.06263 -0.29365
 H156 H 0.57879 -0.06079 -0.20503
 C157 C 0.46537 -0.02294 0.25166
 C158 C 0.43704 0.01421 0.25888
 C159 C 0.42696 0.01771 0.30740
 C160 C 0.44508 -0.01600 0.34953
 C161 C 0.47321 -0.05360 0.34193
 C162 C 0.48327 -0.05704 0.29319
 C163 C 0.47593 -0.02525 0.20140
 C164 C 0.48332 -0.02518 0.15839
 H165 H 0.42310 0.04084 0.22700
 H166 H 0.40592 0.04755 0.31212
 H167 H 0.48723 -0.08038 0.37358
 H168 H 0.50510 -0.08606 0.28793
 C169 C 0.53605 -0.25116 0.02846
 C170 C 0.57439 -0.25733 0.00128
 C171 C 0.58474 -0.30571 -0.00236
 C172 C 0.55681 -0.34959 0.02119
 C173 C 0.51857 -0.34244 0.04929
 C174 C 0.50839 -0.29373 0.05279
 C175 C 0.52497 -0.20083 0.02993
 C176 C 0.51752 -0.15767 0.02914
 H177 H 0.59581 -0.22459 -0.01810
 H178 H 0.61305 -0.30810 -0.02617
 H179 H 0.49713 -0.37403 0.07005
 H180 H 0.47885 -0.28934 0.07439
 C181 C 0.47908 0.22612 0.00121
 C182 C 0.51081 0.25480 0.03451
 C183 C 0.50462 0.30552 0.03428
 C184 C 0.46642 0.32810 0.00081
 C185 C 0.43519 0.29907 -0.03288
 C186 C 0.44147 0.24850 -0.03262
 C187 C 0.48425 0.17347 0.00243
 C188 C 0.48820 0.12922 0.00397
 H189 H 0.53998 0.23781 0.06099
 H190 H 0.52893 0.32670 0.06096
 H191 H 0.40595 0.31559 -0.05964
 H192 H 0.41677 0.22678 -0.05863
 C193 C -0.24804 -0.00171 0.52546
 C194 C -0.28216 0.02396 0.49004
 C195 C -0.33088 0.02560 0.50104
 C196 C -0.34657 0.00157 0.54805
 C197 C -0.31109 -0.02385 0.58342
 C198 C -0.26257 -0.02542 0.57214
 C199 C -0.19748 -0.00248 0.51497
 C200 C -0.15446 -0.00260 0.50797
 H201 H -0.27097 0.04320 0.45403
 H202 H -0.35513 0.04757 0.47310
 H203 H -0.32100 -0.04474 0.61922
 H204 H -0.23640 -0.04549 0.59987
 C205 C 0.22885 0.02359 0.47633
 C206 C 0.25928 -0.00344 0.51488
 C207 C 0.30957 -0.00579 0.50955
 C208 C 0.32997 0.01873 0.46541
 C209 C 0.29959 0.04737 0.42772
 C210 C 0.24935 0.04969 0.43315
 C211 C 0.17601 0.02211 0.47981
 C212 C 0.13158 0.01952 0.48265
 H213 H 0.24374 -0.02390 0.54842
 H214 H 0.33185 -0.02856 0.53893
 H215 H 0.31445 0.06718 0.39361
 H216 H 0.22619 0.07083 0.40313
 C217 C 0.02271 0.54043 1.22903
 C218 C -0.00363 0.57903 1.23625
 C219 C -0.00709 0.58796 1.28510
 C220 C 0.01575 0.55827 1.32840
 C221 C 0.04301 0.51983 1.32014
 C222 C 0.04635 0.51110 1.27102
 C223 C 0.02405 0.53056 1.17837
 C224 C 0.02351 0.52352 1.13525
 H225 H -0.02247 0.60176 1.20401
 H226 H -0.03018 0.61660 1.28837
 H227 H 0.06327 0.49709 1.35115
 H228 H 0.06729 0.48133 1.26585
 C229 C 0.00088 0.47966 0.75503
 C230 C 0.03454 0.51039 0.72451
 C231 C 0.03425 0.50312 0.67427
 C232 C 0.00036 0.46485 0.65411
 C233 C -0.03357 0.43453 0.68502
 C234 C -0.03325 0.44188 0.73510
 C235 C 0.00188 0.48607 0.80708
 C236 C 0.00304 0.49091 0.85087
 H237 H 0.06124 0.53967 0.73967
 H238 H 0.06109 0.52673 0.65154
 H239 H -0.06062 0.40528 0.67031
 H240 H -0.05951 0.41796 0.75833
   
