data_POSCAR
  _audit_creation_date              2014-09-24
  _audit_creation_method            'ToBaCCo'
  _symmetry_space_group_name_H-M    'P1'
  _symmetry_Int_Tables_number       1
  _symmetry_cell_setting            triclinic
  loop_
  _symmetry_equiv_pos_as_xyz
 x,y,z
_cell_length_a 32.9152
_cell_length_b 32.9068
_cell_length_c 32.9755
_cell_angle_alpha 89.970200
_cell_angle_beta 89.959900
_cell_angle_gamma 89.939500
loop_
  _atom_site_label
  _atom_site_type_symbol
  _atom_site_fract_x
  _atom_site_fract_y
  _atom_site_fract_z
C1 C 0.36165 0.36135 0.30956
 C2 C 0.39576 0.34312 0.29169
 C3 C 0.41267 0.30748 0.30817
 C4 C 0.39568 0.29084 0.34364
 C5 C 0.36155 0.30876 0.36187
 C6 C 0.34437 0.34408 0.34471
 C7 C 0.34359 0.39565 0.29185
 C8 C 0.30812 0.41274 0.30849
 C9 C 0.29147 0.39576 0.34396
 C10 C 0.30922 0.36146 0.36203
 C11 C 0.29140 0.34333 0.39618
 C12 C 0.30794 0.30772 0.41308
 C13 C 0.34339 0.29096 0.39603
 H14 H 0.40844 0.35610 0.26424
 H15 H 0.40830 0.26326 0.35650
 H16 H 0.35657 0.40832 0.26440
 H17 H 0.26402 0.40853 0.35694
 H18 H 0.26396 0.35639 0.40890
 H19 H 0.35629 0.26339 0.40863
 C20 C 0.36155 0.86165 -0.19189
 C21 C 0.39576 0.84345 -0.20973
 C22 C 0.41297 0.80784 -0.19316
 C23 C 0.39601 0.79149 -0.15742
 C24 C 0.36186 0.80940 -0.13927
 C25 C 0.34446 0.84452 -0.15661
 C26 C 0.34328 0.89583 -0.20972
 C27 C 0.30766 0.91298 -0.19312
 C28 C 0.29138 0.89601 -0.15736
 C29 C 0.30934 0.86187 -0.13925
 C30 C 0.29174 0.84391 -0.10489
 C31 C 0.30848 0.80847 -0.08782
 C32 C 0.34392 0.79177 -0.10491
 H33 H 0.40824 0.85654 -0.23723
 H34 H 0.40867 0.76412 -0.14412
 H35 H 0.35634 0.90833 -0.23723
 H36 H 0.26401 0.90863 -0.14404
 H37 H 0.26431 0.85694 -0.09212
 H38 H 0.35698 0.76434 -0.09216
 C39 C 0.86170 0.36178 -0.19165
 C40 C 0.89597 0.34364 -0.20944
 C41 C 0.91317 0.30802 -0.19286
 C42 C 0.89616 0.29164 -0.15717
 C43 C 0.86195 0.30948 -0.13909
 C44 C 0.84453 0.34459 -0.15644
 C45 C 0.84346 0.39596 -0.20950
 C46 C 0.80777 0.41306 -0.19299
 C47 C 0.79138 0.39601 -0.15730
 C48 C 0.80933 0.36186 -0.13916
 C49 C 0.79167 0.34380 -0.10485
 C50 C 0.80846 0.30838 -0.08776
 C51 C 0.84397 0.29178 -0.10479
 H52 H 0.90849 0.35677 -0.23690
 H53 H 0.90882 0.26427 -0.14387
 H54 H 0.85659 0.40850 -0.23695
 H55 H 0.76395 0.40858 -0.14406
 H56 H 0.76418 0.35676 -0.09213
 H57 H 0.85707 0.26437 -0.09204
 C58 C 0.86102 0.86210 0.30917
 C59 C 0.89528 0.84398 0.29144
 C60 C 0.91235 0.80851 0.30809
 C61 C 0.89540 0.79192 0.34359
 C62 C 0.86115 0.80972 0.36167
 C63 C 0.84378 0.84488 0.34434
 C64 C 0.84285 0.89624 0.29129
 C65 C 0.80712 0.91332 0.30767
 C66 C 0.79063 0.89630 0.34334
 C67 C 0.80853 0.86214 0.36154
 C68 C 0.79079 0.84404 0.39578
 C69 C 0.80754 0.80858 0.41285
 C70 C 0.84308 0.79197 0.39588
 H71 H 0.90796 0.85692 0.26398
 H72 H 0.90815 0.76446 0.35658
 H73 H 0.85608 0.90876 0.26387
 H74 H 0.76314 0.90887 0.35647
 H75 H 0.76327 0.85698 0.40845
 H76 H 0.85614 0.76454 0.40861
 C77 C 0.63845 0.63844 0.30918
 C78 C 0.60431 0.65666 0.29136
 C79 C 0.58723 0.69214 0.30800
 C80 C 0.60407 0.70864 0.34356
 C81 C 0.63821 0.69074 0.36173
 C82 C 0.65558 0.65558 0.34444
 C83 C 0.65667 0.60429 0.29135
 C84 C 0.69215 0.58722 0.30798
 C85 C 0.70865 0.60409 0.34353
 C86 C 0.69075 0.63824 0.36172
 C87 C 0.70842 0.65628 0.39597
 C88 C 0.69168 0.69175 0.41301
 C89 C 0.65620 0.70843 0.39598
 H90 H 0.59174 0.64379 0.26384
 H91 H 0.59132 0.73609 0.35654
 H92 H 0.64381 0.59171 0.26384
 H93 H 0.73611 0.59135 0.35650
 H94 H 0.73588 0.64328 0.40867
 H95 H 0.64316 0.73588 0.40868
 C96 C 0.63892 0.13803 -0.19098
 C97 C 0.60467 0.15617 -0.20869
 C98 C 0.58765 0.19170 -0.19209
 C99 C 0.60468 0.20834 -0.15669
 C100 C 0.63892 0.19051 -0.13863
 C101 C 0.65621 0.15529 -0.15589
 C102 C 0.65704 0.10380 -0.20879
 C103 C 0.69273 0.08669 -0.19239
 C104 C 0.70925 0.10376 -0.15681
 C105 C 0.69142 0.13798 -0.13869
 C106 C 0.70920 0.15609 -0.10453
 C107 C 0.69255 0.19161 -0.08752
 C108 C 0.65704 0.20829 -0.10449
 H109 H 0.59194 0.14319 -0.23608
 H110 H 0.59197 0.23582 -0.14373
 H111 H 0.64379 0.09125 -0.23615
 H112 H 0.73670 0.09116 -0.14366
 H113 H 0.73668 0.14309 -0.09187
 H114 H 0.64406 0.23577 -0.09180
 C115 C 0.13910 0.63814 -0.19107
 C116 C 0.10486 0.65629 -0.20882
 C117 C 0.08782 0.69181 -0.19223
 C118 C 0.10480 0.70842 -0.15679
 C119 C 0.13903 0.69060 -0.13872
 C120 C 0.15637 0.65540 -0.15597
 C121 C 0.15722 0.60391 -0.20886
 C122 C 0.19292 0.58681 -0.19245
 C123 C 0.20946 0.60392 -0.15688
 C124 C 0.19160 0.63814 -0.13877
 C125 C 0.20934 0.65629 -0.10459
 C126 C 0.19261 0.69178 -0.08758
 C127 C 0.15709 0.70839 -0.10457
 H128 H 0.09216 0.64332 -0.23623
 H129 H 0.09207 0.73590 -0.14383
 H130 H 0.14398 0.59135 -0.23621
 H131 H 0.23692 0.59134 -0.14374
 H132 H 0.23685 0.64335 -0.09191
 H133 H 0.14403 0.73585 -0.09189
 C134 C 0.13866 0.13855 0.30839
 C135 C 0.10449 0.15674 0.29054
 C136 C 0.08725 0.19233 0.30707
 C137 C 0.10411 0.20864 0.34284
 C138 C 0.13824 0.19070 0.36102
 C139 C 0.15569 0.15562 0.34367
 C140 C 0.15694 0.10444 0.29051
 C141 C 0.19258 0.08729 0.30701
 C142 C 0.20884 0.10417 0.34280
 C143 C 0.19082 0.13826 0.36100
 C144 C 0.20834 0.15617 0.39540
 C145 C 0.19153 0.19155 0.41252
 C146 C 0.15611 0.20828 0.39542
 H147 H 0.09209 0.14366 0.26303
 H148 H 0.09142 0.23600 0.35611
 H149 H 0.14390 0.09201 0.26299
 H150 H 0.23623 0.09154 0.35605
 H151 H 0.23576 0.14314 0.40815
 H152 H 0.14301 0.23567 0.40819
 C153 C 0.63837 0.36165 0.69036
 C154 C 0.60417 0.34353 0.70814
 C155 C 0.58708 0.30813 0.69144
 C156 C 0.60397 0.29163 0.65586
 C157 C 0.63816 0.30944 0.63773
 C158 C 0.65553 0.34452 0.65509
 C159 C 0.65663 0.39569 0.70828
 C160 C 0.69216 0.41265 0.69170
 C161 C 0.70869 0.39581 0.65611
 C162 C 0.69076 0.36177 0.63786
 C163 C 0.70847 0.34375 0.60358
 C164 C 0.69174 0.30835 0.58650
 C165 C 0.65622 0.29174 0.60347
 H166 H 0.59157 0.35639 0.73567
 H167 H 0.59120 0.26423 0.64284
 H168 H 0.64373 0.40827 0.73581
 H169 H 0.73619 0.40847 0.64317
 H170 H 0.73597 0.35669 0.59093
 H171 H 0.64318 0.26434 0.59072
 C172 C 0.63796 0.86104 1.19122
 C173 C 0.60372 0.84301 1.20903
 C174 C 0.58654 0.80741 1.19256
 C175 C 0.60358 0.79090 1.15691
 C176 C 0.63781 0.80865 1.13879
 C177 C 0.65516 0.84377 1.15604
 C178 C 0.65620 0.89519 1.20899
 C179 C 0.69173 0.91211 1.19234
 C180 C 0.70827 0.89511 1.15685
 C181 C 0.69037 0.86099 1.13875
 C182 C 0.70810 0.84289 1.10455
 C183 C 0.69141 0.80746 1.08754
 C184 C 0.65589 0.79087 1.10456
 H185 H 0.59120 0.85623 1.23645
 H186 H 0.59094 0.76351 1.14371
 H187 H 0.64330 0.90790 1.23645
 H188 H 0.73576 0.90774 1.14384
 H189 H 0.73558 0.85585 1.09185
 H190 H 0.64288 0.76344 1.09185
 C191 C 0.13817 0.36099 1.19149
 C192 C 0.10410 0.34271 1.20942
 C193 C 0.08712 0.30699 1.19299
 C194 C 0.10415 0.29061 1.15730
 C195 C 0.13821 0.30859 1.13908
 C196 C 0.15538 0.34382 1.15628
 C197 C 0.15623 0.39528 1.20918
 C198 C 0.19160 0.41244 1.19242
 C199 C 0.20816 0.39551 1.15690
 C200 C 0.19045 0.36125 1.13888
 C201 C 0.20821 0.34323 1.10465
 C202 C 0.19169 0.30767 1.08773
 C203 C 0.15631 0.29090 1.10483
 H204 H 0.09157 0.35584 1.23688
 H205 H 0.09167 0.26314 1.14413
 H206 H 0.14332 0.40792 1.23668
 H207 H 0.23553 0.40831 1.14381
 H208 H 0.23559 0.35631 1.09188
 H209 H 0.14342 0.26338 1.09219
 C210 C 0.13763 0.86117 0.69123
 C211 C 0.10350 0.84297 0.70909
 C212 C 0.08638 0.80737 0.69256
 C213 C 0.10335 0.79104 0.65680
 C214 C 0.13747 0.80897 0.63861
 C215 C 0.15476 0.84408 0.65594
 C216 C 0.15585 0.89529 0.70908
 C217 C 0.19130 0.91235 0.69240
 C218 C 0.20775 0.89555 0.65678
 C219 C 0.18988 0.86146 0.63860
 C220 C 0.20756 0.84355 0.60428
 C221 C 0.19093 0.80812 0.58721
 C222 C 0.15550 0.79137 0.60427
 H223 H 0.09104 0.85606 0.73660
 H224 H 0.09076 0.76365 0.64355
 H225 H 0.14300 0.90785 0.73665
 H226 H 0.23517 0.90830 0.64375
 H227 H 0.23497 0.85662 0.59156
 H228 H 0.14254 0.76394 0.59151
 C229 C 0.36141 0.63854 0.69046
 C230 C 0.39554 0.65670 0.70826
 C231 C 0.41250 0.69224 0.69168
 C232 C 0.39556 0.70886 0.65619
 C233 C 0.36142 0.69102 0.63804
 C234 C 0.34417 0.65580 0.65529
 C235 C 0.34329 0.60436 0.70827
 C236 C 0.30779 0.58737 0.69172
 C237 C 0.29117 0.60433 0.65623
 C238 C 0.30899 0.63852 0.63806
 C239 C 0.29121 0.65664 0.60388
 C240 C 0.30783 0.69215 0.58688
 C241 C 0.34331 0.70880 0.60386
 H242 H 0.40818 0.64373 0.73572
 H243 H 0.40822 0.73637 0.64326
 H244 H 0.35624 0.59170 0.73574
 H245 H 0.26370 0.59164 0.64332
 H246 H 0.26375 0.64367 0.59122
 H247 H 0.35626 0.73629 0.59119
 C248 C 0.36173 0.13842 1.19184
 C249 C 0.39601 0.15650 1.20956
 C250 C 0.41323 0.19205 1.19293
 C251 C 0.39622 0.20844 1.15723
 C252 C 0.36201 0.19065 1.13920
 C253 C 0.34460 0.15559 1.15661
 C254 C 0.34343 0.10433 1.20977
 C255 C 0.30775 0.08731 1.19330
 C256 C 0.29145 0.10429 1.15757
 C257 C 0.30943 0.13834 1.13936
 C258 C 0.29179 0.15633 1.10505
 C259 C 0.30852 0.19170 1.08790
 C260 C 0.34401 0.20833 1.10488
 H261 H 0.40850 0.14338 1.23703
 H262 H 0.40889 0.23577 1.14389
 H263 H 0.35651 0.09181 1.23725
 H264 H 0.26403 0.09177 1.14434
 H265 H 0.26433 0.14337 1.09238
 H266 H 0.35706 0.23571 1.09207
 C267 C 0.86126 0.63774 1.19123
 C268 C 0.89541 0.65599 1.20899
 C269 C 0.91241 0.69146 1.19225
 C270 C 0.89547 0.70793 1.15670
 C271 C 0.86135 0.69003 1.13863
 C272 C 0.84407 0.65487 1.15599
 C273 C 0.84314 0.60354 1.20910
 C274 C 0.80755 0.58636 1.19259
 C275 C 0.79115 0.60335 1.15688
 C276 C 0.80897 0.63752 1.13872
 C277 C 0.79125 0.65555 1.10444
 C278 C 0.80788 0.69103 1.08738
 C279 C 0.84331 0.70772 1.10437
 H280 H 0.90807 0.64315 1.23650
 H281 H 0.90815 0.73536 1.14363
 H282 H 0.85627 0.59106 1.23657
 H283 H 0.76379 0.59072 1.14364
 H284 H 0.76382 0.64254 1.09174
 H285 H 0.85629 0.73517 1.09164
 C286 C 0.86146 0.13872 0.69083
 C287 C 0.89554 0.15692 0.70868
 C288 C 0.91255 0.19241 0.69206
 C289 C 0.89570 0.20896 0.65649
 C290 C 0.86161 0.19108 0.63828
 C291 C 0.84432 0.15589 0.65556
 C292 C 0.84330 0.10456 0.70866
 C293 C 0.80787 0.08752 0.69201
 C294 C 0.79137 0.10439 0.65644
 C295 C 0.80922 0.13854 0.63826
 C296 C 0.79156 0.15656 0.60397
 C297 C 0.80821 0.19204 0.58693
 C298 C 0.84361 0.20876 0.60399
 H299 H 0.90811 0.14401 0.73620
 H300 H 0.90841 0.23644 0.64353
 H301 H 0.85617 0.09197 0.73619
 H302 H 0.76395 0.09165 0.64345
 H303 H 0.76415 0.14352 0.59125
 H304 H 0.85658 0.23623 0.59128
 C305 C 0.36097 0.36143 0.69096
 C306 C 0.34283 0.39565 0.70876
 C307 C 0.30727 0.41267 0.69226
 C308 C 0.29055 0.39562 0.65689
 C309 C 0.30836 0.36140 0.63873
 C310 C 0.34365 0.34415 0.65587
 C311 C 0.39526 0.34333 0.70863
 C312 C 0.41232 0.30784 0.69199
 C313 C 0.39527 0.29119 0.65660
 C314 C 0.36097 0.30896 0.63858
 C315 C 0.34284 0.29118 0.60445
 C316 C 0.30728 0.30779 0.58753
 C317 C 0.29056 0.34326 0.60459
 H318 H 0.35588 0.40836 0.73613
 H319 H 0.26303 0.40832 0.64401
 H320 H 0.40799 0.35632 0.73601
 H321 H 0.40801 0.26373 0.64361
 H322 H 0.35588 0.26373 0.59173
 H323 H 0.26304 0.35622 0.59197
 C324 C 0.36184 0.86290 0.19017
 C325 C 0.34366 0.89709 0.20796
 C326 C 0.30808 0.91407 0.19144
 C327 C 0.29140 0.89700 0.15605
 C328 C 0.30926 0.86279 0.13791
 C329 C 0.34456 0.84559 0.15507
 C330 C 0.39612 0.84479 0.20788
 C331 C 0.41317 0.80928 0.19128
 C332 C 0.39618 0.79265 0.15586
 C333 C 0.36191 0.81041 0.13781
 C334 C 0.34380 0.79256 0.10371
 C335 C 0.30821 0.80910 0.08679
 C336 C 0.29145 0.84458 0.10380
 H337 H 0.35667 0.90981 0.23534
 H338 H 0.26386 0.90965 0.14317
 H339 H 0.40880 0.85777 0.23529
 H340 H 0.40892 0.76517 0.14290
 H341 H 0.35687 0.76511 0.09104
 H342 H 0.26390 0.85748 0.09117
 C343 C 0.86279 0.36155 0.19029
 C344 C 0.84467 0.39585 0.20798
 C345 C 0.80920 0.41292 0.19132
 C346 C 0.79261 0.39591 0.15589
 C347 C 0.81038 0.36161 0.13787
 C348 C 0.84554 0.34426 0.15517
 C349 C 0.89696 0.34335 0.20812
 C350 C 0.91395 0.30776 0.19161
 C351 C 0.89694 0.29110 0.15619
 C352 C 0.86276 0.30896 0.13802
 C353 C 0.84462 0.29115 0.10389
 C354 C 0.80916 0.30788 0.08684
 C355 C 0.79259 0.34348 0.10375
 H356 H 0.85761 0.40854 0.23540
 H357 H 0.76516 0.40865 0.14290
 H358 H 0.90964 0.35635 0.23552
 H359 H 0.90961 0.26355 0.14331
 H360 H 0.85755 0.26360 0.09128
 H361 H 0.76515 0.35653 0.09103
 C362 C 0.86151 0.86197 0.69082
 C363 C 0.84327 0.89608 0.70873
 C364 C 0.80764 0.91302 0.69229
 C365 C 0.79097 0.89603 0.65687
 C366 C 0.80888 0.86193 0.63862
 C367 C 0.84423 0.84474 0.65569
 C368 C 0.89586 0.84391 0.70843
 C369 C 0.91299 0.80850 0.69169
 C370 C 0.89598 0.79191 0.65626
 C371 C 0.86163 0.80964 0.63831
 C372 C 0.84350 0.79188 0.60417
 C373 C 0.80786 0.80843 0.58734
 C374 C 0.79108 0.84382 0.60447
 H375 H 0.85627 0.90875 0.73614
 H376 H 0.76340 0.90868 0.64404
 H377 H 0.90855 0.85685 0.73586
 H378 H 0.90877 0.76451 0.64320
 H379 H 0.85658 0.76448 0.59138
 H380 H 0.76350 0.85673 0.59193
 C381 C 0.63856 0.63857 0.69172
 C382 C 0.65680 0.60437 0.70951
 C383 C 0.69225 0.58726 0.69277
 C384 C 0.70875 0.60422 0.65722
 C385 C 0.69086 0.63841 0.63910
 C386 C 0.65569 0.65573 0.65643
 C387 C 0.60433 0.65676 0.70952
 C388 C 0.58717 0.69218 0.69278
 C389 C 0.60408 0.70869 0.65722
 C390 C 0.63829 0.69086 0.63910
 C391 C 0.65626 0.70855 0.60479
 C392 C 0.69175 0.69189 0.58773
 C393 C 0.70851 0.65645 0.60479
 H394 H 0.64393 0.59172 0.73702
 H395 H 0.73618 0.59147 0.64416
 H396 H 0.59171 0.64388 0.73704
 H397 H 0.59127 0.73609 0.64415
 H398 H 0.64318 0.73597 0.59206
 H399 H 0.73597 0.64345 0.59205
 C400 C 0.63841 0.13753 0.19008
 C401 C 0.65664 0.10342 0.20799
 C402 C 0.69238 0.08661 0.19165
 C403 C 0.70918 0.10371 0.15631
 C404 C 0.69128 0.13783 0.13805
 C405 C 0.65582 0.15490 0.15504
 C406 C 0.60397 0.15546 0.20763
 C407 C 0.58687 0.19091 0.19096
 C408 C 0.60399 0.20765 0.15559
 C409 C 0.63844 0.19003 0.13768
 C410 C 0.65669 0.20793 0.10364
 C411 C 0.69242 0.19149 0.08687
 C412 C 0.70920 0.15607 0.10399
 H413 H 0.64352 0.09065 0.23533
 H414 H 0.73685 0.09116 0.14356
 H415 H 0.59120 0.14241 0.23500
 H416 H 0.59122 0.23510 0.14260
 H417 H 0.64361 0.23534 0.09086
 H418 H 0.73685 0.14326 0.09149
 C419 C 0.13820 0.63844 0.19025
 C420 C 0.15628 0.60420 0.20803
 C421 C 0.19184 0.58719 0.19150
 C422 C 0.20856 0.60420 0.15608
 C423 C 0.19079 0.63845 0.13795
 C424 C 0.15554 0.65574 0.15514
 C425 C 0.10397 0.65658 0.20800
 C426 C 0.08701 0.69215 0.19143
 C427 C 0.10407 0.70883 0.15601
 C428 C 0.13831 0.69100 0.13791
 C429 C 0.15651 0.70882 0.10380
 C430 C 0.19205 0.69216 0.08685
 C431 C 0.20866 0.65661 0.10384
 H432 H 0.14324 0.59150 0.23544
 H433 H 0.23609 0.59150 0.14319
 H434 H 0.09124 0.64357 0.23540
 H435 H 0.09140 0.73636 0.14309
 H436 H 0.14356 0.73634 0.09113
 H437 H 0.23617 0.64362 0.09120
 C438 C 0.13821 0.13838 0.69177
 C439 C 0.15643 0.10419 0.70960
 C440 C 0.19178 0.08696 0.69279
 C441 C 0.20819 0.10377 0.65714
 C442 C 0.19033 0.13795 0.63898
 C443 C 0.15527 0.15541 0.65638
 C444 C 0.10411 0.15671 0.70965
 C445 C 0.08701 0.19214 0.69290
 C446 C 0.10384 0.20854 0.65724
 C447 C 0.13792 0.19056 0.63903
 C448 C 0.15585 0.20813 0.60464
 C449 C 0.19124 0.19133 0.58751
 C450 C 0.20793 0.15586 0.60459
 H451 H 0.14363 0.09165 0.73720
 H452 H 0.23554 0.09092 0.64402
 H453 H 0.09156 0.14392 0.73724
 H454 H 0.09107 0.23595 0.64417
 H455 H 0.14284 0.23558 0.59190
 H456 H 0.23532 0.14275 0.59180
 C457 C 0.36157 0.63892 0.30884
 C458 C 0.34351 0.60464 0.29115
 C459 C 0.30808 0.58755 0.30786
 C460 C 0.29146 0.60456 0.34333
 C461 C 0.30917 0.63883 0.36134
 C462 C 0.34429 0.65618 0.34400
 C463 C 0.39572 0.65710 0.29100
 C464 C 0.41267 0.69265 0.30755
 C465 C 0.39562 0.70930 0.34300
 C466 C 0.36147 0.69145 0.36117
 C467 C 0.34332 0.70922 0.39536
 C468 C 0.30790 0.69248 0.41243
 C469 C 0.29137 0.65692 0.39551
 H470 H 0.35647 0.59194 0.26370
 H471 H 0.26405 0.59180 0.35637
 H472 H 0.40843 0.64412 0.26357
 H473 H 0.40827 0.73680 0.35591
 H474 H 0.35621 0.73674 0.40798
 H475 H 0.26396 0.64387 0.40826
 C476 C 0.36203 0.13757 0.80980
 C477 C 0.34395 0.10332 0.79211
 C478 C 0.30850 0.08628 0.80882
 C479 C 0.29191 0.10327 0.84430
 C480 C 0.30966 0.13752 0.86233
 C481 C 0.34479 0.15484 0.84497
 C482 C 0.39614 0.15576 0.79190
 C483 C 0.41307 0.19133 0.80840
 C484 C 0.39610 0.20797 0.84388
 C485 C 0.36199 0.19011 0.86211
 C486 C 0.34387 0.20793 0.89627
 C487 C 0.30843 0.19125 0.91335
 C488 C 0.29187 0.15568 0.89649
 H489 H 0.35688 0.09064 0.76464
 H490 H 0.26447 0.09056 0.85733
 H491 H 0.40881 0.14279 0.76445
 H492 H 0.40874 0.23550 0.85675
 H493 H 0.35678 0.23546 0.90886
 H494 H 0.26444 0.14267 0.90924
 C495 C 0.86237 0.63802 0.80946
 C496 C 0.84443 0.60367 0.79181
 C497 C 0.80903 0.58652 0.80851
 C498 C 0.79234 0.60350 0.84396
 C499 C 0.80994 0.63785 0.86194
 C500 C 0.84502 0.65529 0.84459
 C501 C 0.89644 0.65630 0.79159
 C502 C 0.91325 0.69195 0.80805
 C503 C 0.89614 0.70860 0.84347
 C504 C 0.86206 0.69065 0.86169
 C505 C 0.84381 0.70843 0.89582
 C506 C 0.80843 0.69161 0.91291
 C507 C 0.79204 0.65596 0.89606
 H508 H 0.85743 0.59100 0.76438
 H509 H 0.76494 0.59070 0.85698
 H510 H 0.90920 0.64331 0.76418
 H511 H 0.90867 0.73619 0.85631
 H512 H 0.85660 0.73603 0.90840
 H513 H 0.76467 0.64283 0.90881
 C514 C 0.86262 0.13769 0.30920
 C515 C 0.84446 0.10348 0.29146
 C516 C 0.80891 0.08655 0.30809
 C517 C 0.79226 0.10364 0.34349
 C518 C 0.81005 0.13784 0.36154
 C519 C 0.84530 0.15504 0.34430
 C520 C 0.89689 0.15576 0.29144
 C521 C 0.91390 0.19127 0.30803
 C522 C 0.89682 0.20797 0.34343
 C523 C 0.86255 0.19025 0.36150
 C524 C 0.84434 0.20814 0.39558
 C525 C 0.80878 0.19159 0.41253
 C526 C 0.79219 0.15606 0.39562
 H527 H 0.85745 0.09072 0.26406
 H528 H 0.76475 0.09101 0.35646
 H529 H 0.90963 0.14275 0.26404
 H530 H 0.90950 0.23545 0.35636
 H531 H 0.85729 0.23564 0.40822
 H532 H 0.76467 0.14314 0.40827
 C533 C 0.63850 0.36110 0.30799
 C534 C 0.65666 0.39533 0.29019
 C535 C 0.69204 0.41246 0.30692
 C536 C 0.70855 0.39552 0.34246
 C537 C 0.69077 0.36130 0.36056
 C538 C 0.65567 0.34393 0.34325
 C539 C 0.60435 0.34288 0.29020
 C540 C 0.58729 0.30742 0.30693
 C541 C 0.60427 0.29088 0.34245
 C542 C 0.63841 0.30875 0.36056
 C543 C 0.65646 0.29106 0.39483
 C544 C 0.69186 0.30780 0.41187
 C545 C 0.70847 0.34329 0.39483
 H546 H 0.64378 0.40797 0.26269
 H547 H 0.73592 0.40829 0.35551
 H548 H 0.59170 0.35578 0.26271
 H549 H 0.59156 0.26345 0.35550
 H550 H 0.64350 0.26360 0.40756
 H551 H 0.73586 0.35636 0.40755
 C552 C 0.63749 0.86233 0.81018
 C553 C 0.65562 0.89656 0.79246
 C554 C 0.69122 0.91340 0.80897
 C555 C 0.70793 0.89622 0.84430
 C556 C 0.69013 0.86197 0.86236
 C557 C 0.65484 0.84486 0.84519
 C558 C 0.60324 0.84433 0.79244
 C559 C 0.58627 0.80875 0.80892
 C560 C 0.60333 0.79193 0.84426
 C561 C 0.63759 0.80959 0.86234
 C562 C 0.65582 0.79158 0.89634
 C563 C 0.69140 0.80807 0.91326
 C564 C 0.70802 0.84364 0.89636
 H565 H 0.64258 0.90939 0.76511
 H566 H 0.73549 0.90878 0.85717
 H567 H 0.59050 0.85744 0.76508
 H568 H 0.59067 0.76438 0.85712
 H569 H 0.64285 0.76406 0.90895
 H570 H 0.73555 0.85650 0.90898
 C571 C 0.13768 0.36233 0.81046
 C572 C 0.15573 0.39659 0.79274
 C573 C 0.19134 0.41345 0.80918
 C574 C 0.20813 0.39628 0.84448
 C575 C 0.19039 0.36201 0.86256
 C576 C 0.15510 0.34486 0.84544
 C577 C 0.10342 0.34432 0.79276
 C578 C 0.08651 0.30870 0.80924
 C579 C 0.10364 0.29186 0.84454
 C580 C 0.13792 0.30956 0.86259
 C581 C 0.15621 0.29156 0.89657
 C582 C 0.19178 0.30810 0.91346
 C583 C 0.20834 0.34368 0.89654
 H584 H 0.14264 0.40941 0.76541
 H585 H 0.23570 0.40887 0.85731
 H586 H 0.09062 0.35745 0.76544
 H587 H 0.09103 0.26429 0.85739
 H588 H 0.14330 0.26402 0.90919
 H589 H 0.23587 0.35658 0.90913
 C590 C 0.13808 0.86260 0.30883
 C591 C 0.15622 0.89686 0.29109
 C592 C 0.19161 0.91395 0.30783
 C593 C 0.20813 0.89696 0.34335
 C594 C 0.19034 0.86271 0.36142
 C595 C 0.15524 0.84539 0.34407
 C596 C 0.10397 0.84438 0.29098
 C597 C 0.08696 0.80887 0.30763
 C598 C 0.10388 0.79232 0.34316
 C599 C 0.13798 0.81017 0.36132
 C600 C 0.15601 0.79240 0.39554
 C601 C 0.19143 0.80905 0.41260
 C602 C 0.20805 0.84459 0.39564
 H603 H 0.14334 0.90952 0.26360
 H604 H 0.23551 0.90970 0.35641
 H605 H 0.09134 0.85729 0.26348
 H606 H 0.09119 0.76485 0.35615
 H607 H 0.14304 0.76490 0.40819
 H608 H 0.23547 0.85759 0.40838
 O609 O 0.24561 1.04106 0.30135
 O610 O 0.30133 0.96164 0.24555
 O611 O 0.30179 1.04108 0.24616
 O612 O 0.24570 0.96161 0.30133
 O613 O 0.19845 0.96184 0.25397
 O614 O 0.25461 1.04131 0.19881
 O615 O 0.25406 0.96190 0.19821
 O616 O 0.19844 1.04130 0.25400
 Cu617 Cu 0.27832 1.00130 0.27833
 Cu618 Cu 0.22167 1.00163 0.22152
 C619 C 0.21267 1.05527 0.28700
 C620 C 0.28699 0.94780 0.21256
 C621 C 0.28759 1.05529 0.21323
 C622 C 0.21274 0.94774 0.28688
 O623 O 0.30087 0.46050 0.74615
 O624 O 0.24577 0.54039 0.80183
 O625 O 0.24550 0.46095 0.80214
 O626 O 0.30114 0.53988 0.74587
 O627 O 0.25358 0.53994 0.69880
 O628 O 0.19792 0.46103 0.75509
 O629 O 0.19827 0.54045 0.75480
 O630 O 0.25330 0.46055 0.69911
 Cu631 Cu 0.27808 0.50042 0.77871
 Cu632 Cu 0.22099 0.50050 0.72226
 C633 C 0.28631 0.44650 0.71334
 C634 C 0.21279 0.55461 0.78761
 C635 C 0.21241 0.44709 0.78799
 C636 C 0.28667 0.55380 0.71295
 O637 O 0.74603 -0.04051 0.19897
 O638 O 0.80210 0.03876 0.25423
 O639 O 0.80161 -0.04065 0.25465
 O640 O 0.74642 0.03885 0.19861
 O641 O 0.69900 0.03917 0.24588
 O642 O 0.75424 -0.04034 0.30187
 O643 O 0.75469 0.03908 0.30151
 O644 O 0.69862 -0.04018 0.24625
 Cu645 Cu 0.77880 -0.00094 0.22190
 Cu646 Cu 0.72190 -0.00050 0.27862
 C647 C 0.71296 -0.05427 0.21335
 C648 C 0.78774 0.05287 0.28711
 C649 C 0.78719 -0.05461 0.28761
 C650 C 0.71344 0.05296 0.21289
 O651 O 0.80233 0.53894 0.75449
 O652 O 0.74640 0.46005 0.69859
 O653 O 0.74635 0.53943 0.69919
 O654 O 0.80206 0.45947 0.75424
 O655 O 0.75481 0.45938 0.80158
 O656 O 0.69905 0.53930 0.74658
 O657 O 0.69910 0.45991 0.74598
 O658 O 0.75502 0.53883 0.80186
 Cu659 Cu 0.77903 0.49948 0.72190
 Cu660 Cu 0.72228 0.49933 0.77876
 C661 C 0.78798 0.55281 0.78747
 C662 C 0.71339 0.44613 0.71293
 C663 C 0.71338 0.55341 0.71368
 C664 C 0.78776 0.44524 0.78715
 O665 O 0.24567 0.46010 0.19891
 O666 O 0.30144 0.53966 0.25407
 O667 O 0.30145 0.46027 0.25439
 O668 O 0.24589 0.53947 0.19838
 O669 O 0.19848 0.53970 0.24566
 O670 O 0.25406 0.46048 0.30169
 O671 O 0.25404 0.53987 0.30136
 O672 O 0.19828 0.46031 0.24621
 Cu673 Cu 0.27837 0.49984 0.22170
 Cu674 Cu 0.22146 0.50013 0.27847
 C675 C 0.21267 0.44622 0.21334
 C676 C 0.28703 0.55376 0.28694
 C677 C 0.28705 0.44644 0.28737
 C678 C 0.21290 0.55351 0.21267
 O679 O 0.69792 0.96102 0.75494
 O680 O 0.75367 1.04007 0.69895
 O681 O 0.75353 0.96072 0.69916
 O682 O 0.69821 1.04043 0.75480
 O683 O 0.74560 1.04033 0.80193
 O684 O 0.80099 0.96065 0.74632
 O685 O 0.80111 1.04000 0.74613
 O686 O 0.74539 0.96090 0.80210
 Cu687 Cu 0.72106 1.00056 0.72226
 Cu688 Cu 0.77802 1.00045 0.77885
 C689 C 0.71234 0.94704 0.78785
 C690 C 0.78672 1.05393 0.71320
 C691 C 0.78654 0.94671 0.71343
 C692 C 0.71264 1.05454 0.78766
 O693 O 0.74632 0.53959 0.30117
 O694 O 0.80232 0.46054 0.24532
 O695 O 0.80189 0.54001 0.24539
 O696 O 0.74610 0.46020 0.30047
 O697 O 0.69885 0.46038 0.25311
 O698 O 0.75470 0.54008 0.19806
 O699 O 0.75506 0.46064 0.19797
 O700 O 0.69907 0.53979 0.25379
 Cu701 Cu 0.77889 0.50006 0.27782
 Cu702 Cu 0.72221 0.50025 0.22098
 C703 C 0.71335 0.55360 0.28682
 C704 C 0.78804 0.44664 0.21236
 C705 C 0.78760 0.55420 0.21248
 C706 C 0.71316 0.44627 0.28600
 O707 O 0.24552 -0.04020 0.69908
 O708 O 0.30162 0.03877 0.75473
 O709 O 0.30177 -0.04067 0.75412
 O710 O 0.24585 0.03916 0.69921
 O711 O 0.19866 0.03911 0.74670
 O712 O 0.25465 -0.04075 0.80158
 O713 O 0.25442 0.03867 0.80222
 O714 O 0.19834 -0.04029 0.74659
 Cu715 Cu 0.27841 -0.00072 0.72204
 Cu716 Cu 0.22181 -0.00084 0.77904
 C717 C 0.21255 -0.05412 0.71353
 C718 C 0.28736 0.05263 0.78777
 C719 C 0.28757 -0.05487 0.78706
 C720 C 0.21293 0.05315 0.71374
 O721 O 0.25435 0.19799 0.96095
 O722 O 0.19851 0.25365 1.04012
 O723 O 0.19868 0.25385 0.96091
 O724 O 0.25453 0.19825 1.04020
 O725 O 0.30183 0.24567 1.04012
 O726 O 0.24596 0.30127 0.96088
 O727 O 0.24579 0.30108 1.04009
 O728 O 0.30163 0.24541 0.96086
 Cu729 Cu 0.22179 0.22117 1.00054
 Cu730 Cu 0.27854 0.27811 1.00047
 C731 C 0.28731 0.21238 0.94698
 C732 C 0.21282 0.28665 1.05404
 C733 C 0.21298 0.28689 0.94700
 C734 C 0.28748 0.21270 1.05413
 O735 O 0.24539 0.80229 0.46028
 O736 O 0.30107 0.74633 0.53937
 O737 O 0.30105 0.74647 0.46014
 O738 O 0.24500 0.80172 0.53953
 O739 O 0.19773 0.75429 0.53935
 O740 O 0.25379 0.69902 0.46002
 O741 O 0.25380 0.69889 0.53925
 O742 O 0.19812 0.75484 0.46010
 Cu743 Cu 0.27786 0.77896 0.49986
 Cu744 Cu 0.22112 0.72201 0.49965
 C745 C 0.21247 0.78790 0.44626
 C746 C 0.28674 0.71328 0.55323
 C747 C 0.28675 0.71349 0.44613
 C748 C 0.21204 0.78723 0.55342
 O749 O 0.30199 0.75457 -0.03994
 O750 O 0.24628 0.69893 0.03938
 O751 O 0.24656 0.69866 -0.03987
 O752 O 0.30174 0.75488 0.03933
 O753 O 0.25421 0.80215 0.03914
 O754 O 0.19903 0.74594 -0.04006
 O755 O 0.19875 0.74620 0.03918
 O756 O 0.25446 0.80185 -0.04013
 Cu757 Cu 0.27891 0.72204 -0.00023
 Cu758 Cu 0.22185 0.77877 -0.00049
 C759 C 0.28750 0.78748 -0.05401
 C760 C 0.21320 0.71326 0.05321
 C761 C 0.21356 0.71295 -0.05390
 C762 C 0.28722 0.78788 0.05316
 O763 O 0.19793 0.24545 0.46038
 O764 O 0.25332 0.30113 0.53981
 O765 O 0.25373 0.30102 0.46057
 O766 O 0.19783 0.24527 0.53970
 O767 O 0.24523 0.19787 0.53977
 O768 O 0.30113 0.25361 0.46066
 O769 O 0.30073 0.25373 0.53989
 O770 O 0.24533 0.19805 0.46045
 Cu771 Cu 0.22094 0.27795 0.50010
 Cu772 Cu 0.27784 0.22106 0.50021
 C773 C 0.21240 0.21249 0.44640
 C774 C 0.28628 0.28672 0.55382
 C775 C 0.28677 0.28662 0.44670
 C776 C 0.21224 0.21230 0.55371
 O777 O 0.69817 0.75348 1.03980
 O778 O 0.75421 0.69814 0.96043
 O779 O 0.75390 0.69773 1.03968
 O780 O 0.69823 0.75372 0.96057
 O781 O 0.74552 0.80114 0.96073
 O782 O 0.80119 0.74516 1.03981
 O783 O 0.80148 0.74558 0.96058
 O784 O 0.74548 0.80088 1.03992
 Cu785 Cu 0.72140 0.72101 1.00008
 Cu786 Cu 0.77816 0.77794 1.00027
 C787 C 0.71250 0.78644 1.05382
 C788 C 0.78720 0.71261 0.94656
 C789 C 0.78683 0.71212 1.05368
 C790 C 0.71255 0.78680 0.94677
 O791 O 0.69853 0.25424 0.53895
 O792 O 0.75456 0.19840 0.45998
 O793 O 0.75428 0.19854 0.53919
 O794 O 0.69857 0.25389 0.45970
 O795 O 0.74583 0.30134 0.45960
 O796 O 0.80155 0.24598 0.53912
 O797 O 0.80183 0.24583 0.45990
 O798 O 0.74581 0.30168 0.53885
 Cu799 Cu 0.72175 0.22152 0.49946
 Cu800 Cu 0.77848 0.27847 0.49935
 C801 C 0.71284 0.28727 0.55282
 C802 C 0.78756 0.21278 0.44606
 C803 C 0.78720 0.21301 0.55314
 C804 C 0.71291 0.28686 0.44566
 O805 O 0.80200 0.25428 -0.04009
 O806 O 0.74656 0.19833 0.03927
 O807 O 0.74665 0.19827 -0.03998
 O808 O 0.80244 0.25387 0.03919
 O809 O 0.75500 0.30123 0.03935
 O810 O 0.69921 0.24564 -0.03987
 O811 O 0.69911 0.24569 0.03937
 O812 O 0.75456 0.30164 -0.03992
 Cu813 Cu 0.77917 0.22145 -0.00042
 Cu814 Cu 0.72223 0.27830 -0.00023
 C815 C 0.78752 0.28728 -0.05398
 C816 C 0.71354 0.21267 0.05325
 C817 C 0.71363 0.21267 -0.05386
 C818 C 0.78804 0.28683 0.05320
 O819 O 0.80104 0.75450 0.46051
 O820 O 0.74568 0.69860 0.53992
 O821 O 0.74569 0.69849 0.46064
 O822 O 0.80127 0.75437 0.53974
 O823 O 0.75375 0.80166 0.53982
 O824 O 0.69817 0.74578 0.46068
 O825 O 0.69816 0.74588 0.53996
 O826 O 0.75353 0.80179 0.46057
 Cu827 Cu 0.77818 0.72175 0.50019
 Cu828 Cu 0.72113 0.77850 0.50026
 C829 C 0.78654 0.78747 0.44658
 C830 C 0.71268 0.71294 0.55392
 C831 C 0.71267 0.71282 0.44671
 C832 C 0.78680 0.78733 0.55370
 O833 O 0.96170 0.25366 0.19840
 O834 O 1.04117 0.19805 0.25412
 O835 O 0.96173 0.19796 0.25410
 O836 O 1.04110 0.25390 0.19863
 O837 O 1.04097 0.30117 0.24590
 O838 O 0.96156 0.24534 0.30136
 O839 O 1.04098 0.24532 0.30140
 O840 O 0.96156 0.30104 0.24567
 Cu841 Cu 1.00144 0.22116 0.22160
 Cu842 Cu 1.00124 0.27794 0.27831
 C843 C 0.94767 0.28666 0.21272
 C844 C 1.05519 0.21236 0.28708
 C845 C 0.94767 0.21234 0.28700
 C846 C 1.05512 0.28689 0.21297
 O847 O 0.53954 0.30136 0.74553
 O848 O 0.46050 0.24554 0.80146
 O849 O 0.53985 0.24575 0.80126
 O850 O 0.46016 0.30124 0.74581
 O851 O 0.46018 0.25383 0.69857
 O852 O 0.53988 0.19834 0.75402
 O853 O 0.46053 0.19813 0.75423
 O854 O 0.53956 0.25397 0.69828
 Cu855 Cu 0.50001 0.27823 0.77824
 Cu856 Cu 0.50004 0.22132 0.72154
 C857 C 0.55346 0.28699 0.71257
 C858 C 0.44663 0.21250 0.78720
 C859 C 0.55386 0.21276 0.78690
 C860 C 0.44615 0.28681 0.71295
 O861 O -0.04018 0.19919 0.74631
 O862 O 0.03882 0.25472 0.80239
 O863 O -0.04058 0.25503 0.80175
 O864 O 0.03916 0.19904 0.74677
 O865 O 0.03944 0.24641 0.69946
 O866 O -0.04038 0.30232 0.75444
 O867 O 0.03906 0.30211 0.75510
 O868 O -0.03990 0.24654 0.69896
 Cu869 Cu -0.00074 0.22227 0.77906
 Cu870 Cu -0.00039 0.27910 0.72227
 C871 C -0.05392 0.21355 0.71327
 C872 C 0.05285 0.28769 0.78809
 C873 C -0.05465 0.28801 0.78732
 C874 C 0.05329 0.21338 0.71388
 O875 O 0.45997 0.30063 0.25386
 O876 O 0.53902 0.24491 0.19768
 O877 O 0.45956 0.24492 0.19824
 O878 O 0.53934 0.30070 0.25318
 O879 O 0.53960 0.25332 0.30049
 O880 O 0.45973 0.19763 0.24555
 O881 O 0.53921 0.19752 0.24498
 O882 O 0.46024 0.25328 0.30120
 Cu883 Cu 0.49942 0.27751 0.22099
 Cu884 Cu 0.49973 0.22068 0.27777
 C885 C 0.44622 0.28630 0.28691
 C886 C 0.55307 0.21193 0.21201
 C887 C 0.44545 0.21198 0.21270
 C888 C 0.55349 0.28631 0.28604
 O889 O 0.96081 0.74611 0.80122
 O890 O 1.04023 0.80168 0.74549
 O891 O 0.96080 0.80180 0.74554
 O892 O 1.04016 0.74596 0.80109
 O893 O 1.04019 0.69862 0.75379
 O894 O 0.96078 0.75443 0.69826
 O895 O 1.04021 0.75441 0.69822
 O896 O 0.96083 0.69874 0.75395
 Cu897 Cu 1.00050 0.77864 0.77805
 Cu898 Cu 1.00049 0.72182 0.72131
 C899 C 0.94688 0.71311 0.78690
 C900 C 1.05433 0.78736 0.71254
 C901 C 0.94680 0.78742 0.71264
 C902 C 1.05412 0.71296 0.78672
 O903 O 0.54020 0.80198 0.24536
 O904 O 0.46041 0.74667 0.30085
 O905 O 0.53975 0.74642 0.30114
 O906 O 0.46077 0.80248 0.24528
 O907 O 0.46075 0.75507 0.19805
 O908 O 0.53978 0.69904 0.25387
 O909 O 0.46043 0.69926 0.25361
 O910 O 0.54016 0.75464 0.19815
 Cu911 Cu 0.50028 0.77915 0.27787
 Cu912 Cu 0.50027 0.72227 0.22118
 C913 C 0.55435 0.78756 0.21248
 C914 C 0.44642 0.71370 0.28650
 C915 C 0.55366 0.71337 0.28684
 C916 C 0.44684 0.78812 0.21236
 O917 O 0.03949 0.75465 0.30111
 O918 O -0.03984 0.69846 0.24611
 O919 O 0.03951 0.69889 0.24557
 O920 O -0.03986 0.75446 0.30139
 O921 O -0.04012 0.80175 0.25398
 O922 O 0.03923 0.74618 0.19817
 O923 O -0.04013 0.74573 0.19868
 O924 O 0.03924 0.80194 0.25371
 Cu925 Cu -0.00013 0.72188 0.27830
 Cu926 Cu -0.00049 0.77864 0.22138
 C927 C 0.05331 0.78766 0.28664
 C928 C -0.05393 0.71272 0.21318
 C929 C 0.05332 0.71324 0.21255
 C930 C -0.05394 0.78741 0.28700
 O931 O 0.53864 0.75472 0.80205
 O932 O 0.45977 0.69904 0.74593
 O933 O 0.53914 0.69893 0.74655
 O934 O 0.45924 0.75484 0.80144
 O935 O 0.45942 0.80212 0.75413
 O936 O 0.53940 0.74630 0.69923
 O937 O 0.46002 0.74638 0.69858
 O938 O 0.53886 0.80211 0.75475
 Cu939 Cu 0.49915 0.72215 0.77874
 Cu940 Cu 0.49947 0.77897 0.72194
 C941 C 0.55264 0.78771 0.78775
 C942 C 0.44603 0.71338 0.71289
 C943 C 0.55331 0.71330 0.71369
 C944 C 0.44515 0.78781 0.78700
   
