data_POSCAR
  _audit_creation_date              2014-09-24
  _audit_creation_method            'ToBaCCo'
  _symmetry_space_group_name_H-M    'P1'
  _symmetry_Int_Tables_number       1
  _symmetry_cell_setting            triclinic
  loop_
  _symmetry_equiv_pos_as_xyz
 x,y,z
_cell_length_a 36.8788
_cell_length_b 29.3444
_cell_length_c 30.6677
_cell_angle_alpha 90.285400
_cell_angle_beta 89.557400
_cell_angle_gamma 90.148900
loop_
  _atom_site_label
  _atom_site_type_symbol
  _atom_site_fract_x
  _atom_site_fract_y
  _atom_site_fract_z
C1 C 0.22527 0.24092 0.20610
 C2 C 0.22594 0.28753 0.21903
 C3 C 0.25065 0.30225 0.25065
 C4 C 0.27506 0.27209 0.27035
 C5 C 0.27393 0.22515 0.25870
 C6 C 0.25018 0.21094 0.22562
 H7 H 0.24938 0.17495 0.21818
 H8 H 0.25185 0.33829 0.25836
 C9 C 0.75912 0.27490 0.20059
 C10 C 0.75509 0.22673 0.20342
 C11 C 0.72806 0.20823 0.23046
 C12 C 0.70578 0.23579 0.25689
 C13 C 0.71000 0.28367 0.25480
 C14 C 0.73594 0.30245 0.22642
 H15 H 0.73678 0.33917 0.22394
 H16 H 0.72443 0.17160 0.23051
 C17 C 0.72734 0.73141 0.70857
 C18 C 0.72177 0.77859 0.71479
 C19 C 0.74495 0.80332 0.74197
 C20 C 0.77563 0.78351 0.76122
 C21 C 0.78116 0.73573 0.75510
 C22 C 0.75724 0.71086 0.72847
 H23 H 0.76188 0.67472 0.72360
 H24 H 0.73976 0.83948 0.74632
 C25 C 0.30614 0.78328 0.77482
 C26 C 0.30361 0.73541 0.76966
 C27 C 0.27868 0.71097 0.79575
 C28 C 0.25606 0.73318 0.82654
 C29 C 0.26034 0.78093 0.83255
 C30 C 0.28525 0.80507 0.80683
 H31 H 0.28776 0.84166 0.81111
 H32 H 0.27810 0.67432 0.79318
 O33 O 1.03417 -0.04796 -0.01113
 O34 O 0.96076 0.01352 0.04794
 O35 O 0.96369 -0.05395 -0.00953
 O36 O 1.03124 0.01114 0.05075
 O37 O 1.03223 0.06408 -0.00029
 O38 O 0.96257 -0.00166 -0.06104
 O39 O 0.96181 0.06596 -0.00349
 O40 O 1.03255 0.00436 -0.06268
 Cu41 Cu 0.99701 -0.02464 0.02459
 Cu42 Cu 0.99684 0.03853 -0.03688
 C43 C 1.04598 -0.03156 -0.04693
 C44 C 0.94977 0.05123 0.03252
 C45 C 0.95235 -0.03999 -0.04590
 C46 C 1.04391 0.04788 0.03541
 O47 O 0.52594 0.41292 0.51711
 O48 O 0.45636 0.47233 0.58142
 O49 O 0.45584 0.42149 0.51135
 O50 O 0.52717 0.46810 0.58375
 O51 O 0.53346 0.52649 0.53920
 O52 O 0.45977 0.48354 0.47106
 O53 O 0.46345 0.53384 0.54096
 O54 O 0.53016 0.47157 0.47246
 Cu55 Cu 0.49074 0.43769 0.55267
 Cu56 Cu 0.49725 0.50978 0.50154
 C57 C 0.53973 0.43172 0.48378
 C58 C 0.44839 0.51325 0.57273
 C59 C 0.44542 0.44522 0.47918
 C60 C 0.54266 0.50531 0.57330
 O61 O 0.02725 0.50741 -0.06468
 O62 O -0.04526 0.45825 0.00406
 O63 O -0.04195 0.52299 -0.05472
 O64 O 0.02460 0.44583 -0.00475
 O65 O 0.03496 0.49720 0.04659
 O66 O -0.03115 0.57428 -0.00348
 O67 O -0.03455 0.51011 0.05481
 O68 O 0.03822 0.55874 -0.01351
 Cu69 Cu -0.01017 0.47845 -0.03510
 Cu70 Cu 0.00284 0.54031 0.02616
 C71 C 0.04546 0.54100 -0.05047
 C72 C -0.05211 0.47567 0.04122
 C73 C -0.04770 0.56192 -0.03766
 C74 C 0.04138 0.45867 0.02920
 O75 O 0.45924 1.04651 0.48566
 O76 O 0.53122 0.97451 0.52953
 O77 O 0.52880 1.03993 0.47212
 O78 O 0.46170 0.97869 0.54024
 O79 O 0.45242 0.93019 0.48613
 O80 O 0.52138 0.98866 0.41991
 O81 O 0.52251 0.92403 0.47695
 O82 O 0.45156 0.99809 0.43110
 Cu83 Cu 0.49606 1.01498 0.51217
 Cu84 Cu 0.48596 0.95532 0.44813
 C85 C 0.44339 1.03496 0.45078
 C86 C 0.53892 0.93687 0.51117
 C87 C 0.53674 1.02420 0.43454
 C88 C 0.44582 0.94378 0.52468
 C89 C 1.19859 0.22437 0.17696
 C90 C 1.19934 0.18167 0.15644
 C91 C 1.16977 0.16543 0.12848
 N92 N 1.16741 0.12042 0.11889
 N93 N 1.14042 0.10452 0.09462
 C94 C 1.11492 0.13308 0.07858
 N95 N 1.11761 0.17833 0.08739
 N96 N 1.14449 0.19422 0.11211
 C97 C 1.08437 0.11484 0.05328
 C98 C 1.07330 0.06998 0.05949
 H99 H 1.22176 0.15855 0.16045
 H100 H 1.06958 0.13699 0.03161
 H101 H 1.17548 0.24556 0.16993
 H102 H 1.08640 0.04981 0.08431
 C103 C 0.70189 0.70358 0.68208
 C104 C 0.69289 0.65835 0.69135
 C105 C 0.66612 0.63338 0.66481
 N106 N 0.65381 0.59173 0.67734
 N107 N 0.62902 0.56962 0.65373
 C108 C 0.61580 0.58842 0.61671
 N109 N 0.62832 0.62982 0.60413
 N110 N 0.65294 0.65187 0.62770
 C111 C 0.58811 0.56568 0.59009
 C112 C 0.57147 0.52448 0.60103
 H113 H 0.70426 0.64162 0.71947
 H114 H 0.57992 0.58310 0.56070
 H115 H 0.68790 0.71974 0.65561
 H116 H 0.57914 0.50666 0.63037
 C117 C -0.21590 0.29486 0.17101
 C118 C -0.20337 0.33989 0.17402
 C119 C -0.17649 0.35922 0.14352
 N120 N -0.16233 0.40108 0.15169
 N121 N -0.13763 0.41917 0.12499
 C122 C -0.12618 0.39613 0.08895
 N123 N -0.14049 0.35434 0.08057
 N124 N -0.16516 0.33616 0.10739
 C125 C -0.09855 0.41567 0.05948
 C126 C -0.08058 0.45626 0.06941
 H127 H -0.21111 0.36136 0.20123
 H128 H -0.09163 0.39717 0.02994
 H129 H -0.20451 0.27401 0.14519
 H130 H -0.08687 0.47404 0.09956
 C131 C 0.32994 0.81239 0.74755
 C132 C 0.33019 0.80947 0.70216
 C133 C 0.35211 0.84017 0.67480
 N134 N 0.35249 0.83455 0.63087
 N135 N 0.37245 0.86179 0.60563
 C136 C 0.39268 0.89580 0.62337
 N137 N 0.39216 0.90156 0.66729
 N138 N 0.37226 0.87425 0.69256
 C139 C 0.41562 0.92537 0.59601
 C140 C 0.41989 0.91776 0.55138
 H141 H 0.31352 0.78410 0.68610
 H142 H 0.43080 0.95241 0.61174
 H143 H 0.34445 0.83994 0.76338
 H144 H 0.40539 0.89000 0.53586
 C145 C -0.19055 0.70848 -0.22337
 C146 C -0.18610 0.70785 -0.17826
 C147 C -0.16052 0.67630 -0.15749
 N148 N -0.15229 0.68111 -0.11465
 N149 N -0.12923 0.65258 -0.09567
 C150 C -0.11375 0.61800 -0.11879
 N151 N -0.12218 0.61304 -0.16151
 N152 N -0.14504 0.64170 -0.18052
 C153 C -0.08836 0.58596 -0.09849
 C154 C -0.07381 0.59348 -0.05727
 H155 H -0.20149 0.73118 -0.15789
 H156 H -0.08000 0.55632 -0.11719
 H157 H -0.17614 0.68374 -0.24326
 H158 H -0.08081 0.62417 -0.03935
 C159 C 0.29488 1.19088 0.27863
 C160 C 0.30684 1.19225 0.32176
 C161 C 0.33007 1.15663 0.34017
 N162 N 0.34145 1.16046 0.38196
 N163 N 0.36342 1.12937 0.39886
 C164 C 0.37483 1.09321 0.37462
 N165 N 0.36327 1.08919 0.33288
 N166 N 0.34134 1.12037 0.31592
 C167 C 0.40011 1.05953 0.39257
 C168 C 0.41563 1.06557 0.43347
 H169 H 0.29821 1.21926 0.34356
 H170 H 0.40782 1.03060 0.37252
 H171 H 0.29890 1.15918 0.26093
 H172 H 0.40847 1.09515 0.45295
 C173 C 1.23739 -0.19294 -0.13651
 C174 C 1.21562 -0.15768 -0.15123
 C175 C 1.18608 -0.13835 -0.12468
 N176 N 1.16451 -0.10594 -0.14198
 N177 N 1.13639 -0.08963 -0.11945
 C178 C 1.12864 -0.10525 -0.07880
 N179 N 1.15031 -0.13760 -0.06136
 N180 N 1.17850 -0.15394 -0.08393
 C181 C 1.09740 -0.08740 -0.05398
 C182 C 1.07572 -0.05325 -0.07116
 H183 H 1.21828 -0.14648 -0.18473
 H184 H 1.09195 -0.10041 -0.02158
 H185 H 1.23454 -0.20472 -0.10326
 H186 H 1.08190 -0.03983 -0.10322
 C187 C 0.68704 0.31578 0.28017
 C188 C 0.68077 0.31084 0.32476
 C189 C 0.65596 0.34076 0.34933
 N190 N 0.64709 0.33039 0.39110
 N191 N 0.62362 0.35600 0.41343
 C192 C 0.60816 0.39307 0.39489
 N193 N 0.61730 0.40376 0.35322
 N194 N 0.64070 0.37800 0.33079
 C195 C 0.58143 0.42079 0.41909
 C196 C 0.56718 0.40619 0.45885
 H197 H 0.69333 0.28293 0.34195
 H198 H 0.57197 0.45223 0.40479
 H199 H 0.67669 0.34553 0.26365
 H200 H 0.57584 0.37388 0.47210
 C201 C 0.79853 -0.18606 -0.21586
 C202 C 0.83489 -0.19257 -0.20513
 C203 C 0.85520 -0.15733 -0.18111
 N204 N 0.88363 -0.16931 -0.15591
 N205 N 0.90155 -0.13790 -0.13307
 C206 C 0.89201 -0.09324 -0.13499
 N207 N 0.86404 -0.08109 -0.16089
 N208 N 0.84581 -0.11261 -0.18330
 C209 C 0.91163 -0.05863 -0.10941
 C210 C 0.92856 -0.07058 -0.07077
 H211 H 0.84946 -0.22291 -0.21446
 H212 H 0.91210 -0.02362 -0.12044
 H213 H 0.78760 -0.15267 -0.20812
 H214 H 0.92520 -0.10496 -0.05858
 C215 C 0.30428 0.29090 0.29833
 C216 C 0.29936 0.32778 0.32660
 C217 C 0.32774 0.34208 0.35725
 N218 N 0.32693 0.38450 0.37496
 N219 N 0.35231 0.39773 0.40303
 C220 C 0.37916 0.36881 0.41490
 N221 N 0.37966 0.32613 0.39770
 N222 N 0.35451 0.31306 0.36924
 C223 C 0.40751 0.38338 0.44550
 C224 C 0.41610 0.42926 0.45080
 H225 H 0.27402 0.34627 0.32708
 H226 H 0.42341 0.35768 0.46182
 H227 H 0.33034 0.27398 0.29786
 H228 H 0.40240 0.45442 0.43116
 C229 C 0.22921 0.70925 -0.14944
 C230 C 0.21668 0.66504 -0.15816
 C231 C 0.18630 0.64559 -0.13267
 N232 N 0.16855 0.60789 -0.14710
 N233 N 0.14021 0.59133 -0.12495
 C234 C 0.12865 0.61185 -0.08752
 N235 N 0.14664 0.64916 -0.07290
 N236 N 0.17484 0.66576 -0.09507
 C237 C 0.09737 0.59459 -0.06252
 C238 C 0.07564 0.55881 -0.07708
 H239 H 0.22668 0.64560 -0.18571
 H240 H 0.09125 0.61086 -0.03155
 H241 H 0.21504 0.72706 -0.12364
 H242 H 0.08132 0.54275 -0.10826
 C243 C 0.67697 1.21454 0.28432
 C244 C 0.68038 1.17125 0.30245
 C245 C 0.65234 1.15122 0.33079
 N246 N 0.65198 1.10559 0.33750
 N247 N 0.62698 1.08672 0.36328
 C248 C 0.60166 1.11285 0.38375
 N249 N 0.60229 1.15861 0.37754
 N250 N 0.62709 1.17746 0.35135
 C251 C 0.57396 1.09202 0.41214
 C252 C 0.56440 1.04636 0.40728
 H253 H 0.70430 1.15099 0.29600
 H254 H 0.55970 1.11325 0.43558
 H255 H 0.65263 1.23383 0.29137
 H256 H 0.57637 1.02652 0.38101
 C257 C 0.20169 0.32262 0.20044
 C258 C 0.19657 0.32738 0.15568
 C259 C 0.16874 0.35761 0.13776
 N260 N 0.15823 0.35239 0.09573
 N261 N 0.13188 0.37804 0.07947
 C262 C 0.11515 0.41000 0.10464
 N263 N 0.12594 0.41559 0.14653
 N264 N 0.15211 0.38970 0.16289
 C265 C 0.08607 0.43865 0.08714
 C266 C 0.06904 0.42862 0.04779
 H267 H 0.21134 0.30549 0.13326
 H268 H 0.07751 0.46802 0.10609
 H269 H 0.18873 0.34635 0.22275
 H270 H 0.07633 0.39805 0.02987
 C271 C 0.69156 0.80371 0.69475
 C272 C 0.68845 0.80776 0.64968
 C273 C 0.65998 0.83540 0.62959
 N274 N 0.65384 0.83212 0.58610
 N275 N 0.62818 0.85715 0.56749
 C276 C 0.60791 0.88657 0.59172
 N277 N 0.61421 0.89004 0.63512
 N278 N 0.63967 0.86481 0.65376
 C279 C 0.57993 0.91511 0.57186
 C280 C 0.56710 0.90764 0.52977
 H281 H 0.70738 0.78996 0.62849
 H282 H 0.56831 0.94216 0.59161
 H283 H 0.67417 0.82377 0.71598
 H284 H 0.57699 0.87901 0.51072
 C285 C 0.77827 0.19346 0.17965
 C286 C 0.81599 0.19625 0.17893
 C287 C 0.83846 0.16158 0.15709
 N288 N 0.87168 0.17314 0.14145
 N289 N 0.89210 0.14249 0.12069
 C290 C 0.88032 0.09892 0.11536
 N291 N 0.84739 0.08704 0.13180
 N292 N 0.82670 0.11792 0.15206
 C293 C 0.90260 0.06568 0.09117
 C294 C 0.92427 0.08037 0.05669
 H295 H 0.82946 0.22540 0.19337
 H296 H 0.90084 0.02982 0.09909
 H297 H 0.76539 0.16322 0.16642
 H298 H 0.92256 0.11565 0.04661
 C299 C 0.32873 0.71101 0.73945
 C300 C 0.32074 0.66926 0.71972
 C301 C 0.34601 0.64734 0.68880
 N302 N 0.34152 0.60282 0.67801
 N303 N 0.36435 0.58243 0.65031
 C304 C 0.39232 0.60595 0.63203
 N305 N 0.39653 0.65065 0.64236
 N306 N 0.37388 0.67094 0.67035
 C307 C 0.41807 0.58359 0.60199
 C308 C 0.42126 0.53635 0.60022
 H309 H 0.29542 0.65199 0.72667
 H310 H 0.43632 0.60467 0.58290
 H311 H 0.35439 0.72711 0.73159
 H312 H 0.40479 0.51552 0.62173
   
