data_POSCAR
  _audit_creation_date              2014-09-24
  _audit_creation_method            'ToBaCCo'
  _symmetry_space_group_name_H-M    'P1'
  _symmetry_Int_Tables_number       1
  _symmetry_cell_setting            triclinic
  loop_
  _symmetry_equiv_pos_as_xyz
 x,y,z
_cell_length_a 31.5376
_cell_length_b 39.1544
_cell_length_c 14.9824
_cell_angle_alpha 90.619900
_cell_angle_beta 91.536000
_cell_angle_gamma 89.612900
loop_
  _atom_site_label
  _atom_site_type_symbol
  _atom_site_fract_x
  _atom_site_fract_y
  _atom_site_fract_z
O1 O 0.22962 0.28574 0.14143
 O2 O 0.30148 0.22168 0.24438
 O3 O 0.23198 0.21918 0.14708
 O4 O 0.30079 0.28798 0.23405
 O5 O 0.26548 0.28918 0.35935
 O6 O 0.19312 0.22331 0.26716
 O7 O 0.26276 0.22241 0.36507
 O8 O 0.19466 0.28943 0.26701
 Cu9 Cu 0.26967 0.25343 0.17936
 Cu10 Cu 0.22543 0.25627 0.32721
 C11 C 0.20008 0.29868 0.18732
 C12 C 0.29390 0.21082 0.32196
 C13 C 0.20048 0.20979 0.19148
 C14 C 0.29512 0.30016 0.31162
 O15 O 0.79260 0.28698 0.23398
 O16 O 0.73358 0.21922 0.34515
 O17 O 0.79800 0.22011 0.24121
 O18 O 0.72806 0.28534 0.34005
 O19 O 0.68427 0.28101 0.22302
 O20 O 0.75500 0.21701 0.12260
 O21 O 0.69073 0.21454 0.22674
 O22 O 0.74829 0.28329 0.11767
 Cu23 Cu 0.76755 0.25343 0.30177
 Cu24 Cu 0.71523 0.24861 0.16075
 C25 C 0.78021 0.29682 0.15694
 C26 C 0.70236 0.20508 0.30459
 C27 C 0.78811 0.20724 0.16531
 C28 C 0.69409 0.29408 0.29859
 O29 O 0.80969 0.72255 0.70309
 O30 O 0.73728 0.79223 0.63292
 O31 O 0.81041 0.78924 0.71743
 O32 O 0.73716 0.72599 0.61671
 O33 O 0.70487 0.72199 0.74516
 O34 O 0.77740 0.78604 0.84504
 O35 O 0.70415 0.78838 0.76035
 O36 O 0.77679 0.71939 0.83095
 Cu37 Cu 0.77703 0.75791 0.65482
 Cu38 Cu 0.73756 0.75372 0.80828
 C39 C 0.80512 0.70877 0.77857
 C40 C 0.70826 0.80207 0.68475
 C41 C 0.80624 0.79870 0.79818
 C42 C 0.70889 0.71290 0.66412
 O43 O 0.29482 0.78551 0.73267
 O44 O 0.22896 0.72191 0.84196
 O45 O 0.29462 0.71851 0.74122
 O46 O 0.22764 0.78782 0.83053
 O47 O 0.18663 0.78507 0.70897
 O48 O 0.25312 0.71590 0.62024
 O49 O 0.18772 0.71862 0.72067
 O50 O 0.25378 0.78220 0.61119
 Cu51 Cu 0.26587 0.75384 0.79852
 Cu52 Cu 0.21616 0.75025 0.65314
 C53 C 0.28545 0.79482 0.65357
 C54 C 0.19728 0.70929 0.79975
 C55 C 0.28478 0.70509 0.66587
 C56 C 0.19548 0.79811 0.78506
 C57 C 0.98494 -0.00097 0.02928
 C58 C 1.02781 0.00061 0.02010
 C59 C 1.05319 0.03132 0.04594
 C60 C 1.05198 -0.02892 -0.01566
 C61 C 0.96020 -0.03082 -0.00468
 C62 C 0.96020 0.02739 0.06992
 C63 C 1.04089 0.06432 0.01899
 C64 C 1.06485 0.09273 0.04594
 C65 C 1.10238 0.08844 0.09737
 C66 C 1.11580 0.05545 0.12036
 C67 C 1.09123 0.02720 0.09580
 C68 C 1.07522 -0.02521 -0.09339
 C69 C 1.09911 -0.05248 -0.12635
 C70 C 1.10108 -0.08361 -0.08090
 C71 C 1.07753 -0.08738 -0.00314
 C72 C 1.05319 -0.06020 0.02921
 C73 C 0.93357 -0.04828 0.05254
 C74 C 0.90930 -0.07578 0.02067
 C75 C 0.91119 -0.08641 -0.06897
 C76 C 0.93738 -0.06843 -0.12669
 C77 C 0.96155 -0.04088 -0.09476
 C78 C 0.97098 0.04079 0.15479
 C79 C 0.94843 0.06860 0.18949
 C80 C 0.91453 0.08336 0.14043
 C81 C 0.90265 0.06877 0.05717
 C82 C 0.92533 0.04118 0.02243
 H83 H 1.01272 0.06815 -0.02267
 H84 H 1.05450 0.11793 0.02532
 H85 H 1.14491 0.05161 0.15907
 H86 H 1.10183 0.00205 0.11635
 H87 H 1.07467 -0.00119 -0.12863
 H88 H 1.11671 -0.04907 -0.18670
 H89 H 1.03560 -0.06339 0.08964
 H90 H 0.93164 -0.04060 0.12199
 H91 H 0.88899 -0.08884 0.06625
 H92 H 0.93850 -0.07478 -0.19697
 H93 H 0.98083 -0.02703 -0.14072
 H94 H 0.99718 0.03001 0.19353
 H95 H 0.95778 0.07886 0.25446
 H96 H 0.87570 0.07818 0.01854
 H97 H 0.91601 0.03087 -0.04249
 H98 H 1.07751 -0.11135 0.03218
 C99 C 0.48333 0.49413 0.55818
 C100 C 0.52637 0.49481 0.55516
 C101 C 0.55059 0.52521 0.58563
 C102 C 0.55141 0.46569 0.52031
 C103 C 0.45826 0.46446 0.52490
 C104 C 0.45898 0.52397 0.59137
 C105 C 0.54701 0.55617 0.53967
 C106 C 0.56920 0.58493 0.57068
 C107 C 0.59523 0.58306 0.64831
 C108 C 0.59854 0.55203 0.69404
 C109 C 0.57682 0.52322 0.66235
 C110 C 0.57645 0.47036 0.44557
 C111 C 0.59998 0.44323 0.41092
 C112 C 0.59976 0.41114 0.45163
 C113 C 0.57473 0.40646 0.52694
 C114 C 0.55071 0.43358 0.56096
 C115 C 0.42985 0.44869 0.58158
 C116 C 0.40524 0.42120 0.55101
 C117 C 0.40814 0.40929 0.46232
 C118 C 0.43684 0.42507 0.40595
 C119 C 0.46141 0.45259 0.43661
 C120 C 0.46393 0.53566 0.67981
 C121 C 0.44199 0.56474 0.70860
 C122 C 0.41455 0.58258 0.64979
 C123 C 0.40957 0.57047 0.56109
 C124 C 0.43133 0.54133 0.53269
 H125 H 0.52680 0.55805 0.48031
 H126 H 0.56520 0.60868 0.53507
 H127 H 0.61821 0.55005 0.75418
 H128 H 0.57977 0.49949 0.69857
 H129 H 0.57726 0.49496 0.41327
 H130 H 0.61877 0.44739 0.35259
 H131 H 0.53159 0.42959 0.61887
 H132 H 0.42705 0.45749 0.64998
 H133 H 0.38461 0.40916 0.59760
 H134 H 0.43982 0.41638 0.33750
 H135 H 0.48257 0.46482 0.39124
 H136 H 0.48497 0.52238 0.72623
 H137 H 0.44654 0.57336 0.77712
 H138 H 0.38965 0.58338 0.51231
 H139 H 0.42737 0.53272 0.46402
 H140 H 0.57310 0.38182 0.55865
 C141 C 0.01970 0.49640 -0.04731
 C142 C -0.02295 0.49570 -0.03671
 C143 C -0.04422 0.46655 0.00536
 C144 C -0.05024 0.52483 -0.06485
 C145 C 0.04054 0.52633 -0.08618
 C146 C 0.04791 0.46799 -0.01854
 C147 C -0.07598 0.44882 -0.04257
 C148 C -0.09660 0.42137 -0.00419
 C149 C -0.08635 0.41147 0.08408
 C150 C -0.05440 0.42938 0.13173
 C151 C -0.03364 0.45675 0.09298
 C152 C -0.05378 0.53427 -0.15475
 C153 C -0.07751 0.56309 -0.17951
 C154 C -0.09830 0.58293 -0.11505
 C155 C -0.09478 0.57312 -0.02481
 C156 C -0.07130 0.54416 -0.00033
 C157 C 0.04111 0.55791 -0.04113
 C158 C 0.06079 0.58601 -0.07865
 C159 C 0.08018 0.58285 -0.16190
 C160 C 0.07906 0.55128 -0.20707
 C161 C 0.05985 0.52311 -0.16899
 C162 C 0.07976 0.47421 0.04650
 C163 C 0.10649 0.44782 0.07545
 C164 C 0.10253 0.41489 0.03852
 C165 C 0.07081 0.40869 -0.02753
 C166 C 0.04369 0.43511 -0.05582
 H167 H -0.08444 0.45599 -0.11041
 H168 H -0.12001 0.40800 -0.04489
 H169 H -0.04567 0.42234 0.19950
 H170 H -0.00955 0.47042 0.13152
 H171 H -0.03775 0.51953 -0.20546
 H172 H -0.07946 0.57001 -0.24931
 H173 H -0.06846 0.53739 0.06951
 H174 H 0.02629 0.56073 0.02294
 H175 H 0.06021 0.61023 -0.04317
 H176 H 0.09358 0.54831 -0.27142
 H177 H 0.05955 0.49887 -0.20454
 H178 H 0.08346 0.49944 0.07593
 H179 H 0.13046 0.45317 0.12675
 H180 H 0.06628 0.38341 -0.05591
 H181 H 0.01938 0.42995 -0.10650
 H182 H -0.10903 0.58795 0.02777
 C183 C 0.51521 1.00110 0.48356
 C184 C 0.47295 1.00273 0.50036
 C185 C 0.45103 0.97336 0.54006
 C186 C 0.44616 1.03313 0.47825
 C187 C 0.53775 1.02899 0.43833
 C188 C 0.54159 0.97138 0.51199
 C189 C 0.44824 0.94195 0.49436
 C190 C 0.42689 0.91460 0.53158
 C191 C 0.40806 0.91828 0.61528
 C192 C 0.41147 0.94961 0.66124
 C193 C 0.43229 0.97708 0.62341
 C194 C 0.40713 1.02861 0.43241
 C195 C 0.38199 1.05673 0.40876
 C196 C 0.39568 1.08997 0.42901
 C197 C 0.43404 1.09461 0.47745
 C198 C 0.45872 1.06638 0.50311
 C199 C 0.57445 1.04284 0.47887
 C200 C 0.59569 1.06959 0.43908
 C201 C 0.58046 1.08332 0.35769
 C202 C 0.54452 1.06858 0.31572
 C203 C 0.52347 1.04155 0.35533
 C204 C 0.54514 0.96228 0.60219
 C205 C 0.57090 0.93480 0.62839
 C206 C 0.59410 0.91622 0.56526
 C207 C 0.59021 0.92532 0.47466
 C208 C 0.56446 0.95283 0.44858
 H209 H 0.46246 0.93873 0.42978
 H210 H 0.42569 0.89053 0.49542
 H211 H 0.39743 0.95296 0.72598
 H212 H 0.43419 1.00117 0.65947
 H213 H 0.39639 1.00326 0.41354
 H214 H 0.35226 1.05258 0.37248
 H215 H 0.48781 1.07052 0.54159
 H216 H 0.58644 1.03313 0.54217
 H217 H 0.62414 1.07899 0.47242
 H218 H 0.53247 1.07820 0.25238
 H219 H 0.49584 1.03064 0.32169
 H220 H 0.52827 0.97665 0.65234
 H221 H 0.57314 0.92830 0.69847
 H222 H 0.60636 0.91109 0.42337
 H223 H 0.56201 0.95949 0.37863
 H224 H 0.44467 1.11997 0.49637
 C225 C 1.17440 0.18412 0.15608
 C226 C 1.13806 0.17497 0.19341
 C227 C 1.11164 0.14691 0.15706
 C228 C 1.12860 0.11778 0.12632
 H229 H 1.12613 0.18914 0.25007
 H230 H 1.07760 0.14911 0.16343
 H231 H 1.18389 0.17157 0.09482
 H232 H 1.16272 0.11419 0.12988
 C233 C 0.68117 0.68645 0.62425
 C234 C 0.65822 0.66590 0.67436
 C235 C 0.63332 0.63780 0.63394
 C236 C 0.61833 0.61304 0.68493
 H237 H 0.65926 0.66884 0.74644
 H238 H 0.62907 0.63655 0.56199
 H239 H 0.68150 0.68252 0.55253
 H240 H 0.62551 0.61368 0.75614
 C241 C -0.19774 0.32442 0.11149
 C242 C -0.16309 0.33972 0.14573
 C243 C -0.14321 0.36779 0.09744
 C244 C -0.10761 0.38269 0.12868
 H245 H -0.14949 0.33166 0.20936
 H246 H -0.15876 0.37642 0.03657
 H247 H -0.21076 0.33255 0.04738
 H248 H -0.09377 0.37386 0.19141
 C249 C 0.31113 0.82066 0.60967
 C250 C 0.33947 0.83985 0.65482
 C251 C 0.36333 0.86655 0.60977
 C252 C 0.38532 0.88992 0.65707
 H253 H 0.34421 0.83659 0.72618
 H254 H 0.36137 0.86788 0.53757
 H255 H 0.30541 0.82489 0.53896
 H256 H 0.38451 0.88951 0.72938
 C257 C -0.16740 0.67970 -0.19579
 C258 C -0.17454 0.66134 -0.12263
 C259 C -0.14990 0.63087 -0.09401
 C260 C -0.12204 0.61394 -0.14468
 H261 H -0.20012 0.66891 -0.07965
 H262 H -0.15724 0.62150 -0.02875
 H263 H -0.14177 0.67321 -0.23941
 H264 H -0.11706 0.62218 -0.21219
 C265 C 0.32067 1.18397 0.36260
 C266 C 0.35913 1.17606 0.33242
 C267 C 0.38559 1.14824 0.37018
 C268 C 0.36905 1.11914 0.39964
 H269 H 0.37256 1.19113 0.28009
 H270 H 0.41966 1.15062 0.36572
 H271 H 0.30856 1.17079 0.41968
 H272 H 0.33507 1.11532 0.39453
 C273 C 1.16928 -0.17603 -0.18231
 C274 C 1.17472 -0.16211 -0.10056
 C275 C 1.14693 -0.13491 -0.06527
 C276 C 1.12730 -0.11169 -0.11722
 H277 H 1.19916 -0.17190 -0.05531
 H278 H 1.14517 -0.13275 0.00661
 H279 H 1.14299 -0.16770 -0.22491
 H280 H 1.13287 -0.11168 -0.18823
 C281 C 0.66565 0.31999 0.33692
 C282 C 0.67000 0.33111 0.42157
 C283 C 0.64242 0.35772 0.46052
 C284 C 0.62509 0.38312 0.41226
 H285 H 0.69371 0.31957 0.46556
 H286 H 0.63927 0.35769 0.53228
 H287 H 0.64004 0.32960 0.29442
 H288 H 0.63217 0.38497 0.34213
 C289 C 0.83288 -0.17647 -0.16356
 C290 C 0.86386 -0.16161 -0.20900
 C291 C 0.89171 -0.13408 -0.17335
 C292 C 0.88382 -0.11506 -0.10043
 H293 H 0.86994 -0.17002 -0.27664
 H294 H 0.91945 -0.12899 -0.21177
 H295 H 0.82758 -0.16928 -0.09487
 H296 H 0.85639 -0.12033 -0.06123
 C297 C 0.32347 0.32744 0.34502
 C298 C 0.31897 0.34236 0.42522
 C299 C 0.34563 0.37065 0.46083
 C300 C 0.38257 0.38030 0.42650
 H301 H 0.29333 0.33441 0.46680
 H302 H 0.33344 0.38397 0.51835
 H303 H 0.34772 0.33566 0.30060
 H304 H 0.39459 0.36728 0.36838
 C305 C 0.17193 0.68332 -0.15629
 C306 C 0.14441 0.66349 -0.20165
 C307 C 0.12157 0.63625 -0.15662
 C308 C 0.10125 0.61196 -0.20391
 H309 H 0.13990 0.66647 -0.27317
 H310 H 0.12321 0.63519 -0.08437
 H311 H 0.17755 0.67930 -0.08544
 H312 H 0.10251 0.61215 -0.27618
 C313 C 0.68129 1.17884 0.34690
 C314 C 0.64974 1.16099 0.30756
 C315 C 0.62957 1.13294 0.35510
 C316 C 0.60145 1.11228 0.31367
 H317 H 0.63928 1.16649 0.23963
 H318 H 0.63804 1.12960 0.42483
 H319 H 0.69181 1.17229 0.41415
 H320 H 0.59279 1.11718 0.24441
 C321 C 0.17163 0.32503 0.14969
 C322 C 0.17071 0.33325 0.06309
 C323 C 0.14214 0.35998 0.02618
 C324 C 0.13064 0.38755 0.07383
 H325 H 0.19002 0.31906 0.01668
 H326 H 0.13264 0.35770 -0.04356
 H327 H 0.15005 0.33742 0.19503
 H328 H 0.14407 0.39131 0.14050
 C329 C 0.67881 0.82973 0.65834
 C330 C 0.68192 0.84628 0.58086
 C331 C 0.65382 0.87465 0.55077
 C332 C 0.62109 0.88731 0.59659
 H333 H 0.70685 0.83902 0.53592
 H334 H 0.66177 0.88583 0.48780
 H335 H 0.65455 0.83635 0.70509
 H336 H 0.61410 0.87725 0.66132
 C337 C 0.81456 0.18033 0.12548
 C338 C 0.84387 0.16283 0.17256
 C339 C 0.86709 0.13437 0.13065
 C340 C 0.89181 0.11319 0.17905
 H341 H 0.84951 0.16858 0.24281
 H342 H 0.86337 0.13088 0.05918
 H343 H 0.80806 0.17346 0.05618
 H344 H 0.89605 0.11818 0.25007
 C345 C 0.30932 0.67623 0.63003
 C346 C 0.34050 0.66058 0.67628
 C347 C 0.36173 0.63033 0.63823
 C348 C 0.39250 0.61368 0.68357
 H349 H 0.34966 0.66957 0.74267
 H350 H 0.35088 0.62152 0.57308
 H351 H 0.30023 0.66672 0.56405
 H352 H 0.40158 0.62299 0.74975
   
