data_POSCAR
  _audit_creation_date              2014-09-24
  _audit_creation_method            'ToBaCCo'
  _symmetry_space_group_name_H-M    'P1'
  _symmetry_Int_Tables_number       1
  _symmetry_cell_setting            triclinic
  loop_
  _symmetry_equiv_pos_as_xyz
 x,y,z
_cell_length_a 32.9613
_cell_length_b 32.1650
_cell_length_c 31.4993
_cell_angle_alpha 91.094500
_cell_angle_beta 89.873600
_cell_angle_gamma 89.744300
loop_
  _atom_site_label
  _atom_site_type_symbol
  _atom_site_fract_x
  _atom_site_fract_y
  _atom_site_fract_z
C1 C 0.30958 0.29656 0.21818
 H2 H 0.32132 0.29958 0.25014
 C3 C 0.32858 0.31727 0.18509
 H4 H 0.35496 0.33607 0.19199
 C5 C 0.26126 0.26771 0.17070
 H6 H 0.23566 0.24770 0.16484
 C7 C 0.27946 0.28761 0.13664
 H8 H 0.26703 0.28315 0.10509
 N9 N 0.27573 0.27350 0.21079
 C10 C 0.20799 0.27927 0.33053
 H11 H 0.20159 0.24674 0.33538
 C12 C 0.19175 0.30957 0.35828
 H13 H 0.17303 0.30022 0.38468
 C14 C 0.23932 0.33124 0.28962
 H15 H 0.25668 0.34002 0.26223
 C16 C 0.22466 0.36229 0.31706
 H17 H 0.23139 0.39448 0.31056
 Zn18 Zn 0.25061 0.24880 0.25849
 N19 N 0.23130 0.29055 0.29695
 C20 C 0.30027 0.21690 0.32554
 N21 N 0.29055 0.21500 0.28359
 C22 C 0.30983 0.18829 0.25630
 C23 C 0.34023 0.16196 0.27076
 C24 C 0.33037 0.19063 0.34154
 C25 C 0.17578 0.23062 0.21757
 C26 C 0.14445 0.20482 0.20313
 C27 C 0.17368 0.14866 0.24288
 C28 C 0.20517 0.17501 0.25525
 N29 N 0.20615 0.21495 0.24183
 H30 H 0.28472 0.23865 0.34657
 H31 H 0.30149 0.18756 0.22310
 H32 H 0.35516 0.14096 0.24838
 H33 H 0.33783 0.19252 0.37494
 H34 H 0.17649 0.26287 0.20847
 H35 H 0.12115 0.21720 0.18267
 H36 H 0.17364 0.11678 0.25337
 H37 H 0.22884 0.16342 0.27558
 C38 C 0.20028 0.35166 0.35163
 C39 C 0.31311 0.31339 0.14374
 C40 C 0.14346 0.16327 0.21571
 C41 C 0.35078 0.16278 0.31387
 C42 C 0.80872 0.79378 0.20324
 H43 H 0.82354 0.78804 0.23316
 C44 C 0.82950 0.81489 0.17149
 H45 H 0.85991 0.82571 0.17803
 C46 C 0.75183 0.78487 0.15837
 H47 H 0.72185 0.77272 0.15285
 C48 C 0.77143 0.80564 0.12578
 H49 H 0.75568 0.80937 0.09593
 N50 N 0.77023 0.78005 0.19658
 C51 C 0.69122 0.78628 0.30446
 H52 H 0.67137 0.76101 0.29534
 C53 C 0.67878 0.81480 0.33593
 H54 H 0.64922 0.81115 0.35031
 C55 C 0.75395 0.82103 0.29720
 H56 H 0.78323 0.82344 0.28218
 C57 C 0.74274 0.85020 0.32852
 H58 H 0.76364 0.87485 0.33702
 Zn59 Zn 0.74273 0.75199 0.24088
 N60 N 0.72798 0.79022 0.28524
 C61 C 0.78350 0.70769 0.30479
 N62 N 0.77799 0.71105 0.26223
 C63 C 0.79788 0.68566 0.23409
 C64 C 0.82446 0.65515 0.24850
 C65 C 0.80979 0.67754 0.32060
 C66 C 0.66418 0.75196 0.20653
 C67 C 0.62972 0.73538 0.18709
 C68 C 0.65855 0.66671 0.19414
 C69 C 0.69243 0.68463 0.21372
 N70 N 0.69505 0.72666 0.21864
 H71 H 0.76739 0.72831 0.32653
 H72 H 0.79304 0.68921 0.20039
 H73 H 0.84001 0.63524 0.22556
 H74 H 0.81363 0.67546 0.35457
 H75 H 0.66685 0.78527 0.21105
 H76 H 0.60600 0.75625 0.17677
 H77 H 0.65750 0.63329 0.18976
 H78 H 0.71696 0.66493 0.22408
 C79 C 0.70450 0.84765 0.34795
 C80 C 0.81067 0.82152 0.13211
 C81 C 0.62695 0.69230 0.17986
 C82 C 0.83071 0.65078 0.29227
 C83 C 0.81159 0.31068 0.72984
 H84 H 0.82439 0.31322 0.76137
 C85 C 0.82874 0.33281 0.69644
 H86 H 0.85464 0.35249 0.70272
 C87 C 0.76310 0.28070 0.68320
 H88 H 0.73812 0.25970 0.67775
 C89 C 0.77923 0.30208 0.64909
 H90 H 0.76597 0.29754 0.61793
 N91 N 0.77943 0.28516 0.72262
 C92 C 0.72221 0.26194 0.84477
 H93 H 0.72325 0.22831 0.84344
 C94 C 0.70409 0.28231 0.87929
 H95 H 0.69135 0.26410 0.90458
 C96 C 0.73634 0.32624 0.81239
 H97 H 0.74847 0.34304 0.78585
 C98 C 0.71734 0.34796 0.84596
 H99 H 0.71534 0.38155 0.84537
 Zn100 Zn 0.75919 0.25163 0.76659
 N101 N 0.73840 0.28396 0.81253
 C102 C 0.81358 0.21794 0.82667
 N103 N 0.80192 0.21673 0.78529
 C104 C 0.82123 0.19162 0.75646
 C105 C 0.85241 0.16507 0.76924
 C106 C 0.84415 0.19163 0.84100
 C107 C 0.68040 0.24293 0.73931
 C108 C 0.64604 0.22431 0.72193
 C109 C 0.68262 0.15911 0.71759
 C110 C 0.71632 0.17896 0.73573
 N111 N 0.71479 0.22038 0.74537
 H112 H 0.79933 0.23936 0.84889
 H113 H 0.81218 0.19204 0.72348
 H114 H 0.86678 0.14505 0.74554
 H115 H 0.85198 0.19341 0.87429
 H116 H 0.67998 0.27578 0.74733
 H117 H 0.61928 0.24317 0.71673
 H118 H 0.68451 0.12634 0.70936
 H119 H 0.74376 0.16143 0.74129
 C120 C 0.70106 0.32578 0.87994
 C121 C 0.81271 0.32823 0.65530
 C122 C 0.64705 0.18207 0.71011
 C123 C 0.86394 0.16411 0.81232
 C124 C 0.29750 0.81523 0.71136
 H125 H 0.29448 0.82903 0.74268
 C126 C 0.31992 0.83588 0.68047
 H127 H 0.33389 0.86532 0.68861
 C128 C 0.28254 0.76073 0.66235
 H129 H 0.26756 0.73159 0.65527
 C130 C 0.30428 0.78037 0.63056
 H131 H 0.30611 0.76581 0.59933
 N132 N 0.27977 0.77803 0.70199
 C133 C 0.19025 0.78562 0.79473
 H134 H 0.16912 0.76916 0.77451
 C135 C 0.17527 0.81043 0.82803
 H136 H 0.14280 0.81273 0.83246
 C137 C 0.25787 0.80114 0.81440
 H138 H 0.29008 0.79673 0.80938
 C139 C 0.24416 0.82620 0.84832
 H140 H 0.26607 0.84147 0.86881
 Zn141 Zn 0.24951 0.74732 0.74204
 N142 N 0.23090 0.78182 0.78805
 C143 C 0.28612 0.69797 0.80521
 N144 N 0.28251 0.70366 0.76270
 C145 C 0.30299 0.67898 0.73432
 C146 C 0.32920 0.64795 0.74836
 C147 C 0.31202 0.66729 0.82064
 C148 C 0.18060 0.75213 0.69136
 C149 C 0.14670 0.73807 0.66907
 C150 C 0.16246 0.66811 0.69059
 C151 C 0.19591 0.68363 0.71294
 N152 N 0.20422 0.72501 0.71293
 H153 H 0.26902 0.71726 0.82732
 H154 H 0.29936 0.68358 0.70069
 H155 H 0.34560 0.62904 0.72520
 H156 H 0.31455 0.66372 0.85459
 H157 H 0.18812 0.78485 0.69172
 H158 H 0.12826 0.76021 0.65216
 H159 H 0.15622 0.63512 0.69106
 H160 H 0.21514 0.66266 0.73033
 C161 C 0.20232 0.83135 0.85523
 C162 C 0.32360 0.81828 0.63947
 C163 C 0.13737 0.69555 0.66833
 C164 C 0.33436 0.64210 0.79204
 C165 C 0.05177 0.06216 0.04655
 H166 H 0.06316 0.06668 0.01474
 C167 C 0.06749 0.08560 0.08049
 H168 H 0.09127 0.10777 0.07441
 C169 C 0.00802 0.02646 0.09300
 H170 H -0.01538 0.00371 0.09790
 C171 C 0.02307 0.04894 0.12782
 H172 H 0.01138 0.04284 0.15922
 N173 N 0.02352 0.03234 0.05352
 C174 C 0.04343 -0.06369 -0.04408
 H175 H 0.01267 -0.06770 -0.05529
 C176 C 0.07479 -0.08749 -0.06204
 H177 H 0.06747 -0.10986 -0.08682
 C178 C 0.08956 -0.02959 0.00224
 H179 H 0.09523 -0.00725 0.02751
 C180 C 0.12187 -0.05271 -0.01484
 H181 H 0.15216 -0.04755 -0.00269
 Zn182 Zn 0.00716 -0.00198 0.00694
 N183 N 0.05138 -0.03475 -0.01325
 C184 C 0.00335 0.02926 -0.07690
 N185 N -0.01203 0.03267 -0.03687
 C186 C -0.04260 0.05985 -0.02742
 C187 C -0.06050 0.08321 -0.05934
 C188 C -0.01373 0.05190 -0.10981
 C189 C -0.02691 -0.06705 0.05420
 C190 C -0.05744 -0.09376 0.06788
 C191 C -0.10249 -0.06393 0.01622
 C192 C -0.07133 -0.03752 0.00391
 N193 N -0.03463 -0.03888 0.02351
 H194 H 0.02829 0.00832 -0.08373
 H195 H -0.05404 0.06222 0.00476
 H196 H -0.08582 0.10329 -0.05118
 H197 H -0.00180 0.04793 -0.14168
 H198 H 0.00287 -0.06832 0.06849
 H199 H -0.05081 -0.11563 0.09260
 H200 H -0.13165 -0.06196 0.00062
 H201 H -0.07665 -0.01603 -0.02138
 C202 C 0.11487 -0.08165 -0.04795
 C203 C 0.05379 0.07832 0.12196
 C204 C -0.09600 -0.09204 0.04905
 C205 C -0.04658 0.07875 -0.10144
 C206 C -0.00215 0.58653 0.52483
 H207 H -0.02138 0.59422 0.49843
 C208 C 0.01396 0.61849 0.55002
 H209 H 0.00647 0.65040 0.54289
 C210 C 0.03279 0.53606 0.56479
 H211 H 0.04045 0.50379 0.56979
 C212 C 0.04983 0.56713 0.59064
 H213 H 0.07006 0.55834 0.61593
 N214 N 0.00750 0.54622 0.53249
 C215 C 0.04154 0.43394 0.47320
 H216 H 0.01794 0.41448 0.48582
 C217 C 0.07634 0.41563 0.45528
 H218 H 0.07916 0.38212 0.45443
 C219 C 0.06669 0.50122 0.45921
 H220 H 0.06246 0.53460 0.46057
 C221 C 0.10194 0.48434 0.44142
 H222 H 0.12472 0.50502 0.42904
 Zn223 Zn -0.01000 0.50327 0.49497
 N224 N 0.03710 0.47603 0.47403
 C225 C -0.02463 0.52141 0.40864
 N226 N -0.03914 0.52596 0.44893
 C227 C -0.07491 0.54587 0.45694
 C228 C -0.09672 0.56379 0.42392
 C229 C -0.04560 0.53852 0.37468
 C230 C -0.05270 0.46921 0.56496
 C231 C -0.08048 0.44247 0.58386
 C232 C -0.09159 0.40977 0.51521
 C233 C -0.06348 0.43684 0.49774
 N234 N -0.04471 0.46581 0.52263
 H235 H 0.00327 0.50458 0.40264
 H236 H -0.08623 0.54825 0.48917
 H237 H -0.12497 0.57967 0.43107
 H238 H -0.03330 0.53504 0.34291
 H239 H -0.03812 0.49304 0.58402
 H240 H -0.08690 0.44611 0.61741
 H241 H -0.10644 0.38709 0.49478
 H242 H -0.05700 0.43526 0.46406
 C243 C 0.10687 0.44101 0.43856
 C244 C 0.04085 0.60907 0.58297
 C245 C -0.10051 0.41241 0.55877
 C246 C -0.08183 0.56055 0.38214
 C247 C 0.51519 0.08234 0.55481
 H248 H 0.49388 0.09308 0.53149
 C249 C 0.52870 0.10996 0.58627
 H250 H 0.51749 0.14165 0.58684
 C251 C 0.55652 0.02864 0.58204
 H252 H 0.56720 -0.00319 0.58000
 C253 C 0.57153 0.05560 0.61362
 H254 H 0.59355 0.04431 0.63612
 N255 N 0.52898 0.04243 0.55333
 C256 C 0.55700 -0.06445 0.48005
 H257 H 0.53120 -0.08242 0.48994
 C258 C 0.58949 -0.08454 0.45970
 H259 H 0.58830 -0.11784 0.45442
 C260 C 0.59011 0.00052 0.47519
 H261 H 0.58981 0.03379 0.48091
 C262 C 0.62343 -0.01838 0.45512
 H263 H 0.64876 0.00054 0.44541
 Zn264 Zn 0.51141 0.00573 0.50936
 N265 N 0.55739 -0.02249 0.48637
 C266 C 0.50215 0.03726 0.42656
 N267 N 0.48509 0.03567 0.46584
 C268 C 0.44827 0.05344 0.47404
 C269 C 0.42762 0.07475 0.44234
 C270 C 0.48247 0.05794 0.39394
 C271 C 0.46602 -0.03636 0.57252
 C272 C 0.43760 -0.06515 0.58676
 C273 C 0.42504 -0.08558 0.51377
 C274 C 0.45352 -0.05646 0.50099
 N275 N 0.47367 -0.03293 0.53028
 H276 H 0.53087 0.02217 0.42019
 H277 H 0.43484 0.05081 0.50524
 H278 H 0.39826 0.08831 0.44949
 H279 H 0.49657 0.05882 0.36291
 H280 H 0.48207 -0.01695 0.59521
 H281 H 0.43246 -0.06772 0.62050
 H282 H 0.40958 -0.10418 0.48987
 H283 H 0.45982 -0.05266 0.46757
 C284 C 0.62294 -0.06130 0.44625
 C285 C 0.55749 0.09685 0.61587
 C286 C 0.41677 -0.09040 0.55714
 C287 C 0.44479 0.07716 0.40160
 C288 C 0.50090 0.58066 0.02650
 H289 H 0.48426 0.58860 -0.00166
 C290 C 0.51456 0.61242 0.05354
 H291 H 0.50793 0.64444 0.04603
 C292 C 0.53126 0.52979 0.06980
 H293 H 0.53775 0.49742 0.07571
 C294 C 0.54616 0.56072 0.09735
 H295 H 0.56380 0.55195 0.12472
 N296 N 0.50909 0.54021 0.03515
 C297 C 0.53978 0.42537 -0.00168
 H298 H 0.51600 0.41436 0.01880
 C299 C 0.57262 0.39944 -0.01100
 H300 H 0.57334 0.36842 0.00174
 C301 C 0.56847 0.47930 -0.04208
 H302 H 0.56694 0.51083 -0.05332
 C303 C 0.60161 0.45385 -0.05311
 H304 H 0.62546 0.46577 -0.07311
 Zn305 Zn 0.49194 0.49726 -0.00271
 N306 N 0.53784 0.46428 -0.01775
 C307 C 0.48030 0.51398 -0.09115
 N308 N 0.46616 0.51996 -0.05087
 C309 C 0.43091 0.54094 -0.04321
 C310 C 0.40929 0.55848 -0.07644
 C311 C 0.45951 0.53089 -0.12544
 C312 C 0.44265 0.46483 0.06442
 C313 C 0.41446 0.43689 0.08082
 C314 C 0.40750 0.40606 0.01065
 C315 C 0.43590 0.43420 -0.00424
 N316 N 0.45304 0.46259 0.02263
 H317 H 0.50744 0.49585 -0.09693
 H318 H 0.41968 0.54416 -0.01100
 H319 H 0.38138 0.57497 -0.06933
 H320 H 0.47137 0.52622 -0.15725
 H321 H 0.45638 0.48796 0.08509
 H322 H 0.40652 0.43907 0.11411
 H323 H 0.39452 0.38346 -0.01123
 H324 H 0.44472 0.43324 -0.03735
 C325 C 0.60370 0.41329 -0.03754
 C326 C 0.53782 0.60267 0.08923
 C327 C 0.39670 0.40683 0.05373
 C328 C 0.42375 0.55390 -0.11824
 N329 N 0.18641 -0.10181 -0.05397
 N330 N 0.21066 -0.12438 -0.07899
 C331 C 0.18715 -0.14172 -0.10945
 C332 C 0.14765 -0.12892 -0.10218
 N333 N 0.14835 -0.10409 -0.06726
 H334 H 0.12129 -0.13608 -0.12122
 N335 N 0.17393 0.44596 0.40641
 N336 N 0.19950 0.42327 0.38317
 C337 C 0.18340 0.38494 0.37940
 C338 C 0.14701 0.38485 0.40126
 N339 N 0.14209 0.42364 0.41755
 H340 H 0.12513 0.35993 0.40246
 N341 N 0.69209 -0.06421 0.41803
 N342 N 0.71463 -0.08764 0.39211
 C343 C 0.69159 -0.12020 0.37959
 C344 C 0.65410 -0.11590 0.39896
 N345 N 0.65563 -0.08065 0.42266
 H346 H 0.62770 -0.13537 0.39470
 N347 N 0.64733 0.35355 -0.02551
 N348 N 0.67339 0.32945 -0.04654
 C349 C 0.67934 0.34680 -0.08466
 C350 C 0.65615 0.38267 -0.08623
 N351 N 0.63647 0.38559 -0.04874
 H352 H 0.65119 0.40236 -0.11323
 N353 N -0.06234 0.08832 -0.17638
 N354 N -0.08659 0.11068 -0.20056
 C355 C -0.10725 0.13716 -0.17456
 C356 C -0.09439 0.13015 -0.13337
 N357 N -0.06661 0.09936 -0.13588
 H358 H -0.10467 0.14527 -0.10436
 N359 N -0.09606 0.56986 0.30685
 N360 N -0.11874 0.59320 0.28203
 C361 C -0.14079 0.61870 0.30767
 C362 C -0.13087 0.61000 0.34921
 N363 N -0.10290 0.57934 0.34734
 H364 H -0.14204 0.62517 0.37786
 N365 N 0.43320 0.09166 0.32694
 N366 N 0.40887 0.11377 0.30271
 C367 C 0.38322 0.13474 0.32885
 C368 C 0.39268 0.12460 0.37015
 N369 N 0.42401 0.09754 0.36756
 H370 H 0.37816 0.13572 0.39904
 N371 N 0.40912 0.56249 -0.19368
 N372 N 0.38577 0.58521 -0.21848
 C373 C 0.36339 0.61040 -0.19281
 C374 C 0.37391 0.60227 -0.15136
 N375 N 0.40246 0.57218 -0.15320
 H376 H 0.36276 0.61759 -0.12279
 N377 N -0.16166 -0.12571 0.04015
 N378 N -0.18738 -0.14880 0.06166
 C379 C -0.17022 -0.15631 0.09965
 C380 C -0.13268 -0.13704 0.10044
 N381 N -0.12858 -0.11828 0.06277
 H382 H -0.11116 -0.13541 0.12627
 N383 N -0.15757 0.36471 0.55339
 N384 N -0.18128 0.34232 0.57792
 C385 C -0.16907 0.34899 0.61831
 C386 C -0.13688 0.37645 0.61765
 N387 N -0.13067 0.38550 0.57651
 H388 H -0.11932 0.38804 0.64426
 N389 N 0.37190 -0.14929 0.54403
 N390 N 0.34707 -0.17407 0.56465
 C391 C 0.34711 -0.16132 0.60568
 C392 C 0.37301 -0.12773 0.60948
 N393 N 0.38794 -0.12123 0.57026
 H394 H 0.38035 -0.11013 0.63798
 N395 N 0.34350 0.35503 0.04425
 N396 N 0.32096 0.32972 0.06695
 C397 C 0.33149 0.33578 0.10794
 C398 C 0.36124 0.36597 0.10956
 N399 N 0.36784 0.37720 0.06916
 H400 H 0.37679 0.37820 0.13725
 N401 N 0.07284 0.08155 0.19661
 N402 N 0.09660 0.10315 0.22263
 C403 C 0.11191 0.13461 0.20004
 C404 C 0.09693 0.13153 0.15924
 N405 N 0.07276 0.09783 0.15829
 H406 H 0.10453 0.15077 0.13259
 N407 N 0.04799 0.68159 0.60581
 N408 N 0.07302 0.70558 0.62800
 C409 C 0.10191 0.68052 0.64392
 C410 C 0.09362 0.64022 0.63079
 N411 N 0.05975 0.64220 0.60701
 H412 H 0.11168 0.61267 0.63613
 N413 N 0.55234 0.15946 0.66023
 N414 N 0.57520 0.18280 0.68549
 C415 C 0.61140 0.16340 0.68874
 C416 C 0.60982 0.12701 0.66465
 N417 N 0.57250 0.12584 0.64730
 H418 H 0.63417 0.10515 0.65799
 N419 N 0.53746 0.67334 0.11870
 N420 N 0.56029 0.69800 0.14272
 C421 C 0.59205 0.67504 0.15591
 C422 C 0.58772 0.63520 0.13919
 N423 N 0.55335 0.63550 0.11615
 H424 H 0.60863 0.60932 0.14137
   
