data_POSCAR
  _audit_creation_date              2014-09-24
  _audit_creation_method            'ToBaCCo'
  _symmetry_space_group_name_H-M    'P1'
  _symmetry_Int_Tables_number       1
  _symmetry_cell_setting            triclinic
  loop_
  _symmetry_equiv_pos_as_xyz
 x,y,z
_cell_length_a 37.9893
_cell_length_b 38.3211
_cell_length_c 8.1809
_cell_angle_alpha 90.175700
_cell_angle_beta 89.095500
_cell_angle_gamma 90.105500
loop_
  _atom_site_label
  _atom_site_type_symbol
  _atom_site_fract_x
  _atom_site_fract_y
  _atom_site_fract_z
O1 O 0.22184 0.28707 0.06880
 O2 O 0.28926 0.22026 0.13934
 O3 O 0.22213 0.21885 0.07719
 O4 O 0.28888 0.28799 0.14255
 O5 O 0.27773 0.28805 0.40790
 O6 O 0.21136 0.22011 0.34246
 O7 O 0.27815 0.22006 0.40466
 O8 O 0.21100 0.28791 0.33431
 Cu9 Cu 0.25693 0.25358 0.08189
 Cu10 Cu 0.24307 0.25419 0.39719
 C11 C 0.20463 0.29881 0.19136
 C12 C 0.29539 0.20870 0.28107
 C13 C 0.20524 0.20761 0.20207
 C14 C 0.29507 0.29940 0.28527
 O15 O 0.78880 0.28417 0.33398
 O16 O 0.72486 0.21578 0.42982
 O17 O 0.78962 0.21644 0.32526
 O18 O 0.72203 0.28364 0.41452
 O19 O 0.70727 0.28215 0.15481
 O20 O 0.77370 0.21562 0.06697
 O21 O 0.70868 0.21444 0.17215
 O22 O 0.77422 0.28350 0.07404
 Cu23 Cu 0.75796 0.25023 0.40117
 Cu24 Cu 0.73929 0.24890 0.09170
 C25 C 0.79297 0.29534 0.18943
 C26 C 0.70580 0.20321 0.31806
 C27 C 0.79305 0.20459 0.18053
 C28 C 0.70290 0.29412 0.29814
 O29 O 0.71164 0.72011 0.79834
 O30 O 0.77922 0.78819 0.85671
 O31 O 0.71300 0.78837 0.77749
 O32 O 0.77725 0.72048 0.88455
 O33 O 0.79158 0.71550 0.62318
 O34 O 0.72787 0.78373 0.51641
 O35 O 0.79411 0.78337 0.59579
 O36 O 0.72630 0.71619 0.53674
 Cu37 Cu 0.74358 0.75484 0.85503
 Cu38 Cu 0.76167 0.74931 0.54256
 C39 C 0.70754 0.70647 0.65808
 C40 C 0.79829 0.79731 0.73514
 C41 C 0.70941 0.79764 0.62982
 C42 C 0.79527 0.70611 0.77078
 O43 O 0.22453 0.71630 0.94772
 O44 O 0.29057 0.78401 0.84833
 O45 O 0.22557 0.78413 0.95198
 O46 O 0.28988 0.71588 0.85020
 O47 O 0.27400 0.71631 0.59168
 O48 O 0.20891 0.78441 0.69482
 O49 O 0.27392 0.78392 0.59091
 O50 O 0.20874 0.71618 0.68907
 Cu51 Cu 0.25946 0.75007 0.92514
 Cu52 Cu 0.23949 0.75026 0.61615
 C53 C 0.20553 0.70451 0.83352
 C54 C 0.29348 0.79550 0.70317
 C55 C 0.20620 0.79606 0.84019
 C56 C 0.29298 0.70439 0.70507
 C57 C 0.98756 0.10876 0.12425
 C58 C 1.02264 0.10959 0.08339
 C59 C 1.03212 0.07577 0.04113
 N60 N 1.00382 0.05444 0.05416
 C61 C 0.97651 0.07451 0.10480
 C62 C 1.06665 0.06536 -0.00481
 C63 C 1.07655 0.03058 -0.04296
 C64 C 1.11116 0.01935 -0.05696
 C65 C 1.11013 -0.01587 -0.08704
 C66 C 1.07491 -0.02547 -0.09030
 N67 N 1.05459 0.00317 -0.06644
 C68 C 1.06301 -0.06016 -0.11438
 C69 C 1.02768 -0.07144 -0.09722
 C70 C 1.01673 -0.10582 -0.11306
 C71 C 0.98124 -0.10622 -0.08145
 C72 C 0.97152 -0.07208 -0.04721
 N73 N 0.99998 -0.05095 -0.05669
 C74 C 0.93667 -0.06118 -0.01198
 C75 C 0.92700 -0.02651 0.02987
 C76 C 0.89249 -0.01489 0.04088
 C77 C 0.89376 0.01987 0.08061
 C78 C 0.92905 0.02892 0.09112
 N79 N 0.94915 0.00028 0.06351
 C80 C 0.94122 0.06319 0.12407
 H81 H 0.97187 0.13108 0.16087
 H82 H 1.03916 0.13262 0.08427
 H83 H 0.97615 -0.00133 0.07798
 H84 H 1.13486 0.03472 -0.04327
 H85 H 1.13291 -0.03256 -0.10207
 H86 H 1.03268 -0.12844 -0.14216
 H87 H 0.96460 -0.12917 -0.08245
 H88 H 0.87109 0.03664 0.09699
 H89 H 1.02748 0.00436 -0.07593
 H90 H 0.86870 -0.02972 0.02026
 C91 C 0.51813 0.60152 0.77947
 C92 C 0.48209 0.60139 0.77709
 C93 C 0.47200 0.56876 0.72058
 N94 N 0.50077 0.54917 0.68697
 C95 C 0.52901 0.56895 0.72467
 C96 C 0.43683 0.55864 0.69112
 C97 C 0.42675 0.52526 0.63389
 C98 C 0.39340 0.51682 0.57905
 C99 C 0.39362 0.48175 0.54353
 C100 C 0.42702 0.46958 0.57840
 N101 N 0.44694 0.49623 0.63438
 C102 C 0.43738 0.43421 0.56693
 C103 C 0.47259 0.42271 0.57732
 C104 C 0.48289 0.38804 0.57882
 C105 C 0.51898 0.38800 0.58450
 C106 C 0.52956 0.42265 0.58600
 N107 N 0.50117 0.44379 0.58030
 C108 C 0.56497 0.43405 0.58502
 C109 C 0.57539 0.46942 0.59748
 C110 C 0.60909 0.48163 0.56293
 C111 C 0.60899 0.51682 0.59530
 C112 C 0.57518 0.52532 0.64803
 N113 N 0.55499 0.49615 0.65075
 C114 C 0.56451 0.55904 0.69941
 H115 H 0.53438 0.62344 0.81439
 H116 H 0.46535 0.62322 0.80960
 H117 H 0.53002 0.49383 0.70269
 H118 H 0.37098 0.53395 0.56758
 H119 H 0.37149 0.46684 0.49918
 H120 H 0.46615 0.36516 0.57581
 H121 H 0.53553 0.36505 0.58689
 H122 H 0.63142 0.53407 0.58200
 H123 H 0.47136 0.49393 0.68782
 H124 H 0.63152 0.46672 0.51916
 C125 C 0.01794 0.60093 -0.25769
 C126 C -0.01801 0.60112 -0.26765
 C127 C -0.02956 0.56847 -0.21743
 N128 N -0.00183 0.54857 -0.17501
 C129 C 0.02731 0.56817 -0.20154
 C130 C -0.06529 0.55843 -0.20261
 C131 C -0.07658 0.52451 -0.15801
 C132 C -0.11090 0.51579 -0.11436
 C133 C -0.11142 0.48042 -0.08708
 C134 C -0.07746 0.46835 -0.11587
 N135 N -0.05649 0.49536 -0.16055
 C136 C -0.06725 0.43290 -0.10586
 C137 C -0.03192 0.42132 -0.10575
 C138 C -0.02167 0.38660 -0.10616
 C139 C 0.01440 0.38641 -0.09755
 C140 C 0.02502 0.42101 -0.09187
 N141 N -0.00336 0.44224 -0.09557
 C142 C 0.06025 0.43227 -0.07491
 C143 C 0.07077 0.46772 -0.07472
 C144 C 0.10393 0.47948 -0.03159
 C145 C 0.10447 0.51490 -0.05754
 C146 C 0.07160 0.52393 -0.11552
 N147 N 0.05135 0.49497 -0.12645
 C148 C 0.06217 0.55774 -0.16802
 H149 H 0.03509 0.62273 -0.28614
 H150 H -0.03379 0.62307 -0.30524
 H151 H 0.02740 0.49328 -0.18478
 H152 H -0.13334 0.53303 -0.10368
 H153 H -0.13433 0.46531 -0.05083
 H154 H -0.03845 0.36377 -0.11093
 H155 H 0.03086 0.36341 -0.09407
 H156 H 0.12678 0.53191 -0.03802
 H157 H -0.03103 0.49338 -0.20705
 H158 H 0.12570 0.46408 0.01193
 C159 C 0.51475 1.10966 0.43090
 C160 C 0.47920 1.11035 0.46236
 C161 C 0.46848 1.07594 0.47922
 N162 N 0.49627 1.05428 0.45852
 C163 C 0.52466 1.07485 0.43047
 C164 C 0.43328 1.06511 0.50583
 C165 C 0.42338 1.03003 0.53432
 C166 C 0.38934 1.01733 0.52215
 C167 C 0.39045 0.98258 0.56254
 C168 C 0.42519 0.97488 0.59818
 N169 N 0.44500 1.00411 0.58236
 C170 C 0.43707 0.94198 0.65297
 C171 C 0.47291 0.93270 0.66657
 C172 C 0.48484 0.90155 0.73105
 C173 C 0.52077 0.90174 0.71336
 C174 C 0.52973 0.93292 0.63767
 N175 N 0.50036 0.95159 0.60777
 C176 C 0.56431 0.94241 0.58801
 C177 C 0.57271 0.97406 0.50738
 C178 C 0.60462 0.98116 0.42949
 C179 C 0.60300 1.01504 0.37516
 C180 C 0.57028 1.02790 0.42239
 N181 N 0.55208 1.00281 0.50340
 C182 C 0.55933 1.06282 0.40070
 H183 H 0.53141 1.13226 0.41141
 H184 H 0.46312 1.13358 0.47185
 H185 H 0.52890 1.00649 0.56958
 H186 H 0.36606 1.03157 0.48733
 H187 H 0.36804 0.96513 0.56637
 H188 H 0.46936 0.88052 0.78329
 H189 H 0.53811 0.88081 0.74864
 H190 H 0.62384 1.02883 0.31060
 H191 H 0.47084 1.00716 0.61897
 H192 H 0.62698 0.96394 0.41437
 C193 C 1.14651 0.14247 0.02467
 C194 C 1.12862 0.13047 0.16528
 N195 N 1.13653 0.14394 0.31330
 C196 C 1.16150 0.16903 0.32805
 C197 C 1.17964 0.18146 0.18781
 N198 N 1.17162 0.16766 0.03883
 N199 N 1.13825 0.12883 -0.12349
 C200 C 1.11287 0.10385 -0.13703
 C201 C 1.09491 0.09204 0.00394
 N202 N 1.10338 0.10566 0.15177
 H203 H 1.16699 0.17910 0.44878
 H204 H 1.10658 0.09342 -0.25620
 C205 C 0.64127 0.63815 0.75639
 C206 C 0.63178 0.62658 0.60008
 N207 N 0.64716 0.64118 0.46591
 C208 C 0.67163 0.66690 0.48072
 C209 C 0.68100 0.67881 0.63707
 N210 N 0.66548 0.66402 0.77127
 N211 N 0.62616 0.62327 0.89069
 C212 C 0.60183 0.59743 0.87575
 C213 C 0.59196 0.58614 0.71946
 N214 N 0.60726 0.60100 0.58505
 H215 H 0.68346 0.67803 0.37148
 H216 H 0.58999 0.58602 0.98438
 C217 C -0.14809 0.35848 -0.02624
 C218 C -0.12689 0.37005 0.10246
 N219 N -0.13257 0.35759 0.25534
 C220 C -0.15841 0.33392 0.28601
 C221 C -0.17963 0.32191 0.15770
 N222 N -0.17391 0.33460 0.00397
 N223 N -0.14241 0.37134 -0.17905
 C224 C -0.11651 0.39523 -0.20866
 C225 C -0.09526 0.40657 -0.07987
 N226 N -0.10101 0.39367 0.07275
 H227 H -0.16213 0.32445 0.40960
 H228 H -0.11248 0.40528 -0.33106
 C229 C 0.36113 0.86415 0.75920
 C230 C 0.36894 0.87364 0.59695
 N231 N 0.35196 0.85763 0.47273
 C232 C 0.32747 0.83248 0.50319
 C233 C 0.31975 0.82268 0.66549
 N234 N 0.33688 0.83886 0.78967
 N235 N 0.37782 0.88047 0.88357
 C236 C 0.40213 0.90581 0.85291
 C237 C 0.41029 0.91501 0.69063
 N238 N 0.39340 0.89870 0.56629
 H239 H 0.31436 0.82015 0.40160
 H240 H 0.41519 0.91850 0.95369
 C241 C -0.14014 0.63730 -0.29376
 C242 C -0.13330 0.62692 -0.13304
 N243 N -0.15043 0.64286 -0.00652
 C244 C -0.17409 0.66880 -0.03326
 C245 C -0.18077 0.67959 -0.19450
 N246 N -0.16345 0.66334 -0.32042
 N247 N -0.12336 0.62124 -0.42077
 C248 C -0.09977 0.59533 -0.39435
 C249 C -0.09240 0.58523 -0.23366
 N250 N -0.10944 0.60125 -0.10630
 H251 H -0.18730 0.68094 0.07041
 H252 H -0.08647 0.58304 -0.49733
 C253 C 0.35329 1.14139 0.46368
 C254 C 0.37478 1.13226 0.32893
 N255 N 0.36994 1.14798 0.18294
 C256 C 0.34457 1.17250 0.16497
 C257 C 0.32299 1.18200 0.29950
 N258 N 0.32796 1.16611 0.44627
 N259 N 0.35810 1.12530 0.60938
 C260 C 0.38345 1.10055 0.62632
 C261 C 0.40509 1.09160 0.49170
 N262 N 0.40016 1.10776 0.34605
 H263 H 0.34143 1.18454 0.04659
 H264 H 0.38689 1.08810 0.74357
 C265 C 1.13810 -0.13875 -0.21701
 C266 C 1.13356 -0.12567 -0.05758
 N267 N 1.15319 -0.13874 0.06503
 C268 C 1.17721 -0.16435 0.03575
 C269 C 1.18179 -0.17771 -0.12403
 N270 N 1.16195 -0.16439 -0.24631
 N271 N 1.11854 -0.12564 -0.33990
 C272 C 1.09451 -0.10006 -0.31036
 C273 C 1.08980 -0.08712 -0.15084
 N274 N 1.10948 -0.10025 -0.02788
 H275 H 1.19242 -0.17416 0.13651
 H276 H 1.07903 -0.09005 -0.40970
 C277 C 0.64540 0.35935 0.50696
 C278 C 0.62225 0.36821 0.38145
 N279 N 0.62599 0.35306 0.23234
 C280 C 0.65183 0.32936 0.20259
 C281 C 0.67503 0.32016 0.32799
 N282 N 0.67118 0.33548 0.47773
 N283 N 0.64178 0.37490 0.65568
 C284 C 0.61605 0.39891 0.68439
 C285 C 0.59283 0.40762 0.55902
 N286 N 0.59650 0.39199 0.41032
 H287 H 0.65406 0.31771 0.08218
 H288 H 0.61368 0.41111 0.80352
 C289 C 0.85649 -0.13701 -0.07088
 C290 C 0.87685 -0.12555 -0.20506
 N291 N 0.87116 -0.13923 -0.35545
 C292 C 0.84603 -0.16398 -0.37814
 C293 C 0.82556 -0.17568 -0.24415
 N294 N 0.83134 -0.16175 -0.09336
 N295 N 0.86239 -0.12339 0.07976
 C296 C 0.88780 -0.09883 0.10228
 C297 C 0.90821 -0.08735 -0.03195
 N298 N 0.90217 -0.10107 -0.18265
 H299 H 0.84214 -0.17439 -0.49967
 H300 H 0.89220 -0.08845 0.22348
 C301 C 0.35611 0.36059 0.49090
 C302 C 0.37668 0.37287 0.35892
 N303 N 0.36993 0.36141 0.20538
 C304 C 0.34361 0.33812 0.17762
 C305 C 0.32304 0.32558 0.30962
 N306 N 0.32991 0.33725 0.46338
 N307 N 0.36270 0.37218 0.64443
 C308 C 0.38891 0.39558 0.67201
 C309 C 0.40955 0.40783 0.54032
 N310 N 0.40293 0.39618 0.38642
 H311 H 0.33899 0.32934 0.05391
 H312 H 0.39359 0.40467 0.79520
 C313 C 0.14059 0.63459 -0.24212
 C314 C 0.13024 0.62499 -0.08295
 N315 N 0.14508 0.64119 0.04697
 C316 C 0.16970 0.66669 0.02486
 C317 C 0.17963 0.67672 -0.13460
 N318 N 0.16476 0.66024 -0.26399
 N319 N 0.12617 0.61831 -0.37243
 C320 C 0.10153 0.59295 -0.35097
 C321 C 0.09054 0.58376 -0.19220
 N322 N 0.10527 0.59993 -0.06130
 H323 H 0.18105 0.67924 0.13044
 H324 H 0.09014 0.58044 -0.45657
 C325 C 0.63551 1.13908 0.27408
 C326 C 0.63313 1.12559 0.43328
 N327 N 0.65481 1.13789 0.55016
 C328 C 0.67882 1.16320 0.51577
 C329 C 0.68148 1.17694 0.35626
 N330 N 0.65965 1.16431 0.23903
 N331 N 0.61330 1.12705 0.15802
 C332 C 0.58874 1.10223 0.19445
 C333 C 0.58641 1.08881 0.35385
 N334 N 0.60877 1.10080 0.46935
 H335 H 0.69564 1.17239 0.61252
 H336 H 0.57109 1.09316 0.10076
 C337 C 0.14103 0.35788 -0.00968
 C338 C 0.12331 0.37266 0.12568
 N339 N 0.13261 0.36338 0.27893
 C340 C 0.15879 0.33992 0.30338
 C341 C 0.17667 0.32498 0.16829
 N342 N 0.16725 0.33445 0.01457
 N343 N 0.13170 0.36721 -0.16306
 C344 C 0.10550 0.39072 -0.18718
 C345 C 0.08783 0.40556 -0.05192
 N346 N 0.09720 0.39617 0.10168
 H347 H 0.16550 0.33301 0.42724
 H348 H 0.09862 0.39797 -0.31041
 C349 C 0.64391 0.86851 0.68577
 C350 C 0.63343 0.87466 0.52456
 N351 N 0.64845 0.85610 0.40024
 C352 C 0.67335 0.83151 0.42979
 C353 C 0.68344 0.82483 0.59145
 N354 N 0.66841 0.84368 0.71545
 N355 N 0.62923 0.88724 0.81018
 C356 C 0.60427 0.91171 0.78091
 C357 C 0.59314 0.91743 0.62024
 N358 N 0.60813 0.89878 0.49537
 H359 H 0.68475 0.81702 0.32833
 H360 H 0.59270 0.92618 0.88206
 C361 C 0.86467 0.14007 0.23443
 C362 C 0.86972 0.12779 0.07382
 N363 N 0.84978 0.14064 -0.04795
 C364 C 0.82492 0.16530 -0.01679
 C365 C 0.81975 0.17780 0.14373
 N366 N 0.83987 0.16479 0.26576
 N367 N 0.88464 0.12703 0.35619
 C368 C 0.90944 0.10224 0.32439
 C369 C 0.91447 0.09002 0.16373
 N370 N 0.89448 0.10317 0.04212
 H371 H 0.80942 0.17504 -0.11665
 H372 H 0.92512 0.09217 0.42293
 C373 C 0.35884 0.63535 0.77466
 C374 C 0.36842 0.62558 0.61453
 N375 N 0.35279 0.64134 0.48616
 C376 C 0.32809 0.66659 0.51068
 C377 C 0.31887 0.67677 0.67104
 N378 N 0.33454 0.66073 0.79895
 N379 N 0.37411 0.61946 0.90338
 C380 C 0.39879 0.59430 0.87928
 C381 C 0.40890 0.58488 0.71937
 N382 N 0.39338 0.60070 0.59028
 H383 H 0.31612 0.67880 0.40623
 H384 H 0.41079 0.58203 0.98354
   
