data_POSCAR
  _audit_creation_date              2014-09-24
  _audit_creation_method            'ToBaCCo'
  _symmetry_space_group_name_H-M    'P1'
  _symmetry_Int_Tables_number       1
  _symmetry_cell_setting            triclinic
  loop_
  _symmetry_equiv_pos_as_xyz
 x,y,z
_cell_length_a 25.1471
_cell_length_b 25.1758
_cell_length_c 43.8618
_cell_angle_alpha 89.989200
_cell_angle_beta 93.369500
_cell_angle_gamma 89.958800
loop_
  _atom_site_label
  _atom_site_type_symbol
  _atom_site_fract_x
  _atom_site_fract_y
  _atom_site_fract_z
C1 C -0.00079 0.64125 0.99999
 C2 C -0.01180 0.61361 1.02648
 C3 C -0.01329 0.55796 1.02629
 C4 C -0.00084 0.52897 0.99998
 C5 C 0.01163 0.55796 0.97368
 C6 C 0.01019 0.61360 0.97350
 C7 C -0.00085 0.46919 0.99998
 C8 C -0.00648 0.44019 0.97232
 C9 C -0.00504 0.38459 0.97238
 C10 C -0.00086 0.35697 0.99998
 C11 C 0.00332 0.38456 1.02758
 C12 C 0.00477 0.44016 1.02765
 H13 H -0.00077 0.68440 0.99999
 H14 H -0.02450 0.53794 1.04675
 H15 H 0.02283 0.53793 0.95322
 H16 H -0.01232 0.46006 0.95054
 H17 H -0.00086 0.31387 0.99998
 H18 H 0.01062 0.46000 1.04943
 C19 C 0.35967 0.01146 0.50140
 C20 C 0.39091 0.00394 0.52839
 C21 C 0.44652 0.00288 0.52781
 C22 C 0.47189 0.01217 0.50033
 C23 C 0.43924 0.02115 0.47341
 C24 C 0.38364 0.01932 0.47389
 C25 C 0.53166 0.01216 0.49972
 C26 C 0.55701 0.00288 0.47224
 C27 C 0.61265 0.00393 0.47163
 C28 C 0.64392 0.01139 0.49865
 C29 C 0.61992 0.01921 0.52620
 C30 C 0.56427 0.02108 0.52665
 H31 H 0.31656 0.01100 0.50180
 H32 H 0.46925 -0.00569 0.54891
 H33 H 0.45626 0.02974 0.45190
 H34 H 0.53414 -0.00568 0.45117
 H35 H 0.68707 0.01091 0.49825
 H36 H 0.54708 0.02969 0.54813
 C37 C 0.08358 0.00257 0.26429
 H38 H 0.08666 0.00181 0.23980
 C39 C 0.12955 0.00742 0.28367
 H40 H 0.16824 0.00996 0.27414
 C41 C 0.02945 0.00144 0.30679
 H42 H -0.00955 0.00024 0.31580
 C43 C 0.07424 0.00627 0.32689
 H44 H 0.06952 0.00799 0.35126
 N45 N 0.03481 -0.00084 0.27611
 C46 C -0.07245 -0.07683 0.20735
 H47 H -0.10546 -0.04925 0.20741
 C48 C -0.07511 -0.12061 0.18781
 H49 H -0.11018 -0.12675 0.17268
 C50 C 0.01425 -0.10174 0.22639
 H51 H 0.04896 -0.09424 0.24144
 C52 C 0.01323 -0.14606 0.20716
 H53 H 0.04741 -0.17229 0.20723
 Zn54 Zn -0.02679 -0.00442 0.24911
 N55 N -0.02776 -0.06753 0.22559
 C56 C -0.02458 0.04809 0.19222
 N57 N -0.02546 0.05545 0.22293
 C58 C -0.02165 0.10495 0.23539
 C59 C -0.01749 0.14957 0.21666
 C60 C -0.02052 0.09149 0.17274
 C61 C -0.09606 -0.04889 0.28907
 C62 C -0.13845 -0.05129 0.30815
 C63 C -0.16615 0.03593 0.29046
 C64 C -0.12316 0.03669 0.27163
 N65 N -0.08848 -0.00488 0.27185
 H66 H -0.02603 0.00856 0.18271
 H67 H -0.02124 0.10963 0.25992
 H68 H -0.01431 0.18882 0.22670
 H69 H -0.01963 0.08513 0.14834
 H70 H -0.06811 -0.08153 0.28858
 H71 H -0.14315 -0.08581 0.32250
 H72 H -0.19270 0.06979 0.29092
 H73 H -0.11698 0.07090 0.25740
 C74 C -0.03159 -0.15512 0.18742
 C75 C 0.12471 0.00926 0.31526
 C76 C -0.17336 -0.00821 0.30918
 C77 C -0.01682 0.14264 0.18503
 C78 C 0.02100 0.10511 0.76464
 H79 H 0.02087 0.10983 0.74012
 C80 C 0.01665 0.14973 0.78336
 H81 H 0.01361 0.18900 0.77331
 C82 C 0.02343 0.04821 0.80780
 H83 H 0.02477 0.00866 0.81730
 C84 C 0.01917 0.09159 0.82726
 H85 H 0.01802 0.08521 0.85165
 N86 N 0.02466 0.05560 0.77711
 C87 C 0.09612 -0.04875 0.71126
 H88 H 0.06817 -0.08136 0.71164
 C89 C 0.13876 -0.05118 0.69236
 H90 H 0.14365 -0.08569 0.67804
 C91 C 0.12298 0.03681 0.72880
 H92 H 0.11661 0.07100 0.74300
 C93 C 0.16622 0.03601 0.71015
 H94 H 0.19277 0.06984 0.70979
 Zn95 Zn 0.02634 -0.00425 0.75094
 N96 N 0.08831 -0.00474 0.72845
 C97 C -0.02926 0.00168 0.69307
 N98 N -0.03498 -0.00064 0.72372
 C99 C -0.08392 0.00274 0.73534
 C100 C -0.12968 0.00757 0.71579
 C101 C -0.07384 0.00649 0.67281
 C102 C 0.07164 -0.07670 0.79284
 C103 C 0.07415 -0.12049 0.81238
 C104 C -0.01397 -0.14593 0.79273
 C105 C -0.01485 -0.10159 0.77351
 N106 N 0.02712 -0.06738 0.77446
 H107 H 0.00986 0.00051 0.68422
 H108 H -0.08729 0.00195 0.75981
 H109 H -0.16850 0.01007 0.72517
 H110 H -0.06883 0.00823 0.64846
 H111 H 0.10462 -0.04912 0.79290
 H112 H 0.10909 -0.12664 0.82763
 H113 H -0.04812 -0.17216 0.79255
 H114 H -0.04942 -0.09408 0.75834
 C115 C 0.17369 -0.00812 0.69147
 C116 C 0.01564 0.14276 0.81497
 C117 C 0.03067 -0.15500 0.81262
 C118 C -0.12447 0.00944 0.68423
 C119 C -0.01931 -0.35864 0.05256
 C120 C -0.02421 -0.33218 0.07513
 C121 C -0.02807 -0.29889 0.10079
 C122 C -0.03008 -0.26861 0.12197
 C123 C -0.03128 -0.23108 0.14582
 C124 C -0.03163 -0.19734 0.16530
 C125 C 0.00431 0.35502 0.05573
 C126 C 0.00344 0.32790 0.07834
 C127 C 0.00081 0.29351 0.10363
 C128 C -0.00246 0.26200 0.12412
 C129 C -0.00714 0.22272 0.14677
 C130 C -0.01151 0.18723 0.16490
 C131 C 0.36515 -0.00146 0.55669
 C132 C 0.34123 -0.00446 0.57965
 C133 C 0.31060 -0.00656 0.60557
 C134 C 0.28232 -0.00748 0.62681
 C135 C 0.24680 -0.00788 0.65056
 C136 C 0.21451 -0.00797 0.66981
 C137 C -0.34877 0.02277 0.55256
 C138 C -0.31913 0.02404 0.57517
 C139 C -0.28210 0.02348 0.60063
 C140 C -0.24862 0.02161 0.62142
 C141 C -0.20735 0.01814 0.64458
 C142 C -0.17043 0.01442 0.66327
 C143 C 0.01775 -0.35863 0.94743
 C144 C 0.02272 -0.33217 0.92486
 C145 C 0.02666 -0.29887 0.89920
 C146 C 0.02877 -0.26857 0.87803
 C147 C 0.03009 -0.23102 0.85420
 C148 C 0.03056 -0.19726 0.83472
 C149 C -0.00600 0.35508 0.94423
 C150 C -0.00508 0.32798 0.92162
 C151 C -0.00239 0.29360 0.89634
 C152 C 0.00095 0.26210 0.87585
 C153 C 0.00572 0.22283 0.85321
 C154 C 0.01020 0.18735 0.83509
 C155 C -0.36304 -0.00114 0.44481
 C156 C -0.33941 -0.00423 0.42175
 C157 C -0.30913 -0.00642 0.39569
 C158 C -0.28113 -0.00741 0.37432
 C159 C -0.24593 -0.00787 0.35041
 C160 C -0.21390 -0.00801 0.33102
 C161 C 0.35047 0.02315 0.44607
 C162 C 0.32057 0.02429 0.42357
 C163 C 0.28325 0.02361 0.39825
 C164 C 0.24953 0.02165 0.37759
 C165 C 0.20800 0.01808 0.35460
 C166 C 0.17089 0.01430 0.33604
   
