data_POSCAR
  _audit_creation_date              2014-09-24
  _audit_creation_method            'ToBaCCo'
  _symmetry_space_group_name_H-M    'P1'
  _symmetry_Int_Tables_number       1
  _symmetry_cell_setting            triclinic
  loop_
  _symmetry_equiv_pos_as_xyz
 x,y,z
_cell_length_a 67.2200
_cell_length_b 67.3316
_cell_length_c 19.6990
_cell_angle_alpha 90.121700
_cell_angle_beta 90.016300
_cell_angle_gamma 120.037100
loop_
  _atom_site_label
  _atom_site_type_symbol
  _atom_site_fract_x
  _atom_site_fract_y
  _atom_site_fract_z
C1 C 0.24534 0.49133 0.53270
 C2 C 0.24469 0.48972 0.46362
 C3 C 0.22647 0.49075 0.42403
 C4 C 0.26200 0.48686 0.42462
 C5 C 0.26474 0.49279 0.57300
 C6 C 0.22615 0.49095 0.57114
 C7 C 0.21099 0.47191 0.38537
 C8 C 0.19289 0.47216 0.35123
 C9 C 0.18986 0.49161 0.35341
 C10 C 0.20648 0.51085 0.39112
 C11 C 0.22428 0.51030 0.42603
 C12 C 0.26668 0.46928 0.44051
 C13 C 0.28407 0.46770 0.40650
 C14 C 0.29683 0.48343 0.35517
 C15 C 0.29145 0.50042 0.33743
 C16 C 0.27416 0.50208 0.37179
 C17 C 0.28761 0.50913 0.55773
 C18 C 0.30573 0.50921 0.59285
 C19 C 0.30132 0.49321 0.64476
 C20 C 0.27837 0.47755 0.66186
 C21 C 0.26029 0.47737 0.62638
 C22 C 0.23040 0.50904 0.61521
 C23 C 0.21229 0.50898 0.65029
 C24 C 0.18965 0.49070 0.64235
 C25 C 0.18557 0.47239 0.59915
 C26 C 0.20366 0.47246 0.56417
 H27 H 0.21240 0.45657 0.38370
 H28 H 0.18087 0.45629 0.32666
 H29 H 0.20671 0.52697 0.39283
 H30 H 0.23648 0.52524 0.45463
 H31 H 0.25710 0.45700 0.48000
 H32 H 0.28756 0.45419 0.42035
 H33 H 0.27072 0.51568 0.35851
 H34 H 0.29144 0.52150 0.51762
 H35 H 0.32317 0.52142 0.57806
 H36 H 0.27437 0.46533 0.70252
 H37 H 0.24277 0.46478 0.63952
 H38 H 0.24769 0.52333 0.62169
 H39 H 0.21601 0.52316 0.68398
 H40 H 0.16832 0.45816 0.59152
 H41 H 0.20012 0.45814 0.53129
 H42 H 0.30110 0.51286 0.29840
 C43 C 0.50361 -0.24875 0.53355
 C44 C 0.50288 -0.24874 0.46419
 C45 C 0.50058 -0.26842 0.42343
 C46 C 0.50499 -0.22876 0.42594
 C47 C 0.50284 -0.23054 0.57450
 C48 C 0.50569 -0.26671 0.57154
 C49 C 0.51630 -0.26462 0.37124
 C50 C 0.51539 -0.28310 0.33606
 C51 C 0.49871 -0.30573 0.35243
 C52 C 0.48243 -0.30947 0.40288
 C53 C 0.48320 -0.29098 0.43755
 C54 C 0.52330 -0.20652 0.43865
 C55 C 0.52448 -0.18769 0.40526
 C56 C 0.50762 -0.19079 0.35752
 C57 C 0.48982 -0.21314 0.34284
 C58 C 0.48854 -0.23196 0.37674
 C59 C 0.48575 -0.22472 0.56323
 C60 C 0.48612 -0.20655 0.59872
 C61 C 0.50332 -0.19410 0.64728
 C62 C 0.51979 -0.20067 0.66055
 C63 C 0.51954 -0.21869 0.62452
 C64 C 0.49052 -0.27854 0.62469
 C65 C 0.49173 -0.29608 0.65881
 C66 C 0.50812 -0.30243 0.64030
 C67 C 0.52378 -0.28982 0.58805
 C68 C 0.52276 -0.27206 0.55493
 H69 H 0.52977 -0.24736 0.35928
 H70 H 0.52822 -0.27973 0.29767
 H71 H 0.46916 -0.32673 0.41568
 H72 H 0.47055 -0.29427 0.47648
 H73 H 0.53652 -0.20373 0.47512
 H74 H 0.53862 -0.17070 0.41657
 H75 H 0.47438 -0.24900 0.36584
 H76 H 0.47239 -0.23395 0.52588
 H77 H 0.47326 -0.20189 0.58678
 H78 H 0.53295 -0.19182 0.69866
 H79 H 0.53273 -0.22306 0.63464
 H80 H 0.47728 -0.27460 0.63859
 H81 H 0.47888 -0.30538 0.69714
 H82 H 0.53748 -0.29301 0.57380
 H83 H 0.53522 -0.26255 0.51575
 H84 H 0.47655 -0.21600 0.30648
 C85 C 1.24760 0.75330 0.53340
 C86 C 1.24741 0.75410 0.46443
 C87 C 1.26536 0.77378 0.42584
 C88 C 1.22880 0.73534 0.42480
 C89 C 1.22814 0.73466 0.57102
 C90 C 1.26678 0.77126 0.57413
 C91 C 1.26911 0.79597 0.43631
 C92 C 1.28668 0.81460 0.40177
 C93 C 1.30113 0.81155 0.35588
 C94 C 1.29675 0.78894 0.34491
 C95 C 1.27900 0.77035 0.37903
 C96 C 1.21153 0.73846 0.39571
 C97 C 1.19292 0.72023 0.36280
 C98 C 1.19171 0.69887 0.35702
 C99 C 1.20940 0.69600 0.38425
 C100 C 1.22774 0.71408 0.41861
 C101 C 1.23140 0.71900 0.60900
 C102 C 1.21295 0.70101 0.64302
 C103 C 1.19071 0.69840 0.64068
 C104 C 1.18790 0.71471 0.60304
 C105 C 1.20636 0.73255 0.56882
 C106 C 1.28954 0.77682 0.56233
 C107 C 1.30760 0.79475 0.59795
 C108 C 1.30339 0.80761 0.64694
 C109 C 1.28022 0.80112 0.66007
 C110 C 1.26225 0.78319 0.62430
 H111 H 1.25862 0.79891 0.47213
 H112 H 1.28946 0.83146 0.41414
 H113 H 1.30648 0.78526 0.30836
 H114 H 1.27615 0.75325 0.36972
 H115 H 1.21215 0.75479 0.40035
 H116 H 1.17944 0.72274 0.34190
 H117 H 1.24098 0.71148 0.44100
 H118 H 1.24824 0.72061 0.61185
 H119 H 1.21655 0.68975 0.67302
 H120 H 1.17127 0.71335 0.59699
 H121 H 1.20361 0.74465 0.54000
 H122 H 1.29338 0.76756 0.52437
 H123 H 1.32484 0.79906 0.58386
 H124 H 1.27563 0.80937 0.69919
 H125 H 1.24473 0.77889 0.63497
 H126 H 1.20867 0.67959 0.38047
 C127 C 0.75404 0.50849 0.53595
 C128 C 0.75375 0.50843 0.46668
 C129 C 0.77194 0.50749 0.42622
 C130 C 0.73549 0.50983 0.42823
 C131 C 0.73489 0.50741 0.57649
 C132 C 0.77381 0.51016 0.57437
 C133 C 0.78376 0.52398 0.37596
 C134 C 0.80169 0.52402 0.33999
 C135 C 0.80817 0.50752 0.35353
 C136 C 0.79577 0.49055 0.40244
 C137 C 0.77770 0.49041 0.43792
 C138 C 0.73123 0.52798 0.43938
 C139 C 0.71342 0.52867 0.40495
 C140 C 0.69966 0.51133 0.35829
 C141 C 0.70438 0.49352 0.34593
 C142 C 0.72221 0.49286 0.38036
 C143 C 0.71217 0.48987 0.56604
 C144 C 0.69415 0.48977 0.60169
 C145 C 0.69834 0.50717 0.64951
 C146 C 0.72149 0.52422 0.66129
 C147 C 0.73943 0.52426 0.62542
 C148 C 0.77043 0.49281 0.61982
 C149 C 0.78907 0.49362 0.65372
 C150 C 0.81167 0.51209 0.64391
 C151 C 0.81465 0.52986 0.59951
 C152 C 0.79598 0.52885 0.56523
 H153 H 0.77942 0.53715 0.36554
 H154 H 0.81052 0.53702 0.30165
 H155 H 0.80036 0.47768 0.41455
 H156 H 0.76846 0.47719 0.47539
 H157 H 0.74154 0.54144 0.47537
 H158 H 0.71011 0.54252 0.41589
 H159 H 0.72540 0.47885 0.37064
 H160 H 0.70832 0.47648 0.52911
 H161 H 0.67692 0.47654 0.58857
 H162 H 0.72612 0.53737 0.69947
 H163 H 0.75692 0.53775 0.63511
 H164 H 0.75334 0.47840 0.62819
 H165 H 0.78543 0.47999 0.68921
 H166 H 0.83150 0.54414 0.58806
 H167 H 0.79886 0.54251 0.53058
 H168 H 0.69431 0.48014 0.30948
 C169 C 0.49629 0.24745 0.53507
 C170 C 0.49538 0.24770 0.46615
 C171 C 0.49388 0.26601 0.42874
 C172 C 0.49576 0.22943 0.42544
 C173 C 0.49536 0.22785 0.57184
 C174 C 0.49776 0.26650 0.57647
 C175 C 0.47625 0.27084 0.44280
 C176 C 0.47546 0.28869 0.40934
 C177 C 0.49206 0.30182 0.36034
 C178 C 0.50926 0.29647 0.34475
 C179 C 0.51013 0.27870 0.37863
 C180 C 0.47557 0.21245 0.39476
 C181 C 0.47542 0.19422 0.36032
 C182 C 0.49566 0.19297 0.35445
 C183 C 0.51606 0.21058 0.38366
 C184 C 0.51603 0.22851 0.41942
 C185 C 0.51418 0.23091 0.61030
 C186 C 0.51364 0.21231 0.64345
 C187 C 0.49404 0.19010 0.63975
 C188 C 0.47501 0.18748 0.60163
 C189 C 0.47572 0.20609 0.56826
 C190 C 0.51690 0.28853 0.57203
 C191 C 0.51750 0.30678 0.60772
 C192 C 0.49867 0.30361 0.64814
 C193 C 0.47971 0.28098 0.65303
 C194 C 0.47944 0.26274 0.61834
 H195 H 0.46315 0.26081 0.47987
 H196 H 0.46175 0.29213 0.42140
 H197 H 0.52234 0.30639 0.30749
 H198 H 0.52379 0.27516 0.36676
 H199 H 0.45975 0.21292 0.39949
 H200 H 0.45928 0.18084 0.33991
 H201 H 0.53178 0.24165 0.44264
 H202 H 0.52940 0.24771 0.61418
 H203 H 0.52842 0.21575 0.67388
 H204 H 0.45978 0.17091 0.59457
 H205 H 0.46095 0.20349 0.53900
 H206 H 0.53139 0.29160 0.54059
 H207 H 0.53312 0.32315 0.60400
 H208 H 0.46430 0.27709 0.68053
 H209 H 0.46442 0.24579 0.62181
 H210 H 0.53210 0.21059 0.37898
 C211 C 0.75334 0.24723 0.53549
 C212 C 0.75345 0.24762 0.46615
 C213 C 0.73420 0.22953 0.42553
 C214 C 0.77317 0.26583 0.42778
 C215 C 0.77129 0.26661 0.57599
 C216 C 0.73567 0.22715 0.57394
 C217 C 0.73882 0.21800 0.37400
 C218 C 0.72084 0.19999 0.33838
 C219 C 0.69784 0.19313 0.35354
 C220 C 0.69330 0.20528 0.40356
 C221 C 0.71130 0.22343 0.43871
 C222 C 0.79567 0.27051 0.44049
 C223 C 0.81424 0.28841 0.40680
 C224 C 0.81062 0.30170 0.35882
 C225 C 0.78802 0.29642 0.34422
 C226 C 0.76945 0.27861 0.37840
 C227 C 0.77615 0.28917 0.56525
 C228 C 0.79414 0.30743 0.60009
 C229 C 0.80774 0.30365 0.64744
 C230 C 0.80188 0.28065 0.65982
 C231 C 0.78393 0.26247 0.62470
 C232 C 0.72286 0.23026 0.62474
 C233 C 0.70545 0.21136 0.65885
 C234 C 0.70061 0.18902 0.64283
 C235 C 0.71399 0.18602 0.59348
 C236 C 0.73149 0.20493 0.55981
 H237 H 0.75636 0.22258 0.36243
 H238 H 0.72498 0.19137 0.29913
 H239 H 0.67581 0.20039 0.41689
 H240 H 0.70735 0.23241 0.47730
 H241 H 0.79887 0.26045 0.47710
 H242 H 0.83144 0.29182 0.41805
 H243 H 0.75220 0.27514 0.36752
 H244 H 0.76635 0.29271 0.52848
 H245 H 0.79789 0.32451 0.58661
 H246 H 0.81067 0.27633 0.69784
 H247 H 0.78019 0.24512 0.63466
 H248 H 0.72594 0.24728 0.63672
 H249 H 0.69534 0.21416 0.69641
 H250 H 0.71092 0.16904 0.58106
 H251 H 0.74159 0.20221 0.52202
 H252 H 0.78475 0.30645 0.30769
 N253 N 0.97662 0.52489 0.07363
 N254 N 0.95917 0.52850 0.08148
 N255 N 1.02448 0.53448 0.12173
 N256 N 1.04171 0.54551 0.16458
 N257 N 1.02504 0.54837 0.07411
 N258 N 1.04281 0.56917 0.08284
 N259 N 0.97617 0.51077 0.12025
 N260 N 0.95840 0.50434 0.16093
 C261 C 0.94796 0.51558 0.13623
 C262 C 1.05302 0.56713 0.13957
 N263 N 1.02401 0.47781 0.07338
 N264 N 1.04152 0.47433 0.08149
 N265 N 0.97565 0.46775 0.12000
 N266 N 0.95829 0.45653 0.16211
 N267 N 0.97558 0.45396 0.07271
 N268 N 0.95811 0.43299 0.08119
 N269 N 1.02393 0.49139 0.12116
 N270 N 1.04127 0.49737 0.16342
 Mn271 Mn 1.00004 0.50110 0.12161
 C272 C 1.05210 0.48660 0.13798
 C273 C 0.94746 0.43485 0.13719
 N274 N 1.02513 0.54856 -0.07203
 N275 N 1.04273 0.56945 -0.08051
 N276 N 0.97650 0.51108 -0.11960
 N277 N 0.95912 0.50516 -0.16164
 N278 N 0.97683 0.52509 -0.07258
 N279 N 0.95973 0.52916 -0.08150
 N280 N 1.02490 0.53468 -0.11933
 N281 N 1.04239 0.54575 -0.16116
 Mn282 Mn 1.00092 0.53698 0.00082
 C283 C 1.05338 0.56744 -0.13632
 C284 C 0.94881 0.51659 -0.13724
 N285 N 0.97573 0.45409 -0.07324
 N286 N 0.95798 0.43325 -0.08145
 N287 N 1.02423 0.49164 -0.11984
 N288 N 1.04179 0.49784 -0.16129
 N289 N 1.02409 0.47783 -0.07270
 N290 N 1.04152 0.47423 -0.08079
 N291 N 0.97584 0.46796 -0.12013
 N292 N 0.95815 0.45694 -0.16154
 Mn293 Mn 0.99986 0.46568 0.00003
 Mn294 Mn 1.00035 0.50133 -0.12058
 Cl295 Cl 1.00029 0.50128 0.00046
 C296 C 0.94716 0.43526 -0.13680
 C297 C 1.05242 0.48682 -0.13632
 N298 N 0.47726 0.45212 0.06980
 N299 N 0.47406 0.43128 0.07857
 N300 N 0.46534 0.48892 0.11712
 N301 N 0.45349 0.49416 0.15966
 N302 N 0.45192 0.47506 0.06936
 N303 N 0.43058 0.47053 0.07801
 N304 N 0.49065 0.46602 0.11753
 N305 N 0.49687 0.45502 0.16017
 C306 C 0.48642 0.43336 0.13517
 C307 C 0.43182 0.48259 0.13456
 N308 N 0.52133 0.54655 0.07244
 N309 N 0.52396 0.56719 0.08081
 N310 N 0.53282 0.50944 0.11920
 N311 N 0.54428 0.50358 0.16130
 N312 N 0.54658 0.52353 0.07262
 N313 N 0.56776 0.52766 0.08179
 N314 N 0.50746 0.53239 0.11870
 N315 N 0.50021 0.54298 0.15965
 Mn316 Mn 0.49907 0.49920 0.11896
 C317 C 0.51069 0.56471 0.13551
 C318 C 0.56608 0.51509 0.13735
 N319 N 0.45242 0.47546 -0.07681
 N320 N 0.43135 0.47180 -0.08494
 N321 N 0.49129 0.46654 -0.12334
 N322 N 0.49825 0.45585 -0.16491
 N323 N 0.47785 0.45252 -0.07615
 N324 N 0.47548 0.43197 -0.08382
 N325 N 0.46619 0.48970 -0.12311
 N326 N 0.45489 0.49614 -0.16388
 Mn327 Mn 0.46462 0.46353 -0.00351
 C328 C 0.43314 0.48479 -0.13958
 C329 C 0.48825 0.43429 -0.13957
 N330 N 0.54704 0.52380 -0.07364
 N331 N 0.56814 0.52744 -0.08081
 N332 N 0.50846 0.53306 -0.12160
 N333 N 0.50241 0.54417 -0.16438
 N334 N 0.52179 0.54689 -0.07366
 N335 N 0.52507 0.56775 -0.08226
 N336 N 0.53354 0.50991 -0.12125
 N337 N 0.54506 0.50373 -0.16204
 Mn338 Mn 0.53443 0.53545 -0.00056
 Mn339 Mn 0.49986 0.49981 -0.12316
 Cl340 Cl 0.49949 0.49950 -0.00205
 C341 C 0.56665 0.51484 -0.13631
 C342 C 0.51286 0.56579 -0.13908
 N343 N 0.45306 -0.02373 0.07170
 N344 N 0.43187 -0.04081 0.08041
 N345 N 0.49115 0.02418 0.11946
 N346 N 0.49732 0.04150 0.16184
 N347 N 0.47784 0.02460 0.07137
 N348 N 0.47479 0.04237 0.07927
 N349 N 0.46673 -0.02404 0.11879
 N350 N 0.45523 -0.04137 0.16066
 C351 C 0.43348 -0.05170 0.13609
 C352 C 0.48701 0.05272 0.13606
 N353 N 0.54773 0.02377 0.07363
 N354 N 0.56869 0.04136 0.08188
 N355 N 0.50941 -0.02436 0.12006
 N356 N 0.50311 -0.04170 0.16221
 N357 N 0.52321 -0.02451 0.07322
 N358 N 0.52663 -0.04201 0.08208
 N359 N 0.53385 0.02394 0.12023
 N360 N 0.54497 0.04168 0.16129
 Mn361 Mn 0.50028 -0.00008 0.12047
 C362 C 0.56672 0.05238 0.13685
 C363 C 0.51397 -0.05259 0.13785
 N364 N 0.47796 0.02438 -0.07470
 N365 N 0.47459 0.04189 -0.08367
 N366 N 0.46717 -0.02409 -0.12121
 N367 N 0.45600 -0.04185 -0.16216
 N368 N 0.45335 -0.02390 -0.07448
 N369 N 0.43240 -0.04154 -0.08237
 N370 N 0.49182 0.02422 -0.12136
 N371 N 0.49829 0.04166 -0.16329
 Mn372 Mn 0.46531 0.00035 -0.00154
 C373 C 0.48738 0.05254 -0.13915
 C374 C 0.43430 -0.05257 -0.13740
 N375 N 0.52352 -0.02458 -0.07285
 N376 N 0.52665 -0.04231 -0.08058
 N377 N 0.53436 0.02369 -0.12028
 N378 N 0.54582 0.04090 -0.16258
 N379 N 0.54802 0.02371 -0.07263
 N380 N 0.56914 0.04095 -0.08115
 N381 N 0.50972 -0.02459 -0.12003
 N382 N 0.50301 -0.04237 -0.16098
 Mn383 Mn 0.53588 -0.00040 0.00036
 Mn384 Mn 0.50077 -0.00019 -0.12156
 Cl385 Cl 0.50056 -0.00008 -0.00057
 C386 C 0.51375 -0.05325 -0.13583
 C387 C 0.56750 0.05154 -0.13752
 C388 C 1.13293 0.49105 0.25807
 C389 C 1.13902 0.47452 0.24175
 C390 C 1.15800 0.47490 0.27209
 C391 C 1.17163 0.49168 0.32146
 C392 C 1.16523 0.50837 0.33677
 C393 C 1.14645 0.50810 0.30541
 C394 C 1.11239 0.49030 0.22663
 C395 C 1.09874 0.49683 0.26411
 C396 C 1.07933 0.49591 0.23496
 C397 C 1.07289 0.48806 0.16813
 C398 C 1.08639 0.48149 0.13051
 C399 C 1.10603 0.48278 0.15921
 H400 H 1.16197 0.46217 0.25387
 H401 H 1.17372 0.52133 0.37531
 H402 H 1.06912 0.50094 0.26519
 H403 H 1.08191 0.47558 0.07859
 H404 H 1.14251 0.52135 0.31874
 H405 H 1.10275 0.50226 0.31649
 H406 H 1.12896 0.46098 0.20572
 H407 H 1.11633 0.47807 0.12824
 C408 C 0.50122 0.63803 0.25623
 C409 C 0.49764 0.63797 0.32661
 C410 C 0.49642 0.65603 0.35749
 C411 C 0.49890 0.67463 0.31885
 C412 C 0.50230 0.67467 0.24850
 C413 C 0.50335 0.65652 0.21747
 C414 C 0.50317 0.61909 0.22380
 C415 C 0.51906 0.62368 0.17125
 C416 C 0.52134 0.60598 0.14207
 C417 C 0.50790 0.58334 0.16513
 C418 C 0.49189 0.57866 0.21715
 C419 C 0.48949 0.59632 0.24601
 H420 H 0.49416 0.65574 0.41199
 H421 H 0.50401 0.68869 0.21743
 H422 H 0.53386 0.61007 0.10210
 H423 H 0.48116 0.56132 0.23552
 H424 H 0.50571 0.65692 0.16303
 H425 H 0.53011 0.64104 0.15358
 H426 H 0.49636 0.62424 0.35821
 H427 H 0.47680 0.59211 0.28549
 C428 C 0.35688 -0.13111 0.25848
 C429 C 0.33726 -0.13030 0.27816
 C430 C 0.31896 -0.14906 0.31008
 C431 C 0.31958 -0.16942 0.32258
 C432 C 0.33935 -0.17010 0.30153
 C433 C 0.35773 -0.15118 0.27044
 C434 C 0.37653 -0.11096 0.22629
 C435 C 0.39912 -0.10350 0.24790
 C436 C 0.41763 -0.08422 0.21857
 C437 C 0.41393 -0.07219 0.16660
 C438 C 0.39138 -0.07980 0.14439
 C439 C 0.37284 -0.09893 0.17425
 H440 H 0.30404 -0.14767 0.32257
 H441 H 0.34132 -0.18480 0.31157
 H442 H 0.43485 -0.07875 0.23658
 H443 H 0.38804 -0.07086 0.10433
 H444 H 0.37267 -0.15227 0.25558
 H445 H 0.40242 -0.11235 0.28833
 H446 H 0.33618 -0.11498 0.26956
 H447 H 0.35561 -0.10446 0.15624
 C448 C 0.86665 0.51012 0.25437
 C449 C 0.86684 0.53041 0.27220
 C450 C 0.84784 0.52955 0.30394
 C451 C 0.82811 0.50836 0.31808
 C452 C 0.82786 0.48805 0.29938
 C453 C 0.84695 0.48893 0.26812
 C454 C 0.88714 0.51110 0.22272
 C455 C 0.89517 0.49659 0.24533
 C456 C 0.91492 0.49802 0.21711
 C457 C 0.92691 0.51387 0.16533
 C458 C 0.91872 0.52815 0.14199
 C459 C 0.89908 0.52686 0.17065
 H460 H 0.84883 0.54551 0.31881
 H461 H 0.81282 0.47146 0.30844
 H462 H 0.92082 0.48677 0.23597
 H463 H 0.92760 0.54048 0.10199
 H464 H 0.84625 0.47303 0.25412
 H465 H 0.88642 0.48444 0.28583
 H466 H 0.88192 0.54697 0.26309
 H467 H 0.89314 0.53809 0.15182
 C468 C 0.49069 0.35821 0.26202
 C469 C 0.48693 0.35474 0.33224
 C470 C 0.48730 0.33641 0.36400
 C471 C 0.49157 0.32119 0.32629
 C472 C 0.49543 0.32469 0.25611
 C473 C 0.49491 0.34297 0.22424
 C474 C 0.49011 0.37761 0.22844
 C475 C 0.47877 0.37444 0.16598
 C476 C 0.47767 0.39259 0.13541
 C477 C 0.48799 0.41429 0.16654
 C478 C 0.49962 0.41756 0.22842
 C479 C 0.50061 0.39939 0.25916
 H480 H 0.48451 0.33427 0.41828
 H481 H 0.49859 0.31314 0.22573
 H482 H 0.46863 0.38960 0.08761
 H483 H 0.50783 0.43413 0.25341
 H484 H 0.49805 0.34533 0.17015
 H485 H 0.47035 0.35779 0.14144
 H486 H 0.48341 0.36608 0.36254
 H487 H 0.50973 0.40242 0.30682
 C488 C 0.64198 0.13414 0.25569
 C489 C 0.66244 0.13440 0.27215
 C490 C 0.68054 0.15355 0.30353
 C491 C 0.67869 0.17299 0.31871
 C492 C 0.65827 0.17278 0.30160
 C493 C 0.64008 0.15353 0.27067
 C494 C 0.62259 0.11353 0.22397
 C495 C 0.60001 0.10506 0.24722
 C496 C 0.58184 0.08520 0.21883
 C497 C 0.58587 0.07353 0.16627
 C498 C 0.60839 0.08217 0.14232
 C499 C 0.62659 0.10191 0.17110
 H500 H 0.69580 0.15291 0.31724
 H501 H 0.65640 0.18758 0.31157
 H502 H 0.56463 0.07894 0.23817
 H503 H 0.61198 0.07356 0.10169
 H504 H 0.62460 0.15389 0.25777
 H505 H 0.59647 0.11354 0.28832
 H506 H 0.66424 0.11955 0.26214
 H507 H 0.64379 0.10820 0.15173
 C508 C 0.49223 0.13270 -0.26269
 C509 C 0.51322 0.15164 -0.28213
 C510 C 0.51389 0.17057 -0.31350
 C511 C 0.49347 0.17106 -0.32713
 C512 C 0.47244 0.15184 -0.30710
 C513 C 0.47188 0.13305 -0.27525
 C514 C 0.49147 0.11250 -0.22993
 C515 C 0.47693 0.10181 -0.17426
 C516 C 0.47579 0.08247 -0.14436
 C517 C 0.48905 0.07333 -0.16979
 C518 C 0.50373 0.08410 -0.22506
 C519 C 0.50498 0.10354 -0.25473
 H520 H 0.53050 0.18431 -0.32944
 H521 H 0.45625 0.15139 -0.31347
 H522 H 0.46440 0.07458 -0.10161
 H523 H 0.51417 0.07743 -0.24563
 H524 H 0.45540 0.11863 -0.26098
 H525 H 0.46655 0.10852 -0.15355
 H526 H 0.52922 0.15187 -0.27286
 H527 H 0.51617 0.11129 -0.29795
 C528 C 0.64280 0.50934 -0.25248
 C529 C 0.64010 0.48851 -0.27657
 C530 C 0.65833 0.48770 -0.30794
 C531 C 0.67995 0.50777 -0.31643
 C532 C 0.68249 0.52858 -0.29097
 C533 C 0.66423 0.52931 -0.25961
 C534 C 0.62319 0.51035 -0.22145
 C535 C 0.62648 0.52417 -0.16417
 C536 C 0.60809 0.52554 -0.13617
 C537 C 0.58606 0.51317 -0.16503
 C538 C 0.58272 0.49922 -0.22192
 C539 C 0.60108 0.49781 -0.24980
 H540 H 0.65540 0.47102 -0.32326
 H541 H 0.69817 0.54476 -0.29799
 H542 H 0.61113 0.53633 -0.09208
 H543 H 0.56592 0.48949 -0.24522
 H544 H 0.66672 0.54572 -0.24275
 H545 H 0.64326 0.53381 -0.14071
 H546 H 0.62390 0.47272 -0.27043
 H547 H 0.59805 0.48725 -0.29443
 C548 C 0.86568 0.35970 -0.25644
 C549 C 0.86436 0.33836 -0.26359
 C550 C 0.84534 0.31998 -0.29454
 C551 C 0.82687 0.32229 -0.31954
 C552 C 0.82836 0.34389 -0.31155
 C553 C 0.84746 0.36225 -0.28061
 C554 C 0.88617 0.37928 -0.22458
 C555 C 0.89644 0.37584 -0.16703
 C556 C 0.91614 0.39409 -0.13824
 C557 C 0.92602 0.41614 -0.16645
 C558 C 0.91563 0.41969 -0.22345
 C559 C 0.89589 0.40144 -0.25219
 H560 H 0.84594 0.30436 -0.30143
 H561 H 0.81451 0.34668 -0.32675
 H562 H 0.92370 0.39088 -0.09404
 H563 H 0.92287 0.43652 -0.24619
 H564 H 0.84779 0.37840 -0.27459
 H565 H 0.88917 0.35904 -0.14403
 H566 H 0.87838 0.33600 -0.24680
 H567 H 0.88850 0.40457 -0.29690
 C568 C 0.50681 -0.13515 -0.25408
 C569 C 0.48544 -0.15470 -0.26766
 C570 C 0.48428 -0.17395 -0.29873
 C571 C 0.50446 -0.17399 -0.31747
 C572 C 0.52582 -0.15438 -0.30361
 C573 C 0.52697 -0.13524 -0.27201
 C574 C 0.50812 -0.11453 -0.22239
 C575 C 0.52399 -0.10275 -0.17015
 C576 C 0.52563 -0.08297 -0.14147
 C577 C 0.51161 -0.07447 -0.16496
 C578 C 0.49565 -0.08631 -0.21688
 C579 C 0.49384 -0.10621 -0.24510
 H580 H 0.46756 -0.18887 -0.30759
 H581 H 0.54169 -0.15361 -0.31856
 H582 H 0.53804 -0.07422 -0.10135
 H583 H 0.48457 -0.08016 -0.23581
 H584 H 0.54366 -0.12027 -0.26303
 H585 H 0.53503 -0.10893 -0.15124
 H586 H 0.46964 -0.15517 -0.25361
 H587 H 0.48161 -0.11485 -0.28570
 C588 C 0.35740 0.49057 -0.25745
 C589 C 0.35938 0.51177 -0.27413
 C590 C 0.34113 0.51269 -0.30509
 C591 C 0.32054 0.49240 -0.32042
 C592 C 0.31858 0.47121 -0.30345
 C593 C 0.33676 0.47032 -0.27215
 C594 C 0.37689 0.48951 -0.22597
 C595 C 0.37311 0.47423 -0.17247
 C596 C 0.39142 0.47284 -0.14396
 C597 C 0.41384 0.48656 -0.16874
 C598 C 0.41767 0.50194 -0.22190
 C599 C 0.39939 0.50345 -0.25009
 H600 H 0.34309 0.52929 -0.31651
 H601 H 0.30315 0.45525 -0.31574
 H602 H 0.38799 0.46090 -0.10284
 H603 H 0.43479 0.51276 -0.24192
 H604 H 0.33487 0.45373 -0.26085
 H605 H 0.35599 0.46347 -0.15238
 H606 H 0.37499 0.52767 -0.26260
 H607 H 0.40278 0.51520 -0.29171
 C608 C 1.13362 0.64290 -0.25983
 C609 C 1.13397 0.66358 -0.27185
 C610 C 1.15267 0.68179 -0.30424
 C611 C 1.17180 0.67997 -0.32540
 C612 C 1.17135 0.65911 -0.31216
 C613 C 1.15251 0.64087 -0.28023
 C614 C 1.11345 0.62343 -0.22689
 C615 C 1.10439 0.60099 -0.25209
 C616 C 1.08494 0.58277 -0.22243
 C617 C 1.07423 0.58661 -0.16676
 C618 C 1.08347 0.60896 -0.14088
 C619 C 1.10284 0.62720 -0.17077
 H620 H 1.15222 0.69752 -0.31023
 H621 H 1.18502 0.65623 -0.32889
 H622 H 1.07820 0.56570 -0.24336
 H623 H 1.07563 0.61240 -0.09781
 H624 H 1.15274 0.62511 -0.27138
 H625 H 1.11208 0.59761 -0.29567
 H626 H 1.11959 0.66563 -0.25683
 H627 H 1.10962 0.64427 -0.14976
 C628 C 0.86920 0.51361 -0.25957
 C629 C 0.86988 0.53406 -0.27771
 C630 C 0.85105 0.53362 -0.30930
 C631 C 0.83076 0.51263 -0.32310
 C632 C 0.83022 0.49215 -0.30368
 C633 C 0.84920 0.49267 -0.27284
 C634 C 0.88939 0.51412 -0.22747
 C635 C 0.89699 0.49921 -0.24979
 C636 C 0.91632 0.50001 -0.22046
 C637 C 0.92827 0.51559 -0.16784
 C638 C 0.92053 0.53032 -0.14496
 C639 C 0.90134 0.52967 -0.17473
 H640 H 0.85233 0.54993 -0.32047
 H641 H 0.81558 0.47548 -0.31480
 H642 H 0.92189 0.48843 -0.23899
 H643 H 0.92940 0.54247 -0.10436
 H644 H 0.84820 0.47663 -0.25917
 H645 H 0.88821 0.48720 -0.29075
 H646 H 0.88514 0.55047 -0.26810
 H647 H 0.89570 0.54119 -0.15613
 C648 C 0.49689 0.35995 -0.25641
 C649 C 0.48237 0.33733 -0.23463
 C650 C 0.48334 0.31901 -0.26448
 C651 C 0.49855 0.32246 -0.31870
 C652 C 0.51328 0.34538 -0.33965
 C653 C 0.51258 0.36371 -0.30866
 C654 C 0.49534 0.37941 -0.22571
 C655 C 0.49945 0.39852 -0.26518
 C656 C 0.49755 0.41654 -0.23681
 C657 C 0.49099 0.41563 -0.16884
 C658 C 0.48687 0.39668 -0.12917
 C659 C 0.48927 0.37889 -0.15703
 H660 H 0.47229 0.30226 -0.24306
 H661 H 0.52490 0.34957 -0.38195
 H662 H 0.50069 0.43094 -0.26854
 H663 H 0.48203 0.39573 -0.07631
 H664 H 0.52437 0.38090 -0.32624
 H665 H 0.50367 0.39941 -0.31850
 H666 H 0.46987 0.33360 -0.19489
 H667 H 0.48650 0.36482 -0.12443
 C668 C 0.64404 0.13069 -0.26125
 C669 C 0.64779 0.13065 -0.33140
 C670 C 0.66626 0.14950 -0.36231
 C671 C 0.68132 0.16887 -0.32380
 C672 C 0.67760 0.16893 -0.25363
 C673 C 0.65920 0.14998 -0.22260
 C674 C 0.62434 0.11066 -0.22870
 C675 C 0.62712 0.10213 -0.16653
 C676 C 0.60863 0.08294 -0.13673
 C677 C 0.58698 0.07202 -0.16833
 C678 C 0.58412 0.08070 -0.23001
 C679 C 0.60262 0.09979 -0.26001
 H680 H 0.66858 0.14909 -0.41659
 H681 H 0.68903 0.18356 -0.22268
 H682 H 0.61131 0.07662 -0.08908
 H683 H 0.56759 0.07267 -0.25536
 H684 H 0.65661 0.15054 -0.16853
 H685 H 0.64371 0.11006 -0.14158
 H686 H 0.63652 0.11592 -0.36232
 H687 H 0.59991 0.10617 -0.30748
 C688 C 1.13265 0.49053 -0.25692
 C689 C 1.13395 0.47037 -0.26120
 C690 C 1.15255 0.47049 -0.29320
 C691 C 1.17029 0.49078 -0.32165
 C692 C 1.16915 0.51101 -0.31667
 C693 C 1.15052 0.51088 -0.28472
 C694 C 1.11250 0.49017 -0.22473
 C695 C 1.10259 0.50224 -0.25386
 C696 C 1.08317 0.50130 -0.22481
 C697 C 1.07326 0.48827 -0.16609
 C698 C 1.08330 0.47644 -0.13641
 C699 C 1.10272 0.47738 -0.16543
 H700 H 1.15307 0.45469 -0.29556
 H701 H 1.18245 0.52686 -0.33865
 H702 H 1.07579 0.51060 -0.24876
 H703 H 1.07611 0.46639 -0.09084
 H704 H 1.15013 0.52674 -0.28160
 H705 H 1.10955 0.51202 -0.29998
 H706 H 1.12035 0.45437 -0.24093
 H707 H 1.11016 0.46818 -0.14124
 C708 C 0.50938 0.64150 -0.26418
 C709 C 0.51710 0.64761 -0.33106
 C710 C 0.51693 0.66614 -0.36215
 C711 C 0.50869 0.67899 -0.32750
 C712 C 0.50082 0.67256 -0.26018
 C713 C 0.50136 0.65421 -0.22891
 C714 C 0.50976 0.62193 -0.23136
 C715 C 0.51873 0.62414 -0.16560
 C716 C 0.51971 0.60587 -0.13550
 C717 C 0.51146 0.58497 -0.17031
 C718 C 0.50213 0.58262 -0.23559
 C719 C 0.50143 0.60099 -0.26601
 H720 H 0.52240 0.66960 -0.41453
 H721 H 0.49503 0.68213 -0.23007
 H722 H 0.52693 0.60810 -0.08502
 H723 H 0.49562 0.56668 -0.26349
 H724 H 0.49531 0.64982 -0.17716
 H725 H 0.52539 0.64017 -0.13803
 H726 H 0.52342 0.63808 -0.35932
 H727 H 0.49423 0.59880 -0.31651
 C728 C 0.35886 -0.13448 -0.25528
 C729 C 0.36179 -0.15235 -0.28047
 C730 C 0.34360 -0.17145 -0.31188
 C731 C 0.32179 -0.17332 -0.31920
 C732 C 0.31903 -0.15530 -0.29279
 C733 C 0.33726 -0.13624 -0.26150
 C734 C 0.37836 -0.11384 -0.22379
 C735 C 0.37490 -0.10359 -0.16615
 C736 C 0.39312 -0.08376 -0.13780
 C737 C 0.41515 -0.07376 -0.16655
 C738 C 0.41870 -0.08411 -0.22367
 C739 C 0.40050 -0.10395 -0.25200
 H740 H 0.34671 -0.18500 -0.32810
 H741 H 0.30318 -0.15505 -0.29898
 H742 H 0.38992 -0.07622 -0.09350
 H743 H 0.43552 -0.07678 -0.24685
 H744 H 0.33458 -0.12251 -0.24387
 H745 H 0.35812 -0.11099 -0.14269
 H746 H 0.37813 -0.15171 -0.27508
 H747 H 0.40365 -0.11127 -0.29687
 C748 C 0.50949 -0.13247 0.26175
 C749 C 0.51359 -0.13231 0.33174
 C750 C 0.51311 -0.15119 0.36262
 C751 C 0.50837 -0.17070 0.32428
 C752 C 0.50416 -0.17092 0.25433
 C753 C 0.50483 -0.15194 0.22330
 C754 C 0.51018 -0.11231 0.22909
 C755 C 0.52151 -0.10399 0.16684
 C756 C 0.52269 -0.08461 0.13704
 C757 C 0.51240 -0.07329 0.16868
 C758 C 0.50079 -0.08179 0.23040
 C759 C 0.49976 -0.10106 0.26044
 H760 H 0.51618 -0.15066 0.41675
 H761 H 0.50060 -0.18568 0.22353
 H762 H 0.53172 -0.07844 0.08935
 H763 H 0.49264 -0.07345 0.25578
 H764 H 0.50143 -0.15258 0.16936
 H765 H 0.52986 -0.11221 0.14187
 H766 H 0.51744 -0.11745 0.36247
 H767 H 0.49067 -0.10728 0.30802
 C768 C 0.35385 0.48241 0.25904
 C769 C 0.33811 0.48557 0.22019
 C770 C 0.31950 0.48574 0.25124
 C771 C 0.31615 0.48259 0.32168
 C772 C 0.33175 0.47918 0.36038
 C773 C 0.35042 0.47915 0.32942
 C774 C 0.37388 0.48269 0.22648
 C775 C 0.39566 0.49437 0.25729
 C776 C 0.41452 0.49449 0.22709
 C777 C 0.41196 0.48283 0.16566
 C778 C 0.39024 0.47126 0.13457
 C779 C 0.37139 0.47124 0.16461
 H780 H 0.30765 0.48824 0.22012
 H781 H 0.32974 0.47696 0.41486
 H782 H 0.43109 0.50364 0.25204
 H783 H 0.38778 0.46214 0.08714
 H784 H 0.36213 0.47644 0.36053
 H785 H 0.39816 0.50361 0.30449
 H786 H 0.34042 0.48829 0.16593
 H787 H 0.35477 0.46194 0.14002
 C788 C 1.13324 0.64227 0.26298
 C789 C 1.15537 0.65000 0.23705
 C790 C 1.17450 0.66829 0.26813
 C791 C 1.17165 0.67943 0.32441
 C792 C 1.14951 0.67187 0.34983
 C793 C 1.13046 0.65325 0.31980
 C794 C 1.11303 0.62282 0.23087
 C795 C 1.09814 0.60353 0.26945
 C796 C 1.07882 0.58521 0.23937
 C797 C 1.07380 0.58615 0.17067
 C798 C 1.08866 0.60550 0.13214
 C799 C 1.10829 0.62359 0.16186
 H800 H 1.19148 0.67394 0.24786
 H801 H 1.14703 0.68022 0.39344
 H802 H 1.06759 0.57049 0.27011
 H803 H 1.08519 0.60656 0.07898
 H804 H 1.11350 0.64757 0.34031
 H805 H 1.10158 0.60262 0.32274
 H806 H 1.15783 0.64167 0.19336
 H807 H 1.11956 0.63838 0.13140
 C808 C 0.49362 0.13434 0.25670
 C809 C 0.50900 0.14582 0.31034
 C810 C 0.50966 0.16475 0.34184
 C811 C 0.49534 0.17311 0.31963
 C812 C 0.48037 0.16199 0.26484
 C813 C 0.47934 0.14275 0.23431
 C814 C 0.49219 0.11349 0.22517
 C815 C 0.48663 0.10839 0.15597
 C816 C 0.48473 0.08853 0.12710
 C817 C 0.48886 0.07361 0.16635
 C818 C 0.49476 0.07875 0.23498
 C819 C 0.49613 0.09831 0.26428
 H820 H 0.52117 0.17253 0.38449
 H821 H 0.46936 0.16811 0.24529
 H822 H 0.48037 0.08501 0.07381
 H823 H 0.49785 0.06739 0.26642
 H824 H 0.46702 0.13426 0.19388
 H825 H 0.48396 0.11984 0.12370
 H826 H 0.52063 0.14024 0.32827
 H827 H 0.49990 0.10124 0.31797
 C828 C 0.64284 0.51230 0.26006
 C829 C 0.64054 0.49163 0.28418
 C830 C 0.65903 0.49129 0.31547
 C831 C 0.68022 0.51163 0.32350
 C832 C 0.68256 0.53229 0.29906
 C833 C 0.66409 0.53261 0.26759
 C834 C 0.62309 0.51273 0.22788
 C835 C 0.62632 0.52626 0.17016
 C836 C 0.60776 0.52692 0.14052
 C837 C 0.58562 0.51412 0.16808
 C838 C 0.58232 0.50048 0.22549
 C839 C 0.60086 0.49979 0.25506
 H840 H 0.65663 0.47515 0.33442
 H841 H 0.69873 0.54820 0.30395
 H842 H 0.61078 0.53750 0.09608
 H843 H 0.56543 0.49044 0.24782
 H844 H 0.66633 0.54885 0.25013
 H845 H 0.64317 0.53618 0.14754
 H846 H 0.62446 0.47566 0.27850
 H847 H 0.59788 0.48942 0.29996
 C848 C 0.86816 0.35879 0.26186
 C849 C 0.84874 0.34355 0.22376
 C850 C 0.83000 0.32504 0.25518
 C851 C 0.83042 0.32129 0.32518
 C852 C 0.84987 0.33649 0.36318
 C853 C 0.86851 0.35508 0.33190
 C854 C 0.88809 0.37843 0.22880
 C855 C 0.89908 0.40015 0.25996
 C856 C 0.91821 0.41855 0.22974
 C857 C 0.92682 0.41556 0.16800
 C858 C 0.91573 0.39392 0.13645
 C859 C 0.89650 0.37555 0.16646
 H860 H 0.81529 0.31349 0.22464
 H861 H 0.85055 0.33414 0.41734
 H862 H 0.92636 0.43506 0.25504
 H863 H 0.92200 0.39116 0.08875
 H864 H 0.88334 0.36641 0.36238
 H865 H 0.89278 0.40292 0.30758
 H866 H 0.84795 0.34611 0.16979
 H867 H 0.88848 0.35896 0.14162
   
