data_POSCAR
  _audit_creation_date              2014-09-24
  _audit_creation_method            'ToBaCCo'
  _symmetry_space_group_name_H-M    'P1'
  _symmetry_Int_Tables_number       1
  _symmetry_cell_setting            triclinic
  loop_
  _symmetry_equiv_pos_as_xyz
 x,y,z
_cell_length_a 30.4403
_cell_length_b 31.4516
_cell_length_c 30.4379
_cell_angle_alpha 89.278400
_cell_angle_beta 90.788900
_cell_angle_gamma 88.095100
loop_
  _atom_site_label
  _atom_site_type_symbol
  _atom_site_fract_x
  _atom_site_fract_y
  _atom_site_fract_z
N1 N 0.17727 0.18117 0.16838
 N2 N -0.17509 0.80744 0.19895
 N3 N -0.19865 0.19162 -0.18873
 N4 N 0.17929 0.81179 -0.17614
 N5 N 0.21212 1.21314 0.79753
 N6 N 0.80896 0.80929 0.80003
 N7 N 0.17255 0.81439 1.17572
 N8 N 0.81063 1.18955 1.18338
 N9 N 0.45107 0.91697 0.96015
 N10 N 0.41537 0.89490 0.95408
 N11 N 0.54641 0.93776 0.93285
 N12 N 0.58008 0.92961 0.90711
 N13 N 0.54303 0.90753 0.96264
 N14 N 0.57400 0.87763 0.95760
 N15 N 0.45377 0.94673 0.92976
 N16 N 0.41956 0.94627 0.90269
 C17 C 0.39609 0.91361 0.91807
 C18 C 0.59690 0.89199 0.92290
 N19 N 0.55301 1.05931 0.96101
 N20 N 0.58693 1.08373 0.95511
 N21 N 0.45996 1.03730 0.92865
 N22 N 0.42651 1.04401 0.90125
 N23 N 0.46083 1.06712 0.95839
 N24 N 0.42829 1.09546 0.95152
 N25 N 0.55258 1.02902 0.93174
 N26 N 0.58652 1.03170 0.90540
 Mn27 Mn 0.50333 0.98767 0.93024
 C28 C 0.60764 1.06601 0.92041
 C29 C 0.40721 1.08047 0.91567
 N30 N 0.54193 0.90753 1.05722
 N31 N 0.57321 0.87796 1.06346
 N32 N 0.45227 0.94686 1.08512
 N33 N 0.41704 0.94716 1.10990
 N34 N 0.45008 0.91714 1.05530
 N35 N 0.41367 0.89586 1.05958
 N36 N 0.54505 0.93761 1.08653
 N37 N 0.57904 0.92965 1.11313
 Mn38 Mn 0.49639 0.91177 1.00886
 C39 C 0.59603 0.89220 1.09842
 C40 C 0.39348 0.91498 1.09384
 N41 N 0.45955 1.06651 1.05348
 N42 N 0.42698 1.09488 1.05834
 N43 N 0.55066 1.02909 1.08623
 N44 N 0.58258 1.03304 1.11552
 N45 N 0.55248 1.05862 1.05547
 N46 N 0.58632 1.08293 1.06251
 N47 N 0.45906 1.03747 1.08482
 N48 N 0.42679 1.04551 1.11217
 Mn49 Mn 0.50637 1.06348 1.00713
 Mn50 Mn 0.50191 0.98764 1.08617
 Cl51 Cl 0.50202 0.98769 1.00807
 C52 C 0.40704 1.08130 1.09529
 C53 C 0.60478 1.06653 1.10005
 N54 N 0.04555 0.45879 0.07409
 N55 N 0.05422 0.42442 0.09844
 N56 N 0.06238 0.55236 0.04257
 N57 N 0.08566 0.58659 0.04889
 N58 N 0.03405 0.54786 0.07427
 N59 N 0.03739 0.57852 0.10311
 N60 N 0.07559 0.46321 0.04403
 N61 N 0.10584 0.43230 0.04741
 C62 C 0.09219 0.40852 0.08159
 C63 C 0.06947 0.60260 0.08683
 N64 N 0.02989 0.54652 -0.08368
 N65 N 0.03175 0.57783 -0.11291
 N66 N 0.07232 0.46172 -0.04998
 N67 N 0.10254 0.43089 -0.05280
 N68 N 0.04146 0.45751 -0.08011
 N69 N 0.05046 0.42414 -0.10483
 N70 N 0.05958 0.55094 -0.05248
 N71 N 0.08211 0.58542 -0.05936
 Mn72 Mn 0.06797 0.50735 -0.00406
 C73 C 0.06439 0.60191 -0.09711
 C74 C 0.08873 0.40792 -0.08728
 N75 N -0.05934 0.53985 0.07573
 N76 N -0.06624 0.57296 0.10118
 N77 N -0.08024 0.44939 0.04693
 N78 N -0.10275 0.41466 0.05286
 N79 N -0.04806 0.45085 0.07591
 N80 N -0.04751 0.41716 0.10216
 N81 N -0.08979 0.53871 0.04486
 N82 N -0.11808 0.57116 0.04824
 Mn83 Mn -0.00693 0.49916 0.07548
 C84 C -0.10315 0.59198 0.08380
 C85 C -0.08191 0.39494 0.08746
 N86 N -0.05387 0.44915 -0.07839
 N87 N -0.05679 0.41479 -0.10290
 N88 N -0.09258 0.53794 -0.04988
 N89 N -0.11972 0.57152 -0.05252
 N90 N -0.06411 0.53864 -0.08192
 N91 N -0.07146 0.57254 -0.10739
 N92 N -0.08291 0.44846 -0.04687
 N93 N -0.10555 0.41359 -0.04839
 Mn94 Mn -0.01168 0.49771 -0.08171
 Mn95 Mn -0.08692 0.49378 -0.00132
 Cl96 Cl -0.00936 0.49952 -0.00297
 C97 C -0.08925 0.39297 -0.08348
 C98 C -0.10653 0.59251 -0.08888
 N99 N 0.93240 0.05189 0.55226
 N100 N 0.90772 0.05619 0.58740
 N101 N 0.95317 0.08237 0.45734
 N102 N 0.94509 0.10563 0.42148
 N103 N 0.92562 0.05121 0.45993
 N104 N 0.89866 0.05192 0.42562
 N105 N 0.96047 0.08256 0.54983
 N106 N 0.95631 0.10814 0.58360
 C107 C 0.92318 0.09143 0.60659
 C108 C 0.91079 0.08630 0.40222
 N109 N 1.08072 0.05925 0.45057
 N110 N 1.10492 0.06628 0.41570
 N111 N 1.05377 0.08722 0.54409
 N112 N 1.05725 0.11288 0.57768
 N113 N 1.08722 0.05976 0.54329
 N114 N 1.11482 0.06660 0.57631
 N115 N 1.04781 0.08727 0.45220
 N116 N 1.04922 0.11461 0.41909
 Mn117 Mn 1.00375 0.08533 0.50073
 C118 C 1.08487 0.10098 0.39652
 C119 C 1.09548 0.09996 0.59738
 N120 N 0.93300 -0.03947 0.46160
 N121 N 0.90235 -0.04676 0.43201
 N122 N 0.97350 -0.06793 0.55084
 N123 N 0.97204 -0.09597 0.58336
 N124 N 0.94061 -0.03999 0.55311
 N125 N 0.91543 -0.04869 0.58678
 N126 N 0.96623 -0.06682 0.45827
 N127 N 0.95926 -0.09336 0.42580
 Mn128 Mn 0.93246 0.00596 0.50693
 C129 C 0.91920 -0.08027 0.40982
 C130 C 0.93568 -0.08352 0.60554
 N131 N 1.09529 -0.03276 0.54380
 N132 N 1.12359 -0.03677 0.57709
 N133 N 1.06039 -0.06235 0.45230
 N134 N 1.06591 -0.08819 0.41879
 N135 N 1.08932 -0.03231 0.45146
 N136 N 1.11574 -0.03727 0.41770
 N137 N 1.06695 -0.06335 0.54504
 N138 N 1.07456 -0.08840 0.57952
 Mn139 Mn 1.08881 0.01355 0.49737
 Mn140 Mn 1.01687 -0.06562 0.50145
 Cl141 Cl 1.01055 0.00978 0.50164
 C142 C 1.11010 -0.07172 0.59900
 C143 C 1.10057 -0.07214 0.39749
 C144 C 1.16480 0.11527 0.21144
 C145 C 1.16163 0.15989 0.20738
 C146 C 1.14382 0.18359 0.24215
 C147 C 1.12901 0.16318 0.28007
 C148 C 1.13361 0.11843 0.28433
 C149 C 1.15146 0.09476 0.24976
 C150 C 1.11994 0.09818 0.32293
 C151 C 1.10021 0.12204 0.35644
 C152 C 1.09462 0.16629 0.35137
 C153 C 1.10950 0.18682 0.31377
 H154 H 1.14162 0.21800 0.23973
 H155 H 1.15481 0.06040 0.25223
 H156 H 1.12372 0.06390 0.32653
 H157 H 1.10543 0.22110 0.31088
 H158 H 1.17796 0.09630 0.18493
 H159 H 1.07941 0.18511 0.37694
 C160 C 0.89522 -0.17359 0.23420
 C161 C 0.84901 -0.17283 0.23395
 C162 C 0.82635 -0.15380 0.26875
 C163 C 0.84939 -0.13577 0.30350
 C164 C 0.89591 -0.13766 0.30419
 C165 C 0.91853 -0.15648 0.26925
 C166 C 0.91888 -0.12040 0.33965
 C167 C 0.89576 -0.10017 0.37348
 C168 C 0.84964 -0.09774 0.37203
 C169 C 0.82659 -0.11584 0.33757
 H170 H 0.79072 -0.15339 0.26881
 H171 H 0.95415 -0.15787 0.26899
 H172 H 0.95452 -0.12177 0.34044
 H173 H 0.79097 -0.11395 0.33738
 H174 H 0.91316 -0.18787 0.20736
 H175 H 0.83136 -0.08217 0.39790
 C176 C 0.78681 0.15215 0.74277
 C177 C 0.81672 0.16960 0.77264
 C178 C 0.86190 0.16636 0.76397
 C179 C 0.87704 0.14684 0.72572
 C180 C 0.84681 0.12861 0.69631
 C181 C 0.80176 0.13125 0.70529
 C182 C 0.86216 0.10901 0.65799
 C183 C 0.90701 0.10920 0.64798
 C184 C 0.93657 0.12791 0.67704
 C185 C 0.92187 0.14601 0.71596
 H186 H 0.88519 0.17967 0.78682
 H187 H 0.77807 0.11790 0.68293
 H188 H 0.83918 0.09504 0.63526
 H189 H 0.94543 0.16003 0.73801
 H190 H 0.75181 0.15491 0.74841
 H191 H 0.97119 0.12819 0.66973
 C192 C 1.11412 -0.16167 0.78048
 C193 C 1.16008 -0.16637 0.78552
 C194 C 1.18695 -0.14964 0.75256
 C195 C 1.16827 -0.12861 0.71548
 C196 C 1.12208 -0.12586 0.71015
 C197 C 1.09532 -0.14227 0.74291
 C198 C 1.10342 -0.10690 0.67204
 C199 C 1.13023 -0.08925 0.63987
 C200 C 1.17597 -0.09029 0.64624
 C201 C 1.19494 -0.11038 0.68351
 H202 H 1.22238 -0.15316 0.75564
 H203 H 1.05982 -0.13991 0.73959
 H204 H 1.06800 -0.10566 0.66745
 H205 H 1.23041 -0.11180 0.68726
 H206 H 1.09260 -0.17333 0.80562
 H207 H 1.19705 -0.07685 0.62167
 C208 C 0.22136 1.16669 1.10197
 C209 C 0.21740 1.16601 1.14796
 C210 C 0.25314 1.15069 1.17396
 C211 C 0.29174 1.13515 1.15446
 C212 C 0.29562 1.13633 1.10820
 C213 C 0.26027 1.15240 1.08226
 C214 C 0.33436 1.12049 1.08879
 C215 C 0.36825 1.10199 1.11511
 C216 C 0.36387 1.10068 1.16093
 C217 C 0.32622 1.11771 1.18052
 H218 H 0.25068 1.15055 1.20945
 H219 H 0.26247 1.15331 1.04676
 H220 H 0.33742 1.12092 1.05333
 H221 H 0.32368 1.11639 1.21599
 H222 H 0.19415 1.17821 1.08132
 H223 H 0.38973 1.08642 1.18164
 C224 C 0.25182 0.79253 0.85783
 C225 C 0.22140 0.82385 0.84174
 C226 C 0.23213 0.86691 0.84428
 C227 C 0.27269 0.87846 0.86217
 C228 C 0.30232 0.84673 0.87950
 C229 C 0.29158 0.80386 0.87706
 C230 C 0.34233 0.85842 0.89861
 C231 C 0.35381 0.90123 0.89890
 C232 C 0.32481 0.93237 0.88048
 C233 C 0.28426 0.92121 0.86285
 H234 H 0.20886 0.89135 0.83235
 H235 H 0.31407 0.77908 0.88971
 H236 H 0.36492 0.83422 0.91232
 H237 H 0.26215 0.94594 0.84944
 H238 H 0.24455 0.75915 0.85578
 H239 H 0.33324 0.96548 0.88050
 C240 C 0.78441 0.87365 1.17542
 C241 C 0.78601 0.82907 1.18049
 C242 C 0.74885 0.80615 1.16861
 C243 C 0.71105 0.82727 1.15133
 C244 C 0.70947 0.87217 1.14764
 C245 C 0.74634 0.89504 1.15971
 C246 C 0.67121 0.89337 1.13147
 C247 C 0.63532 0.87010 1.11718
 C248 C 0.63755 0.82552 1.11975
 C249 C 0.67487 0.80424 1.13739
 H250 H 0.74934 0.77189 1.17292
 H251 H 0.74589 0.92941 1.15666
 H252 H 0.66975 0.92781 1.12882
 H253 H 0.67564 0.76981 1.13965
 H254 H 0.81269 0.89198 1.18397
 H255 H 0.61009 0.80719 1.10868
 C256 C 0.73549 1.20239 0.85771
 C257 C 0.76566 1.17484 0.83669
 C258 C 0.75953 1.13065 0.83931
 C259 C 0.72286 1.11445 0.86044
 C260 C 0.69291 1.14250 0.88148
 C261 C 0.69985 1.18636 0.88039
 C262 C 0.65598 1.12629 0.90229
 C263 C 0.64770 1.08264 0.90068
 C264 C 0.67737 1.05509 0.87927
 C265 C 0.71502 1.07076 0.85988
 H266 H 0.78278 1.10889 0.82391
 H267 H 0.67707 1.20837 0.89610
 H268 H 0.63293 1.14777 0.91840
 H269 H 0.73753 1.04882 0.84370
 H270 H 0.73903 1.23649 0.85594
 H271 H 0.67158 1.02133 0.87785
 C272 C 0.10877 0.22368 0.15241
 C273 C 0.15493 0.21969 0.15214
 C274 C 0.17917 0.25419 0.13724
 C275 C 0.15775 0.29217 0.12320
 C276 C 0.11142 0.29636 0.12523
 C277 C 0.08721 0.26183 0.13960
 C278 C 0.09016 0.33493 0.11260
 C279 C 0.11454 0.36870 0.09649
 C280 C 0.16036 0.36385 0.09334
 C281 C 0.18191 0.32607 0.10719
 H282 H 0.21475 0.25161 0.13711
 H283 H 0.05166 0.26430 0.14086
 H284 H 0.05466 0.33836 0.11430
 H285 H 0.21739 0.32326 0.10509
 H286 H 0.08943 0.19733 0.16320
 H287 H 0.17956 0.38958 0.08074
 C288 C -0.16698 0.26070 -0.20870
 C289 C -0.17799 0.23064 -0.17635
 C290 C -0.16706 0.23831 -0.13224
 C291 C -0.14578 0.27555 -0.12053
 C292 C -0.13422 0.30521 -0.15344
 C293 C -0.14499 0.29740 -0.19744
 C294 C -0.11315 0.34265 -0.14161
 C295 C -0.10524 0.35141 -0.09718
 C296 C -0.11692 0.32181 -0.06480
 C297 C -0.13641 0.28392 -0.07637
 H298 H -0.17505 0.21518 -0.10714
 H299 H -0.13679 0.31985 -0.22310
 H300 H -0.10492 0.36580 -0.16661
 H301 H -0.14512 0.26168 -0.05070
 H302 H -0.17528 0.25554 -0.24288
 H303 H -0.11125 0.32823 -0.03033
 C304 C 0.15624 0.77363 -0.10913
 C305 C 0.15668 0.77730 -0.15523
 C306 C 0.13620 0.74625 -0.18054
 C307 C 0.11621 0.71174 -0.16011
 C308 C 0.11777 0.70755 -0.11380
 C309 C 0.13740 0.73889 -0.08861
 C310 C 0.10019 0.67180 -0.09348
 C311 C 0.08007 0.64064 -0.11870
 C312 C 0.07685 0.64591 -0.16449
 C313 C 0.09521 0.68100 -0.18513
 H314 H 0.13651 0.74866 -0.21608
 H315 H 0.13841 0.73642 -0.05306
 H316 H 0.10227 0.66813 -0.05802
 H317 H 0.09335 0.68388 -0.22062
 H318 H 0.17122 0.79747 -0.08900
 H319 H 0.06141 0.62219 -0.18443
 C320 C -0.14196 0.73579 0.21492
 C321 C -0.16135 0.76536 0.18475
 C322 C -0.16660 0.75356 0.14063
 C323 C -0.15285 0.71295 0.12694
 C324 C -0.13162 0.68435 0.15721
 C325 C -0.12658 0.69597 0.20115
 C326 C -0.11565 0.64465 0.14298
 C327 C -0.12212 0.63257 0.09926
 C328 C -0.14523 0.66020 0.06998
 C329 C -0.15987 0.70042 0.08346
 H330 H -0.18124 0.77604 0.11698
 H331 H -0.11096 0.67421 0.22492
 H332 H -0.09837 0.62311 0.16588
 H333 H -0.17662 0.72167 0.05994
 H334 H -0.13834 0.74365 0.24927
 H335 H -0.15091 0.65110 0.03635
 C336 C 1.22907 0.17426 0.72905
 C337 C 1.19805 0.19080 0.75873
 C338 C 1.15325 0.18419 0.75093
 C339 C 1.13948 0.16209 0.71376
 C340 C 1.17090 0.14509 0.68433
 C341 C 1.21568 0.15132 0.69240
 C342 C 1.15681 0.12294 0.64702
 C343 C 1.11171 0.11921 0.63819
 C344 C 1.08100 0.13650 0.66757
 C345 C 1.09467 0.15722 0.70529
 H346 H 1.12914 0.19632 0.77389
 H347 H 1.24028 0.13883 0.67018
 H348 H 1.18066 0.11015 0.62414
 H349 H 1.07015 0.17014 0.72737
 H350 H 1.26378 0.17908 0.73442
 H351 H 1.04618 0.13401 0.66121
 C352 C 0.79668 -0.14667 0.73455
 C353 C 0.82516 -0.17053 0.76329
 C354 C 0.87057 -0.17229 0.75393
 C355 C 0.88690 -0.15062 0.71732
 C356 C 0.85784 -0.12600 0.68989
 C357 C 0.81285 -0.12444 0.69866
 C358 C 0.87418 -0.10352 0.65392
 C359 C 0.91908 -0.10626 0.64419
 C360 C 0.94773 -0.13137 0.67106
 C361 C 0.93185 -0.15302 0.70766
 H362 H 0.89334 -0.18968 0.77578
 H363 H 0.79006 -0.10617 0.67761
 H364 H 0.85182 -0.08457 0.63299
 H365 H 0.95466 -0.17182 0.72822
 H366 H 0.76155 -0.14544 0.73977
 H367 H 0.98251 -0.13383 0.66405
 C368 C 1.10651 -0.16375 0.21834
 C369 C 1.15256 -0.16599 0.21397
 C370 C 1.17873 -0.14888 0.24757
 C371 C 1.15942 -0.12935 0.28415
 C372 C 1.11326 -0.12862 0.28868
 C373 C 1.08713 -0.14590 0.25555
 C374 C 1.09410 -0.11037 0.32612
 C375 C 1.12045 -0.09126 0.35809
 C376 C 1.16611 -0.09083 0.35250
 C377 C 1.18553 -0.11030 0.31622
 H378 H 1.21422 -0.15070 0.24535
 H379 H 1.05164 -0.14519 0.25817
 H380 H 1.05874 -0.11031 0.33002
 H381 H 1.22094 -0.11021 0.31310
 H382 H 1.08535 -0.17592 0.19290
 H383 H 1.18692 -0.07626 0.37681
 C384 C 0.84121 0.20853 0.25466
 C385 C 0.82834 0.17760 0.22406
 C386 C 0.83463 0.13423 0.23625
 C387 C 0.85310 0.12234 0.27732
 C388 C 0.86719 0.15390 0.30648
 C389 C 0.86092 0.19685 0.29487
 C390 C 0.88691 0.14199 0.34697
 C391 C 0.89106 0.09894 0.35938
 C392 C 0.87590 0.06779 0.33078
 C393 C 0.85767 0.07933 0.28979
 H394 H 0.82597 0.10959 0.21345
 H395 H 0.87080 0.22150 0.31714
 H396 H 0.89809 0.16615 0.36923
 H397 H 0.84683 0.05465 0.26802
 H398 H 0.83564 0.24213 0.24768
 H399 H 0.87890 0.03439 0.33986
 C400 C 0.16797 0.27932 -0.21923
 C401 C 0.18768 0.25080 -0.18822
 C402 C 0.18265 0.25918 -0.14320
 C403 C 0.15901 0.29558 -0.12943
 C404 C 0.13845 0.32337 -0.16093
 C405 C 0.14314 0.31490 -0.20575
 C406 C 0.11418 0.35945 -0.14703
 C407 C 0.11189 0.36894 -0.10216
 C408 C 0.13315 0.34164 -0.07120
 C409 C 0.15594 0.30490 -0.08464
 H410 H 0.19714 0.23735 -0.11885
 H411 H 0.12804 0.33604 -0.23040
 H412 H 0.09828 0.38080 -0.17105
 H413 H 0.17169 0.28411 -0.06005
 H414 H 0.17171 0.27397 -0.25406
 H415 H 0.13171 0.34853 -0.03645
 C416 C -0.20735 0.25343 0.14004
 C417 C -0.17651 0.22667 0.16316
 C418 C -0.13229 0.23896 0.16512
 C419 C -0.11954 0.27705 0.14541
 C420 C -0.15087 0.30295 0.12199
 C421 C -0.19459 0.29077 0.11937
 C422 C -0.13812 0.34097 0.10214
 C423 C -0.09474 0.35412 0.10667
 C424 C -0.06384 0.32845 0.13034
 C425 C -0.07600 0.28994 0.14913
 H426 H -0.10771 0.21863 0.18178
 H427 H -0.21913 0.31049 0.10193
 H428 H -0.16217 0.36086 0.08419
 H429 H -0.05153 0.27054 0.16704
 H430 H -0.24177 0.24580 0.13865
 H431 H -0.03016 0.33805 0.13403
 C432 C -0.15791 0.74010 -0.21818
 C433 C -0.17426 0.76948 -0.18702
 C434 C -0.17307 0.75673 -0.14226
 C435 C -0.15727 0.71601 -0.12930
 C436 C -0.14014 0.68771 -0.16092
 C437 C -0.14055 0.70013 -0.20523
 C438 C -0.12319 0.64736 -0.14765
 C439 C -0.12478 0.63448 -0.10337
 C440 C -0.14304 0.66239 -0.07248
 C441 C -0.15856 0.70304 -0.08514
 H442 H -0.18408 0.77867 -0.11722
 H443 H -0.12810 0.67865 -0.23004
 H444 H -0.10944 0.62579 -0.17175
 H445 H -0.17185 0.72418 -0.06043
 H446 H -0.15925 0.74768 -0.25297
 H447 H -0.14437 0.65304 -0.03829
 C448 C 0.15145 0.77918 0.10662
 C449 C 0.15121 0.78044 0.15283
 C450 C 0.13323 0.74660 0.17632
 C451 C 0.11654 0.71165 0.15408
 C452 C 0.11862 0.70993 0.10770
 C453 C 0.13564 0.74416 0.08427
 C454 C 0.10383 0.67395 0.08565
 C455 C 0.08577 0.64035 0.10937
 C456 C 0.08262 0.64300 0.15527
 C457 C 0.09831 0.67808 0.17749
 H458 H 0.13331 0.74707 0.21192
 H459 H 0.13712 0.74367 0.04873
 H460 H 0.10578 0.67234 0.05016
 H461 H 0.09620 0.67895 0.21298
 H462 H 0.16497 0.80504 0.08791
 H463 H 0.06868 0.61744 0.17413
 C464 C 0.27990 1.22276 0.84224
 C465 C 0.24910 1.19586 0.82323
 C466 C 0.25510 1.15162 0.82880
 C467 C 0.29182 1.13437 0.85171
 C468 C 0.32244 1.16160 0.87111
 C469 C 0.31595 1.20581 0.86645
 C470 C 0.35948 1.14401 0.89378
 C471 C 0.36694 1.09970 0.89544
 C472 C 0.33647 1.07315 0.87571
 C473 C 0.29889 1.09023 0.85462
 H474 H 0.23140 1.13058 0.81463
 H475 H 0.33918 1.22722 0.88075
 H476 H 0.38324 1.16465 0.90853
 H477 H 0.27587 1.06894 0.83975
 H478 H 0.27619 1.25692 0.83801
 H479 H 0.34178 1.03899 0.87668
 C480 C 0.24623 0.79514 1.14723
 C481 C 0.21545 0.82650 1.16081
 C482 C 0.22655 0.86953 1.15834
 C483 C 0.26786 0.88095 1.14287
 C484 C 0.29780 0.84911 1.12797
 C485 C 0.28671 0.80633 1.13044
 C486 C 0.33850 0.86054 1.11115
 C487 C 0.35041 0.90321 1.11073
 C488 C 0.32114 0.93457 1.12678
 C489 C 0.27988 0.92362 1.14213
 H490 H 0.20299 0.89398 1.16840
 H491 H 0.30944 0.78148 1.11964
 H492 H 0.36130 0.83621 1.09931
 H493 H 0.25754 0.94844 1.15370
 H494 H 0.23867 0.76178 1.14927
 H495 H 0.32990 0.96768 1.12666
 C496 C 0.77760 1.16263 1.11648
 C497 C 0.77940 1.16535 1.16285
 C498 C 0.74708 1.14440 1.18718
 C499 C 0.71328 1.12300 1.16582
 C500 C 0.71084 1.12302 1.11943
 C501 C 0.74355 1.14225 1.09513
 C502 C 0.67539 1.10427 1.09807
 C503 C 0.64299 1.08440 1.12250
 C504 C 0.64666 1.08271 1.16851
 C505 C 0.68126 1.10232 1.19007
 H506 H 0.74699 1.14634 1.22270
 H507 H 0.74266 1.14184 1.05953
 H508 H 0.67297 1.10511 1.06248
 H509 H 0.68275 1.10163 1.22566
 H510 H 0.80253 1.17685 1.09655
 H511 H 0.62196 1.06739 1.18786
 C512 C 0.77400 0.87411 0.82767
 C513 C 0.77559 0.82935 0.82331
 C514 C 0.74139 0.80610 0.84216
 C515 C 0.70663 0.82696 0.86392
 C516 C 0.70486 0.87183 0.86589
 C517 C 0.73890 0.89503 0.84812
 C518 C 0.66890 0.89284 0.88534
 C519 C 0.63530 0.86952 0.90414
 C520 C 0.63810 0.82491 0.90381
 C521 C 0.67323 0.80375 0.88332
 H522 H 0.74102 0.77187 0.83871
 H523 H 0.73842 0.92943 0.85002
 H524 H 0.66711 0.92733 0.88607
 H525 H 0.67418 0.76930 0.88249
 H526 H 0.80013 0.89313 0.81503
 H527 H 0.61243 0.80647 0.91824
   
