data_POSCAR
  _audit_creation_date              2014-09-24
  _audit_creation_method            'ToBaCCo'
  _symmetry_space_group_name_H-M    'P1'
  _symmetry_Int_Tables_number       1
  _symmetry_cell_setting            triclinic
  loop_
  _symmetry_equiv_pos_as_xyz
 x,y,z
_cell_length_a 39.5746
_cell_length_b 37.9096
_cell_length_c 39.3280
_cell_angle_alpha 90.511700
_cell_angle_beta 89.761100
_cell_angle_gamma 89.982400
loop_
  _atom_site_label
  _atom_site_type_symbol
  _atom_site_fract_x
  _atom_site_fract_y
  _atom_site_fract_z
C1 C 0.60961 0.65268 0.60889
 C2 C 0.63941 0.63796 0.59556
 C3 C 0.65385 0.60896 0.61093
 C4 C 0.63891 0.59459 0.64009
 C5 C 0.60951 0.60898 0.65313
 C6 C 0.59489 0.63843 0.63765
 C7 C 0.58994 0.68077 0.59922
 N8 N 0.56395 0.68413 0.62166
 C9 C 0.56679 0.65842 0.64530
 C10 C 0.60054 0.58945 0.68105
 N11 N 0.62407 0.56366 0.68578
 C12 C 0.64771 0.56693 0.66064
 C13 C 0.68226 0.60011 0.59243
 N14 N 0.68554 0.62328 0.56649
 C15 C 0.65952 0.64659 0.56825
 H16 H 0.59447 0.69789 0.57779
 H17 H 0.54952 0.65445 0.66634
 H18 H 0.57893 0.59472 0.69724
 H19 H 0.66935 0.54993 0.65666
 H20 H 0.69950 0.57867 0.59765
 H21 H 0.65535 0.66797 0.55068
 C22 C 0.89053 0.34412 0.10691
 C23 C 0.86190 0.35940 0.09214
 C24 C 0.84701 0.38873 0.10712
 C25 C 0.86030 0.40290 0.13728
 C26 C 0.88844 0.38768 0.15189
 C27 C 0.90342 0.35788 0.13676
 C28 C 0.91052 0.31589 0.09769
 N29 N 0.93507 0.31166 0.12156
 C30 C 0.93060 0.33738 0.14563
 C31 C 0.89614 0.40718 0.18049
 N32 N 0.87318 0.43365 0.18371
 C33 C 0.85106 0.43116 0.15749
 C34 C 0.81988 0.39796 0.08731
 N35 N 0.81774 0.37466 0.06097
 C36 C 0.84330 0.35096 0.06372
 H37 H 0.90655 0.29913 0.07567
 H38 H 0.94650 0.34190 0.16754
 H39 H 0.91680 0.40239 0.19781
 H40 H 0.83019 0.44899 0.15312
 H41 H 0.80254 0.41956 0.09205
 H42 H 0.84803 0.32927 0.04625
 C43 C 0.39007 0.15428 -0.10791
 C44 C 0.36074 0.13926 -0.09411
 C45 C 0.34642 0.10989 -0.10943
 C46 C 0.36099 0.09544 -0.13901
 C47 C 0.38996 0.11011 -0.15247
 C48 C 0.40445 0.13993 -0.13703
 C49 C 0.40957 0.18271 -0.09836
 N50 N 0.43513 0.18616 -0.12123
 C51 C 0.43218 0.16018 -0.14502
 C52 C 0.39871 0.09043 -0.18068
 N53 N 0.37547 0.06426 -0.18520
 C54 C 0.35221 0.06745 -0.15964
 C55 C 0.31852 0.10080 -0.09042
 N56 N 0.31544 0.12417 -0.06422
 C57 C 0.34107 0.14787 -0.06633
 H58 H 0.40525 0.19996 -0.07668
 H59 H 0.44915 0.15617 -0.16637
 H60 H 0.41997 0.09585 -0.19720
 H61 H 0.33088 0.05017 -0.15544
 H62 H 0.30148 0.07905 -0.09544
 H63 H 0.34527 0.16950 -0.04869
 C64 C 0.10903 0.84642 0.39173
 C65 C 0.13871 0.86061 0.40563
 C66 C 0.15422 0.88913 0.39034
 C67 C 0.14046 0.90356 0.36073
 C68 C 0.11119 0.88964 0.34719
 C69 C 0.09563 0.86057 0.36252
 C70 C 0.08842 0.81896 0.40122
 N71 N 0.06302 0.81551 0.37807
 C72 C 0.06752 0.84106 0.35428
 C73 C 0.10314 0.90934 0.31919
 N74 N 0.12709 0.93479 0.31490
 C75 C 0.15017 0.93107 0.34030
 C76 C 0.18214 0.89760 0.40948
 N77 N 0.18412 0.87465 0.43572
 C78 C 0.15773 0.85187 0.43354
 H79 H 0.09262 0.80204 0.42280
 H80 H 0.05114 0.84602 0.33289
 H81 H 0.08175 0.90457 0.30274
 H82 H 0.17185 0.94786 0.34465
 H83 H 0.19996 0.91862 0.40450
 H84 H 0.15258 0.83078 0.45120
 N85 N 0.08291 0.17562 0.10690
 N86 N 0.07123 0.16311 0.13572
 C87 C 0.04390 0.18196 0.14532
 C88 C 0.03789 0.20717 0.12091
 C89 C 0.06301 0.20233 0.09681
 H90 H 0.02922 0.17758 0.16814
 H91 H 0.06705 0.21781 0.07418
 Cu92 Cu 0.09250 0.12293 0.15735
 Cu93 Cu 0.12434 0.15797 0.08592
 Cu94 Cu 0.16410 0.08791 0.12554
 N95 N 0.11421 0.08275 0.17853
 N96 N 0.14304 0.07021 0.16689
 C97 C 0.15307 0.04341 0.18671
 C98 C 0.12890 0.03855 0.21169
 C99 C 0.10454 0.06384 0.20571
 H100 H 0.17568 0.02788 0.18267
 H101 H 0.08168 0.06820 0.22030
 N102 N 0.18131 0.10945 0.08343
 N103 N 0.16653 0.13655 0.06875
 C104 C 0.18475 0.14582 0.04123
 C105 C 0.21199 0.12318 0.03819
 C106 C 0.20897 0.10039 0.06527
 H107 H 0.17848 0.16714 0.02431
 H108 H 0.22603 0.07916 0.07152
 H109 H 0.12036 0.10704 0.10397
 H110 H 0.14568 0.13879 0.12996
 N111 N 0.41647 0.82213 0.60400
 N112 N 0.43141 0.83881 0.62923
 C113 C 0.45881 0.82037 0.63876
 C114 C 0.46143 0.79081 0.61804
 C115 C 0.43420 0.79282 0.59620
 H116 H 0.47586 0.82815 0.65890
 H117 H 0.42745 0.77400 0.57655
 Cu118 Cu 0.41451 0.88355 0.64669
 Cu119 Cu 0.37462 0.83910 0.58404
 Cu120 Cu 0.33746 0.91156 0.62314
 N121 N 0.39093 0.92066 0.67148
 N122 N 0.36026 0.93053 0.66309
 C123 C 0.34966 0.95575 0.68498
 C124 C 0.37528 0.96231 0.70800
 C125 C 0.40114 0.93964 0.69864
 H126 H 0.32551 0.96902 0.68374
 H127 H 0.42537 0.93689 0.71094
 N128 N 0.31855 0.88861 0.58231
 N129 N 0.33228 0.86046 0.56787
 C130 C 0.31342 0.85071 0.54095
 C131 C 0.28684 0.87415 0.53805
 C132 C 0.29092 0.89787 0.56461
 H133 H 0.31902 0.82875 0.52414
 H134 H 0.27479 0.92010 0.57066
 H135 H 0.37898 0.89197 0.59688
 H136 H 0.35927 0.86239 0.62927
 N137 N 0.91561 0.67919 0.39371
 N138 N 0.92678 0.66700 0.36434
 C139 C 0.95338 0.68655 0.35434
 C140 C 0.95947 0.71189 0.37904
 C141 C 0.93514 0.70640 0.40373
 H142 H 0.96772 0.68239 0.33118
 H143 H 0.93151 0.72159 0.42687
 Cu144 Cu 0.90638 0.62582 0.34292
 Cu145 Cu 0.87550 0.66010 0.41576
 Cu146 Cu 0.83769 0.58768 0.37703
 N147 N 0.88556 0.58462 0.32196
 N148 N 0.85819 0.57036 0.33497
 C149 C 0.84878 0.54275 0.31545
 C150 C 0.87173 0.53924 0.28901
 C151 C 0.89478 0.56621 0.29398
 H152 H 0.82733 0.52591 0.32055
 H153 H 0.91647 0.57205 0.27820
 N154 N 0.82075 0.60907 0.41968
 N155 N 0.83468 0.63711 0.43399
 C156 C 0.81650 0.64632 0.46171
 C157 C 0.79016 0.62267 0.46524
 C158 C 0.79370 0.59935 0.43825
 H159 H 0.82206 0.66844 0.47830
 H160 H 0.77721 0.57747 0.43220
 H161 H 0.88125 0.60927 0.39719
 H162 H 0.85358 0.63939 0.37235
 N163 N 0.58307 0.32389 -0.10483
 N164 N 0.56793 0.34041 -0.12975
 C165 C 0.54020 0.32217 -0.13895
 C166 C 0.53760 0.29291 -0.11834
 C167 C 0.56517 0.29489 -0.09691
 H168 H 0.52295 0.32985 -0.15882
 H169 H 0.57205 0.27622 -0.07749
 Cu170 Cu 0.58509 0.38471 -0.14726
 Cu171 Cu 0.62543 0.34050 -0.08547
 Cu172 Cu 0.66271 0.41217 -0.12448
 N173 N 0.60862 0.42146 -0.17195
 N174 N 0.63946 0.43116 -0.16381
 C175 C 0.64997 0.45615 -0.18553
 C176 C 0.62416 0.46274 -0.20822
 C177 C 0.59825 0.44033 -0.19881
 H178 H 0.67424 0.46920 -0.18443
 H179 H 0.57388 0.43764 -0.21090
 N180 N 0.68208 0.38927 -0.08424
 N181 N 0.66826 0.36143 -0.06984
 C182 C 0.68749 0.35162 -0.04338
 C183 C 0.71443 0.37468 -0.04074
 C184 C 0.71015 0.39827 -0.06698
 H185 H 0.68191 0.32986 -0.02668
 H186 H 0.72644 0.42022 -0.07310
 H187 H 0.62134 0.39329 -0.09783
 H188 H 0.64036 0.36318 -0.13071
 C189 C -0.02341 0.27700 0.15164
 C190 C -0.04023 0.28626 0.12140
 C191 C -0.03081 0.26868 0.09099
 C192 C -0.00508 0.24340 0.09079
 C193 C 0.01103 0.23412 0.12107
 C194 C 0.00146 0.25085 0.15151
 H195 H -0.03011 0.28898 0.17579
 H196 H -0.04231 0.27522 0.06697
 H197 H 0.00195 0.23076 0.06699
 H198 H 0.01364 0.24408 0.17519
 C199 C 0.52779 0.72791 0.65080
 C200 C 0.53809 0.71068 0.62078
 C201 C 0.52297 0.71981 0.58987
 C202 C 0.49767 0.74552 0.58904
 C203 C 0.48769 0.76315 0.61900
 C204 C 0.50309 0.75424 0.64987
 H205 H 0.53931 0.72136 0.67486
 H206 H 0.53049 0.70668 0.56647
 H207 H 0.48633 0.75206 0.56489
 H208 H 0.49571 0.76730 0.67335
 C209 C 1.02899 0.77305 0.40867
 C210 C 1.03782 0.79067 0.37841
 C211 C 1.02006 0.78185 0.34845
 C212 C 0.99498 0.75592 0.34864
 C213 C 0.98615 0.73900 0.37891
 C214 C 1.00308 0.74800 0.40897
 H215 H 1.04122 0.77929 0.43250
 H216 H 1.02622 0.79388 0.32440
 H217 H 0.98217 0.74937 0.32513
 H218 H 0.99663 0.73520 0.43264
 C219 C 0.47629 0.22246 -0.08974
 C220 C 0.46081 0.21290 -0.12051
 C221 C 0.47068 0.22980 -0.15057
 C222 C 0.49537 0.25616 -0.14980
 C223 C 0.51117 0.26542 -0.11909
 C224 C 0.50157 0.24819 -0.08910
 H225 H 0.46912 0.20958 -0.06634
 H226 H 0.45889 0.22292 -0.17451
 H227 H 0.50246 0.26890 -0.17330
 H228 H 0.51323 0.25501 -0.06506
 C229 C 0.15790 -0.02278 0.28101
 C230 C 0.12764 -0.04026 0.28986
 C231 C 0.09789 -0.03121 0.27225
 C232 C 0.09830 -0.00523 0.24729
 C233 C 0.12856 0.01152 0.23840
 C234 C 0.15841 0.00232 0.25517
 H235 H 0.18156 -0.02920 0.29311
 H236 H 0.07385 -0.04311 0.27845
 H237 H 0.07496 0.00146 0.23458
 H238 H 0.18207 0.01497 0.24865
 C239 C 0.65387 0.52089 -0.28004
 C240 C 0.62404 0.53909 -0.28880
 C241 C 0.59420 0.53130 -0.27053
 C242 C 0.59417 0.50608 -0.24483
 C243 C 0.62407 0.48868 -0.23599
 C244 C 0.65393 0.49643 -0.25366
 H245 H 0.67764 0.52624 -0.29259
 H246 H 0.57043 0.54375 -0.27659
 H247 H 0.57079 0.50058 -0.23149
 H248 H 0.67733 0.48326 -0.24732
 C249 C 0.34570 1.02085 0.78061
 C250 C 0.37545 1.03943 0.78919
 C251 C 0.40517 1.03176 0.77053
 C252 C 0.40518 1.00629 0.74464
 C253 C 0.37535 0.98853 0.73596
 C254 C 0.34559 0.99615 0.75400
 H255 H 0.32203 1.02610 0.79349
 H256 H 0.42888 1.04451 0.77645
 H257 H 0.42847 1.00087 0.73101
 H258 H 0.32226 0.98270 0.74776
 C259 C 0.90308 0.47504 0.22173
 C260 C 0.87276 0.46014 0.21008
 C261 C 0.84205 0.47145 0.22446
 C262 C 0.84171 0.49694 0.25038
 C263 C 0.87204 0.51211 0.26181
 C264 C 0.90271 0.50106 0.24711
 H265 H 0.92702 0.46687 0.21080
 H266 H 0.81839 0.46014 0.21597
 H267 H 0.81770 0.50513 0.26115
 H268 H 0.92647 0.51214 0.25560
 C269 C 0.27418 0.15552 -0.02789
 C270 C 0.28947 0.12390 -0.03861
 C271 C 0.27915 0.09202 -0.02396
 C272 C 0.25422 0.09182 0.00133
 C273 C 0.23863 0.12341 0.01178
 C274 C 0.24868 0.15524 -0.00320
 H275 H 0.28168 0.18035 -0.03903
 H276 H 0.29079 0.06739 -0.03176
 H277 H 0.24679 0.06691 0.01234
 H278 H 0.23720 0.17998 0.00456
 C279 C 0.72673 0.65485 0.53080
 C280 C 0.71198 0.62309 0.54136
 C281 C 0.72326 0.59117 0.52695
 C282 C 0.74852 0.59105 0.50200
 C283 C 0.76348 0.62279 0.49162
 C284 C 0.75253 0.65468 0.50642
 H285 H 0.71851 0.67973 0.54176
 H286 H 0.71207 0.56642 0.53462
 H287 H 0.75663 0.56609 0.49113
 H288 H 0.76349 0.67954 0.49871
 C289 C 0.77755 0.34281 0.02417
 C290 C 0.79223 0.37462 0.03509
 C291 C 0.78144 0.40642 0.02071
 C292 C 0.75652 0.40640 -0.00437
 C293 C 0.74142 0.37463 -0.01491
 C294 C 0.75208 0.34284 -0.00034
 H295 H 0.78537 0.31803 0.03512
 H296 H 0.79258 0.43121 0.02868
 H297 H 0.74861 0.43129 -0.01503
 H298 H 0.74098 0.31797 -0.00817
 C299 C 0.22383 0.84257 0.47235
 C300 C 0.20979 0.87451 0.46143
 C301 C 0.22115 0.90632 0.47589
 C302 C 0.24589 0.90617 0.50115
 C303 C 0.26026 0.87426 0.51179
 C304 C 0.24915 0.84247 0.49703
 H305 H 0.21553 0.81778 0.46135
 H306 H 0.21049 0.93120 0.46793
 H307 H 0.25417 0.93106 0.51196
 H308 H 0.25970 0.81750 0.50491
   
