data_POSCAR
  _audit_creation_date              2014-09-24
  _audit_creation_method            'ToBaCCo'
  _symmetry_space_group_name_H-M    'P1'
  _symmetry_Int_Tables_number       1
  _symmetry_cell_setting            triclinic
  loop_
  _symmetry_equiv_pos_as_xyz
 x,y,z
_cell_length_a 26.4144
_cell_length_b 11.2625
_cell_length_c 10.2347
_cell_angle_alpha 89.667000
_cell_angle_beta 93.471900
_cell_angle_gamma 88.349300
loop_
  _atom_site_label
  _atom_site_type_symbol
  _atom_site_fract_x
  _atom_site_fract_y
  _atom_site_fract_z
C1 C 0.77214 0.43072 0.61899
 C2 C 0.76741 0.43148 0.48091
 C3 C 0.81100 0.44211 0.41052
 C4 C 0.85855 0.45760 0.47523
 C5 C 0.86225 0.46864 0.61209
 C6 C 0.81915 0.45431 0.68272
 H7 H 0.82306 0.45257 0.78890
 H8 H 0.80782 0.43723 0.30458
 C9 C 0.15837 0.55241 0.56044
 C10 C 0.14784 0.55611 0.42392
 C11 C 0.18708 0.53128 0.34000
 C12 C 0.23570 0.49825 0.39368
 C13 C 0.24345 0.47915 0.52921
 C14 C 0.20533 0.50892 0.61236
 H15 H 0.21325 0.50611 0.71752
 H16 H 0.18089 0.54673 0.23566
 C17 C 0.33691 0.06766 -0.55379
 C18 C 0.35642 0.04883 -0.42398
 C19 C 0.32387 0.01536 -0.32795
 C20 C 0.27211 0.00298 -0.35882
 C21 C 0.25315 0.01469 -0.49004
 C22 C 0.28549 0.04817 -0.58670
 H23 H 0.27045 0.06247 -0.68662
 H24 H 0.33796 0.00886 -0.22638
 C25 C -0.27146 0.97559 -0.61166
 C26 C -0.26977 0.97140 -0.47388
 C27 C -0.31461 0.95249 -0.41122
 C28 C -0.36115 0.94449 -0.48356
 C29 C -0.36302 0.95600 -0.62061
 C30 C -0.31806 0.96880 -0.68416
 H31 H -0.31949 0.97559 -0.79002
 H32 H -0.31328 0.94592 -0.30533
 N33 N 0.10475 1.10805 -0.06570
 N34 N 0.15425 1.09110 -0.04405
 N35 N 0.00363 1.21669 -0.20708
 N36 N -0.02538 1.28847 -0.28347
 N37 N 0.02157 1.27211 -0.10211
 N38 N 0.00521 1.38426 -0.10512
 N39 N 0.08929 1.06199 -0.17846
 N40 N 0.12811 1.01390 -0.23721
 C41 C 0.16833 1.03510 -0.15336
 C42 C -0.02319 1.39278 -0.21957
 N43 N -0.08503 0.93891 -0.20321
 N44 N -0.13265 0.93075 -0.24672
 N45 N 0.02630 0.86640 -0.23969
 N46 N 0.05969 0.81137 -0.30977
 N47 N 0.00181 0.79027 -0.17126
 N48 N 0.01719 0.68009 -0.19550
 N49 N -0.06118 1.01649 -0.27161
 N50 N -0.09248 1.06216 -0.36656
 Mn51 Mn 0.01434 1.04172 -0.22564
 C52 C -0.13690 1.00787 -0.34790
 C53 C 0.05344 0.69594 -0.28138
 N54 N 0.00176 1.24818 0.16927
 N55 N -0.00582 1.36090 0.19888
 N56 N 0.05290 1.01968 0.27735
 N57 N 0.07711 0.96362 0.37602
 N58 N 0.08387 1.08363 0.21218
 N59 N 0.13074 1.07314 0.26749
 N60 N -0.02906 1.18031 0.23035
 N61 N -0.05836 1.24539 0.30431
 Mn62 Mn 0.05396 1.17869 0.05360
 C63 C -0.04347 1.35767 0.28205
 C64 C 0.12500 0.99768 0.36994
 N65 N -0.01662 0.76532 0.10346
 N66 N 0.01208 0.66679 0.10437
 N67 N -0.09220 0.98036 0.16507
 N68 N -0.13193 1.00829 0.23092
 N69 N -0.10486 0.91461 0.06367
 N70 N -0.15431 0.89765 0.05605
 N71 N -0.00892 0.82349 0.21359
 N72 N 0.02369 0.76380 0.29297
 Mn73 Mn -0.05117 0.85043 -0.05180
 Mn74 Mn -0.02005 1.00144 0.22160
 Cl75 Cl -0.00060 1.01839 -0.00067
 C76 C 0.03598 0.66622 0.22502
 C77 C -0.17034 0.95808 0.16050
 N78 N 0.49873 0.72598 -0.17925
 N79 N 0.50468 0.83760 -0.21231
 N80 N 0.44614 0.50532 -0.28303
 N81 N 0.41874 0.43630 -0.36097
 N82 N 0.41645 0.57389 -0.21491
 N83 N 0.36809 0.55269 -0.24586
 N84 N 0.52957 0.65485 -0.24063
 N85 N 0.55740 0.71727 -0.31836
 C86 C 0.54152 0.83107 -0.29732
 C87 C 0.37057 0.46834 -0.33946
 N88 N 0.51686 0.24121 -0.10775
 N89 N 0.49184 0.14110 -0.11240
 N90 N 0.59381 0.44253 -0.17374
 N91 N 0.63236 0.44178 -0.25064
 N92 N 0.60468 0.37455 -0.06996
 N93 N 0.65063 0.32660 -0.07417
 N94 N 0.50970 0.30016 -0.21878
 N95 N 0.48091 0.23996 -0.30242
 Mn96 Mn 0.52050 0.47666 -0.22955
 C97 C 0.47050 0.14086 -0.23592
 C98 C 0.66783 0.37193 -0.18469
 N99 N 0.39605 0.60495 0.05993
 N100 N 0.34568 0.61155 0.05170
 N101 N 0.49883 0.69672 0.19615
 N102 N 0.52819 0.76523 0.27034
 N103 N 0.48023 0.75423 0.09095
 N104 N 0.49619 0.86426 0.09128
 N105 N 0.41285 0.55421 0.17037
 N106 N 0.37499 0.52252 0.23913
 Mn107 Mn 0.44706 0.66533 -0.06143
 C108 C 0.33350 0.55770 0.16414
 C109 C 0.52539 0.86955 0.20407
 N110 N 0.58494 0.40328 0.20040
 N111 N 0.63128 0.38308 0.25236
 N112 N 0.47312 0.35070 0.23469
 N113 N 0.43741 0.30395 0.30089
 N114 N 0.49654 0.26949 0.16717
 N115 N 0.47799 0.16342 0.18886
 N116 N 0.56101 0.48548 0.26558
 N117 N 0.59048 0.52275 0.36545
 Mn118 Mn 0.55071 0.32057 0.04760
 Mn119 Mn 0.48674 0.52319 0.21766
 Cl120 Cl 0.50153 0.49659 -0.00654
 C121 C 0.63403 0.45779 0.35512
 C122 C 0.44083 0.18783 0.27154
 N123 N 0.36582 0.13237 0.35751
 N124 N 0.41101 0.10210 0.33222
 N125 N -0.22512 0.98172 0.32487
 N126 N -0.21972 0.95082 0.20725
 N127 N 0.59367 0.96181 0.31009
 N128 N 0.55396 0.97068 0.24081
 N129 N 0.20681 0.98445 0.47748
 N130 N 0.16396 0.94657 0.45690
 N131 N 0.73865 0.38019 -0.31172
 N132 N 0.71208 0.32400 -0.23999
 N133 N 0.12802 0.62374 -0.35847
 N134 N 0.08200 0.60339 -0.33928
 N135 N 0.28765 0.43932 -0.42226
 N136 N 0.32928 0.39697 -0.38317
 N137 N -0.09408 1.48303 -0.32347
 N138 N -0.05398 1.49458 -0.25762
 N139 N 0.59718 0.93603 -0.42179
 N140 N 0.55805 0.93412 -0.36259
 N141 N 0.24215 0.99060 -0.26201
 N142 N 0.21769 0.98171 -0.16362
 N143 N 0.40537 0.09221 -0.38569
 N144 N 0.42741 0.07325 -0.27327
 N145 N -0.22277 0.97378 -0.39523
 N146 N -0.18240 1.02124 -0.43061
 N147 N 0.27993 0.49978 0.31965
 N148 N 0.28356 0.55192 0.21008
 N149 N -0.10107 1.45943 0.40726
 N150 N -0.06355 1.46194 0.34169
 N151 N 0.71997 0.41869 0.40790
 N152 N 0.67892 0.47036 0.43857
 N153 N 0.10079 0.61019 0.37546
 N154 N 0.08010 0.59483 0.26162
   
