data_POSCAR
  _audit_creation_date              2014-09-24
  _audit_creation_method            'ToBaCCo'
  _symmetry_space_group_name_H-M    'P1'
  _symmetry_Int_Tables_number       1
  _symmetry_cell_setting            triclinic
  loop_
  _symmetry_equiv_pos_as_xyz
 x,y,z
_cell_length_a 49.0028
_cell_length_b 51.6504
_cell_length_c 22.3391
_cell_angle_alpha 89.926200
_cell_angle_beta 90.077100
_cell_angle_gamma 128.189700
loop_
  _atom_site_label
  _atom_site_type_symbol
  _atom_site_fract_x
  _atom_site_fract_y
  _atom_site_fract_z
C1 C 0.52289 1.00670 0.47029
 C2 C 0.52871 1.00826 0.53033
 C3 C 0.51815 0.97906 0.56589
 C4 C 0.54549 1.03931 0.56461
 C5 C 0.53599 1.03660 0.43465
 C6 C 0.50352 0.97526 0.43625
 C7 C 0.48364 0.95047 0.56831
 C8 C 0.47446 0.92348 0.60263
 C9 C 0.49952 0.92434 0.63689
 C10 C 0.53425 0.95387 0.63402
 C11 C 0.54321 0.98057 0.59931
 C12 C 0.52721 1.04000 0.61192
 C13 C 0.54197 1.06873 0.64487
 C14 C 0.57545 1.09749 0.63133
 C15 C 0.59410 1.09662 0.58457
 C16 C 0.57927 1.06769 0.55160
 C17 C 0.55911 1.04540 0.38756
 C18 C 0.57231 1.07354 0.35362
 C19 C 0.56255 1.09350 0.36588
 C20 C 0.53876 1.08429 0.41236
 C21 C 0.52547 1.05597 0.44638
 C22 C 0.51351 0.95497 0.43695
 C23 C 0.49462 0.92551 0.40445
 C24 C 0.46587 0.91616 0.36946
 C25 C 0.45650 0.93697 0.36804
 C26 C 0.47506 0.96610 0.40111
 H27 H 0.46375 0.94892 0.54318
 H28 H 0.44773 0.90171 0.59937
 H29 H 0.55487 0.95782 0.66080
 H30 H 0.56998 1.00274 0.59887
 H31 H 0.50128 1.01824 0.62306
 H32 H 0.52725 1.06833 0.68148
 H33 H 0.59403 1.06746 0.51588
 H34 H 0.56720 1.03054 0.37744
 H35 H 0.58996 1.07954 0.31730
 H36 H 0.53081 1.09920 0.42291
 H37 H 0.50718 1.04925 0.48198
 H38 H 0.53586 0.96190 0.46267
 H39 H 0.50245 0.91002 0.40702
 H40 H 0.43513 0.93107 0.34051
 H41 H 0.46717 0.98159 0.39933
 H42 H 0.61992 1.11838 0.57307
 C43 C -0.00516 0.50028 0.46926
 C44 C -0.00560 0.50043 0.53028
 C45 C 0.02679 0.51972 0.56651
 C46 C -0.03863 0.48101 0.56465
 C47 C -0.03778 0.47997 0.43389
 C48 C 0.02773 0.52025 0.43444
 C49 C 0.05248 0.51575 0.55940
 C50 C 0.08237 0.53368 0.59496
 C51 C 0.08684 0.55547 0.63906
 C52 C 0.06083 0.55905 0.64636
 C53 C 0.03117 0.54137 0.61049
 C54 C -0.04403 0.45883 0.60852
 C55 C -0.07440 0.44090 0.64248
 C56 C -0.10011 0.44476 0.63334
 C57 C -0.09458 0.46715 0.58949
 C58 C -0.06400 0.48528 0.55574
 C59 C -0.04520 0.49529 0.39274
 C60 C -0.07595 0.47681 0.35969
 C61 C -0.10020 0.44221 0.36634
 C62 C -0.09197 0.42701 0.40729
 C63 C -0.06119 0.44567 0.44051
 C64 C 0.05272 0.55430 0.44374
 C65 C 0.08369 0.57243 0.41109
 C66 C 0.09000 0.55699 0.36763
 C67 C 0.06450 0.52303 0.35755
 C68 C 0.03376 0.50491 0.39060
 H69 H 0.04931 0.49869 0.52652
 H70 H 0.10200 0.53053 0.58783
 H71 H 0.06304 0.57504 0.68066
 H72 H 0.01148 0.54451 0.61715
 H73 H -0.02461 0.45545 0.61654
 H74 H -0.07745 0.42444 0.67672
 H75 H -0.06004 0.50276 0.52291
 H76 H -0.02714 0.52173 0.38640
 H77 H -0.07968 0.48991 0.32721
 H78 H -0.10974 0.40082 0.41592
 H79 H -0.05572 0.43337 0.47181
 H80 H 0.04830 0.56682 0.47644
 H81 H 0.10281 0.59848 0.42027
 H82 H 0.06806 0.51047 0.32347
 H83 H 0.01468 0.47874 0.38220
 H84 H -0.11394 0.47056 0.58110
 C85 C 0.49252 0.49587 0.46918
 C86 C 0.49108 0.49574 0.52991
 C87 C 0.47278 0.50565 0.56360
 C88 C 0.50880 0.48613 0.56622
 C89 C 0.51014 0.48448 0.43859
 C90 C 0.47541 0.50551 0.43051
 C91 C 0.48081 0.53659 0.55534
 C92 C 0.46373 0.54565 0.58862
 C93 C 0.43832 0.52410 0.63183
 C94 C 0.43070 0.49304 0.63950
 C95 C 0.44768 0.48409 0.60603
 C96 C 0.54185 0.51043 0.58923
 C97 C 0.55813 0.50188 0.62627
 C98 C 0.54147 0.46864 0.64219
 C99 C 0.50832 0.44434 0.61702
 C100 C 0.49233 0.45305 0.57947
 C101 C 0.49143 0.45105 0.42495
 C102 C 0.50759 0.43992 0.39574
 C103 C 0.54268 0.46217 0.37842
 C104 C 0.56144 0.49572 0.39310
 C105 C 0.54537 0.50669 0.42347
 C106 C 0.44014 0.49102 0.43754
 C107 C 0.42458 0.50066 0.40117
 C108 C 0.44376 0.52445 0.35601
 C109 C 0.47883 0.53828 0.34823
 C110 C 0.49446 0.52897 0.38511
 H111 H 0.50034 0.55376 0.52306
 H112 H 0.47004 0.56928 0.57868
 H113 H 0.41280 0.47582 0.67334
 H114 H 0.44122 0.46017 0.61363
 H115 H 0.55506 0.53611 0.57849
 H116 H 0.58417 0.52164 0.64097
 H117 H 0.46663 0.43401 0.56201
 H118 H 0.46430 0.43357 0.43721
 H119 H 0.49251 0.41382 0.38684
 H120 H 0.58832 0.51367 0.37999
 H121 H 0.56024 0.53257 0.43441
 H122 H 0.42464 0.47229 0.47130
 H123 H 0.39760 0.48964 0.40882
 H124 H 0.49421 0.55604 0.31306
 H125 H 0.52159 0.54036 0.37828
 H126 H 0.49342 0.41858 0.62843
 O127 O 0.40059 0.67549 -0.08071
 O128 O 0.40218 0.72597 -0.05828
 C129 C 0.37847 0.72610 -0.08130
 O130 O 0.34720 0.70684 -0.06416
 O131 O 0.29075 0.64835 -0.03963
 C132 C 0.28493 0.62466 -0.07050
 O133 O 0.30209 0.61397 -0.06412
 O134 O 0.36053 0.62276 -0.05665
 C135 C 0.38516 0.64519 -0.08982
 O136 O 0.40929 0.66948 0.03684
 O137 O 0.40820 0.71833 0.05924
 C138 C 0.39267 0.72964 0.07541
 O139 O 0.36371 0.71974 0.05316
 O140 O 0.30825 0.66006 0.07758
 C141 C 0.29223 0.62972 0.08757
 O142 O 0.29663 0.61210 0.05591
 O143 O 0.35688 0.62431 0.06337
 C144 C 0.38963 0.64363 0.06869
 Cr145 Cr 0.40313 0.69614 -0.01038
 Cr146 Cr 0.32848 0.68311 0.00651
 Cr147 Cr 0.32997 0.62009 -0.00037
 O148 O 0.35389 0.66650 -0.00129
 O149 O 0.58607 0.31991 -0.07575
 O150 O 0.58596 0.27014 -0.05486
 C151 C 0.60887 0.27051 -0.08233
 O152 O 0.64078 0.29029 -0.06899
 O153 O 0.69724 0.34937 -0.04686
 C154 C 0.70204 0.37322 -0.07543
 O155 O 0.68498 0.38371 -0.06494
 O156 O 0.62564 0.37278 -0.05138
 C157 C 0.60102 0.35023 -0.08445
 O158 O 0.57983 0.32601 0.04207
 O159 O 0.58335 0.27815 0.06337
 C160 C 0.60056 0.26807 0.07655
 O161 O 0.62841 0.27801 0.04960
 O162 O 0.68403 0.33783 0.07148
 C163 C 0.69890 0.36781 0.08333
 O164 O 0.69274 0.38491 0.05445
 O165 O 0.63205 0.37122 0.06832
 C166 C 0.59930 0.35179 0.07384
 Cr167 Cr 0.58572 0.29973 -0.00601
 Cr168 Cr 0.66157 0.31447 0.00126
 Cr169 Cr 0.65796 0.37635 0.00156
 O170 O 0.63515 0.33019 -0.00094
 C171 C 0.45583 0.87325 -0.30992
 C172 C 0.44712 0.84753 -0.27171
 C173 C 0.47322 0.84604 -0.25042
 C174 C 0.50746 0.86979 -0.26899
 C175 C 0.51606 0.89530 -0.30711
 C176 C 0.49067 0.89824 -0.32796
 C177 C 0.46475 0.82106 -0.21038
 C178 C 0.43037 0.79760 -0.19104
 C179 C 0.40412 0.79876 -0.21334
 C180 C 0.41262 0.82363 -0.25349
 C181 C 0.36979 0.77531 -0.19441
 C182 C 0.36156 0.75138 -0.15265
 C183 C 0.38748 0.75034 -0.12878
 C184 C 0.42189 0.77336 -0.14898
 H185 H 0.43517 0.87432 -0.32177
 H186 H 0.52776 0.86867 -0.25407
 H187 H 0.54278 0.91173 -0.32153
 H188 H 0.48495 0.82018 -0.19361
 H189 H 0.39244 0.82462 -0.26993
 H190 H 0.34933 0.77575 -0.21128
 H191 H 0.33480 0.73395 -0.13833
 H192 H 0.44214 0.77284 -0.13122
 C193 C 0.13172 0.55837 -0.29980
 C194 C 0.16001 0.57493 -0.26021
 C195 C 0.17472 0.60729 -0.24148
 C196 C 0.16133 0.62276 -0.26374
 C197 C 0.13327 0.60617 -0.30340
 C198 C 0.11790 0.57370 -0.32137
 C199 C 0.20237 0.62354 -0.20052
 C200 C 0.21561 0.60788 -0.17828
 C201 C 0.20132 0.57577 -0.19804
 C202 C 0.17356 0.55947 -0.23864
 C203 C 0.21496 0.56038 -0.17666
 C204 C 0.24234 0.57650 -0.13574
 C205 C 0.25640 0.60820 -0.11487
 C206 C 0.24289 0.62379 -0.13651
 H207 H 0.11991 0.53322 -0.31255
 H208 H 0.17244 0.64765 -0.25028
 H209 H 0.12361 0.61882 -0.32010
 H210 H 0.21344 0.64826 -0.18577
 H211 H 0.16243 0.53472 -0.25328
 H212 H 0.20440 0.53583 -0.19148
 H213 H 0.25220 0.56390 -0.11974
 H214 H 0.25374 0.64835 -0.12119
 C215 C 0.43751 0.56698 -0.32082
 C216 C 0.42222 0.57602 -0.28182
 C217 C 0.39037 0.55144 -0.25371
 C218 C 0.37376 0.51831 -0.26658
 C219 C 0.38904 0.50943 -0.30533
 C220 C 0.42164 0.53345 -0.33231
 C221 C 0.37590 0.56031 -0.21239
 C222 C 0.39309 0.59355 -0.19843
 C223 C 0.42453 0.61823 -0.22774
 C224 C 0.43885 0.60933 -0.26930
 C225 C 0.44153 0.65142 -0.21411
 C226 C 0.42811 0.66011 -0.17055
 C227 C 0.39744 0.63578 -0.13960
 C228 C 0.37974 0.60248 -0.15462
 H229 H 0.46282 0.58637 -0.33893
 H230 H 0.34897 0.49913 -0.24632
 H231 H 0.37448 0.48348 -0.31482
 H232 H 0.35166 0.54134 -0.19024
 H233 H 0.46325 0.62830 -0.29105
 H234 H 0.46555 0.67067 -0.23637
 H235 H 0.44230 0.68596 -0.16012
 H236 H 0.35597 0.58345 -0.13147
 C237 C 0.56966 0.13654 -0.31551
 C238 C 0.58270 0.16345 -0.27751
 C239 C 0.61751 0.18261 -0.25765
 C240 C 0.63884 0.17480 -0.27723
 C241 C 0.62549 0.14765 -0.31458
 C242 C 0.59063 0.12794 -0.33326
 C243 C 0.63013 0.20872 -0.21758
 C244 C 0.60815 0.21549 -0.19638
 C245 C 0.57347 0.19651 -0.21702
 C246 C 0.56109 0.17087 -0.25786
 C247 C 0.55142 0.20298 -0.19541
 C248 C 0.56322 0.22741 -0.15248
 C249 C 0.59743 0.24610 -0.13064
 C250 C 0.61999 0.24036 -0.15371
 H251 H 0.54293 0.12193 -0.33056
 H252 H 0.66561 0.18922 -0.26257
 H253 H 0.64214 0.14146 -0.32729
 H254 H 0.65675 0.22323 -0.20186
 H255 H 0.53438 0.15615 -0.27315
 H256 H 0.52481 0.18873 -0.21092
 H257 H 0.54535 0.23144 -0.13595
 H258 H 0.64642 0.25453 -0.13725
 C259 C 0.85391 0.44114 -0.30785
 C260 C 0.82512 0.42410 -0.26932
 C261 C 0.81013 0.39146 -0.25195
 C262 C 0.82354 0.37613 -0.27465
 C263 C 0.85212 0.39321 -0.31302
 C264 C 0.86796 0.42602 -0.32932
 C265 C 0.78232 0.37482 -0.21152
 C266 C 0.76928 0.39039 -0.18812
 C267 C 0.78364 0.42272 -0.20661
 C268 C 0.81150 0.43938 -0.24706
 C269 C 0.77014 0.43796 -0.18371
 C270 C 0.74312 0.42161 -0.14198
 C271 C 0.72932 0.38983 -0.12203
 C272 C 0.74236 0.37426 -0.14588
 H273 H 0.86603 0.46650 -0.31952
 H274 H 0.81216 0.35102 -0.26225
 H275 H 0.86192 0.38073 -0.32984
 H276 H 0.77113 0.34993 -0.19766
 H277 H 0.82281 0.46434 -0.26064
 H278 H 0.78070 0.46266 -0.19759
 H279 H 0.73353 0.43415 -0.12436
 H280 H 0.73168 0.34960 -0.13138
 C281 C 0.54730 0.42795 -0.31491
 C282 C 0.56121 0.41914 -0.27195
 C283 C 0.58583 0.44278 -0.23027
 C284 C 0.59625 0.47478 -0.23235
 C285 C 0.58202 0.48331 -0.27454
 C286 C 0.55700 0.46010 -0.31658
 C287 C 0.59930 0.43398 -0.18656
 C288 C 0.58810 0.40162 -0.18345
 C289 C 0.56356 0.37790 -0.22525
 C290 C 0.55050 0.38687 -0.26960
 C291 C 0.55214 0.34547 -0.22138
 C292 C 0.56450 0.33650 -0.17597
 C293 C 0.58875 0.35986 -0.13388
 C294 C 0.60068 0.39253 -0.13845
 H295 H 0.52952 0.40964 -0.34764
 H296 H 0.61493 0.49315 -0.20036
 H297 H 0.58972 0.50789 -0.27147
 H298 H 0.61811 0.45218 -0.15442
 H299 H 0.53156 0.36862 -0.30153
 H300 H 0.53336 0.32695 -0.25305
 H301 H 0.55496 0.31120 -0.17370
 H302 H 0.61927 0.41083 -0.10628
 C303 C 0.85355 0.43787 0.31061
 C304 C 0.82377 0.42006 0.27443
 C305 C 0.80809 0.38703 0.25949
 C306 C 0.82203 0.37218 0.28217
 C307 C 0.85174 0.39005 0.31813
 C308 C 0.86854 0.42346 0.33230
 C309 C 0.77907 0.36957 0.22142
 C310 C 0.76576 0.38491 0.19766
 C311 C 0.78106 0.41778 0.21368
 C312 C 0.80977 0.43504 0.25228
 C313 C 0.76789 0.43313 0.18972
 C314 C 0.74055 0.41651 0.14869
 C315 C 0.72564 0.38409 0.13111
 C316 C 0.73799 0.36821 0.15688
 H317 H 0.86432 0.46281 0.32281
 H318 H 0.81036 0.34686 0.27111
 H319 H 0.86231 0.37779 0.33190
 H320 H 0.76730 0.34432 0.20939
 H321 H 0.82170 0.46038 0.26396
 H322 H 0.77922 0.45826 0.20173
 H323 H 0.73149 0.42931 0.12992
 H324 H 0.72681 0.34324 0.14378
 C325 C 0.55598 0.13162 0.30967
 C326 C 0.56943 0.15871 0.27154
 C327 C 0.60460 0.17814 0.25353
 C328 C 0.62591 0.17074 0.27508
 C329 C 0.61234 0.14375 0.31272
 C330 C 0.57718 0.12359 0.32962
 C331 C 0.61779 0.20427 0.21340
 C332 C 0.59624 0.21116 0.19058
 C333 C 0.56131 0.19232 0.20955
 C334 C 0.54812 0.16624 0.25004
 C335 C 0.54003 0.19959 0.18686
 C336 C 0.55298 0.22474 0.14467
 C337 C 0.58740 0.24296 0.12420
 C338 C 0.60900 0.23626 0.14816
 H339 H 0.52879 0.11615 0.32206
 H340 H 0.65299 0.18556 0.26214
 H341 H 0.62938 0.13851 0.32844
 H342 H 0.64466 0.21887 0.19908
 H343 H 0.52118 0.15150 0.26399
 H344 H 0.51323 0.18553 0.20108
 H345 H 0.53578 0.22940 0.12706
 H346 H 0.63571 0.25033 0.13329
 C347 C 0.53970 0.42492 0.30167
 C348 C 0.55512 0.41429 0.26765
 C349 C 0.59087 0.42984 0.27451
 C350 C 0.61031 0.45517 0.31667
 C351 C 0.59461 0.46529 0.35111
 C352 C 0.55922 0.45055 0.34364
 C353 C 0.60658 0.42001 0.23879
 C354 C 0.58686 0.39463 0.19662
 C355 C 0.55088 0.37850 0.19120
 C356 C 0.53530 0.38851 0.22648
 C357 C 0.53105 0.35280 0.14999
 C358 C 0.54676 0.34361 0.11332
 C359 C 0.58271 0.36007 0.11675
 C360 C 0.60258 0.38539 0.15918
 H361 H 0.51259 0.41361 0.29430
 H362 H 0.63768 0.46718 0.32300
 H363 H 0.61025 0.48459 0.38383
 H364 H 0.63412 0.43225 0.24345
 H365 H 0.50779 0.37638 0.22162
 H366 H 0.50341 0.34007 0.14553
 H367 H 0.53079 0.32407 0.08110
 H368 H 0.63027 0.39816 0.16259
 C369 C 0.13864 0.56217 0.31531
 C370 C 0.16811 0.57942 0.27837
 C371 C 0.18229 0.61149 0.25858
 C372 C 0.16692 0.62582 0.27641
 C373 C 0.13728 0.60828 0.31239
 C374 C 0.12260 0.57620 0.33186
 C375 C 0.21111 0.62845 0.22026
 C376 C 0.22545 0.61345 0.20029
 C377 C 0.21141 0.58144 0.22022
 C378 C 0.18311 0.56478 0.25977
 C379 C 0.22538 0.56630 0.19898
 C380 C 0.25225 0.58228 0.15691
 C381 C 0.26605 0.61392 0.13611
 C382 C 0.25291 0.62960 0.15909
 H383 H 0.12804 0.53769 0.33078
 H384 H 0.17740 0.65034 0.26150
 H385 H 0.12532 0.61959 0.32364
 H386 H 0.22180 0.65297 0.20477
 H387 H 0.17218 0.54013 0.27476
 H388 H 0.21496 0.54178 0.21381
 H389 H 0.26195 0.56969 0.14008
 H390 H 0.26308 0.65388 0.14311
 C391 C 0.46368 0.87512 0.30467
 C392 C 0.44558 0.84713 0.26782
 C393 C 0.40951 0.82918 0.25860
 C394 C 0.39201 0.83900 0.28792
 C395 C 0.41015 0.86672 0.32498
 C396 C 0.44626 0.88541 0.33312
 C397 C 0.39166 0.80197 0.21978
 C398 C 0.40943 0.79240 0.19030
 C399 C 0.44533 0.80988 0.20100
 C400 C 0.46316 0.83714 0.23944
 C401 C 0.46299 0.80003 0.17256
 C402 C 0.44550 0.77352 0.13297
 C403 C 0.41002 0.75640 0.12050
 C404 C 0.39203 0.76586 0.14982
 H405 H 0.49153 0.88938 0.30971
 H406 H 0.36430 0.82536 0.28194
 H407 H 0.39583 0.87353 0.34729
 H408 H 0.36408 0.78847 0.21211
 H409 H 0.49079 0.85074 0.24688
 H410 H 0.49044 0.81305 0.18049
 H411 H 0.46009 0.76688 0.11104
 H412 H 0.36463 0.75274 0.14095
 C413 C 0.44625 0.56725 0.29624
 C414 C 0.43119 0.57648 0.25702
 C415 C 0.39634 0.55279 0.23862
 C416 C 0.37725 0.52033 0.25947
 C417 C 0.39260 0.51123 0.29769
 C418 C 0.42724 0.53449 0.31649
 C419 C 0.38123 0.56181 0.19919
 C420 C 0.40069 0.59411 0.17708
 C421 C 0.43563 0.61778 0.19503
 C422 C 0.45057 0.60890 0.23535
 C423 C 0.45511 0.64985 0.17178
 C424 C 0.44023 0.65834 0.13074
 C425 C 0.40547 0.63501 0.11279
 C426 C 0.38582 0.60294 0.13660
 H427 H 0.47277 0.58565 0.31102
 H428 H 0.35057 0.50183 0.24553
 H429 H 0.37746 0.48573 0.31154
 H430 H 0.35447 0.54361 0.18514
 H431 H 0.47737 0.62706 0.24918
 H432 H 0.48195 0.66831 0.18497
 H433 H 0.45590 0.68321 0.11323
 H434 H 0.35906 0.58460 0.12283
   
