data_POSCAR
  _audit_creation_date              2014-09-24
  _audit_creation_method            'ToBaCCo'
  _symmetry_space_group_name_H-M    'P1'
  _symmetry_Int_Tables_number       1
  _symmetry_cell_setting            triclinic
  loop_
  _symmetry_equiv_pos_as_xyz
 x,y,z
_cell_length_a 27.6946
_cell_length_b 28.6199
_cell_length_c 35.1626
_cell_angle_alpha 89.935600
_cell_angle_beta 89.965600
_cell_angle_gamma 90.042800
loop_
  _atom_site_label
  _atom_site_type_symbol
  _atom_site_fract_x
  _atom_site_fract_y
  _atom_site_fract_z
Zr1 Zr 0.24735 0.24799 0.31628
 O2 O 0.28675 0.28194 0.35985
 O3 O 0.19885 0.20760 0.34813
 O4 O 0.20378 0.29526 0.34701
 O5 O 0.32642 0.15589 0.30191
 O6 O 0.16450 0.33720 0.30118
 O7 O 0.29098 0.20105 0.34758
 O8 O 0.14913 0.17713 0.30268
 O9 O 0.18436 0.25521 0.28382
 O10 O 0.24140 0.18741 0.28339
 O11 O 0.25662 0.30959 0.28436
 O12 O 0.31210 0.24410 0.28481
 Zr13 Zr 0.25168 0.25136 0.18353
 Zr14 Zr 0.19527 0.31432 0.24968
 Zr15 Zr 0.30350 0.18506 0.25001
 Zr16 Zr 0.18036 0.19582 0.24987
 O17 O 0.37984 0.18327 0.25236
 O18 O 0.10658 0.21544 0.24793
 O19 O 0.24205 0.18922 0.21514
 O20 O 0.18744 0.25505 0.21538
 O21 O 0.25748 0.31255 0.21588
 O22 O 0.31397 0.24446 0.21670
 C23 C 0.16220 0.18339 0.33748
 C24 C 0.31840 0.16717 0.33676
 C25 C 0.17321 0.32643 0.33605
 O26 O 0.11930 0.31676 0.24347
 O27 O 0.17772 0.34716 0.19777
 O28 O 0.21103 0.30059 0.15207
 C29 C 0.18549 0.33584 0.16285
 O30 O 0.35164 0.32664 0.30135
 Zr31 Zr 0.31822 0.30384 0.25022
 O32 O 0.30023 0.29228 0.15202
 O33 O 0.20886 0.38670 0.25573
 O34 O 0.31363 0.37778 0.25024
 O35 O 0.39304 0.28807 0.24951
 O36 O 0.34654 0.32694 0.19775
 C37 C 0.33472 0.31917 0.16292
 O38 O 0.21079 0.21917 0.13993
 O39 O 0.28855 0.11262 0.24762
 O40 O 0.29274 0.20195 0.15266
 O41 O 0.32959 0.15778 0.19838
 O42 O 0.18019 0.12180 0.25278
 O43 O 0.15151 0.16727 0.19894
 C44 C 0.32146 0.16908 0.16356
 H45 H 0.23844 0.15852 0.29871
 H46 H 0.15893 0.25761 0.19853
 H47 H 0.34398 0.24155 0.20161
 H48 H 0.25961 0.33715 0.30119
 H49 H 0.08723 0.18753 0.25480
 H50 H 0.10978 0.35007 0.24518
 H51 H 0.17724 0.40267 0.25367
 H52 H 0.34603 0.39006 0.24361
 H53 H 0.14678 0.11184 0.25886
 H54 H 0.32000 0.09632 0.24963
 H55 H 0.38946 0.14996 0.25101
 H56 H 0.41062 0.31742 0.24373
 H57 H 0.12146 0.14992 0.20481
 H58 H 0.22445 0.22971 0.11527
 H59 H 0.27338 0.27107 0.38451
 H60 H 0.37493 0.35192 0.29550
 Zr61 Zr 0.75251 0.75186 0.31615
 O62 O 0.71338 0.71760 0.35981
 O63 O 0.80093 0.79239 0.34795
 O64 O 0.79630 0.70471 0.34684
 O65 O 0.67262 0.84330 0.30180
 O66 O 0.83587 0.66312 0.30100
 O67 O 0.70841 0.79834 0.34748
 O68 O 0.85050 0.82313 0.30242
 O69 O 0.81555 0.74511 0.28363
 O70 O 0.75805 0.81257 0.28327
 O71 O 0.74368 0.69028 0.28423
 O72 O 0.68777 0.75535 0.28470
 Zr73 Zr 0.74826 0.74869 0.18335
 Zr74 Zr 0.80508 0.68601 0.24951
 Zr75 Zr 0.69596 0.81454 0.24988
 Zr76 Zr 0.81914 0.80462 0.24968
 O77 O 0.61960 0.81585 0.25216
 O78 O 0.89309 0.78561 0.24747
 O79 O 0.75744 0.81082 0.21496
 O80 O 0.81249 0.74542 0.21519
 O81 O 0.74288 0.68739 0.21572
 O82 O 0.68592 0.75515 0.21657
 C83 C 0.83757 0.81666 0.33725
 C84 C 0.68064 0.83196 0.33665
 C85 C 0.82704 0.67373 0.33587
 O86 O 0.88110 0.68414 0.24340
 O87 O 0.82315 0.65354 0.19760
 O88 O 0.78949 0.69993 0.15189
 C89 C 0.81540 0.66492 0.16268
 O90 O 0.64883 0.67244 0.30127
 Zr91 Zr 0.68206 0.69566 0.25012
 O92 O 0.69993 0.70748 0.15189
 O93 O 0.79197 0.61353 0.25547
 O94 O 0.68719 0.62175 0.25010
 O95 O 0.60715 0.71103 0.24953
 O96 O 0.65378 0.67254 0.19770
 C97 C 0.66552 0.68042 0.16284
 O98 O 0.78885 0.78121 0.13964
 O99 O 0.71043 0.88707 0.24758
 O100 O 0.70697 0.79799 0.15252
 O101 O 0.66984 0.84186 0.19826
 O102 O 0.81870 0.87862 0.25274
 O103 O 0.84764 0.83361 0.19870
 C104 C 0.67810 0.83071 0.16343
 H105 H 0.76080 0.84140 0.29863
 H106 H 0.84104 0.74312 0.19835
 H107 H 0.65590 0.75793 0.20149
 H108 H 0.74087 0.66265 0.30105
 H109 H 0.91223 0.81365 0.25426
 H110 H 0.89086 0.65090 0.24510
 H111 H 0.82370 0.59777 0.25342
 H112 H 0.65488 0.60928 0.24351
 H113 H 0.85203 0.88880 0.25881
 H114 H 0.67886 0.90316 0.24959
 H115 H 0.60977 0.84911 0.25082
 H116 H 0.58973 0.68161 0.24377
 H117 H 0.87745 0.85133 0.20454
 H118 H 0.77524 0.77062 0.11501
 H119 H 0.72671 0.72849 0.38445
 H120 H 0.62567 0.64707 0.29542
 Zr121 Zr 0.75318 0.24742 -0.31612
 O122 O 0.71389 0.28092 -0.36002
 O123 O 0.80207 0.20714 -0.34763
 O124 O 0.79670 0.29471 -0.34698
 O125 O 0.67410 0.15526 -0.30141
 O126 O 0.83580 0.33693 -0.30127
 O127 O 0.70976 0.20014 -0.34726
 O128 O 0.85161 0.17699 -0.30189
 O129 O 0.81603 0.25501 -0.28355
 O130 O 0.75911 0.18705 -0.28291
 O131 O 0.74370 0.30917 -0.28455
 O132 O 0.68833 0.24360 -0.28478
 Zr133 Zr 0.74835 0.25163 -0.18338
 Zr134 Zr 0.80491 0.31428 -0.24975
 Zr135 Zr 0.69690 0.18479 -0.24965
 Zr136 Zr 0.82001 0.19582 -0.24928
 O137 O 0.62057 0.18277 -0.25213
 O138 O 0.89376 0.21563 -0.24719
 O139 O 0.75819 0.18933 -0.21464
 O140 O 0.81270 0.25523 -0.21511
 O141 O 0.74258 0.31261 -0.21608
 O142 O 0.68621 0.24434 -0.21666
 C143 C 0.83876 0.18314 -0.33678
 C144 C 0.68225 0.16632 -0.33630
 C145 C 0.82719 0.32599 -0.33609
 O146 O 0.88086 0.31695 -0.24343
 O147 O 0.82236 0.34745 -0.19803
 O148 O 0.78895 0.30111 -0.15212
 C149 C 0.81454 0.33632 -0.16307
 O150 O 0.64871 0.32595 -0.30184
 Zr151 Zr 0.68198 0.30352 -0.25052
 O152 O 0.69962 0.29267 -0.15221
 O153 O 0.79123 0.38658 -0.25623
 O154 O 0.68649 0.37747 -0.25100
 O155 O 0.60720 0.28747 -0.24986
 O156 O 0.65343 0.32694 -0.19825
 C157 C 0.66513 0.31944 -0.16333
 O158 O 0.78903 0.21982 -0.13944
 O159 O 0.71194 0.11240 -0.24684
 O160 O 0.70727 0.20225 -0.15237
 O161 O 0.67071 0.15771 -0.19797
 O162 O 0.82020 0.12179 -0.25181
 O163 O 0.84864 0.16759 -0.19812
 C164 C 0.67868 0.16923 -0.16320
 H165 H 0.76218 0.15810 -0.29809
 H166 H 0.84115 0.25795 -0.19822
 H167 H 0.65614 0.24145 -0.20162
 H168 H 0.74073 0.33664 -0.30154
 H169 H 0.91317 0.18773 -0.25382
 H170 H 0.89035 0.35026 -0.24533
 H171 H 0.82283 0.40266 -0.25421
 H172 H 0.65405 0.38971 -0.24452
 H173 H 0.85364 0.11186 -0.25779
 H174 H 0.68051 0.09600 -0.24882
 H175 H 0.61098 0.14945 -0.25059
 H176 H 0.58953 0.31678 -0.24428
 H177 H 0.87869 0.15021 -0.20382
 H178 H 0.77523 0.23051 -0.11489
 H179 H 0.72742 0.26996 -0.38458
 H180 H 0.62527 0.35110 -0.29616
 Zr181 Zr 0.24664 0.75486 -0.31647
 O182 O 0.28504 0.72179 -0.36104
 O183 O 0.19885 0.79700 -0.34774
 O184 O 0.20301 0.70793 -0.34775
 O185 O 0.32454 0.84751 -0.30026
 O186 O 0.16415 0.66467 -0.30242
 O187 O 0.29260 0.80130 -0.34665
 O188 O 0.14666 0.82264 -0.30218
 O189 O 0.18355 0.74626 -0.28421
 O190 O 0.23990 0.81468 -0.28279
 O191 O 0.25615 0.69269 -0.28519
 O192 O 0.31098 0.75843 -0.28448
 Zr193 Zr 0.24981 0.74865 -0.18337
 Zr194 Zr 0.19469 0.68663 -0.25068
 Zr195 Zr 0.30158 0.81669 -0.24898
 Zr196 Zr 0.17872 0.80489 -0.24954
 O197 O 0.37791 0.81931 -0.25121
 O198 O 0.10500 0.78497 -0.24714
 O199 O 0.23996 0.81130 -0.21435
 O200 O 0.18597 0.74515 -0.21570
 O201 O 0.25647 0.68814 -0.21649
 O202 O 0.31225 0.75674 -0.21633
 C203 C 0.16078 0.81922 -0.33705
 C204 C 0.31895 0.83592 -0.33538
 C205 C 0.17269 0.67624 -0.33714
 O206 O 0.11873 0.68335 -0.24445
 O207 O 0.17770 0.65209 -0.19931
 O208 O 0.20740 0.69951 -0.15282
 C209 C 0.18301 0.66358 -0.16408
 O210 O 0.35140 0.67656 -0.30185
 Zr211 Zr 0.31732 0.69809 -0.25060
 O212 O 0.29820 0.70693 -0.15234
 O213 O 0.20874 0.61455 -0.25812
 O214 O 0.31306 0.62414 -0.25170
 O215 O 0.39199 0.71455 -0.24938
 O216 O 0.34552 0.67410 -0.19835
 C217 C 0.33322 0.68078 -0.16345
 O218 O 0.20934 0.78005 -0.13915
 O219 O 0.28578 0.88886 -0.24531
 O220 O 0.29085 0.79769 -0.15185
 O221 O 0.32738 0.84305 -0.19704
 O222 O 0.17784 0.87891 -0.25253
 O223 O 0.14998 0.83296 -0.19838
 C224 C 0.31947 0.83093 -0.16237
 H225 H 0.23699 0.84385 -0.29777
 H226 H 0.15724 0.74210 -0.19912
 H227 H 0.34217 0.75951 -0.20113
 H228 H 0.25943 0.66550 -0.30238
 H229 H 0.08549 0.81286 -0.25366
 H230 H 0.10952 0.64998 -0.24648
 H231 H 0.17728 0.59822 -0.25609
 H232 H 0.34544 0.61190 -0.24503
 H233 H 0.14437 0.88846 -0.25876
 H234 H 0.31703 0.90561 -0.24713
 H235 H 0.38725 0.85267 -0.24936
 H236 H 0.40979 0.68526 -0.24394
 H237 H 0.12018 0.85070 -0.20410
 H238 H 0.22293 0.76878 -0.11469
 H239 H 0.27176 0.73380 -0.38537
 H240 H 0.37478 0.65133 -0.29620
 Zr241 Zr 1.25339 1.25142 0.81606
 O242 O 1.21452 1.21656 0.85953
 O243 O 1.30175 1.29176 0.84815
 O244 O 1.29859 1.20474 0.84607
 O245 O 1.17127 1.34008 0.80196
 O246 O 1.32959 1.15655 0.80045
 O247 O 1.20980 1.29764 0.84788
 O248 O 1.34945 1.32462 0.80242
 O249 O 1.31619 1.24391 0.78348
 O250 O 1.25911 1.31224 0.78327
 O251 O 1.24299 1.19028 0.78396
 O252 O 1.18863 1.25599 0.78450
 Zr253 Zr 1.24825 1.24880 0.68312
 Zr254 Zr 1.30413 1.18514 0.74917
 Zr255 Zr 1.19732 1.31506 0.74969
 Zr256 Zr 1.32009 1.30366 0.74967
 O257 O 1.12097 1.31769 0.74841
 O258 O 1.39378 1.28359 0.74944
 O259 O 1.25866 1.31063 0.71483
 O260 O 1.31237 1.24467 0.71512
 O261 O 1.24212 1.18752 0.71543
 O262 O 1.18596 1.25607 0.71619
 C263 C 1.33692 1.31788 0.83731
 C264 C 1.17984 1.32931 0.83688
 C265 C 1.32427 1.16964 0.83515
 O266 O 1.38041 1.18254 0.74656
 O267 O 1.32469 1.15560 0.69682
 O268 O 1.28859 1.20019 0.65110
 C269 C 1.31624 1.16657 0.66192
 O270 O 1.14660 1.17576 0.80099
 Zr271 Zr 1.18152 1.19665 0.74987
 O272 O 1.20018 1.20766 0.65137
 O273 O 1.28904 1.11268 0.75100
 O274 O 1.18443 1.12265 0.75213
 O275 O 1.10696 1.21323 0.74722
 O276 O 1.15595 1.17119 0.69747
 C277 C 1.16746 1.17887 0.66255
 O278 O 1.28923 1.28204 0.64000
 O279 O 1.21159 1.38769 0.75140
 O280 O 1.20612 1.29732 0.65247
 O281 O 1.17680 1.34660 0.69800
 O282 O 1.31931 1.37775 0.75072
 O283 O 1.35135 1.33099 0.69908
 C284 C 1.18197 1.33344 0.66326
 H285 H 1.26152 1.34104 0.79870
 H286 H 1.34108 1.24224 0.69846
 H287 H 1.15619 1.25933 0.70084
 H288 H 1.23942 1.16263 0.80067
 H289 H 1.41308 1.31140 0.75657
 H290 H 1.38951 1.14906 0.74683
 H291 H 1.32045 1.09625 0.74911
 H292 H 1.15192 1.11073 0.74546
 H293 H 1.35229 1.38838 0.75744
 H294 H 1.17990 1.40363 0.75303
 H295 H 1.11189 1.35117 0.74804
 H296 H 1.08940 1.18404 0.74101
 H297 H 1.38096 1.34871 0.70550
 H298 H 1.27565 1.27206 0.61519
 H299 H 1.22835 1.22683 0.88417
 H300 H 1.12182 1.15185 0.79520
 Zr301 Zr 0.74643 0.74849 0.81614
 O302 O 0.78528 0.78328 0.85956
 O303 O 0.69790 0.70835 0.84828
 O304 O 0.70130 0.79528 0.84608
 O305 O 0.82835 0.65958 0.80219
 O306 O 0.67050 0.84357 0.80039
 O307 O 0.79004 0.70230 0.84802
 O308 O 0.65001 0.67583 0.80261
 O309 O 0.68371 0.75616 0.78354
 O310 O 0.74055 0.68765 0.78348
 O311 O 0.75704 0.80960 0.78394
 O312 O 0.81119 0.74364 0.78457
 Zr313 Zr 0.75172 0.75100 0.68322
 Zr314 Zr 0.69597 0.81490 0.74914
 Zr315 Zr 0.80236 0.68457 0.74986
 Zr316 Zr 0.67966 0.69640 0.74985
 O317 O 0.87871 0.68160 0.74858
 O318 O 0.60601 0.71660 0.74940
 O319 O 0.74110 0.68919 0.71500
 O320 O 0.68759 0.75536 0.71521
 O321 O 0.75802 0.81229 0.71539
 O322 O 0.81394 0.74355 0.71631
 C323 C 0.66254 0.68252 0.83747
 C324 C 0.81994 0.67055 0.83708
 C325 C 0.67571 0.83046 0.83512
 O326 O 0.61970 0.81773 0.74659
 O327 O 0.67548 0.84440 0.69673
 O328 O 0.71147 0.79964 0.65111
 C329 C 0.68385 0.83332 0.66185
 O330 O 0.85336 0.82377 0.80099
 Zr331 Zr 0.81852 0.80296 0.74988
 O332 O 0.80003 0.79191 0.65142
 O333 O 0.71131 0.88731 0.75077
 O334 O 0.81586 0.87698 0.75185
 O335 O 0.89305 0.78620 0.74739
 O336 O 0.84441 0.82812 0.69746
 C337 C 0.83294 0.82044 0.66256
 O338 O 0.71073 0.71783 0.64017
 O339 O 0.78773 0.61201 0.75172
 O340 O 0.79382 0.70246 0.65260
 O341 O 0.82300 0.65307 0.69818
 O342 O 0.68014 0.62231 0.75125
 O343 O 0.64856 0.66905 0.69928
 C344 C 0.81794 0.66630 0.66341
 H345 H 0.73802 0.65888 0.79901
 H346 H 0.65890 0.75785 0.69856
 H347 H 0.84373 0.74019 0.70099
 H348 H 0.76067 0.83724 0.80060
 H349 H 0.58662 0.68884 0.75656
 H350 H 0.61070 0.85123 0.74676
 H351 H 0.67996 0.90383 0.74889
 H352 H 0.84844 0.88878 0.74518
 H353 H 0.64708 0.61184 0.75795
 H354 H 0.81934 0.59594 0.75335
 H355 H 0.88764 0.64808 0.74830
 H356 H 0.91073 0.81535 0.74118
 H357 H 0.61893 0.65133 0.70571
 H358 H 0.72435 0.72778 0.61533
 H359 H 0.77139 0.77303 0.88422
 H360 H 0.87810 0.84774 0.79518
 Zr361 Zr 1.25414 0.74852 0.18401
 O362 O 1.21534 0.78344 0.14059
 O363 O 1.30276 0.70857 0.15187
 O364 O 1.29933 0.79548 0.15428
 O365 O 1.17249 0.65925 0.19748
 O366 O 1.32991 0.84370 0.20006
 O367 O 1.21103 0.70229 0.15187
 O368 O 1.35037 0.67568 0.19756
 O369 O 1.31675 0.75626 0.21673
 O370 O 1.25998 0.68757 0.21659
 O371 O 1.24331 0.80947 0.21624
 O372 O 1.18921 0.74342 0.21534
 Zr373 Zr 1.24832 0.75048 0.31680
 Zr374 Zr 1.30425 0.81482 0.25120
 Zr375 Zr 1.19799 0.68421 0.24996
 Zr376 Zr 1.32076 0.69635 0.25033
 O377 O 1.12165 0.68110 0.25092
 O378 O 1.39434 0.71688 0.25068
 O379 O 1.25914 0.68883 0.28497
 O380 O 1.31261 0.75515 0.28505
 O381 O 1.24204 0.81189 0.28474
 O382 O 1.18622 0.74301 0.28358
 C383 C 1.33792 0.68250 0.16268
 C384 C 1.18122 0.67033 0.16263
 C385 C 1.32480 0.83066 0.16533
 O386 O 1.38049 0.81787 0.25411
 O387 O 1.32416 0.84431 0.30374
 O388 O 1.28799 0.79921 0.34915
 C389 C 1.31544 0.83313 0.33857
 O390 O 1.14699 0.82355 0.19897
 Zr391 Zr 1.18167 0.80258 0.25012
 O392 O 1.19985 0.79102 0.34862
 O393 O 1.28889 0.88720 0.24944
 O394 O 1.18427 0.87660 0.24818
 O395 O 1.10716 0.78564 0.25250
 O396 O 1.15566 0.82752 0.30258
 C397 C 1.16703 0.81964 0.33750
 O398 O 1.28934 0.71720 0.35981
 O399 O 1.21262 0.61167 0.24819
 O400 O 1.20623 0.70177 0.34722
 O401 O 1.17714 0.65253 0.30156
 O402 O 1.32043 0.62226 0.24913
 O403 O 1.35188 0.66903 0.30093
 C404 C 1.18212 0.66569 0.33633
 H405 H 1.26259 0.65885 0.20108
 H406 H 1.34119 0.75770 0.30181
 H407 H 1.15637 0.73953 0.29883
 H408 H 1.23972 0.83717 0.19959
 H409 H 1.41380 0.68920 0.24351
 H410 H 1.38941 0.85141 0.25398
 H411 H 1.32021 0.90379 0.25152
 H412 H 1.15167 0.88830 0.25484
 H413 H 1.35352 0.61188 0.24249
 H414 H 1.18102 0.59556 0.24641
 H415 H 1.11274 0.64756 0.25116
 H416 H 1.08945 0.81472 0.25875
 H417 H 1.38171 0.65165 0.29455
 H418 H 1.27565 0.72692 0.38465
 H419 H 1.22935 0.77344 0.11594
 H420 H 1.12213 0.84735 0.20476
 Zr421 Zr 0.74708 1.25146 0.18370
 O422 O 0.78575 1.21660 0.14021
 O423 O 0.69885 1.29206 0.15162
 O424 O 0.70169 1.20486 0.15373
 O425 O 0.82996 1.33965 0.19780
 O426 O 0.67041 1.15673 0.19940
 O427 O 0.79103 1.29764 0.15186
 O428 O 0.65143 1.32502 0.19739
 O429 O 0.68424 1.24412 0.21632
 O430 O 0.74175 1.31221 0.21649
 O431 O 0.75705 1.19021 0.21589
 O432 O 0.81186 1.25561 0.21529
 Zr433 Zr 0.75216 1.24839 0.31676
 Zr434 Zr 0.69587 1.18521 0.25069
 Zr435 Zr 0.80356 1.31464 0.25009
 Zr436 Zr 0.68073 1.30381 0.25012
 O437 O 0.87992 1.31690 0.25148
 O438 O 0.60691 1.28410 0.25039
 O439 O 0.74220 1.31034 0.28497
 O440 O 0.68804 1.24471 0.28472
 O441 O 0.75790 1.18717 0.28445
 O442 O 0.81449 1.25552 0.28365
 C443 C 0.66382 1.31828 0.16248
 C444 C 0.82130 1.32909 0.16285
 C445 C 0.67588 1.16978 0.16468
 O446 O 0.61957 1.18303 0.25311
 O447 O 0.67479 1.15572 0.30305
 O448 O 0.71142 1.19981 0.34879
 C449 C 0.68337 1.16644 0.33799
 O450 O 0.85328 1.17507 0.19889
 Zr451 Zr 0.81855 1.19617 0.24998
 O452 O 0.80018 1.20709 0.34850
 O453 O 0.71052 1.11269 0.24903
 O454 O 0.81514 1.12218 0.24783
 O455 O 0.89320 1.21249 0.25252
 O456 O 0.84414 1.17056 0.30237
 C457 C 0.83280 1.17828 0.33732
 O458 O 0.71138 1.28162 0.35990
 O459 O 0.78977 1.38734 0.24830
 O460 O 0.79449 1.29679 0.34737
 O461 O 0.82413 1.34603 0.30180
 O462 O 0.68205 1.37790 0.24906
 O463 O 0.64969 1.33121 0.30071
 C464 C 0.81881 1.33287 0.33657
 H465 H 0.73953 1.34105 0.20104
 H466 H 0.65930 1.24239 0.30137
 H467 H 0.84427 1.25865 0.29900
 H468 H 0.76048 1.16257 0.19920
 H469 H 0.58779 1.31203 0.24329
 H470 H 0.61022 1.14960 0.25285
 H471 H 0.67901 1.09639 0.25087
 H472 H 0.84756 1.11008 0.25451
 H473 H 0.64916 1.38872 0.24232
 H474 H 0.82156 1.40313 0.24670
 H475 H 0.88923 1.35033 0.25186
 H476 H 0.91064 1.18324 0.25876
 H477 H 0.62021 1.34910 0.29428
 H478 H 0.72492 1.27151 0.38470
 H479 H 0.77197 1.22701 0.11558
 H480 H 0.87796 1.15110 0.20472
 O481 O 0.47299 1.07949 0.04728
 O482 O 0.52675 0.92026 0.04709
 O483 O 0.41717 0.97641 0.04802
 O484 O 0.58279 1.02380 0.04784
 O485 O 0.44492 0.91181 0.02743
 O486 O 0.55479 1.08839 0.02731
 O487 O 0.59274 0.94508 0.02434
 O488 O 0.40697 1.05499 0.02451
 C489 C 0.42873 1.07584 0.05027
 C490 C 0.57100 0.92407 0.05008
 C491 C 0.42233 0.93380 0.05229
 C492 C 0.57771 1.06644 0.05205
 O493 O 0.52689 1.07968 -0.04708
 O494 O 0.47241 0.92057 -0.04709
 O495 O 0.41717 1.02396 -0.04774
 O496 O 0.58267 0.97616 -0.04789
 O497 O 0.55440 0.91160 -0.02740
 O498 O 0.44514 1.08851 -0.02720
 O499 O 0.59286 1.05479 -0.02442
 O500 O 0.40656 0.94538 -0.02415
 Co501 Co 0.49993 1.07583 0.00008
 Co502 Co 0.49964 0.92423 -0.00000
 Co503 Co 0.42091 1.00017 0.00014
 Co504 Co 0.57886 0.99997 -0.00002
 O505 O 0.49985 1.00005 0.00004
 C506 C 0.57113 1.07586 -0.05009
 C507 C 0.42811 0.92418 -0.04984
 C508 C 0.42232 1.06659 -0.05198
 C509 C 0.57742 0.93354 -0.05213
 O510 O 0.94447 0.58870 0.52669
 O511 O 1.05554 0.41139 0.52682
 O512 O 0.90757 0.44534 0.52527
 O513 O 1.09260 0.55473 0.52524
 O514 O 0.97402 0.42040 0.54725
 O515 O 1.02610 0.57974 0.54712
 O516 O 1.08246 0.47607 0.54769
 O517 O 0.91723 0.52402 0.54751
 C518 C 0.92147 0.56668 0.55144
 C519 C 1.07837 0.43339 0.55160
 C520 C 0.92987 0.42405 0.55065
 C521 C 1.07030 0.57641 0.55042
 O522 O 1.05546 0.58868 0.47307
 O523 O 0.94466 0.41120 0.47324
 O524 O 0.90749 0.55447 0.47460
 O525 O 1.09261 0.44551 0.47478
 O526 O 1.02622 0.42055 0.45273
 O527 O 0.97391 0.57966 0.45262
 O528 O 1.08264 0.52400 0.45243
 O529 O 0.91746 0.47578 0.45234
 Co530 Co 0.99999 0.57595 0.49989
 Co531 Co 1.00011 0.42414 0.50000
 Co532 Co 0.92120 0.49991 0.49993
 Co533 Co 1.07878 0.50007 0.50005
 O534 O 1.00001 0.50003 0.49998
 C535 C 1.07832 0.56660 0.44835
 C536 C 0.92173 0.43312 0.44845
 C537 C 0.92977 0.57587 0.44921
 C538 C 1.07038 0.42422 0.44937
 O539 O 1.06297 0.48067 0.06464
 O540 O 1.06253 0.52068 -0.06697
 O541 O 1.05834 0.42044 -0.02503
 O542 O 1.06012 0.58064 0.02364
 O543 O 1.02439 0.44369 -0.07448
 O544 O 1.02577 0.55774 0.07304
 O545 O 1.04383 0.58668 -0.04133
 O546 O 1.04242 0.41488 0.03975
 C547 C 1.07106 0.43838 0.05996
 C548 C 1.07134 0.56293 -0.06240
 C549 C 1.05898 0.42359 -0.05986
 C550 C 1.06069 0.57740 0.05847
 O551 O 0.93969 0.52133 0.06493
 O552 O 0.93874 0.48103 -0.06615
 O553 O 0.94229 0.42154 0.02430
 O554 O 0.94368 0.58179 -0.02504
 O555 O 0.97698 0.55793 -0.07452
 O556 O 0.97680 0.44418 0.07363
 O557 O 0.95997 0.58719 0.03963
 O558 O 0.95824 0.41523 -0.04053
 Co559 Co 1.00130 0.50095 0.06177
 Co560 Co 1.00068 0.50082 -0.06332
 Co561 Co 1.00038 0.42553 -0.00040
 Co562 Co 1.00188 0.57655 -0.00075
 O563 O 1.00109 0.50095 -0.00070
 C564 C 0.93149 0.56363 0.06008
 C565 C 0.93004 0.43887 -0.06104
 C566 C 0.94203 0.42417 0.05918
 C567 C 0.94253 0.57811 -0.05981
 O568 O 0.52500 0.94294 0.57410
 O569 O 0.52560 1.05508 0.42675
 O570 O 0.53807 0.91179 0.45973
 O571 O 0.54044 1.08589 0.54114
 O572 O 0.56000 0.97729 0.43515
 O573 O 0.56120 1.02026 0.56594
 O574 O 0.55891 1.07862 0.47650
 O575 O 0.55695 0.91806 0.52423
 C576 C 0.55943 0.92315 0.55890
 C577 C 0.56049 1.07451 0.44168
 C578 C 0.56709 0.93482 0.43959
 C579 C 0.56908 1.06257 0.56128
 O580 O 0.47418 1.05606 0.57392
 O581 O 0.47232 0.94308 0.42746
 O582 O 0.45798 0.91273 0.54212
 O583 O 0.46007 1.08634 0.45940
 O584 O 0.43781 1.02081 0.43543
 O585 O 0.43814 0.97868 0.56684
 O586 O 0.44153 1.08012 0.52402
 O587 O 0.43923 0.91946 0.47735
 Co588 Co 0.49962 0.99948 0.56316
 Co589 Co 0.49894 0.99911 0.43833
 Co590 Co 0.49812 0.92328 0.50084
 Co591 Co 0.50015 1.07499 0.50030
 O592 O 0.49919 0.99922 0.50068
 C593 C 0.43953 1.07561 0.55879
 C594 C 0.43735 0.92399 0.44258
 C595 C 0.43006 0.93631 0.56276
 C596 C 0.43081 1.06328 0.43965
 O597 O 1.08906 1.04013 0.46037
 O598 O 0.91286 1.04144 0.53998
 O599 O 0.94159 1.02168 0.42641
 O600 O 1.06001 1.02128 0.57397
 O601 O 0.91887 1.05583 0.47540
 O602 O 1.08394 1.05460 0.52489
 O603 O 0.98125 1.05929 0.56566
 O604 O 1.02067 1.05867 0.43496
 C605 C 1.06403 1.06744 0.44019
 C606 C 0.93798 1.06841 0.56035
 C607 C 0.92207 1.05601 0.44062
 C608 C 1.07993 1.05534 0.55961
 O609 O 1.08853 0.95693 0.54033
 O610 O 0.91234 0.95820 0.46045
 O611 O 1.05976 0.97648 0.42666
 O612 O 0.94115 0.97744 0.57395
 O613 O 0.91770 0.94386 0.52490
 O614 O 1.08278 0.94249 0.47566
 O615 O 1.01997 0.93954 0.56612
 O616 O 0.98066 0.93934 0.43521
 Co617 Co 1.07857 0.99856 0.50030
 Co618 Co 0.92293 0.99979 0.50019
 Co619 Co 1.00066 0.99904 0.43792
 Co620 Co 1.00058 0.99938 0.56289
 O621 O 1.00068 0.99917 0.50035
 C622 C 1.06330 0.93037 0.56109
 C623 C 0.93723 0.93077 0.44033
 C624 C 1.07913 0.94210 0.44092
 C625 C 0.92144 0.94329 0.55962
 O626 O 0.58252 0.55652 -0.02438
 O627 O 0.41709 0.55665 0.02412
 O628 O 0.47884 0.55985 -0.06572
 O629 O 0.52042 0.55961 0.06505
 O630 O 0.41074 0.54059 -0.04042
 O631 O 0.58860 0.54033 0.04003
 O632 O 0.44102 0.52348 0.07331
 O633 O 0.55836 0.52378 -0.07368
 C634 C 0.57751 0.55807 -0.05905
 C635 C 0.42194 0.55791 0.05882
 C636 C 0.43532 0.56802 -0.06070
 C637 C 0.56392 0.56784 0.06007
 O638 O 0.58225 0.44347 0.02399
 O639 O 0.41676 0.44375 -0.02436
 O640 O 0.52019 0.44078 -0.06579
 O641 O 0.47923 0.44053 0.06505
 O642 O 0.41094 0.45974 0.04016
 O643 O 0.58839 0.45977 -0.04059
 O644 O 0.55858 0.47655 0.07328
 O645 O 0.44073 0.47679 -0.07365
 Co646 Co 0.57776 0.50002 -0.00024
 Co647 Co 0.42155 0.50019 -0.00012
 Co648 Co 0.49955 0.50029 -0.06274
 Co649 Co 0.49980 0.50006 0.06216
 O650 O 0.49967 0.50015 -0.00025
 C651 C 0.57782 0.44224 0.05874
 C652 C 0.42157 0.44242 -0.05907
 C653 C 0.56366 0.43245 -0.06077
 C654 C 0.43576 0.43221 0.06009
 N655 N 0.33037 1.13751 0.09909
 C656 C 0.34892 1.14396 0.13437
 N657 N 0.39420 1.12816 0.14194
 N658 N 0.42015 1.10684 0.11514
 C659 C 0.40137 1.10002 0.07998
 N660 N 0.35597 1.11548 0.07253
 N661 N 0.85706 0.66058 0.60120
 C662 C 0.84339 0.63947 0.63405
 N663 N 0.85587 0.59409 0.63991
 N664 N 0.88061 0.57056 0.61360
 C665 C 0.89462 0.59193 0.58090
 N666 N 0.88238 0.63731 0.57521
 N667 N 0.60532 0.87149 0.14174
 C668 C 0.65069 0.85587 0.13423
 N669 N 0.66938 0.86255 0.09900
 N670 N 0.64383 0.88462 0.07241
 C671 C 0.59835 0.89990 0.07980
 N672 N 0.57942 0.89286 0.11492
 N673 N 1.14405 0.40569 0.63989
 C674 C 1.15659 0.36037 0.63394
 N675 N 1.14297 0.33939 0.60109
 N676 N 1.11761 0.36276 0.57517
 C677 C 1.10528 0.40809 0.58097
 N678 N 1.11926 0.42933 0.61367
 N679 N 0.60587 1.12837 -0.14167
 C680 C 0.65114 1.14418 -0.13402
 N681 N 0.66960 1.13770 -0.09872
 N682 N 0.64392 1.11561 -0.07219
 C683 C 0.59854 1.10013 -0.07972
 N684 N 0.57983 1.10699 -0.11491
 N685 N 1.14284 0.66022 0.39835
 C686 C 1.15651 0.63897 0.36562
 N687 N 1.14393 0.59362 0.35988
 N688 N 1.11907 0.57020 0.38623
 C689 C 1.10508 0.59171 0.41882
 N690 N 1.11741 0.63707 0.42438
 N691 N 0.39249 0.87153 -0.14108
 C692 C 0.34734 0.85554 -0.13312
 N693 N 0.32926 0.86183 -0.09766
 N694 N 0.35520 0.88394 -0.07132
 C695 C 0.40045 0.89964 -0.07920
 N696 N 0.41877 0.89291 -0.11453
 N697 N 0.85655 0.40522 0.35996
 C698 C 0.84411 0.35984 0.36592
 N699 N 0.85762 0.33888 0.39884
 N700 N 0.88278 0.36233 0.42482
 C701 C 0.89499 0.40772 0.41903
 N702 N 0.88113 0.42893 0.38625
 N703 N 1.14853 0.34578 0.09964
 C704 C 1.16174 0.36461 0.13354
 N705 N 1.14820 0.40914 0.14151
 N706 N 1.12184 0.43366 0.11686
 C707 C 1.10754 0.41447 0.08341
 N708 N 1.12157 0.37011 0.07520
 N709 N 0.62852 0.89562 0.64437
 C710 C 0.65734 0.86009 0.63295
 N711 N 0.65648 0.84705 0.59572
 N712 N 0.62696 0.86830 0.57110
 C713 C 0.59730 0.90315 0.58305
 N714 N 0.59913 0.91663 0.61996
 N715 N 1.13753 0.59690 -0.14865
 C716 C 1.16027 0.63693 -0.13795
 N717 N 1.15663 0.65057 -0.10095
 N718 N 1.12982 0.62622 -0.07625
 C719 C 1.10683 0.58646 -0.08726
 N720 N 1.11170 0.57209 -0.12382
 N721 N 0.65705 1.15140 0.40439
 C722 C 0.65680 1.13943 0.36690
 N723 N 0.62732 1.10442 0.35537
 N724 N 0.59844 1.08286 0.37993
 C725 C 0.59779 1.09522 0.41714
 N726 N 0.62803 1.12961 0.42916
 N727 N 0.85345 0.59205 0.14134
 C728 C 0.83968 0.63654 0.13340
 N729 N 0.85320 0.65570 0.09966
 N730 N 0.88063 0.63172 0.07531
 C731 C 0.89485 0.58738 0.08349
 N732 N 0.88026 0.56787 0.11680
 N733 N 0.34299 1.15223 0.59570
 C734 C 0.34259 1.13961 0.63305
 N735 N 0.37152 1.10420 0.64457
 N736 N 0.40059 1.08288 0.62011
 C737 C 0.40197 1.09593 0.58305
 N738 N 0.37220 1.13067 0.57103
 N739 N 0.85148 0.34660 -0.09990
 C740 C 0.83841 0.36522 -0.13393
 N741 N 0.85239 0.40958 -0.14226
 N742 N 0.87904 0.43411 -0.11783
 C743 C 0.89321 0.41510 -0.08425
 N744 N 0.87872 0.37094 -0.07567
 N745 N 0.34146 0.84716 0.40498
 C746 C 0.34118 0.86018 0.36771
 N747 N 0.36972 0.89611 0.35656
 N748 N 0.39839 0.91748 0.38128
 C749 C 0.39971 0.90400 0.41823
 N750 N 0.37028 0.86876 0.42990
 N751 N 1.15623 1.14518 0.39968
 C752 C 1.13456 1.15898 0.36688
 N753 N 1.08843 1.14555 0.36007
 N754 N 1.06504 1.11863 0.38486
 C755 C 1.08707 1.10372 0.41714
 N756 N 1.13303 1.11766 0.42425
 N757 N 0.65039 0.65553 -0.09656
 C758 C 0.63626 0.65577 -0.13364
 N759 N 0.60093 0.62611 -0.14481
 N760 N 0.58120 0.59651 -0.12022
 C761 C 0.59589 0.59539 -0.08347
 N762 N 0.63041 0.62587 -0.07178
 N763 N 0.84564 1.14587 0.60074
 C764 C 0.86678 1.15894 0.63392
 N765 N 0.91275 1.14522 0.64106
 N766 N 0.93645 1.11870 0.61622
 C767 C 0.91491 1.10453 0.58353
 N768 N 0.86914 1.11877 0.57611
 N769 N 0.34996 0.65576 0.09662
 C770 C 0.36395 0.65559 0.13374
 N771 N 0.39882 0.62542 0.14489
 N772 N 0.41825 0.59580 0.12022
 C773 C 0.40372 0.59513 0.08341
 N774 N 0.36964 0.62608 0.07177
 N775 N 1.15160 0.84715 0.60036
 C776 C 1.13488 0.84186 0.63655
 N777 N 1.09265 0.86282 0.64622
 N778 N 1.06866 0.88871 0.62114
 C779 C 1.08616 0.89529 0.58551
 N780 N 1.12804 0.87398 0.57546
 N781 N 0.60265 0.37525 0.14491
 C782 C 0.63763 0.34529 0.13362
 N783 N 0.65122 0.34510 0.09640
 N784 N 0.63100 0.37456 0.07157
 C785 C 0.59675 0.40527 0.08335
 N786 N 0.58269 0.40463 0.12029
 N787 N 0.91174 0.85392 0.35971
 C788 C 0.86554 0.84070 0.36665
 N789 N 0.84423 0.85413 0.39969
 N790 N 0.86784 0.88111 0.42436
 C791 C 0.91387 0.89483 0.41714
 N792 N 0.93553 0.88030 0.38460
 N793 N 0.39799 0.37490 -0.14503
 C794 C 0.36297 0.34486 -0.13381
 N795 N 0.34900 0.34477 -0.09668
 N796 N 0.36887 0.37442 -0.07187
 C797 C 0.40312 0.40523 -0.08359
 N798 N 0.41760 0.40447 -0.12042
 N799 N 1.15423 0.34536 -0.09677
 C800 C 1.15228 0.35553 -0.13458
 N801 N 1.12181 0.38943 -0.14661
 N802 N 1.09362 0.41176 -0.12215
 C803 C 1.09477 0.40135 -0.08458
 N804 N 1.12585 0.36794 -0.07209
 N805 N 0.64273 0.84121 0.39961
 C806 C 0.65604 0.86009 0.36574
 N807 N 0.64310 0.90480 0.35782
 N808 N 0.61716 0.92955 0.38252
 C809 C 0.60277 0.91039 0.41596
 N810 N 0.61613 0.86579 0.42411
 N811 N 0.87811 0.61059 -0.14627
 C812 C 0.84775 0.64462 -0.13434
 N813 N 0.84640 0.65542 -0.09664
 N814 N 0.87525 0.63332 -0.07201
 C815 C 0.90624 0.59980 -0.08441
 N816 N 0.90677 0.58874 -0.12185
 N817 N 0.35566 1.15725 0.39982
 C818 C 0.34253 1.13869 0.36584
 N819 N 0.35525 1.09394 0.35786
 N820 N 0.38087 1.06889 0.38258
 C821 C 0.39511 1.08777 0.41612
 N822 N 0.38193 1.13238 0.42434
 N823 N 1.12379 0.60988 0.14545
 C824 C 1.15403 0.64423 0.13381
 N825 N 1.15592 0.65510 0.09612
 N826 N 1.12766 0.63283 0.07119
 C827 C 1.09676 0.59899 0.08330
 N828 N 1.09572 0.58784 0.12074
 N829 N 0.64544 1.15601 0.60051
 C830 C 0.65805 1.13770 0.63473
 N831 N 0.64465 1.09320 0.64307
 N832 N 0.61884 1.06816 0.61848
 C833 C 0.60510 1.08681 0.58470
 N834 N 0.61899 1.13116 0.57611
 N835 N 0.88017 0.38875 0.14629
 C836 C 0.84909 0.35534 0.13425
 N837 N 0.84654 0.34583 0.09635
 N838 N 0.87482 0.36859 0.07162
 C839 C 0.90644 0.40156 0.08409
 N840 N 0.90826 0.41126 0.12178
 N841 N 0.34512 0.84875 0.60143
 C842 C 0.34259 0.86180 0.63861
 N843 N 0.36620 0.90127 0.64949
 N844 N 0.39168 0.92626 0.62462
 C845 C 0.39525 0.91260 0.58783
 N846 N 0.37163 0.87326 0.57667
 N847 N 0.36212 1.16260 -0.10225
 C848 C 0.34943 1.14241 -0.13562
 N849 N 0.36082 1.09678 -0.14160
 N850 N 0.38379 1.07211 -0.11498
 C851 C 0.39683 1.09255 -0.08173
 N852 N 0.38569 1.13819 -0.07593
 N853 N 0.89950 0.63282 0.35838
 C854 C 0.85399 0.64843 0.36524
 N855 N 0.83365 0.63985 0.39964
 N856 N 0.85779 0.61621 0.42614
 C857 C 0.90340 0.60093 0.41943
 N858 N 0.92399 0.60986 0.38515
 N859 N 0.63815 1.16257 0.10202
 C860 C 0.65075 1.14247 0.13548
 N861 N 0.63928 1.09685 0.14159
 N862 N 0.61632 1.07210 0.11503
 C863 C 0.60335 1.09245 0.08170
 N864 N 0.61458 1.13808 0.07576
 N865 N 1.10046 0.63488 0.64054
 C866 C 1.14571 0.65109 0.63339
 N867 N 1.16596 0.64247 0.59898
 N868 N 1.14195 0.61821 0.57277
 C869 C 1.09660 0.60228 0.57981
 N870 N 1.07610 0.61131 0.61407
 N871 N 0.63921 0.90337 -0.14169
 C872 C 0.65051 0.85771 -0.13568
 N873 N 0.63765 0.83749 -0.10231
 N874 N 0.61403 0.86189 -0.07603
 C875 C 0.60299 0.90757 -0.08186
 N876 N 0.61620 0.92804 -0.11510
 N877 N 1.10081 0.36749 0.35853
 C878 C 1.14625 0.35172 0.36543
 N879 N 1.16650 0.36012 0.39986
 N880 N 1.14234 0.38374 0.42634
 C881 C 1.09679 0.39918 0.41959
 N882 N 1.07630 0.39043 0.38528
 N883 N 0.36261 0.83774 0.10280
 C884 C 0.34997 0.85793 0.13617
 N885 N 0.36126 0.90360 0.14211
 N886 N 0.38408 0.92832 0.11540
 C887 C 0.39704 0.90787 0.08213
 N888 N 0.38601 0.86220 0.07640
 N889 N 0.89955 0.36712 0.64145
 C890 C 0.85414 0.35125 0.63453
 N891 N 0.83388 0.35962 0.60009
 N892 N 0.85803 0.38335 0.57361
 C893 C 0.90354 0.39889 0.58038
 N894 N 0.92404 0.39016 0.61470
 N895 N 1.15393 1.15231 0.59657
 C896 C 1.14185 1.15104 0.63408
 N897 N 1.10798 1.12016 0.64592
 N898 N 1.08751 1.09096 0.62150
 C899 C 1.09996 1.09148 0.58424
 N900 N 1.13321 1.12299 0.57195
 N901 N 0.59137 0.64292 0.14118
 C902 C 0.63743 0.65620 0.13373
 N903 N 0.65794 0.64351 0.10022
 N904 N 0.63366 0.61706 0.07558
 C905 C 0.58776 0.60329 0.08331
 N906 N 0.56691 0.61711 0.11635
 N907 N 1.15311 0.84548 0.40358
 C908 C 1.14115 0.84703 0.36607
 N909 N 1.10722 0.87786 0.35436
 N910 N 1.08663 0.90679 0.37892
 C911 C 1.09900 0.90603 0.41618
 N912 N 1.13226 0.87453 0.42834
 N913 N 0.59108 0.35735 -0.14191
 C914 C 0.63701 0.34385 -0.13433
 N915 N 0.65742 0.35645 -0.10078
 N916 N 0.63319 0.38300 -0.07619
 C917 C 0.58742 0.39698 -0.08403
 N918 N 0.56666 0.38327 -0.11712
 N919 N 0.84734 1.15239 0.40343
 C920 C 0.85867 1.15059 0.36579
 N921 N 0.89229 1.11955 0.35390
 N922 N 0.91322 1.09072 0.37840
 C923 C 0.90155 1.09179 0.41581
 N924 N 0.86854 1.12344 0.42813
 N925 N 0.34099 0.64337 -0.10091
 C926 C 0.36138 0.65622 -0.13446
 N927 N 0.40745 0.64308 -0.14197
 N928 N 0.43203 0.61728 -0.11715
 C929 C 0.41131 0.60335 -0.08406
 N930 N 0.36538 0.61695 -0.07629
 N931 N 0.84689 0.84674 0.59659
 C932 C 0.85887 0.84796 0.63410
 N933 N 0.89295 0.87858 0.64593
 N934 N 0.91369 0.90764 0.62149
 C935 C 0.90130 0.90721 0.58424
 N936 N 0.86789 0.87592 0.57195
 N937 N 0.34209 0.35620 0.10033
 C938 C 0.36274 0.34340 0.13376
 N939 N 0.40879 0.35668 0.14110
 N940 N 0.43313 0.38263 0.11623
 C941 C 0.41212 0.39658 0.08329
 N942 N 0.36623 0.38278 0.07566
   
