data_POSCAR
  _audit_creation_date              2014-09-24
  _audit_creation_method            'ToBaCCo'
  _symmetry_space_group_name_H-M    'P1'
  _symmetry_Int_Tables_number       1
  _symmetry_cell_setting            triclinic
  loop_
  _symmetry_equiv_pos_as_xyz
 x,y,z
_cell_length_a 43.5881
_cell_length_b 35.2122
_cell_length_c 34.4466
_cell_angle_alpha 91.468600
_cell_angle_beta 91.341300
_cell_angle_gamma 90.316200
loop_
  _atom_site_label
  _atom_site_type_symbol
  _atom_site_fract_x
  _atom_site_fract_y
  _atom_site_fract_z
C1 C 1.24639 0.26636 0.23956
 C2 C 0.75848 -0.24485 0.26400
 C3 C 0.75000 0.24842 -0.24956
 C4 C 1.25942 -0.23729 -0.24665
 C5 C 0.24960 0.23611 0.75869
 C6 C 0.74115 0.74737 0.73410
 C7 C 0.75127 0.24887 0.25045
 C8 C 0.24236 0.73049 0.24899
 O9 O 1.04342 0.05506 0.07407
 O10 O 1.07642 0.02013 0.03671
 C11 C 1.07081 0.04469 0.06430
 O12 O 0.95213 -0.07475 0.06247
 O13 O 0.91953 -0.03610 0.02834
 C14 C 0.92494 -0.06325 0.05232
 O15 O 1.03775 -0.07602 0.07051
 O16 O 1.07354 -0.04373 0.03623
 C17 C 1.06592 -0.06807 0.06207
 O18 O 0.95814 0.06303 0.06886
 O19 O 0.92271 0.03006 0.03055
 C20 C 0.93018 0.05517 0.05746
 Zr21 Zr 0.99998 0.04048 0.04921
 O22 O 1.00002 0.04625 0.11050
 O23 O 1.00310 0.10003 0.04404
 Zr24 Zr 0.99593 -0.05503 0.04739
 O25 O 0.99245 -0.05319 0.10862
 O26 O 0.99677 -0.11512 0.04764
 O27 O 1.02531 -0.00882 0.05708
 O28 O 0.97110 -0.00580 0.05441
 O29 O 0.95925 0.06245 -0.06983
 O30 O 0.92294 0.02963 -0.03668
 C31 C 0.93103 0.05409 -0.06227
 O32 O 1.03869 -0.07786 -0.06963
 O33 O 1.07410 -0.04491 -0.03133
 C34 C 1.06663 -0.07002 -0.05813
 O35 O 0.95301 -0.07498 -0.07110
 O36 O 0.92007 -0.03715 -0.03663
 C37 C 0.92564 -0.06389 -0.06213
 O38 O 1.04438 0.05599 -0.06748
 O39 O 1.07682 0.01952 -0.03084
 C40 C 1.07158 0.04505 -0.05662
 Zr41 Zr 1.00070 0.03971 -0.04829
 O42 O 0.99867 0.03962 -0.10977
 O43 O 1.00551 0.09960 -0.04594
 Zr44 Zr 0.99658 -0.05586 -0.05026
 O45 O 0.99415 -0.05512 -0.11172
 O46 O 0.99697 -0.11601 -0.05194
 Zr47 Zr 1.04432 -0.01037 0.00128
 Zr48 Zr 0.95216 -0.00493 -0.00235
 O49 O 0.97198 -0.00664 -0.05752
 O50 O 1.02622 -0.00976 -0.05600
 O51 O 0.97299 0.04925 -0.00048
 O52 O 1.02264 -0.06400 -0.00045
 O53 O 1.02750 0.04554 0.00177
 O54 O 0.96848 -0.06130 -0.00270
 H55 H 0.95713 -0.00539 0.07668
 H56 H 1.03518 -0.08738 -0.00005
 H57 H 0.95857 -0.00637 -0.08113
 H58 H 1.04221 0.06713 0.00296
 H59 H 0.98087 -0.12454 0.02878
 H60 H 0.97942 -0.12486 -0.03681
 H61 H 1.01312 -0.04286 -0.12061
 H62 H 1.01485 0.02236 -0.11924
 H63 H 0.98920 0.10980 -0.02917
 H64 H 1.00450 0.11066 0.07093
 H65 H 0.99095 0.02278 0.12049
 H66 H 1.01036 -0.03867 0.11934
 O67 O 1.04472 0.55550 0.59630
 O68 O 1.07994 0.52804 0.55605
 C69 C 1.07270 0.54891 0.58592
 O70 O 0.96214 0.41821 0.56578
 O71 O 0.92750 0.45662 0.53484
 C72 C 0.93425 0.42802 0.55652
 O73 O 1.04751 0.42486 0.57427
 O74 O 1.08150 0.46499 0.54592
 C75 C 1.07515 0.43674 0.56790
 O76 O 0.95891 0.55339 0.59016
 O77 O 0.92589 0.52185 0.54736
 C78 C 0.93157 0.54415 0.57733
 Zr79 Zr 1.00248 0.53762 0.56986
 O80 O 0.99932 0.52773 0.63002
 O81 O 1.00371 0.59705 0.58096
 Zr82 Zr 1.00475 0.44299 0.55187
 O83 O 1.00303 0.42794 0.61079
 O84 O 1.00728 0.38517 0.53439
 O85 O 1.03089 0.49034 0.57010
 O86 O 0.97687 0.48808 0.56648
 O87 O 0.96027 0.57482 0.45768
 O88 O 0.92669 0.53185 0.48252
 C89 C 0.93278 0.56209 0.46334
 O90 O 1.05011 0.44628 0.43367
 O91 O 1.08284 0.47472 0.47889
 C92 C 1.07741 0.45485 0.44725
 O93 O 0.96486 0.43910 0.43011
 O94 O 0.92888 0.46680 0.46930
 C95 C 0.93678 0.44607 0.43942
 O96 O 1.04572 0.57641 0.45841
 O97 O 1.08069 0.53782 0.48858
 C98 C 1.07357 0.56637 0.46704
 Zr99 Zr 1.00346 0.55252 0.47391
 O100 O 1.00081 0.56127 0.41332
 O101 O 1.00513 0.61195 0.48490
 Zr102 Zr 1.00639 0.45795 0.45641
 O103 O 1.00454 0.46522 0.39561
 O104 O 1.01076 0.39847 0.44782
 Zr105 Zr 1.05035 0.49991 0.51563
 Zr106 Zr 0.95813 0.49577 0.51035
 O107 O 0.97836 0.50516 0.45649
 O108 O 1.03242 0.50776 0.45904
 O109 O 0.97520 0.55124 0.52176
 O110 O 1.03282 0.44479 0.50458
 O111 O 1.02957 0.55316 0.52456
 O112 O 0.97799 0.44192 0.50113
 H113 H 0.96303 0.48405 0.58843
 H114 H 1.04740 0.42349 0.50148
 H115 H 0.96515 0.50840 0.43302
 H116 H 1.04258 0.57607 0.52920
 H117 H 1.00793 0.37064 0.55864
 H118 H 0.99309 0.38626 0.46016
 H119 H 1.01911 0.48582 0.38980
 H120 H 1.01912 0.54956 0.40166
 H121 H 0.98794 0.61852 0.50202
 H122 H 0.98608 0.60825 0.56683
 H123 H 1.01766 0.51315 0.63803
 H124 H 1.00142 0.45189 0.62611
 O125 O 0.54146 0.06753 0.55711
 O126 O 0.57306 0.03298 0.51750
 C127 C 0.56845 0.05715 0.54583
 O128 O 0.45091 -0.06429 0.55026
 O129 O 0.41667 -0.02541 0.51922
 C130 C 0.42321 -0.05300 0.54219
 O131 O 0.53690 -0.06342 0.55270
 O132 O 0.57071 -0.03123 0.51530
 C133 C 0.56451 -0.05520 0.54209
 O134 O 0.45610 0.07674 0.55460
 O135 O 0.41908 0.04146 0.52143
 C136 C 0.42772 0.06844 0.54572
 Zr137 Zr 0.49715 0.05150 0.53610
 O138 O 0.49526 0.04851 0.59736
 O139 O 0.50313 0.11109 0.54129
 Zr140 Zr 0.49377 -0.04395 0.53207
 O141 O 0.49261 -0.04634 0.59336
 O142 O 0.49350 -0.10383 0.52601
 O143 O 0.52320 0.00247 0.54086
 O144 O 0.46883 0.00495 0.54216
 O145 O 0.45017 0.07526 0.42125
 O146 O 0.41600 0.04127 0.45645
 C147 C 0.42250 0.06711 0.43162
 O148 O 0.53112 -0.06054 0.40875
 O149 O 0.56782 -0.02984 0.44693
 C150 C 0.55943 -0.05244 0.41823
 O151 O 0.44630 -0.06361 0.41821
 O152 O 0.41430 -0.02595 0.45429
 C153 C 0.41925 -0.05342 0.42929
 O154 O 0.53550 0.06925 0.41513
 O155 O 0.56992 0.03319 0.44939
 C156 C 0.56315 0.05824 0.42367
 Zr157 Zr 0.49321 0.05317 0.43844
 O158 O 0.49180 0.05733 0.37717
 O159 O 0.49806 0.11302 0.44365
 Zr160 Zr 0.49009 -0.04240 0.43456
 O161 O 0.48411 -0.04101 0.37346
 O162 O 0.49175 -0.10247 0.43206
 Zr163 Zr 0.53954 0.00257 0.48370
 Zr164 Zr 0.44751 0.00671 0.48678
 O165 O 0.46447 0.00647 0.43016
 O166 O 0.51862 0.00434 0.42795
 O167 O 0.46808 0.06116 0.48844
 O168 O 0.51862 -0.05140 0.48210
 O169 O 0.52219 0.05820 0.48658
 O170 O 0.46429 -0.04929 0.48399
 H171 H 0.45571 0.00542 0.56528
 H172 H 0.53184 -0.07417 0.48054
 H173 H 0.44938 0.00660 0.40823
 H174 H 0.53675 0.07994 0.48697
 H175 H 0.49407 -0.11361 0.55274
 H176 H 0.47880 -0.11173 0.45310
 H177 H 0.49872 -0.02191 0.36403
 H178 H 0.47607 0.03939 0.36647
 H179 H 0.47936 0.12332 0.45570
 H180 H 0.48991 0.12245 0.52104
 H181 H 0.51408 0.03566 0.60664
 H182 H 0.50888 -0.02909 0.60399
 O183 O 0.54849 0.57075 0.07401
 O184 O 0.58190 0.53721 0.03593
 C185 C 0.57593 0.56137 0.06378
 O186 O 0.46249 0.43805 0.07054
 O187 O 0.42767 0.47232 0.03490
 C188 C 0.43469 0.44782 0.06116
 O189 O 0.54795 0.43944 0.07201
 O190 O 0.58167 0.47363 0.03611
 C191 C 0.57544 0.44908 0.06227
 O192 O 0.46325 0.57715 0.06682
 O193 O 0.42803 0.53936 0.03354
 C194 C 0.43528 0.56764 0.05702
 Zr195 Zr 0.50543 0.55305 0.05066
 O196 O 0.50401 0.55027 0.11182
 O197 O 0.50960 0.61296 0.05363
 Zr198 Zr 0.50485 0.45761 0.05042
 O199 O 0.50459 0.45906 0.11188
 O200 O 0.50218 0.39744 0.04939
 O201 O 0.53277 0.50552 0.05810
 O202 O 0.47832 0.50575 0.05765
 O203 O 0.46040 0.57202 -0.06482
 O204 O 0.42654 0.53595 -0.03116
 C205 C 0.43281 0.56243 -0.05528
 O206 O 0.54606 0.43709 -0.06975
 O207 O 0.58073 0.47171 -0.03209
 C208 C 0.57396 0.44692 -0.05950
 O209 O 0.46028 0.43216 -0.06484
 O210 O 0.42675 0.46969 -0.03097
 C211 C 0.43275 0.44213 -0.05531
 O212 O 0.54615 0.56798 -0.06957
 O213 O 0.58099 0.53573 -0.03212
 C214 C 0.57403 0.55902 -0.05954
 Zr215 Zr 0.50366 0.55083 -0.04725
 O216 O 0.49873 0.54933 -0.10857
 O217 O 0.50766 0.61079 -0.04744
 Zr218 Zr 0.50344 0.45523 -0.04734
 O219 O 0.49853 0.45400 -0.10867
 O220 O 0.50649 0.39527 -0.04734
 Zr221 Zr 0.55040 0.50443 0.00166
 Zr222 Zr 0.45825 0.50422 0.00152
 O223 O 0.47656 0.50277 -0.05453
 O224 O 0.53087 0.50294 -0.05497
 O225 O 0.47726 0.55947 0.00161
 O226 O 0.53105 0.44954 0.00159
 O227 O 0.53135 0.55916 0.00179
 O228 O 0.47663 0.44897 0.00150
 H229 H 0.46487 0.50702 0.08044
 H230 H 0.54505 0.42749 0.00116
 H231 H 0.46224 0.50208 -0.07732
 H232 H 0.54526 0.58151 0.00201
 H233 H 0.52123 0.38702 0.03843
 H234 H 0.49302 0.38636 -0.02667
 H235 H 0.51571 0.46884 -0.11900
 H236 H 0.51554 0.53362 -0.11897
 H237 H 0.49047 0.62146 -0.03250
 H238 H 0.49618 0.62298 0.03282
 H239 H 0.50410 0.57691 0.12179
 H240 H 0.51885 0.47953 0.12103
 C241 C 1.17701 0.19870 0.22769
 C242 C 1.18225 0.17872 0.19252
 C243 C 1.21051 0.18519 0.17416
 C244 C 1.23149 0.21269 0.18946
 C245 C 1.22412 0.23578 0.22189
 C246 C 1.19749 0.22616 0.24200
 C247 C 1.21750 0.16441 0.14052
 C248 C 1.19660 0.13835 0.12387
 C249 C 1.16754 0.13224 0.14010
 C250 C 1.16040 0.15262 0.17520
 C251 C 1.13120 0.14729 0.19123
 C252 C 1.10946 0.12360 0.17340
 C253 C 1.11572 0.10416 0.13889
 C254 C 1.14495 0.10738 0.12195
 C255 C 1.14986 0.08619 0.08709
 C256 C 1.12621 0.06458 0.06913
 C257 C 1.09703 0.06331 0.08528
 C258 C 1.09231 0.08239 0.12070
 H259 H 1.15744 0.19373 0.24538
 H260 H 1.25335 0.21650 0.17571
 H261 H 1.19221 0.23982 0.26952
 H262 H 1.23921 0.16874 0.12653
 H263 H 1.20372 0.12396 0.09766
 H264 H 1.12382 0.16190 0.21714
 H265 H 1.08716 0.12108 0.18646
 H266 H 1.17147 0.08618 0.07257
 H267 H 1.13054 0.04987 0.04181
 H268 H 1.06996 0.08111 0.13383
 C269 C 1.18417 0.73359 0.70025
 C270 C 1.18847 0.69480 0.69102
 C271 C 1.21827 0.67970 0.69639
 C272 C 1.24161 0.70170 0.71504
 C273 C 1.23553 0.73860 0.72954
 C274 C 1.20739 0.75506 0.71844
 C275 C 1.22436 0.64263 0.68362
 C276 C 1.20141 0.62018 0.66582
 C277 C 1.17103 0.63355 0.66148
 C278 C 1.16431 0.67094 0.67585
 C279 C 1.13347 0.68289 0.67608
 C280 C 1.11002 0.65985 0.66102
 C281 C 1.11639 0.62442 0.64436
 C282 C 1.14696 0.61075 0.64390
 C283 C 1.15211 0.57526 0.62494
 C284 C 1.12793 0.55475 0.60696
 C285 C 1.09784 0.56843 0.60800
 C286 C 1.09223 0.60297 0.62738
 H287 H 1.16324 0.74834 0.69314
 H288 H 1.26421 0.68964 0.71915
 H289 H 1.20285 0.78473 0.72486
 H290 H 1.24713 0.63085 0.68737
 H291 H 1.20794 0.59183 0.65704
 H292 H 1.12656 0.70960 0.68904
 H293 H 1.08666 0.67020 0.66190
 H294 H 1.17467 0.56327 0.62220
 H295 H 1.13289 0.52831 0.59173
 H296 H 1.06910 0.61417 0.62765
 C297 C 0.68214 0.18155 0.72746
 C298 C 0.68498 0.17109 0.68795
 C299 C 0.71192 0.18267 0.66911
 C300 C 0.73375 0.20673 0.68863
 C301 C 0.72880 0.22022 0.72690
 C302 C 0.70349 0.20531 0.74624
 C303 C 0.71671 0.17028 0.63087
 C304 C 0.69511 0.14736 0.61076
 C305 C 0.66727 0.13664 0.62781
 C306 C 0.66200 0.14935 0.66688
 C307 C 0.63340 0.14120 0.68331
 C308 C 0.61081 0.12104 0.66270
 C309 C 0.61566 0.10784 0.62497
 C310 C 0.64404 0.11466 0.60696
 C311 C 0.64760 0.09936 0.56880
 C312 C 0.62353 0.07961 0.54922
 C313 C 0.59519 0.07475 0.56688
 C314 C 0.59175 0.08844 0.60499
 H315 H 0.66382 0.17162 0.74509
 H316 H 0.75439 0.21460 0.67392
 H317 H 0.69975 0.21296 0.77640
 H318 H 0.73735 0.17855 0.61620
 H319 H 0.70050 0.13938 0.58130
 H320 H 0.62711 0.15121 0.71180
 H321 H 0.58907 0.11605 0.67645
 H322 H 0.66865 0.10220 0.55330
 H323 H 0.62685 0.06905 0.51982
 H324 H 0.57010 0.08421 0.61924
 C325 C 0.68973 0.68678 0.24552
 C326 C 0.69016 0.67878 0.20511
 C327 C 0.71427 0.69473 0.18398
 C328 C 0.73577 0.71938 0.20227
 C329 C 0.73546 0.72725 0.24265
 C330 C 0.71183 0.71040 0.26369
 C331 C 0.71682 0.68636 0.14440
 C332 C 0.69607 0.66208 0.12519
 C333 C 0.67115 0.64615 0.14462
 C334 C 0.66750 0.65574 0.18491
 C335 C 0.64077 0.64320 0.20321
 C336 C 0.61828 0.62234 0.18286
 C337 C 0.62197 0.61192 0.14395
 C338 C 0.64898 0.62233 0.12463
 C339 C 0.65253 0.60852 0.08598
 C340 C 0.62926 0.58755 0.06672
 C341 C 0.60175 0.57999 0.08516
 C342 C 0.59850 0.59157 0.12403
 H343 H 0.67296 0.67469 0.26416
 H344 H 0.75235 0.73246 0.18406
 H345 H 0.71055 0.71560 0.29474
 H346 H 0.73522 0.69855 0.12803
 H347 H 0.69950 0.65760 0.09455
 H348 H 0.63589 0.65042 0.23299
 H349 H 0.59771 0.61427 0.19781
 H350 H 0.67310 0.61312 0.06995
 H351 H 0.63245 0.57820 0.03691
 H352 H 0.57753 0.58481 0.13881
 C353 C 0.82139 -0.23052 0.18899
 C354 C 0.81926 -0.19176 0.17971
 C355 C 0.79652 -0.16981 0.19837
 C356 C 0.77745 -0.18602 0.22592
 C357 C 0.77927 -0.22493 0.23443
 C358 C 0.80201 -0.24646 0.21571
 C359 C 0.79288 -0.13162 0.18955
 C360 C 0.81128 -0.11459 0.16252
 C361 C 0.83468 -0.13497 0.14367
 C362 C 0.83906 -0.17405 0.15290
 C363 C 0.86361 -0.19387 0.13587
 C364 C 0.88370 -0.17605 0.11158
 C365 C 0.87982 -0.13808 0.10248
 C366 C 0.85471 -0.11720 0.11711
 C367 C 0.85121 -0.07920 0.10499
 C368 C 0.87312 -0.06211 0.08193
 C369 C 0.89902 -0.08232 0.07041
 C370 C 0.90167 -0.12059 0.07969
 H371 H 0.83743 -0.24972 0.17579
 H372 H 0.76145 -0.16763 0.24046
 H373 H 0.80437 -0.27645 0.22135
 H374 H 0.77551 -0.11463 0.20369
 H375 H 0.80711 -0.08492 0.15787
 H376 H 0.86874 -0.22306 0.14164
 H377 H 0.90275 -0.19215 0.10012
 H378 H 0.83205 -0.06179 0.11313
 H379 H 0.87053 -0.03253 0.07464
 H380 H 0.92141 -0.13657 0.07000
 C381 C 0.82548 0.29942 0.72651
 C382 C 0.82081 0.31122 0.68805
 C383 C 0.79116 0.30603 0.67098
 C384 C 0.76823 0.28593 0.69063
 C385 C 0.77439 0.27038 0.72740
 C386 C 0.80266 0.28030 0.74579
 C387 C 0.78468 0.32119 0.63458
 C388 C 0.80694 0.34142 0.61497
 C389 C 0.83714 0.34602 0.63034
 C390 C 0.84438 0.32918 0.66676
 C391 C 0.87517 0.32972 0.68035
 C392 C 0.89796 0.34767 0.66016
 C393 C 0.89106 0.36636 0.62593
 C394 C 0.86060 0.36626 0.61048
 C395 C 0.85503 0.38703 0.57628
 C396 C 0.87876 0.40688 0.55854
 C397 C 0.90888 0.40613 0.57377
 C398 C 0.91470 0.38546 0.60735
 H399 H 0.84623 0.30575 0.74310
 H400 H 0.74564 0.28245 0.67723
 H401 H 0.80746 0.27322 0.77570
 H402 H 0.76204 0.31769 0.62124
 H403 H 0.80008 0.35222 0.58711
 H404 H 0.88265 0.31529 0.70608
 H405 H 0.92129 0.34720 0.67177
 H406 H 0.83245 0.38928 0.56314
 H407 H 0.87349 0.42290 0.53282
 H408 H 0.93774 0.38511 0.61995
 C409 C 0.32225 -0.22296 0.67896
 C410 C 0.31696 -0.18607 0.66535
 C411 C 0.28993 -0.16737 0.67730
 C412 C 0.27057 -0.18409 0.70441
 C413 C 0.27867 -0.21844 0.72194
 C414 C 0.30347 -0.23867 0.70632
 C415 C 0.28268 -0.13189 0.66257
 C416 C 0.30233 -0.11380 0.63752
 C417 C 0.33039 -0.13040 0.62651
 C418 C 0.33765 -0.16730 0.64050
 C419 C 0.36597 -0.18373 0.63051
 C420 C 0.38676 -0.16473 0.60827
 C421 C 0.38035 -0.12864 0.59494
 C422 C 0.35193 -0.11102 0.60299
 C423 C 0.34678 -0.07447 0.58773
 C424 C 0.36947 -0.05595 0.56697
 C425 C 0.39792 -0.07314 0.56092
 C426 C 0.40282 -0.10979 0.57430
 H427 H 0.34068 -0.24073 0.66916
 H428 H 0.24955 -0.16991 0.71231
 H429 H 0.30884 -0.26700 0.71578
 H430 H 0.26183 -0.11759 0.67104
 H431 H 0.29519 -0.08626 0.62804
 H432 H 0.37344 -0.21095 0.64043
 H433 H 0.40845 -0.17826 0.60204
 H434 H 0.32567 -0.05924 0.59164
 H435 H 0.36503 -0.02768 0.55659
 H436 H 0.42455 -0.12368 0.56906
 C437 C 0.27334 0.31664 0.14640
 C438 C 0.29829 0.33893 0.16151
 C439 C 0.30375 0.33890 0.20218
 C440 C 0.28609 0.31636 0.22589
 C441 C 0.26307 0.29183 0.21051
 C442 C 0.25583 0.29390 0.17058
 C443 C 0.32715 0.36096 0.21937
 C444 C 0.34682 0.38140 0.19688
 C445 C 0.34397 0.38039 0.15599
 C446 C 0.31833 0.36072 0.13803
 C447 C 0.31398 0.36325 0.09739
 C448 C 0.33456 0.38318 0.07498
 C449 C 0.36087 0.40011 0.09186
 C450 C 0.36609 0.39842 0.13260
 C451 C 0.39401 0.41340 0.14827
 C452 C 0.41559 0.42952 0.12461
 C453 C 0.41021 0.43184 0.08462
 C454 C 0.38256 0.41772 0.06825
 H455 H 0.26693 0.31585 0.11599
 H456 H 0.29101 0.31675 0.25693
 H457 H 0.23658 0.27835 0.15770
 H458 H 0.33070 0.36189 0.25065
 H459 H 0.36397 0.39811 0.21263
 H460 H 0.29470 0.35020 0.08201
 H461 H 0.33031 0.38432 0.04390
 H462 H 0.40060 0.41179 0.17850
 H463 H 0.43687 0.44019 0.13779
 H464 H 0.37857 0.41898 0.03711
 C465 C 0.77472 0.19308 -0.15704
 C466 C 0.79998 0.17178 -0.17066
 C467 C 0.80655 0.17405 -0.21060
 C468 C 0.78955 0.19774 -0.23490
 C469 C 0.76643 0.22164 -0.22052
 C470 C 0.75805 0.21703 -0.18165
 C471 C 0.83035 0.15299 -0.22639
 C472 C 0.84909 0.13113 -0.20307
 C473 C 0.84487 0.12948 -0.16264
 C474 C 0.81907 0.14861 -0.14636
 C475 C 0.81359 0.14414 -0.10644
 C476 C 0.83307 0.12269 -0.08305
 C477 C 0.85934 0.10579 -0.09807
 C478 C 0.86573 0.10935 -0.13805
 C479 C 0.89345 0.09380 -0.15160
 C480 C 0.91380 0.07570 -0.12666
 C481 C 0.90742 0.07182 -0.08735
 C482 C 0.87979 0.08627 -0.07322
 H483 H 0.76730 0.19201 -0.12747
 H484 H 0.79504 0.19862 -0.26542
 H485 H 0.73838 0.23143 -0.16993
 H486 H 0.83491 0.15390 -0.25717
 H487 H 0.86664 0.11550 -0.21792
 H488 H 0.79427 0.15691 -0.09232
 H489 H 0.82794 0.12016 -0.05258
 H490 H 0.90082 0.09625 -0.18104
 H491 H 0.93496 0.06471 -0.13831
 H492 H 0.87486 0.08373 -0.04274
 C493 C 0.82655 0.73687 0.33423
 C494 C 0.82394 0.69792 0.34256
 C495 C 0.79899 0.67734 0.32517
 C496 C 0.77831 0.69494 0.29956
 C497 C 0.78074 0.73397 0.29186
 C498 C 0.80556 0.75424 0.30945
 C499 C 0.79475 0.63910 0.33327
 C500 C 0.81459 0.62071 0.35852
 C501 C 0.84011 0.63971 0.37614
 C502 C 0.84527 0.67872 0.36731
 C503 C 0.87201 0.69695 0.38262
 C504 C 0.89322 0.67771 0.40520
 C505 C 0.88839 0.63989 0.41429
 C506 C 0.86134 0.62058 0.40109
 C507 C 0.85698 0.58277 0.41315
 C508 C 0.87958 0.56432 0.43490
 C509 C 0.90713 0.58289 0.44531
 C510 C 0.91098 0.62099 0.43583
 H511 H 0.84423 0.75511 0.34681
 H512 H 0.76057 0.67751 0.28578
 H513 H 0.80844 0.78426 0.30428
 H514 H 0.77572 0.62314 0.32002
 H515 H 0.80978 0.59109 0.36270
 H516 H 0.87790 0.72590 0.37667
 H517 H 0.91381 0.69261 0.41544
 H518 H 0.83646 0.56657 0.40616
 H519 H 0.87592 0.53496 0.44235
 H520 H 0.93198 0.63586 0.44462
 C521 C 0.31996 0.21110 0.26433
 C522 C 0.31452 0.19662 0.30130
 C523 C 0.28529 0.20282 0.31729
 C524 C 0.26350 0.22569 0.29802
 C525 C 0.27040 0.24314 0.26278
 C526 C 0.29832 0.23316 0.24547
 C527 C 0.27797 0.18570 0.35208
 C528 C 0.29902 0.16248 0.37116
 C529 C 0.32877 0.15649 0.35680
 C530 C 0.33687 0.17508 0.32199
 C531 C 0.36735 0.17247 0.30934
 C532 C 0.38888 0.15092 0.32870
 C533 C 0.38108 0.13105 0.36145
 C534 C 0.35101 0.13319 0.37617
 C535 C 0.34471 0.11168 0.40941
 C536 C 0.36757 0.08974 0.42732
 C537 C 0.39734 0.08870 0.41281
 C538 C 0.40365 0.10931 0.37969
 H539 H 0.34028 0.20462 0.24828
 H540 H 0.24108 0.22965 0.31034
 H541 H 0.30364 0.24179 0.21647
 H542 H 0.25560 0.18998 0.36452
 H543 H 0.29155 0.15027 0.39773
 H544 H 0.37569 0.18781 0.28503
 H545 H 0.41203 0.14986 0.31784
 H546 H 0.32233 0.11099 0.42203
 H547 H 0.36201 0.07394 0.45282
 H548 H 0.42643 0.10844 0.36769
 C549 C 0.32833 0.74094 -0.18015
 C550 C 0.32324 0.70320 -0.16892
 C551 C 0.29486 0.68586 -0.18003
 C552 C 0.27380 0.70472 -0.20429
 C553 C 0.28088 0.74061 -0.21901
 C554 C 0.30754 0.75912 -0.20434
 C555 C 0.28779 0.64969 -0.16709
 C556 C 0.30863 0.62987 -0.14419
 C557 C 0.33782 0.64521 -0.13397
 C558 C 0.34530 0.68238 -0.14694
 C559 C 0.37503 0.69706 -0.13886
 C560 C 0.39678 0.67636 -0.11884
 C561 C 0.38987 0.64034 -0.10577
 C562 C 0.36022 0.62432 -0.11227
 C563 C 0.35457 0.58792 -0.09708
 C564 C 0.37783 0.56802 -0.07777
 C565 C 0.40733 0.58363 -0.07324
 C566 C 0.41293 0.62005 -0.08674
 H567 H 0.34798 0.75757 -0.17047
 H568 H 0.25196 0.69126 -0.21146
 H569 H 0.31260 0.78803 -0.21223
 H570 H 0.26599 0.63636 -0.17506
 H571 H 0.30147 0.60197 -0.13591
 H572 H 0.38278 0.72411 -0.14883
 H573 H 0.41947 0.68859 -0.11394
 H574 H 0.33252 0.57401 -0.09961
 H575 H 0.37289 0.54000 -0.06715
 H576 H 0.43554 0.63275 -0.08255
 C577 C 1.23219 -0.14972 -0.18554
 C578 C 1.20669 -0.16527 -0.16646
 C579 C 1.20135 -0.20480 -0.17128
 C580 C 1.21953 -0.22686 -0.19561
 C581 C 1.24251 -0.21065 -0.21797
 C582 C 1.25003 -0.17223 -0.21041
 C583 C 1.17739 -0.22238 -0.15256
 C584 C 1.15680 -0.20113 -0.13143
 C585 C 1.15948 -0.16126 -0.12820
 C586 C 1.18592 -0.14323 -0.14355
 C587 C 1.19025 -0.10394 -0.13589
 C588 C 1.16884 -0.08280 -0.11525
 C589 C 1.14173 -0.09957 -0.10302
 C590 C 1.13646 -0.13894 -0.11005
 C591 C 1.10766 -0.15421 -0.10029
 C592 C 1.08537 -0.13148 -0.08358
 C593 C 1.09102 -0.09298 -0.07549
 C594 C 1.11938 -0.07712 -0.08476
 H595 H 1.23861 -0.12019 -0.18241
 H596 H 1.21473 -0.25705 -0.19869
 H597 H 1.26963 -0.15928 -0.22356
 H598 H 1.17396 -0.25288 -0.15516
 H599 H 1.13908 -0.21692 -0.11755
 H600 H 1.21015 -0.08873 -0.14526
 H601 H 1.17309 -0.05272 -0.10995
 H602 H 1.10107 -0.18329 -0.10661
 H603 H 1.06350 -0.14419 -0.07680
 H604 H 1.12354 -0.04711 -0.07915
 C605 C 1.18413 0.33911 0.26175
 C606 C 1.18814 0.34807 0.30168
 C607 C 1.21413 0.33289 0.32125
 C608 C 1.23391 0.30751 0.30181
 C609 C 1.22767 0.29593 0.26297
 C610 C 1.20337 0.31374 0.24310
 C611 C 1.21993 0.34272 0.36025
 C612 C 1.19994 0.36614 0.38067
 C613 C 1.17292 0.38034 0.36294
 C614 C 1.16704 0.37121 0.32271
 C615 C 1.13960 0.38424 0.30506
 C616 C 1.11822 0.40449 0.32600
 C617 C 1.12324 0.41300 0.36526
 C618 C 1.15094 0.40215 0.38428
 C619 C 1.15492 0.41295 0.42405
 C620 C 1.13159 0.43156 0.44420
 C621 C 1.10367 0.43987 0.42546
 C622 C 1.10006 0.43142 0.38578
 H623 H 1.16629 0.35098 0.24376
 H624 H 1.25391 0.29697 0.31714
 H625 H 1.19876 0.30712 0.21262
 H626 H 1.23993 0.33170 0.37539
 H627 H 1.20593 0.37172 0.41079
 H628 H 1.13321 0.37823 0.27519
 H629 H 1.09715 0.41298 0.31135
 H630 H 1.17555 0.40701 0.44057
 H631 H 1.13501 0.43817 0.47490
 H632 H 1.07873 0.43851 0.37087
 C633 C 0.72269 -0.18486 0.34771
 C634 C 0.69858 -0.16590 0.32848
 C635 C 0.69410 -0.17342 0.28818
 C636 C 0.71414 -0.19744 0.26798
 C637 C 0.73865 -0.21583 0.28712
 C638 C 0.74184 -0.20962 0.32768
 C639 C 0.66922 -0.15760 0.26837
 C640 C 0.64776 -0.13597 0.28813
 C641 C 0.65098 -0.12829 0.32847
 C642 C 0.67789 -0.14131 0.34834
 C643 C 0.68332 -0.12918 0.38730
 C644 C 0.66209 -0.10727 0.40707
 C645 C 0.63435 -0.09748 0.38919
 C646 C 0.62825 -0.10800 0.34968
 C647 C 0.59910 -0.09915 0.33354
 C648 C 0.57706 -0.08089 0.35584
 C649 C 0.58342 -0.07025 0.39463
 C650 C 0.61232 -0.07797 0.41095
 H651 H 0.72641 -0.18269 0.37874
 H652 H 0.71036 -0.20260 0.23706
 H653 H 0.75849 -0.22444 0.34514
 H654 H 0.66582 -0.16283 0.23741
 H655 H 0.62913 -0.12492 0.27077
 H656 H 0.70421 -0.13554 0.40312
 H657 H 0.66712 -0.09879 0.43704
 H658 H 0.59215 -0.10727 0.30426
 H659 H 0.55481 -0.07517 0.34262
 H660 H 0.61724 -0.07020 0.44113
 C661 C 0.68288 0.31770 -0.23585
 C662 C 0.68723 0.33174 -0.19739
 C663 C 0.71558 0.32388 -0.17836
 C664 C 0.73693 0.29914 -0.19589
 C665 C 0.72970 0.28007 -0.23145
 C666 C 0.70376 0.29280 -0.25246
 C667 C 0.72201 0.33996 -0.14159
 C668 C 0.70047 0.36246 -0.12268
 C669 C 0.67113 0.36912 -0.13950
 C670 C 0.66440 0.35318 -0.17740
 C671 C 0.63455 0.35755 -0.19343
 C672 C 0.61199 0.37678 -0.17335
 C673 C 0.61816 0.39288 -0.13665
 C674 C 0.64791 0.39008 -0.11935
 C675 C 0.65289 0.40815 -0.08246
 C676 C 0.62911 0.42702 -0.06343
 C677 C 0.59953 0.42832 -0.08022
 C678 C 0.59440 0.41141 -0.11703
 H679 H 0.66355 0.32534 -0.25400
 H680 H 0.75855 0.29355 -0.18104
 H681 H 0.69887 0.28246 -0.28183
 H682 H 0.74378 0.33459 -0.12694
 H683 H 0.70717 0.37320 -0.09416
 H684 H 0.62738 0.34510 -0.22107
 H685 H 0.58928 0.37877 -0.18666
 H686 H 0.67490 0.40840 -0.06757
 H687 H 0.63381 0.44009 -0.03508
 H688 H 0.57176 0.41278 -0.13065
 C689 C 1.18508 0.21996 -0.16993
 C690 C 1.18806 0.18140 -0.16065
 C691 C 1.21512 0.16241 -0.17193
 C692 C 1.23620 0.18034 -0.19607
 C693 C 1.22990 0.21653 -0.21077
 C694 C 1.20564 0.23705 -0.19421
 C695 C 1.22043 0.12542 -0.15985
 C696 C 1.19886 0.10639 -0.13812
 C697 C 1.17056 0.12331 -0.12868
 C698 C 1.16499 0.16128 -0.14076
 C699 C 1.13585 0.17734 -0.13465
 C700 C 1.11288 0.15723 -0.11720
 C701 C 1.11804 0.12059 -0.10451
 C702 C 1.14708 0.10324 -0.10899
 C703 C 1.15108 0.06652 -0.09370
 C704 C 1.12686 0.04768 -0.07608
 C705 C 1.09790 0.06451 -0.07384
 C706 C 1.09390 0.10115 -0.08770
 H707 H 1.16709 0.23780 -0.15890
 H708 H 1.25687 0.16557 -0.20432
 H709 H 1.20174 0.26644 -0.20127
 H710 H 1.24127 0.11078 -0.16778
 H711 H 1.20447 0.07771 -0.13056
 H712 H 1.12947 0.20497 -0.14472
 H713 H 1.09066 0.17049 -0.11388
 H714 H 1.17269 0.05182 -0.09448
 H715 H 1.13070 0.01973 -0.06465
 H716 H 1.07181 0.11492 -0.08505
 C717 C 1.22272 0.64765 0.31448
 C718 C 1.19786 0.66244 0.33568
 C719 C 1.19010 0.70088 0.32995
 C720 C 1.20496 0.72223 0.30214
 C721 C 1.22755 0.70630 0.27792
 C722 C 1.23759 0.66935 0.28696
 C723 C 1.16728 0.71806 0.35172
 C724 C 1.15099 0.69759 0.37822
 C725 C 1.15649 0.65856 0.38368
 C726 C 1.18051 0.64069 0.36232
 C727 C 1.18556 0.60148 0.36730
 C728 C 1.16722 0.58016 0.39123
 C729 C 1.14318 0.59692 0.41136
 C730 C 1.13795 0.63656 0.40864
 C731 C 1.11354 0.65230 0.43001
 C732 C 1.09383 0.62930 0.45035
 C733 C 1.09804 0.59002 0.45117
 C734 C 1.12346 0.57401 0.43291
 H735 H 1.23163 0.61958 0.31891
 H736 H 1.19838 0.75163 0.29869
 H737 H 1.25724 0.65682 0.27309
 H738 H 1.16162 0.74769 0.34787
 H739 H 1.13359 0.71328 0.39325
 H740 H 1.20301 0.58603 0.35203
 H741 H 1.17147 0.54997 0.39327
 H742 H 1.10835 0.68213 0.43095
 H743 H 1.07457 0.64227 0.46485
 H744 H 1.12676 0.54352 0.43345
 C745 C 0.68008 0.22925 0.31044
 C746 C 0.67949 0.18942 0.31365
 C747 C 0.70396 0.16842 0.29760
 C748 C 0.72688 0.18670 0.27676
 C749 C 0.72720 0.22654 0.27348
 C750 C 0.70331 0.24718 0.29087
 C751 C 0.70545 0.12924 0.30252
 C752 C 0.68358 0.11058 0.32389
 C753 C 0.65848 0.13025 0.33979
 C754 C 0.65562 0.16994 0.33277
 C755 C 0.62860 0.18870 0.34405
 C756 C 0.60559 0.16974 0.36282
 C757 C 0.60890 0.13172 0.37207
 C758 C 0.63562 0.11148 0.36153
 C759 C 0.63841 0.07349 0.37378
 C760 C 0.61514 0.05629 0.39453
 C761 C 0.58834 0.07619 0.40309
 C762 C 0.58545 0.11387 0.39189
 H763 H 0.66341 0.24762 0.32370
 H764 H 0.74416 0.16936 0.26321
 H765 H 0.70279 0.27787 0.28940
 H766 H 0.72404 0.11288 0.29027
 H767 H 0.68636 0.08034 0.32632
 H768 H 0.62396 0.21789 0.33750
 H769 H 0.58506 0.18519 0.37053
 H770 H 0.65853 0.05664 0.36852
 H771 H 0.61789 0.02717 0.40335
 H772 H 0.56498 0.12964 0.39927
 C773 C 0.67492 0.68069 -0.24211
 C774 C 0.67991 0.67210 -0.20273
 C775 C 0.70765 0.68500 -0.18442
 C776 C 0.72799 0.70879 -0.20413
 C777 C 0.72088 0.72059 -0.24211
 C778 C 0.69503 0.70401 -0.26120
 C779 C 0.71477 0.67409 -0.14657
 C780 C 0.69476 0.65120 -0.12634
 C781 C 0.66619 0.63921 -0.14281
 C782 C 0.65843 0.65071 -0.18133
 C783 C 0.62892 0.64182 -0.19684
 C784 C 0.60781 0.62187 -0.17587
 C785 C 0.61520 0.60953 -0.13880
 C786 C 0.64462 0.61717 -0.12180
 C787 C 0.65091 0.60250 -0.08447
 C788 C 0.62842 0.58260 -0.06460
 C789 C 0.59900 0.57703 -0.08107
 C790 C 0.59285 0.59007 -0.11844
 H791 H 0.65595 0.66929 -0.25938
 H792 H 0.74930 0.71764 -0.18986
 H793 H 0.69000 0.70976 -0.29143
 H794 H 0.73605 0.68342 -0.13236
 H795 H 0.70189 0.64438 -0.09720
 H796 H 0.62082 0.65122 -0.22473
 H797 H 0.58526 0.61629 -0.18881
 H798 H 0.67296 0.60580 -0.06994
 H799 H 0.63387 0.57234 -0.03590
 H800 H 0.57036 0.58519 -0.13184
 C801 C 0.81379 -0.19335 -0.24219
 C802 C 0.81010 -0.18069 -0.20343
 C803 C 0.78162 -0.18815 -0.18606
 C804 C 0.75909 -0.21079 -0.20586
 C805 C 0.76470 -0.22718 -0.24281
 C806 C 0.79148 -0.21551 -0.26139
 C807 C 0.77594 -0.17297 -0.14907
 C808 C 0.79802 -0.15095 -0.12882
 C809 C 0.82724 -0.14418 -0.14433
 C810 C 0.83355 -0.16026 -0.18186
 C811 C 0.86347 -0.15666 -0.19619
 C812 C 0.88631 -0.13722 -0.17523
 C813 C 0.88035 -0.12020 -0.13931
 C814 C 0.85071 -0.12278 -0.12337
 C815 C 0.84606 -0.10374 -0.08718
 C816 C 0.87008 -0.08404 -0.06755
 C817 C 0.89950 -0.08296 -0.08309
 C818 C 0.90425 -0.10091 -0.11915
 H819 H 0.83338 -0.18588 -0.25896
 H820 H 0.73731 -0.21574 -0.19232
 H821 H 0.79549 -0.22384 -0.29131
 H822 H 0.75414 -0.17816 -0.13558
 H823 H 0.79184 -0.14054 -0.10040
 H824 H 0.87042 -0.16982 -0.22313
 H825 H 0.90902 -0.13561 -0.18732
 H826 H 0.82410 -0.10328 -0.07346
 H827 H 0.86574 -0.07018 -0.03979
 H828 H 0.92676 -0.09972 -0.13184
 C829 C 0.78548 0.29916 0.34362
 C830 C 0.80766 0.32374 0.32863
 C831 C 0.81246 0.32175 0.28810
 C832 C 0.79438 0.29766 0.26370
 C833 C 0.77075 0.27518 0.27849
 C834 C 0.76782 0.27521 0.31924
 C835 C 0.83539 0.34370 0.27210
 C836 C 0.85440 0.36671 0.29561
 C837 C 0.85081 0.36923 0.33627
 C838 C 0.82602 0.34896 0.35274
 C839 C 0.82026 0.35480 0.39265
 C840 C 0.83939 0.37752 0.41632
 C841 C 0.86523 0.39484 0.40140
 C842 C 0.87127 0.39111 0.36110
 C843 C 0.89831 0.40815 0.34762
 C844 C 0.91876 0.42688 0.37321
 C845 C 0.91290 0.42991 0.41293
 C846 C 0.88565 0.41486 0.42679
 H847 H 0.78193 0.29673 0.37431
 H848 H 0.79834 0.29666 0.23272
 H849 H 0.75234 0.25621 0.33330
 H850 H 0.83900 0.34269 0.24105
 H851 H 0.87145 0.38274 0.28080
 H852 H 0.80075 0.34256 0.40645
 H853 H 0.83431 0.38077 0.44689
 H854 H 0.90511 0.40620 0.31779
 H855 H 0.93969 0.43857 0.36188
 H856 H 0.88121 0.41690 0.45762
 C857 C 0.31225 -0.24177 0.31088
 C858 C 0.30732 -0.20328 0.32105
 C859 C 0.27866 -0.18738 0.31050
 C860 C 0.25702 -0.20864 0.28767
 C861 C 0.26373 -0.24580 0.27358
 C862 C 0.29097 -0.26237 0.28821
 C863 C 0.27182 -0.15030 0.32270
 C864 C 0.29308 -0.12837 0.34443
 C865 C 0.32250 -0.14242 0.35416
 C866 C 0.32979 -0.18039 0.34173
 C867 C 0.35972 -0.19394 0.34912
 C868 C 0.38173 -0.17158 0.36824
 C869 C 0.37498 -0.13484 0.38100
 C870 C 0.34525 -0.11965 0.37490
 C871 C 0.33994 -0.08224 0.38964
 C872 C 0.36354 -0.06078 0.40823
 C873 C 0.39308 -0.07579 0.41241
 C874 C 0.39830 -0.11307 0.39928
 H875 H 0.33216 -0.25724 0.32040
 H876 H 0.23501 -0.19596 0.28107
 H877 H 0.29624 -0.29178 0.28136
 H878 H 0.24982 -0.13795 0.31517
 H879 H 0.28605 -0.09998 0.35233
 H880 H 0.36739 -0.22148 0.33931
 H881 H 0.40451 -0.18315 0.37272
 H882 H 0.31786 -0.06878 0.38723
 H883 H 0.35885 -0.03211 0.41851
 H884 H 0.42091 -0.12536 0.40316
 C885 C 0.32276 0.26080 -0.18147
 C886 C 0.31861 0.29903 -0.16960
 C887 C 0.28986 0.31584 -0.17809
 C888 C 0.26744 0.29591 -0.20081
 C889 C 0.27335 0.25931 -0.21631
 C890 C 0.30049 0.24141 -0.20375
 C891 C 0.28371 0.35243 -0.16390
 C892 C 0.30564 0.37291 -0.14188
 C893 C 0.33510 0.35794 -0.13406
 C894 C 0.34185 0.32071 -0.14904
 C895 C 0.37197 0.30676 -0.14427
 C896 C 0.39464 0.32800 -0.12495
 C897 C 0.38829 0.36380 -0.10919
 C898 C 0.35839 0.37921 -0.11276
 C899 C 0.35328 0.41529 -0.09487
 C900 C 0.37716 0.43542 -0.07560
 C901 C 0.40686 0.42045 -0.07372
 C902 C 0.41205 0.38441 -0.09023
 H903 H 0.34269 0.24463 -0.17327
 H904 H 0.24547 0.30909 -0.20644
 H905 H 0.30475 0.21194 -0.21147
 H906 H 0.26169 0.36544 -0.16993
 H907 H 0.29909 0.40103 -0.13237
 H908 H 0.37919 0.27988 -0.15644
 H909 H 0.41753 0.31625 -0.12249
 H910 H 0.33110 0.42863 -0.09502
 H911 H 0.37245 0.46310 -0.06272
 H912 H 0.43480 0.37217 -0.08832
 C913 C 1.16766 -0.24371 0.19687
 C914 C 1.17406 -0.20771 0.18182
 C915 C 1.20452 -0.19384 0.18598
 C916 C 1.22675 -0.21398 0.20746
 C917 C 1.21923 -0.24787 0.22652
 C918 C 1.18977 -0.26344 0.21793
 C919 C 1.21263 -0.15990 0.16869
 C920 C 1.19110 -0.13926 0.14757
 C921 C 1.16017 -0.15128 0.14369
 C922 C 1.15141 -0.18562 0.16200
 C923 C 1.12013 -0.19626 0.16094
 C924 C 1.09822 -0.17487 0.14178
 C925 C 1.10644 -0.14215 0.12256
 C926 C 1.13750 -0.12989 0.12278
 C927 C 1.14439 -0.09685 0.10184
 C928 C 1.12133 -0.07689 0.08214
 C929 C 1.09063 -0.08890 0.08280
 C930 C 1.08351 -0.12164 0.10315
 H931 H 1.14596 -0.25805 0.19202
 H932 H 1.24994 -0.20281 0.20974
 H933 H 1.18345 -0.29136 0.22762
 H934 H 1.23595 -0.14913 0.17147
 H935 H 1.19931 -0.11334 0.13539
 H936 H 1.11157 -0.22057 0.17574
 H937 H 1.07446 -0.18414 0.14201
 H938 H 1.16740 -0.08593 0.09966
 H939 H 1.12758 -0.05180 0.06650
 H940 H 1.05994 -0.13164 0.10355
 C941 C 1.18043 0.25923 0.69326
 C942 C 1.18533 0.29722 0.68293
 C943 C 1.21382 0.31441 0.69384
 C944 C 1.23515 0.29510 0.71751
 C945 C 1.22818 0.25887 0.73155
 C946 C 1.20142 0.24064 0.71672
 C947 C 1.22067 0.35078 0.68118
 C948 C 1.19961 0.37071 0.65857
 C949 C 1.17035 0.35538 0.64860
 C950 C 1.16296 0.31830 0.66178
 C951 C 1.13299 0.30392 0.65481
 C952 C 1.11109 0.32453 0.63498
 C953 C 1.11806 0.36017 0.62101
 C954 C 1.14782 0.37610 0.62689
 C955 C 1.15348 0.41210 0.61080
 C956 C 1.13021 0.43160 0.59099
 C957 C 1.10061 0.41607 0.58689
 C958 C 1.09498 0.38010 0.60158
 H959 H 1.16081 0.24270 0.68325
 H960 H 1.25704 0.30840 0.72483
 H961 H 1.19634 0.21156 0.72398
 H962 H 1.24252 0.36408 0.68898
 H963 H 1.20661 0.39871 0.65034
 H964 H 1.12520 0.27720 0.66560
 H965 H 1.08828 0.31245 0.63078
 H966 H 1.17564 0.42582 0.61280
 H967 H 1.13532 0.45912 0.57934
 H968 H 1.07236 0.36733 0.59789
 C969 C 0.67404 -0.18450 0.71651
 C970 C 0.67752 -0.17312 0.67792
 C971 C 0.70492 -0.18351 0.65913
 C972 C 0.72622 -0.20793 0.67724
 C973 C 0.72002 -0.22369 0.71350
 C974 C 0.69493 -0.20878 0.73382
 C975 C 0.71060 -0.16976 0.62228
 C976 C 0.68934 -0.14676 0.60334
 C977 C 0.66098 -0.13738 0.62014
 C978 C 0.65485 -0.15145 0.65781
 C979 C 0.62571 -0.14486 0.67363
 C980 C 0.60342 -0.12473 0.65383
 C981 C 0.60916 -0.11000 0.61761
 C982 C 0.63809 -0.11539 0.60030
 C983 C 0.64261 -0.09862 0.56383
 C984 C 0.61906 -0.07848 0.54522
 C985 C 0.59024 -0.07468 0.56208
 C986 C 0.58570 -0.09025 0.59847
 H987 H 0.65561 -0.17478 0.73445
 H988 H 0.74730 -0.21501 0.66278
 H989 H 0.69091 -0.21656 0.76348
 H990 H 0.73163 -0.17710 0.60776
 H991 H 0.69539 -0.13773 0.57486
 H992 H 0.61885 -0.15618 0.70087
 H993 H 0.58126 -0.12089 0.66701
 H994 H 0.66408 -0.10037 0.54904
 H995 H 0.62328 -0.06643 0.51721
 H996 H 0.56369 -0.08693 0.61218
 C997 C 0.68950 0.27017 0.17260
 C998 C 0.68905 0.31019 0.17143
 C999 C 0.71152 0.33062 0.19387
 C1000 C 0.73183 0.31161 0.21890
 C1001 C 0.73168 0.27161 0.22074
 C1002 C 0.71015 0.25155 0.19677
 C1003 C 0.71328 0.37011 0.19180
 C1004 C 0.69316 0.38984 0.16792
 C1005 C 0.66954 0.37088 0.14629
 C1006 C 0.66685 0.33052 0.14914
 C1007 C 0.64127 0.31198 0.13114
 C1008 C 0.61903 0.33206 0.11113
 C1009 C 0.62183 0.37115 0.10709
 C1010 C 0.64762 0.39107 0.12329
 C1011 C 0.65020 0.43039 0.11583
 C1012 C 0.62720 0.44919 0.09496
 C1013 C 0.60095 0.42951 0.08158
 C1014 C 0.59860 0.39049 0.08723
 H1015 H 0.67442 0.25224 0.15489
 H1016 H 0.74688 0.32876 0.23750
 H1017 H 0.70912 0.22080 0.19718
 H1018 H 0.73048 0.38599 0.20878
 H1019 H 0.69586 0.42028 0.16839
 H1020 H 0.63695 0.28199 0.13346
 H1021 H 0.59935 0.31675 0.09868
 H1022 H 0.66981 0.44726 0.12530
 H1023 H 0.62953 0.47936 0.09019
 H1024 H 0.57857 0.37507 0.07589
 C1025 C 0.81787 0.17866 0.23445
 C1026 C 0.81928 0.17465 0.19358
 C1027 C 0.79737 0.19445 0.17106
 C1028 C 0.77634 0.21893 0.18882
 C1029 C 0.77444 0.22228 0.22962
 C1030 C 0.79592 0.20183 0.25189
 C1031 C 0.79648 0.18988 0.13069
 C1032 C 0.81644 0.16530 0.11208
 C1033 C 0.83912 0.14547 0.13309
 C1034 C 0.84155 0.15168 0.17428
 C1035 C 0.86674 0.13588 0.19454
 C1036 C 0.88876 0.11472 0.17524
 C1037 C 0.88584 0.10699 0.13540
 C1038 C 0.86031 0.12091 0.11400
 C1039 C 0.85701 0.10941 0.07439
 C1040 C 0.87918 0.08698 0.05645
 C1041 C 0.90548 0.07596 0.07710
 C1042 C 0.90848 0.08558 0.11672
 H1043 H 0.83287 0.16347 0.25383
 H1044 H 0.76174 0.23530 0.16998
 H1045 H 0.79556 0.20370 0.28332
 H1046 H 0.77982 0.20509 0.11324
 H1047 H 0.81441 0.16368 0.08083
 H1048 H 0.87083 0.14079 0.22523
 H1049 H 0.90819 0.10404 0.19178
 H1050 H 0.83728 0.11669 0.05671
 H1051 H 0.87612 0.07902 0.02606
 H1052 H 0.92842 0.07608 0.13312
 C1053 C 0.76895 0.68346 0.64763
 C1054 C 0.79450 0.66492 0.66486
 C1055 C 0.80010 0.67180 0.70505
 C1056 C 0.78239 0.69776 0.72594
 C1057 C 0.75877 0.71864 0.70811
 C1058 C 0.75113 0.70927 0.66909
 C1059 C 0.82358 0.65305 0.72456
 C1060 C 0.84279 0.62859 0.70484
 C1061 C 0.83967 0.62228 0.66430
 C1062 C 0.81471 0.64002 0.64400
 C1063 C 0.81143 0.63305 0.60354
 C1064 C 0.83230 0.61062 0.58338
 C1065 C 0.85740 0.59442 0.60251
 C1066 C 0.86121 0.59961 0.64336
 C1067 C 0.88721 0.58302 0.66141
 C1068 C 0.90910 0.56402 0.63971
 C1069 C 0.90580 0.56001 0.59939
 C1070 C 0.87941 0.57420 0.58091
 H1071 H 0.76194 0.67836 0.61774
 H1072 H 0.78746 0.70248 0.75667
 H1073 H 0.73120 0.72130 0.65495
 H1074 H 0.82744 0.65769 0.75555
 H1075 H 0.86021 0.61551 0.72252
 H1076 H 0.79321 0.64525 0.58637
 H1077 H 0.82913 0.60670 0.55222
 H1078 H 0.89206 0.58501 0.69215
 H1079 H 0.92916 0.55289 0.65460
 H1080 H 0.87686 0.57132 0.54957
 C1081 C 0.27270 0.15081 0.69164
 C1082 C 0.29866 0.16561 0.67299
 C1083 C 0.30657 0.20405 0.68129
 C1084 C 0.29037 0.22557 0.70845
 C1085 C 0.26638 0.20982 0.72949
 C1086 C 0.25657 0.17280 0.71875
 C1087 C 0.33076 0.22117 0.66262
 C1088 C 0.34860 0.20048 0.63720
 C1089 C 0.34320 0.16138 0.62975
 C1090 C 0.31711 0.14392 0.64664
 C1091 C 0.31081 0.10534 0.63715
 C1092 C 0.32990 0.08418 0.61316
 C1093 C 0.35638 0.10025 0.59835
 C1094 C 0.36337 0.13913 0.60640
 C1095 C 0.39107 0.15381 0.59208
 C1096 C 0.41114 0.13073 0.57168
 C1097 C 0.40436 0.09238 0.56421
 C1098 C 0.37655 0.07737 0.57667
 H1099 H 0.26411 0.12245 0.68580
 H1100 H 0.29682 0.25507 0.71376
 H1101 H 0.23617 0.16063 0.73077
 H1102 H 0.33628 0.25092 0.66813
 H1103 H 0.36657 0.21624 0.62388
 H1104 H 0.29133 0.09044 0.64815
 H1105 H 0.32433 0.05454 0.60706
 H1106 H 0.39867 0.18265 0.59723
 H1107 H 0.43245 0.14295 0.56206
 H1108 H 0.37137 0.04753 0.57119
 C1109 C 0.26618 0.65357 0.17535
 C1110 C 0.29496 0.66727 0.16328
 C1111 C 0.30347 0.70455 0.17564
 C1112 C 0.28552 0.72527 0.20176
 C1113 C 0.25930 0.70925 0.21860
 C1114 C 0.24844 0.67461 0.20160
 C1115 C 0.33031 0.72102 0.16263
 C1116 C 0.35023 0.70041 0.13971
 C1117 C 0.34435 0.66197 0.12929
 C1118 C 0.31570 0.64550 0.13985
 C1119 C 0.30934 0.60757 0.12771
 C1120 C 0.33058 0.58607 0.10714
 C1121 C 0.35926 0.60111 0.09844
 C1122 C 0.36648 0.63935 0.10930
 C1123 C 0.39615 0.65299 0.10106
 C1124 C 0.41772 0.62959 0.08368
 C1125 C 0.41075 0.59178 0.07333
 C1126 C 0.38116 0.57783 0.07998
 H1127 H 0.25682 0.62661 0.16529
 H1128 H 0.29292 0.75380 0.21021
 H1129 H 0.22657 0.66287 0.20973
 H1130 H 0.33641 0.75004 0.17101
 H1131 H 0.37031 0.71560 0.13101
 H1132 H 0.28820 0.59338 0.13426
 H1133 H 0.32480 0.55694 0.09889
 H1134 H 0.40397 0.68130 0.10864
 H1135 H 0.44026 0.64130 0.07851
 H1136 H 0.37559 0.54851 0.07223
   
