data_POSCAR
  _audit_creation_date              2014-09-24
  _audit_creation_method            'ToBaCCo'
  _symmetry_space_group_name_H-M    'P1'
  _symmetry_Int_Tables_number       1
  _symmetry_cell_setting            triclinic
  loop_
  _symmetry_equiv_pos_as_xyz
 x,y,z
_cell_length_a 45.5548
_cell_length_b 45.5639
_cell_length_c 45.5591
_cell_angle_alpha 90.033900
_cell_angle_beta 90.033700
_cell_angle_gamma 89.999700
loop_
  _atom_site_label
  _atom_site_type_symbol
  _atom_site_fract_x
  _atom_site_fract_y
  _atom_site_fract_z
O1 O 0.22701 1.02809 0.02806
 O2 O 0.22697 0.97100 -0.02928
 O3 O 0.22658 0.97096 0.02786
 O4 O 0.22656 1.02816 -0.02909
 O5 O 0.27511 1.02820 -0.02913
 O6 O 0.27513 0.97090 0.02791
 O7 O 0.27552 0.97103 -0.02924
 O8 O 0.27556 1.02805 0.02802
 Cu9 Cu 0.22188 0.99955 -0.00062
 Cu10 Cu 0.28023 0.99954 -0.00062
 C11 C 0.25132 1.03770 0.03771
 C12 C 0.25127 0.96137 -0.03893
 C13 C 0.25082 0.96127 0.03751
 C14 C 0.25080 1.03786 -0.03872
 O15 O 0.72742 0.52859 0.52856
 O16 O 0.72739 0.47150 0.47122
 O17 O 0.72700 0.47142 0.52840
 O18 O 0.72698 0.52868 0.47138
 O19 O 0.77552 0.52872 0.47134
 O20 O 0.77554 0.47136 0.52846
 O21 O 0.77594 0.47153 0.47127
 O22 O 0.77597 0.52855 0.52853
 Cu23 Cu 0.72230 0.50005 0.49989
 Cu24 Cu 0.78063 0.50004 0.49990
 C25 C 0.75172 0.53820 0.53821
 C26 C 0.75169 0.46189 0.46158
 C27 C 0.75124 0.46171 0.53807
 C28 C 0.75121 0.53838 0.46172
 O29 O 0.72435 0.97154 1.02965
 O30 O 0.72445 1.02852 0.97236
 O31 O 0.72488 0.97134 0.97247
 O32 O 0.72475 1.02874 1.02955
 O33 O 0.77329 1.02870 1.02963
 O34 O 0.77343 0.97140 0.97265
 O35 O 0.77300 1.02857 0.97245
 O36 O 0.77289 0.97151 1.02982
 Cu37 Cu 0.71972 1.00003 1.00100
 Cu38 Cu 0.77804 1.00005 1.00116
 C39 C 0.74858 0.96188 1.03941
 C40 C 0.74872 1.03816 0.96272
 C41 C 0.74921 0.96169 0.96293
 C42 C 0.74903 1.03841 1.03922
 O43 O 0.22430 0.47166 0.52858
 O44 O 0.22423 0.52858 0.47136
 O45 O 0.22470 0.47143 0.47142
 O46 O 0.22469 0.52881 0.52853
 O47 O 0.27324 0.52880 0.52848
 O48 O 0.27325 0.47152 0.47147
 O49 O 0.27278 0.52866 0.47132
 O50 O 0.27285 0.47166 0.52862
 Cu51 Cu 0.21958 0.50012 0.49997
 Cu52 Cu 0.27793 0.50016 0.49997
 C53 C 0.24856 0.46205 0.53826
 C54 C 0.24846 0.53823 0.46168
 C55 C 0.24901 0.46179 0.46182
 C56 C 0.24899 0.53848 0.53814
 O57 O 1.02814 0.27548 0.02809
 O58 O 0.97095 0.27554 -0.02900
 O59 O 0.97098 0.27502 0.02816
 O60 O 1.02812 0.27518 -0.02906
 O61 O 1.02811 0.22664 -0.02913
 O62 O 0.97107 0.22648 0.02799
 O63 O 0.97095 0.22701 -0.02916
 O64 O 1.02822 0.22694 0.02801
 Cu65 Cu 0.99954 0.28021 -0.00044
 Cu66 Cu 0.99959 0.22187 -0.00059
 C67 C 1.03784 0.25122 0.03769
 C68 C 0.96128 0.25131 -0.03872
 C69 C 0.96139 0.25069 0.03772
 C70 C 1.03776 0.25091 -0.03873
 O71 O 0.52861 0.77574 0.52874
 O72 O 0.47140 0.77577 0.47167
 O73 O 0.47143 0.77534 0.52886
 O74 O 0.52860 0.77537 0.47155
 O75 O 0.52856 0.72684 0.47154
 O76 O 0.47148 0.72681 0.52876
 O77 O 0.47137 0.72723 0.47158
 O78 O 0.52866 0.72721 0.52873
 Cu79 Cu 0.50001 0.78045 0.50021
 Cu80 Cu 0.50002 0.72213 0.50014
 C81 C 0.53829 0.75149 0.53838
 C82 C 0.46172 0.75153 0.46199
 C83 C 0.46181 0.75104 0.53848
 C84 C 0.53823 0.75108 0.46189
 O85 O 0.02860 0.72453 -0.02956
 O86 O -0.02864 0.72460 0.02750
 O87 O -0.02862 0.72500 -0.02969
 O88 O 0.02855 0.72489 0.02763
 O89 O 0.02858 0.77342 0.02763
 O90 O -0.02850 0.77353 -0.02960
 O91 O -0.02860 0.77313 0.02758
 O92 O 0.02871 0.77306 -0.02954
 Cu93 Cu -0.00003 0.71986 -0.00104
 Cu94 Cu 0.00006 0.77818 -0.00099
 C95 C 0.03834 0.74876 -0.03918
 C96 C -0.03828 0.74885 0.03718
 C97 C -0.03822 0.74931 -0.03931
 C98 C 0.03820 0.74916 0.03730
 O99 O 0.52873 0.22423 0.47157
 O100 O 0.47157 0.22427 0.52856
 O101 O 0.47157 0.22465 0.47141
 O102 O 0.52874 0.22465 0.52873
 O103 O 0.52870 0.27319 0.52869
 O104 O 0.47163 0.27319 0.47146
 O105 O 0.47154 0.27281 0.52861
 O106 O 0.52878 0.27277 0.47154
 Cu107 Cu 0.50015 0.21955 0.50007
 Cu108 Cu 0.50017 0.27789 0.50008
 C109 C 0.53841 0.24847 0.46193
 C110 C 0.46190 0.24852 0.53820
 C111 C 0.46195 0.24895 0.46177
 C112 C 0.53836 0.24895 0.53838
 O113 O 1.02797 0.02818 0.22760
 O114 O 0.97104 -0.02935 0.22763
 O115 O 0.97081 0.02780 0.22723
 O116 O 1.02822 -0.02897 0.22717
 O117 O 1.02833 -0.02900 0.27572
 O118 O 0.97081 0.02787 0.27577
 O119 O 0.97114 -0.02930 0.27616
 O120 O 1.02799 0.02816 0.27614
 Cu121 Cu 0.99950 -0.00059 0.22251
 Cu122 Cu 0.99957 -0.00057 0.28085
 C123 C 1.03758 0.03788 0.25189
 C124 C 0.96148 -0.03903 0.25192
 C125 C 0.96111 0.03743 0.25147
 C126 C 1.03798 -0.03856 0.25140
 O127 O 0.52854 0.52883 0.72836
 O128 O 0.47169 0.47136 0.72832
 O129 O 0.47136 0.52852 0.72796
 O130 O 0.52885 0.47169 0.72789
 O131 O 0.52894 0.47162 0.77643
 O132 O 0.47135 0.52855 0.77650
 O133 O 0.47176 0.47138 0.77686
 O134 O 0.52854 0.52878 0.77691
 Cu135 Cu 0.50011 0.50011 0.72324
 Cu136 Cu 0.50015 0.50009 0.78157
 C137 C 0.53814 0.53849 0.75267
 C138 C 0.46214 0.46167 0.75261
 C139 C 0.46164 0.53814 0.75220
 C140 C 0.53862 0.46206 0.75212
 O141 O 0.97105 1.02937 0.72375
 O142 O 1.02789 0.97190 0.72372
 O143 O 0.97072 0.97220 0.72421
 O144 O 1.02824 1.02906 0.72403
 O145 O 1.02830 1.02911 0.77257
 O146 O 0.97088 0.97235 0.77276
 O147 O 1.02803 0.97196 0.77227
 O148 O 0.97113 1.02951 0.77228
 Cu149 Cu 0.99946 1.00063 0.71903
 Cu150 Cu 0.99959 1.00075 0.77736
 C151 C 0.96148 1.03915 0.74800
 C152 C 1.03756 0.96222 0.74797
 C153 C 0.96112 0.96267 0.74855
 C154 C 1.03798 1.03866 0.74830
 O155 O 0.47170 0.52870 0.22335
 O156 O 0.52849 0.47130 0.22332
 O157 O 0.47131 0.47153 0.22377
 O158 O 0.52888 0.52848 0.22374
 O159 O 0.52889 0.52845 0.27228
 O160 O 0.47141 0.47161 0.27231
 O161 O 0.52858 0.47129 0.27186
 O162 O 0.47172 0.52876 0.27190
 Cu163 Cu 0.50009 0.50000 0.21865
 Cu164 Cu 0.50016 0.50003 0.27698
 C165 C 0.46212 0.53841 0.24761
 C166 C 0.53812 0.46160 0.24756
 C167 C 0.46165 0.46197 0.24807
 C168 C 0.53859 0.53808 0.24804
 O169 O 0.25044 0.17361 0.20913
 O170 O 0.28221 0.16503 0.24960
 O171 O 0.17361 0.20942 0.25120
 O172 O 0.16287 0.24767 0.27970
 O173 O 0.20935 0.25030 0.17353
 O174 O 0.25172 0.28168 0.16470
 O175 O 0.25047 0.29022 0.32595
 O176 O 0.21626 0.25113 0.33333
 O177 O 0.32573 0.25076 0.29048
 O178 O 0.33529 0.21813 0.24909
 O179 O 0.28973 0.32639 0.25091
 O180 O 0.25347 0.33340 0.21649
 O181 O 0.25185 0.32558 0.29069
 O182 O 0.21423 0.33138 0.25267
 O183 O 0.32512 0.29101 0.25078
 O184 O 0.33427 0.24856 0.21712
 O185 O 0.29050 0.25134 0.32588
 O186 O 0.25497 0.21770 0.33484
 O187 O 0.25048 0.20889 0.17375
 O188 O 0.28312 0.24959 0.16577
 O189 O 0.17399 0.25014 0.20883
 O190 O 0.16752 0.28450 0.25047
 O191 O 0.20877 0.17392 0.24983
 O192 O 0.25155 0.16507 0.28230
 Zr193 Zr 0.24877 0.19719 0.24885
 O194 O 0.27621 0.22243 0.27618
 Zr195 Zr 0.19739 0.24891 0.24871
 O196 O 0.22261 0.27603 0.27644
 Zr197 Zr 0.24903 0.24868 0.19722
 O198 O 0.27605 0.27620 0.22264
 Zr199 Zr 0.25085 0.25057 0.30233
 O200 O 0.22285 0.22279 0.27746
 Zr201 Zr 0.30223 0.25073 0.25069
 O202 O 0.27733 0.22279 0.22301
 Zr203 Zr 0.25051 0.30221 0.25083
 O204 O 0.22298 0.27732 0.22259
 O205 O 0.22163 0.22154 0.22147
 O206 O 0.27814 0.27812 0.27820
 C207 C 0.25112 0.18206 0.18227
 C208 C 0.18197 0.18251 0.25121
 C209 C 0.18249 0.25089 0.18198
 C210 C 0.25120 0.31708 0.31753
 C211 C 0.31733 0.25108 0.31735
 C212 C 0.31660 0.31791 0.25081
 H213 H 0.28815 0.20915 0.28852
 H214 H 0.28789 0.28860 0.20934
 H215 H 0.20904 0.20900 0.20896
 H216 H 0.20942 0.28819 0.28868
 H217 H 0.20297 0.23470 0.32824
 H218 H 0.17032 0.25687 0.29789
 H219 H 0.33043 0.26478 0.20322
 H220 H 0.29835 0.23571 0.17268
 H221 H 0.24237 0.20121 0.32862
 H222 H 0.23404 0.16727 0.29496
 H223 H 0.23591 0.33070 0.20399
 H224 H 0.23620 0.29620 0.16908
 H225 H 0.29808 0.17232 0.23669
 H226 H 0.33017 0.20288 0.26365
 H227 H 0.17281 0.29806 0.23434
 H228 H 0.22194 0.35153 0.25558
 O229 O 0.74956 0.82670 0.20925
 O230 O 0.71787 0.83522 0.24978
 O231 O 0.82646 0.79079 0.25115
 O232 O 0.83728 0.75251 0.27953
 O233 O 0.79051 0.75000 0.17343
 O234 O 0.74810 0.71867 0.16459
 O235 O 0.74974 0.70994 0.32587
 O236 O 0.78399 0.74901 0.33326
 O237 O 0.67440 0.74948 0.29057
 O238 O 0.66478 0.78215 0.24925
 O239 O 0.71030 0.67387 0.25079
 O240 O 0.74647 0.66687 0.21632
 O241 O 0.74829 0.67461 0.29053
 O242 O 0.78581 0.66886 0.25243
 O243 O 0.67492 0.70926 0.25077
 O244 O 0.66569 0.75173 0.21723
 O245 O 0.70971 0.74886 0.32593
 O246 O 0.74530 0.78248 0.33489
 O247 O 0.74942 0.79146 0.17379
 O248 O 0.71670 0.75077 0.16580
 O249 O 0.82597 0.75010 0.20867
 O250 O 0.83250 0.71569 0.25025
 O251 O 0.79132 0.82631 0.24992
 O252 O 0.74862 0.83515 0.28244
 Zr253 Zr 0.75130 0.80305 0.24892
 O254 O 0.72392 0.77780 0.27626
 Zr255 Zr 0.80266 0.75131 0.24860
 O256 O 0.77749 0.72419 0.27633
 Zr257 Zr 0.75090 0.75163 0.19719
 O258 O 0.72393 0.72409 0.22260
 Zr259 Zr 0.74933 0.74962 0.30232
 O260 O 0.77727 0.77740 0.27745
 Zr261 Zr 0.69782 0.74953 0.25074
 O262 O 0.72266 0.77750 0.22308
 Zr263 Zr 0.74952 0.69804 0.25071
 O264 O 0.77699 0.72294 0.22246
 O265 O 0.77836 0.77873 0.22146
 O266 O 0.72197 0.72211 0.27816
 C267 C 0.74882 0.81829 0.18237
 C268 C 0.81812 0.81770 0.25123
 C269 C 0.81740 0.74939 0.18183
 C270 C 0.74899 0.68308 0.31740
 C271 C 0.68285 0.74913 0.31744
 C272 C 0.68343 0.68236 0.25074
 H273 H 0.71202 0.79108 0.28864
 H274 H 0.71206 0.71171 0.20929
 H275 H 0.79093 0.79127 0.20896
 H276 H 0.79071 0.71201 0.28853
 H277 H 0.79728 0.76544 0.32818
 H278 H 0.82986 0.74332 0.29773
 H279 H 0.66952 0.73555 0.20326
 H280 H 0.70152 0.76468 0.17276
 H281 H 0.75792 0.79895 0.32869
 H282 H 0.76615 0.83292 0.29508
 H283 H 0.76398 0.66959 0.20379
 H284 H 0.76360 0.70412 0.16894
 H285 H 0.70197 0.82795 0.23686
 H286 H 0.66994 0.79740 0.26383
 H287 H 0.82719 0.70218 0.23408
 H288 H 0.77810 0.64871 0.25532
 O289 O 0.74989 0.17382 0.79106
 O290 O 0.71807 0.16522 0.75058
 O291 O 0.82670 0.20954 0.74891
 O292 O 0.83747 0.24775 0.72042
 O293 O 0.79099 0.25056 0.82660
 O294 O 0.74865 0.28196 0.83544
 O295 O 0.74988 0.29028 0.67414
 O296 O 0.78408 0.25114 0.66681
 O297 O 0.67460 0.25089 0.70966
 O298 O 0.66504 0.21833 0.75105
 O299 O 0.71063 0.32657 0.74918
 O300 O 0.74691 0.33363 0.78359
 O301 O 0.74852 0.32570 0.70939
 O302 O 0.78615 0.33152 0.74742
 O303 O 0.67524 0.29120 0.74935
 O304 O 0.66608 0.24881 0.78302
 O305 O 0.70982 0.25140 0.67425
 O306 O 0.74534 0.21775 0.66528
 O307 O 0.74986 0.20916 0.82642
 O308 O 0.71721 0.24990 0.83436
 O309 O 0.82635 0.25032 0.79129
 O310 O 0.83282 0.28463 0.74965
 O311 O 0.79153 0.17405 0.75031
 O312 O 0.74874 0.16516 0.71790
 Zr313 Zr 0.75154 0.19735 0.75132
 O314 O 0.72412 0.22256 0.72396
 Zr315 Zr 0.80295 0.24905 0.75141
 O316 O 0.77774 0.27614 0.72367
 Zr317 Zr 0.75132 0.24892 0.80291
 O318 O 0.72431 0.27641 0.77748
 Zr319 Zr 0.74949 0.25066 0.69780
 O320 O 0.77746 0.22290 0.72268
 Zr321 Zr 0.69812 0.25092 0.74945
 O322 O 0.72300 0.22300 0.77714
 Zr323 Zr 0.74985 0.30238 0.74927
 O324 O 0.77737 0.27751 0.77752
 O325 O 0.77870 0.22173 0.77867
 O326 O 0.72221 0.27825 0.72192
 C327 C 0.74921 0.18230 0.81793
 C328 C 0.81834 0.18264 0.74891
 C329 C 0.81786 0.25111 0.81814
 C330 C 0.74916 0.31716 0.68254
 C331 C 0.68300 0.25117 0.68279
 C332 C 0.68376 0.31809 0.74930
 H333 H 0.71218 0.20927 0.71163
 H334 H 0.71248 0.28884 0.79078
 H335 H 0.79128 0.20919 0.79118
 H336 H 0.79093 0.28827 0.71142
 H337 H 0.79735 0.23470 0.67190
 H338 H 0.83002 0.25693 0.70223
 H339 H 0.66994 0.26504 0.79692
 H340 H 0.70200 0.23598 0.82747
 H341 H 0.75790 0.20125 0.67154
 H342 H 0.76622 0.16736 0.70521
 H343 H 0.76446 0.33093 0.79610
 H344 H 0.76416 0.29648 0.83103
 H345 H 0.70223 0.17252 0.76354
 H346 H 0.67016 0.20304 0.73652
 H347 H 0.82754 0.29820 0.76578
 H348 H 0.77845 0.35167 0.74449
 O349 O 0.25025 0.82636 0.79113
 O350 O 0.28205 0.83495 0.75073
 O351 O 0.17346 0.79057 0.74887
 O352 O 0.16273 0.75230 0.72037
 O353 O 0.20910 0.74969 0.82664
 O354 O 0.25148 0.71825 0.83551
 O355 O 0.25040 0.70980 0.67427
 O356 O 0.21620 0.74887 0.66683
 O357 O 0.32564 0.74925 0.70989
 O358 O 0.33510 0.78191 0.75136
 O359 O 0.28960 0.67361 0.74937
 O360 O 0.25332 0.66659 0.78372
 O361 O 0.25173 0.67442 0.70952
 O362 O 0.21409 0.66861 0.74748
 O363 O 0.32498 0.70899 0.74959
 O364 O 0.33413 0.75139 0.78325
 O365 O 0.29043 0.74868 0.67441
 O366 O 0.25489 0.78233 0.66542
 O367 O 0.25026 0.79108 0.82651
 O368 O 0.28285 0.75039 0.83457
 O369 O 0.17377 0.74984 0.79126
 O370 O 0.16738 0.71547 0.74959
 O371 O 0.20862 0.82607 0.75033
 O372 O 0.25143 0.83492 0.71797
 Zr373 Zr 0.24862 0.80279 0.75140
 O374 O 0.27608 0.77757 0.72411
 Zr375 Zr 0.19723 0.75107 0.75142
 O376 O 0.22249 0.72397 0.72374
 Zr377 Zr 0.24881 0.75129 0.80302
 O378 O 0.27588 0.72380 0.77764
 Zr379 Zr 0.25075 0.74944 0.69790
 O380 O 0.22272 0.77719 0.72273
 Zr381 Zr 0.30208 0.74926 0.74964
 O382 O 0.27715 0.77718 0.77729
 Zr383 Zr 0.25037 0.69779 0.74940
 O384 O 0.22280 0.72265 0.77758
 O385 O 0.22144 0.77844 0.77872
 O386 O 0.27802 0.72188 0.72208
 C387 C 0.25091 0.81792 0.81799
 C388 C 0.18182 0.81747 0.74889
 C389 C 0.18224 0.74911 0.81813
 C390 C 0.25111 0.68294 0.68269
 C391 C 0.31726 0.74893 0.68299
 C392 C 0.31647 0.68209 0.74953
 H393 H 0.28803 0.79086 0.71180
 H394 H 0.28771 0.71140 0.79096
 H395 H 0.20884 0.79098 0.79120
 H396 H 0.20932 0.71182 0.71146
 H397 H 0.20289 0.76529 0.67190
 H398 H 0.17021 0.74312 0.70218
 H399 H 0.33022 0.73522 0.79718
 H400 H 0.29812 0.76421 0.82766
 H401 H 0.24224 0.79879 0.67161
 H402 H 0.23394 0.83272 0.70527
 H403 H 0.23576 0.66929 0.79620
 H404 H 0.23590 0.70378 0.83113
 H405 H 0.29792 0.82765 0.76366
 H406 H 0.33005 0.79711 0.73672
 H407 H 0.17264 0.70193 0.76575
 H408 H 0.22181 0.64846 0.74458
 O409 O 0.24956 0.32626 0.70946
 O410 O 0.21779 0.33487 0.74991
 O411 O 0.32630 0.29029 0.75160
 O412 O 0.33706 0.25200 0.77995
 O413 O 0.29053 0.24955 0.67377
 O414 O 0.24811 0.21825 0.66480
 O415 O 0.24936 0.20961 0.82603
 O416 O 0.28363 0.24865 0.83354
 O417 O 0.17417 0.24921 0.79052
 O418 O 0.16469 0.28191 0.74917
 O419 O 0.21008 0.17358 0.75092
 O420 O 0.24630 0.16651 0.71650
 O421 O 0.24794 0.17428 0.79069
 O422 O 0.28556 0.16845 0.75271
 O423 O 0.17475 0.20902 0.75080
 O424 O 0.16562 0.25145 0.71720
 O425 O 0.20939 0.24853 0.82598
 O426 O 0.24496 0.28211 0.83508
 O427 O 0.24947 0.29101 0.67401
 O428 O 0.21678 0.25037 0.66589
 O429 O 0.32589 0.24964 0.70911
 O430 O 0.33229 0.21521 0.75070
 O431 O 0.29120 0.32585 0.75022
 O432 O 0.24845 0.33479 0.78261
 Zr433 Zr 0.25118 0.30266 0.74913
 O434 O 0.22372 0.27747 0.77639
 Zr435 Zr 0.30249 0.25086 0.74896
 O436 O 0.27724 0.22378 0.77661
 Zr437 Zr 0.25086 0.25121 0.69740
 O438 O 0.22381 0.22374 0.72272
 Zr439 Zr 0.24905 0.24928 0.80250
 O440 O 0.27708 0.27701 0.77772
 Zr441 Zr 0.19768 0.24924 0.75078
 O442 O 0.22260 0.27715 0.72319
 Zr443 Zr 0.24932 0.19768 0.75089
 O444 O 0.27688 0.22252 0.72273
 O445 O 0.27829 0.27829 0.72174
 O446 O 0.22173 0.22180 0.77826
 C447 C 0.24886 0.31783 0.68259
 C448 C 0.31797 0.31720 0.75164
 C449 C 0.31738 0.24892 0.68226
 C450 C 0.24859 0.18276 0.81754
 C451 C 0.18257 0.24884 0.81740
 C452 C 0.18324 0.18213 0.75082
 H453 H 0.21180 0.29077 0.78873
 H454 H 0.21195 0.21136 0.70939
 H455 H 0.29090 0.29083 0.70928
 H456 H 0.29042 0.21159 0.78884
 H457 H 0.29694 0.26507 0.82850
 H458 H 0.32957 0.24289 0.79816
 H459 H 0.16945 0.23525 0.70326
 H460 H 0.20157 0.26426 0.67281
 H461 H 0.25757 0.29860 0.82890
 H462 H 0.26593 0.33254 0.79531
 H463 H 0.26386 0.16918 0.70402
 H464 H 0.26362 0.20370 0.66917
 H465 H 0.20192 0.32763 0.73694
 H466 H 0.16978 0.29711 0.76382
 H467 H 0.32703 0.20171 0.73450
 H468 H 0.27781 0.14831 0.75558
 O469 O 0.75091 0.67398 0.70971
 O470 O 0.78280 0.66540 0.75010
 O471 O 0.67414 0.70960 0.75205
 O472 O 0.66326 0.74779 0.78049
 O473 O 0.70964 0.75066 0.67432
 O474 O 0.75193 0.78212 0.66547
 O475 O 0.75092 0.79034 0.82678
 O476 O 0.71681 0.75116 0.83413
 O477 O 0.82620 0.75111 0.79108
 O478 O 0.83573 0.71857 0.74960
 O479 O 0.78992 0.82672 0.75175
 O480 O 0.75362 0.83377 0.71742
 O481 O 0.75214 0.82578 0.79158
 O482 O 0.71442 0.83155 0.75363
 O483 O 0.82539 0.79142 0.75147
 O484 O 0.83462 0.74909 0.71773
 O485 O 0.79104 0.75156 0.82655
 O486 O 0.75559 0.71781 0.83551
 O487 O 0.75083 0.70932 0.67439
 O488 O 0.78341 0.75011 0.66645
 O489 O 0.67433 0.75035 0.70967
 O490 O 0.66791 0.78468 0.75142
 O491 O 0.70935 0.67416 0.75052
 O492 O 0.75220 0.66528 0.78283
 Zr493 Zr 0.74929 0.69749 0.74948
 O494 O 0.77671 0.72271 0.77683
 Zr495 Zr 0.69780 0.74911 0.74952
 O496 O 0.72300 0.77620 0.77729
 Zr497 Zr 0.74935 0.74907 0.69795
 O498 O 0.77634 0.77658 0.72339
 Zr499 Zr 0.75134 0.75074 0.80307
 O500 O 0.72336 0.72298 0.77818
 Zr501 Zr 0.80261 0.75111 0.75134
 O502 O 0.77775 0.72317 0.72363
 Zr503 Zr 0.75078 0.80248 0.75167
 O504 O 0.72327 0.77761 0.72340
 O505 O 0.72205 0.72183 0.72220
 O506 O 0.77851 0.77839 0.77894
 C507 C 0.75153 0.68247 0.68286
 C508 C 0.68255 0.68273 0.75199
 C509 C 0.68279 0.75116 0.68282
 C510 C 0.75157 0.81722 0.81840
 C511 C 0.81786 0.75138 0.81797
 C512 C 0.81679 0.81828 0.75158
 H513 H 0.78870 0.70942 0.78912
 H514 H 0.78812 0.78903 0.71009
 H515 H 0.70946 0.70929 0.70969
 H516 H 0.70980 0.78830 0.78958
 H517 H 0.70354 0.73472 0.82902
 H518 H 0.67077 0.75680 0.79876
 H519 H 0.83069 0.76530 0.70384
 H520 H 0.79865 0.73622 0.67330
 H521 H 0.74299 0.70132 0.82928
 H522 H 0.73474 0.66744 0.79556
 H523 H 0.73607 0.83105 0.70492
 H524 H 0.73641 0.79662 0.66992
 H525 H 0.79862 0.67273 0.73715
 H526 H 0.83069 0.70329 0.76416
 H527 H 0.67306 0.79820 0.73523
 H528 H 0.72209 0.85171 0.75659
 O529 O 0.24935 0.67381 0.29035
 O530 O 0.21765 0.66512 0.24985
 O531 O 0.32617 0.70966 0.24833
 O532 O 0.33700 0.74791 0.21997
 O533 O 0.29030 0.75057 0.32600
 O534 O 0.24787 0.78197 0.33472
 O535 O 0.24938 0.79017 0.17350
 O536 O 0.28364 0.75112 0.16618
 O537 O 0.17411 0.75072 0.20885
 O538 O 0.16458 0.71807 0.25028
 O539 O 0.20998 0.82640 0.24845
 O540 O 0.24615 0.83355 0.28291
 O541 O 0.24790 0.82559 0.20874
 O542 O 0.28546 0.83151 0.24681
 O543 O 0.17464 0.79098 0.24854
 O544 O 0.16541 0.74863 0.28215
 O545 O 0.20939 0.75129 0.17350
 O546 O 0.24497 0.71763 0.16463
 O547 O 0.24921 0.70915 0.32572
 O548 O 0.21654 0.74981 0.33367
 O549 O 0.32571 0.75039 0.29076
 O550 O 0.33217 0.78476 0.24910
 O551 O 0.29105 0.67412 0.24969
 O552 O 0.24834 0.66511 0.21723
 Zr553 Zr 0.25104 0.69732 0.25063
 O554 O 0.22363 0.72245 0.22323
 Zr555 Zr 0.30238 0.74911 0.25084
 O556 O 0.27717 0.77612 0.22304
 Zr557 Zr 0.25066 0.74889 0.30224
 O558 O 0.22365 0.77630 0.27676
 Zr559 Zr 0.24901 0.75057 0.19712
 O560 O 0.27700 0.72290 0.22206
 Zr561 Zr 0.19755 0.75075 0.24868
 O562 O 0.22243 0.72291 0.27643
 Zr563 Zr 0.24921 0.80229 0.24861
 O564 O 0.27673 0.77752 0.27692
 O565 O 0.27812 0.72175 0.27804
 O566 O 0.22166 0.77812 0.22121
 C567 C 0.24861 0.68231 0.31720
 C568 C 0.31783 0.68276 0.24832
 C569 C 0.31717 0.75116 0.31759
 C570 C 0.24859 0.81703 0.18192
 C571 C 0.18255 0.75103 0.18199
 C572 C 0.18313 0.81787 0.24851
 H573 H 0.21173 0.70913 0.21087
 H574 H 0.21177 0.78871 0.29004
 H575 H 0.29071 0.70923 0.29057
 H576 H 0.29037 0.78827 0.21081
 H577 H 0.29695 0.73472 0.17131
 H578 H 0.32954 0.75694 0.20170
 H579 H 0.16927 0.76481 0.29611
 H580 H 0.20132 0.73593 0.32672
 H581 H 0.25763 0.70119 0.17086
 H582 H 0.26584 0.66732 0.20456
 H583 H 0.26368 0.83089 0.29546
 H584 H 0.26343 0.79645 0.33040
 H585 H 0.20174 0.67241 0.26273
 H586 H 0.16964 0.70287 0.23562
 H587 H 0.32690 0.79828 0.26528
 H588 H 0.27773 0.85164 0.24386
 O589 O 0.75054 0.32581 0.29028
 O590 O 0.78228 0.33428 0.24976
 O591 O 0.67364 0.29000 0.24828
 O592 O 0.66270 0.25172 0.21995
 O593 O 0.70951 0.24918 0.32600
 O594 O 0.75186 0.21783 0.33487
 O595 O 0.75021 0.20906 0.17359
 O596 O 0.71597 0.24818 0.16622
 O597 O 0.82555 0.24851 0.20894
 O598 O 0.83524 0.28116 0.25028
 O599 O 0.78953 0.17297 0.24862
 O600 O 0.75335 0.16601 0.28308
 O601 O 0.75161 0.17374 0.20890
 O602 O 0.71404 0.16804 0.24695
 O603 O 0.82496 0.20831 0.24866
 O604 O 0.83429 0.25074 0.28225
 O605 O 0.79024 0.24792 0.17357
 O606 O 0.75471 0.28155 0.16459
 O607 O 0.75063 0.29057 0.32570
 O608 O 0.78331 0.24984 0.33366
 O609 O 0.67406 0.24935 0.29075
 O610 O 0.66745 0.21493 0.24916
 O611 O 0.70884 0.32547 0.24959
 O612 O 0.75154 0.33429 0.21713
 Zr613 Zr 0.74879 0.30217 0.25059
 O614 O 0.77611 0.27688 0.22323
 Zr615 Zr 0.69735 0.25050 0.25084
 O616 O 0.72244 0.22333 0.22310
 Zr617 Zr 0.74911 0.25076 0.30227
 O618 O 0.77601 0.22318 0.27685
 Zr619 Zr 0.75064 0.24874 0.19716
 O620 O 0.72276 0.27657 0.22204
 Zr621 Zr 0.80214 0.24860 0.24875
 O622 O 0.77738 0.27660 0.27643
 Zr623 Zr 0.75036 0.19717 0.24873
 O624 O 0.72295 0.22211 0.27698
 O625 O 0.72168 0.27789 0.27802
 O626 O 0.77796 0.22120 0.22130
 C627 C 0.75127 0.31740 0.31715
 C628 C 0.68204 0.31688 0.24823
 C629 C 0.68263 0.24861 0.31758
 C630 C 0.75094 0.18221 0.18205
 C631 C 0.81708 0.24817 0.18208
 C632 C 0.81640 0.18144 0.24867
 H633 H 0.78803 0.29014 0.21087
 H634 H 0.78787 0.21078 0.29015
 H635 H 0.70913 0.29046 0.29052
 H636 H 0.70921 0.21118 0.21089
 H637 H 0.70272 0.26463 0.17130
 H638 H 0.67011 0.24257 0.20172
 H639 H 0.83043 0.23457 0.29620
 H640 H 0.79849 0.26375 0.32674
 H641 H 0.74215 0.29807 0.17082
 H642 H 0.73404 0.33206 0.20445
 H643 H 0.73583 0.16874 0.29560
 H644 H 0.73638 0.20326 0.33048
 H645 H 0.79814 0.32702 0.26273
 H646 H 0.83011 0.29641 0.23571
 H647 H 0.67273 0.20142 0.26533
 H648 H 0.72172 0.14788 0.24404
 C649 C 0.25143 0.05992 0.06002
 C650 C 0.25164 0.07859 0.07876
 C651 C 0.25190 0.10047 0.10070
 C652 C 0.25206 0.11916 0.11942
 C653 C 0.25207 0.14106 0.14134
 C654 C 0.25183 0.15978 0.16004
 C655 C 0.75183 0.56042 0.56052
 C656 C 0.75203 0.57910 0.57926
 C657 C 0.75230 0.60097 0.60121
 C658 C 0.75246 0.61966 0.61994
 C659 C 0.75247 0.64154 0.64187
 C660 C 0.75223 0.66023 0.66060
 C661 C 0.74846 0.94082 0.06048
 C662 C 0.74826 0.92209 0.07918
 C663 C 0.74800 0.90013 0.10104
 C664 C 0.74785 0.88138 0.11970
 C665 C 0.74785 0.85939 0.14154
 C666 C 0.74810 0.84062 0.16018
 C667 C 0.24849 0.43987 0.56055
 C668 C 0.24832 0.42122 0.57927
 C669 C 0.24807 0.39937 0.60118
 C670 C 0.24793 0.38070 0.61988
 C671 C 0.24792 0.35882 0.64175
 C672 C 0.24817 0.34011 0.66042
 C673 C 0.74866 0.06036 0.94038
 C674 C 0.74852 0.07900 0.92161
 C675 C 0.74831 0.10085 0.89963
 C676 C 0.74820 0.11950 0.88087
 C677 C 0.74823 0.14137 0.85892
 C678 C 0.74850 0.16005 0.84019
 C679 C 0.24833 0.56041 0.43939
 C680 C 0.24812 0.57905 0.42066
 C681 C 0.24783 0.60089 0.39873
 C682 C 0.24767 0.61954 0.38002
 C683 C 0.24765 0.64140 0.35812
 C684 C 0.24790 0.66008 0.33942
 C685 C 0.25134 0.94031 0.94000
 C686 C 0.25151 0.92159 0.92130
 C687 C 0.25174 0.89964 0.89942
 C688 C 0.25187 0.88090 0.88075
 C689 C 0.25186 0.85895 0.85888
 C690 C 0.25161 0.84020 0.84021
 C691 C 0.75178 0.43966 0.43928
 C692 C 0.75195 0.42097 0.42055
 C693 C 0.75219 0.39907 0.39863
 C694 C 0.75232 0.38036 0.37992
 C695 C 0.75229 0.35844 0.35803
 C696 C 0.75202 0.33970 0.33935
 C697 C 0.06015 0.25129 0.05992
 C698 C 0.07890 0.25146 0.07859
 C699 C 0.10085 0.25168 0.10046
 C700 C 0.11959 0.25182 0.11913
 C701 C 0.14153 0.25181 0.14101
 C702 C 0.16025 0.25156 0.15972
 C703 C 0.56057 0.75158 0.56063
 C704 C 0.57928 0.75175 0.57934
 C705 C 0.60119 0.75197 0.60125
 C706 C 0.61990 0.75210 0.61996
 C707 C 0.64181 0.75209 0.64187
 C708 C 0.66052 0.75184 0.66057
 C709 C 0.05950 0.74867 0.93984
 C710 C 0.07831 0.74850 0.92122
 C711 C 0.10035 0.74828 0.89943
 C712 C 0.11916 0.74816 0.88082
 C713 C 0.14117 0.74818 0.85901
 C714 C 0.15994 0.74843 0.84036
 C715 C 0.56067 0.24836 0.43972
 C716 C 0.57937 0.24817 0.42105
 C717 C 0.60126 0.24791 0.39917
 C718 C 0.61994 0.24775 0.38048
 C719 C 0.64180 0.24774 0.35858
 C720 C 0.66046 0.24796 0.33986
 C721 C 0.93944 0.74879 0.05944
 C722 C 0.92073 0.74866 0.07815
 C723 C 0.89883 0.74847 0.10008
 C724 C 0.88014 0.74838 0.11881
 C725 C 0.85827 0.74843 0.14076
 C726 C 0.83960 0.74869 0.15951
 C727 C 0.43962 0.24844 0.56039
 C728 C 0.42088 0.24828 0.57904
 C729 C 0.39895 0.24805 0.60087
 C730 C 0.38023 0.24793 0.61952
 C731 C 0.35831 0.24796 0.64137
 C732 C 0.33961 0.24822 0.66004
 C733 C 0.94018 0.25142 0.94024
 C734 C 0.92144 0.25161 0.92155
 C735 C 0.89949 0.25187 0.89968
 C736 C 0.88075 0.25202 0.88100
 C737 C 0.85882 0.25203 0.85911
 C738 C 0.84010 0.25179 0.84041
 C739 C 0.43941 0.75162 0.43976
 C740 C 0.42067 0.75180 0.42109
 C741 C 0.39872 0.75203 0.39921
 C742 C 0.37999 0.75216 0.38052
 C743 C 0.35808 0.75213 0.35861
 C744 C 0.33938 0.75187 0.33989
 C745 C 0.05976 0.06025 0.25197
 C746 C 0.07840 0.07904 0.25213
 C747 C 0.10027 0.10101 0.25232
 C748 C 0.11896 0.11974 0.25241
 C749 C 0.14088 0.14166 0.25233
 C750 C 0.15962 0.16034 0.25201
 C751 C 0.56032 0.56079 0.75277
 C752 C 0.57900 0.57951 0.75295
 C753 C 0.60089 0.60139 0.75316
 C754 C 0.61960 0.62006 0.75325
 C755 C 0.64153 0.64190 0.75317
 C756 C 0.66027 0.66055 0.75282
 C757 C 0.94050 0.06033 0.74793
 C758 C 0.92186 0.07912 0.74781
 C759 C 0.90001 0.10110 0.74765
 C760 C 0.88132 0.11984 0.74760
 C761 C 0.85941 0.14177 0.74773
 C762 C 0.84067 0.16045 0.74809
 C763 C 0.43997 0.56075 0.24753
 C764 C 0.42134 0.57951 0.24738
 C765 C 0.39950 0.60144 0.24718
 C766 C 0.38082 0.62014 0.24709
 C767 C 0.35891 0.64200 0.24718
 C768 C 0.34017 0.66064 0.24751
 C769 C 0.05972 0.93983 0.74788
 C770 C 0.07834 0.92103 0.74774
 C771 C 0.10018 0.89903 0.74758
 C772 C 0.11885 0.88028 0.74753
 C773 C 0.14075 0.85834 0.74766
 C774 C 0.15948 0.83965 0.74803
 C775 C 0.56023 0.43923 0.24745
 C776 C 0.57882 0.42043 0.24728
 C777 C 0.60059 0.39843 0.24706
 C778 C 0.61922 0.37967 0.24697
 C779 C 0.64106 0.35774 0.24705
 C780 C 0.65975 0.33905 0.24740
 C781 C 0.94048 0.93982 0.25201
 C782 C 0.92181 0.92106 0.25217
 C783 C 0.89991 0.89911 0.25236
 C784 C 0.88120 0.88040 0.25245
 C785 C 0.85925 0.85852 0.25237
 C786 C 0.84048 0.83986 0.25205
 C787 C 0.44002 0.43931 0.75268
 C788 C 0.42141 0.42053 0.75282
 C789 C 0.39960 0.39857 0.75300
 C790 C 0.38094 0.37985 0.75305
 C791 C 0.35905 0.35796 0.75292
 C792 C 0.34031 0.33931 0.75253
 C793 C 0.06003 0.25084 0.93905
 C794 C 0.07877 0.25057 0.92040
 C795 C 0.10074 0.25012 0.89859
 C796 C 0.11950 0.24969 0.87997
 C797 C 0.14148 0.24923 0.85818
 C798 C 0.16025 0.24895 0.83956
 C799 C 0.56051 0.75098 0.43960
 C800 C 0.57923 0.75071 0.42089
 C801 C 0.60116 0.75027 0.39898
 C802 C 0.61989 0.74988 0.38029
 C803 C 0.64183 0.74946 0.35839
 C804 C 0.66056 0.74921 0.33969
 C805 C 0.94067 0.74946 0.93965
 C806 C 0.92190 0.74974 0.92099
 C807 C 0.89989 0.75020 0.89916
 C808 C 0.88108 0.75061 0.88055
 C809 C 0.85905 0.75105 0.85875
 C810 C 0.84024 0.75130 0.84013
 C811 C 0.43970 0.24907 0.43948
 C812 C 0.42099 0.24936 0.42076
 C813 C 0.39907 0.24983 0.39884
 C814 C 0.38035 0.25026 0.38014
 C815 C 0.35841 0.25071 0.35825
 C816 C 0.33966 0.25098 0.33957
 C817 C 0.06043 0.74924 0.05962
 C818 C 0.07910 0.74948 0.07838
 C819 C 0.10098 0.74989 0.10034
 C820 C 0.11966 0.75028 0.11908
 C821 C 0.14156 0.75069 0.14102
 C822 C 0.16027 0.75093 0.15974
 C823 C 0.56062 0.24908 0.56067
 C824 C 0.57933 0.24938 0.57939
 C825 C 0.60125 0.24985 0.60131
 C826 C 0.61997 0.25029 0.62001
 C827 C 0.64192 0.25076 0.64189
 C828 C 0.66067 0.25104 0.66057
 C829 C 0.93916 0.25049 0.05999
 C830 C 0.92048 0.25014 0.07869
 C831 C 0.89861 0.24959 0.10059
 C832 C 0.87992 0.24909 0.11929
 C833 C 0.85804 0.24858 0.14117
 C834 C 0.83934 0.24828 0.15986
 C835 C 0.43957 0.75091 0.56080
 C836 C 0.42088 0.75062 0.57954
 C837 C 0.39899 0.75016 0.60149
 C838 C 0.38029 0.74974 0.62020
 C839 C 0.35836 0.74930 0.64211
 C840 C 0.33961 0.74904 0.66079
 C841 C 0.25066 0.06020 0.93914
 C842 C 0.25034 0.07899 0.92054
 C843 C 0.24983 0.10100 0.89878
 C844 C 0.24938 0.11978 0.88019
 C845 C 0.24891 0.14176 0.85840
 C846 C 0.24865 0.16051 0.83976
 C847 C 0.75107 0.56070 0.43949
 C848 C 0.75077 0.57944 0.42081
 C849 C 0.75029 0.60140 0.39893
 C850 C 0.74984 0.62014 0.38025
 C851 C 0.74938 0.64208 0.35836
 C852 C 0.74910 0.66081 0.33966
 C853 C 0.74910 0.05957 0.06020
 C854 C 0.74934 0.07838 0.07883
 C855 C 0.74976 0.10039 0.10065
 C856 C 0.75016 0.11918 0.11928
 C857 C 0.75059 0.14117 0.14112
 C858 C 0.75085 0.15993 0.15979
 C859 C 0.24912 0.56078 0.56038
 C860 C 0.24942 0.57951 0.57908
 C861 C 0.24990 0.60142 0.60099
 C862 C 0.25034 0.62012 0.61971
 C863 C 0.25079 0.64202 0.64164
 C864 C 0.25105 0.66071 0.66038
 C865 C 0.74939 0.93938 0.94070
 C866 C 0.74973 0.92064 0.92201
 C867 C 0.75025 0.89870 0.90012
 C868 C 0.75072 0.88000 0.88141
 C869 C 0.75120 0.85810 0.85948
 C870 C 0.75148 0.83942 0.84074
 C871 C 0.24914 0.43946 0.43961
 C872 C 0.24945 0.42069 0.42095
 C873 C 0.24994 0.39872 0.39909
 C874 C 0.25039 0.37998 0.38042
 C875 C 0.25085 0.35804 0.35853
 C876 C 0.25112 0.33932 0.33982
 C877 C 0.25070 0.93900 0.05973
 C878 C 0.25039 0.92030 0.07841
 C879 C 0.24989 0.89842 0.10029
 C880 C 0.24943 0.87974 0.11899
 C881 C 0.24895 0.85788 0.14090
 C882 C 0.24868 0.83922 0.15963
 C883 C 0.75112 0.43940 0.56030
 C884 C 0.75083 0.42065 0.57899
 C885 C 0.75036 0.39871 0.60088
 C886 C 0.74994 0.37999 0.61957
 C887 C 0.74949 0.35807 0.64149
 C888 C 0.74924 0.33938 0.66022
 C889 C 0.06040 0.06074 0.74837
 C890 C 0.07925 0.07929 0.74864
 C891 C 0.10131 0.10101 0.74912
 C892 C 0.12014 0.11956 0.74960
 C893 C 0.14217 0.14132 0.75015
 C894 C 0.16094 0.15993 0.75053
 C895 C 0.56096 0.56027 0.24817
 C896 C 0.57974 0.57893 0.24848
 C897 C 0.60172 0.60080 0.24901
 C898 C 0.62047 0.61948 0.24950
 C899 C 0.64242 0.64138 0.25007
 C900 C 0.66115 0.66009 0.25046
 C901 C 0.06038 0.93934 0.25124
 C902 C 0.07922 0.92078 0.25089
 C903 C 0.10126 0.89904 0.25031
 C904 C 0.12008 0.88047 0.24978
 C905 C 0.14209 0.85870 0.24918
 C906 C 0.16085 0.84008 0.24878
 C907 C 0.56104 0.43991 0.75196
 C908 C 0.57987 0.42131 0.75162
 C909 C 0.60192 0.39951 0.75107
 C910 C 0.62072 0.38089 0.75055
 C911 C 0.64272 0.35904 0.74997
 C912 C 0.66148 0.34037 0.74958
 C913 C 0.93875 0.05957 0.25135
 C914 C 0.91997 0.07818 0.25103
 C915 C 0.89800 0.09999 0.25048
 C916 C 0.87926 0.11863 0.24995
 C917 C 0.85733 0.14049 0.24936
 C918 C 0.83863 0.15918 0.24895
 C919 C 0.43921 0.56028 0.75209
 C920 C 0.42038 0.57889 0.75179
 C921 C 0.39833 0.60069 0.75127
 C922 C 0.37953 0.61931 0.75078
 C923 C 0.35752 0.64115 0.75021
 C924 C 0.33876 0.65983 0.74982
 C925 C 0.93880 0.94049 0.74875
 C926 C 0.92007 0.92183 0.74913
 C927 C 0.89817 0.89994 0.74973
 C928 C 0.87949 0.88124 0.75028
 C929 C 0.85764 0.85931 0.75089
 C930 C 0.83898 0.84058 0.75130
 C931 C 0.43924 0.43981 0.24822
 C932 C 0.42043 0.42119 0.24854
 C933 C 0.39840 0.39936 0.24908
 C934 C 0.37962 0.38072 0.24958
 C935 C 0.35763 0.35886 0.25015
 C936 C 0.33889 0.34018 0.25054
   
