data_POSCAR
  _audit_creation_date              2014-09-24
  _audit_creation_method            'ToBaCCo'
  _symmetry_space_group_name_H-M    'P1'
  _symmetry_Int_Tables_number       1
  _symmetry_cell_setting            triclinic
  loop_
  _symmetry_equiv_pos_as_xyz
 x,y,z
_cell_length_a 20.0568
_cell_length_b 20.0569
_cell_length_c 51.7699
_cell_angle_alpha 89.807700
_cell_angle_beta 90.192100
_cell_angle_gamma 119.876500
loop_
  _atom_site_label
  _atom_site_type_symbol
  _atom_site_fract_x
  _atom_site_fract_y
  _atom_site_fract_z
C1 C 0.00217 0.00039 0.50009
 C2 C 1.00039 0.00218 0.16657
 C3 C -0.00210 0.99791 0.83333
 O4 O 0.46319 0.06120 0.02438
 O5 O 0.59333 0.06031 -0.02587
 O6 O 0.46683 0.06749 -0.02583
 O7 O 0.59667 0.06815 0.02430
 O8 O 0.53407 -0.05901 0.02472
 O9 O 0.40258 -0.05967 -0.02564
 O10 O 0.52907 -0.06685 -0.02546
 O11 O 0.40059 -0.06596 0.02457
 Cu12 Cu 0.53634 0.07701 -0.00079
 Cu13 Cu 0.46023 -0.07559 -0.00043
 C14 C 0.40961 -0.00267 0.03286
 C15 C 0.58309 -0.00386 -0.03402
 C16 C 0.41259 0.00424 -0.03412
 C17 C 0.58789 0.00512 0.03290
 O18 O 0.06119 0.46319 0.64227
 O19 O 0.06030 0.59333 0.69253
 O20 O 0.06749 0.46683 0.69249
 O21 O 0.06814 0.59668 0.64236
 O22 O -0.05901 0.53408 0.64194
 O23 O -0.05967 0.40258 0.69230
 O24 O -0.06685 0.52907 0.69211
 O25 O -0.06597 0.40059 0.64209
 Cu26 Cu 0.07700 0.53635 0.66745
 Cu27 Cu -0.07559 0.46024 0.66708
 C28 C -0.00268 0.40961 0.63380
 C29 C -0.00387 0.58309 0.70068
 C30 C 0.00423 0.41260 0.70078
 C31 C 0.00511 0.58789 0.63375
 O32 O 0.46592 0.40601 0.30818
 O33 O 0.59683 0.53638 0.35849
 O34 O 0.47052 0.40306 0.35838
 O35 O 0.59924 0.53231 0.30830
 O36 O 0.53637 0.59684 0.30817
 O37 O 0.40600 0.46593 0.35848
 O38 O 0.53231 0.59925 0.35836
 O39 O 0.40305 0.47053 0.30828
 Cu40 Cu 0.53950 0.46306 0.33334
 Cu41 Cu 0.46306 0.53951 0.33332
 C42 C 0.41205 0.41636 0.29985
 C43 C 0.58657 0.59016 0.36680
 C44 C 0.41636 0.41206 0.36680
 C45 C 0.59016 0.58658 0.29986
 C46 C -0.01760 0.15148 0.54885
 C47 C -0.00327 0.13709 0.57693
 C48 C 0.00017 0.19064 0.59379
 C49 C -0.01104 0.25346 0.58096
 C50 C -0.08817 0.20987 0.56655
 C51 C -0.09161 0.15616 0.54963
 C52 C 0.04665 0.23369 0.54281
 C53 C 0.05009 0.28727 0.55969
 C54 C -0.01896 0.09447 0.53089
 C55 C -0.01365 0.04998 0.51661
 C56 C -0.00690 0.31093 0.59934
 C57 C -0.00399 0.35699 0.61486
 H58 H 0.00342 0.08889 0.58304
 H59 H 0.00985 0.18836 0.61435
 H60 H -0.13581 0.22031 0.56936
 H61 H -0.14211 0.12059 0.53797
 H62 H 0.08591 0.24853 0.52663
 H63 H 0.09226 0.34795 0.55799
 C64 C 0.84920 0.83077 0.21522
 C65 C 0.86300 0.85892 0.24330
 C66 C 0.80926 0.80855 0.26009
 C67 C 0.74688 0.73487 0.24719
 C68 C 0.79100 0.70172 0.23292
 C69 C 0.84488 0.75224 0.21608
 C70 C 0.76698 0.81286 0.20900
 C71 C 0.71322 0.76246 0.22579
 C72 C 0.90637 0.88667 0.19734
 C73 C 0.95089 0.93664 0.18309
 C74 C 0.68920 0.68128 0.26548
 C75 C 0.64297 0.63798 0.28094
 H76 H 0.91094 0.91361 0.24947
 H77 H 0.81114 0.82012 0.28063
 H78 H 0.78077 0.64372 0.23578
 H79 H 0.88083 0.73761 0.20453
 H80 H 0.75226 0.83749 0.19275
 H81 H 0.65251 0.74395 0.22396
 C82 C 0.16678 0.01813 -0.11884
 C83 C 0.18499 -0.04606 -0.12485
 C84 C 0.23576 -0.04914 -0.10804
 C85 C 0.26339 0.01224 -0.08684
 C86 C 0.18975 0.00101 -0.07391
 C87 C 0.13900 0.00410 -0.09072
 C88 C 0.24513 0.09227 -0.11822
 C89 C 0.29602 0.08919 -0.10137
 C90 C 0.11044 0.01901 -0.13674
 C91 C 0.06005 0.01307 -0.15099
 C92 C 0.31736 0.00841 -0.06853
 C93 C 0.36092 0.00559 -0.05305
 H94 H 0.16028 -0.08553 -0.14097
 H95 H 0.25452 -0.09122 -0.10973
 H96 H 0.17848 -0.00842 -0.05334
 H97 H 0.08429 -0.00264 -0.08453
 H98 H 0.25937 0.14260 -0.12994
 H99 H 0.35396 0.13695 -0.09866
 C100 C 0.02173 0.84828 0.54883
 C101 C 0.00735 0.86216 0.57689
 C102 C 0.00367 0.80817 0.59373
 C103 C 0.01470 0.74548 0.58091
 C104 C 0.09192 0.78918 0.56663
 C105 C 0.09561 0.84332 0.54973
 C106 C -0.04266 0.76627 0.54267
 C107 C -0.04635 0.71226 0.55952
 C108 C 0.02331 0.90573 0.53088
 C109 C 0.01807 0.95053 0.51661
 C110 C 0.01024 0.68753 0.59927
 C111 C 0.00697 0.64105 0.61479
 H112 H 0.00082 0.91033 0.58300
 H113 H -0.00608 0.81007 0.61427
 H114 H 0.13943 0.77850 0.56953
 H115 H 0.14619 0.87903 0.53816
 H116 H -0.08183 0.75187 0.52642
 H117 H -0.08864 0.65166 0.55774
 C118 C 0.15218 0.17315 0.21518
 C119 C 0.15651 0.25167 0.21603
 C120 C 0.21056 0.30200 0.23287
 C121 C 0.25482 0.26869 0.24715
 C122 C 0.28827 0.24133 0.22577
 C123 C 0.23434 0.19113 0.20897
 C124 C 0.13866 0.14468 0.24326
 C125 C 0.19256 0.19486 0.26005
 C126 C 0.09483 0.11744 0.19729
 C127 C 0.05013 0.06761 0.18306
 C128 C 0.31267 0.32207 0.26546
 C129 C 0.35905 0.36518 0.28093
 H130 H 0.12046 0.26644 0.20446
 H131 H 0.22082 0.35996 0.23572
 H132 H 0.34896 0.25986 0.22395
 H133 H 0.24890 0.16668 0.19273
 H134 H 0.09078 0.08992 0.24943
 H135 H 0.19089 0.18306 0.28060
 C136 C 0.82651 -0.02127 -0.11828
 C137 C 0.80886 0.04324 -0.12461
 C138 C 0.75859 0.04712 -0.10790
 C139 C 0.73084 -0.01389 -0.08649
 C140 C 0.80443 -0.00302 -0.07347
 C141 C 0.85469 -0.00689 -0.09017
 C142 C 0.74785 -0.09503 -0.11748
 C143 C 0.69745 -0.09115 -0.10074
 C144 C 0.88231 -0.02304 -0.13606
 C145 C 0.93229 -0.01789 -0.15023
 C146 C 0.67740 -0.00924 -0.06829
 C147 C 0.63426 -0.00583 -0.05289
 H148 H 0.83358 0.08237 -0.14085
 H149 H 0.74027 0.08952 -0.10981
 H150 H 0.81603 0.00675 -0.05292
 H151 H 0.90930 -0.00049 -0.08391
 H152 H 0.73305 -0.14567 -0.12901
 H153 H 0.63939 -0.13856 -0.09793
 C154 C 0.15148 -0.01759 0.11781
 C155 C 0.13700 -0.00340 0.08972
 C156 C 0.19056 0.00004 0.07286
 C157 C 0.25345 -0.01103 0.08569
 C158 C 0.20996 -0.08812 0.10015
 C159 C 0.15626 -0.09156 0.11706
 C160 C 0.23367 0.04675 0.12382
 C161 C 0.28725 0.05019 0.10694
 C162 C 0.09447 -0.01895 0.13577
 C163 C 0.04998 -0.01364 0.15005
 C164 C 0.31093 -0.00689 0.06732
 C165 C 0.35698 -0.00398 0.05180
 H166 H 0.08876 0.00320 0.08361
 H167 H 0.18822 0.00963 0.05230
 H168 H 0.22046 -0.13572 0.09735
 H169 H 0.12075 -0.14202 0.12875
 H170 H 0.24850 0.08607 0.13998
 H171 H 0.34792 0.09242 0.10863
 C172 C 0.83076 0.84921 0.45143
 C173 C 0.85888 0.86305 0.42335
 C174 C 0.80850 0.80932 0.40657
 C175 C 0.73486 0.74689 0.41947
 C176 C 0.70169 0.79094 0.43376
 C177 C 0.75220 0.84482 0.45060
 C178 C 0.81292 0.76700 0.45765
 C179 C 0.76252 0.71324 0.44085
 C180 C 0.88667 0.90637 0.46932
 C181 C 0.93663 0.95090 0.48357
 C182 C 0.68127 0.68921 0.40118
 C183 C 0.63797 0.64298 0.38571
 H184 H 0.91354 0.91102 0.41718
 H185 H 0.82005 0.81123 0.38602
 H186 H 0.64367 0.78067 0.43092
 H187 H 0.73755 0.88073 0.46217
 H188 H 0.83760 0.75228 0.47388
 H189 H 0.74406 0.65253 0.44267
 C190 C 0.01813 0.16678 0.78550
 C191 C 0.00389 0.13892 0.75739
 C192 C 0.00081 0.18966 0.74058
 C193 C 0.01224 0.26339 0.75350
 C194 C 0.08926 0.29596 0.76797
 C195 C 0.09234 0.24506 0.78483
 C196 C -0.04593 0.18515 0.79155
 C197 C -0.04901 0.23592 0.77474
 C198 C 0.01901 0.11045 0.80340
 C199 C 0.01306 0.06006 0.81764
 C200 C 0.00840 0.31736 0.73519
 C201 C 0.00559 0.36093 0.71971
 H202 H -0.00298 0.08415 0.75121
 H203 H -0.00876 0.17834 0.72001
 H204 H 0.13707 0.35385 0.76523
 H205 H 0.14272 0.25926 0.79651
 H206 H -0.08532 0.16054 0.80769
 H207 H -0.09101 0.25478 0.77645
 C208 C 0.84827 0.02174 0.11783
 C209 C 0.86220 0.00745 0.08977
 C210 C 0.80822 0.00376 0.07292
 C211 C 0.74548 0.01471 0.08575
 C212 C 0.78912 0.09189 0.10005
 C213 C 0.84326 0.09558 0.11695
 C214 C 0.76628 -0.04271 0.12398
 C215 C 0.71227 -0.04639 0.10712
 C216 C 0.90572 0.02332 0.13577
 C217 C 0.95052 0.01807 0.15005
 C218 C 0.68753 0.01025 0.06739
 C219 C 0.64105 0.00698 0.05187
 H220 H 0.91041 0.00097 0.08366
 H221 H 0.81015 -0.00593 0.05238
 H222 H 0.77840 0.13938 0.09717
 H223 H 0.87892 0.14615 0.12853
 H224 H 0.75189 -0.08192 0.14021
 H225 H 0.65167 -0.08873 0.10889
 C226 C 0.17314 0.15219 0.45148
 C227 C 0.25172 0.15662 0.45067
 C228 C 0.30204 0.21067 0.43383
 C229 C 0.26868 0.25482 0.41950
 C230 C 0.24121 0.28825 0.44086
 C231 C 0.19101 0.23433 0.45766
 C232 C 0.14474 0.13858 0.42339
 C233 C 0.19492 0.19248 0.40660
 C234 C 0.11743 0.09483 0.46937
 C235 C 0.06760 0.05013 0.48360
 C236 C 0.32206 0.31268 0.40120
 C237 C 0.36517 0.35906 0.38573
 H238 H 0.26651 0.12063 0.46226
 H239 H 0.36004 0.22099 0.43100
 H240 H 0.25967 0.34893 0.44266
 H241 H 0.16649 0.24887 0.47388
 H242 H 0.09002 0.09065 0.41722
 H243 H 0.18316 0.19076 0.38605
 C244 C -0.02128 0.82651 0.78494
 C245 C 0.04312 0.80872 0.79130
 C246 C 0.04699 0.75844 0.77460
 C247 C -0.01389 0.73084 0.75315
 C248 C -0.00284 0.80452 0.74014
 C249 C -0.00671 0.85477 0.75683
 C250 C -0.09510 0.74792 0.78409
 C251 C -0.09123 0.69752 0.76735
 C252 C -0.02304 0.88232 0.80272
 C253 C -0.01789 0.93229 0.81689
 C254 C -0.00924 0.67740 0.73495
 C255 C -0.00584 0.63426 0.71954
 H256 H 0.08217 0.83334 0.80757
 H257 H 0.08932 0.74003 0.77653
 H258 H 0.00706 0.81617 0.71959
 H259 H -0.00019 0.90944 0.75058
 H260 H -0.14579 0.73316 0.79559
 H261 H -0.13868 0.63949 0.76451
   
