data_POSCAR
  _audit_creation_date              2014-09-24
  _audit_creation_method            'ToBaCCo'
  _symmetry_space_group_name_H-M    'P1'
  _symmetry_Int_Tables_number       1
  _symmetry_cell_setting            triclinic
  loop_
  _symmetry_equiv_pos_as_xyz
 x,y,z
_cell_length_a 44.1335
_cell_length_b 44.1547
_cell_length_c 44.2275
_cell_angle_alpha 89.996100
_cell_angle_beta 90.000800
_cell_angle_gamma 89.991600
loop_
  _atom_site_label
  _atom_site_type_symbol
  _atom_site_fract_x
  _atom_site_fract_y
  _atom_site_fract_z
C1 C 0.15317 0.17516 0.19867
 C2 C 0.15191 0.19654 0.17526
 C3 C 0.17373 0.19645 0.15283
 C4 C 0.19723 0.17505 0.15363
 C5 C 0.19877 0.15442 0.17700
 C6 C 0.17654 0.15445 0.19969
 C7 C 0.13504 0.16991 0.22340
 N8 N 0.14682 0.14648 0.23977
 C9 C 0.17243 0.13711 0.22519
 C10 C 0.22425 0.13710 0.17244
 N11 N 0.23837 0.14643 0.14660
 C12 C 0.22167 0.16977 0.13507
 C13 C 0.16741 0.22024 0.13373
 N14 N 0.14242 0.23492 0.14416
 C15 C 0.13274 0.22042 0.16951
 H16 H 0.11521 0.18306 0.22920
 H17 H 0.18685 0.11847 0.23185
 H18 H 0.23124 0.11856 0.18680
 H19 H 0.22710 0.18288 0.11514
 H20 H 0.18072 0.22703 0.11432
 H21 H 0.11336 0.22694 0.18301
 C22 C -0.15345 0.82479 0.19789
 C23 C -0.15262 0.80340 0.17443
 C24 C -0.17500 0.80343 0.15255
 C25 C -0.19837 0.82492 0.15369
 C26 C -0.19942 0.84561 0.17701
 C27 C -0.17680 0.84552 0.19930
 C28 C -0.13496 0.82999 0.22239
 N29 N -0.14653 0.85337 0.23899
 C30 C -0.17231 0.86281 0.22476
 C31 C -0.22489 0.86307 0.17277
 N32 N -0.23939 0.85376 0.14713
 C33 C -0.22302 0.83027 0.13547
 C34 C -0.16929 0.77955 0.13343
 N35 N -0.14401 0.76491 0.14319
 C36 C -0.13357 0.77951 0.16818
 H37 H -0.11507 0.81682 0.22791
 H38 H -0.18666 0.88141 0.23166
 H39 H -0.23157 0.88172 0.18713
 H40 H -0.22878 0.81713 0.11566
 H41 H -0.18277 0.77313 0.11402
 H42 H -0.11420 0.77260 0.18152
 C43 C -0.15271 0.17461 -0.19805
 C44 C -0.15144 0.19599 -0.17465
 C45 C -0.17331 0.19597 -0.15226
 C46 C -0.19687 0.17464 -0.15311
 C47 C -0.19840 0.15401 -0.17648
 C48 C -0.17613 0.15397 -0.19912
 C49 C -0.13457 0.16936 -0.22277
 N50 N -0.14639 0.14600 -0.23919
 C51 C -0.17204 0.13667 -0.22465
 C52 C -0.22396 0.13680 -0.17201
 N53 N -0.23813 0.14619 -0.14622
 C54 C -0.22139 0.16946 -0.13463
 C55 C -0.16700 0.21979 -0.13320
 N56 N -0.14198 0.23441 -0.14363
 C57 C -0.13227 0.21985 -0.16892
 H58 H -0.11472 0.18249 -0.22855
 H59 H -0.18651 0.11810 -0.23137
 H60 H -0.23098 0.11828 -0.18639
 H61 H -0.22684 0.18260 -0.11473
 H62 H -0.18036 0.22667 -0.11386
 H63 H -0.11286 0.22632 -0.18242
 C64 C 0.15295 0.82536 -0.19720
 C65 C 0.15210 0.80401 -0.17371
 C66 C 0.17451 0.80401 -0.15186
 C67 C 0.19794 0.82541 -0.15309
 C68 C 0.19901 0.84607 -0.17644
 C69 C 0.17636 0.84601 -0.19870
 C70 C 0.13446 0.83053 -0.22170
 N71 N 0.14609 0.85382 -0.23838
 C72 C 0.17190 0.86323 -0.22420
 C73 C 0.22456 0.86341 -0.17231
 N74 N 0.23911 0.85408 -0.14670
 C75 C 0.22268 0.83067 -0.13495
 C76 C 0.16879 0.78013 -0.13274
 N77 N 0.14348 0.76554 -0.14246
 C78 C 0.13302 0.78016 -0.16743
 H79 H 0.11454 0.81739 -0.22718
 H80 H 0.18630 0.88176 -0.23118
 H81 H 0.23129 0.88200 -0.18673
 H82 H 0.22845 0.81754 -0.11514
 H83 H 0.18231 0.77366 -0.11337
 H84 H 0.11365 0.77327 -0.18077
 C85 C 0.17402 1.15237 0.80281
 C86 C 0.19548 1.15150 0.82620
 C87 C 0.19557 1.17387 0.84807
 C88 C 0.17414 1.19728 0.84697
 C89 C 0.15337 1.19838 0.82372
 C90 C 0.15333 1.17577 0.80144
 C91 C 0.16876 1.13394 0.77829
 N92 N 0.14540 1.14558 0.76172
 C93 C 0.13602 1.17136 0.77598
 C94 C 0.13607 1.22395 0.82795
 N95 N 0.14555 1.23845 0.85353
 C96 C 0.16900 1.22199 0.86515
 C97 C 0.21957 1.16819 0.86705
 N98 N 0.23417 1.14294 0.85722
 C99 C 0.21943 1.13247 0.83232
 H100 H 0.18192 1.11406 0.77272
 H101 H 0.11745 1.18576 0.76908
 H102 H 0.11742 1.23073 0.81362
 H103 H 0.18226 1.22774 0.88488
 H104 H 0.22612 1.18171 0.88638
 H105 H 0.22632 1.11314 0.81893
 C106 C 0.82545 0.84751 0.80272
 C107 C 0.80413 0.84847 0.82624
 C108 C 0.80411 0.82611 0.84814
 C109 C 0.82547 0.80264 0.84694
 C110 C 0.84610 0.80148 0.82356
 C111 C 0.84606 0.82407 0.80126
 C112 C 0.83063 0.86590 0.77815
 N113 N 0.85387 0.85417 0.76147
 C114 C 0.86325 0.82839 0.77572
 C115 C 0.86339 0.77590 0.82771
 N116 N 0.85406 0.76142 0.85335
 C117 C 0.83070 0.77793 0.86510
 C118 C 0.78024 0.83190 0.86726
 N119 N 0.76567 0.85721 0.85750
 C120 C 0.78029 0.86759 0.83249
 H121 H 0.81751 0.88583 0.77262
 H122 H 0.88174 0.81393 0.76875
 H123 H 0.88195 0.76911 0.81327
 H124 H 0.81757 0.77222 0.88494
 H125 H 0.77376 0.81843 0.88665
 H126 H 0.77341 0.88694 0.81912
 C127 C 0.17406 0.84805 1.19730
 C128 C 0.19580 0.84891 1.17419
 C129 C 0.19588 0.82687 1.15197
 C130 C 0.17431 0.80356 1.15268
 C131 C 0.15314 0.80254 1.17570
 C132 C 0.15309 0.82492 1.19820
 C133 C 0.16880 0.86627 1.22196
 N134 N 0.14515 0.85473 1.23818
 C135 C 0.13559 0.82925 1.22354
 C136 C 0.13562 0.77720 1.17113
 N137 N 0.14556 0.76282 1.14582
 C138 C 0.16926 0.77884 1.13441
 C139 C 0.21998 0.83284 1.13314
 N140 N 0.23465 0.85784 1.14351
 C141 C 0.21990 0.86784 1.16858
 H142 H 0.18217 0.88590 1.22790
 H143 H 0.11680 0.81498 1.23012
 H144 H 0.11683 0.76993 1.18509
 H145 H 0.18227 0.77269 1.11459
 H146 H 0.22692 0.81933 1.11392
 H147 H 0.22633 0.88734 1.18195
 C148 C 0.82661 1.15155 1.19696
 C149 C 0.80478 1.15072 1.17393
 C150 C 0.80462 1.17279 1.15175
 C151 C 0.82619 1.19610 1.15241
 C152 C 0.84745 1.19710 1.17535
 C153 C 0.84759 1.17467 1.19781
 C154 C 0.83195 1.13329 1.22157
 N155 N 0.85566 1.14479 1.23773
 C156 C 0.86518 1.17030 1.22310
 C157 C 0.86493 1.22247 1.17073
 N158 N 0.85486 1.23687 1.14548
 C159 C 0.83113 1.22085 1.13416
 C160 C 0.78045 1.16688 1.13301
 N161 N 0.76580 1.14188 1.14340
 C162 C 0.78064 1.13182 1.16839
 H163 H 0.81859 1.11365 1.22753
 H164 H 0.88398 1.18455 1.22966
 H165 H 0.88376 1.22975 1.18462
 H166 H 0.81802 1.22702 1.11441
 H167 H 0.77343 1.18044 1.11385
 H168 H 0.77423 1.11232 1.18177
 N169 N 0.46839 0.94691 0.96713
 N170 N 0.44506 0.92856 0.96356
 N171 N 0.53215 0.96807 0.94656
 N172 N 0.55617 0.96530 0.92900
 N173 N 0.53217 0.94711 0.96762
 N174 N 0.55624 0.92957 0.96499
 N175 N 0.46830 0.96812 0.94633
 N176 N 0.44479 0.96491 0.92817
 C177 C 0.43055 0.94006 0.93913
 C178 C 0.57094 0.94109 0.94070
 N179 N 0.53188 1.05443 0.96740
 N180 N 0.55534 1.07269 0.96409
 N181 N 0.46827 1.03328 0.94632
 N182 N 0.44431 1.03596 0.92866
 N183 N 0.46810 1.05424 0.96737
 N184 N 0.44397 1.07170 0.96464
 N185 N 0.53212 1.03323 0.94660
 N186 N 0.55584 1.03635 0.92871
 Mn187 Mn 0.50021 1.00068 0.94606
 C188 C 0.57006 1.06114 0.93981
 C189 C 0.42941 1.06012 0.94028
 N190 N 0.53169 0.94693 1.03270
 N191 N 0.55504 0.92860 1.03629
 N192 N 0.46787 0.96808 1.05319
 N193 N 0.44384 0.96536 1.07073
 N194 N 0.46795 0.94698 1.03228
 N195 N 0.44402 0.92927 1.03510
 N196 N 0.53174 0.96814 1.05349
 N197 N 0.55524 0.96495 1.07166
 Mn198 Mn 0.50005 0.94659 0.99992
 C199 C 0.56953 0.94011 1.06072
 C200 C 0.42923 0.94096 1.05928
 N201 N 0.46802 1.05439 1.03245
 N202 N 0.44454 1.07263 1.03578
 N203 N 0.53170 1.03323 1.05345
 N204 N 0.55569 1.03582 1.07106
 N205 N 0.53177 1.05434 1.03255
 N206 N 0.55578 1.07194 1.03545
 N207 N 0.46782 1.03317 1.05323
 N208 N 0.44410 1.03626 1.07114
 Mn209 Mn 0.49995 1.05475 0.99993
 Mn210 Mn 0.49978 1.00066 1.05372
 Cl211 Cl 0.50000 1.00067 0.99991
 C212 C 0.42984 1.06105 1.06006
 C213 C 0.57044 1.06017 1.05967
 N214 N -0.03241 0.46813 -0.05384
 N215 N -0.03495 0.44405 -0.07134
 N216 N -0.05364 0.53185 -0.03315
 N217 N -0.07195 0.55522 -0.03669
 N218 N -0.03235 0.53199 -0.05387
 N219 N -0.03546 0.55557 -0.07194
 N220 N -0.05359 0.46814 -0.03300
 N221 N -0.07117 0.44412 -0.03583
 C222 C -0.05934 0.42936 -0.05994
 C223 C -0.06034 0.56980 -0.06101
 N224 N -0.03283 0.53197 0.05307
 N225 N -0.03572 0.55586 0.07077
 N226 N -0.05388 0.46825 0.03209
 N227 N -0.07199 0.44467 0.03528
 N228 N -0.03285 0.46820 0.05307
 N229 N -0.03602 0.44457 0.07105
 N230 N -0.05374 0.53206 0.03195
 N231 N -0.07135 0.55607 0.03467
 Mn232 Mn -0.05411 0.50008 -0.00052
 C233 C -0.05993 0.57065 0.05909
 C234 C -0.06060 0.43013 0.05975
 N235 N 0.03282 0.53193 -0.05364
 N236 N 0.03563 0.55593 -0.07122
 N237 N 0.05384 0.46822 -0.03275
 N238 N 0.07210 0.44478 -0.03614
 N239 N 0.03270 0.46813 -0.05362
 N240 N 0.03587 0.44454 -0.07166
 N241 N 0.05373 0.53198 -0.03252
 N242 N 0.07126 0.55605 -0.03512
 Mn243 Mn 0.00019 0.50005 -0.05413
 C244 C 0.05981 0.57071 -0.05947
 C245 C 0.06061 0.43023 -0.06055
 N246 N 0.03231 0.46805 0.05326
 N247 N 0.03492 0.44405 0.07085
 N248 N 0.05357 0.53179 0.03251
 N249 N 0.07170 0.55532 0.03583
 N250 N 0.03238 0.53188 0.05334
 N251 N 0.03549 0.55550 0.07135
 N252 N 0.05349 0.46804 0.03241
 N253 N 0.07114 0.44407 0.03533
 Mn254 Mn -0.00025 0.50003 0.05357
 Mn255 Mn 0.05405 0.50000 -0.00008
 Cl256 Cl -0.00003 0.50004 -0.00029
 C257 C 0.05934 0.42936 0.05950
 C258 C 0.06020 0.56989 0.06021
 N259 N 0.94649 -0.03288 0.46797
 N260 N 0.92856 -0.03602 0.44429
 N261 N 0.96728 -0.05398 0.53193
 N262 N 0.96409 -0.07189 0.55561
 N263 N 0.94610 -0.03311 0.53164
 N264 N 0.92780 -0.03638 0.55502
 N265 N 0.96730 -0.05413 0.46826
 N266 N 0.96396 -0.07242 0.44488
 C267 C 0.93966 -0.06086 0.43015
 C268 C 0.93927 -0.06071 0.56974
 N269 N 1.05340 -0.03303 0.53226
 N270 N 1.07131 -0.03617 0.55594
 N271 N 1.03251 -0.05410 0.46836
 N272 N 1.03557 -0.07199 0.44465
 N273 N 1.05375 -0.03330 0.46860
 N274 N 1.07197 -0.03659 0.44517
 N275 N 1.03251 -0.05420 0.53202
 N276 N 1.03578 -0.07244 0.55545
 Mn277 Mn 0.99990 -0.05449 0.50014
 C278 C 1.06012 -0.06093 0.57015
 C279 C 1.06038 -0.06087 0.43046
 N280 N 0.94630 0.03207 0.53180
 N281 N 0.92814 0.03528 0.55529
 N282 N 0.96774 0.05312 0.46806
 N283 N 0.96481 0.07106 0.44437
 N284 N 0.94649 0.03232 0.46815
 N285 N 0.92839 0.03567 0.44462
 N286 N 0.96719 0.05323 0.53171
 N287 N 0.96368 0.07154 0.55504
 Mn288 Mn 0.94596 -0.00040 0.49988
 C289 C 0.93919 0.06009 0.56952
 C290 C 0.94007 0.05998 0.43002
 N291 N 1.05376 0.03190 0.46840
 N292 N 1.07195 0.03512 0.44493
 N293 N 1.03242 0.05301 0.53219
 N294 N 1.03549 0.07099 0.55583
 N295 N 1.05362 0.03215 0.53207
 N296 N 1.07180 0.03549 0.55553
 N297 N 1.03295 0.05315 0.46854
 N298 N 1.03654 0.07152 0.44527
 Mn299 Mn 1.05402 -0.00057 0.50033
 Mn300 Mn 1.00008 0.05351 0.50013
 Cl301 Cl 0.99999 -0.00049 0.50012
 C302 C 1.06099 0.06001 0.43076
 C303 C 1.06024 0.05986 0.57013
 C304 C 1.11066 0.10982 0.32016
 C305 C 1.14063 0.10356 0.31148
 C306 C 1.15257 0.11549 0.28475
 C307 C 1.13506 0.13454 0.26596
 C308 C 1.10501 0.14087 0.27497
 C309 C 1.09300 0.12852 0.30147
 C310 C 1.09790 0.09698 0.34861
 C311 C 1.07718 0.11372 0.36611
 C312 C 1.06506 0.10161 0.39268
 C313 C 1.07372 0.07270 0.40261
 C314 C 1.09451 0.05597 0.38536
 C315 C 1.10631 0.06788 0.35855
 H316 H 1.17594 0.11039 0.27959
 H317 H 1.09013 0.15456 0.26123
 H318 H 1.04917 0.11505 0.40565
 H319 H 1.10135 0.03348 0.39239
 H320 H 1.06958 0.13327 0.30700
 H321 H 1.07059 0.13639 0.35954
 H322 H 1.15518 0.08982 0.32563
 H323 H 1.12172 0.05406 0.34542
 C324 C 0.89025 -0.11034 0.31928
 C325 C 0.86022 -0.10406 0.31084
 C326 C 0.84808 -0.11588 0.28416
 C327 C 0.86545 -0.13484 0.26516
 C328 C 0.89555 -0.14126 0.27394
 C329 C 0.90776 -0.12901 0.30042
 C330 C 0.90317 -0.09752 0.34767
 C331 C 0.92394 -0.11427 0.36510
 C332 C 0.93598 -0.10226 0.39176
 C333 C 0.92720 -0.07342 0.40182
 C334 C 0.90646 -0.05664 0.38457
 C335 C 0.89474 -0.06846 0.35769
 H336 H 0.82467 -0.11075 0.27923
 H337 H 0.91030 -0.15494 0.26005
 H338 H 0.95186 -0.11572 0.40472
 H339 H 0.89954 -0.03421 0.39167
 H340 H 0.93120 -0.13382 0.30580
 H341 H 0.93058 -0.13691 0.35844
 H342 H 0.84577 -0.09038 0.32514
 H343 H 0.87932 -0.05462 0.34460
 C344 C 0.88969 0.10956 0.68030
 C345 C 0.85971 0.10335 0.68895
 C346 C 0.84779 0.11519 0.71573
 C347 C 0.86535 0.13411 0.73459
 C348 C 0.89541 0.14039 0.72562
 C349 C 0.90740 0.12812 0.69908
 C350 C 0.90242 0.09681 0.65182
 C351 C 0.92316 0.11358 0.63437
 C352 C 0.93525 0.10155 0.60775
 C353 C 0.92653 0.07270 0.59772
 C354 C 0.90573 0.05594 0.61492
 C355 C 0.89396 0.06776 0.64178
 H356 H 0.82440 0.11014 0.72086
 H357 H 0.91033 0.15398 0.73943
 H358 H 0.95115 0.11501 0.59481
 H359 H 0.89884 0.03349 0.60782
 H360 H 0.93083 0.13283 0.69357
 H361 H 0.92980 0.13621 0.64103
 H362 H 0.84513 0.08971 0.67474
 H363 H 0.87853 0.05393 0.65487
 C364 C 1.10939 -0.11012 0.68119
 C365 C 1.13944 -0.10390 0.68959
 C366 C 1.15155 -0.11564 0.71632
 C367 C 1.13413 -0.13446 0.73541
 C368 C 1.10401 -0.14081 0.72667
 C369 C 1.09182 -0.12865 0.70014
 C370 C 1.09650 -0.09739 0.65276
 C371 C 1.07570 -0.11416 0.63539
 C372 C 1.06369 -0.10221 0.60868
 C373 C 1.07253 -0.07343 0.59852
 C374 C 1.09329 -0.05663 0.61572
 C375 C 1.10499 -0.06838 0.64264
 H376 H 1.17497 -0.11056 0.72122
 H377 H 1.08922 -0.15438 0.74063
 H378 H 1.04779 -0.11568 0.59576
 H379 H 1.10026 -0.03423 0.60854
 H380 H 1.06837 -0.13341 0.69479
 H381 H 1.06901 -0.13675 0.64213
 H382 H 1.15392 -0.09033 0.67522
 H383 H 1.12043 -0.05452 0.65569
 C384 C 0.31869 1.11013 1.10960
 C385 C 0.31034 1.10385 1.13959
 C386 C 0.28365 1.11566 1.15180
 C387 C 0.26452 1.13461 1.13454
 C388 C 0.27319 1.14098 1.10446
 C389 C 0.29969 1.12876 1.09218
 C390 C 0.34712 1.09740 1.09662
 C391 C 0.36452 1.11424 1.07591
 C392 C 0.39126 1.10232 1.06383
 C393 C 0.40142 1.07349 1.07251
 C394 C 0.38419 1.05661 1.09318
 C395 C 0.35724 1.06833 1.10494
 H396 H 0.27880 1.11054 1.17518
 H397 H 0.25919 1.15463 1.08977
 H398 H 0.40420 1.11586 1.04801
 H399 H 0.39137 1.03417 1.10001
 H400 H 0.30499 1.13356 1.06876
 H401 H 0.35778 1.13688 1.06935
 H402 H 0.32475 1.09019 1.15396
 H403 H 0.34417 1.05443 1.12031
 C404 C 0.31967 0.89059 0.88949
 C405 C 0.30088 0.87194 0.90709
 C406 C 0.27431 0.85965 0.89507
 C407 C 0.26534 0.86599 0.86508
 C408 C 0.28421 0.88501 0.84763
 C409 C 0.31101 0.89689 0.85958
 C410 C 0.34818 0.90334 0.90225
 C411 C 0.35816 0.93246 0.89396
 C412 C 0.38505 0.94429 0.90576
 C413 C 0.40233 0.92745 0.92643
 C414 C 0.39236 0.89852 0.93497
 C415 C 0.36571 0.88650 0.92285
 H416 H 0.26050 0.84599 0.90991
 H417 H 0.27908 0.89014 0.82430
 H418 H 0.39210 0.96679 0.89901
 H419 H 0.40536 0.88501 0.95076
 H420 H 0.32523 0.91061 0.84509
 H421 H 0.34501 0.94634 0.87864
 H422 H 0.30639 0.86716 0.93046
 H423 H 0.35909 0.86381 0.92935
 C424 C 0.68030 0.89056 1.11062
 C425 C 0.68890 0.89688 1.14054
 C426 C 0.71561 0.88492 1.15260
 C427 C 0.73446 0.86579 1.13524
 C428 C 0.72556 0.85944 1.10523
 C429 C 0.69908 0.87181 1.09311
 C430 C 0.65184 0.90336 1.09776
 C431 C 0.63434 0.88653 1.07713
 C432 C 0.60772 0.89857 1.06495
 C433 C 0.59775 0.92751 1.07345
 C434 C 0.61501 0.94435 1.09413
 C435 C 0.64186 0.93250 1.10600
 H436 H 0.72069 0.89006 1.17593
 H437 H 0.73937 0.84570 1.09046
 H438 H 0.59474 0.88506 1.04914
 H439 H 0.60796 0.96686 1.10085
 H440 H 0.69362 0.86701 1.06973
 H441 H 0.64094 0.86382 1.07067
 H442 H 0.67468 0.91067 1.15496
 H443 H 0.65500 0.94637 1.12134
 C444 C 0.68132 1.11017 0.89051
 C445 C 0.68972 1.10389 0.86054
 C446 C 0.71649 1.11561 0.84841
 C447 C 0.73563 1.13447 0.86575
 C448 C 0.72688 1.14087 0.89580
 C449 C 0.70031 1.12873 0.90800
 C450 C 0.65283 1.09748 0.90341
 C451 C 0.63540 1.11433 0.92408
 C452 C 0.60863 1.10242 0.93609
 C453 C 0.59849 1.07360 0.92740
 C454 C 0.61575 1.05671 0.90676
 C455 C 0.64273 1.06842 0.89506
 H456 H 0.72139 1.11049 0.82504
 H457 H 0.74087 1.15447 0.91053
 H458 H 0.59566 1.11596 0.95189
 H459 H 0.60859 1.03428 0.89991
 H460 H 0.69495 1.13353 0.93139
 H461 H 0.64214 1.13696 0.93065
 H462 H 0.67532 1.09028 0.84612
 H463 H 0.65582 1.05451 0.87972
 C464 C 0.10555 0.31629 0.10717
 C465 C 0.11935 0.29467 0.08830
 C466 C 0.13128 0.26793 0.10038
 C467 C 0.12953 0.26213 0.13157
 C468 C 0.11551 0.28360 0.15039
 C469 C 0.10374 0.31038 0.13835
 C470 C 0.09341 0.34505 0.09451
 C471 C 0.06644 0.35767 0.10586
 C472 C 0.05541 0.38506 0.09449
 C473 C 0.07101 0.40037 0.07143
 C474 C 0.09776 0.38768 0.05982
 C475 C 0.10889 0.36035 0.07129
 H476 H 0.14158 0.25163 0.08528
 H477 H 0.11429 0.28004 0.17456
 H478 H 0.03458 0.39419 0.10368
 H479 H 0.11026 0.39902 0.04204
 H480 H 0.09378 0.32677 0.15361
 H481 H 0.05368 0.34623 0.12337
 H482 H 0.12067 0.29827 0.06412
 H483 H 0.12993 0.35150 0.06233
 C484 C -0.10521 0.31593 -0.10696
 C485 C -0.10341 0.30992 -0.13813
 C486 C -0.11515 0.28308 -0.15005
 C487 C -0.12913 0.26167 -0.13114
 C488 C -0.13087 0.26758 -0.09998
 C489 C -0.11897 0.29437 -0.08800
 C490 C -0.09313 0.34476 -0.09444
 C491 C -0.10866 0.36015 -0.07130
 C492 C -0.09761 0.38757 -0.05999
 C493 C -0.07091 0.40026 -0.07169
 C494 C -0.05525 0.38487 -0.09465
 C495 C -0.06620 0.35738 -0.10586
 H496 H -0.11394 0.27944 -0.17421
 H497 H -0.14116 0.25133 -0.08482
 H498 H -0.11014 0.39897 -0.04228
 H499 H -0.03444 0.39400 -0.10390
 H500 H -0.12029 0.29806 -0.06384
 H501 H -0.12967 0.35128 -0.06229
 H502 H -0.09349 0.32626 -0.15345
 H503 H -0.05340 0.34588 -0.12330
 C504 C 0.10683 0.68403 -0.10564
 C505 C 0.08779 0.70559 -0.11932
 C506 C 0.09976 0.73237 -0.13127
 C507 C 0.13100 0.73826 -0.12963
 C508 C 0.14999 0.71684 -0.11575
 C509 C 0.13808 0.69002 -0.10398
 C510 C 0.09432 0.65523 -0.09348
 C511 C 0.10592 0.64259 -0.06667
 C512 C 0.09472 0.61513 -0.05565
 C513 C 0.07157 0.59978 -0.07110
 C514 C 0.05968 0.61248 -0.09768
 C515 C 0.07099 0.63988 -0.10880
 H516 H 0.08454 0.74864 -0.14148
 H517 H 0.17421 0.72047 -0.11464
 H518 H 0.10411 0.60598 -0.03495
 H519 H 0.04181 0.60112 -0.11004
 H520 H 0.15347 0.67367 -0.09414
 H521 H 0.12351 0.65407 -0.05403
 H522 H 0.06357 0.70193 -0.12054
 H523 H 0.06183 0.64874 -0.12971
 C524 C -0.10728 0.68354 0.10606
 C525 C -0.13853 0.68952 0.10444
 C526 C -0.15048 0.71628 0.11633
 C527 C -0.13151 0.73766 0.13031
 C528 C -0.10027 0.73176 0.13194
 C529 C -0.08827 0.70505 0.11987
 C530 C -0.09472 0.65483 0.09372
 C531 C -0.07133 0.63944 0.10890
 C532 C -0.05994 0.61216 0.09758
 C533 C -0.07180 0.59959 0.07093
 C534 C -0.09504 0.61497 0.05563
 C535 C -0.10632 0.64232 0.06685
 H536 H -0.17470 0.71991 0.11522
 H537 H -0.08506 0.74799 0.14223
 H538 H -0.04202 0.60077 0.10985
 H539 H -0.10444 0.60593 0.03488
 H540 H -0.06404 0.70140 0.12107
 H541 H -0.06216 0.64819 0.12986
 H542 H -0.15391 0.67322 0.09450
 H543 H -0.12397 0.65383 0.05430
 C544 C 1.10924 0.10908 0.68126
 C545 C 1.12778 0.09147 0.70018
 C546 C 1.13996 0.10359 0.72672
 C547 C 1.13361 0.13368 0.73552
 C548 C 1.11475 0.15113 0.71649
 C549 C 1.10300 0.13909 0.68974
 C550 C 1.09656 0.09626 0.65278
 C551 C 1.06755 0.10476 0.64261
 C552 C 1.05585 0.09308 0.61566
 C553 C 1.07269 0.07233 0.59849
 C554 C 1.10148 0.06351 0.60868
 C555 C 1.11339 0.07551 0.63540
 H556 H 1.15354 0.08877 0.74064
 H557 H 1.10967 0.17453 0.72145
 H558 H 1.03345 0.10003 0.60845
 H559 H 1.11499 0.04763 0.59578
 H560 H 1.08941 0.15360 0.67541
 H561 H 1.05366 0.12018 0.65564
 H562 H 1.13254 0.06804 0.69478
 H563 H 1.13599 0.06883 0.64217
 C564 C 0.88994 -0.10954 0.68088
 C565 C 0.89609 -0.13957 0.68937
 C566 C 0.88433 -0.15154 0.71615
 C567 C 0.86558 -0.13401 0.73520
 C568 C 0.85929 -0.10392 0.72636
 C569 C 0.87147 -0.09186 0.69978
 C570 C 0.90270 -0.09679 0.65241
 C571 C 0.88596 -0.07603 0.63496
 C572 C 0.89794 -0.06414 0.60822
 C573 C 0.92673 -0.07306 0.59811
 C574 C 0.94349 -0.09380 0.61537
 C575 C 0.93171 -0.10538 0.64232
 H576 H 0.88935 -0.17496 0.72112
 H577 H 0.84577 -0.08905 0.74029
 H578 H 0.88450 -0.04825 0.59526
 H579 H 0.96589 -0.10083 0.60822
 H580 H 0.86677 -0.06842 0.69435
 H581 H 0.86337 -0.06928 0.64168
 H582 H 0.90961 -0.15414 0.67504
 H583 H 0.94554 -0.12080 0.65542
 C584 C 1.10905 -0.10936 0.31890
 C585 C 1.10250 -0.13919 0.31003
 C586 C 1.11420 -0.15102 0.28317
 C587 C 1.13333 -0.13354 0.26443
 C588 C 1.13993 -0.10363 0.27361
 C589 C 1.12780 -0.09171 0.30024
 C590 C 1.09647 -0.09677 0.34752
 C591 C 1.11349 -0.07639 0.36515
 C592 C 1.10166 -0.06457 0.39198
 C593 C 1.07277 -0.07319 0.40202
 C594 C 1.05574 -0.09358 0.38461
 C595 C 1.06736 -0.10508 0.35755
 H596 H 1.10890 -0.17431 0.27789
 H597 H 1.15370 -0.08879 0.25990
 H598 H 1.11531 -0.04897 0.40508
 H599 H 1.03326 -0.10038 0.39170
 H600 H 1.13277 -0.06839 0.30594
 H601 H 1.13617 -0.06988 0.35849
 H602 H 1.08873 -0.15373 0.32415
 H603 H 1.05333 -0.12019 0.34432
 C604 C 0.89179 0.10873 0.31839
 C605 C 0.89838 0.13856 0.30954
 C606 C 0.88669 0.15044 0.28268
 C607 C 0.86754 0.13300 0.26394
 C608 C 0.86093 0.10307 0.27306
 C609 C 0.87306 0.09111 0.29969
 C610 C 0.90428 0.09610 0.34704
 C611 C 0.88719 0.07570 0.36458
 C612 C 0.89893 0.06381 0.39142
 C613 C 0.92779 0.07239 0.40157
 C614 C 0.94488 0.09282 0.38426
 C615 C 0.93335 0.10438 0.35718
 H616 H 0.89201 0.17372 0.27742
 H617 H 0.84716 0.08825 0.25933
 H618 H 0.88523 0.04819 0.40444
 H619 H 0.96734 0.09959 0.39145
 H620 H 0.86807 0.06778 0.30534
 H621 H 0.86453 0.06922 0.35784
 H622 H 0.91216 0.15307 0.32368
 H623 H 0.94743 0.11953 0.34403
 C624 C 0.10948 0.31909 -0.11009
 C625 C 0.10302 0.31047 -0.13998
 C626 C 0.11473 0.28365 -0.15199
 C627 C 0.13376 0.26470 -0.13463
 C628 C 0.14027 0.27363 -0.10466
 C629 C 0.12814 0.30023 -0.09258
 C630 C 0.09688 0.34763 -0.09727
 C631 C 0.11386 0.36510 -0.07674
 C632 C 0.10198 0.39181 -0.06463
 C633 C 0.07306 0.40189 -0.07311
 C634 C 0.05607 0.38464 -0.09367
 C635 C 0.06775 0.35770 -0.10546
 H636 H 0.10948 0.27855 -0.17529
 H637 H 0.15394 0.25976 -0.08988
 H638 H 0.11561 0.40479 -0.04891
 H639 H 0.03356 0.39177 -0.10036
 H640 H 0.13304 0.30571 -0.06923
 H641 H 0.13656 0.35840 -0.07031
 H642 H 0.08929 0.32476 -0.15440
 H643 H 0.05375 0.34459 -0.12070
 C644 C -0.10909 0.31866 0.10871
 C645 C -0.12219 0.29672 0.08974
 C646 C -0.13405 0.26997 0.10178
 C647 C -0.13297 0.26448 0.13306
 C648 C -0.11983 0.28636 0.15203
 C649 C -0.10810 0.31317 0.14001
 C650 C -0.09655 0.34717 0.09596
 C651 C -0.06972 0.35974 0.10767
 C652 C -0.05809 0.38671 0.09591
 C653 C -0.07296 0.40163 0.07213
 C654 C -0.09963 0.38905 0.06025
 C655 C -0.11134 0.36214 0.07208
 H656 H -0.14361 0.25334 0.08656
 H657 H -0.11911 0.28300 0.17625
 H658 H -0.03734 0.39578 0.10536
 H659 H -0.11157 0.40012 0.04192
 H660 H -0.09867 0.32982 0.15532
 H661 H -0.05749 0.34853 0.12570
 H662 H -0.12286 0.30002 0.06549
 H663 H -0.13225 0.35329 0.06282
 C664 C -0.10956 0.68084 -0.11046
 C665 C -0.12815 0.69967 -0.09284
 C666 C -0.14040 0.72625 -0.10486
 C667 C -0.13407 0.73518 -0.13487
 C668 C -0.11512 0.71625 -0.15234
 C669 C -0.10329 0.68945 -0.14038
 C670 C -0.09686 0.65231 -0.09771
 C671 C -0.06776 0.64226 -0.10603
 C672 C -0.05599 0.61534 -0.09427
 C673 C -0.07287 0.59809 -0.07363
 C674 C -0.10177 0.60813 -0.06505
 C675 C -0.11374 0.63482 -0.07712
 H676 H -0.15401 0.74010 -0.09002
 H677 H -0.11002 0.72134 -0.17567
 H678 H -0.03350 0.60823 -0.10105
 H679 H -0.11532 0.59515 -0.04927
 H680 H -0.08962 0.67519 -0.15488
 H681 H -0.05385 0.65539 -0.12135
 H682 H -0.13291 0.69418 -0.06947
 H683 H -0.13641 0.64150 -0.07059
 C684 C 0.10905 0.68120 0.10915
 C685 C 0.10826 0.68665 0.14046
 C686 C 0.12016 0.71339 0.15244
 C687 C 0.13326 0.73526 0.13343
 C688 C 0.13415 0.72981 0.10214
 C689 C 0.12212 0.70312 0.09013
 C690 C 0.09639 0.65272 0.09643
 C691 C 0.11105 0.63778 0.07246
 C692 C 0.09924 0.61091 0.06065
 C693 C 0.07261 0.59833 0.07264
 C694 C 0.05787 0.61323 0.09651
 C695 C 0.06960 0.64017 0.10825
 H696 H 0.11959 0.71672 0.17667
 H697 H 0.14368 0.74644 0.08689
 H698 H 0.11109 0.59987 0.04225
 H699 H 0.03716 0.60416 0.10604
 H700 H 0.12264 0.69986 0.06587
 H701 H 0.13193 0.64661 0.06311
 H702 H 0.09886 0.67000 0.15579
 H703 H 0.05748 0.65136 0.12637
 C704 C 0.31598 1.10662 0.89377
 C705 C 0.29443 1.08749 0.88019
 C706 C 0.26757 1.09936 0.86829
 C707 C 0.26159 1.13057 0.86988
 C708 C 0.28303 1.14965 0.88360
 C709 C 0.30993 1.13784 0.89532
 C710 C 0.34481 1.09422 0.90601
 C711 C 0.35739 1.10597 0.93277
 C712 C 0.38488 1.09491 0.94387
 C713 C 0.40032 1.07174 0.92855
 C714 C 0.38767 1.05969 0.90202
 C715 C 0.36025 1.07087 0.89081
 H716 H 0.25130 1.08408 0.85817
 H717 H 0.27933 1.17385 0.88466
 H718 H 0.39398 1.10442 0.96453
 H719 H 0.39911 1.04181 0.88975
 H720 H 0.32627 1.15330 0.90507
 H721 H 0.34584 1.12358 0.94533
 H722 H 0.29816 1.06329 0.87905
 H723 H 0.35142 1.06159 0.86994
 C724 C 0.31621 0.89446 1.10674
 C725 C 0.29470 0.88054 1.08784
 C726 C 0.26792 0.86865 1.09986
 C727 C 0.26197 0.87057 1.13100
 C728 C 0.28334 0.88468 1.14986
 C729 C 0.31017 0.89640 1.13790
 C730 C 0.34497 0.90664 1.09415
 C731 C 0.35742 0.93371 1.10541
 C732 C 0.38480 0.94481 1.09408
 C733 C 0.40025 0.92920 1.07113
 C734 C 0.38774 0.90235 1.05960
 C735 C 0.36043 0.89114 1.07104
 H736 H 0.25169 0.85827 1.08473
 H737 H 0.27965 0.88603 1.17401
 H738 H 0.39379 0.96572 1.10321
 H739 H 0.39921 0.88984 1.04191
 H740 H 0.32648 0.90646 1.15318
 H741 H 0.34585 0.94649 1.12283
 H742 H 0.29841 0.87911 1.06369
 H743 H 0.35170 0.87003 1.06214
 C744 C 0.68391 1.10572 1.10694
 C745 C 0.70544 1.11951 1.08796
 C746 C 0.73233 1.13121 1.09987
 C747 C 0.73840 1.12924 1.13099
 C748 C 0.71703 1.11523 1.14993
 C749 C 0.69007 1.10369 1.13807
 C750 C 0.65499 1.09380 1.09445
 C751 C 0.64236 1.06683 1.10572
 C752 C 0.61486 1.05596 1.09445
 C753 C 0.59949 1.07173 1.07155
 C754 C 0.61216 1.09850 1.06002
 C755 C 0.63959 1.10947 1.07141
 H756 H 0.74857 1.14151 1.08469
 H757 H 0.72082 1.11384 1.17406
 H758 H 0.60573 1.03510 1.10356
 H759 H 0.60076 1.11112 1.04238
 H760 H 0.67376 1.09372 1.15341
 H761 H 0.65387 1.05393 1.12309
 H762 H 0.70164 1.12098 1.06382
 H763 H 0.64846 1.13053 1.06252
 C764 C 0.68419 0.89397 0.89433
 C765 C 0.69012 0.86273 0.89593
 C766 C 0.71692 0.85077 0.88415
 C767 C 0.73840 0.86973 0.87031
 C768 C 0.73256 0.90096 0.86870
 C769 C 0.70580 0.91298 0.88067
 C770 C 0.65542 0.90653 0.90655
 C771 C 0.64011 0.92994 0.89132
 C772 C 0.61273 0.94128 0.90249
 C773 C 0.60000 0.92933 0.92902
 C774 C 0.61532 0.90610 0.94439
 C775 C 0.64277 0.89488 0.93333
 H776 H 0.72051 0.82656 0.88523
 H777 H 0.74887 0.91615 0.85850
 H778 H 0.60139 0.95921 0.89019
 H779 H 0.60615 0.89666 0.96505
 H780 H 0.70219 0.93720 0.87950
 H781 H 0.64899 0.93915 0.87043
 H782 H 0.67373 0.84736 0.90575
 H783 H 0.65421 0.87723 0.94591
   
