data_POSCAR
  _audit_creation_date              2014-09-24
  _audit_creation_method            'ToBaCCo'
  _symmetry_space_group_name_H-M    'P1'
  _symmetry_Int_Tables_number       1
  _symmetry_cell_setting            triclinic
  loop_
  _symmetry_equiv_pos_as_xyz
 x,y,z
_cell_length_a 47.8709
_cell_length_b 47.8708
_cell_length_c 40.8485
_cell_angle_alpha 89.965900
_cell_angle_beta 89.964600
_cell_angle_gamma 89.988900
loop_
  _atom_site_label
  _atom_site_type_symbol
  _atom_site_fract_x
  _atom_site_fract_y
  _atom_site_fract_z
O1 O -0.02696 0.30513 0.03133
 O2 O 0.02774 0.30508 -0.03231
 O3 O -0.02680 0.30505 -0.03243
 O4 O 0.02758 0.30522 0.03145
 O5 O 0.02757 0.25902 0.03151
 O6 O -0.02667 0.25885 -0.03222
 O7 O 0.02773 0.25889 -0.03209
 O8 O -0.02682 0.25893 0.03138
 Cu9 Cu 0.00039 0.30980 -0.00051
 Cu10 Cu 0.00046 0.25427 -0.00034
 C11 C -0.03617 0.28200 0.04200
 C12 C 0.03702 0.28194 -0.04286
 C13 C -0.03597 0.28189 -0.04301
 C14 C 0.03681 0.28212 0.04217
 O15 O 0.47264 0.80462 0.53185
 O16 O 0.52703 0.80449 0.46790
 O17 O 0.47249 0.80456 0.46809
 O18 O 0.52718 0.80447 0.53166
 O19 O 0.52702 0.75827 0.53163
 O20 O 0.47248 0.75836 0.46822
 O21 O 0.52689 0.75829 0.46803
 O22 O 0.47262 0.75842 0.53183
 Cu23 Cu 0.49984 0.80921 0.49987
 Cu24 Cu 0.49974 0.75369 0.49993
 C25 C 0.46339 0.78151 0.54254
 C26 C 0.53620 0.78134 0.45726
 C27 C 0.46321 0.78144 0.45751
 C28 C 0.53639 0.78132 0.54229
 O29 O 1.02823 0.69601 0.03176
 O30 O 0.97357 0.69604 -0.03184
 O31 O 1.02811 0.69598 -0.03201
 O32 O 0.97369 0.69599 0.03191
 O33 O 0.97377 0.74219 0.03182
 O34 O 1.02805 0.74218 -0.03196
 O35 O 0.97365 0.74223 -0.03179
 O36 O 1.02817 0.74220 0.03166
 Cu37 Cu 1.00090 0.69133 -0.00004
 Cu38 Cu 1.00092 0.74685 -0.00007
 C39 C 1.03748 0.71913 0.04237
 C40 C 0.96433 0.71918 -0.04246
 C41 C 1.03732 0.71911 -0.04270
 C42 C 0.96449 0.71913 0.04256
 O43 O 0.47272 0.19424 0.46836
 O44 O 0.52705 0.19434 0.53230
 O45 O 0.47251 0.19428 0.53213
 O46 O 0.52726 0.19440 0.46854
 O47 O 0.52707 0.24060 0.46860
 O48 O 0.47249 0.24048 0.53202
 O49 O 0.52688 0.24054 0.53220
 O50 O 0.47268 0.24044 0.46841
 Cu51 Cu 0.49989 0.18964 0.50033
 Cu52 Cu 0.49977 0.24517 0.50031
 C53 C 0.46348 0.21736 0.45768
 C54 C 0.53619 0.21749 0.54295
 C55 C 0.46322 0.21740 0.54272
 C56 C 0.53645 0.21756 0.45792
 O57 O 0.69483 -0.02696 0.03126
 O58 O 0.69491 0.02777 -0.03234
 O59 O 0.69483 -0.02677 -0.03250
 O60 O 0.69483 0.02758 0.03142
 O61 O 0.74103 0.02747 0.03135
 O62 O 0.74103 -0.02674 -0.03242
 O63 O 0.74111 0.02765 -0.03225
 O64 O 0.74103 -0.02692 0.03118
 Cu65 Cu 0.69018 0.00041 -0.00055
 Cu66 Cu 0.74570 0.00036 -0.00054
 C67 C 0.71795 -0.03623 0.04187
 C68 C 0.71806 0.03700 -0.04295
 C69 C 0.71797 -0.03598 -0.04316
 C70 C 0.71797 0.03674 0.04209
 O71 O 0.19542 0.47268 0.53205
 O72 O 0.19536 0.52706 0.46809
 O73 O 0.19552 0.47252 0.46829
 O74 O 0.19535 0.52722 0.53186
 O75 O 0.24154 0.52723 0.53181
 O76 O 0.24172 0.47268 0.46840
 O77 O 0.24156 0.52709 0.46818
 O78 O 0.24162 0.47283 0.53200
 Cu79 Cu 0.19074 0.49986 0.50007
 Cu80 Cu 0.24626 0.49997 0.50010
 C81 C 0.21856 0.46352 0.54273
 C82 C 0.21848 0.53630 0.45742
 C83 C 0.21868 0.46332 0.45771
 C84 C 0.21845 0.53651 0.54248
 O85 O 0.30397 1.02821 0.03182
 O86 O 0.30396 0.97357 -0.03181
 O87 O 0.30392 1.02811 -0.03194
 O88 O 0.30406 0.97367 0.03195
 O89 O 0.25786 0.97369 0.03199
 O90 O 0.25773 1.02800 -0.03176
 O91 O 0.25776 0.97360 -0.03162
 O92 O 0.25778 1.02810 0.03186
 Cu93 Cu 0.30865 1.00090 -0.00001
 Cu94 Cu 0.25314 1.00084 0.00013
 C95 C 0.28084 1.03743 0.04250
 C96 C 0.28082 0.96430 -0.04236
 C97 C 0.28077 1.03730 -0.04255
 C98 C 0.28095 0.96443 0.04266
 O99 O 0.80570 0.52704 0.53209
 O100 O 0.80561 0.47269 0.46817
 O101 O 0.80568 0.52723 0.46832
 O102 O 0.80554 0.47250 0.53193
 O103 O 0.75934 0.47269 0.53185
 O104 O 0.75948 0.52726 0.46841
 O105 O 0.75941 0.47286 0.46826
 O106 O 0.75950 0.52708 0.53202
 Cu107 Cu 0.81031 0.49985 0.50013
 Cu108 Cu 0.75478 0.49998 0.50014
 C109 C 0.78258 0.53629 0.54275
 C110 C 0.78246 0.46355 0.45752
 C111 C 0.78257 0.53653 0.45772
 C112 C 0.78237 0.46330 0.54253
 O113 O 0.23305 0.27102 0.20814
 O114 O 0.29401 0.25472 0.25970
 O115 O 0.27126 0.23244 0.20786
 O116 O 0.25579 0.29330 0.25997
 O117 O 0.22923 0.26683 0.29163
 O118 O 0.24470 0.20597 0.23952
 O119 O 0.26745 0.22825 0.29136
 O120 O 0.20650 0.24455 0.23980
 Cu121 Cu 0.26621 0.26554 0.23073
 Cu122 Cu 0.23429 0.23373 0.26877
 C123 C 0.20952 0.26041 0.21517
 C124 C 0.29098 0.23887 0.28434
 C125 C 0.26046 0.20897 0.21478
 C126 C 0.24002 0.29030 0.28469
 O127 O 0.76778 0.72909 0.20820
 O128 O 0.70657 0.74460 0.25974
 O129 O 0.72916 0.76726 0.20798
 O130 O 0.74519 0.70643 0.25996
 O131 O 0.77142 0.73310 0.29170
 O132 O 0.75538 0.79392 0.23971
 O133 O 0.73279 0.77127 0.29147
 O134 O 0.79401 0.75575 0.23994
 Cu135 Cu 0.73453 0.73415 0.23077
 Cu136 Cu 0.76605 0.76621 0.26891
 C137 C 0.79119 0.73993 0.21527
 C138 C 0.70938 0.76043 0.28441
 C139 C 0.73969 0.79082 0.21497
 C140 C 0.76088 0.70954 0.28470
 O141 O 0.79382 0.24468 0.23974
 O142 O 0.73299 0.22886 0.29181
 O143 O 0.75541 0.20631 0.23993
 O144 O 0.77139 0.26725 0.29161
 O145 O 0.74483 0.29375 0.26002
 O146 O 0.72885 0.23282 0.20833
 O147 O 0.70643 0.25537 0.26022
 O148 O 0.76727 0.27118 0.20815
 Cu149 Cu 0.76609 0.23410 0.26896
 Cu150 Cu 0.73416 0.26595 0.23099
 C151 C 0.79078 0.26047 0.21505
 C152 C 0.70948 0.23956 0.28490
 C153 C 0.73956 0.20931 0.21530
 C154 C 0.76069 0.29075 0.28464
 O155 O 0.26668 0.77107 0.29152
 O156 O 0.20584 0.75541 0.23950
 O157 O 0.22835 0.73263 0.29123
 O158 O 0.24417 0.79385 0.23982
 O159 O 0.27075 0.76756 0.20802
 O160 O 0.25494 0.70633 0.25944
 O161 O 0.23243 0.72911 0.20770
 O162 O 0.29327 0.74478 0.25972
 Cu163 Cu 0.23357 0.76589 0.26872
 Cu164 Cu 0.26553 0.73429 0.23051
 C165 C 0.29021 0.76044 0.28450
 C166 C 0.20890 0.73975 0.21470
 C167 C 0.23911 0.70919 0.28413
 C168 C 0.26000 0.79101 0.21514
 O169 O 0.70621 0.25482 0.74036
 O170 O 0.76731 0.27069 0.79182
 O171 O 0.74464 0.29317 0.74006
 O172 O 0.72888 0.23233 0.79214
 O173 O 0.75526 0.20575 0.76043
 O174 O 0.77102 0.26659 0.70835
 O175 O 0.79369 0.24410 0.76011
 O176 O 0.73259 0.22824 0.70865
 Cu177 Cu 0.73410 0.26543 0.76930
 Cu178 Cu 0.76580 0.23348 0.73118
 C179 C 0.70912 0.23898 0.71571
 C180 C 0.79078 0.25996 0.78475
 C181 C 0.76038 0.29012 0.71532
 C182 C 0.73953 0.20881 0.78518
 O183 O 0.22851 0.73301 0.70846
 O184 O 0.24415 0.79401 0.76023
 O185 O 0.26688 0.77142 0.70853
 O186 O 0.20580 0.75558 0.76019
 O187 O 0.23223 0.72913 0.79199
 O188 O 0.29330 0.74496 0.74034
 O189 O 0.27058 0.76756 0.79204
 O190 O 0.25494 0.70655 0.74025
 Cu191 Cu 0.23367 0.76617 0.73114
 Cu192 Cu 0.26543 0.73438 0.76936
 C193 C 0.23921 0.70952 0.71550
 C194 C 0.25987 0.79105 0.78498
 C195 C 0.29036 0.76073 0.71561
 C196 C 0.20875 0.73982 0.78492
 O197 O 0.25511 0.29345 0.74061
 O198 O 0.27069 0.23239 0.79235
 O199 O 0.29333 0.25488 0.74052
 O200 O 0.23245 0.27094 0.79242
 O201 O 0.20584 0.24460 0.76074
 O202 O 0.26672 0.22854 0.70886
 O203 O 0.24408 0.20604 0.76069
 O204 O 0.22850 0.26711 0.70893
 Cu205 Cu 0.26558 0.26557 0.76967
 Cu206 Cu 0.23360 0.23391 0.73161
 C207 C 0.23930 0.29055 0.71593
 C208 C 0.25989 0.20894 0.78536
 C209 C 0.29026 0.23913 0.71582
 C210 C 0.20890 0.26035 0.78544
 O211 O 0.73311 0.77104 0.70793
 O212 O 0.79409 0.75568 0.75989
 O213 O 0.77167 0.73280 0.70823
 O214 O 0.75554 0.79392 0.75959
 O215 O 0.72912 0.76747 0.79144
 O216 O 0.74526 0.70635 0.74008
 O217 O 0.76768 0.72923 0.79175
 O218 O 0.70670 0.74459 0.73978
 Cu219 Cu 0.76627 0.76603 0.73070
 Cu220 Cu 0.73453 0.73424 0.76898
 C221 C 0.70965 0.76029 0.71499
 C222 C 0.79115 0.73999 0.78469
 C223 C 0.76106 0.70930 0.71538
 C224 C 0.73973 0.79098 0.78429
 C225 C 0.28066 0.05790 0.06548
 C226 C 0.28002 0.07630 0.08561
 C227 C 0.27865 0.09855 0.10925
 C228 C 0.29086 0.12448 0.10229
 C229 C 0.28827 0.14656 0.12450
 C230 C 0.27346 0.14280 0.15377
 C231 C 0.26155 0.11677 0.16092
 C232 C 0.26414 0.09469 0.13871
 C233 C 0.26950 0.16595 0.17578
 C234 C 0.26566 0.18550 0.19382
 H235 H 0.30202 0.12774 0.07952
 H236 H 0.29746 0.16664 0.11866
 H237 H 0.24995 0.11366 0.18342
 H238 H 0.25451 0.07476 0.14428
 C239 C 0.78240 0.55784 0.56711
 C240 C 0.78172 0.57622 0.58725
 C241 C 0.78027 0.59846 0.61086
 C242 C 0.79299 0.62421 0.60420
 C243 C 0.79025 0.64635 0.62629
 C244 C 0.77477 0.64283 0.65513
 C245 C 0.76237 0.61697 0.66200
 C246 C 0.76511 0.59483 0.63990
 C247 C 0.77059 0.66607 0.67690
 C248 C 0.76653 0.68572 0.69472
 H249 H 0.80465 0.62728 0.58174
 H250 H 0.79981 0.66629 0.62067
 H251 H 0.75025 0.61407 0.68415
 H252 H 0.75509 0.57505 0.64522
 C253 C 0.71815 0.94211 0.06614
 C254 C 0.71887 0.92367 0.08623
 C255 C 0.72039 0.90137 0.10981
 C256 C 0.73463 0.90535 0.13940
 C257 C 0.73742 0.88322 0.16155
 C258 C 0.72598 0.85703 0.15419
 C259 C 0.71143 0.85315 0.12479
 C260 C 0.70864 0.87528 0.10265
 C261 C 0.73019 0.83386 0.17611
 C262 C 0.73424 0.81429 0.19408
 H263 H 0.74391 0.92540 0.14512
 H264 H 0.74882 0.88642 0.18414
 H265 H 0.70260 0.83296 0.11879
 H266 H 0.69769 0.87194 0.07978
 C267 C 0.21878 0.44195 0.56711
 C268 C 0.21946 0.42356 0.58726
 C269 C 0.22088 0.40131 0.61091
 C270 C 0.23612 0.40487 0.63987
 C271 C 0.23875 0.38274 0.66203
 C272 C 0.22614 0.35696 0.65531
 C273 C 0.21059 0.35352 0.62655
 C274 C 0.20796 0.37564 0.60439
 C275 C 0.23015 0.33374 0.67720
 C276 C 0.23403 0.31410 0.69511
 H277 H 0.24629 0.42459 0.64509
 H278 H 0.25092 0.38560 0.68413
 H279 H 0.20086 0.33363 0.62104
 H280 H 0.19623 0.37263 0.58200
 C281 C 0.94217 0.28179 0.06627
 C282 C 0.92371 0.28107 0.08635
 C283 C 0.90140 0.27955 0.10992
 C284 C 0.87536 0.29146 0.10279
 C285 C 0.85322 0.28870 0.12492
 C286 C 0.85702 0.27401 0.15426
 C287 C 0.88316 0.26242 0.16158
 C288 C 0.90530 0.26518 0.13945
 C289 C 0.83384 0.26986 0.17618
 C290 C 0.81425 0.26586 0.19415
 H291 H 0.87207 0.30252 0.07996
 H292 H 0.83306 0.29765 0.11895
 H293 H 0.88630 0.25092 0.18413
 H294 H 0.92531 0.25579 0.14514
 C295 C 0.44182 0.78136 0.56691
 C296 C 0.42342 0.78072 0.58706
 C297 C 0.40116 0.77934 0.61070
 C298 C 0.40479 0.76430 0.63983
 C299 C 0.38265 0.76167 0.66197
 C300 C 0.35679 0.77407 0.65508
 C301 C 0.35328 0.78941 0.62615
 C302 C 0.37542 0.79205 0.60401
 C303 C 0.33356 0.77002 0.67693
 C304 C 0.31392 0.76608 0.69483
 H305 H 0.42457 0.75429 0.64517
 H306 H 0.38555 0.74965 0.68419
 H307 H 0.33334 0.79898 0.62051
 H308 H 0.37235 0.80361 0.58149
 C309 C 0.05794 0.71931 0.06536
 C310 C 0.07633 0.71996 0.08550
 C311 C 0.09855 0.72135 0.10917
 C312 C 0.12449 0.70910 0.10229
 C313 C 0.14655 0.71172 0.12452
 C314 C 0.14277 0.72660 0.15372
 C315 C 0.11673 0.73854 0.16079
 C316 C 0.09467 0.73593 0.13856
 C317 C 0.16589 0.73060 0.17573
 C318 C 0.18544 0.73449 0.19376
 H319 H 0.12776 0.69789 0.07958
 H320 H 0.16662 0.70250 0.11874
 H321 H 0.11361 0.75020 0.18323
 H322 H 0.07474 0.74558 0.14406
 C323 C 0.55773 0.21774 0.56732
 C324 C 0.57611 0.21846 0.58746
 C325 C 0.59834 0.21996 0.61108
 C326 C 0.59478 0.23539 0.63992
 C327 C 0.61691 0.23813 0.66203
 C328 C 0.64268 0.22545 0.65538
 C329 C 0.64611 0.20971 0.62676
 C330 C 0.62399 0.20697 0.60465
 C331 C 0.66591 0.22959 0.67718
 C332 C 0.68555 0.23359 0.69501
 H333 H 0.57508 0.24563 0.64506
 H334 H 0.61407 0.25046 0.68402
 H335 H 0.66599 0.19992 0.62131
 H336 H 0.62700 0.19509 0.58236
 C337 C 0.71830 0.05751 0.93410
 C338 C 0.71901 0.07595 0.91400
 C339 C 0.72051 0.09824 0.89040
 C340 C 0.70855 0.12427 0.89748
 C341 C 0.71131 0.14639 0.87533
 C342 C 0.72603 0.14258 0.84601
 C343 C 0.73767 0.11645 0.83874
 C344 C 0.73492 0.09433 0.86089
 C345 C 0.73018 0.16576 0.82408
 C346 C 0.73417 0.18533 0.80609
 H347 H 0.69747 0.12756 0.92029
 H348 H 0.70233 0.16654 0.88126
 H349 H 0.74920 0.11331 0.81621
 H350 H 0.74435 0.07432 0.85524
 C351 C 0.21865 0.55784 0.43301
 C352 C 0.21929 0.57620 0.41281
 C353 C 0.22068 0.59841 0.38912
 C354 C 0.20749 0.62398 0.39544
 C355 C 0.21010 0.64609 0.37325
 C356 C 0.22589 0.64271 0.34463
 C357 C 0.23877 0.61703 0.33809
 C358 C 0.23616 0.59492 0.36029
 C359 C 0.22991 0.66594 0.32276
 C360 C 0.23381 0.68559 0.30487
 H361 H 0.19557 0.62694 0.41773
 H362 H 0.20016 0.66590 0.37862
 H363 H 0.25114 0.61423 0.31612
 H364 H 0.24654 0.57527 0.35522
 C365 C 0.28061 0.94264 0.93339
 C366 C 0.27990 0.92418 0.91334
 C367 C 0.27845 0.90186 0.88981
 C368 C 0.26367 0.90556 0.86053
 C369 C 0.26100 0.88339 0.83845
 C370 C 0.27310 0.85744 0.84556
 C371 C 0.28818 0.85384 0.87464
 C372 C 0.29085 0.87601 0.89672
 C373 C 0.26906 0.83420 0.82371
 C374 C 0.26516 0.81458 0.80580
 H375 H 0.25389 0.92542 0.85500
 H376 H 0.24919 0.88637 0.81610
 H377 H 0.29752 0.83383 0.88046
 H378 H 0.30222 0.87288 0.91935
 C379 C 0.78222 0.44200 0.43316
 C380 C 0.78148 0.42362 0.41303
 C381 C 0.77996 0.40138 0.38941
 C382 C 0.79252 0.37557 0.39610
 C383 C 0.78974 0.35345 0.37398
 C384 C 0.77439 0.35706 0.34510
 C385 C 0.76214 0.38299 0.33821
 C386 C 0.76492 0.40511 0.36032
 C387 C 0.77019 0.33387 0.32327
 C388 C 0.76614 0.31426 0.30540
 H389 H 0.80409 0.37242 0.41859
 H390 H 0.79919 0.33345 0.37962
 H391 H 0.75012 0.38598 0.31601
 H392 H 0.75502 0.42495 0.35498
 C393 C 0.05752 0.28173 0.93418
 C394 C 0.07597 0.28103 0.91409
 C395 C 0.09827 0.27955 0.89050
 C396 C 0.09436 0.26518 0.86098
 C397 C 0.11650 0.26242 0.83885
 C398 C 0.14263 0.27402 0.84614
 C399 C 0.14644 0.28870 0.87547
 C400 C 0.12430 0.29146 0.89760
 C401 C 0.16583 0.26984 0.82425
 C402 C 0.18542 0.26580 0.80630
 H403 H 0.07435 0.25578 0.85531
 H404 H 0.11336 0.25092 0.81631
 H405 H 0.16659 0.29765 0.88142
 H406 H 0.12759 0.30251 0.92042
 C407 C 0.55777 0.78109 0.43289
 C408 C 0.57617 0.78038 0.41275
 C409 C 0.59843 0.77893 0.38913
 C410 C 0.59502 0.76335 0.36038
 C411 C 0.61718 0.76069 0.33827
 C412 C 0.64284 0.77360 0.34481
 C413 C 0.64613 0.78948 0.37335
 C414 C 0.62398 0.79214 0.39546
 C415 C 0.66610 0.76958 0.32300
 C416 C 0.68578 0.76569 0.30514
 H417 H 0.57539 0.75294 0.35532
 H418 H 0.61444 0.74826 0.31635
 H419 H 0.66592 0.79945 0.37872
 H420 H 0.62688 0.80414 0.41769
 C421 C 0.94267 0.71940 0.93329
 C422 C 0.92421 0.72012 0.91324
 C423 C 0.90189 0.72158 0.88970
 C424 C 0.87604 0.70917 0.89661
 C425 C 0.85389 0.71184 0.87451
 C426 C 0.85750 0.72692 0.84540
 C427 C 0.88345 0.73904 0.83830
 C428 C 0.90560 0.73637 0.86040
 C429 C 0.83428 0.73093 0.82351
 C430 C 0.81467 0.73479 0.80556
 H431 H 0.87291 0.69779 0.91925
 H432 H 0.83388 0.70249 0.88031
 H433 H 0.88643 0.75085 0.81594
 H434 H 0.92546 0.74615 0.85488
 C435 C 0.44197 0.21753 0.43327
 C436 C 0.42363 0.21820 0.41308
 C437 C 0.40145 0.21964 0.38939
 C438 C 0.37561 0.20714 0.39608
 C439 C 0.35354 0.20987 0.37388
 C440 C 0.35723 0.22511 0.34491
 C441 C 0.38319 0.23729 0.33801
 C442 C 0.40526 0.23456 0.36020
 C443 C 0.33407 0.22930 0.32302
 C444 C 0.31448 0.23336 0.30511
 H445 H 0.37240 0.19566 0.41864
 H446 H 0.33352 0.20047 0.37953
 H447 H 0.38623 0.24923 0.31575
 H448 H 0.42512 0.24441 0.35486
 C449 C 0.71818 0.94247 0.93248
 C450 C 0.71889 0.92408 0.91235
 C451 C 0.72039 0.90183 0.88875
 C452 C 0.73561 0.90545 0.85975
 C453 C 0.73839 0.88330 0.83767
 C454 C 0.72596 0.85745 0.84451
 C455 C 0.71041 0.85395 0.87329
 C456 C 0.70764 0.87610 0.89537
 C457 C 0.73017 0.83421 0.82275
 C458 C 0.73424 0.81455 0.80495
 H459 H 0.74566 0.92523 0.85446
 H460 H 0.75056 0.88620 0.81555
 H461 H 0.70082 0.83401 0.87889
 H462 H 0.69593 0.87304 0.91780
 C463 C 0.21897 0.44165 0.43346
 C464 C 0.21974 0.42320 0.41341
 C465 C 0.22128 0.40090 0.38985
 C466 C 0.20908 0.37496 0.39682
 C467 C 0.21182 0.35283 0.37470
 C468 C 0.22676 0.35654 0.34551
 C469 C 0.23866 0.38258 0.33836
 C470 C 0.23593 0.40471 0.36048
 C471 C 0.23084 0.33337 0.32359
 C472 C 0.23475 0.31379 0.30561
 H473 H 0.19781 0.37174 0.41952
 H474 H 0.20263 0.33275 0.38055
 H475 H 0.25036 0.38566 0.31593
 H476 H 0.24554 0.42465 0.35491
 C477 C 0.28053 0.05771 0.93438
 C478 C 0.27985 0.07608 0.91419
 C479 C 0.27842 0.09829 0.89051
 C480 C 0.29135 0.12396 0.89695
 C481 C 0.28870 0.14606 0.87476
 C482 C 0.27311 0.14258 0.84603
 C483 C 0.26049 0.11679 0.83938
 C484 C 0.26314 0.09469 0.86157
 C485 C 0.26907 0.16578 0.82411
 C486 C 0.26516 0.18540 0.80618
 H487 H 0.30311 0.12701 0.91932
 H488 H 0.29844 0.16595 0.88021
 H489 H 0.24828 0.11391 0.81731
 H490 H 0.25296 0.07497 0.85642
 C491 C 0.78239 0.55819 0.43345
 C492 C 0.78169 0.57664 0.41338
 C493 C 0.78018 0.59895 0.38980
 C494 C 0.79189 0.62505 0.39701
 C495 C 0.78911 0.64719 0.37488
 C496 C 0.77460 0.64331 0.34545
 C497 C 0.76320 0.61711 0.33805
 C498 C 0.76599 0.59497 0.36018
 C499 C 0.77039 0.66649 0.32354
 C500 C 0.76634 0.68606 0.30558
 H501 H 0.80280 0.62839 0.41991
 H502 H 0.79789 0.66739 0.38092
 H503 H 0.75184 0.61391 0.31543
 H504 H 0.75674 0.57491 0.35442
 C505 C 0.05770 0.71928 0.93420
 C506 C 0.07603 0.71991 0.91397
 C507 C 0.09821 0.72128 0.89023
 C508 C 0.09454 0.73646 0.86121
 C509 C 0.11661 0.73908 0.83896
 C510 C 0.14243 0.72653 0.84564
 C511 C 0.14598 0.71104 0.87445
 C512 C 0.12392 0.70842 0.89670
 C513 C 0.16561 0.73056 0.82369
 C514 C 0.18521 0.73449 0.80574
 H515 H 0.07479 0.74659 0.85603
 H516 H 0.11368 0.75121 0.81682
 H517 H 0.16590 0.70135 0.87994
 H518 H 0.12702 0.69674 0.91914
 C519 C 0.55813 0.21784 0.43367
 C520 C 0.57658 0.21863 0.41360
 C521 C 0.59889 0.22022 0.39003
 C522 C 0.62495 0.20833 0.39712
 C523 C 0.64708 0.21117 0.37499
 C524 C 0.64325 0.22591 0.34569
 C525 C 0.61709 0.23749 0.33841
 C526 C 0.59496 0.23465 0.36053
 C527 C 0.66642 0.23012 0.32377
 C528 C 0.68600 0.23416 0.30580
 H529 H 0.62825 0.19724 0.41991
 H530 H 0.66725 0.20223 0.38093
 H531 H 0.61393 0.24902 0.31588
 H532 H 0.57494 0.24403 0.35487
 C533 C 0.94245 0.28161 0.93267
 C534 C 0.92403 0.28084 0.91258
 C535 C 0.90174 0.27929 0.88904
 C536 C 0.90530 0.26394 0.86014
 C537 C 0.88312 0.26113 0.83812
 C538 C 0.85730 0.27364 0.84491
 C539 C 0.85386 0.28930 0.87360
 C540 C 0.87604 0.29212 0.89562
 C541 C 0.83403 0.26943 0.82319
 C542 C 0.81436 0.26539 0.80541
 H543 H 0.92505 0.25383 0.85488
 H544 H 0.88596 0.24887 0.81607
 H545 H 0.83395 0.29896 0.87916
 H546 H 0.87303 0.30392 0.91797
 C547 C 0.44155 0.78125 0.43326
 C548 C 0.42310 0.78057 0.41319
 C549 C 0.40080 0.77911 0.38963
 C550 C 0.37481 0.79115 0.39671
 C551 C 0.35268 0.78847 0.37459
 C552 C 0.35645 0.77374 0.34529
 C553 C 0.38254 0.76200 0.33801
 C554 C 0.40467 0.76468 0.36014
 C555 C 0.33327 0.76967 0.32337
 C556 C 0.31369 0.76575 0.30540
 H557 H 0.37155 0.80225 0.41951
 H558 H 0.33256 0.79752 0.38053
 H559 H 0.38565 0.75046 0.31550
 H560 H 0.42464 0.75519 0.35448
 C561 C 0.28080 0.94283 0.06699
 C562 C 0.28015 0.92440 0.08710
 C563 C 0.27874 0.90209 0.11067
 C564 C 0.26349 0.90559 0.13967
 C565 C 0.26083 0.88339 0.16174
 C566 C 0.27339 0.85761 0.15489
 C567 C 0.28895 0.85423 0.12609
 C568 C 0.29162 0.87643 0.10403
 C569 C 0.26932 0.83432 0.17665
 C570 C 0.26536 0.81463 0.19446
 H571 H 0.25335 0.92531 0.14498
 H572 H 0.24865 0.88620 0.18386
 H573 H 0.29865 0.83435 0.12048
 H574 H 0.30335 0.87346 0.08161
 C575 C 0.78209 0.44162 0.56678
 C576 C 0.78130 0.42315 0.58683
 C577 C 0.77970 0.40082 0.61036
 C578 C 0.76516 0.40467 0.63979
 C579 C 0.76232 0.38251 0.66188
 C580 C 0.77401 0.35640 0.65462
 C581 C 0.78886 0.35265 0.62538
 C582 C 0.79170 0.37481 0.60329
 C583 C 0.76981 0.33320 0.67649
 C584 C 0.76577 0.31360 0.69444
 H585 H 0.75570 0.42466 0.64544
 H586 H 0.75070 0.38561 0.68435
 H587 H 0.79788 0.33251 0.61946
 H588 H 0.80288 0.37156 0.58054
 C589 C 0.71818 0.05827 0.06648
 C590 C 0.71889 0.07662 0.08665
 C591 C 0.72038 0.09881 0.11031
 C592 C 0.70777 0.12462 0.10371
 C593 C 0.71053 0.14670 0.12588
 C594 C 0.72591 0.14306 0.15474
 C595 C 0.73820 0.11713 0.16155
 C596 C 0.73544 0.09505 0.13938
 C597 C 0.73009 0.16622 0.17661
 C598 C 0.73412 0.18581 0.19452
 H599 H 0.69618 0.12779 0.08124
 H600 H 0.70104 0.16669 0.12030
 H601 H 0.75024 0.11413 0.18373
 H602 H 0.74538 0.07522 0.14466
 C603 C 0.21861 0.55815 0.56675
 C604 C 0.21927 0.57659 0.58683
 C605 C 0.22070 0.59887 0.61042
 C606 C 0.20836 0.62476 0.60353
 C607 C 0.21101 0.64688 0.62567
 C608 C 0.22601 0.64321 0.65480
 C609 C 0.23804 0.61721 0.66190
 C610 C 0.23539 0.59509 0.63975
 C611 C 0.23004 0.66640 0.67671
 C612 C 0.23394 0.68600 0.69466
 H613 H 0.19706 0.62795 0.58086
 H614 H 0.20173 0.66692 0.61987
 H615 H 0.24979 0.61418 0.68428
 H616 H 0.24511 0.57520 0.64527
 C617 C 0.94290 0.71933 0.06691
 C618 C 0.92449 0.72001 0.08704
 C619 C 0.90220 0.72144 0.11063
 C620 C 0.90564 0.73689 0.13948
 C621 C 0.88346 0.73954 0.16157
 C622 C 0.85776 0.72675 0.15491
 C623 C 0.85444 0.71100 0.12628
 C624 C 0.87662 0.70835 0.10418
 C625 C 0.83449 0.73077 0.17670
 C626 C 0.81480 0.73467 0.19455
 H627 H 0.92530 0.74720 0.14463
 H628 H 0.88622 0.75187 0.18356
 H629 H 0.83462 0.70112 0.12081
 H630 H 0.87370 0.69646 0.08189
 C631 C 0.44156 0.21758 0.56700
 C632 C 0.42311 0.21830 0.58709
 C633 C 0.40083 0.21982 0.61069
 C634 C 0.37475 0.20802 0.60356
 C635 C 0.35263 0.21081 0.62571
 C636 C 0.35649 0.22541 0.65508
 C637 C 0.38267 0.23689 0.66240
 C638 C 0.40479 0.23410 0.64025
 C639 C 0.33332 0.22961 0.67700
 C640 C 0.31374 0.23367 0.69496
 H641 H 0.37141 0.19704 0.58071
 H642 H 0.33244 0.20195 0.61973
 H643 H 0.38586 0.24833 0.68498
 H644 H 0.42484 0.24341 0.64595
 C645 C 0.05835 0.28197 0.06654
 C646 C 0.07672 0.28129 0.08669
 C647 C 0.09894 0.27983 0.11033
 C648 C 0.12485 0.29212 0.10347
 C649 C 0.14695 0.28935 0.12561
 C650 C 0.14323 0.27428 0.15470
 C651 C 0.11720 0.26232 0.16178
 C652 C 0.09510 0.26509 0.13963
 C653 C 0.16641 0.27005 0.17655
 C654 C 0.18601 0.26594 0.19442
 H655 H 0.12808 0.30346 0.08082
 H656 H 0.16703 0.29858 0.11983
 H657 H 0.11413 0.25051 0.18413
 H658 H 0.07519 0.25539 0.14511
 C659 C 0.55806 0.78106 0.56652
 C660 C 0.57653 0.78033 0.58656
 C661 C 0.59886 0.77882 0.61008
 C662 C 0.62470 0.79125 0.60318
 C663 C 0.64686 0.78856 0.62526
 C664 C 0.64328 0.77342 0.65433
 C665 C 0.61733 0.76129 0.66142
 C666 C 0.59517 0.76398 0.63934
 C667 C 0.66650 0.76939 0.67620
 C668 C 0.68612 0.76551 0.69413
 H669 H 0.62782 0.80267 0.58057
 H670 H 0.66687 0.79793 0.61947
 H671 H 0.61437 0.74944 0.68376
 H672 H 0.57531 0.75419 0.64486
   
