data_POSCAR
  _audit_creation_date              2014-09-24
  _audit_creation_method            'ToBaCCo'
  _symmetry_space_group_name_H-M    'P1'
  _symmetry_Int_Tables_number       1
  _symmetry_cell_setting            triclinic
  loop_
  _symmetry_equiv_pos_as_xyz
 x,y,z
_cell_length_a 33.9465
_cell_length_b 33.9352
_cell_length_c 33.9033
_cell_angle_alpha 90.001000
_cell_angle_beta 90.005700
_cell_angle_gamma 89.902500
loop_
  _atom_site_label
  _atom_site_type_symbol
  _atom_site_fract_x
  _atom_site_fract_y
  _atom_site_fract_z
C1 C 0.16790 0.16858 0.21550
 N2 N 0.20061 0.15186 0.19959
 C3 C 0.21692 0.16737 0.16651
 N4 N 0.20036 0.19943 0.14920
 C5 C 0.16766 0.21612 0.16507
 N6 N 0.15137 0.20063 0.19816
 C7 C -0.16519 0.83345 0.21863
 N8 N -0.19824 0.84974 0.20300
 C9 C -0.21539 0.83325 0.17084
 N10 N -0.19932 0.80061 0.15414
 C11 C -0.16629 0.78432 0.16977
 N12 N -0.14916 0.80081 0.20193
 C13 C -0.17081 0.16527 -0.21743
 N14 N -0.20284 0.14816 -0.20076
 C15 C -0.21950 0.16429 -0.16814
 N16 N -0.20397 0.19742 -0.15204
 C17 C -0.17195 0.21456 -0.16870
 N18 N -0.15528 0.19840 -0.20131
 C19 C 0.17023 0.83424 -0.21584
 N20 N 0.15273 0.80160 -0.20083
 C21 C 0.16798 0.78378 -0.16841
 N22 N 0.20061 0.79876 -0.15082
 C23 C 0.21813 0.83140 -0.16584
 N24 N 0.20286 0.84921 -0.19827
 C25 C 0.16924 1.16764 0.78419
 N26 N 0.15243 1.20027 0.80016
 C27 C 0.16791 1.21660 0.83326
 N28 N 0.20003 1.20013 0.85051
 C29 C 0.21682 1.16751 0.83458
 N30 N 0.20136 1.15119 0.80148
 C31 C 0.83393 0.83502 0.78158
 N32 N 0.85044 0.80195 0.79695
 C33 C 0.83416 0.78454 0.82908
 N34 N 0.80152 0.80036 0.84599
 C35 C 0.78501 0.83341 0.83062
 N36 N 0.80129 0.85080 0.79850
 C37 C 0.16576 0.83100 1.21790
 N38 N 0.14862 0.79884 1.20150
 C39 C 0.16474 0.78189 1.16903
 N40 N 0.19789 0.79723 1.15282
 C41 C 0.21506 0.82938 1.16923
 N42 N 0.19891 0.84635 1.20168
 C43 C 0.83423 1.16982 1.21697
 N44 N 0.84957 1.20232 1.19945
 C45 C 0.83213 1.21765 1.16684
 N46 N 0.79950 1.20032 1.15161
 C47 C 0.78415 1.16783 1.16912
 N48 N 0.80160 1.15251 1.20172
 O49 O 0.44456 1.06937 1.07121
 O50 O 0.40172 1.03066 1.03620
 C51 C 0.40921 1.05846 1.06132
 O52 O 0.55535 1.06568 0.93062
 O53 O 0.59857 1.03081 0.96915
 C54 C 0.59080 1.05589 0.94137
 O55 O 0.44449 1.06896 0.93433
 O56 O 0.40156 1.03123 0.97031
 C57 C 0.40913 1.05857 0.94470
 O58 O 0.55550 1.06637 1.07450
 O59 O 0.59862 1.03111 1.03619
 C60 C 0.59093 1.05649 1.06373
 Zr61 Zr 0.50011 1.04736 1.05260
 O62 O 0.50410 1.10961 1.05237
 O63 O 0.49587 1.04736 1.11491
 Zr64 Zr 0.50005 1.04692 0.95280
 O65 O 0.50413 1.10916 0.95234
 O66 O 0.49562 1.04635 0.89051
 O67 O 0.46494 1.05479 1.00268
 O68 O 0.53414 1.05443 1.00265
 O69 O 0.55607 0.92918 1.07514
 O70 O 0.59887 0.96429 1.03647
 C71 C 0.59141 0.93916 1.06427
 O72 O 0.44508 0.92502 0.93453
 O73 O 0.40196 0.96353 0.96954
 C74 C 0.40965 0.93579 0.94440
 O75 O 0.55593 0.92859 0.93121
 O76 O 0.59883 0.96397 0.96952
 C77 C 0.59129 0.93865 0.94191
 O78 O 0.44508 0.92557 1.07183
 O79 O 0.40199 0.96379 1.03643
 C80 C 0.40966 0.93623 1.06178
 Zr81 Zr 0.50047 0.94778 1.05313
 O82 O 0.50496 0.88556 1.05373
 O83 O 0.49617 0.94859 1.11543
 Zr84 Zr 0.50042 0.94727 0.95322
 O85 O 0.50493 0.88504 0.95358
 O86 O 0.49612 0.94714 0.89093
 Zr87 Zr 0.44181 0.99716 1.00286
 Zr88 Zr 0.55876 0.99746 1.00289
 O89 O 0.53454 0.94038 1.00319
 O90 O 0.46535 0.93965 1.00321
 O91 O 0.53553 0.99768 1.06057
 O92 O 0.46608 0.99702 0.94577
 O93 O 0.46614 0.99752 1.06000
 O94 O 0.53543 0.99714 0.94526
 H95 H 0.55172 1.07771 1.00252
 H96 H 0.44825 0.99701 0.92263
 H97 H 0.55230 0.91718 1.00328
 H98 H 0.44844 0.99758 1.08324
 H99 H 0.51795 1.03062 0.88029
 H100 H 0.51817 0.96312 0.88059
 H101 H 0.48288 0.87481 0.96964
 H102 H 0.48338 0.87515 1.03716
 H103 H 0.51865 0.96408 1.12558
 H104 H 0.51819 1.03167 1.12521
 H105 H 0.48201 1.11976 1.03627
 H106 H 0.48243 1.11949 0.96883
 O107 O 0.06566 0.55493 -0.07518
 O108 O 0.03012 0.59801 -0.03709
 C109 C 0.05555 0.59035 -0.06459
 O110 O -0.07497 0.44453 -0.07162
 O111 O -0.03658 0.40136 -0.03652
 C112 C -0.06426 0.40907 -0.06171
 O113 O -0.07093 0.55562 -0.07496
 O114 O -0.03488 0.59837 -0.03705
 C115 C -0.06039 0.59096 -0.06452
 O116 O 0.06895 0.44393 -0.07175
 O117 O 0.03116 0.40100 -0.03585
 C118 C 0.05852 0.40855 -0.06142
 Zr119 Zr 0.04697 0.49950 -0.05309
 O120 O 0.04665 0.49524 -0.11539
 O121 O 0.10919 0.50361 -0.05321
 Zr122 Zr -0.05283 0.49992 -0.05273
 O123 O -0.05356 0.49571 -0.11502
 O124 O -0.11502 0.50464 -0.05185
 O125 O -0.00285 0.53477 -0.06057
 O126 O -0.00302 0.46560 -0.06024
 O127 O 0.06916 0.44382 0.06528
 O128 O 0.03063 0.40097 0.03008
 C129 C 0.05833 0.40847 0.05532
 O130 O -0.07082 0.55521 0.06931
 O131 O -0.03575 0.59813 0.03075
 C132 C -0.06082 0.59058 0.05858
 O133 O -0.07438 0.44432 0.06585
 O134 O -0.03635 0.40123 0.03027
 C135 C -0.06375 0.40890 0.05579
 O136 O 0.06580 0.55468 0.06908
 O137 O 0.03005 0.59796 0.03141
 C138 C 0.05552 0.59015 0.05883
 Zr139 Zr 0.04737 0.49938 0.04655
 O140 O 0.04831 0.49492 0.10882
 O141 O 0.10959 0.50359 0.04547
 Zr142 Zr -0.05247 0.49973 0.04693
 O143 O -0.05266 0.49537 0.10921
 O144 O -0.11468 0.50432 0.04647
 Zr145 Zr -0.00254 0.55806 -0.00291
 Zr146 Zr -0.00290 0.44115 -0.00320
 O147 O -0.00260 0.46551 0.05391
 O148 O -0.00245 0.53458 0.05463
 O149 O 0.05475 0.46421 -0.00334
 O150 O -0.05968 0.53409 -0.00284
 O151 O 0.05446 0.53365 -0.00321
 O152 O -0.06045 0.46461 -0.00294
 H153 H -0.00303 0.44782 -0.08341
 H154 H -0.08270 0.55209 -0.00285
 H155 H -0.00255 0.44782 0.07717
 H156 H 0.07751 0.55153 -0.00318
 H157 H -0.12526 0.48204 -0.03658
 H158 H -0.12498 0.48175 0.03120
 H159 H -0.03609 0.51698 0.11954
 H160 H 0.03114 0.51603 0.11931
 H161 H 0.11973 0.48065 0.03058
 H162 H 0.11946 0.48162 -0.03703
 H163 H 0.03079 0.51749 -0.12561
 H164 H -0.03654 0.51695 -0.12538
 O165 O 1.07430 -0.06492 0.55557
 O166 O 1.03628 -0.02923 0.59860
 C167 C 1.06384 -0.05462 0.59099
 O168 O 1.07040 0.07494 0.44428
 O169 O 1.03513 0.03652 0.40135
 C170 C 1.06043 0.06409 0.40887
 O171 O 1.07383 0.07162 0.55549
 O172 O 1.03603 0.03582 0.59851
 C173 C 1.06342 0.06128 0.59092
 O174 O 1.07075 -0.06872 0.44457
 O175 O 1.03537 -0.03053 0.40145
 C176 C 1.06070 -0.05811 0.40912
 Zr177 Zr 1.05197 -0.04664 0.50002
 O178 O 1.11418 -0.04673 0.49565
 O179 O 1.05180 -0.10886 0.50456
 Zr180 Zr 1.05151 0.05324 0.49993
 O181 O 1.11370 0.05419 0.49568
 O182 O 1.05022 0.11548 0.50425
 O183 O 1.05950 0.00335 0.53503
 O184 O 1.05894 0.00326 0.46589
 O185 O 0.93361 -0.06893 0.44458
 O186 O 0.96869 -0.03063 0.40144
 C187 C 0.94349 -0.05825 0.40913
 O188 O 0.92953 0.07120 0.55541
 O189 O 0.96760 0.03564 0.59851
 C190 C 0.93995 0.06090 0.59086
 O191 O 0.93337 0.07493 0.44430
 O192 O 0.96933 0.03716 0.40127
 C193 C 0.94372 0.06450 0.40887
 O194 O 0.93025 -0.06535 0.55550
 O195 O 0.96793 -0.02947 0.59856
 C196 C 0.94063 -0.05503 0.59093
 Zr197 Zr 0.95244 -0.04691 0.50001
 O198 O 0.89023 -0.04746 0.49573
 O199 O 0.95335 -0.10913 0.50447
 Zr200 Zr 0.95210 0.05303 0.49991
 O201 O 0.88990 0.05364 0.49549
 O202 O 0.95270 0.11526 0.50438
 Zr203 Zr 1.00198 0.00320 0.55844
 Zr204 Zr 1.00193 0.00303 0.44143
 O205 O 0.94496 0.00303 0.46586
 O206 O 0.94448 0.00307 0.53498
 O207 O 1.00222 -0.05455 0.46476
 O208 O 1.00176 0.06030 0.53426
 O209 O 1.00223 -0.05391 0.53430
 O210 O 1.00178 0.06071 0.46462
 H211 H 1.08217 0.00324 0.44820
 H212 H 1.00165 0.08328 0.55229
 H213 H 0.92181 0.00306 0.44806
 H214 H 1.00234 -0.07691 0.55231
 H215 H 1.03560 0.12561 0.48112
 H216 H 0.96788 0.12551 0.48170
 H217 H 0.87956 0.03641 0.51660
 H218 H 0.87984 -0.03082 0.51730
 H219 H 0.96860 -0.11936 0.48181
 H220 H 1.03619 -0.11920 0.48222
 H221 H 1.12445 -0.03028 0.51741
 H222 H 1.12414 0.03698 0.51679
 C223 C 1.11640 0.11986 0.30981
 C224 C 1.12677 0.13076 0.34824
 C225 C 1.10843 0.11288 0.38058
 C226 C 1.15091 0.15245 0.24796
 C227 C 1.06912 0.07326 0.33599
 C228 C 1.08748 0.09117 0.30379
 C229 C 1.13540 0.13783 0.27640
 C230 C 1.07946 0.08380 0.37482
 H231 H 1.14912 0.15297 0.35323
 H232 H 1.11711 0.12169 0.41002
 H233 H 1.04694 0.05105 0.33040
 H234 H 1.07918 0.08254 0.27417
 C235 C 0.88751 -0.11558 0.31102
 C236 C 0.87758 -0.12621 0.34963
 C237 C 0.89592 -0.10776 0.38161
 C238 C 0.85247 -0.14955 0.25025
 C239 C 0.93436 -0.06806 0.33634
 C240 C 0.91598 -0.08656 0.30446
 C241 C 0.86836 -0.13421 0.27808
 C242 C 0.92446 -0.07836 0.37534
 H243 H 0.85558 -0.14866 0.35503
 H244 H 0.88759 -0.11643 0.41119
 H245 H 0.95620 -0.04561 0.33039
 H246 H 0.92390 -0.07812 0.27468
 C247 C 0.88120 0.11497 0.68932
 C248 C 0.87117 0.12584 0.65079
 C249 C 0.89008 0.10816 0.61867
 C250 C 0.84647 0.14853 0.75056
 C251 C 0.92906 0.06852 0.66365
 C252 C 0.91010 0.08623 0.69565
 C253 C 0.86210 0.13337 0.72246
 C254 C 0.91936 0.07935 0.62473
 H255 H 0.84881 0.14807 0.64556
 H256 H 0.88188 0.11720 0.58916
 H257 H 0.95138 0.04643 0.66945
 H258 H 0.91808 0.07757 0.72537
 C259 C 1.12093 -0.11043 0.68943
 C260 C 1.09250 -0.08122 0.69580
 C261 C 1.07421 -0.06279 0.66380
 C262 C 1.15347 -0.14638 0.75050
 C263 C 1.11302 -0.10255 0.61879
 C264 C 1.13126 -0.12094 0.65089
 C265 C 1.13890 -0.13000 0.72251
 C266 C 1.08410 -0.07339 0.62487
 H267 H 1.08428 -0.07285 0.72553
 H268 H 1.05215 -0.04045 0.66962
 H269 H 1.12135 -0.11143 0.58926
 H270 H 1.15323 -0.14355 0.64564
 C271 C 0.31047 1.11576 1.11640
 C272 C 0.30433 1.08642 1.08810
 C273 C 0.33643 1.06791 1.07009
 C274 C 0.24904 1.15011 1.14998
 C275 C 0.38111 1.10818 1.10859
 C276 C 0.34890 1.12665 1.12658
 C277 C 0.27724 1.13460 1.13488
 C278 C 0.37524 1.07851 1.08017
 H279 H 0.27471 1.07780 1.07996
 H280 H 0.33076 1.04525 1.04833
 H281 H 0.41054 1.11707 1.11706
 H282 H 0.35398 1.14937 1.14844
 C283 C 0.31134 0.87925 0.88816
 C284 C 0.30499 0.90793 0.91712
 C285 C 0.33695 0.92606 0.93563
 C286 C 0.25015 0.84703 0.85233
 C287 C 0.38191 0.88661 0.89646
 C288 C 0.34984 0.86852 0.87796
 C289 C 0.27825 0.86141 0.86860
 C290 C 0.37584 0.91575 0.92539
 H291 H 0.27531 0.91646 0.92524
 H292 H 0.33113 0.94830 0.95780
 H293 H 0.41141 0.87796 0.88786
 H294 H 0.35507 0.84636 0.85555
 C295 C 0.69042 0.88423 1.12128
 C296 C 0.65204 0.87383 1.13215
 C297 C 0.61973 0.89180 1.11383
 C298 C 0.75220 0.85020 1.15454
 C299 C 0.66421 0.93076 1.07378
 C300 C 0.69639 0.91278 1.09214
 C301 C 0.72380 0.86554 1.13965
 C302 C 0.62544 0.92041 1.08431
 H303 H 0.64709 0.85175 1.15469
 H304 H 0.59034 0.88313 1.12266
 H305 H 0.66977 0.95268 1.05125
 H306 H 0.72597 0.92107 1.08350
 C307 C 0.68853 1.11170 0.88345
 C308 C 0.64992 1.12145 0.87273
 C309 C 0.61807 1.10318 0.89138
 C310 C 0.74903 1.14663 0.84906
 C311 C 0.66345 1.06518 0.93150
 C312 C 0.69521 1.08348 0.91279
 C313 C 0.72132 1.13077 0.86459
 C314 C 0.62446 1.07489 0.92109
 H315 H 0.64443 1.14325 0.85003
 H316 H 0.58849 1.11136 0.88262
 H317 H 0.66950 1.04353 0.95419
 H318 H 0.72499 1.07571 0.92131
 C319 C 0.11564 0.31020 0.11115
 C320 C 0.12645 0.34872 0.12103
 C321 C 0.10799 0.38074 0.10274
 C322 C 0.14967 0.24946 0.14626
 C323 C 0.06791 0.33570 0.06445
 C324 C 0.08642 0.30376 0.08278
 C325 C 0.13429 0.27724 0.13029
 C326 C 0.07840 0.37461 0.07430
 H327 H 0.14904 0.35402 0.14296
 H328 H 0.11681 0.41025 0.11104
 H329 H 0.04531 0.32985 0.04268
 H330 H 0.07785 0.27404 0.07490
 C331 C -0.12144 0.31049 -0.11690
 C332 C -0.13207 0.34896 -0.12739
 C333 C -0.11369 0.38115 -0.10934
 C334 C -0.15477 0.24885 -0.15093
 C335 C -0.07408 0.33635 -0.07014
 C336 C -0.09249 0.30430 -0.08819
 C337 C -0.13987 0.27722 -0.13562
 C338 C -0.08436 0.37521 -0.08057
 H339 H -0.15446 0.35408 -0.14958
 H340 H -0.12233 0.41062 -0.11807
 H341 H -0.05170 0.33061 -0.04809
 H342 H -0.08404 0.27464 -0.07983
 C343 C 0.11253 0.68874 -0.12022
 C344 C 0.08299 0.69507 -0.09216
 C345 C 0.06416 0.66308 -0.07440
 C346 C 0.14880 0.74993 -0.15193
 C347 C 0.10415 0.61814 -0.11305
 C348 C 0.12296 0.65024 -0.13076
 C349 C 0.13238 0.72184 -0.13772
 C350 C 0.07466 0.62419 -0.08447
 H351 H 0.07467 0.72476 -0.08380
 H352 H 0.04158 0.66889 -0.05259
 H353 H 0.11297 0.58864 -0.12149
 H354 H 0.14579 0.64502 -0.15248
 C355 C -0.11520 0.68916 0.11681
 C356 C -0.12569 0.65069 0.12728
 C357 C -0.10793 0.61854 0.10850
 C358 C -0.14869 0.75045 0.15150
 C359 C -0.06903 0.66335 0.06876
 C360 C -0.08681 0.69540 0.08759
 C361 C -0.13358 0.72233 0.13587
 C362 C -0.07944 0.62450 0.07893
 H363 H -0.14763 0.64554 0.14989
 H364 H -0.11664 0.58907 0.11706
 H365 H -0.04719 0.66909 0.04621
 H366 H -0.07845 0.72506 0.07928
 C367 C 1.12026 0.11634 0.68990
 C368 C 1.13037 0.12745 0.65145
 C369 C 1.11217 0.10938 0.61914
 C370 C 1.15311 0.15064 0.75173
 C371 C 1.07385 0.06886 0.66375
 C372 C 1.09208 0.08694 0.69594
 C373 C 1.13841 0.13520 0.72329
 C374 C 1.08355 0.07996 0.62492
 H375 H 1.15217 0.15018 0.64645
 H376 H 1.12034 0.11864 0.58969
 H377 H 1.05203 0.04630 0.66938
 H378 H 1.08405 0.07808 0.72557
 C379 C 0.88393 -0.11141 0.68916
 C380 C 0.91224 -0.08221 0.69566
 C381 C 0.93045 -0.06363 0.66373
 C382 C 0.85067 -0.14704 0.74997
 C383 C 0.89180 -0.10323 0.61856
 C384 C 0.87365 -0.12178 0.65057
 C385 C 0.86570 -0.13088 0.72213
 C386 C 0.92056 -0.07403 0.62476
 H387 H 0.92039 -0.07393 0.72543
 H388 H 0.95240 -0.04127 0.66964
 H389 H 0.88347 -0.11197 0.58900
 H390 H 0.85173 -0.14433 0.64522
 C391 C 1.11551 -0.11639 0.31081
 C392 C 1.08725 -0.08704 0.30437
 C393 C 1.06937 -0.06814 0.33633
 C394 C 1.14904 -0.15145 0.24976
 C395 C 1.10793 -0.10804 0.38144
 C396 C 1.12579 -0.12689 0.34938
 C397 C 1.13390 -0.13562 0.27776
 C398 C 1.07954 -0.07838 0.37528
 H399 H 1.07907 -0.07870 0.27462
 H400 H 1.04762 -0.04550 0.33045
 H401 H 1.11645 -0.11667 0.41099
 H402 H 1.14762 -0.14960 0.35468
 C403 C 0.88779 0.12126 0.31027
 C404 C 0.91705 0.09287 0.30399
 C405 C 0.93546 0.07466 0.33605
 C406 C 0.85224 0.15387 0.24898
 C407 C 0.89554 0.11342 0.38095
 C408 C 0.87716 0.13160 0.34880
 C409 C 0.86838 0.13928 0.27710
 C410 C 0.92480 0.08458 0.37495
 H411 H 0.92551 0.08465 0.27429
 H412 H 0.95788 0.05265 0.33028
 H413 H 0.88662 0.12178 0.41046
 H414 H 0.85452 0.15353 0.35398
 C415 C 0.11609 0.30996 -0.11648
 C416 C 0.12636 0.34842 -0.12717
 C417 C 0.10781 0.38058 -0.10918
 C418 C 0.15056 0.24864 -0.15015
 C419 C 0.06872 0.33578 -0.06961
 C420 C 0.08731 0.30373 -0.08763
 C421 C 0.13498 0.27678 -0.13500
 C422 C 0.07869 0.37463 -0.08023
 H423 H 0.14864 0.35356 -0.14945
 H424 H 0.11620 0.41004 -0.11806
 H425 H 0.04650 0.33005 -0.04743
 H426 H 0.07917 0.27407 -0.07909
 C427 C -0.11962 0.31062 0.11275
 C428 C -0.09108 0.30422 0.08369
 C429 C -0.07315 0.33617 0.06494
 C430 C -0.15194 0.24955 0.14873
 C431 C -0.11252 0.38119 0.10413
 C432 C -0.13040 0.34914 0.12285
 C433 C -0.13744 0.27757 0.13243
 C434 C -0.08353 0.37508 0.07505
 H435 H -0.08252 0.27452 0.07564
 H436 H -0.05101 0.33032 0.04269
 H437 H -0.12122 0.41071 0.11263
 H438 H -0.15248 0.35441 0.14532
 C439 C -0.11462 0.69016 -0.12188
 C440 C -0.08537 0.69603 -0.09345
 C441 C -0.06757 0.66377 -0.07502
 C442 C -0.14872 0.75208 -0.15487
 C443 C -0.10809 0.61943 -0.11365
 C444 C -0.12588 0.65182 -0.13204
 C445 C -0.13331 0.72362 -0.14014
 C446 C -0.07882 0.62504 -0.08477
 H447 H -0.07642 0.72558 -0.08536
 H448 H -0.04511 0.66926 -0.05301
 H449 H -0.11746 0.59008 -0.12187
 H450 H -0.14852 0.64695 -0.15402
 C451 C 0.11100 0.68792 0.11699
 C452 C 0.12152 0.64931 0.12700
 C453 C 0.10331 0.61744 0.10831
 C454 C 0.14604 0.74851 0.15111
 C455 C 0.06379 0.66280 0.06966
 C456 C 0.08204 0.69458 0.08840
 C457 C 0.13013 0.72076 0.13574
 C458 C 0.07432 0.62381 0.07929
 H459 H 0.14392 0.64384 0.14911
 H460 H 0.11213 0.58785 0.11646
 H461 H 0.04157 0.66884 0.04753
 H462 H 0.07366 0.72437 0.08045
 C463 C 0.31094 1.11583 0.88870
 C464 C 0.34946 1.12614 0.87834
 C465 C 0.38146 1.10776 0.89673
 C466 C 0.25020 1.14960 0.85339
 C467 C 0.33640 1.06879 0.93612
 C468 C 0.30449 1.08722 0.91768
 C469 C 0.27800 1.13434 0.86942
 C470 C 0.37531 1.07874 0.92575
 H471 H 0.35478 1.14827 0.85594
 H472 H 0.41097 1.11614 0.88803
 H473 H 0.33053 1.04663 0.95834
 H474 H 0.27477 1.07904 0.92594
 C475 C 0.31102 0.87940 1.11713
 C476 C 0.30487 0.90823 1.08828
 C477 C 0.33695 0.92652 1.07017
 C478 C 0.24936 0.84637 1.15134
 C479 C 0.38166 0.88702 1.10959
 C480 C 0.34945 0.86876 1.12769
 C481 C 0.27774 0.86113 1.13594
 C482 C 0.37577 0.91623 1.08068
 H483 H 0.27525 0.91668 1.07987
 H484 H 0.33125 0.94881 1.04802
 H485 H 0.41110 0.87839 1.11838
 H486 H 0.35453 0.84646 1.15000
 C487 C 0.68919 1.11319 1.11987
 C488 C 0.65069 1.12327 1.13069
 C489 C 0.61864 1.10467 1.11269
 C490 C 0.75032 1.14888 1.15234
 C491 C 0.66363 1.06565 1.07312
 C492 C 0.69557 1.08428 1.09116
 C493 C 0.72226 1.13272 1.13780
 C494 C 0.62473 1.07572 1.08356
 H495 H 0.64544 1.14563 1.15289
 H496 H 0.58914 1.11314 1.12144
 H497 H 0.66947 1.04350 1.05087
 H498 H 0.72526 1.07625 1.08257
 C499 C 0.68985 0.88398 0.88399
 C500 C 0.65140 0.87363 0.87337
 C501 C 0.61925 0.89143 0.89209
 C502 C 0.75114 0.85075 0.84909
 C503 C 0.66404 0.93007 0.93212
 C504 C 0.69608 0.91225 0.91335
 C505 C 0.72302 0.86571 0.86485
 C506 C 0.62520 0.91985 0.92175
 H507 H 0.64626 0.85178 0.85064
 H508 H 0.58980 0.88286 0.88338
 H509 H 0.66977 0.95184 0.95476
 H510 H 0.72573 0.92050 0.92177
   
