data_POSCAR
  _audit_creation_date              2014-09-24
  _audit_creation_method            'ToBaCCo'
  _symmetry_space_group_name_H-M    'P1'
  _symmetry_Int_Tables_number       1
  _symmetry_cell_setting            triclinic
  loop_
  _symmetry_equiv_pos_as_xyz
 x,y,z
_cell_length_a 23.3016
_cell_length_b 27.5225
_cell_length_c 20.4216
_cell_angle_alpha 90.143000
_cell_angle_beta 89.999300
_cell_angle_gamma 90.130400
loop_
  _atom_site_label
  _atom_site_type_symbol
  _atom_site_fract_x
  _atom_site_fract_y
  _atom_site_fract_z
O1 O 0.32174 0.20045 0.25593
 O2 O 0.25097 0.30214 0.17182
 O3 O 0.32292 0.29386 0.26856
 O4 O 0.24861 0.20763 0.15916
 O5 O 0.17620 0.20430 0.22881
 O6 O 0.25063 0.29013 0.33842
 O7 O 0.17831 0.29764 0.24112
 O8 O 0.24892 0.19568 0.32498
 Cu9 Cu 0.29324 0.25138 0.20671
 Cu10 Cu 0.20634 0.24652 0.29049
 C11 C 0.29756 0.18108 0.30509
 C12 C 0.20248 0.31694 0.19189
 C13 C 0.29960 0.30643 0.32217
 C14 C 0.19941 0.19159 0.17519
 O15 O 0.82293 0.29384 0.23102
 O16 O 0.74858 0.20794 0.34028
 O17 O 0.82177 0.20047 0.24356
 O18 O 0.75096 0.30240 0.32775
 O19 O 0.67832 0.29770 0.25841
 O20 O 0.74898 0.19549 0.17448
 O21 O 0.67619 0.20440 0.27059
 O22 O 0.75066 0.28990 0.16113
 Cu23 Cu 0.79324 0.25155 0.29281
 Cu24 Cu 0.70637 0.24643 0.20899
 C25 C 0.79963 0.30625 0.17743
 C26 C 0.69938 0.19186 0.32421
 C27 C 0.79761 0.18094 0.19438
 C28 C 0.70248 0.31714 0.30768
 O29 O 0.82288 0.70542 0.77083
 O30 O 0.75015 0.79293 0.66303
 O31 O 0.82294 0.79871 0.76086
 O32 O 0.75114 0.69828 0.67379
 O33 O 0.67833 0.70241 0.74292
 O34 O 0.74941 0.80375 0.82878
 O35 O 0.67722 0.79588 0.73208
 O36 O 0.75054 0.70921 0.84062
 Cu37 Cu 0.79396 0.74855 0.70993
 Cu38 Cu 0.70667 0.75319 0.79320
 C39 C 0.79937 0.69276 0.82422
 C40 C 0.70100 0.80891 0.67901
 C41 C 0.79863 0.81800 0.81010
 C42 C 0.70248 0.68342 0.69340
 O43 O 0.32131 0.79954 0.74228
 O44 O 0.25035 0.69817 0.82741
 O45 O 0.32236 0.70611 0.73058
 O46 O 0.24797 0.79280 0.83883
 O47 O 0.17556 0.79546 0.76914
 O48 O 0.25011 0.70918 0.66063
 O49 O 0.17771 0.70200 0.75805
 O50 O 0.24857 0.80367 0.67310
 Cu51 Cu 0.29265 0.74884 0.79196
 Cu52 Cu 0.20582 0.75291 0.70806
 C53 C 0.29722 0.81853 0.69288
 C54 C 0.20186 0.68308 0.80750
 C55 C 0.29909 0.69318 0.67707
 C56 C 0.19881 0.80861 0.82258
 C57 C 0.99954 0.10396 0.10419
 C58 C 1.05134 0.08882 0.07582
 C59 C 1.05122 0.04880 0.03300
 C60 C 1.00067 0.02167 0.02155
 C61 C 0.94974 0.03682 0.05296
 C62 C 0.94828 0.07876 0.09203
 C63 C 1.00057 -0.02178 -0.02328
 C64 C 0.94928 -0.03776 -0.05329
 C65 C 0.94777 -0.07968 -0.09232
 C66 C 0.99910 -0.10415 -0.10588
 C67 C 1.05116 -0.08838 -0.07853
 C68 C 1.05126 -0.04825 -0.03587
 H69 H 0.99895 0.13664 0.13352
 H70 H 1.09088 0.03934 0.00880
 H71 H 0.91043 0.01638 0.04756
 H72 H 0.90966 -0.01807 -0.04676
 H73 H 0.99819 -0.13694 -0.13504
 H74 H 1.09119 -0.03828 -0.01250
 C75 C 0.50081 0.60521 0.60319
 C76 C 0.55215 0.58036 0.59095
 C77 C 0.55076 0.53811 0.55248
 C78 C 0.49971 0.52217 0.52191
 C79 C 0.44903 0.54890 0.53348
 C80 C 0.44890 0.58932 0.57563
 C81 C 0.49974 0.47830 0.47784
 C82 C 0.44911 0.45130 0.46627
 C83 C 0.44907 0.41088 0.42414
 C84 C 0.50100 0.39525 0.39662
 C85 C 0.55230 0.42036 0.40882
 C86 C 0.55084 0.46262 0.44727
 H87 H 0.50146 0.63814 0.63197
 H88 H 0.59021 0.51801 0.54693
 H89 H 0.40926 0.53884 0.50986
 H90 H 0.40931 0.46115 0.48988
 H91 H 0.50169 0.36230 0.36787
 H92 H 0.59024 0.48292 0.45282
 C93 C 0.00104 0.39485 0.10313
 C94 C -0.05091 0.41045 0.07571
 C95 C -0.05089 0.45082 0.03377
 C96 C -0.00027 0.47781 0.02230
 C97 C 0.05085 0.46215 0.05272
 C98 C 0.05233 0.41995 0.09099
 C99 C -0.00036 0.52165 -0.02152
 C100 C 0.05065 0.53757 -0.05212
 C101 C 0.05196 0.57976 -0.09042
 C102 C 0.00060 0.60460 -0.10238
 C103 C -0.05127 0.58874 -0.07480
 C104 C -0.05107 0.54837 -0.03285
 H105 H 0.00174 0.36194 0.13173
 H106 H -0.09070 0.46065 0.01025
 H107 H 0.09026 0.48244 0.04722
 H108 H 0.09011 0.51748 -0.04675
 H109 H 0.00120 0.63751 -0.13099
 H110 H -0.09081 0.53834 -0.00920
 C111 C 0.49947 0.89647 0.60396
 C112 C 0.44811 0.92114 0.59123
 C113 C 0.44959 0.96309 0.55245
 C114 C 0.50074 0.97886 0.52204
 C115 C 0.55145 0.95235 0.53417
 C116 C 0.55150 0.91226 0.57662
 C117 C 0.50073 1.02228 0.47748
 C118 C 0.55126 1.04941 0.46608
 C119 C 0.55132 1.08935 0.42341
 C120 C 0.49949 1.10442 0.39513
 C121 C 0.44825 1.07923 0.40729
 C122 C 0.44976 1.03737 0.44625
 H123 H 0.49876 0.86377 0.63301
 H124 H 0.41014 0.98310 0.54650
 H125 H 0.59128 0.96234 0.51070
 H126 H 0.59095 1.04000 0.49020
 H127 H 0.49887 1.13703 0.36589
 H128 H 0.41046 1.01692 0.45171
 N129 N 1.14933 0.11552 0.05044
 N130 N 1.19040 0.14318 0.07593
 C131 C 1.17007 0.16023 0.13338
 C132 C 1.11543 0.14228 0.14230
 N133 N 1.10380 0.11473 0.08936
 H134 H 1.08711 0.14863 0.18345
 N135 N 0.65628 0.58960 0.58534
 N136 N 0.69771 0.61672 0.61088
 C137 C 0.67307 0.64468 0.65717
 C138 C 0.61536 0.63390 0.65935
 N139 N 0.60634 0.59946 0.61345
 H140 H 0.58311 0.65096 0.68973
 N141 N -0.14999 0.38571 0.05217
 N142 N -0.19108 0.35823 0.07775
 C143 C -0.16971 0.33950 0.13357
 C144 C -0.11444 0.35616 0.14139
 N145 N -0.10346 0.38476 0.08948
 H146 H -0.08544 0.34840 0.18139
 N147 N 0.34395 0.91209 0.58531
 N148 N 0.30235 0.88514 0.61066
 C149 C 0.32680 0.85722 0.65695
 C150 C 0.38455 0.86784 0.65928
 N151 N 0.39381 0.90216 0.61350
 H152 H 0.41668 0.85074 0.68967
 N153 N -0.15041 0.61291 -0.05108
 N154 N -0.19153 0.64031 -0.07649
 C155 C -0.17020 0.65924 -0.13226
 C156 C -0.11495 0.64280 -0.14021
 N157 N -0.10391 0.61414 -0.08844
 H158 H -0.08595 0.65085 -0.18015
 N159 N 0.34397 1.08717 0.41196
 N160 N 0.30241 1.11392 0.38645
 C161 C 0.32703 1.14228 0.34068
 C162 C 0.38486 1.13213 0.33881
 N163 N 0.39398 1.09766 0.38437
 H164 H 0.41711 1.14975 0.30900
 N165 N 1.14930 -0.11440 -0.05366
 N166 N 1.19021 -0.14215 -0.07896
 C167 C 1.16961 -0.15975 -0.13601
 C168 C 1.11493 -0.14202 -0.14490
 N169 N 1.10360 -0.11405 -0.09232
 H170 H 1.08636 -0.14887 -0.18571
 N171 N 0.65645 0.41165 0.41443
 N172 N 0.69787 0.38451 0.38920
 C173 C 0.67321 0.35622 0.34318
 C174 C 0.61554 0.36682 0.34083
 N175 N 0.60652 0.40148 0.38638
 H176 H 0.58329 0.34942 0.31068
 N177 N 0.84503 -0.09351 -0.07962
 N178 N 0.80372 -0.12135 -0.10397
 C179 C 0.82680 -0.14580 -0.15475
 C180 C 0.88345 -0.13190 -0.16110
 N181 N 0.89338 -0.09946 -0.11285
 H182 H 0.91481 -0.14582 -0.19540
 N183 N 0.34998 0.38621 0.44761
 N184 N 0.30888 0.35867 0.42196
 C185 C 0.33025 0.33981 0.36609
 C186 C 0.38552 0.35645 0.35831
 N187 N 0.39651 0.38517 0.41029
 H188 H 0.41453 0.34859 0.31830
 N189 N 0.15609 0.58909 -0.08509
 N190 N 0.19742 0.61628 -0.11056
 C191 C 0.17263 0.64418 -0.15663
 C192 C 0.11496 0.63329 -0.15875
 N193 N 0.10608 0.59886 -0.11302
 H194 H 0.08261 0.65032 -0.18892
 N195 N 0.64929 1.11615 0.44884
 N196 N 0.69036 1.14374 0.42339
 C197 C 0.67003 1.16063 0.36597
 C198 C 0.61538 1.14266 0.35703
 N199 N 0.60376 1.11526 0.40992
 H200 H 0.58706 1.14888 0.31589
 N201 N 0.15647 0.41116 0.08528
 N202 N 0.19788 0.38406 0.11044
 C203 C 0.17323 0.35592 0.15644
 C204 C 0.11557 0.36656 0.15884
 N205 N 0.10655 0.40110 0.11335
 H206 H 0.08332 0.34927 0.18900
 N207 N 0.65099 0.88861 0.55403
 N208 N 0.69214 0.86146 0.57983
 C209 C 0.67053 0.84232 0.63532
 C210 C 0.61503 0.85837 0.64268
 N211 N 0.60417 0.88705 0.59085
 H212 H 0.58577 0.85009 0.68228
 N213 N 0.84400 0.08667 0.08745
 N214 N 0.80245 0.11350 0.11300
 C215 C 0.82709 0.14203 0.15875
 C216 C 0.88492 0.13190 0.16058
 N217 N 0.89403 0.09726 0.11501
 H218 H 0.91718 0.14963 0.19037
 N219 N 0.34972 0.61330 0.55213
 N220 N 0.30853 0.64063 0.57765
 C221 C 0.32984 0.65979 0.63341
 C222 C 0.38519 0.64354 0.64125
 N223 N 0.39627 0.61475 0.58941
 H224 H 0.41419 0.65174 0.68119
   
