data_POSCAR
  _audit_creation_date              2014-09-24
  _audit_creation_method            'ToBaCCo'
  _symmetry_space_group_name_H-M    'P1'
  _symmetry_Int_Tables_number       1
  _symmetry_cell_setting            triclinic
  loop_
  _symmetry_equiv_pos_as_xyz
 x,y,z
_cell_length_a 45.6978
_cell_length_b 47.2513
_cell_length_c 43.5398
_cell_angle_alpha 91.627100
_cell_angle_beta 90.736400
_cell_angle_gamma 93.584400
loop_
  _atom_site_label
  _atom_site_type_symbol
  _atom_site_fract_x
  _atom_site_fract_y
  _atom_site_fract_z
C1 C 0.26828 0.44933 1.01010
 C2 C 0.24985 0.45135 1.03930
 C3 C 0.23226 0.47368 1.04026
 C4 C 0.23476 0.49211 1.01168
 C5 C 0.24527 0.44858 0.98396
 C6 C 0.22789 0.47103 0.98451
 C7 C 0.28481 0.47830 1.00815
 C8 C 0.26752 0.50055 1.00908
 H9 H 0.24999 0.43581 1.05706
 H10 H 0.22070 0.51041 1.01214
 H11 H 0.24254 0.43157 0.96684
 H12 H 0.30848 0.48099 1.00667
 C13 C 0.72989 0.54835 -0.00543
 C14 C 0.75026 0.54719 0.02292
 C15 C 0.76857 0.52540 0.02189
 C16 C 0.76461 0.50650 -0.00746
 C17 C 0.75046 0.54878 -0.03293
 C18 C 0.76868 0.52703 -0.03407
 C19 C 0.71396 0.51879 -0.00710
 C20 C 0.73194 0.49710 -0.00864
 H21 H 0.74883 0.56084 0.04310
 H22 H 0.77898 0.48845 -0.00885
 H23 H 0.75092 0.56535 -0.04963
 H24 H 0.69031 0.51516 -0.00702
 C25 C 0.05090 0.22367 0.49588
 C26 C 0.04672 0.24111 0.46930
 C27 C 0.02091 0.25705 0.47034
 C28 C 0.00379 0.25197 0.49811
 C29 C 0.05027 0.24459 0.52348
 C30 C 0.02575 0.25973 0.52477
 C31 C 0.02265 0.20512 0.49811
 C32 C -0.00217 0.21947 0.49878
 H33 H 0.06398 0.24525 0.45295
 H34 H -0.01684 0.26300 0.49924
 H35 H 0.06862 0.24853 0.53926
 H36 H 0.02248 0.18218 0.49860
 C37 C 0.94797 0.77613 0.51046
 C38 C 0.94718 0.75396 0.48393
 C39 C 0.97222 0.73992 0.48127
 C40 C 0.99603 0.74937 0.50550
 C41 C 0.95545 0.75914 0.53880
 C42 C 0.98083 0.74540 0.53675
 C43 C 0.97541 0.79533 0.50511
 C44 C 1.00051 0.78164 0.50209
 H45 H 0.92802 0.74891 0.46943
 H46 H 1.01660 0.73845 0.50256
 H47 H 0.94018 0.75551 0.55722
 H48 H 0.97479 0.81817 0.50405
 C49 C 0.51706 0.03636 0.21228
 C50 C 0.48674 0.03482 0.22704
 C51 C 0.48227 0.01357 0.24732
 C52 C 0.50859 -0.00509 0.25005
 C53 C 0.53883 0.03778 0.23961
 C54 C 0.53453 0.01602 0.25937
 C55 C 0.52035 0.00846 0.19844
 C56 C 0.51522 -0.01446 0.21878
 H57 H 0.47073 0.05017 0.22248
 H58 H 0.50564 -0.02260 0.26637
 H59 H 0.55716 0.05327 0.24224
 H60 H 0.52603 0.00524 0.17457
 C61 C 0.48436 -0.03488 0.78643
 C62 C 0.46001 -0.03857 0.76196
 C63 C 0.46111 -0.01836 0.74024
 C64 C 0.48677 0.00408 0.74506
 C65 C 0.51299 -0.03326 0.76821
 C66 C 0.51425 -0.01315 0.74632
 C67 C 0.48233 -0.00454 0.79952
 C68 C 0.48334 0.01568 0.77799
 H69 H 0.44298 -0.05555 0.76240
 H70 H 0.48765 0.02070 0.72758
 H71 H 0.53106 -0.04631 0.77300
 H72 H 0.48266 0.00107 0.82379
 C73 C 0.29692 0.01301 0.44704
 H74 H 0.29725 0.02847 0.46588
 C75 C 0.31744 0.01591 0.42379
 H76 H 0.33365 0.03364 0.42498
 C77 C 0.27597 -0.02948 0.42349
 H78 H 0.26011 -0.04739 0.42377
 C79 C 0.29624 -0.02746 0.39972
 H80 H 0.29539 -0.04359 0.38151
 N81 N 0.27649 -0.00917 0.44632
 C82 C 0.20850 0.02335 0.50445
 H83 H 0.20648 0.00685 0.52116
 C84 C 0.19119 0.04661 0.50682
 H85 H 0.17568 0.04774 0.52534
 C86 C 0.23063 0.04139 0.45953
 H87 H 0.24575 0.03913 0.44089
 C88 C 0.21369 0.06499 0.46098
 H89 H 0.21641 0.08094 0.44371
 Zn90 Zn 0.25087 -0.01079 0.48005
 N91 N 0.22808 0.02137 0.48136
 C92 C 0.27495 0.00874 0.53837
 N93 N 0.27499 -0.01153 0.51555
 C94 C 0.29373 -0.03273 0.51639
 C95 C 0.31327 -0.03435 0.54103
 C96 C 0.29407 0.00785 0.56358
 C97 C 0.20666 -0.04758 0.45273
 C98 C 0.18535 -0.07011 0.45135
 C99 C 0.20114 -0.08357 0.50173
 C100 C 0.22246 -0.06106 0.50191
 N101 N 0.22470 -0.04350 0.47772
 H102 H 0.26034 0.02577 0.53698
 H103 H 0.29364 -0.04826 0.49764
 H104 H 0.32833 -0.05115 0.54092
 H105 H 0.29343 0.02392 0.58174
 H106 H 0.20856 -0.03302 0.43402
 H107 H 0.17143 -0.07302 0.43106
 H108 H 0.19899 -0.09645 0.52183
 H109 H 0.23643 -0.05701 0.52196
 C110 C 0.19378 0.06792 0.48499
 C111 C 0.31722 -0.00442 0.39964
 C112 C 0.18193 -0.08820 0.47635
 C113 C 0.31360 -0.01391 0.56513
 C114 C 0.70527 0.03122 0.55539
 H115 H 0.70436 0.04661 0.53753
 C116 C 0.68495 0.03117 0.57905
 H117 H 0.66841 0.04659 0.57898
 C118 C 0.72646 -0.00904 0.57530
 H119 H 0.74203 -0.02523 0.57327
 C120 C 0.70686 -0.00960 0.59965
 H121 H 0.70831 -0.02581 0.61658
 N122 N 0.72509 0.01100 0.55361
 C123 C 0.78999 0.04299 0.48865
 H124 H 0.78608 0.02711 0.47041
 C125 C 0.81110 0.06517 0.48513
 H126 H 0.82265 0.06639 0.46363
 C127 C 0.77872 0.06058 0.53828
 H128 H 0.76620 0.05842 0.55908
 C129 C 0.80036 0.08276 0.53610
 H130 H 0.80443 0.09727 0.55558
 Zn131 Zn 0.74705 0.00935 0.51724
 N132 N 0.77411 0.04120 0.51474
 C133 C 0.71988 0.02962 0.46374
 N134 N 0.71950 0.00842 0.48424
 C135 C 0.69838 -0.01321 0.48273
 C136 C 0.67724 -0.01471 0.45917
 C137 C 0.69922 0.02895 0.43984
 C138 C 0.79043 -0.02513 0.53758
 C139 C 0.80746 -0.04864 0.53805
 C140 C 0.78059 -0.06811 0.49338
 C141 C 0.76404 -0.04421 0.49378
 N142 N 0.76893 -0.02350 0.51595
 H143 H 0.73589 0.04735 0.46604
 H144 H 0.69810 -0.02942 0.49980
 H145 H 0.66100 -0.03241 0.45795
 H146 H 0.69982 0.04612 0.42387
 H147 H 0.79430 -0.00809 0.55455
 H148 H 0.82460 -0.04939 0.55536
 H149 H 0.77603 -0.08458 0.47587
 H150 H 0.74741 -0.04226 0.47628
 C151 C 0.81714 0.08520 0.50929
 C152 C 0.68518 0.01022 0.60134
 C153 C 0.80256 -0.07062 0.51582
 C154 C 0.67769 0.00645 0.43717
 C155 C 0.49338 0.21492 1.01513
 H156 H 0.47434 0.21585 1.00025
 C157 C 0.49393 0.19428 1.03732
 H158 H 0.47488 0.17975 1.03975
 C159 C 0.54114 0.23309 1.02997
 H160 H 0.55975 0.24783 1.02655
 C161 C 0.54275 0.21256 1.05229
 H162 H 0.56269 0.21182 1.06585
 N163 N 0.51657 0.23405 1.01216
 C164 C 0.47644 0.30261 0.96557
 H165 H 0.49088 0.30508 0.94620
 C166 C 0.45275 0.31969 0.96871
 H167 H 0.44929 0.33552 0.95177
 C168 C 0.46414 0.27953 1.01168
 H169 H 0.46887 0.26419 1.02867
 C170 C 0.44015 0.29608 1.01567
 H171 H 0.42630 0.29275 1.03540
 Zn172 Zn 0.51391 0.26036 0.98056
 N173 N 0.48145 0.28276 0.98668
 C174 C 0.48427 0.23816 0.92632
 N175 N 0.50938 0.23870 0.94354
 C176 C 0.53113 0.22135 0.93658
 C177 C 0.52808 0.20235 0.91151
 C178 C 0.48017 0.21920 0.90119
 C179 C 0.55450 0.30139 1.00567
 C180 C 0.57911 0.32042 1.00666
 C181 C 0.58967 0.30596 0.95449
 C182 C 0.56495 0.28705 0.95457
 N183 N 0.54805 0.28502 0.98001
 H184 H 0.46693 0.25158 0.93272
 H185 H 0.55053 0.22175 0.95113
 H186 H 0.54524 0.18806 0.90695
 H187 H 0.45981 0.21847 0.88811
 H188 H 0.54036 0.29968 1.02537
 H189 H 0.58365 0.33359 1.02713
 H190 H 0.60287 0.30739 0.93405
 H191 H 0.55908 0.27437 0.93414
 C192 C 0.43410 0.31642 0.99395
 C193 C 0.51891 0.19281 1.05623
 C194 C 0.59697 0.32296 0.98077
 C195 C 0.50213 0.20077 0.89380
 C196 C 0.45933 0.78081 -0.01767
 H197 H 0.44308 0.77848 0.00009
 C198 C 0.45676 0.80135 -0.03974
 H199 H 0.43807 0.81433 -0.03917
 C200 C 0.50366 0.76693 -0.03944
 H201 H 0.52248 0.75426 -0.03859
 C202 C 0.50212 0.78743 -0.06178
 H203 H 0.51981 0.79008 -0.07796
 N204 N 0.48240 0.76400 -0.01797
 C205 C 0.44950 0.69524 0.04003
 H206 H 0.46648 0.69536 0.05759
 C207 C 0.42560 0.67531 0.04072
 H208 H 0.42422 0.66019 0.05896
 C209 C 0.43160 0.71348 -0.00623
 H210 H 0.43434 0.72780 -0.02500
 C211 C 0.40758 0.69376 -0.00662
 H212 H 0.39178 0.69349 -0.02539
 Zn213 Zn 0.48567 0.73934 0.01533
 N214 N 0.45193 0.71399 0.01693
 C215 C 0.47673 0.75945 0.07800
 N216 N 0.49071 0.76321 0.05088
 C217 C 0.50969 0.78600 0.04679
 C218 C 0.51476 0.80653 0.07003
 C219 C 0.48200 0.77912 0.10246
 C220 C 0.52168 0.70191 -0.01533
 C221 C 0.54620 0.68611 -0.01952
 C222 C 0.56351 0.70164 0.03121
 C223 C 0.53908 0.71779 0.03404
 N224 N 0.51886 0.71774 0.01087
 H225 H 0.46153 0.74132 0.08081
 H226 H 0.52042 0.78860 0.02497
 H227 H 0.52871 0.82510 0.06502
 H228 H 0.47111 0.77536 0.12401
 H229 H 0.50508 0.70202 -0.03326
 H230 H 0.54839 0.67466 -0.04115
 H231 H 0.57873 0.70141 0.05042
 H232 H 0.53608 0.73003 0.05498
 C233 C 0.40445 0.67428 0.01699
 C234 C 0.47857 0.80517 -0.06197
 C235 C 0.56757 0.68562 0.00402
 C236 C 0.50111 0.80332 0.09862
 C237 C 1.02814 0.47586 0.21729
 H238 H 1.01003 0.46000 0.21539
 C239 C 1.05165 0.47453 0.19737
 H240 H 1.05124 0.45768 0.17996
 C241 C 1.04980 0.51763 0.24170
 H242 H 1.04878 0.53456 0.25877
 C243 C 1.07390 0.51708 0.22218
 H244 H 1.09152 0.53341 0.22482
 N245 N 1.02771 0.49697 0.23910
 C246 C 0.96974 0.45640 0.30630
 H247 H 0.95131 0.46969 0.30657
 C248 C 0.96964 0.43260 0.32479
 H249 H 0.95077 0.42749 0.33884
 C250 C 1.01674 0.44702 0.28774
 H251 H 1.03545 0.45299 0.27393
 C252 C 1.01761 0.42324 0.30588
 H253 H 1.03709 0.41131 0.30566
 Zn254 Zn 0.99376 0.49584 0.26368
 N255 N 0.99295 0.46294 0.28796
 C256 C 0.93924 0.47494 0.23432
 N257 N 0.96169 0.49529 0.23559
 C258 C 0.96315 0.51670 0.21537
 C259 C 0.94121 0.51874 0.19321
 C260 C 0.91665 0.47620 0.21241
 C261 C 1.01486 0.53387 0.31156
 C262 C 1.01449 0.55763 0.33146
 C263 C 0.96893 0.56924 0.30764
 C264 C 0.97019 0.54535 0.28825
 N265 N 0.99308 0.52839 0.29023
 H266 H 0.93877 0.45777 0.25019
 H267 H 0.98153 0.53230 0.21655
 H268 H 0.94309 0.53585 0.17720
 H269 H 0.89868 0.46014 0.21198
 H270 H 1.03259 0.51981 0.31303
 H271 H 1.03227 0.56191 0.34793
 H272 H 0.95027 0.58217 0.30588
 H273 H 0.95257 0.54025 0.27188
 C274 C 0.99382 0.41557 0.32466
 C275 C 1.07509 0.49518 0.19975
 C276 C 0.99131 0.57577 0.32955
 C277 C 0.91739 0.49847 0.19162
 C278 C -0.03291 0.48430 0.78562
 H279 H -0.01717 0.46821 0.78732
 C280 C -0.05648 0.48444 0.80570
 H281 H -0.05905 0.46799 0.82243
 C282 C -0.04828 0.52550 0.76189
 H283 H -0.04471 0.54170 0.74507
 C284 C -0.07211 0.52649 0.78157
 H285 H -0.08656 0.54370 0.77981
 N286 N -0.02913 0.50477 0.76445
 C287 C 0.02724 0.47317 0.69280
 H288 H 0.04382 0.49056 0.69278
 C289 C 0.02899 0.45032 0.67212
 H290 H 0.04684 0.45060 0.65601
 C291 C -0.01646 0.45241 0.71342
 H292 H -0.03417 0.45336 0.72954
 C293 C -0.01536 0.42886 0.69330
 H294 H -0.03207 0.41167 0.69458
 Zn295 Zn 0.00535 0.50565 0.74092
 N296 N 0.00495 0.47377 0.71313
 C297 C 0.05708 0.48408 0.76573
 N298 N 0.03734 0.50431 0.76918
 C299 C 0.03814 0.52189 0.79454
 C300 C 0.05933 0.51951 0.81761
 C301 C 0.07853 0.48092 0.78826
 C302 C 0.00180 0.53755 0.68740
 C303 C 0.00304 0.56172 0.66969
 C304 C 0.01670 0.58995 0.71529
 C305 C 0.01549 0.56514 0.73214
 N306 N 0.00825 0.53953 0.71803
 H307 H 0.05582 0.46975 0.74598
 H308 H 0.02148 0.53694 0.79759
 H309 H 0.05906 0.53313 0.83802
 H310 H 0.09388 0.46454 0.78514
 H311 H -0.00494 0.51727 0.67667
 H312 H -0.00258 0.55968 0.64545
 H313 H 0.02251 0.61014 0.72687
 H314 H 0.02011 0.56648 0.75651
 C315 C 0.00781 0.42745 0.67247
 C316 C -0.07625 0.50598 0.80414
 C317 C 0.01052 0.58837 0.68361
 C318 C 0.07962 0.49852 0.81481
 C319 C 0.11877 0.16282 0.49361
 C320 C 0.10569 0.17129 0.46600
 C321 C 0.08507 0.19214 0.46672
 C322 C 0.07711 0.20513 0.49465
 C323 C 0.09014 0.19637 0.52196
 C324 C 0.11087 0.17592 0.52147
 C325 C 0.13932 0.13925 0.49207
 C326 C 0.15298 0.12886 0.51831
 C327 C 0.17077 0.10597 0.51584
 C328 C 0.17562 0.09289 0.48720
 C329 C 0.16273 0.10353 0.46082
 C330 C 0.14463 0.12645 0.46305
 C331 C 0.11245 0.15820 0.43793
 C332 C 0.13147 0.13627 0.43649
 H333 H 0.10250 0.16471 0.41674
 H334 H 0.13564 0.12658 0.41423
 H335 H 0.07422 0.19729 0.44551
 H336 H 0.08349 0.20436 0.54413
 H337 H 0.18091 0.09854 0.53648
 H338 H 0.16613 0.09346 0.43858
 H339 H 0.11967 0.17006 0.54331
 H340 H 0.15013 0.13793 0.54098
 C341 C 0.66620 0.61343 -0.00489
 C342 C 0.66237 0.58900 -0.02438
 C343 C 0.68410 0.56939 -0.02574
 C344 C 0.70882 0.57217 -0.00603
 C345 C 0.71309 0.59701 0.01247
 C346 C 0.69212 0.61736 0.01304
 C347 C 0.64194 0.63339 -0.00344
 C348 C 0.64413 0.65919 0.01367
 C349 C 0.62034 0.67634 0.01543
 C350 C 0.59350 0.66809 0.00062
 C351 C 0.59152 0.64274 -0.01721
 C352 C 0.61554 0.62578 -0.01982
 C353 C 0.63634 0.58357 -0.04143
 C354 C 0.61320 0.60124 -0.03871
 H355 H 0.63340 0.56479 -0.05632
 H356 H 0.59315 0.59562 -0.05165
 H357 H 0.68107 0.55111 -0.04132
 H358 H 0.73257 0.60097 0.02664
 H359 H 0.62315 0.69620 0.02844
 H360 H 0.57108 0.63570 -0.02867
 H361 H 0.69631 0.63562 0.02824
 H362 H 0.66404 0.66660 0.02572
 C363 C 0.87841 -0.16507 0.51597
 C364 C 0.88861 -0.17459 0.48717
 C365 C 0.90968 -0.19498 0.48569
 C366 C 0.92118 -0.20623 0.51255
 C367 C 0.91080 -0.19669 0.54108
 C368 C 0.88954 -0.17677 0.54277
 C369 C 0.85743 -0.14184 0.51667
 C370 C 0.84644 -0.13049 0.54418
 C371 C 0.82837 -0.10775 0.54373
 C372 C 0.82059 -0.09575 0.51591
 C373 C 0.83066 -0.10749 0.48831
 C374 C 0.84899 -0.13030 0.48849
 C375 C 0.87865 -0.16288 0.46005
 C376 C 0.85933 -0.14118 0.46070
 H377 H 0.88638 -0.17021 0.43796
 H378 H 0.85271 -0.13250 0.43909
 H379 H 0.91826 -0.20109 0.46354
 H380 H 0.91995 -0.20344 0.56246
 H381 H 0.82040 -0.09952 0.56532
 H382 H 0.82499 -0.09830 0.46666
 H383 H 0.88295 -0.17011 0.56539
 H384 H 0.85166 -0.13865 0.56632
 C385 C 0.33578 0.38816 1.00735
 C386 C 0.32091 0.39491 0.98008
 C387 C 0.29837 0.41377 0.98120
 C388 C 0.28965 0.42581 1.00931
 C389 C 0.30469 0.41910 1.03625
 C390 C 0.32712 0.40037 1.03541
 C391 C 0.36079 0.36911 1.00491
 C392 C 0.37765 0.36185 1.03051
 C393 C 0.40127 0.34475 1.02689
 C394 C 0.40866 0.33426 0.99772
 C395 C 0.39175 0.34107 0.97214
 C396 C 0.36811 0.35845 0.97547
 C397 C 0.32907 0.38339 0.95170
 C398 C 0.35206 0.36545 0.94946
 H399 H 0.31763 0.38848 0.93080
 H400 H 0.35762 0.35724 0.92692
 H401 H 0.28854 0.41984 0.95984
 H402 H 0.29984 0.42908 1.05812
 H403 H 0.41413 0.34016 1.04700
 H404 H 0.39694 0.33275 0.94953
 H405 H 0.33778 0.39630 1.05692
 H406 H 0.37324 0.36936 1.05350
 C407 C 0.91581 0.16922 0.50017
 C408 C 0.93919 0.16111 0.48153
 C409 C 0.96476 0.17877 0.47973
 C410 C 0.96852 0.20404 0.49741
 C411 C 0.94516 0.21272 0.51517
 C412 C 0.91899 0.19556 0.51649
 C413 C 0.88939 0.14874 0.50244
 C414 C 0.86435 0.15461 0.51951
 C415 C 0.84079 0.13427 0.52151
 C416 C 0.84169 0.10743 0.50683
 C417 C 0.86657 0.10164 0.48972
 C418 C 0.88989 0.12203 0.48694
 C419 C 0.93762 0.13487 0.46572
 C420 C 0.91370 0.11559 0.46872
 H421 H 0.95560 0.12876 0.45147
 H422 H 0.91388 0.09525 0.45657
 H423 H 0.98238 0.17222 0.46522
 H424 H 0.94754 0.23217 0.52899
 H425 H 0.82176 0.13974 0.53442
 H426 H 0.86823 0.08093 0.47882
 H427 H 0.90193 0.20279 0.53113
 H428 H 0.86251 0.17479 0.53132
 C429 C 0.31505 0.58130 0.01169
 C430 C 0.31393 0.56413 -0.01556
 C431 C 0.29674 0.53849 -0.01689
 C432 C 0.28020 0.52985 0.00838
 C433 C 0.27943 0.54773 0.03446
 C434 C 0.29668 0.57325 0.03618
 C435 C 0.33660 0.60661 0.01352
 C436 C 0.34224 0.62303 0.04077
 C437 C 0.36402 0.64519 0.04182
 C438 C 0.38035 0.65179 0.01566
 C439 C 0.37450 0.63599 -0.01171
 C440 C 0.35325 0.61324 -0.01282
 C441 C 0.33066 0.57213 -0.04094
 C442 C 0.34956 0.59642 -0.03975
 H443 H 0.32942 0.55920 -0.06193
 H444 H 0.36230 0.60154 -0.05991
 H445 H 0.29708 0.52461 -0.03714
 H446 H 0.26675 0.54119 0.05417
 H447 H 0.36819 0.65718 0.06316
 H448 H 0.38748 0.64062 -0.03184
 H449 H 0.29590 0.58596 0.05709
 H450 H 0.33064 0.61865 0.06169
 C451 C 0.08179 -0.16986 0.48614
 C452 C 0.05519 -0.16237 0.47252
 C453 C 0.02927 -0.17912 0.47668
 C454 C 0.02886 -0.20298 0.49519
 C455 C 0.05528 -0.21093 0.50806
 C456 C 0.08148 -0.19464 0.50358
 C457 C 0.10870 -0.15039 0.48230
 C458 C 0.13642 -0.15576 0.49462
 C459 C 0.16033 -0.13604 0.49190
 C460 C 0.15728 -0.11039 0.47696
 C461 C 0.12995 -0.10538 0.46377
 C462 C 0.10591 -0.12510 0.46611
 C463 C 0.05427 -0.13766 0.45563
 C464 C 0.07900 -0.11930 0.45275
 H465 H 0.03387 -0.13203 0.44514
 H466 H 0.07696 -0.10008 0.44008
 H467 H 0.00913 -0.17316 0.46590
 H468 H 0.05554 -0.22919 0.52252
 H469 H 0.18126 -0.14089 0.50170
 H470 H 0.12695 -0.08558 0.45252
 H471 H 0.10104 -0.20136 0.51461
 H472 H 0.14004 -0.17493 0.50660
 C473 C 0.68684 0.41529 0.98387
 C474 C 0.68613 0.43421 0.95927
 C475 C 0.70266 0.46018 0.96112
 C476 C 0.72004 0.46765 0.98711
 C477 C 0.72251 0.44827 1.01051
 C478 C 0.70612 0.42225 1.00896
 C479 C 0.66586 0.38954 0.98274
 C480 C 0.66248 0.37094 1.00738
 C481 C 0.64066 0.34885 1.00636
 C482 C 0.62194 0.34452 0.98066
 C483 C 0.62592 0.36216 0.95551
 C484 C 0.64732 0.38477 0.95653
 C485 C 0.66802 0.42772 0.93355
 C486 C 0.64923 0.40337 0.93208
 H487 H 0.66785 0.44204 0.91454
 H488 H 0.63516 0.39961 0.91195
 H489 H 0.70099 0.47528 0.94296
 H490 H 0.73585 0.45391 1.03076
 H491 H 0.63816 0.33529 1.02592
 H492 H 0.61125 0.35923 0.93575
 H493 H 0.70815 0.40836 1.02799
 H494 H 0.67584 0.37354 1.02797
 C495 C 0.52142 0.10538 1.14753
 C496 C 0.50677 0.07888 1.13961
 C497 C 0.50560 0.05702 1.16072
 C498 C 0.51984 0.06040 1.18956
 C499 C 0.53390 0.08698 1.19750
 C500 C 0.53487 0.10905 1.17678
 C501 C 0.52156 0.12840 1.12450
 C502 C 0.53460 0.15588 1.13043
 C503 C 0.53377 0.17665 1.10831
 C504 C 0.52012 0.17059 1.07961
 C505 C 0.50732 0.14320 1.07343
 C506 C 0.50766 0.12230 1.09562
 C507 C 0.49327 0.07429 1.11070
 C508 C 0.49391 0.09545 1.08908
 H509 H 0.48211 0.05394 1.10462
 H510 H 0.48322 0.09081 1.06699
 H511 H 0.49337 0.03720 1.15466
 H512 H 0.54364 0.09134 1.21999
 H513 H 0.54344 0.19769 1.11392
 H514 H 0.49714 0.13804 1.05118
 H515 H 0.54607 0.12884 1.18428
 H516 H 0.54528 0.16190 1.15206
 C517 C 0.00181 0.68548 0.60593
 C518 C 0.01350 0.68322 0.57609
 C519 C 0.00843 0.70387 0.55439
 C520 C -0.00951 0.72625 0.56122
 C521 C -0.01952 0.72928 0.59149
 C522 C -0.01397 0.70930 0.61351
 C523 C 0.00584 0.66187 0.62766
 C524 C -0.00546 0.66177 0.65766
 C525 C -0.00305 0.63829 0.67612
 C526 C 0.01061 0.61431 0.66518
 C527 C 0.02297 0.61466 0.63585
 C528 C 0.02071 0.63814 0.61710
 C529 C 0.02923 0.65978 0.56763
 C530 C 0.03262 0.63766 0.58763
 H531 H 0.03835 0.65808 0.54484
 H532 H 0.04429 0.61964 0.57966
 H533 H 0.01769 0.70158 0.53190
 H534 H -0.03206 0.74702 0.59834
 H535 H -0.01283 0.63850 0.69864
 H536 H 0.03400 0.59638 0.62742
 H537 H -0.02284 0.71260 0.63606
 H538 H -0.01673 0.67932 0.66712
 C539 C 0.47775 0.89741 -0.14752
 C540 C 0.48989 0.89270 -0.17680
 C541 C 0.49185 0.91466 -0.19790
 C542 C 0.48209 0.94161 -0.19031
 C543 C 0.46815 0.94538 -0.16200
 C544 C 0.46628 0.92380 -0.14082
 C545 C 0.47714 0.87389 -0.12514
 C546 C 0.46756 0.87725 -0.09472
 C547 C 0.46784 0.85489 -0.07455
 C548 C 0.47754 0.82849 -0.08408
 C549 C 0.48718 0.82494 -0.11438
 C550 C 0.48737 0.84746 -0.13477
 C551 C 0.49979 0.86607 -0.18491
 C552 C 0.49825 0.84384 -0.16447
 H553 H 0.50882 0.86233 -0.20746
 H554 H 0.50616 0.82364 -0.17187
 H555 H 0.50095 0.91072 -0.22037
 H556 H 0.45810 0.96485 -0.15606
 H557 H 0.46105 0.85856 -0.05111
 H558 H 0.49463 0.80464 -0.12211
 H559 H 0.45539 0.92815 -0.11954
 H560 H 0.46031 0.89709 -0.08579
 C561 C 1.00582 0.32015 0.40471
 C562 C 0.99418 0.32233 0.43455
 C563 C 0.99839 0.30106 0.45587
 C564 C 1.01502 0.27769 0.44841
 C565 C 1.02661 0.27590 0.41866
 C566 C 1.02199 0.29659 0.39716
 C567 C 1.00136 0.34359 0.38287
 C568 C 1.01122 0.34294 0.35235
 C569 C 1.00798 0.36594 0.33344
 C570 C 0.99487 0.39031 0.34431
 C571 C 0.98387 0.39068 0.37431
 C572 C 0.98691 0.36755 0.39352
 C573 C 0.97917 0.34619 0.44332
 C574 C 0.97589 0.36841 0.42339
 H575 H 0.97029 0.34798 0.46621
 H576 H 0.96460 0.38662 0.43153
 H577 H 0.99013 0.30401 0.47884
 H578 H 1.03886 0.25808 0.41140
 H579 H 1.01591 0.36463 0.31015
 H580 H 0.97372 0.40933 0.38310
 H581 H 1.03163 0.29384 0.37489
 H582 H 1.02160 0.32496 0.34260
 C583 C 0.51442 0.90187 0.18156
 C584 C 0.53655 0.92238 0.17342
 C585 C 0.53690 0.94992 0.18619
 C586 C 0.51672 0.95707 0.20880
 C587 C 0.49734 0.93552 0.21979
 C588 C 0.49571 0.90838 0.20587
 C589 C 0.51171 0.87438 0.16345
 C590 C 0.48669 0.85546 0.16431
 C591 C 0.48360 0.83187 0.14410
 C592 C 0.50583 0.82597 0.12322
 C593 C 0.53173 0.84374 0.12403
 C594 C 0.53407 0.86854 0.14249
 C595 C 0.55810 0.91533 0.15247
 C596 C 0.55750 0.88853 0.13823
 H597 H 0.57566 0.93076 0.14696
 H598 H 0.57460 0.88412 0.12207
 H599 H 0.55340 0.96570 0.17885
 H600 H 0.48179 0.94000 0.23745
 H601 H 0.46312 0.81909 0.14399
 H602 H 0.54966 0.83927 0.10899
 H603 H 0.47956 0.89286 0.21412
 H604 H 0.46856 0.85953 0.17912
 C605 C 0.02001 0.33109 0.58831
 C606 C -0.00587 0.31610 0.57702
 C607 C -0.00403 0.29264 0.55653
 C608 C 0.02335 0.28431 0.54655
 C609 C 0.04878 0.30024 0.55679
 C610 C 0.04721 0.32311 0.57741
 C611 C 0.01736 0.35537 0.61078
 C612 C 0.04190 0.36984 0.62522
 C613 C 0.03851 0.39277 0.64538
 C614 C 0.01062 0.40216 0.65174
 C615 C -0.01412 0.38723 0.63824
 C616 C -0.01095 0.36376 0.61814
 C617 C -0.03332 0.32491 0.58591
 C618 C -0.03580 0.34851 0.60559
 H619 H -0.05322 0.31366 0.57714
 H620 H -0.05754 0.35471 0.61137
 H621 H -0.02391 0.28084 0.54861
 H622 H 0.07018 0.29547 0.54847
 H623 H 0.05795 0.40305 0.65628
 H624 H -0.03585 0.39405 0.64302
 H625 H 0.06758 0.33453 0.58403
 H626 H 0.06392 0.36364 0.62159
 C627 C 0.48798 0.10140 0.81305
 C628 C 0.46255 0.08335 0.81745
 C629 C 0.46046 0.05585 0.80429
 C630 C 0.48338 0.04598 0.78675
 C631 C 0.50782 0.06424 0.78100
 C632 C 0.51011 0.09172 0.79383
 C633 C 0.49095 0.12923 0.83062
 C634 C 0.51650 0.14755 0.83013
 C635 C 0.51957 0.17152 0.84967
 C636 C 0.49713 0.17808 0.86981
 C637 C 0.47091 0.16098 0.86914
 C638 C 0.46784 0.13646 0.85014
 C639 C 0.43993 0.09235 0.83601
 C640 C 0.44244 0.11843 0.85185
 H641 H 0.42029 0.07868 0.83900
 H642 H 0.42465 0.12408 0.86660
 H643 H 0.44153 0.04161 0.80871
 H644 H 0.52597 0.05674 0.76811
 H645 H 0.53988 0.18463 0.84960
 H646 H 0.45360 0.16571 0.88493
 H647 H 0.52980 0.10459 0.78927
 H648 H 0.53478 0.14329 0.81567
 C649 C 0.98146 0.67289 0.41340
 C650 C 0.98984 0.66944 0.44441
 C651 C 0.98690 0.69148 0.46622
 C652 C 0.97559 0.71706 0.45786
 C653 C 0.96697 0.72042 0.42725
 C654 C 0.96994 0.69871 0.40522
 C655 C 0.98470 0.64862 0.39090
 C656 C 0.97737 0.64993 0.35946
 C657 C 0.97998 0.62647 0.33965
 C658 C 0.99000 0.60106 0.35053
 C659 C 0.99797 0.59976 0.38168
 C660 C 0.99543 0.62322 0.40183
 C661 C 1.00070 0.64390 0.45364
 C662 C 1.00332 0.62126 0.43284
 H663 H 1.00707 0.64127 0.47741
 H664 H 1.01161 0.60187 0.44122
 H665 H 0.99253 0.68830 0.48994
 H666 H 0.95812 0.74003 0.42030
 H667 H 0.97421 0.62829 0.31562
 H668 H 1.00549 0.58020 0.39048
 H669 H 0.96294 0.70253 0.38205
 H670 H 0.96952 0.66879 0.34967
 C671 C 1.16886 0.48694 0.11129
 C672 C 1.17679 0.45924 0.10318
 C673 C 1.19757 0.45515 0.08030
 C674 C 1.21103 0.47829 0.06522
 C675 C 1.20348 0.50575 0.07359
 C676 C 1.18272 0.51009 0.09629
 C677 C 1.14574 0.49020 0.13514
 C678 C 1.13550 0.51667 0.14428
 C679 C 1.11306 0.51835 0.16569
 C680 C 1.10029 0.49375 0.17861
 C681 C 1.11094 0.46743 0.17028
 C682 C 1.13320 0.46544 0.14860
 C683 C 1.16374 0.43569 0.11769
 C684 C 1.14253 0.43873 0.13999
 H685 H 1.16992 0.41450 0.11158
 H686 H 1.13296 0.41979 0.15036
 H687 H 1.20265 0.43374 0.07375
 H688 H 1.21377 0.52406 0.06275
 H689 H 1.10513 0.53893 0.17149
 H690 H 1.10166 0.44830 0.18053
 H691 H 1.17783 0.53168 0.10167
 H692 H 1.14415 0.53626 0.13483
 C693 C 0.58834 0.00008 0.68663
 C694 C 0.57946 -0.02752 0.69606
 C695 C 0.55557 -0.03161 0.71576
 C696 C 0.53962 -0.00865 0.72564
 C697 C 0.54772 0.01846 0.71512
 C698 C 0.57185 0.02288 0.69612
 C699 C 0.61427 0.00362 0.66603
 C700 C 0.62628 0.03034 0.65730
 C701 C 0.64975 0.03244 0.63709
 C702 C 0.66182 0.00802 0.62487
 C703 C 0.65059 -0.01867 0.63434
 C704 C 0.62732 -0.02100 0.65504
 C705 C 0.59402 -0.05095 0.68523
 C706 C 0.61710 -0.04781 0.66473
 H707 H 0.58710 -0.07213 0.69224
 H708 H 0.62726 -0.06666 0.65654
 H709 H 0.54892 -0.05287 0.72273
 H710 H 0.53563 0.03652 0.72169
 H711 H 0.65843 0.05335 0.63100
 H712 H 0.65941 -0.03781 0.62504
 H713 H 0.57693 0.04421 0.68879
 H714 H 0.61798 0.04986 0.66590
 C715 C -0.16830 0.51701 0.89414
 C716 C -0.16139 0.51052 0.92486
 C717 C -0.18214 0.51363 0.94805
 C718 C -0.20971 0.52351 0.94127
 C719 C -0.21649 0.53005 0.91089
 C720 C -0.19615 0.52681 0.88760
 C721 C -0.14544 0.51355 0.87010
 C722 C -0.15021 0.51901 0.83882
 C723 C -0.12795 0.51616 0.81748
 C724 C -0.10033 0.50777 0.82665
 C725 C -0.09553 0.50182 0.85767
 C726 C -0.11777 0.50455 0.87932
 C727 C -0.13373 0.50130 0.93235
 C728 C -0.11235 0.49852 0.91011
 H729 H -0.12842 0.49637 0.95585
 H730 H -0.09120 0.49155 0.91716
 H731 H -0.17652 0.50897 0.97156
 H732 H -0.23778 0.53740 0.90500
 H733 H -0.13244 0.52042 0.79363
 H734 H -0.07420 0.49567 0.86519
 H735 H -0.20267 0.53221 0.86472
 H736 H -0.17092 0.52553 0.83030
 C737 C 0.40842 0.00791 0.30839
 C738 C 0.42241 -0.01680 0.29929
 C739 C 0.44606 -0.01494 0.27896
 C740 C 0.45630 0.01130 0.26757
 C741 C 0.44235 0.03574 0.27678
 C742 C 0.41875 0.03412 0.29675
 C743 C 0.38374 0.00517 0.33068
 C744 C 0.36843 0.02850 0.34108
 C745 C 0.34654 0.02512 0.36291
 C746 C 0.33916 -0.00157 0.37492
 C747 C 0.35357 -0.02514 0.36399
 C748 C 0.37578 -0.02196 0.34208
 C749 C 0.41303 -0.04315 0.31089
 C750 C 0.39031 -0.04565 0.33191
 H751 H 0.42369 -0.06210 0.30391
 H752 H 0.38415 -0.06646 0.34050
 H753 H 0.45643 -0.03401 0.27217
 H754 H 0.45012 0.05647 0.26927
 H755 H 0.33533 0.04354 0.37050
 H756 H 0.34814 -0.04585 0.37324
 H757 H 0.40931 0.05374 0.30311
 H758 H 0.37307 0.04959 0.33287
 C759 C 0.16208 0.48022 0.91415
 C760 C 0.17765 0.50445 0.92750
 C761 C 0.19874 0.50138 0.95080
 C762 C 0.20457 0.47441 0.96113
 C763 C 0.18848 0.45055 0.94845
 C764 C 0.16755 0.45334 0.92534
 C765 C 0.14054 0.48427 0.88859
 C766 C 0.12495 0.46143 0.87294
 C767 C 0.10540 0.46623 0.84907
 C768 C 0.10072 0.49387 0.84011
 C769 C 0.11605 0.51683 0.85557
 C770 C 0.13604 0.51223 0.87949
 C771 C 0.17224 0.53155 0.91738
 C772 C 0.15176 0.53536 0.89405
 H773 H 0.18404 0.55013 0.92766
 H774 H 0.14838 0.55677 0.88709
 H775 H 0.21116 0.51997 0.96026
 H776 H 0.19197 0.42954 0.95652
 H777 H 0.09356 0.44817 0.83781
 H778 H 0.11281 0.53827 0.84859
 H779 H 0.15598 0.43415 0.91660
 H780 H 0.12756 0.43967 0.87861
 C781 C 0.59298 0.00674 0.33637
 C782 C 0.60399 0.01553 0.30769
 C783 C 0.58483 0.01802 0.28269
 C784 C 0.55457 0.01206 0.28563
 C785 C 0.54366 0.00265 0.31372
 C786 C 0.56258 0.00005 0.33886
 C787 C 0.61424 0.00536 0.36279
 C788 C 0.60565 -0.00246 0.39252
 C789 C 0.62627 -0.00249 0.41653
 C790 C 0.65592 0.00528 0.41152
 C791 C 0.66474 0.01254 0.38190
 C792 C 0.64426 0.01276 0.35767
 C793 C 0.63402 0.02207 0.30409
 C794 C 0.65373 0.02068 0.32853
 H795 H 0.64241 0.02865 0.28206
 H796 H 0.67673 0.02622 0.32463
 H797 H 0.59356 0.02460 0.26079
 H798 H 0.52036 -0.00205 0.31648
 H799 H 0.61886 -0.00799 0.43925
 H800 H 0.68769 0.01809 0.37766
 H801 H 0.55292 -0.00694 0.36002
 H802 H 0.58314 -0.00830 0.39783
 C803 C 0.82973 0.51002 0.09528
 C804 C 0.82229 0.53795 0.08906
 C805 C 0.80247 0.54275 0.06516
 C806 C 0.78954 0.52009 0.04715
 C807 C 0.79687 0.49242 0.05340
 C808 C 0.81665 0.48739 0.07709
 C809 C 0.85139 0.50593 0.12078
 C810 C 0.86067 0.47911 0.12866
 C811 C 0.88160 0.47663 0.15201
 C812 C 0.89379 0.50076 0.16814
 C813 C 0.88411 0.52744 0.16095
 C814 C 0.86331 0.53022 0.13743
 C815 C 0.83474 0.56102 0.10662
 C816 C 0.85475 0.55723 0.13031
 H817 H 0.82899 0.58240 0.10191
 H818 H 0.86385 0.57581 0.14311
 H819 H 0.79749 0.56431 0.06030
 H820 H 0.78702 0.47443 0.04028
 H821 H 0.88882 0.45581 0.15689
 H822 H 0.89293 0.54620 0.17364
 H823 H 0.82132 0.46565 0.08079
 H824 H 0.85238 0.45984 0.11685
 C825 C 0.39781 -0.01923 0.66580
 C826 C 0.41034 0.00684 0.67826
 C827 C 0.43095 0.00703 0.70252
 C828 C 0.43964 -0.01848 0.71441
 C829 C 0.42767 -0.04426 0.70150
 C830 C 0.40704 -0.04469 0.67761
 C831 C 0.37551 -0.01855 0.64032
 C832 C 0.36084 -0.04326 0.62737
 C833 C 0.34062 -0.04158 0.60334
 C834 C 0.33443 -0.01529 0.59146
 C835 C 0.34851 0.00952 0.60461
 C836 C 0.36877 0.00809 0.62897
 C837 C 0.40236 0.03253 0.66633
 C838 C 0.38224 0.03313 0.64203
 H839 H 0.41200 0.05250 0.67576
 H840 H 0.37700 0.05355 0.63345
 H841 H 0.43983 0.02710 0.71242
 H842 H 0.43450 -0.06429 0.70965
 H843 H 0.32959 -0.06101 0.59418
 H844 H 0.34408 0.02998 0.59554
 H845 H 0.39885 -0.06520 0.66862
 H846 H 0.36449 -0.06410 0.63550
   
