data_POSCAR
  _audit_creation_date              2014-09-24
  _audit_creation_method            'ToBaCCo'
  _symmetry_space_group_name_H-M    'P1'
  _symmetry_Int_Tables_number       1
  _symmetry_cell_setting            triclinic
  loop_
  _symmetry_equiv_pos_as_xyz
 x,y,z
_cell_length_a 49.5506
_cell_length_b 49.0008
_cell_length_c 48.8512
_cell_angle_alpha 89.890400
_cell_angle_beta 89.940100
_cell_angle_gamma 90.006500
loop_
  _atom_site_label
  _atom_site_type_symbol
  _atom_site_fract_x
  _atom_site_fract_y
  _atom_site_fract_z
N1 N 0.19069 1.24745 0.17027
 N2 N 0.17242 1.24775 0.18984
 C3 C 0.15498 1.26833 0.18514
 C4 C 0.16293 1.28146 0.16151
 C5 C 0.18554 1.26781 0.15246
 H6 H 0.13754 1.27307 0.19758
 H7 H 0.19702 1.27200 0.13407
 Cu8 Cu 0.17240 1.22059 0.21896
 Cu9 Cu 0.21907 1.22005 0.16880
 Cu10 Cu 0.21886 1.17042 0.21944
 N11 N 0.17215 1.19198 0.24666
 N12 N 0.19035 1.17243 0.24676
 C13 C 0.18500 1.15497 0.26740
 C14 C 0.16233 1.16424 0.28081
 C15 C 0.15455 1.18763 0.26726
 H16 H 0.19636 1.13666 0.27191
 H17 H 0.13709 1.20011 0.27171
 N18 N 0.24609 1.17178 0.19007
 N19 N 0.24617 1.19068 0.17073
 C20 C 0.26667 1.18565 0.15330
 C21 C 0.27997 1.16263 0.16223
 C22 C 0.26655 1.15426 0.18544
 H23 H 0.27134 1.19750 0.13521
 H24 H 0.27110 1.13645 0.19770
 H25 H 0.19733 1.18994 0.18886
 H26 H 0.22007 1.21156 0.21026
 N27 N 0.80913 0.75230 0.17219
 N28 N 0.82728 0.75202 0.19181
 C29 C 0.84501 0.73172 0.18702
 C30 C 0.83737 0.71872 0.16328
 C31 C 0.81463 0.73217 0.15429
 H32 H 0.86244 0.72707 0.19949
 H33 H 0.80328 0.72795 0.13588
 Cu34 Cu 0.82697 0.77882 0.22115
 Cu35 Cu 0.78044 0.77929 0.17074
 Cu36 Cu 0.78038 0.82905 0.22091
 N37 N 0.82725 0.80796 0.24816
 N38 N 0.80904 0.82751 0.24800
 C39 C 0.81461 0.84538 0.26814
 C40 C 0.83745 0.83642 0.28147
 C41 C 0.84510 0.81277 0.26838
 H42 H 0.80332 0.86381 0.27232
 H43 H 0.86269 0.80046 0.27278
 N44 N 0.75297 0.82726 0.19181
 N45 N 0.75300 0.80826 0.17266
 C46 C 0.73234 0.81292 0.15535
 C47 C 0.71881 0.83582 0.16414
 C48 C 0.73228 0.84451 0.18718
 H49 H 0.72774 0.80091 0.13741
 H50 H 0.72761 0.86234 0.19929
 H51 H 0.80220 0.80929 0.19069
 H52 H 0.77926 0.78777 0.21216
 N53 N 0.80955 1.24494 -0.17019
 N54 N 0.82830 1.24461 -0.18928
 C55 C 0.84575 1.26523 -0.18474
 C56 C 0.83729 1.27902 -0.16172
 C57 C 0.81439 1.26573 -0.15289
 H58 H 0.86347 1.26964 -0.19690
 H59 H 0.80247 1.27049 -0.13496
 Cu60 Cu 0.82838 1.21664 -0.21747
 Cu61 Cu 0.78092 1.21775 -0.16849
 Cu62 Cu 0.78088 1.16781 -0.21885
 N63 N 0.82826 1.18873 -0.24574
 N64 N 0.80952 1.16969 -0.24618
 C65 C 0.81448 1.15248 -0.26706
 C66 C 0.83743 1.16138 -0.28029
 C67 C 0.84581 1.18429 -0.26636
 H68 H 0.80270 1.13452 -0.27182
 H69 H 0.86361 1.19638 -0.27058
 N70 N 0.75365 1.16946 -0.18937
 N71 N 0.75369 1.18849 -0.17023
 C72 C 0.73341 1.18350 -0.15252
 C73 C 0.72009 1.16038 -0.16103
 C74 C 0.73332 1.15187 -0.18430
 H75 H 0.72903 1.19533 -0.13439
 H76 H 0.72885 1.13383 -0.19619
 H77 H 0.80189 1.18680 -0.18783
 H78 H 0.78032 1.20895 -0.20989
 N79 N 0.19057 0.75505 -0.17263
 N80 N 0.17205 0.75549 -0.19192
 C81 C 0.15432 0.73510 -0.18741
 C82 C 0.16236 0.72126 -0.16423
 C83 C 0.18531 0.73435 -0.15525
 H84 H 0.13665 0.73090 -0.19968
 H85 H 0.19692 0.72956 -0.13714
 Cu86 Cu 0.17237 0.78352 -0.22016
 Cu87 Cu 0.21943 0.78205 -0.17081
 Cu88 Cu 0.22003 0.83204 -0.22134
 N89 N 0.17268 0.81156 -0.24841
 N90 N 0.19151 0.83051 -0.24874
 C91 C 0.18678 0.84785 -0.26960
 C92 C 0.16384 0.83917 -0.28291
 C93 C 0.15523 0.81624 -0.26905
 H94 H 0.19872 0.86573 -0.27432
 H95 H 0.13739 0.80428 -0.27337
 N96 N 0.24712 0.83016 -0.19188
 N97 N 0.24690 0.81117 -0.17262
 C98 C 0.26732 0.81597 -0.15506
 C99 C 0.28086 0.83894 -0.16380
 C100 C 0.26766 0.84752 -0.18705
 H101 H 0.27172 0.80405 -0.13696
 H102 H 0.27238 0.86540 -0.19914
 H103 H 0.19876 0.81298 -0.19025
 H104 H 0.22040 0.79077 -0.21210
 C105 C 0.54171 1.03568 -0.00554
 H106 H 0.54224 1.03504 0.01659
 C107 C 0.56054 1.05137 -0.01987
 H108 H 0.57559 1.06296 -0.00880
 C109 C 0.52202 1.02067 -0.04712
 H110 H 0.50736 1.00825 -0.05767
 C111 C 0.54047 1.03613 -0.06226
 H112 H 0.53982 1.03576 -0.08442
 N113 N 0.52290 1.02082 -0.01927
 C114 C 0.45803 1.00706 0.03948
 H115 H 0.45703 0.98501 0.03909
 C116 C 0.43966 1.02187 0.05525
 H117 H 0.42448 1.01122 0.06716
 C118 C 0.47846 1.04799 0.02374
 H119 H 0.49322 1.05811 0.01100
 C120 C 0.46045 1.06357 0.03922
 H121 H 0.46153 1.08565 0.03853
 Zn122 Zn 0.49964 0.99859 0.00189
 N123 N 0.47700 1.02025 0.02424
 C124 C 0.52060 0.97616 0.05133
 N125 N 0.52187 0.97573 0.02349
 C126 C 0.54042 0.96018 0.01013
 C127 C 0.55857 0.94405 0.02484
 C128 C 0.53841 0.96033 0.06683
 C129 C 0.45860 0.99142 -0.03649
 C130 C 0.44029 0.97723 -0.05285
 C131 C 0.45959 0.93487 -0.03667
 C132 C 0.47757 0.94987 -0.02060
 N133 N 0.47685 0.97764 -0.02092
 H134 H 0.50619 0.98914 0.06158
 H135 H 0.54129 0.96063 -0.01200
 H136 H 0.57343 0.93192 0.01405
 H137 H 0.53751 0.96098 0.08897
 H138 H 0.45816 1.01349 -0.03597
 H139 H 0.42574 0.98835 -0.06508
 H140 H 0.46013 0.91278 -0.03618
 H141 H 0.49175 0.93928 -0.00759
 C142 C 0.44084 1.05037 0.05504
 C143 C 0.55995 1.05152 -0.04848
 C144 C 0.44077 0.94870 -0.05288
 C145 C 0.55761 0.94422 0.05344
 C146 C -0.00796 0.54180 1.03676
 H147 H 0.01387 0.54254 1.03664
 C148 C -0.02258 0.56022 1.05273
 H149 H -0.01203 0.57515 1.06506
 C150 C -0.04847 0.52197 1.02026
 H151 H -0.05849 0.50742 1.00717
 C152 C -0.06385 0.54003 1.03591
 H153 H -0.08568 0.53919 1.03503
 N154 N -0.02102 0.52307 1.02109
 C155 C 0.03790 0.45845 1.00736
 H156 H 0.03788 0.45779 0.98523
 C157 C 0.05351 0.43990 1.02221
 H158 H 0.06566 0.42493 1.01151
 C159 C 0.02143 0.47816 1.04844
 H160 H 0.00846 0.49268 1.05858
 C161 C 0.03674 0.45995 1.06406
 H162 H 0.03570 0.46068 1.08620
 Zn163 Zn 0.00038 0.50009 0.99883
 N164 N 0.02239 0.47717 1.02060
 C165 C 0.04915 0.52209 0.97704
 N166 N 0.02169 0.52306 0.97637
 C167 C 0.00846 0.54179 0.96076
 C168 C 0.02290 0.56037 0.94476
 C169 C 0.06438 0.54033 0.96132
 C170 C -0.03692 0.45827 0.99087
 C171 C -0.05281 0.43977 0.97636
 C172 C -0.03679 0.45992 0.93416
 C173 C -0.02118 0.47808 0.94947
 N174 N -0.02165 0.47703 0.97733
 H175 H 0.05930 0.50754 0.99008
 H176 H -0.01336 0.54242 0.96101
 H177 H 0.01221 0.57534 0.93254
 H178 H 0.08621 0.53962 0.96211
 H179 H -0.03656 0.45761 1.01301
 H180 H -0.06482 0.42483 0.98730
 H181 H -0.03622 0.46073 0.91200
 H182 H -0.00846 0.49269 0.93907
 C183 C 0.05286 0.44063 1.05081
 C184 C -0.05077 0.55933 1.05225
 C185 C -0.05270 0.44059 0.94775
 C186 C 0.05110 0.55968 0.94512
 C187 C 1.03690 -0.00727 0.54095
 H188 H 1.03637 0.01479 0.54181
 C189 C 1.05297 -0.02187 0.55931
 H190 H 1.06496 -0.01106 0.57433
 C191 C 1.02141 -0.04839 0.52079
 H192 H 1.00871 -0.05867 0.50611
 C193 C 1.03721 -0.06378 0.53879
 H194 H 1.03681 -0.08586 0.53777
 N195 N 1.02168 -0.02064 0.52208
 C196 C 1.00741 0.03880 0.45718
 H197 H 0.98559 0.03839 0.45641
 C198 C 1.02186 0.05489 0.43865
 H199 H 1.01118 0.06702 0.42359
 C200 C 1.04808 0.02289 0.47721
 H201 H 1.05824 0.00998 0.49188
 C202 C 1.06331 0.03869 0.45905
 H203 H 1.08515 0.03810 0.45994
 Zn204 Zn 0.99944 0.00085 0.49912
 N205 N 1.02064 0.02335 0.47606
 C206 C 0.97793 0.05001 0.52116
 N207 N 0.97730 0.02225 0.52222
 C208 C 0.96203 0.00885 0.54112
 C209 C 0.94637 0.02345 0.55982
 C210 C 0.96255 0.06539 0.53950
 C211 C 0.99165 -0.03668 0.45706
 C212 C 0.97734 -0.05258 0.43836
 C213 C 0.93574 -0.03681 0.45881
 C214 C 0.95084 -0.02118 0.47716
 N215 N 0.97829 -0.02151 0.47603
 H216 H 0.99070 0.06029 0.50649
 H217 H 0.96232 -0.01322 0.54183
 H218 H 0.93444 0.01263 0.57494
 H219 H 0.96333 0.08747 0.53873
 H220 H 1.01347 -0.03616 0.45633
 H221 H 0.98814 -0.06444 0.42319
 H222 H 0.91390 -0.03631 0.45965
 H223 H 0.94058 -0.00849 0.49192
 C224 C 1.05005 0.05477 0.43958
 C225 C 1.05309 -0.05037 0.55822
 C226 C 0.94914 -0.05259 0.43922
 C227 C 0.94669 0.05197 0.55903
 C228 C 0.09467 0.38323 1.09463
 C229 C 0.08127 0.35890 1.10245
 C230 C 0.09555 0.33818 1.11677
 C231 C 0.12318 0.34187 1.12317
 C232 C 0.13649 0.36636 1.11569
 C233 C 0.12219 0.38709 1.10137
 C234 C 0.13593 0.41136 1.09406
 C235 C 0.16302 0.41506 1.10073
 C236 C 0.17700 0.39479 1.11474
 C237 C 0.16399 0.37067 1.12216
 C238 C 0.08170 0.31403 1.12434
 C239 C 0.05453 0.31047 1.11794
 C240 C 0.04058 0.33072 1.10392
 C241 C 0.05368 0.35470 1.09621
 C242 C 0.13791 0.32035 1.13717
 C243 C 0.14984 0.30220 1.14865
 C244 C 0.08020 0.40403 1.07934
 C245 C 0.06790 0.42093 1.06643
 H246 H 0.12591 0.42771 1.08317
 H247 H 0.17322 0.43376 1.09502
 H248 H 0.19803 0.39777 1.11989
 H249 H 0.17570 0.35550 1.13305
 H250 H 0.09168 0.29769 1.13529
 H251 H 0.04425 0.29189 1.12391
 H252 H 0.01947 0.32787 1.09900
 H253 H 0.04194 0.36986 1.08536
 C254 C -0.09441 0.61562 1.09552
 C255 C -0.08729 0.62215 1.12279
 C256 C -0.10166 0.64280 1.13708
 C257 C -0.12308 0.65680 1.12400
 C258 C -0.13051 0.64995 1.09689
 C259 C -0.11615 0.62929 1.08261
 C260 C -0.12391 0.62284 1.05550
 C261 C -0.14524 0.63641 1.04286
 C262 C -0.15926 0.65664 1.05682
 C263 C -0.15207 0.66343 1.08352
 C264 C -0.09410 0.64905 1.16429
 C265 C -0.07297 0.63524 1.17704
 C266 C -0.05893 0.61503 1.16308
 C267 C -0.06590 0.60849 1.13625
 C268 C -0.13720 0.67853 1.13824
 C269 C -0.14885 0.69677 1.14980
 C270 C -0.07906 0.59531 1.08052
 C271 C -0.06620 0.57875 1.06778
 H272 H -0.11364 0.60723 1.04382
 H273 H -0.15092 0.63121 1.02213
 H274 H -0.17582 0.66714 1.04691
 H275 H -0.16361 0.67928 1.09353
 H276 H -0.10444 0.66459 1.17599
 H277 H -0.06748 0.64025 1.19788
 H278 H -0.04254 0.60436 1.17308
 H279 H -0.05439 0.59260 1.12624
 C280 C -0.09645 0.38393 0.90513
 C281 C -0.11676 0.36877 0.91877
 C282 C -0.13087 0.34786 0.90462
 C283 C -0.12459 0.34221 0.87692
 C284 C -0.10468 0.35776 0.86311
 C285 C -0.09058 0.37869 0.87725
 C286 C -0.07071 0.39391 0.86304
 C287 C -0.06496 0.38862 0.83563
 C288 C -0.07873 0.36814 0.82182
 C289 C -0.09837 0.35281 0.83530
 C290 C -0.15102 0.33290 0.91872
 C291 C -0.15707 0.33848 0.94600
 C292 C -0.14328 0.35893 0.95984
 C293 C -0.12332 0.37396 0.94649
 C294 C -0.13822 0.32008 0.86285
 C295 C -0.14943 0.30146 0.85146
 C296 C -0.08117 0.40442 0.91995
 C297 C -0.06828 0.42110 0.93249
 H298 H -0.05948 0.41007 0.87291
 H299 H -0.04974 0.40049 0.82506
 H300 H -0.07420 0.36411 0.80052
 H301 H -0.10857 0.33712 0.82368
 H302 H -0.16233 0.31681 0.90883
 H303 H -0.17257 0.32686 0.95646
 H304 H -0.14808 0.36320 0.98102
 H305 H -0.11318 0.38969 0.95810
 C306 C 0.09322 0.61740 0.90195
 C307 C 0.12111 0.61425 0.89648
 C308 C 0.13545 0.63518 0.88245
 C309 C 0.12180 0.65913 0.87397
 C310 C 0.09383 0.66214 0.87916
 C311 C 0.07951 0.64122 0.89319
 C312 C 0.05158 0.64473 0.89820
 C313 C 0.03818 0.66822 0.88960
 C314 C 0.05219 0.68868 0.87589
 C315 C 0.07969 0.68579 0.87068
 C316 C 0.16333 0.63160 0.87729
 C317 C 0.17667 0.60800 0.88571
 C318 C 0.16266 0.58754 0.89942
 C319 C 0.13519 0.59052 0.90482
 C320 C 0.13652 0.68085 0.86025
 C321 C 0.14847 0.69915 0.84900
 C322 C 0.07867 0.59644 0.91697
 C323 C 0.06628 0.57944 0.92968
 H324 H 0.03978 0.62938 0.90877
 H325 H 0.01681 0.67056 0.89359
 H326 H 0.04170 0.70689 0.86924
 H327 H 0.08969 0.70226 0.85994
 H328 H 0.17509 0.64694 0.86669
 H329 H 0.19800 0.60558 0.88156
 H330 H 0.17311 0.56924 0.90591
 H331 H 0.12515 0.57405 0.91553
 C332 C 1.09288 0.09859 0.38282
 C333 C 1.12144 0.09895 0.38348
 C334 C 1.13608 0.11309 0.36280
 C335 C 1.12206 0.12679 0.34160
 C336 C 1.09348 0.12678 0.34119
 C337 C 1.07885 0.11264 0.36185
 C338 C 1.05030 0.11284 0.36095
 C339 C 1.03658 0.12661 0.34022
 C340 C 1.05088 0.14042 0.32000
 C341 C 1.07900 0.14058 0.32038
 C342 C 1.16462 0.11306 0.36383
 C343 C 1.17832 0.09950 0.38471
 C344 C 1.16401 0.08570 0.40494
 C345 C 1.13590 0.08534 0.40442
 C346 C 1.13696 0.14049 0.31996
 C347 C 1.14905 0.15172 0.30170
 C348 C 1.07792 0.08333 0.40333
 C349 C 1.06530 0.07044 0.42004
 H350 H 1.03827 0.10241 0.37623
 H351 H 1.01474 0.12656 0.33985
 H352 H 1.04014 0.15109 0.30394
 H353 H 1.08922 0.15164 0.30422
 H354 H 1.17664 0.12352 0.34856
 H355 H 1.20016 0.09971 0.38520
 H356 H 1.17475 0.07521 0.42113
 H357 H 1.12565 0.07434 0.42061
 C358 C 1.09754 -0.09335 0.61429
 C359 C 1.09389 -0.12186 0.61736
 C360 C 1.10819 -0.13624 0.63808
 C361 C 1.12607 -0.12203 0.65558
 C362 C 1.13018 -0.09364 0.65211
 C363 C 1.11587 -0.07925 0.63141
 C364 C 1.12025 -0.05085 0.62840
 C365 C 1.13828 -0.03707 0.64533
 C366 C 1.15226 -0.05113 0.66557
 C367 C 1.14833 -0.07908 0.66903
 C368 C 1.10412 -0.16470 0.64083
 C369 C 1.08647 -0.17858 0.62357
 C370 C 1.07251 -0.16453 0.60330
 C371 C 1.07607 -0.13648 0.60015
 C372 C 1.13984 -0.13644 0.67751
 C373 C 1.15116 -0.14808 0.69599
 C374 C 1.08200 -0.07841 0.59401
 C375 C 1.06891 -0.06576 0.57751
 H376 H 1.10988 -0.03903 0.61293
 H377 H 1.14143 -0.01536 0.64271
 H378 H 1.16625 -0.04033 0.67867
 H379 H 1.15970 -0.08912 0.68504
 H380 H 1.11455 -0.17652 0.65628
 H381 H 1.08364 -0.20036 0.62592
 H382 H 1.05884 -0.17541 0.58992
 H383 H 1.06478 -0.12645 0.58407
 C384 C 0.90692 -0.09548 0.38151
 C385 C 0.88760 -0.11540 0.38913
 C386 C 0.87313 -0.12981 0.36860
 C387 C 0.87804 -0.12420 0.34059
 C388 C 0.89745 -0.10435 0.33298
 C389 C 0.91192 -0.08995 0.35350
 C390 C 0.93120 -0.07019 0.34538
 C391 C 0.93605 -0.06482 0.31779
 C392 C 0.92192 -0.07892 0.29774
 C393 C 0.90282 -0.09846 0.30512
 C394 C 0.85394 -0.14964 0.37672
 C395 C 0.84917 -0.15507 0.40432
 C396 C 0.86329 -0.14095 0.42437
 C397 C 0.88231 -0.12132 0.41699
 C398 C 0.86314 -0.13872 0.31956
 C399 C 0.85096 -0.15052 0.30180
 C400 C 0.92165 -0.08061 0.40240
 C401 C 0.93407 -0.06798 0.41940
 H402 H 0.94272 -0.05870 0.36021
 H403 H 0.95087 -0.04965 0.31196
 H404 H 0.92578 -0.07468 0.27633
 H405 H 0.89235 -0.10888 0.28876
 H406 H 0.84246 -0.16115 0.36186
 H407 H 0.83443 -0.17032 0.41016
 H408 H 0.85950 -0.14523 0.44578
 H409 H 0.89281 -0.11087 0.43332
 C410 C 0.90502 0.09523 0.61695
 C411 C 0.91844 0.10238 0.64150
 C412 C 0.90430 0.11660 0.66240
 C413 C 0.87682 0.12359 0.65866
 C414 C 0.86349 0.11673 0.63398
 C415 C 0.87764 0.10250 0.61306
 C416 C 0.86388 0.09580 0.58861
 C417 C 0.83691 0.10295 0.58491
 C418 C 0.82308 0.11685 0.60535
 C419 C 0.83611 0.12370 0.62965
 C420 C 0.91814 0.12347 0.68678
 C421 C 0.94516 0.11648 0.69040
 C422 C 0.95898 0.10257 0.66997
 C423 C 0.94588 0.09554 0.64577
 C424 C 0.86225 0.13749 0.68037
 C425 C 0.85044 0.14882 0.69871
 C426 C 0.91937 0.08009 0.59595
 C427 C 0.93163 0.06735 0.57889
 H428 H 0.87381 0.08502 0.57211
 H429 H 0.82670 0.09768 0.56606
 H430 H 0.80213 0.12235 0.60237
 H431 H 0.82452 0.13454 0.64495
 H432 H 0.90827 0.13431 0.70326
 H433 H 0.95543 0.12191 0.70916
 H434 H 0.97997 0.09720 0.67287
 H435 H 0.95751 0.08474 0.63047
 C436 C 0.38427 1.09458 0.09708
 C437 C 0.37712 1.08741 0.12423
 C438 C 0.35628 1.10191 0.13795
 C439 C 0.34272 1.12351 0.12443
 C440 C 0.35020 1.13099 0.09747
 C441 C 0.37104 1.11649 0.08376
 C442 C 0.37809 1.12429 0.05676
 C443 C 0.36492 1.14578 0.04368
 C444 C 0.34453 1.15994 0.05708
 C445 C 0.33716 1.15272 0.08366
 C446 C 0.34939 1.09429 0.16503
 C447 C 0.36274 1.07296 0.17820
 C448 C 0.38313 1.05879 0.16480
 C449 C 0.39031 1.06583 0.13811
 C450 C 0.32071 1.13764 0.13803
 C451 C 0.30223 1.14917 0.14914
 C452 C 0.40472 1.07902 0.08260
 C453 C 0.42137 1.06601 0.07022
 H454 H 0.39385 1.11391 0.04550
 H455 H 0.37057 1.15147 0.02303
 H456 H 0.33434 1.17661 0.04683
 H457 H 0.32120 1.16437 0.09324
 H458 H 0.33368 1.10471 0.17631
 H459 H 0.35723 1.06741 0.19893
 H460 H 0.39344 1.04225 0.17513
 H461 H 0.40630 1.05421 0.12854
 C462 C 0.61796 1.09363 -0.09080
 C463 C 0.61174 1.10746 -0.11546
 C464 C 0.63242 1.12130 -0.13015
 C465 C 0.65920 1.12125 -0.12006
 C466 C 0.66539 1.10755 -0.09530
 C467 C 0.64471 1.09373 -0.08061
 C468 C 0.65139 1.08021 -0.05589
 C469 C 0.67774 1.08031 -0.04598
 C470 C 0.69797 1.09379 -0.06036
 C471 C 0.69199 1.10729 -0.08473
 C472 C 0.62571 1.13494 -0.15478
 C473 C 0.59932 1.13494 -0.16461
 C474 C 0.57909 1.12143 -0.15023
 C475 C 0.58512 1.10780 -0.12593
 C476 C 0.68043 1.13525 -0.13506
 C477 C 0.69837 1.14675 -0.14714
 C478 C 0.59700 1.07903 -0.07603
 C479 C 0.57990 1.06664 -0.06359
 H480 H 0.63635 1.06946 -0.04394
 H481 H 0.68249 1.06987 -0.02704
 H482 H 0.71843 1.09380 -0.05259
 H483 H 0.70842 1.11750 -0.09516
 H484 H 0.64075 1.14574 -0.16668
 H485 H 0.59453 1.14548 -0.18348
 H486 H 0.55862 1.12150 -0.15794
 H487 H 0.56870 1.09760 -0.11546
 C488 C 0.38454 0.90652 -0.09732
 C489 C 0.36769 0.92068 -0.11593
 C490 C 0.34697 0.90646 -0.13009
 C491 C 0.34322 0.87816 -0.12554
 C492 C 0.36042 0.86389 -0.10735
 C493 C 0.38115 0.87811 -0.09320
 C494 C 0.39805 0.86343 -0.07505
 C495 C 0.39457 0.83549 -0.07100
 C496 C 0.37429 0.82159 -0.08481
 C497 C 0.35734 0.83553 -0.10279
 C498 C 0.33030 0.92108 -0.14851
 C499 C 0.33401 0.94894 -0.15284
 C500 C 0.35427 0.96285 -0.13900
 C501 C 0.37097 0.94899 -0.12073
 C502 C 0.32137 0.86388 -0.13921
 C503 C 0.30300 0.85232 -0.15046
 C504 C 0.40487 0.92130 -0.08190
 C505 C 0.42142 0.93371 -0.06882
 H506 H 0.41413 0.87334 -0.06387
 H507 H 0.40768 0.82458 -0.05706
 H508 H 0.37166 0.79989 -0.08159
 H509 H 0.34188 0.82382 -0.11309
 H510 H 0.31429 0.91116 -0.15978
 H511 H 0.32109 0.95980 -0.16701
 H512 H 0.35707 0.98449 -0.14245
 H513 H 0.38647 0.96069 -0.11049
 C514 C 0.61420 0.90176 0.09728
 C515 C 0.61955 0.87396 0.09156
 C516 C 0.64043 0.86007 0.10587
 C517 C 0.65583 0.87406 0.12581
 C518 C 0.65015 0.90172 0.13188
 C519 C 0.62927 0.91560 0.11758
 C520 C 0.62406 0.94328 0.12392
 C521 C 0.63902 0.95685 0.14383
 C522 C 0.65943 0.94328 0.15781
 C523 C 0.66503 0.91604 0.15198
 C524 C 0.64547 0.83232 0.09972
 C525 C 0.63030 0.81867 0.08002
 C526 C 0.60990 0.83225 0.06604
 C527 C 0.60451 0.85959 0.07164
 C528 C 0.67788 0.86023 0.13965
 C529 C 0.69644 0.84898 0.15094
 C530 C 0.59368 0.91633 0.08187
 C531 C 0.57702 0.92883 0.06897
 H532 H 0.60837 0.95472 0.11363
 H533 H 0.63474 0.97802 0.14844
 H534 H 0.67099 0.95391 0.17326
 H535 H 0.68109 0.90635 0.16342
 H536 H 0.66113 0.82088 0.11007
 H537 H 0.63441 0.79743 0.07560
 H538 H 0.59817 0.82155 0.05076
 H539 H 0.58842 0.86928 0.06024
   
