data_POSCAR
  _audit_creation_date              2014-09-24
  _audit_creation_method            'ToBaCCo'
  _symmetry_space_group_name_H-M    'P1'
  _symmetry_Int_Tables_number       1
  _symmetry_cell_setting            triclinic
  loop_
  _symmetry_equiv_pos_as_xyz
 x,y,z
_cell_length_a 52.1227
_cell_length_b 51.7954
_cell_length_c 51.6509
_cell_angle_alpha 90.653600
_cell_angle_beta 90.561500
_cell_angle_gamma 88.689000
loop_
  _atom_site_label
  _atom_site_type_symbol
  _atom_site_fract_x
  _atom_site_fract_y
  _atom_site_fract_z
C1 C 0.60454 0.63830 0.62210
 C2 C 0.60578 0.62056 0.64249
 C3 C 0.62591 0.60187 0.64424
 C4 C 0.64467 0.60138 0.62465
 C5 C 0.64353 0.61886 0.60409
 C6 C 0.62347 0.63729 0.60301
 H7 H 0.59133 0.62208 0.65734
 H8 H 0.65998 0.58693 0.62474
 H9 H 0.62262 0.65093 0.58726
 C10 C 0.89934 0.36197 0.12296
 C11 C 0.89749 0.38035 0.14329
 C12 C 0.87750 0.39896 0.14393
 C13 C 0.85917 0.39953 0.12392
 C14 C 0.86061 0.38161 0.10343
 C15 C 0.88052 0.36289 0.10312
 H16 H 0.91110 0.37991 0.15926
 H17 H 0.84377 0.41395 0.12428
 H18 H 0.88158 0.34961 0.08682
 C19 C 0.39245 0.15046 -0.12568
 C20 C 0.39449 0.12909 -0.14254
 C21 C 0.37658 0.10927 -0.14176
 C22 C 0.35679 0.11080 -0.12349
 C23 C 0.35460 0.13196 -0.10633
 C24 C 0.37240 0.15184 -0.10775
 H25 H 0.40959 0.12830 -0.15681
 H26 H 0.34302 0.09548 -0.12266
 H27 H 0.37115 0.16806 -0.09435
 C28 C 0.11027 0.85057 0.36818
 C29 C 0.12949 0.84998 0.38769
 C30 C 0.14991 0.86719 0.38749
 C31 C 0.15101 0.88566 0.36798
 C32 C 0.13190 0.88722 0.34877
 C33 C 0.11179 0.86964 0.34891
 H34 H 0.12977 0.83517 0.40229
 H35 H 0.16645 0.89933 0.36819
 H36 H 0.09701 0.87147 0.33416
 N37 N 0.09335 0.16404 0.11174
 N38 N 0.08122 0.15184 0.12995
 C39 C 0.05916 0.16477 0.13530
 C40 C 0.05755 0.18635 0.11982
 C41 C 0.07962 0.18535 0.10515
 H42 H 0.04547 0.15923 0.14970
 H43 H 0.08498 0.19883 0.09041
 Cu44 Cu 0.09602 0.12097 0.14572
 Cu45 Cu 0.12526 0.15056 0.09690
 Cu46 Cu 0.15126 0.09463 0.12390
 N47 N 0.11116 0.09010 0.16123
 N48 N 0.13292 0.08005 0.15278
 C49 C 0.13944 0.05936 0.16714
 C50 C 0.12074 0.05620 0.18567
 C51 C 0.10308 0.07611 0.18127
 H52 H 0.15650 0.04747 0.16420
 H53 H 0.08587 0.08038 0.19214
 N54 N 0.16693 0.11227 0.09458
 N55 N 0.15725 0.13371 0.08451
 C56 C 0.17195 0.14059 0.06453
 C57 C 0.19182 0.12257 0.06180
 C58 C 0.18799 0.10494 0.08126
 H59 H 0.16805 0.15710 0.05240
 H60 H 0.19962 0.08791 0.08536
 H61 H 0.11982 0.11233 0.10609
 H62 H 0.13822 0.13216 0.12995
 N63 N 0.40599 0.83358 0.61728
 N64 N 0.41537 0.84449 0.63832
 C65 C 0.43653 0.83114 0.64596
 C66 C 0.44069 0.81075 0.62879
 C67 C 0.42091 0.81300 0.61078
 H68 H 0.44795 0.83582 0.66286
 H69 H 0.41714 0.80020 0.59459
 Cu70 Cu 0.39848 0.87449 0.65420
 Cu71 Cu 0.37429 0.84588 0.60075
 Cu72 Cu 0.34298 0.89827 0.62976
 N73 N 0.38118 0.90450 0.66969
 N74 N 0.35927 0.91339 0.66020
 C75 C 0.35119 0.93380 0.67450
 C76 C 0.36899 0.93805 0.69407
 C77 C 0.38781 0.91906 0.69037
 H78 H 0.33380 0.94491 0.67066
 H79 H 0.40489 0.91590 0.70204
 N80 N 0.32961 0.88049 0.59875
 N81 N 0.34190 0.86110 0.58716
 C82 C 0.32823 0.85372 0.56617
 C83 C 0.30619 0.86906 0.56465
 C84 C 0.30772 0.88578 0.58562
 H85 H 0.33363 0.83804 0.55320
 H86 H 0.29403 0.90096 0.59067
 H87 H 0.37644 0.88375 0.61338
 H88 H 0.35829 0.86128 0.63405
 N89 N 0.90707 0.67031 0.38969
 N90 N 0.91452 0.66265 0.36657
 C91 C 0.93532 0.67592 0.35990
 C92 C 0.94127 0.69281 0.37997
 C93 C 0.92289 0.68865 0.39856
 H94 H 0.94546 0.67329 0.34186
 H95 H 0.92085 0.69855 0.41699
 Cu96 Cu 0.89639 0.63622 0.34719
 Cu97 Cu 0.87701 0.65648 0.40616
 Cu98 Cu 0.84993 0.60333 0.37662
 N99 N 0.88368 0.60397 0.33306
 N100 N 0.86606 0.59084 0.34487
 C101 C 0.86095 0.56948 0.33082
 C102 C 0.87608 0.56929 0.30893
 C103 C 0.89029 0.59150 0.31103
 H104 H 0.84676 0.55552 0.33579
 H105 H 0.90448 0.59803 0.29761
 N106 N 0.83637 0.61918 0.40872
 N107 N 0.84651 0.63972 0.41971
 C108 C 0.83242 0.64678 0.44042
 C109 C 0.81243 0.62983 0.44266
 C110 C 0.81561 0.61253 0.42224
 H111 H 0.83639 0.66309 0.45293
 H112 H 0.80328 0.59671 0.41718
 H113 H 0.88323 0.62055 0.38895
 H114 H 0.85811 0.64203 0.37358
 N115 N 0.59508 0.33296 -0.11352
 N116 N 0.58296 0.34458 -0.13270
 C117 C 0.56249 0.33059 -0.13973
 C118 C 0.56198 0.30891 -0.12430
 C119 C 0.58299 0.31109 -0.10790
 H120 H 0.54921 0.33553 -0.15519
 H121 H 0.58887 0.29789 -0.09278
 Cu122 Cu 0.59572 0.37628 -0.14728
 Cu123 Cu 0.62516 0.34735 -0.09677
 Cu124 Cu 0.65018 0.40211 -0.12381
 N125 N 0.61041 0.40676 -0.16249
 N126 N 0.63209 0.41621 -0.15384
 C127 C 0.63815 0.43667 -0.16823
 C128 C 0.61915 0.44039 -0.18684
 C129 C 0.60183 0.42104 -0.18255
 H130 H 0.65493 0.44823 -0.16509
 H131 H 0.58445 0.41742 -0.19345
 N132 N 0.66551 0.38506 -0.09322
 N133 N 0.65547 0.36464 -0.08252
 C134 C 0.66906 0.35855 -0.06107
 C135 C 0.68872 0.37584 -0.05817
 C136 C 0.68597 0.39231 -0.07897
 H137 H 0.66501 0.34269 -0.04844
 H138 H 0.69754 0.40885 -0.08290
 H139 H 0.61896 0.38553 -0.10722
 H140 H 0.63824 0.36479 -0.13002
 C141 C -0.05615 0.34834 0.13341
 C142 C -0.03628 0.32978 0.13281
 C143 C -0.04031 0.30534 0.12205
 C144 C -0.06437 0.29974 0.11126
 C145 C -0.08411 0.31845 0.11120
 C146 C -0.08049 0.34310 0.12252
 N147 N -0.01970 0.28659 0.12222
 N148 N -0.02365 0.26258 0.11933
 C149 C -0.00307 0.24381 0.11904
 C150 C -0.00843 0.21799 0.12389
 C151 C 0.01133 0.19930 0.12434
 C152 C 0.03670 0.20611 0.11921
 C153 C 0.04198 0.23194 0.11375
 C154 C 0.02229 0.25074 0.11395
 H155 H -0.05191 0.36714 0.14150
 H156 H -0.01770 0.33439 0.14098
 H157 H -0.06789 0.28092 0.10279
 H158 H -0.10253 0.31300 0.10328
 H159 H -0.02791 0.21242 0.12772
 H160 H 0.00673 0.17948 0.12837
 H161 H 0.06140 0.23768 0.10983
 H162 H 0.02681 0.27059 0.10995
 C163 C 0.57090 0.66341 0.59732
 C164 C 0.55163 0.68257 0.59601
 C165 C 0.54485 0.69696 0.61809
 C166 C 0.55744 0.69177 0.64173
 C167 C 0.57663 0.67251 0.64309
 C168 C 0.58365 0.65822 0.62087
 N169 N 0.52530 0.71674 0.61595
 N170 N 0.51917 0.73143 0.63492
 C171 C 0.49960 0.75119 0.63282
 C172 C 0.49459 0.76720 0.65424
 C173 C 0.47560 0.78665 0.65292
 C174 C 0.46115 0.79037 0.63006
 C175 C 0.46627 0.77424 0.60854
 C176 C 0.48534 0.75485 0.60988
 H177 H 0.57574 0.65252 0.57995
 H178 H 0.54202 0.68634 0.57771
 H179 H 0.55255 0.70264 0.65908
 H180 H 0.58633 0.66911 0.66142
 H181 H 0.50542 0.76455 0.67205
 H182 H 0.47209 0.79848 0.66996
 H183 H 0.45571 0.77664 0.59056
 H184 H 0.48888 0.74273 0.59302
 C185 C 1.07825 0.82500 0.34411
 C186 C 1.05891 0.80677 0.34356
 C187 C 1.05078 0.79547 0.36636
 C188 C 1.06232 0.80253 0.38997
 C189 C 1.08186 0.82061 0.39063
 C190 C 1.09026 0.83231 0.36768
 N191 N 1.03094 0.77681 0.36492
 N192 N 1.02126 0.76703 0.38499
 C193 C 1.00154 0.74825 0.38329
 C194 C 0.98991 0.74019 0.40601
 C195 C 0.97037 0.72215 0.40498
 C196 C 0.96226 0.71166 0.38111
 C197 C 0.97420 0.71957 0.35833
 C198 C 0.99359 0.73778 0.35938
 H199 H 1.08441 0.83233 0.32572
 H200 H 1.05031 0.80129 0.32519
 H201 H 1.05623 0.79413 0.40793
 H202 H 1.08954 0.82598 0.40940
 H203 H 0.99591 0.74805 0.42456
 H204 H 0.96179 0.71631 0.42292
 H205 H 0.96833 0.71205 0.33962
 H206 H 1.00234 0.74365 0.34152
 C207 C 0.40318 0.19731 -0.12718
 C208 C 0.42110 0.21695 -0.12809
 C209 C 0.44741 0.21094 -0.12811
 C210 C 0.45570 0.18492 -0.12762
 C211 C 0.43779 0.16526 -0.12710
 C212 C 0.41138 0.17129 -0.12671
 N213 N 0.46528 0.23152 -0.12859
 N214 N 0.48917 0.22768 -0.12453
 C215 C 0.50714 0.24815 -0.12517
 C216 C 0.53204 0.24365 -0.11569
 C217 C 0.54987 0.26338 -0.11541
 C218 C 0.54316 0.28793 -0.12503
 C219 C 0.51828 0.29228 -0.13504
 C220 C 0.50034 0.27260 -0.13496
 H221 H 0.38291 0.20241 -0.12713
 H222 H 0.41450 0.23691 -0.12854
 H223 H 0.47595 0.17980 -0.12772
 H224 H 0.44456 0.14534 -0.12660
 H225 H 0.53754 0.22485 -0.10821
 H226 H 0.56897 0.25932 -0.10788
 H227 H 0.51251 0.31099 -0.14251
 H228 H 0.48122 0.27647 -0.14255
 C229 C 0.15608 -0.08713 0.31649
 C230 C 0.15693 -0.06809 0.29758
 C231 C 0.13469 -0.05413 0.29057
 C232 C 0.11142 -0.05942 0.30274
 C233 C 0.11052 -0.07850 0.32160
 C234 C 0.13283 -0.09258 0.32867
 N235 N 0.13624 -0.03483 0.27104
 N236 N 0.11686 -0.02107 0.26417
 C237 C 0.11834 -0.00187 0.24454
 C238 C 0.09641 0.01301 0.23854
 C239 C 0.09715 0.03188 0.21945
 C240 C 0.11994 0.03616 0.20593
 C241 C 0.14195 0.02113 0.21201
 C242 C 0.14119 0.00231 0.23116
 H243 H 0.17352 -0.09782 0.32138
 H244 H 0.17497 -0.06422 0.28831
 H245 H 0.09397 -0.04883 0.29771
 H246 H 0.09243 -0.08202 0.33092
 H247 H 0.07868 0.00993 0.24868
 H248 H 0.07977 0.04289 0.21519
 H249 H 0.15989 0.02400 0.20221
 H250 H 0.15843 -0.00894 0.23548
 C251 C 0.65113 0.57353 -0.32642
 C252 C 0.65246 0.55568 -0.30635
 C253 C 0.63016 0.54754 -0.29448
 C254 C 0.60633 0.55793 -0.30252
 C255 C 0.60491 0.57605 -0.32238
 C256 C 0.62729 0.58404 -0.33502
 N257 N 0.63223 0.52853 -0.27459
 N258 N 0.61264 0.51795 -0.26520
 C259 C 0.61473 0.49884 -0.24541
 C260 C 0.59272 0.48593 -0.23811
 C261 C 0.59412 0.46689 -0.21915
 C262 C 0.61764 0.46060 -0.20694
 C263 C 0.63970 0.47379 -0.21415
 C264 C 0.63831 0.49267 -0.23329
 H265 H 0.66907 0.57965 -0.33443
 H266 H 0.67099 0.54804 -0.30011
 H267 H 0.58877 0.55190 -0.29360
 H268 H 0.58601 0.58270 -0.32849
 H269 H 0.57444 0.49054 -0.24729
 H270 H 0.57671 0.45731 -0.21394
 H271 H 0.65815 0.46929 -0.20531
 H272 H 0.65562 0.50241 -0.23858
 C273 C 0.40200 1.07542 0.83371
 C274 C 0.40347 1.05508 0.81570
 C275 C 0.38130 1.04639 0.80319
 C276 C 0.35746 1.05813 0.80911
 C277 C 0.35594 1.07836 0.82717
 C278 C 0.37820 1.08731 0.83959
 N279 N 0.38348 1.02591 0.78440
 N280 N 0.36411 1.01814 0.77157
 C281 C 0.36588 0.99784 0.75259
 C282 C 0.34384 0.99138 0.73856
 C283 C 0.34482 0.97195 0.71961
 C284 C 0.36798 0.95849 0.71440
 C285 C 0.39010 0.96489 0.72871
 C286 C 0.38909 0.98445 0.74761
 H287 H 0.41943 1.08174 0.84318
 H288 H 0.42195 1.04616 0.81136
 H289 H 0.34003 1.05179 0.79968
 H290 H 0.33740 1.08736 0.83107
 H291 H 0.32583 1.00153 0.74229
 H292 H 0.32735 0.96740 0.70923
 H293 H 0.40829 0.95508 0.72510
 H294 H 0.40641 0.98912 0.75823
 C295 C 0.87722 0.40940 0.19136
 C296 C 0.87622 0.42726 0.21183
 C297 C 0.87433 0.45375 0.20692
 C298 C 0.87284 0.46224 0.18118
 C299 C 0.87341 0.44437 0.16069
 C300 C 0.87587 0.41782 0.16561
 N301 N 0.87411 0.47159 0.22832
 N302 N 0.87705 0.49568 0.22524
 C303 C 0.87667 0.51367 0.24650
 C304 C 0.88443 0.53894 0.24237
 C305 C 0.88450 0.55696 0.26271
 C306 C 0.87637 0.55006 0.28751
 C307 C 0.86833 0.52471 0.29156
 C308 C 0.86863 0.50659 0.27127
 H309 H 0.87890 0.38900 0.19559
 H310 H 0.87728 0.42049 0.23158
 H311 H 0.87123 0.48263 0.17691
 H312 H 0.87245 0.45128 0.14098
 H313 H 0.89059 0.54463 0.22334
 H314 H 0.89054 0.57639 0.25888
 H315 H 0.86211 0.51877 0.31048
 H316 H 0.86245 0.48716 0.27490
 C317 C 0.32042 0.15639 -0.08162
 C318 C 0.30121 0.15749 -0.06291
 C319 C 0.29527 0.13548 -0.04891
 C320 C 0.30872 0.11215 -0.05395
 C321 C 0.32787 0.11100 -0.07271
 C322 C 0.33398 0.13313 -0.08670
 N323 N 0.27567 0.13732 -0.02967
 N324 N 0.27003 0.11822 -0.01570
 C325 C 0.25047 0.11988 0.00357
 C326 C 0.24586 0.09820 0.01855
 C327 C 0.22692 0.09907 0.03752
 C328 C 0.21214 0.12175 0.04183
 C329 C 0.21684 0.14355 0.02671
 C330 C 0.23585 0.14265 0.00778
 H331 H 0.32451 0.17367 -0.09229
 H332 H 0.29093 0.17555 -0.05926
 H333 H 0.30451 0.09486 -0.04337
 H334 H 0.33820 0.09290 -0.07597
 H335 H 0.25697 0.08052 0.01545
 H336 H 0.22375 0.08182 0.04854
 H337 H 0.20602 0.16140 0.02959
 H338 H 0.23909 0.15971 -0.00355
 C339 C 0.67119 0.59406 0.57255
 C340 C 0.69001 0.59310 0.55344
 C341 C 0.70142 0.61575 0.54525
 C342 C 0.69360 0.63957 0.55626
 C343 C 0.67467 0.64058 0.57525
 C344 C 0.66336 0.61782 0.58367
 N345 N 0.72090 0.61405 0.52590
 N346 N 0.73327 0.63369 0.51902
 C347 C 0.75279 0.63221 0.49970
 C348 C 0.76689 0.65421 0.49472
 C349 C 0.78629 0.65345 0.47625
 C350 C 0.79181 0.63059 0.46222
 C351 C 0.77743 0.60854 0.46708
 C352 C 0.75814 0.60929 0.48574
 H353 H 0.66258 0.57627 0.57847
 H354 H 0.69581 0.57465 0.54506
 H355 H 0.70212 0.65737 0.55024
 H356 H 0.66914 0.65912 0.58365
 H357 H 0.76287 0.67200 0.50529
 H358 H 0.79673 0.67087 0.47280
 H359 H 0.78129 0.59060 0.45675
 H360 H 0.74746 0.59202 0.48923
 C361 C 0.84921 0.38238 0.05626
 C362 C 0.83101 0.38285 0.03620
 C363 C 0.80478 0.38288 0.04172
 C364 C 0.79685 0.38300 0.06766
 C365 C 0.81503 0.38297 0.08774
 C366 C 0.84136 0.38243 0.08220
 N367 N 0.78662 0.38270 0.02073
 N368 N 0.76305 0.37802 0.02420
 C369 C 0.74473 0.37799 0.00337
 C370 C 0.72054 0.36775 0.00754
 C371 C 0.70236 0.36696 -0.01249
 C372 C 0.70796 0.37685 -0.03697
 C373 C 0.73209 0.38759 -0.04100
 C374 C 0.75044 0.38797 -0.02105
 H375 H 0.86942 0.38220 0.05155
 H376 H 0.83735 0.38285 0.01629
 H377 H 0.77667 0.38317 0.07240
 H378 H 0.80857 0.38291 0.10761
 H379 H 0.71588 0.36013 0.02631
 H380 H 0.68381 0.35889 -0.00869
 H381 H 0.73696 0.39527 -0.05968
 H382 H 0.76899 0.39612 -0.02467
 C383 C 0.19633 0.86558 0.40036
 C384 C 0.21570 0.86450 0.41924
 C385 C 0.20950 0.86396 0.44551
 C386 C 0.18357 0.86397 0.45278
 C387 C 0.16417 0.86464 0.43388
 C388 C 0.17039 0.86569 0.40752
 N389 N 0.22984 0.86363 0.46436
 N390 N 0.22571 0.86749 0.48835
 C391 C 0.24604 0.86716 0.50720
 C392 C 0.24097 0.87629 0.53226
 C393 C 0.26052 0.87693 0.55094
 C394 C 0.28545 0.86800 0.54493
 C395 C 0.29041 0.85836 0.51989
 C396 C 0.27091 0.85811 0.50110
 H397 H 0.20159 0.86615 0.38014
 H398 H 0.23560 0.86443 0.41341
 H399 H 0.17832 0.86345 0.47298
 H400 H 0.14430 0.86483 0.43985
 H401 H 0.22186 0.88324 0.53722
 H402 H 0.25604 0.88421 0.57014
 H403 H 0.30945 0.85148 0.51467
 H404 H 0.27525 0.85086 0.48186
   
