data_POSCAR
  _audit_creation_date              2014-09-24
  _audit_creation_method            'ToBaCCo'
  _symmetry_space_group_name_H-M    'P1'
  _symmetry_Int_Tables_number       1
  _symmetry_cell_setting            triclinic
  loop_
  _symmetry_equiv_pos_as_xyz
 x,y,z
_cell_length_a 28.1078
_cell_length_b 28.1321
_cell_length_c 28.1292
_cell_angle_alpha 84.546400
_cell_angle_beta 92.988900
_cell_angle_gamma 79.052700
loop_
  _atom_site_label
  _atom_site_type_symbol
  _atom_site_fract_x
  _atom_site_fract_y
  _atom_site_fract_z
O1 O 0.59170 0.46660 0.03791
 O2 O 0.46200 0.47388 0.05439
 O3 O 0.53214 0.40654 0.03717
 O4 O 0.52250 0.53552 0.05491
 O5 O 0.50586 0.55614 -0.02272
 O6 O 0.51492 0.42681 -0.04058
 O7 O 0.44413 0.49641 -0.02266
 O8 O 0.57491 0.48511 -0.04010
 Cu9 Cu 0.52842 0.46901 0.05400
 Cu10 Cu 0.50779 0.49357 -0.03928
 C11 C 0.60543 0.47387 -0.00397
 C12 C 0.43085 0.48509 0.01876
 C13 C 0.52552 0.39474 -0.00474
 C14 C 0.51420 0.56767 0.01903
 O15 O -0.03620 0.59163 0.49038
 O16 O -0.05407 0.46511 0.49665
 O17 O -0.04819 0.52856 0.55711
 O18 O -0.04054 0.52974 0.42692
 O19 O 0.03907 0.50453 0.43778
 O20 O 0.03103 0.50153 0.56821
 O21 O 0.02531 0.43843 0.50503
 O22 O 0.04321 0.56547 0.49853
 Cu23 Cu -0.05280 0.53089 0.49128
 Cu24 Cu 0.04260 0.49922 0.50376
 C25 C 0.00654 0.60033 0.49355
 C26 C -0.01761 0.43021 0.50217
 C27 C -0.00977 0.51627 0.58478
 C28 C 0.00081 0.51884 0.41026
 O29 O 0.46859 0.05062 0.55577
 O30 O 0.47403 0.03890 0.42679
 O31 O 0.40936 0.03599 0.48931
 O32 O 0.53473 0.05626 0.49466
 O33 O 0.56261 -0.02313 0.50566
 O34 O 0.43666 -0.04307 0.50729
 O35 O 0.49754 -0.04081 0.44313
 O36 O 0.50043 -0.02746 0.57213
 Cu37 Cu 0.46949 0.05350 0.48984
 Cu38 Cu 0.50258 -0.04152 0.50890
 C39 C 0.48307 0.01355 0.58615
 C40 C 0.48464 -0.00336 0.41312
 C41 C 0.40162 -0.00690 0.49785
 C42 C 0.57001 0.02018 0.50069
 C43 C 0.50099 -0.02560 -0.04756
 C44 C 0.49939 -0.06236 -0.00976
 C45 C 0.50199 -0.05080 0.03779
 C46 C 0.50453 -0.00371 0.04892
 C47 C 0.50235 0.03376 0.01104
 C48 C 0.50180 0.02191 -0.03631
 H49 H 0.50185 0.05040 -0.06503
 H50 H 0.50192 -0.07900 0.06681
 C51 C 0.00318 0.49363 1.04834
 C52 C -0.03314 0.49467 1.01123
 C53 C -0.01974 0.49413 0.96392
 C54 C 0.02819 0.49419 0.95198
 C55 C 0.06408 0.49629 0.98872
 C56 C 0.05073 0.49560 1.03635
 H57 H 0.07779 0.49672 1.06485
 H58 H -0.04733 0.49396 0.93559
 C59 C 0.03211 0.02356 0.50430
 C60 C -0.00585 0.06369 0.48838
 C61 C -0.05305 0.05535 0.47941
 C62 C -0.06355 0.00831 0.48507
 C63 C -0.02554 -0.03195 0.50104
 C64 C 0.02137 -0.02325 0.51099
 H65 H 0.05024 -0.05356 0.52466
 H66 H -0.08202 0.08595 0.46675
 C67 C -0.31384 0.49254 1.01800
 C68 C -0.26388 0.48746 1.01239
 C69 C -0.24212 0.45675 0.97923
 C70 C -0.27104 0.43328 0.95089
 C71 C -0.32105 0.43997 0.95552
 C72 C -0.34250 0.46898 0.98950
 C73 C -0.19195 0.45037 0.97461
 C74 C -0.16361 0.47591 1.00120
 C75 C -0.18572 0.50828 1.03274
 C76 C -0.23554 0.51309 1.03889
 C77 C -0.15774 0.53596 1.05692
 C78 C -0.10841 0.53189 1.04967
 C79 C -0.08556 0.49842 1.01985
 C80 C -0.11361 0.47037 0.99591
 H81 H -0.33066 0.51543 1.04385
 H82 H -0.25504 0.40999 0.92503
 H83 H -0.34288 0.42152 0.93344
 H84 H -0.17515 0.42629 0.94969
 H85 H -0.25239 0.53740 1.06361
 H86 H -0.17424 0.56156 1.08060
 H87 H -0.08815 0.55522 1.06718
 H88 H -0.09658 0.44456 0.97265
 C89 C 0.34506 0.50204 0.98869
 C90 C 0.29686 0.49674 0.99451
 C91 C 0.28592 0.46983 1.03618
 C92 C 0.32237 0.45156 1.07265
 C93 C 0.36961 0.45888 1.06766
 C94 C 0.38202 0.48288 1.02514
 C95 C 0.23863 0.46187 1.04101
 C96 C 0.20135 0.48286 1.00602
 C97 C 0.21137 0.51255 0.96589
 C98 C 0.25934 0.51823 0.95965
 C99 C 0.17300 0.53681 0.93331
 C100 C 0.12520 0.53207 0.94079
 C101 C 0.11508 0.50065 0.97934
 C102 C 0.15386 0.47572 1.01144
 H103 H 0.35356 0.52148 0.95606
 H104 H 0.31437 0.43152 1.10513
 H105 H 0.39688 0.44368 1.09650
 H106 H 0.23061 0.44025 1.07254
 H107 H 0.26728 0.54008 0.92826
 H108 H 0.17975 0.56062 0.90288
 H109 H 0.09615 0.55353 0.91663
 H110 H 0.14703 0.45129 1.04137
 C111 C -0.02454 -0.31380 0.50170
 C112 C -0.01753 -0.26559 0.50045
 C113 C 0.02637 -0.25401 0.48506
 C114 C 0.06386 -0.29128 0.47478
 C115 C 0.05787 -0.33962 0.47930
 C116 C 0.01322 -0.35136 0.49146
 C117 C 0.03232 -0.20546 0.48076
 C118 C -0.00380 -0.16876 0.49458
 C119 C -0.04590 -0.18089 0.51384
 C120 C -0.05323 -0.22899 0.51530
 C121 C -0.07957 -0.14473 0.53182
 C122 C -0.07204 -0.09685 0.52981
 C123 C -0.03246 -0.08352 0.50691
 C124 C 0.00188 -0.12015 0.48999
 H125 H -0.05872 -0.32229 0.51252
 H126 H 0.09806 -0.28311 0.46375
 H127 H 0.08768 -0.36759 0.47133
 H128 H 0.06541 -0.19639 0.46753
 H129 H -0.08621 -0.23809 0.52877
 H130 H -0.11135 -0.15360 0.54803
 H131 H -0.09770 -0.07009 0.54546
 H132 H 0.03307 -0.11079 0.47295
 C133 C 0.00581 0.34299 0.48602
 C134 C -0.00273 0.29513 0.48929
 C135 C -0.04215 0.28369 0.51439
 C136 C -0.07318 0.32042 0.53436
 C137 C -0.06531 0.36810 0.52967
 C138 C -0.02560 0.37969 0.50601
 C139 C -0.05011 0.23581 0.51898
 C140 C -0.02000 0.19933 0.49776
 C141 C 0.01831 0.21097 0.47112
 C142 C 0.02709 0.25868 0.46754
 C143 C 0.04705 0.17462 0.44843
 C144 C 0.03844 0.12708 0.45276
 C145 C 0.00193 0.11469 0.48106
 C146 C -0.02763 0.15131 0.50283
 H147 H 0.03615 0.35194 0.46716
 H148 H -0.10372 0.31234 0.55342
 H149 H -0.08985 0.39590 0.54533
 H150 H -0.07993 0.22700 0.53884
 H151 H 0.05687 0.26748 0.44763
 H152 H 0.07613 0.18296 0.42729
 H153 H 0.06080 0.09971 0.43462
 H154 H -0.05620 0.14217 0.52433
 C155 C 0.50022 -0.02031 -0.32963
 C156 C 0.49457 -0.01582 -0.28076
 C157 C 0.46535 0.02661 -0.26695
 C158 C 0.44414 0.06463 -0.30179
 C159 C 0.45140 0.06075 -0.35003
 C160 C 0.47872 0.01799 -0.36481
 C161 C 0.45825 0.03075 -0.21849
 C162 C 0.48194 -0.00590 -0.18329
 C163 C 0.51296 -0.04739 -0.19669
 C164 C 0.51820 -0.05267 -0.24544
 C165 C 0.53904 -0.08222 -0.16100
 C166 C 0.53516 -0.07544 -0.11259
 C167 C 0.50334 -0.03492 -0.09887
 C168 C 0.47623 -0.00078 -0.13475
 H169 H 0.52199 -0.05328 -0.34005
 H170 H 0.42209 0.09759 -0.29171
 H171 H 0.43425 0.09095 -0.37588
 H172 H 0.43528 0.06308 -0.20808
 H173 H 0.54148 -0.08483 -0.25581
 H174 H 0.56357 -0.11393 -0.17052
 H175 H 0.55763 -0.10155 -0.08590
 H176 H 0.45140 0.03057 -0.12488
 C177 C 0.50487 0.01380 0.32845
 C178 C 0.49966 0.00671 0.27977
 C179 C 0.46709 -0.02249 0.26464
 C180 C 0.44163 -0.04541 0.29848
 C181 C 0.44834 -0.03956 0.34689
 C182 C 0.47946 -0.00964 0.36205
 C183 C 0.46078 -0.02877 0.21606
 C184 C 0.48788 -0.00776 0.18246
 C185 C 0.52184 0.01986 0.19766
 C186 C 0.52693 0.02764 0.24610
 C187 C 0.55054 0.03869 0.16415
 C188 C 0.54555 0.03034 0.11611
 C189 C 0.51055 0.00454 0.10029
 C190 C 0.48193 -0.01451 0.13392
 H191 H 0.52931 0.03650 0.34038
 H192 H 0.41684 -0.06817 0.28756
 H193 H 0.42849 -0.05772 0.37258
 H194 H 0.43532 -0.05064 0.20450
 H195 H 0.55254 0.04933 0.25767
 H196 H 0.57726 0.05935 0.17519
 H197 H 0.56901 0.04421 0.09118
 H198 H 0.45491 -0.03457 0.12225
 C199 C 0.49219 -0.34259 -0.00669
 C200 C 0.49843 -0.29481 -0.00197
 C201 C 0.53104 -0.28632 0.03487
 C202 C 0.55520 -0.32519 0.06749
 C203 C 0.54792 -0.37230 0.06323
 C204 C 0.51710 -0.38157 0.02575
 C205 C 0.53909 -0.23916 0.03860
 C206 C 0.51370 -0.19997 0.00704
 C207 C 0.47955 -0.20790 -0.02855
 C208 C 0.47270 -0.25544 -0.03339
 C209 C 0.45239 -0.16799 -0.05818
 C210 C 0.45867 -0.12070 -0.05221
 C211 C 0.49364 -0.11263 -0.01786
 C212 C 0.52133 -0.15276 0.01129
 H213 H 0.46813 -0.34948 -0.03553
 H214 H 0.58001 -0.31921 0.09611
 H215 H 0.56779 -0.40184 0.08837
 H216 H 0.56465 -0.23287 0.06645
 H217 H 0.44705 -0.26169 -0.06116
 H218 H 0.42555 -0.17323 -0.08524
 H219 H 0.43584 -0.09037 -0.07417
 H220 H 0.54847 -0.14714 0.03789
 C221 C 0.50648 0.31332 0.01770
 C222 C 0.51095 0.26383 0.01158
 C223 C 0.54116 0.24360 -0.02307
 C224 C 0.56478 0.27366 -0.05226
 C225 C 0.55870 0.32329 -0.04703
 C226 C 0.53014 0.34312 -0.01165
 C227 C 0.54690 0.19382 -0.02825
 C228 C 0.52129 0.16445 -0.00062
 C229 C 0.48945 0.18514 0.03248
 C230 C 0.48520 0.23450 0.03906
 C231 C 0.46178 0.15626 0.05790
 C232 C 0.46550 0.10736 0.05050
 C233 C 0.49853 0.08585 0.01916
 C234 C 0.52637 0.11481 -0.00625
 H235 H 0.48391 0.32894 0.04463
 H236 H 0.58771 0.25886 -0.07924
 H237 H 0.57719 0.34604 -0.06982
 H238 H 0.57061 0.17813 -0.05431
 H239 H 0.46130 0.25023 0.06495
 H240 H 0.43659 0.17170 0.08282
 H241 H 0.44243 0.08630 0.06925
 H242 H 0.55180 0.09876 -0.03069
 C243 C -0.34326 0.00003 0.48054
 C244 C -0.29560 0.00872 0.48323
 C245 C -0.28442 0.04562 0.51028
 C246 C -0.32131 0.07446 0.53239
 C247 C -0.36881 0.06659 0.52824
 C248 C -0.37998 0.02897 0.50302
 C249 C -0.23659 0.05307 0.51495
 C250 C -0.19987 0.02495 0.49202
 C251 C -0.21127 -0.01035 0.46307
 C252 C -0.25900 -0.01865 0.45929
 C253 C -0.17458 -0.03689 0.43867
 C254 C -0.12682 -0.02953 0.44407
 C255 C -0.11473 0.00334 0.47511
 C256 C -0.15175 0.03129 0.49805
 H257 H -0.35200 -0.02862 0.46047
 H258 H -0.31343 0.10312 0.55289
 H259 H -0.39675 0.08920 0.54575
 H260 H -0.22793 0.08070 0.53650
 H261 H -0.26762 -0.04636 0.43783
 H262 H -0.18273 -0.06357 0.41573
 H263 H -0.09898 -0.05054 0.42514
 H264 H -0.14277 0.05715 0.52161
 C265 C 0.31477 0.01803 0.51475
 C266 C 0.26635 0.01191 0.51110
 C267 C 0.25429 -0.02648 0.48683
 C268 C 0.29108 -0.05936 0.46869
 C269 C 0.33935 -0.05381 0.47374
 C270 C 0.35133 -0.01466 0.49594
 C271 C 0.20568 -0.03125 0.48088
 C272 C 0.16912 0.00102 0.50000
 C273 C 0.18134 0.03788 0.52635
 C274 C 0.22986 0.04353 0.53120
 C275 C 0.14475 0.06842 0.54737
 C276 C 0.09640 0.06304 0.54159
 C277 C 0.08359 0.02828 0.51319
 C278 C 0.12041 -0.00303 0.49308
 H279 H 0.32414 0.04797 0.53243
 H280 H 0.28249 -0.08920 0.45038
 H281 H 0.36719 -0.07921 0.45896
 H282 H 0.19632 -0.06008 0.46142
 H283 H 0.23919 0.07241 0.55059
 H284 H 0.15354 0.09633 0.56839
 H285 H 0.06888 0.08650 0.55874
 H286 H 0.11098 -0.03030 0.47150
 C287 C -0.01740 0.49851 1.32754
 C288 C -0.01097 0.50376 1.27821
 C289 C 0.01677 0.53748 1.25978
 C290 C 0.03858 0.56437 1.29095
 C291 C 0.03339 0.55767 1.34001
 C292 C 0.00523 0.52510 1.35847
 C293 C 0.02300 0.54327 1.21063
 C294 C 0.00342 0.51457 1.17976
 C295 C -0.02310 0.47984 1.19817
 C296 C -0.03086 0.47522 1.24718
 C297 C -0.04069 0.44977 1.16731
 C298 C -0.03181 0.45389 1.11879
 C299 C -0.00661 0.48922 1.09993
 C300 C 0.01079 0.51952 1.13079
 H301 H -0.03869 0.47294 1.34207
 H302 H 0.06018 0.59008 1.27746
 H303 H 0.05098 0.57834 1.36368
 H304 H 0.04394 0.56942 1.19657
 H305 H -0.05151 0.44884 1.26128
 H306 H -0.06060 0.42255 1.18082
 H307 H -0.04457 0.42936 1.09594
 H308 H 0.03029 0.54687 1.11664
 C309 C 0.02312 0.49510 0.67070
 C310 C 0.01991 0.50167 0.71949
 C311 C -0.01907 0.53591 0.73363
 C312 C -0.05461 0.56204 0.69929
 C313 C -0.05177 0.55451 0.65123
 C314 C -0.01287 0.52137 0.63636
 C315 C -0.02238 0.54320 0.78193
 C316 C 0.01172 0.51552 0.81674
 C317 C 0.05017 0.48045 0.80316
 C318 C 0.05454 0.47430 0.75444
 C319 C 0.08281 0.45146 0.83874
 C320 C 0.07646 0.45629 0.88723
 C321 C 0.03836 0.49127 0.90085
 C322 C 0.00683 0.52141 0.86517
 H323 H 0.05314 0.46931 0.65955
 H324 H -0.08477 0.58822 0.70962
 H325 H -0.07966 0.57551 0.62544
 H326 H -0.05221 0.56965 0.79257
 H327 H 0.08415 0.44760 0.74386
 H328 H 0.11235 0.42415 0.82912
 H329 H 0.10073 0.43212 0.91414
 H330 H -0.02254 0.54866 0.87530
   
