data_POSCAR
  _audit_creation_date              2014-09-24
  _audit_creation_method            'ToBaCCo'
  _symmetry_space_group_name_H-M    'P1'
  _symmetry_Int_Tables_number       1
  _symmetry_cell_setting            triclinic
  loop_
  _symmetry_equiv_pos_as_xyz
 x,y,z
_cell_length_a 54.6063
_cell_length_b 54.9210
_cell_length_c 55.2329
_cell_angle_alpha 89.940500
_cell_angle_beta 90.340800
_cell_angle_gamma 88.999400
loop_
  _atom_site_label
  _atom_site_type_symbol
  _atom_site_fract_x
  _atom_site_fract_y
  _atom_site_fract_z
N1 N 0.27936 0.22676 0.20787
 N2 N 0.26906 0.24664 0.19896
 C3 C 0.28131 0.25332 0.17896
 C4 C 0.30029 0.23666 0.17513
 C5 C 0.29843 0.22011 0.19393
 H6 H 0.27665 0.26901 0.16793
 H7 H 0.31016 0.20444 0.19743
 Cu8 Cu 0.24060 0.26153 0.21457
 Cu9 Cu 0.26735 0.21075 0.23674
 Cu10 Cu 0.21718 0.23716 0.26527
 N11 N 0.21220 0.27602 0.23056
 N12 N 0.20335 0.26666 0.25053
 C13 C 0.18403 0.28030 0.25781
 C14 C 0.18047 0.29921 0.24148
 C15 C 0.19873 0.29587 0.22442
 H16 H 0.17318 0.27652 0.27364
 H17 H 0.20211 0.30720 0.20884
 N18 N 0.23378 0.20722 0.27722
 N19 N 0.25271 0.19712 0.26613
 C20 C 0.25964 0.17679 0.27811
 C21 C 0.24440 0.17383 0.29777
 C22 C 0.22824 0.19356 0.29667
 H23 H 0.27483 0.16507 0.27300
 H24 H 0.21336 0.19751 0.30895
 H25 H 0.23126 0.22286 0.23375
 H26 H 0.25219 0.24172 0.25256
 N27 N 0.72183 -0.22369 0.20789
 N28 N 0.73067 -0.24462 0.20012
 C29 C 0.71758 -0.25169 0.18068
 C30 C 0.69947 -0.23417 0.17592
 C31 C 0.70290 -0.21666 0.19370
 H32 H 0.72099 -0.26841 0.17090
 H33 H 0.69234 -0.20009 0.19645
 Cu34 Cu 0.75835 -0.26053 0.21638
 Cu35 Cu 0.73499 -0.20736 0.23623
 Cu36 Cu 0.78393 -0.23571 0.26590
 N37 N 0.78556 -0.27646 0.23336
 N38 N 0.79577 -0.26651 0.25244
 C39 C 0.81419 -0.28111 0.26042
 C40 C 0.81561 -0.30153 0.24560
 C41 C 0.79701 -0.29780 0.22863
 H42 H 0.82541 -0.27717 0.27606
 H43 H 0.79213 -0.30961 0.21381
 N44 N 0.76923 -0.20447 0.27665
 N45 N 0.75073 -0.19368 0.26524
 C46 C 0.74443 -0.17319 0.27719
 C47 C 0.75960 -0.17091 0.29721
 C48 C 0.77513 -0.19112 0.29622
 H49 H 0.72945 -0.16114 0.27203
 H50 H 0.78949 -0.19595 0.30898
 H51 H 0.77016 -0.22170 0.23391
 H52 H 0.74834 -0.23849 0.25342
 N53 N 0.72666 0.22627 0.79112
 N54 N 0.73465 0.24682 0.80009
 C55 C 0.72056 0.25338 0.81901
 C56 C 0.70273 0.23599 0.82214
 C57 C 0.70723 0.21907 0.80399
 H58 H 0.72324 0.26953 0.82978
 H59 H 0.69723 0.20265 0.80038
 Cu60 Cu 0.76310 0.26243 0.78640
 Cu61 Cu 0.74210 0.21033 0.76346
 Cu62 Cu 0.79356 0.23781 0.73968
 N63 N 0.79169 0.27801 0.77299
 N64 N 0.80406 0.26784 0.75523
 C65 C 0.82332 0.28180 0.74987
 C66 C 0.82297 0.30205 0.76496
 C67 C 0.80249 0.29890 0.77937
 H68 H 0.83623 0.27767 0.73563
 H69 H 0.79602 0.31072 0.79366
 N70 N 0.77987 0.20746 0.72651
 N71 N 0.76028 0.19710 0.73551
 C72 C 0.75493 0.17743 0.72208
 C73 C 0.77189 0.17525 0.70363
 C74 C 0.78746 0.19461 0.70710
 H75 H 0.73962 0.16570 0.72534
 H76 H 0.80277 0.19944 0.69587
 H77 H 0.77677 0.22349 0.76969
 H78 H 0.75689 0.24118 0.74822
 N79 N 0.27312 -0.22892 0.79030
 N80 N 0.26397 -0.24915 0.79880
 C81 C 0.27714 -0.25629 0.81837
 C82 C 0.29553 -0.23960 0.82235
 C83 C 0.29233 -0.22251 0.80408
 H84 H 0.27347 -0.27231 0.82903
 H85 H 0.30321 -0.20660 0.80087
 Cu86 Cu 0.23558 -0.26402 0.78355
 Cu87 Cu 0.25963 -0.21222 0.76201
 Cu88 Cu 0.20820 -0.23688 0.73553
 N89 N 0.20603 -0.27707 0.76877
 N90 N 0.19546 -0.26621 0.75017
 C91 C 0.17569 -0.27881 0.74339
 C92 C 0.17355 -0.29886 0.75852
 C93 C 0.19326 -0.29704 0.77448
 H94 H 0.16398 -0.27370 0.72834
 H95 H 0.19810 -0.30933 0.78910
 N96 N 0.22375 -0.20729 0.72324
 N97 N 0.24342 -0.19791 0.73327
 C98 C 0.24988 -0.17813 0.72053
 C99 C 0.23349 -0.17485 0.70151
 C100 C 0.21717 -0.19372 0.70387
 H101 H 0.26542 -0.16697 0.72478
 H102 H 0.20186 -0.19759 0.69210
 H103 H 0.22431 -0.22424 0.76690
 H104 H 0.24425 -0.24241 0.74598
 N105 N 0.71523 -0.23269 0.78751
 N106 N 0.72633 -0.25269 0.79514
 C107 C 0.71383 -0.26183 0.81391
 C108 C 0.69377 -0.24675 0.81833
 C109 C 0.69531 -0.22837 0.80121
 H110 H 0.71901 -0.27816 0.82372
 H111 H 0.68268 -0.21321 0.79860
 Cu112 Cu 0.75601 -0.26492 0.77985
 Cu113 Cu 0.72701 -0.21425 0.75985
 Cu114 Cu 0.77991 -0.23615 0.73215
 N115 N 0.78569 -0.27690 0.76435
 N116 N 0.79516 -0.26543 0.74586
 C117 C 0.81554 -0.27747 0.73866
 C118 C 0.81908 -0.29777 0.75340
 C119 C 0.79966 -0.29666 0.76954
 H120 H 0.82667 -0.27188 0.72361
 H121 H 0.79585 -0.30923 0.78403
 N122 N 0.76179 -0.20684 0.72096
 N123 N 0.74183 -0.19831 0.73159
 C124 C 0.73363 -0.17848 0.71941
 C125 C 0.74908 -0.17444 0.70009
 C126 C 0.76672 -0.19277 0.70171
 H127 H 0.71723 -0.16815 0.72382
 H128 H 0.78200 -0.19569 0.68965
 H129 H 0.74447 -0.24319 0.74289
 H130 H 0.76339 -0.22440 0.76372
 N131 N 0.28213 0.23263 0.78541
 N132 N 0.27030 0.25184 0.79378
 C133 C 0.28247 0.26051 0.81313
 C134 C 0.30310 0.24597 0.81707
 C135 C 0.30224 0.22844 0.79908
 H136 H 0.27701 0.27649 0.82328
 H137 H 0.31524 0.21369 0.79611
 Cu138 Cu 0.24061 0.26404 0.77805
 Cu139 Cu 0.27099 0.21486 0.75703
 Cu140 Cu 0.21797 0.23634 0.72869
 N141 N 0.21094 0.27591 0.76203
 N142 N 0.20204 0.26493 0.74286
 C143 C 0.18187 0.27716 0.73513
 C144 C 0.17800 0.29699 0.75019
 C145 C 0.19682 0.29555 0.76707
 H146 H 0.17125 0.27236 0.71931
 H147 H 0.20005 0.30797 0.78186
 N148 N 0.23679 0.20770 0.71721
 N149 N 0.25683 0.19940 0.72809
 C150 C 0.26566 0.18010 0.71567
 C151 C 0.25056 0.17614 0.69592
 C152 C 0.23242 0.19398 0.69752
 H153 H 0.28225 0.17008 0.72026
 H154 H 0.21720 0.19681 0.68519
 H155 H 0.25295 0.24403 0.74052
 H156 H 0.23425 0.22403 0.76024
 N157 N 0.27914 -0.23779 0.21274
 N158 N 0.26822 -0.25698 0.20383
 C159 C 0.28169 -0.26612 0.18552
 C160 C 0.30210 -0.25183 0.18268
 C161 C 0.29987 -0.23401 0.20032
 H162 H 0.27675 -0.28168 0.17468
 H163 H 0.31242 -0.21944 0.20396
 Cu164 Cu 0.23698 -0.26735 0.21643
 Cu165 Cu 0.26565 -0.21918 0.23983
 Cu166 Cu 0.20925 -0.23750 0.26161
 N167 N 0.20552 -0.27765 0.22859
 N168 N 0.19433 -0.26533 0.24578
 C169 C 0.17310 -0.27618 0.25103
 C170 C 0.17093 -0.29653 0.23646
 C171 C 0.19186 -0.29689 0.22244
 H172 H 0.16069 -0.27034 0.26515
 H173 H 0.19686 -0.31033 0.20897
 N174 N 0.22736 -0.20994 0.27531
 N175 N 0.24881 -0.20296 0.26716
 C176 C 0.25707 -0.18486 0.28135
 C177 C 0.24010 -0.18040 0.29941
 C178 C 0.22149 -0.19658 0.29490
 H179 H 0.27464 -0.17633 0.27938
 H180 H 0.20512 -0.19888 0.30549
 H181 H 0.24555 -0.24687 0.25462
 H182 H 0.22973 -0.22650 0.23228
 N183 N 0.71787 0.23889 0.21657
 N184 N 0.72825 0.25840 0.20781
 C185 C 0.71435 0.26743 0.18958
 C186 C 0.69422 0.25273 0.18665
 C187 C 0.69707 0.23479 0.20415
 H188 H 0.71891 0.28307 0.17872
 H189 H 0.68507 0.21972 0.20749
 Cu190 Cu 0.75957 0.26914 0.22026
 Cu191 Cu 0.73258 0.21974 0.24281
 Cu192 Cu 0.78892 0.23879 0.26469
 N193 N 0.79097 0.27985 0.23255
 N194 N 0.80245 0.26788 0.24995
 C195 C 0.82357 0.27911 0.25515
 C196 C 0.82549 0.29920 0.24010
 C197 C 0.80442 0.29905 0.22602
 H198 H 0.83657 0.27304 0.26879
 H199 H 0.79907 0.31219 0.21233
 N200 N 0.77213 0.20990 0.27721
 N201 N 0.75053 0.20289 0.26922
 C202 C 0.74372 0.18316 0.28186
 C203 C 0.76195 0.17737 0.29852
 C204 C 0.77966 0.19472 0.29501
 H205 H 0.72679 0.17361 0.27910
 H206 H 0.79656 0.19647 0.30509
 H207 H 0.75253 0.24752 0.25806
 H208 H 0.76841 0.22812 0.23510
 C209 C 0.25636 -0.01510 0.49914
 C210 C 0.25799 0.00950 0.49727
 C211 C 0.25719 0.02204 0.47351
 C212 C 0.25932 0.02546 0.51888
 C213 C 0.25436 -0.02749 0.52298
 C214 C 0.25532 -0.03106 0.47745
 C215 C 0.27705 0.03610 0.46634
 C216 C 0.27579 0.04967 0.44497
 C217 C 0.25443 0.04979 0.43067
 C218 C 0.23460 0.03552 0.43777
 C219 C 0.23601 0.02163 0.45899
 C220 C 0.27788 0.02237 0.53638
 C221 C 0.27885 0.03783 0.55648
 C222 C 0.26140 0.05675 0.55925
 C223 C 0.24289 0.05974 0.54166
 C224 C 0.24194 0.04433 0.52165
 C225 C 0.23521 -0.02165 0.53892
 C226 C 0.23229 -0.03496 0.56028
 C227 C 0.24836 -0.05446 0.56598
 C228 C 0.26772 -0.05997 0.55013
 C229 C 0.27062 -0.04667 0.52882
 C230 C 0.23629 -0.04775 0.47528
 C231 C 0.23567 -0.06400 0.45594
 C232 C 0.25411 -0.06397 0.43832
 C233 C 0.27299 -0.04698 0.44021
 C234 C 0.27369 -0.03076 0.45974
 H235 H 0.29341 0.03679 0.47748
 H236 H 0.29121 0.06073 0.44004
 H237 H 0.21798 0.03527 0.42698
 H238 H 0.22040 0.01110 0.46447
 H239 H 0.29169 0.00813 0.53436
 H240 H 0.29346 0.03526 0.56962
 H241 H 0.22742 0.04697 0.50842
 H242 H 0.22218 -0.00720 0.53455
 H243 H 0.21730 -0.03017 0.57221
 H244 H 0.28015 -0.07513 0.55377
 H245 H 0.28535 -0.05162 0.51661
 H246 H 0.22192 -0.04828 0.48870
 H247 H 0.22070 -0.07663 0.45473
 H248 H 0.28756 -0.04674 0.42700
 H249 H 0.28882 -0.01836 0.46130
 H250 H 0.22892 0.07384 0.54351
 C251 C 0.75235 0.01523 0.50022
 C252 C 0.75029 -0.00940 0.49991
 C253 C 0.75061 -0.02325 0.47687
 C254 C 0.74871 -0.02406 0.52242
 C255 C 0.75484 0.02916 0.52312
 C256 C 0.75335 0.02952 0.47744
 C257 C 0.73055 -0.03754 0.47052
 C258 C 0.73109 -0.05157 0.44945
 C259 C 0.75189 -0.05185 0.43457
 C260 C 0.77200 -0.03754 0.44101
 C261 C 0.77134 -0.02331 0.46197
 C262 C 0.73023 -0.01969 0.53954
 C263 C 0.72849 -0.03456 0.56005
 C264 C 0.74509 -0.05413 0.56365
 C265 C 0.76373 -0.05816 0.54660
 C266 C 0.76544 -0.04337 0.52618
 C267 C 0.77379 0.02380 0.53969
 C268 C 0.77680 0.03809 0.56041
 C269 C 0.76099 0.05806 0.56486
 C270 C 0.74198 0.06326 0.54827
 C271 C 0.73903 0.04902 0.52756
 C272 C 0.77387 0.04371 0.47274
 C273 C 0.77518 0.05731 0.45146
 C274 C 0.75586 0.05720 0.43454
 C275 C 0.73516 0.04315 0.43937
 C276 C 0.73393 0.02938 0.46064
 H277 H 0.71451 -0.03788 0.48196
 H278 H 0.71547 -0.06267 0.44508
 H279 H 0.78819 -0.03736 0.42979
 H280 H 0.78713 -0.01265 0.46681
 H281 H 0.71692 -0.00508 0.53678
 H282 H 0.71380 -0.03116 0.57276
 H283 H 0.77990 -0.04696 0.51326
 H284 H 0.78649 0.00883 0.53638
 H285 H 0.79150 0.03354 0.57295
 H286 H 0.72974 0.07873 0.55098
 H287 H 0.72448 0.05361 0.51486
 H288 H 0.78897 0.04410 0.48553
 H289 H 0.79118 0.06826 0.44840
 H290 H 0.72005 0.04267 0.42661
 H291 H 0.71783 0.01869 0.46408
 H292 H 0.77710 -0.07275 0.54907
 C293 C 0.50201 0.25238 -0.01350
 C294 C 0.50050 0.25225 0.01108
 C295 C 0.47662 0.25109 0.02384
 C296 C 0.52268 0.25272 0.02676
 C297 C 0.52584 0.25093 -0.02632
 C298 C 0.47983 0.25308 -0.02917
 C299 C 0.47124 0.26788 0.04227
 C300 C 0.44989 0.26587 0.05588
 C301 C 0.43346 0.24694 0.05140
 C302 C 0.43866 0.23039 0.03261
 C303 C 0.46012 0.23233 0.01910
 C304 C 0.53966 0.27153 0.02491
 C305 C 0.55950 0.27256 0.04099
 C306 C 0.56265 0.25486 0.05923
 C307 C 0.54572 0.23594 0.06081
 C308 C 0.52593 0.23494 0.04479
 C309 C 0.54212 0.23117 -0.02265
 C310 C 0.56317 0.22867 -0.03681
 C311 C 0.56826 0.24583 -0.05496
 C312 C 0.55217 0.26585 -0.05818
 C313 C 0.53115 0.26830 -0.04408
 C314 C 0.47676 0.23493 -0.04672
 C315 C 0.45657 0.23565 -0.06228
 C316 C 0.43908 0.25466 -0.06073
 C317 C 0.44206 0.27276 -0.04302
 C318 C 0.46235 0.27204 -0.02742
 H319 H 0.48384 0.28234 0.04641
 H320 H 0.44671 0.27868 0.07046
 H321 H 0.42628 0.21576 0.02851
 H322 H 0.46411 0.21886 0.00531
 H323 H 0.53728 0.28563 0.01134
 H324 H 0.57235 0.28724 0.03919
 H325 H 0.51293 0.22038 0.04660
 H326 H 0.53814 0.21733 -0.00933
 H327 H 0.57532 0.21316 -0.03378
 H328 H 0.55535 0.27917 -0.07223
 H329 H 0.51867 0.28351 -0.04737
 H330 H 0.49002 0.22012 -0.04830
 H331 H 0.45455 0.22122 -0.07544
 H332 H 0.42901 0.28775 -0.04160
 H333 H 0.46462 0.28643 -0.01424
 H334 H 0.54738 0.22225 0.07487
 C335 C 0.49719 0.74332 -0.01189
 C336 C 0.49892 0.74362 0.01271
 C337 C 0.52284 0.74564 0.02551
 C338 C 0.47692 0.74288 0.02838
 C339 C 0.47319 0.74426 -0.02480
 C340 C 0.51929 0.74318 -0.02746
 C341 C 0.52909 0.72887 0.04378
 C342 C 0.55032 0.73176 0.05762
 C343 C 0.56569 0.75161 0.05358
 C344 C 0.55963 0.76816 0.03493
 C345 C 0.53833 0.76528 0.02111
 C346 C 0.45998 0.72402 0.02645
 C347 C 0.43987 0.72327 0.04199
 C348 C 0.43643 0.74129 0.05980
 C349 C 0.45351 0.76006 0.06169
 C350 C 0.47353 0.76080 0.04617
 C351 C 0.45608 0.76311 -0.02044
 C352 C 0.43466 0.76507 -0.03436
 C353 C 0.43008 0.74845 -0.05317
 C354 C 0.44709 0.72937 -0.05717
 C355 C 0.46841 0.72734 -0.04317
 C356 C 0.52161 0.76117 -0.04529
 C357 C 0.54179 0.76102 -0.06064
 C358 C 0.56008 0.74280 -0.05856
 C359 C 0.55769 0.72469 -0.04073
 C360 C 0.53743 0.72486 -0.02532
 H361 H 0.51724 0.71375 0.04764
 H362 H 0.55421 0.71890 0.07207
 H363 H 0.57122 0.78350 0.03119
 H364 H 0.53362 0.77871 0.00742
 H365 H 0.46247 0.70980 0.01307
 H366 H 0.42696 0.70865 0.04001
 H367 H 0.48648 0.77541 0.04807
 H368 H 0.45959 0.77667 -0.00670
 H369 H 0.42183 0.77982 -0.03062
 H370 H 0.44439 0.71649 -0.07173
 H371 H 0.48149 0.71282 -0.04700
 H372 H 0.50772 0.77536 -0.04734
 H373 H 0.54282 0.77494 -0.07448
 H374 H 0.57153 0.71048 -0.03863
 H375 H 0.53579 0.71060 -0.01190
 H376 H 0.45168 0.77393 0.07550
 C377 C 0.01189 0.50140 0.25651
 C378 C -0.01294 0.49951 0.25629
 C379 C -0.02509 0.47555 0.25477
 C380 C -0.02962 0.52118 0.25612
 C381 C 0.02427 0.52527 0.25570
 C382 C 0.02820 0.47945 0.25570
 C383 C -0.02067 0.45970 0.23530
 C384 C -0.03378 0.43818 0.23308
 C385 C -0.05185 0.43230 0.25007
 C386 C -0.05602 0.44813 0.26967
 C387 C -0.04280 0.46955 0.27195
 C388 C -0.04719 0.52350 0.23761
 C389 C -0.06410 0.54279 0.23762
 C390 C -0.06402 0.56015 0.25629
 C391 C -0.04610 0.55811 0.27465
 C392 C -0.02907 0.53871 0.27461
 C393 C 0.04323 0.52993 0.27223
 C394 C 0.05696 0.55102 0.27023
 C395 C 0.05196 0.56792 0.25168
 C396 C 0.03259 0.56361 0.23548
 C397 C 0.01903 0.54232 0.23730
 C398 C 0.02740 0.46131 0.27362
 C399 C 0.04256 0.44054 0.27199
 C400 C 0.05871 0.43761 0.25242
 C401 C 0.05973 0.45606 0.23482
 C402 C 0.04473 0.47679 0.23651
 H403 H -0.00747 0.46425 0.22154
 H404 H -0.02997 0.42629 0.21789
 H405 H -0.07010 0.44443 0.28282
 H406 H -0.04672 0.48173 0.28690
 H407 H -0.04783 0.51027 0.22310
 H408 H -0.07727 0.54412 0.22293
 H409 H -0.01581 0.53708 0.28921
 H410 H 0.04768 0.51697 0.28646
 H411 H 0.07169 0.55403 0.28305
 H412 H 0.02860 0.57622 0.22083
 H413 H 0.00497 0.53880 0.22391
 H414 H 0.01496 0.46319 0.28873
 H415 H 0.04136 0.42660 0.28579
 H416 H 0.07230 0.45454 0.21979
 H417 H 0.04573 0.49064 0.22260
 H418 H -0.04567 0.57111 0.28936
 C419 C 0.01152 0.50035 0.75195
 C420 C -0.01336 0.50109 0.75291
 C421 C -0.02844 0.47876 0.75390
 C422 C -0.02711 0.52462 0.75301
 C423 C 0.02609 0.52294 0.75210
 C424 C 0.02578 0.47718 0.75073
 C425 C -0.04898 0.47700 0.73861
 C426 C -0.06474 0.45740 0.74055
 C427 C -0.06016 0.43894 0.75763
 C428 C -0.03934 0.44027 0.77259
 C429 C -0.02378 0.46021 0.77099
 C430 C -0.02630 0.54054 0.73314
 C431 C -0.04102 0.56165 0.73268
 C432 C -0.05683 0.56708 0.75204
 C433 C -0.05699 0.55138 0.77217
 C434 C -0.04241 0.53029 0.77256
 C435 C 0.02502 0.53921 0.77168
 C436 C 0.03976 0.55978 0.77202
 C437 C 0.05581 0.56441 0.75279
 C438 C 0.05678 0.54805 0.73325
 C439 C 0.04215 0.52747 0.73298
 C440 C 0.04416 0.47256 0.76804
 C441 C 0.05896 0.45171 0.76647
 C442 C 0.05585 0.43511 0.74741
 C443 C 0.03712 0.43949 0.73027
 C444 C 0.02227 0.46046 0.73185
 H445 H -0.05303 0.49105 0.72533
 H446 H -0.08062 0.45666 0.72874
 H447 H -0.03562 0.42633 0.78607
 H448 H -0.00849 0.46142 0.78348
 H449 H -0.01482 0.53624 0.71775
 H450 H -0.04067 0.57325 0.71683
 H451 H -0.04319 0.51821 0.78804
 H452 H 0.01301 0.53579 0.78679
 H453 H 0.03854 0.57214 0.78724
 H454 H 0.06923 0.55091 0.71837
 H455 H 0.04339 0.51499 0.71785
 H456 H 0.04710 0.48521 0.78277
 H457 H 0.07292 0.44858 0.78018
 H458 H 0.03447 0.42709 0.71528
 H459 H 0.00841 0.46393 0.71811
 H460 H -0.06857 0.55531 0.78758
 C461 C 0.35414 0.23673 0.11891
 C462 C 0.35182 0.21613 0.13377
 C463 C 0.33413 0.21607 0.15187
 C464 C 0.31870 0.23645 0.15544
 C465 C 0.32153 0.25664 0.14014
 N466 N 0.33899 0.25632 0.12267
 C467 C 0.37347 0.23837 0.10024
 N468 N 0.38028 0.26079 0.09249
 C469 C 0.39871 0.26395 0.07641
 C470 C 0.41178 0.24375 0.06722
 C471 C 0.40453 0.22043 0.07435
 C472 C 0.38537 0.21765 0.09065
 H473 H 0.33274 0.20001 0.16308
 H474 H 0.31023 0.27285 0.14225
 H475 H 0.40327 0.28225 0.07101
 H476 H 0.41409 0.20430 0.06787
 H477 H 0.36384 0.20040 0.13209
 H478 H 0.38016 0.19942 0.09562
 C479 C 0.64503 0.76457 0.12135
 C480 C 0.64611 0.78446 0.13722
 C481 C 0.66421 0.78498 0.15512
 C482 C 0.68141 0.76571 0.15751
 C483 C 0.67970 0.74620 0.14107
 N484 N 0.66178 0.74609 0.12388
 C485 C 0.62543 0.76234 0.10284
 N486 N 0.61994 0.73977 0.09444
 C487 C 0.60152 0.73599 0.07829
 C488 C 0.58717 0.75565 0.06965
 C489 C 0.59298 0.77916 0.07751
 C490 C 0.61210 0.78260 0.09397
 H491 H 0.66433 0.80049 0.16713
 H492 H 0.69227 0.73082 0.14185
 H493 H 0.59801 0.71759 0.07237
 H494 H 0.58236 0.79486 0.07146
 H495 H 0.63279 0.79924 0.13645
 H496 H 0.61622 0.80094 0.09956
 C497 C 0.64672 0.23533 -0.12371
 C498 C 0.64851 0.21608 -0.14037
 C499 C 0.66677 0.21624 -0.15795
 C500 C 0.68331 0.23551 -0.15912
 C501 C 0.68084 0.25439 -0.14211
 N502 N 0.66285 0.25387 -0.12524
 C503 C 0.62717 0.23683 -0.10523
 N504 N 0.62140 0.25898 -0.09558
 C505 C 0.60322 0.26218 -0.07914
 C506 C 0.58945 0.24230 -0.07141
 C507 C 0.59552 0.21916 -0.08059
 C508 C 0.61434 0.21632 -0.09740
 H509 H 0.66769 0.20132 -0.17068
 H510 H 0.69299 0.26971 -0.14219
 H511 H 0.59947 0.28029 -0.07223
 H512 H 0.58531 0.20332 -0.07524
 H513 H 0.63570 0.20130 -0.14040
 H514 H 0.61866 0.19825 -0.10403
 C515 C 0.35070 0.75925 -0.12195
 C516 C 0.34788 0.77980 -0.13693
 C517 C 0.32983 0.78021 -0.15489
 C518 C 0.31453 0.76019 -0.15824
 C519 C 0.31797 0.73996 -0.14291
 N520 N 0.33575 0.73997 -0.12554
 C521 C 0.37019 0.75741 -0.10316
 N522 N 0.37754 0.73494 -0.09523
 C523 C 0.39601 0.73165 -0.07886
 C524 C 0.40849 0.75175 -0.06949
 C525 C 0.40072 0.77512 -0.07686
 C526 C 0.38157 0.77804 -0.09349
 H527 H 0.32805 0.79625 -0.16617
 H528 H 0.30684 0.72399 -0.14484
 H529 H 0.40101 0.71331 -0.07332
 H530 H 0.40985 0.79118 -0.07029
 H531 H 0.35975 0.79527 -0.13539
 H532 H 0.37592 0.79630 -0.09860
 C533 C 0.12572 0.35600 0.24352
 C534 C 0.13843 0.35129 0.22193
 C535 C 0.15615 0.33272 0.22126
 C536 C 0.16139 0.31876 0.24200
 C537 C 0.14832 0.32407 0.26324
 N538 N 0.13121 0.34238 0.26350
 C539 C 0.10731 0.37605 0.24537
 N540 N 0.10301 0.38647 0.26735
 C541 C 0.08711 0.40561 0.27022
 C542 C 0.07461 0.41554 0.25013
 C543 C 0.07815 0.40454 0.22748
 C544 C 0.09434 0.38480 0.22503
 H545 H 0.16566 0.32933 0.20444
 H546 H 0.15192 0.31399 0.27976
 H547 H 0.08488 0.41353 0.28802
 H548 H 0.06836 0.41119 0.21163
 H549 H 0.13525 0.36211 0.20581
 H550 H 0.09646 0.37651 0.20740
 C551 C 0.12090 0.64586 0.75484
 C552 C 0.11947 0.66553 0.73866
 C553 C 0.13678 0.68384 0.73996
 C554 C 0.15564 0.68291 0.75747
 C555 C 0.15597 0.66311 0.77372
 N556 N 0.13890 0.64543 0.77199
 C557 C 0.10338 0.62558 0.75380
 N558 N 0.09954 0.61211 0.77410
 C559 C 0.08416 0.59289 0.77435
 C560 C 0.07180 0.58599 0.75314
 C561 C 0.07556 0.59955 0.73200
 C562 C 0.09130 0.61927 0.73223
 H563 H 0.13511 0.69863 0.72711
 H564 H 0.16979 0.66137 0.78772
 H565 H 0.08206 0.58269 0.79096
 H566 H 0.06634 0.59490 0.71526
 H567 H 0.10500 0.66707 0.72526
 H568 H 0.09432 0.62898 0.71549
 C569 C -0.13546 0.63840 0.25143
 C570 C -0.15392 0.63844 0.23368
 C571 C -0.17000 0.65831 0.23169
 C572 C -0.16798 0.67838 0.24738
 C573 C -0.14898 0.67762 0.26480
 N574 N -0.13340 0.65805 0.26623
 C575 C -0.11783 0.61776 0.25385
 N576 N -0.09453 0.62196 0.26153
 C577 C -0.07720 0.60388 0.26309
 C578 C -0.08294 0.57992 0.25653
 C579 C -0.10712 0.57513 0.24946
 C580 C -0.12455 0.59390 0.24812
 H581 H -0.18399 0.65764 0.21780
 H582 H -0.14623 0.69252 0.27721
 H583 H -0.05882 0.60839 0.26872
 H584 H -0.11260 0.55681 0.24500
 H585 H -0.15570 0.62349 0.22108
 H586 H -0.14310 0.58967 0.24279
 C587 C -0.12812 0.36063 0.76516
 C588 C -0.14912 0.36180 0.77959
 C589 C -0.16514 0.34231 0.77978
 C590 C -0.16056 0.32158 0.76540
 C591 C -0.13903 0.32113 0.75144
 N592 N -0.12357 0.34029 0.75179
 C593 C -0.11095 0.38108 0.76403
 N594 N -0.08654 0.37638 0.76129
 C595 C -0.06992 0.39449 0.75972
 C596 C -0.07772 0.41895 0.76032
 C597 C -0.10278 0.42418 0.76294
 C598 C -0.11942 0.40534 0.76493
 H599 H -0.18126 0.34391 0.79097
 H600 H -0.13421 0.30560 0.74035
 H601 H -0.05073 0.38982 0.75748
 H602 H -0.10945 0.44287 0.76348
 H603 H -0.15304 0.37751 0.79083
 H604 H -0.13875 0.40974 0.76654
 C605 C 0.24842 0.11702 0.35090
 C606 C 0.26112 0.11432 0.32902
 C607 C 0.25963 0.13273 0.31167
 C608 C 0.24544 0.15387 0.31589
 C609 C 0.23251 0.15557 0.33775
 N610 N 0.23433 0.13740 0.35444
 C611 C 0.25004 0.09846 0.37031
 N612 N 0.23141 0.09692 0.38650
 C613 C 0.23206 0.08098 0.40536
 C614 C 0.25261 0.06571 0.40906
 C615 C 0.27199 0.06692 0.39260
 C616 C 0.27078 0.08319 0.37321
 H617 H 0.26948 0.13020 0.29491
 H618 H 0.22130 0.17144 0.34184
 H619 H 0.21689 0.08080 0.41788
 H620 H 0.28815 0.05542 0.39486
 H621 H 0.27186 0.09808 0.32509
 H622 H 0.28629 0.08424 0.36119
 C623 C 0.77230 0.12322 0.64578
 C624 C 0.79282 0.13789 0.64952
 C625 C 0.79280 0.15467 0.66850
 C626 C 0.77245 0.15700 0.68380
 C627 C 0.75237 0.14194 0.67946
 N628 N 0.75277 0.12583 0.66080
 C629 C 0.77056 0.10580 0.62537
 N630 N 0.74794 0.09843 0.61828
 C631 C 0.74450 0.08299 0.59941
 C632 C 0.76462 0.07390 0.58632
 C633 C 0.78817 0.08077 0.59363
 C634 C 0.79124 0.09663 0.61312
 H635 H 0.80872 0.16585 0.67105
 H636 H 0.73612 0.14316 0.69049
 H637 H 0.72605 0.07782 0.59469
 H638 H 0.80420 0.07427 0.58397
 H639 H 0.80850 0.13702 0.63769
 H640 H 0.80961 0.10141 0.61846
 C641 C 0.23508 -0.12043 0.64582
 C642 C 0.21451 -0.13528 0.64801
 C643 C 0.21389 -0.15281 0.66629
 C644 C 0.23370 -0.15579 0.68241
 C645 C 0.25389 -0.14055 0.67961
 N646 N 0.25410 -0.12366 0.66161
 C647 C 0.23739 -0.10228 0.62610
 N648 N 0.26018 -0.09480 0.61995
 C649 C 0.26406 -0.07907 0.60142
 C650 C 0.24427 -0.06992 0.58762
 C651 C 0.22054 -0.07675 0.59412
 C652 C 0.21701 -0.09279 0.61335
 H653 H 0.19789 -0.16404 0.66762
 H654 H 0.26972 -0.14222 0.69138
 H655 H 0.28262 -0.07388 0.59737
 H656 H 0.20474 -0.07023 0.58394
 H657 H 0.19926 -0.13399 0.63549
 H658 H 0.19851 -0.09758 0.61799
 C659 C 0.75556 -0.11657 0.35275
 C660 C 0.74171 -0.11350 0.33144
 C661 C 0.74321 -0.13106 0.31326
 C662 C 0.75852 -0.15171 0.31611
 C663 C 0.77247 -0.15378 0.33750
 N664 N 0.77067 -0.13644 0.35497
 C665 C 0.75427 -0.09889 0.37291
 N666 N 0.77373 -0.09720 0.38832
 C667 C 0.77359 -0.08196 0.40770
 C668 C 0.75276 -0.06756 0.41278
 C669 C 0.73248 -0.06904 0.39719
 C670 C 0.73315 -0.08461 0.37726
 H671 H 0.73242 -0.12828 0.29698
 H672 H 0.78456 -0.16926 0.34061
 H673 H 0.78950 -0.08156 0.41947
 H674 H 0.71609 -0.05818 0.40045
 H675 H 0.73006 -0.09761 0.32859
 H676 H 0.71704 -0.08584 0.36587
 C677 C 0.63868 0.74479 -0.12758
 C678 C 0.65438 0.72509 -0.13315
 C679 C 0.67230 0.72783 -0.15080
 C680 C 0.67476 0.75014 -0.16291
 C681 C 0.65882 0.76942 -0.15668
 N682 N 0.64154 0.76632 -0.13940
 C683 C 0.61928 0.74314 -0.10906
 N684 N 0.61044 0.76411 -0.09901
 C685 C 0.59208 0.76436 -0.08253
 C686 C 0.58119 0.74255 -0.07538
 C687 C 0.59011 0.72067 -0.08535
 C688 C 0.60907 0.72086 -0.10220
 H689 H 0.68408 0.71239 -0.15499
 H690 H 0.66015 0.78702 -0.16531
 H691 H 0.58600 0.78163 -0.07508
 H692 H 0.58192 0.70347 -0.08072
 H693 H 0.65323 0.70783 -0.12384
 H694 H 0.61497 0.70381 -0.11022
 C695 C 0.35859 0.25356 -0.12849
 C696 C 0.33617 0.26621 -0.12599
 C697 C 0.31806 0.26378 -0.14374
 C698 C 0.32216 0.24881 -0.16396
 C699 C 0.34490 0.23668 -0.16584
 N700 N 0.36225 0.23941 -0.14839
 C701 C 0.37869 0.25528 -0.11051
 N702 N 0.40185 0.24947 -0.11772
 C703 C 0.42131 0.24960 -0.10231
 C704 C 0.41804 0.25558 -0.07784
 C705 C 0.39436 0.26181 -0.06995
 C706 C 0.37464 0.26163 -0.08619
 H707 H 0.30084 0.27353 -0.14150
 H708 H 0.34911 0.22523 -0.18122
 H709 H 0.43931 0.24504 -0.10924
 H710 H 0.39101 0.26614 -0.05113
 H711 H 0.33267 0.27816 -0.11081
 H712 H 0.35645 0.26569 -0.07948
 C713 C 0.35801 0.74093 0.12906
 C714 C 0.34307 0.72104 0.13417
 C715 C 0.32494 0.72333 0.15177
 C716 C 0.32158 0.74537 0.16429
 C717 C 0.33684 0.76481 0.15858
 N718 N 0.35429 0.76217 0.14130
 C719 C 0.37742 0.73985 0.11049
 N720 N 0.38496 0.76108 0.10049
 C721 C 0.40325 0.76189 0.08399
 C722 C 0.41546 0.74041 0.07676
 C723 C 0.40791 0.71826 0.08671
 C724 C 0.38896 0.71788 0.10357
 H725 H 0.31364 0.70781 0.15559
 H726 H 0.33476 0.78222 0.16752
 H727 H 0.40823 0.77935 0.07656
 H728 H 0.41716 0.70132 0.08202
 H729 H 0.34492 0.70404 0.12445
 H730 H 0.38409 0.70068 0.11159
 C731 C 0.63878 0.25811 0.13173
 C732 C 0.65300 0.27850 0.13711
 C733 C 0.67093 0.27683 0.15518
 C734 C 0.67477 0.25496 0.16793
 C735 C 0.66013 0.23505 0.16203
 N736 N 0.64290 0.23708 0.14427
 C737 C 0.61981 0.25842 0.11247
 N738 N 0.61305 0.23684 0.10258
 C739 C 0.59534 0.23534 0.08531
 C740 C 0.58299 0.25643 0.07709
 C741 C 0.58970 0.27891 0.08697
 C742 C 0.60803 0.28000 0.10464
 H743 H 0.68171 0.29270 0.15915
 H744 H 0.66260 0.21774 0.17114
 H745 H 0.59096 0.21764 0.07804
 H746 H 0.58027 0.29557 0.08157
 H747 H 0.65079 0.29542 0.12724
 H748 H 0.61228 0.29746 0.11249
 C749 C -0.12538 0.64797 0.75001
 C750 C -0.12477 0.66780 0.73400
 C751 C -0.14309 0.68584 0.73511
 C752 C -0.16211 0.68431 0.75216
 C753 C -0.16186 0.66406 0.76782
 N754 N -0.14393 0.64673 0.76624
 C755 C -0.10710 0.62779 0.74948
 N756 N -0.11357 0.60590 0.75878
 C757 C -0.09794 0.58644 0.75962
 C758 C -0.07395 0.58836 0.75093
 C759 C -0.06679 0.61076 0.74121
 C760 C -0.08327 0.63053 0.74047
 H761 H -0.14221 0.70083 0.72248
 H762 H -0.17590 0.66160 0.78124
 H763 H -0.10442 0.56942 0.76687
 H764 H -0.04834 0.61313 0.73463
 H765 H -0.11071 0.66920 0.72039
 H766 H -0.07715 0.64779 0.73349
 C767 C -0.11845 0.35277 0.23951
 C768 C -0.13475 0.35113 0.21982
 C769 C -0.15273 0.33343 0.21988
 C770 C -0.15474 0.31735 0.23950
 C771 C -0.13796 0.31941 0.25872
 N772 N -0.12066 0.33693 0.25833
 C773 C -0.09996 0.37215 0.24115
 N774 N -0.09119 0.37843 0.26337
 C775 C -0.07527 0.39692 0.26659
 C776 C -0.06736 0.41058 0.24668
 C777 C -0.07553 0.40388 0.22352
 C778 C -0.09164 0.38466 0.22066
 H779 H -0.16513 0.33253 0.20458
 H780 H -0.13888 0.30757 0.27433
 H781 H -0.06902 0.40107 0.28472
 H782 H -0.07005 0.41393 0.20763
 H783 H -0.13428 0.36372 0.20479
 H784 H -0.09747 0.37988 0.20257
 C785 C 0.12296 0.35322 0.74482
 C786 C 0.11947 0.33108 0.73265
 C787 C 0.13739 0.31266 0.73436
 C788 C 0.15872 0.31620 0.74816
 C789 C 0.16150 0.33864 0.75988
 N790 N 0.14391 0.35628 0.75785
 C791 C 0.10501 0.37371 0.74381
 N792 N 0.11301 0.39639 0.74924
 C793 C 0.09778 0.41615 0.74992
 C794 C 0.07265 0.41373 0.74529
 C795 C 0.06394 0.39059 0.73932
 C796 C 0.08003 0.37051 0.73862
 H797 H 0.13447 0.29565 0.72498
 H798 H 0.17775 0.34242 0.77040
 H799 H 0.10534 0.43375 0.75416
 H800 H 0.04462 0.38791 0.73593
 H801 H 0.10338 0.32805 0.72162
 H802 H 0.07274 0.35272 0.73485
 C803 C 0.11613 0.64902 0.24029
 C804 C 0.11031 0.67295 0.24745
 C805 C 0.12811 0.69085 0.24600
 C806 C 0.15154 0.68502 0.23720
 C807 C 0.15645 0.66100 0.22985
 N808 N 0.13898 0.64382 0.23182
 C809 C 0.09876 0.62887 0.24297
 N810 N 0.10798 0.60595 0.24655
 C811 C 0.09339 0.58642 0.24947
 C812 C 0.06782 0.58928 0.24857
 C813 C 0.05785 0.61263 0.24440
 C814 C 0.07325 0.63251 0.24172
 H815 H 0.12355 0.70920 0.25178
 H816 H 0.17435 0.65562 0.22324
 H817 H 0.10178 0.56862 0.25220
 H818 H 0.03819 0.61552 0.24347
 H819 H 0.09251 0.67771 0.25475
 H820 H 0.06526 0.65037 0.23837
 C821 C 0.74292 -0.12020 0.64457
 C822 C 0.73062 -0.11652 0.66658
 C823 C 0.73256 -0.13420 0.68476
 C824 C 0.74677 -0.15543 0.68113
 C825 C 0.75864 -0.15838 0.65884
 N826 N 0.75634 -0.14105 0.64142
 C827 C 0.74166 -0.10253 0.62434
 N828 N 0.74666 -0.11077 0.60165
 C829 C 0.74722 -0.09580 0.58212
 C830 C 0.74296 -0.07068 0.58478
 C831 C 0.73742 -0.06172 0.60796
 C832 C 0.73677 -0.07755 0.62779
 H833 H 0.72307 -0.13116 0.70167
 H834 H 0.76948 -0.17457 0.65502
 H835 H 0.75109 -0.10359 0.56453
 H836 H 0.73435 -0.04241 0.61087
 H837 H 0.71930 -0.10047 0.66966
 H838 H 0.73332 -0.07012 0.64560
 C839 C 0.24732 -0.13260 0.36008
 C840 C 0.23067 -0.15176 0.36099
 C841 C 0.22825 -0.16719 0.34117
 C842 C 0.24231 -0.16367 0.32032
 C843 C 0.25860 -0.14415 0.32001
 N844 N 0.26056 -0.12922 0.33956
 C845 C 0.25020 -0.11566 0.38066
 N846 N 0.25684 -0.09226 0.37637
 C847 C 0.25881 -0.07556 0.39445
 C848 C 0.25372 -0.08211 0.41847
 C849 C 0.24767 -0.10633 0.42333
 C850 C 0.24599 -0.12313 0.40457
 H851 H 0.21554 -0.18202 0.34240
 H852 H 0.26961 -0.14059 0.30423
 H853 H 0.26363 -0.05707 0.38997
 H854 H 0.24432 -0.11230 0.44169
 H855 H 0.21929 -0.15467 0.37666
 H856 H 0.24162 -0.14178 0.40888
 C857 C 0.76201 0.12143 0.35252
 C858 C 0.78422 0.13187 0.34560
 C859 C 0.78422 0.14985 0.32777
 C860 C 0.76221 0.15754 0.31673
 C861 C 0.74044 0.14644 0.32391
 N862 N 0.74087 0.12911 0.34152
 C863 C 0.76072 0.10344 0.37244
 N864 N 0.73935 0.10135 0.38482
 C865 C 0.73711 0.08618 0.40413
 C866 C 0.75728 0.07216 0.41224
 C867 C 0.77923 0.07341 0.39926
 C868 C 0.78100 0.08888 0.37934
 H869 H 0.80148 0.15776 0.32275
 H870 H 0.72301 0.15192 0.31606
 H871 H 0.71984 0.08577 0.41364
 H872 H 0.79504 0.06244 0.40455
 H873 H 0.80139 0.12687 0.35426
 H874 H 0.79808 0.08929 0.36955
 C875 C 0.25913 0.12284 0.64000
 C876 C 0.27160 0.11954 0.66211
 C877 C 0.26881 0.13690 0.68039
 C878 C 0.25363 0.15750 0.67676
 C879 C 0.24166 0.16016 0.65433
 N880 N 0.24476 0.14309 0.63680
 C881 C 0.26130 0.10530 0.61980
 N882 N 0.25637 0.11336 0.59696
 C883 C 0.25689 0.09837 0.57745
 C884 C 0.26230 0.07345 0.58032
 C885 C 0.26768 0.06471 0.60368
 C886 C 0.26716 0.08054 0.62347
 H887 H 0.27845 0.13408 0.69736
 H888 H 0.23009 0.17589 0.65051
 H889 H 0.25300 0.10596 0.55972
 H890 H 0.27153 0.04554 0.60675
 H891 H 0.28371 0.10404 0.66520
 H892 H 0.27052 0.07322 0.64139
   
