data_POSCAR
  _audit_creation_date              2014-09-24
  _audit_creation_method            'ToBaCCo'
  _symmetry_space_group_name_H-M    'P1'
  _symmetry_Int_Tables_number       1
  _symmetry_cell_setting            triclinic
  loop_
  _symmetry_equiv_pos_as_xyz
 x,y,z
_cell_length_a 23.4577
_cell_length_b 23.7880
_cell_length_c 55.3151
_cell_angle_alpha 93.209100
_cell_angle_beta 84.584800
_cell_angle_gamma 120.033500
loop_
  _atom_site_label
  _atom_site_type_symbol
  _atom_site_fract_x
  _atom_site_fract_y
  _atom_site_fract_z
C1 C -0.03534 0.01802 0.54791
 H2 H -0.01556 -0.00971 0.55472
 C3 C -0.03747 0.06676 0.56258
 H4 H -0.01950 0.07580 0.58052
 C5 C -0.08095 0.04207 0.51630
 H6 H -0.09693 0.03313 0.49811
 C7 C -0.08529 0.09037 0.53057
 H8 H -0.10431 0.11843 0.52322
 N9 N -0.05493 0.00786 0.52490
 C10 C -0.05863 -0.16570 0.52023
 H11 H -0.10176 -0.18505 0.51006
 C12 C -0.04905 -0.20817 0.53341
 H13 H -0.08419 -0.25968 0.53264
 C14 C 0.03878 -0.07576 0.53370
 H15 H 0.07239 -0.02392 0.53408
 C16 C 0.05009 -0.11661 0.54729
 H17 H 0.09237 -0.09555 0.55809
 Zn18 Zn -0.03516 -0.04629 0.50307
 N19 N -0.01516 -0.10067 0.52056
 C20 C 0.09780 0.01633 0.48057
 N21 N 0.03647 0.00944 0.48116
 C22 C 0.02355 0.04455 0.46623
 C23 C 0.07369 0.09088 0.45084
 C24 C 0.14968 0.06245 0.46544
 C25 C -0.16909 -0.11146 0.48991
 C26 C -0.22078 -0.15549 0.47619
 C27 C -0.14330 -0.17703 0.45141
 C28 C -0.09331 -0.13207 0.46540
 N29 N -0.10691 -0.10083 0.48434
 H30 H 0.10708 -0.01301 0.49202
 H31 H -0.02592 0.03670 0.46628
 H32 H 0.06202 0.11818 0.43916
 H33 H 0.19859 0.06869 0.46577
 H34 H -0.17917 -0.08734 0.50548
 H35 H -0.26965 -0.16425 0.48228
 H36 H -0.12847 -0.19813 0.43604
 H37 H -0.04320 -0.12241 0.46132
 C38 C 0.00552 -0.18385 0.54739
 C39 C -0.06147 0.10436 0.55372
 C40 C -0.20929 -0.19055 0.45655
 C41 C 0.13811 0.10129 0.45062
 C42 C 1.01831 -0.00558 0.12045
 H43 H 0.98210 0.00439 0.11422
 C44 C 1.06642 -0.00621 0.10371
 H45 H 1.06659 0.00322 0.08476
 C46 C 1.06345 -0.02852 0.15251
 H47 H 1.06322 -0.03562 0.17163
 C48 C 1.11206 -0.03026 0.13634
 H49 H 1.14893 -0.03851 0.14325
 N50 N 1.01959 -0.01348 0.14454
 C51 C 0.85132 -0.00177 0.15585
 H52 H 0.82985 -0.04045 0.16888
 C53 C 0.80949 0.00607 0.14189
 H54 H 0.75665 -0.02572 0.14490
 C55 C 0.94532 0.08469 0.13554
 H56 H 0.99842 0.11353 0.13245
 C57 C 0.90498 0.09390 0.12095
 H58 H 0.92759 0.13032 0.10692
 Zn59 Zn 0.97016 0.01008 0.16798
 N60 N 0.91808 0.03596 0.15208
 C61 C 1.05777 0.14103 0.18440
 N62 N 1.03201 0.07625 0.18778
 C63 C 1.05369 0.05419 0.20494
 C64 C 1.10458 0.09734 0.21889
 C65 C 1.10904 0.18627 0.19813
 C66 C 0.89021 -0.12297 0.18237
 C67 C 0.84030 -0.17248 0.19702
 C68 C 0.83797 -0.09058 0.22434
 C69 C 0.88742 -0.04298 0.20923
 N70 N 0.91182 -0.05974 0.18856
 H71 H 1.03996 0.15776 0.17072
 H72 H 1.03206 0.00259 0.20756
 H73 H 1.12112 0.07840 0.23233
 H74 H 1.13039 0.23764 0.19485
 H75 H 0.90986 -0.13492 0.16565
 H76 H 0.82187 -0.22264 0.19148
 H77 H 0.81912 -0.07598 0.24064
 H78 H 0.90515 0.00774 0.21356
 C79 C 0.83613 0.05273 0.12356
 C80 C 1.11552 -0.01628 0.11177
 C81 C 0.81270 -0.15634 0.21809
 C82 C 1.13389 0.16428 0.21527
 C83 C 0.12262 1.01336 0.86354
 H84 H 0.07395 0.97081 0.86364
 C85 C 0.16875 1.01547 0.87808
 H86 H 0.15446 0.97466 0.88970
 C87 C 0.19855 1.11861 0.84851
 H88 H 0.20964 1.15814 0.83671
 C89 C 0.24692 1.12259 0.86275
 H90 H 0.29543 1.16550 0.86178
 N91 N 0.13788 1.06433 0.84925
 C92 C -0.06567 1.01410 0.84364
 H93 H -0.07374 0.99918 0.82486
 C94 C -0.11647 1.01436 0.85902
 H95 H -0.16311 0.99912 0.85156
 C96 C 0.00738 1.05831 0.87495
 H97 H 0.05618 1.07725 0.88101
 C98 C -0.04116 1.06082 0.89071
 H99 H -0.02892 1.07842 0.90902
 Zn100 Zn 0.06783 1.04739 0.83051
 N101 N -0.00531 1.03539 0.85187
 C102 C -0.00514 0.91829 0.80892
 N103 N 0.05361 0.97361 0.81144
 C104 C 0.11033 0.98137 0.79946
 C105 C 0.10958 0.93345 0.78372
 C106 C -0.00835 0.86910 0.79291
 C107 C 0.09693 1.17374 0.81884
 C108 C 0.09206 1.21754 0.80444
 C109 C 0.06662 1.14091 0.77102
 C110 C 0.07260 1.09911 0.78587
 N111 N 0.08552 1.11515 0.80951
 H112 H -0.04955 0.91263 0.81887
 H113 H 0.15644 1.02562 0.80198
 H114 H 0.15579 0.94091 0.77468
 H115 H -0.05576 0.82633 0.79044
 H116 H 0.10536 1.18457 0.83786
 H117 H 0.09776 1.26260 0.81234
 H118 H 0.05309 1.12601 0.75259
 H119 H 0.06200 1.05187 0.77887
 C120 C -0.10441 1.03937 0.88294
 C121 C 0.23222 1.07014 0.87765
 C122 C 0.07415 1.19985 0.78052
 C123 C 0.04959 0.87685 0.77980
 O124 O 0.46190 0.04168 0.02335
 O125 O 0.59151 0.05345 -0.02327
 O126 O 0.48239 0.05717 -0.02331
 O127 O 0.57909 0.05232 0.02403
 O128 O 0.53091 -0.05424 0.02033
 O129 O 0.42943 -0.04980 -0.02587
 O130 O 0.53770 -0.05345 -0.02690
 O131 O 0.41427 -0.06518 0.02118
 Cu132 Cu 0.53386 0.06178 0.00062
 Cu133 Cu 0.47292 -0.06626 -0.00299
 C134 C 0.41573 -0.01431 0.03012
 C135 C 0.58571 0.00149 -0.03329
 C136 C 0.43935 0.00485 -0.03269
 C137 C 0.57279 -0.00131 0.03000
 O138 O 0.06598 0.58725 0.68533
 O139 O 0.06556 0.46574 0.64059
 O140 O 0.05659 0.57122 0.63891
 O141 O 0.08782 0.49039 0.68621
 O142 O -0.01933 0.42419 0.69324
 O143 O -0.05069 0.51274 0.64815
 O144 O -0.04258 0.40659 0.64755
 O145 O -0.04035 0.52192 0.69481
 Cu146 Cu 0.07963 0.53479 0.66185
 Cu147 Cu -0.04895 0.46006 0.67166
 C148 C 0.01268 0.57475 0.69787
 C149 C 0.01098 0.41511 0.63650
 C150 C -0.00188 0.55773 0.63592
 C151 C 0.03998 0.44297 0.69758
 O152 O 0.43388 0.40388 0.30972
 O153 O 0.55145 0.49710 0.35612
 O154 O 0.43587 0.39074 0.35599
 O155 O 0.55396 0.50198 0.30935
 O156 O 0.51043 0.56551 0.31554
 O157 O 0.39020 0.45236 0.36227
 O158 O 0.50531 0.55831 0.36249
 O159 O 0.39023 0.46726 0.31605
 Cu160 Cu 0.49806 0.44208 0.33224
 Cu161 Cu 0.44462 0.51705 0.33973
 C162 C 0.39176 0.41981 0.30501
 C163 C 0.54875 0.54438 0.36704
 C164 C 0.39235 0.40167 0.36694
 C165 C 0.55313 0.55304 0.30456
 C166 C -0.11534 0.16557 0.57297
 C167 C -0.05865 0.15984 0.56813
 C168 C 0.00134 0.20772 0.57689
 C169 C 0.00466 0.26065 0.59056
 C170 C -0.05307 0.26509 0.59595
 C171 C -0.11274 0.21751 0.58696
 C172 C -0.05032 0.31660 0.61047
 C173 C 0.00959 0.36429 0.61945
 C174 C 0.06711 0.36057 0.61327
 C175 C 0.06461 0.30901 0.59906
 H176 H 0.04546 0.20395 0.57286
 H177 H -0.15739 0.22034 0.59081
 H178 H -0.09496 0.31917 0.61496
 H179 H 0.10941 0.30657 0.59495
 H180 H -0.16188 0.12916 0.56628
 H181 H 0.11374 0.39651 0.62004
 C182 C 0.70507 0.80298 0.24319
 C183 C 0.75681 0.79289 0.23330
 C184 C 0.75542 0.73505 0.23852
 C185 C 0.70413 0.68887 0.25397
 C186 C 0.65330 0.70036 0.26424
 C187 C 0.65390 0.75725 0.25852
 C188 C 0.60328 0.65530 0.28036
 C189 C 0.60341 0.59880 0.28645
 C190 C 0.65356 0.58731 0.27573
 C191 C 0.70341 0.63188 0.25967
 H192 H 0.79515 0.72682 0.23115
 H193 H 0.61511 0.76667 0.26606
 H194 H 0.56492 0.66478 0.28841
 H195 H 0.74183 0.62214 0.25193
 H196 H 0.70415 0.84646 0.23906
 H197 H 0.65492 0.54418 0.28005
 C198 C 0.32389 0.12817 -0.09441
 C199 C 0.28154 0.07142 -0.10698
 C200 C 0.28319 0.01406 -0.10353
 C201 C 0.32343 0.01226 -0.08679
 C202 C 0.36455 0.06912 -0.07379
 C203 C 0.36529 0.12710 -0.07804
 C204 C 0.40315 0.06664 -0.05643
 C205 C 0.40036 0.00775 -0.05161
 C206 C 0.35968 -0.04830 -0.06485
 C207 C 0.32186 -0.04598 -0.08239
 H208 H 0.25202 -0.02975 -0.11351
 H209 H 0.39659 0.17120 -0.06823
 H210 H 0.43427 0.11027 -0.04634
 H211 H 0.29056 -0.09001 -0.09223
 H212 H 0.32334 0.17285 -0.09658
 H213 H 0.35696 -0.09409 -0.06162
 C214 C 0.07845 0.78139 0.56453
 C215 C 0.01490 0.77167 0.56231
 C216 C -0.03979 0.71926 0.57452
 C217 C -0.03113 0.67756 0.58882
 C218 C 0.03305 0.68830 0.59106
 C219 C 0.08744 0.74012 0.57876
 C220 C 0.04193 0.64772 0.60586
 C221 C -0.01248 0.59661 0.61870
 C222 C -0.07624 0.58570 0.61600
 C223 C -0.08549 0.62578 0.60118
 H224 H -0.08902 0.71164 0.57332
 H225 H 0.13700 0.74891 0.58021
 H226 H 0.09146 0.65689 0.60775
 H227 H -0.13509 0.61676 0.59963
 H228 H 0.12129 0.82065 0.55507
 H229 H -0.11897 0.54686 0.62569
 C230 C 0.24022 0.19541 0.23298
 C231 C 0.19050 0.20998 0.22929
 C232 C 0.19373 0.26638 0.23999
 C233 C 0.24447 0.30623 0.25500
 C234 C 0.29312 0.29002 0.25910
 C235 C 0.29108 0.23506 0.24770
 C236 C 0.34215 0.32816 0.27494
 C237 C 0.34301 0.38217 0.28697
 C238 C 0.29520 0.39864 0.28235
 C239 C 0.24649 0.36111 0.26650
 H240 H 0.15547 0.27787 0.23738
 H241 H 0.32817 0.22212 0.25048
 H242 H 0.37871 0.31491 0.27827
 H243 H 0.20976 0.37441 0.26356
 H244 H 0.23945 0.15282 0.22458
 H245 H 0.29474 0.44009 0.29129
 C246 C 0.86430 0.09282 -0.08320
 C247 C 0.84651 0.04391 -0.10138
 C248 C 0.77871 -0.00066 -0.10321
 C249 C 0.73063 0.00186 -0.08675
 C250 C 0.74969 0.05101 -0.06868
 C251 C 0.81654 0.09663 -0.06727
 C252 C 0.70177 0.05263 -0.05187
 C253 C 0.63529 0.00409 -0.05235
 C254 C 0.61673 -0.04460 -0.07039
 C255 C 0.66385 -0.04528 -0.08762
 H256 H 0.76302 -0.04000 -0.11640
 H257 H 0.83207 0.13493 -0.05363
 H258 H 0.71650 0.08986 -0.03781
 H259 H 0.64823 -0.08350 -0.10129
 H260 H 0.91521 0.13003 -0.08163
 H261 H 0.56560 -0.08238 -0.07109
 C262 C 0.20568 0.04734 0.07994
 C263 C 0.17275 -0.00718 0.09508
 C264 C 0.19639 -0.05106 0.09486
 C265 C 0.25191 -0.04091 0.07954
 C266 C 0.28510 0.01452 0.06458
 C267 C 0.26153 0.05830 0.06493
 C268 C 0.34055 0.02460 0.04922
 C269 C 0.36193 -0.02114 0.04804
 C270 C 0.32849 -0.07615 0.06291
 C271 C 0.27442 -0.08561 0.07872
 H272 H 0.17106 -0.09344 0.10637
 H273 H 0.28619 0.10093 0.05356
 H274 H 0.36548 0.06664 0.03753
 H275 H 0.24956 -0.12842 0.09000
 H276 H 0.18893 0.08232 0.08008
 H277 H 0.34414 -0.11205 0.06224
 C278 C 0.68113 0.76605 0.44220
 C279 C 0.74071 0.76473 0.44310
 C280 C 0.74653 0.71530 0.42934
 C281 C 0.69641 0.67089 0.41495
 C282 C 0.63884 0.67497 0.41390
 C283 C 0.63144 0.72220 0.42775
 C284 C 0.58995 0.63232 0.39874
 C285 C 0.59769 0.58516 0.38461
 C286 C 0.65426 0.58005 0.38641
 C287 C 0.70321 0.62256 0.40143
 H288 H 0.78855 0.70859 0.43037
 H289 H 0.58750 0.72608 0.42710
 H290 H 0.54634 0.63657 0.39770
 H291 H 0.74691 0.61832 0.40214
 H292 H 0.67337 0.80325 0.45136
 H293 H 0.66153 0.54425 0.37574
 C294 C -0.00462 0.20876 0.75601
 C295 C 0.05675 0.23886 0.76614
 C296 C 0.10103 0.30507 0.76199
 C297 C 0.08499 0.34030 0.74708
 C298 C 0.02317 0.30934 0.73686
 C299 C -0.02152 0.24376 0.74166
 C300 C 0.00768 0.34391 0.72148
 C301 C 0.05393 0.40857 0.71553
 C302 C 0.11510 0.43908 0.72586
 C303 C 0.13026 0.40546 0.74168
 H304 H 0.14853 0.32835 0.76970
 H305 H -0.06906 0.21925 0.73399
 H306 H -0.03936 0.31973 0.71342
 H307 H 0.17787 0.43002 0.74930
 H308 H -0.03963 0.15786 0.75926
 H309 H 0.15147 0.48901 0.72159
 C310 C 0.80162 0.11387 0.09829
 C311 C 0.79223 0.05460 0.10632
 C312 C 0.74063 -0.00385 0.09758
 C313 C 0.69872 -0.00331 0.08125
 C314 C 0.70829 0.05648 0.07340
 C315 C 0.75989 0.11481 0.08202
 C316 C 0.66644 0.05685 0.05693
 C317 C 0.61536 -0.00186 0.04804
 C318 C 0.60642 -0.06097 0.05606
 C319 C 0.64763 -0.06169 0.07254
 H320 H 0.73367 -0.04996 0.10318
 H321 H 0.76799 0.16115 0.07618
 H322 H 0.67419 0.10286 0.05084
 H323 H 0.63970 -0.10796 0.07838
 H324 H 0.84076 0.15948 0.10483
 H325 H 0.56762 -0.10681 0.04953
 C326 C 0.24099 0.14154 0.42242
 C327 C 0.19250 0.15252 0.43503
 C328 C 0.19545 0.21248 0.43235
 C329 C 0.24510 0.26014 0.41693
 C330 C 0.29302 0.24816 0.40413
 C331 C 0.29083 0.18894 0.40713
 C332 C 0.34177 0.29519 0.38827
 C333 C 0.34305 0.35403 0.38480
 C334 C 0.29556 0.36570 0.39787
 C335 C 0.24715 0.31927 0.41384
 H336 H 0.15910 0.22212 0.44229
 H337 H 0.32717 0.17893 0.39742
 H338 H 0.37796 0.28534 0.37831
 H339 H 0.21082 0.32929 0.42356
 H340 H 0.23957 0.09568 0.42395
 H341 H 0.29541 0.41054 0.39558
 C342 C 0.09143 0.84707 0.74059
 C343 C 0.04847 0.82735 0.76186
 C344 C 0.00607 0.76055 0.76596
 C345 C 0.00752 0.71437 0.74930
 C346 C 0.05252 0.73510 0.72845
 C347 C 0.09386 0.80150 0.72420
 C348 C 0.05507 0.68916 0.71205
 C349 C 0.01191 0.62261 0.71582
 C350 C -0.03350 0.60229 0.73634
 C351 C -0.03520 0.64777 0.75310
 H352 H -0.02710 0.74440 0.78227
 H353 H 0.12794 0.81825 0.70813
 H354 H 0.08954 0.70521 0.69605
 H355 H -0.07022 0.63088 0.76890
 H356 H 0.12332 0.89804 0.73651
 H357 H -0.06731 0.55112 0.73952
   
