data_POSCAR
  _audit_creation_date              2014-09-24
  _audit_creation_method            'ToBaCCo'
  _symmetry_space_group_name_H-M    'P1'
  _symmetry_Int_Tables_number       1
  _symmetry_cell_setting            triclinic
  loop_
  _symmetry_equiv_pos_as_xyz
 x,y,z
_cell_length_a 22.9370
_cell_length_b 23.2293
_cell_length_c 23.0996
_cell_angle_alpha 91.533000
_cell_angle_beta 92.683200
_cell_angle_gamma 87.705100
loop_
  _atom_site_label
  _atom_site_type_symbol
  _atom_site_fract_x
  _atom_site_fract_y
  _atom_site_fract_z
C1 C 0.00476 0.44298 0.20677
 C2 C 0.05830 0.44875 0.24785
 C3 C 0.05729 0.49655 0.28298
 C4 C 0.00129 0.53552 0.27382
 C5 C -0.04638 0.44654 0.24643
 C6 C -0.04923 0.49427 0.28151
 C7 C 0.00040 0.49908 0.17349
 C8 C -0.00109 0.54786 0.20802
 H9 H 0.09500 0.41790 0.24852
 H10 H -0.00002 0.57455 0.30262
 H11 H -0.07829 0.41336 0.24644
 H12 H 0.00016 0.49986 0.12662
 C13 C 0.02075 0.43576 0.79219
 C14 C -0.01486 0.42796 0.73944
 C15 C -0.01811 0.47639 0.70244
 C16 C 0.02134 0.52183 0.72292
 C17 C 0.07810 0.44730 0.77350
 C18 C 0.07928 0.49335 0.73408
 C19 C -0.00023 0.49014 0.81889
 C20 C 0.00174 0.53853 0.78091
 H21 H -0.04514 0.39319 0.73446
 H22 H 0.02207 0.55783 0.69225
 H23 H 0.11715 0.42360 0.78917
 H24 H -0.01006 0.49479 0.86423
 C25 C 0.21866 0.01701 0.44230
 C26 C 0.25543 0.06991 0.45350
 C27 C 0.28759 0.06982 0.50428
 C28 C 0.28023 0.01528 0.54051
 C29 C 0.26222 -0.03397 0.44751
 C30 C 0.29405 -0.03628 0.49854
 C31 C 0.18168 0.01414 0.49583
 C32 C 0.21346 0.01319 0.54754
 H33 H 0.25560 0.10537 0.42398
 H34 H 0.30691 0.01454 0.58186
 H35 H 0.26481 -0.06786 0.41441
 H36 H 0.13450 0.01266 0.49272
 C37 C 0.77501 -0.01419 0.42566
 C38 C 0.73205 -0.05787 0.42645
 C39 C 0.69517 -0.05290 0.47426
 C40 C 0.70728 -0.00403 0.51289
 C41 C 0.73950 0.04241 0.42732
 C42 C 0.70420 0.04826 0.47296
 C43 C 0.80835 -0.01641 0.48467
 C44 C 0.77258 -0.01126 0.53026
 H45 H 0.73220 -0.09537 0.39754
 H46 H 0.67819 0.00079 0.55002
 H47 H 0.74415 0.07610 0.39646
 H48 H 0.85548 -0.02086 0.48981
 C49 C 0.42482 0.22012 1.00163
 C50 C 0.42471 0.26185 1.04885
 C51 C 0.47480 0.29677 1.05402
 C52 C 0.51539 0.28469 1.00636
 C53 C 0.43010 0.25321 0.95035
 C54 C 0.47956 0.28894 0.95132
 C55 C 0.48036 0.18724 1.00893
 C56 C 0.53095 0.22257 1.01029
 H57 H 0.39241 0.26149 1.08170
 H58 H 0.55349 0.31287 1.00847
 H59 H 0.40067 0.24799 0.91255
 H60 H 0.48369 0.14059 1.00864
 C61 C 0.44143 0.77875 0.99501
 C62 C 0.45251 0.72897 0.95211
 C63 C 0.50244 0.69736 0.96452
 C64 C 0.53697 0.71841 1.01931
 C65 C 0.44223 0.75025 1.05354
 C66 C 0.49182 0.71861 1.06686
 C67 C 0.49319 0.81219 0.99606
 C68 C 0.54605 0.77921 1.00900
 H69 H 0.42621 0.72225 0.91247
 H70 H 0.57730 0.69180 1.02940
 H71 H 0.40577 0.75447 1.08178
 H72 H 0.49202 0.85740 0.98544
 B73 B 0.98897 1.05069 0.02548
 B74 B 1.02679 0.98970 0.04525
 B75 B 0.95340 0.99340 0.04670
 B76 B 0.92602 1.03156 -0.01034
 B77 B 0.98385 1.05180 -0.04744
 B78 B 1.04607 1.02549 -0.01331
 B79 B 0.98231 0.93363 -0.05251
 B80 B 0.94454 0.99499 -0.07161
 B81 B 1.01862 0.99140 -0.07384
 B82 B 1.04455 0.95266 -0.01625
 B83 B 0.98796 0.93253 0.02125
 B84 B 0.92580 0.95855 -0.01309
 B85 B 0.57266 0.50615 0.47682
 B86 B 0.57533 0.50656 0.54961
 B87 B 0.54903 0.56583 0.51429
 B88 B 0.51085 0.54298 0.45375
 B89 B 0.51229 0.47058 0.45201
 B90 B 0.55172 0.44764 0.51177
 B91 B 0.45523 0.50892 0.54868
 B92 B 0.45226 0.50846 0.47537
 B93 B 0.47772 0.44874 0.51107
 B94 B 0.51711 0.47116 0.57159
 B95 B 0.51559 0.54388 0.57292
 B96 B 0.47572 0.56742 0.51375
 C97 C 0.99997 1.27976 0.12391
 N98 N 1.05116 1.29956 0.14659
 N99 N 1.05355 1.35254 0.16967
 C100 C 1.00508 1.38809 0.17031
 N101 N 0.95437 1.36892 0.14539
 N102 N 0.95183 1.31570 0.12268
 C103 C 0.99669 1.21996 0.10282
 N104 N 0.94435 1.19635 0.09002
 N105 N 0.94185 1.14234 0.06948
 C106 C 0.99148 1.10993 0.06106
 N107 N 1.04358 1.13334 0.07529
 N108 N 1.04622 1.18712 0.09620
 C109 C 0.99827 0.71217 0.13534
 N110 N 0.98259 0.70625 0.19091
 N111 N 0.98315 0.65426 0.21449
 C112 C 0.99879 0.60617 0.18317
 N113 N 1.01435 0.61233 0.12769
 N114 N 1.01432 0.66416 0.10437
 C115 C 0.99728 0.76915 0.10813
 N116 N 1.02301 0.77524 0.05700
 N117 N 1.02077 0.82585 0.03099
 C118 C 0.99211 0.87251 0.05445
 N119 N 0.96690 0.86644 0.10594
 N120 N 0.96949 0.81591 0.13236
 C121 C 1.00549 1.27808 -0.13413
 N122 N 1.04810 1.28665 -0.17099
 N123 N 1.05523 1.33869 -0.19106
 C124 C 1.02082 1.38475 -0.17452
 N125 N 0.97807 1.37608 -0.13720
 N126 N 0.97103 1.32373 -0.11681
 C127 C 0.99645 1.21991 -0.11520
 N128 N 0.95894 1.21070 -0.07329
 N129 N 0.95310 1.15776 -0.05456
 C130 C 0.98375 1.11207 -0.07728
 N131 N 1.02028 1.12123 -0.12026
 N132 N 1.02643 1.17424 -0.13895
 C133 C 0.98184 0.70739 -0.16157
 N134 N 0.96653 0.66353 -0.12836
 N135 N 0.97233 0.60896 -0.14716
 C136 C 0.99288 0.59605 -0.20034
 N137 N 1.00725 0.64014 -0.23390
 N138 N 1.00229 0.69471 -0.21476
 C139 C 0.97826 0.76710 -0.13876
 N140 N 1.01304 0.80802 -0.15783
 N141 N 1.01317 0.86054 -0.13283
 C142 C 0.97805 0.87426 -0.08834
 N143 N 0.94228 0.83366 -0.07076
 N144 N 0.94256 0.78114 -0.09508
 C145 C 1.13804 1.00403 0.27435
 N146 N 1.12793 0.96495 0.31509
 N147 N 1.15135 0.97042 0.36883
 C148 C 1.18531 1.01551 0.38414
 N149 N 1.19466 1.05490 0.34342
 N150 N 1.17133 1.04943 0.28975
 C151 C 1.11354 0.99752 0.21451
 N152 N 1.12472 1.03628 0.17388
 N153 N 1.10036 1.03208 0.12049
 C154 C 1.06407 0.98891 0.10538
 N155 N 1.05415 0.94939 0.14574
 N156 N 1.07848 0.95344 0.19916
 C157 C 1.13419 1.00060 -0.29230
 N158 N 1.19192 1.01150 -0.29410
 N159 N 1.21720 1.01535 -0.34476
 C160 C 1.18575 1.00884 -0.39574
 N161 N 1.12804 0.99803 -0.39378
 N162 N 1.10286 0.99389 -0.34323
 C163 C 1.10556 0.99667 -0.23629
 N164 N 1.04953 0.97999 -0.23501
 N165 N 1.02316 0.97745 -0.18491
 C166 C 1.05143 0.99168 -0.13384
 N167 N 1.10758 1.00820 -0.13521
 N168 N 1.13416 1.01049 -0.18527
 C169 C 0.86286 0.98465 0.27129
 N170 N 0.87565 1.02414 0.31386
 N171 N 0.85042 1.02257 0.36449
 C172 C 0.81201 0.98124 0.37403
 N173 N 0.80125 0.94076 0.33191
 N174 N 0.82623 0.94236 0.28150
 C175 C 0.88454 0.98905 0.21389
 N176 N 0.86292 0.95506 0.17007
 N177 N 0.88260 0.95811 0.11720
 C178 C 0.92453 0.99519 0.10651
 N179 N 0.94498 1.03032 0.15009
 N180 N 0.92514 1.02754 0.20300
 C181 C 0.83259 0.99642 -0.29722
 N182 N 0.86219 1.02155 -0.33863
 N183 N 0.84354 1.01828 -0.39393
 C184 C 0.79428 0.99033 -0.40947
 N185 N 0.76434 0.96558 -0.36803
 N186 N 0.78356 0.96799 -0.31278
 C187 C 0.85478 0.99872 -0.23725
 N188 N 0.84746 0.95445 -0.20148
 N189 N 0.87338 0.95415 -0.14869
 C190 C 0.90649 0.99856 -0.12967
 N191 N 0.91232 1.04338 -0.16505
 N192 N 0.88724 1.04334 -0.21803
 C193 C 1.26829 1.13523 -0.00728
 N194 N 1.31955 1.10492 0.00319
 N195 N 1.37034 1.13131 0.00590
 C196 C 1.37161 1.18914 -0.00162
 N197 N 1.32003 1.21906 -0.01176
 N198 N 1.26957 1.19274 -0.01470
 C199 C 1.21194 1.10707 -0.00985
 N200 N 1.16179 1.13731 -0.02482
 N201 N 1.11043 1.11230 -0.02626
 C202 C 1.10713 1.05616 -0.01247
 N203 N 1.15744 1.02617 0.00232
 N204 N 1.20884 1.05093 0.00358
 C205 C 0.69832 1.14957 0.00400
 N206 N 0.65282 1.11781 0.01793
 N207 N 0.59902 1.14156 0.02004
 C208 C 0.58843 1.19847 0.00965
 N209 N 0.63428 1.23051 -0.00342
 N210 N 0.68802 1.20644 -0.00670
 C211 C 0.75758 1.12219 0.00119
 N212 N 0.79390 1.13481 -0.04121
 N213 N 0.84603 1.10739 -0.04493
 C214 C 0.86459 1.06719 -0.00572
 N215 N 0.82818 1.05516 0.03675
 N216 N 0.77573 1.08160 0.03988
 C217 C 1.27457 0.85558 -0.02184
 N218 N 1.31141 0.87041 0.02314
 N219 N 1.36607 0.84939 0.02592
 C220 C 1.38551 0.81249 -0.01600
 N221 N 1.34915 0.79954 -0.06221
 N222 N 1.29459 0.82114 -0.06536
 C223 C 1.21364 0.87375 -0.02087
 N224 N 1.17989 0.87738 -0.07046
 N225 N 1.12521 0.89845 -0.06892
 C226 C 1.10253 0.91546 -0.01777
 N227 N 1.13556 0.90888 0.03190
 N228 N 1.19029 0.88850 0.03040
 C229 C 0.70640 0.84965 -0.00099
 N230 N 0.65668 0.88106 -0.01381
 N231 N 0.60489 0.85825 -0.00969
 C232 C 0.60075 0.80303 0.00699
 N233 N 0.65066 0.77157 0.01994
 N234 N 0.70262 0.79459 0.01630
 C235 C 0.76287 0.87548 -0.00584
 N236 N 0.81235 0.85072 0.01842
 N237 N 0.86316 0.87601 0.01549
 C238 C 0.86640 0.92653 -0.01222
 N239 N 0.81691 0.95067 -0.03703
 N240 N 0.76605 0.92577 -0.03374
 C241 C 0.80088 0.50609 0.37835
 N242 N 0.82945 0.45492 0.36858
 N243 N 0.87903 0.45241 0.34094
 C244 C 0.90257 0.50084 0.32195
 N245 N 0.87500 0.55255 0.33316
 N246 N 0.82506 0.55510 0.36106
 C247 C 0.74294 0.50677 0.40363
 N248 N 0.71383 0.55694 0.41695
 N249 N 0.66084 0.55647 0.43830
 C250 C 0.63410 0.50624 0.44618
 N251 N 0.66371 0.45618 0.43334
 N252 N 0.71681 0.45641 0.41227
 C253 C 0.21561 0.51235 0.37710
 N254 N 0.18824 0.55996 0.35358
 N255 N 0.13526 0.55677 0.32711
 C256 C 0.10768 0.50596 0.32383
 N257 N 0.13452 0.45922 0.34903
 N258 N 0.18713 0.46235 0.37525
 C259 C 0.27652 0.51247 0.40063
 N260 N 0.30461 0.46186 0.41474
 N261 N 0.35979 0.46054 0.43542
 C262 C 0.38956 0.50970 0.44240
 N263 N 0.36129 0.56044 0.42851
 N264 N 0.30607 0.56184 0.40744
 C265 C 0.81786 0.49673 0.62580
 N266 N 0.85063 0.54379 0.63671
 N267 N 0.90602 0.53775 0.65728
 C268 C 0.93041 0.48439 0.66756
 N269 N 0.89823 0.43781 0.65330
 N270 N 0.84337 0.44376 0.63287
 C271 C 0.75491 0.50129 0.61025
 N272 N 0.72318 0.45311 0.60902
 N273 N 0.66642 0.45547 0.59411
 C274 C 0.63876 0.50622 0.58036
 N275 N 0.67042 0.55464 0.58237
 N276 N 0.72728 0.55243 0.59759
 C277 C 0.23677 0.51808 0.66224
 N278 N 0.18803 0.54804 0.64195
 N279 N 0.13660 0.54218 0.66586
 C280 C 0.13243 0.50573 0.71047
 N281 N 0.18168 0.47723 0.73089
 N282 N 0.23259 0.48323 0.70751
 C283 C 0.29287 0.51894 0.63456
 N284 N 0.33861 0.48543 0.65547
 N285 N 0.38909 0.48245 0.62928
 C286 C 0.39577 0.51279 0.58100
 N287 N 0.35011 0.54671 0.56041
 N288 N 0.29946 0.54968 0.58649
 C289 C 0.50436 0.63847 0.22656
 N290 N 0.55324 0.64383 0.19626
 N291 N 0.54984 0.66799 0.14435
 C292 C 0.49739 0.68748 0.12139
 N293 N 0.44883 0.68105 0.15154
 N294 N 0.45216 0.65700 0.20301
 C295 C 0.50681 0.61496 0.28454
 N296 N 0.45705 0.61206 0.31366
 N297 N 0.45843 0.59129 0.36679
 C298 C 0.50964 0.57335 0.39313
 N299 N 0.55925 0.57582 0.36354
 N300 N 0.55810 0.59659 0.31039
 C301 C 0.53225 0.61191 0.81215
 N302 N 0.57362 0.64678 0.83574
 N303 N 0.56872 0.66874 0.88929
 C304 C 0.52286 0.65579 0.92104
 N305 N 0.48384 0.61803 0.89850
 N306 N 0.48853 0.59635 0.84514
 C307 C 0.52858 0.59846 0.75014
 N308 N 0.47649 0.58432 0.72475
 N309 N 0.47155 0.57228 0.66829
 C310 C 0.51828 0.57426 0.63483
 N311 N 0.57028 0.58947 0.66022
 N312 N 0.57523 0.60231 0.71674
 C313 C 0.49875 0.37587 0.21606
 N314 N 0.44612 0.35776 0.19612
 N315 N 0.43912 0.33493 0.14309
 C316 C 0.48403 0.32882 0.10669
 N317 N 0.53686 0.34871 0.12576
 N318 N 0.54401 0.37183 0.17949
 C319 C 0.50465 0.39780 0.27711
 N320 N 0.55475 0.42016 0.29988
 N321 N 0.55770 0.44052 0.35460
 C322 C 0.51123 0.43887 0.38916
 N323 N 0.46148 0.41606 0.36632
 N324 N 0.45837 0.39585 0.31172
 C325 C 0.51078 0.36476 0.79568
 N326 N 0.54863 0.37282 0.84242
 N327 N 0.53942 0.34920 0.89355
 C328 C 0.49163 0.31720 0.89977
 N329 N 0.45420 0.31040 0.85294
 N330 N 0.46346 0.33327 0.80239
 C331 C 0.51806 0.38911 0.73785
 N332 N 0.48262 0.37154 0.69251
 N333 N 0.48407 0.39528 0.64081
 C334 C 0.52083 0.43802 0.63192
 N335 N 0.55748 0.45476 0.67692
 N336 N 0.55623 0.43085 0.72889
 C337 C 0.61218 0.79985 0.50124
 N338 N 0.62412 0.83610 0.54711
 N339 N 0.64672 0.88718 0.53863
 C340 C 0.65862 0.90265 0.48417
 N341 N 0.64313 0.86761 0.43875
 N342 N 0.62015 0.81744 0.44706
 C343 C 0.59831 0.73996 0.50773
 N344 N 0.59680 0.70543 0.45965
 N345 N 0.58588 0.65017 0.46298
 C346 C 0.57700 0.62667 0.51450
 N347 N 0.57892 0.66123 0.56298
 N348 N 0.59025 0.71691 0.55991
 C349 C 0.63337 0.21314 0.49773
 N350 N 0.64711 0.18012 0.54447
 N351 N 0.66630 0.12554 0.53715
 C352 C 0.67177 0.10259 0.48291
 N353 N 0.65601 0.13523 0.43662
 N354 N 0.63698 0.18939 0.44388
 C355 C 0.61761 0.27419 0.50352
 N356 N 0.61161 0.30600 0.45518
 N357 N 0.59509 0.36128 0.45856
 C358 C 0.58464 0.38712 0.51043
 N359 N 0.59159 0.35544 0.55906
 N360 N 0.60834 0.29993 0.55581
 C361 C 0.38057 0.80292 0.51854
 N362 N 0.35294 0.82844 0.56406
 N363 N 0.32882 0.88177 0.55994
 C364 C 0.33194 0.91167 0.51035
 N365 N 0.36089 0.88645 0.46580
 N366 N 0.38490 0.83356 0.46990
 C367 C 0.40276 0.74205 0.51883
 N368 N 0.42418 0.71801 0.46965
 N369 N 0.44408 0.66343 0.46793
 C370 C 0.44307 0.62988 0.51498
 N371 N 0.42167 0.65389 0.56449
 N372 N 0.40140 0.70873 0.56628
 C373 C 0.37422 0.22445 0.52035
 N374 N 0.32984 0.21437 0.55542
 N375 N 0.30528 0.16303 0.55434
 C376 C 0.32472 0.11937 0.51890
 N377 N 0.36946 0.12944 0.48446
 N378 N 0.39409 0.18054 0.48562
 C379 C 0.39883 0.28250 0.51730
 N380 N 0.44295 0.29110 0.48166
 N381 N 0.46556 0.34286 0.47846
 C382 C 0.44506 0.38861 0.51042
 N383 N 0.39998 0.38030 0.54516
 N384 N 0.37726 0.32842 0.54849
   
