data_POSCAR
  _audit_creation_date              2014-09-24
  _audit_creation_method            'ToBaCCo'
  _symmetry_space_group_name_H-M    'P1'
  _symmetry_Int_Tables_number       1
  _symmetry_cell_setting            triclinic
  loop_
  _symmetry_equiv_pos_as_xyz
 x,y,z
_cell_length_a 36.2627
_cell_length_b 39.8616
_cell_length_c 37.3963
_cell_angle_alpha 90.021600
_cell_angle_beta 89.751500
_cell_angle_gamma 84.234600
loop_
  _atom_site_label
  _atom_site_type_symbol
  _atom_site_fract_x
  _atom_site_fract_y
  _atom_site_fract_z
C1 C 1.22352 0.22614 0.20851
 C2 C 1.24371 0.25022 0.18549
 C3 C 1.26469 0.27078 0.20409
 C4 C 1.26384 0.26475 0.24488
 C5 C 1.25407 0.20683 0.23071
 C6 C 1.27529 0.22675 0.24963
 C7 C 1.20159 0.24880 0.23619
 C8 C 1.22252 0.26913 0.25498
 H9 H 1.24204 0.24999 0.15662
 H10 H 1.28070 0.28089 0.26090
 H11 H 1.25688 0.17963 0.23339
 H12 H 1.17235 0.24826 0.24153
 C13 C 0.72400 -0.27375 0.19244
 C14 C 0.74352 -0.24653 0.17355
 C15 C 0.76327 -0.22802 0.19566
 C16 C 0.76161 -0.23837 0.23532
 C17 C 0.75458 -0.29465 0.21339
 C18 C 0.77416 -0.27638 0.23586
 C19 C 0.70059 -0.25500 0.22191
 C20 C 0.71996 -0.23639 0.24431
 H21 H 0.74240 -0.24278 0.14487
 H22 H 0.77793 -0.22349 0.25337
 H23 H 0.75708 -0.32194 0.21427
 H24 H 0.67124 -0.25684 0.22525
 C25 C 0.72789 0.22244 -0.30025
 C26 C 0.75115 0.24370 -0.32000
 C27 C 0.77214 0.26425 -0.29761
 C28 C 0.76562 0.25883 -0.25905
 C29 C 0.75291 0.20278 -0.27630
 C30 C 0.77413 0.22235 -0.25349
 C31 C 0.70523 0.24618 -0.27772
 C32 C 0.72537 0.26533 -0.25362
 H33 H 0.74900 0.24702 -0.34868
 H34 H 0.78252 0.27366 -0.24183
 H35 H 0.75321 0.17564 -0.27410
 H36 H 0.67653 0.25412 -0.28387
 C37 C 1.23524 -0.28075 -0.29661
 C38 C 1.25247 -0.25342 -0.31787
 C39 C 1.26983 -0.23159 -0.29743
 C40 C 1.26827 -0.23885 -0.25709
 C41 C 1.26718 -0.29755 -0.27387
 C42 C 1.28434 -0.27574 -0.25327
 C43 C 1.20979 -0.26128 -0.26918
 C44 C 1.22671 -0.23928 -0.24844
 H45 H 1.25211 -0.25230 -0.34682
 H46 H 1.28285 -0.22133 -0.24046
 H47 H 1.27327 -0.32442 -0.27053
 H48 H 1.18054 -0.26435 -0.26718
 C49 C 0.22546 0.22671 0.79151
 C50 C 0.24481 0.24905 0.81359
 C51 C 0.26723 0.27086 0.79442
 C52 C 0.26595 0.26545 0.75556
 C53 C 0.20352 0.24980 0.76437
 C54 C 0.22460 0.27024 0.74573
 C55 C 0.25570 0.20741 0.76856
 C56 C 0.27697 0.22747 0.74973
 H57 H 0.24398 0.24708 0.84239
 H58 H 0.28241 0.28125 0.73877
 H59 H 0.17431 0.24932 0.75909
 H60 H 0.25806 0.18029 0.76515
 C61 C 0.71948 0.72888 0.80833
 C62 C 0.74055 0.75216 0.82732
 C63 C 0.76242 0.77191 0.80494
 C64 C 0.75876 0.76362 0.76665
 C65 C 0.69772 0.74894 0.78203
 C66 C 0.71864 0.76908 0.75928
 C67 C 0.74631 0.70828 0.78681
 C68 C 0.76866 0.72683 0.76380
 H69 H 0.74192 0.75192 0.85621
 H70 H 0.77543 0.77834 0.74920
 H71 H 0.67016 0.74336 0.77477
 H72 H 0.74473 0.68144 0.78379
 C73 C 0.72296 0.22492 0.29635
 C74 C 0.74616 0.24691 0.31883
 C75 C 0.76829 0.26604 0.29953
 C76 C 0.76491 0.26130 0.25874
 C77 C 0.70151 0.24959 0.27054
 C78 C 0.72339 0.26856 0.25125
 C79 C 0.75104 0.20434 0.27211
 C80 C 0.77306 0.22315 0.25255
 H81 H 0.74353 0.24821 0.34764
 H82 H 0.78254 0.27653 0.24231
 H83 H 0.67211 0.25064 0.26546
 H84 H 0.75172 0.17726 0.26904
 C85 C 0.23395 0.71589 0.29397
 C86 C 0.25226 0.74131 0.31696
 C87 C 0.26898 0.76492 0.29814
 C88 C 0.26591 0.76067 0.25723
 C89 C 0.20787 0.73739 0.26902
 C90 C 0.22400 0.76121 0.24998
 C91 C 0.26517 0.70077 0.26925
 C92 C 0.28176 0.72402 0.24999
 H93 H 0.25336 0.73934 0.34581
 H94 H 0.27979 0.77941 0.24167
 H95 H 0.17920 0.73271 0.26587
 H96 H 0.27275 0.67417 0.26530
 N97 N 1.06719 0.02401 0.03738
 N98 N 1.09266 0.04490 0.04275
 N99 N 1.03616 -0.04163 0.06310
 N100 N 1.04346 -0.06252 0.09005
 N101 N 1.06237 -0.04594 0.03867
 N102 N 1.08803 -0.07007 0.04842
 N103 N 1.04120 0.02815 0.06194
 N104 N 1.04821 0.05198 0.08469
 C105 C 1.08036 0.06230 0.07231
 C106 C 1.07553 -0.08053 0.08031
 N107 N 0.93071 -0.02580 0.03726
 N108 N 0.90421 -0.04546 0.04370
 N109 N 0.96205 0.04021 0.06124
 N110 N 0.95678 0.06371 0.08597
 N111 N 0.93621 0.04425 0.03670
 N112 N 0.91240 0.07067 0.04442
 N113 N 0.95612 -0.02945 0.06228
 N114 N 0.94739 -0.05140 0.08656
 Mn115 Mn 0.99884 -0.00075 0.06239
 C116 C 0.91506 -0.06141 0.07448
 C117 C 0.92602 0.08282 0.07507
 N118 N 1.06350 -0.04694 -0.03864
 N119 N 1.08946 -0.07132 -0.04696
 N120 N 1.04285 0.02620 -0.06456
 N121 N 1.05019 0.04974 -0.08759
 N122 N 1.06815 0.02284 -0.03949
 N123 N 1.09344 0.04394 -0.04479
 N124 N 1.03784 -0.04379 -0.06346
 N125 N 1.04563 -0.06618 -0.08912
 Mn126 Mn 1.06562 -0.01158 -0.00052
 C127 C 1.07763 -0.08351 -0.07820
 C128 C 1.08182 0.06064 -0.07487
 N129 N 0.93727 0.04324 -0.04096
 N130 N 0.91389 0.06972 -0.04918
 N131 N 0.95784 -0.03157 -0.06426
 N132 N 0.94925 -0.05368 -0.08841
 N133 N 0.93143 -0.02658 -0.04011
 N134 N 0.90412 -0.04503 -0.04734
 N135 N 0.96335 0.03835 -0.06543
 N136 N 0.95852 0.06137 -0.09074
 Mn137 Mn 0.93347 0.00889 -0.00177
 Mn138 Mn 1.00046 -0.00279 -0.06475
 Cl139 Cl 0.99956 -0.00167 -0.00119
 C140 C 0.92783 0.08105 -0.08015
 C141 C 0.91575 -0.06206 -0.07737
 N142 N 0.94799 0.53683 0.43911
 N143 N 0.92635 0.54602 0.41179
 N144 N 1.02252 0.56123 0.46244
 N145 N 1.04654 0.58336 0.45688
 N146 N 1.02541 0.53786 0.43760
 N147 N 1.05150 0.54363 0.41422
 N148 N 0.94536 0.56050 0.46380
 N149 N 0.92217 0.58634 0.45351
 C150 C 0.90986 0.57667 0.42139
 C151 C 1.06454 0.57209 0.42681
 N152 N 1.02865 0.53916 0.56391
 N153 N 1.05517 0.54595 0.58612
 N154 N 0.94712 0.56126 0.54161
 N155 N 0.92498 0.58766 0.55261
 N156 N 0.95151 0.53845 0.56714
 N157 N 0.93268 0.54913 0.59593
 N158 N 1.02430 0.56211 0.53873
 N159 N 1.04770 0.58499 0.54294
 Mn160 Mn 0.98465 0.56141 0.50164
 C161 C 1.06694 0.57457 0.57245
 C162 C 0.91562 0.57948 0.58629
 N163 N 1.03478 0.46499 0.43810
 N164 N 1.05903 0.45724 0.41217
 N165 N 0.96119 0.44088 0.46529
 N166 N 0.94166 0.41563 0.45794
 N167 N 0.95730 0.46383 0.44001
 N168 N 0.93465 0.45479 0.41493
 N169 N 1.03830 0.44211 0.46342
 N170 N 1.06497 0.41828 0.45542
 Mn171 Mn 0.99135 0.50088 0.43839
 C172 C 1.07808 0.42824 0.42361
 C173 C 0.92477 0.42481 0.42680
 N174 N 0.96068 0.46494 0.56772
 N175 N 0.93768 0.45720 0.59333
 N176 N 1.04006 0.44287 0.54024
 N177 N 1.06685 0.41902 0.54755
 N178 N 1.03793 0.46633 0.56501
 N179 N 1.06320 0.45892 0.58989
 N180 N 0.96254 0.44205 0.54230
 N181 N 0.94046 0.41859 0.54955
 Mn182 Mn 0.99469 0.50221 0.56625
 Mn183 Mn 1.00051 0.44179 0.50285
 Cl184 Cl 0.99255 0.50158 0.50229
 C185 C 0.92488 0.42843 0.58126
 C186 C 1.08145 0.42955 0.57834
 N187 N 0.56616 0.02113 0.53546
 N188 N 0.59284 0.04080 0.54042
 N189 N 0.53475 -0.04358 0.56316
 N190 N 0.54342 -0.06281 0.59116
 N191 N 0.56048 -0.04858 0.53830
 N192 N 0.58710 -0.07148 0.54888
 N193 N 0.54094 0.02579 0.56069
 N194 N 0.55002 0.04849 0.58388
 C195 C 0.58228 0.05783 0.57063
 C196 C 0.57574 -0.08055 0.58168
 N197 N 0.42904 -0.02708 0.53844
 N198 N 0.40271 -0.04680 0.54531
 N199 N 0.46148 0.03907 0.56087
 N200 N 0.45693 0.06319 0.58504
 N201 N 0.43521 0.04284 0.53671
 N202 N 0.41188 0.06969 0.54412
 N203 N 0.45471 -0.03044 0.56323
 N204 N 0.44633 -0.05224 0.58779
 Mn205 Mn 0.49789 -0.00231 0.56224
 C206 C 0.41395 -0.06243 0.57614
 C207 C 0.42616 0.08239 0.57418
 N208 N 0.56029 -0.05061 0.46109
 N209 N 0.58622 -0.07493 0.45253
 N210 N 0.54040 0.02256 0.43439
 N211 N 0.54720 0.04678 0.41196
 N212 N 0.56593 0.01888 0.45918
 N213 N 0.59079 0.04041 0.45443
 N214 N 0.53456 -0.04727 0.43636
 N215 N 0.54227 -0.06950 0.41053
 Mn216 Mn 0.56344 -0.01490 0.49847
 C217 C 0.57428 -0.08693 0.42128
 C218 C 0.57880 0.05764 0.42487
 N219 N 0.43513 0.04081 0.45906
 N220 N 0.41236 0.06779 0.45120
 N221 N 0.45478 -0.03424 0.43667
 N222 N 0.44650 -0.05736 0.41359
 N223 N 0.42863 -0.02893 0.46103
 N224 N 0.40167 -0.04815 0.45492
 N225 N 0.46099 0.03556 0.43442
 N226 N 0.45666 0.05887 0.40937
 Mn227 Mn 0.43153 0.00701 0.49882
 Mn228 Mn 0.49764 -0.00590 0.43512
 Cl229 Cl 0.49756 -0.00416 0.49868
 C230 C 0.42643 0.07903 0.42025
 C231 C 0.41338 -0.06596 0.42538
 N232 N 0.56542 0.51922 0.03684
 N233 N 0.59020 0.54101 0.03990
 N234 N 0.53308 0.45459 0.06228
 N235 N 0.54066 0.43342 0.08898
 N236 N 0.55856 0.44987 0.03722
 N237 N 0.58404 0.42546 0.04626
 N238 N 0.53978 0.52432 0.06160
 N239 N 0.54643 0.54989 0.08229
 C240 C 0.57811 0.55997 0.06835
 C241 C 0.57219 0.41500 0.07831
 N242 N 0.42749 0.47274 0.03764
 N243 N 0.40043 0.45381 0.04453
 N244 N 0.46053 0.53784 0.06166
 N245 N 0.45725 0.56258 0.08519
 N246 N 0.43455 0.54233 0.03730
 N247 N 0.41263 0.57022 0.04388
 N248 N 0.45347 0.46815 0.06204
 N249 N 0.44503 0.44570 0.08587
 Mn250 Mn 0.49666 0.49621 0.06228
 C251 C 0.41194 0.43686 0.07455
 C252 C 0.42746 0.58276 0.07370
 N253 N 0.55934 0.44978 -0.03975
 N254 N 0.58602 0.42661 -0.04956
 N255 N 0.54042 0.52400 -0.06408
 N256 N 0.54658 0.55008 -0.08422
 N257 N 0.56581 0.51911 -0.03926
 N258 N 0.58992 0.54159 -0.04173
 N259 N 0.53404 0.45429 -0.06481
 N260 N 0.54297 0.43415 -0.09219
 Mn261 Mn 0.56248 0.48434 -0.00121
 C262 C 0.57512 0.41661 -0.08203
 C263 C 0.57770 0.56067 -0.06993
 N264 N 0.43501 0.54207 -0.04005
 N265 N 0.41317 0.56992 -0.04679
 N266 N 0.45419 0.46780 -0.06454
 N267 N 0.44596 0.44528 -0.08833
 N268 N 0.42800 0.47244 -0.04011
 N269 N 0.40112 0.45332 -0.04686
 N270 N 0.46124 0.53742 -0.06436
 N271 N 0.45821 0.56198 -0.08803
 Mn272 Mn 0.43074 0.50745 -0.00131
 Mn273 Mn 0.49740 0.49584 -0.06480
 Cl274 Cl 0.49673 0.49577 -0.00127
 C275 C 0.42831 0.58224 -0.07667
 C276 C 0.41285 0.43632 -0.07691
 C277 C 1.16112 0.16010 0.14459
 C278 C 1.19970 0.15370 0.14822
 C279 C 1.21954 0.17531 0.16827
 C280 C 1.20127 0.20351 0.18593
 C281 C 1.16288 0.21087 0.18046
 C282 C 1.14305 0.18924 0.16040
 C283 C 1.13971 0.13613 0.12503
 C284 C 1.10550 0.12794 0.13853
 C285 C 1.08601 0.10429 0.12110
 C286 C 1.10030 0.08831 0.08982
 C287 C 1.13416 0.09685 0.07592
 C288 C 1.15369 0.12051 0.09337
 H289 H 1.24929 0.16967 0.17031
 H290 H 1.14787 0.23343 0.19120
 H291 H 1.05997 0.09818 0.13243
 H292 H 1.14572 0.08504 0.05173
 H293 H 1.11351 0.19547 0.15701
 H294 H 1.09422 0.13921 0.16309
 H295 H 1.21451 0.13155 0.13621
 H296 H 1.17971 0.12664 0.08204
 C297 C 1.17037 0.65510 0.64006
 C298 C 1.16047 0.68998 0.64258
 C299 C 1.18229 0.71034 0.66201
 C300 C 1.21438 0.69638 0.67977
 C301 C 1.22526 0.66162 0.67543
 C302 C 1.20330 0.64125 0.65612
 C303 C 1.14585 0.63319 0.62157
 C304 C 1.13801 0.60247 0.63691
 C305 C 1.11289 0.58291 0.62064
 C306 C 1.09531 0.59371 0.58873
 C307 C 1.10398 0.62391 0.57288
 C308 C 1.12893 0.64348 0.58918
 H309 H 1.17353 0.73707 0.66406
 H310 H 1.25048 0.64957 0.68671
 H311 H 1.10669 0.55972 0.63338
 H312 H 1.09103 0.63276 0.54813
 H313 H 1.21209 0.61455 0.65371
 H314 H 1.15044 0.59409 0.66206
 H315 H 1.13519 0.70139 0.63046
 H316 H 1.13488 0.66678 0.57652
 C317 C 0.66759 0.15313 0.64112
 C318 C 0.65190 0.17024 0.67111
 C319 C 0.67140 0.19263 0.69001
 C320 C 0.70667 0.20068 0.67842
 C321 C 0.72247 0.18326 0.64824
 C322 C 0.70315 0.15992 0.62981
 C323 C 0.64690 0.12775 0.62272
 C324 C 0.64962 0.12294 0.58548
 C325 C 0.62888 0.09988 0.56847
 C326 C 0.60450 0.08184 0.58826
 C327 C 0.60189 0.08635 0.62532
 C328 C 0.62328 0.10859 0.64243
 H329 H 0.65858 0.20294 0.71433
 H330 H 0.75023 0.18701 0.63938
 H331 H 0.63128 0.09668 0.53975
 H332 H 0.58379 0.07219 0.64119
 H333 H 0.71655 0.14655 0.60733
 H334 H 0.66715 0.13742 0.56937
 H335 H 0.62444 0.16617 0.68050
 H336 H 0.62135 0.11057 0.67125
 C337 C 0.66028 0.66345 0.12679
 C338 C 0.64379 0.69428 0.14013
 C339 C 0.66472 0.71552 0.15946
 C340 C 0.70234 0.70580 0.16699
 C341 C 0.71942 0.67639 0.15063
 C342 C 0.69856 0.65528 0.13111
 C343 C 0.63750 0.63903 0.11002
 C344 C 0.65034 0.62097 0.07947
 C345 C 0.63052 0.59575 0.06561
 C346 C 0.59755 0.58799 0.08212
 C347 C 0.58407 0.60668 0.11204
 C348 C 0.60387 0.63204 0.12586
 H349 H 0.65106 0.73918 0.16909
 H350 H 0.74878 0.66905 0.15375
 H351 H 0.64138 0.58195 0.04226
 H352 H 0.55864 0.60127 0.12516
 H353 H 0.71214 0.63186 0.12066
 H354 H 0.67593 0.62614 0.06650
 H355 H 0.61457 0.70174 0.13598
 H356 H 0.59355 0.64540 0.14967
 C357 C 0.82749 -0.15383 0.14921
 C358 C 0.78987 -0.15467 0.14049
 C359 C 0.76886 -0.17818 0.15633
 C360 C 0.78465 -0.20104 0.18183
 C361 C 0.82158 -0.19935 0.19201
 C362 C 0.84292 -0.17617 0.17565
 C363 C 0.85049 -0.13037 0.13005
 C364 C 0.87938 -0.11593 0.14753
 C365 C 0.90074 -0.09395 0.12934
 C366 C 0.89337 -0.08550 0.09343
 C367 C 0.86469 -0.09988 0.07588
 C368 C 0.84375 -0.12225 0.09383
 H369 H 0.74021 -0.17868 0.14845
 H370 H 0.83440 -0.21693 0.21144
 H371 H 0.92259 -0.08307 0.14360
 H372 H 0.85862 -0.09406 0.04810
 H373 H 0.87183 -0.17661 0.18288
 H374 H 0.88517 -0.12112 0.17546
 H375 H 0.77656 -0.13726 0.12119
 H376 H 0.82249 -0.13346 0.07907
 C377 C 0.83627 0.33691 0.65533
 C378 C 0.83026 0.30697 0.63736
 C379 C 0.80952 0.28323 0.65304
 C380 C 0.79474 0.28795 0.68780
 C381 C 0.80237 0.31714 0.70661
 C382 C 0.82240 0.34146 0.69041
 C383 C 0.85676 0.36294 0.63709
 C384 C 0.87921 0.38348 0.65634
 C385 C 0.90009 0.40617 0.63846
 C386 C 0.89953 0.40822 0.60099
 C387 C 0.87640 0.38860 0.58186
 C388 C 0.85486 0.36671 0.59966
 H389 H 0.80618 0.26057 0.63795
 H390 H 0.79117 0.32253 0.73304
 H391 H 0.91797 0.42092 0.65375
 H392 H 0.87517 0.39005 0.55296
 H393 H 0.82604 0.36427 0.70513
 H394 H 0.88175 0.38126 0.68508
 H395 H 0.84183 0.30152 0.61103
 H396 H 0.83695 0.35249 0.58383
 C397 C 0.32991 -0.15655 0.65220
 C398 C 0.29311 -0.16041 0.64241
 C399 C 0.27344 -0.18441 0.65918
 C400 C 0.28973 -0.20462 0.68670
 C401 C 0.32582 -0.20008 0.69759
 C402 C 0.34587 -0.17655 0.68029
 C403 C 0.35162 -0.13232 0.63269
 C404 C 0.37873 -0.11560 0.65036
 C405 C 0.39931 -0.09327 0.63185
 C406 C 0.39278 -0.08660 0.59545
 C407 C 0.36567 -0.10297 0.57774
 C408 C 0.34561 -0.12583 0.59602
 H409 H 0.24540 -0.18721 0.65066
 H410 H 0.33905 -0.21568 0.71854
 H411 H 0.41989 -0.08075 0.64621
 H412 H 0.36033 -0.09848 0.54959
 H413 H 0.37425 -0.17482 0.68831
 H414 H 0.38378 -0.11934 0.67864
 H415 H 0.27936 -0.14491 0.62171
 H416 H 0.32574 -0.13873 0.58114
 C417 C 0.32692 0.34358 0.15073
 C418 C 0.29517 0.33246 0.13499
 C419 C 0.27473 0.30960 0.15262
 C420 C 0.28585 0.29632 0.18620
 C421 C 0.31751 0.30744 0.20209
 C422 C 0.33760 0.33096 0.18474
 C423 C 0.34881 0.36787 0.13149
 C424 C 0.38751 0.36662 0.13567
 C425 C 0.40795 0.38916 0.11730
 C426 C 0.39034 0.41297 0.09374
 C427 C 0.35188 0.41421 0.08921
 C428 C 0.33129 0.39224 0.10819
 H429 H 0.25006 0.30250 0.13968
 H430 H 0.32735 0.29767 0.22766
 H431 H 0.43766 0.38760 0.12112
 H432 H 0.33758 0.43265 0.07152
 H433 H 0.36146 0.33927 0.19814
 H434 H 0.40224 0.34789 0.15267
 H435 H 0.28622 0.34098 0.10867
 H436 H 0.30152 0.39473 0.10481
 C437 C 0.84679 0.17335 -0.17654
 C438 C 0.83093 0.20645 -0.17037
 C439 C 0.80797 0.22338 -0.19617
 C440 C 0.79942 0.20701 -0.22815
 C441 C 0.81597 0.17388 -0.23401
 C442 C 0.83942 0.15750 -0.20876
 C443 C 0.87017 0.15431 -0.14953
 C444 C 0.90422 0.13712 -0.15986
 C445 C 0.92373 0.11459 -0.13653
 C446 C 0.90941 0.10843 -0.10246
 C447 C 0.87626 0.12691 -0.09135
 C448 C 0.85686 0.14984 -0.11468
 H449 H 0.79545 0.24848 -0.18988
 H450 H 0.81170 0.16053 -0.25860
 H451 H 0.94932 0.10096 -0.14580
 H452 H 0.86468 0.12277 -0.06517
 H453 H 0.85131 0.13196 -0.21416
 H454 H 0.91511 0.14032 -0.18653
 H455 H 0.83622 0.21913 -0.14557
 H456 H 0.83052 0.16267 -0.10624
 C457 C 0.83576 0.66664 0.31695
 C458 C 0.81219 0.69565 0.32612
 C459 C 0.79393 0.71562 0.29953
 C460 C 0.79859 0.70674 0.26336
 C461 C 0.82340 0.67880 0.25407
 C462 C 0.84199 0.65913 0.28052
 C463 C 0.85280 0.64355 0.34499
 C464 C 0.85702 0.60846 0.33927
 C465 C 0.87451 0.58668 0.36463
 C466 C 0.88778 0.59939 0.39655
 C467 C 0.88236 0.63426 0.40306
 C468 C 0.86519 0.65614 0.37748
 H469 H 0.77454 0.73683 0.30736
 H470 H 0.82762 0.67165 0.22629
 H471 H 0.87810 0.55989 0.35902
 H472 H 0.89254 0.64477 0.42738
 H473 H 0.86079 0.63763 0.27239
 H474 H 0.84688 0.59772 0.31506
 H475 H 0.80654 0.70211 0.35386
 H476 H 0.86264 0.68298 0.38272
 C477 C 0.35060 0.17685 0.32542
 C478 C 0.32808 0.20625 0.33533
 C479 C 0.30507 0.22388 0.31013
 C480 C 0.30380 0.21205 0.27483
 C481 C 0.32733 0.18351 0.26466
 C482 C 0.35054 0.16619 0.28959
 C483 C 0.37217 0.15570 0.35233
 C484 C 0.40771 0.14034 0.34382
 C485 C 0.42586 0.11645 0.36668
 C486 C 0.40893 0.10735 0.39861
 C487 C 0.37429 0.12398 0.40817
 C488 C 0.35608 0.14797 0.38524
 H489 H 0.28692 0.24569 0.31863
 H490 H 0.32692 0.17398 0.23755
 H491 H 0.45274 0.10435 0.35877
 H492 H 0.36064 0.11753 0.43267
 H493 H 0.36717 0.14347 0.28114
 H494 H 0.42107 0.14615 0.31894
 H495 H 0.32776 0.21516 0.36270
 H496 H 0.32860 0.15918 0.39241
 C497 C 0.35737 0.68059 -0.17245
 C498 C 0.33118 0.70793 -0.16402
 C499 C 0.30883 0.72374 -0.19080
 C500 C 0.31201 0.71207 -0.22621
 C501 C 0.33934 0.68588 -0.23487
 C502 C 0.36184 0.67037 -0.20831
 C503 C 0.37764 0.66043 -0.14408
 C504 C 0.41470 0.64750 -0.14953
 C505 C 0.43173 0.62333 -0.12639
 C506 C 0.41212 0.61167 -0.09722
 C507 C 0.37600 0.62635 -0.09015
 C508 C 0.35885 0.65052 -0.11345
 H509 H 0.28771 0.74377 -0.18351
 H510 H 0.34237 0.67660 -0.26206
 H511 H 0.45983 0.61279 -0.13217
 H512 H 0.36033 0.61786 -0.06777
 H513 H 0.38141 0.64913 -0.21563
 H514 H 0.43005 0.65512 -0.17255
 H515 H 0.32733 0.71643 -0.13663
 H516 H 0.33017 0.65988 -0.10870
 C517 C 1.16564 -0.17635 -0.17025
 C518 C 1.19764 -0.16587 -0.18626
 C519 C 1.21778 -0.18642 -0.21135
 C520 C 1.20655 -0.21805 -0.22052
 C521 C 1.17517 -0.22888 -0.20339
 C522 C 1.15476 -0.20812 -0.17883
 C523 C 1.14289 -0.15379 -0.14557
 C524 C 1.10458 -0.14706 -0.15114
 C525 C 1.08320 -0.12456 -0.12888
 C526 C 1.09966 -0.10892 -0.10027
 C527 C 1.13780 -0.11638 -0.09410
 C528 C 1.15931 -0.13837 -0.11680
 H529 H 1.24139 -0.17698 -0.22430
 H530 H 1.16623 -0.25345 -0.20887
 H531 H 1.05386 -0.11920 -0.13419
 H532 H 1.15119 -0.10452 -0.07230
 H533 H 1.13045 -0.21689 -0.16642
 H534 H 1.09139 -0.15856 -0.17331
 H535 H 1.20636 -0.14130 -0.18020
 H536 H 1.18877 -0.14338 -0.11192
 C537 C 1.17221 0.33895 0.33291
 C538 C 1.20007 0.34853 0.30991
 C539 C 1.21735 0.32548 0.28528
 C540 C 1.20659 0.29269 0.28288
 C541 C 1.17931 0.28294 0.30636
 C542 C 1.16240 0.30577 0.33116
 C543 C 1.15196 0.36357 0.35760
 C544 C 1.14326 0.35391 0.39251
 C545 C 1.12049 0.37557 0.41444
 C546 C 1.10575 0.40730 0.40188
 C547 C 1.11575 0.41764 0.36757
 C548 C 1.13874 0.39599 0.34565
 H549 H 1.23821 0.33362 0.26734
 H550 H 1.17084 0.25767 0.30539
 H551 H 1.11349 0.36699 0.44086
 H552 H 1.10485 0.44199 0.35724
 H553 H 1.14079 0.29774 0.34828
 H554 H 1.15348 0.32927 0.40259
 H555 H 1.20831 0.37389 0.31084
 H556 H 1.14480 0.40401 0.31878
 C557 C 0.66292 -0.17766 0.32775
 C558 C 0.65171 -0.20903 0.31812
 C559 C 0.67126 -0.22872 0.29218
 C560 C 0.70205 -0.21715 0.27475
 C561 C 0.71418 -0.18634 0.28546
 C562 C 0.69484 -0.16679 0.31189
 C563 C 0.64010 -0.15566 0.35286
 C564 C 0.65635 -0.14074 0.38203
 C565 C 0.63463 -0.11928 0.40510
 C566 C 0.59648 -0.11189 0.39888
 C567 C 0.58021 -0.12705 0.36987
 C568 C 0.60178 -0.14898 0.34723
 H569 H 0.66188 -0.25287 0.28552
 H570 H 0.73763 -0.17665 0.27243
 H571 H 0.64788 -0.10776 0.42721
 H572 H 0.55088 -0.12171 0.36451
 H573 H 0.70387 -0.14256 0.31890
 H574 H 0.68581 -0.14571 0.38694
 H575 H 0.62757 -0.21815 0.33049
 H576 H 0.58873 -0.16008 0.32472
 C577 C 0.66650 0.32941 -0.17719
 C578 C 0.64981 0.30367 -0.19417
 C579 C 0.66954 0.28256 -0.21855
 C580 C 0.70684 0.28653 -0.22730
 C581 C 0.72413 0.31154 -0.20878
 C582 C 0.70407 0.33281 -0.18406
 C583 C 0.64392 0.35260 -0.15291
 C584 C 0.65719 0.36094 -0.11920
 C585 C 0.63456 0.38129 -0.09578
 C586 C 0.59846 0.39382 -0.10587
 C587 C 0.58541 0.38572 -0.13970
 C588 C 0.60789 0.36532 -0.16296
 H589 H 0.65516 0.26254 -0.22972
 H590 H 0.75255 0.31588 -0.21399
 H591 H 0.64538 0.38736 -0.06988
 H592 H 0.55784 0.39524 -0.14828
 H593 H 0.71761 0.35251 -0.17109
 H594 H 0.68472 0.35120 -0.11073
 H595 H 0.62128 0.29966 -0.18837
 H596 H 0.59713 0.35955 -0.18898
 C597 C 1.16268 0.15941 -0.14599
 C598 C 1.20132 0.15323 -0.14960
 C599 C 1.22124 0.17525 -0.16915
 C600 C 1.20304 0.20370 -0.18627
 C601 C 1.16454 0.21077 -0.18083
 C602 C 1.14462 0.18869 -0.16132
 C603 C 1.14125 0.13508 -0.12686
 C604 C 1.10741 0.12662 -0.14070
 C605 C 1.08790 0.10269 -0.12358
 C606 C 1.10180 0.08677 -0.09225
 C607 C 1.13530 0.09559 -0.07805
 C608 C 1.15486 0.11947 -0.09521
 H609 H 1.25102 0.16974 -0.17126
 H610 H 1.14951 0.23343 -0.19114
 H611 H 1.06214 0.09638 -0.13513
 H612 H 1.14657 0.08383 -0.05382
 H613 H 1.11501 0.19470 -0.15794
 H614 H 1.09644 0.13792 -0.16526
 H615 H 1.21611 0.13096 -0.13796
 H616 H 1.18060 0.12580 -0.08364
 C617 C 1.16871 0.64994 0.35534
 C618 C 1.19833 0.63582 0.33415
 C619 C 1.22029 0.65646 0.31492
 C620 C 1.21297 0.69189 0.31626
 C621 C 1.18377 0.70580 0.33828
 C622 C 1.16191 0.68518 0.35744
 C623 C 1.14429 0.62820 0.37457
 C624 C 1.13135 0.63694 0.40911
 C625 C 1.10612 0.61812 0.42626
 C626 C 1.09334 0.59007 0.40933
 C627 C 1.10717 0.58051 0.37532
 C628 C 1.13242 0.59945 0.35806
 H629 H 1.24247 0.64409 0.29903
 H630 H 1.17733 0.73289 0.33999
 H631 H 1.09622 0.62588 0.45265
 H632 H 1.09775 0.55898 0.36170
 H633 H 1.13900 0.69689 0.37319
 H634 H 1.14052 0.65854 0.42280
 H635 H 1.20457 0.60872 0.33248
 H636 H 1.14168 0.59226 0.33132
 C637 C 0.65919 0.15885 0.35859
 C638 C 0.69793 0.15296 0.35621
 C639 C 0.71817 0.17496 0.33708
 C640 C 0.70016 0.20302 0.31924
 C641 C 0.66152 0.20997 0.32368
 C642 C 0.64129 0.18793 0.34281
 C643 C 0.63747 0.13422 0.37662
 C644 C 0.60458 0.12515 0.36123
 C645 C 0.58513 0.10054 0.37715
 C646 C 0.59826 0.08459 0.40870
 C647 C 0.63069 0.09413 0.42448
 C648 C 0.65013 0.11870 0.40858
 H649 H 0.74800 0.16954 0.33543
 H650 H 0.64648 0.23232 0.31274
 H651 H 0.56017 0.09365 0.36448
 H652 H 0.64128 0.08239 0.44898
 H653 H 0.61156 0.19367 0.34531
 H654 H 0.59441 0.13645 0.33638
 H655 H 0.71254 0.13078 0.36824
 H656 H 0.67509 0.12555 0.42128
 C657 C 0.65683 0.66709 -0.12625
 C658 C 0.69537 0.66007 -0.12950
 C659 C 0.71593 0.68125 -0.14934
 C660 C 0.69834 0.70951 -0.16748
 C661 C 0.66019 0.71834 -0.16054
 C662 C 0.63965 0.69703 -0.14078
 C663 C 0.63451 0.64214 -0.10974
 C664 C 0.60195 0.63386 -0.12641
 C665 C 0.58292 0.60774 -0.11312
 C666 C 0.59617 0.58955 -0.08294
 C667 C 0.62795 0.59862 -0.06552
 C668 C 0.64697 0.62466 -0.07882
 H669 H 0.74555 0.67464 -0.15173
 H670 H 0.64572 0.74136 -0.17081
 H671 H 0.55838 0.60131 -0.12691
 H672 H 0.63852 0.58521 -0.04193
 H673 H 0.61015 0.70371 -0.13729
 H674 H 0.59198 0.64672 -0.15053
 H675 H 0.70947 0.63736 -0.11807
 H676 H 0.67171 0.63085 -0.06522
 C677 C 0.82785 -0.15520 -0.14972
 C678 C 0.79992 -0.16868 -0.12996
 C679 C 0.77840 -0.19194 -0.14512
 C680 C 0.78431 -0.20352 -0.18065
 C681 C 0.81251 -0.18983 -0.20052
 C682 C 0.83387 -0.16604 -0.18526
 C683 C 0.85040 -0.13017 -0.13277
 C684 C 0.88841 -0.12995 -0.14050
 C685 C 0.90966 -0.10758 -0.12284
 C686 C 0.89347 -0.08527 -0.09678
 C687 C 0.85550 -0.08511 -0.08941
 C688 C 0.83418 -0.10697 -0.10742
 H689 H 0.75645 -0.19985 -0.12853
 H690 H 0.81938 -0.19784 -0.22751
 H691 H 0.93892 -0.10820 -0.12905
 H692 H 0.84214 -0.06784 -0.06986
 H693 H 0.85502 -0.15604 -0.20146
 H694 H 0.90200 -0.14763 -0.15951
 H695 H 0.79467 -0.16149 -0.10235
 H696 H 0.80485 -0.10561 -0.10140
 C697 C 0.83637 0.33501 0.35067
 C698 C 0.82650 0.30617 0.36856
 C699 C 0.80524 0.28364 0.35170
 C700 C 0.79219 0.28964 0.31670
 C701 C 0.80169 0.31860 0.29879
 C702 C 0.82372 0.34090 0.31548
 C703 C 0.85982 0.35846 0.36894
 C704 C 0.85514 0.39349 0.36253
 C705 C 0.87658 0.41525 0.38086
 C706 C 0.90248 0.40246 0.40644
 C707 C 0.90741 0.36762 0.41261
 C708 C 0.88677 0.34588 0.39378
 H709 H 0.79924 0.26139 0.36629
 H710 H 0.79172 0.32447 0.27208
 H711 H 0.87234 0.44208 0.37568
 H712 H 0.92769 0.35702 0.43174
 H713 H 0.83102 0.36260 0.30065
 H714 H 0.83442 0.40422 0.34395
 H715 H 0.83487 0.30099 0.39590
 H716 H 0.89220 0.31909 0.39869
 C717 C 0.32916 -0.16093 0.35122
 C718 C 0.29904 -0.17415 0.36807
 C719 C 0.27914 -0.19747 0.35057
 C720 C 0.28915 -0.20887 0.31590
 C721 C 0.31908 -0.19554 0.29888
 C722 C 0.33864 -0.17172 0.31619
 C723 C 0.35078 -0.13643 0.37030
 C724 C 0.38914 -0.13627 0.36433
 C725 C 0.40937 -0.11338 0.38221
 C726 C 0.39195 -0.09048 0.40700
 C727 C 0.35383 -0.09074 0.41342
 C728 C 0.33342 -0.11320 0.39505
 H729 H 0.25584 -0.20654 0.36442
 H730 H 0.32808 -0.20391 0.27246
 H731 H 0.43881 -0.11385 0.37692
 H732 H 0.33964 -0.07311 0.43215
 H733 H 0.36120 -0.16176 0.30198
 H734 H 0.40377 -0.15416 0.34618
 H735 H 0.29108 -0.16698 0.39515
 H736 H 0.30388 -0.11195 0.39994
 C737 C 0.32895 0.34208 -0.15228
 C738 C 0.30204 0.32572 -0.13405
 C739 C 0.28174 0.30279 -0.15161
 C740 C 0.28788 0.29474 -0.18816
 C741 C 0.31513 0.31136 -0.20630
 C742 C 0.33514 0.33467 -0.18868
 C743 C 0.35047 0.36656 -0.13318
 C744 C 0.38802 0.36891 -0.14146
 C745 C 0.40822 0.39159 -0.12319
 C746 C 0.39151 0.41217 -0.09595
 C747 C 0.35412 0.40984 -0.08749
 C748 C 0.33376 0.38750 -0.10606
 H749 H 0.26068 0.29225 -0.13596
 H750 H 0.32225 0.30626 -0.23392
 H751 H 0.43708 0.39276 -0.13017
 H752 H 0.34044 0.42563 -0.06684
 H753 H 0.35540 0.34706 -0.20378
 H754 H 0.40204 0.35284 -0.16168
 H755 H 0.29672 0.33036 -0.10589
 H756 H 0.30476 0.38698 -0.09938
 C757 C 1.16117 -0.17170 0.17631
 C758 C 1.19981 -0.17840 0.17251
 C759 C 1.22027 -0.19994 0.19635
 C760 C 1.20267 -0.21523 0.22476
 C761 C 1.16406 -0.20795 0.22878
 C762 C 1.14362 -0.18689 0.20473
 C763 C 1.13913 -0.14866 0.15123
 C764 C 1.10822 -0.12770 0.16373
 C765 C 1.08717 -0.10629 0.14043
 C766 C 1.09684 -0.10478 0.10414
 C767 C 1.12773 -0.12548 0.09145
 C768 C 1.14854 -0.14737 0.11471
 H769 H 1.24979 -0.20464 0.19205
 H770 H 1.14927 -0.21821 0.25073
 H771 H 1.06375 -0.09032 0.15107
 H772 H 1.13573 -0.12481 0.06354
 H773 H 1.11389 -0.18278 0.20836
 H774 H 1.10055 -0.12732 0.19174
 H775 H 1.21441 -0.16670 0.15132
 H776 H 1.17176 -0.16350 0.10398
 C777 C 1.17560 0.34018 0.66776
 C778 C 1.16524 0.30719 0.66974
 C779 C 1.18169 0.28433 0.69457
 C780 C 1.20900 0.29387 0.71792
 C781 C 1.22030 0.32645 0.71530
 C782 C 1.20353 0.34953 0.69061
 C783 C 1.15573 0.36490 0.64314
 C784 C 1.14309 0.39751 0.65505
 C785 C 1.12013 0.41921 0.63340
 C786 C 1.10953 0.40872 0.59942
 C787 C 1.12382 0.37682 0.58679
 C788 C 1.14661 0.35513 0.60844
 H789 H 1.17284 0.25920 0.69566
 H790 H 1.24123 0.33442 0.73312
 H791 H 1.10958 0.44370 0.64377
 H792 H 1.11637 0.36814 0.56060
 H793 H 1.21218 0.37473 0.68950
 H794 H 1.14948 0.40563 0.68175
 H795 H 1.14355 0.29934 0.65277
 H796 H 1.15643 0.33034 0.59836
 C797 C 0.66301 -0.16565 0.68175
 C798 C 0.70165 -0.17345 0.67964
 C799 C 0.72045 -0.19472 0.70503
 C800 C 0.70096 -0.20894 0.73314
 C801 C 0.66219 -0.20038 0.73492
 C802 C 0.64368 -0.17967 0.70956
 C803 C 0.64225 -0.14278 0.65572
 C804 C 0.61194 -0.12069 0.66751
 C805 C 0.59019 -0.10106 0.64327
 C806 C 0.59861 -0.10237 0.60665
 C807 C 0.62954 -0.12355 0.59471
 C808 C 0.65109 -0.14375 0.61904
 H809 H 0.74998 -0.20025 0.70165
 H810 H 0.64543 -0.20869 0.75649
 H811 H 0.56697 -0.08449 0.65336
 H812 H 0.63672 -0.12483 0.56657
 H813 H 0.61385 -0.17470 0.71187
 H814 H 0.60491 -0.11851 0.69563
 H815 H 0.71743 -0.16282 0.65858
 H816 H 0.67407 -0.16065 0.60905
 C817 C 0.66554 0.33204 0.17432
 C818 C 0.68650 0.30217 0.16339
 C819 C 0.70731 0.28227 0.18826
 C820 C 0.70762 0.29215 0.22417
 C821 C 0.68793 0.32246 0.23495
 C822 C 0.66716 0.34238 0.21017
 C823 C 0.64085 0.35168 0.14886
 C824 C 0.60519 0.36503 0.15966
 C825 C 0.58227 0.38463 0.13623
 C826 C 0.59458 0.39122 0.10158
 C827 C 0.62972 0.37697 0.09033
 C828 C 0.65267 0.35735 0.11378
 H829 H 0.72154 0.25837 0.17987
 H830 H 0.68766 0.33007 0.26278
 H831 H 0.55524 0.39520 0.14552
 H832 H 0.63991 0.38172 0.06373
 H833 H 0.65178 0.36556 0.21918
 H834 H 0.59505 0.36041 0.18631
 H835 H 0.68542 0.29343 0.13604
 H836 H 0.68005 0.34744 0.10480
 C837 C 0.84591 0.17439 0.17329
 C838 C 0.84361 0.16060 0.20767
 C839 C 0.82073 0.17699 0.23364
 C840 C 0.79994 0.20774 0.22594
 C841 C 0.80335 0.22230 0.19202
 C842 C 0.82580 0.20552 0.16570
 C843 C 0.86831 0.15528 0.14546
 C844 C 0.85292 0.14858 0.11208
 C845 C 0.87225 0.12606 0.08814
 C846 C 0.90729 0.11020 0.09724
 C847 C 0.92348 0.11866 0.12967
 C848 C 0.90414 0.14083 0.15357
 H849 H 0.81894 0.16541 0.25971
 H850 H 0.78773 0.24603 0.18543
 H851 H 0.85919 0.12006 0.06327
 H852 H 0.95062 0.10713 0.13729
 H853 H 0.82736 0.21670 0.13942
 H854 H 0.82521 0.15936 0.10534
 H855 H 0.85867 0.13653 0.21413
 H856 H 0.91674 0.14593 0.17896
 C857 C 0.83956 0.67123 0.68887
 C858 C 0.82923 0.65692 0.72115
 C859 C 0.80772 0.67586 0.74615
 C860 C 0.79446 0.70981 0.73961
 C861 C 0.80630 0.72479 0.70791
 C862 C 0.82838 0.70562 0.68275
 C863 C 0.86093 0.64955 0.66184
 C864 C 0.85412 0.65354 0.62495
 C865 C 0.87196 0.63090 0.60017
 C866 C 0.89633 0.60352 0.61187
 C867 C 0.90367 0.59992 0.64851
 C868 C 0.88667 0.62287 0.67308
 H869 H 0.80175 0.66334 0.77085
 H870 H 0.79722 0.75066 0.70130
 H871 H 0.86614 0.63435 0.57195
 H872 H 0.92306 0.57955 0.65822
 H873 H 0.83636 0.71766 0.65837
 H874 H 0.83427 0.67354 0.61530
 H875 H 0.83690 0.63055 0.72698
 H876 H 0.89366 0.61952 0.70104
 C877 C 0.34984 0.17880 0.67058
 C878 C 0.35120 0.16783 0.70631
 C879 C 0.32867 0.18469 0.73227
 C880 C 0.30454 0.21311 0.72324
 C881 C 0.30425 0.22515 0.68795
 C882 C 0.32650 0.20791 0.66170
 C883 C 0.37119 0.15835 0.64282
 C884 C 0.35424 0.14954 0.61084
 C885 C 0.37263 0.12588 0.58744
 C886 C 0.40827 0.11077 0.59563
 C887 C 0.42594 0.12116 0.62649
 C888 C 0.40762 0.14463 0.64981
 H889 H 0.32931 0.17496 0.75933
 H890 H 0.28552 0.24683 0.68034
 H891 H 0.35839 0.11840 0.56379
 H892 H 0.45357 0.11027 0.63335
 H893 H 0.32505 0.21696 0.63439
 H894 H 0.32608 0.15957 0.60489
 H895 H 0.36854 0.14528 0.71392
 H896 H 0.42156 0.15132 0.67396
 C897 C 0.35620 0.68245 0.16880
 C898 C 0.36203 0.67367 0.20489
 C899 C 0.33924 0.68898 0.23158
 C900 C 0.31024 0.71351 0.22284
 C901 C 0.30573 0.72395 0.18718
 C902 C 0.32846 0.70844 0.16029
 C903 C 0.37645 0.66186 0.14045
 C904 C 0.35744 0.65091 0.11056
 C905 C 0.37467 0.62644 0.08745
 C906 C 0.41107 0.61241 0.09399
 C907 C 0.43084 0.62500 0.12238
 C908 C 0.41377 0.64955 0.14527
 H909 H 0.34313 0.68052 0.25896
 H910 H 0.28318 0.74243 0.17980
 H911 H 0.35885 0.61722 0.06569
 H912 H 0.45916 0.61497 0.12771
 H913 H 0.32349 0.71589 0.13275
 H914 H 0.32857 0.65967 0.10627
 H915 H 0.38276 0.65347 0.21239
 H916 H 0.42937 0.65797 0.16762
   
