data_POSCAR
  _audit_creation_date              2014-09-24
  _audit_creation_method            'ToBaCCo'
  _symmetry_space_group_name_H-M    'P1'
  _symmetry_Int_Tables_number       1
  _symmetry_cell_setting            triclinic
  loop_
  _symmetry_equiv_pos_as_xyz
 x,y,z
_cell_length_a 33.9530
_cell_length_b 36.1048
_cell_length_c 33.5710
_cell_angle_alpha 89.227700
_cell_angle_beta 89.566100
_cell_angle_gamma 90.338100
loop_
  _atom_site_label
  _atom_site_type_symbol
  _atom_site_fract_x
  _atom_site_fract_y
  _atom_site_fract_z
C1 C 0.19304 0.20673 0.24638
 N2 N 0.22529 0.18904 0.23195
 C3 C 0.24072 0.19843 0.19571
 N4 N 0.22406 0.22632 0.17415
 C5 C 0.19289 0.24522 0.18905
 N6 N 0.17714 0.23504 0.22491
 C7 C -0.18786 0.79172 0.25003
 N8 N -0.21983 0.80919 0.23473
 C9 C -0.23731 0.79679 0.20115
 N10 N -0.22329 0.76580 0.18346
 C11 C -0.19237 0.74716 0.19946
 N12 N -0.17425 0.76062 0.23230
 C13 C -0.18667 0.20159 -0.25560
 N14 N -0.21788 0.18273 -0.23952
 C15 C -0.23460 0.19383 -0.20482
 N16 N -0.22081 0.22476 -0.18693
 C17 C -0.19078 0.24465 -0.20364
 N18 N -0.17324 0.23260 -0.23754
 C19 C 0.18560 0.80092 -0.23868
 N20 N 0.17096 0.77108 -0.21830
 C21 C 0.18632 0.76109 -0.18249
 N22 N 0.21570 0.78168 -0.16661
 C23 C 0.23090 0.81129 -0.18699
 N24 N 0.21598 0.82059 -0.22322
 C25 C 0.19492 1.19084 0.76814
 N26 N 0.17433 1.21984 0.78314
 C27 C 0.18576 1.23571 0.81785
 N28 N 0.21820 1.22291 0.83694
 C29 C 0.23966 1.19510 0.82129
 N30 N 0.22769 1.17891 0.78724
 C31 C 0.80044 0.80290 0.75384
 N32 N 0.81992 0.77383 0.77049
 C33 C 0.80548 0.75656 0.80373
 N34 N 0.77173 0.76890 0.82072
 C35 C 0.75159 0.79731 0.80391
 N36 N 0.76593 0.81423 0.77037
 C37 C 0.20818 0.80601 1.24018
 N38 N 0.18827 0.77550 1.22810
 C39 C 0.20216 0.75493 1.19757
 N40 N 0.23632 0.76495 1.17893
 C41 C 0.25674 0.79515 1.19116
 N42 N 0.24240 0.81579 1.22150
 C43 C 0.79600 1.19811 1.23613
 N44 N 0.81159 1.23191 1.22688
 C45 C 0.79603 1.25298 1.19710
 N46 N 0.76434 1.24012 1.17672
 C47 C 0.74806 1.20672 1.18644
 N48 N 0.76417 1.18575 1.21588
 O49 O 0.53938 0.96372 0.92606
 O50 O 0.47854 0.95508 1.06789
 O51 O 0.60397 0.98101 1.03026
 O52 O 0.41890 0.99029 0.96142
 O53 O 0.54968 0.96863 1.06737
 O54 O 0.46547 0.96372 0.92846
 O55 O 0.43800 0.95487 1.01946
 O56 O 0.56297 0.94612 0.98428
 C57 C 0.55865 0.94085 0.94740
 C58 C 0.45116 0.93980 1.04987
 C59 C 0.58698 0.96480 1.06119
 C60 C 0.42967 0.96696 0.93638
 O61 O 0.46497 1.03816 0.92954
 O62 O 0.53064 1.04211 1.06625
 O63 O 0.58708 1.00987 0.95696
 O64 O 0.40465 1.01405 1.03602
 O65 O 0.45976 1.02885 1.06917
 O66 O 0.53904 1.03778 0.92703
 O67 O 0.44394 1.05210 0.98974
 O68 O 0.57150 1.04155 1.01740
 Co69 Co 0.50230 1.00076 0.93335
 Co70 Co 0.50456 0.99868 1.06103
 Co71 Co 0.56247 0.99387 1.00273
 Co72 Co 0.44548 1.00342 1.00613
 O73 O 0.50379 0.99936 0.99654
 C74 C 0.44649 1.05957 0.95293
 C75 C 0.55867 1.05666 1.04775
 C76 C 0.57514 1.03412 0.93284
 C77 C 0.42202 1.03077 1.06562
 O78 O 0.05112 0.47311 0.05461
 O79 O 0.03523 0.53467 -0.07018
 O80 O 0.00578 0.42133 -0.03327
 O81 O 0.00931 0.59047 0.03819
 O82 O 0.03608 0.46348 -0.07102
 O83 O 0.04205 0.54115 0.05822
 O84 O 0.04704 0.55507 -0.01111
 O85 O 0.01456 0.42630 0.03755
 C86 C 0.04692 0.43904 0.04991
 C87 C 0.05535 0.55415 -0.04734
 C88 C 0.03180 0.43053 -0.05904
 C89 C 0.03454 0.57549 0.06309
 O90 O -0.03357 0.52903 0.08061
 O91 O -0.03857 0.46304 -0.07910
 O92 O -0.06169 0.45650 0.04196
 O93 O -0.02159 0.57582 -0.03480
 O94 O -0.04204 0.53209 -0.07376
 O95 O -0.01934 0.46163 0.08600
 O96 O -0.05415 0.55422 0.02709
 O97 O -0.06935 0.44631 -0.02589
 Co98 Co 0.00818 0.50096 0.06319
 Co99 Co -0.00252 0.49852 -0.06650
 Co100 Co -0.02617 0.44206 0.00537
 Co101 Co -0.00375 0.55100 0.00882
 O102 O -0.00724 0.49632 -0.00091
 C103 C -0.05896 0.54808 0.06306
 C104 C -0.06692 0.44686 -0.06263
 C105 C -0.05311 0.45194 0.07692
 C106 C -0.04238 0.56516 -0.06314
 O107 O 1.07271 0.03806 0.46221
 O108 O 0.93632 0.03957 0.52896
 O109 O 0.96823 0.01394 0.39707
 O110 O 1.04253 0.01222 0.59353
 O111 O 0.94172 0.03853 0.45172
 O112 O 1.06910 0.03538 0.53713
 O113 O 0.99239 0.04991 0.55963
 O114 O 1.01778 0.05010 0.43213
 C115 C 1.05240 0.05901 0.44029
 C116 C 0.95705 0.05865 0.55259
 C117 C 0.94172 0.03472 0.41369
 C118 C 1.06953 0.03224 0.57544
 O119 O 1.07416 -0.03891 0.53249
 O120 O 0.93396 -0.03514 0.45588
 O121 O 1.04854 -0.00951 0.40913
 O122 O 0.96303 -0.01212 0.58061
 O123 O 0.93257 -0.03441 0.52948
 O124 O 1.07028 -0.03751 0.46103
 O125 O 1.01947 -0.04802 0.56182
 O126 O 0.99019 -0.04774 0.42971
 Co127 Co 1.06624 -0.00076 0.49757
 Co128 Co 0.94193 0.00199 0.49195
 Co129 Co 1.00289 0.00109 0.43505
 Co130 Co 1.00843 0.00100 0.55535
 O131 O 1.00456 -0.00154 0.49509
 C132 C 1.05339 -0.05834 0.55521
 C133 C 0.95480 -0.05598 0.43488
 C134 C 1.07116 -0.03281 0.42407
 C135 C 0.93753 -0.03326 0.56643
 C136 C 1.13459 0.16083 0.34268
 N137 N 1.11779 0.18846 0.32099
 N138 N 1.13747 0.20467 0.29086
 C139 C 1.17435 0.19335 0.28085
 N140 N 1.19123 0.16609 0.30299
 N141 N 1.17184 0.15035 0.33344
 C142 C 1.11199 0.13954 0.37275
 N143 N 1.13129 0.11794 0.39946
 N144 N 1.11164 0.09409 0.42282
 C145 C 1.07193 0.09061 0.42021
 N146 N 1.05238 0.11277 0.39408
 N147 N 1.07207 0.13698 0.37090
 C148 C 0.87347 -0.15691 0.33893
 N149 N 0.88924 -0.18648 0.32011
 N150 N 0.86882 -0.20417 0.29224
 C151 C 0.83225 -0.19248 0.28172
 N152 N 0.81659 -0.16307 0.30082
 N153 N 0.83666 -0.14586 0.32904
 C154 C 0.89600 -0.13517 0.36772
 N155 N 0.93602 -0.13307 0.36615
 N156 N 0.95549 -0.10905 0.38884
 C157 C 0.93554 -0.08666 0.41412
 N158 N 0.89574 -0.08960 0.41627
 N159 N 0.87636 -0.11321 0.39345
 C160 C 0.87431 0.15532 0.65175
 N161 N 0.83797 0.14262 0.66230
 N162 N 0.81789 0.15816 0.69179
 C163 C 0.83309 0.18746 0.71149
 N164 N 0.86913 0.20081 0.70028
 N165 N 0.88957 0.18478 0.67118
 C166 C 0.89723 0.13524 0.62191
 N167 N 0.87807 0.11441 0.59486
 N168 N 0.89787 0.09180 0.57121
 C169 C 0.93757 0.08876 0.57388
 N170 N 0.95701 0.11008 0.60048
 N171 N 0.93715 0.13313 0.62395
 C172 C 1.12911 -0.15567 0.66097
 N173 N 1.16763 -0.14791 0.66785
 N174 N 1.18596 -0.16262 0.69916
 C175 C 1.16659 -0.18606 0.72455
 N176 N 1.12827 -0.19447 0.71726
 N177 N 1.10977 -0.17935 0.68618
 C178 C 1.10815 -0.13553 0.62929
 N179 N 1.06834 -0.13172 0.63064
 N180 N 1.05018 -0.10876 0.60537
 C181 C 1.07116 -0.08915 0.57757
 N182 N 1.11075 -0.09390 0.57554
 N183 N 1.12890 -0.11655 0.60094
 C184 C 0.32711 1.13423 1.14584
 N185 N 0.30959 1.16159 1.12437
 N186 N 0.28261 1.18322 1.14097
 C187 C 0.27152 1.17791 1.17957
 N188 N 0.28938 1.15076 1.20123
 N189 N 0.31682 1.12942 1.18473
 C190 C 0.35345 1.10815 1.12579
 N191 N 0.38185 1.08920 1.14577
 N192 N 0.40450 1.06476 1.12687
 C193 C 0.39881 1.05798 1.08761
 N194 N 0.37037 1.07685 1.06792
 N195 N 0.34834 1.10162 1.08653
 C196 C 0.31686 0.87548 0.86348
 N197 N 0.30719 0.88048 0.82463
 N198 N 0.27930 0.85966 0.80818
 C199 C 0.26062 0.83264 0.82979
 N200 N 0.27081 0.82735 0.86850
 N201 N 0.29814 0.84862 0.88513
 C202 C 0.34631 0.89927 0.88217
 N203 N 0.34175 0.90949 0.92067
 N204 N 0.36817 0.93146 0.93773
 C205 C 0.40044 0.94341 0.91713
 N206 N 0.40525 0.93291 0.87872
 N207 N 0.37841 0.91151 0.86140
 C208 C 0.67922 0.86148 1.14649
 N209 N 0.69069 0.86864 1.18425
 N210 N 0.71713 0.84716 1.20230
 C211 C 0.73268 0.81741 1.18350
 N212 N 0.72037 0.80976 1.14609
 N213 N 0.69444 0.83159 1.12780
 C214 C 0.65369 0.88739 1.12476
 N215 N 0.65889 0.89252 1.08499
 N216 N 0.63759 0.91734 1.06512
 C217 C 0.60984 0.93762 1.08409
 N218 N 0.60412 0.93221 1.12384
 N219 N 0.62603 0.90779 1.14393
 C220 C 0.68239 1.12829 0.85150
 N221 N 0.69905 1.15725 0.87057
 N222 N 0.72514 1.17913 0.85185
 C223 C 0.73611 1.17243 0.81363
 N224 N 0.71940 1.14338 0.79460
 N225 N 0.69270 1.12193 0.81307
 C226 C 0.65454 1.10372 0.87249
 N227 N 0.62253 1.09003 0.85358
 N228 N 0.59707 1.06791 0.87291
 C229 C 0.60327 1.05806 0.91151
 N230 N 0.63551 1.07141 0.93029
 N231 N 0.66053 1.09413 0.91120
 C232 C 0.14217 0.33203 0.12403
 N233 N 0.14290 0.33262 0.16445
 N234 N 0.15906 0.30494 0.18512
 C235 C 0.17560 0.27590 0.16611
 N236 N 0.17537 0.27551 0.12566
 N237 N 0.15855 0.30289 0.10499
 C238 C 0.12159 0.36124 0.10173
 N239 N 0.10188 0.35316 0.06787
 N240 N 0.07941 0.37857 0.05016
 C241 C 0.07657 0.41321 0.06515
 N242 N 0.09707 0.42154 0.09845
 N243 N 0.11898 0.39595 0.11655
 C244 C -0.15031 0.34057 -0.14871
 N245 N -0.13628 0.33093 -0.18507
 N246 N -0.14937 0.30049 -0.20274
 C247 C -0.17692 0.27857 -0.18462
 N248 N -0.19127 0.28842 -0.14845
 N249 N -0.17805 0.31878 -0.13070
 C250 C -0.13306 0.37202 -0.12775
 N251 N -0.14148 0.37759 -0.08869
 N252 N -0.12199 0.40313 -0.06827
 C253 C -0.09362 0.42420 -0.08630
 N254 N -0.08600 0.41930 -0.12562
 N255 N -0.10537 0.39369 -0.14598
 C256 C 0.14412 0.66647 -0.12263
 N257 N 0.13672 0.67209 -0.16192
 N258 N 0.15005 0.70230 -0.18088
 C259 C 0.17148 0.72799 -0.16128
 N260 N 0.17925 0.72227 -0.12202
 N261 N 0.16553 0.69218 -0.10292
 C262 C 0.12672 0.63426 -0.10179
 N263 N 0.12320 0.63307 -0.06142
 N264 N 0.10257 0.60602 -0.04333
 C265 C 0.08519 0.57903 -0.06502
 N266 N 0.08985 0.57972 -0.10520
 N267 N 0.11019 0.60677 -0.12322
 C268 C -0.14992 0.65107 0.14582
 N269 N -0.17675 0.67271 0.12695
 N270 N -0.19071 0.70302 0.14425
 C271 C -0.17797 0.71309 0.18083
 N272 N -0.15131 0.69134 0.19976
 N273 N -0.13757 0.66091 0.18260
 C274 C -0.13160 0.61967 0.12535
 N275 N -0.10653 0.59688 0.14510
 N276 N -0.08564 0.57172 0.12552
 C277 C -0.08903 0.56838 0.08545
 N278 N -0.11491 0.59052 0.06587
 N279 N -0.13600 0.61551 0.08548
 C280 C 1.15075 0.12863 0.67703
 N281 N 1.18277 0.11733 0.69764
 N282 N 1.19787 0.13835 0.72605
 C283 C 1.18110 0.17117 0.73556
 N284 N 1.14918 0.18267 0.71466
 N285 N 1.13445 0.16188 0.68570
 C286 C 1.13209 0.10365 0.64860
 N287 N 1.11287 0.11703 0.61618
 N288 N 1.09430 0.09403 0.59176
 C289 C 1.09382 0.05698 0.59929
 N290 N 1.11284 0.04366 0.63177
 N291 N 1.13204 0.06655 0.65572
 C292 C 0.85477 -0.13249 0.66805
 N293 N 0.81632 -0.12697 0.67748
 N294 N 0.79827 -0.14851 0.70463
 C295 C 0.81782 -0.17675 0.72277
 N296 N 0.85597 -0.18280 0.71242
 N297 N 0.87420 -0.16087 0.68585
 C298 C 0.87590 -0.10679 0.64125
 N299 N 0.91390 -0.09761 0.64878
 N300 N 0.93322 -0.07363 0.62524
 C301 C 0.91541 -0.05839 0.59297
 N302 N 0.87749 -0.06780 0.58515
 N303 N 0.85789 -0.09127 0.60919
 C304 C 1.15733 -0.12650 0.32322
 N305 N 1.14322 -0.16122 0.31748
 N306 N 1.16004 -0.18325 0.29087
 C307 C 1.19208 -0.17164 0.26955
 N308 N 1.20668 -0.13712 0.27595
 N309 N 1.18936 -0.11480 0.30201
 C310 C 1.13698 -0.10159 0.35049
 N311 N 1.13198 -0.06534 0.34061
 N312 N 1.11113 -0.04326 0.36416
 C313 C 1.09519 -0.05654 0.39873
 N314 N 1.10067 -0.09265 0.40887
 N315 N 1.12084 -0.11489 0.38495
 C316 C 0.85215 0.12951 0.31566
 N317 N 0.86216 0.16590 0.31274
 N318 N 0.84368 0.18831 0.28726
 C319 C 0.81399 0.17529 0.26431
 N320 N 0.80352 0.13900 0.26788
 N321 N 0.82251 0.11645 0.29280
 C322 C 0.87413 0.10444 0.34184
 N323 N 0.88174 0.06921 0.33054
 N324 N 0.90328 0.04688 0.35348
 C325 C 0.91728 0.05880 0.38884
 N326 N 0.90926 0.09387 0.40037
 N327 N 0.88838 0.11643 0.37708
 C328 C 0.12122 0.31836 -0.13077
 N329 N 0.11350 0.30768 -0.16857
 N330 N 0.13421 0.28070 -0.18535
 C331 C 0.16392 0.26401 -0.16517
 N332 N 0.17181 0.27509 -0.12753
 N333 N 0.15063 0.30152 -0.11050
 C334 C 0.09824 0.34759 -0.11200
 N335 N 0.08937 0.34567 -0.07251
 N336 N 0.06817 0.37213 -0.05545
 C337 C 0.05594 0.40182 -0.07715
 N338 N 0.06516 0.40390 -0.11653
 N339 N 0.08569 0.37710 -0.13375
 C340 C -0.14787 0.34868 0.16020
 N341 N -0.13365 0.32846 0.19122
 N342 N -0.15247 0.29797 0.20395
 C343 C -0.18604 0.28641 0.18596
 N344 N -0.20057 0.30705 0.15539
 N345 N -0.18183 0.33755 0.14277
 C346 C -0.12508 0.37966 0.14271
 N347 N -0.13868 0.39736 0.10977
 N348 N -0.11626 0.42200 0.09029
 C349 C -0.07941 0.43009 0.10303
 N350 N -0.06602 0.41314 0.13662
 N351 N -0.08851 0.38834 0.15614
 C352 C -0.13362 0.67208 -0.14268
 N353 N -0.12291 0.68459 -0.17952
 N354 N -0.14266 0.71204 -0.19704
 C355 C -0.17417 0.72749 -0.17858
 N356 N -0.18514 0.71449 -0.14198
 N357 N -0.16498 0.68755 -0.12418
 C358 C -0.11071 0.64359 -0.12225
 N359 N -0.10606 0.64490 -0.08221
 N360 N -0.08425 0.61975 -0.06342
 C361 C -0.06702 0.59201 -0.08392
 N362 N -0.07203 0.59039 -0.12393
 N363 N -0.09326 0.61598 -0.14286
 C364 C 0.13184 0.67185 0.14940
 N365 N 0.11597 0.69807 0.17310
 N366 N 0.13872 0.72377 0.18946
 C367 C 0.17810 0.72452 0.18226
 N368 N 0.19406 0.69822 0.15864
 N369 N 0.17134 0.67216 0.14270
 C370 C 0.10620 0.64551 0.12906
 N371 N 0.12032 0.61278 0.11572
 N372 N 0.09715 0.58983 0.09560
 C373 C 0.05931 0.59913 0.08763
 N374 N 0.04525 0.63182 0.10094
 N375 N 0.06819 0.65447 0.12157
 C376 C 0.33919 1.15414 0.87872
 N377 N 0.31286 1.17510 0.89890
 N378 N 0.28148 1.18896 0.88042
 C379 C 0.27509 1.18181 0.84136
 N380 N 0.30155 1.16107 0.82123
 N381 N 0.33306 1.14758 0.83955
 C382 C 0.37147 1.13531 0.89923
 N383 N 0.39890 1.11717 0.87755
 N384 N 0.42469 1.09501 0.89531
 C385 C 0.42403 1.09008 0.93543
 N386 N 0.39734 1.10908 0.95737
 N387 N 0.37155 1.13145 0.93955
 C388 C 0.35445 0.83653 1.12843
 N389 N 0.34999 0.84301 1.16793
 N390 N 0.31940 0.82892 1.18816
 C391 C 0.29238 0.80744 1.16973
 N392 N 0.29728 0.80020 1.13041
 N393 N 0.32759 0.81477 1.11001
 C394 C 0.38462 0.85701 1.10549
 N395 N 0.37915 0.86499 1.06627
 N396 N 0.40236 0.88952 1.04734
 C397 C 0.43220 0.90653 1.06683
 N398 N 0.43855 0.89741 1.10559
 N399 N 0.41512 0.87322 1.12460
 C400 C 0.65491 1.16011 1.12335
 N401 N 0.65892 1.15356 1.16300
 N402 N 0.68816 1.16910 1.18313
 C403 C 0.71420 1.19223 1.16451
 N404 N 0.70982 1.19945 1.12496
 N405 N 0.68089 1.18337 1.10463
 C406 C 0.62554 1.13898 1.10097
 N407 N 0.63175 1.13069 1.06208
 N408 N 0.60871 1.10617 1.04392
 C409 C 0.57831 1.08949 1.06386
 N410 N 0.57137 1.09883 1.10229
 N411 N 0.59461 1.12297 1.12053
 C412 C 0.65641 0.84360 0.86430
 N413 N 0.67999 0.81865 0.88282
 N414 N 0.70950 0.80292 0.86304
 C415 C 0.71677 0.81189 0.82424
 N416 N 0.69295 0.83656 0.80563
 N417 N 0.66322 0.85201 0.82528
 C418 C 0.62680 0.86424 0.88674
 N419 N 0.60119 0.88638 0.86704
 N420 N 0.57782 0.90916 0.88693
 C421 C 0.57925 0.91083 0.92725
 N422 N 0.60425 0.88809 0.94716
 N423 N 0.62754 0.86506 0.92721
   
