data_POSCAR
  _audit_creation_date              2014-09-24
  _audit_creation_method            'ToBaCCo'
  _symmetry_space_group_name_H-M    'P1'
  _symmetry_Int_Tables_number       1
  _symmetry_cell_setting            triclinic
  loop_
  _symmetry_equiv_pos_as_xyz
 x,y,z
_cell_length_a 41.7691
_cell_length_b 42.5049
_cell_length_c 26.6887
_cell_angle_alpha 89.927600
_cell_angle_beta 90.080900
_cell_angle_gamma 119.570000
loop_
  _atom_site_label
  _atom_site_type_symbol
  _atom_site_fract_x
  _atom_site_fract_y
  _atom_site_fract_z
C1 C 0.45115 0.90286 0.49975
 C2 C 0.45563 0.92137 0.54518
 C3 C 0.47351 0.95945 0.54434
 C4 C 0.48928 0.97915 0.49997
 C5 C 0.48544 0.95964 0.45554
 C6 C 0.46536 0.92168 0.45470
 C7 C 0.50967 1.01983 0.50006
 C8 C 0.51273 1.03951 0.45598
 C9 C 0.53299 1.07760 0.45510
 C10 C 0.54795 1.09611 0.50031
 C11 C 0.54424 1.07730 0.54511
 C12 C 0.52628 1.03934 0.54420
 H13 H 0.43648 0.87358 0.49930
 H14 H 0.47490 0.97368 0.57850
 H15 H 0.49821 0.97379 0.42126
 H16 H 0.49919 1.02527 0.42207
 H17 H 0.56262 1.12540 0.50079
 H18 H 0.52557 1.02521 0.57821
 C19 C 0.09819 0.55304 0.50340
 C20 C 0.07885 0.54773 0.54854
 C21 C 0.04010 0.52844 0.54726
 C22 C 0.02063 0.51174 0.50293
 C23 C 0.04110 0.51654 0.45874
 C24 C 0.07962 0.53817 0.45825
 C25 C -0.02074 0.48931 0.50305
 C26 C -0.04135 0.48342 0.45861
 C27 C -0.07998 0.46150 0.45820
 C28 C -0.09827 0.44773 0.50401
 C29 C -0.07865 0.45415 0.54901
 C30 C -0.04004 0.47358 0.54778
 H31 H 0.12795 0.56882 0.50328
 H32 H 0.02523 0.52662 0.58119
 H33 H 0.02737 0.50334 0.42441
 H34 H -0.02750 0.49603 0.42407
 H35 H -0.12803 0.43190 0.50482
 H36 H -0.02528 0.47614 0.58214
 C37 C 0.45671 0.55536 0.49644
 C38 C 0.46012 0.54060 0.54203
 C39 C 0.47665 0.51861 0.54165
 C40 C 0.49217 0.51349 0.49753
 C41 C 0.48967 0.53017 0.45306
 C42 C 0.47074 0.54975 0.45171
 C43 C 0.51070 0.49078 0.49763
 C44 C 0.51415 0.47493 0.45296
 C45 C 0.53299 0.45522 0.45195
 C46 C 0.54601 0.44876 0.49707
 C47 C 0.54165 0.46278 0.54253
 C48 C 0.52521 0.48475 0.54216
 H49 H 0.44293 0.57126 0.49555
 H50 H 0.47706 0.50529 0.57592
 H51 H 0.50245 0.52816 0.41900
 H52 H 0.50214 0.47761 0.41851
 H53 H 0.55966 0.43274 0.49679
 H54 H 0.52414 0.49726 0.57683
 O55 O 0.38654 0.67161 -0.06417
 O56 O 0.38803 0.73253 -0.04664
 C57 C 0.36363 0.73724 -0.06845
 O58 O 0.33013 0.72121 -0.05541
 O59 O 0.26938 0.66136 -0.03786
 C60 C 0.26467 0.63459 -0.06451
 O61 O 0.28161 0.61717 -0.05687
 O62 O 0.34276 0.61544 -0.04613
 C63 C 0.36921 0.63800 -0.07310
 O64 O 0.39238 0.66206 0.03517
 O65 O 0.39098 0.72153 0.05271
 C66 C 0.37328 0.73724 0.06575
 O67 O 0.34404 0.73223 0.04395
 O68 O 0.28473 0.67095 0.06149
 C69 C 0.26863 0.63734 0.07044
 O70 O 0.27274 0.61499 0.04348
 O71 O 0.33598 0.61746 0.05423
 C72 C 0.37040 0.63519 0.06186
 Cr73 Cr 0.38748 0.69594 -0.00558
 Cr74 Cr 0.30809 0.69546 0.00290
 Cr75 Cr 0.30925 0.61822 -0.00132
 O76 O 0.33497 0.66994 -0.00134
 O77 O 0.61002 0.33656 -0.04710
 O78 O 0.61328 0.27743 -0.05930
 C79 C 0.63144 0.26119 -0.06620
 O80 O 0.65787 0.26547 -0.03803
 O81 O 0.71859 0.32640 -0.05043
 C82 C 0.73470 0.35971 -0.06146
 O83 O 0.72898 0.38273 -0.03854
 O84 O 0.66746 0.38152 -0.05813
 C85 C 0.63386 0.36437 -0.07045
 O86 O 0.60778 0.32638 0.05302
 O87 O 0.60735 0.26546 0.04079
 C88 C 0.62951 0.26121 0.06896
 O89 O 0.66398 0.27747 0.06201
 O90 O 0.72660 0.33662 0.04968
 C91 C 0.73065 0.36442 0.07297
 O92 O 0.71429 0.38157 0.06057
 O93 O 0.65395 0.38271 0.04095
 C94 C 0.62510 0.35971 0.06392
 Cr95 Cr 0.61163 0.30244 -0.00300
 Cr96 Cr 0.69073 0.30248 0.00566
 Cr97 Cr 0.69016 0.38013 0.00122
 O98 O 0.66421 0.32841 0.00130
 N99 N 0.43826 0.90147 -0.32185
 C100 C 0.42204 0.86490 -0.32161
 N101 N 0.41623 0.84712 -0.36567
 N102 N 0.42656 0.86535 -0.40867
 C103 C 0.44312 0.90210 -0.40939
 N104 N 0.44858 0.91971 -0.36491
 C105 C 0.41215 0.84512 -0.27533
 C106 C 0.40394 0.82773 -0.23711
 C107 C 0.39408 0.80611 -0.19246
 N108 N 0.41954 0.80104 -0.16766
 N109 N 0.40999 0.77951 -0.12762
 C110 C 0.37464 0.76231 -0.11109
 N111 N 0.34926 0.76759 -0.13592
 N112 N 0.35881 0.78910 -0.17595
 N113 N 0.09773 0.56402 -0.31812
 C114 C 0.13501 0.58133 -0.31738
 N115 N 0.15356 0.58844 -0.36125
 N116 N 0.13541 0.57827 -0.40455
 C117 C 0.09797 0.56053 -0.40577
 N118 N 0.07957 0.55386 -0.36149
 C119 C 0.15474 0.59033 -0.27080
 C120 C 0.17219 0.59750 -0.23243
 C121 C 0.19407 0.60579 -0.18780
 N122 N 0.21137 0.58683 -0.17642
 N123 N 0.23328 0.59555 -0.13649
 C124 C 0.23863 0.62355 -0.10655
 N125 N 0.22109 0.64238 -0.11789
 N126 N 0.19918 0.63365 -0.15787
 N127 N 0.44172 0.54405 -0.32547
 C128 C 0.42665 0.56592 -0.32591
 N129 N 0.42199 0.57864 -0.37026
 N130 N 0.43229 0.56997 -0.41286
 C131 C 0.44768 0.54825 -0.41291
 N132 N 0.45201 0.53537 -0.36816
 C133 C 0.41688 0.57666 -0.28006
 C134 C 0.40887 0.58667 -0.24226
 C135 C 0.39945 0.59951 -0.19807
 N136 N 0.41767 0.63526 -0.18672
 N137 N 0.40826 0.64749 -0.14661
 C138 C 0.38027 0.62438 -0.11651
 N139 N 0.36212 0.58857 -0.12793
 N140 N 0.37154 0.57634 -0.16806
 N141 N 0.58699 0.15224 -0.36343
 C142 C 0.57982 0.13428 -0.31927
 N143 N 0.56191 0.09762 -0.31946
 N144 N 0.55133 0.07949 -0.36258
 C145 C 0.55820 0.09736 -0.40704
 N146 N 0.57639 0.13412 -0.40647
 C147 C 0.58917 0.15398 -0.27296
 C148 C 0.59648 0.17135 -0.23482
 C149 C 0.60461 0.19299 -0.19041
 N150 N 0.58515 0.20993 -0.17989
 N151 N 0.59340 0.23123 -0.13986
 C152 C 0.62141 0.23634 -0.10895
 N153 N 0.64080 0.21921 -0.11947
 N154 N 0.63254 0.19790 -0.15956
 N155 N 0.84605 0.41279 -0.35802
 C156 C 0.86476 0.42168 -0.31409
 N157 N 0.90205 0.44041 -0.31488
 N158 N 0.92005 0.45014 -0.35834
 C159 C 0.90145 0.44148 -0.40260
 N160 N 0.86405 0.42253 -0.40143
 C161 C 0.84511 0.41207 -0.26748
 C162 C 0.82772 0.40374 -0.22904
 C163 C 0.80588 0.39320 -0.18427
 N164 N 0.78937 0.35837 -0.16852
 N165 N 0.76730 0.34795 -0.12871
 C166 C 0.76094 0.37200 -0.10329
 N167 N 0.77769 0.40695 -0.11899
 N168 N 0.79978 0.41736 -0.15886
 N169 N 0.57949 0.42347 -0.36716
 C170 C 0.57284 0.43437 -0.32262
 N171 N 0.55667 0.45527 -0.32211
 N172 N 0.54725 0.46479 -0.36491
 C173 C 0.55370 0.45379 -0.40976
 N174 N 0.57007 0.43297 -0.40988
 C175 C 0.58240 0.42334 -0.27676
 C176 C 0.59075 0.41354 -0.23897
 C177 C 0.60130 0.40157 -0.19482
 N178 N 0.57633 0.37190 -0.16940
 N179 N 0.58655 0.36012 -0.12946
 C180 C 0.62212 0.37759 -0.11372
 N181 N 0.64701 0.40732 -0.13925
 N182 N 0.63678 0.41909 -0.17913
 N183 N 0.89838 0.45566 0.32527
 C184 C 0.86134 0.43386 0.32566
 N185 N 0.84382 0.42194 0.37008
 N186 N 0.86276 0.43129 0.41281
 C187 C 0.89997 0.45297 0.41292
 N188 N 0.91732 0.46502 0.36808
 C189 C 0.84078 0.42299 0.27974
 C190 C 0.82268 0.41330 0.24188
 C191 C 0.80025 0.40143 0.19762
 N192 N 0.78241 0.41898 0.18182
 N193 N 0.76049 0.40729 0.14183
 C194 C 0.75558 0.37760 0.11631
 N195 N 0.77355 0.36009 0.13216
 N196 N 0.79549 0.37180 0.17220
 N197 N 0.56670 0.15185 0.36609
 C198 C 0.55415 0.13408 0.32210
 N199 N 0.53366 0.09750 0.32239
 N200 N 0.52617 0.07927 0.36543
 C201 C 0.53897 0.09687 0.40981
 N202 N 0.55924 0.13362 0.40905
 C203 C 0.56438 0.15381 0.27578
 C204 C 0.57442 0.17122 0.23762
 C205 C 0.58797 0.19292 0.19322
 N206 N 0.56493 0.19782 0.16243
 N207 N 0.57804 0.21917 0.12232
 C208 C 0.61462 0.23633 0.11173
 N209 N 0.63754 0.23124 0.14258
 N210 N 0.62444 0.20990 0.18262
 N211 N 0.56642 0.41325 0.35960
 C212 C 0.55687 0.42220 0.31553
 N213 N 0.53861 0.44115 0.31602
 N214 N 0.53040 0.45106 0.35934
 C215 C 0.54010 0.44235 0.40374
 N216 N 0.55822 0.42316 0.40287
 C217 C 0.56690 0.41245 0.26908
 C218 C 0.57598 0.40402 0.23079
 C219 C 0.58733 0.39338 0.18622
 N220 N 0.56894 0.35851 0.17071
 N221 N 0.58063 0.34802 0.13108
 C222 C 0.61114 0.37204 0.10560
 N223 N 0.62942 0.40703 0.12106
 N224 N 0.61771 0.41752 0.16075
 N225 N 0.15682 0.57479 0.36797
 C226 C 0.13907 0.56387 0.32349
 N227 N 0.10183 0.54369 0.32302
 N228 N 0.08293 0.53491 0.36583
 C229 C 0.10058 0.54599 0.41062
 N230 N 0.13793 0.56603 0.41069
 C231 C 0.15957 0.57486 0.27758
 C232 C 0.17758 0.58508 0.23973
 C233 C 0.19984 0.59815 0.19549
 N234 N 0.21716 0.63390 0.18413
 N235 N 0.23882 0.64636 0.14398
 C236 C 0.24392 0.62348 0.11387
 N237 N 0.22646 0.58766 0.12530
 N238 N 0.20480 0.57521 0.16547
 N239 N 0.46130 0.90135 0.31913
 C240 C 0.44217 0.86470 0.31892
 N241 N 0.43144 0.84673 0.36308
 N242 N 0.43939 0.86484 0.40615
 C243 C 0.45839 0.90161 0.40674
 N244 N 0.46925 0.91947 0.36226
 C245 C 0.43224 0.84499 0.27262
 C246 C 0.42308 0.82764 0.23439
 C247 C 0.41140 0.80605 0.18975
 N248 N 0.42991 0.78939 0.17317
 N249 N 0.41804 0.76790 0.13316
 C250 C 0.38722 0.76230 0.10839
 N251 N 0.36882 0.77915 0.12498
 N252 N 0.38071 0.80065 0.16501
 N253 N 0.43833 0.59246 0.35877
 C254 C 0.44782 0.58334 0.31486
 N255 N 0.46591 0.56424 0.31567
 N256 N 0.47402 0.55433 0.35915
 C257 C 0.46430 0.56314 0.40339
 N258 N 0.44642 0.58254 0.40219
 C259 C 0.43687 0.59208 0.26827
 C260 C 0.42642 0.59903 0.22988
 C261 C 0.41267 0.60708 0.18523
 N262 N 0.37635 0.58780 0.17389
 N263 N 0.36302 0.59630 0.13393
 C264 C 0.38557 0.62439 0.10392
 N265 N 0.42201 0.64354 0.11522
 N266 N 0.43534 0.63503 0.15523
   
