data_POSCAR
  _audit_creation_date              2014-09-24
  _audit_creation_method            'ToBaCCo'
  _symmetry_space_group_name_H-M    'P1'
  _symmetry_Int_Tables_number       1
  _symmetry_cell_setting            triclinic
  loop_
  _symmetry_equiv_pos_as_xyz
 x,y,z
_cell_length_a 10.9200
_cell_length_b 10.9200
_cell_length_c 10.9200
_cell_angle_alpha 90.000000
_cell_angle_beta 90.000000
_cell_angle_gamma 90.000000
loop_
  _atom_site_label
  _atom_site_type_symbol
  _atom_site_fract_x
  _atom_site_fract_y
  _atom_site_fract_z
Si1 Si 0.00167 0.50161 0.24967
 Si2 Si 0.00266 0.50197 0.75177
 Si3 Si 0.25294 0.00127 0.50054
 Si4 Si 0.74984 -0.00196 0.50105
 Si5 Si 0.50015 0.24990 1.00127
 Si6 Si 0.50198 0.75498 0.99992
 B7 B 1.00165 1.12827 0.07088
 B8 B 1.07994 1.00741 0.12302
 B9 B 0.92894 1.00130 0.12759
 B10 B 0.87362 1.07504 0.00365
 B11 B 0.99707 1.12612 -0.07862
 B12 B 1.12536 1.07907 -0.00775
 B13 B 1.00097 0.87238 -0.07212
 B14 B 0.92136 0.99669 -0.12527
 B15 B 1.07299 0.99887 -0.13059
 B16 B 1.12907 0.92739 -0.00397
 B17 B 1.00599 0.87574 0.07622
 B18 B 0.87623 0.92269 0.00782
 B19 B 0.62805 0.50104 0.42818
 B20 B 0.50766 0.57928 0.37625
 B21 B 0.50073 0.42944 0.37135
 B22 B 0.57307 0.37235 0.50034
 B23 B 0.62581 0.49573 0.57825
 B24 B 0.57986 0.62475 0.50771
 B25 B 0.37317 0.50191 0.57350
 B26 B 0.49848 0.42065 0.62471
 B27 B 0.49896 0.57306 0.62989
 B28 B 0.42711 0.62856 0.50329
 B29 B 0.37590 0.50575 0.42363
 B30 B 0.42169 0.37636 0.49326
 N31 N 0.99910 1.35667 0.17875
 N32 N 0.99560 1.25499 0.12809
 N33 N 0.99851 0.64691 0.17880
 N34 N 0.99946 0.75002 0.13085
 N35 N 0.99411 1.35777 -0.17503
 N36 N 0.99116 1.25543 -0.12740
 N37 N 1.00039 0.64457 -0.17609
 N38 N 1.00063 0.74735 -0.12913
 N39 N 1.17559 1.00013 0.35653
 N40 N 1.12903 1.00215 0.25221
 N41 N 1.15960 1.00053 -0.36566
 N42 N 1.14082 1.00011 -0.25167
 N43 N 0.83281 1.00607 0.35934
 N44 N 0.86329 0.99833 0.24994
 N45 N 0.82010 0.99847 -0.35630
 N46 N 0.86859 0.99840 -0.25349
 N47 N 1.35568 1.17734 0.00358
 N48 N 1.25173 1.13190 -0.00067
 N49 N 0.64190 1.17445 -0.00583
 N50 N 0.74545 1.12928 -0.00227
 N51 N 1.35580 0.82381 0.00076
 N52 N 1.25388 0.87175 0.00136
 N53 N 0.64437 0.82511 -0.00540
 N54 N 0.74897 0.86927 0.00038
 N55 N 0.85691 0.49861 0.32165
 N56 N 0.75560 0.49563 0.37286
 N57 N 0.14705 0.49958 0.32054
 N58 N 0.24970 0.49915 0.36974
 N59 N 0.85768 0.49553 0.67605
 N60 N 0.75594 0.49208 0.62583
 N61 N 0.14336 0.49888 0.67386
 N62 N 0.24656 0.49971 0.62720
 N63 N 0.49831 0.67496 0.14323
 N64 N 0.50205 0.63070 0.24857
 N65 N 0.50099 0.65960 0.86553
 N66 N 0.50038 0.64035 0.75171
 N67 N 0.50860 0.33344 0.13977
 N68 N 0.49694 0.36240 0.24910
 N69 N 0.49730 0.32088 0.85558
 N70 N 0.49561 0.37035 0.75271
 N71 N 0.67320 0.85673 0.49756
 N72 N 0.63057 0.75173 0.50199
 N73 N 0.68091 0.14382 0.50352
 N74 N 0.63221 0.24699 0.50409
 N75 N 0.32445 0.85585 0.49963
 N76 N 0.37347 0.75459 0.49942
 N77 N 0.32672 0.14362 0.50444
 N78 N 0.36856 0.24904 0.49835
   
