data_POSCAR
  _audit_creation_date              2014-09-24
  _audit_creation_method            'ToBaCCo'
  _symmetry_space_group_name_H-M    'P1'
  _symmetry_Int_Tables_number       1
  _symmetry_cell_setting            triclinic
  loop_
  _symmetry_equiv_pos_as_xyz
 x,y,z
_cell_length_a 59.5409
_cell_length_b 59.5374
_cell_length_c 59.9305
_cell_angle_alpha 89.974900
_cell_angle_beta 90.060600
_cell_angle_gamma 89.890500
loop_
  _atom_site_label
  _atom_site_type_symbol
  _atom_site_fract_x
  _atom_site_fract_y
  _atom_site_fract_z
N1 N 0.17429 0.22876 0.23232
 N2 N 0.18008 0.21067 0.24349
 C3 C 0.16569 0.20779 0.26057
 C4 C 0.14996 0.22500 0.26010
 C5 C 0.15604 0.23799 0.24188
 H6 H 0.16650 0.19405 0.27233
 H7 H 0.14788 0.25309 0.23597
 Cu8 Cu 0.20577 0.19255 0.23452
 Cu9 Cu 0.19068 0.23895 0.20612
 Cu10 Cu 0.23711 0.20758 0.19032
 N11 N 0.23220 0.17544 0.22573
 N12 N 0.24434 0.18139 0.20843
 C13 C 0.26141 0.16676 0.20597
 C14 C 0.25997 0.15069 0.22265
 C15 C 0.24117 0.15681 0.23489
 H16 H 0.27399 0.16787 0.19303
 H17 H 0.23438 0.14822 0.24925
 N18 N 0.22710 0.23461 0.17411
 N19 N 0.20940 0.24653 0.18010
 C20 C 0.20679 0.26369 0.16568
 C21 C 0.22365 0.26259 0.14981
 C22 C 0.23621 0.24390 0.15575
 H23 H 0.19360 0.27614 0.16673
 H24 H 0.25075 0.23734 0.14716
 H25 H 0.20303 0.20787 0.19685
 H26 H 0.22119 0.22524 0.21547
 N27 N 0.67478 0.73020 0.73334
 N28 N 0.68120 0.71266 0.74505
 C29 C 0.66683 0.70972 0.76214
 C30 C 0.65051 0.72633 0.76114
 C31 C 0.65617 0.73902 0.74259
 H32 H 0.66822 0.69650 0.77442
 H33 H 0.64729 0.75345 0.73607
 Cu34 Cu 0.70757 0.69522 0.73676
 Cu35 Cu 0.69084 0.74010 0.70683
 Cu36 Cu 0.73727 0.70879 0.69095
 N37 N 0.73329 0.67748 0.72720
 N38 N 0.74485 0.68289 0.70933
 C39 C 0.76156 0.66791 0.70650
 C40 C 0.76046 0.65216 0.72351
 C41 C 0.74225 0.65883 0.73631
 H42 H 0.77344 0.66837 0.69290
 H43 H 0.73603 0.65078 0.75123
 N44 N 0.72694 0.73555 0.67451
 N45 N 0.70925 0.74745 0.68053
 C46 C 0.70646 0.76448 0.66598
 C47 C 0.72322 0.76331 0.65000
 C48 C 0.73589 0.74472 0.65601
 H49 H 0.69327 0.77692 0.66706
 H50 H 0.75042 0.73818 0.64740
 H51 H 0.70339 0.70877 0.69858
 H52 H 0.72184 0.72730 0.71578
 N53 N 0.32398 0.77065 0.73415
 N54 N 0.31755 0.78815 0.74586
 C55 C 0.33196 0.79111 0.76294
 C56 C 0.34831 0.77453 0.76194
 C57 C 0.34263 0.76185 0.74339
 H58 H 0.33058 0.80432 0.77522
 H59 H 0.35153 0.74745 0.73686
 Cu60 Cu 0.29112 0.80555 0.73757
 Cu61 Cu 0.30792 0.76073 0.70764
 Cu62 Cu 0.26151 0.79204 0.69162
 N63 N 0.26539 0.82329 0.72789
 N64 N 0.25390 0.81793 0.70997
 C65 C 0.23726 0.83296 0.70700
 C66 C 0.23828 0.84880 0.72401
 C67 C 0.25647 0.84198 0.73695
 H68 H 0.22544 0.83232 0.69334
 H69 H 0.26290 0.84999 0.75179
 N70 N 0.27186 0.76528 0.67521
 N71 N 0.28951 0.75336 0.68132
 C72 C 0.29233 0.73633 0.66681
 C73 C 0.27565 0.73755 0.65071
 C74 C 0.26299 0.75616 0.65663
 H75 H 0.30571 0.72409 0.66776
 H76 H 0.24831 0.76255 0.64812
 H77 H 0.29537 0.79209 0.69939
 H78 H 0.27689 0.77352 0.71649
 N79 N 0.83249 0.27749 0.22592
 N80 N 0.82648 0.29549 0.23706
 C81 C 0.83963 0.29756 0.25521
 C82 C 0.85495 0.27988 0.25549
 C83 C 0.84976 0.26750 0.23649
 H84 H 0.83814 0.31112 0.26709
 H85 H 0.85793 0.25245 0.23049
 Cu86 Cu 0.80257 0.31499 0.22640
 Cu87 Cu 0.81808 0.26902 0.19803
 Cu88 Cu 0.76649 0.29440 0.18830
 N89 N 0.77366 0.32903 0.22090
 N90 N 0.75946 0.32074 0.20629
 C91 C 0.74098 0.33377 0.20569
 C92 C 0.74368 0.35122 0.22078
 C93 C 0.76469 0.34757 0.23015
 H94 H 0.72674 0.33079 0.19491
 H95 H 0.77303 0.35776 0.24255
 N96 N 0.77704 0.26777 0.17174
 N97 N 0.79683 0.25841 0.17519
 C98 C 0.79949 0.24119 0.16089
 C99 C 0.78048 0.23964 0.14762
 C100 C 0.76661 0.25681 0.15505
 H101 H 0.81434 0.23078 0.16005
 H102 H 0.75018 0.26113 0.14868
 H103 H 0.80054 0.29807 0.18902
 H104 H 0.78833 0.27995 0.21127
 N105 N 0.82475 0.73050 0.26684
 N106 N 0.81843 0.71291 0.25522
 C107 C 0.83284 0.70988 0.23818
 C108 C 0.84910 0.72650 0.23911
 C109 C 0.84335 0.73928 0.25758
 H110 H 0.83153 0.69661 0.22596
 H111 H 0.85216 0.75375 0.26403
 Cu112 Cu 0.79209 0.69553 0.26356
 Cu113 Cu 0.80861 0.74056 0.29325
 Cu114 Cu 0.76225 0.70936 0.30921
 N115 N 0.76640 0.67785 0.27318
 N116 N 0.75479 0.68337 0.29098
 C117 C 0.73813 0.66841 0.29388
 C118 C 0.73933 0.65255 0.27700
 C119 C 0.75754 0.65913 0.26418
 H120 H 0.72622 0.66895 0.30746
 H121 H 0.76383 0.65098 0.24934
 N122 N 0.77245 0.73620 0.32552
 N123 N 0.79013 0.74805 0.31948
 C124 C 0.79286 0.76513 0.33395
 C125 C 0.77609 0.76403 0.34993
 C126 C 0.76347 0.74544 0.34398
 H127 H 0.80603 0.77753 0.33286
 H128 H 0.74895 0.73893 0.35261
 H129 H 0.79615 0.70928 0.30166
 H130 H 0.77768 0.72773 0.28431
 N131 N 0.32625 0.22979 -0.23338
 N132 N 0.31978 0.21242 -0.24523
 C133 C 0.33422 0.20943 -0.26224
 C134 C 0.35076 0.22586 -0.26109
 C135 C 0.34499 0.23847 -0.24243
 H136 H 0.33276 0.19617 -0.27444
 H137 H 0.35370 0.25286 -0.23573
 Cu138 Cu 0.29322 0.19521 -0.23716
 Cu139 Cu 0.31008 0.23977 -0.20696
 Cu140 Cu 0.26336 0.20889 -0.19145
 N141 N 0.26735 0.17767 -0.22775
 N142 N 0.25573 0.18314 -0.20994
 C143 C 0.23894 0.16830 -0.20720
 C144 C 0.24005 0.15256 -0.22419
 C145 C 0.25835 0.15909 -0.23692
 H146 H 0.22701 0.16882 -0.19363
 H147 H 0.26462 0.15099 -0.25179
 N148 N 0.27375 0.23549 -0.17488
 N149 N 0.29154 0.24723 -0.18076
 C150 C 0.29436 0.26417 -0.16615
 C151 C 0.27752 0.26311 -0.15025
 C152 C 0.26477 0.24466 -0.15638
 H153 H 0.30765 0.27646 -0.16711
 H154 H 0.25015 0.23822 -0.14788
 H155 H 0.29728 0.20853 -0.19891
 H156 H 0.27905 0.22733 -0.21614
 N157 N 0.67569 0.27003 -0.23277
 N158 N 0.68212 0.28744 -0.24458
 C159 C 0.66772 0.29038 -0.26168
 C160 C 0.65127 0.27386 -0.26063
 C161 C 0.65704 0.26126 -0.24194
 H162 H 0.66916 0.30366 -0.27386
 H163 H 0.64837 0.24681 -0.23529
 Cu164 Cu 0.70851 0.30483 -0.23635
 Cu165 Cu 0.69182 0.26013 -0.20625
 Cu166 Cu 0.73821 0.29135 -0.19038
 N167 N 0.73416 0.32258 -0.22670
 N168 N 0.74570 0.31722 -0.20877
 C169 C 0.76232 0.33222 -0.20589
 C170 C 0.76119 0.34795 -0.22292
 C171 C 0.74304 0.34123 -0.23580
 H172 H 0.77418 0.33181 -0.19223
 H173 H 0.73680 0.34926 -0.25075
 N174 N 0.72797 0.26462 -0.17393
 N175 N 0.71029 0.25276 -0.17994
 C176 C 0.70755 0.23574 -0.16540
 C177 C 0.72433 0.23687 -0.14941
 C178 C 0.73697 0.25543 -0.15542
 H179 H 0.69438 0.22333 -0.16648
 H180 H 0.75151 0.26193 -0.14681
 H181 H 0.70434 0.29149 -0.19812
 H182 H 0.72282 0.27282 -0.21519
 N183 N 0.17465 0.77149 0.26790
 N184 N 0.18055 0.78948 0.25666
 C185 C 0.16613 0.79247 0.23958
 C186 C 0.15026 0.77546 0.24015
 C187 C 0.15628 0.76246 0.25841
 H188 H 0.16696 0.80617 0.22779
 H189 H 0.14802 0.74747 0.26436
 Cu190 Cu 0.20638 0.80734 0.26560
 Cu191 Cu 0.19107 0.76119 0.29410
 Cu192 Cu 0.23766 0.79222 0.30988
 N193 N 0.23283 0.82434 0.27440
 N194 N 0.24496 0.81835 0.29173
 C195 C 0.26204 0.83289 0.29423
 C196 C 0.26066 0.84905 0.27752
 C197 C 0.24180 0.84293 0.26525
 H198 H 0.27443 0.83168 0.30735
 H199 H 0.23498 0.85132 0.25078
 N200 N 0.22757 0.76527 0.32611
 N201 N 0.20983 0.75347 0.32011
 C202 C 0.20717 0.73633 0.33453
 C203 C 0.22405 0.73732 0.35042
 C204 C 0.23667 0.75591 0.34449
 H205 H 0.19394 0.72399 0.33347
 H206 H 0.25124 0.76237 0.35309
 H207 H 0.20359 0.79218 0.30332
 H208 H 0.22166 0.77460 0.28479
 N209 N 0.47965 0.42394 0.48340
 N210 N 0.46164 0.42984 0.49462
 C211 C 0.45873 0.41543 0.51170
 C212 C 0.47582 0.39958 0.51116
 C213 C 0.48878 0.40559 0.49291
 H214 H 0.44504 0.41628 0.52348
 H215 H 0.50380 0.39734 0.48697
 Cu216 Cu 0.44366 0.45565 0.48564
 Cu217 Cu 0.48986 0.44033 0.45719
 Cu218 Cu 0.45863 0.48690 0.44135
 N219 N 0.42656 0.48209 0.47681
 N220 N 0.43248 0.49419 0.45946
 C221 C 0.41784 0.51124 0.45693
 C222 C 0.40179 0.50984 0.47361
 C223 C 0.40793 0.49108 0.48593
 H224 H 0.41891 0.52378 0.44394
 H225 H 0.39936 0.48431 0.50031
 N226 N 0.48562 0.47681 0.42517
 N227 N 0.49747 0.45907 0.43117
 C228 C 0.51460 0.45639 0.41675
 C229 C 0.51354 0.47327 0.40086
 C230 C 0.49492 0.48590 0.40679
 H231 H 0.52699 0.44315 0.41780
 H232 H 0.48840 0.50046 0.39818
 H233 H 0.47632 0.47093 0.46647
 H234 H 0.45880 0.45283 0.44794
 N235 N -0.02336 -0.07822 0.97928
 N236 N -0.04336 -0.07497 0.98793
 C237 C -0.04632 -0.08925 1.00508
 C238 C -0.02712 -0.10229 1.00732
 C239 C -0.01291 -0.09474 0.99059
 H240 H -0.06147 -0.09021 1.01494
 H241 H 0.00374 -0.10087 0.98676
 Cu242 Cu -0.06376 -0.05255 0.97599
 Cu243 Cu -0.01287 -0.06162 0.95328
 Cu244 Cu -0.04913 -0.02132 0.93181
 N245 N -0.07904 -0.02455 0.96908
 N246 N -0.07327 -0.01234 0.95177
 C247 C -0.08692 0.00564 0.95044
 C248 C -0.10210 0.00476 0.96798
 C249 C -0.09650 -0.01471 0.97946
 H250 H -0.08598 0.01819 0.93744
 H251 H -0.10450 -0.02136 0.99423
 N252 N -0.01967 -0.02815 0.91853
 N253 N -0.00568 -0.04316 0.92689
 C254 C 0.01284 -0.04397 0.91404
 C255 C 0.01046 -0.02868 0.89674
 C256 C -0.01039 -0.01893 0.90023
 H257 H 0.02695 -0.05501 0.91700
 H258 H -0.01844 -0.00626 0.89005
 H259 H -0.03218 -0.03312 0.95915
 H260 H -0.04381 -0.05500 0.94015
 N261 N 1.02116 0.57577 0.98335
 N262 N 1.03904 0.56968 0.99471
 C263 C 1.04203 0.58406 1.01179
 C264 C 1.02510 0.60007 1.01114
 C265 C 1.01216 0.59419 0.99281
 H266 H 1.05548 0.58288 1.02385
 H267 H 0.99743 0.60279 0.98660
 Cu268 Cu 1.05671 0.54362 0.98593
 Cu269 Cu 1.01097 0.55954 0.95700
 Cu270 Cu 1.04221 0.51304 0.94108
 N271 N 1.07411 0.51749 0.97681
 N272 N 1.06834 0.50563 0.95925
 C273 C 1.08312 0.48873 0.95654
 C274 C 1.09911 0.49000 0.97331
 C275 C 1.09279 0.50851 0.98588
 H276 H 1.08218 0.47641 0.94334
 H277 H 1.10127 0.51513 1.00039
 N278 N 1.01525 0.52322 0.92485
 N279 N 1.00340 0.54095 0.93086
 C280 C 0.98627 0.54367 0.91641
 C281 C 0.98734 0.52684 0.90049
 C282 C 1.00596 0.51419 0.90643
 H283 H 0.97386 0.55688 0.91748
 H284 H 1.01247 0.49965 0.89781
 H285 H 1.02421 0.52877 0.96609
 H286 H 1.04209 0.54705 0.94807
 N287 N 0.51781 0.07216 0.48666
 N288 N 0.53272 0.06364 0.50045
 C289 C 0.53586 0.07794 0.51755
 C290 C 0.52209 0.09649 0.51438
 C291 C 0.51088 0.09216 0.49454
 H292 H 0.54722 0.07491 0.53130
 H293 H 0.49858 0.10271 0.48638
 Cu294 Cu 0.54678 0.03479 0.49473
 Cu295 Cu 0.50784 0.05632 0.46000
 Cu296 Cu 0.53265 0.00457 0.44970
 N297 N 0.56605 0.01097 0.48355
 N298 N 0.56046 -0.00083 0.46590
 C299 C 0.57635 -0.01645 0.46210
 C300 C 0.59297 -0.01429 0.47820
 C301 C 0.58578 0.00336 0.49154
 H302 H 0.57564 -0.02858 0.44870
 H303 H 0.59421 0.01026 0.50596
 N304 N 0.50912 0.01755 0.43051
 N305 N 0.49998 0.03741 0.43414
 C306 C 0.48471 0.04155 0.41805
 C307 C 0.48424 0.02346 0.40351
 C308 C 0.50002 0.00858 0.41199
 H309 H 0.47469 0.05666 0.41702
 H310 H 0.50452 -0.00766 0.40530
 H311 H 0.51416 0.02473 0.47158
 H312 H 0.53729 0.03813 0.45544
 N313 N -0.02048 0.07540 0.51578
 N314 N -0.03797 0.06893 0.50406
 C315 C -0.04102 0.08332 0.48697
 C316 C -0.02453 0.09970 0.48797
 C317 C -0.01179 0.09405 0.50653
 H318 H -0.05424 0.08192 0.47469
 H319 H 0.00255 0.10299 0.51307
 Cu320 Cu -0.05530 0.04255 0.51236
 Cu321 Cu -0.01050 0.05939 0.54232
 Cu322 Cu -0.04176 0.01318 0.55852
 N323 N -0.07304 0.01699 0.52222
 N324 N -0.06770 0.00561 0.54024
 C325 C -0.08275 -0.01094 0.54328
 C326 C -0.09850 -0.00994 0.52624
 C327 C -0.09172 0.00806 0.51319
 H328 H -0.08232 -0.02267 0.55703
 H329 H -0.09975 0.01424 0.49822
 N330 N -0.01495 0.02345 0.57485
 N331 N -0.00305 0.04105 0.56868
 C332 C 0.01404 0.04382 0.58315
 C333 C 0.01291 0.02716 0.59926
 C334 C -0.00573 0.01456 0.59339
 H335 H 0.02648 0.05695 0.58195
 H336 H -0.01226 0.00010 0.60210
 H337 H -0.02326 0.02836 0.53358
 H338 H -0.04187 0.04700 0.55054
 N339 N 0.47963 0.57595 0.01805
 N340 N 0.46157 0.57013 0.00688
 C341 C 0.45860 0.58453 -0.01022
 C342 C 0.47572 0.60029 -0.00975
 C343 C 0.48875 0.59423 0.00848
 H344 H 0.44487 0.58371 -0.02197
 H345 H 0.50380 0.60242 0.01440
 Cu346 Cu 0.44359 0.54441 0.01585
 Cu347 Cu 0.48989 0.55955 0.04428
 Cu348 Cu 0.45876 0.51306 0.06009
 N349 N 0.42661 0.51795 0.02464
 N350 N 0.43262 0.50580 0.04195
 C351 C 0.41807 0.48872 0.04443
 C352 C 0.40198 0.49017 0.02775
 C353 C 0.40801 0.50897 0.01549
 H354 H 0.41923 0.47614 0.05738
 H355 H 0.39938 0.51577 0.00113
 N356 N 0.48573 0.52309 0.07631
 N357 N 0.49755 0.54082 0.07033
 C358 C 0.51468 0.54347 0.08478
 C359 C 0.51364 0.52659 0.10068
 C360 C 0.49505 0.51400 0.09471
 H361 H 0.52704 0.55668 0.08375
 H362 H 0.48855 0.49945 0.10331
 H363 H 0.47634 0.52901 0.03494
 H364 H 0.45887 0.54714 0.05353
 N365 N 0.52032 -0.07429 0.01678
 N366 N 0.53767 -0.06773 0.00494
 C367 C 0.54055 -0.08202 -0.01224
 C368 C 0.52409 -0.09843 -0.01117
 C369 C 0.51155 -0.09290 0.00752
 H370 H 0.55364 -0.08054 -0.02463
 H371 H 0.49729 -0.10189 0.01414
 Cu372 Cu 0.55504 -0.04136 0.01322
 Cu373 Cu 0.51058 -0.05845 0.04346
 Cu374 Cu 0.54187 -0.01220 0.05957
 N375 N 0.57281 -0.01579 0.02304
 N376 N 0.56759 -0.00448 0.04112
 C377 C 0.58263 0.01209 0.04410
 C378 C 0.59824 0.01117 0.02697
 C379 C 0.59141 -0.00681 0.01392
 H380 H 0.58232 0.02376 0.05790
 H381 H 0.59933 -0.01289 -0.00112
 N382 N 0.51525 -0.02263 0.07607
 N383 N 0.50337 -0.04026 0.06996
 C384 C 0.48643 -0.04316 0.08455
 C385 C 0.48766 -0.02653 0.10067
 C386 C 0.50617 -0.01383 0.09470
 H387 H 0.47402 -0.05631 0.08340
 H388 H 0.51272 0.00063 0.10340
 H389 H 0.52317 -0.02734 0.03472
 H390 H 0.54200 -0.04599 0.05149
 N391 N 1.02100 0.42476 0.51748
 N392 N 1.03897 0.43070 0.50625
 C393 C 1.04188 0.41638 0.48910
 C394 C 1.02484 0.40054 0.48960
 C395 C 1.01190 0.40648 0.50790
 H396 H 1.05556 0.41726 0.47730
 H397 H 0.99691 0.39820 0.51383
 Cu398 Cu 1.05690 0.45642 0.51531
 Cu399 Cu 1.01080 0.44102 0.54379
 Cu400 Cu 1.04199 0.48743 0.55980
 N401 N 1.07399 0.48277 0.52424
 N402 N 1.06809 0.49478 0.54166
 C403 C 1.08271 0.51178 0.54426
 C404 C 1.09872 0.51045 0.52753
 C405 C 1.09258 0.49178 0.51512
 H406 H 1.08164 0.52424 0.55732
 H407 H 1.10113 0.48508 0.50069
 N408 N 1.01506 0.47729 0.57599
 N409 N 1.00321 0.45962 0.56992
 C410 C 0.98609 0.45692 0.58434
 C411 C 0.98716 0.47371 0.60030
 C412 C 1.00578 0.48631 0.59441
 H413 H 0.97371 0.44373 0.58322
 H414 H 1.01229 0.50081 0.60307
 H415 H 1.02425 0.47164 0.53463
 H416 H 1.04185 0.45339 0.55303
 Si417 Si 0.37347 -0.00069 0.25061
 Si418 Si 0.12706 0.00092 0.74946
 Si419 Si 0.62752 0.50000 0.25099
 Si420 Si 0.87333 0.50012 0.75041
 Si421 Si 0.25093 0.37676 0.00004
 Si422 Si 0.75097 0.12261 0.00056
 Si423 Si 0.25029 0.62332 0.50065
 Si424 Si 0.74931 0.87770 0.50016
 Si425 Si -0.00031 0.25085 0.37439
 Si426 Si 0.00004 0.75056 0.12540
 Si427 Si 0.50114 0.24952 0.62614
 Si428 Si 0.49984 0.75046 0.87530
 C429 C 0.09622 0.24831 0.28531
 C430 C 0.09407 0.23512 0.30450
 C431 C 0.11022 0.21872 0.30930
 C432 C 0.12843 0.21546 0.29493
 C433 C 0.13074 0.22858 0.27551
 C434 C 0.11440 0.24509 0.27091
 C435 C 0.07518 0.23830 0.31913
 C436 C 0.05925 0.24098 0.33124
 C437 C 0.04046 0.24412 0.34523
 C438 C 0.02429 0.24680 0.35701
 H439 H 0.08378 0.26103 0.28141
 H440 H 0.10872 0.20842 0.32413
 H441 H 0.14065 0.20270 0.29918
 H442 H 0.11545 0.25544 0.25613
 C443 C 0.59990 0.75246 0.78975
 C444 C 0.59419 0.73574 0.80512
 C445 C 0.60690 0.71599 0.80621
 C446 C 0.62524 0.71294 0.79198
 C447 C 0.63113 0.72962 0.77639
 C448 C 0.61823 0.74945 0.77549
 C449 C 0.57518 0.73876 0.81964
 C450 C 0.55920 0.74126 0.83172
 C451 C 0.54041 0.74417 0.84576
 C452 C 0.52429 0.74666 0.85764
 H453 H 0.59019 0.76784 0.78878
 H454 H 0.60259 0.70291 0.81802
 H455 H 0.63460 0.69740 0.79311
 H456 H 0.62229 0.76275 0.76389
 C457 C 0.39899 0.74838 0.79051
 C458 C 0.40483 0.76514 0.80579
 C459 C 0.39216 0.78492 0.80686
 C460 C 0.37374 0.78796 0.79267
 C461 C 0.36774 0.77124 0.77717
 C462 C 0.38059 0.75138 0.77630
 C463 C 0.42395 0.76213 0.82021
 C464 C 0.44003 0.75962 0.83219
 C465 C 0.45896 0.75669 0.84610
 C466 C 0.47520 0.75420 0.85785
 H467 H 0.40868 0.73298 0.78956
 H468 H 0.39656 0.79803 0.81859
 H469 H 0.36442 0.80353 0.79377
 H470 H 0.37644 0.73805 0.76477
 C471 C -0.10691 0.28647 0.30464
 C472 C -0.09267 0.26798 0.30199
 C473 C -0.09599 0.25324 0.28417
 C474 C -0.11337 0.25702 0.26891
 C475 C -0.12779 0.27574 0.27117
 C476 C -0.12432 0.29033 0.28943
 C477 C -0.07437 0.26436 0.31730
 C478 C -0.05886 0.26139 0.32990
 C479 C -0.04048 0.25797 0.34440
 C480 C -0.02459 0.25509 0.35655
 H481 H -0.10447 0.29801 0.31839
 H482 H -0.08505 0.23885 0.28196
 H483 H -0.11522 0.24521 0.25535
 H484 H -0.13483 0.30490 0.29209
 C485 C -0.10042 0.75260 0.21042
 C486 C -0.09455 0.73580 0.19518
 C487 C -0.10713 0.71600 0.19419
 C488 C -0.12549 0.71298 0.20841
 C489 C -0.13152 0.72975 0.22387
 C490 C -0.11875 0.74962 0.22466
 C491 C -0.07553 0.73880 0.18069
 C492 C -0.05952 0.74130 0.16866
 C493 C -0.04068 0.74424 0.15470
 C494 C -0.02451 0.74675 0.14290
 H495 H -0.09080 0.76800 0.21130
 H496 H -0.10271 0.70286 0.18249
 H497 H -0.13474 0.69741 0.20737
 H498 H -0.12292 0.76298 0.23616
 C499 C 0.40314 0.24949 0.71391
 C500 C 0.40649 0.23498 0.69590
 C501 C 0.39134 0.21750 0.69206
 C502 C 0.37292 0.21448 0.70619
 C503 C 0.36928 0.22894 0.72452
 C504 C 0.38474 0.24655 0.72809
 C505 C 0.42556 0.23794 0.68146
 C506 C 0.44160 0.24043 0.66946
 C507 C 0.46045 0.24333 0.65552
 C508 C 0.47663 0.24581 0.64372
 H509 H 0.41478 0.26310 0.71704
 H510 H 0.39379 0.20614 0.67815
 H511 H 0.36168 0.20072 0.70257
 H512 H 0.38287 0.25818 0.74179
 C513 C 0.61082 0.28210 0.69230
 C514 C 0.59573 0.26456 0.69605
 C515 C 0.59909 0.25004 0.71407
 C516 C 0.61742 0.25303 0.72835
 C517 C 0.63282 0.27071 0.72487
 C518 C 0.62919 0.28517 0.70652
 C519 C 0.57671 0.26154 0.68152
 C520 C 0.56071 0.25901 0.66946
 C521 C 0.54186 0.25602 0.65548
 C522 C 0.52569 0.25344 0.64367
 H523 H 0.60838 0.29346 0.67837
 H524 H 0.58748 0.23638 0.71714
 H525 H 0.61929 0.24139 0.74206
 H526 H 0.64038 0.29898 0.70296
 C527 C 0.11097 0.78132 0.19048
 C528 C 0.09418 0.76584 0.19584
 C529 C 0.09574 0.75342 0.21560
 C530 C 0.11398 0.75648 0.22998
 C531 C 0.13096 0.77206 0.22480
 C532 C 0.12923 0.78443 0.20483
 C533 C 0.07528 0.76278 0.18118
 C534 C 0.05936 0.76020 0.16901
 C535 C 0.04061 0.75717 0.15491
 C536 C 0.02450 0.75455 0.14302
 H537 H 0.10994 0.79101 0.17520
 H538 H 0.08280 0.74142 0.21995
 H539 H 0.11457 0.74677 0.24522
 H540 H 0.14199 0.79643 0.20014
 C541 C 0.28780 0.10007 0.24974
 C542 C 0.30356 0.09398 0.23353
 C543 C 0.30516 0.10645 0.21381
 C544 C 0.29105 0.12491 0.21028
 C545 C 0.27508 0.13117 0.22645
 C546 C 0.27366 0.11851 0.24625
 C547 C 0.31798 0.07488 0.23707
 C548 C 0.32999 0.05883 0.24001
 C549 C 0.34397 0.03997 0.24341
 C550 C 0.35582 0.02380 0.24630
 H551 H 0.28643 0.09054 0.26509
 H552 H 0.31728 0.10185 0.20112
 H553 H 0.29258 0.13406 0.19477
 H554 H 0.26175 0.12285 0.25917
 C555 C 0.80945 0.61152 0.71833
 C556 C 0.80358 0.59500 0.73386
 C557 C 0.78367 0.59715 0.74604
 C558 C 0.76966 0.61573 0.74272
 C559 C 0.77537 0.63246 0.72711
 C560 C 0.79547 0.63011 0.71496
 C561 C 0.81792 0.57581 0.73723
 C562 C 0.82987 0.55970 0.74006
 C563 C 0.84381 0.54079 0.74336
 C564 C 0.85564 0.52459 0.74618
 H565 H 0.82485 0.61004 0.70882
 H566 H 0.77893 0.58444 0.75808
 H567 H 0.75430 0.61679 0.75227
 H568 H 0.80056 0.64266 0.70295
 C569 C 0.78422 0.40291 0.75451
 C570 C 0.80402 0.40517 0.76686
 C571 C 0.80989 0.38874 0.78251
 C572 C 0.79600 0.37013 0.78584
 C573 C 0.77600 0.36767 0.77352
 C574 C 0.77030 0.38432 0.75778
 C575 C 0.81828 0.42437 0.76352
 C576 C 0.83016 0.44049 0.76072
 C577 C 0.84401 0.45942 0.75744
 C578 C 0.85576 0.47562 0.75464
 H579 H 0.77949 0.41556 0.74237
 H580 H 0.82521 0.39030 0.79215
 H581 H 0.80109 0.35765 0.79795
 H582 H 0.75501 0.38318 0.74809
 C583 C 0.30764 -0.11000 0.28466
 C584 C 0.30362 -0.09526 0.26695
 C585 C 0.28545 -0.09902 0.25267
 C586 C 0.27129 -0.11740 0.25608
 C587 C 0.27504 -0.13245 0.27393
 C588 C 0.29354 -0.12841 0.28815
 C589 C 0.31803 -0.07619 0.26353
 C590 C 0.33004 -0.06016 0.26070
 C591 C 0.34400 -0.04132 0.25744
 C592 C 0.35583 -0.02516 0.25469
 H593 H 0.32168 -0.10723 0.29585
 H594 H 0.28218 -0.08769 0.23888
 H595 H 0.25746 -0.11959 0.24461
 H596 H 0.29730 -0.13932 0.30208
 C597 C 0.21368 -0.09898 0.74861
 C598 C 0.19615 -0.09457 0.73372
 C599 C 0.19249 -0.10896 0.71568
 C600 C 0.20633 -0.12768 0.71246
 C601 C 0.22418 -0.13237 0.72730
 C602 C 0.22757 -0.11767 0.74548
 C603 C 0.18196 -0.07523 0.73692
 C604 C 0.17014 -0.05900 0.73958
 C605 C 0.15635 -0.03996 0.74270
 C606 C 0.14462 -0.02367 0.74538
 H607 H 0.21667 -0.08793 0.76266
 H608 H 0.17893 -0.10571 0.70403
 H609 H 0.20286 -0.13830 0.69826
 H610 H 0.24092 -0.12036 0.75741
 C611 C 0.69463 0.39179 0.21555
 C612 C 0.69853 0.40626 0.23351
 C613 C 0.71699 0.40259 0.24751
 C614 C 0.73158 0.38462 0.24349
 C615 C 0.72792 0.37003 0.22536
 C616 C 0.70918 0.37380 0.21150
 C617 C 0.68381 0.42507 0.23735
 C618 C 0.67158 0.44092 0.24043
 C619 C 0.65739 0.45960 0.24390
 C620 C 0.64538 0.47565 0.24678
 H621 H 0.68041 0.39451 0.20457
 H622 H 0.72016 0.41368 0.26148
 H623 H 0.74565 0.38221 0.25466
 H624 H 0.70582 0.36309 0.19732
 C625 C 0.71642 0.59735 0.25487
 C626 C 0.69653 0.59524 0.26708
 C627 C 0.69056 0.61185 0.28248
 C628 C 0.70444 0.63049 0.28570
 C629 C 0.72452 0.63280 0.27353
 C630 C 0.73032 0.61598 0.25805
 C631 C 0.68230 0.57600 0.26385
 C632 C 0.67045 0.55983 0.26113
 C633 C 0.65666 0.54085 0.25793
 C634 C 0.64497 0.52460 0.25518
 H635 H 0.72122 0.58456 0.24292
 H636 H 0.67517 0.61040 0.29200
 H637 H 0.69928 0.64311 0.29762
 H638 H 0.74567 0.61700 0.24848
 C639 C 0.19092 0.11225 0.78092
 C640 C 0.19686 0.09560 0.76555
 C641 C 0.21683 0.09758 0.75344
 C642 C 0.23086 0.11610 0.75671
 C643 C 0.22510 0.13294 0.77219
 C644 C 0.20492 0.13079 0.78424
 C645 C 0.18251 0.07645 0.76227
 C646 C 0.17054 0.06038 0.75954
 C647 C 0.15659 0.04151 0.75636
 C648 C 0.14474 0.02535 0.75363
 H649 H 0.17547 0.11091 0.79036
 H650 H 0.22161 0.08476 0.74152
 H651 H 0.24628 0.11703 0.74724
 H652 H 0.19978 0.14343 0.79614
 C653 C 0.21409 0.30768 0.10591
 C654 C 0.23414 0.30659 0.09382
 C655 C 0.25081 0.29124 0.10006
 C656 C 0.24745 0.27698 0.11828
 C657 C 0.22731 0.27786 0.13056
 C658 C 0.21068 0.29344 0.12415
 C659 C 0.23755 0.32111 0.07492
 C660 C 0.24042 0.33318 0.05903
 C661 C 0.24377 0.34720 0.04034
 C662 C 0.24664 0.35908 0.02432
 H663 H 0.20104 0.31947 0.10119
 H664 H 0.26642 0.29028 0.09082
 H665 H 0.26072 0.26540 0.12275
 H666 H 0.19491 0.29455 0.13302
 C667 C 0.71328 0.80812 0.60590
 C668 C 0.73336 0.80718 0.59384
 C669 C 0.75016 0.79199 0.60015
 C670 C 0.74690 0.77775 0.61841
 C671 C 0.72674 0.77851 0.63067
 C672 C 0.70998 0.79391 0.62419
 C673 C 0.73668 0.82171 0.57494
 C674 C 0.73944 0.83382 0.55905
 C675 C 0.74264 0.84791 0.54039
 C676 C 0.74534 0.85986 0.52439
 H677 H 0.70014 0.81978 0.60114
 H678 H 0.76579 0.79115 0.59094
 H679 H 0.76027 0.76631 0.62294
 H680 H 0.69419 0.79490 0.63303
 C681 C 0.74919 0.79263 0.39988
 C682 C 0.76588 0.80792 0.40606
 C683 C 0.78587 0.80896 0.39387
 C684 C 0.78919 0.79476 0.37559
 C685 C 0.77253 0.77926 0.36924
 C686 C 0.75246 0.77840 0.38162
 C687 C 0.76254 0.82240 0.42500
 C688 C 0.75972 0.83443 0.44093
 C689 C 0.75640 0.84839 0.45967
 C690 C 0.75357 0.86018 0.47576
 H691 H 0.73363 0.79170 0.40920
 H692 H 0.79893 0.82071 0.39854
 H693 H 0.80491 0.79584 0.36664
 H694 H 0.73917 0.76688 0.37720
 C695 C 0.28731 0.30801 -0.10626
 C696 C 0.26742 0.30679 -0.09393
 C697 C 0.25080 0.29139 -0.10000
 C698 C 0.25404 0.27722 -0.11832
 C699 C 0.27400 0.27825 -0.13086
 C700 C 0.29060 0.29386 -0.12460
 C701 C 0.26411 0.32125 -0.07497
 C702 C 0.26132 0.33329 -0.05904
 C703 C 0.25803 0.34728 -0.04032
 C704 C 0.25521 0.35913 -0.02427
 H705 H 0.30032 0.31984 -0.10167
 H706 H 0.23531 0.29033 -0.09058
 H707 H 0.24079 0.26561 -0.12266
 H708 H 0.30624 0.29509 -0.13366
 C709 C 0.71452 0.19204 -0.10537
 C710 C 0.73458 0.19296 -0.09324
 C711 C 0.75133 0.20816 -0.09948
 C712 C 0.74804 0.22241 -0.11775
 C713 C 0.72790 0.22166 -0.13007
 C714 C 0.71119 0.20626 -0.12365
 C715 C 0.73793 0.17843 -0.07432
 C716 C 0.74071 0.16633 -0.05843
 C717 C 0.74396 0.15226 -0.03974
 C718 C 0.74675 0.14034 -0.02372
 H719 H 0.70142 0.18037 -0.10065
 H720 H 0.76695 0.20899 -0.09023
 H721 H 0.76137 0.23385 -0.12224
 H722 H 0.69541 0.20527 -0.13255
 C723 C 0.21434 0.69222 0.39423
 C724 C 0.23429 0.69331 0.40652
 C725 C 0.25096 0.70865 0.40044
 C726 C 0.24768 0.72291 0.38218
 C727 C 0.22764 0.72203 0.36971
 C728 C 0.21103 0.70645 0.37595
 C729 C 0.23757 0.67882 0.42548
 C730 C 0.24030 0.66677 0.44143
 C731 C 0.24346 0.65278 0.46018
 C732 C 0.24617 0.64094 0.47627
 H733 H 0.20130 0.68043 0.39883
 H734 H 0.26649 0.70962 0.40983
 H735 H 0.26095 0.73449 0.37783
 H736 H 0.19533 0.70534 0.36694
 C737 C 0.25395 0.71391 0.59590
 C738 C 0.26594 0.69375 0.59441
 C739 C 0.28105 0.68783 0.61132
 C740 C 0.28420 0.70202 0.62964
 C741 C 0.27224 0.72239 0.63131
 C742 C 0.25705 0.72814 0.61420
 C743 C 0.26281 0.67919 0.57550
 C744 C 0.26018 0.66707 0.55961
 C745 C 0.25708 0.65298 0.54093
 C746 C 0.25441 0.64105 0.52492
 H747 H 0.24223 0.71868 0.58288
 H748 H 0.29041 0.67223 0.61035
 H749 H 0.29589 0.69688 0.64249
 H750 H 0.24766 0.74369 0.61475
 C751 C 0.78678 0.19026 0.10794
 C752 C 0.76872 0.19376 0.09339
 C753 C 0.75433 0.21204 0.09671
 C754 C 0.75802 0.22686 0.11442
 C755 C 0.77624 0.22362 0.12909
 C756 C 0.79052 0.20506 0.12566
 C757 C 0.76514 0.17881 0.07486
 C758 C 0.76216 0.16647 0.05921
 C759 C 0.75865 0.15223 0.04072
 C760 C 0.75563 0.14026 0.02479
 H761 H 0.79802 0.17614 0.10554
 H762 H 0.74032 0.21494 0.08552
 H763 H 0.74673 0.24097 0.11635
 H764 H 0.80459 0.20185 0.13664
 C765 C 0.47008 0.36025 0.56078
 C766 C 0.48573 0.34354 0.55550
 C767 C 0.49822 0.34516 0.53582
 C768 C 0.49507 0.36339 0.52143
 C769 C 0.47931 0.38030 0.52652
 C770 C 0.46687 0.37850 0.54642
 C771 C 0.48888 0.32465 0.57017
 C772 C 0.49152 0.30874 0.58235
 C773 C 0.49460 0.29001 0.59647
 C774 C 0.49722 0.27393 0.60841
 H775 H 0.46032 0.35918 0.57599
 H776 H 0.51036 0.33229 0.53154
 H777 H 0.50484 0.36403 0.50625
 H778 H 0.45473 0.39120 0.55104
 C779 C -0.03420 0.85803 0.05647
 C780 C -0.01579 0.84367 0.05372
 C781 C -0.00089 0.84715 0.03604
 C782 C -0.00444 0.86481 0.02106
 C783 C -0.02302 0.87927 0.02353
 C784 C -0.03780 0.87570 0.04151
 C785 C -0.01242 0.82513 0.06879
 C786 C -0.00968 0.80945 0.08123
 C787 C -0.00653 0.79092 0.09558
 C788 C -0.00389 0.77493 0.10763
 H789 H -0.04585 0.85550 0.07012
 H790 H 0.01340 0.83609 0.03372
 H791 H 0.00725 0.86686 0.00742
 H792 H -0.05216 0.88652 0.04413
 C793 C 0.03537 0.64372 0.05622
 C794 C 0.01539 0.65610 0.05546
 C795 C -0.00147 0.65013 0.04032
 C796 C 0.00164 0.63189 0.02595
 C797 C 0.02170 0.61934 0.02652
 C798 C 0.03852 0.62547 0.04189
 C799 C 0.01227 0.67505 0.07004
 C800 C 0.00967 0.69100 0.08214
 C801 C 0.00662 0.70980 0.09616
 C802 C 0.00401 0.72597 0.10797
 H803 H 0.04856 0.64824 0.06785
 H804 H -0.01701 0.65959 0.03959
 H805 H -0.01176 0.62764 0.01453
 H806 H 0.05424 0.61639 0.04276
 C807 C 0.53234 0.13885 0.56069
 C808 C 0.51484 0.15414 0.55709
 C809 C 0.49975 0.15066 0.53953
 C810 C 0.50212 0.13196 0.52563
 C811 C 0.51964 0.11643 0.52909
 C812 C 0.53474 0.12013 0.54681
 C813 C 0.51232 0.17340 0.57139
 C814 C 0.51009 0.18958 0.58327
 C815 C 0.50736 0.20858 0.59708
 C816 C 0.50494 0.22486 0.60877
 H817 H 0.54414 0.14141 0.57422
 H818 H 0.48612 0.16238 0.53661
 H819 H 0.49006 0.12968 0.51233
 H820 H 0.54852 0.10870 0.54995
 C821 C -0.03521 0.14345 0.44300
 C822 C -0.01551 0.15617 0.44408
 C823 C 0.00128 0.15041 0.45939
 C824 C -0.00161 0.13204 0.47363
 C825 C -0.02138 0.11913 0.47275
 C826 C -0.03813 0.12506 0.45721
 C827 C -0.01258 0.17522 0.42958
 C828 C -0.01009 0.19125 0.41755
 C829 C -0.00709 0.21011 0.40360
 C830 C -0.00446 0.22629 0.39183
 H831 H -0.04834 0.14779 0.43124
 H832 H 0.01662 0.16013 0.46035
 H833 H 0.01175 0.12795 0.48518
 H834 H -0.05364 0.11569 0.45611
 C835 C 0.49855 0.65421 0.96507
 C836 C 0.48541 0.65627 0.94582
 C837 C 0.46922 0.64000 0.94097
 C838 C 0.46611 0.62176 0.95534
 C839 C 0.47917 0.61954 0.97483
 C840 C 0.49548 0.63599 0.97947
 C841 C 0.48842 0.67518 0.93116
 C842 C 0.49090 0.69111 0.91899
 C843 C 0.49377 0.70986 0.90488
 C844 C 0.49620 0.72598 0.89296
 H845 H 0.51112 0.66674 0.96901
 H846 H 0.45896 0.64142 0.92609
 H847 H 0.45351 0.60944 0.95105
 H848 H 0.50579 0.63502 0.99431
 C849 C 0.49802 0.85096 0.96029
 C850 C 0.51470 0.84523 0.94488
 C851 C 0.53439 0.85795 0.94371
 C852 C 0.53743 0.87632 0.95792
 C853 C 0.52080 0.88221 0.97356
 C854 C 0.50102 0.86931 0.97453
 C855 C 0.51169 0.82617 0.93043
 C856 C 0.50916 0.81013 0.91843
 C857 C 0.50620 0.79125 0.90452
 C858 C 0.50367 0.77504 0.89276
 H859 H 0.48269 0.84124 0.96132
 H860 H 0.54744 0.85362 0.93187
 H861 H 0.55293 0.88568 0.95675
 H862 H 0.48776 0.87338 0.98616
 C863 C 0.03066 0.36142 0.43985
 C864 C 0.01503 0.34472 0.44507
 C865 C 0.00252 0.34629 0.46474
 C866 C 0.00564 0.36446 0.47919
 C867 C 0.02137 0.38134 0.47416
 C868 C 0.03383 0.37960 0.45427
 C869 C 0.01193 0.32588 0.43035
 C870 C 0.00933 0.31001 0.41815
 C871 C 0.00627 0.29132 0.40401
 C872 C 0.00365 0.27525 0.39208
 H873 H 0.04043 0.36038 0.42464
 H874 H -0.00960 0.33343 0.46897
 H875 H -0.00416 0.36505 0.49436
 H876 H 0.04595 0.39229 0.44969
 C877 C 0.35737 0.55482 0.46447
 C878 C 0.34501 0.55335 0.48425
 C879 C 0.35122 0.53776 0.50060
 C880 C 0.36969 0.52364 0.49719
 C881 C 0.38225 0.52492 0.47733
 C882 C 0.37586 0.54073 0.46101
 C883 C 0.32588 0.56775 0.48770
 C884 C 0.30982 0.57976 0.49054
 C885 C 0.29095 0.59374 0.49382
 C886 C 0.27477 0.60561 0.49657
 H887 H 0.35267 0.56680 0.45167
 H888 H 0.34178 0.53650 0.51599
 H889 H 0.37414 0.51186 0.51021
 H890 H 0.38493 0.54214 0.44546
 C891 C 0.84533 0.03034 -0.00656
 C892 C 0.84365 0.05058 -0.01830
 C893 C 0.85984 0.05602 -0.03430
 C894 C 0.87756 0.04122 -0.03867
 C895 C 0.87934 0.02071 -0.02708
 C896 C 0.86303 0.01552 -0.01088
 C897 C 0.82513 0.06559 -0.01417
 C898 C 0.80949 0.07802 -0.01083
 C899 C 0.79103 0.09241 -0.00705
 C900 C 0.77514 0.10457 -0.00394
 H901 H 0.83286 0.02594 0.00585
 H902 H 0.85871 0.07167 -0.04349
 H903 H 0.88981 0.04595 -0.05111
 H904 H 0.86369 -0.00009 -0.00168
 C905 C 0.65291 0.03459 0.00411
 C906 C 0.65555 0.05396 0.01702
 C907 C 0.63947 0.05943 0.03314
 C908 C 0.62083 0.04556 0.03637
 C909 C 0.61799 0.02598 0.02349
 C910 C 0.63428 0.02069 0.00729
 C911 C 0.67481 0.06817 0.01378
 C912 C 0.69099 0.07999 0.01103
 C913 C 0.71000 0.09371 0.00776
 C914 C 0.72630 0.10533 0.00493
 H915 H 0.66528 0.03017 -0.00840
 H916 H 0.64134 0.07441 0.04322
 H917 H 0.60864 0.05033 0.04887
 H918 H 0.63284 0.00575 -0.00285
 C919 C 0.14925 0.53834 0.50063
 C920 C 0.15546 0.55384 0.51703
 C921 C 0.14309 0.55527 0.53681
 C922 C 0.12461 0.54123 0.54022
 C923 C 0.11824 0.52550 0.52386
 C924 C 0.13079 0.52427 0.50399
 C925 C 0.17460 0.56817 0.51364
 C926 C 0.19069 0.58010 0.51083
 C927 C 0.20959 0.59398 0.50756
 C928 C 0.22578 0.60575 0.50479
 H929 H 0.15870 0.53711 0.48523
 H930 H 0.14778 0.56719 0.54965
 H931 H 0.11554 0.54261 0.55577
 H932 H 0.12635 0.51256 0.49093
 C933 C 0.14361 0.44516 -0.03608
 C934 C 0.15612 0.44665 -0.01638
 C935 C 0.15001 0.46223 -0.00000
 C936 C 0.13147 0.47630 -0.00331
 C937 C 0.11875 0.47499 -0.02309
 C938 C 0.12506 0.45920 -0.03943
 C939 C 0.17529 0.43228 -0.01302
 C940 C 0.19138 0.42028 -0.01023
 C941 C 0.21027 0.40631 -0.00698
 C942 C 0.22645 0.39445 -0.00419
 H943 H 0.14822 0.43318 -0.04890
 H944 H 0.15957 0.46351 0.01534
 H945 H 0.12711 0.48807 0.00974
 H946 H 0.11586 0.45775 -0.05493
 C947 C 0.63961 0.94369 0.46651
 C948 C 0.65260 0.94546 0.48589
 C949 C 0.64623 0.96047 0.50269
 C950 C 0.62691 0.97362 0.50018
 C951 C 0.61364 0.97193 0.48079
 C952 C 0.62028 0.95682 0.46396
 C953 C 0.67236 0.93176 0.48860
 C954 C 0.68887 0.92024 0.49093
 C955 C 0.70815 0.90671 0.49375
 C956 C 0.72459 0.89513 0.49624
 H957 H 0.64440 0.93215 0.45338
 H958 H 0.65615 0.96195 0.51778
 H959 H 0.62235 0.98491 0.51357
 H960 H 0.61067 0.95513 0.44874
 C961 C 0.84712 0.96625 0.50294
 C962 C 0.84411 0.94729 0.51638
 C963 C 0.85983 0.94225 0.53301
 C964 C 0.87849 0.95611 0.53622
 C965 C 0.88171 0.97527 0.52281
 C966 C 0.86576 0.98015 0.50610
 C967 C 0.82488 0.93305 0.51312
 C968 C 0.80875 0.92115 0.51037
 C969 C 0.78985 0.90727 0.50714
 C970 C 0.77369 0.89544 0.50437
 H971 H 0.83504 0.97033 0.49002
 H972 H 0.85767 0.92759 0.54350
 H973 H 0.89036 0.95166 0.54915
 H974 H 0.86749 0.99473 0.49550
 C975 C 0.35141 0.46236 0.00072
 C976 C 0.34542 0.44659 0.01695
 C977 C 0.35793 0.44496 0.03665
 C978 C 0.37634 0.45907 0.04016
 C979 C 0.38251 0.47506 0.02397
 C980 C 0.36981 0.47650 0.00418
 C981 C 0.32636 0.43218 0.01345
 C982 C 0.31034 0.42018 0.01056
 C983 C 0.29152 0.40621 0.00720
 C984 C 0.27538 0.39438 0.00434
 H985 H 0.34185 0.46375 -0.01461
 H986 H 0.35341 0.43283 0.04935
 H987 H 0.38553 0.45752 0.05565
 H988 H 0.37408 0.48842 -0.00874
 C989 C 0.54229 0.50032 0.35111
 C990 C 0.55746 0.48352 0.34482
 C991 C 0.55839 0.46342 0.35688
 C992 C 0.54418 0.46009 0.37513
 C993 C 0.52878 0.47685 0.38159
 C994 C 0.52805 0.49703 0.36935
 C995 C 0.57196 0.48684 0.32590
 C996 C 0.58402 0.48962 0.31000
 C997 C 0.59803 0.49289 0.29131
 C998 C 0.60989 0.49570 0.27528
 H999 H 0.54146 0.51597 0.34190
 H1000 H 0.57005 0.45027 0.35212
 H1001 H 0.54516 0.44428 0.38397
 H1002 H 0.51661 0.51040 0.37387
 C1003 C 0.03791 -0.00181 0.84616
 C1004 C 0.05601 -0.01633 0.84241
 C1005 C 0.05944 -0.03470 0.85658
 C1006 C 0.04476 -0.03864 0.87435
 C1007 C 0.02637 -0.02424 0.87819
 C1008 C 0.02320 -0.00571 0.86391
 C1009 C 0.07083 -0.01259 0.82383
 C1010 C 0.08311 -0.00956 0.80814
 C1011 C 0.09731 -0.00611 0.78962
 C1012 C 0.10930 -0.00324 0.77369
 H1013 H 0.03511 0.01248 0.83531
 H1014 H 0.07337 -0.04609 0.85380
 H1015 H 0.04772 -0.05314 0.88481
 H1016 H 0.00941 0.00587 0.86639
 C1017 C 0.05826 0.03690 0.64285
 C1018 C 0.05692 0.01716 0.65543
 C1019 C 0.04129 0.00064 0.64964
 C1020 C 0.02701 0.00384 0.63137
 C1021 C 0.02817 0.02367 0.61859
 C1022 C 0.04401 0.04015 0.62456
 C1023 C 0.07146 0.01390 0.67437
 C1024 C 0.08354 0.01116 0.69029
 C1025 C 0.09757 0.00793 0.70902
 C1026 C 0.10944 0.00515 0.72509
 H1027 H 0.07027 0.04983 0.64722
 H1028 H 0.04012 -0.01473 0.65926
 H1029 H 0.01522 -0.00931 0.62726
 H1030 H 0.04534 0.05569 0.61531
 C1031 C 0.54239 0.49950 0.15054
 C1032 C 0.55751 0.51628 0.15688
 C1033 C 0.55842 0.53637 0.14482
 C1034 C 0.54423 0.53972 0.12650
 C1035 C 0.52888 0.52299 0.12000
 C1036 C 0.52817 0.50281 0.13224
 C1037 C 0.57197 0.51294 0.17586
 C1038 C 0.58400 0.51016 0.19182
 C1039 C 0.59799 0.50691 0.21057
 C1040 C 0.60984 0.50415 0.22665
 H1041 H 0.54157 0.48386 0.15975
 H1042 H 0.57003 0.54950 0.14962
 H1043 H 0.54519 0.55552 0.11766
 H1044 H 0.51677 0.48945 0.12768
 C1045 C 0.44294 -0.03670 0.14470
 C1046 C 0.44394 -0.01676 0.15698
 C1047 C 0.45916 0.00001 0.15088
 C1048 C 0.47337 -0.00314 0.13258
 C1049 C 0.47254 -0.02314 0.12008
 C1050 C 0.45711 -0.03989 0.12638
 C1051 C 0.42942 -0.01354 0.17590
 C1052 C 0.41731 -0.01083 0.19178
 C1053 C 0.40323 -0.00764 0.21044
 C1054 C 0.39128 -0.00489 0.22642
 H1055 H 0.43125 -0.04982 0.14931
 H1056 H 0.46006 0.01553 0.16026
 H1057 H 0.48483 0.01022 0.12820
 H1058 H 0.45606 -0.05557 0.11735
 C1059 C 0.95861 0.50052 0.65034
 C1060 C 0.94328 0.48384 0.65643
 C1061 C 0.94218 0.46391 0.64415
 C1062 C 0.95637 0.46062 0.62586
 C1063 C 0.97192 0.47725 0.61960
 C1064 C 0.97283 0.49728 0.63207
 C1065 C 0.92882 0.48713 0.67538
 C1066 C 0.91679 0.48988 0.69132
 C1067 C 0.90281 0.49312 0.71005
 C1068 C 0.89097 0.49590 0.72610
 H1069 H 0.95958 0.51604 0.65972
 H1070 H 0.93040 0.45085 0.64875
 H1071 H 0.95525 0.44493 0.61685
 H1072 H 0.98439 0.51055 0.62771
 C1073 C 0.94249 0.53672 0.85640
 C1074 C 0.94339 0.51661 0.84437
 C1075 C 0.95854 0.49979 0.85073
 C1076 C 0.97278 0.50307 0.86899
 C1077 C 0.97208 0.52327 0.88120
 C1078 C 0.95670 0.54004 0.87469
 C1079 C 0.92890 0.51328 0.82543
 C1080 C 0.91686 0.51049 0.80950
 C1081 C 0.90285 0.50720 0.79078
 C1082 C 0.89100 0.50438 0.77472
 H1083 H 0.93085 0.54989 0.85159
 H1084 H 0.95935 0.48413 0.84155
 H1085 H 0.98420 0.48968 0.87356
 H1086 H 0.95575 0.55586 0.88350
 C1087 C 0.46036 0.00018 0.34946
 C1088 C 0.44237 0.01481 0.34559
 C1089 C 0.43810 0.03233 0.36054
 C1090 C 0.45173 0.03520 0.37933
 C1091 C 0.46986 0.02054 0.38346
 C1092 C 0.47401 0.00300 0.36825
 C1093 C 0.42826 0.01180 0.32631
 C1094 C 0.41646 0.00923 0.31016
 C1095 C 0.40268 0.00615 0.29124
 C1096 C 0.39097 0.00346 0.27506
 H1097 H 0.46385 -0.01342 0.33796
 H1098 H 0.42419 0.04375 0.35772
 H1099 H 0.44785 0.04878 0.39067
 H1100 H 0.48786 -0.00851 0.37069
   
