data_POSCAR
  _audit_creation_date              2014-09-24
  _audit_creation_method            'ToBaCCo'
  _symmetry_space_group_name_H-M    'P1'
  _symmetry_Int_Tables_number       1
  _symmetry_cell_setting            triclinic
  loop_
  _symmetry_equiv_pos_as_xyz
 x,y,z
_cell_length_a 17.1669
_cell_length_b 17.2054
_cell_length_c 24.9920
_cell_angle_alpha 90.000000
_cell_angle_beta 89.739700
_cell_angle_gamma 90.000000
loop_
  _atom_site_label
  _atom_site_type_symbol
  _atom_site_fract_x
  _atom_site_fract_y
  _atom_site_fract_z
O1 O 0.14780 0.09208 0.03639
 O2 O -0.14803 -0.08839 0.03724
 O3 O -0.09034 0.14952 0.03764
 O4 O 0.09015 -0.14581 0.03705
 O5 O -0.13307 0.04207 0.06678
 O6 O 0.13311 -0.03845 0.06610
 O7 O -0.04058 -0.13090 0.06638
 O8 O 0.04040 0.13460 0.06619
 C9 C 0.11055 0.12418 0.07326
 C10 C -0.11079 -0.12078 0.07378
 C11 C -0.12364 0.11234 0.07423
 C12 C 0.12300 -0.10856 0.07346
 O13 O 0.14797 -0.08839 -0.03728
 O14 O -0.14786 0.09208 -0.03643
 O15 O 0.09028 0.14952 -0.03768
 O16 O -0.09021 -0.14581 -0.03709
 O17 O -0.13317 -0.03845 -0.06614
 O18 O 0.13301 0.04207 -0.06681
 O19 O 0.04052 -0.13090 -0.06642
 O20 O -0.04046 0.13460 -0.06623
 Co21 Co 0.12709 0.00183 -0.00036
 Co22 Co -0.12715 0.00183 0.00032
 Co23 Co -0.00003 0.12866 -0.00002
 Co24 Co -0.00003 -0.12498 -0.00002
 O25 O -0.00003 0.00183 -0.00002
 C26 C 0.11073 -0.12078 -0.07382
 C27 C -0.11061 0.12418 -0.07330
 C28 C 0.12358 0.11234 -0.07427
 C29 C -0.12306 -0.10856 -0.07350
 O30 O 0.40931 0.34970 0.46421
 O31 O 0.59093 0.64643 0.46409
 O32 O 0.35225 0.58736 0.46215
 O33 O 0.64798 0.40884 0.46185
 O34 O 0.46023 0.63136 0.43322
 O35 O 0.54034 0.36472 0.43312
 O36 O 0.63355 0.53970 0.43354
 O37 O 0.36691 0.45654 0.43389
 C38 C 0.37730 0.38641 0.42751
 C39 C 0.62310 0.60981 0.42724
 C40 C 0.39011 0.62042 0.42603
 C41 C 0.61047 0.37601 0.42571
 O42 O 0.59063 0.34970 0.53575
 O43 O 0.40901 0.64643 0.53587
 O44 O 0.35196 0.40884 0.53811
 O45 O 0.64769 0.58736 0.53782
 O46 O 0.53971 0.63136 0.56674
 O47 O 0.45960 0.36472 0.56684
 O48 O 0.63303 0.45654 0.56608
 O49 O 0.36639 0.53970 0.56642
 Co50 Co 0.49997 0.37078 0.49998
 Co51 Co 0.49997 0.62532 0.49998
 Co52 Co 0.37278 0.49811 0.50013
 Co53 Co 0.62716 0.49811 0.49983
 O54 O 0.49997 0.49808 0.49998
 C55 C 0.62265 0.38641 0.57245
 C56 C 0.37684 0.60981 0.57273
 C57 C 0.38947 0.37601 0.57426
 C58 C 0.60983 0.62042 0.57393
 C59 C 0.14163 0.22509 0.20579
 C60 C 0.22185 0.21582 0.21285
 C61 C 0.26584 0.17541 0.17460
 C62 C 0.22971 0.14496 0.12911
 C63 C 0.14921 0.15487 0.12148
 C64 C 0.10545 0.19477 0.16047
 C65 C 0.25862 0.24943 0.25891
 C66 C 0.28767 0.27912 0.29762
 C67 C 0.31996 0.31538 0.34296
 C68 C 0.34649 0.34738 0.38164
 H69 H 0.10707 0.25626 0.23516
 H70 H 0.32801 0.16789 0.17976
 H71 H 0.26468 0.11408 0.09987
 H72 H 0.04328 0.20302 0.15582
 C73 C 0.85824 0.77607 0.20563
 C74 C 0.77786 0.78427 0.21292
 C75 C 0.73371 0.82486 0.17513
 C76 C 0.76985 0.85651 0.12982
 C77 C 0.85052 0.84761 0.12192
 C78 C 0.89442 0.80758 0.16050
 C79 C 0.74116 0.74941 0.25878
 C80 C 0.71229 0.71875 0.29736
 C81 C 0.68026 0.68156 0.34260
 C82 C 0.65388 0.64903 0.38127
 H83 H 0.89291 0.74480 0.23467
 H84 H 0.67141 0.83155 0.18049
 H85 H 0.73477 0.88745 0.10089
 H86 H 0.95671 0.80009 0.15564
 C87 C 0.73410 0.17541 0.82536
 C88 C 0.77810 0.21582 0.78712
 C89 C 0.85832 0.22509 0.79418
 C90 C 0.89449 0.19477 0.83949
 C91 C 0.85073 0.15487 0.87849
 C92 C 0.77023 0.14496 0.87085
 C93 C 0.74132 0.24943 0.74105
 C94 C 0.71227 0.27913 0.70234
 C95 C 0.67999 0.31538 0.65700
 C96 C 0.65345 0.34738 0.61832
 H97 H 0.67193 0.16789 0.82020
 H98 H 0.89287 0.25626 0.76480
 H99 H 0.95666 0.20302 0.84414
 H100 H 0.73526 0.11408 0.90009
 C101 C 0.14170 0.77607 0.79433
 C102 C 0.22208 0.78427 0.78704
 C103 C 0.26623 0.82486 0.82483
 C104 C 0.23009 0.85651 0.87015
 C105 C 0.14943 0.84761 0.87804
 C106 C 0.10552 0.80758 0.83946
 C107 C 0.25878 0.74941 0.74118
 C108 C 0.28765 0.71875 0.70260
 C109 C 0.31969 0.68156 0.65737
 C110 C 0.34606 0.64903 0.61869
 H111 H 0.10703 0.74480 0.76529
 H112 H 0.32853 0.83154 0.81947
 H113 H 0.26517 0.88745 0.89908
 H114 H 0.04323 0.80009 0.84432
 C115 C 0.17637 0.26442 0.82836
 C116 C 0.21666 0.22044 0.79010
 C117 C 0.22427 0.14020 0.79702
 C118 C 0.19262 0.10396 0.84215
 C119 C 0.15268 0.14754 0.88161
 C120 C 0.14450 0.22843 0.87373
 C121 C 0.25156 0.25714 0.74401
 C122 C 0.28203 0.28611 0.70523
 C123 C 0.31883 0.31842 0.65967
 C124 C 0.35086 0.34502 0.62069
 H125 H 0.17000 0.32664 0.82333
 H126 H 0.25521 0.10553 0.76762
 H127 H 0.20013 0.04166 0.84609
 H128 H 0.11393 0.26424 0.90266
 C129 C 0.77181 0.85974 0.79542
 C130 C 0.78080 0.77962 0.78806
 C131 C 0.82243 0.73599 0.82564
 C132 C 0.85434 0.77229 0.87066
 C133 C 0.84478 0.85267 0.87860
 C134 C 0.80361 0.89609 0.84028
 C135 C 0.74613 0.74254 0.74227
 C136 C 0.71599 0.71295 0.70380
 C137 C 0.67967 0.67969 0.65863
 C138 C 0.64804 0.65225 0.61999
 H139 H 0.73980 0.89411 0.76660
 H140 H 0.82986 0.67394 0.82032
 H141 H 0.88610 0.73749 0.89933
 H142 H 0.79551 0.95814 0.84513
 C143 C 0.22813 0.85974 0.20455
 C144 C 0.21914 0.77961 0.21191
 C145 C 0.17751 0.73599 0.17432
 C146 C 0.14561 0.77229 0.12930
 C147 C 0.15516 0.85267 0.12137
 C148 C 0.19634 0.89609 0.15968
 C149 C 0.25381 0.74254 0.25770
 C150 C 0.28395 0.71295 0.29616
 C151 C 0.32027 0.67969 0.34133
 C152 C 0.35190 0.65225 0.37997
 H153 H 0.26014 0.89411 0.23337
 H154 H 0.17009 0.67394 0.17965
 H155 H 0.11384 0.73749 0.10063
 H156 H 0.20443 0.95814 0.15484
 C157 C 0.77567 0.14020 0.20294
 C158 C 0.78328 0.22044 0.20987
 C159 C 0.82357 0.26442 0.17160
 C160 C 0.85544 0.22843 0.12623
 C161 C 0.84726 0.14754 0.11835
 C162 C 0.80732 0.10396 0.15782
 C163 C 0.74838 0.25715 0.25596
 C164 C 0.71791 0.28611 0.29473
 C165 C 0.68112 0.31842 0.34029
 C166 C 0.64908 0.34503 0.37927
 H167 H 0.74473 0.10553 0.23234
 H168 H 0.82994 0.32664 0.17664
 H169 H 0.88602 0.26425 0.09731
 H170 H 0.79982 0.04166 0.15387
   
