data_POSCAR
  _audit_creation_date              2014-09-24
  _audit_creation_method            'ToBaCCo'
  _symmetry_space_group_name_H-M    'P1'
  _symmetry_Int_Tables_number       1
  _symmetry_cell_setting            triclinic
  loop_
  _symmetry_equiv_pos_as_xyz
 x,y,z
_cell_length_a 46.8939
_cell_length_b 44.2177
_cell_length_c 47.1858
_cell_angle_alpha 90.052700
_cell_angle_beta 92.091400
_cell_angle_gamma 92.551300
loop_
  _atom_site_label
  _atom_site_type_symbol
  _atom_site_fract_x
  _atom_site_fract_y
  _atom_site_fract_z
N1 N 0.10058 0.09725 0.18537
 N2 N 0.12074 0.07759 0.18638
 C3 C 0.12116 0.06410 0.21192
 C4 C 0.10024 0.07624 0.22813
 C5 C 0.08742 0.09700 0.21020
 H6 H 0.13689 0.04819 0.21858
 H7 H 0.07087 0.11218 0.21514
 Cu8 Cu 0.14752 0.07515 0.15621
 Cu9 Cu 0.09572 0.12505 0.15384
 Cu10 Cu 0.14695 0.12474 0.10255
 N11 N 0.18084 0.08261 0.13366
 N12 N 0.18082 0.10239 0.11293
 C13 C 0.20684 0.10402 0.10173
 C14 C 0.22439 0.08432 0.11647
 C15 C 0.20682 0.07104 0.13653
 H16 H 0.21242 0.11892 0.08447
 H17 H 0.21242 0.05471 0.15257
 N18 N 0.11460 0.15199 0.10115
 N19 N 0.09480 0.15146 0.12034
 C20 C 0.07688 0.17380 0.11484
 C21 C 0.08588 0.18950 0.09125
 C22 C 0.10991 0.17500 0.08307
 H23 H 0.05977 0.17970 0.12826
 H24 H 0.12367 0.18148 0.06601
 H25 H 0.11476 0.10064 0.12319
 H26 H 0.13869 0.12738 0.14460
 N27 N -0.12497 0.84933 0.19637
 N28 N -0.14607 0.86712 0.20091
 C29 C -0.14029 0.88249 0.22527
 C30 C -0.11406 0.87394 0.23661
 C31 C -0.10503 0.85290 0.21744
 H32 H -0.15436 0.89840 0.23417
 H33 H -0.08563 0.84059 0.21873
 Cu34 Cu -0.17903 0.86819 0.17438
 Cu35 Cu -0.12493 0.82239 0.16371
 Cu36 Cu -0.19199 0.80758 0.13270
 N37 N -0.21101 0.86651 0.14643
 N38 N -0.21536 0.84264 0.13002
 C39 C -0.23824 0.84637 0.11271
 C40 C -0.24926 0.87429 0.11829
 C41 C -0.23135 0.88640 0.14013
 H42 H -0.24632 0.82943 0.09761
 H43 H -0.23271 0.90810 0.15045
 N44 N -0.15989 0.78151 0.12746
 N45 N -0.13402 0.78749 0.13851
 C46 C -0.11664 0.76603 0.13008
 C47 C -0.13236 0.74579 0.11258
 C48 C -0.15969 0.75637 0.11148
 H49 H -0.09417 0.76541 0.13599
 H50 H -0.17813 0.74660 0.09981
 H51 H -0.15852 0.83767 0.13771
 H52 H -0.16687 0.81521 0.17009
 N53 N -0.09755 0.08914 -0.17407
 N54 N -0.12146 0.07248 -0.17461
 C55 C -0.12373 0.05658 -0.19902
 C56 C -0.09990 0.06376 -0.21466
 C57 C -0.08360 0.08421 -0.19788
 H58 H -0.14234 0.04273 -0.20577
 H59 H -0.06392 0.09618 -0.20323
 Cu60 Cu -0.14896 0.07647 -0.14518
 Cu61 Cu -0.08842 0.11945 -0.14483
 Cu62 Cu -0.14655 0.14001 -0.10661
 N63 N -0.18198 0.08872 -0.12517
 N64 N -0.18132 0.11396 -0.11043
 C65 C -0.20725 0.11753 -0.09983
 C66 C -0.22544 0.09330 -0.10876
 C67 C -0.20831 0.07548 -0.12479
 H68 H -0.21239 0.13664 -0.08699
 H69 H -0.21439 0.05471 -0.13594
 N70 N -0.11113 0.16578 -0.10924
 N71 N -0.08850 0.15700 -0.12238
 C72 C -0.06833 0.17965 -0.12166
 C73 C -0.07886 0.20415 -0.10785
 C74 C -0.10603 0.19446 -0.10015
 H75 H -0.04834 0.17913 -0.13233
 H76 H -0.12136 0.20767 -0.08958
 H77 H -0.11691 0.10855 -0.11361
 H78 H -0.13094 0.12850 -0.14546
 N79 N 0.09533 0.90540 -0.18130
 N80 N 0.11619 0.92534 -0.18601
 C81 C 0.11067 0.93944 -0.21069
 C82 C 0.08510 0.92734 -0.22238
 C83 C 0.07583 0.90594 -0.20294
 H84 H 0.12502 0.95611 -0.22004
 H85 H 0.05746 0.89034 -0.20533
 Cu86 Cu 0.15039 0.92906 -0.16145
 Cu87 Cu 0.09784 0.87781 -0.14950
 Cu88 Cu 0.16267 0.86584 -0.11990
 N89 N 0.18728 0.92233 -0.14196
 N90 N 0.19210 0.89856 -0.12589
 C91 C 0.21947 0.90054 -0.11608
 C92 C 0.23274 0.92663 -0.12691
 C93 C 0.21143 0.93975 -0.14324
 H94 H 0.22914 0.88371 -0.10272
 H95 H 0.21310 0.96055 -0.15516
 N96 N 0.13038 0.83654 -0.11671
 N97 N 0.10490 0.84177 -0.12762
 C98 C 0.08743 0.81726 -0.12418
 C99 C 0.10271 0.79513 -0.11046
 C100 C 0.12992 0.80834 -0.10584
 H101 H 0.06559 0.81535 -0.13234
 H102 H 0.14842 0.79769 -0.09672
 H103 H 0.13959 0.90360 -0.12551
 H104 H 0.14837 0.88289 -0.15825
 N105 N 0.11403 1.07273 0.83215
 N106 N 0.09883 1.09686 0.82936
 C107 C 0.08761 1.09774 0.80276
 C108 C 0.09639 1.07291 0.78783
 C109 C 0.11309 1.05747 0.80740
 H110 H 0.07505 1.11594 0.79468
 H111 H 0.12504 1.03760 0.80362
 Cu112 Cu 0.09714 1.12718 0.85939
 Cu113 Cu 0.13701 1.06619 0.86641
 Cu114 Cu 0.13832 1.11511 0.92054
 N115 N 0.09843 1.15475 0.89251
 N116 N 0.11361 1.14963 0.91598
 C117 C 0.11222 1.17340 0.93360
 C118 C 0.09546 1.19484 0.92066
 C119 C 0.08692 1.18199 0.89467
 H120 H 0.12429 1.17571 0.95350
 H121 H 0.07445 1.19230 0.87791
 N122 N 0.16922 1.08793 0.91523
 N123 N 0.16858 1.06831 0.89427
 C124 C 0.19351 1.05434 0.89443
 C125 C 0.21081 1.06608 0.91658
 C126 C 0.19455 1.08718 0.92947
 H127 H 0.19936 1.03849 0.87839
 H128 H 0.20105 1.10197 0.94703
 H129 H 0.10549 1.09881 0.89231
 H130 H 0.13690 1.11967 0.87742
 N131 N 0.83521 0.88609 0.79356
 N132 N 0.85242 0.86382 0.78936
 C133 C 0.86725 0.86994 0.76589
 C134 C 0.85881 0.89732 0.75472
 C135 C 0.83856 0.90684 0.77299
 H136 H 0.88221 0.85501 0.75696
 H137 H 0.82664 0.92714 0.77114
 Cu138 Cu 0.85288 0.82721 0.81369
 Cu139 Cu 0.80764 0.88602 0.82410
 Cu140 Cu 0.79938 0.82082 0.85927
 N141 N 0.84932 0.79329 0.84035
 N142 N 0.82807 0.79098 0.85773
 C143 C 0.83051 0.76604 0.87365
 C144 C 0.85460 0.75157 0.86597
 C145 C 0.86612 0.76959 0.84471
 H146 H 0.81608 0.75942 0.89011
 H147 H 0.88518 0.76574 0.83325
 N148 N 0.77876 0.85586 0.86930
 N149 N 0.78181 0.88146 0.85545
 C150 C 0.76398 0.90142 0.86585
 C151 C 0.74907 0.88751 0.88751
 C152 C 0.75912 0.85859 0.88908
 H153 H 0.76178 0.92417 0.85796
 H154 H 0.75198 0.84048 0.90285
 H155 H 0.83593 0.85598 0.84218
 H156 H 0.81137 0.84073 0.81292
 N157 N 0.13643 0.89312 1.20316
 N158 N 0.12005 0.86839 1.19977
 C159 C 0.10255 0.86575 1.22176
 C160 C 0.10819 0.89021 1.23990
 C161 C 0.12987 0.90706 1.22723
 H162 H 0.08709 0.84721 1.22446
 H163 H 0.14031 0.92793 1.23484
 Cu164 Cu 0.12328 0.84194 1.16701
 Cu165 Cu 0.16522 0.90566 1.17640
 Cu166 Cu 0.17809 0.85423 1.12372
 N167 N 0.12996 0.81468 1.13558
 N168 N 0.15104 0.82020 1.11843
 C169 C 0.15159 0.79769 1.09935
 C170 C 0.12994 0.77659 1.10486
 C171 C 0.11660 0.78808 1.12808
 H172 H 0.16754 0.79598 1.08351
 H173 H 0.09890 0.77756 1.13903
 N174 N 0.20319 0.88998 1.13206
 N175 N 0.19845 0.90981 1.15202
 C176 C 0.22036 0.93068 1.15335
 C177 C 0.23980 0.92357 1.13316
 C178 C 0.22803 0.89763 1.12013
 H179 H 0.22229 0.94922 1.16833
 H180 H 0.23735 0.88450 1.10384
 H181 H 0.14923 0.88171 1.14096
 H182 H 0.17256 0.86143 1.16697
 N183 N 0.88552 1.07220 1.17598
 N184 N 0.90646 1.09283 1.17879
 C185 C 0.91752 1.09204 1.20547
 C186 C 0.90252 1.06979 1.22026
 C187 C 0.88249 1.05752 1.20074
 H188 H 0.93449 1.10733 1.21369
 H189 H 0.86570 1.04066 1.20471
 Cu190 Cu 0.91616 1.12064 1.14814
 Cu191 Cu 0.86151 1.06969 1.14169
 Cu192 Cu 0.86091 1.12992 1.09841
 N193 N 0.91580 1.15426 1.12076
 N194 N 0.89472 1.15794 1.10197
 C195 C 0.89931 1.18445 1.08851
 C196 C 0.92440 1.19831 1.09950
 C197 C 0.93434 1.17832 1.11979
 H198 H 0.88459 1.19380 1.07307
 H199 H 0.95300 1.18155 1.13376
 N200 N 0.82960 1.09950 1.09847
 N201 N 0.82988 1.07572 1.11512
 C202 C 0.80401 1.06131 1.11371
 C203 C 0.78635 1.07703 1.09528
 C204 C 0.80357 1.10098 1.08581
 H205 H 0.79797 1.04247 1.12713
 H206 H 0.79721 1.11949 1.07243
 H207 H 0.89254 1.10283 1.11297
 H208 H 0.87333 1.12350 1.14034
 N209 N 0.53209 1.07825 1.05528
 N210 N 0.55739 1.07915 1.06844
 N211 N 0.47127 1.09399 1.03500
 N212 N 0.44665 1.10726 1.03471
 N213 N 0.47171 1.07259 1.05430
 N214 N 0.44724 1.07078 1.06743
 N215 N 0.53137 1.09879 1.03517
 N216 N 0.55614 1.11416 1.03445
 C217 C 0.57205 1.10192 1.05558
 C218 C 0.43193 1.09285 1.05515
 N219 N 0.46768 1.07149 0.95546
 N220 N 0.44188 1.06875 0.94320
 N221 N 0.52908 1.09820 0.97384
 N222 N 0.55365 1.11407 0.97375
 N223 N 0.52813 1.07729 0.95397
 N224 N 0.55211 1.07841 0.94014
 N225 N 0.46891 1.09354 0.97421
 N226 N 0.44418 1.10656 0.97475
 Mn227 Mn 0.50030 1.09652 1.00456
 C228 C 0.42760 1.09115 0.95517
 C229 C 0.56770 1.10168 0.95238
 N230 N 0.47495 1.00741 1.05481
 N231 N 0.45118 1.00355 1.06888
 N232 N 0.53646 0.99323 1.03582
 N233 N 0.55967 0.97764 1.03943
 N234 N 0.53518 1.01371 1.05584
 N235 N 0.55760 1.01266 1.07354
 N236 N 0.47655 0.98607 1.03560
 N237 N 0.45396 0.96731 1.03610
 Mn238 Mn 0.50333 1.04306 1.05545
 C239 C 0.43844 0.97820 1.05710
 C240 C 0.57271 0.99004 1.06306
 N241 N 0.53089 1.01285 0.95417
 N242 N 0.55214 1.01240 0.93669
 N243 N 0.47411 0.98540 0.97495
 N244 N 0.45234 0.96547 0.97352
 N245 N 0.47100 1.00639 0.95557
 N246 N 0.44704 1.00117 0.94037
 N247 N 0.53410 0.99276 0.97436
 N248 N 0.55771 0.97805 0.97108
 Mn249 Mn 0.49922 1.04208 0.95442
 Mn250 Mn 0.50552 0.98901 1.00521
 Cl251 Cl 0.50210 1.04262 1.00491
 C252 C 0.56870 0.99060 0.94739
 C253 C 0.43570 0.97540 0.95176
 N254 N 0.04763 0.45226 0.03388
 N255 N 0.04730 0.42483 0.04510
 N256 N 0.07204 0.51910 0.02475
 N257 N 0.08789 0.54402 0.03060
 N258 N 0.05215 0.51518 0.04341
 N259 N 0.05412 0.53689 0.06257
 N260 N 0.06865 0.45579 0.01644
 N261 N 0.08335 0.43110 0.01554
 C262 C 0.06994 0.41201 0.03356
 C263 C 0.07659 0.55456 0.05457
 N264 N 0.05515 0.53040 -0.05663
 N265 N 0.05789 0.55756 -0.06804
 N266 N 0.06998 0.46374 -0.04370
 N267 N 0.08062 0.43661 -0.04523
 N268 N 0.05073 0.46710 -0.06428
 N269 N 0.04821 0.44265 -0.08036
 N270 N 0.07422 0.52745 -0.03587
 N271 N 0.09054 0.55244 -0.03280
 Mn272 Mn 0.07166 0.49168 -0.00961
 C273 C 0.08028 0.57094 -0.05322
 C274 C 0.06720 0.42393 -0.06849
 N275 N -0.00878 0.51809 0.03987
 N276 N -0.00985 0.53931 0.05946
 N277 N -0.03307 0.45917 0.01038
 N278 N -0.04970 0.43436 0.00698
 N279 N -0.01370 0.45524 0.03069
 N280 N -0.01678 0.42801 0.04174
 N281 N -0.02765 0.52249 0.01923
 N282 N -0.04214 0.54671 0.02426
 Mn283 Mn 0.01929 0.48502 0.03729
 C284 C -0.03087 0.55691 0.04951
 C285 C -0.03943 0.41527 0.02697
 N286 N -0.01078 0.46899 -0.06737
 N287 N -0.01400 0.44532 -0.08462
 N288 N -0.02591 0.53163 -0.04156
 N289 N -0.04156 0.55572 -0.04408
 N290 N -0.00568 0.53263 -0.06006
 N291 N -0.00666 0.55752 -0.07535
 N292 N -0.03168 0.46896 -0.04961
 N293 N -0.04985 0.44589 -0.05458
 Mn294 Mn 0.02242 0.49972 -0.06247
 Mn295 Mn -0.02995 0.49575 -0.01533
 Cl296 Cl 0.02085 0.49308 -0.01254
 C297 C -0.03879 0.43148 -0.07654
 C298 C -0.02909 0.57175 -0.06520
 N299 N 1.04460 0.06693 0.47339
 N300 N 1.05712 0.06855 0.44888
 N301 N 1.02662 0.08288 0.53352
 N302 N 1.02661 0.09659 0.55833
 N303 N 1.04696 0.06341 0.53326
 N304 N 1.06090 0.06313 0.55814
 N305 N 1.02337 0.08532 0.47371
 N306 N 1.02101 0.09977 0.44927
 C307 C 1.04251 0.08932 0.43413
 C308 C 1.04820 0.08433 0.57342
 N309 N 0.94729 0.05249 0.53440
 N310 N 0.93562 0.04965 0.55942
 N311 N 0.96201 0.07878 0.47509
 N312 N 0.95997 0.09478 0.45163
 N313 N 0.94356 0.05551 0.47417
 N314 N 0.92896 0.05493 0.44964
 N315 N 0.96547 0.07597 0.53440
 N316 N 0.96632 0.08975 0.55921
 Mn317 Mn 0.99435 0.08109 0.50411
 C318 C 0.94745 0.07335 0.57454
 C319 C 0.93910 0.07990 0.43603
 N320 N 1.05102 -0.00112 0.52887
 N321 N 1.06786 -0.00186 0.55173
 N322 N 1.02954 -0.02041 0.46814
 N323 N 1.03287 -0.03612 0.44466
 N324 N 1.04821 0.00259 0.46989
 N325 N 1.06474 0.00309 0.44794
 N326 N 1.03233 -0.02415 0.52832
 N327 N 1.03560 -0.04076 0.55144
 Mn328 Mn 1.04798 0.03306 0.50143
 C329 C 1.05820 -0.02674 0.56553
 C330 C 1.05506 -0.02111 0.43232
 N331 N 0.94674 -0.00900 0.47136
 N332 N 0.92890 -0.01137 0.44920
 N333 N 0.97127 -0.03130 0.52883
 N334 N 0.97211 -0.04940 0.55106
 N335 N 0.95061 -0.01239 0.53088
 N336 N 0.93679 -0.01731 0.55445
 N337 N 0.96778 -0.02734 0.46887
 N338 N 0.96476 -0.04260 0.44469
 Mn339 Mn 0.94666 0.02167 0.50279
 Mn340 Mn 1.00024 -0.02630 0.49840
 Cl341 Cl 0.99728 0.02731 0.50166
 C342 C 0.94019 -0.03244 0.43275
 C343 C 0.95035 -0.04061 0.56678
 C344 C 1.07522 0.08794 0.27139
 C345 C 1.07214 0.08495 0.30073
 C346 C 1.08906 0.06459 0.31619
 C347 C 1.10820 0.04706 0.30203
 C348 C 1.11134 0.05034 0.27289
 C349 C 1.09536 0.07125 0.25714
 C350 C 1.08681 0.06227 0.34560
 C351 C 1.06770 0.07989 0.35977
 C352 C 1.05034 0.09991 0.34438
 C353 C 1.05271 0.10236 0.31490
 C354 C 1.03093 0.11708 0.35880
 C355 C 1.02867 0.11426 0.38818
 C356 C 1.04596 0.09445 0.40355
 C357 C 1.06557 0.07753 0.38916
 H358 H 1.06224 0.10390 0.26008
 H359 H 1.12104 0.03105 0.31356
 H360 H 1.12667 0.03657 0.26301
 H361 H 1.10008 0.04693 0.35750
 H362 H 1.03958 0.11790 0.30305
 H363 H 1.01734 0.13244 0.34734
 H364 H 1.01318 0.12725 0.39882
 H365 H 1.07884 0.06194 0.40075
 C366 C 0.88870 -0.09434 0.28108
 C367 C 0.90198 -0.08573 0.30720
 C368 C 0.92776 -0.09872 0.31622
 C369 C 0.93997 -0.11987 0.29876
 C370 C 0.92656 -0.12845 0.27287
 C371 C 0.90065 -0.11602 0.26376
 C372 C 0.94076 -0.09060 0.34262
 C373 C 0.92812 -0.06980 0.36025
 C374 C 0.90240 -0.05670 0.35103
 C375 C 0.88961 -0.06459 0.32457
 C376 C 0.88965 -0.03606 0.36855
 C377 C 0.90211 -0.02850 0.39500
 C378 C 0.92759 -0.04135 0.40459
 C379 C 0.94062 -0.06199 0.38703
 H380 H 0.86891 -0.08428 0.27453
 H381 H 0.95978 -0.13002 0.30524
 H382 H 0.93654 -0.14508 0.26020
 H383 H 0.96049 -0.10068 0.34955
 H384 H 0.86986 -0.05452 0.31766
 H385 H 0.86998 -0.02579 0.36182
 H386 H 0.89165 -0.01247 0.40803
 H387 H 0.96033 -0.07196 0.39416
 C388 C 0.92251 0.07479 0.73900
 C389 C 0.92465 0.06976 0.70988
 C390 C 0.90891 0.04533 0.69664
 C391 C 0.89160 0.02608 0.71303
 C392 C 0.88924 0.03153 0.74205
 C393 C 0.90441 0.05614 0.75525
 C394 C 0.91031 0.04100 0.66723
 C395 C 0.92692 0.06112 0.65093
 C396 C 0.94275 0.08544 0.66438
 C397 C 0.94171 0.08942 0.69374
 C398 C 0.95922 0.10564 0.64823
 C399 C 0.96003 0.10191 0.61897
 C400 C 0.94454 0.07784 0.60528
 C401 C 0.92794 0.05746 0.62138
 H402 H 0.93412 0.09408 0.74865
 H403 H 0.87945 0.00722 0.70329
 H404 H 0.87531 0.01664 0.75410
 H405 H 0.89815 0.02237 0.65698
 H406 H 0.95381 0.10815 0.70397
 H407 H 0.97151 0.12434 0.65823
 H408 H 0.97307 0.11779 0.60703
 H409 H 0.91607 0.03870 0.61101
 C410 C 1.09104 -0.05637 0.72749
 C411 C 1.08083 -0.05395 0.69939
 C412 C 1.05217 -0.06274 0.69201
 C413 C 1.03417 -0.07372 0.71316
 C414 C 1.04467 -0.07643 0.74116
 C415 C 1.07322 -0.06793 0.74854
 C416 C 1.04217 -0.06057 0.66366
 C417 C 1.06056 -0.04970 0.64275
 C418 C 1.08923 -0.04093 0.65039
 C419 C 1.09915 -0.04322 0.67856
 C420 C 1.10752 -0.02955 0.62980
 C421 C 1.09738 -0.02601 0.60198
 C422 C 1.06900 -0.03441 0.59411
 C423 C 1.05071 -0.04679 0.61441
 H424 H 1.11320 -0.05013 0.73266
 H425 H 1.01210 -0.08052 0.70800
 H426 H 1.03046 -0.08525 0.75705
 H427 H 1.02016 -0.06719 0.65791
 H428 H 1.12112 -0.03645 0.68434
 H429 H 1.12951 -0.02277 0.63533
 H430 H 1.11165 -0.01626 0.58657
 H431 H 1.02864 -0.05280 0.60845
 C432 C 0.26899 1.09595 1.09208
 C433 C 0.29826 1.09199 1.08891
 C434 C 0.31270 1.07132 1.10646
 C435 C 0.29762 1.05504 1.12691
 C436 C 0.26851 1.05904 1.12999
 C437 C 0.25367 1.07967 1.11275
 C438 C 0.34199 1.06741 1.10342
 C439 C 0.35711 1.08424 1.08321
 C440 C 0.34263 1.10508 1.06578
 C441 C 0.31332 1.10868 1.06861
 C442 C 0.35771 1.12206 1.04574
 C443 C 0.38682 1.11835 1.04283
 C444 C 0.40146 1.09756 1.05983
 C445 C 0.38646 1.08057 1.08009
 H446 H 0.25849 1.11206 1.07849
 H447 H 0.30843 1.03943 1.14078
 H448 H 0.25794 1.04592 1.14616
 H449 H 0.35300 1.05142 1.11683
 H450 H 0.30228 1.12457 1.05511
 H451 H 0.34696 1.13814 1.03225
 H452 H 0.39782 1.13157 1.02694
 H453 H 0.39753 1.06439 1.09322
 C454 C 0.27947 0.92409 0.89796
 C455 C 0.30759 0.93557 0.90309
 C456 C 0.31834 0.96015 0.88696
 C457 C 0.30081 0.97272 0.86585
 C458 C 0.27259 0.96179 0.86141
 C459 C 0.26139 0.93735 0.87741
 C460 C 0.34613 0.97230 0.89271
 C461 C 0.36321 0.96035 0.91464
 C462 C 0.35255 0.93541 0.93045
 C463 C 0.32490 0.92315 0.92453
 C464 C 0.36960 0.92333 0.95223
 C465 C 0.39681 0.93608 0.95864
 C466 C 0.40746 0.96124 0.94352
 C467 C 0.39061 0.97317 0.92133
 H468 H 0.27162 0.90547 0.91080
 H469 H 0.30868 0.99159 0.85325
 H470 H 0.25983 0.97249 0.84508
 H471 H 0.35424 0.99141 0.88052
 H472 H 0.31668 0.90425 0.93693
 H473 H 0.36179 0.90418 0.96449
 H474 H 0.40942 0.92637 0.97571
 H475 H 0.39864 0.99257 0.90953
 C476 C 0.71475 0.91335 1.11500
 C477 C 0.68988 0.92464 1.10199
 C478 C 0.67705 0.90973 1.07792
 C479 C 0.68915 0.88395 1.06727
 C480 C 0.71340 0.87253 1.08055
 C481 C 0.72658 0.88680 1.10474
 C482 C 0.65206 0.92045 1.06507
 C483 C 0.63918 0.94554 1.07634
 C484 C 0.65178 0.96051 1.10048
 C485 C 0.67725 0.95022 1.11295
 C486 C 0.63839 0.98524 1.11195
 C487 C 0.61271 0.99488 1.09976
 C488 C 0.60006 0.98012 1.07576
 C489 C 0.61358 0.95556 1.06405
 H490 H 0.72420 0.92482 1.13357
 H491 H 0.67965 0.87233 1.04877
 H492 H 0.72178 0.85255 1.07135
 H493 H 0.64234 0.90890 1.04660
 H494 H 0.68693 0.96174 1.13145
 H495 H 0.64766 0.99700 1.13047
 H496 H 0.60272 1.01389 1.10917
 H497 H 0.60400 0.94395 1.04557
 C498 C 0.73045 1.10838 0.91330
 C499 C 0.70105 1.10364 0.91761
 C500 C 0.68595 1.07862 0.90468
 C501 C 0.70045 1.05852 0.88810
 C502 C 0.72962 1.06320 0.88406
 C503 C 0.74516 1.08832 0.89630
 C504 C 0.65657 1.07402 0.90846
 C505 C 0.64205 1.09392 0.92532
 C506 C 0.65712 1.11871 0.93872
 C507 C 0.68651 1.12355 0.93464
 C508 C 0.64252 1.13811 0.95612
 C509 C 0.61330 1.13292 0.96026
 C510 C 0.59815 1.10846 0.94682
 C511 C 0.61270 1.08916 0.92924
 H512 H 0.74160 1.12777 0.92325
 H513 H 0.68919 1.03913 0.87814
 H514 H 0.73968 1.04704 0.87095
 H515 H 0.64503 1.05491 0.89832
 H516 H 0.69803 1.14269 0.94476
 H517 H 0.65374 1.15710 0.96676
 H518 H 0.60262 1.14791 0.97416
 H519 H 0.60132 1.06998 0.91906
 C520 C 0.09284 0.23953 0.06687
 C521 C 0.08380 0.26878 0.06089
 C522 C 0.05621 0.27694 0.06828
 C523 C 0.03781 0.25536 0.08066
 C524 C 0.04711 0.22651 0.08702
 C525 C 0.07491 0.21853 0.08083
 C526 C 0.04775 0.30669 0.06395
 C527 C 0.06672 0.32853 0.05261
 C528 C 0.09404 0.32010 0.04454
 C529 C 0.10235 0.29031 0.04861
 C530 C 0.11284 0.34175 0.03285
 C531 C 0.10483 0.37155 0.02942
 C532 C 0.07801 0.38040 0.03789
 C533 C 0.05893 0.35872 0.04941
 H534 H 0.11433 0.23376 0.06199
 H535 H 0.01652 0.26106 0.08613
 H536 H 0.03264 0.21061 0.09729
 H537 H 0.02671 0.31299 0.06995
 H538 H 0.12347 0.28405 0.04280
 H539 H 0.13372 0.33560 0.02629
 H540 H 0.11978 0.38779 0.02024
 H541 H 0.03803 0.36526 0.05560
 C542 C -0.08258 0.26008 -0.10256
 C543 C -0.07026 0.28952 -0.10092
 C544 C -0.04029 0.29427 -0.10190
 C545 C -0.02319 0.26932 -0.10493
 C546 C -0.03568 0.23999 -0.10675
 C547 C -0.06546 0.23508 -0.10538
 C548 C -0.02799 0.32379 -0.09964
 C549 C -0.04534 0.34853 -0.09620
 C550 C -0.07537 0.34358 -0.09561
 C551 C -0.08759 0.31422 -0.09815
 C552 C -0.09278 0.36799 -0.09160
 C553 C -0.08058 0.39692 -0.08698
 C554 C -0.05085 0.40209 -0.08683
 C555 C -0.03323 0.37800 -0.09218
 H556 H -0.10559 0.25679 -0.10210
 H557 H -0.00019 0.27249 -0.10584
 H558 H -0.02197 0.22115 -0.10901
 H559 H -0.00498 0.32741 -0.10005
 H560 H -0.11058 0.31054 -0.09741
 H561 H -0.11578 0.36455 -0.09106
 H562 H -0.09439 0.41526 -0.08267
 H563 H -0.01022 0.38183 -0.09142
 C564 C 0.10888 0.74442 -0.08730
 C565 C 0.10011 0.71391 -0.08351
 C566 C 0.07513 0.70205 -0.09800
 C567 C 0.05912 0.72090 -0.11557
 C568 C 0.06791 0.75114 -0.11917
 C569 C 0.09296 0.76325 -0.10531
 C570 C 0.06660 0.67150 -0.09491
 C571 C 0.08267 0.65256 -0.07743
 C572 C 0.10738 0.66440 -0.06247
 C573 C 0.11599 0.69501 -0.06564
 C574 C 0.12302 0.64535 -0.04460
 C575 C 0.11431 0.61488 -0.04167
 C576 C 0.08998 0.60291 -0.05674
 C577 C 0.07428 0.62192 -0.07461
 H578 H 0.12809 0.75339 -0.07626
 H579 H 0.03990 0.71218 -0.12679
 H580 H 0.05524 0.76477 -0.13336
 H581 H 0.04750 0.66245 -0.10618
 H582 H 0.13503 0.70407 -0.05430
 H583 H 0.14192 0.65401 -0.03282
 H584 H 0.12661 0.60067 -0.02761
 H585 H 0.05532 0.61298 -0.08612
 C586 C -0.09795 0.70438 0.10790
 C587 C -0.08896 0.67844 0.09418
 C588 C -0.10442 0.66712 0.06984
 C589 C -0.12854 0.68184 0.05966
 C590 C -0.13747 0.70742 0.07356
 C591 C -0.12236 0.71891 0.09780
 C592 C -0.09568 0.64115 0.05615
 C593 C -0.07187 0.62608 0.06667
 C594 C -0.05644 0.63726 0.09108
 C595 C -0.06498 0.66348 0.10459
 C596 C -0.03279 0.62188 0.10162
 C597 C -0.02453 0.59568 0.08814
 C598 C -0.03971 0.58447 0.06386
 C599 C -0.06335 0.59986 0.05320
 H600 H -0.08629 0.71282 0.12673
 H601 H -0.14059 0.67350 0.04100
 H602 H -0.15613 0.71835 0.06510
 H603 H -0.10755 0.63253 0.03746
 H604 H -0.05310 0.67211 0.12327
 H605 H -0.02073 0.63005 0.12033
 H606 H -0.00615 0.58426 0.09665
 H607 H -0.07524 0.59135 0.03450
 C608 C 1.07724 0.08680 0.73934
 C609 C 1.07442 0.08200 0.70996
 C610 C 1.08607 0.05632 0.69776
 C611 C 1.09998 0.03563 0.71534
 C612 C 1.10282 0.04064 0.74461
 C613 C 1.09182 0.06647 0.75696
 C614 C 1.08382 0.05191 0.66824
 C615 C 1.07003 0.07294 0.65082
 C616 C 1.05809 0.09842 0.66322
 C617 C 1.06038 0.10278 0.69263
 C618 C 1.04391 0.11917 0.64600
 C619 C 1.04144 0.11477 0.61676
 C620 C 1.05323 0.08967 0.60411
 C621 C 1.06769 0.06884 0.62124
 H622 H 1.06840 0.10674 0.74822
 H623 H 1.10897 0.01576 0.70642
 H624 H 1.11392 0.02430 0.75742
 H625 H 1.09285 0.03225 0.65886
 H626 H 1.05135 0.12245 0.70201
 H627 H 1.03448 0.13868 0.65519
 H628 H 1.03002 0.13095 0.60399
 H629 H 1.07642 0.04911 0.61169
 C630 C 0.89215 -0.09627 0.71417
 C631 C 0.89971 -0.08273 0.68835
 C632 C 0.88242 -0.06045 0.67609
 C633 C 0.85805 -0.05199 0.68984
 C634 C 0.85077 -0.06542 0.71548
 C635 C 0.86753 -0.08784 0.72790
 C636 C 0.88949 -0.04723 0.65011
 C637 C 0.91348 -0.05625 0.63594
 C638 C 0.93092 -0.07841 0.64821
 C639 C 0.92404 -0.09136 0.67441
 C640 C 0.95476 -0.08752 0.63385
 C641 C 0.96097 -0.07525 0.60737
 C642 C 0.94364 -0.05342 0.59486
 C643 C 0.92007 -0.04376 0.60947
 H644 H 0.90545 -0.11333 0.72349
 H645 H 0.84448 -0.03507 0.68067
 H646 H 0.83157 -0.05850 0.72521
 H647 H 0.87610 -0.03024 0.64074
 H648 H 0.93736 -0.10845 0.68373
 H649 H 0.96847 -0.10433 0.64298
 H650 H 0.97939 -0.08287 0.59668
 H651 H 0.90666 -0.02680 0.60011
 C652 C 1.10540 -0.07907 0.28442
 C653 C 1.09277 -0.07249 0.31006
 C654 C 1.06873 -0.09002 0.31872
 C655 C 1.05770 -0.11385 0.30136
 C656 C 1.07047 -0.12032 0.27581
 C657 C 1.09448 -0.10304 0.26702
 C658 C 1.05625 -0.08346 0.34457
 C659 C 1.06765 -0.05962 0.36184
 C660 C 1.09170 -0.04215 0.35293
 C661 C 1.10403 -0.04864 0.32716
 C662 C 1.10322 -0.01842 0.36996
 C663 C 1.09109 -0.01190 0.39563
 C664 C 1.06725 -0.02900 0.40494
 C665 C 1.05553 -0.05292 0.38790
 H666 H 1.12391 -0.06550 0.27829
 H667 H 1.03921 -0.12751 0.30753
 H668 H 1.06138 -0.13881 0.26292
 H669 H 1.03782 -0.09694 0.35127
 H670 H 1.12248 -0.03516 0.32046
 H671 H 1.12167 -0.00490 0.36346
 H672 H 1.10053 0.00666 0.40827
 H673 H 1.03707 -0.06616 0.39484
 C674 C 0.91604 0.08572 0.26997
 C675 C 0.91689 0.08050 0.29927
 C676 C 0.90658 0.05239 0.30997
 C677 C 0.89549 0.02998 0.29104
 C678 C 0.89439 0.03552 0.26184
 C679 C 0.90465 0.06341 0.25105
 C680 C 0.90752 0.04721 0.33934
 C681 C 0.91870 0.06980 0.35808
 C682 C 0.92883 0.09796 0.34725
 C683 C 0.92781 0.10312 0.31798
 C684 C 0.94027 0.12041 0.36585
 C685 C 0.94253 0.11476 0.39488
 C686 C 0.93307 0.08672 0.40588
 C687 C 0.92061 0.06448 0.38744
 H688 H 0.92364 0.10748 0.26203
 H689 H 0.88757 0.00824 0.29881
 H690 H 0.88563 0.01790 0.24769
 H691 H 0.89975 0.02561 0.34756
 H692 H 0.93574 0.12468 0.30975
 H693 H 0.94803 0.14212 0.35789
 H694 H 0.95224 0.13220 0.40871
 H695 H 0.91353 0.04268 0.39574
 C696 C 0.07893 0.24753 -0.08776
 C697 C 0.07804 0.27805 -0.07980
 C698 C 0.08959 0.28766 -0.05303
 C699 C 0.10106 0.26636 -0.03436
 C700 C 0.10205 0.23605 -0.04254
 C701 C 0.09160 0.22636 -0.06955
 C702 C 0.08995 0.31843 -0.04560
 C703 C 0.07903 0.33972 -0.06468
 C704 C 0.06689 0.32994 -0.09120
 C705 C 0.06640 0.29920 -0.09855
 C706 C 0.05556 0.35113 -0.11006
 C707 C 0.05625 0.38175 -0.10277
 C708 C 0.06848 0.39179 -0.07663
 C709 C 0.07993 0.37064 -0.05765
 H710 H 0.07052 0.24069 -0.10855
 H711 H 0.10978 0.27323 -0.01364
 H712 H 0.11152 0.22040 -0.02774
 H713 H 0.09904 0.32583 -0.02517
 H714 H 0.05733 0.29180 -0.11901
 H715 H 0.04597 0.34402 -0.13036
 H716 H 0.04706 0.39763 -0.11759
 H717 H 0.08898 0.37814 -0.03722
 C718 C -0.07422 0.24536 0.06968
 C719 C -0.06489 0.27552 0.06510
 C720 C -0.04505 0.28989 0.08457
 C721 C -0.03482 0.27391 0.10813
 C722 C -0.04419 0.24395 0.11255
 C723 C -0.06420 0.22942 0.09359
 C724 C -0.03600 0.32011 0.08041
 C725 C -0.04685 0.33635 0.05725
 C726 C -0.06670 0.32213 0.03771
 C727 C -0.07545 0.29169 0.04164
 C728 C -0.07762 0.33874 0.01472
 C729 C -0.06910 0.36922 0.01128
 C730 C -0.04940 0.38344 0.03066
 C731 C -0.03826 0.36676 0.05350
 H732 H -0.08945 0.23449 0.05471
 H733 H -0.01964 0.28467 0.12325
 H734 H -0.03618 0.23250 0.13124
 H735 H -0.02077 0.33109 0.09537
 H736 H -0.09071 0.28072 0.02671
 H737 H -0.09276 0.32816 -0.00052
 H738 H -0.07769 0.38159 -0.00666
 H739 H -0.02295 0.37748 0.06853
 C740 C -0.10623 0.71524 -0.12456
 C741 C -0.09613 0.68896 -0.11154
 C742 C -0.11469 0.67052 -0.09523
 C743 C -0.14300 0.67841 -0.09244
 C744 C -0.15286 0.70446 -0.10540
 C745 C -0.13463 0.72333 -0.12140
 C746 C -0.10478 0.64440 -0.08204
 C747 C -0.07655 0.63618 -0.08515
 C748 C -0.05796 0.65446 -0.10160
 C749 C -0.06780 0.68082 -0.11454
 C750 C -0.02990 0.64585 -0.10508
 C751 C -0.02055 0.61910 -0.09292
 C752 C -0.03889 0.60073 -0.07664
 C753 C -0.06678 0.60964 -0.07247
 H754 H -0.09188 0.72954 -0.13673
 H755 H -0.15758 0.66440 -0.08023
 H756 H -0.17495 0.70963 -0.10291
 H757 H -0.11910 0.63034 -0.06955
 H758 H -0.05350 0.69482 -0.12711
 H759 H -0.01530 0.65958 -0.11752
 H760 H 0.00110 0.61272 -0.09631
 H761 H -0.08109 0.59550 -0.06007
 C762 C 0.11181 0.72249 0.10522
 C763 C 0.10850 0.69381 0.09247
 C764 C 0.11764 0.68947 0.06457
 C765 C 0.12994 0.71401 0.04991
 C766 C 0.13350 0.74241 0.06289
 C767 C 0.12459 0.74690 0.09067
 C768 C 0.11441 0.66073 0.05185
 C769 C 0.10214 0.63626 0.06672
 C770 C 0.09312 0.64071 0.09469
 C771 C 0.09642 0.66936 0.10736
 C772 C 0.08050 0.61652 0.10946
 C773 C 0.07613 0.58832 0.09648
 C774 C 0.08462 0.58362 0.06864
 C775 C 0.09811 0.60754 0.05395
 H776 H 0.10518 0.72554 0.12676
 H777 H 0.13702 0.71117 0.02850
 H778 H 0.14323 0.76090 0.05112
 H779 H 0.12130 0.65746 0.03040
 H780 H 0.08943 0.67266 0.12877
 H781 H 0.07347 0.61956 0.13086
 H782 H 0.06563 0.57019 0.10814
 H783 H 0.10435 0.60417 0.03231
 C784 C 0.25967 1.08407 0.93402
 C785 C 0.28922 1.08050 0.93669
 C786 C 0.30075 1.05321 0.92783
 C787 C 0.28240 1.02972 0.91711
 C788 C 0.25307 1.03368 0.91387
 C789 C 0.24148 1.06098 0.92201
 C790 C 0.33042 1.05003 0.92941
 C791 C 0.34869 1.07391 0.93962
 C792 C 0.33704 1.10094 0.94910
 C793 C 0.30741 1.10405 0.94759
 C794 C 0.35523 1.12452 0.95988
 C795 C 0.38472 1.12144 0.96125
 C796 C 0.39658 1.09485 0.95163
 C797 C 0.37845 1.07116 0.94067
 H798 H 0.25106 1.10530 0.94028
 H799 H 0.29076 1.00843 0.91099
 H800 H 0.23945 1.01539 0.90494
 H801 H 0.33928 1.02917 0.92243
 H802 H 0.29855 1.12492 0.95460
 H803 H 0.34663 1.14528 0.96741
 H804 H 0.39830 1.13987 0.96997
 H805 H 0.38741 1.05038 0.93361
 C806 C 0.28319 0.92982 1.10407
 C807 C 0.31066 0.94203 1.09945
 C808 C 0.32334 0.96395 1.11830
 C809 C 0.30815 0.97306 1.14169
 C810 C 0.28074 0.96051 1.14632
 C811 C 0.26808 0.93853 1.12770
 C812 C 0.35106 0.97598 1.11362
 C813 C 0.36636 0.96571 1.09068
 C814 C 0.35359 0.94334 1.07221
 C815 C 0.32578 0.93200 1.07650
 C816 C 0.36888 0.93237 1.04979
 C817 C 0.39661 0.94346 1.04548
 C818 C 0.40951 0.96602 1.06325
 C819 C 0.39427 0.97714 1.08590
 H820 H 0.27385 0.91322 1.08923
 H821 H 0.31770 0.98943 1.15667
 H822 H 0.26978 0.96759 1.16481
 H823 H 0.36081 0.99294 1.12796
 H824 H 0.31605 0.91498 1.06218
 H825 H 0.35942 0.91513 1.03559
 H826 H 0.40788 0.93455 1.02792
 H827 H 0.40409 0.99451 1.09975
 C828 C 0.73898 1.09460 1.07677
 C829 C 0.70906 1.09226 1.07551
 C830 C 0.69472 1.06764 1.08879
 C831 C 0.71050 1.04537 1.10237
 C832 C 0.74027 1.04790 1.10358
 C833 C 0.75488 1.07281 1.09132
 C834 C 0.66486 1.06576 1.08848
 C835 C 0.64909 1.08793 1.07470
 C836 C 0.66332 1.11229 1.06090
 C837 C 0.69326 1.11441 1.06153
 C838 C 0.64729 1.13392 1.04650
 C839 C 0.61745 1.13112 1.04540
 C840 C 0.60324 1.10697 1.05909
 C841 C 0.61923 1.08571 1.07406
 H842 H 0.74965 1.11387 1.06697
 H843 H 0.69982 1.02616 1.11236
 H844 H 0.75171 1.03046 1.11457
 H845 H 0.65390 1.04707 1.09894
 H846 H 0.70423 1.13320 1.05114
 H847 H 0.65782 1.15265 1.03567
 H848 H 0.60550 1.14758 1.03351
 H849 H 0.60847 1.06675 1.08436
 C850 C 0.71050 0.92420 0.89328
 C851 C 0.68676 0.93406 0.90737
 C852 C 0.67830 0.91955 0.93261
 C853 C 0.69410 0.89579 0.94358
 C854 C 0.71745 0.88583 0.92920
 C855 C 0.72567 0.89965 0.90375
 C856 C 0.65388 0.92856 0.94610
 C857 C 0.63752 0.95156 0.93438
 C858 C 0.64623 0.96628 0.90930
 C859 C 0.67090 0.95764 0.89612
 C860 C 0.62983 0.98909 0.89749
 C861 C 0.60477 0.99699 0.91010
 C862 C 0.59566 0.98230 0.93480
 C863 C 0.61231 0.95976 0.94703
 H864 H 0.71640 0.93496 0.87359
 H865 H 0.68808 0.88453 0.96300
 H866 H 0.72896 0.86713 0.93798
 H867 H 0.64727 0.91726 0.96534
 H868 H 0.67741 0.96882 0.87678
 H869 H 0.63622 1.00061 0.87832
 H870 H 0.59237 1.01449 0.90030
 H871 H 0.60550 0.94839 0.96614
   
