data_POSCAR
  _audit_creation_date              2014-09-24
  _audit_creation_method            'ToBaCCo'
  _symmetry_space_group_name_H-M    'P1'
  _symmetry_Int_Tables_number       1
  _symmetry_cell_setting            triclinic
  loop_
  _symmetry_equiv_pos_as_xyz
 x,y,z
_cell_length_a 36.8586
_cell_length_b 37.0389
_cell_length_c 36.8719
_cell_angle_alpha 89.975600
_cell_angle_beta 89.937700
_cell_angle_gamma 89.980700
loop_
  _atom_site_label
  _atom_site_type_symbol
  _atom_site_fract_x
  _atom_site_fract_y
  _atom_site_fract_z
N1 N 0.14487 0.16970 0.24546
 N2 N 0.17009 0.14453 0.24495
 C3 C 0.16476 0.12197 0.27317
 C4 C 0.13461 0.13367 0.29226
 C5 C 0.12268 0.16399 0.27391
 H6 H 0.18154 0.09883 0.27954
 H7 H 0.09963 0.18071 0.28081
 Cu8 Cu 0.20761 0.14441 0.20762
 Cu9 Cu 0.14271 0.20817 0.20947
 Cu10 Cu 0.20924 0.20808 0.14276
 N11 N 0.24499 0.14457 0.17012
 N12 N 0.24539 0.16967 0.14485
 C13 C 0.27390 0.16401 0.12268
 C14 C 0.29239 0.13378 0.13468
 C15 C 0.27331 0.12210 0.16486
 H16 H 0.28074 0.18071 0.09960
 H17 H 0.27977 0.09905 0.18172
 N18 N 0.17038 0.24470 0.14522
 N19 N 0.14512 0.24477 0.17066
 C20 C 0.12284 0.27311 0.16519
 C21 C 0.13466 0.29168 0.13493
 C22 C 0.16479 0.27300 0.12292
 H23 H 0.09974 0.27989 0.18196
 H24 H 0.18140 0.27969 0.09968
 H25 H 0.16805 0.18012 0.16844
 H26 H 0.19745 0.20887 0.19767
 N27 N -0.14548 0.83001 0.24473
 N28 N -0.17073 0.85511 0.24432
 C29 C -0.16537 0.87765 0.27252
 C30 C -0.13521 0.86594 0.29146
 C31 C -0.12327 0.83570 0.27310
 H32 H -0.18208 0.90079 0.27894
 H33 H -0.10017 0.81904 0.27998
 Cu34 Cu -0.20802 0.85546 0.20687
 Cu35 Cu -0.14326 0.79163 0.20870
 Cu36 Cu -0.20977 0.79168 0.14218
 N37 N -0.24554 0.85513 0.16964
 N38 N -0.24594 0.83008 0.14437
 C39 C -0.27438 0.83579 0.12220
 C40 C -0.29283 0.86604 0.13422
 C41 C -0.27380 0.87768 0.16439
 H42 H -0.28121 0.81913 0.09911
 H43 H -0.28017 0.90076 0.18119
 N44 N -0.17090 0.75510 0.14457
 N45 N -0.14562 0.75509 0.16993
 C46 C -0.12331 0.72677 0.16447
 C47 C -0.13512 0.70815 0.13430
 C48 C -0.16530 0.72677 0.12232
 H49 H -0.10020 0.72003 0.18119
 H50 H -0.18192 0.72001 0.09916
 H51 H -0.16859 0.81981 0.16761
 H52 H -0.19804 0.79109 0.19701
 N53 N -0.14523 0.17036 -0.24463
 N54 N -0.17043 0.14524 -0.24415
 C55 C -0.16508 0.12273 -0.27241
 C56 C -0.13494 0.13448 -0.29141
 C57 C -0.12302 0.16472 -0.27306
 H58 H -0.18181 0.09962 -0.27884
 H59 H -0.09999 0.18143 -0.28000
 Cu60 Cu -0.20798 0.14493 -0.20687
 Cu61 Cu -0.14313 0.20871 -0.20860
 Cu62 Cu -0.20966 0.20855 -0.14195
 N63 N -0.24531 0.14510 -0.16933
 N64 N -0.24577 0.17014 -0.14406
 C65 C -0.27424 0.16443 -0.12188
 C66 C -0.29268 0.13420 -0.13392
 C67 C -0.27359 0.12258 -0.16411
 H68 H -0.28115 0.18110 -0.09881
 H69 H -0.27997 0.09956 -0.18099
 N70 N -0.17085 0.24517 -0.14439
 N71 N -0.14557 0.24523 -0.16981
 C72 C -0.12329 0.27354 -0.16436
 C73 C -0.13513 0.29211 -0.13413
 C74 C -0.16527 0.27346 -0.12211
 H75 H -0.10019 0.28031 -0.18112
 H76 H -0.18189 0.28017 -0.09889
 H77 H -0.16853 0.18051 -0.16764
 H78 H -0.19795 0.20932 -0.19688
 N79 N 0.14524 0.83041 -0.24439
 N80 N 0.17043 0.85557 -0.24386
 C81 C 0.16518 0.87808 -0.27214
 C82 C 0.13512 0.86634 -0.29120
 C83 C 0.12313 0.83609 -0.27285
 H84 H 0.18204 0.90108 -0.27866
 H85 H 0.10018 0.81932 -0.27989
 Cu86 Cu 0.20805 0.85514 -0.20672
 Cu87 Cu 0.14313 0.79153 -0.20870
 Cu88 Cu 0.20834 0.79315 -0.14107
 N89 N 0.24610 0.85465 -0.16991
 N90 N 0.24651 0.82952 -0.14467
 C91 C 0.27516 0.83493 -0.12270
 C92 C 0.29371 0.86512 -0.13479
 C93 C 0.27458 0.87694 -0.16486
 H94 H 0.28174 0.81843 -0.09940
 H95 H 0.28085 0.90013 -0.18155
 N96 N 0.17114 0.75496 -0.14447
 N97 N 0.14596 0.75476 -0.16995
 C98 C 0.12393 0.72623 -0.16461
 C99 C 0.13585 0.70761 -0.13445
 C100 C 0.16584 0.72644 -0.12237
 H101 H 0.10078 0.71949 -0.18127
 H102 H 0.18233 0.71990 -0.09903
 H103 H 0.16711 0.82028 -0.16824
 H104 H 0.19756 0.79121 -0.19613
 N105 N 0.17017 1.14538 0.75474
 N106 N 0.14500 1.17056 0.75503
 C107 C 0.12248 1.16524 0.72676
 C108 C 0.13432 1.13518 0.70794
 C109 C 0.16459 1.12325 0.72638
 H110 H 0.09925 1.18186 0.72028
 H111 H 0.18131 1.10022 0.71960
 Cu112 Cu 0.14439 1.20754 0.79254
 Cu113 Cu 0.20847 1.14304 0.79083
 Cu114 Cu 0.20843 1.20919 0.85732
 N115 N 0.14494 1.24489 0.82967
 N116 N 0.17007 1.24518 0.85497
 C117 C 0.16442 1.27345 0.87715
 C118 C 0.13416 1.29184 0.86514
 C119 C 0.12239 1.27306 0.83497
 H120 H 0.18110 1.28022 0.90028
 H121 H 0.09920 1.27951 0.81824
 N122 N 0.24495 1.17047 0.85500
 N123 N 0.24495 1.14529 0.82966
 C124 C 0.27326 1.12299 0.83521
 C125 C 0.29185 1.13475 0.86542
 C126 C 0.27327 1.16484 0.87734
 H127 H 0.28002 1.09994 0.81854
 H128 H 0.28005 1.18138 0.90051
 H129 H 0.18004 1.16835 0.83193
 H130 H 0.20899 1.19760 0.80253
 N131 N 0.82996 0.85431 0.75480
 N132 N 0.85513 0.82911 0.75499
 C133 C 0.87734 0.83419 0.72638
 C134 C 0.86532 0.86415 0.70749
 C135 C 0.83523 0.87622 0.72620
 H136 H 0.90057 0.81758 0.71982
 H137 H 0.81869 0.89946 0.71971
 Cu138 Cu 0.85551 0.79236 0.79280
 Cu139 Cu 0.79357 0.85803 0.79284
 Cu140 Cu 0.79110 0.78992 0.85722
 N141 N 0.85587 0.75542 0.83033
 N142 N 0.83025 0.75459 0.85519
 C143 C 0.83585 0.72623 0.87726
 C144 C 0.86654 0.70830 0.86558
 C145 C 0.87864 0.72746 0.83575
 H146 H 0.81876 0.71900 0.89999
 H147 H 0.90203 0.72121 0.81917
 N148 N 0.75431 0.82851 0.85434
 N149 N 0.75503 0.85428 0.82958
 C150 C 0.72662 0.87651 0.83491
 C151 C 0.70734 0.86423 0.86453
 C152 C 0.72551 0.83380 0.87620
 H153 H 0.72053 0.90012 0.81877
 H154 H 0.71838 0.81702 0.89913
 H155 H 0.82042 0.83028 0.83392
 H156 H 0.79131 0.80312 0.80285
 N157 N 0.16980 0.85439 1.24451
 N158 N 0.14457 0.82930 1.24422
 C159 C 0.12201 0.83472 1.27250
 C160 C 0.13389 0.86474 1.29129
 C161 C 0.16422 0.87656 1.27284
 H162 H 0.09880 0.81810 1.27908
 H163 H 0.18101 0.89951 1.27964
 Cu164 Cu 0.14425 0.79192 1.20714
 Cu165 Cu 0.20823 0.85652 1.20853
 Cu166 Cu 0.20838 0.79034 1.14215
 N167 N 0.14468 0.75492 1.16969
 N168 N 0.16992 0.75451 1.14446
 C169 C 0.16433 0.72619 1.12234
 C170 C 0.13401 0.70789 1.13436
 C171 C 0.12213 0.72677 1.16444
 H172 H 0.18114 0.71928 1.09931
 H173 H 0.09895 0.72031 1.18122
 N174 N 0.24494 0.82898 1.14451
 N175 N 0.24484 0.85417 1.16983
 C176 C 0.27311 0.87650 1.16428
 C177 C 0.29179 0.86475 1.13410
 C178 C 0.27331 0.83463 1.12218
 H179 H 0.27976 0.89959 1.18093
 H180 H 0.28015 0.81810 1.09899
 H181 H 0.17981 0.83099 1.16758
 H182 H 0.20886 0.80181 1.19697
 N183 N 0.82997 1.14541 1.24474
 N184 N 0.85518 1.17052 1.24433
 C185 C 0.87778 1.16518 1.27255
 C186 C 0.86595 1.13516 1.29144
 C187 C 0.83562 1.12328 1.27310
 H188 H 0.90095 1.18187 1.27905
 H189 H 0.81885 1.10032 1.27999
 Cu190 Cu 0.85509 1.20786 1.20721
 Cu191 Cu 0.79145 1.14321 1.20881
 Cu192 Cu 0.79128 1.20951 1.14234
 N193 N 0.85503 1.24492 1.16982
 N194 N 0.82980 1.24536 1.14462
 C195 C 0.83539 1.27371 1.12252
 C196 C 0.86569 1.29200 1.13452
 C197 C 0.87756 1.27309 1.16457
 H198 H 0.81858 1.28066 1.09952
 H199 H 0.90070 1.27957 1.18134
 N200 N 0.75473 1.17081 1.14479
 N201 N 0.75481 1.14559 1.17011
 C202 C 0.72655 1.12326 1.16458
 C203 C 0.70790 1.13503 1.13440
 C204 C 0.72639 1.16517 1.12247
 H205 H 0.71989 1.10014 1.18122
 H206 H 0.71959 1.18171 1.09929
 H207 H 0.81965 1.16879 1.16772
 H208 H 0.79054 1.19788 1.19709
 N209 N 0.53816 1.06411 0.96103
 N210 N 0.56566 1.08651 0.95638
 N211 N 0.46189 1.03896 0.93585
 N212 N 0.43444 1.04358 0.91337
 N213 N 0.46181 1.06398 0.96107
 N214 N 0.43433 1.08634 0.95647
 N215 N 0.53824 1.03904 0.93585
 N216 N 0.56579 1.04369 0.91338
 C217 C 0.58260 1.07341 0.92655
 C218 C 0.41758 1.07324 0.92663
 N219 N 0.46184 0.93608 0.96098
 N220 N 0.43441 0.91363 0.95629
 N221 N 0.53821 0.96127 0.93586
 N222 N 0.56569 0.95662 0.91337
 N223 N 0.53820 0.93622 0.96106
 N224 N 0.56564 0.91380 0.95644
 N225 N 0.46181 0.96117 0.93581
 N226 N 0.43434 0.95650 0.91331
 Mn227 Mn 0.50004 1.00011 0.93540
 C228 C 0.41753 0.92673 0.92645
 C229 C 0.58248 0.92691 0.92661
 N230 N 0.46146 1.06395 1.03922
 N231 N 0.43394 1.08632 1.04395
 N232 N 0.53786 1.03903 1.06438
 N233 N 0.56537 1.04366 1.08677
 N234 N 0.53781 1.06407 1.03917
 N235 N 0.56527 1.08646 1.04369
 N236 N 0.46148 1.03885 1.06439
 N237 N 0.43399 1.04345 1.08693
 Mn238 Mn 0.49981 1.06446 1.00012
 C239 C 0.41708 1.07317 1.07382
 C240 C 0.58213 1.07336 1.07348
 N241 N 0.53830 0.93618 1.03918
 N242 N 0.56581 0.91381 1.04386
 N243 N 0.46187 0.96105 1.06431
 N244 N 0.43430 0.95636 1.08669
 N245 N 0.46199 0.93604 1.03908
 N246 N 0.43456 0.91362 1.04356
 N247 N 0.53823 0.96123 1.06437
 N248 N 0.56569 0.95660 1.08689
 Mn249 Mn 0.50009 0.93571 1.00008
 Mn250 Mn 0.49986 1.00004 1.06480
 Cl251 Cl 0.49995 1.00008 1.00010
 C252 C 0.58262 0.92691 1.07372
 C253 C 0.41761 0.92667 1.07335
 N254 N -0.06433 0.46212 0.03918
 N255 N -0.08675 0.43472 0.04378
 N256 N -0.03908 0.53805 0.06430
 N257 N -0.04372 0.56546 0.08672
 N258 N -0.06421 0.53808 0.03908
 N259 N -0.08665 0.56549 0.04363
 N260 N -0.03915 0.46209 0.06435
 N261 N -0.04372 0.43469 0.08678
 C262 C -0.07352 0.41794 0.07358
 C263 C -0.07351 0.58228 0.07345
 N264 N 0.06433 0.53768 0.03923
 N265 N 0.08670 0.56511 0.04380
 N266 N 0.03897 0.46177 0.06440
 N267 N 0.04353 0.43438 0.08688
 N268 N 0.06418 0.46170 0.03920
 N269 N 0.08659 0.43427 0.04383
 N270 N 0.03906 0.53773 0.06436
 N271 N 0.04351 0.56517 0.08673
 Mn272 Mn -0.00005 0.49991 0.06478
 C273 C 0.07335 0.58193 0.07354
 C274 C 0.07334 0.41753 0.07368
 N275 N -0.06405 0.53801 -0.03904
 N276 N -0.08638 0.56549 -0.04367
 N277 N -0.03901 0.46199 -0.06415
 N278 N -0.04367 0.43459 -0.08656
 N279 N -0.06422 0.46205 -0.03895
 N280 N -0.08672 0.43471 -0.04351
 N281 N -0.03878 0.53795 -0.06417
 N282 N -0.04318 0.56538 -0.08659
 Mn283 Mn -0.06464 0.50006 0.00007
 C284 C -0.07298 0.58224 -0.07344
 C285 C -0.07354 0.41788 -0.07331
 N286 N 0.06429 0.46178 -0.03897
 N287 N 0.08662 0.43429 -0.04360
 N288 N 0.03934 0.53789 -0.06411
 N289 N 0.04398 0.56539 -0.08643
 N290 N 0.06449 0.53779 -0.03889
 N291 N 0.08693 0.56522 -0.04337
 N292 N 0.03912 0.46190 -0.06414
 N293 N 0.04359 0.43451 -0.08659
 Mn294 Mn 0.06477 0.49973 0.00014
 Mn295 Mn 0.00017 0.49993 -0.06458
 Cl296 Cl 0.00006 0.49991 0.00010
 C297 C 0.07333 0.41760 -0.07341
 C298 C 0.07378 0.58213 -0.07313
 N299 N 0.93589 -0.03859 0.46175
 N300 N 0.91336 -0.04315 0.43432
 N301 N 0.96128 -0.06364 0.53802
 N302 N 0.95672 -0.08612 0.56540
 N303 N 0.93603 -0.03862 0.53808
 N304 N 0.91355 -0.04339 0.56557
 N305 N 0.96104 -0.06371 0.46173
 N306 N 0.95631 -0.08608 0.43426
 C307 C 0.92647 -0.07288 0.41747
 C308 C 0.92686 -0.07312 0.58229
 N309 N 1.06459 -0.03862 0.53786
 N310 N 1.08713 -0.04320 0.56529
 N311 N 1.03916 -0.06381 0.46170
 N312 N 1.04359 -0.08627 0.43429
 N313 N 1.06443 -0.03883 0.46153
 N314 N 1.08680 -0.04361 0.43396
 N315 N 1.03940 -0.06369 0.53797
 N316 N 1.04412 -0.08603 0.56548
 Mn317 Mn 1.00022 -0.06413 0.49985
 C318 C 1.07400 -0.07288 0.58223
 C319 C 1.07340 -0.07331 0.41731
 N320 N 0.93604 0.03916 0.53801
 N321 N 0.91355 0.04375 0.56552
 N322 N 0.96125 0.06419 0.46165
 N323 N 0.95671 0.08659 0.43419
 N324 N 0.93599 0.03920 0.46170
 N325 N 0.91353 0.04391 0.43423
 N326 N 0.96121 0.06425 0.53795
 N327 N 0.95653 0.08662 0.56544
 Mn328 Mn 0.93555 0.00029 0.49989
 C329 C 0.92669 0.07345 0.58233
 C330 C 0.92685 0.07358 0.41740
 N331 N 1.06453 0.03898 0.46130
 N332 N 1.08700 0.04351 0.43375
 N333 N 1.03935 0.06421 0.53762
 N334 N 1.04384 0.08661 0.56506
 N335 N 1.06459 0.03919 0.53765
 N336 N 1.08699 0.04387 0.56517
 N337 N 1.03938 0.06410 0.46132
 N338 N 1.04405 0.08643 0.43378
 Mn339 Mn 1.06499 0.00018 0.49958
 Mn340 Mn 1.00030 0.06462 0.49963
 Cl341 Cl 1.00027 0.00024 0.49974
 C342 C 1.07386 0.07321 0.41688
 C343 C 1.07366 0.07356 0.58193
 N344 N 1.08961 0.13339 0.33902
 C345 C 1.11946 0.11845 0.32341
 N346 N 1.13422 0.08851 0.33875
 N347 N 1.11970 0.07409 0.36854
 C348 C 1.08988 0.08907 0.38409
 N349 N 1.07509 0.11897 0.36880
 N350 N 0.86599 -0.08815 0.33960
 C351 C 0.88077 -0.11806 0.32424
 N352 N 0.91064 -0.13301 0.33970
 N353 N 0.92519 -0.11861 0.36942
 C354 C 0.91040 -0.08874 0.38477
 N355 N 0.88055 -0.07375 0.36934
 N356 N 0.91088 0.13352 0.66020
 C357 C 0.88103 0.11854 0.67572
 N358 N 0.86624 0.08868 0.66036
 N359 N 0.88079 0.07431 0.63057
 C360 C 0.91064 0.08930 0.61508
 N361 N 0.92543 0.11916 0.63042
 N362 N 1.08955 -0.13280 0.66028
 C363 C 1.11935 -0.11782 0.67580
 N364 N 1.13425 -0.08803 0.66034
 N365 N 1.11983 -0.07373 0.63046
 C366 C 1.09001 -0.08871 0.61499
 N367 N 1.07514 -0.11850 0.63043
 N368 N 0.33920 1.13345 1.08965
 C369 C 0.32361 1.11858 1.11955
 N370 N 0.33901 1.08867 1.13435
 N371 N 0.36880 1.07422 1.11981
 C372 C 0.38431 1.08913 1.08993
 N373 N 0.36897 1.11900 1.07512
 N374 N 0.33983 0.91066 0.86578
 C375 C 0.32470 0.88056 0.88046
 N376 N 0.34027 0.86581 0.91040
 N377 N 0.36981 0.88054 0.92504
 C378 C 0.38490 0.91059 0.91032
 N379 N 0.36938 0.92540 0.88043
 N380 N 0.66040 0.86653 1.08930
 C381 C 0.67601 0.88132 1.11917
 N382 N 0.66067 0.91124 1.13403
 N383 N 0.63091 0.92577 1.11958
 C384 C 0.61537 0.91093 1.08973
 N385 N 0.63066 0.88106 1.07485
 N386 N 0.66079 1.08906 0.86624
 C387 C 0.67611 1.11895 0.88112
 N388 N 0.66043 1.13375 0.91099
 N389 N 0.63064 1.11925 0.92543
 C390 C 0.61539 1.08939 0.91055
 N391 N 0.63099 1.07456 0.88069
 N392 N 0.13361 0.33981 0.08908
 C393 C 0.11869 0.32443 0.11901
 N394 N 0.08879 0.33984 0.13399
 N395 N 0.07433 0.36953 0.11956
 C396 C 0.08927 0.38488 0.08963
 N397 N 0.11916 0.36950 0.07465
 N398 N -0.13399 0.34032 -0.08840
 C399 C -0.11912 0.32485 -0.11830
 N400 N -0.08921 0.34015 -0.13336
 N401 N -0.07468 0.36983 -0.11904
 C402 C -0.08956 0.38527 -0.08915
 N403 N -0.11946 0.37000 -0.07408
 N404 N 0.08968 0.65979 -0.13335
 C405 C 0.11970 0.67498 -0.11844
 N406 N 0.13447 0.65953 -0.08850
 N407 N 0.11981 0.62995 -0.07403
 C408 C 0.08984 0.61476 -0.08898
 N409 N 0.07502 0.63022 -0.11888
 N410 N -0.08921 0.66005 0.13351
 C411 C -0.11909 0.67539 0.11846
 N412 N -0.13392 0.65993 0.08857
 N413 N -0.11939 0.63023 0.07424
 C414 C -0.08952 0.61492 0.08929
 N415 N -0.07468 0.63035 0.11917
 N416 N 1.13360 0.08947 0.65987
 C417 C 1.11843 0.11919 0.67519
 N418 N 1.08847 0.13385 0.65969
 N419 N 1.07420 0.11929 0.62991
 C420 C 1.08940 0.08958 0.61461
 N421 N 1.11934 0.07491 0.63010
 N422 N 0.86628 -0.08979 0.65971
 C423 C 0.88136 -0.11964 0.67488
 N424 N 0.91152 -0.13408 0.65949
 N425 N 0.92604 -0.11920 0.62995
 C426 C 0.91092 -0.08938 0.61480
 N427 N 0.88080 -0.07492 0.63018
 N428 N 1.13329 -0.08951 0.33929
 C429 C 1.11806 -0.11922 0.32406
 N430 N 1.08808 -0.13379 0.33965
 N431 N 1.07384 -0.11914 0.36943
 C432 C 1.08909 -0.08943 0.38463
 N433 N 1.11905 -0.07486 0.36905
 N434 N 0.86672 0.08952 0.33961
 C435 C 0.88186 0.11922 0.32421
 N436 N 0.91186 0.13387 0.33963
 N437 N 0.92620 0.11930 0.36939
 C438 C 0.91103 0.08960 0.38475
 N439 N 0.88105 0.07496 0.36936
 N440 N 0.08829 0.33995 -0.13373
 C441 C 0.11820 0.32451 -0.11891
 N442 N 0.13328 0.33983 -0.08907
 N443 N 0.11897 0.36953 -0.07456
 C444 C 0.08908 0.38497 -0.08940
 N445 N 0.07397 0.36967 -0.11922
 N446 N -0.08853 0.34012 0.13363
 C447 C -0.11845 0.32478 0.11874
 N448 N -0.13354 0.34025 0.08898
 N449 N -0.11923 0.37000 0.07459
 C450 C -0.08932 0.38532 0.08947
 N451 N -0.07421 0.36988 0.11923
 N452 N -0.08754 0.66027 -0.13335
 C453 C -0.11762 0.67553 -0.11862
 N454 N -0.13295 0.65994 -0.08901
 N455 N -0.11871 0.63017 -0.07461
 C456 C -0.08865 0.61492 -0.08934
 N457 N -0.07330 0.63047 -0.11895
 N458 N 0.08819 0.65981 0.13348
 C459 C 0.11814 0.67515 0.11859
 N460 N 0.13329 0.65967 0.08884
 N461 N 0.11901 0.62992 0.07447
 C462 C 0.08908 0.61459 0.08937
 N463 N 0.07390 0.63004 0.11912
 N464 N 0.33993 1.13348 0.91129
 C465 C 0.32453 1.11873 0.88135
 N466 N 0.33988 1.08894 0.86635
 N467 N 0.36959 1.07441 0.88080
 C468 C 0.38497 1.08917 0.91073
 N469 N 0.36964 1.11894 0.92574
 N470 N 0.33964 0.91068 1.13333
 C471 C 0.32448 0.88087 1.11824
 N472 N 0.34007 0.86620 1.08832
 N473 N 0.36981 0.88084 1.07400
 C474 C 0.38496 0.91063 1.08910
 N475 N 0.36938 0.92532 1.11900
 N476 N 0.65999 1.08912 1.13354
 C477 C 0.67523 1.11895 1.11850
 N478 N 0.65972 1.13369 1.08859
 N479 N 0.63001 1.11912 1.07422
 C480 C 0.61477 1.08932 1.08928
 N481 N 0.63027 1.07455 1.11917
 N482 N 0.65992 0.91068 0.86596
 C483 C 0.67486 0.88055 0.88066
 N484 N 0.65936 0.86583 0.91062
 N485 N 0.62991 0.88069 0.92532
 C486 C 0.61495 0.91076 0.91056
 N487 N 0.63046 0.92553 0.88065
   
