data_POSCAR
  _audit_creation_date              2014-09-24
  _audit_creation_method            'ToBaCCo'
  _symmetry_space_group_name_H-M    'P1'
  _symmetry_Int_Tables_number       1
  _symmetry_cell_setting            triclinic
  loop_
  _symmetry_equiv_pos_as_xyz
 x,y,z
_cell_length_a 40.4600
_cell_length_b 40.4387
_cell_length_c 19.5198
_cell_angle_alpha 89.735100
_cell_angle_beta 90.401000
_cell_angle_gamma 88.150800
loop_
  _atom_site_label
  _atom_site_type_symbol
  _atom_site_fract_x
  _atom_site_fract_y
  _atom_site_fract_z
O1 O -0.03409 0.24630 0.04110
 O2 O 0.03268 0.25082 -0.08811
 O3 O -0.03262 0.26169 -0.08861
 O4 O 0.03101 0.24455 0.04350
 O5 O 0.02919 0.19113 0.02119
 O6 O -0.03769 0.20808 -0.10470
 O7 O 0.02575 0.19806 -0.11109
 O8 O -0.03471 0.19228 0.02459
 Cu9 Cu -0.00054 0.25626 -0.02147
 Cu10 Cu -0.00474 0.19220 -0.04450
 C11 C -0.04536 0.21798 0.05490
 C12 C 0.04071 0.22461 -0.12098
 C13 C -0.04665 0.23793 -0.11781
 C14 C 0.04155 0.21504 0.05368
 O15 O 0.46445 0.73156 0.59820
 O16 O 0.53746 0.73382 0.48478
 O17 O 0.47224 0.73753 0.46778
 O18 O 0.52942 0.72653 0.61614
 O19 O 0.52759 0.67235 0.60368
 O20 O 0.47207 0.68320 0.45613
 O21 O 0.53553 0.67961 0.47292
 O22 O 0.46409 0.67723 0.58675
 Cu23 Cu 0.50112 0.73790 0.54298
 Cu24 Cu 0.49977 0.67274 0.52875
 C25 C 0.45158 0.70391 0.61050
 C26 C 0.54898 0.70682 0.46007
 C27 C 0.46202 0.71190 0.43774
 C28 C 0.53846 0.69734 0.63438
 O29 O 1.03834 0.76133 0.09286
 O30 O 0.97059 0.73644 -0.02386
 O31 O 1.03659 0.73323 -0.02721
 O32 O 0.97371 0.75679 0.10091
 O33 O 0.97007 0.80705 0.05608
 O34 O 1.03439 0.78390 -0.06972
 O35 O 0.97020 0.78653 -0.06971
 O36 O 1.03364 0.81193 0.05011
 Cu37 Cu 1.00527 0.74180 0.03963
 Cu38 Cu 1.00182 0.80223 -0.01265
 C39 C 1.04731 0.79128 0.09106
 C40 C 0.95859 0.75795 -0.06587
 C41 C 1.04682 0.75455 -0.06927
 C42 C 0.96074 0.78577 0.09949
 O43 O 0.53533 0.26906 0.55449
 O44 O 0.46523 0.27391 0.43214
 O45 O 0.53016 0.27351 0.42211
 O46 O 0.47004 0.27307 0.56464
 O47 O 0.47121 0.32762 0.56826
 O48 O 0.52967 0.32811 0.42670
 O49 O 0.46608 0.32848 0.43591
 O50 O 0.53508 0.32365 0.55870
 Cu51 Cu 0.50019 0.26681 0.49313
 Cu52 Cu 0.50054 0.33236 0.49793
 C53 C 0.54739 0.29564 0.57651
 C54 C 0.45366 0.30215 0.41367
 C55 C 0.54028 0.30119 0.40081
 C56 C 0.46002 0.30061 0.58963
 O57 O 0.77853 0.01883 -0.05745
 O58 O 0.78052 -0.04007 0.08763
 O59 O 0.78201 0.02520 0.07498
 O60 O 0.78116 -0.04629 -0.04371
 O61 O 0.83580 -0.04737 -0.04403
 O62 O 0.83660 0.02346 0.07141
 O63 O 0.83510 -0.04019 0.08733
 O64 O 0.83313 0.01621 -0.06050
 Cu65 Cu 0.77500 -0.01031 0.01559
 Cu66 Cu 0.84054 -0.01200 0.01345
 C67 C 0.80560 0.02753 -0.08350
 C68 C 0.80825 -0.05071 0.11116
 C69 C 0.80977 0.03670 0.09235
 C70 C 0.80866 -0.05939 -0.06255
 O71 O 0.28052 0.54272 0.40707
 O72 O 0.27375 0.47501 0.53467
 O73 O 0.27147 0.54052 0.53908
 O74 O 0.27597 0.47778 0.40212
 O75 O 0.33033 0.47469 0.41380
 O76 O 0.32593 0.53799 0.54839
 O77 O 0.32815 0.47399 0.54642
 O78 O 0.33493 0.53849 0.41692
 Cu79 Cu 0.26992 0.50936 0.46969
 Cu80 Cu 0.33515 0.50604 0.48236
 C81 C 0.30920 0.55216 0.39093
 C82 C 0.30025 0.46289 0.56165
 C83 C 0.29802 0.55024 0.56635
 C84 C 0.30390 0.46510 0.38571
 O85 O 0.21737 0.97624 -0.09528
 O86 O 0.22392 1.04256 0.03345
 O87 O 0.22222 0.97745 0.03681
 O88 O 0.21728 1.04211 -0.09869
 O89 O 0.16290 1.04396 -0.08924
 O90 O 0.16774 0.98036 0.04452
 O91 O 0.16949 1.04413 0.04279
 O92 O 0.16295 0.97999 -0.08793
 Cu93 Cu 0.22574 1.00934 -0.03216
 Cu94 Cu 0.16039 1.01235 -0.02169
 C95 C 0.18894 0.96646 -0.11249
 C96 C 0.19757 1.05467 0.05969
 C97 C 0.19548 0.96777 0.06305
 C98 C 0.18906 1.05453 -0.11575
 O99 O 0.72562 0.52323 0.58779
 O100 O 0.72724 0.46178 0.44741
 O101 O 0.72831 0.52726 0.45497
 O102 O 0.72910 0.45806 0.57982
 O103 O 0.67449 0.45884 0.57682
 O104 O 0.67369 0.52825 0.45477
 O105 O 0.67260 0.46436 0.44456
 O106 O 0.67103 0.52254 0.58678
 Cu107 Cu 0.73313 0.49256 0.51750
 Cu108 Cu 0.66758 0.49358 0.51543
 C109 C 0.69772 0.53332 0.61077
 C110 C 0.69985 0.45238 0.42299
 C111 C 0.70076 0.53994 0.43482
 C112 C 0.70181 0.44639 0.59860
 C113 C 0.19125 0.20289 0.15855
 C114 C 0.22475 0.19367 0.16485
 C115 C 0.24697 0.21661 0.18991
 C116 C 0.23567 0.24788 0.21433
 C117 C 0.20136 0.25592 0.20972
 C118 C 0.17916 0.23380 0.18086
 C119 C 0.25959 0.27188 0.24387
 C120 C 0.25195 0.30634 0.24542
 C121 C 0.27411 0.32854 0.27396
 C122 C 0.30452 0.31635 0.29971
 C123 C 0.31339 0.28266 0.29661
 C124 C 0.29044 0.26049 0.27130
 H125 H 0.17493 0.18630 0.13258
 H126 H 0.27300 0.20973 0.18965
 H127 H 0.19144 0.27927 0.22844
 H128 H 0.22898 0.31637 0.22429
 H129 H 0.32081 0.33297 0.32571
 H130 H 0.29693 0.23438 0.27386
 C131 C 0.81537 0.80650 0.22823
 C132 C 0.78253 0.81686 0.23939
 C133 C 0.76043 0.79438 0.26653
 C134 C 0.77134 0.76235 0.28830
 C135 C 0.80525 0.75336 0.27958
 C136 C 0.82718 0.77496 0.24826
 C137 C 0.74731 0.73837 0.31794
 C138 C 0.75451 0.70379 0.31881
 C139 C 0.73205 0.68149 0.34571
 C140 C 0.70161 0.69366 0.37028
 C141 C 0.69319 0.72748 0.36821
 C142 C 0.71654 0.74973 0.34494
 H143 H 0.83112 0.82265 0.19990
 H144 H 0.73470 0.80220 0.26918
 H145 H 0.81509 0.72951 0.29638
 H146 H 0.77729 0.69360 0.29803
 H147 H 0.68482 0.67686 0.39418
 H148 H 0.71021 0.77581 0.34826
 C149 C 0.80683 0.19276 0.16111
 C150 C 0.81261 0.22672 0.16470
 C151 C 0.78822 0.24810 0.19139
 C152 C 0.75906 0.23585 0.21981
 C153 C 0.75398 0.20148 0.21661
 C154 C 0.77741 0.17994 0.18632
 C155 C 0.73424 0.25906 0.25213
 C156 C 0.70047 0.25142 0.25539
 C157 C 0.67738 0.27339 0.28533
 C158 C 0.68793 0.30382 0.31029
 C159 C 0.72122 0.31214 0.30691
 C160 C 0.74430 0.28925 0.28037
 H161 H 0.82459 0.17666 0.13532
 H162 H 0.79234 0.27439 0.18969
 H163 H 0.73202 0.19105 0.23797
 H164 H 0.69169 0.22858 0.23445
 H165 H 0.67056 0.32035 0.33610
 H166 H 0.77013 0.29530 0.28221
 C167 C 0.19301 0.82046 0.19209
 C168 C 0.18415 0.78995 0.22001
 C169 C 0.20884 0.76923 0.24903
 C170 C 0.24248 0.77730 0.24633
 C171 C 0.25075 0.80803 0.21779
 C172 C 0.22607 0.83013 0.19269
 C173 C 0.26867 0.75288 0.27033
 C174 C 0.29935 0.76323 0.29606
 C175 C 0.32378 0.73996 0.31765
 C176 C 0.31668 0.70619 0.31746
 C177 C 0.28616 0.69540 0.29327
 C178 C 0.26285 0.71869 0.26818
 H179 H 0.17468 0.83596 0.16589
 H180 H 0.20149 0.74633 0.27239
 H181 H 0.27634 0.81472 0.21358
 H182 H 0.30433 0.78928 0.30020
 H183 H 0.33424 0.68854 0.34019
 H184 H 0.24001 0.70971 0.24730
 C185 C 0.70015 0.29446 0.66749
 C186 C 0.69048 0.26154 0.66968
 C187 C 0.71388 0.23669 0.68780
 C188 C 0.74632 0.24455 0.70805
 C189 C 0.75508 0.27817 0.70713
 C190 C 0.73220 0.30314 0.68641
 C191 C 0.77079 0.21764 0.72903
 C192 C 0.80520 0.22143 0.72088
 C193 C 0.82778 0.19595 0.74031
 C194 C 0.81611 0.16615 0.76519
 C195 C 0.78223 0.16167 0.77428
 C196 C 0.75986 0.18777 0.75790
 H197 H 0.68309 0.31323 0.64710
 H198 H 0.70660 0.21122 0.68516
 H199 H 0.77954 0.28526 0.72274
 H200 H 0.81468 0.24379 0.69895
 H201 H 0.83396 0.14724 0.78203
 H202 H 0.73394 0.18465 0.76860
 C203 C 0.29568 0.69719 0.67175
 C204 C 0.30459 0.72996 0.68104
 C205 C 0.28036 0.75358 0.69981
 C206 C 0.24764 0.74458 0.71559
 C207 C 0.23967 0.71089 0.70708
 C208 C 0.26338 0.68730 0.68423
 C209 C 0.22229 0.77048 0.73899
 C210 C 0.18786 0.76447 0.73978
 C211 C 0.16487 0.78941 0.75954
 C212 C 0.17576 0.82079 0.77576
 C213 C 0.20944 0.82752 0.77635
 C214 C 0.23241 0.80205 0.76092
 H215 H 0.31361 0.67976 0.65044
 H216 H 0.28767 0.77897 0.70084
 H217 H 0.21522 0.70239 0.71769
 H218 H 0.17831 0.74102 0.72445
 H219 H 0.15772 0.83942 0.79217
 H220 H 0.25818 0.80749 0.76689
 C221 C 0.30984 0.31036 0.65968
 C222 C 0.27639 0.32049 0.65886
 C223 C 0.25269 0.29847 0.68081
 C224 C 0.26211 0.26725 0.70874
 C225 C 0.29603 0.25779 0.70977
 C226 C 0.31984 0.27891 0.68426
 C227 C 0.23657 0.24491 0.73653
 C228 C 0.24222 0.21024 0.73959
 C229 C 0.21850 0.18948 0.76689
 C230 C 0.18815 0.20345 0.78865
 C231 C 0.18164 0.23767 0.78450
 C232 C 0.20628 0.25824 0.76124
 H233 H 0.32790 0.32635 0.63745
 H234 H 0.22690 0.30603 0.67580
 H235 H 0.30441 0.23417 0.73075
 H236 H 0.26499 0.19898 0.72089
 H237 H 0.17007 0.18805 0.81251
 H238 H 0.20149 0.28469 0.76286
 C239 C 0.68465 0.67905 0.74257
 C240 C 0.71788 0.66832 0.74763
 C241 C 0.74085 0.68920 0.77702
 C242 C 0.73080 0.71989 0.80554
 C243 C 0.69704 0.72982 0.80111
 C244 C 0.67403 0.70987 0.76861
 C245 C 0.75584 0.74184 0.83682
 C246 C 0.75086 0.77658 0.83705
 C247 C 0.77506 0.79725 0.86307
 C248 C 0.80512 0.78308 0.88706
 C249 C 0.81056 0.74871 0.88741
 C250 C 0.78556 0.72824 0.86493
 H251 H 0.66751 0.66427 0.71413
 H252 H 0.76668 0.68143 0.77624
 H253 H 0.68831 0.75313 0.82232
 H254 H 0.72850 0.78802 0.81586
 H255 H 0.82398 0.79854 0.90827
 H256 H 0.78983 0.70174 0.86851
 C257 C 0.19849 0.08196 0.10882
 C258 C 0.22308 0.10323 0.11191
 C259 C 0.21777 0.13423 0.15003
 C260 C 0.23643 0.16062 0.14093
 H261 H 0.24491 0.09967 0.08057
 H262 H 0.19575 0.13672 0.18125
 H263 H 0.17609 0.08708 0.13767
 H264 H 0.25928 0.15841 0.11245
 C265 C 0.69515 0.55867 0.66406
 C266 C 0.71832 0.58086 0.67475
 C267 C 0.71011 0.61029 0.71608
 C268 C 0.72928 0.63656 0.71704
 H269 H 0.74154 0.57919 0.64741
 H270 H 0.68659 0.61140 0.74240
 H271 H 0.67143 0.56180 0.68919
 H272 H 0.75348 0.63507 0.69351
 C273 C 0.81016 0.92466 0.16124
 C274 C 0.78448 0.90652 0.17951
 C275 C 0.79103 0.87598 0.21926
 C276 C 0.77089 0.85035 0.21679
 H277 H 0.76003 0.91155 0.15808
 H278 H 0.81487 0.87294 0.24466
 H279 H 0.83463 0.91760 0.18054
 H280 H 0.74653 0.85337 0.19376
 C281 C 0.29990 0.43485 0.60942
 C282 C 0.27734 0.41154 0.60644
 C283 C 0.28403 0.37993 0.64238
 C284 C 0.26589 0.35341 0.63159
 H285 H 0.25628 0.41427 0.57198
 H286 H 0.30578 0.37765 0.67507
 H287 H 0.32173 0.43074 0.64130
 H288 H 0.24323 0.35573 0.60174
 C289 C 0.92827 0.21382 0.10480
 C290 C 0.90226 0.23479 0.10895
 C291 C 0.87242 0.22402 0.14424
 C292 C 0.84339 0.24040 0.13761
 H293 H 0.90160 0.25772 0.07988
 H294 H 0.87375 0.20091 0.17270
 H295 H 0.92746 0.18996 0.13028
 H296 H 0.84211 0.26424 0.11193
 C297 C 0.42107 0.70191 0.65032
 C298 C 0.39808 0.72639 0.65179
 C299 C 0.36490 0.71956 0.67785
 C300 C 0.33877 0.74004 0.66628
 H301 H 0.40254 0.74995 0.62735
 H302 H 0.36135 0.69597 0.70293
 H303 H 0.41537 0.67789 0.67130
 H304 H 0.34237 0.76427 0.64408
 C305 C 0.07306 0.80237 0.13174
 C306 C 0.09336 0.78259 0.16897
 C307 C 0.12380 0.79638 0.19732
 C308 C 0.15040 0.77703 0.21133
 H309 H 0.08977 0.75615 0.17134
 H310 H 0.12535 0.82302 0.19975
 H311 H 0.07847 0.82844 0.12787
 H312 H 0.14797 0.75040 0.21073
 C313 C 0.57665 0.29492 0.62146
 C314 C 0.59852 0.26942 0.62398
 C315 C 0.63069 0.27373 0.65793
 C316 C 0.65662 0.25293 0.64796
 H317 H 0.59416 0.24704 0.59539
 H318 H 0.63390 0.29601 0.68759
 H319 H 0.58234 0.31776 0.64733
 H320 H 0.65326 0.22988 0.62108
 C321 C 0.80595 0.05168 0.86019
 C322 C 0.78174 0.07449 0.84986
 C323 C 0.78743 0.10221 0.80278
 C324 C 0.77052 0.13112 0.80742
 H325 H 0.75978 0.07476 0.88141
 H326 H 0.80818 0.09987 0.76815
 H327 H 0.82868 0.05316 0.83137
 H328 H 0.74895 0.13303 0.83997
 C329 C 0.31372 0.58036 0.34471
 C330 C 0.28973 0.60282 0.33079
 C331 C 0.29846 0.63529 0.30313
 C332 C 0.27648 0.66062 0.30176
 H333 H 0.26470 0.59899 0.34791
 H334 H 0.32403 0.63933 0.29018
 H335 H 0.33885 0.58521 0.32951
 H336 H 0.25069 0.65607 0.31190
 C337 C 0.18534 0.93985 0.84340
 C338 C 0.21015 0.91884 0.82638
 C339 C 0.20224 0.88800 0.79104
 C340 C 0.22104 0.86033 0.79830
 H341 H 0.23509 0.92233 0.84514
 H342 H 0.17891 0.88735 0.76363
 H343 H 0.16035 0.93417 0.82782
 H344 H 0.24487 0.86146 0.82376
 C345 C 0.69856 0.42625 0.37134
 C346 C 0.72137 0.40174 0.36764
 C347 C 0.71364 0.37159 0.32961
 C348 C 0.73237 0.34386 0.33500
 H349 H 0.74364 0.40227 0.39881
 H350 H 0.69075 0.37135 0.30041
 H351 H 0.67560 0.42435 0.34281
 H352 H 0.75603 0.34425 0.36136
 C353 C 0.06715 0.22326 0.83393
 C354 C 0.09048 0.24586 0.83093
 C355 C 0.12151 0.23684 0.79573
 C356 C 0.14967 0.25212 0.80808
 H357 H 0.08867 0.26826 0.86119
 H358 H 0.12211 0.21490 0.76391
 H359 H 0.07098 0.20032 0.80593
 H360 H 0.14948 0.27480 0.83748
 C361 C 0.57862 0.70579 0.41697
 C362 C 0.60175 0.72871 0.41823
 C363 C 0.63345 0.72156 0.38362
 C364 C 0.66037 0.73946 0.39327
 H365 H 0.59855 0.75071 0.44928
 H366 H 0.63541 0.69941 0.35259
 H367 H 0.58323 0.68323 0.38823
 H368 H 0.65855 0.76256 0.42114
 C369 C 0.92966 0.75154 0.89130
 C370 C 0.90317 0.73692 0.91629
 C371 C 0.87066 0.74424 0.88429
 C372 C 0.84251 0.73438 0.91188
 H373 H 0.90454 0.72427 0.96538
 H374 H 0.86935 0.76090 0.84052
 H375 H 0.92717 0.76579 0.84421
 H376 H 0.84287 0.71680 0.95395
 C377 C 0.42513 0.30535 0.36702
 C378 C 0.40335 0.28153 0.35816
 C379 C 0.37256 0.28932 0.32001
 C380 C 0.34594 0.27057 0.32378
 H381 H 0.40680 0.25781 0.38374
 H382 H 0.37093 0.31249 0.29184
 H383 H 0.42021 0.32950 0.34404
 H384 H 0.34774 0.24664 0.34901
 C385 C 0.81019 0.91008 0.89686
 C386 C 0.78485 0.88991 0.89087
 C387 C 0.79100 0.85568 0.86741
 C388 C 0.76753 0.83319 0.86998
 H389 H 0.76072 0.89723 0.91053
 H390 H 0.81594 0.84812 0.85310
 H391 H 0.83438 0.90182 0.87889
 H392 H 0.74226 0.84109 0.88098
 C393 C 0.30641 0.43786 0.33614
 C394 C 0.28072 0.41959 0.31840
 C395 C 0.28698 0.38745 0.28479
 C396 C 0.26438 0.36393 0.28364
 H397 H 0.25607 0.42610 0.33632
 H398 H 0.31200 0.38143 0.26843
 H399 H 0.33110 0.43006 0.32036
 H400 H 0.23898 0.37007 0.29705
 C401 C 0.18580 0.08111 0.83871
 C402 C 0.21116 0.09858 0.81636
 C403 C 0.20412 0.13101 0.78365
 C404 C 0.22711 0.15397 0.77936
 H405 H 0.23641 0.09128 0.82976
 H406 H 0.17875 0.13739 0.76958
 H407 H 0.16081 0.08997 0.82657
 H408 H 0.25270 0.14714 0.79074
 C409 C 0.69915 0.56946 0.39039
 C410 C 0.72475 0.58907 0.38047
 C411 C 0.71861 0.62248 0.35149
 C412 C 0.74135 0.64584 0.35381
 H413 H 0.74900 0.58219 0.40088
 H414 H 0.69370 0.62913 0.33449
 H415 H 0.67485 0.57744 0.37174
 H416 H 0.76669 0.63913 0.36757
 C417 C 0.07314 0.74582 0.88747
 C418 C 0.08473 0.76665 0.84049
 C419 C 0.11753 0.76114 0.80883
 C420 C 0.12912 0.78414 0.76675
 H421 H 0.07152 0.78995 0.83031
 H422 H 0.13396 0.74153 0.82836
 H423 H 0.08575 0.72202 0.89542
 H424 H 0.11259 0.80448 0.75101
 C425 C 0.56579 0.30315 0.34801
 C426 C 0.58661 0.27797 0.33305
 C427 C 0.61774 0.28503 0.29809
 C428 C 0.64311 0.26306 0.29729
 H429 H 0.58310 0.25364 0.35485
 H430 H 0.62146 0.31010 0.28045
 H431 H 0.57062 0.32761 0.32812
 H432 H 0.63933 0.23760 0.31208
 C433 C 0.92490 0.24520 0.83638
 C434 C 0.91188 0.22183 0.79740
 C435 C 0.87804 0.22569 0.76924
 C436 C 0.86395 0.19968 0.74061
 H437 H 0.92467 0.19794 0.79323
 H438 H 0.86312 0.24749 0.78222
 H439 H 0.91259 0.26933 0.83986
 H440 H 0.87909 0.17749 0.73178
 C441 C 0.43711 0.71431 0.38276
 C442 C 0.41332 0.73803 0.38057
 C443 C 0.38359 0.73287 0.33841
 C444 C 0.35561 0.75096 0.34633
 H445 H 0.41374 0.75856 0.41605
 H446 H 0.38356 0.71156 0.30486
 H447 H 0.43511 0.69293 0.34981
 H448 H 0.35560 0.77314 0.37730
 C449 C 0.19550 0.94104 0.11420
 C450 C 0.22015 0.91846 0.12146
 C451 C 0.21472 0.88867 0.16308
 C452 C 0.23521 0.86204 0.16144
 H453 H 0.24260 0.92035 0.09192
 H454 H 0.19208 0.88772 0.19229
 H455 H 0.17263 0.93775 0.14176
 H456 H 0.25862 0.86333 0.13508
 C457 C 0.70089 0.41729 0.64394
 C458 C 0.72663 0.39608 0.65336
 C459 C 0.72091 0.36340 0.68404
 C460 C 0.74252 0.33781 0.67750
 H461 H 0.75045 0.40107 0.63115
 H462 H 0.69674 0.35920 0.70543
 H463 H 0.67688 0.41101 0.66370
 H464 H 0.76725 0.34199 0.65903
 C465 C 0.81201 0.06653 0.13470
 C466 C 0.78659 0.08768 0.14576
 C467 C 0.79312 0.12081 0.17303
 C468 C 0.76958 0.14473 0.17562
 H469 H 0.76194 0.08204 0.12814
 H470 H 0.81840 0.12646 0.18608
 H471 H 0.83661 0.07321 0.15090
 H472 H 0.74405 0.13875 0.16595
 C473 C 0.29749 0.57679 0.61774
 C474 C 0.27127 0.59711 0.62868
 C475 C 0.27571 0.62764 0.66835
 C476 C 0.25381 0.65324 0.66587
 H477 H 0.24806 0.59331 0.60226
 H478 H 0.29933 0.63066 0.69375
 H479 H 0.32086 0.58192 0.64247
 H480 H 0.22956 0.64999 0.64340
 C481 C 0.93389 0.79511 0.14680
 C482 C 0.91574 0.77283 0.17926
 C483 C 0.88553 0.78384 0.21556
 C484 C 0.86120 0.76311 0.22973
 H485 H 0.92127 0.74659 0.17341
 H486 H 0.88223 0.81003 0.22549
 H487 H 0.92687 0.82117 0.15001
 H488 H 0.86549 0.73678 0.22226
 C489 C 0.43368 0.30251 0.64093
 C490 C 0.41199 0.27866 0.64945
 C491 C 0.37979 0.28705 0.68069
 C492 C 0.35449 0.26673 0.67624
 H493 H 0.41574 0.25497 0.62440
 H494 H 0.37546 0.31196 0.69971
 H495 H 0.42874 0.32650 0.66404
 H496 H 0.35883 0.24136 0.66007
 C497 C 0.06932 0.20804 0.10122
 C498 C 0.08851 0.23175 0.12561
 C499 C 0.12012 0.22261 0.15965
 C500 C 0.14419 0.24439 0.16728
 H501 H 0.08278 0.25754 0.11389
 H502 H 0.12485 0.19678 0.17236
 H503 H 0.07614 0.18229 0.11093
 H504 H 0.13878 0.27041 0.15743
 C505 C 0.56308 0.69134 0.68910
 C506 C 0.58416 0.71410 0.70975
 C507 C 0.61448 0.70328 0.74690
 C508 C 0.64008 0.72311 0.75403
 H509 H 0.58149 0.73938 0.69128
 H510 H 0.61740 0.67742 0.76127
 H511 H 0.56706 0.66589 0.70580
 H512 H 0.63685 0.74928 0.74256
   
