data_POSCAR
  _audit_creation_date              2014-09-24
  _audit_creation_method            'ToBaCCo'
  _symmetry_space_group_name_H-M    'P1'
  _symmetry_Int_Tables_number       1
  _symmetry_cell_setting            triclinic
  loop_
  _symmetry_equiv_pos_as_xyz
 x,y,z
_cell_length_a 23.8004
_cell_length_b 23.7132
_cell_length_c 23.5734
_cell_angle_alpha 103.646700
_cell_angle_beta 95.583300
_cell_angle_gamma 97.461700
loop_
  _atom_site_label
  _atom_site_type_symbol
  _atom_site_fract_x
  _atom_site_fract_y
  _atom_site_fract_z
C1 C 0.52152 0.48216 -0.00337
 C2 C 0.49239 0.52837 0.00230
 C3 C 0.43324 0.52434 0.01742
 C4 C 0.51806 0.58706 -0.00326
 C5 C 0.58120 0.48631 -0.01641
 C6 C 0.49488 0.42342 0.00068
 C7 C 0.38655 0.49532 -0.02484
 C8 C 0.33060 0.49795 -0.01216
 C9 C 0.32009 0.53204 0.04242
 C10 C 0.36753 0.56084 0.08467
 C11 C 0.42327 0.55676 0.07231
 C12 C 0.49093 0.61217 -0.04459
 C13 C 0.50780 0.67108 -0.04388
 C14 C 0.55237 0.70605 -0.00188
 C15 C 0.58097 0.68031 0.03805
 C16 C 0.56338 0.62163 0.03796
 C17 C 0.62669 0.50193 0.02968
 C18 C 0.68269 0.49791 0.01790
 C19 C 0.69377 0.47624 -0.04005
 C20 C 0.64813 0.46091 -0.08616
 C21 C 0.59230 0.46621 -0.07443
 C22 C 0.51124 0.40240 0.04969
 C23 C 0.49218 0.34412 0.05015
 C24 C 0.45580 0.30627 0.00188
 C25 C 0.43855 0.32780 -0.04655
 C26 C 0.45900 0.38543 -0.04769
 H27 H 0.39319 0.47272 -0.06857
 H28 H 0.29609 0.47543 -0.04654
 H29 H 0.36192 0.58738 0.12731
 H30 H 0.45886 0.58045 0.10507
 H31 H 0.45524 0.58660 -0.07616
 H32 H 0.48519 0.68950 -0.07548
 H33 H 0.58315 0.60438 0.07210
 H34 H 0.61863 0.51536 0.07495
 H35 H 0.71682 0.50905 0.05442
 H36 H 0.65552 0.44387 -0.13118
 H37 H 0.55745 0.45263 -0.11034
 H38 H 0.53998 0.43068 0.08687
 H39 H 0.50619 0.32848 0.08794
 H40 H 0.41145 0.29918 -0.08477
 H41 H 0.44846 0.39968 -0.08722
 H42 H 0.61503 0.70639 0.07135
 C43 C 0.00189 0.52185 0.51742
 C44 C 0.00056 0.46744 0.48078
 C45 C -0.00020 0.41374 0.50320
 C46 C -0.00093 0.45804 0.41555
 C47 C -0.00168 0.57434 0.49388
 C48 C 0.00588 0.53268 0.58295
 C49 C 0.03740 0.37441 0.48416
 C50 C 0.03570 0.32223 0.50185
 C51 C -0.00288 0.30889 0.53989
 C52 C -0.03996 0.34839 0.55990
 C53 C -0.03955 0.39988 0.54063
 C54 C 0.03797 0.49220 0.39094
 C55 C 0.03507 0.48294 0.32976
 C56 C -0.00512 0.43772 0.29205
 C57 C -0.04250 0.40222 0.31650
 C58 C -0.04083 0.41265 0.37754
 C59 C -0.04687 0.57547 0.45128
 C60 C -0.04996 0.62587 0.43082
 C61 C -0.00899 0.67640 0.45407
 C62 C 0.03594 0.67527 0.49684
 C63 C 0.03963 0.62464 0.51639
 C64 C -0.03041 0.56796 0.61306
 C65 C -0.02665 0.58069 0.67432
 C66 C 0.01259 0.55737 0.70695
 C67 C 0.04904 0.52204 0.67729
 C68 C 0.04659 0.51086 0.61591
 H69 H 0.06785 0.38394 0.45508
 H70 H 0.06479 0.29237 0.48603
 H71 H -0.07053 0.33837 0.58868
 H72 H -0.07015 0.42862 0.55453
 H73 H 0.07054 0.52606 0.41903
 H74 H 0.06509 0.51022 0.31192
 H75 H -0.07093 0.38529 0.39522
 H76 H -0.07991 0.53755 0.43428
 H77 H -0.08530 0.62598 0.39825
 H78 H 0.06832 0.71351 0.51519
 H79 H 0.07468 0.62472 0.54939
 H80 H -0.06189 0.58576 0.58902
 H81 H -0.05525 0.60799 0.69618
 H82 H 0.08023 0.50424 0.70169
 H83 H 0.07646 0.48525 0.59423
 H84 H -0.07374 0.36698 0.28831
 C85 C 0.51252 -0.00368 0.48138
 C86 C 0.47790 0.00530 0.52418
 C87 C 0.49838 0.01086 0.58713
 C88 C 0.41750 0.01174 0.50934
 C89 C 0.49018 -0.00551 0.42009
 C90 C 0.57251 -0.01441 0.49239
 C91 C 0.46930 -0.02481 0.61804
 C92 C 0.48779 -0.02016 0.67704
 C93 C 0.53616 0.02040 0.70702
 C94 C 0.56577 0.05584 0.67578
 C95 C 0.54664 0.05158 0.61662
 C96 C 0.37382 -0.03648 0.50024
 C97 C 0.31685 -0.03003 0.48752
 C98 C 0.30302 0.02408 0.48119
 C99 C 0.34689 0.07171 0.48783
 C100 C 0.40379 0.06580 0.50271
 C101 C 0.49915 0.04500 0.39892
 C102 C 0.48072 0.04232 0.34018
 C103 C 0.45130 -0.01039 0.30252
 C104 C 0.43969 -0.06008 0.32464
 C105 C 0.45964 -0.05783 0.38298
 C106 C 0.61620 0.01461 0.46880
 C107 C 0.67246 0.00494 0.47840
 C108 C 0.68695 -0.03335 0.51291
 C109 C 0.64309 -0.06303 0.53601
 C110 C 0.58640 -0.05465 0.52473
 H111 H 0.43255 -0.05717 0.59661
 H112 H 0.46394 -0.04910 0.69850
 H113 H 0.60308 0.08770 0.69722
 H114 H 0.56948 0.08004 0.59381
 H115 H 0.38379 -0.07914 0.50279
 H116 H 0.28366 -0.06761 0.48139
 H117 H 0.43719 0.10317 0.50874
 H118 H 0.52129 0.08613 0.42765
 H119 H 0.48941 0.08136 0.32416
 H120 H 0.41702 -0.10115 0.29626
 H121 H 0.45175 -0.09688 0.39913
 H122 H 0.60735 0.04566 0.44346
 H123 H 0.70452 0.02905 0.45989
 H124 H 0.65232 -0.09350 0.56209
 H125 H 0.55341 -0.07954 0.54152
 H126 H 0.33699 0.11371 0.48280
 O127 O 0.48696 -0.01452 -0.08910
 O128 O 0.42977 -0.02448 0.04752
 O129 O 0.43088 0.05031 -0.01856
 O130 O 0.48828 -0.08767 -0.02208
 O131 O 0.56936 -0.03635 0.02826
 O132 O 0.51162 0.10142 0.03281
 O133 O 0.51050 0.02673 0.09881
 O134 O 0.56769 0.03776 -0.03886
 Cu135 Cu 0.45088 -0.02418 -0.02560
 Cu136 Cu 0.54794 0.03736 0.03554
 C137 C 0.53620 0.01417 -0.08756
 C138 C 0.46070 -0.00135 0.09649
 C139 C 0.46187 0.09938 0.00668
 C140 C 0.53854 -0.08546 0.00305
 O141 O -0.07380 0.52714 1.00844
 O142 O 0.08251 0.56180 1.04864
 O143 O 0.00996 0.57341 0.96208
 O144 O -0.00089 0.51486 1.09293
 O145 O 0.00532 0.42666 1.03891
 O146 O 0.02086 0.48630 0.90915
 O147 O 0.09162 0.47423 0.99531
 O148 O -0.06459 0.44089 0.95230
 Cu149 Cu 0.00368 0.55320 1.03317
 Cu150 Cu 0.01432 0.44813 0.96885
 C151 C -0.09577 0.47838 0.97289
 C152 C 0.11358 0.52376 1.02947
 C153 C 0.01678 0.53993 0.91331
 C154 C 0.00010 0.46053 1.08802
 O155 O -0.02494 -0.08496 0.42266
 O156 O -0.01945 0.07434 0.47720
 O157 O 0.05244 0.00856 0.43535
 O158 O -0.09600 -0.01702 0.46635
 O159 O -0.06560 -0.02647 0.55472
 O160 O 0.08300 0.00411 0.52549
 O161 O 0.00749 0.06887 0.56786
 O162 O 0.00815 -0.08953 0.51205
 Cu163 Cu -0.02501 -0.00446 0.44122
 Cu164 Cu 0.01168 -0.01108 0.54912
 C165 C -0.00953 -0.11444 0.45826
 C166 C -0.00585 0.09861 0.53173
 C167 C 0.09303 0.01135 0.47553
 C168 C -0.10611 -0.02655 0.51549
 N169 N -0.18128 0.42565 0.90701
 N170 N -0.23735 0.42473 0.90145
 C171 C -0.24819 0.46572 0.94776
 C172 C -0.19669 0.49203 0.98188
 N173 N -0.15621 0.46572 0.95494
 H174 H -0.18928 0.52651 1.02237
 N175 N 0.19833 0.57463 1.09718
 N176 N 0.25452 0.57688 1.10229
 C177 C 0.26648 0.53930 1.05381
 C178 C 0.21490 0.51331 1.01894
 N179 N 0.17393 0.53675 1.04758
 H180 H 0.20733 0.48109 0.97690
 N181 N -0.04175 -0.20915 0.38736
 N182 N -0.04310 -0.26579 0.38484
 C183 C -0.01452 -0.26895 0.43607
 C184 C 0.00420 -0.21262 0.47004
 N185 N -0.01359 -0.17674 0.43822
 H186 H 0.02613 -0.19898 0.51466
 N187 N -0.01409 0.18756 0.60584
 N188 N -0.01466 0.24419 0.60946
 C189 C -0.00583 0.25254 0.55613
 C190 C -0.00028 0.19955 0.51971
 N191 N -0.00563 0.16028 0.55224
 H192 H 0.00625 0.19022 0.47380
 N193 N 0.59998 0.05908 -0.14552
 N194 N 0.60045 0.06252 -0.20086
 C195 C 0.55361 0.02643 -0.23287
 C196 C 0.52483 0.00043 -0.19512
 N197 N 0.55486 0.02198 -0.14143
 H198 H 0.48425 -0.02862 -0.20445
 N199 N 0.39420 -0.04706 0.15064
 N200 N 0.39036 -0.05126 0.20524
 C201 C 0.43537 -0.01454 0.23966
 C202 C 0.46703 0.01217 0.20452
 N203 N 0.43999 -0.00937 0.14939
 H204 H 0.50759 0.04134 0.21717
 N205 N 0.61038 -0.14100 0.03288
 N206 N 0.61562 -0.19604 0.03261
 C207 C 0.56678 -0.23015 0.00309
 C208 C 0.53134 -0.19395 -0.01473
 N209 N 0.56008 -0.13883 0.00480
 H210 H 0.48776 -0.20595 -0.03654
 N211 N 0.39362 0.15500 -0.02951
 N212 N 0.39063 0.20975 -0.03224
 C213 C 0.43844 0.24362 -0.00012
 C214 C 0.47090 0.20772 0.02244
 N215 N 0.44152 0.15285 0.00297
 H216 H 0.51350 0.21961 0.04675
 N217 N -0.18126 -0.06661 0.56493
 N218 N -0.23734 -0.06993 0.56451
 C219 C -0.25605 -0.04135 0.52486
 C220 C -0.20931 -0.02089 0.50056
 N221 N -0.16389 -0.03750 0.52673
 H222 H -0.20784 0.00358 0.46724
 N223 N 0.16770 0.05474 0.42789
 N224 N 0.22397 0.06010 0.42899
 C225 C 0.24297 0.03061 0.46752
 C226 C 0.19679 0.00738 0.49037
 N227 N 0.15079 0.02344 0.46455
 H228 H 0.19662 -0.01844 0.52262
 N229 N -0.02116 0.38097 1.13569
 N230 N -0.02359 0.37330 1.18937
 C231 C -0.00786 0.42667 1.22741
 C232 C 0.00394 0.46747 1.19524
 N233 N -0.00495 0.43717 1.13835
 H234 H 0.01701 0.51450 1.21144
 N235 N 0.00363 0.61421 0.85970
 N236 N 0.00150 0.62022 0.80510
 C237 C 0.01489 0.57050 0.77166
 C238 C 0.02528 0.53364 0.80763
 N239 N 0.01766 0.56254 0.86211
 H240 H 0.03440 0.48917 0.79494
   
