data_POSCAR
  _audit_creation_date              2014-09-24
  _audit_creation_method            'ToBaCCo'
  _symmetry_space_group_name_H-M    'P1'
  _symmetry_Int_Tables_number       1
  _symmetry_cell_setting            triclinic
  loop_
  _symmetry_equiv_pos_as_xyz
 x,y,z
_cell_length_a 31.1341
_cell_length_b 31.3063
_cell_length_c 10.1628
_cell_angle_alpha 90.087600
_cell_angle_beta 89.847400
_cell_angle_gamma 119.953700
loop_
  _atom_site_label
  _atom_site_type_symbol
  _atom_site_fract_x
  _atom_site_fract_y
  _atom_site_fract_z
C1 C 0.20181 0.48399 0.44006
 C2 C 0.19739 0.47094 0.57566
 C3 C 0.23181 0.46064 0.63355
 C4 C 0.27542 0.47056 0.56861
 C5 C 0.28103 0.48355 0.43288
 C6 C 0.24404 0.48992 0.37083
 H7 H 0.24642 0.49522 0.26572
 H8 H 0.22726 0.45011 0.73677
 C9 C 0.48628 -0.29787 0.43555
 C10 C 0.48436 -0.29561 0.57509
 C11 C 0.48307 -0.25612 0.63665
 C12 C 0.48333 -0.21756 0.56415
 C13 C 0.48148 -0.22174 0.42477
 C14 C 0.48329 -0.26092 0.36314
 H15 H 0.48381 -0.26061 0.25701
 H16 H 0.48384 -0.25553 0.74286
 C17 C 1.29267 0.78601 0.43327
 C18 C 1.29776 0.78793 0.57372
 C19 C 1.26245 0.74783 0.64807
 C20 C 1.22040 0.70908 0.59083
 C21 C 1.21208 0.70890 0.45469
 C22 C 1.24962 0.74639 0.37729
 H23 H 1.24417 0.74663 0.27214
 H24 H 1.26766 0.74624 0.75302
 C25 C 0.80597 0.53477 0.43275
 C26 C 0.80364 0.52679 0.57065
 C27 C 0.76286 0.52298 0.64151
 C28 C 0.72502 0.52764 0.57993
 C29 C 0.72864 0.53723 0.44270
 C30 C 0.76826 0.53936 0.37044
 H31 H 0.77033 0.54576 0.26519
 H32 H 0.76256 0.52049 0.74722
 C33 C 0.49801 0.28815 0.42534
 C34 C 0.49524 0.28650 0.56450
 C35 C 0.48897 0.24362 0.62963
 C36 C 0.48369 0.20220 0.55834
 C37 C 0.48454 0.20495 0.41882
 C38 C 0.49223 0.24756 0.35503
 H39 H 0.49341 0.24909 0.24830
 H40 H 0.48462 0.24109 0.73506
 C41 C 0.71640 0.20778 0.43264
 C42 C 0.70220 0.21640 0.55788
 C43 C 0.73197 0.26095 0.62275
 C44 C 0.77923 0.29488 0.57584
 C45 C 0.79459 0.28715 0.44900
 C46 C 0.76237 0.24329 0.38023
 H47 H 0.77364 0.23552 0.28665
 H48 H 0.72036 0.26656 0.71908
 O49 O 1.07183 0.60258 0.25044
 O50 O 1.12529 0.59667 0.10517
 C51 C 1.11635 0.61568 0.20688
 O52 O 0.93409 0.38403 0.21678
 O53 O 0.87775 0.39627 0.10186
 C54 C 0.88889 0.37248 0.18619
 O55 O 1.07470 0.46224 0.22230
 O56 O 1.12693 0.52792 0.09207
 C57 C 1.11874 0.49636 0.18492
 O58 O 0.93033 0.53724 0.23881
 O59 O 0.87571 0.46981 0.11722
 C60 C 0.88560 0.50374 0.20496
 Zr61 Zr 1.00039 0.54855 0.17420
 O62 O 0.99621 0.53580 0.37800
 O63 O 1.00448 0.61720 0.20660
 Zr64 Zr 1.00363 0.44272 0.14480
 O65 O 1.00515 0.43011 0.34739
 O66 O 1.01092 0.38008 0.10724
 O67 O 1.04625 0.51823 0.18099
 O68 O 0.95873 0.47269 0.18534
 O69 O 0.92567 0.54253 -0.21324
 O70 O 0.87339 0.47173 -0.10053
 C71 C 0.88189 0.50704 -0.18117
 O72 O 1.06910 0.46781 -0.27111
 O73 O 1.12391 0.53368 -0.14667
 C74 C 1.11313 0.50286 -0.24340
 O75 O 0.93616 0.39286 -0.25376
 O76 O 0.87849 0.40027 -0.12960
 C77 C 0.89123 0.37985 -0.22294
 O78 O 1.06300 0.61586 -0.22421
 O79 O 1.12115 0.60219 -0.12432
 C80 C 1.10811 0.62638 -0.20314
 Zr81 Zr 0.99651 0.55626 -0.15416
 O82 O 0.99085 0.56094 -0.35957
 O83 O 0.99729 0.62377 -0.12714
 Zr84 Zr 1.00173 0.45097 -0.18237
 O85 O 0.99502 0.45449 -0.38684
 O86 O 1.01034 0.38815 -0.19639
 Zr87 Zr 1.07464 0.53883 -0.01163
 Zr88 Zr 0.92609 0.46040 -0.00234
 O89 O 0.95630 0.48152 -0.19177
 O90 O 1.04260 0.52749 -0.19869
 O91 O 0.95369 0.53704 0.01463
 O92 O 1.04697 0.46247 -0.02329
 O93 O 1.04155 0.58291 0.00916
 O94 O 0.95792 0.41487 -0.01896
 H95 H 0.93638 0.46029 0.26264
 H96 H 1.07115 0.45075 -0.03096
 H97 H 0.93412 0.47177 -0.26925
 H98 H 1.06295 0.61917 0.01591
 H99 H 0.97730 0.35182 0.09167
 H100 H 0.98435 0.36190 -0.14130
 H101 H 1.02010 0.48809 -0.41461
 H102 H 1.02056 0.56181 -0.39705
 H103 H 0.96580 0.61643 -0.08399
 H104 H 0.98522 0.62131 0.13559
 H105 H 1.02466 0.53135 0.39984
 H106 H 0.98365 0.44135 0.38736
 O107 O 0.38375 0.46225 0.20365
 O108 O 0.39917 0.52698 0.06860
 C109 C 0.37499 0.49644 0.16341
 O110 O 0.60415 0.54162 0.25318
 O111 O 0.59323 0.47290 0.14268
 C112 C 0.61589 0.50779 0.22745
 O113 O 0.52648 0.60513 0.23414
 O114 O 0.46976 0.59682 0.07731
 C115 C 0.49567 0.61701 0.18194
 O116 O 0.44330 0.38484 0.21826
 O117 O 0.51772 0.39940 0.13235
 C118 C 0.47820 0.37421 0.20344
 Zr119 Zr 0.43800 0.44481 0.14315
 O120 O 0.42800 0.43728 0.34921
 O121 O 0.36713 0.38193 0.11556
 Zr122 Zr 0.54665 0.55233 0.17128
 O123 O 0.54028 0.54818 0.37853
 O124 O 0.61061 0.62295 0.18610
 O125 O 0.46980 0.52057 0.16933
 O126 O 0.51217 0.47672 0.19453
 O127 O 0.46790 0.38813 -0.23181
 O128 O 0.52836 0.39949 -0.08405
 C129 C 0.49875 0.37624 -0.18055
 O130 O 0.55135 0.60751 -0.25274
 O131 O 0.48052 0.59711 -0.15315
 C132 C 0.51687 0.61868 -0.23655
 O133 O 0.62078 0.54163 -0.19995
 O134 O 0.60256 0.47352 -0.07572
 C135 C 0.62958 0.50746 -0.16061
 O136 O 0.40643 0.46257 -0.29248
 O137 O 0.41057 0.52708 -0.17362
 C138 C 0.39442 0.49607 -0.27123
 Zr139 Zr 0.45375 0.44596 -0.18326
 O140 O 0.46392 0.44144 -0.38709
 O141 O 0.38258 0.38217 -0.19167
 Zr142 Zr 0.56201 0.55406 -0.15591
 O143 O 0.57870 0.56187 -0.35937
 O144 O 0.62619 0.62342 -0.12211
 Zr145 Zr 0.46368 0.53658 -0.02932
 Zr146 Zr 0.53621 0.46198 0.01518
 O147 O 0.52988 0.47851 -0.18172
 O148 O 0.48784 0.52205 -0.20897
 O149 O 0.45928 0.41469 -0.00881
 O150 O 0.54055 0.58277 -0.00350
 O151 O 0.41652 0.45980 -0.03513
 O152 O 0.58444 0.53901 0.02197
 H153 H 0.51974 0.46515 0.27733
 H154 H 0.55408 0.61892 -0.00439
 H155 H 0.54367 0.46695 -0.25210
 H156 H 0.38066 0.44749 -0.04772
 H157 H 0.63797 0.62127 0.14132
 H158 H 0.65189 0.61756 -0.08313
 H159 H 0.56827 0.52879 -0.39555
 H160 H 0.48454 0.47577 -0.41810
 H161 H 0.38477 0.35493 -0.14908
 H162 H 0.37202 0.35588 0.07528
 H163 H 0.43770 0.47030 0.38463
 H164 H 0.50752 0.54393 0.40192
 O165 O 0.54946 -0.05979 0.24850
 O166 O 0.47620 -0.11747 0.15362
 C167 C 0.51311 -0.10442 0.23442
 O168 O 0.47359 0.08301 0.22576
 O169 O 0.53867 0.13111 0.08852
 C170 C 0.50730 0.12527 0.18077
 O171 O 0.40825 -0.05060 0.28959
 O172 O 0.40699 -0.11335 0.16950
 C173 C 0.39250 -0.09682 0.26788
 O174 O 0.62421 0.07555 0.20296
 O175 O 0.61048 0.12674 0.07057
 C176 C 0.63529 0.11896 0.16034
 Zr177 Zr 0.56332 0.00558 0.15360
 O178 O 0.57940 0.01232 0.35719
 O179 O 0.62693 0.00028 0.11109
 Zr180 Zr 0.45790 0.01163 0.17919
 O181 O 0.46731 0.02595 0.38310
 O182 O 0.38982 0.01123 0.17876
 O183 O 0.48855 -0.03341 0.20637
 O184 O 0.53439 0.05183 0.17870
 O185 O 0.60401 0.05497 -0.26439
 O186 O 0.59860 0.11685 -0.15729
 C187 C 0.61751 0.10093 -0.24557
 O188 O 0.38657 -0.07118 -0.20992
 O189 O 0.39737 -0.12314 -0.07160
 C190 C 0.37499 -0.11466 -0.16712
 O191 O 0.45496 0.06879 -0.22095
 O192 O 0.52878 0.12404 -0.12430
 C193 C 0.49093 0.11360 -0.19740
 O194 O 0.52344 -0.08211 -0.23512
 O195 O 0.46541 -0.12800 -0.07838
 C196 C 0.49105 -0.12390 -0.18284
 Zr197 Zr 0.54706 -0.00872 -0.17239
 O198 O 0.54122 -0.01262 -0.37969
 O199 O 0.60949 -0.01865 -0.18091
 Zr200 Zr 0.44270 -0.00079 -0.14655
 O201 O 0.43165 -0.00221 -0.35172
 O202 O 0.37442 -0.00276 -0.11630
 Zr203 Zr 0.46267 -0.07162 0.02734
 Zr204 Zr 0.54271 0.07519 -0.01796
 O205 O 0.51681 0.03669 -0.19686
 O206 O 0.47019 -0.04899 -0.17127
 O207 O 0.58747 0.04225 -0.02500
 O208 O 0.41894 -0.03780 0.03123
 O209 O 0.53900 -0.04541 0.00268
 O210 O 0.46642 0.04994 0.00585
 H211 H 0.54883 0.07659 0.24999
 H212 H 0.38273 -0.05945 0.04364
 H213 H 0.52440 0.05538 -0.28044
 H214 H 0.55081 -0.06952 0.00359
 H215 H 0.38327 0.01611 0.27145
 H216 H 0.38189 0.02847 -0.07256
 H217 H 0.44178 -0.02501 -0.38909
 H218 H 0.50664 -0.03730 -0.40203
 H219 H 0.63770 0.01080 -0.14082
 H220 H 0.64289 0.00248 0.19696
 H221 H 0.56961 0.03538 0.39464
 H222 H 0.48781 0.01204 0.41437
 C223 C 1.16136 0.48354 0.37356
 C224 C 1.16291 0.50030 0.25077
 H225 H 1.12622 0.46839 0.42486
 H226 H 1.19759 0.52018 0.19802
 C227 C 0.49166 0.66435 0.37240
 C228 C 0.48940 0.65647 0.24176
 H229 H 0.49738 0.63912 0.43211
 H230 H 0.47898 0.67626 0.17435
 C231 C 0.32777 -0.17966 0.34318
 C232 C 0.35685 -0.13136 0.36564
 H233 H 0.32782 -0.19243 0.24386
 H234 H 0.35207 -0.11505 0.45430
 C235 C 0.84810 0.53911 0.35321
 C236 C 0.84285 0.50358 0.26997
 H237 H 0.88471 0.56981 0.37387
 H238 H 0.80612 0.47261 0.25190
 C239 C 0.50717 0.33198 0.34880
 C240 C 0.47172 0.33048 0.27244
 H241 H 0.54180 0.36619 0.36224
 H242 H 0.43550 0.29751 0.27025
 C243 C 0.68318 0.16241 0.35604
 C244 C 0.67587 0.16260 0.22581
 H245 H 0.65993 0.12871 0.40940
 H246 H 0.69470 0.19689 0.17139
 C247 C 0.47826 0.15904 -0.37823
 C248 C 0.48970 0.15674 -0.25237
 H249 H 0.46832 0.12637 -0.43590
 H250 H 0.50570 0.18938 -0.19136
 C251 C 0.68496 0.52459 -0.34695
 C252 C 0.67148 0.50634 -0.22409
 H253 H 0.66185 0.53663 -0.39493
 H254 H 0.68832 0.48809 -0.17343
 C255 C 0.80993 0.33240 -0.33564
 C256 C 0.85505 0.34030 -0.30774
 H257 H 0.79416 0.34900 -0.27238
 H258 H 0.86839 0.31859 -0.35835
 C259 C 0.48718 -0.17511 -0.37291
 C260 C 0.48306 -0.17025 -0.24261
 H261 H 0.49374 -0.14388 -0.43267
 H262 H 0.47086 -0.20108 -0.17634
 C263 C 0.31148 0.46794 -0.35366
 C264 C 0.36024 0.49881 -0.36513
 H265 H 0.29905 0.44436 -0.26726
 H266 H 0.37511 0.52813 -0.43744
 C267 C 1.18616 0.66887 -0.32288
 C268 C 1.14595 0.66832 -0.27669
 H269 H 1.19396 0.63969 -0.29917
 H270 H 1.13800 0.69690 -0.30664
 C271 C 0.84246 0.52460 -0.36386
 C272 C 0.83899 0.50603 -0.24277
 H273 H 0.87724 0.53730 -0.41528
 H274 H 0.80403 0.48659 -0.19098
 C275 C 0.49488 0.32576 -0.36748
 C276 C 0.50113 0.33426 -0.23775
 H277 H 0.49007 0.35225 -0.42478
 H278 H 0.51163 0.31332 -0.17430
 C279 C 0.65898 0.17879 -0.36828
 C280 C 0.65661 0.13666 -0.33214
 H281 H 0.63280 0.18867 -0.32824
 H282 H 0.68374 0.12757 -0.36934
 C283 C 1.16099 0.46950 -0.34043
 C284 C 1.15257 0.50722 -0.32979
 H285 H 1.14483 0.44063 -0.26653
 H286 H 1.17402 0.54086 -0.38569
 C287 C 0.48125 0.66525 -0.33757
 C288 C 0.51967 0.65807 -0.32092
 H289 H 0.44751 0.64405 -0.28117
 H290 H 0.55348 0.68027 -0.37637
 C291 C 0.34013 -0.17177 -0.35312
 C292 C 0.33421 -0.15685 -0.23354
 H293 H 0.37661 -0.15351 -0.39785
 H294 H 0.29829 -0.17385 -0.18598
 C295 C 0.47682 -0.18643 0.33795
 C296 C 0.51537 -0.14153 0.31771
 H297 H 0.44228 -0.19864 0.28593
 H298 H 0.54970 -0.13066 0.36974
 C299 C 0.31912 0.47999 0.35176
 C300 C 0.33663 0.50214 0.23470
 H301 H 0.33330 0.45737 0.39143
 H302 H 0.32527 0.52696 0.19464
 C303 C 1.16413 0.67057 0.39468
 C304 C 1.16141 0.65501 0.27081
 H305 H 1.13092 0.65349 0.45461
 H306 H 1.19521 0.66898 0.21386
 C307 C 0.47791 0.16369 0.33640
 C308 C 0.51084 0.16889 0.24379
 H309 H 0.44652 0.12775 0.35839
 H310 H 0.54229 0.20483 0.22163
 C311 C 0.69027 0.54330 0.37211
 C312 C 0.65748 0.50723 0.29534
 H313 H 0.68677 0.57542 0.39212
 H314 H 0.66161 0.47517 0.27977
 C315 C 0.84152 0.32553 0.38287
 C316 C 0.84641 0.33042 0.25123
 H317 H 0.87123 0.35349 0.44126
 H318 H 0.81521 0.30759 0.18853
   
