data_POSCAR
  _audit_creation_date              2014-09-24
  _audit_creation_method            'ToBaCCo'
  _symmetry_space_group_name_H-M    'P1'
  _symmetry_Int_Tables_number       1
  _symmetry_cell_setting            triclinic
  loop_
  _symmetry_equiv_pos_as_xyz
 x,y,z
_cell_length_a 25.4227
_cell_length_b 33.6036
_cell_length_c 16.8834
_cell_angle_alpha 89.993400
_cell_angle_beta 89.980600
_cell_angle_gamma 89.699600
loop_
  _atom_site_label
  _atom_site_type_symbol
  _atom_site_fract_x
  _atom_site_fract_y
  _atom_site_fract_z
C1 C 0.70105 0.35173 0.48928
 C2 C 0.70470 0.33229 0.56279
 C3 C 0.72401 0.29286 0.56357
 C4 C 0.74368 0.27416 0.49411
 C5 C 0.74066 0.29568 0.42208
 C6 C 0.71781 0.33367 0.41904
 C7 C 0.76648 0.23246 0.49688
 C8 C 0.77394 0.20975 0.42681
 C9 C 0.79529 0.17091 0.42886
 C10 C 0.80620 0.15401 0.50326
 C11 C 0.79885 0.17528 0.57350
 C12 C 0.78099 0.21470 0.56982
 H13 H 0.68098 0.38013 0.48518
 H14 H 0.72465 0.27733 0.61914
 H15 H 0.75575 0.28362 0.36738
 H16 H 0.76142 0.22119 0.37025
 H17 H 0.82480 0.12504 0.50731
 H18 H 0.77886 0.23086 0.62483
 C19 C 0.19282 0.84549 0.48853
 C20 C 0.19599 0.82613 0.56230
 C21 C 0.21430 0.78636 0.56345
 C22 C 0.23336 0.76739 0.49398
 C23 C 0.23130 0.78894 0.42196
 C24 C 0.20937 0.82713 0.41854
 C25 C 0.25498 0.72544 0.49604
 C26 C 0.25894 0.70272 0.42568
 C27 C 0.28184 0.66477 0.42564
 C28 C 0.29645 0.64758 0.49776
 C29 C 0.29101 0.66804 0.57000
 C30 C 0.27255 0.70773 0.56770
 H31 H 0.17351 0.87418 0.48397
 H32 H 0.21475 0.77070 0.61900
 H33 H 0.24663 0.77672 0.36751
 H34 H 0.24466 0.71399 0.36981
 H35 H 0.31639 0.61905 0.49655
 H36 H 0.27085 0.72424 0.62226
 C37 C 0.31149 0.34358 -0.48956
 C38 C 0.30548 0.32440 -0.56236
 C39 C 0.28443 0.28590 -0.56386
 C40 C 0.26594 0.26714 -0.49385
 C41 C 0.27129 0.28825 -0.42149
 C42 C 0.29504 0.32583 -0.41899
 C43 C 0.24183 0.22601 -0.49651
 C44 C 0.23303 0.20366 -0.42636
 C45 C 0.21046 0.16539 -0.42841
 C46 C 0.19934 0.14868 -0.50281
 C47 C 0.20789 0.16958 -0.57310
 C48 C 0.22732 0.20842 -0.56952
 H49 H 0.33111 0.37212 -0.48748
 H50 H 0.28297 0.27129 -0.62052
 H51 H 0.25700 0.27644 -0.36623
 H52 H 0.24536 0.21486 -0.36965
 H53 H 0.17970 0.12026 -0.50688
 H54 H 0.23062 0.22421 -0.62475
 C55 C -0.19732 0.85063 -0.48708
 C56 C -0.20141 0.83159 -0.56099
 C57 C -0.22146 0.79247 -0.56248
 C58 C -0.24113 0.77386 -0.49313
 C59 C -0.23783 0.79508 -0.42084
 C60 C -0.21445 0.83261 -0.41721
 C61 C -0.26476 0.73268 -0.49584
 C62 C -0.27147 0.71015 -0.42554
 C63 C -0.29578 0.67281 -0.42670
 C64 C -0.31035 0.65634 -0.49939
 C65 C -0.30220 0.67674 -0.57049
 C66 C -0.28138 0.71534 -0.56824
 H67 H -0.17689 0.87871 -0.48234
 H68 H -0.22283 0.77713 -0.61831
 H69 H -0.25334 0.78323 -0.36633
 H70 H -0.25781 0.72082 -0.36899
 H71 H -0.33016 0.62787 -0.50061
 H72 H -0.27857 0.73119 -0.62357
 N73 N 0.06156 1.04199 0.13405
 N74 N 0.09613 1.05013 0.18971
 N75 N -0.05070 1.07208 0.09066
 N76 N -0.08495 1.09989 0.11204
 N77 N -0.04916 1.04339 0.14346
 N78 N -0.08268 1.05055 0.20124
 N79 N 0.05931 1.07095 0.08191
 N80 N 0.09162 1.09998 0.10209
 C81 C 0.11528 1.08600 0.16850
 C82 C -0.10524 1.08558 0.18071
 N83 N -0.05971 1.04358 -0.13303
 N84 N -0.09386 1.05271 -0.18885
 N85 N 0.05350 1.07062 -0.08971
 N86 N 0.08851 1.09756 -0.11131
 N87 N 0.05100 1.04197 -0.14245
 N88 N 0.08461 1.04827 -0.20038
 N89 N -0.05647 1.07250 -0.08096
 N90 N -0.08762 1.10245 -0.10136
 Mn91 Mn 0.00142 1.07196 0.00048
 C92 C -0.11168 1.08914 -0.16782
 C93 C 0.10824 1.08274 -0.18001
 N94 N -0.05024 0.95806 0.14392
 N95 N -0.08150 0.95056 0.20419
 N96 N 0.05751 0.92790 0.08163
 N97 N 0.09111 0.89905 0.09959
 N98 N 0.06041 0.95676 0.13389
 N99 N 0.09654 0.94874 0.18748
 N100 N -0.05246 0.92924 0.09150
 N101 N -0.08478 0.90099 0.11580
 Mn102 Mn 0.00566 1.00005 0.13923
 C103 C -0.10341 0.91523 0.18561
 C104 C 0.11602 0.91300 0.16495
 N105 N 0.04923 0.95662 -0.14265
 N106 N 0.08022 0.94823 -0.20290
 N107 N -0.05945 0.92941 -0.08027
 N108 N -0.09391 0.90142 -0.09822
 N109 N -0.06142 0.95831 -0.13261
 N110 N -0.09774 0.95118 -0.18625
 N111 N 0.05049 0.92779 -0.09014
 N112 N 0.08183 0.89865 -0.11437
 Mn113 Mn -0.00525 1.00012 -0.13808
 Mn114 Mn -0.00098 0.92814 0.00068
 Cl115 Cl 0.00021 1.00006 0.00057
 C116 C 0.10092 0.91233 -0.18422
 C117 C -0.11834 0.91596 -0.16365
 N118 N 0.44606 0.42776 -0.08276
 N119 N 0.41314 0.39883 -0.10123
 N120 N 0.55409 0.45885 -0.14097
 N121 N 0.58590 0.45135 -0.20067
 N122 N 0.55608 0.42996 -0.08868
 N123 N 0.58875 0.40160 -0.11264
 N124 N 0.44336 0.45647 -0.13540
 N125 N 0.40801 0.44826 -0.18990
 C126 C 0.38886 0.41254 -0.16746
 C127 C 0.60792 0.41593 -0.18195
 N128 N 0.55025 0.57278 -0.08804
 N129 N 0.58364 0.60105 -0.10847
 N130 N 0.43988 0.54169 -0.13599
 N131 N 0.40631 0.54936 -0.19334
 N132 N 0.44016 0.57078 -0.08408
 N133 N 0.40732 0.59945 -0.10613
 N134 N 0.55063 0.54402 -0.14072
 N135 N 0.58479 0.55155 -0.19734
 Mn136 Mn 0.49698 0.50026 -0.13862
 C137 C 0.60561 0.58692 -0.17620
 C138 C 0.38557 0.58508 -0.17362
 N139 N 0.56010 0.43037 0.08316
 N140 N 0.59554 0.40290 0.10136
 N141 N 0.44942 0.45657 0.14154
 N142 N 0.41793 0.44771 0.20085
 N143 N 0.45017 0.42769 0.08914
 N144 N 0.41990 0.39801 0.11261
 N145 N 0.56024 0.45907 0.13601
 N146 N 0.59630 0.45226 0.19044
 Mn147 Mn 0.50312 0.42853 0.00024
 C148 C 0.61860 0.41746 0.16764
 C149 C 0.39915 0.41144 0.18167
 N150 N 0.44295 0.57047 0.08783
 N151 N 0.40691 0.59721 0.10757
 N152 N 0.55595 0.54449 0.13625
 N153 N 0.58908 0.55377 0.19317
 N154 N 0.55292 0.57335 0.08394
 N155 N 0.58323 0.60342 0.10526
 N156 N 0.44509 0.54192 0.14090
 N157 N 0.41006 0.54806 0.19716
 Mn158 Mn 0.49655 0.57227 -0.00007
 Mn159 Mn 0.50269 0.50052 0.13914
 Cl160 Cl 0.49984 0.50039 0.00021
 C161 C 0.38605 0.58235 0.17529
 C162 C 0.60651 0.59025 0.17265
 C163 C 0.31390 0.38613 0.35597
 C164 C 0.32273 0.34499 0.36411
 C165 C 0.35126 0.32489 0.30472
 C166 C 0.37332 0.34607 0.24141
 C167 C 0.36765 0.38761 0.23729
 C168 C 0.33655 0.40723 0.29379
 H169 H 0.29091 0.40231 0.39946
 H170 H 0.35896 0.29326 0.30939
 H171 H 0.39748 0.33037 0.19866
 H172 H 0.33121 0.43922 0.29137
 C173 C -0.18442 0.89350 0.36607
 C174 C -0.18372 0.85148 0.36953
 C175 C -0.16286 0.83071 0.30357
 C176 C -0.13931 0.85136 0.24066
 C177 C -0.13644 0.89303 0.24206
 C178 C -0.16084 0.91382 0.30383
 H179 H -0.20317 0.91120 0.41171
 H180 H -0.16070 0.79858 0.30254
 H181 H -0.12065 0.83466 0.19343
 H182 H -0.16041 0.94605 0.30528
 C183 C 0.69381 0.61642 0.34364
 C184 C 0.68272 0.65711 0.35403
 C185 C 0.65288 0.67711 0.29608
 C186 C 0.63110 0.65596 0.23245
 C187 C 0.63860 0.61460 0.22662
 C188 C 0.67162 0.59536 0.28109
 H189 H 0.71771 0.60042 0.38628
 H190 H 0.64364 0.70842 0.30263
 H191 H 0.60549 0.67137 0.19124
 H192 H 0.67838 0.56356 0.27735
 C193 C 0.16355 1.17131 0.29336
 C194 C 0.19330 1.15065 0.35051
 C195 C 0.20423 1.11005 0.33854
 C196 C 0.18168 1.08966 0.27539
 C197 C 0.14859 1.10956 0.22195
 C198 C 0.14155 1.15088 0.22912
 H199 H 0.15432 1.20256 0.30113
 H200 H 0.22803 1.09358 0.38059
 H201 H 0.18799 1.05784 0.27058
 H202 H 0.11584 1.16677 0.18877
 C203 C 0.68872 0.39402 -0.36275
 C204 C 0.68724 0.35205 -0.36730
 C205 C 0.66599 0.33123 -0.30187
 C206 C 0.64294 0.35186 -0.23832
 C207 C 0.64091 0.39357 -0.23855
 C208 C 0.66565 0.41433 -0.29983
 H209 H 0.70771 0.41167 -0.40801
 H210 H 0.66307 0.29915 -0.30170
 H211 H 0.62391 0.33518 -0.19159
 H212 H 0.66576 0.44658 -0.30043
 C213 C 0.18145 0.88839 -0.36434
 C214 C 0.17903 0.84642 -0.36811
 C215 C 0.15721 0.82620 -0.30238
 C216 C 0.13438 0.84746 -0.23944
 C217 C 0.13319 0.88920 -0.24059
 C218 C 0.15857 0.90932 -0.30210
 H219 H 0.20102 0.90557 -0.40976
 H220 H 0.15375 0.79415 -0.30157
 H221 H 0.11495 0.83128 -0.19241
 H222 H 0.15945 0.94155 -0.30334
 C223 C 0.32837 0.67001 -0.29400
 C224 C 0.30643 0.64893 -0.35847
 C225 C 0.30293 0.60713 -0.35191
 C226 C 0.32545 0.58695 -0.28845
 C227 C 0.35182 0.60773 -0.22881
 C228 C 0.35119 0.64949 -0.23001
 H229 H 0.33232 0.70202 -0.29545
 H230 H 0.28324 0.58953 -0.39659
 H231 H 0.32411 0.55473 -0.28786
 H232 H 0.37134 0.66619 -0.18444
 C233 C -0.15645 1.17576 -0.29316
 C234 C -0.18710 1.15599 -0.35012
 C235 C -0.19965 1.11576 -0.33792
 C236 C -0.17788 1.09474 -0.27474
 C237 C -0.14397 1.11366 -0.22144
 C238 C -0.13523 1.15473 -0.22886
 H239 H -0.14597 1.20669 -0.30110
 H240 H -0.22419 1.10000 -0.37980
 H241 H -0.18549 1.06315 -0.26973
 H242 H -0.10886 1.16984 -0.18863
 C243 C 0.69382 0.61002 -0.34856
 C244 C 0.68999 0.65170 -0.35243
 C245 C 0.66553 0.67225 -0.28969
 C246 C 0.64130 0.65125 -0.22806
 C247 C 0.64090 0.60948 -0.22883
 C248 C 0.66918 0.58913 -0.28774
 H249 H 0.71344 0.59342 -0.39507
 H250 H 0.66179 0.70436 -0.29121
 H251 H 0.61971 0.66759 -0.18321
 H252 H 0.67007 0.55690 -0.28898
 C253 C 0.17805 1.16532 -0.29011
 C254 C 0.19560 1.14476 -0.35839
 C255 C 0.19255 1.10281 -0.35797
 C256 C 0.16718 1.08272 -0.29695
 C257 C 0.14463 1.10371 -0.23376
 C258 C 0.15245 1.14495 -0.22868
 H259 H 0.17934 1.19745 -0.28685
 H260 H 0.20879 1.08517 -0.40582
 H261 H 0.16326 1.05070 -0.30109
 H262 H 0.13572 1.16179 -0.18005
 C263 C 0.29966 0.38760 -0.33711
 C264 C 0.30670 0.34622 -0.34306
 C265 C 0.33293 0.32597 -0.28164
 C266 C 0.35620 0.34730 -0.21958
 C267 C 0.35373 0.38907 -0.21871
 C268 C 0.32323 0.40882 -0.27586
 H269 H 0.27881 0.40385 -0.38289
 H270 H 0.33907 0.29410 -0.28494
 H271 H 0.37955 0.33142 -0.17611
 H272 H 0.32016 0.44099 -0.27584
 C273 C -0.17713 0.83119 -0.27955
 C274 C -0.20282 0.85227 -0.34042
 C275 C -0.20892 0.89368 -0.33310
 C276 C -0.18477 0.91408 -0.27121
 C277 C -0.15464 0.89345 -0.21479
 C278 C -0.15329 0.85168 -0.21688
 H279 H -0.17169 0.79928 -0.28385
 H280 H -0.22931 0.91058 -0.37841
 H281 H -0.18695 0.94628 -0.27026
 H282 H -0.13024 0.83513 -0.17404
 C283 C 0.32051 0.66562 0.28867
 C284 C 0.29643 0.64431 0.35052
 C285 C 0.29436 0.60258 0.34542
 C286 C 0.32078 0.58248 0.28490
 C287 C 0.34878 0.60370 0.22724
 C288 C 0.34624 0.64543 0.22717
 H289 H 0.32303 0.69776 0.29097
 H290 H 0.27502 0.58535 0.39104
 H291 H 0.32153 0.55025 0.28546
 H292 H 0.36756 0.66243 0.18325
 C293 C -0.17273 1.16992 0.29039
 C294 C -0.19076 1.14985 0.35881
 C295 C -0.18896 1.10785 0.35854
 C296 C -0.16424 1.08709 0.29756
 C297 C -0.14109 1.10748 0.23428
 C298 C -0.14776 1.14888 0.22901
 H299 H -0.17310 1.20207 0.28702
 H300 H -0.20564 1.09066 0.40652
 H301 H -0.16122 1.05499 0.30182
 H302 H -0.13057 1.16527 0.18030
 C303 C 0.71049 0.39520 0.33613
 C304 C 0.70570 0.35367 0.34259
 C305 C 0.68040 0.33273 0.28145
 C306 C 0.65567 0.35338 0.21956
 C307 C 0.65555 0.39517 0.21858
 C308 C 0.68521 0.41577 0.27518
 H309 H 0.73065 0.41204 0.38151
 H310 H 0.67590 0.30075 0.28498
 H311 H 0.63305 0.33684 0.17645
 H312 H 0.68630 0.44799 0.27498
 C313 C 0.17227 0.82677 0.28076
 C314 C 0.19842 0.84717 0.34181
 C315 C 0.20569 0.88842 0.33465
 C316 C 0.18223 0.90944 0.27272
 C317 C 0.15162 0.88959 0.21613
 C318 C 0.14912 0.84787 0.21807
 H319 H 0.16593 0.79499 0.28491
 H320 H 0.22648 0.90478 0.38009
 H321 H 0.18531 0.94158 0.27189
 H322 H 0.12568 0.83191 0.17509
   
