data_POSCAR
  _audit_creation_date              2014-09-24
  _audit_creation_method            'ToBaCCo'
  _symmetry_space_group_name_H-M    'P1'
  _symmetry_Int_Tables_number       1
  _symmetry_cell_setting            triclinic
  loop_
  _symmetry_equiv_pos_as_xyz
 x,y,z
_cell_length_a 72.5267
_cell_length_b 72.3702
_cell_length_c 27.7944
_cell_angle_alpha 89.970500
_cell_angle_beta 89.998800
_cell_angle_gamma 120.340500
loop_
  _atom_site_label
  _atom_site_type_symbol
  _atom_site_fract_x
  _atom_site_fract_y
  _atom_site_fract_z
C1 C 0.19711 0.46672 0.45623
 C2 C 0.18719 0.46504 0.50070
 C3 C 0.19819 0.46931 0.54459
 C4 C 0.21963 0.47361 0.54440
 C5 C 0.22959 0.47393 0.50012
 C6 C 0.21834 0.47045 0.45602
 C7 C 0.22806 0.46922 0.41325
 C8 C 0.24889 0.47316 0.41295
 C9 C 0.26070 0.47776 0.45568
 C10 C 0.25079 0.47740 0.49996
 C11 C 0.23097 0.47633 0.58740
 C12 C 0.25186 0.48046 0.58706
 C13 C 0.26196 0.48033 0.54400
 C14 C 0.28321 0.48399 0.54339
 C15 C 0.29293 0.48545 0.49874
 C16 C 0.28196 0.48205 0.45540
 H17 H 0.21951 0.46472 0.37945
 H18 H 0.25551 0.47220 0.37879
 H19 H 0.22381 0.47503 0.62223
 H20 H 0.25995 0.48384 0.62132
 H21 H 0.17128 0.46295 0.50089
 H22 H 0.30902 0.48804 0.49746
 C23 C 0.53145 -0.27067 0.45685
 C24 C 0.53419 -0.27835 0.50072
 C25 C 0.53210 -0.27019 0.54495
 C26 C 0.52844 -0.25259 0.54465
 C27 C 0.52609 -0.24431 0.50011
 C28 C 0.52732 -0.25360 0.45614
 C29 C 0.52391 -0.24593 0.41260
 C30 C 0.51969 -0.22923 0.41201
 C31 C 0.51895 -0.21935 0.45489
 C32 C 0.52221 -0.22687 0.49946
 C33 C 0.52793 -0.24244 0.58736
 C34 C 0.52363 -0.22578 0.58682
 C35 C 0.52123 -0.21725 0.54332
 C36 C 0.51663 -0.20027 0.54233
 C37 C 0.51274 -0.19377 0.49769
 C38 C 0.51440 -0.20255 0.45435
 H39 H 0.52427 -0.25291 0.37845
 H40 H 0.51675 -0.22432 0.37746
 H41 H 0.53094 -0.24715 0.62202
 H42 H 0.52188 -0.21999 0.62132
 H43 H 0.53651 -0.29204 0.50010
 H44 H 0.50979 -0.18049 0.49613
 C45 C 1.27164 0.80663 0.45484
 C46 C 1.28200 0.81489 0.49889
 C47 C 1.27270 0.80572 0.54332
 C48 C 1.25216 0.78691 0.54381
 C49 C 1.24127 0.77814 0.49971
 C50 C 1.25079 0.78826 0.45525
 C51 C 1.23856 0.78056 0.41293
 C52 C 1.21846 0.76229 0.41334
 C53 C 1.20944 0.75110 0.45621
 C54 C 1.22066 0.75926 0.50006
 C55 C 1.24255 0.77605 0.58684
 C56 C 1.22232 0.75796 0.58719
 C57 C 1.21123 0.74875 0.54422
 C58 C 1.19048 0.73008 0.54418
 C59 C 1.17972 0.72266 0.50013
 C60 C 1.18909 0.73238 0.45642
 H61 H 1.24410 0.78883 0.37899
 H62 H 1.20984 0.75726 0.37964
 H63 H 1.25054 0.78126 0.62112
 H64 H 1.21546 0.75153 0.62200
 H65 H 1.29784 0.82900 0.49862
 H66 H 1.16434 0.70797 0.49924
 C67 C 0.72652 0.52586 0.54502
 C68 C 0.71827 0.52778 0.50077
 C69 C 0.72608 0.52523 0.45693
 C70 C 0.74337 0.52148 0.45621
 C71 C 0.75271 0.52038 0.50019
 C72 C 0.74428 0.52249 0.54473
 C73 C 0.75445 0.52207 0.58746
 C74 C 0.77132 0.51813 0.58689
 C75 C 0.78005 0.51607 0.54339
 C76 C 0.77039 0.51692 0.49952
 C77 C 0.75124 0.51839 0.41265
 C78 C 0.76821 0.51460 0.41204
 C79 C 0.77813 0.51399 0.45493
 C80 C 0.79521 0.50989 0.45438
 C81 C 0.80405 0.50835 0.49776
 C82 C 0.79731 0.51194 0.54240
 H83 H 0.74961 0.52488 0.62215
 H84 H 0.77713 0.51642 0.62140
 H85 H 0.74424 0.51867 0.37848
 H86 H 0.77329 0.51190 0.37747
 H87 H 0.70447 0.52986 0.50013
 H88 H 0.81753 0.50577 0.49624
 C89 C 0.46644 0.27537 0.45905
 C90 C 0.46583 0.28428 0.50318
 C91 C 0.46489 0.27419 0.54676
 C92 C 0.46417 0.25428 0.54646
 C93 C 0.46497 0.24507 0.50204
 C94 C 0.46596 0.25558 0.45811
 C95 C 0.46577 0.24572 0.41446
 C96 C 0.46497 0.22612 0.41384
 C97 C 0.46443 0.21563 0.45685
 C98 C 0.46436 0.22510 0.50147
 C99 C 0.46178 0.24295 0.58921
 C100 C 0.46102 0.22336 0.58865
 C101 C 0.46320 0.21447 0.54545
 C102 C 0.46259 0.19447 0.54454
 C103 C 0.46196 0.18520 0.49969
 C104 C 0.46323 0.19554 0.45634
 H105 H 0.46587 0.25289 0.38022
 H106 H 0.46445 0.21911 0.37913
 H107 H 0.45996 0.24888 0.62356
 H108 H 0.45808 0.21502 0.62256
 H109 H 0.46654 0.29962 0.50365
 H110 H 0.46199 0.17023 0.49813
 C111 C 0.73084 0.19047 0.54612
 C112 C 0.72070 0.18160 0.50239
 C113 C 0.73001 0.19108 0.45840
 C114 C 0.75022 0.21006 0.45777
 C115 C 0.76079 0.21928 0.50185
 C116 C 0.75118 0.20929 0.54612
 C117 C 0.76252 0.21787 0.58903
 C118 C 0.78252 0.23637 0.58877
 C119 C 0.79183 0.24749 0.54573
 C120 C 0.78117 0.23832 0.50160
 C121 C 0.76043 0.21966 0.41427
 C122 C 0.78042 0.23815 0.41396
 C123 C 0.79098 0.24785 0.45714
 C124 C 0.81140 0.26646 0.45694
 C125 C 0.82178 0.27524 0.50046
 C126 C 0.81221 0.26661 0.54517
 H127 H 0.75627 0.21007 0.62327
 H128 H 0.79081 0.24147 0.62278
 H129 H 0.75321 0.21279 0.37992
 H130 H 0.78767 0.24458 0.37935
 H131 H 0.70503 0.16725 0.50262
 H132 H 0.83704 0.29006 0.49916
 N133 N 0.97787 0.51816 0.05261
 N134 N 0.96162 0.52117 0.06072
 N135 N 1.02359 0.53002 0.08474
 N136 N 1.03840 0.54140 0.11696
 N137 N 1.02277 0.54254 0.05164
 N138 N 1.03699 0.56277 0.06050
 N139 N 0.97873 0.50566 0.08570
 N140 N 0.96311 0.49979 0.11707
 C141 C 0.95250 0.50951 0.10103
 C142 C 1.04676 0.56180 0.10119
 N143 N 1.02583 0.47839 0.05164
 N144 N 1.04125 0.47421 0.06046
 N145 N 0.98058 0.46691 0.08576
 N146 N 0.96554 0.45584 0.11777
 N147 N 0.98095 0.45420 0.05257
 N148 N 0.96618 0.43411 0.06119
 N149 N 1.02546 0.49114 0.08473
 N150 N 1.04061 0.49598 0.11689
 Mn151 Mn 1.00212 0.49845 0.08571
 C152 C 1.05047 0.48546 0.10109
 C153 C 0.95660 0.43541 0.10189
 N154 N 1.02245 0.54233 -0.05218
 N155 N 1.03745 0.56238 -0.06051
 N156 N 0.97806 0.50536 -0.08437
 N157 N 0.96274 0.50015 -0.11623
 N158 N 0.97752 0.51804 -0.05133
 N159 N 0.96183 0.52184 -0.05997
 N160 N 1.02292 0.52958 -0.08513
 N161 N 1.03821 0.54055 -0.11663
 Mn162 Mn 1.00013 0.53048 0.00019
 C163 C 1.04723 0.56098 -0.10079
 C164 C 0.95264 0.51042 -0.10045
 N165 N 0.98050 0.45397 -0.05126
 N166 N 0.96567 0.43385 -0.05939
 N167 N 1.02472 0.49079 -0.08515
 N168 N 1.04007 0.49618 -0.11704
 N169 N 1.02541 0.47821 -0.05209
 N170 N 1.04127 0.47466 -0.06066
 N171 N 0.97984 0.46658 -0.08432
 N172 N 0.96455 0.45544 -0.11571
 Mn173 Mn 1.00317 0.46597 0.00021
 Mn174 Mn 1.00138 0.49808 -0.08521
 Cl175 Cl 1.00171 0.49825 0.00024
 C176 C 0.95574 0.43505 -0.09962
 C177 C 1.05037 0.48610 -0.10119
 N178 N 0.48222 0.46125 0.05346
 N179 N 0.47728 0.44134 0.06250
 N180 N 0.47414 0.49768 0.08508
 N181 N 0.46408 0.50333 0.11595
 N182 N 0.46086 0.48465 0.05245
 N183 N 0.44135 0.48104 0.06035
 N184 N 0.49551 0.47432 0.08602
 N185 N 0.50000 0.46370 0.11801
 C186 C 0.48861 0.44314 0.10279
 C187 C 0.44364 0.49291 0.10001
 N188 N 0.52761 0.54967 0.05021
 N189 N 0.53277 0.56973 0.05819
 N190 N 0.53595 0.51372 0.08454
 N191 N 0.54635 0.50896 0.11649
 N192 N 0.54901 0.52634 0.05104
 N193 N 0.56869 0.53053 0.05937
 N194 N 0.51455 0.53703 0.08368
 N195 N 0.51043 0.54807 0.11518
 Mn196 Mn 0.50504 0.50568 0.08531
 C197 C 0.52178 0.56844 0.09874
 C198 C 0.56674 0.51944 0.10023
 N199 N 0.46048 0.48385 -0.05136
 N200 N 0.44083 0.47977 -0.05972
 N201 N 0.49493 0.47308 -0.08383
 N202 N 0.49909 0.46197 -0.11512
 N203 N 0.48186 0.46049 -0.05031
 N204 N 0.47674 0.44044 -0.05799
 N205 N 0.47357 0.49642 -0.08486
 N206 N 0.46325 0.50129 -0.11678
 Mn207 Mn 0.47112 0.47233 0.00108
 C208 C 0.44286 0.49090 -0.10058
 C209 C 0.48774 0.44164 -0.09843
 N210 N 0.54865 0.52556 -0.05276
 N211 N 0.56819 0.52929 -0.06092
 N212 N 0.51395 0.53578 -0.08624
 N213 N 0.50901 0.54628 -0.11758
 N214 N 0.52719 0.54888 -0.05365
 N215 N 0.53166 0.56869 -0.06203
 N216 N 0.53534 0.51246 -0.08527
 N217 N 0.54542 0.50689 -0.11631
 Mn218 Mn 0.53835 0.53785 -0.00132
 Mn219 Mn 0.50446 0.50444 -0.08553
 Cl220 Cl 0.50474 0.50507 -0.00010
 C221 C 0.56589 0.51743 -0.10062
 C222 C 0.52011 0.56679 -0.10199
 N223 N 0.45364 -0.02031 0.05244
 N224 N 0.43379 -0.03599 0.05949
 N225 N 0.48976 0.02443 0.08616
 N226 N 0.49461 0.03970 0.11807
 N227 N 0.47708 0.02474 0.05290
 N228 N 0.47293 0.04024 0.06130
 N229 N 0.46633 -0.02059 0.08573
 N230 N 0.45554 -0.03644 0.11619
 C231 C 0.43526 -0.04597 0.09937
 C232 C 0.48411 0.04954 0.10195
 N233 N 0.54181 0.02312 0.05387
 N234 N 0.56177 0.03810 0.06256
 N235 N 0.50541 -0.02154 0.08630
 N236 N 0.49961 -0.03739 0.11711
 N237 N 0.51817 -0.02194 0.05335
 N238 N 0.52146 -0.03808 0.06101
 N239 N 0.52897 0.02345 0.08670
 N240 N 0.53982 0.03865 0.11856
 Mn241 Mn 0.49763 0.00146 0.08672
 C242 C 0.56026 0.04776 0.10292
 C243 C 0.50967 -0.04763 0.10088
 N244 N 0.47743 0.02502 -0.05078
 N245 N 0.47332 0.04054 -0.05932
 N246 N 0.46684 -0.02015 -0.08436
 N247 N 0.45604 -0.03535 -0.11623
 N248 N 0.45398 -0.01998 -0.05135
 N249 N 0.43405 -0.03506 -0.05996
 N250 N 0.49034 0.02486 -0.08366
 N251 N 0.49538 0.04026 -0.11539
 Mn252 Mn 0.46531 0.00236 0.00081
 C253 C 0.48477 0.05002 -0.09960
 C254 C 0.43561 -0.04460 -0.10045
 N255 N 0.51859 -0.02164 -0.05059
 N256 N 0.52282 -0.03705 -0.05960
 N257 N 0.52955 0.02386 -0.08312
 N258 N 0.54067 0.03909 -0.11477
 N259 N 0.54216 0.02337 -0.04987
 N260 N 0.56220 0.03825 -0.05806
 N261 N 0.50601 -0.02113 -0.08386
 N262 N 0.50128 -0.03618 -0.11625
 Mn263 Mn 0.53040 0.00071 0.00171
 Mn264 Mn 0.49819 0.00188 -0.08424
 Cl265 Cl 0.49789 0.00161 0.00123
 C266 C 0.51175 -0.04610 -0.10055
 C267 C 0.56100 0.04805 -0.09853
 C268 C 1.15232 0.45322 0.37064
 C269 C 1.16253 0.46924 0.33595
 C270 C 1.18449 0.48364 0.33947
 C271 C 1.19614 0.48232 0.37812
 C272 C 1.18600 0.46647 0.41395
 C273 C 1.16388 0.45189 0.40935
 C274 C 1.15007 0.47181 0.29902
 C275 C 1.13913 0.47406 0.26964
 C276 C 1.12575 0.47675 0.23702
 C277 C 1.11384 0.47905 0.21069
 C278 C 1.09905 0.48172 0.18112
 C279 C 1.09141 0.47030 0.13806
 C280 C 1.07593 0.47189 0.11124
 C281 C 1.06788 0.48486 0.12737
 C282 C 1.07598 0.49663 0.17010
 C283 C 1.09145 0.49504 0.19678
 H284 H 1.13530 0.44204 0.36841
 H285 H 1.19249 0.49634 0.31323
 H286 H 1.21283 0.49451 0.38134
 H287 H 1.15546 0.43939 0.43583
 H288 H 1.09713 0.45990 0.12566
 H289 H 1.06997 0.46266 0.07845
 H290 H 1.07011 0.50677 0.18336
 H291 H 1.09721 0.50391 0.23011
 C292 C 0.54832 0.71471 0.34054
 C293 C 0.53131 0.69378 0.33350
 C294 C 0.51413 0.68498 0.36574
 C295 C 0.51406 0.69682 0.40526
 C296 C 0.53114 0.71766 0.41288
 C297 C 0.54824 0.72663 0.38016
 C298 C 0.53176 0.68068 0.29509
 C299 C 0.53147 0.66865 0.26471
 C300 C 0.53041 0.65343 0.23137
 C301 C 0.52893 0.63953 0.20497
 C302 C 0.52652 0.62192 0.17614
 C303 C 0.51228 0.60098 0.19120
 C304 C 0.51050 0.58362 0.16538
 C305 C 0.52296 0.58696 0.12404
 C306 C 0.53695 0.60803 0.10846
 C307 C 0.53875 0.62545 0.13450
 H308 H 0.56176 0.72162 0.31600
 H309 H 0.50096 0.66877 0.36083
 H310 H 0.50083 0.68966 0.43037
 H311 H 0.56161 0.74264 0.38586
 H312 H 0.50276 0.59806 0.22338
 H313 H 0.49955 0.56758 0.17818
 H314 H 0.54674 0.61104 0.07673
 H315 H 0.54986 0.64160 0.12257
 C316 C 0.30636 -0.14966 0.36955
 C317 C 0.30820 -0.16122 0.33146
 C318 C 0.29725 -0.18362 0.33326
 C319 C 0.28467 -0.19440 0.37336
 C320 C 0.28280 -0.18289 0.41223
 C321 C 0.29393 -0.16033 0.40960
 C322 C 0.32242 -0.14973 0.29231
 C323 C 0.33510 -0.13906 0.26158
 C324 C 0.35078 -0.12551 0.22812
 C325 C 0.36483 -0.11315 0.20178
 C326 C 0.38237 -0.09758 0.17314
 C327 C 0.40331 -0.09041 0.18826
 C328 C 0.42052 -0.07393 0.16351
 C329 C 0.41700 -0.06434 0.12325
 C330 C 0.39595 -0.07198 0.10742
 C331 C 0.37871 -0.08849 0.13239
 H332 H 0.31485 -0.13232 0.36867
 H333 H 0.29884 -0.19271 0.30427
 H334 H 0.27717 -0.21167 0.37487
 H335 H 0.29284 -0.15087 0.43847
 H336 H 0.40634 -0.09726 0.21986
 H337 H 0.43655 -0.06844 0.17643
 H338 H 0.39280 -0.06489 0.07649
 H339 H 0.36255 -0.09383 0.12053
 C340 C 0.81768 0.48901 0.36003
 C341 C 0.82886 0.50702 0.33050
 C342 C 0.82785 0.52552 0.33973
 C343 C 0.81615 0.52617 0.37904
 C344 C 0.80529 0.50830 0.40936
 C345 C 0.80599 0.48965 0.39933
 C346 C 0.84275 0.50708 0.29342
 C347 C 0.85501 0.50715 0.26401
 C348 C 0.87003 0.50721 0.23159
 C349 C 0.88336 0.50717 0.20575
 C350 C 0.89984 0.50696 0.17727
 C351 C 0.90784 0.51970 0.13597
 C352 C 0.92477 0.52029 0.11037
 C353 C 0.93389 0.50820 0.12604
 C354 C 0.92548 0.49518 0.16703
 C355 C 0.90859 0.49459 0.19243
 H356 H 0.81852 0.47469 0.35351
 H357 H 0.83663 0.53963 0.31746
 H358 H 0.81612 0.54082 0.38677
 H359 H 0.79794 0.47582 0.42269
 H360 H 0.90123 0.52940 0.12400
 H361 H 0.93094 0.53044 0.07890
 H362 H 0.93214 0.48564 0.17989
 H363 H 0.90257 0.48471 0.22439
 C364 C 0.48834 0.30984 0.34750
 C365 C 0.47198 0.31416 0.33719
 C366 C 0.45339 0.30485 0.36522
 C367 C 0.45133 0.29165 0.40399
 C368 C 0.46781 0.28753 0.41499
 C369 C 0.48629 0.29659 0.38630
 C370 C 0.47477 0.32930 0.30019
 C371 C 0.47704 0.34251 0.27070
 C372 C 0.47964 0.35857 0.23794
 C373 C 0.48184 0.37278 0.21157
 C374 C 0.48446 0.39031 0.18210
 C375 C 0.49848 0.41135 0.19686
 C376 C 0.50012 0.42854 0.17043
 C377 C 0.48771 0.42490 0.12885
 C378 C 0.47398 0.40373 0.11360
 C379 C 0.47234 0.38652 0.14019
 H380 H 0.50288 0.31712 0.32633
 H381 H 0.44071 0.30823 0.35783
 H382 H 0.43708 0.28496 0.42606
 H383 H 0.49929 0.29385 0.39477
 H384 H 0.50789 0.41448 0.22930
 H385 H 0.51086 0.44467 0.18299
 H386 H 0.46424 0.40047 0.08170
 H387 H 0.46137 0.37029 0.12853
 C388 C 0.69939 0.14884 0.36422
 C389 C 0.69083 0.15879 0.33626
 C390 C 0.69607 0.17984 0.34667
 C391 C 0.70947 0.19071 0.38553
 C392 C 0.71777 0.18062 0.41417
 C393 C 0.71275 0.15967 0.40305
 C394 C 0.67548 0.14678 0.29931
 C395 C 0.66208 0.13609 0.26990
 C396 C 0.64578 0.12288 0.23727
 C397 C 0.63139 0.11105 0.21101
 C398 C 0.61366 0.09630 0.18166
 C399 C 0.61709 0.08794 0.13938
 C400 C 0.59969 0.07245 0.11296
 C401 C 0.57869 0.06510 0.12875
 C402 C 0.57540 0.07392 0.17068
 C403 C 0.59278 0.08940 0.19694
 H404 H 0.69530 0.13251 0.35676
 H405 H 0.68937 0.18762 0.32557
 H406 H 0.71292 0.20675 0.39411
 H407 H 0.71883 0.15158 0.42509
 H408 H 0.63319 0.09311 0.12732
 H409 H 0.60268 0.06594 0.08077
 H410 H 0.55941 0.06860 0.18364
 H411 H 0.58994 0.09569 0.22969
 C412 C 0.48119 0.18393 -0.33841
 C413 C 0.46845 0.16164 -0.33543
 C414 C 0.45320 0.15042 -0.37099
 C415 C 0.45090 0.16133 -0.40981
 C416 C 0.46367 0.18380 -0.41364
 C417 C 0.47888 0.19494 -0.37723
 C418 C 0.47173 0.14993 -0.29778
 C419 C 0.47432 0.13938 -0.26787
 C420 C 0.47716 0.12622 -0.23478
 C421 C 0.47943 0.11435 -0.20820
 C422 C 0.48195 0.09946 -0.17854
 C423 C 0.49545 0.09203 -0.19372
 C424 C 0.49674 0.07629 -0.16734
 C425 C 0.48448 0.06773 -0.12540
 C426 C 0.47134 0.07564 -0.10965
 C427 C 0.47005 0.09139 -0.13619
 H428 H 0.49330 0.19275 -0.31148
 H429 H 0.44332 0.13314 -0.36919
 H430 H 0.43894 0.15214 -0.43678
 H431 H 0.48975 0.21205 -0.37990
 H432 H 0.50467 0.09810 -0.22653
 H433 H 0.50702 0.07054 -0.18027
 H434 H 0.46173 0.06933 -0.07746
 H435 H 0.45948 0.09696 -0.12421
 C436 C 0.69682 0.50922 -0.33817
 C437 C 0.69047 0.52447 -0.33368
 C438 C 0.69688 0.54064 -0.36814
 C439 C 0.70928 0.54142 -0.40735
 C440 C 0.71579 0.52616 -0.41262
 C441 C 0.70931 0.50999 -0.37738
 C442 C 0.67611 0.52278 -0.29590
 C443 C 0.66349 0.52149 -0.26596
 C444 C 0.64804 0.52008 -0.23294
 C445 C 0.63429 0.51892 -0.20660
 C446 C 0.61721 0.51753 -0.17749
 C447 C 0.59604 0.50413 -0.19200
 C448 C 0.57934 0.50379 -0.16629
 C449 C 0.58359 0.51691 -0.12567
 C450 C 0.60486 0.52998 -0.11056
 C451 C 0.62160 0.53032 -0.13646
 H452 H 0.69159 0.49637 -0.31218
 H453 H 0.69191 0.55243 -0.36525
 H454 H 0.71388 0.55409 -0.43360
 H455 H 0.71296 0.49729 -0.38134
 H456 H 0.59246 0.49422 -0.22378
 H457 H 0.56311 0.49352 -0.17870
 H458 H 0.60859 0.54023 -0.07939
 H459 H 0.63794 0.54083 -0.12503
 C460 C 0.82318 0.29574 -0.33753
 C461 C 0.84534 0.30479 -0.33410
 C462 C 0.85630 0.30044 -0.36948
 C463 C 0.84529 0.28739 -0.40855
 C464 C 0.82294 0.27818 -0.41281
 C465 C 0.81206 0.28259 -0.37658
 C466 C 0.85718 0.31973 -0.29630
 C467 C 0.86777 0.33287 -0.26628
 C468 C 0.88088 0.34898 -0.23314
 C469 C 0.89264 0.36332 -0.20664
 C470 C 0.90731 0.38113 -0.17732
 C471 C 0.91370 0.40198 -0.19225
 C472 C 0.92913 0.41950 -0.16627
 C473 C 0.93842 0.41640 -0.12495
 C474 C 0.93158 0.39541 -0.10944
 C475 C 0.91612 0.37785 -0.13561
 H476 H 0.81458 0.29932 -0.31077
 H477 H 0.87348 0.30747 -0.36736
 H478 H 0.85428 0.28436 -0.43537
 H479 H 0.79511 0.27678 -0.37959
 H480 H 0.90704 0.40471 -0.22455
 H481 H 0.93405 0.43548 -0.17902
 H482 H 0.93847 0.39256 -0.07774
 H483 H 0.91135 0.36177 -0.12383
 C484 C 0.50019 -0.17176 -0.37145
 C485 C 0.51703 -0.16358 -0.33846
 C486 C 0.53357 -0.16804 -0.34408
 C487 C 0.53331 -0.18057 -0.38277
 C488 C 0.51636 -0.18899 -0.41626
 C489 C 0.49991 -0.18419 -0.41012
 C490 C 0.51765 -0.14970 -0.30061
 C491 C 0.51761 -0.13775 -0.27047
 C492 C 0.51696 -0.12338 -0.23712
 C493 C 0.51595 -0.11079 -0.21045
 C494 C 0.51425 -0.09537 -0.18094
 C495 C 0.52621 -0.08754 -0.13860
 C496 C 0.52513 -0.07176 -0.11166
 C497 C 0.51212 -0.06362 -0.12699
 C498 C 0.49991 -0.07186 -0.16907
 C499 C 0.50099 -0.08761 -0.19581
 H500 H 0.48738 -0.16828 -0.36768
 H501 H 0.54690 -0.16145 -0.31923
 H502 H 0.54682 -0.18289 -0.38759
 H503 H 0.48663 -0.19029 -0.43505
 H504 H 0.53656 -0.09341 -0.12679
 H505 H 0.53470 -0.06568 -0.07937
 H506 H 0.48972 -0.06594 -0.18171
 H507 H 0.49167 -0.09353 -0.22852
 C508 C 0.29828 0.47028 -0.33866
 C509 C 0.31988 0.48609 -0.33584
 C510 C 0.32901 0.50158 -0.37198
 C511 C 0.31675 0.50116 -0.41112
 C512 C 0.29495 0.48536 -0.41464
 C513 C 0.28592 0.46985 -0.37780
 C514 C 0.33321 0.48588 -0.29771
 C515 C 0.34524 0.48609 -0.26751
 C516 C 0.36029 0.48677 -0.23429
 C517 C 0.37392 0.48770 -0.20786
 C518 C 0.39107 0.48923 -0.17882
 C519 C 0.41217 0.50246 -0.19402
 C520 C 0.42901 0.50326 -0.16796
 C521 C 0.42497 0.49080 -0.12625
 C522 C 0.40376 0.47784 -0.11055
 C523 C 0.38688 0.47703 -0.13682
 H524 H 0.29115 0.45797 -0.31130
 H525 H 0.34575 0.51381 -0.37035
 H526 H 0.32433 0.51336 -0.43859
 H527 H 0.26956 0.45678 -0.38033
 H528 H 0.41560 0.51194 -0.22650
 H529 H 0.44517 0.51343 -0.18086
 H530 H 0.40020 0.46808 -0.07854
 H531 H 0.37059 0.46669 -0.12480
 C532 C 1.18019 0.69765 -0.34356
 C533 C 1.15850 0.69038 -0.33613
 C534 C 1.14769 0.69679 -0.36740
 C535 C 1.15839 0.71024 -0.40620
 C536 C 1.18029 0.71783 -0.41416
 C537 C 1.19100 0.71119 -0.38237
 C538 C 1.14682 0.67530 -0.29841
 C539 C 1.13627 0.66215 -0.26833
 C540 C 1.12309 0.64615 -0.23502
 C541 C 1.11121 0.63195 -0.20834
 C542 C 1.09634 0.61432 -0.17882
 C543 C 1.08964 0.59336 -0.19336
 C544 C 1.07398 0.57604 -0.16727
 C545 C 1.06475 0.57944 -0.12622
 C546 C 1.07190 0.60053 -0.11108
 C547 C 1.08758 0.61790 -0.13738
 H548 H 1.18862 0.69244 -0.32011
 H549 H 1.13084 0.69112 -0.36226
 H550 H 1.14955 0.71488 -0.42985
 H551 H 1.20748 0.71567 -0.38868
 H552 H 1.09624 0.59041 -0.22546
 H553 H 1.06885 0.55997 -0.17972
 H554 H 1.06506 0.60360 -0.07960
 H555 H 1.09258 0.63406 -0.12593
 C556 C 0.82629 0.49621 -0.37115
 C557 C 0.83404 0.51300 -0.33800
 C558 C 0.82917 0.52928 -0.34366
 C559 C 0.81667 0.52881 -0.38254
 C560 C 0.80865 0.51189 -0.41615
 C561 C 0.81388 0.49571 -0.41001
 C562 C 0.84789 0.51386 -0.29991
 C563 C 0.85985 0.51404 -0.26958
 C564 C 0.87428 0.51368 -0.23607
 C565 C 0.88697 0.51293 -0.20933
 C566 C 0.90255 0.51157 -0.17986
 C567 C 0.91055 0.52393 -0.13809
 C568 C 0.92659 0.52326 -0.11139
 C569 C 0.93481 0.51028 -0.12643
 C570 C 0.92637 0.49764 -0.16790
 C571 C 0.91037 0.49830 -0.19438
 H572 H 0.83010 0.48360 -0.36733
 H573 H 0.83544 0.54258 -0.31868
 H574 H 0.81401 0.54214 -0.38737
 H575 H 0.80810 0.48247 -0.43505
 H576 H 0.90464 0.53429 -0.12658
 H577 H 0.93281 0.53317 -0.07959
 H578 H 0.93235 0.48746 -0.18029
 H579 H 0.90431 0.48868 -0.22668
 C580 C 0.48428 0.30555 -0.33711
 C581 C 0.46854 0.31099 -0.32919
 C582 C 0.45096 0.30326 -0.36019
 C583 C 0.44939 0.29059 -0.39965
 C584 C 0.46534 0.28545 -0.40836
 C585 C 0.48271 0.29285 -0.37658
 C586 C 0.47122 0.32592 -0.29185
 C587 C 0.47359 0.33912 -0.26227
 C588 C 0.47650 0.35532 -0.22968
 C589 C 0.47908 0.36975 -0.20367
 C590 C 0.48224 0.38765 -0.17491
 C591 C 0.49646 0.40848 -0.19075
 C592 C 0.49857 0.42605 -0.16519
 C593 C 0.48644 0.42301 -0.12339
 C594 C 0.47255 0.40206 -0.10700
 C595 C 0.47042 0.38446 -0.13274
 H596 H 0.49806 0.31164 -0.31365
 H597 H 0.43880 0.30754 -0.35466
 H598 H 0.43600 0.28520 -0.42407
 H599 H 0.49533 0.28932 -0.38323
 H600 H 0.50563 0.41113 -0.22341
 H601 H 0.50943 0.44199 -0.17860
 H602 H 0.46302 0.39927 -0.07490
 H603 H 0.45931 0.36840 -0.12026
 C604 C 0.69934 0.17945 -0.33832
 C605 C 0.69280 0.15787 -0.33052
 C606 C 0.69984 0.14741 -0.36139
 C607 C 0.71291 0.15830 -0.40060
 C608 C 0.71916 0.17980 -0.40919
 C609 C 0.71245 0.19037 -0.37754
 C610 C 0.67753 0.14592 -0.29341
 C611 C 0.66409 0.13533 -0.26397
 C612 C 0.64766 0.12229 -0.23144
 C613 C 0.63309 0.11063 -0.20536
 C614 C 0.61512 0.09610 -0.17630
 C615 C 0.59440 0.08949 -0.19221
 C616 C 0.57677 0.07418 -0.16624
 C617 C 0.57967 0.06527 -0.12399
 C618 C 0.60053 0.07235 -0.10757
 C619 C 0.61818 0.08767 -0.13369
 H620 H 0.69381 0.18763 -0.31495
 H621 H 0.69473 0.13067 -0.35594
 H622 H 0.71776 0.14984 -0.42493
 H623 H 0.71683 0.20685 -0.38411
 H624 H 0.59185 0.09586 -0.22522
 H625 H 0.56089 0.06906 -0.17969
 H626 H 0.60322 0.06575 -0.07512
 H627 H 0.63416 0.09262 -0.12115
 C628 C 1.15489 0.45682 -0.36648
 C629 C 1.16482 0.47463 -0.33615
 C630 C 1.18614 0.49034 -0.34414
 C631 C 1.19744 0.48837 -0.38269
 C632 C 1.18761 0.47049 -0.41366
 C633 C 1.16609 0.45483 -0.40504
 C634 C 1.15257 0.47731 -0.29895
 C635 C 1.14164 0.47937 -0.26926
 C636 C 1.12809 0.48158 -0.23629
 C637 C 1.11590 0.48330 -0.20974
 C638 C 1.10066 0.48517 -0.18012
 C639 C 1.09290 0.47314 -0.13781
 C640 C 1.07684 0.47381 -0.11128
 C641 C 1.06833 0.48644 -0.12700
 C642 C 1.07658 0.49883 -0.16891
 C643 C 1.09262 0.49817 -0.19529
 H644 H 1.13833 0.44465 -0.36088
 H645 H 1.19385 0.50441 -0.32141
 H646 H 1.21354 0.50134 -0.38954
 H647 H 1.15793 0.44090 -0.42809
 H648 H 1.09895 0.46295 -0.12587
 H649 H 1.07079 0.46412 -0.07910
 H650 H 1.07037 0.50875 -0.18181
 H651 H 1.09846 0.50749 -0.22806
 C652 C 0.51528 0.69985 -0.33855
 C653 C 0.53052 0.69355 -0.33385
 C654 C 0.54679 0.70011 -0.36800
 C655 C 0.54766 0.71260 -0.40718
 C656 C 0.53237 0.71904 -0.41268
 C657 C 0.51613 0.71243 -0.37770
 C658 C 0.52868 0.67903 -0.29626
 C659 C 0.52718 0.66623 -0.26649
 C660 C 0.52543 0.65053 -0.23370
 C661 C 0.52391 0.63654 -0.20755
 C662 C 0.52204 0.61915 -0.17869
 C663 C 0.50829 0.59806 -0.19352
 C664 C 0.50740 0.58102 -0.16793
 C665 C 0.52028 0.58486 -0.12712
 C666 C 0.53373 0.60607 -0.11174
 C667 C 0.53463 0.62314 -0.13752
 H668 H 0.50235 0.69450 -0.31280
 H669 H 0.55858 0.69517 -0.36495
 H670 H 0.56039 0.71731 -0.43321
 H671 H 0.50341 0.71602 -0.38185
 H672 H 0.49852 0.59479 -0.22541
 H673 H 0.49684 0.56486 -0.18054
 H674 H 0.54381 0.60947 -0.08040
 H675 H 0.54540 0.63942 -0.12584
 C676 C 0.28784 -0.16667 -0.33720
 C677 C 0.30953 -0.16034 -0.33530
 C678 C 0.31869 -0.16589 -0.37265
 C679 C 0.30639 -0.17748 -0.41204
 C680 C 0.28450 -0.18404 -0.41464
 C681 C 0.27540 -0.17839 -0.37664
 C682 C 0.32295 -0.14711 -0.29678
 C683 C 0.33524 -0.13554 -0.26647
 C684 C 0.35072 -0.12148 -0.23335
 C685 C 0.36476 -0.10906 -0.20711
 C686 C 0.38238 -0.09378 -0.17830
 C687 C 0.40328 -0.08664 -0.19376
 C688 C 0.42060 -0.07090 -0.16786
 C689 C 0.41723 -0.06208 -0.12608
 C690 C 0.39620 -0.06961 -0.11016
 C691 C 0.37885 -0.08537 -0.13624
 H692 H 0.28067 -0.16213 -0.30881
 H693 H 0.33550 -0.16096 -0.37171
 H694 H 0.31398 -0.18151 -0.44044
 H695 H 0.25891 -0.18223 -0.37836
 H696 H 0.40619 -0.09301 -0.22631
 H697 H 0.43661 -0.06545 -0.18092
 H698 H 0.39317 -0.06308 -0.07807
 H699 H 0.36273 -0.09075 -0.12402
 C700 C 0.52894 -0.17031 0.33913
 C701 C 0.51014 -0.16995 0.32992
 C702 C 0.49232 -0.18136 0.35977
 C703 C 0.49345 -0.19268 0.39934
 C704 C 0.51238 -0.19275 0.40930
 C705 C 0.53008 -0.18162 0.37871
 C706 C 0.50967 -0.15643 0.29253
 C707 C 0.50932 -0.14445 0.26289
 C708 C 0.50891 -0.12972 0.23028
 C709 C 0.50850 -0.11658 0.20435
 C710 C 0.50788 -0.10029 0.17589
 C711 C 0.49494 -0.09215 0.19073
 C712 C 0.49526 -0.07528 0.16565
 C713 C 0.50856 -0.06629 0.12532
 C714 C 0.52119 -0.07484 0.10989
 C715 C 0.52088 -0.09173 0.13518
 H716 H 0.54289 -0.16133 0.31661
 H717 H 0.47777 -0.18101 0.35326
 H718 H 0.47974 -0.20095 0.42290
 H719 H 0.54493 -0.18119 0.38639
 H720 H 0.48487 -0.09860 0.22225
 H721 H 0.48531 -0.06907 0.17828
 H722 H 0.53157 -0.06821 0.07893
 H723 H 0.53103 -0.09787 0.12351
 C724 C 0.31205 0.50007 0.33733
 C725 C 0.31828 0.48477 0.33134
 C726 C 0.31162 0.46802 0.36450
 C727 C 0.29921 0.46682 0.40408
 C728 C 0.29326 0.48232 0.41080
 C729 C 0.29957 0.49886 0.37697
 C730 C 0.33277 0.48693 0.29346
 C731 C 0.34553 0.48854 0.26354
 C732 C 0.36115 0.49024 0.23070
 C733 C 0.37503 0.49157 0.20456
 C734 C 0.39220 0.49303 0.17573
 C735 C 0.38792 0.48035 0.13456
 C736 C 0.40471 0.48064 0.10905
 C737 C 0.42593 0.49354 0.12469
 C738 C 0.43008 0.50657 0.16543
 C739 C 0.41332 0.50629 0.19076
 H740 H 0.31728 0.51320 0.31210
 H741 H 0.31648 0.45619 0.36043
 H742 H 0.29460 0.45406 0.43007
 H743 H 0.29530 0.51107 0.38200
 H744 H 0.37162 0.46994 0.12275
 H745 H 0.40107 0.47046 0.07777
 H746 H 0.44627 0.51671 0.17823
 H747 H 0.41681 0.51610 0.22268
 C748 C 1.14509 0.70318 0.36472
 C749 C 1.15451 0.69498 0.33390
 C750 C 1.17573 0.70032 0.34122
 C751 C 1.18731 0.71331 0.37999
 C752 C 1.17780 0.72117 0.41172
 C753 C 1.15666 0.71618 0.40351
 C754 C 1.14186 0.67962 0.29750
 C755 C 1.13102 0.66606 0.26849
 C756 C 1.11801 0.64946 0.23627
 C757 C 1.10659 0.63474 0.21025
 C758 C 1.09257 0.61659 0.18102
 C759 C 1.08426 0.61938 0.13794
 C760 C 1.06967 0.60153 0.11122
 C761 C 1.06320 0.58072 0.12748
 C762 C 1.07196 0.57810 0.17028
 C763 C 1.08653 0.59593 0.19686
 H764 H 1.12861 0.69898 0.35966
 H765 H 1.18310 0.69388 0.31793
 H766 H 1.20344 0.71661 0.38630
 H767 H 1.14898 0.72188 0.42792
 H768 H 1.08880 0.63530 0.12540
 H769 H 1.06318 0.60401 0.07837
 H770 H 1.06729 0.56227 0.18363
 H771 H 1.09284 0.59359 0.23018
 C772 C 0.44940 0.15367 0.36009
 C773 C 0.46833 0.16283 0.33327
 C774 C 0.48511 0.18332 0.34487
 C775 C 0.48315 0.19440 0.38390
 C776 C 0.46435 0.18508 0.41151
 C777 C 0.44743 0.16472 0.39910
 C778 C 0.47112 0.15043 0.29655
 C779 C 0.47345 0.13947 0.26738
 C780 C 0.47615 0.12598 0.23511
 C781 C 0.47839 0.11392 0.20914
 C782 C 0.48093 0.09890 0.18009
 C783 C 0.46945 0.09105 0.13721
 C784 C 0.47084 0.07530 0.11101
 C785 C 0.48368 0.06718 0.12761
 C786 C 0.49552 0.07550 0.17015
 C787 C 0.49412 0.09125 0.19621
 H788 H 0.43641 0.13774 0.35171
 H789 H 0.49991 0.19046 0.32468
 H790 H 0.49649 0.20994 0.39353
 H791 H 0.43294 0.15720 0.42040
 H792 H 0.45913 0.09682 0.12450
 H793 H 0.46157 0.06918 0.07834
 H794 H 0.50557 0.06958 0.18374
 H795 H 0.50303 0.09716 0.22943
 C796 C 0.68186 0.50751 0.36561
 C797 C 0.69040 0.52493 0.33391
 C798 C 0.71114 0.54218 0.34125
 C799 C 0.72313 0.54214 0.38070
 C800 C 0.71441 0.52483 0.41294
 C801 C 0.69378 0.50748 0.40498
 C802 C 0.67718 0.52543 0.29594
 C803 C 0.66511 0.52528 0.26593
 C804 C 0.64995 0.52454 0.23299
 C805 C 0.63619 0.52347 0.20683
 C806 C 0.61889 0.52175 0.17808
 C807 C 0.62288 0.53369 0.13575
 C808 C 0.60587 0.53266 0.10965
 C809 C 0.58473 0.51974 0.12583
 C810 C 0.58089 0.50754 0.16790
 C811 C 0.59786 0.50855 0.19381
 H812 H 0.66580 0.49415 0.36048
 H813 H 0.71783 0.55581 0.31713
 H814 H 0.73897 0.55572 0.38670
 H815 H 0.68682 0.49408 0.42976
 H816 H 0.63911 0.54399 0.12331
 H817 H 0.60927 0.54223 0.07735
 H818 H 0.56478 0.49741 0.18116
 H819 H 0.59460 0.49927 0.22655
 C820 C 0.85353 0.29428 0.36085
 C821 C 0.84482 0.30442 0.33404
 C822 C 0.82457 0.30108 0.34572
 C823 C 0.81329 0.28804 0.38474
 C824 C 0.82214 0.27816 0.41229
 C825 C 0.84227 0.28125 0.39987
 C826 C 0.85739 0.31957 0.29721
 C827 C 0.86841 0.33290 0.26790
 C828 C 0.88184 0.34918 0.23545
 C829 C 0.89376 0.36364 0.20938
 C830 C 0.90851 0.38151 0.18032
 C831 C 0.91692 0.37826 0.13794
 C832 C 0.93229 0.39583 0.11165
 C833 C 0.93945 0.41681 0.12768
 C834 C 0.93059 0.41990 0.16975
 C835 C 0.91524 0.40236 0.19588
 H836 H 0.86927 0.29692 0.35242
 H837 H 0.81779 0.30904 0.32555
 H838 H 0.79796 0.28615 0.39438
 H839 H 0.84943 0.27396 0.42111
 H840 H 0.91187 0.36219 0.12566
 H841 H 0.93885 0.39299 0.07935
 H842 H 0.93576 0.43587 0.18289
 H843 H 0.90887 0.40506 0.22869
   
