data_POSCAR
  _audit_creation_date              2014-09-24
  _audit_creation_method            'ToBaCCo'
  _symmetry_space_group_name_H-M    'P1'
  _symmetry_Int_Tables_number       1
  _symmetry_cell_setting            triclinic
  loop_
  _symmetry_equiv_pos_as_xyz
 x,y,z
_cell_length_a 23.7669
_cell_length_b 22.7864
_cell_length_c 57.0715
_cell_angle_alpha 78.343300
_cell_angle_beta 94.645300
_cell_angle_gamma 119.018600
loop_
  _atom_site_label
  _atom_site_type_symbol
  _atom_site_fract_x
  _atom_site_fract_y
  _atom_site_fract_z
C1 C -0.03082 0.14907 0.50787
 H2 H 0.00005 0.18472 0.49299
 C3 C -0.04668 0.17424 0.52521
 H4 H -0.02822 0.22879 0.52335
 C5 C -0.08598 0.03617 0.53004
 H6 H -0.09831 -0.01705 0.53239
 C7 C -0.10114 0.05954 0.54817
 H8 H -0.12572 0.02401 0.56432
 N9 N -0.04814 0.08151 0.51108
 C10 C 0.02335 -0.05617 0.51418
 H11 H 0.01167 -0.07079 0.49690
 C12 C 0.02665 -0.10276 0.53356
 H13 H 0.01793 -0.15214 0.53081
 C14 C 0.04286 0.02227 0.53941
 H15 H 0.04682 0.07007 0.54174
 C16 C 0.04453 -0.02378 0.55941
 H17 H 0.05057 -0.01075 0.57701
 Zn18 Zn -0.00273 0.05306 0.49415
 N19 N 0.02899 0.00401 0.51751
 C20 C 0.12729 0.15458 0.47925
 N21 N 0.06333 0.13052 0.47525
 C22 C 0.04189 0.15937 0.45597
 C23 C 0.08508 0.21513 0.43983
 C24 C 0.17260 0.21072 0.46340
 C25 C -0.11975 -0.03026 0.47113
 C26 C -0.15354 -0.07132 0.45417
 C27 C -0.05291 -0.05657 0.44075
 C28 C -0.02147 -0.01518 0.45752
 N29 N -0.05494 -0.00406 0.47265
 H30 H 0.14308 0.12998 0.49454
 H31 H -0.00928 0.13819 0.45301
 H32 H 0.06622 0.23533 0.42430
 H33 H 0.22343 0.22934 0.46666
 H34 H -0.14523 -0.01943 0.48305
 H35 H -0.20526 -0.09172 0.45359
 H36 H -0.02255 -0.06134 0.42905
 H37 H 0.03041 0.00842 0.45855
 C38 C 0.03375 -0.08823 0.55664
 C39 C -0.07894 0.12974 0.54621
 C40 C -0.12059 -0.08669 0.43877
 C41 C 0.15154 0.24200 0.44345
 C42 C 1.21194 0.16137 0.12358
 H43 H 1.21843 0.21180 0.12351
 C44 C 1.25027 0.15339 0.10873
 H45 H 1.28703 0.19822 0.09760
 C46 C 1.15526 0.04194 0.13814
 H47 H 1.11741 -0.00119 0.14941
 C48 C 1.19285 0.03155 0.12344
 H49 H 1.18356 -0.01988 0.12339
 N50 N 1.16455 0.10606 0.13745
 C51 C 1.00197 0.14108 0.13923
 H52 H 0.99744 0.14167 0.15788
 C53 C 0.94908 0.12827 0.12425
 H54 H 0.90448 0.12029 0.13133
 C55 C 1.06189 0.14083 0.10805
 H56 H 1.10412 0.14194 0.10191
 C57 C 1.01039 0.12769 0.09266
 H58 H 1.01421 0.11994 0.07486
 Zn59 Zn 1.11151 0.12591 0.15384
 N60 N 1.05594 0.14407 0.13122
 C61 C 1.14819 0.24149 0.17656
 N62 N 1.16637 0.19926 0.16962
 C63 C 1.22188 0.19902 0.17741
 C64 C 1.26048 0.24035 0.19335
 C65 C 1.18579 0.28406 0.19268
 C66 C 1.00355 -0.00212 0.17055
 C67 C 0.95356 -0.04683 0.18714
 C68 C 1.01678 0.01629 0.21758
 C69 C 1.06544 0.05927 0.20057
 N70 N 1.05703 0.05122 0.17735
 H71 H 1.10304 0.23956 0.17063
 H72 H 1.23449 0.16356 0.17241
 H73 H 1.30352 0.23774 0.19974
 H74 H 1.16956 0.31518 0.19899
 H75 H 0.99753 -0.00676 0.15190
 H76 H 0.90950 -0.08643 0.18124
 H77 H 1.02309 0.02559 0.23573
 H78 H 1.10806 0.10177 0.20572
 C79 C 0.95233 0.11807 0.10109
 C80 C 1.23969 0.08768 0.10796
 C81 C 0.95887 -0.03552 0.21068
 C82 C 1.24144 0.28164 0.20190
 C83 C -0.02521 0.77931 0.88695
 H84 H -0.06624 0.72981 0.88635
 C85 C 0.02378 0.78440 0.90288
 H86 H 0.01945 0.73856 0.91456
 C87 C 0.03169 0.89795 0.87126
 H88 H 0.03467 0.94195 0.85882
 C89 C 0.08225 0.90537 0.88694
 H90 H 0.12356 0.95541 0.88662
 N91 N -0.02132 0.83572 0.87192
 C92 C -0.19334 0.84348 0.86401
 H93 H -0.18398 0.87498 0.84641
 C94 C -0.23358 0.84574 0.87991
 H95 H -0.25395 0.87953 0.87392
 C96 C -0.17762 0.76241 0.89264
 H97 H -0.15509 0.73063 0.89777
 C98 C -0.21792 0.76263 0.90912
 H99 H -0.22449 0.73024 0.92641
 Zn100 Zn -0.09319 0.82088 0.85198
 N101 N -0.16347 0.80502 0.87100
 C102 C -0.17151 0.70857 0.82884
 N103 N -0.11226 0.74582 0.83755
 C104 C -0.06048 0.74136 0.83155
 C105 C -0.06623 0.70108 0.81522
 C106 C -0.17945 0.66750 0.81227
 C107 C -0.06235 0.95873 0.83136
 C108 C -0.06203 1.00950 0.81275
 C109 C -0.08321 0.93431 0.78500
 C110 C -0.08283 0.88543 0.80397
 N111 N -0.07499 0.89711 0.82678
 H112 H -0.21160 0.71427 0.83349
 H113 H -0.01343 0.77320 0.83803
 H114 H -0.02327 0.70164 0.80986
 H115 H -0.22667 0.63986 0.80510
 H116 H -0.05666 0.96688 0.84962
 H117 H -0.05520 1.05698 0.81676
 H118 H -0.09144 0.92296 0.76711
 H119 H -0.09182 0.83696 0.80040
 C120 C -0.24428 0.80756 0.90342
 C121 C 0.07787 0.84827 0.90337
 C122 C -0.07526 0.99617 0.78940
 C123 C -0.12557 0.66583 0.80444
 C124 C 0.37816 -0.05614 -0.01449
 C125 C 0.36166 -0.03994 0.00533
 C126 C 0.40320 -0.02149 0.02442
 C127 C 0.46440 -0.01720 0.02361
 C128 C 0.48172 -0.03442 0.00378
 C129 C 0.43786 -0.05552 -0.01509
 C130 C 0.45413 -0.07711 -0.03363
 C131 C 0.51309 -0.07601 -0.03407
 C132 C 0.55878 -0.05166 -0.01631
 C133 C 0.54300 -0.03060 0.00282
 C134 C 0.50887 0.00447 0.04188
 C135 C 0.56927 0.00930 0.04074
 C136 C 0.58801 -0.00649 0.02113
 C137 C 0.64977 -0.00081 0.01962
 C138 C 0.66342 -0.02441 0.00112
 C139 C 0.61913 -0.04962 -0.01675
 H140 H 0.42085 -0.09644 -0.04774
 H141 H 0.52235 -0.09460 -0.04853
 H142 H 0.49757 0.01831 0.05722
 H143 H 0.60060 0.02442 0.05569
 H144 H 0.31553 -0.04118 0.00582
 H145 H 0.71023 -0.02133 0.00020
 C146 C -0.07263 0.31959 0.64760
 C147 C -0.07583 0.27550 0.66914
 C148 C -0.07275 0.29338 0.69139
 C149 C -0.07122 0.35550 0.69242
 C150 C -0.06351 0.40314 0.67100
 C151 C -0.06278 0.38594 0.64846
 C152 C -0.05106 0.43597 0.62773
 C153 C -0.04277 0.50021 0.62896
 C154 C -0.04319 0.51844 0.65106
 C155 C -0.05588 0.46837 0.67222
 C156 C -0.07873 0.37043 0.71428
 C157 C -0.07476 0.43260 0.71534
 C158 C -0.06145 0.48305 0.69466
 C159 C -0.05519 0.54721 0.69582
 C160 C -0.04092 0.59669 0.67505
 C161 C -0.03276 0.58452 0.65275
 H162 H -0.04689 0.42679 0.61028
 H163 H -0.03710 0.53486 0.61224
 H164 H -0.08927 0.33348 0.73076
 H165 H -0.08195 0.44066 0.73265
 H166 H -0.08000 0.22622 0.66864
 H167 H -0.03412 0.64646 0.67649
 C168 C 0.41746 0.50234 0.30018
 C169 C 0.38429 0.46693 0.32197
 C170 C 0.41109 0.48634 0.34362
 C171 C 0.47242 0.54395 0.34369
 C172 C 0.50710 0.58026 0.32178
 C173 C 0.47976 0.55920 0.29992
 C174 C 0.51603 0.59454 0.27858
 C175 C 0.57798 0.64920 0.27867
 C176 C 0.60640 0.67029 0.30013
 C177 C 0.56974 0.63689 0.32182
 C178 C 0.49991 0.56602 0.36509
 C179 C 0.56039 0.62271 0.36505
 C180 C 0.59578 0.65951 0.34361
 C181 C 0.65732 0.71723 0.34339
 C182 C 0.69362 0.74770 0.32208
 C183 C 0.67006 0.72452 0.30060
 H184 H 0.49711 0.57998 0.26156
 H185 H 0.60299 0.67523 0.26164
 H186 H 0.47476 0.53974 0.38212
 H187 H 0.57954 0.63644 0.38213
 H188 H 0.33725 0.42234 0.32214
 H189 H 0.74175 0.79038 0.32229
 C190 C -0.09563 0.23082 0.58631
 C191 C -0.05912 0.22123 0.60579
 N192 N -0.03340 0.17948 0.60599
 C193 C -0.04200 0.14720 0.58741
 C194 C -0.07689 0.15806 0.56749
 N195 N -0.10278 0.20007 0.56732
 N196 N -0.12405 0.26985 0.58693
 C197 C -0.11711 0.30012 0.60606
 C198 C -0.07814 0.29300 0.62521
 N199 N -0.05093 0.25274 0.62449
 H200 H -0.02001 0.11506 0.58781
 H201 H -0.14294 0.32803 0.60653
 C202 C 0.81368 0.82504 0.24570
 C203 C 0.80002 0.86188 0.25920
 N204 N 0.83716 0.93054 0.25635
 C205 C 0.88802 0.96429 0.24076
 C206 C 0.90270 0.92782 0.22734
 N207 N 0.86447 0.85880 0.22992
 N208 N 0.77758 0.75588 0.24937
 C209 C 0.72889 0.72196 0.26607
 C210 C 0.71515 0.75889 0.27964
 N211 N 0.75155 0.82813 0.27575
 H212 H 0.91661 1.01922 0.23879
 H213 H 0.70278 0.66670 0.26934
 C214 C 0.23851 -0.08977 -0.06827
 C215 C 0.22231 -0.12953 -0.04517
 N216 N 0.16009 -0.17597 -0.03937
 C217 C 0.11303 -0.18467 -0.05563
 C218 C 0.12867 -0.14466 -0.07883
 N219 N 0.19140 -0.09788 -0.08452
 N220 N 0.30086 -0.04257 -0.07386
 C221 C 0.34761 -0.03292 -0.05728
 C222 C 0.33124 -0.07210 -0.03402
 N223 N 0.26870 -0.11934 -0.02860
 H224 H 0.06373 -0.22126 -0.05023
 H225 H 0.39662 0.00641 -0.06193
 C226 C 0.02807 0.75799 0.59652
 C227 C -0.01877 0.74295 0.61350
 N228 N -0.04394 0.78553 0.61256
 C229 C -0.02504 0.84218 0.59517
 C230 C 0.02018 0.85631 0.57755
 N231 N 0.04569 0.81357 0.57866
 N232 N 0.05522 0.71684 0.59824
 C233 C 0.03689 0.66073 0.61596
 C234 C -0.01270 0.64327 0.63227
 N235 N -0.03823 0.68608 0.63074
 H236 H -0.04711 0.87433 0.59451
 H237 H 0.06140 0.63069 0.61745
 C238 C 0.32123 0.41260 0.24079
 C239 C 0.34202 0.37785 0.25959
 N240 N 0.32944 0.31336 0.25930
 C241 C 0.29731 0.28184 0.24096
 C242 C 0.27641 0.31616 0.22193
 N243 N 0.28851 0.38090 0.22241
 N244 N 0.33401 0.47731 0.24133
 C245 C 0.36646 0.50859 0.25985
 C246 C 0.38700 0.47353 0.27867
 N247 N 0.37376 0.40877 0.27807
 H248 H 0.28735 0.22995 0.24144
 H249 H 0.37529 0.55973 0.26012
 C250 C 0.68340 -0.11144 -0.06940
 C251 C 0.67280 -0.14656 -0.04568
 N252 N 0.68585 -0.19925 -0.03935
 C253 C 0.71041 -0.21775 -0.05550
 C254 C 0.72368 -0.18110 -0.07939
 N255 N 0.70846 -0.12935 -0.08549
 N256 N 0.67093 -0.05820 -0.07576
 C257 C 0.64860 -0.03828 -0.05934
 C258 C 0.63842 -0.07310 -0.03547
 N259 N 0.65104 -0.12643 -0.02922
 H260 H 0.71947 -0.26023 -0.04926
 H261 H 0.63991 0.00494 -0.06472
 C262 C 0.32271 0.01727 0.07893
 C263 C 0.33572 0.05778 0.05593
 N264 N 0.31832 0.10734 0.05047
 C265 C 0.28839 0.11848 0.06699
 C266 C 0.27462 0.07784 0.09009
 N267 N 0.29204 0.02781 0.09545
 N268 N 0.33967 -0.03288 0.08415
 C269 C 0.36852 -0.04466 0.06731
 C270 C 0.38065 -0.00467 0.04418
 N271 N 0.36364 0.04547 0.03911
 H272 H 0.27397 0.15756 0.06185
 H273 H 0.38018 -0.08596 0.07166
 C274 C 0.75032 0.81810 0.40099
 C275 C 0.78075 0.79593 0.38764
 N276 N 0.84246 0.81062 0.39213
 C277 C 0.87613 0.84787 0.40905
 C278 C 0.84691 0.87271 0.42237
 N279 N 0.78375 0.85534 0.41800
 N280 N 0.68872 0.80443 0.39605
 C281 C 0.65647 0.76990 0.37821
 C282 C 0.68709 0.74760 0.36478
 N283 N 0.74877 0.76160 0.36990
 H284 H 0.92436 0.85554 0.41208
 H285 H 0.60815 0.76150 0.37411
 C286 C -0.05326 0.15811 0.75031
 C287 C -0.10113 0.13354 0.73331
 N288 N -0.13977 0.06536 0.73504
 C289 C -0.13248 0.02037 0.75291
 C290 C -0.08422 0.04451 0.76993
 N291 N -0.04607 0.11318 0.76830
 N292 N -0.01365 0.22638 0.74815
 C293 C -0.01976 0.27118 0.72977
 C294 C -0.06825 0.24677 0.71285
 N295 N -0.10738 0.17819 0.71503
 H296 H -0.16460 -0.03374 0.75395
 H297 H 0.01368 0.32520 0.72807
 C298 C 0.80625 0.08968 0.06523
 C299 C 0.78752 0.02521 0.05987
 N300 N 0.82189 -0.00747 0.06833
 C301 C 0.87451 0.02150 0.08182
 C302 C 0.89365 0.08602 0.08723
 N303 N 0.85875 0.11865 0.07892
 N304 N 0.77288 0.12311 0.05595
 C305 C 0.72164 0.09495 0.04163
 C306 C 0.70209 0.02979 0.03659
 N307 N 0.73626 -0.00298 0.04574
 H308 H 0.90139 -0.00547 0.08826
 H309 H 0.69709 0.12357 0.03391
 C310 C 0.29685 0.35118 0.40392
 C311 C 0.27922 0.39672 0.38918
 N312 N 0.22294 0.39449 0.39352
 C313 C 0.18247 0.34755 0.41153
 C314 C 0.19817 0.29929 0.42566
 N315 N 0.25589 0.30337 0.42167
 N316 N 0.35337 0.35365 0.39955
 C317 C 0.39255 0.39896 0.38088
 C318 C 0.37397 0.44312 0.36572
 N319 N 0.31766 0.44099 0.37029
 H320 H 0.13823 0.34773 0.41455
 H321 H 0.43678 0.39919 0.37742
 C322 C -0.07311 0.60148 0.76029
 C323 C -0.11945 0.59227 0.74254
 N324 N -0.16946 0.60288 0.74588
 C325 C -0.17490 0.62319 0.76605
 C326 C -0.12770 0.63400 0.78378
 N327 N -0.07821 0.62224 0.78028
 N328 N -0.02232 0.59220 0.75685
 C329 C -0.01572 0.57419 0.73636
 C330 C -0.06196 0.56513 0.71850
 N331 N -0.11276 0.57463 0.72200
 H332 H -0.21416 0.63348 0.76753
 H333 H 0.02530 0.56737 0.73391
   
