data_POSCAR
  _audit_creation_date              2014-09-24
  _audit_creation_method            'ToBaCCo'
  _symmetry_space_group_name_H-M    'P1'
  _symmetry_Int_Tables_number       1
  _symmetry_cell_setting            triclinic
  loop_
  _symmetry_equiv_pos_as_xyz
 x,y,z
_cell_length_a 43.1335
_cell_length_b 43.0145
_cell_length_c 43.1439
_cell_angle_alpha 80.057600
_cell_angle_beta 96.339600
_cell_angle_gamma 78.949000
loop_
  _atom_site_label
  _atom_site_type_symbol
  _atom_site_fract_x
  _atom_site_fract_y
  _atom_site_fract_z
O1 O 0.54839 0.49907 0.02658
 O2 O 0.46149 0.50467 0.02228
 O3 O 0.51111 0.45772 0.02787
 O4 O 0.49880 0.54562 0.02184
 O5 O 0.49453 0.55260 -0.03045
 O6 O 0.50608 0.46446 -0.02442
 O7 O 0.45675 0.51170 -0.02997
 O8 O 0.54351 0.50551 -0.02569
 Cu9 Cu 0.50543 0.50104 0.02987
 Cu10 Cu 0.49970 0.50923 -0.03286
 C11 C 0.56079 0.50158 0.00110
 C12 C 0.44416 0.50911 -0.00461
 C13 C 0.51048 0.44600 0.00279
 C14 C 0.49487 0.56415 -0.00524
 O15 O -0.02835 0.54280 0.48863
 O16 O -0.02250 0.45511 0.49840
 O17 O -0.02252 0.49548 0.53697
 O18 O -0.02758 0.50204 0.45011
 O19 O 0.02488 0.49465 0.45465
 O20 O 0.02996 0.48750 0.54136
 O21 O 0.02997 0.44725 0.50235
 O22 O 0.02408 0.53509 0.49328
 Cu23 Cu -0.03049 0.49969 0.49309
 Cu24 Cu 0.03247 0.49037 0.49839
 C25 C -0.00317 0.55407 0.48947
 C26 C 0.00466 0.43618 0.50171
 C27 C 0.00461 0.49041 0.55404
 C28 C -0.00213 0.49920 0.43754
 O29 O 0.48913 0.02642 0.54589
 O30 O 0.48722 0.02810 0.46025
 O31 O 0.44516 0.02737 0.49930
 O32 O 0.53127 0.02646 0.50711
 O33 O 0.54174 -0.02671 0.51318
 O34 O 0.45636 -0.02592 0.51197
 O35 O 0.49468 -0.02510 0.46941
 O36 O 0.50321 -0.02676 0.55568
 Cu37 Cu 0.48710 0.03247 0.50217
 Cu38 Cu 0.50009 -0.03150 0.51352
 C39 C 0.49693 -0.00039 0.56560
 C40 C 0.49020 0.00182 0.45015
 C41 C 0.43612 0.00080 0.50503
 C42 C 0.55115 -0.00030 0.51078
 C43 C 0.50404 -0.00927 0.01988
 C44 C 0.50655 0.01494 -0.00379
 C45 C 0.50652 0.01046 -0.03698
 C46 C 0.50839 0.04753 0.00199
 C47 C 0.50278 -0.00417 0.05275
 C48 C 0.50169 -0.04184 0.01415
 C49 C 0.53454 0.00983 -0.05063
 C50 C 0.53474 0.00632 -0.08216
 C51 C 0.50663 0.00434 -0.10100
 C52 C 0.47851 0.00506 -0.08705
 C53 C 0.47855 0.00785 -0.05523
 C54 C 0.53453 0.05233 0.02161
 C55 C 0.53658 0.08348 0.02564
 C56 C 0.51254 0.11032 0.01005
 C57 C 0.48639 0.10531 -0.00950
 C58 C 0.48442 0.07422 -0.01358
 C59 C 0.47426 0.01106 0.06144
 C60 C 0.47260 0.01337 0.09317
 C61 C 0.49967 0.00101 0.11667
 C62 C 0.52849 -0.01323 0.10736
 C63 C 0.52986 -0.01623 0.07582
 C64 C 0.47584 -0.05499 0.02295
 C65 C 0.47370 -0.08597 0.01867
 C66 C 0.49740 -0.10447 0.00552
 C67 C 0.52324 -0.09127 -0.00344
 C68 C 0.52550 -0.06031 0.00110
 H69 H 0.55634 0.01171 -0.03669
 H70 H 0.55703 0.00507 -0.09168
 H71 H 0.45626 0.00424 -0.10084
 H72 H 0.45665 0.00864 -0.04500
 H73 H 0.55353 0.03204 0.03337
 H74 H 0.55692 0.08660 0.04096
 H75 H 0.46423 0.07097 -0.02903
 H76 H 0.45309 0.02025 0.04381
 H77 H 0.44985 0.02399 0.09933
 H78 H 0.55007 -0.02224 0.12444
 H79 H 0.55207 -0.02796 0.06933
 H80 H 0.45720 -0.04121 0.03306
 H81 H 0.45337 -0.09542 0.02548
 H82 H 0.54208 -0.10520 -0.01320
 H83 H 0.54607 -0.05098 -0.00512
 H84 H 0.46778 0.12553 -0.02224
 C85 C -0.00769 0.50005 0.98314
 C86 C 0.01582 0.50051 1.00678
 C87 C 0.04885 0.50173 1.00064
 C88 C 0.00991 0.50002 1.04013
 C89 C -0.04119 0.50062 0.98880
 C90 C -0.00123 0.49860 0.95026
 C91 C 0.07460 0.47789 1.01818
 C92 C 0.10594 0.47948 1.01400
 C93 C 0.11222 0.50518 0.99244
 C94 C 0.08637 0.52906 0.97484
 C95 C 0.05495 0.52734 0.97890
 C96 C -0.00243 0.47526 1.05680
 C97 C -0.00715 0.47490 1.08841
 C98 C 0.00066 0.49914 1.10402
 C99 C 0.01323 0.52372 1.08726
 C100 C 0.01787 0.52409 1.05570
 C101 C -0.05844 0.52546 1.00136
 C102 C -0.09018 0.52591 1.00577
 C103 C -0.10533 0.50167 0.99745
 C104 C -0.08799 0.47701 0.98468
 C105 C -0.05632 0.47656 0.98033
 C106 C -0.01904 0.52227 0.92473
 C107 C -0.01451 0.52047 0.89349
 C108 C 0.00771 0.49473 0.88713
 C109 C 0.02559 0.47102 0.91277
 C110 C 0.02114 0.47294 0.94408
 H111 H 0.07039 0.45811 1.03528
 H112 H 0.12535 0.46100 1.02824
 H113 H 0.09048 0.54905 0.95795
 H114 H 0.03541 0.54624 0.96549
 H115 H -0.00821 0.45613 1.04539
 H116 H -0.01703 0.45574 1.10061
 H117 H 0.02771 0.54322 1.04336
 H118 H -0.04740 0.54458 1.00754
 H119 H -0.10281 0.54513 1.01582
 H120 H -0.09910 0.45835 0.97746
 H121 H -0.04355 0.45737 0.97032
 H122 H -0.03663 0.54208 0.92902
 H123 H -0.02900 0.53880 0.87424
 H124 H 0.04299 0.45101 0.90859
 H125 H 0.03476 0.45415 0.96345
 H126 H 0.02008 0.54237 1.09874
 C127 C 0.00481 -0.01636 0.49324
 C128 C -0.01889 0.00895 0.49459
 C129 C -0.05191 0.00485 0.49624
 C130 C -0.01296 0.04169 0.49563
 C131 C 0.03834 -0.01308 0.49382
 C132 C -0.00131 -0.04892 0.49197
 C133 C -0.07542 0.01740 0.46964
 C134 C -0.10701 0.01498 0.47137
 C135 C -0.11586 0.00080 0.50008
 C136 C -0.09194 -0.01191 0.52669
 C137 C -0.06019 -0.01015 0.52466
 C138 C 0.00137 0.05797 0.47198
 C139 C 0.00664 0.08883 0.47332
 C140 C -0.00269 0.10418 0.49813
 C141 C -0.01743 0.08792 0.52149
 C142 C -0.02251 0.05706 0.52023
 C143 C 0.05526 -0.00673 0.52083
 C144 C 0.08716 -0.00439 0.52130
 C145 C 0.10258 -0.00805 0.49461
 C146 C 0.08525 -0.01412 0.46751
 C147 C 0.05355 -0.01698 0.46729
 C148 C 0.01459 -0.07535 0.51585
 C149 C 0.01037 -0.10644 0.51429
 C150 C -0.00963 -0.11177 0.48861
 C151 C -0.02560 -0.08520 0.46469
 C152 C -0.02144 -0.05403 0.46635
 H153 H -0.06924 0.02897 0.44751
 H154 H -0.12445 0.02427 0.45014
 H155 H -0.09778 -0.02245 0.54936
 H156 H -0.04220 -0.01967 0.54548
 H157 H 0.00834 0.04686 0.45241
 H158 H 0.01821 0.10058 0.45505
 H159 H -0.03382 0.04509 0.53861
 H160 H 0.04385 -0.00404 0.54164
 H161 H 0.09988 -0.00032 0.54278
 H162 H 0.09604 -0.01641 0.44631
 H163 H 0.04069 -0.02181 0.44624
 H164 H 0.03045 -0.07189 0.53565
 H165 H 0.02340 -0.12646 0.53279
 H166 H -0.04128 -0.08854 0.44471
 H167 H -0.03345 -0.03400 0.44739
 H168 H -0.02553 0.09927 0.54054
 C169 C -0.33881 0.50105 1.00442
 C170 C -0.35808 0.50273 0.97544
 C171 C -0.39052 0.50249 0.97447
 C172 C -0.40451 0.50050 1.00247
 C173 C -0.38518 0.49836 1.03154
 C174 C -0.35269 0.49864 1.03251
 C175 C -0.30445 0.50208 1.00519
 C176 C -0.28126 0.48231 1.02978
 C177 C -0.24891 0.48289 1.03004
 C178 C -0.23899 0.50329 1.00573
 C179 C -0.26222 0.52331 0.98136
 C180 C -0.29453 0.52273 0.98110
 C181 C -0.20451 0.50314 1.00526
 C182 C -0.19438 0.53203 0.99562
 C183 C -0.16216 0.53165 0.99366
 C184 C -0.13930 0.50237 1.00128
 C185 C -0.14934 0.47357 1.01158
 C186 C -0.18154 0.47395 1.01353
 H187 H -0.34804 0.50403 0.95346
 H188 H -0.40468 0.50403 0.95169
 H189 H -0.39522 0.49691 1.05353
 H190 H -0.33858 0.49763 1.05517
 H191 H -0.28807 0.46595 1.04856
 H192 H -0.23166 0.46741 1.04934
 H193 H -0.25539 0.53903 0.96208
 H194 H -0.31180 0.53860 0.96206
 H195 H -0.21140 0.55497 0.98947
 H196 H -0.15527 0.55422 0.98539
 H197 H -0.13228 0.45066 1.01803
 H198 H -0.18855 0.45123 1.02077
 C199 C 0.34465 0.51293 0.99034
 C200 C 0.36380 0.50946 1.01979
 C201 C 0.39657 0.50836 1.02148
 C202 C 0.41106 0.51087 0.99369
 C203 C 0.39167 0.51475 0.96416
 C204 C 0.35894 0.51566 0.96256
 C205 C 0.30999 0.51321 0.98869
 C206 C 0.29547 0.49586 0.96868
 C207 C 0.26306 0.49533 0.96780
 C208 C 0.24440 0.51230 0.98675
 C209 C 0.25882 0.53000 1.00643
 C210 C 0.29127 0.53037 1.00747
 C211 C 0.21023 0.51086 0.98666
 C212 C 0.18714 0.53870 0.98694
 C213 C 0.15520 0.53702 0.98808
 C214 C 0.14570 0.50741 0.98920
 C215 C 0.16871 0.47968 0.98844
 C216 C 0.20058 0.48140 0.98709
 H217 H 0.35353 0.50694 1.04165
 H218 H 0.41053 0.50533 1.04468
 H219 H 0.40174 0.51688 0.94217
 H220 H 0.34472 0.51875 0.93949
 H221 H 0.30932 0.48217 0.95415
 H222 H 0.25257 0.48170 0.95220
 H223 H 0.24515 0.54306 1.02154
 H224 H 0.30171 0.54420 1.02289
 H225 H 0.19381 0.56180 0.98631
 H226 H 0.13808 0.55874 0.98891
 H227 H 0.16204 0.45659 0.98898
 H228 H 0.21784 0.45948 0.98716
 C229 C -0.00999 -0.34526 0.48263
 C230 C 0.01990 -0.36632 0.48571
 C231 C 0.02217 -0.39947 0.48766
 C232 C -0.00546 -0.41245 0.48653
 C233 C -0.03542 -0.39116 0.48296
 C234 C -0.03762 -0.35802 0.48110
 C235 C -0.01225 -0.31020 0.48173
 C236 C -0.03344 -0.29346 0.49880
 C237 C -0.03476 -0.26076 0.49893
 C238 C -0.01498 -0.24404 0.48192
 C239 C 0.00584 -0.26064 0.46444
 C240 C 0.00723 -0.29337 0.46439
 C241 C -0.01532 -0.20968 0.48319
 C242 C -0.01339 -0.18754 0.45578
 C243 C -0.01226 -0.15557 0.45737
 C244 C -0.01290 -0.14510 0.48645
 C245 C -0.01542 -0.16709 0.51373
 C246 C -0.01666 -0.19900 0.51212
 H247 H 0.04165 -0.35725 0.48733
 H248 H 0.04570 -0.41493 0.49040
 H249 H -0.05731 -0.40003 0.48184
 H250 H -0.06102 -0.34233 0.47830
 H251 H -0.04855 -0.30583 0.51263
 H252 H -0.05127 -0.24855 0.51238
 H253 H 0.02161 -0.24851 0.45135
 H254 H 0.02356 -0.30552 0.45074
 H255 H -0.01266 -0.19498 0.43309
 H256 H -0.01004 -0.13927 0.43601
 H257 H -0.01629 -0.15963 0.53640
 H258 H -0.01786 -0.21553 0.53371
 C259 C 0.00952 0.33459 0.50618
 C260 C 0.03677 0.34750 0.50264
 C261 C 0.03541 0.38038 0.50185
 C262 C 0.00668 0.40107 0.50425
 C263 C -0.02049 0.38806 0.50806
 C264 C -0.01904 0.35516 0.50915
 C265 C 0.01054 0.29995 0.50608
 C266 C -0.00422 0.28186 0.52800
 C267 C -0.00439 0.24958 0.52712
 C268 C 0.00997 0.23477 0.50414
 C269 C 0.02501 0.25275 0.48241
 C270 C 0.02543 0.28498 0.48347
 C271 C 0.00846 0.20093 0.50242
 C272 C 0.00070 0.19243 0.47297
 C273 C -0.00246 0.16095 0.47150
 C274 C 0.00225 0.13723 0.49945
 C275 C 0.01082 0.14562 0.52883
 C276 C 0.01376 0.17713 0.53030
 H277 H 0.05916 0.33211 0.50058
 H278 H 0.05674 0.38969 0.49884
 H279 H -0.04299 0.40335 0.50998
 H280 H -0.04050 0.34593 0.51157
 H281 H -0.01565 0.29272 0.54583
 H282 H -0.01640 0.23639 0.54398
 H283 H 0.03647 0.24186 0.46461
 H284 H 0.03675 0.29844 0.46613
 H285 H -0.00390 0.21040 0.45113
 H286 H -0.00952 0.15545 0.44854
 H287 H 0.01527 0.12778 0.55074
 H288 H 0.02026 0.18289 0.55328
 C289 C 0.50106 -0.00121 -0.33558
 C290 C 0.48933 0.02765 -0.35814
 C291 C 0.48837 0.02796 -0.39063
 C292 C 0.49842 -0.00077 -0.40163
 C293 C 0.50976 -0.02976 -0.37909
 C294 C 0.51136 -0.02991 -0.34651
 C295 C 0.50256 -0.00124 -0.30088
 C296 C 0.49767 -0.02795 -0.27959
 C297 C 0.49900 -0.02779 -0.24709
 C298 C 0.50469 -0.00069 -0.23506
 C299 C 0.50938 0.02607 -0.25641
 C300 C 0.50869 0.02566 -0.28875
 C301 C 0.50565 -0.00015 -0.20050
 C302 C 0.52596 0.01655 -0.18553
 C303 C 0.52613 0.01809 -0.15347
 C304 C 0.50653 0.00235 -0.13517
 C305 C 0.48664 -0.01489 -0.14996
 C306 C 0.48600 -0.01589 -0.18224
 H307 H 0.48044 0.05011 -0.35081
 H308 H 0.47918 0.05077 -0.40713
 H309 H 0.51790 -0.05238 -0.38650
 H310 H 0.52110 -0.05251 -0.32991
 H311 H 0.49243 -0.04894 -0.28801
 H312 H 0.49576 -0.04907 -0.23141
 H313 H 0.51325 0.04765 -0.24828
 H314 H 0.51318 0.04647 -0.30417
 H315 H 0.54193 0.02845 -0.19851
 H316 H 0.54137 0.03210 -0.14322
 H317 H 0.47158 -0.02777 -0.13661
 H318 H 0.46970 -0.02863 -0.19294
 C319 C 0.48783 0.00342 0.34991
 C320 C 0.49808 0.02783 0.36364
 C321 C 0.49822 0.02760 0.39607
 C322 C 0.48885 0.00258 0.41571
 C323 C 0.47869 -0.02188 0.40226
 C324 C 0.47780 -0.02126 0.36967
 C325 C 0.48823 0.00338 0.31538
 C326 C 0.49458 -0.02588 0.30451
 C327 C 0.49554 -0.02598 0.27228
 C328 C 0.49094 0.00314 0.25000
 C329 C 0.48450 0.03242 0.26083
 C330 C 0.48283 0.03254 0.29298
 C331 C 0.49324 0.00290 0.21578
 C332 C 0.47452 0.02771 0.19156
 C333 C 0.47694 0.02743 0.15954
 C334 C 0.49766 0.00201 0.15080
 C335 C 0.51619 -0.02288 0.17504
 C336 C 0.51430 -0.02224 0.20701
 H337 H 0.50669 0.04683 0.34953
 H338 H 0.50646 0.04659 0.40596
 H339 H 0.47105 -0.04128 0.41690
 H340 H 0.46902 -0.04006 0.36000
 H341 H 0.49937 -0.04888 0.32093
 H342 H 0.49986 -0.04904 0.26491
 H343 H 0.48123 0.05537 0.24461
 H344 H 0.47725 0.05561 0.30019
 H345 H 0.45766 0.04726 0.19721
 H346 H 0.46261 0.04731 0.14170
 H347 H 0.53198 -0.04325 0.16943
 H348 H 0.52962 -0.04146 0.22484
 C349 C 0.48777 -0.33400 -0.00976
 C350 C 0.49242 -0.34737 -0.03682
 C351 C 0.49397 -0.38035 -0.03563
 C352 C 0.49130 -0.40064 -0.00724
 C353 C 0.48631 -0.38714 0.01970
 C354 C 0.48442 -0.35416 0.01841
 C355 C 0.48736 -0.29937 -0.01041
 C356 C 0.46465 -0.28092 0.00384
 C357 C 0.46545 -0.24884 0.00502
 C358 C 0.48918 -0.23455 -0.00777
 C359 C 0.51148 -0.25284 -0.02266
 C360 C 0.51051 -0.28489 -0.02405
 C361 C 0.49119 -0.20107 -0.00466
 C362 C 0.49976 -0.17993 -0.02935
 C363 C 0.50196 -0.14860 -0.02605
 C364 C 0.49544 -0.13772 0.00191
 C365 C 0.48693 -0.15882 0.02657
 C366 C 0.48493 -0.19014 0.02338
 H367 H 0.49483 -0.33229 -0.05889
 H368 H 0.49789 -0.39006 -0.05677
 H369 H 0.48412 -0.40212 0.04192
 H370 H 0.48116 -0.34456 0.03972
 H371 H 0.44625 -0.29135 0.01412
 H372 H 0.44748 -0.23523 0.01603
 H373 H 0.53031 -0.24274 -0.03239
 H374 H 0.52853 -0.29869 -0.03486
 H375 H 0.50434 -0.18743 -0.05141
 H376 H 0.50826 -0.13269 -0.04555
 H377 H 0.48230 -0.15125 0.04860
 H378 H 0.47900 -0.20600 0.04314
 C379 C 0.51921 0.34346 0.01014
 C380 C 0.51570 0.36397 -0.01975
 C381 C 0.51330 0.39719 -0.02213
 C382 C 0.51441 0.41065 0.00532
 C383 C 0.51846 0.39006 0.03524
 C384 C 0.52081 0.35686 0.03761
 C385 C 0.52030 0.30840 0.01256
 C386 C 0.50350 0.29236 0.03399
 C387 C 0.50339 0.25968 0.03540
 C388 C 0.52013 0.24229 0.01544
 C389 C 0.53739 0.25818 -0.00560
 C390 C 0.53744 0.29089 -0.00706
 C391 C 0.51869 0.20802 0.01577
 C392 C 0.54601 0.18527 0.01340
 C393 C 0.54419 0.15337 0.01225
 C394 C 0.51499 0.14359 0.01331
 C395 C 0.48782 0.16619 0.01628
 C396 C 0.48965 0.19803 0.01752
 H397 H 0.51399 0.35444 -0.04137
 H398 H 0.51014 0.41239 -0.04554
 H399 H 0.51953 0.39963 0.05687
 H400 H 0.52394 0.34162 0.06099
 H401 H 0.48981 0.30526 0.04920
 H402 H 0.49013 0.24803 0.05208
 H403 H 0.55026 0.24551 -0.02149
 H404 H 0.55088 0.30250 -0.02357
 H405 H 0.56878 0.19218 0.01234
 H406 H 0.56547 0.13657 0.00969
 H407 H 0.46506 0.15927 0.01749
 H408 H 0.46812 0.21505 0.01905
 C409 C -0.34880 -0.00132 0.51280
 C410 C -0.36894 0.02302 0.52372
 C411 C -0.40151 0.02350 0.52289
 C412 C -0.41450 -0.00078 0.51190
 C413 C -0.39447 -0.02544 0.50157
 C414 C -0.36208 -0.02550 0.50164
 C415 C -0.31430 -0.00121 0.51246
 C416 C -0.29144 -0.03034 0.51699
 C417 C -0.25932 -0.03018 0.51529
 C418 C -0.24899 -0.00088 0.50972
 C419 C -0.27172 0.02822 0.50601
 C420 C -0.30394 0.02807 0.50699
 C421 C -0.21482 -0.00061 0.50732
 C422 C -0.20654 0.02465 0.48680
 C423 C -0.17460 0.02518 0.48469
 C424 C -0.14994 0.00006 0.50243
 C425 C -0.15820 -0.02544 0.52265
 C426 C -0.19017 -0.02560 0.52530
 H427 H -0.35958 0.04164 0.53316
 H428 H -0.41647 0.04260 0.53127
 H429 H -0.40403 -0.04426 0.49267
 H430 H -0.34767 -0.04421 0.49233
 H431 H -0.29826 -0.05343 0.52190
 H432 H -0.24272 -0.05310 0.51785
 H433 H -0.26471 0.05127 0.50237
 H434 H -0.32074 0.05105 0.50290
 H435 H -0.22473 0.04403 0.47206
 H436 H -0.16933 0.04560 0.46933
 H437 H -0.14000 -0.04549 0.53635
 H438 H -0.19545 -0.04524 0.54174
 C439 C 0.33622 0.00024 0.50162
 C440 C 0.34610 0.02719 0.48559
 C441 C 0.37855 0.02757 0.48692
 C442 C 0.40180 0.00081 0.50387
 C443 C 0.39203 -0.02611 0.51986
 C444 C 0.35964 -0.02628 0.51899
 C445 C 0.30172 -0.00041 0.50015
 C446 C 0.29148 -0.02948 0.49969
 C447 C 0.25924 -0.03035 0.49882
 C448 C 0.23622 -0.00206 0.49780
 C449 C 0.24638 0.02709 0.49794
 C450 C 0.27875 0.02787 0.49931
 C451 C 0.20183 -0.00310 0.49661
 C452 C 0.18173 0.01657 0.51238
 C453 C 0.14953 0.01525 0.51149
 C454 C 0.13670 -0.00610 0.49516
 C455 C 0.15683 -0.02579 0.47945
 C456 C 0.18886 -0.02411 0.47993
 H457 H 0.32880 0.04782 0.47155
 H458 H 0.38547 0.04856 0.47423
 H459 H 0.40946 -0.04692 0.53343
 H460 H 0.35299 -0.04712 0.53227
 H461 H 0.30835 -0.05165 0.49976
 H462 H 0.25245 -0.05336 0.49928
 H463 H 0.22932 0.04945 0.49672
 H464 H 0.28575 0.05062 0.50005
 H465 H 0.19094 0.03274 0.52582
 H466 H 0.13467 0.03113 0.52347
 H467 H 0.14800 -0.04291 0.46706
 H468 H 0.20339 -0.03922 0.46703
 C469 C -0.00618 0.50018 1.33713
 C470 C -0.03421 0.50260 1.35121
 C471 C -0.03303 0.50281 1.38372
 C472 C -0.00379 0.50057 1.40284
 C473 C 0.02413 0.49864 1.38864
 C474 C 0.02294 0.49849 1.35618
 C475 C -0.00713 0.49906 1.30280
 C476 C 0.01720 0.47831 1.29250
 C477 C 0.01682 0.47765 1.26021
 C478 C -0.00796 0.49768 1.23739
 C479 C -0.03253 0.51815 1.24769
 C480 C -0.03213 0.51882 1.28003
 C481 C -0.00758 0.49778 1.20295
 C482 C -0.01625 0.52696 1.18049
 C483 C -0.01421 0.52731 1.14834
 C484 C -0.00340 0.49848 1.13787
 C485 C 0.00457 0.46920 1.16021
 C486 C 0.00250 0.46885 1.19238
 H487 H -0.05697 0.50362 1.33726
 H488 H -0.05496 0.50421 1.39395
 H489 H 0.04703 0.49706 1.40264
 H490 H 0.04487 0.49721 1.34596
 H491 H 0.03656 0.46244 1.30946
 H492 H 0.03630 0.46188 1.25307
 H493 H -0.05212 0.53363 1.23074
 H494 H -0.05110 0.53525 1.28715
 H495 H -0.02384 0.54970 1.18786
 H496 H -0.02095 0.55021 1.13166
 H497 H 0.01323 0.44661 1.15298
 H498 H 0.00895 0.44591 1.20902
 C499 C 0.01055 0.48587 0.65514
 C500 C 0.03821 0.48390 0.64051
 C501 C 0.03632 0.48500 0.60777
 C502 C 0.00671 0.48824 0.58889
 C503 C -0.02091 0.48996 0.60357
 C504 C -0.01900 0.48873 0.63634
 C505 C 0.01241 0.48557 0.68978
 C506 C -0.00566 0.46803 0.70839
 C507 C -0.00459 0.46851 0.74081
 C508 C 0.01444 0.48666 0.75530
 C509 C 0.03276 0.50393 0.73676
 C510 C 0.03181 0.50333 0.70439
 C511 C 0.01441 0.48832 0.78941
 C512 C 0.01310 0.51796 0.79929
 C513 C 0.01151 0.51991 0.83110
 C514 C 0.01133 0.49225 0.85376
 C515 C 0.01336 0.46248 0.84403
 C516 C 0.01479 0.46055 0.81217
 H517 H 0.06136 0.48131 0.65444
 H518 H 0.05807 0.48355 0.59722
 H519 H -0.04410 0.49250 0.58971
 H520 H -0.04078 0.49068 0.64686
 H521 H -0.02059 0.45387 0.69788
 H522 H -0.01922 0.45522 0.75439
 H523 H 0.04786 0.51790 0.74733
 H524 H 0.04578 0.51732 0.69061
 H525 H 0.01249 0.53983 0.78227
 H526 H 0.01028 0.54312 0.83796
 H527 H 0.01300 0.44081 0.86090
 H528 H 0.01612 0.43733 0.80532
   
