data_POSCAR
  _audit_creation_date              2014-09-24
  _audit_creation_method            'ToBaCCo'
  _symmetry_space_group_name_H-M    'P1'
  _symmetry_Int_Tables_number       1
  _symmetry_cell_setting            triclinic
  loop_
  _symmetry_equiv_pos_as_xyz
 x,y,z
_cell_length_a 32.0809
_cell_length_b 32.0751
_cell_length_c 32.0578
_cell_angle_alpha 96.763600
_cell_angle_beta 79.934400
_cell_angle_gamma 77.788800
loop_
  _atom_site_label
  _atom_site_type_symbol
  _atom_site_fract_x
  _atom_site_fract_y
  _atom_site_fract_z
C1 C 0.53067 0.51590 0.00453
 C2 C 0.49644 0.54654 -0.00622
 C3 C 0.45649 0.53511 -0.00783
 C4 C 0.44819 0.49550 0.00177
 C5 C 0.48228 0.46534 0.01262
 C6 C 0.52227 0.47618 0.01393
 H7 H 0.54863 0.45126 0.01906
 H8 H 0.42943 0.55967 -0.01223
 C9 C 0.00174 0.46036 0.50504
 C10 C 0.00338 0.49229 0.53873
 C11 C 0.00447 0.53404 0.53014
 C12 C 0.00349 0.54581 0.48915
 C13 C 0.00045 0.51375 0.45574
 C14 C 0.00023 0.47178 0.46431
 H15 H 0.00026 0.44701 0.43815
 H16 H 0.00360 0.55849 0.55687
 C17 C 0.51226 -0.02249 0.45576
 C18 C 0.47613 -0.01777 0.48953
 C19 C 0.48237 -0.01430 0.53190
 C20 C 0.52354 -0.01519 0.54232
 C21 C 0.56009 -0.01949 0.50802
 C22 C 0.55333 -0.02360 0.46550
 H23 H 0.57991 -0.02436 0.43916
 H24 H 0.45471 -0.01370 0.55701
 O25 O 0.45238 0.00583 -0.04507
 O26 O 0.44698 0.01593 0.07116
 O27 O 0.44303 0.06917 0.01515
 O28 O 0.45818 -0.04859 0.00902
 O29 O 0.52955 -0.05663 -0.00150
 O30 O 0.51434 0.06108 0.00608
 O31 O 0.51854 0.00606 0.06001
 O32 O 0.52374 -0.00245 -0.05659
 Cu33 Cu 0.44297 0.01129 0.01386
 Cu34 Cu 0.52873 0.00133 0.00077
 C35 C 0.48868 0.00080 -0.07064
 C36 C 0.48192 0.01196 0.08538
 C37 C 0.47628 0.08505 0.01118
 C38 C 0.49638 -0.07259 0.00308
 O39 O -0.07490 0.54140 1.00735
 O40 O 0.04220 0.53722 0.99708
 O41 O -0.00917 0.53577 0.94430
 O42 O -0.02148 0.54275 1.06139
 O43 O -0.00887 0.47156 1.05442
 O44 O 0.00369 0.46457 0.93718
 O45 O 0.05636 0.46607 0.99148
 O46 O -0.06069 0.47026 1.00159
 Cu47 Cu -0.01761 0.54650 1.00343
 Cu48 Cu -0.00088 0.46094 0.99528
 C49 C -0.08772 0.50649 1.00636
 C50 C 0.06919 0.50098 0.99244
 C51 C -0.00020 0.49903 0.92081
 C52 C -0.01708 0.50830 1.07778
 O53 O 0.03108 -0.06503 0.45991
 O54 O 0.01189 0.05233 0.45983
 O55 O 0.07985 -0.00891 0.46156
 O56 O -0.03480 -0.00493 0.45811
 O57 O -0.05206 0.00743 0.52893
 O58 O 0.06263 0.00407 0.53238
 O59 O -0.00393 0.06411 0.53075
 O60 O 0.01559 -0.05319 0.53082
 Cu61 Cu 0.02393 -0.00766 0.45271
 Cu62 Cu 0.00381 0.00675 0.53784
 C63 C 0.02576 -0.07902 0.49544
 C64 C 0.00109 0.07814 0.49525
 C65 C 0.09069 -0.00247 0.49760
 C66 C -0.06281 0.00092 0.49283
 C67 C -0.36263 0.54497 0.96872
 C68 C -0.33803 0.52850 0.99830
 C69 C -0.35815 0.50721 1.02949
 C70 C -0.40160 0.50465 1.03206
 C71 C -0.42607 0.52126 1.00273
 C72 C -0.40547 0.54083 0.97060
 C73 C -0.33479 0.48813 1.05792
 C74 C -0.29113 0.48805 1.05501
 C75 C -0.26938 0.50846 1.02429
 C76 C -0.29387 0.53126 0.99727
 C77 C -0.27364 0.55662 0.97084
 C78 C -0.23053 0.55852 0.96984
 C79 C -0.20533 0.53386 0.99365
 C80 C -0.22411 0.50757 1.02037
 C81 C -0.19644 0.48041 1.04111
 C82 C -0.15234 0.48024 1.03620
 C83 C -0.13451 0.50765 1.01135
 C84 C -0.16118 0.53470 0.99037
 H85 H -0.34905 0.55960 0.94262
 H86 H -0.41656 0.49002 1.05773
 H87 H -0.42192 0.55187 0.94577
 H88 H -0.35018 0.47224 1.08222
 H89 H -0.27554 0.47280 1.07833
 H90 H -0.29085 0.57653 0.95148
 H91 H -0.21649 0.57882 0.94946
 H92 H -0.20750 0.45777 1.06009
 H93 H -0.13205 0.45870 1.05221
 H94 H -0.14714 0.55523 0.97025
 C95 C 0.34261 0.46305 1.03355
 C96 C 0.31853 0.47961 1.00365
 C97 C 0.33879 0.50166 0.97330
 C98 C 0.38181 0.50511 0.97202
 C99 C 0.40564 0.48875 1.00192
 C100 C 0.38497 0.46809 1.03300
 C101 C 0.31590 0.52074 0.94454
 C102 C 0.27249 0.52029 0.94648
 C103 C 0.25055 0.49933 0.97652
 C104 C 0.27468 0.47634 1.00367
 C105 C 0.25438 0.45043 1.02932
 C106 C 0.21144 0.44835 1.02962
 C107 C 0.18649 0.47331 1.00585
 C108 C 0.20541 0.49998 0.97973
 C109 C 0.17796 0.52736 0.95898
 C110 C 0.13392 0.52747 0.96340
 C111 C 0.11595 0.49977 0.98774
 C112 C 0.14242 0.47242 1.00862
 H113 H 0.32885 0.44781 1.05907
 H114 H 0.39689 0.52043 0.94701
 H115 H 0.40068 0.45731 1.05836
 H116 H 0.33144 0.53716 0.92083
 H117 H 0.25723 0.53564 0.92303
 H118 H 0.27139 0.43031 1.04865
 H119 H 0.19731 0.42770 1.04950
 H120 H 0.18913 0.55025 0.94041
 H121 H 0.11377 0.54922 0.94745
 H122 H 0.12826 0.45165 1.02834
 C123 C -0.01832 -0.34534 0.45396
 C124 C 0.00807 -0.32385 0.47540
 C125 C 0.03168 -0.34647 0.50253
 C126 C 0.03071 -0.38947 0.50579
 C127 C 0.00497 -0.41104 0.48381
 C128 C -0.02021 -0.38777 0.45859
 C129 C 0.05610 -0.32608 0.52658
 C130 C 0.05639 -0.28302 0.52560
 C131 C 0.03337 -0.25895 0.49919
 C132 C 0.01091 -0.28041 0.47186
 C133 C -0.00711 -0.25806 0.44135
 C134 C -0.00465 -0.21568 0.43866
 C135 C 0.01430 -0.19335 0.46724
 C136 C 0.03275 -0.21431 0.49859
 C137 C 0.04860 -0.18928 0.52890
 C138 C 0.04658 -0.14554 0.52761
 C139 C 0.02980 -0.12562 0.49560
 C140 C 0.01410 -0.14979 0.46523
 H141 H -0.03936 -0.32957 0.43480
 H142 H 0.05104 -0.40644 0.52511
 H143 H -0.04301 -0.40154 0.44362
 H144 H 0.07459 -0.34339 0.54710
 H145 H 0.07621 -0.26977 0.54499
 H146 H -0.02223 -0.27303 0.41811
 H147 H -0.01861 -0.19991 0.41448
 H148 H 0.06117 -0.20209 0.55501
 H149 H 0.05822 -0.12715 0.55178
 H150 H -0.00003 -0.13410 0.44107
 C151 C 0.03462 0.34833 0.53464
 C152 C 0.00618 0.32632 0.51708
 C153 C -0.02310 0.34930 0.49470
 C154 C -0.02546 0.39316 0.49259
 C155 C 0.00274 0.41461 0.51036
 C156 C 0.03330 0.39148 0.53064
 C157 C -0.04946 0.32828 0.47393
 C158 C -0.04627 0.28436 0.47344
 C159 C -0.01775 0.26007 0.49538
 C160 C 0.00679 0.28201 0.51976
 C161 C 0.03030 0.25922 0.54669
 C162 C 0.03107 0.21601 0.54859
 C163 C 0.01007 0.19335 0.52244
 C164 C -0.01370 0.21471 0.49456
 C165 C -0.03133 0.18945 0.46611
 C166 C -0.02625 0.14511 0.46620
 C167 C -0.00458 0.12488 0.49529
 C168 C 0.01328 0.14916 0.52352
 H169 H 0.05950 0.33253 0.55002
 H170 H -0.04893 0.41056 0.47638
 H171 H 0.05672 0.40667 0.54301
 H172 H -0.07215 0.34576 0.45701
 H173 H -0.06776 0.27052 0.45673
 H174 H 0.04728 0.27446 0.56792
 H175 H 0.04910 0.19992 0.57014
 H176 H -0.04783 0.20272 0.44237
 H177 H -0.03965 0.12659 0.44369
 H178 H 0.03110 0.13320 0.54532
 C179 C 0.56330 -0.04274 -0.35862
 C180 C 0.52942 -0.01689 -0.32548
 C181 C 0.49358 0.00922 -0.33774
 C182 C 0.49279 0.01044 -0.38112
 C183 C 0.52658 -0.01519 -0.41393
 C184 C 0.56160 -0.04216 -0.40188
 C185 C 0.45833 0.03399 -0.30672
 C186 C 0.45694 0.03234 -0.26354
 C187 C 0.49148 0.00651 -0.24950
 C188 C 0.52930 -0.01671 -0.28074
 C189 C 0.56586 -0.03815 -0.26612
 C190 C 0.56516 -0.03767 -0.22253
 C191 C 0.52759 -0.01727 -0.19187
 C192 C 0.48982 0.00409 -0.20505
 C193 C 0.45155 0.02154 -0.17317
 C194 C 0.45147 0.01953 -0.13003
 C195 C 0.48940 0.00038 -0.11690
 C196 C 0.52743 -0.01816 -0.14804
 H197 H 0.59079 -0.06498 -0.35219
 H198 H 0.46571 0.03223 -0.38925
 H199 H 0.58723 -0.06417 -0.42589
 H200 H 0.43108 0.05445 -0.31594
 H201 H 0.42871 0.05287 -0.24174
 H202 H 0.59614 -0.05456 -0.28766
 H203 H 0.59421 -0.05400 -0.21276
 H204 H 0.42079 0.03611 -0.18055
 H205 H 0.42152 0.03373 -0.10668
 H206 H 0.55674 -0.03377 -0.13820
 C207 C 0.53877 -0.05582 0.33528
 C208 C 0.50946 -0.02348 0.32138
 C209 C 0.47773 0.00695 0.35318
 C210 C 0.47820 0.00701 0.39695
 C211 C 0.50878 -0.02421 0.40998
 C212 C 0.53829 -0.05604 0.37879
 C213 C 0.44610 0.03748 0.34109
 C214 C 0.44507 0.03843 0.29803
 C215 C 0.47687 0.00979 0.26514
 C216 C 0.51060 -0.02045 0.27710
 C217 C 0.54531 -0.04551 0.24454
 C218 C 0.54660 -0.04199 0.20168
 C219 C 0.51282 -0.01443 0.18933
 C220 C 0.47688 0.01115 0.22066
 C221 C 0.44222 0.03647 0.20596
 C222 C 0.44385 0.03676 0.16212
 C223 C 0.48029 0.01266 0.13170
 C224 C 0.51471 -0.01270 0.14555
 H225 H 0.56207 -0.08180 0.31339
 H226 H 0.45528 0.03187 0.42088
 H227 H 0.56157 -0.08105 0.38819
 H228 H 0.42167 0.06079 0.36521
 H229 H 0.41982 0.06325 0.29145
 H230 H 0.57302 -0.06715 0.25129
 H231 H 0.57423 -0.06147 0.17786
 H232 H 0.41288 0.05540 0.22741
 H233 H 0.41658 0.05611 0.15197
 H234 H 0.54254 -0.03229 0.12201
 C235 C 0.47495 -0.34674 -0.04406
 C236 C 0.49332 -0.32133 -0.01679
 C237 C 0.51685 -0.34211 0.01153
 C238 C 0.51801 -0.38560 0.01510
 C239 C 0.49817 -0.41029 -0.01116
 C240 C 0.47750 -0.39016 -0.04132
 C241 C 0.53862 -0.31918 0.03654
 C242 C 0.53793 -0.27611 0.03374
 C243 C 0.51358 -0.25364 0.00716
 C244 C 0.48926 -0.27614 -0.01690
 C245 C 0.46022 -0.25241 -0.03880
 C246 C 0.45558 -0.20828 -0.03783
 C247 C 0.48086 -0.18636 -0.01651
 C248 C 0.51133 -0.20894 0.00508
 C249 C 0.53855 -0.18583 0.02333
 C250 C 0.53424 -0.14186 0.02163
 C251 C 0.50228 -0.11942 0.00250
 C252 C 0.47577 -0.14182 -0.01663
 H253 H 0.45931 -0.33427 -0.06867
 H254 H 0.53317 -0.39961 0.03950
 H255 H 0.46354 -0.40830 -0.06362
 H256 H 0.55679 -0.33481 0.05825
 H257 H 0.55527 -0.26065 0.05438
 H258 H 0.43901 -0.26674 -0.05547
 H259 H 0.43218 -0.19120 -0.05431
 H260 H 0.56408 -0.20103 0.03829
 H261 H 0.55538 -0.12507 0.03620
 H262 H 0.45161 -0.12462 -0.03229
 C263 C 0.49629 0.35992 0.05684
 C264 C 0.48225 0.33280 0.02692
 C265 C 0.46469 0.35133 -0.00615
 C266 C 0.46520 0.39416 -0.01114
 C267 C 0.48010 0.42033 0.01831
 C268 C 0.49489 0.40294 0.05265
 C269 C 0.44691 0.32696 -0.03416
 C270 C 0.44569 0.28462 -0.02979
 C271 C 0.46425 0.26426 0.00162
 C272 C 0.48479 0.28810 0.02894
 C273 C 0.50876 0.26607 0.05604
 C274 C 0.51222 0.22228 0.05674
 C275 C 0.49037 0.19919 0.03204
 C276 C 0.46463 0.22023 0.00540
 C277 C 0.44007 0.19632 -0.01610
 C278 C 0.44290 0.15282 -0.01288
 C279 C 0.47080 0.13168 0.01104
 C280 C 0.49427 0.15500 0.03366
 H281 H 0.50747 0.34914 0.08444
 H282 H 0.45388 0.40719 -0.03796
 H283 H 0.50573 0.42278 0.07632
 H284 H 0.43333 0.34094 -0.05946
 H285 H 0.43176 0.26787 -0.05292
 H286 H 0.52706 0.28142 0.07567
 H287 H 0.53194 0.20641 0.07718
 H288 H 0.41776 0.21056 -0.03491
 H289 H 0.42410 0.13527 -0.03016
 H290 H 0.51517 0.13878 0.05297
 C291 C -0.35094 0.02006 0.55023
 C292 C -0.31316 -0.00477 0.52089
 C293 C -0.31892 -0.03494 0.48768
 C294 C -0.36046 -0.04078 0.48512
 C295 C -0.39793 -0.01572 0.51404
 C296 C -0.39245 0.01497 0.54650
 C297 C -0.28329 -0.05895 0.45663
 C298 C -0.24198 -0.05244 0.45658
 C299 C -0.23445 -0.02235 0.48851
 C300 C -0.27009 0.00003 0.52256
 C301 C -0.26126 0.02569 0.55736
 C302 C -0.21918 0.02999 0.55841
 C303 C -0.18462 0.01040 0.52415
 C304 C -0.19207 -0.01491 0.48810
 C305 C -0.15687 -0.03125 0.45269
 C306 C -0.11557 -0.02478 0.45414
 C307 C -0.10772 -0.00207 0.49085
 C308 C -0.14250 0.01585 0.52569
 H309 H -0.34968 0.04502 0.57529
 H310 H -0.36349 -0.06536 0.46028
 H311 H -0.42040 0.03655 0.56815
 H312 H -0.28749 -0.08251 0.43150
 H313 H -0.21620 -0.07262 0.43169
 H314 H -0.28610 0.04176 0.58508
 H315 H -0.21376 0.04934 0.58614
 H316 H -0.16034 -0.04848 0.42302
 H317 H -0.08937 -0.03855 0.42658
 H318 H -0.13684 0.03420 0.55392
 C319 C 0.38184 -0.05065 0.44811
 C320 C 0.34528 -0.01972 0.47358
 C321 C 0.35316 0.01199 0.50400
 C322 C 0.39581 0.01337 0.50737
 C323 C 0.43155 -0.01770 0.48232
 C324 C 0.42417 -0.04987 0.45291
 C325 C 0.31846 0.04177 0.53158
 C326 C 0.27583 0.03972 0.53109
 C327 C 0.26617 0.00843 0.50189
 C328 C 0.30127 -0.01999 0.47094
 C329 C 0.29114 -0.04715 0.43814
 C330 C 0.24820 -0.04750 0.43643
 C331 C 0.21381 -0.02218 0.46819
 C332 C 0.22240 0.00530 0.50203
 C333 C 0.18684 0.02780 0.53525
 C334 C 0.14451 0.02436 0.53391
 C335 C 0.13601 -0.00109 0.49933
 C336 C 0.17081 -0.02435 0.46650
 H337 H 0.37871 -0.07691 0.42553
 H338 H 0.40126 0.03824 0.53038
 H339 H 0.45118 -0.07504 0.43414
 H340 H 0.32433 0.06642 0.55453
 H341 H 0.25091 0.06406 0.55329
 H342 H 0.31580 -0.06763 0.41243
 H343 H 0.24190 -0.06845 0.41035
 H344 H 0.19076 0.04744 0.56331
 H345 H 0.11813 0.04234 0.55983
 H346 H 0.16446 -0.04476 0.44003
 C347 C 0.03212 0.54155 1.34417
 C348 C 0.00012 0.52905 1.32334
 C349 C -0.03137 0.51129 1.34728
 C350 C -0.03179 0.50827 1.39058
 C351 C 0.00004 0.52072 1.41071
 C352 C 0.03235 0.53678 1.38698
 C353 C -0.06195 0.49592 1.32780
 C354 C -0.06093 0.49596 1.28439
 C355 C -0.03002 0.51286 1.25897
 C356 C -0.00089 0.53219 1.27933
 C357 C 0.02563 0.55452 1.25521
 C358 C 0.02488 0.55651 1.21222
 C359 C -0.00080 0.53481 1.19110
 C360 C -0.02783 0.51174 1.21394
 C361 C -0.05042 0.48720 1.19042
 C362 C -0.04677 0.48634 1.14632
 C363 C -0.02155 0.51064 1.12447
 C364 C 0.00105 0.53521 1.14699
 H365 H 0.05837 0.55349 1.32774
 H366 H -0.05657 0.49528 1.40865
 H367 H 0.05803 0.54537 1.40155
 H368 H -0.08641 0.48277 1.34612
 H369 H -0.08579 0.48367 1.27183
 H370 H 0.04645 0.57195 1.26915
 H371 H 0.04547 0.57438 1.19504
 H372 H -0.06974 0.46693 1.20483
 H373 H -0.06389 0.46664 1.12914
 H374 H 0.02152 0.55317 1.12975
 C375 C -0.02991 0.46000 0.64790
 C376 C -0.00085 0.47490 0.67128
 C377 C 0.02982 0.49518 0.64965
 C378 C 0.03215 0.49865 0.60618
 C379 C 0.00283 0.48428 0.58363
 C380 C -0.02840 0.46525 0.60499
 C381 C 0.05750 0.51278 0.67166
 C382 C 0.05402 0.51273 0.71538
 C383 C 0.02354 0.49366 0.73860
 C384 C -0.00221 0.47189 0.71568
 C385 C -0.02794 0.44752 0.73779
 C386 C -0.02983 0.44595 0.78126
 C387 C -0.00775 0.47004 0.80478
 C388 C 0.01844 0.49508 0.78395
 C389 C 0.03723 0.52183 0.80965
 C390 C 0.03083 0.52291 0.85394
 C391 C 0.00650 0.49677 0.87395
 C392 C -0.01239 0.47000 0.84924
 H393 H -0.05541 0.44593 0.66241
 H394 H 0.05629 0.51364 0.58996
 H395 H -0.05228 0.45508 0.58866
 H396 H 0.08141 0.52778 0.65512
 H397 H 0.07665 0.52690 0.73000
 H398 H -0.04609 0.42823 0.72194
 H399 H -0.04971 0.42653 0.79686
 H400 H 0.05560 0.54357 0.79674
 H401 H 0.04522 0.54418 0.87271
 H402 H -0.03210 0.45046 0.86494
   
