data_POSCAR
  _audit_creation_date              2014-09-24
  _audit_creation_method            'ToBaCCo'
  _symmetry_space_group_name_H-M    'P1'
  _symmetry_Int_Tables_number       1
  _symmetry_cell_setting            triclinic
  loop_
  _symmetry_equiv_pos_as_xyz
 x,y,z
_cell_length_a 50.8361
_cell_length_b 49.6213
_cell_length_c 8.6158
_cell_angle_alpha 89.985100
_cell_angle_beta 90.007400
_cell_angle_gamma 90.116900
loop_
  _atom_site_label
  _atom_site_type_symbol
  _atom_site_fract_x
  _atom_site_fract_y
  _atom_site_fract_z
O1 O 0.22858 0.27645 0.10462
 O2 O 0.27833 0.22360 0.16037
 O3 O 0.22817 0.22407 0.09824
 O4 O 0.27865 0.27596 0.16771
 O5 O 0.27043 0.27511 0.41887
 O6 O 0.21985 0.22318 0.34905
 O7 O 0.27009 0.22268 0.41151
 O8 O 0.22025 0.27563 0.35567
 Cu9 Cu 0.25436 0.25011 0.10834
 Cu10 Cu 0.24422 0.24904 0.40839
 C11 C 0.21579 0.28505 0.22113
 C12 C 0.28286 0.21416 0.29469
 C13 C 0.21518 0.21476 0.21246
 C14 C 0.28330 0.28438 0.30416
 O15 O 0.77905 0.27512 0.32832
 O16 O 0.72874 0.22259 0.38515
 O17 O 0.77883 0.22276 0.32044
 O18 O 0.72900 0.27497 0.39289
 O19 O 0.72036 0.27613 0.14221
 O20 O 0.77020 0.22379 0.06974
 O21 O 0.72003 0.22373 0.13481
 O22 O 0.77043 0.27618 0.07761
 Cu23 Cu 0.75486 0.24873 0.38120
 Cu24 Cu 0.74429 0.25005 0.08146
 C25 C 0.78346 0.28459 0.19383
 C26 C 0.71556 0.21423 0.26929
 C27 C 0.78319 0.21441 0.18355
 C28 C 0.71606 0.28446 0.27926
 O29 O 0.72914 0.77723 0.61622
 O30 O 0.77892 0.72445 0.67646
 O31 O 0.72882 0.72481 0.61263
 O32 O 0.77925 0.77682 0.67984
 O33 O 0.77084 0.77641 0.93060
 O34 O 0.72030 0.72433 0.86350
 O35 O 0.77046 0.72401 0.92739
 O36 O 0.72069 0.77679 0.86717
 Cu37 Cu 0.75497 0.75088 0.62177
 Cu38 Cu 0.74461 0.75034 0.92170
 C39 C 0.71629 0.78600 0.73212
 C40 C 0.78334 0.71528 0.81159
 C41 C 0.71582 0.71570 0.72724
 C42 C 0.78388 0.78550 0.81592
 O43 O 0.22070 0.77609 0.65736
 O44 O 0.27064 0.72401 0.58325
 O45 O 0.22052 0.72372 0.64780
 O46 O 0.27088 0.77637 0.59489
 O47 O 0.27929 0.77494 0.84579
 O48 O 0.22908 0.72218 0.89824
 O49 O 0.27916 0.72257 0.83403
 O50 O 0.22909 0.77457 0.90827
 Cu51 Cu 0.24474 0.75021 0.59634
 Cu52 Cu 0.25510 0.74841 0.89620
 C53 C 0.21622 0.78419 0.79462
 C54 C 0.28357 0.71444 0.69671
 C55 C 0.21603 0.71394 0.78160
 C56 C 0.28381 0.78460 0.71188
 C57 C 1.02396 0.05683 0.02603
 C58 C 0.99994 0.07052 0.02452
 C59 C 0.97600 0.05669 0.01503
 C60 C 0.97593 0.02824 0.00233
 C61 C 1.00015 0.01406 0.00253
 C62 C 1.02425 0.02838 0.01472
 C63 C 1.04800 0.01391 0.01227
 C64 C 1.04811 -0.01404 -0.00051
 C65 C 1.02449 -0.02865 -0.01368
 C66 C 1.00026 -0.01450 -0.01077
 C67 C 0.95235 0.01367 -0.01431
 C68 C 0.95246 -0.01429 -0.02621
 C69 C 0.97615 -0.02883 -0.02264
 C70 C 0.97645 -0.05727 -0.03478
 C71 C 1.00049 -0.07090 -0.03765
 C72 C 1.02443 -0.05706 -0.02859
 H73 H 1.06681 0.02406 0.01906
 H74 H 1.06698 -0.02407 0.00024
 H75 H 0.93353 0.02376 -0.01992
 H76 H 0.93371 -0.02435 -0.04010
 H77 H 0.99987 0.09231 0.03527
 H78 H 1.00057 -0.09268 -0.04887
 C79 C 0.47655 0.44280 0.45937
 C80 C 0.50061 0.42922 0.45483
 C81 C 0.52453 0.44307 0.46444
 C82 C 0.52457 0.47142 0.48252
 C83 C 0.50032 0.48553 0.48696
 C84 C 0.47623 0.47122 0.47368
 C85 C 0.45252 0.48574 0.47106
 C86 C 0.45239 0.51366 0.48568
 C87 C 0.47595 0.52819 0.50447
 C88 C 0.50018 0.51403 0.50330
 C89 C 0.54817 0.48600 0.49758
 C90 C 0.54803 0.51390 0.51335
 C91 C 0.52427 0.52834 0.51697
 C92 C 0.52395 0.55675 0.53098
 C93 C 0.49992 0.57041 0.53122
 C94 C 0.47598 0.55659 0.52038
 H95 H 0.43379 0.47569 0.45576
 H96 H 0.43357 0.52376 0.48028
 H97 H 0.56704 0.47598 0.49771
 H98 H 0.56683 0.52404 0.52170
 H99 H 0.50072 0.40747 0.44186
 H100 H 0.49982 0.59216 0.54420
 C101 C -0.02385 0.44379 0.04968
 C102 C 0.00014 0.43025 0.06232
 C103 C 0.02411 0.44398 0.05186
 C104 C 0.02428 0.47217 0.02709
 C105 C 0.00008 0.48622 0.01440
 C106 C -0.02408 0.47200 0.02611
 C107 C -0.04780 0.48641 0.01583
 C108 C -0.04783 0.51414 -0.00824
 C109 C -0.02414 0.52865 -0.02039
 C110 C 0.00005 0.51454 -0.00995
 C111 C 0.04797 0.48662 0.01288
 C112 C 0.04794 0.51436 -0.01078
 C113 C 0.02422 0.52870 -0.02379
 C114 C 0.02399 0.55690 -0.04855
 C115 C -0.00000 0.57050 -0.05838
 C116 C -0.02397 0.55686 -0.04444
 H117 H -0.06664 0.47641 0.02673
 H118 H -0.06669 0.52406 -0.01742
 H119 H 0.06683 0.47663 0.01941
 H120 H 0.06679 0.52442 -0.01849
 H121 H 0.00015 0.40862 0.08082
 H122 H -0.00002 0.59212 -0.07744
 C123 C 0.52388 1.05624 0.43031
 C124 C 0.49986 1.06954 0.41241
 C125 C 0.47592 1.05609 0.43285
 C126 C 0.47580 1.02824 0.46825
 C127 C 0.50002 1.01437 0.48479
 C128 C 0.52416 1.02842 0.46668
 C129 C 0.54790 1.01423 0.48324
 C130 C 0.54797 0.98688 0.51879
 C131 C 0.52430 0.97248 0.53598
 C132 C 0.50009 0.98635 0.51910
 C133 C 0.45213 1.01384 0.48525
 C134 C 0.45221 0.98648 0.52050
 C135 C 0.47595 0.97228 0.53685
 C136 C 0.47621 0.94445 0.57262
 C137 C 0.50023 0.93118 0.59155
 C138 C 0.52418 0.94466 0.57201
 H139 H 0.56672 1.02410 0.46867
 H140 H 0.56685 0.97717 0.53301
 H141 H 0.43325 1.02354 0.47093
 H142 H 0.43338 0.97660 0.53517
 H143 H 0.49979 1.09092 0.38605
 H144 H 0.50028 0.90980 0.61804
 C145 C 1.15480 0.15743 0.13991
 C146 C 1.16068 0.16630 0.28997
 C147 C 1.18081 0.18504 0.31416
 C148 C 1.19545 0.19531 0.18812
 C149 C 1.18951 0.18595 0.03746
 C150 C 1.16932 0.16719 0.01384
 C151 C 1.13336 0.13890 0.11569
 C152 C 1.11507 0.12373 0.09731
 C153 C 1.09284 0.10607 0.07691
 C154 C 1.08587 0.08782 0.19412
 C155 C 1.06363 0.07145 0.17684
 C156 C 1.04825 0.07312 0.04176
 C157 C 1.05532 0.09144 -0.07528
 C158 C 1.07756 0.10778 -0.05795
 H159 H 1.14953 0.15891 0.38842
 H160 H 1.18469 0.19161 0.43183
 H161 H 1.20026 0.19327 -0.06268
 H162 H 1.16488 0.16048 -0.10294
 H163 H 1.09745 0.08647 0.29944
 H164 H 1.05822 0.05769 0.26915
 H165 H 1.04352 0.09314 -0.17949
 H166 H 1.08267 0.12193 -0.14889
 C167 C 0.65453 0.65732 0.65441
 C168 C 0.66880 0.66735 0.52799
 C169 C 0.68898 0.68612 0.55155
 C170 C 0.69510 0.69513 0.70217
 C171 C 0.68083 0.68467 0.82865
 C172 C 0.66069 0.66591 0.80476
 C173 C 0.63309 0.63882 0.62982
 C174 C 0.61482 0.62367 0.61003
 C175 C 0.59265 0.60602 0.58739
 C176 C 0.58571 0.58738 0.70257
 C177 C 0.56354 0.57099 0.68326
 C178 C 0.54822 0.57302 0.54817
 C179 C 0.55528 0.59169 0.43297
 C180 C 0.57745 0.60806 0.45233
 H181 H 0.66415 0.66087 0.41110
 H182 H 0.69957 0.69376 0.45173
 H183 H 0.68507 0.69114 0.94604
 H184 H 0.64975 0.65830 0.90348
 H185 H 0.59723 0.58577 0.80793
 H186 H 0.55813 0.55694 0.77406
 H187 H 0.54353 0.59364 0.32867
 H188 H 0.58257 0.62249 0.36286
 C189 C -0.15531 0.34339 0.13326
 C190 C -0.16929 0.33389 0.00434
 C191 C -0.18948 0.31499 0.02385
 C192 C -0.19587 0.30532 0.17278
 C193 C -0.18187 0.31524 0.30169
 C194 C -0.16174 0.33413 0.28188
 C195 C -0.13382 0.36196 0.11361
 C196 C -0.11541 0.37713 0.10023
 C197 C -0.09301 0.39475 0.08785
 C198 C -0.08698 0.40732 -0.05342
 C199 C -0.06462 0.42367 -0.06574
 C200 C -0.04821 0.42761 0.06342
 C201 C -0.05436 0.41501 0.20465
 C202 C -0.07671 0.39872 0.21690
 H203 H -0.16440 0.34088 -0.11129
 H204 H -0.19985 0.30773 -0.07770
 H205 H -0.18631 0.30825 0.41788
 H206 H -0.15101 0.34131 0.38242
 H207 H -0.09939 0.40427 -0.15413
 H208 H -0.05993 0.43302 -0.17595
 H209 H -0.04176 0.41771 0.30487
 H210 H -0.08113 0.38901 0.32649
 C211 C 0.34515 0.84343 0.65609
 C212 C 0.33126 0.83417 0.52627
 C213 C 0.31104 0.81525 0.54420
 C214 C 0.30453 0.80534 0.69241
 C215 C 0.31845 0.81501 0.82219
 C216 C 0.33861 0.83391 0.80397
 C217 C 0.36663 0.86208 0.63810
 C218 C 0.38498 0.87735 0.62567
 C219 C 0.40727 0.89512 0.61329
 C220 C 0.41367 0.90692 0.47049
 C221 C 0.43593 0.92338 0.45767
 C222 C 0.45188 0.92825 0.58781
 C223 C 0.44535 0.91642 0.73073
 C224 C 0.42309 0.90000 0.74348
 H225 H 0.33623 0.84135 0.41116
 H226 H 0.30072 0.80818 0.44199
 H227 H 0.31394 0.80782 0.93785
 H228 H 0.34928 0.84091 0.90518
 H229 H 0.40166 0.90316 0.36890
 H230 H 0.44092 0.93208 0.34618
 H231 H 0.45758 0.91981 0.83188
 H232 H 0.41837 0.89087 0.85434
 C233 C -0.15555 0.65668 -0.12494
 C234 C -0.16937 0.66647 0.00370
 C235 C -0.18956 0.68528 -0.01670
 C236 C -0.19608 0.69456 -0.16621
 C237 C -0.18227 0.68431 -0.29474
 C238 C -0.16216 0.66552 -0.27406
 C239 C -0.13402 0.63822 -0.10482
 C240 C -0.11559 0.62315 -0.09172
 C241 C -0.09315 0.60564 -0.08011
 C242 C -0.08694 0.59317 0.06107
 C243 C -0.06457 0.57690 0.07255
 C244 C -0.04836 0.57293 -0.05736
 C245 C -0.05470 0.58544 -0.19852
 C246 C -0.07705 0.60166 -0.20992
 H247 H -0.16436 0.65981 0.11975
 H248 H -0.19980 0.69280 0.08458
 H249 H -0.18681 0.69100 -0.41133
 H250 H -0.15156 0.65811 -0.37440
 H251 H -0.09921 0.59623 0.16230
 H252 H -0.05974 0.56760 0.18265
 H253 H -0.04226 0.58273 -0.29931
 H254 H -0.08162 0.61131 -0.31944
 C255 C 0.34402 1.15543 0.35092
 C256 C 0.33035 1.16490 0.48087
 C257 C 0.31013 1.18373 0.46286
 C258 C 0.30343 1.19337 0.31442
 C259 C 0.31710 1.18344 0.18446
 C260 C 0.33725 1.16461 0.20277
 C261 C 0.36563 1.13702 0.36907
 C262 C 0.38411 1.12201 0.38167
 C263 C 0.40657 1.10457 0.39400
 C264 C 0.41316 1.09286 0.53673
 C265 C 0.43558 1.07672 0.54917
 C266 C 0.45150 1.07207 0.41867
 C267 C 0.44480 1.08383 0.27598
 C268 C 0.42238 1.09994 0.26363
 H269 H 0.33549 1.15795 0.59616
 H270 H 0.30000 1.19100 0.56513
 H271 H 0.31242 1.19039 0.06857
 H272 H 0.34775 1.15745 0.10144
 H273 H 0.40116 1.09646 0.63853
 H274 H 0.44071 1.06807 0.66058
 H275 H 0.45700 1.08061 0.17465
 H276 H 0.41753 1.10902 0.15289
 C277 C 1.15520 -0.15752 -0.12903
 C278 C 1.16177 -0.16539 -0.27996
 C279 C 1.18182 -0.18412 -0.30466
 C280 C 1.19561 -0.19528 -0.17849
 C281 C 1.18909 -0.18701 -0.02712
 C282 C 1.16897 -0.16826 -0.00268
 C283 C 1.13384 -0.13901 -0.10455
 C284 C 1.11561 -0.12381 -0.08664
 C285 C 1.09347 -0.10607 -0.06793
 C286 C 1.07694 -0.10873 0.06119
 C287 C 1.05469 -0.09239 0.07544
 C288 C 1.04889 -0.07313 -0.03889
 C289 C 1.06558 -0.07046 -0.16783
 C290 C 1.08782 -0.08682 -0.18202
 H291 H 1.15123 -0.15724 -0.37863
 H292 H 1.18636 -0.19002 -0.42262
 H293 H 1.19931 -0.19523 0.07244
 H294 H 1.16400 -0.16235 0.11470
 H295 H 1.08104 -0.12367 0.14969
 H296 H 1.04186 -0.09488 0.17481
 H297 H 1.06115 -0.05600 -0.25823
 H298 H 1.10037 -0.08473 -0.28292
 C299 C 0.65544 0.34311 0.35673
 C300 C 0.66949 0.33261 0.48260
 C301 C 0.68948 0.31375 0.45765
 C302 C 0.69559 0.30513 0.30626
 C303 C 0.68151 0.31606 0.18052
 C304 C 0.66159 0.33490 0.20576
 C305 C 0.63414 0.36166 0.38189
 C306 C 0.61591 0.37682 0.40043
 C307 C 0.59371 0.39443 0.42026
 C308 C 0.58798 0.41395 0.30774
 C309 C 0.56567 0.43017 0.32330
 C310 C 0.54900 0.42708 0.45208
 C311 C 0.55486 0.40754 0.56459
 C312 C 0.57716 0.39134 0.54894
 H313 H 0.66484 0.33878 0.60004
 H314 H 0.69993 0.30572 0.55691
 H315 H 0.68572 0.30989 0.06259
 H316 H 0.65079 0.34287 0.10754
 H317 H 0.60053 0.41634 0.20700
 H318 H 0.56118 0.44486 0.23413
 H319 H 0.54203 0.40472 0.66364
 H320 H 0.58130 0.37617 0.63601
 C321 C 0.84454 -0.15731 -0.11621
 C322 C 0.83849 -0.16643 -0.26552
 C323 C 0.81826 -0.18509 -0.28807
 C324 C 0.80366 -0.19505 -0.16108
 C325 C 0.80972 -0.18542 -0.01114
 C326 C 0.83004 -0.16672 0.01086
 C327 C 0.86616 -0.13892 -0.09450
 C328 C 0.88468 -0.12389 -0.08103
 C329 C 0.90725 -0.10644 -0.06981
 C330 C 0.92478 -0.10461 -0.19474
 C331 C 0.94715 -0.08832 -0.18366
 C332 C 0.95212 -0.07358 -0.04778
 C333 C 0.93450 -0.07543 0.07734
 C334 C 0.91210 -0.09177 0.06615
 H335 H 0.84962 -0.15931 -0.36471
 H336 H 0.81429 -0.19186 -0.40527
 H337 H 0.79899 -0.19250 0.08964
 H338 H 0.83460 -0.15980 0.12704
 H339 H 0.92127 -0.11596 -0.30015
 H340 H 0.96067 -0.08727 -0.28059
 H341 H 0.93825 -0.06444 0.18369
 H342 H 0.89874 -0.09315 0.16379
 C343 C 0.34481 0.34266 0.37304
 C344 C 0.33791 0.33450 0.22308
 C345 C 0.31772 0.31577 0.20087
 C346 C 0.30408 0.30491 0.32863
 C347 C 0.31091 0.31349 0.47904
 C348 C 0.33119 0.33224 0.50096
 C349 C 0.36641 0.36108 0.39456
 C350 C 0.38490 0.37613 0.40862
 C351 C 0.40743 0.39361 0.42106
 C352 C 0.42490 0.39581 0.29608
 C353 C 0.44725 0.41210 0.30835
 C354 C 0.45225 0.42649 0.44542
 C355 C 0.43468 0.42427 0.57061
 C356 C 0.41231 0.40792 0.55830
 H357 H 0.34835 0.34239 0.12323
 H358 H 0.31295 0.30964 0.08357
 H359 H 0.30081 0.30549 0.57973
 H360 H 0.33642 0.33838 0.61759
 H361 H 0.42137 0.38475 0.18967
 H362 H 0.46073 0.41344 0.21131
 H363 H 0.43846 0.43500 0.67786
 H364 H 0.39898 0.40625 0.65594
 C365 C 0.15568 0.65616 -0.16079
 C366 C 0.17058 0.66449 -0.03298
 C367 C 0.19080 0.68335 -0.05191
 C368 C 0.19638 0.69424 -0.19955
 C369 C 0.18145 0.68531 -0.32774
 C370 C 0.16126 0.66646 -0.30819
 C371 C 0.13405 0.63778 -0.13999
 C372 C 0.11559 0.62282 -0.12254
 C373 C 0.09318 0.60547 -0.10150
 C374 C 0.08697 0.58598 -0.21331
 C375 C 0.06459 0.56984 -0.19522
 C376 C 0.04835 0.57301 -0.06475
 C377 C 0.05467 0.59254 0.04701
 C378 C 0.07704 0.60865 0.02888
 H379 H 0.16638 0.65663 0.08171
 H380 H 0.20181 0.68958 0.04963
 H381 H 0.18509 0.69308 -0.44326
 H382 H 0.14979 0.66018 -0.40790
 H383 H 0.09923 0.58348 -0.31511
 H384 H 0.05977 0.55507 -0.28333
 H385 H 0.04220 0.59536 0.14763
 H386 H 0.08158 0.62377 0.11561
 C387 C 0.65502 1.15673 0.33056
 C388 C 0.66060 1.16684 0.18272
 C389 C 0.68081 1.18560 0.16210
 C390 C 0.69581 1.19467 0.28964
 C391 C 0.69019 1.18405 0.43794
 C392 C 0.66993 1.16525 0.45797
 C393 C 0.63351 1.13819 0.35123
 C394 C 0.61514 1.12301 0.36612
 C395 C 0.59283 1.10533 0.38148
 C396 C 0.57678 1.10015 0.25273
 C397 C 0.55451 1.08381 0.26823
 C398 C 0.54821 1.07236 0.41251
 C399 C 0.56439 1.07753 0.54124
 C400 C 0.58666 1.09391 0.52567
 H401 H 0.64913 1.16040 0.08335
 H402 H 0.68443 1.19318 0.04614
 H403 H 0.70123 1.19042 0.53908
 H404 H 0.66573 1.15757 0.57305
 H405 H 0.58132 1.10897 0.14080
 H406 H 0.54209 1.08019 0.16813
 H407 H 0.55958 1.06912 0.65376
 H408 H 0.59886 1.09791 0.62620
 C409 C 0.15516 0.34423 0.15997
 C410 C 0.16133 0.33483 0.30862
 C411 C 0.18129 0.31582 0.32877
 C412 C 0.19534 0.30593 0.20015
 C413 C 0.18922 0.31577 0.05128
 C414 C 0.16922 0.33478 0.03145
 C415 C 0.13377 0.36282 0.13908
 C416 C 0.11548 0.37795 0.12206
 C417 C 0.09321 0.39543 0.10175
 C418 C 0.07690 0.39230 -0.02800
 C419 C 0.05461 0.40844 -0.04516
 C420 C 0.04850 0.42796 0.06690
 C421 C 0.06490 0.43108 0.19685
 C422 C 0.08721 0.41489 0.21401
 H423 H 0.15052 0.34196 0.40885
 H424 H 0.18552 0.30868 0.44487
 H425 H 0.19965 0.30856 -0.05009
 H426 H 0.16454 0.34188 -0.08420
 H427 H 0.08126 0.37716 -0.11486
 H428 H 0.04199 0.40562 -0.14520
 H429 H 0.06022 0.44579 0.28542
 H430 H 0.09957 0.41732 0.31557
 C431 C 0.65550 0.84496 0.66942
 C432 C 0.66199 0.83597 0.81841
 C433 C 0.68200 0.81705 0.83886
 C434 C 0.69582 0.80683 0.71022
 C435 C 0.68941 0.81627 0.56089
 C436 C 0.66933 0.83520 0.54075
 C437 C 0.63406 0.86350 0.64900
 C438 C 0.61571 0.87863 0.63424
 C439 C 0.59337 0.89618 0.61912
 C440 C 0.57738 0.90124 0.74816
 C441 C 0.55504 0.91737 0.73301
 C442 C 0.54859 0.92874 0.58886
 C443 C 0.56469 0.92369 0.45969
 C444 C 0.58704 0.90750 0.47492
 H445 H 0.65137 0.84336 0.91874
 H446 H 0.68646 0.81025 0.95534
 H447 H 0.69966 0.80879 0.45953
 H448 H 0.66440 0.84198 0.42483
 H449 H 0.58202 0.89247 0.86002
 H450 H 0.54267 0.92090 0.83330
 H451 H 0.55975 0.93202 0.34717
 H452 H 0.59918 0.90357 0.37414
 C453 C 0.84453 0.15641 0.10920
 C454 C 0.83792 0.16440 0.25987
 C455 C 0.81774 0.18300 0.28394
 C456 C 0.80385 0.19391 0.15737
 C457 C 0.81041 0.18550 0.00626
 C458 C 0.83066 0.16688 -0.01753
 C459 C 0.86605 0.13807 0.08536
 C460 C 0.88441 0.12302 0.06808
 C461 C 0.90669 0.10543 0.05045
 C462 C 0.92365 0.10848 -0.07649
 C463 C 0.94601 0.09227 -0.08947
 C464 C 0.95151 0.07276 0.02394
 C465 C 0.93441 0.06973 0.15078
 C466 C 0.91207 0.08596 0.16373
 H467 H 0.84855 0.15645 0.35880
 H468 H 0.81319 0.18901 0.40173
 H469 H 0.80013 0.19355 -0.09356
 H470 H 0.83567 0.16088 -0.13472
 H471 H 0.91978 0.12363 -0.16408
 H472 H 0.95914 0.09504 -0.18721
 H473 H 0.93860 0.05506 0.24051
 H474 H 0.89922 0.08359 0.26318
 C475 C 0.34467 0.65633 0.61909
 C476 C 0.33808 0.66407 0.77024
 C477 C 0.31799 0.68273 0.79542
 C478 C 0.30417 0.69393 0.66944
 C479 C 0.31071 0.68578 0.51779
 C480 C 0.33088 0.66711 0.49290
 C481 C 0.36611 0.63793 0.59437
 C482 C 0.38443 0.62285 0.57664
 C483 C 0.40669 0.60526 0.55834
 C484 C 0.41199 0.58554 0.67034
 C485 C 0.43433 0.56932 0.65664
 C486 C 0.45149 0.57261 0.53031
 C487 C 0.44605 0.59236 0.41816
 C488 C 0.42370 0.60855 0.43187
 H489 H 0.34865 0.65589 0.86872
 H490 H 0.31344 0.68853 0.91359
 H491 H 0.30049 0.69404 0.41831
 H492 H 0.33587 0.66130 0.37531
 H493 H 0.39907 0.58296 0.76930
 H494 H 0.43846 0.55445 0.74539
 H495 H 0.45923 0.59532 0.32082
 H496 H 0.41988 0.62386 0.34512
   
