data_POSCAR
  _audit_creation_date              2014-09-24
  _audit_creation_method            'ToBaCCo'
  _symmetry_space_group_name_H-M    'P1'
  _symmetry_Int_Tables_number       1
  _symmetry_cell_setting            triclinic
  loop_
  _symmetry_equiv_pos_as_xyz
 x,y,z
_cell_length_a 62.8428
_cell_length_b 62.6803
_cell_length_c 62.8389
_cell_angle_alpha 89.936000
_cell_angle_beta 89.997700
_cell_angle_gamma 90.047200
loop_
  _atom_site_label
  _atom_site_type_symbol
  _atom_site_fract_x
  _atom_site_fract_y
  _atom_site_fract_z
N1 N 0.59969 0.65886 0.61667
 N2 N 0.59129 0.65012 0.63372
 C3 C 0.57413 0.66154 0.63962
 C4 C 0.57157 0.67837 0.62547
 C5 C 0.58818 0.67607 0.61112
 H6 H 0.56426 0.65786 0.65322
 H7 H 0.59172 0.68612 0.59760
 Cu8 Cu 0.60390 0.62471 0.64635
 Cu9 Cu 0.62495 0.64738 0.60278
 Cu10 Cu 0.64742 0.60212 0.62531
 N11 N 0.61652 0.59931 0.65900
 N12 N 0.63358 0.59062 0.65064
 C13 C 0.63917 0.57345 0.66222
 C14 C 0.62483 0.57110 0.67892
 C15 C 0.61067 0.58796 0.67626
 H16 H 0.65272 0.56351 0.65860
 H17 H 0.59711 0.59178 0.68609
 N18 N 0.65906 0.61614 0.59968
 N19 N 0.65050 0.63335 0.59113
 C20 C 0.66200 0.63905 0.57395
 C21 C 0.67865 0.62478 0.57149
 C22 C 0.67621 0.61047 0.58816
 H23 H 0.65846 0.65264 0.56399
 H24 H 0.68619 0.59691 0.59170
 H25 H 0.62065 0.61621 0.61241
 H26 H 0.63779 0.63335 0.62958
 N27 N 0.90072 0.34060 0.11639
 N28 N 0.90896 0.34914 0.13360
 C29 C 0.92595 0.33757 0.13967
 C30 C 0.92866 0.32082 0.12541
 C31 C 0.91218 0.32337 0.11086
 H32 H 0.93566 0.34125 0.15337
 H33 H 0.90879 0.31368 0.09707
 Cu34 Cu 0.89648 0.37470 0.14607
 Cu35 Cu 0.87656 0.35338 0.10170
 Cu36 Cu 0.85279 0.39729 0.12518
 N37 N 0.88400 0.40015 0.15865
 N38 N 0.86683 0.40878 0.15038
 C39 C 0.86124 0.42588 0.16201
 C40 C 0.87565 0.42820 0.17857
 C41 C 0.88987 0.41148 0.17588
 H42 H 0.84764 0.43583 0.15858
 H43 H 0.90344 0.40777 0.18576
 N44 N 0.84124 0.38314 0.09958
 N45 N 0.85012 0.36626 0.09075
 C46 C 0.83858 0.36047 0.07365
 C47 C 0.82161 0.37443 0.07147
 C48 C 0.82387 0.38857 0.08827
 H49 H 0.84238 0.34714 0.06346
 H50 H 0.81372 0.40195 0.09197
 H51 H 0.87984 0.38456 0.11238
 H52 H 0.86304 0.36625 0.12869
 N53 N 0.40031 0.15902 -0.11632
 N54 N 0.40896 0.15001 -0.13309
 C55 C 0.42615 0.16141 -0.13902
 C56 C 0.42847 0.17848 -0.12516
 C57 C 0.41169 0.17637 -0.11098
 H58 H 0.43616 0.15756 -0.15244
 H59 H 0.40793 0.18665 -0.09772
 Cu60 Cu 0.39639 0.12450 -0.14542
 Cu61 Cu 0.37490 0.14770 -0.10254
 Cu62 Cu 0.35235 0.10242 -0.12504
 N63 N 0.38372 0.09930 -0.15829
 N64 N 0.36637 0.09084 -0.15020
 C65 C 0.36065 0.07386 -0.16195
 C66 C 0.37517 0.07144 -0.17839
 C67 C 0.38959 0.08798 -0.17552
 H68 H 0.34689 0.06406 -0.15868
 H69 H 0.40331 0.09157 -0.18525
 N70 N 0.34064 0.11655 -0.09955
 N71 N 0.34922 0.13375 -0.09101
 C72 C 0.33773 0.13944 -0.07384
 C73 C 0.32105 0.12516 -0.07138
 C74 C 0.32348 0.11086 -0.08803
 H75 H 0.34131 0.15298 -0.06387
 H76 H 0.31352 0.09727 -0.09153
 H77 H 0.37890 0.11644 -0.11177
 H78 H 0.36227 0.13358 -0.12944
 N79 N 0.09935 0.84078 0.38350
 N80 N 0.09098 0.84950 0.36643
 C81 C 0.07374 0.83815 0.36056
 C82 C 0.07109 0.82126 0.37471
 C83 C 0.08778 0.82359 0.38906
 H84 H 0.06392 0.84199 0.34699
 H85 H 0.09140 0.81362 0.40261
 Cu86 Cu 0.10360 0.87493 0.35382
 Cu87 Cu 0.12466 0.85230 0.39734
 Cu88 Cu 0.14713 0.89763 0.37486
 N89 N 0.11619 0.90036 0.34121
 N90 N 0.13323 0.90912 0.34961
 C91 C 0.13874 0.92636 0.33810
 C92 C 0.12439 0.92865 0.32149
 C93 C 0.11026 0.91180 0.32405
 H94 H 0.15224 0.93642 0.34164
 H95 H 0.09668 0.90812 0.31418
 N96 N 0.15880 0.88356 0.40040
 N97 N 0.15027 0.86633 0.40896
 C98 C 0.16181 0.86066 0.42612
 C99 C 0.17845 0.87499 0.42855
 C100 C 0.17597 0.88928 0.41189
 H101 H 0.15829 0.84707 0.43611
 H102 H 0.18590 0.90289 0.40835
 H103 H 0.12037 0.88356 0.38768
 H104 H 0.13757 0.86647 0.37055
 N105 N 0.09926 0.15949 0.11644
 N106 N 0.09112 0.15101 0.13374
 C107 C 0.07391 0.16238 0.13960
 C108 C 0.07109 0.17893 0.12520
 C109 C 0.08756 0.17651 0.11071
 H110 H 0.06421 0.15884 0.15334
 H111 H 0.09089 0.18637 0.09700
 Cu112 Cu 0.10384 0.12598 0.14695
 Cu113 Cu 0.12444 0.14796 0.10260
 Cu114 Cu 0.14687 0.10280 0.12508
 N115 N 0.11633 0.10026 0.15900
 N116 N 0.13313 0.09132 0.15036
 C117 C 0.13853 0.07397 0.16174
 C118 C 0.12435 0.07181 0.17851
 C119 C 0.11046 0.08885 0.17619
 H120 H 0.15185 0.06376 0.15802
 H121 H 0.09708 0.09271 0.18626
 N122 N 0.15848 0.11675 0.09949
 N123 N 0.14995 0.13395 0.09092
 C124 C 0.16148 0.13965 0.07377
 C125 C 0.17813 0.12536 0.07135
 C126 C 0.17566 0.11107 0.08802
 H127 H 0.15797 0.15325 0.06380
 H128 H 0.18562 0.09751 0.09160
 H129 H 0.11975 0.11691 0.11278
 H130 H 0.13750 0.13407 0.12941
 N131 N 0.40030 0.84080 0.61668
 N132 N 0.40841 0.84925 0.63400
 C133 C 0.42565 0.83792 0.63987
 C134 C 0.42851 0.82139 0.62546
 C135 C 0.41205 0.82381 0.61096
 H136 H 0.43540 0.84150 0.65356
 H137 H 0.40876 0.81402 0.59722
 Cu138 Cu 0.39552 0.87446 0.64666
 Cu139 Cu 0.37512 0.85237 0.60266
 Cu140 Cu 0.35260 0.89763 0.62516
 N141 N 0.38317 0.89998 0.65921
 N142 N 0.36639 0.90898 0.65057
 C143 C 0.36103 0.92632 0.66193
 C144 C 0.37522 0.92845 0.67870
 C145 C 0.38910 0.91138 0.67639
 H146 H 0.34776 0.93659 0.65816
 H147 H 0.40253 0.90754 0.68640
 N148 N 0.34105 0.88368 0.59950
 N149 N 0.34960 0.86649 0.59095
 C150 C 0.33808 0.86080 0.57380
 C151 C 0.32141 0.87507 0.57136
 C152 C 0.32387 0.88936 0.58801
 H153 H 0.34158 0.84720 0.56386
 H154 H 0.31388 0.90289 0.59158
 H155 H 0.37950 0.88352 0.61253
 H156 H 0.36187 0.86637 0.62920
 N157 N 0.90052 0.65917 0.38328
 N158 N 0.90865 0.65070 0.36598
 C159 C 0.92591 0.66206 0.36012
 C160 C 0.92875 0.67863 0.37450
 C161 C 0.91226 0.67619 0.38898
 H162 H 0.93567 0.65848 0.34644
 H163 H 0.90895 0.68600 0.40271
 Cu164 Cu 0.89575 0.62545 0.35335
 Cu165 Cu 0.87530 0.64755 0.39728
 Cu166 Cu 0.85281 0.60221 0.37484
 N167 N 0.88343 0.59986 0.34082
 N168 N 0.86664 0.59085 0.34946
 C169 C 0.86130 0.57347 0.33812
 C170 C 0.87552 0.57134 0.32137
 C171 C 0.88938 0.58844 0.32367
 H172 H 0.84803 0.56318 0.34188
 H173 H 0.90283 0.59229 0.31367
 N174 N 0.84123 0.61619 0.40047
 N175 N 0.84977 0.63341 0.40900
 C176 C 0.83823 0.63911 0.42612
 C177 C 0.82156 0.62481 0.42858
 C178 C 0.82404 0.61050 0.41196
 H179 H 0.84172 0.65273 0.43604
 H180 H 0.81405 0.59694 0.40841
 H181 H 0.87968 0.61637 0.38746
 H182 H 0.86206 0.63346 0.37075
 N183 N 0.59981 0.34074 -0.11658
 N184 N 0.59170 0.34923 -0.13389
 C185 C 0.57443 0.33792 -0.13972
 C186 C 0.57157 0.32136 -0.12531
 C187 C 0.58806 0.32375 -0.11084
 H188 H 0.56466 0.34153 -0.15340
 H189 H 0.59135 0.31392 -0.09710
 Cu190 Cu 0.60459 0.37445 -0.14658
 Cu191 Cu 0.62502 0.35225 -0.10260
 Cu192 Cu 0.64756 0.39756 -0.12515
 N193 N 0.61694 0.40001 -0.15917
 N194 N 0.63375 0.40899 -0.15056
 C195 C 0.63910 0.42637 -0.16195
 C196 C 0.62487 0.42852 -0.17869
 C197 C 0.61099 0.41144 -0.17634
 H198 H 0.65239 0.43664 -0.15822
 H199 H 0.59753 0.40760 -0.18632
 N200 N 0.65913 0.38354 -0.09949
 N201 N 0.65056 0.36633 -0.09094
 C202 C 0.66208 0.36058 -0.07380
 C203 C 0.67878 0.37484 -0.07137
 C204 C 0.67633 0.38917 -0.08802
 H205 H 0.65856 0.34696 -0.06387
 H206 H 0.68635 0.40271 -0.09158
 H207 H 0.62064 0.38337 -0.11245
 H208 H 0.63822 0.36626 -0.12913
 C209 C -0.02339 0.27333 0.12556
 C210 C -0.02368 0.28895 0.14140
 C211 C -0.03947 0.30466 0.14140
 C212 C -0.05533 0.30501 0.12547
 C213 C -0.05471 0.28913 0.10955
 C214 C -0.03889 0.27348 0.10964
 C215 C -0.00719 0.25714 0.12564
 C216 C 0.00636 0.24354 0.12564
 C217 C 0.02254 0.22734 0.12555
 C218 C 0.03803 0.22722 0.10958
 C219 C 0.05378 0.21150 0.10944
 C220 C 0.05429 0.19562 0.12531
 C221 C 0.03858 0.19592 0.14131
 C222 C 0.02284 0.21167 0.14140
 H223 H -0.01169 0.28899 0.15380
 H224 H -0.03906 0.31640 0.15397
 H225 H -0.06635 0.28859 0.09691
 H226 H -0.03876 0.26147 0.09725
 H227 H 0.03793 0.23928 0.09722
 H228 H 0.06549 0.21190 0.09685
 H229 H 0.03833 0.18405 0.15380
 H230 H 0.01090 0.21162 0.15385
 C231 C 0.52302 0.72686 0.62570
 C232 C 0.53872 0.72688 0.60993
 C233 C 0.55448 0.71116 0.60984
 C234 C 0.55479 0.69511 0.62556
 C235 C 0.53887 0.69526 0.64134
 C236 C 0.52312 0.71101 0.64139
 C237 C 0.50683 0.74310 0.62577
 C238 C 0.49329 0.75671 0.62577
 C239 C 0.47711 0.77296 0.62569
 C240 C 0.47684 0.78860 0.64155
 C241 C 0.46110 0.80437 0.64149
 C242 C 0.44536 0.80472 0.62552
 C243 C 0.44586 0.78889 0.60963
 C244 C 0.46161 0.77315 0.60974
 H245 H 0.53878 0.73907 0.59769
 H246 H 0.56636 0.71170 0.59741
 H247 H 0.53846 0.68327 0.65371
 H248 H 0.51102 0.71083 0.65367
 H249 H 0.48879 0.78860 0.65398
 H250 H 0.46136 0.81620 0.65399
 H251 H 0.43414 0.78851 0.59706
 H252 H 0.46167 0.76112 0.59737
 C253 C 1.02329 0.77340 0.37425
 C254 C 1.02342 0.78929 0.35863
 C255 C 1.03915 0.80510 0.35874
 C256 C 1.05514 0.80532 0.37455
 C257 C 1.05474 0.78912 0.39020
 C258 C 1.03897 0.77336 0.39001
 C259 C 1.00708 0.75714 0.37415
 C260 C 0.99353 0.74349 0.37414
 C261 C 0.97735 0.72720 0.37423
 C262 C 0.96182 0.72699 0.39017
 C263 C 0.94608 0.71121 0.39029
 C264 C 0.94560 0.69534 0.37443
 C265 C 0.96136 0.69571 0.35848
 C266 C 0.97709 0.71152 0.35841
 H267 H 1.01132 0.78945 0.34635
 H268 H 1.03860 0.81705 0.34634
 H269 H 1.06652 0.78841 0.40270
 H270 H 1.03901 0.76111 0.40219
 H271 H 0.96186 0.73904 0.40251
 H272 H 0.93434 0.71158 0.40285
 H273 H 0.96164 0.68386 0.34601
 H274 H 0.98905 0.71152 0.34599
 C275 C 0.47697 0.22699 -0.12554
 C276 C 0.46106 0.22722 -0.10999
 C277 C 0.44529 0.21151 -0.10989
 C278 C 0.44519 0.19526 -0.12536
 C279 C 0.46131 0.19521 -0.14094
 C280 C 0.47707 0.21097 -0.14100
 C281 C 0.49318 0.24318 -0.12559
 C282 C 0.50674 0.25677 -0.12558
 C283 C 0.52293 0.27299 -0.12551
 C284 C 0.52320 0.28866 -0.14136
 C285 C 0.53896 0.30441 -0.14131
 C286 C 0.55471 0.30472 -0.12536
 C287 C 0.55421 0.28884 -0.10947
 C288 C 0.53844 0.27312 -0.10957
 H289 H 0.46085 0.23956 -0.09793
 H290 H 0.43326 0.21220 -0.09762
 H291 H 0.46187 0.18307 -0.15313
 H292 H 0.48934 0.21064 -0.15311
 H293 H 0.51124 0.28869 -0.15377
 H294 H 0.53870 0.31627 -0.15380
 H295 H 0.56595 0.28843 -0.09691
 H296 H 0.53837 0.26105 -0.09721
 C297 C 0.12406 -0.02280 0.27297
 C298 C 0.10841 -0.03866 0.27306
 C299 C 0.10848 -0.05445 0.28880
 C300 C 0.12426 -0.05459 0.30472
 C301 C 0.13995 -0.03852 0.30442
 C302 C 0.13983 -0.02277 0.28866
 C303 C 0.12397 -0.00656 0.25679
 C304 C 0.12395 0.00706 0.24324
 C305 C 0.12402 0.02328 0.22704
 C306 C 0.10854 0.03930 0.22713
 C307 C 0.10861 0.05507 0.21137
 C308 C 0.12420 0.05504 0.19527
 C309 C 0.13970 0.03881 0.19538
 C310 C 0.13958 0.02308 0.21115
 H311 H 0.09613 -0.03884 0.26095
 H312 H 0.09615 -0.06646 0.28839
 H313 H 0.15239 -0.03799 0.31628
 H314 H 0.15205 -0.01056 0.28871
 H315 H 0.09642 0.03961 0.23938
 H316 H 0.09641 0.06720 0.21192
 H317 H 0.15197 0.03814 0.18335
 H318 H 0.15165 0.01074 0.21094
 C319 C 0.62444 0.52329 -0.27323
 C320 C 0.64019 0.52327 -0.28893
 C321 C 0.64036 0.53901 -0.30471
 C322 C 0.62469 0.55518 -0.30512
 C323 C 0.60890 0.55493 -0.28912
 C324 C 0.60882 0.53914 -0.27336
 C325 C 0.62435 0.50705 -0.25700
 C326 C 0.62434 0.49343 -0.24342
 C327 C 0.62441 0.47718 -0.22720
 C328 C 0.64001 0.47737 -0.21133
 C329 C 0.64015 0.46161 -0.19557
 C330 C 0.62465 0.44535 -0.19543
 C331 C 0.60902 0.44534 -0.21150
 C332 C 0.60893 0.46114 -0.22725
 H333 H 0.65237 0.51105 -0.28896
 H334 H 0.65285 0.53832 -0.31650
 H335 H 0.59650 0.56685 -0.28857
 H336 H 0.59654 0.53928 -0.26125
 H337 H 0.65210 0.48970 -0.21114
 H338 H 0.65245 0.46227 -0.18357
 H339 H 0.59682 0.43319 -0.21204
 H340 H 0.59678 0.46083 -0.23948
 C341 C 0.37547 1.02304 0.77303
 C342 C 0.35948 1.02321 0.78851
 C343 C 0.35935 1.03894 0.80425
 C344 C 0.37525 1.05479 0.80477
 C345 C 0.39125 1.05446 0.78906
 C346 C 0.39133 1.03870 0.77333
 C347 C 0.37557 1.00681 0.75687
 C348 C 0.37560 0.99321 0.74332
 C349 C 0.37556 0.97700 0.72714
 C350 C 0.36001 0.97721 0.71123
 C351 C 0.35991 0.96148 0.69549
 C352 C 0.37541 0.94524 0.69540
 C353 C 0.39100 0.94522 0.71152
 C354 C 0.39104 0.96099 0.72725
 H355 H 0.34711 1.01116 0.78842
 H356 H 0.34676 1.03855 0.81595
 H357 H 0.40376 1.06631 0.78882
 H358 H 0.40379 1.03872 0.76141
 H359 H 0.34793 0.98953 0.71100
 H360 H 0.34764 0.96215 0.68346
 H361 H 0.40320 0.93309 0.71209
 H362 H 0.40316 0.96068 0.73951
 C363 C 0.87597 0.47665 0.22710
 C364 C 0.86015 0.47661 0.21146
 C365 C 0.86002 0.46088 0.19573
 C366 C 0.87577 0.44489 0.19537
 C367 C 0.89162 0.44511 0.21122
 C368 C 0.89170 0.46088 0.22695
 C369 C 0.87605 0.49288 0.24328
 C370 C 0.87604 0.50648 0.25682
 C371 C 0.87597 0.52271 0.27300
 C372 C 0.86039 0.52249 0.28888
 C373 C 0.86025 0.53824 0.30460
 C374 C 0.87573 0.55452 0.30469
 C375 C 0.89135 0.55455 0.28860
 C376 C 0.89144 0.53876 0.27289
 H377 H 0.84789 0.48876 0.21142
 H378 H 0.84755 0.46136 0.18390
 H379 H 0.90402 0.43317 0.21159
 H380 H 0.90404 0.46077 0.23900
 H381 H 0.84831 0.51014 0.28911
 H382 H 0.84796 0.53756 0.31661
 H383 H 0.90354 0.56671 0.28802
 H384 H 0.90357 0.53908 0.26064
 C385 C 0.27261 0.12521 -0.02293
 C386 C 0.27264 0.10943 -0.03863
 C387 C 0.28837 0.10937 -0.05436
 C388 C 0.30434 0.12516 -0.05463
 C389 C 0.30411 0.14097 -0.03871
 C390 C 0.28836 0.14097 -0.02300
 C391 C 0.25641 0.12525 -0.00677
 C392 C 0.24283 0.12528 0.00678
 C393 C 0.22664 0.12532 0.02295
 C394 C 0.22655 0.10955 0.03871
 C395 C 0.21082 0.10955 0.05444
 C396 C 0.19490 0.12536 0.05464
 C397 C 0.19519 0.14115 0.03867
 C398 C 0.21094 0.14111 0.02297
 H399 H 0.26050 0.09714 -0.03872
 H400 H 0.28789 0.09693 -0.06624
 H401 H 0.31604 0.15340 -0.03826
 H402 H 0.28848 0.15328 -0.01090
 H403 H 0.23865 0.09724 0.03884
 H404 H 0.21126 0.09712 0.06636
 H405 H 0.18330 0.15360 0.03818
 H406 H 0.21087 0.15340 0.01083
 C407 C 0.72709 0.62487 0.52297
 C408 C 0.71137 0.64063 0.52304
 C409 C 0.69564 0.64064 0.53878
 C410 C 0.69539 0.62482 0.55473
 C411 C 0.71134 0.60904 0.55447
 C412 C 0.72705 0.60908 0.53871
 C413 C 0.74326 0.62488 0.50675
 C414 C 0.75682 0.62487 0.49318
 C415 C 0.77301 0.62487 0.47698
 C416 C 0.78875 0.64065 0.47690
 C417 C 0.80451 0.64067 0.46120
 C418 C 0.80478 0.62484 0.44529
 C419 C 0.78882 0.60903 0.44556
 C420 C 0.77308 0.60907 0.46129
 H421 H 0.71125 0.65294 0.51092
 H422 H 0.68374 0.65307 0.53833
 H423 H 0.71181 0.59659 0.56637
 H424 H 0.73916 0.59679 0.53880
 H425 H 0.78885 0.65297 0.48899
 H426 H 0.81641 0.65311 0.46164
 H427 H 0.78838 0.59658 0.43370
 H428 H 0.76097 0.59676 0.46121
 C429 C 0.77328 0.37456 0.02289
 C430 C 0.78925 0.35905 0.02270
 C431 C 0.80496 0.35898 0.03845
 C432 C 0.80491 0.37446 0.05469
 C433 C 0.78874 0.39002 0.05466
 C434 C 0.77306 0.39004 0.03888
 C435 C 0.75709 0.37458 0.00671
 C436 C 0.74352 0.37460 -0.00684
 C437 C 0.72731 0.37465 -0.02300
 C438 C 0.71155 0.35889 -0.02305
 C439 C 0.69579 0.35892 -0.03874
 C440 C 0.69555 0.37476 -0.05467
 C441 C 0.71154 0.39053 -0.05444
 C442 C 0.72727 0.39045 -0.03872
 H443 H 0.78957 0.34699 0.01036
 H444 H 0.81706 0.34676 0.03780
 H445 H 0.78807 0.40224 0.06677
 H446 H 0.76077 0.40215 0.03917
 H447 H 0.71144 0.34657 -0.01094
 H448 H 0.68386 0.34650 -0.03828
 H449 H 0.71200 0.40299 -0.06632
 H450 H 0.73941 0.40274 -0.03882
 C451 C 0.22697 0.87510 0.47698
 C452 C 0.21126 0.85928 0.47694
 C453 C 0.19550 0.85923 0.46124
 C454 C 0.19521 0.87504 0.44529
 C455 C 0.21113 0.89089 0.44552
 C456 C 0.22687 0.89089 0.46125
 C457 C 0.24317 0.87511 0.49316
 C458 C 0.25674 0.87511 0.50672
 C459 C 0.27293 0.87509 0.52291
 C460 C 0.28864 0.85931 0.52297
 C461 C 0.30438 0.85927 0.53870
 C462 C 0.30465 0.87506 0.55464
 C463 C 0.28870 0.89085 0.55439
 C464 C 0.27299 0.89084 0.53865
 H465 H 0.21120 0.84697 0.48906
 H466 H 0.18363 0.84676 0.46172
 H467 H 0.21155 0.90334 0.43362
 H468 H 0.23896 0.90322 0.46113
 H469 H 0.28874 0.84703 0.51086
 H470 H 0.31627 0.84684 0.53824
 H471 H 0.28825 0.90327 0.56630
 H472 H 0.26088 0.90314 0.53875
   
