data_POSCAR
  _audit_creation_date              2014-09-24
  _audit_creation_method            'ToBaCCo'
  _symmetry_space_group_name_H-M    'P1'
  _symmetry_Int_Tables_number       1
  _symmetry_cell_setting            triclinic
  loop_
  _symmetry_equiv_pos_as_xyz
 x,y,z
_cell_length_a 32.5246
_cell_length_b 32.8823
_cell_length_c 32.5440
_cell_angle_alpha 90.000000
_cell_angle_beta 89.315300
_cell_angle_gamma 90.000000
loop_
  _atom_site_label
  _atom_site_type_symbol
  _atom_site_fract_x
  _atom_site_fract_y
  _atom_site_fract_z
N1 N 0.25581 0.27973 0.26023
 N2 N 0.69857 -0.27408 0.28826
 N3 N 0.79282 0.22218 0.78786
 N4 N 0.29051 -0.27635 0.70272
 N5 N 0.79282 -0.22214 0.78786
 N6 N 0.29051 0.27639 0.70272
 N7 N 0.25581 -0.27969 0.26023
 N8 N 0.69857 0.27412 0.28826
 O9 O 0.21531 0.03983 0.44451
 O10 O 0.22261 -0.03973 0.52398
 O11 O 0.22261 0.03977 0.52398
 O12 O 0.21531 -0.03979 0.44451
 O13 O 0.28304 -0.03967 0.43763
 O14 O 0.29032 0.03966 0.51691
 O15 O 0.29032 -0.03962 0.51691
 O16 O 0.28304 0.03971 0.43763
 Cu17 Cu 0.21211 0.00002 0.48493
 Cu18 Cu 0.29349 0.00002 0.47653
 C19 C 0.24803 0.05344 0.42794
 C20 C 0.25773 -0.05327 0.53364
 C21 C 0.25773 0.05331 0.53364
 C22 C 0.24803 -0.05340 0.42794
 O23 O 0.78773 0.03942 0.54482
 O24 O 0.77392 -0.03979 0.46608
 O25 O 0.77392 0.03984 0.46608
 O26 O 0.78773 -0.03938 0.54482
 O27 O 0.72074 -0.03935 0.55733
 O28 O 0.70696 0.03980 0.47865
 O29 O 0.70696 -0.03976 0.47865
 O30 O 0.72074 0.03939 0.55733
 Cu31 Cu 0.78755 0.00002 0.50397
 Cu32 Cu 0.70705 0.00002 0.51903
 C33 C 0.75661 0.05246 0.56467
 C34 C 0.73813 -0.05339 0.45933
 C35 C 0.73813 0.05343 0.45933
 C36 C 0.75661 -0.05242 0.56467
 O37 O 0.45061 0.22294 0.03050
 O38 O 0.53986 0.21638 -0.03994
 O39 O 0.52964 0.21900 0.03945
 O40 O 0.46030 0.22014 -0.04939
 O41 O 0.46400 0.28726 -0.05126
 O42 O 0.53319 0.28615 0.03733
 O43 O 0.54347 0.28351 -0.04195
 O44 O 0.45425 0.29007 0.02850
 Cu45 Cu 0.49465 0.21283 -0.00481
 Cu46 Cu 0.49899 0.29351 -0.00720
 C47 C 0.43776 0.25763 0.04187
 C48 C 0.55693 0.24882 -0.05258
 C49 C 0.54294 0.25245 0.05349
 C50 C 0.45052 0.25393 -0.06535
 O51 O 0.52964 0.78104 0.03945
 O52 O 0.46030 0.77990 -0.04939
 O53 O 0.45061 0.77710 0.03050
 O54 O 0.53986 0.78366 -0.03994
 O55 O 0.54347 0.71653 -0.04195
 O56 O 0.45425 0.70997 0.02850
 O57 O 0.46400 0.71278 -0.05126
 O58 O 0.53319 0.71390 0.03733
 Cu59 Cu 0.49465 0.78721 -0.00481
 Cu60 Cu 0.49899 0.70653 -0.00720
 C61 C 0.54294 0.74760 0.05349
 C62 C 0.45052 0.74611 -0.06535
 C63 C 0.43776 0.74241 0.04187
 C64 C 0.55693 0.75122 -0.05258
 O65 O 0.01286 0.46048 0.21884
 O66 O -0.06738 0.53958 0.22460
 O67 O 0.01286 0.53956 0.21884
 O68 O -0.06738 0.46046 0.22460
 O69 O -0.06330 0.46055 0.29239
 O70 O 0.01674 0.53947 0.28664
 O71 O -0.06330 0.53949 0.29239
 O72 O 0.01674 0.46057 0.28664
 Cu73 Cu -0.02768 0.50002 0.21487
 Cu74 Cu -0.02288 0.50002 0.29634
 C75 C 0.02855 0.44740 0.25182
 C76 C -0.07905 0.55268 0.25951
 C77 C 0.02855 0.55264 0.25182
 C78 C -0.07905 0.44736 0.25951
 O79 O 0.05808 0.53937 0.77313
 O80 O -0.02127 0.46017 0.78468
 O81 O 0.05808 0.46066 0.77313
 O82 O -0.02127 0.53987 0.78468
 O83 O -0.03038 0.53990 0.71746
 O84 O 0.04900 0.46065 0.70588
 O85 O -0.03038 0.46014 0.71746
 O86 O 0.04900 0.53939 0.70588
 Cu87 Cu 0.01905 0.50002 0.78573
 Cu88 Cu 0.00814 0.50002 0.70491
 C89 C 0.06725 0.55243 0.73751
 C90 C -0.03887 0.44644 0.75299
 C91 C 0.06725 0.44761 0.73751
 C92 C -0.03887 0.55360 0.75299
 C93 C 0.27879 0.27551 0.22431
 C94 C 0.29979 0.27211 0.19370
 C95 C 0.32592 0.26848 0.15896
 C96 C 0.34957 0.26565 0.13031
 C97 C 0.37880 0.26263 0.09805
 C98 C 0.40503 0.26025 0.07168
 C99 C 0.67701 0.73246 0.25234
 C100 C 0.65785 0.73734 0.22122
 C101 C 0.63481 0.74182 0.18503
 C102 C 0.61460 0.74462 0.15436
 C103 C 0.59028 0.74675 0.11879
 C104 C 0.56897 0.74763 0.08876
 C105 C 0.75675 0.22807 -0.18974
 C106 C 0.72552 0.23260 -0.16991
 C107 C 0.68919 0.23711 -0.14619
 C108 C 0.65841 0.24040 -0.12547
 C109 C 0.62267 0.24370 -0.10065
 C110 C 0.59247 0.24618 -0.07898
 C111 C 0.31276 0.72965 -0.26169
 C112 C 0.33257 0.73422 -0.23094
 C113 C 0.35639 0.73861 -0.19524
 C114 C 0.37725 0.74154 -0.16502
 C115 C 0.40225 0.74404 -0.12995
 C116 C 0.42406 0.74540 -0.10029
 C117 C 0.21963 0.30153 0.25574
 C118 C 0.18859 0.32130 0.25265
 C119 C 0.15297 0.34566 0.25025
 C120 C 0.12324 0.36749 0.24920
 C121 C 0.08928 0.39422 0.24907
 C122 C 0.06108 0.41799 0.24986
 C123 C 0.25527 0.70054 0.70879
 C124 C 0.22499 0.67988 0.71379
 C125 C 0.19014 0.65479 0.71930
 C126 C 0.16096 0.63258 0.72375
 C127 C 0.12749 0.60563 0.72871
 C128 C 0.09958 0.58179 0.73279
 C129 C -0.26641 0.70242 0.28253
 C130 C -0.23632 0.68143 0.27780
 C131 C -0.20167 0.65600 0.27272
 C132 C -0.17262 0.63352 0.26883
 C133 C -0.13927 0.60628 0.26488
 C134 C -0.11140 0.58224 0.26208
 C135 C -0.18481 0.25759 0.78142
 C136 C -0.16472 0.28803 0.77619
 C137 C -0.14020 0.32306 0.77057
 C138 C -0.11838 0.35240 0.76612
 C139 C -0.09177 0.38603 0.76128
 C140 C -0.06814 0.41404 0.75739
 C141 C 0.25133 0.24391 0.28234
 C142 C 0.24822 0.21310 0.30225
 C143 C 0.24580 0.17766 0.32662
 C144 C 0.24476 0.14800 0.34838
 C145 C 0.24473 0.11409 0.37496
 C146 C 0.24570 0.08591 0.39862
 C147 C 0.78725 0.19947 0.75243
 C148 C 0.78248 0.17910 0.72204
 C149 C 0.77696 0.15430 0.68713
 C150 C 0.77229 0.13228 0.65795
 C151 C 0.76683 0.10550 0.62456
 C152 C 0.76217 0.08176 0.59678
 C153 C 0.28387 -0.24102 0.68048
 C154 C 0.27846 -0.21068 0.66043
 C155 C 0.27272 -0.17581 0.63586
 C156 C 0.26836 -0.14665 0.61391
 C157 C 0.26392 -0.11325 0.58709
 C158 C 0.26074 -0.08544 0.56321
 C159 C 0.70535 -0.23905 0.31095
 C160 C 0.71101 -0.20904 0.33143
 C161 C 0.71732 -0.17462 0.35650
 C162 C 0.72245 -0.14585 0.37880
 C163 C 0.72817 -0.11289 0.40593
 C164 C 0.73283 -0.08537 0.42989
 C165 C 0.75675 0.77197 -0.18974
 C166 C 0.72552 0.76744 -0.16991
 C167 C 0.68919 0.76293 -0.14619
 C168 C 0.65841 0.75964 -0.12547
 C169 C 0.62267 0.75634 -0.10065
 C170 C 0.59247 0.75386 -0.07898
 C171 C 0.31276 0.27039 -0.26169
 C172 C 0.33257 0.26581 -0.23093
 C173 C 0.35639 0.26143 -0.19523
 C174 C 0.37725 0.25850 -0.16502
 C175 C 0.40225 0.25600 -0.12995
 C176 C 0.42406 0.25464 -0.10029
 C177 C 0.27879 0.72453 0.22431
 C178 C 0.29979 0.72793 0.19370
 C179 C 0.32592 0.73156 0.15896
 C180 C 0.34957 0.73439 0.13031
 C181 C 0.37880 0.73741 0.09805
 C182 C 0.40503 0.73979 0.07168
 C183 C 0.67701 0.26757 0.25234
 C184 C 0.65785 0.26269 0.22122
 C185 C 0.63481 0.25822 0.18503
 C186 C 0.61460 0.25542 0.15436
 C187 C 0.59028 0.25329 0.11879
 C188 C 0.56897 0.25241 0.08876
 C189 C -0.18481 0.74245 0.78142
 C190 C -0.16472 0.71201 0.77619
 C191 C -0.14020 0.67698 0.77057
 C192 C -0.11838 0.64764 0.76612
 C193 C -0.09177 0.61401 0.76128
 C194 C -0.06814 0.58600 0.75739
 C195 C -0.26641 0.29762 0.28253
 C196 C -0.23632 0.31861 0.27780
 C197 C -0.20167 0.34404 0.27272
 C198 C -0.17262 0.36652 0.26883
 C199 C -0.13927 0.39376 0.26488
 C200 C -0.11140 0.41780 0.26208
 C201 C 0.25527 0.29950 0.70879
 C202 C 0.22499 0.32016 0.71379
 C203 C 0.19014 0.34525 0.71930
 C204 C 0.16096 0.36746 0.72375
 C205 C 0.12749 0.39441 0.72871
 C206 C 0.09958 0.41825 0.73279
 C207 C 0.21963 0.69851 0.25575
 C208 C 0.18859 0.67875 0.25265
 C209 C 0.15297 0.65438 0.25025
 C210 C 0.12324 0.63255 0.24920
 C211 C 0.08928 0.60582 0.24907
 C212 C 0.06108 0.58205 0.24986
 C213 C 0.78724 -0.19943 0.75243
 C214 C 0.78248 -0.17906 0.72204
 C215 C 0.77696 -0.15426 0.68713
 C216 C 0.77229 -0.13224 0.65795
 C217 C 0.76683 -0.10546 0.62456
 C218 C 0.76217 -0.08172 0.59678
 C219 C 0.25133 -0.24387 0.28234
 C220 C 0.24822 -0.21306 0.30225
 C221 C 0.24580 -0.17762 0.32662
 C222 C 0.24476 -0.14796 0.34838
 C223 C 0.24473 -0.11405 0.37496
 C224 C 0.24570 -0.08587 0.39862
 C225 C 0.70535 0.23909 0.31095
 C226 C 0.71101 0.20908 0.33143
 C227 C 0.71732 0.17466 0.35650
 C228 C 0.72245 0.14589 0.37880
 C229 C 0.72817 0.11293 0.40593
 C230 C 0.73283 0.08541 0.42989
 C231 C 0.28387 0.24105 0.68048
 C232 C 0.27846 0.21071 0.66043
 C233 C 0.27272 0.17585 0.63586
 C234 C 0.26836 0.14669 0.61392
 C235 C 0.26392 0.11329 0.58709
 C236 C 0.26074 0.08548 0.56321
   
