data_POSCAR
  _audit_creation_date              2014-09-24
  _audit_creation_method            'ToBaCCo'
  _symmetry_space_group_name_H-M    'P1'
  _symmetry_Int_Tables_number       1
  _symmetry_cell_setting            triclinic
  loop_
  _symmetry_equiv_pos_as_xyz
 x,y,z
_cell_length_a 32.5497
_cell_length_b 32.4947
_cell_length_c 32.4556
_cell_angle_alpha 90.080500
_cell_angle_beta 90.006600
_cell_angle_gamma 90.174600
loop_
  _atom_site_label
  _atom_site_type_symbol
  _atom_site_fract_x
  _atom_site_fract_y
  _atom_site_fract_z
C1 C 0.37217 0.98280 -0.48051
 C2 C 0.37213 0.98317 -0.52279
 C3 C 0.41198 0.99243 -0.53500
 N4 N 0.43613 0.99801 -0.50157
 C5 C 0.41199 0.99186 -0.46825
 C6 C 0.42476 0.99824 -0.57622
 C7 C 0.46619 1.00422 -0.58816
 C8 C 0.47878 1.01698 -0.62700
 C9 C 0.52100 1.01655 -0.62699
 C10 C 0.53323 1.00358 -0.58814
 N11 N 0.49961 0.99588 -0.56482
 C12 C 0.57449 0.99694 -0.57610
 C13 C 0.58712 0.99170 -0.53476
 C14 C 0.62686 0.98254 -0.52231
 C15 C 0.62676 0.98295 -0.48003
 C16 C 0.58698 0.99227 -0.46801
 N17 N 0.56295 0.99790 -0.50149
 C18 C 0.57420 0.99800 -0.42686
 C19 C 0.53290 1.00391 -0.41486
 C20 C 0.52047 1.01634 -0.37589
 C21 C 0.47822 1.01598 -0.37590
 C22 C 0.46594 1.00340 -0.41489
 N23 N 0.49946 0.99581 -0.43830
 C24 C 0.42471 0.99699 -0.42698
 H25 H 0.34577 0.97704 -0.46105
 H26 H 0.34570 0.97773 -0.54231
 H27 H 0.49951 0.98144 -0.46685
 H28 H 0.45952 1.02534 -0.65284
 H29 H 0.54050 1.02454 -0.65280
 H30 H 0.65330 0.97672 -0.54167
 H31 H 0.65307 0.97745 -0.46041
 H32 H 0.45877 1.02378 -0.35001
 H33 H 0.49944 0.98126 -0.53642
 H34 H 0.53982 1.02443 -0.34998
 C35 C -0.47957 1.37110 -0.00106
 C36 C -0.52160 1.37095 0.00135
 C37 C -0.53391 1.41184 0.00192
 N38 N -0.50064 1.43674 0.00006
 C39 C -0.46737 1.41203 -0.00172
 C40 C -0.57530 1.42513 0.00277
 C41 C -0.58800 1.46686 0.00138
 C42 C -0.62839 1.47936 -0.00429
 C43 C -0.62822 1.52158 -0.00468
 C44 C -0.58778 1.53408 0.00080
 N45 N -0.56357 1.50050 0.00514
 C46 C -0.57489 1.57577 0.00158
 C47 C -0.53355 1.58924 0.00142
 C48 C -0.52135 1.63018 0.00098
 C49 C -0.47927 1.63032 -0.00058
 C50 C -0.46696 1.58944 -0.00097
 N51 N -0.50026 1.56453 0.00025
 C52 C -0.42557 1.57613 -0.00120
 C53 C -0.41289 1.53436 -0.00046
 C54 C -0.37250 1.52174 0.00496
 C55 C -0.37266 1.47952 0.00450
 C56 C -0.41311 1.46714 -0.00114
 N57 N -0.43732 1.50078 -0.00483
 C58 C -0.42603 1.42548 -0.00253
 H59 H -0.46022 1.34407 -0.00191
 H60 H -0.54091 1.34379 0.00227
 H61 H -0.46808 1.50079 -0.01292
 H62 H -0.65525 1.46005 -0.00832
 H63 H -0.65493 1.54086 -0.00902
 H64 H -0.54071 1.65719 0.00148
 H65 H -0.45994 1.65749 -0.00114
 H66 H -0.34596 1.46015 0.00847
 H67 H -0.53283 1.50059 0.01327
 H68 H -0.34563 1.54097 0.00930
 C69 C 0.01738 0.37241 0.52225
 C70 C 0.01787 0.37232 0.48000
 C71 C 0.00853 0.41207 0.46759
 N72 N 0.00212 0.43625 0.50089
 C73 C 0.00779 0.41223 0.53437
 C74 C 0.00334 0.42468 0.42625
 C75 C -0.00325 0.46599 0.41424
 C76 C -0.01602 0.47829 0.37533
 C77 C -0.01637 0.52059 0.37540
 C78 C -0.00379 0.53309 0.41432
 N79 N 0.00438 0.49963 0.43767
 C80 C 0.00221 0.57450 0.42631
 C81 C 0.00796 0.58737 0.46745
 C82 C 0.01732 0.62727 0.47948
 C83 C 0.01764 0.62744 0.52175
 C84 C 0.00838 0.58761 0.53419
 N85 N 0.00221 0.56333 0.50091
 C86 C 0.00297 0.57500 0.57550
 C87 C -0.00377 0.53365 0.58748
 C88 C -0.01692 0.52137 0.62628
 C89 C -0.01735 0.47908 0.62627
 C90 C -0.00440 0.46651 0.58748
 N91 N 0.00403 0.50000 0.56417
 C92 C 0.00175 0.42505 0.57556
 H93 H 0.02295 0.34607 0.54184
 H94 H 0.02388 0.34588 0.46060
 H95 H 0.01877 0.49987 0.53583
 H96 H -0.02390 0.45878 0.34942
 H97 H -0.02454 0.53994 0.34957
 H98 H 0.02289 0.65362 0.45987
 H99 H 0.02345 0.65397 0.54113
 H100 H -0.02579 0.45975 0.65207
 H101 H 0.01886 0.49979 0.46615
 H102 H -0.02501 0.54088 0.65208
 O103 O -0.10626 1.00182 -0.05559
 O104 O 0.10529 0.99936 -0.05573
 O105 O -0.00187 1.05636 -0.10588
 O106 O 0.00083 0.94494 -0.10609
 O107 O 0.00081 0.89468 -0.05583
 O108 O -0.00176 1.10658 -0.05545
 O109 O 0.05508 0.99930 -0.10603
 O110 O -0.05611 1.00194 -0.10595
 Zr111 Zr -0.00049 1.00064 -0.07246
 O112 O 0.03675 0.96336 -0.03738
 O113 O -0.03769 1.03789 -0.03719
 C114 C -0.09398 1.00253 -0.09359
 C115 C 0.09296 0.99864 -0.09371
 C116 C -0.00250 1.09429 -0.09346
 C117 C 0.00149 0.90700 -0.09380
 H118 H 0.05424 1.05546 -0.05464
 O119 O 0.03669 1.03786 -0.03708
 H120 H -0.05518 0.94579 -0.05476
 O121 O -0.03762 0.96339 -0.03716
 O122 O 0.10538 1.00219 0.05577
 O123 O -0.10618 0.99896 0.05591
 O124 O 0.05528 1.10666 0.00170
 O125 O 0.05501 0.89476 -0.00153
 O126 O -0.05615 0.89456 0.00136
 O127 O -0.05591 1.10646 -0.00111
 O128 O 0.00115 1.05625 0.10629
 O129 O -0.00182 0.94485 0.10609
 O130 O 0.00117 1.10654 0.05606
 O131 O -0.00193 0.89463 0.05566
 O132 O 0.10539 1.05649 0.00156
 O133 O -0.10614 1.05610 -0.00119
 O134 O -0.10628 0.94472 0.00148
 O135 O 0.10526 0.94511 -0.00147
 O136 O 0.05527 1.00207 0.10616
 O137 O -0.05598 0.99903 0.10622
 Zr138 Zr 0.07189 1.00074 0.00005
 Zr139 Zr -0.07277 1.00047 0.00014
 Zr140 Zr -0.00035 1.07306 0.00024
 Zr141 Zr -0.00053 0.92816 -0.00003
 Zr142 Zr -0.00038 1.00057 0.07266
 O143 O -0.03773 0.96319 0.03744
 O144 O 0.03690 1.03798 0.03753
 C145 C 0.09313 1.00283 0.09377
 C146 C -0.09386 0.99827 0.09389
 C147 C 0.09314 1.09440 0.00235
 C148 C 0.09291 0.90715 -0.00221
 C149 C -0.09401 0.90681 0.00209
 C150 C -0.09380 1.09406 -0.00184
 C151 C 0.00189 1.09420 0.09402
 C152 C -0.00255 0.90692 0.09367
 H153 H -0.05498 1.05522 0.05504
 O154 O -0.03748 1.03769 0.03742
 H155 H 0.05418 0.94596 0.05477
 O156 O 0.03665 0.96350 0.03723
 C157 C 0.39513 0.99928 0.39376
 C158 C 0.36897 1.00020 0.36747
 C159 C 0.33763 1.00126 0.33625
 C160 C 0.34826 1.00811 0.29506
 C161 C 0.31780 1.00899 0.26469
 C162 C 0.27625 1.00305 0.27519
 C163 C 0.26589 0.99628 0.31673
 C164 C 0.29641 0.99538 0.34703
 C165 C 0.24388 1.00368 0.24294
 C166 C 0.20592 1.02294 0.25040
 C167 C 0.17536 1.02321 0.22011
 C168 C 0.18231 1.00424 0.18202
 C169 C 0.21997 0.98509 0.17426
 C170 C 0.25058 0.98482 0.20447
 C171 C 0.15072 1.00411 0.15100
 C172 C 0.12435 1.00370 0.12492
 H173 H 0.38008 1.01281 0.28641
 H174 H 0.32670 1.01479 0.23308
 H175 H 0.23427 0.99107 0.32572
 H176 H 0.28787 0.98995 0.37884
 H177 H 0.20002 1.03818 0.27948
 H178 H 0.14634 1.03820 0.22641
 H179 H 0.22561 0.97019 0.14492
 H180 H 0.27924 0.96928 0.19799
 C181 C -0.39588 0.99682 0.39386
 C182 C -0.36969 0.99664 0.36759
 C183 C -0.33826 0.99638 0.33644
 C184 C -0.29711 0.99096 0.34759
 C185 C -0.26649 0.99076 0.31739
 C186 C -0.27667 0.99596 0.27558
 C187 C -0.31817 1.00132 0.26470
 C188 C -0.34874 1.00154 0.29496
 C189 C -0.24414 0.99592 0.24349
 C190 C -0.25058 0.97594 0.20552
 C191 C -0.21997 0.97607 0.17529
 C192 C -0.18258 0.99616 0.18257
 C193 C -0.17585 1.01607 0.22024
 C194 C -0.20638 1.01595 0.25052
 C195 C -0.15123 0.99663 0.15131
 C196 C -0.12500 0.99724 0.12511
 H197 H -0.28870 0.98681 0.37962
 H198 H -0.23491 0.98604 0.32669
 H199 H -0.32693 1.00593 0.23285
 H200 H -0.38051 1.00587 0.28603
 H201 H -0.27908 0.95980 0.19938
 H202 H -0.22546 0.96048 0.14626
 H203 H -0.14706 1.03185 0.22613
 H204 H -0.20070 1.03206 0.27920
 C205 C -0.39451 0.99900 -0.39509
 C206 C -0.36839 0.99982 -0.36877
 C207 C -0.33709 1.00075 -0.33749
 C208 C -0.34750 1.00937 -0.29656
 C209 C -0.31709 1.01014 -0.26613
 C210 C -0.27582 1.00223 -0.27629
 C211 C -0.26569 0.99367 -0.31757
 C212 C -0.29615 0.99295 -0.34794
 C213 C -0.24352 1.00272 -0.24397
 C214 C -0.21215 0.97301 -0.24403
 C215 C -0.18183 0.97336 -0.21353
 C216 C -0.18240 1.00339 -0.18259
 C217 C -0.21342 1.03311 -0.18226
 C218 C -0.24380 1.03280 -0.21272
 C219 C -0.15126 1.00349 -0.15112
 C220 C -0.12513 1.00324 -0.12481
 H221 H -0.37914 1.01535 -0.28814
 H222 H -0.32594 1.01630 -0.23457
 H223 H -0.23415 0.98800 -0.32646
 H224 H -0.28775 0.98637 -0.37957
 H225 H -0.21140 0.94913 -0.26732
 H226 H -0.15804 0.95012 -0.21399
 H227 H -0.21409 1.05655 -0.15849
 H228 H -0.26723 1.05638 -0.21213
 C229 C 0.39344 0.99691 -0.39520
 C230 C 0.36734 0.99677 -0.36885
 C231 C 0.33610 0.99657 -0.33752
 C232 C 0.29480 0.99153 -0.34845
 C233 C 0.26438 0.99139 -0.31805
 C234 C 0.27489 0.99626 -0.27626
 C235 C 0.31653 1.00124 -0.26560
 C236 C 0.34690 1.00141 -0.29606
 C237 C 0.24257 0.99628 -0.24396
 C238 C 0.24897 0.97602 -0.20621
 C239 C 0.21855 0.97620 -0.17579
 C240 C 0.18139 0.99663 -0.18266
 C241 C 0.17471 1.01683 -0.22011
 C242 C 0.20506 1.01666 -0.25058
 C243 C 0.15021 0.99709 -0.15125
 C244 C 0.12407 0.99768 -0.12495
 H245 H 0.28614 0.98763 -0.38045
 H246 H 0.23267 0.98696 -0.32719
 H247 H 0.32555 1.00559 -0.23378
 H248 H 0.37879 1.00544 -0.28729
 H249 H 0.27729 0.95963 -0.20040
 H250 H 0.22400 0.96039 -0.14694
 H251 H 0.14611 1.03286 -0.22568
 H252 H 0.19942 1.03298 -0.27908
 C253 C 0.39465 1.39541 0.00318
 C254 C 0.36831 1.36924 0.00355
 C255 C 0.33698 1.33794 0.00397
 C256 C 0.34797 1.29635 0.00403
 C257 C 0.31757 1.26587 0.00428
 C258 C 0.27572 1.27664 0.00450
 C259 C 0.26501 1.31857 0.00453
 C260 C 0.29547 1.34900 0.00424
 C261 C 0.24340 1.24428 0.00452
 C262 C 0.20790 1.24868 0.02887
 C263 C 0.17745 1.21823 0.02874
 C264 C 0.18204 1.18305 0.00427
 C265 C 0.21723 1.17837 -0.02002
 C266 C 0.24773 1.20875 -0.01991
 C267 C 0.15061 1.15183 0.00390
 C268 C 0.12433 1.12563 0.00333
 H269 H 0.38003 1.28748 0.00395
 H270 H 0.32679 1.23389 0.00480
 H271 H 0.23309 1.32784 0.00415
 H272 H 0.28666 1.38113 0.00408
 H273 H 0.20391 1.27542 0.04839
 H274 H 0.15036 1.22211 0.04773
 H275 H 0.22103 1.15131 -0.03918
 H276 H 0.27442 1.20472 -0.03939
 C277 C 0.39346 0.60709 0.00068
 C278 C 0.36719 0.63314 -0.00010
 C279 C 0.33586 0.66424 -0.00104
 C280 C 0.34683 0.70589 -0.00200
 C281 C 0.31640 0.73616 -0.00279
 C282 C 0.27456 0.72511 -0.00259
 C283 C 0.26388 0.68312 -0.00169
 C284 C 0.29436 0.65291 -0.00094
 C285 C 0.24222 0.75724 -0.00310
 C286 C 0.20682 0.75307 0.02146
 C287 C 0.17652 0.78346 0.02120
 C288 C 0.18113 0.81836 -0.00358
 C289 C 0.21616 0.82277 -0.02820
 C290 C 0.24653 0.79244 -0.02798
 C291 C 0.15005 0.84975 -0.00348
 C292 C 0.12398 0.87600 -0.00308
 H293 H 0.37888 0.71498 -0.00198
 H294 H 0.32561 0.76821 -0.00292
 H295 H 0.23197 0.67363 -0.00205
 H296 H 0.28556 0.62073 -0.00033
 H297 H 0.20286 0.72663 0.04134
 H298 H 0.14959 0.77982 0.04049
 H299 H 0.21999 0.84964 -0.04757
 H300 H 0.27316 0.79628 -0.04760
 C301 C -0.39552 0.60583 -0.00046
 C302 C -0.36914 0.63196 0.00023
 C303 C -0.33772 0.66315 0.00107
 C304 C -0.29625 0.65195 0.00065
 C305 C -0.26567 0.68225 0.00133
 C306 C -0.27622 0.72421 0.00248
 C307 C -0.31803 0.73513 0.00299
 C308 C -0.34855 0.70477 0.00227
 C309 C -0.24378 0.75644 0.00295
 C310 C -0.24783 0.79156 0.02803
 C311 C -0.21736 0.82199 0.02823
 C312 C -0.18250 0.81774 0.00339
 C313 C -0.17814 0.78290 -0.02160
 C314 C -0.20854 0.75243 -0.02183
 C315 C -0.15132 0.84922 0.00328
 C316 C -0.12516 0.87555 0.00291
 H317 H -0.28755 0.61979 -0.00015
 H318 H -0.23379 0.67285 0.00145
 H319 H -0.32713 0.76715 0.00333
 H320 H -0.38058 0.71376 0.00250
 H321 H -0.27433 0.79528 0.04783
 H322 H -0.22100 0.84880 0.04777
 H323 H -0.15132 0.77939 -0.04106
 H324 H -0.20477 0.72604 -0.04186
 C325 C -0.39439 1.39414 -0.00286
 C326 C -0.36815 1.36804 -0.00316
 C327 C -0.33693 1.33683 -0.00349
 C328 C -0.29538 1.34800 -0.00351
 C329 C -0.26501 1.31767 -0.00375
 C330 C -0.27585 1.27570 -0.00393
 C331 C -0.31774 1.26481 -0.00395
 C332 C -0.34804 1.29520 -0.00375
 C333 C -0.24363 1.24344 -0.00394
 C334 C -0.24819 1.20785 0.02032
 C335 C -0.21778 1.17757 0.02044
 C336 C -0.18247 1.18240 -0.00368
 C337 C -0.17766 1.21763 -0.02797
 C338 C -0.20802 1.24798 -0.02811
 C339 C -0.15112 1.15128 -0.00330
 C340 C -0.12491 1.12517 -0.00276
 H341 H -0.28646 1.38016 -0.00320
 H342 H -0.23306 1.32703 -0.00318
 H343 H -0.32706 1.23281 -0.00463
 H344 H -0.38013 1.28624 -0.00386
 H345 H -0.27497 1.20372 0.03967
 H346 H -0.22174 1.15047 0.03947
 H347 H -0.15048 1.22162 -0.04683
 H348 H -0.20386 1.27475 -0.04751
 C349 C 0.00355 1.39502 0.39615
 C350 C 0.00377 1.36887 0.36975
 C351 C 0.00406 1.33760 0.33835
 C352 C 0.00920 1.29627 0.34918
 C353 C 0.00939 1.26581 0.31872
 C354 C 0.00445 1.27633 0.27696
 C355 C -0.00062 1.31800 0.26640
 C356 C -0.00083 1.34841 0.29693
 C357 C 0.00444 1.24397 0.24460
 C358 C 0.02459 1.25056 0.20680
 C359 C 0.02439 1.22012 0.17631
 C360 C 0.00407 1.18274 0.18315
 C361 C -0.01602 1.17586 0.22064
 C362 C -0.01584 1.20624 0.25119
 C363 C 0.00357 1.15154 0.15166
 C364 C 0.00294 1.12537 0.12531
 H365 H 0.01314 1.28760 0.38116
 H366 H 0.01389 1.23409 0.32778
 H367 H -0.00503 1.32702 0.23461
 H368 H -0.00495 1.38032 0.28824
 H369 H 0.04090 1.27906 0.20100
 H370 H 0.04012 1.22572 0.14742
 H371 H -0.03197 1.14709 0.22620
 H372 H -0.03207 1.20044 0.27972
 C373 C 0.00073 1.39544 -0.39438
 C374 C -0.00016 1.36933 -0.36803
 C375 C -0.00119 1.33808 -0.33670
 C376 C -0.00869 1.34884 -0.29563
 C377 C -0.00954 1.31849 -0.26514
 C378 C -0.00291 1.27693 -0.27538
 C379 C 0.00452 1.26645 -0.31680
 C380 C 0.00538 1.29686 -0.34723
 C381 C -0.00351 1.24468 -0.24300
 C382 C -0.02212 1.20624 -0.25052
 C383 C -0.02235 1.17580 -0.22011
 C384 C -0.00400 1.18334 -0.18184
 C385 C 0.01449 1.22149 -0.17401
 C386 C 0.01473 1.25199 -0.20435
 C387 C -0.00380 1.15185 -0.15071
 C388 C -0.00337 1.12553 -0.12459
 H389 H -0.01394 1.38066 -0.28718
 H390 H -0.01585 1.32747 -0.23364
 H391 H 0.01027 1.23484 -0.32559
 H392 H 0.01133 1.28823 -0.37893
 H393 H -0.03688 1.19988 -0.27975
 H394 H -0.03683 1.14640 -0.22646
 H395 H 0.02891 1.22759 -0.14453
 H396 H 0.02976 1.28104 -0.19780
 C397 C 0.00302 0.60469 -0.39444
 C398 C 0.00311 0.63090 -0.36810
 C399 C 0.00326 0.66227 -0.33679
 C400 C 0.01300 0.70294 -0.34708
 C401 C 0.01311 0.73350 -0.31671
 C402 C 0.00345 0.72373 -0.27560
 C403 C -0.00628 0.68271 -0.26558
 C404 C -0.00634 0.65220 -0.29600
 C405 C 0.00338 0.75620 -0.24334
 C406 C -0.02741 0.75690 -0.21292
 C407 C -0.02754 0.78755 -0.18265
 C408 C 0.00308 0.81787 -0.18234
 C409 C 0.03388 0.81744 -0.21241
 C410 C 0.03405 0.78683 -0.24274
 C411 C 0.00280 0.84942 -0.15119
 C412 C 0.00234 0.87578 -0.12503
 H413 H 0.02037 0.71107 -0.37860
 H414 H 0.02019 0.76486 -0.32549
 H415 H -0.01333 0.67412 -0.23414
 H416 H -0.01380 0.62077 -0.28771
 H417 H -0.05174 0.73410 -0.21287
 H418 H -0.05160 0.78768 -0.15958
 H419 H 0.05779 0.84070 -0.21238
 H420 H 0.05846 0.78682 -0.26540
 C421 C 0.00120 0.60580 0.39456
 C422 C 0.00034 0.63190 0.36823
 C423 C -0.00068 0.66313 0.33689
 C424 C 0.00394 0.70460 0.34766
 C425 C 0.00305 0.73499 0.31724
 C426 C -0.00245 0.72426 0.27557
 C427 C -0.00711 0.68247 0.26507
 C428 C -0.00624 0.65213 0.29556
 C429 C -0.00311 0.75651 0.24319
 C430 C 0.01681 0.75010 0.20525
 C431 C 0.01647 0.78060 0.17491
 C432 C -0.00379 0.81785 0.18204
 C433 C -0.02380 0.82450 0.21961
 C434 C -0.02348 0.79406 0.25001
 C435 C -0.00372 0.84935 0.15092
 C436 C -0.00336 0.87568 0.12480
 H437 H 0.00838 0.71342 0.37957
 H438 H 0.00727 0.76682 0.32624
 H439 H -0.01191 0.67328 0.23335
 H440 H -0.00997 0.62012 0.28692
 H441 H 0.03321 0.72177 0.19927
 H442 H 0.03219 0.77520 0.14599
 H443 H -0.03965 0.85320 0.22541
 H444 H -0.03953 0.79971 0.27868
   
