data_POSCAR
  _audit_creation_date              2014-09-24
  _audit_creation_method            'ToBaCCo'
  _symmetry_space_group_name_H-M    'P1'
  _symmetry_Int_Tables_number       1
  _symmetry_cell_setting            triclinic
  loop_
  _symmetry_equiv_pos_as_xyz
 x,y,z
_cell_length_a 22.9747
_cell_length_b 22.9976
_cell_length_c 23.0423
_cell_angle_alpha 90.138700
_cell_angle_beta 89.367700
_cell_angle_gamma 86.137100
loop_
  _atom_site_label
  _atom_site_type_symbol
  _atom_site_fract_x
  _atom_site_fract_y
  _atom_site_fract_z
C1 C 0.60782 0.35340 -0.00224
 C2 C 0.64848 0.39367 0.00281
 C3 C 0.61844 0.44800 0.00385
 N4 N 0.56046 0.44190 -0.00024
 C5 C 0.55387 0.38399 -0.00394
 C6 C 0.64389 0.50175 0.01203
 C7 C 0.60911 0.55288 0.02630
 C8 C 0.62579 0.59607 0.06342
 C9 C 0.58243 0.63995 0.06248
 C10 C 0.54029 0.62244 0.02486
 N11 N 0.55584 0.56830 0.00436
 C12 C 0.49001 0.65722 0.00891
 C13 C 0.43602 0.63205 0.00087
 C14 C 0.38182 0.66240 -0.00067
 C15 C 0.34117 0.62182 -0.00487
 C16 C 0.37147 0.56770 -0.00575
 N17 N 0.42947 0.57406 -0.00223
 C18 C 0.34607 0.51393 -0.01334
 C19 C 0.38030 0.46248 -0.02724
 C20 C 0.36239 0.41857 -0.06271
 C21 C 0.40582 0.37474 -0.06234
 C22 C 0.44915 0.39301 -0.02666
 N23 N 0.43421 0.44748 -0.00669
 C24 C 0.50019 0.35879 -0.01237
 H25 H 0.61804 0.30710 -0.00589
 H26 H 0.69465 0.38297 0.00687
 H27 H 0.45640 0.47021 0.02439
 H28 H 0.66470 0.59558 0.08948
 H29 H 0.58155 0.67979 0.08762
 H30 H 0.37157 0.70875 0.00266
 H31 H 0.29483 0.63196 -0.00851
 H32 H 0.40613 0.33471 -0.08713
 H33 H 0.53460 0.54621 -0.02791
 H34 H 0.32279 0.41867 -0.08769
 C35 C -0.05623 0.59437 0.63977
 C36 C -0.05560 0.63652 0.59788
 C37 C -0.01948 0.61427 0.55354
 N38 N -0.00058 0.55880 0.56562
 C39 C -0.02271 0.54655 0.61845
 C40 C 0.00024 0.64507 0.50498
 C41 C 0.01508 0.61453 0.45248
 C42 C 0.04372 0.63635 0.40463
 C43 C 0.04567 0.59414 0.36250
 C44 C 0.01627 0.54828 0.38418
 N45 N -0.00120 0.56035 0.43945
 C46 C 0.00336 0.49834 0.35210
 C47 C -0.00097 0.44350 0.37931
 C48 C -0.00787 0.39114 0.35104
 C49 C -0.00577 0.34856 0.39242
 C50 C 0.00264 0.37572 0.44499
 N51 N 0.00637 0.43368 0.43676
 C52 C 0.01158 0.34714 0.49878
 C53 C 0.02332 0.37898 0.54902
 C54 C 0.05969 0.35970 0.59346
 C55 C 0.05493 0.40186 0.63605
 C56 C 0.01526 0.44526 0.61648
 N57 N -0.00221 0.43195 0.56250
 C58 C -0.00751 0.49428 0.64818
 H59 H -0.07968 0.59932 0.68036
 H60 H -0.08063 0.67797 0.59956
 H61 H -0.03490 0.45479 0.53897
 H62 H 0.06137 0.67807 0.39874
 H63 H 0.06744 0.59702 0.32090
 H64 H -0.01112 0.38271 0.30526
 H65 H -0.00756 0.30271 0.38339
 H66 H 0.07985 0.40136 0.67554
 H67 H -0.02842 0.53562 0.46442
 H68 H 0.08810 0.32023 0.59440
 C69 C 0.37784 -0.07098 0.59181
 C70 C 0.41867 -0.06612 0.63432
 C71 C 0.45461 -0.02358 0.61600
 N72 N 0.43836 -0.00367 0.56313
 C73 C 0.39096 -0.03193 0.54886
 C74 C 0.49984 -0.00033 0.64758
 C75 C 0.54923 0.01817 0.61687
 C76 C 0.59102 0.05352 0.63771
 C77 C 0.63317 0.05592 0.59514
 C78 C 0.61776 0.01996 0.55038
 N79 N 0.56571 -0.00132 0.56315
 C80 C 0.65291 0.00240 0.50170
 C81 C 0.62610 -0.01047 0.44821
 C82 C 0.65348 -0.03593 0.39956
 C83 C 0.61193 -0.03850 0.35772
 C84 C 0.56084 -0.01220 0.38051
 N85 N 0.56934 0.00419 0.43615
 C86 C 0.50810 -0.00144 0.34978
 C87 C 0.45299 0.00246 0.37893
 C88 C 0.39926 0.01437 0.35296
 C89 C 0.35712 0.00928 0.39480
 C90 C 0.38549 -0.00573 0.44581
 N91 N 0.44385 -0.01054 0.43552
 C92 C 0.35798 -0.01945 0.49896
 H93 H 0.34387 -0.10134 0.59151
 H94 H 0.42276 -0.09278 0.67282
 H95 H 0.47518 -0.02714 0.46438
 H96 H 0.59241 0.07562 0.67884
 H97 H 0.67043 0.08210 0.59705
 H98 H 0.69817 -0.05206 0.39350
 H99 H 0.61861 -0.06021 0.31638
 H100 H 0.31095 0.01377 0.38670
 H101 H 0.54611 -0.03326 0.53943
 H102 H 0.38957 0.02335 0.30820
 O103 O 0.45100 0.00839 -0.08162
 O104 O 0.45446 0.01075 0.07839
 O105 O 0.45065 0.08959 -0.00274
 O106 O 0.44927 -0.06989 -0.00010
 O107 O 0.54567 -0.07764 -0.00360
 O108 O 0.54710 0.08252 -0.00580
 O109 O 0.55088 0.00369 0.07502
 O110 O 0.54744 0.00187 -0.08444
 Cu111 Cu 0.44165 0.01045 -0.00123
 Cu112 Cu 0.55749 0.00175 -0.00501
 C113 C 0.49879 0.00523 -0.11008
 C114 C 0.50339 0.00751 0.10375
 C115 C 0.49897 0.11308 -0.00486
 C116 C 0.49705 -0.10083 -0.00119
 O117 O -0.09090 0.55281 1.00236
 O118 O 0.06860 0.55606 0.99622
 O119 O -0.01359 0.55007 0.91955
 O120 O -0.00942 0.55284 1.07946
 O121 O -0.00102 0.45650 1.08007
 O122 O -0.00369 0.45377 0.92119
 O123 O 0.07756 0.45977 0.99831
 O124 O -0.08248 0.45644 1.00323
 Cu125 Cu -0.01199 0.56270 0.99929
 Cu126 Cu -0.00147 0.44692 1.00079
 C127 C -0.11370 0.50417 1.00378
 C128 C 0.10013 0.50864 0.99625
 C129 C -0.00948 0.50124 0.89342
 C130 C -0.00499 0.50485 1.10676
 O131 O 0.00756 -0.08612 0.45801
 O132 O 0.00252 0.07403 0.45702
 O133 O 0.08458 -0.00904 0.45753
 O134 O -0.07569 -0.00400 0.45756
 O135 O -0.07699 -0.00078 0.55345
 O136 O 0.08378 -0.01013 0.55349
 O137 O 0.00326 0.07512 0.55293
 O138 O 0.00417 -0.08506 0.55396
 Cu139 Cu 0.00463 -0.00617 0.44785
 Cu140 Cu 0.00329 -0.00491 0.56317
 C141 C 0.00652 -0.11267 0.50616
 C142 C 0.00316 0.10167 0.50472
 C143 C 0.11133 -0.01099 0.50542
 C144 C -0.10351 -0.00197 0.50548
 C145 C -0.21261 0.44857 1.01086
 C146 C -0.25245 0.47939 1.05795
 C147 C -0.29340 0.50366 1.01013
 C148 C -0.25406 0.47309 0.96283
 C149 C -0.25860 0.55875 1.00473
 C150 C -0.21727 0.53441 1.05288
 C151 C -0.17840 0.50342 1.00607
 C152 C -0.21882 0.52778 0.95805
 H153 H -0.19307 0.40317 1.01313
 H154 H -0.26652 0.45948 1.09918
 H155 H -0.26907 0.44808 0.92519
 H156 H -0.27578 0.60480 1.00064
 H157 H -0.20145 0.55978 1.08988
 H158 H -0.20428 0.54758 0.91693
 C159 C 0.20582 0.48792 1.04224
 C160 C 0.24588 0.45632 0.99621
 C161 C 0.27987 0.51177 0.98918
 C162 C 0.24022 0.54306 1.03575
 C163 C 0.23842 0.53409 0.94094
 C164 C 0.20410 0.47866 0.94763
 C165 C 0.16490 0.51026 0.99378
 C166 C 0.19829 0.56561 0.98732
 H167 H 0.19178 0.46897 1.08397
 H168 H 0.26394 0.41069 1.00140
 H169 H 0.25506 0.56939 1.07252
 H170 H 0.25213 0.55313 0.89915
 H171 H 0.18867 0.45198 0.91141
 H172 H 0.17820 0.61071 0.98388
 C173 C 0.01576 -0.21715 0.45318
 C174 C 0.05736 -0.25891 0.48881
 C175 C 0.00442 -0.29239 0.50845
 C176 C -0.03695 -0.25083 0.47330
 C177 C -0.00369 -0.25196 0.56233
 C178 C 0.04858 -0.21807 0.54194
 C179 C 0.00691 -0.17745 0.50665
 C180 C -0.04545 -0.21035 0.52701
 H181 H 0.02397 -0.20244 0.40816
 H182 H 0.10114 -0.27780 0.47520
 H183 H -0.07241 -0.26423 0.44487
 H184 H -0.00840 -0.26249 0.60900
 H185 H 0.08388 -0.20387 0.57014
 H186 H -0.08783 -0.18984 0.54282
 C187 C 0.05469 0.19949 0.52946
 C188 C 0.05497 0.23756 0.47405
 C189 C 0.00950 0.28111 0.50259
 C190 C 0.00895 0.24342 0.55811
 C191 C -0.04066 0.24757 0.47761
 C192 C 0.00498 0.20365 0.44880
 C193 C 0.00486 0.16644 0.50405
 C194 C -0.04079 0.20943 0.53272
 H195 H 0.09394 0.17909 0.55095
 H196 H 0.09451 0.24934 0.44986
 H197 H 0.00906 0.25788 0.60405
 H198 H -0.08041 0.26738 0.45651
 H199 H 0.00310 0.18689 0.40368
 H200 H -0.08027 0.19728 0.55679
 C201 C 0.45531 0.04288 -0.21206
 C202 C 0.50636 0.05738 -0.25257
 C203 C 0.49651 0.00297 -0.28974
 C204 C 0.44472 -0.01107 -0.24963
 C205 C 0.53896 -0.03456 -0.25175
 C206 C 0.54923 0.01973 -0.21430
 C207 C 0.49789 0.00512 -0.17484
 C208 C 0.48737 -0.04887 -0.21148
 H209 H 0.42087 0.07483 -0.19509
 H210 H 0.51185 0.10232 -0.26814
 H211 H 0.39967 -0.02122 -0.26068
 H212 H 0.57361 -0.06661 -0.26812
 H213 H 0.59233 0.03257 -0.19938
 H214 H 0.47949 -0.09266 -0.19409
 C215 C 0.53929 -0.04044 0.20336
 C216 C 0.56342 0.00729 0.24214
 C217 C 0.51000 0.00373 0.28338
 C218 C 0.48593 -0.04356 0.24459
 C219 C 0.47652 0.05193 0.24784
 C220 C 0.52948 0.05479 0.20629
 C221 C 0.50534 0.00716 0.16848
 C222 C 0.45212 0.00435 0.20893
 H223 H 0.56522 -0.07857 0.18462
 H224 H 0.60996 0.01184 0.25227
 H225 H 0.46792 -0.08432 0.26034
 H226 H 0.45143 0.09102 0.26566
 H227 H 0.54729 0.09540 0.18987
 H228 H 0.40614 0.00329 0.19486
 C229 C 0.51907 -0.20756 -0.04713
 C230 C 0.54913 -0.24706 -0.00058
 C231 C 0.49299 -0.28025 0.00601
 C232 C 0.46333 -0.24128 -0.04115
 C233 C 0.46987 -0.23775 0.05386
 C234 C 0.52590 -0.20416 0.04761
 C235 C 0.49586 -0.16558 0.00095
 C236 C 0.43995 -0.19830 0.00693
 H237 H 0.53929 -0.19451 -0.08866
 H238 H 0.59478 -0.26569 -0.00511
 H239 H 0.43775 -0.25638 -0.07821
 H240 H 0.44954 -0.25033 0.09550
 H241 H 0.55189 -0.18831 0.08403
 H242 H 0.39488 -0.17775 0.00977
 C243 C 0.55376 0.21225 -0.01125
 C244 C 0.52344 0.25128 -0.05824
 C245 C 0.49818 0.29271 -0.01038
 C246 C 0.52824 0.25408 0.03681
 C247 C 0.44321 0.25768 -0.00520
 C248 C 0.46853 0.21590 -0.05338
 C249 C 0.49900 0.17779 -0.00661
 C250 C 0.47363 0.21863 0.04145
 H251 H 0.59937 0.19303 -0.01350
 H252 H 0.54394 0.26502 -0.09938
 H253 H 0.55258 0.26978 0.07447
 H254 H 0.39704 0.27488 -0.00120
 H255 H 0.44381 0.19954 -0.09047
 H256 H 0.45324 0.20451 0.08252
 C257 C -0.20403 -0.04452 0.53940
 C258 C -0.24605 0.00672 0.56035
 C259 C -0.28398 -0.00035 0.50583
 C260 C -0.24228 -0.05221 0.48560
 C261 C -0.24762 0.04245 0.47204
 C262 C -0.20957 0.04986 0.52640
 C263 C -0.16853 -0.00147 0.50546
 C264 C -0.20573 -0.00922 0.45136
 H265 H -0.18542 -0.08041 0.56711
 H266 H -0.25870 0.01027 0.60686
 H267 H -0.25461 -0.09556 0.47061
 H268 H -0.26553 0.07848 0.44411
 H269 H -0.19566 0.09194 0.54329
 H270 H -0.18880 -0.01594 0.40637
 C271 C 0.21592 -0.06589 0.52613
 C272 C 0.25455 -0.06085 0.47097
 C273 C 0.29168 -0.01819 0.50329
 C274 C 0.25346 -0.02302 0.55859
 C275 C 0.25143 0.03405 0.48276
 C276 C 0.21401 -0.00872 0.45011
 C277 C 0.17633 -0.01392 0.50505
 C278 C 0.21288 0.02886 0.53754
 H279 H 0.20064 -0.10700 0.54412
 H280 H 0.27197 -0.09786 0.44348
 H281 H 0.26729 -0.02738 0.60441
 H282 H 0.26584 0.07577 0.46539
 H283 H 0.19734 -0.00260 0.40535
 H284 H 0.19510 0.06585 0.56488
 C285 C 0.00248 0.44926 1.20812
 C286 C 0.04811 0.47807 1.24557
 C287 C -0.00118 0.50285 1.28612
 C288 C -0.04711 0.47442 1.24888
 C289 C -0.00863 0.55877 1.24882
 C290 C 0.04111 0.53387 1.20806
 C291 C -0.00421 0.50489 1.17138
 C292 C -0.05387 0.52983 1.21111
 H293 H 0.00691 0.40400 1.19099
 H294 H 0.09022 0.45661 1.25990
 H295 H -0.08435 0.45062 1.26532
 H296 H -0.01559 0.60470 1.26353
 H297 H 0.07736 0.55852 1.19072
 H298 H -0.09584 0.55114 1.19620
 C299 C -0.02401 0.55132 0.78854
 C300 C 0.02908 0.53016 0.75030
 C301 C -0.01060 0.49294 0.71422
 C302 C -0.06382 0.51373 0.75223
 C303 C 0.00210 0.44057 0.75523
 C304 C 0.04205 0.47788 0.79144
 C305 C -0.01080 0.49919 0.82888
 C306 C -0.05068 0.46187 0.79364
 H307 H -0.03484 0.59700 0.80261
 H308 H 0.06216 0.55837 0.73224
 H309 H -0.10863 0.52642 0.73728
 H310 H 0.01033 0.39367 0.74462
 H311 H 0.08575 0.46321 0.80811
 H312 H -0.08365 0.43385 0.81224
   
