data_POSCAR
  _audit_creation_date              2014-09-24
  _audit_creation_method            'ToBaCCo'
  _symmetry_space_group_name_H-M    'P1'
  _symmetry_Int_Tables_number       1
  _symmetry_cell_setting            triclinic
  loop_
  _symmetry_equiv_pos_as_xyz
 x,y,z
_cell_length_a 32.9353
_cell_length_b 32.9018
_cell_length_c 42.9978
_cell_angle_alpha 89.953500
_cell_angle_beta 90.074900
_cell_angle_gamma 120.738200
loop_
  _atom_site_label
  _atom_site_type_symbol
  _atom_site_fract_x
  _atom_site_fract_y
  _atom_site_fract_z
C1 C -0.02214 0.48819 1.25304
 C2 C 0.02595 0.51138 1.25317
 C3 C 0.05367 0.52650 1.28253
 C4 C 0.05352 0.52317 1.22386
 C5 C -0.04962 0.47615 1.22361
 C6 C -0.05000 0.47327 1.28226
 C7 C 0.04823 0.55550 1.30406
 C8 C 0.07535 0.57017 1.33128
 C9 C 0.10845 0.55629 1.33711
 C10 C 0.11417 0.52764 1.31558
 C11 C 0.08706 0.51298 1.28843
 C12 C 0.08832 0.57029 1.21775
 C13 C 0.11441 0.58209 1.19024
 C14 C 0.10623 0.54688 1.16864
 C15 C 0.07202 0.49969 1.17476
 C16 C 0.04589 0.48782 1.20232
 C17 C -0.08464 0.42902 1.21770
 C18 C -0.11106 0.41704 1.19028
 C19 C -0.10302 0.45207 1.16855
 C20 C -0.06849 0.49926 1.17440
 C21 C -0.04201 0.51132 1.20188
 C22 C -0.04483 0.44423 1.30395
 C23 C -0.07221 0.42965 1.33101
 C24 C -0.10520 0.44367 1.33647
 C25 C -0.11067 0.47234 1.31486
 C26 C -0.08334 0.48694 1.28785
 H27 H 0.02332 0.56707 1.29964
 H28 H 0.07069 0.59262 1.34755
 H29 H 0.13974 0.51673 1.31962
 H30 H 0.09198 0.49090 1.27202
 H31 H 0.09489 0.59798 1.23416
 H32 H 0.14094 0.61868 1.18579
 H33 H 0.01980 0.45115 1.20690
 H34 H -0.09122 0.40147 1.23425
 H35 H -0.13782 0.38046 1.18606
 H36 H -0.06220 0.52670 1.15783
 H37 H -0.01579 0.54799 1.20628
 H38 H -0.01996 0.43255 1.29977
 H39 H -0.06798 0.40716 1.34749
 H40 H -0.13626 0.48319 1.31879
 H41 H -0.08804 0.50905 1.27131
 H42 H 0.06565 0.47213 1.15829
 C43 C 0.51365 0.49042 1.25005
 C44 C 0.48959 0.51396 1.25011
 C45 C 0.47484 0.52654 1.27945
 C46 C 0.47651 0.52838 1.22082
 C47 C 0.52666 0.47606 1.22071
 C48 C 0.52833 0.47761 1.27934
 C49 C 0.44619 0.49175 1.30127
 C50 C 0.43208 0.50435 1.32851
 C51 C 0.44616 0.55173 1.33404
 C52 C 0.47436 0.58641 1.31226
 C53 C 0.48849 0.57388 1.28509
 C54 C 0.42898 0.51383 1.21521
 C55 C 0.41593 0.52734 1.18797
 C56 C 0.45026 0.55580 1.16610
 C57 C 0.49783 0.57086 1.17164
 C58 C 0.51096 0.55737 1.19895
 C59 C 0.57413 0.49038 1.21517
 C60 C 0.58708 0.47666 1.18800
 C61 C 0.55269 0.44818 1.16613
 C62 C 0.50518 0.43342 1.17157
 C63 C 0.49216 0.44713 1.19880
 C64 C 0.55698 0.51225 1.30124
 C65 C 0.57080 0.49940 1.32853
 C66 C 0.55642 0.45193 1.33401
 C67 C 0.52827 0.41742 1.31212
 C68 C 0.51443 0.43019 1.28490
 H69 H 0.43453 0.45492 1.29707
 H70 H 0.40997 0.47718 1.34510
 H71 H 0.48527 0.62312 1.31623
 H72 H 0.51029 0.60115 1.26846
 H73 H 0.40198 0.49172 1.23188
 H74 H 0.37906 0.51567 1.18398
 H75 H 0.54791 0.56968 1.20313
 H76 H 0.60118 0.51242 1.23186
 H77 H 0.62389 0.48810 1.18410
 H78 H 0.47824 0.41110 1.15490
 H79 H 0.45524 0.43497 1.20292
 H80 H 0.56878 0.54913 1.29710
 H81 H 0.59288 0.52643 1.34523
 H82 H 0.51714 0.38064 1.31606
 H83 H 0.49259 0.40305 1.26820
 H84 H 0.52471 0.59317 1.15496
 C85 C 0.50999 1.02455 1.24791
 C86 C 0.48684 0.97639 1.24802
 C87 C 0.47488 0.94889 1.27745
 C88 C 0.47204 0.94848 1.21876
 C89 C 0.52486 1.05231 1.21855
 C90 C 0.52191 1.05221 1.27722
 C91 C 0.51004 0.95661 1.29920
 C92 C 0.49810 0.93013 1.32667
 C93 C 0.45098 0.89543 1.33255
 C94 C 0.41593 0.88730 1.31077
 C95 C 0.42783 0.91375 1.28336
 C96 C 0.48591 0.91527 1.21317
 C97 C 0.47172 0.88812 1.18605
 C98 C 0.44324 0.89362 1.16430
 C99 C 0.42894 0.92641 1.16979
 C100 C 0.44311 0.95362 1.19696
 C101 C 0.51119 1.08566 1.21279
 C102 C 0.52567 1.11290 1.18570
 C103 C 0.55428 1.10738 1.16408
 C104 C 0.56831 1.07436 1.16974
 C105 C 0.55383 1.04708 1.19690
 C106 C 0.48669 1.04467 1.29880
 C107 C 0.49861 1.07116 1.32624
 C108 C 0.54577 1.10569 1.33222
 C109 C 0.58087 1.11369 1.31059
 C110 C 0.56898 1.08721 1.28321
 H111 H 0.54666 0.98292 1.29480
 H112 H 0.52566 0.93660 1.34319
 H113 H 0.37936 0.86044 1.31491
 H114 H 0.40028 0.90708 1.26680
 H115 H 0.50795 0.91059 1.22978
 H116 H 0.48280 0.86270 1.18211
 H117 H 0.43128 0.97839 1.20112
 H118 H 0.48914 1.09044 1.22928
 H119 H 0.51469 1.13843 1.18173
 H120 H 0.59072 1.06992 1.15334
 H121 H 0.56552 1.02222 1.20119
 H122 H 0.45006 1.01843 1.29432
 H123 H 0.47103 1.06481 1.34267
 H124 H 0.61746 1.14042 1.31483
 H125 H 0.59656 1.09372 1.26676
 H126 H 0.40661 0.93070 1.15320
 C127 C 1.02559 0.51057 0.74822
 C128 C 0.97750 0.48772 0.74839
 C129 C 0.94939 0.47269 0.71921
 C130 C 0.95026 0.47620 0.77788
 C131 C 1.05323 0.52205 0.77755
 C132 C 1.05326 0.52560 0.71885
 C133 C 0.91588 0.48620 0.71372
 C134 C 0.88815 0.47131 0.68686
 C135 C 0.89334 0.44249 0.66526
 C136 C 0.92652 0.42866 0.67061
 C137 C 0.95432 0.44353 0.69753
 C138 C 0.95842 0.51171 0.79945
 C139 C 0.93218 0.50021 0.82697
 C140 C 0.89731 0.45323 0.83305
 C141 C 0.88873 0.41784 0.81149
 C142 C 0.91492 0.42927 0.78402
 C143 C 1.04529 0.48650 0.79904
 C144 C 1.07147 0.49800 0.82661
 C145 C 1.10610 0.54507 0.83280
 C146 C 1.11457 0.58049 0.81124
 C147 C 1.08840 0.56901 0.78372
 C148 C 1.08679 0.51224 0.71310
 C149 C 1.11407 0.52707 0.68605
 C150 C 1.10840 0.55573 0.66448
 C151 C 1.07516 0.56942 0.67013
 C152 C 1.04784 0.55459 0.69724
 H153 H 0.91133 0.50839 0.73025
 H154 H 0.86246 0.48207 0.68301
 H155 H 0.93060 0.40610 0.65414
 H156 H 0.97929 0.43195 0.70164
 H157 H 0.98490 0.54825 0.79488
 H158 H 0.93889 0.52793 0.84339
 H159 H 0.90790 0.40146 0.76761
 H160 H 1.01891 0.44994 0.79441
 H161 H 1.06477 0.47018 0.84297
 H162 H 1.14139 0.61701 0.81564
 H163 H 1.09520 0.59684 0.76735
 H164 H 1.09173 0.49019 0.72956
 H165 H 1.13976 0.51633 0.68209
 H166 H 1.07058 0.59185 0.65376
 H167 H 1.02286 0.56608 0.70153
 H168 H 0.86169 0.38142 0.81588
 C169 C 0.48908 0.51280 0.74970
 C170 C 0.51255 0.48867 0.74978
 C171 C 0.52509 0.47382 0.72049
 C172 C 0.52693 0.47560 0.77913
 C173 C 0.47474 0.52587 0.77898
 C174 C 0.47633 0.52747 0.72034
 C175 C 0.49028 0.44506 0.69872
 C176 C 0.50283 0.43103 0.67145
 C177 C 0.55018 0.44530 0.66585
 C178 C 0.58488 0.47358 0.68760
 C179 C 0.57240 0.48763 0.71482
 C180 C 0.51253 0.42805 0.78473
 C181 C 0.52616 0.41504 0.81196
 C182 C 0.55461 0.44943 0.83384
 C183 C 0.56945 0.49701 0.82833
 C184 C 0.55584 0.51010 0.80104
 C185 C 0.48928 0.57344 0.78458
 C186 C 0.47570 0.58644 0.81179
 C187 C 0.44718 0.55201 0.83360
 C188 C 0.43218 0.50441 0.82807
 C189 C 0.44573 0.49133 0.80081
 C190 C 0.51096 0.55603 0.69844
 C191 C 0.49820 0.57002 0.67117
 C192 C 0.45084 0.55591 0.66569
 C193 C 0.41633 0.52779 0.68756
 C194 C 0.42901 0.51379 0.71477
 H195 H 0.45348 0.43331 0.70296
 H196 H 0.47566 0.40883 0.65487
 H197 H 0.62157 0.48460 0.68357
 H198 H 0.59967 0.50954 0.73142
 H199 H 0.49050 0.40099 0.76804
 H200 H 0.51467 0.37817 0.81590
 H201 H 0.56805 0.54707 0.79688
 H202 H 0.51139 0.60051 0.76793
 H203 H 0.48730 0.62332 0.81576
 H204 H 0.40980 0.47744 0.84471
 H205 H 0.43342 0.45436 0.79663
 H206 H 0.54777 0.56770 0.70258
 H207 H 0.52525 0.59209 0.65451
 H208 H 0.37963 0.51688 0.68364
 H209 H 0.40186 0.49203 0.73146
 H210 H 0.59175 0.52396 0.84500
 C211 C 0.48585 -0.02583 0.75147
 C212 C 0.50878 0.02230 0.75162
 C213 C 0.52032 0.04990 0.72231
 C214 C 0.52400 0.05005 0.78096
 C215 C 0.47064 -0.05386 0.78067
 C216 C 0.47431 -0.05312 0.72199
 C217 C 0.56730 0.08489 0.71612
 C218 C 0.57883 0.11096 0.68858
 C219 C 0.54349 0.10258 0.66703
 C220 C 0.49644 0.06819 0.67321
 C221 C 0.48483 0.04207 0.70080
 C222 C 0.55299 0.04455 0.80251
 C223 C 0.56814 0.07206 0.82954
 C224 C 0.55476 0.10554 0.83516
 C225 C 0.52608 0.11128 0.81370
 C226 C 0.51091 0.08383 0.78672
 C227 C 0.44165 -0.04855 0.80224
 C228 C 0.42679 -0.07605 0.82928
 C229 C 0.44047 -0.10935 0.83485
 C230 C 0.46909 -0.11496 0.81331
 C231 C 0.48395 -0.08749 0.78633
 C232 C 0.42736 -0.08818 0.71573
 C233 C 0.41582 -0.11407 0.68810
 C234 C 0.45115 -0.10545 0.66649
 C235 C 0.49821 -0.07091 0.67277
 C236 C 0.50977 -0.04501 0.70045
 H237 H 0.59508 0.09160 0.73249
 H238 H 0.61532 0.13764 0.68408
 H239 H 0.46879 0.06166 0.65677
 H240 H 0.44826 0.01582 0.70543
 H241 H 0.56427 0.01939 0.79820
 H242 H 0.59061 0.06756 0.84588
 H243 H 0.48886 0.08883 0.77031
 H244 H 0.43023 -0.02347 0.79799
 H245 H 0.40437 -0.07157 0.84564
 H246 H 0.47978 -0.14071 0.81724
 H247 H 0.50602 -0.09230 0.76987
 H248 H 0.39959 -0.09513 0.73212
 H249 H 0.37931 -0.14081 0.68364
 H250 H 0.52596 -0.06407 0.65637
 H251 H 0.54632 -0.01871 0.70513
 H252 H 0.51568 0.13721 0.81774
 O253 O 0.39947 0.66679 0.96356
 O254 O 0.39866 0.74467 0.97238
 C255 C 0.36797 0.74896 0.95719
 O256 O 0.32434 0.72633 0.96346
 O257 O 0.24643 0.64653 0.97325
 C258 C 0.24161 0.61120 0.95810
 O259 O 0.26358 0.59001 0.96447
 O260 O 0.34285 0.59240 0.97366
 C261 C 0.37782 0.62291 0.95791
 O262 O 0.40312 0.65573 1.02563
 O263 O 0.39809 0.73133 1.03443
 C264 C 0.37403 0.75042 1.04051
 O265 O 0.33747 0.74222 1.02536
 O266 O 0.26169 0.66066 1.03520
 C267 C 0.24237 0.61719 1.04171
 O268 O 0.24943 0.58830 1.02653
 O269 O 0.33076 0.59497 1.03563
 C270 C 0.37451 0.61964 1.04135
 Cr271 Cr 0.39723 0.69822 0.99901
 Cr272 Cr 0.29384 0.69271 0.99933
 Cr273 Cr 0.29787 0.59403 1.00005
 O274 O 0.32965 0.66167 0.99946
 O275 O 0.60101 0.33400 0.96438
 O276 O 0.60039 0.25538 0.97338
 C277 C 0.63060 0.25016 0.95837
 O278 O 0.67423 0.27211 0.96471
 O279 O 0.75298 0.35134 0.97412
 C280 C 0.75864 0.38703 0.95898
 O281 O 0.73738 0.40894 0.96526
 O282 O 0.65877 0.40806 0.97408
 C283 C 0.62335 0.37783 0.95850
 O284 O 0.59786 0.34544 1.02646
 O285 O 0.60140 0.26900 1.03543
 C286 C 0.62496 0.24942 1.04172
 O287 O 0.66141 0.25708 1.02672
 O288 O 0.73816 0.33809 1.03616
 C289 C 0.75808 0.38164 1.04256
 O290 O 0.75130 0.41078 1.02739
 O291 O 0.67064 0.40571 1.03616
 C292 C 0.62690 0.38160 1.04198
 Cr293 Cr 0.60281 0.30235 0.99992
 Cr294 Cr 0.70535 0.30593 1.00043
 Cr295 Cr 0.70325 0.40572 1.00071
 O296 O 0.67047 0.33799 1.00035
 O297 O 0.65404 0.40126 0.52688
 O298 O 0.72919 0.39581 0.53649
 C299 C 0.74840 0.37178 0.54229
 O300 O 0.74067 0.33578 0.52666
 O301 O 0.65870 0.25973 0.53498
 C302 C 0.61501 0.24014 0.54070
 O303 O 0.58668 0.24755 0.52505
 O304 O 0.59268 0.32844 0.53489
 C305 C 0.61706 0.37191 0.54156
 O306 O 0.66774 0.40050 0.46493
 O307 O 0.74497 0.39895 0.47460
 C308 C 0.74964 0.36876 0.45906
 O309 O 0.72676 0.32484 0.46457
 O310 O 0.64676 0.24637 0.47283
 C311 C 0.61211 0.24207 0.45711
 O312 O 0.59100 0.26420 0.46314
 O313 O 0.59300 0.34320 0.47303
 C314 C 0.62422 0.37914 0.45833
 Cr315 Cr 0.69757 0.39652 0.50069
 Cr316 Cr 0.69200 0.29303 0.49977
 Cr317 Cr 0.59345 0.29707 0.49905
 O318 O 0.66101 0.32890 0.49983
 O319 O 0.34566 0.59923 0.52675
 O320 O 0.26957 0.60306 0.53604
 C321 C 0.24991 0.62661 0.54202
 O322 O 0.25715 0.66259 0.52653
 O323 O 0.33842 0.73946 0.53502
 C324 C 0.38209 0.75948 0.54101
 O325 O 0.41089 0.75267 0.52550
 O326 O 0.40640 0.67235 0.53491
 C327 C 0.38249 0.62882 0.54150
 O328 O 0.33235 0.60023 0.46471
 O329 O 0.25426 0.60022 0.47402
 C330 C 0.24896 0.63015 0.45859
 O331 O 0.27100 0.67399 0.46440
 O332 O 0.35026 0.75316 0.47285
 C333 C 0.38538 0.75838 0.45731
 O334 O 0.40722 0.73700 0.46345
 O335 O 0.40663 0.65858 0.47293
 C336 C 0.37589 0.62239 0.45817
 Cr337 Cr 0.30185 0.60333 0.50036
 Cr338 Cr 0.30548 0.70596 0.49970
 Cr339 Cr 0.40514 0.70388 0.49921
 O340 O 0.33749 0.67104 0.49975
 C341 C 0.43108 0.56500 0.36167
 C342 C 0.41859 0.57710 0.38442
 C343 C 0.40397 0.59222 0.41060
 C344 C 0.39132 0.60574 0.43255
 C345 C 0.43911 0.86902 0.35905
 C346 C 0.42782 0.84494 0.38219
 C347 C 0.41372 0.81581 0.40887
 C348 C 0.40107 0.79008 0.43124
 C349 C 0.13470 0.57072 0.36216
 C350 C 0.15962 0.58402 0.38492
 C351 C 0.18976 0.59972 0.41110
 C352 C 0.21633 0.61340 0.43303
 C353 C 0.57108 0.43839 0.36171
 C354 C 0.58316 0.42597 0.38452
 C355 C 0.59725 0.41039 0.41074
 C356 C 0.60941 0.39641 0.43271
 C357 C 0.55765 0.13199 0.35873
 C358 C 0.56901 0.15597 0.38189
 C359 C 0.58325 0.18496 0.40859
 C360 C 0.59611 0.21056 0.43099
 C361 C 0.86557 0.42783 0.36380
 C362 C 0.84022 0.41456 0.38629
 C363 C 0.80959 0.39892 0.41213
 C364 C 0.78263 0.38533 0.43379
 C365 C 0.56644 0.43359 1.13848
 C366 C 0.57905 0.42162 1.11573
 C367 C 0.59491 0.40776 1.08956
 C368 C 0.60919 0.39590 1.06761
 C369 C 0.86914 0.43933 1.14054
 C370 C 0.84500 0.42756 1.11743
 C371 C 0.81575 0.41260 1.09083
 C372 C 0.78990 0.39892 1.06853
 C373 C 0.56901 0.13484 1.13802
 C374 C 0.58188 0.15991 1.11532
 C375 C 0.59684 0.19019 1.08920
 C376 C 0.60962 0.21681 1.06729
 C377 C 0.43636 0.56996 1.13832
 C378 C 0.42354 0.58149 1.11545
 C379 C 0.40736 0.59475 1.08913
 C380 C 0.39273 0.60605 1.06708
 C381 C 0.13344 0.55948 1.14044
 C382 C 0.15702 0.57115 1.11713
 C383 C 0.18562 0.58605 1.09029
 C384 C 0.21098 0.59976 1.06782
 C385 C 0.42813 0.86480 1.13672
 C386 C 0.41568 0.83982 1.11401
 C387 C 0.40123 0.80963 1.08789
 C388 C 0.38888 0.78304 1.06601
 C389 C 0.56330 0.43020 0.63820
 C390 C 0.57505 0.41748 0.61541
 C391 C 0.58943 0.40228 0.58920
 C392 C 0.60200 0.38880 0.56721
 C393 C 0.55585 0.12979 0.63880
 C394 C 0.56748 0.15349 0.61552
 C395 C 0.58258 0.18236 0.58879
 C396 C 0.59672 0.20811 0.56648
 C397 C 0.86383 0.42659 0.63800
 C398 C 0.83833 0.41358 0.61554
 C399 C 0.80768 0.39870 0.58964
 C400 C 0.78090 0.38627 0.56786
 C401 C 0.43749 0.57101 0.63805
 C402 C 0.42551 0.58368 0.61529
 C403 C 0.41081 0.59878 0.58910
 C404 C 0.39794 0.61214 0.56714
 C405 C 0.43954 0.86891 0.63970
 C406 C 0.42817 0.84542 0.61630
 C407 C 0.41349 0.81679 0.58942
 C408 C 0.39979 0.79127 0.56697
 C409 C 0.13588 0.57078 0.63847
 C410 C 0.16093 0.58388 0.61579
 C411 C 0.19113 0.59896 0.58966
 C412 C 0.21761 0.61166 0.56771
 C413 C 0.43265 0.56572 0.86125
 C414 C 0.42053 0.57806 0.88403
 C415 C 0.40616 0.59328 0.91025
 C416 C 0.39353 0.60669 0.93224
 C417 C 0.13199 0.55656 0.85949
 C418 C 0.15564 0.56765 0.88280
 C419 C 0.18436 0.58176 0.90964
 C420 C 0.20989 0.59472 0.93208
 C421 C 0.42538 0.86305 0.86079
 C422 C 0.41216 0.83793 0.88344
 C423 C 0.39677 0.80771 0.90953
 C424 C 0.38365 0.78123 0.93148
 C425 C 0.56915 0.43568 0.86154
 C426 C 0.58124 0.42325 0.88437
 C427 C 0.59548 0.40789 0.91066
 C428 C 0.60794 0.39431 0.93272
 C429 C 0.86963 0.44112 0.86109
 C430 C 0.84560 0.43001 0.88421
 C431 C 0.81643 0.41596 0.91082
 C432 C 0.79060 0.40317 0.93309
 C433 C 0.57117 0.13489 0.86249
 C434 C 0.58482 0.16028 0.88501
 C435 C 0.60074 0.19084 0.91096
 C436 C 0.61434 0.21760 0.93279
   
