data_POSCAR
  _audit_creation_date              2014-09-24
  _audit_creation_method            'ToBaCCo'
  _symmetry_space_group_name_H-M    'P1'
  _symmetry_Int_Tables_number       1
  _symmetry_cell_setting            triclinic
  loop_
  _symmetry_equiv_pos_as_xyz
 x,y,z
_cell_length_a 22.7490
_cell_length_b 21.6724
_cell_length_c 21.5801
_cell_angle_alpha 92.035000
_cell_angle_beta 90.001900
_cell_angle_gamma 88.497800
loop_
  _atom_site_label
  _atom_site_type_symbol
  _atom_site_fract_x
  _atom_site_fract_y
  _atom_site_fract_z
Si1 Si 1.25761 0.27733 0.25688
 Si2 Si 0.76278 -0.26043 0.23498
 Si3 Si 0.76398 0.23713 -0.25412
 Si4 Si 1.24165 -0.24889 -0.26083
 Si5 Si 0.24590 0.23747 0.74899
 Si6 Si 0.74495 0.77281 0.75736
 Si7 Si 0.72189 0.25536 0.25831
 Si8 Si 0.23321 0.73557 0.24362
 O9 O 1.09477 0.07415 0.10234
 O10 O 0.93573 -0.04046 0.09993
 O11 O 0.92719 0.13933 0.04613
 O12 O 1.05733 -0.11345 0.03242
 O13 O 0.92318 0.06509 0.10437
 O14 O 1.08325 -0.04241 0.09804
 O15 O 0.94954 -0.11410 0.03553
 O16 O 1.03733 0.14597 0.06279
 C17 C 1.07484 0.12863 0.10307
 C18 C 0.93190 -0.09581 0.08853
 C19 C 0.91207 0.11944 0.09672
 C20 C 1.07954 -0.09812 0.08376
 O21 O 1.12397 -0.04531 -0.01881
 O22 O 0.87644 0.06355 -0.01429
 O23 O 1.05016 0.12256 -0.05745
 O24 O 0.95023 -0.05893 -0.07893
 O25 O 0.88231 -0.04777 -0.01327
 O26 O 1.12269 0.06908 -0.01712
 O27 O 1.05471 -0.06629 -0.08170
 O28 O 0.94506 0.10007 -0.07031
 Co29 Co 1.09553 0.01371 0.03857
 Co30 Co 0.91226 0.01091 0.04117
 Co31 Co 0.99071 0.11603 -0.00284
 Co32 Co 1.00239 -0.07913 -0.01972
 O33 O 1.00141 0.01643 0.01299
 C34 C 1.10797 -0.06833 -0.07003
 C35 C 0.89315 0.08466 -0.06486
 C36 C 1.10284 0.10645 -0.05593
 C37 C 0.89752 -0.06272 -0.06719
 O38 O 1.09663 0.52989 0.57192
 O39 O 0.89985 0.47141 0.59294
 O40 O 0.95827 0.60309 0.57600
 O41 O 1.03959 0.39146 0.56906
 O42 O 0.87669 0.57258 0.54623
 O43 O 1.11349 0.42337 0.52408
 O44 O 0.93931 0.38378 0.56108
 O45 O 1.05268 0.61243 0.54155
 C46 C 1.08456 0.58613 0.58005
 C47 C 0.91143 0.41562 0.60206
 C48 C 0.90491 0.60472 0.58359
 C49 C 1.09313 0.39581 0.56811
 O50 O 1.08700 0.46734 0.41425
 O51 O 0.88253 0.51664 0.43372
 O52 O 1.01921 0.59469 0.41983
 O53 O 0.94707 0.38614 0.43103
 O54 O 0.87644 0.41918 0.48536
 O55 O 1.10200 0.56986 0.45658
 O56 O 1.05354 0.38029 0.44034
 O57 O 0.91965 0.60400 0.45384
 Co58 Co 1.08773 0.49734 0.49323
 Co59 Co 0.89558 0.49551 0.51311
 Co60 Co 0.98732 0.59350 0.49774
 Co61 Co 0.99460 0.39539 0.49986
 O62 O 0.99153 0.49536 0.50108
 C63 C 1.08236 0.41120 0.40279
 C64 C 0.88925 0.57061 0.41917
 C65 C 1.07358 0.59522 0.41540
 C66 C 0.89306 0.38967 0.43865
 O67 O 0.64083 0.03858 0.52051
 O68 O 0.37323 -0.06571 0.51498
 O69 O 0.45607 0.07550 0.58013
 O70 O 0.55827 -0.12184 0.53832
 O71 O 0.37877 0.04981 0.52699
 O72 O 0.57560 -0.03222 0.57539
 O73 O 0.44712 -0.12674 0.54560
 O74 O 0.56181 0.07715 0.56601
 C75 C 0.61688 0.08219 0.55669
 C76 C 0.39321 -0.11002 0.54724
 C77 C 0.40193 0.07283 0.57532
 C78 C 0.57649 -0.08883 0.58216
 O79 O 0.61878 -0.07194 0.46382
 O80 O 0.41347 0.05071 0.40436
 O81 O 0.54294 0.10755 0.44745
 O82 O 0.44155 -0.13459 0.42984
 O83 O 0.40092 -0.05476 0.39328
 O84 O 0.58719 0.02355 0.41783
 O85 O 0.54782 -0.11464 0.41527
 O86 O 0.43687 0.12054 0.46860
 Co87 Co 0.57728 -0.00373 0.49575
 Co88 Co 0.39985 -0.00489 0.46262
 Co89 Co 0.49890 0.08495 0.51219
 Co90 Co 0.49924 -0.11367 0.48248
 O91 O 0.49046 -0.01349 0.48492
 C92 C 0.60165 -0.10540 0.41900
 C93 C 0.41651 0.10610 0.41646
 C94 C 0.57622 0.07905 0.40992
 C95 C 0.40687 -0.11141 0.39290
 O96 O 0.58822 0.53608 0.06994
 O97 O 0.39100 0.47271 0.05163
 O98 O 0.45933 0.61387 0.05741
 O99 O 0.52326 0.39953 0.06066
 O100 O 0.38220 0.57746 0.01566
 O101 O 0.60534 0.43253 0.03498
 O102 O 0.42776 0.38783 0.01714
 O103 O 0.56198 0.62167 0.03479
 C104 C 0.58932 0.59248 0.07499
 C105 C 0.39878 0.41641 0.05861
 C106 C 0.40541 0.60720 0.05893
 C107 C 0.57547 0.40623 0.07352
 O108 O 0.60532 0.46726 -0.08395
 O109 O 0.40283 0.53687 -0.10152
 O110 O 0.53779 0.60670 -0.08952
 O111 O 0.47415 0.39780 -0.09864
 O112 O 0.39039 0.43345 -0.07013
 O113 O 0.61369 0.57192 -0.04585
 O114 O 0.57007 0.38349 -0.05471
 O115 O 0.43543 0.62161 -0.06494
 Co116 Co 0.59237 0.50235 -0.00722
 Co117 Co 0.40214 0.50491 -0.02505
 Co118 Co 0.49877 0.60472 -0.01582
 Co119 Co 0.49899 0.40347 -0.01893
 O120 O 0.49787 0.50378 -0.01692
 C121 C 0.60257 0.41049 -0.09051
 C122 C 0.41116 0.59250 -0.10832
 C123 C 0.59197 0.60088 -0.08909
 C124 C 0.42070 0.40163 -0.10801
 C125 C 1.12969 0.23139 0.25848
 C126 C 1.18065 0.25390 0.22389
 C127 C 1.17757 0.25292 0.15875
 C128 C 1.13803 0.21815 0.12333
 C129 C 1.10195 0.17429 0.14828
 C130 C 1.09790 0.17227 0.21378
 C131 C 1.09534 0.22286 0.37602
 C132 C 1.05183 0.16093 0.38355
 C133 C 1.03542 0.11358 0.32227
 C134 C 1.05585 0.11843 0.24654
 H135 H 1.10839 0.24761 0.41869
 H136 H 1.03622 0.15011 0.42912
 H137 H 1.01139 0.07339 0.33351
 H138 H 1.04022 0.08224 0.21562
 H139 H 1.20970 0.27703 0.13265
 H140 H 1.14114 0.22039 0.07332
 C141 C 1.13652 0.67430 0.72583
 C142 C 1.17837 0.71254 0.69764
 C143 C 1.17914 0.71449 0.63293
 C144 C 1.15093 0.67052 0.59679
 C145 C 1.11636 0.62638 0.62365
 C146 C 1.10466 0.63128 0.68790
 C147 C 1.12579 0.67680 0.79009
 C148 C 1.08270 0.64098 0.81592
 C149 C 1.04996 0.60128 0.77838
 C150 C 1.06131 0.59556 0.71493
 H151 H 1.14860 0.70765 0.82075
 H152 H 1.07411 0.64471 0.86527
 H153 H 1.01568 0.57473 0.79860
 H154 H 1.03525 0.56403 0.68711
 H155 H 1.20480 0.74733 0.60903
 H156 H 1.15623 0.67101 0.54688
 C157 C 0.73898 0.18931 0.61709
 C158 C 0.72078 0.19800 0.68045
 C159 C 0.66962 0.16941 0.69952
 C160 C 0.63604 0.13420 0.65839
 C161 C 0.65366 0.12313 0.59678
 C162 C 0.70588 0.15040 0.57571
 C163 C 0.79036 0.21566 0.59365
 C164 C 0.80756 0.20657 0.53214
 C165 C 0.77562 0.16874 0.49263
 C166 C 0.72628 0.13986 0.51425
 H167 H 0.81968 0.24170 0.62163
 H168 H 0.84675 0.22797 0.51543
 H169 H 0.78942 0.16119 0.44509
 H170 H 0.70472 0.10964 0.48151
 H171 H 0.65547 0.17370 0.74746
 H172 H 0.59681 0.11336 0.67577
 C173 C 0.73048 0.63236 0.16138
 C174 C 0.71925 0.69584 0.17520
 C175 C 0.66792 0.72393 0.15309
 C176 C 0.62527 0.68896 0.12341
 C177 C 0.63153 0.62437 0.11691
 C178 C 0.68387 0.59507 0.13956
 C179 C 0.78653 0.60457 0.17022
 C180 C 0.79456 0.54088 0.16731
 C181 C 0.74697 0.50381 0.15549
 C182 C 0.69213 0.53024 0.14163
 H183 H 0.82459 0.63144 0.18024
 H184 H 0.83745 0.52024 0.17619
 H185 H 0.75317 0.45441 0.15670
 H186 H 0.65661 0.49912 0.13538
 H187 H 0.65959 0.77298 0.16072
 H188 H 0.58654 0.71274 0.10594
 C189 C 0.80294 -0.14459 0.18715
 C190 C 0.81183 -0.20938 0.18825
 C191 C 0.86027 -0.23565 0.15554
 C192 C 0.89928 -0.19882 0.12391
 C193 C 0.89577 -0.13414 0.13036
 C194 C 0.84986 -0.10733 0.16890
 C195 C 0.74870 -0.11518 0.20324
 C196 C 0.74507 -0.05181 0.21601
 C197 C 0.79522 -0.01710 0.21213
 C198 C 0.84730 -0.04452 0.18891
 H199 H 0.70882 -0.14063 0.20608
 H200 H 0.70383 -0.03009 0.23089
 H201 H 0.79317 0.03151 0.22528
 H202 H 0.88511 -0.01614 0.18779
 H203 H 0.86760 -0.28495 0.15281
 H204 H 0.93282 -0.22122 0.09497
 C205 C 0.87923 0.29392 0.72093
 C206 C 0.81671 0.29700 0.71853
 C207 C 0.78924 0.34663 0.68864
 C208 C 0.82148 0.38921 0.65713
 C209 C 0.88256 0.38287 0.65256
 C210 C 0.91202 0.33626 0.68637
 C211 C 0.91049 0.25010 0.75578
 C212 C 0.97158 0.24509 0.75396
 C213 C 1.00316 0.28521 0.71904
 C214 C 0.97376 0.33120 0.68679
 H215 H 0.88912 0.22114 0.78701
 H216 H 0.99453 0.21068 0.78076
 H217 H 1.05058 0.28144 0.71820
 H218 H 0.99945 0.36389 0.66363
 H219 H 0.74175 0.35072 0.68627
 H220 H 0.79792 0.42403 0.63137
 C221 C 0.32003 -0.24214 0.62890
 C222 C 0.28679 -0.20885 0.67651
 C223 C 0.28457 -0.14416 0.67446
 C224 C 0.31498 -0.11305 0.62897
 C225 C 0.35295 -0.14467 0.58714
 C226 C 0.35324 -0.20991 0.58479
 C227 C 0.31880 -0.30686 0.62156
 C228 C 0.35014 -0.33943 0.57507
 C229 C 0.38221 -0.30790 0.53245
 C230 C 0.38288 -0.24382 0.53640
 H231 H 0.29071 -0.33272 0.64880
 H232 H 0.34774 -0.38923 0.57085
 H233 H 0.40505 -0.33297 0.49501
 H234 H 0.40457 -0.22132 0.49945
 H235 H 0.25886 -0.11688 0.70786
 H236 H 0.30955 -0.06364 0.62697
 C237 C 0.33703 0.28543 0.15375
 C238 C 0.29783 0.31881 0.19442
 C239 C 0.29129 0.38274 0.18857
 C240 C 0.32408 0.41347 0.14468
 C241 C 0.36806 0.38243 0.10868
 C242 C 0.37711 0.31780 0.11717
 C243 C 0.33799 0.22017 0.14872
 C244 C 0.38346 0.18773 0.11789
 C245 C 0.42881 0.21972 0.09200
 C246 C 0.42572 0.28398 0.09191
 H247 H 0.30328 0.19367 0.16757
 H248 H 0.38441 0.13773 0.11587
 H249 H 0.46633 0.19482 0.07164
 H250 H 0.46363 0.30672 0.07631
 H251 H 0.25925 0.40892 0.21639
 H252 H 0.31442 0.46186 0.13865
 C253 C 0.83296 0.12469 -0.22320
 C254 C 0.79114 0.17140 -0.20371
 C255 C 0.77130 0.17141 -0.14200
 C256 C 0.80155 0.13805 -0.09747
 C257 C 0.85084 0.10135 -0.11403
 C258 C 0.86339 0.08988 -0.17771
 C259 C 0.84768 0.11368 -0.28606
 C260 C 0.88830 0.06725 -0.30417
 C261 C 0.91650 0.03214 -0.25984
 C262 C 0.90560 0.04445 -0.19705
 H263 H 0.82762 0.13981 -0.32182
 H264 H 0.89785 0.05842 -0.35287
 H265 H 0.94704 -0.00471 -0.27421
 H266 H 0.92924 0.01709 -0.16399
 H267 H 0.73489 0.20092 -0.12644
 H268 H 0.78927 0.14504 -0.04916
 C269 C 0.76701 0.63327 0.31560
 C270 C 0.79850 0.68117 0.28712
 C271 C 0.85894 0.68484 0.29682
 C272 C 0.88785 0.64537 0.33664
 C273 C 0.85791 0.59937 0.36704
 C274 C 0.79746 0.59074 0.35412
 C275 C 0.70603 0.62576 0.30633
 C276 C 0.67627 0.57757 0.33202
 C277 C 0.70622 0.53558 0.36812
 C278 C 0.76595 0.54199 0.37942
 H279 H 0.68030 0.65569 0.27823
 H280 H 0.62973 0.57253 0.32337
 H281 H 0.68305 0.49776 0.38752
 H282 H 0.78627 0.50715 0.40698
 H283 H 0.88406 0.71979 0.27501
 H284 H 0.93417 0.65225 0.34543
 C285 C 0.36084 0.25407 0.33557
 C286 C 0.31816 0.22764 0.29456
 C287 C 0.31727 0.16334 0.28776
 C288 C 0.35131 0.12586 0.32587
 C289 C 0.38843 0.15068 0.37245
 C290 C 0.39534 0.21572 0.37537
 C291 C 0.37033 0.31821 0.33786
 C292 C 0.40976 0.34470 0.37963
 C293 C 0.44265 0.30768 0.41852
 C294 C 0.43657 0.24389 0.41562
 H295 H 0.34964 0.34839 0.30551
 H296 H 0.41622 0.39403 0.38036
 H297 H 0.47461 0.32827 0.44955
 H298 H 0.46646 0.21760 0.44341
 H299 H 0.28603 0.14165 0.25663
 H300 H 0.34577 0.07646 0.32075
 C301 C 0.30367 0.62888 -0.23644
 C302 C 0.29930 0.69506 -0.22841
 C303 C 0.34266 0.72468 -0.19282
 C304 C 0.38169 0.69112 -0.15658
 C305 C 0.38324 0.62641 -0.15992
 C306 C 0.35061 0.59626 -0.20703
 C307 C 0.26548 0.59342 -0.27416
 C308 C 0.27860 0.53198 -0.29095
 C309 C 0.32972 0.50381 -0.26978
 C310 C 0.36476 0.53490 -0.22673
 H311 H 0.22805 0.61256 -0.29607
 H312 H 0.25015 0.50698 -0.32268
 H313 H 0.34156 0.45723 -0.28571
 H314 H 0.40407 0.51124 -0.21074
 H315 H 0.34249 0.77462 -0.18775
 H316 H 0.40880 0.71617 -0.12354
 C317 C 1.21196 -0.20046 -0.13118
 C318 C 1.20692 -0.19379 -0.19699
 C319 C 1.17031 -0.14548 -0.21747
 C320 C 1.14129 -0.10381 -0.17597
 C321 C 1.14898 -0.10665 -0.11156
 C322 C 1.18715 -0.15403 -0.08887
 C323 C 1.23624 -0.25451 -0.10543
 C324 C 1.24531 -0.25892 -0.04195
 C325 C 1.22789 -0.21065 -0.00183
 C326 C 1.19809 -0.15939 -0.02457
 H327 H 1.24449 -0.29597 -0.13272
 H328 H 1.26500 -0.30054 -0.02374
 H329 H 1.23534 -0.21401 0.04750
 H330 H 1.18424 -0.12483 0.00954
 H331 H 1.16215 -0.14108 -0.26657
 H332 H 1.11148 -0.06932 -0.19454
 C333 C 1.18137 0.27642 0.34559
 C334 C 1.22939 0.31097 0.32904
 C335 C 1.22928 0.37513 0.33592
 C336 C 1.17908 0.40850 0.35388
 C337 C 1.12394 0.38118 0.35671
 C338 C 1.11936 0.31945 0.33408
 C339 C 1.18979 0.19670 0.34080
 C340 C 1.13355 0.15123 0.31520
 C341 C 1.04128 0.21991 0.29360
 C342 C 1.05426 0.29526 0.30792
 H343 H 1.22999 0.17477 0.35543
 H344 H 1.14140 0.10126 0.31194
 H345 H 0.99704 0.20827 0.27807
 H346 H 1.01861 0.32865 0.30285
 H347 H 1.26788 0.40068 0.32537
 H348 H 1.18386 0.45706 0.36586
 C349 C 0.74185 -0.16600 0.33342
 C350 C 0.71742 -0.21316 0.29448
 C351 C 0.65659 -0.22132 0.29650
 C352 C 0.62071 -0.18604 0.33674
 C353 C 0.64296 -0.13745 0.37360
 C354 C 0.70355 -0.12403 0.36758
 C355 C 0.80303 -0.15626 0.33564
 C356 C 0.82515 -0.10297 0.36400
 C357 C 0.78685 -0.05804 0.38960
 C358 C 0.72665 -0.06819 0.39086
 H359 H 0.83428 -0.18827 0.31385
 H360 H 0.87197 -0.09531 0.36363
 H361 H 0.80374 -0.01486 0.40793
 H362 H 0.69828 -0.03028 0.40573
 H363 H 0.63558 -0.25560 0.26747
 H364 H 0.57459 -0.19691 0.33836
 C365 C 0.74002 0.32104 -0.14850
 C366 C 0.71746 0.29222 -0.20357
 C367 C 0.65992 0.30736 -0.22224
 C368 C 0.62406 0.34789 -0.18640
 C369 C 0.64422 0.37364 -0.13026
 C370 C 0.70188 0.35835 -0.10990
 C371 C 0.79899 0.31184 -0.12910
 C372 C 0.81848 0.33450 -0.07179
 C373 C 0.77957 0.36615 -0.03199
 C374 C 0.72192 0.37742 -0.05072
 H375 H 0.83053 0.28581 -0.15669
 H376 H 0.86350 0.32586 -0.05756
 H377 H 0.79389 0.38170 0.01366
 H378 H 0.69276 0.39903 -0.01767
 H379 H 0.64254 0.28859 -0.26532
 H380 H 0.57971 0.35821 -0.20197
 C381 C 1.15211 0.15909 -0.21298
 C382 C 1.19669 0.20055 -0.19418
 C383 C 1.21054 0.20781 -0.13097
 C384 C 1.18258 0.17377 -0.08664
 C385 C 1.14003 0.13137 -0.10420
 C386 C 1.12493 0.12307 -0.16768
 C387 C 1.13674 0.14918 -0.27597
 C388 C 1.09644 0.10470 -0.29382
 C389 C 1.07106 0.06868 -0.24968
 C390 C 1.08461 0.07784 -0.18720
 H391 H 1.15628 0.17427 -0.31244
 H392 H 1.08575 0.09729 -0.34235
 H393 H 1.04151 0.03277 -0.26406
 H394 H 1.06458 0.04789 -0.15468
 H395 H 1.24391 0.23943 -0.11542
 H396 H 1.19309 0.18181 -0.03809
 C397 C 1.14115 0.72877 0.33185
 C398 C 1.17771 0.69601 0.28705
 C399 C 1.17056 0.63171 0.28043
 C400 C 1.13398 0.60032 0.32009
 C401 C 1.10513 0.63140 0.36965
 C402 C 1.11166 0.69573 0.37777
 C403 C 1.13194 0.79345 0.33273
 C404 C 1.10580 0.82504 0.38340
 C405 C 1.08756 0.79258 0.43395
 C406 C 1.09025 0.72832 0.43109
 H407 H 1.14236 0.82002 0.29360
 H408 H 1.10053 0.87484 0.38373
 H409 H 1.06983 0.81704 0.47468
 H410 H 1.07719 0.70441 0.47132
 H411 H 1.19122 0.60458 0.24371
 H412 H 1.12979 0.55086 0.31327
 C413 C 0.65153 0.14398 0.26775
 C414 C 0.68178 0.19311 0.29868
 C415 C 0.67760 0.19977 0.36303
 C416 C 0.63954 0.16491 0.39577
 C417 C 0.61091 0.11525 0.36759
 C418 C 0.61757 0.10316 0.30326
 C419 C 0.65325 0.13464 0.20275
 C420 C 0.62467 0.08518 0.17394
 C421 C 0.59304 0.04468 0.20896
 C422 C 0.58900 0.05369 0.27311
 H423 H 0.67606 0.16530 0.17338
 H424 H 0.62686 0.07840 0.12405
 H425 H 0.57091 0.00652 0.18619
 H426 H 0.56289 0.02222 0.29872
 H427 H 0.70233 0.23332 0.38898
 H428 H 0.63353 0.17615 0.44470
 C429 C 0.72876 0.66989 -0.16096
 C430 C 0.70284 0.72199 -0.18930
 C431 C 0.64196 0.73269 -0.18309
 C432 C 0.60656 0.69160 -0.15334
 C433 C 0.63032 0.63729 -0.12928
 C434 C 0.69195 0.62473 -0.13580
 C435 C 0.79039 0.66038 -0.15859
 C436 C 0.81502 0.60523 -0.13814
 C437 C 0.77887 0.55835 -0.12028
 C438 C 0.71805 0.56772 -0.11947
 H439 H 0.82014 0.69483 -0.17332
 H440 H 0.86231 0.59823 -0.13782
 H441 H 0.79796 0.51449 -0.10696
 H442 H 0.69200 0.52904 -0.10824
 H443 H 0.62059 0.77271 -0.20235
 H444 H 0.56010 0.70302 -0.14846
 C445 C 0.75986 -0.12347 -0.15189
 C446 C 0.78666 -0.17195 -0.18928
 C447 C 0.84771 -0.18095 -0.18597
 C448 C 0.88233 -0.14276 -0.14916
 C449 C 0.85747 -0.09502 -0.11151
 C450 C 0.79559 -0.08421 -0.11355
 C451 C 0.69840 -0.11271 -0.15145
 C452 C 0.67275 -0.06399 -0.11638
 C453 C 0.70760 -0.02481 -0.08084
 C454 C 0.76828 -0.03464 -0.07932
 H455 H 0.66929 -0.14105 -0.17844
 H456 H 0.62555 -0.05631 -0.11722
 H457 H 0.68753 0.01351 -0.05432
 H458 H 0.79312 -0.00222 -0.05187
 H459 H 0.86967 -0.21872 -0.21128
 H460 H 0.92922 -0.15255 -0.14848
 C461 C 0.74702 0.33839 0.36476
 C462 C 0.76812 0.30859 0.30959
 C463 C 0.82823 0.31270 0.29555
 C464 C 0.86764 0.33848 0.33782
 C465 C 0.84912 0.35942 0.39683
 C466 C 0.78775 0.35676 0.41173
 C467 C 0.68633 0.34830 0.37545
 C468 C 0.66545 0.36710 0.43390
 C469 C 0.70465 0.37557 0.48263
 C470 C 0.76506 0.36997 0.47207
 H471 H 0.65470 0.34022 0.33922
 H472 H 0.61862 0.37286 0.44191
 H473 H 0.68824 0.38670 0.52888
 H474 H 0.79264 0.37365 0.51249
 H475 H 0.84578 0.29559 0.25155
 H476 H 0.91328 0.34131 0.32432
 C477 C 0.33120 -0.25343 0.32288
 C478 C 0.27803 -0.22547 0.30144
 C479 C 0.26725 -0.16317 0.31837
 C480 C 0.31085 -0.12683 0.34391
 C481 C 0.36698 -0.15134 0.35594
 C482 C 0.37788 -0.21566 0.34449
 C483 C 0.33884 -0.31814 0.32482
 C484 C 0.39340 -0.34501 0.33845
 C485 C 0.44122 -0.30790 0.35089
 C486 C 0.43371 -0.24383 0.35401
 H487 H 0.30224 -0.34818 0.31726
 H488 H 0.39874 -0.39478 0.33857
 H489 H 0.48407 -0.32883 0.35938
 H490 H 0.47222 -0.21698 0.36292
 H491 H 0.22554 -0.14036 0.31156
 H492 H 0.29976 -0.07891 0.35534
 C493 C 0.35593 0.25900 -0.18256
 C494 C 0.30426 0.28502 -0.20992
 C495 C 0.29806 0.34933 -0.20998
 C496 C 0.33753 0.38652 -0.17826
 C497 C 0.39014 0.36232 -0.15460
 C498 C 0.40207 0.29806 -0.16218
 C499 C 0.36265 0.19547 -0.17286
 C500 C 0.41619 0.16954 -0.15427
 C501 C 0.46399 0.20705 -0.14352
 C502 C 0.45699 0.27092 -0.14666
 H503 H 0.32588 0.16615 -0.17644
 H504 H 0.42056 0.12024 -0.14835
 H505 H 0.50612 0.18682 -0.13087
 H506 H 0.49531 0.29812 -0.13822
 H507 H 0.26116 0.37183 -0.23159
 H508 H 0.32574 0.43473 -0.17019
 C509 C 1.14804 -0.24706 0.14912
 C510 C 1.19007 -0.21986 0.19035
 C511 C 1.19539 -0.15572 0.19065
 C512 C 1.15738 -0.11863 0.15832
 C513 C 1.11253 -0.14318 0.12158
 C514 C 1.10722 -0.20840 0.11678
 C515 C 1.14617 -0.31165 0.13783
 C516 C 1.10289 -0.33778 0.10045
 C517 C 1.06059 -0.30039 0.07309
 C518 C 1.06264 -0.23645 0.08091
 H519 H 1.17890 -0.34270 0.15605
 H520 H 1.10210 -0.38740 0.09286
 H521 H 1.02634 -0.32097 0.04502
 H522 H 1.02834 -0.21005 0.05909
 H523 H 1.22913 -0.13172 0.21511
 H524 H 1.16479 -0.06943 0.16132
 C525 C 1.15925 0.33744 0.72062
 C526 C 1.19704 0.28844 0.69727
 C527 C 1.19780 0.27639 0.63271
 C528 C 1.16622 0.31322 0.59187
 C529 C 1.13084 0.36297 0.61361
 C530 C 1.12740 0.37568 0.67851
 C531 C 1.15122 0.34898 0.78497
 C532 C 1.11458 0.39722 0.80728
 C533 C 1.08541 0.43535 0.76632
 C534 C 1.09225 0.42546 0.70259
 H535 H 1.17343 0.32161 0.81894
 H536 H 1.10898 0.40522 0.85676
 H537 H 1.05678 0.47230 0.78413
 H538 H 1.06854 0.45605 0.67235
 H539 H 1.22145 0.23681 0.61277
 H540 H 1.16786 0.30132 0.54267
 C541 C 0.64353 -0.21734 0.67529
 C542 C 0.69121 -0.18661 0.70448
 C543 C 0.69613 -0.12274 0.69750
 C544 C 0.65615 -0.08976 0.66137
 C545 C 0.60807 -0.11899 0.63374
 C546 C 0.59898 -0.18208 0.64556
 C547 C 0.63765 -0.28211 0.67598
 C548 C 0.58669 -0.31023 0.65487
 C549 C 0.54030 -0.27452 0.63276
 C550 C 0.54624 -0.21110 0.62833
 H551 H 0.67133 -0.31178 0.69404
 H552 H 0.58263 -0.35975 0.65730
 H553 H 0.49974 -0.29596 0.61866
 H554 H 0.50868 -0.18481 0.61292
 H555 H 0.73201 -0.09810 0.71888
 H556 H 0.66415 -0.04166 0.65315
 C557 C 0.60731 0.31131 0.21771
 C558 C 0.67004 0.30567 0.21234
 C559 C 0.69816 0.34139 0.16958
 C560 C 0.66656 0.37288 0.12554
 C561 C 0.60500 0.37630 0.12649
 C562 C 0.57509 0.34923 0.17580
 C563 C 0.57531 0.28303 0.26448
 C564 C 0.51454 0.28972 0.26879
 C565 C 0.48426 0.32928 0.23044
 C566 C 0.51430 0.36030 0.18568
 H567 H 0.59556 0.25807 0.30050
 H568 H 0.49130 0.26575 0.30378
 H569 H 0.43741 0.33688 0.23579
 H570 H 0.48914 0.39376 0.16033
 H571 H 0.74572 0.34227 0.16752
 H572 H 0.69125 0.39465 0.08996
 C573 C 0.82117 0.17010 0.24005
 C574 C 0.77930 0.21004 0.21159
 C575 C 0.78284 0.21844 0.14773
 C576 C 0.82887 0.19241 0.11278
 C577 C 0.87103 0.15345 0.13941
 C578 C 0.86650 0.14051 0.20344
 C579 C 0.81897 0.15804 0.30408
 C580 C 0.85463 0.11246 0.32941
 C581 C 0.89632 0.08124 0.29291
 C582 C 0.90516 0.09805 0.23210
 H583 H 0.78963 0.18263 0.33556
 H584 H 0.85005 0.10117 0.37754
 H585 H 0.92217 0.04400 0.31204
 H586 H 0.94142 0.07539 0.20806
 H587 H 0.74966 0.24455 0.12364
 H588 H 0.82961 0.20027 0.06346
 C589 C 0.84401 0.75053 0.67072
 C590 C 0.79643 0.72509 0.70322
 C591 C 0.78832 0.66117 0.69685
 C592 C 0.82495 0.62328 0.65950
 C593 C 0.87414 0.64650 0.63028
 C594 C 0.88620 0.71034 0.63945
 C595 C 0.85166 0.81495 0.66944
 C596 C 0.90225 0.83897 0.64438
 C597 C 0.94630 0.79945 0.62039
 C598 C 0.93858 0.73584 0.61807
 H599 H 0.81936 0.84746 0.68861
 H600 H 0.90795 0.88844 0.64510
 H601 H 0.98665 0.81813 0.60333
 H602 H 0.97513 0.70734 0.60190
 H603 H 0.75278 0.63945 0.72003
 H604 H 0.81482 0.57482 0.65360
 C605 C 0.30234 0.11380 0.71246
 C606 C 0.29106 0.17828 0.70107
 C607 C 0.32214 0.20514 0.65330
 C608 C 0.35625 0.16965 0.61203
 C609 C 0.36576 0.10697 0.62098
 C610 C 0.34332 0.07976 0.67371
 C611 C 0.27825 0.08224 0.76249
 C612 C 0.29662 0.02241 0.77621
 C613 C 0.34006 -0.00789 0.74097
 C614 C 0.36307 0.02021 0.68978
 H615 H 0.24877 0.10325 0.79519
 H616 H 0.27837 0.00027 0.81583
 H617 H 0.35551 -0.05363 0.75288
 H618 H 0.39652 -0.00510 0.66286
 H619 H 0.31881 0.25437 0.64628
 H620 H 0.37646 0.19163 0.57333
 C621 C 0.32375 0.73513 0.15245
 C622 C 0.28873 0.69939 0.19257
 C623 C 0.29931 0.63512 0.19104
 C624 C 0.33905 0.60668 0.14924
 C625 C 0.36755 0.64054 0.10506
 C626 C 0.35791 0.70495 0.10456
 C627 C 0.32744 0.80001 0.15876
 C628 C 0.35402 0.83425 0.11355
 C629 C 0.37911 0.80445 0.06167
 C630 C 0.38174 0.74024 0.05744
 H631 H 0.31261 0.82483 0.19968
 H632 H 0.35499 0.88407 0.11883
 H633 H 0.39821 0.83102 0.02559
 H634 H 0.40175 0.71848 0.01680
 H635 H 0.27993 0.60596 0.22404
 H636 H 0.34757 0.55758 0.15119
   
