data_POSCAR
  _audit_creation_date              2014-09-24
  _audit_creation_method            'ToBaCCo'
  _symmetry_space_group_name_H-M    'P1'
  _symmetry_Int_Tables_number       1
  _symmetry_cell_setting            triclinic
  loop_
  _symmetry_equiv_pos_as_xyz
 x,y,z
_cell_length_a 42.7320
_cell_length_b 43.9208
_cell_length_c 29.8783
_cell_angle_alpha 90.015200
_cell_angle_beta 89.948300
_cell_angle_gamma 90.226600
loop_
  _atom_site_label
  _atom_site_type_symbol
  _atom_site_fract_x
  _atom_site_fract_y
  _atom_site_fract_z
O1 O 0.28582 0.22068 0.25686
 O2 O 0.23501 0.27741 0.20329
 O3 O 0.28198 0.27965 0.25878
 O4 O 0.23823 0.21852 0.20196
 O5 O 0.20522 0.21637 0.25859
 O6 O 0.25053 0.27569 0.31710
 O7 O 0.20321 0.27570 0.26145
 O8 O 0.25230 0.21644 0.31285
 Cu9 Cu 0.26353 0.24934 0.22451
 Cu10 Cu 0.22453 0.24590 0.29325
 C11 C 0.27759 0.20867 0.29373
 C12 C 0.21044 0.28632 0.22322
 C13 C 0.27401 0.28784 0.29793
 C14 C 0.21403 0.20707 0.22033
 O15 O 0.78620 0.28424 0.24969
 O16 O 0.73847 0.22267 0.29829
 O17 O 0.78985 0.22539 0.25022
 O18 O 0.73490 0.28171 0.29617
 O19 O 0.70777 0.28011 0.23343
 O20 O 0.76102 0.22165 0.18916
 O21 O 0.71018 0.22070 0.23673
 O22 O 0.75940 0.28078 0.18680
 Cu23 Cu 0.76510 0.25365 0.27987
 Cu24 Cu 0.73174 0.25058 0.20536
 C25 C 0.78122 0.29282 0.20975
 C26 C 0.71592 0.21126 0.27610
 C27 C 0.78483 0.21395 0.21182
 C28 C 0.71211 0.29080 0.27246
 O29 O 0.73399 0.77856 0.70090
 O30 O 0.79031 0.72386 0.74668
 O31 O 0.73923 0.71939 0.69828
 O32 O 0.78342 0.78231 0.75099
 O33 O 0.75454 0.77725 0.81169
 O34 O 0.71086 0.71451 0.75963
 O35 O 0.76113 0.71835 0.80723
 O36 O 0.70440 0.77315 0.76102
 Cu37 Cu 0.76458 0.75143 0.71804
 Cu38 Cu 0.72985 0.74550 0.79103
 C39 C 0.70954 0.78510 0.72294
 C40 C 0.78549 0.71192 0.78476
 C41 C 0.71745 0.70621 0.72008
 C42 C 0.77669 0.79038 0.79073
 O43 O 0.29285 0.78784 0.76618
 O44 O 0.25007 0.72331 0.81520
 O45 O 0.29933 0.72916 0.76288
 O46 O 0.24322 0.78228 0.81501
 O47 O 0.21314 0.77854 0.75537
 O48 O 0.26888 0.72590 0.70340
 O49 O 0.22040 0.72015 0.75498
 O50 O 0.26342 0.78506 0.70566
 Cu51 Cu 0.27435 0.75576 0.79586
 Cu52 Cu 0.23854 0.75223 0.72376
 C53 C 0.28553 0.79753 0.72762
 C54 C 0.22772 0.71088 0.79386
 C55 C 0.29363 0.71857 0.72410
 C56 C 0.21836 0.78935 0.79411
 O57 O 0.97175 -0.00962 -0.05615
 O58 O 1.03041 0.03430 0.00706
 O59 O 1.03259 -0.01153 -0.04669
 O60 O 0.97020 0.03678 -0.00037
 O61 O 0.96411 0.00470 0.05593
 O62 O 1.02633 -0.04370 0.00949
 O63 O 1.02473 0.00304 0.06434
 O64 O 0.96594 -0.04085 0.00112
 Cu65 Cu 1.00160 0.01558 -0.02992
 Cu66 Cu 0.99483 -0.02239 0.03845
 C67 C 0.95884 -0.03277 -0.03838
 C68 C 1.03751 0.02627 0.04656
 C69 C 1.04009 -0.03581 -0.02640
 C70 C 0.95673 0.02911 0.03587
 O71 O 0.53052 0.54038 0.48589
 O72 O 0.46639 0.49539 0.43750
 O73 O 0.46989 0.54362 0.48946
 O74 O 0.52695 0.49141 0.43732
 O75 O 0.52678 0.46367 0.49890
 O76 O 0.46713 0.51329 0.54830
 O77 O 0.46594 0.46558 0.49691
 O78 O 0.52822 0.51284 0.54754
 Cu79 Cu 0.49843 0.52062 0.45650
 Cu80 Cu 0.49689 0.48599 0.52900
 C81 C 0.54024 0.53453 0.52505
 C82 C 0.45559 0.47245 0.45834
 C83 C 0.45867 0.53712 0.52773
 C84 C 0.53682 0.46872 0.45958
 O85 O 0.03321 0.50101 -0.07837
 O86 O -0.02829 0.45397 -0.02671
 O87 O -0.02780 0.50205 -0.07650
 O88 O 0.03261 0.45287 -0.02663
 O89 O 0.03265 0.48147 0.03409
 O90 O -0.02514 0.53231 -0.01757
 O91 O -0.02792 0.48371 0.03282
 O92 O 0.03557 0.52936 -0.01750
 Cu93 Cu 0.00247 0.47455 -0.05811
 Cu94 Cu 0.00394 0.50968 0.01395
 C95 C 0.04491 0.52325 -0.05687
 C96 C -0.03880 0.46087 0.01172
 C97 C -0.03660 0.52569 -0.05555
 C98 C 0.04249 0.45844 0.01267
 O99 O 0.53448 1.01418 0.45262
 O100 O 0.47023 0.96869 0.50010
 O101 O 0.47373 1.01753 0.45199
 O102 O 0.53083 0.96527 0.50334
 O103 O 0.53253 0.99449 0.56348
 O104 O 0.47557 1.04635 0.51254
 O105 O 0.47141 0.99676 0.56132
 O106 O 0.53586 1.04252 0.51360
 Cu107 Cu 0.50236 0.98853 0.47091
 Cu108 Cu 0.50382 1.02280 0.54396
 C109 C 0.54593 1.03633 0.47463
 C110 C 0.45980 0.97489 0.53880
 C111 C 0.46517 1.04102 0.47352
 C112 C 0.54140 0.97107 0.54219
 C113 C 1.20482 0.17527 0.15433
 C114 C 1.18696 0.15341 0.13176
 C115 C 1.16122 0.13970 0.15259
 C116 C 1.15342 0.14804 0.19656
 C117 C 1.17093 0.17022 0.21902
 C118 C 1.19684 0.18427 0.19816
 N119 N 1.14264 0.11841 0.12778
 N120 N 1.12160 0.10205 0.14614
 C121 C 1.10205 0.08199 0.12060
 C122 C 1.08249 0.06137 0.14300
 C123 C 1.06204 0.04256 0.11894
 C124 C 1.06052 0.04453 0.07204
 C125 C 1.08043 0.06503 0.04964
 C126 C 1.10115 0.08347 0.07365
 H127 H 1.22452 0.18546 0.13701
 H128 H 1.19311 0.14722 0.09779
 H129 H 1.13346 0.13787 0.21324
 H130 H 1.16402 0.17636 0.25272
 H131 H 1.08290 0.06010 0.17919
 H132 H 1.04688 0.02707 0.13709
 H133 H 1.07986 0.06696 0.01351
 H134 H 1.11594 0.09932 0.05558
 C135 C 0.68008 0.66253 0.72631
 C136 C 0.66111 0.64019 0.70699
 C137 C 0.66045 0.63638 0.66057
 C138 C 0.67989 0.65461 0.63349
 C139 C 0.69921 0.67679 0.65286
 C140 C 0.69908 0.68131 0.69944
 N141 N 0.63894 0.61478 0.64191
 N142 N 0.63423 0.61260 0.60000
 C143 C 0.61188 0.59164 0.58173
 C144 C 0.60518 0.59298 0.53599
 C145 C 0.58213 0.57419 0.51750
 C146 C 0.56553 0.55344 0.54452
 C147 C 0.57284 0.55158 0.59029
 C148 C 0.59574 0.57062 0.60882
 H149 H 0.67961 0.66531 0.76233
 H150 H 0.64627 0.62626 0.72817
 H151 H 0.67983 0.65200 0.59747
 H152 H 0.71357 0.69094 0.63133
 H153 H 0.61745 0.60907 0.51478
 H154 H 0.57718 0.57607 0.48207
 H155 H 0.56046 0.53584 0.61195
 H156 H 0.60056 0.56912 0.64431
 C157 C -0.17821 0.33387 0.21659
 C158 C -0.15821 0.35547 0.19737
 C159 C -0.15798 0.35998 0.15105
 C160 C -0.17868 0.34315 0.12402
 C161 C -0.19895 0.32178 0.14323
 C162 C -0.19865 0.31664 0.18967
 N163 N -0.13598 0.38106 0.13222
 N164 N -0.13177 0.38324 0.09018
 C165 C -0.10937 0.40382 0.07113
 C166 C -0.10293 0.40188 0.02534
 C167 C -0.08015 0.42058 0.00595
 C168 C -0.06366 0.44188 0.03209
 C169 C -0.07068 0.44430 0.07793
 C170 C -0.09324 0.42530 0.09739
 H171 H -0.17752 0.33053 0.25248
 H172 H -0.14239 0.36832 0.21854
 H173 H -0.17902 0.34632 0.08810
 H174 H -0.21439 0.30884 0.12162
 H175 H -0.11524 0.38544 0.00478
 H176 H -0.07540 0.41828 -0.02950
 H177 H -0.05833 0.46046 0.09891
 H178 H -0.09791 0.42727 0.13288
 C179 C 0.32284 0.84113 0.73576
 C180 C 0.34129 0.86429 0.71745
 C181 C 0.34101 0.86979 0.67139
 C182 C 0.32114 0.85245 0.64375
 C183 C 0.30233 0.82946 0.66213
 C184 C 0.30341 0.82324 0.70825
 N185 N 0.36209 0.89211 0.65352
 N186 N 0.36608 0.89563 0.61164
 C187 C 0.38808 0.91717 0.59394
 C188 C 0.39441 0.91682 0.54804
 C189 C 0.41739 0.93593 0.53004
 C190 C 0.43425 0.95604 0.55771
 C191 C 0.42717 0.95707 0.60364
 C192 C 0.40438 0.93766 0.62169
 H193 H 0.32404 0.83703 0.77146
 H194 H 0.35647 0.87751 0.73907
 H195 H 0.32047 0.85637 0.60800
 H196 H 0.28763 0.81604 0.64012
 H197 H 0.38200 0.90116 0.52632
 H198 H 0.42215 0.93473 0.49448
 H199 H 0.43977 0.97230 0.62578
 H200 H 0.39983 0.93840 0.65732
 C201 C -0.15927 0.69536 -0.20502
 C202 C -0.13705 0.67573 -0.18672
 C203 C -0.14649 0.65059 -0.16129
 C204 C -0.17852 0.64557 -0.15339
 C205 C -0.20076 0.66576 -0.17052
 C206 C -0.19129 0.69066 -0.19677
 N207 N -0.12315 0.63093 -0.14302
 N208 N -0.12889 0.60323 -0.13351
 C209 C -0.10560 0.58413 -0.11382
 C210 C -0.10738 0.55259 -0.12008
 C211 C -0.08460 0.53352 -0.10174
 C212 C -0.06033 0.54575 -0.07556
 C213 C -0.05896 0.57733 -0.06848
 C214 C -0.08119 0.59645 -0.08798
 H215 H -0.15144 0.71457 -0.22488
 H216 H -0.11241 0.67990 -0.19280
 H217 H -0.18625 0.62641 -0.13339
 H218 H -0.22534 0.66172 -0.16378
 H219 H -0.12617 0.54285 -0.13978
 H220 H -0.08622 0.50920 -0.10735
 H221 H -0.04042 0.58725 -0.04846
 H222 H -0.07958 0.62076 -0.08239
 C223 C 0.28449 1.16132 0.33885
 C224 C 0.30369 1.13948 0.35881
 C225 C 0.33628 1.14222 0.35630
 C226 C 0.34959 1.16657 0.33234
 C227 C 0.33042 1.18787 0.31118
 C228 C 0.29773 1.18561 0.31473
 N229 N 0.35545 1.12014 0.37819
 N230 N 0.38292 1.12677 0.39152
 C231 C 0.40278 1.10478 0.41227
 C232 C 0.42663 1.11490 0.44071
 C233 C 0.44649 1.09403 0.46144
 C234 C 0.44339 1.06274 0.45276
 C235 C 0.41979 1.05260 0.42360
 C236 C 0.39929 1.07346 0.40395
 H237 H 0.25932 1.15905 0.34175
 H238 H 0.29319 1.12074 0.37705
 H239 H 0.37475 1.16891 0.32966
 H240 H 0.34112 1.20647 0.29283
 H241 H 0.42961 1.13900 0.44716
 H242 H 0.46471 1.10238 0.48349
 H243 H 0.41701 1.02856 0.41645
 H244 H 0.38116 1.06524 0.38169
 C245 C 1.16663 -0.18713 -0.20558
 C246 C 1.14433 -0.16854 -0.18522
 C247 C 1.15159 -0.15257 -0.14613
 C248 C 1.18130 -0.15585 -0.12678
 C249 C 1.20334 -0.17532 -0.14618
 C250 C 1.19639 -0.19107 -0.18610
 N251 N 1.12824 -0.13364 -0.12625
 N252 N 1.13533 -0.11001 -0.10376
 C253 C 1.11164 -0.09183 -0.08316
 C254 C 1.11610 -0.06034 -0.07961
 C255 C 1.09263 -0.04198 -0.06146
 C256 C 1.06493 -0.05513 -0.04497
 C257 C 1.06092 -0.08682 -0.04712
 C258 C 1.08391 -0.10503 -0.06677
 H259 H 1.16021 -0.19894 -0.23608
 H260 H 1.12143 -0.16623 -0.20030
 H261 H 1.18718 -0.14385 -0.09625
 H262 H 1.22593 -0.17768 -0.13014
 H263 H 1.13743 -0.04995 -0.09203
 H264 H 1.09618 -0.01757 -0.05986
 H265 H 1.03967 -0.09735 -0.03464
 H266 H 1.08022 -0.12939 -0.06887
 C267 C 0.66869 0.32850 0.26264
 C268 C 0.64826 0.35034 0.28001
 C269 C 0.64895 0.35773 0.32555
 C270 C 0.67068 0.34326 0.35363
 C271 C 0.69132 0.32169 0.33625
 C272 C 0.69045 0.31394 0.29061
 N273 N 0.62729 0.37971 0.34260
 N274 N 0.62432 0.38447 0.38440
 C275 C 0.60284 0.40628 0.40222
 C276 C 0.59769 0.40682 0.44842
 C277 C 0.57632 0.42719 0.46705
 C278 C 0.56000 0.44776 0.43969
 C279 C 0.56563 0.44760 0.39331
 C280 C 0.58676 0.42688 0.37464
 H281 H 0.66754 0.32312 0.22730
 H282 H 0.63165 0.36134 0.25802
 H283 H 0.67175 0.34865 0.38895
 H284 H 0.70778 0.31086 0.35868
 H285 H 0.61002 0.39111 0.47000
 H286 H 0.57262 0.42686 0.50291
 H287 H 0.55335 0.46313 0.37141
 H288 H 0.59049 0.42695 0.33880
 C289 C 0.78835 -0.17894 -0.14299
 C290 C 0.80700 -0.15746 -0.12099
 C291 C 0.83148 -0.14284 -0.14348
 C292 C 0.83696 -0.14961 -0.18875
 C293 C 0.81856 -0.17134 -0.21079
 C294 C 0.79417 -0.18658 -0.18806
 N295 N 0.85125 -0.12241 -0.11898
 N296 N 0.87203 -0.10596 -0.13775
 C297 C 0.89259 -0.08682 -0.11225
 C298 C 0.91201 -0.06604 -0.13456
 C299 C 0.93316 -0.04793 -0.11056
 C300 C 0.93552 -0.05073 -0.06380
 C301 C 0.91586 -0.07151 -0.04150
 C302 C 0.89447 -0.08927 -0.06543
 H303 H 0.76984 -0.19001 -0.12421
 H304 H 0.80260 -0.15246 -0.08606
 H305 H 0.85587 -0.13864 -0.20679
 H306 H 0.82378 -0.17642 -0.24547
 H307 H 0.91087 -0.06402 -0.17064
 H308 H 0.94809 -0.03221 -0.12866
 H309 H 0.91705 -0.07411 -0.00550
 H310 H 0.87982 -0.10527 -0.04741
 C311 C 0.28946 0.31549 0.36800
 C312 C 0.30813 0.33678 0.39050
 C313 C 0.32977 0.35462 0.36695
 C314 C 0.33252 0.35100 0.32037
 C315 C 0.31419 0.32948 0.29793
 C316 C 0.29254 0.31141 0.32152
 N317 N 0.34938 0.37546 0.39107
 N318 N 0.36674 0.39470 0.37097
 C319 C 0.38748 0.41486 0.39430
 C320 C 0.40295 0.43763 0.37010
 C321 C 0.42452 0.45681 0.39118
 C322 C 0.43130 0.45327 0.43693
 C323 C 0.41547 0.43056 0.46134
 C324 C 0.39361 0.41158 0.44026
 H325 H 0.27309 0.30181 0.38712
 H326 H 0.30585 0.33928 0.42641
 H327 H 0.34920 0.36442 0.30141
 H328 H 0.31704 0.32691 0.26211
 H329 H 0.39849 0.44030 0.33465
 H330 H 0.43638 0.47398 0.37137
 H331 H 0.42017 0.42730 0.49663
 H332 H 0.38201 0.39401 0.45962
 C333 C 0.21265 0.67984 -0.13912
 C334 C 0.19402 0.65763 -0.11863
 C335 C 0.17235 0.64086 -0.14369
 C336 C 0.16972 0.64629 -0.18989
 C337 C 0.18810 0.66873 -0.21037
 C338 C 0.20959 0.68591 -0.18513
 N339 N 0.15244 0.61946 -0.12120
 N340 N 0.13429 0.60152 -0.14240
 C341 C 0.11331 0.58112 -0.11988
 C342 C 0.09665 0.55968 -0.14507
 C343 C 0.07491 0.54038 -0.12446
 C344 C 0.06919 0.54251 -0.07820
 C345 C 0.08619 0.56390 -0.05288
 C346 C 0.10818 0.58295 -0.07348
 H347 H 0.22889 0.69275 -0.11872
 H348 H 0.19619 0.65371 -0.08298
 H349 H 0.15304 0.63369 -0.20997
 H350 H 0.18525 0.67283 -0.24587
 H351 H 0.10032 0.55813 -0.18086
 H352 H 0.06212 0.52423 -0.14491
 H353 H 0.08235 0.56605 -0.01719
 H354 H 0.12069 0.59946 -0.05332
 C355 C 0.67297 1.17443 0.27036
 C356 C 0.65380 1.15222 0.28979
 C357 C 0.65794 1.14376 0.33448
 C358 C 0.68210 1.15726 0.35950
 C359 C 0.70162 1.17918 0.34001
 C360 C 0.69711 1.18838 0.29526
 N361 N 0.63694 1.12193 0.35382
 N362 N 0.63614 1.11673 0.39571
 C363 C 0.61477 1.09520 0.41494
 C364 C 0.61062 1.09486 0.46138
 C365 C 0.58855 1.07542 0.48098
 C366 C 0.57061 1.05557 0.45434
 C367 C 0.57554 1.05525 0.40781
 C368 C 0.59728 1.07504 0.38821
 H369 H 0.66875 1.18067 0.23582
 H370 H 0.63528 1.14192 0.27017
 H371 H 0.68584 1.15095 0.39410
 H372 H 0.71991 1.18924 0.36035
 H373 H 0.62401 1.11024 0.48233
 H374 H 0.58536 1.07608 0.51693
 H375 H 0.56201 1.04028 0.38642
 H376 H 0.60020 1.07477 0.35222
 C377 C 0.16669 0.32416 0.22598
 C378 C 0.14711 0.34524 0.20502
 C379 C 0.15013 0.35118 0.15920
 C380 C 0.17340 0.33614 0.13451
 C381 C 0.19326 0.31537 0.15551
 C382 C 0.18998 0.30900 0.20142
 N383 N 0.12926 0.37242 0.13860
 N384 N 0.12769 0.37564 0.09631
 C385 C 0.10689 0.39701 0.07587
 C386 C 0.10230 0.39591 0.02952
 C387 C 0.08146 0.41593 0.00877
 C388 C 0.06522 0.43773 0.03412
 C389 C 0.07035 0.43915 0.08057
 C390 C 0.09084 0.41887 0.10132
 H391 H 0.16366 0.31982 0.26140
 H392 H 0.12931 0.35675 0.22442
 H393 H 0.17628 0.34046 0.09907
 H394 H 0.21092 0.30399 0.13567
 H395 H 0.11459 0.37921 0.00954
 H396 H 0.07808 0.41434 -0.02708
 H397 H 0.05812 0.45563 0.10104
 H398 H 0.09412 0.42028 0.13718
 C399 C 0.65464 0.80310 0.71173
 C400 C 0.63310 0.82249 0.69110
 C401 C 0.64347 0.84615 0.66333
 C402 C 0.67571 0.85004 0.65589
 C403 C 0.69717 0.83016 0.67543
 C404 C 0.68683 0.80659 0.70361
 N405 N 0.62101 0.86556 0.64232
 N406 N 0.62829 0.89223 0.62919
 C407 C 0.60641 0.91147 0.60672
 C408 C 0.61012 0.94306 0.60969
 C409 C 0.58882 0.96246 0.58880
 C410 C 0.56415 0.95046 0.56320
 C411 C 0.56095 0.91876 0.55907
 C412 C 0.58169 0.89934 0.58126
 H413 H 0.64612 0.78492 0.73303
 H414 H 0.60831 0.81922 0.69698
 H415 H 0.68421 0.86803 0.63425
 H416 H 0.72189 0.83329 0.66870
 H417 H 0.62920 0.95264 0.62900
 H418 H 0.59177 0.98686 0.59225
 H419 H 0.54199 0.90907 0.53962
 H420 H 0.57868 0.87494 0.57817
 C421 C 0.83919 0.19429 0.20288
 C422 C 0.86065 0.17455 0.18291
 C423 C 0.85037 0.15161 0.15386
 C424 C 0.81828 0.14877 0.14448
 C425 C 0.79688 0.16907 0.16342
 C426 C 0.80717 0.19193 0.19288
 N427 N 0.87295 0.13208 0.13336
 N428 N 0.86568 0.10586 0.11842
 C429 C 0.88826 0.08699 0.09660
 C430 C 0.88452 0.05533 0.09780
 C431 C 0.90686 0.03639 0.07807
 C432 C 0.93265 0.04899 0.05543
 C433 C 0.93583 0.08077 0.05296
 C434 C 0.91402 0.09966 0.07394
 H435 H 0.84770 0.21191 0.22518
 H436 H 0.88535 0.17702 0.19022
 H437 H 0.80989 0.13135 0.12178
 H438 H 0.77229 0.16683 0.15522
 H439 H 0.86467 0.04533 0.11499
 H440 H 0.90391 0.01193 0.08021
 H441 H 0.95563 0.09094 0.03583
 H442 H 0.91712 0.12411 0.07225
 C443 C 0.34824 0.70038 0.71023
 C444 C 0.36934 0.68158 0.68751
 C445 C 0.35843 0.65928 0.65780
 C446 C 0.32610 0.65620 0.65053
 C447 C 0.30508 0.67551 0.67224
 C448 C 0.31594 0.69770 0.70238
 N449 N 0.38044 0.64033 0.63488
 N450 N 0.37250 0.61452 0.61910
 C451 C 0.39397 0.59570 0.59499
 C452 C 0.38935 0.56416 0.59498
 C453 C 0.41042 0.54508 0.57292
 C454 C 0.43579 0.55745 0.54910
 C455 C 0.43983 0.58917 0.54775
 C456 C 0.41930 0.60820 0.57113
 H457 H 0.35718 0.71750 0.73303
 H458 H 0.39422 0.68422 0.69330
 H459 H 0.31717 0.63927 0.62745
 H460 H 0.28028 0.67299 0.66566
 H461 H 0.36979 0.55431 0.61303
 H462 H 0.40686 0.52067 0.57427
 H463 H 0.45937 0.59912 0.52975
 H464 H 0.42303 0.63259 0.57036
   
