data_POSCAR
  _audit_creation_date              2014-09-24
  _audit_creation_method            'ToBaCCo'
  _symmetry_space_group_name_H-M    'P1'
  _symmetry_Int_Tables_number       1
  _symmetry_cell_setting            triclinic
  loop_
  _symmetry_equiv_pos_as_xyz
 x,y,z
_cell_length_a 25.8610
_cell_length_b 24.7235
_cell_length_c 25.0847
_cell_angle_alpha 89.802900
_cell_angle_beta 90.375300
_cell_angle_gamma 118.336600
loop_
  _atom_site_label
  _atom_site_type_symbol
  _atom_site_fract_x
  _atom_site_fract_y
  _atom_site_fract_z
C1 C 0.02294 0.53375 0.18144
 C2 C 0.01747 0.47577 0.18198
 C3 C 0.01178 0.45706 0.12927
 N4 N 0.01291 0.50101 0.09674
 C5 C 0.02010 0.54796 0.12843
 C6 C 0.01843 0.40698 0.11083
 C7 C -0.00143 0.38182 0.05995
 C8 C 0.01184 0.33998 0.03541
 C9 C -0.01525 0.32794 -0.01383
 C10 C -0.04374 0.36337 -0.01791
 N11 N -0.03606 0.39513 0.02766
 C12 C -0.07816 0.36301 -0.06192
 C13 C -0.09468 0.40911 -0.07081
 C14 C -0.13592 0.40601 -0.10772
 C15 C -0.13498 0.46203 -0.10686
 C16 C -0.09289 0.49783 -0.06976
 N17 N -0.06840 0.46525 -0.04764
 C18 C -0.07385 0.56075 -0.05966
 C19 C -0.03548 0.59276 -0.01720
 C20 C -0.00346 0.65628 -0.01325
 C21 C 0.02670 0.66912 0.03449
 C22 C 0.01166 0.61314 0.05846
 N23 N -0.02681 0.56686 0.02707
 C24 C 0.03189 0.60599 0.10887
 H25 H 0.02960 0.56259 0.21591
 H26 H 0.02013 0.45125 0.21685
 H27 H -0.05013 0.52060 0.03727
 H28 H 0.03838 0.32044 0.05121
 H29 H -0.01381 0.29697 -0.04345
 H30 H -0.16456 0.36737 -0.13199
 H31 H -0.16294 0.47404 -0.13030
 H32 H 0.05595 0.71440 0.04997
 H33 H -0.05691 0.42082 0.03757
 H34 H -0.00180 0.68986 -0.04194
 C35 C 0.48349 0.41716 -0.16232
 C36 C 0.53739 0.46884 -0.16430
 C37 C 0.54305 0.50220 -0.11817
 N38 N 0.49343 0.47292 -0.08887
 C39 C 0.45744 0.42044 -0.11531
 C40 C 0.59246 0.55995 -0.10537
 C41 C 0.59515 0.59453 -0.05973
 C42 C 0.63411 0.65636 -0.05251
 C43 C 0.62472 0.67163 -0.00178
 C44 C 0.58131 0.61829 0.02078
 N45 N 0.56402 0.57156 -0.01465
 C46 C 0.56054 0.61266 0.07357
 C47 C 0.51447 0.55740 0.09280
 C48 C 0.50323 0.54172 0.14618
 C49 C 0.44943 0.49034 0.14809
 C50 C 0.43035 0.47648 0.09581
 N51 N 0.47008 0.51723 0.06206
 C52 C 0.37396 0.43201 0.08017
 C53 C 0.36202 0.40607 0.02887
 C54 C 0.30655 0.36640 0.00958
 C55 C 0.31411 0.35041 -0.04122
 C56 C 0.37399 0.38148 -0.05150
 N57 N 0.40293 0.41437 -0.00820
 C58 C 0.39998 0.37714 -0.09942
 H59 H 0.46503 0.38199 -0.19270
 H60 H 0.56783 0.48094 -0.19710
 H61 H 0.44819 0.43652 -0.00259
 H62 H 0.66589 0.68716 -0.08086
 H63 H 0.64805 0.71639 0.01679
 H64 H 0.53036 0.56554 0.18022
 H65 H 0.42656 0.46646 0.18378
 H66 H 0.27945 0.31991 -0.06782
 H67 H 0.53735 0.52526 -0.00661
 H68 H 0.26513 0.35049 0.03005
 C69 C 0.45675 0.96299 0.14419
 C70 C 0.51290 0.97098 0.14141
 C71 C 0.52385 0.96623 0.08800
 N72 N 0.47681 0.95679 0.05809
 C73 C 0.43588 0.95472 0.09235
 C74 C 0.57215 0.96024 0.06849
 C75 C 0.58980 0.97271 0.01484
 C76 C 0.63293 0.96286 -0.00857
 C77 C 0.63839 0.98396 -0.06041
 C78 C 0.59750 1.00470 -0.06721
 N79 N 0.56885 0.99864 -0.02099
 C80 C 0.59191 1.03424 -0.11334
 C81 C 0.54184 1.04224 -0.12464
 C82 C 0.53506 1.07114 -0.16969
 C83 C 0.48085 1.06852 -0.16611
 C84 C 0.45591 1.03786 -0.11919
 N85 N 0.49277 1.02088 -0.09446
 C86 C 0.39879 1.02318 -0.10149
 C87 C 0.37428 0.99084 -0.05402
 C88 C 0.31464 0.96087 -0.04277
 C89 C 0.30877 0.93679 0.00773
 C90 C 0.36499 0.95351 0.02592
 N91 N 0.40472 0.98691 -0.01170
 C92 C 0.37842 0.94079 0.07726
 H93 H 0.43404 0.96339 0.18015
 H94 H 0.54186 0.97789 0.17500
 H95 H 0.45001 1.01131 -0.00677
 H96 H 0.65858 0.94381 0.01005
 H97 H 0.66912 0.98436 -0.08969
 H98 H 0.56525 1.09093 -0.20251
 H99 H 0.46154 1.08596 -0.19530
 H100 H 0.26795 0.91079 0.02893
 H101 H 0.54148 1.01754 -0.01273
 H102 H 0.27909 0.95667 -0.06841
 C103 C 1.11745 0.53953 0.37298
 C104 C 1.11728 0.59507 0.37316
 C105 C 1.09115 0.59794 0.42033
 N106 N 1.07484 0.54557 0.44865
 C107 C 1.09127 0.50994 0.41995
 C108 C 1.07793 0.64562 0.43396
 C109 C 1.04990 0.64680 0.48184
 C110 C 1.02196 0.68222 0.48957
 C111 C 0.99840 0.66932 0.53998
 C112 C 1.01331 0.62714 0.56185
 N113 N 1.04573 0.61451 0.52665
 C114 C 0.99609 0.60092 0.61287
 C115 C 1.00628 0.55253 0.63070
 C116 C 1.00313 0.53412 0.68338
 C117 C 1.00139 0.47776 0.68266
 C118 C 1.00404 0.46410 0.62962
 N119 N 1.00729 0.50988 0.59802
 C120 C 0.99322 0.40612 0.61039
 C121 C 1.01050 0.39881 0.55911
 C122 C 0.99522 0.34256 0.53592
 C123 C 1.01956 0.35482 0.48591
 C124 C 1.04823 0.41831 0.47980
 N125 N 1.04370 0.44491 0.52509
 C126 C 1.07805 0.44896 0.43314
 H127 H 1.13279 0.52211 0.34082
 H128 H 1.13259 0.62826 0.34119
 H129 H 1.06555 0.49171 0.53337
 H130 H 1.01766 0.71300 0.46125
 H131 H 0.97277 0.68835 0.55824
 H132 H 0.99956 0.55754 0.71841
 H133 H 0.99647 0.44902 0.71694
 H134 H 1.01546 0.32074 0.45685
 H135 H 1.06674 0.58828 0.53383
 H136 H 0.96907 0.29746 0.55313
 C137 C 0.51829 0.55369 0.32316
 C138 C 0.46480 0.50180 0.32386
 C139 C 0.46162 0.47241 0.37178
 N140 N 0.51233 0.50385 0.39968
 C141 C 0.54636 0.55480 0.37078
 C142 C 0.41147 0.41796 0.38862
 C143 C 0.40936 0.38675 0.43615
 C144 C 0.36764 0.32701 0.44767
 C145 C 0.37819 0.31551 0.49942
 C146 C 0.42518 0.36913 0.51806
 N147 N 0.44357 0.41229 0.47937
 C148 C 0.44717 0.37855 0.57065
 C149 C 0.49724 0.43319 0.58652
 C150 C 0.51095 0.45411 0.63855
 C151 C 0.56549 0.50444 0.63728
 C152 C 0.58291 0.51294 0.58449
 N153 N 0.54118 0.46949 0.55344
 C154 C 0.63863 0.55753 0.56669
 C155 C 0.64835 0.58182 0.51443
 C156 C 0.70149 0.62708 0.49511
 C157 C 0.69068 0.64130 0.44418
 C158 C 0.63169 0.60309 0.43360
 N159 N 0.60625 0.56794 0.47682
 C160 C 0.60182 0.60389 0.38654
 H161 H 0.53451 0.58681 0.29100
 H162 H 0.43209 0.48742 0.29244
 H163 H 0.56150 0.54127 0.48249
 H164 H 0.33307 0.29532 0.42161
 H165 H 0.35312 0.27324 0.52129
 H166 H 0.48436 0.43569 0.67381
 H167 H 0.58937 0.53211 0.67125
 H168 H 0.72250 0.67558 0.41789
 H169 H 0.47245 0.45865 0.48435
 H170 H 0.74315 0.64880 0.51607
 C171 C 0.50045 0.03881 0.65668
 C172 C 0.55686 0.04791 0.65335
 C173 C 0.56898 0.04942 0.59955
 N174 N 0.52251 0.04193 0.56988
 C175 C 0.48076 0.03606 0.60471
 C176 C 0.62413 0.06389 0.57846
 C177 C 0.63080 0.04538 0.52708
 C178 C 0.68427 0.06068 0.50371
 C179 C 0.67189 0.03172 0.45489
 C180 C 0.61111 0.00026 0.44961
 N181 N 0.58643 0.00794 0.49424
 C182 C 0.58077 -0.03515 0.40461
 C183 C 0.52161 -0.05135 0.39223
 C184 C 0.49212 -0.08128 0.34618
 C185 C 0.43805 -0.08315 0.34724
 C186 C 0.43611 -0.05460 0.39403
 N187 N 0.48734 -0.03478 0.42114
 C188 C 0.38976 -0.04257 0.40852
 C189 C 0.38728 -0.01561 0.45735
 C190 C 0.34917 0.00816 0.46720
 C191 C 0.36014 0.03081 0.51832
 C192 C 0.40441 0.02008 0.53829
 N193 N 0.41996 -0.00940 0.50141
 C194 C 0.42913 0.03775 0.58951
 H195 H 0.47711 0.03571 0.69319
 H196 H 0.58575 0.05317 0.68662
 H197 H 0.44815 -0.02797 0.50730
 H198 H 0.72759 0.08921 0.52031
 H199 H 0.70400 0.03418 0.42618
 H200 H 0.50854 -0.09767 0.31403
 H201 H 0.40460 -0.10196 0.31649
 H202 H 0.33853 0.05328 0.53826
 H203 H 0.54210 -0.01569 0.50360
 H204 H 0.31726 0.00981 0.44003
 O205 O 0.14161 0.37693 0.20567
 O206 O 0.25597 0.37860 0.29887
 O207 O 0.14374 0.35305 0.30680
 O208 O 0.24634 0.38728 0.19660
 O209 O 0.28205 0.48646 0.21301
 O210 O 0.17443 0.45174 0.32079
 O211 O 0.28386 0.47635 0.31544
 O212 O 0.17856 0.47657 0.22055
 Cu213 Cu 0.19330 0.36375 0.25109
 Cu214 Cu 0.23302 0.48244 0.26902
 C215 C 0.14197 0.42803 0.19744
 C216 C 0.29004 0.42916 0.32208
 C217 C 0.13989 0.39567 0.33126
 C218 C 0.28223 0.44280 0.18647
 O219 O 0.62200 0.75775 0.18452
 O220 O 0.66371 0.88106 0.28317
 O221 O 0.64016 0.76176 0.28682
 O222 O 0.62729 0.86447 0.18227
 O223 O 0.53480 0.82824 0.20691
 O224 O 0.54966 0.73669 0.31119
 O225 O 0.57120 0.85038 0.30401
 O226 O 0.52955 0.72270 0.20881
 Cu227 Cu 0.64828 0.82065 0.23314
 Cu228 Cu 0.53763 0.78112 0.26031
 C229 C 0.56808 0.71946 0.17957
 C230 C 0.62542 0.88848 0.30870
 C231 C 0.59511 0.73056 0.31583
 C232 C 0.57673 0.86110 0.17655
 O233 O 0.13344 0.79317 0.29485
 O234 O 0.24362 0.85874 0.18835
 O235 O 0.14089 0.76185 0.19804
 O236 O 0.23434 0.89340 0.28278
 O237 O 0.27941 0.84396 0.31606
 O238 O 0.18557 0.71157 0.23039
 O239 O 0.28855 0.80893 0.22123
 O240 O 0.17813 0.74320 0.32760
 Cu241 Cu 0.18350 0.83183 0.23805
 Cu242 Cu 0.23729 0.77172 0.27711
 C243 C 0.13617 0.75613 0.32853
 C244 C 0.28551 0.84559 0.18740
 C245 C 0.14713 0.71402 0.20012
 C246 C 0.27345 0.89203 0.31259
 O247 O 0.86797 0.62273 0.70803
 O248 O 0.74466 0.61001 0.79536
 O249 O 0.85861 0.65214 0.80876
 O250 O 0.76220 0.61336 0.69173
 O251 O 0.73376 0.51504 0.70600
 O252 O 0.83413 0.55473 0.82144
 O253 O 0.72170 0.51290 0.80872
 O254 O 0.83648 0.52393 0.72274
 Cu255 Cu 0.81151 0.63361 0.74957
 Cu256 Cu 0.77928 0.51832 0.76595
 C257 C 0.87187 0.57359 0.70077
 C258 C 0.71227 0.55763 0.81691
 C259 C 0.86337 0.61086 0.83493
 C260 C 0.73101 0.55746 0.67915
 O261 O 0.36987 0.23512 0.68229
 O262 O 0.31490 0.10689 0.77803
 O263 O 0.31720 0.21605 0.77445
 O264 O 0.36523 0.12954 0.68705
 O265 O 0.45164 0.17274 0.72794
 O266 O 0.40265 0.25764 0.81651
 O267 O 0.40113 0.14808 0.81878
 O268 O 0.45517 0.27727 0.72490
 Cu269 Cu 0.33244 0.16789 0.72730
 Cu270 Cu 0.43588 0.21838 0.77725
 C271 C 0.42275 0.27718 0.68675
 C272 C 0.34972 0.10374 0.81227
 C273 C 0.35208 0.25297 0.80893
 C274 C 0.41713 0.13724 0.69245
 O275 O 0.75989 0.15399 0.68678
 O276 O 0.85804 0.21272 0.80096
 O277 O 0.74445 0.13969 0.78957
 O278 O 0.86513 0.25245 0.70134
 O279 O 0.83034 0.31700 0.71633
 O280 O 0.71994 0.21247 0.80479
 O281 O 0.83148 0.28386 0.81551
 O282 O 0.72695 0.21996 0.70250
 Cu283 Cu 0.81041 0.18383 0.74293
 Cu284 Cu 0.77506 0.26468 0.76062
 C285 C 0.72481 0.17480 0.67636
 C286 C 0.86199 0.25759 0.82782
 C287 C 0.71161 0.15862 0.81206
 C288 C 0.86719 0.30476 0.69448
 N289 N 0.05653 0.39010 0.14041
 N290 N 0.10060 0.43343 0.16340
 N291 N 0.58351 0.66574 0.10783
 N292 N 0.54952 0.67101 0.14163
 N293 N 0.33121 0.91160 0.11463
 N294 N 0.33105 0.87351 0.14896
 N295 N 0.95705 0.61531 0.64342
 N296 N 0.91541 0.57119 0.66794
 N297 N 0.41910 0.32908 0.60824
 N298 N 0.44742 0.32507 0.64838
 N299 N 0.67525 0.09898 0.61079
 N300 N 0.67918 0.14420 0.63808
 N301 N 0.36498 0.03726 0.86863
 N302 N 0.33077 0.04837 0.84215
 N303 N 0.64401 0.58282 0.86162
 N304 N 0.66356 0.54584 0.85028
 N305 N 0.90911 0.31970 0.90248
 N306 N 0.90165 0.27761 0.87200
 N307 N 0.61160 0.95110 0.37107
 N308 N 0.64459 0.94132 0.34205
 N309 N 0.35779 0.39797 0.35892
 N310 N 0.33868 0.43656 0.35401
 N311 N 0.08608 0.68813 0.39843
 N312 N 0.09035 0.72846 0.36692
 N313 N 0.91173 0.59314 0.90759
 N314 N 0.90221 0.62881 0.87982
 N315 N 0.36704 0.33235 0.86788
 N316 N 0.33375 0.29027 0.83830
 N317 N 0.64240 0.06338 0.85270
 N318 N 0.66351 0.12080 0.84545
 N319 N 0.08859 0.41558 0.39875
 N320 N 0.09473 0.37883 0.36991
 N321 N 0.62442 0.65961 0.35559
 N322 N 0.59036 0.68330 0.35138
 N323 N 0.34944 0.94965 0.37290
 N324 N 0.31149 0.94642 0.34122
 N325 N 0.59786 0.93218 0.10266
 N326 N 0.56371 0.89361 0.13652
 N327 N 0.32646 0.41569 0.11677
 N328 N 0.32533 0.45687 0.14636
 N329 N 0.06950 0.66021 0.13889
 N330 N 0.10992 0.66148 0.16903
 N331 N 0.40541 0.06676 0.62397
 N332 N 0.43797 0.10629 0.65823
 N333 N 0.68673 0.57897 0.60407
 N334 N 0.68965 0.54060 0.63642
 N335 N 0.95424 0.35192 0.63992
 N336 N 0.91072 0.35234 0.66280
   
