data_POSCAR
  _audit_creation_date              2014-09-24
  _audit_creation_method            'ToBaCCo'
  _symmetry_space_group_name_H-M    'P1'
  _symmetry_Int_Tables_number       1
  _symmetry_cell_setting            triclinic
  loop_
  _symmetry_equiv_pos_as_xyz
 x,y,z
_cell_length_a 29.5793
_cell_length_b 29.6851
_cell_length_c 29.7155
_cell_angle_alpha 90.114000
_cell_angle_beta 89.929900
_cell_angle_gamma 92.222200
loop_
  _atom_site_label
  _atom_site_type_symbol
  _atom_site_fract_x
  _atom_site_fract_y
  _atom_site_fract_z
C1 C -0.11670 0.32967 0.00048
 C2 C -0.09497 0.33587 0.04222
 C3 C -0.04762 0.34312 0.04243
 C4 C -0.02176 0.33903 0.00268
 C5 C -0.04495 0.32830 -0.03781
 C6 C -0.09240 0.32258 -0.03937
 C7 C 0.02936 0.34162 0.00399
 C8 C 0.05491 0.34770 -0.03597
 C9 C 0.10165 0.34106 -0.03675
 C10 C 0.12401 0.33495 0.00422
 C11 C 0.10055 0.33243 0.04520
 C12 C 0.05307 0.33346 0.04434
 H13 H -0.15329 0.32644 -0.00009
 H14 H -0.03078 0.35094 0.07358
 H15 H -0.02618 0.32349 -0.06826
 H16 H 0.03824 0.35521 -0.06694
 H17 H 0.15986 0.32867 0.00387
 H18 H 0.03481 0.32485 0.07463
 C19 C 0.38036 0.83752 0.49659
 C20 C 0.40305 0.84394 0.53766
 C21 C 0.45038 0.85004 0.53709
 C22 C 0.47552 0.84412 0.49715
 C23 C 0.45131 0.83629 0.45663
 C24 C 0.40373 0.83514 0.45564
 C25 C 0.52640 0.84153 0.49866
 C26 C 0.55276 0.84556 0.45897
 C27 C 0.59905 0.83637 0.45914
 C28 C 0.62007 0.82850 0.50048
 C29 C 0.59576 0.82664 0.54092
 C30 C 0.54870 0.83106 0.53928
 H31 H 0.34408 0.83094 0.49682
 H32 H 0.46766 0.85679 0.56828
 H33 H 0.46903 0.82799 0.42627
 H34 H 0.53700 0.85393 0.42771
 H35 H 0.65560 0.82082 0.50084
 H36 H 0.52944 0.82362 0.56921
 C37 C 1.11993 0.66734 -0.00343
 C38 C 1.09732 0.66049 0.03783
 C39 C 1.04990 0.65424 0.03704
 C40 C 1.02483 0.66046 -0.00280
 C41 C 1.04902 0.66877 -0.04322
 C42 C 1.09666 0.66963 -0.04454
 C43 C 0.97389 0.66267 -0.00131
 C44 C 0.94765 0.65860 -0.04100
 C45 C 0.90125 0.66748 -0.04080
 C46 C 0.88001 0.67482 0.00066
 C47 C 0.90421 0.67608 0.04118
 C48 C 0.95137 0.67252 0.03939
 H49 H 1.15617 0.67434 -0.00325
 H50 H 1.03228 0.64713 0.06797
 H51 H 1.03105 0.67768 -0.07317
 H52 H 0.96360 0.65033 -0.07225
 H53 H 0.84440 0.68214 0.00114
 H54 H 0.97049 0.68009 0.06937
 C55 C 0.61760 0.17150 0.50254
 C56 C 0.59483 0.16424 0.54345
 C57 C 0.54762 0.15710 0.54284
 C58 C 0.52256 0.16190 0.50276
 C59 C 0.54673 0.17242 0.46272
 C60 C 0.59415 0.17795 0.46227
 C61 C 0.47145 0.16012 0.50346
 C62 C 0.44633 0.15496 0.46319
 C63 C 0.39958 0.16164 0.46228
 C64 C 0.37688 0.16747 0.50322
 C65 C 0.39996 0.16943 0.54436
 C66 C 0.44740 0.16804 0.54376
 H67 H 0.65409 0.17474 0.50308
 H68 H 0.53045 0.14901 0.57380
 H69 H 0.52904 0.17783 0.43170
 H70 H 0.46336 0.14809 0.43218
 H71 H 0.34107 0.17391 0.50274
 H72 H 0.46541 0.17620 0.57430
 C73 C 0.67026 -0.12744 -0.00042
 C74 C 0.67891 -0.10327 0.03959
 C75 C 0.67347 -0.05635 0.03911
 C76 C 0.66230 -0.03335 -0.00069
 C77 C 0.65621 -0.05889 -0.04063
 C78 C 0.66266 -0.10552 -0.04129
 C79 C 0.66184 0.01743 -0.00148
 C80 C 0.67121 0.04114 -0.04185
 C81 C 0.67343 0.08850 -0.04316
 C82 C 0.67141 0.11195 -0.00217
 C83 C 0.66415 0.08979 0.03893
 C84 C 0.65664 0.04271 0.03855
 H85 H 0.67248 -0.16369 -0.00106
 H86 H 0.67951 -0.03777 0.06982
 H87 H 0.64775 -0.04238 -0.07146
 H88 H 0.67983 0.02290 -0.07178
 H89 H 0.67853 0.14806 -0.00181
 H90 H 0.64898 0.02574 0.06970
 C91 C 0.17097 0.37928 0.50176
 C92 C 0.16469 0.40207 0.54253
 C93 C 0.15598 0.44827 0.54122
 C94 C 0.15963 0.47302 0.50060
 C95 C 0.16832 0.44892 0.46051
 C96 C 0.17166 0.40182 0.46040
 C97 C 0.15856 0.52397 0.50061
 C98 C 0.15396 0.54826 0.46001
 C99 C 0.16085 0.59537 0.45866
 C100 C 0.16687 0.61879 0.49940
 C101 C 0.16817 0.59638 0.54078
 C102 C 0.16635 0.54900 0.54067
 H103 H 0.17832 0.34380 0.50248
 H104 H 0.14827 0.46511 0.57210
 H105 H 0.17536 0.46668 0.42968
 H106 H 0.14734 0.53059 0.42903
 H107 H 0.17371 0.65490 0.49863
 H108 H 0.17407 0.53209 0.57150
 C109 C 0.32915 1.12347 -0.00012
 C110 C 0.33586 1.10082 0.04056
 C111 C 0.34405 1.05456 0.03916
 C112 C 0.33925 1.02960 -0.00123
 C113 C 0.33008 1.05347 -0.04125
 C114 C 0.32777 1.10082 -0.04168
 C115 C 0.33975 0.97865 -0.00090
 C116 C 0.34450 0.95402 -0.04133
 C117 C 0.33756 0.90679 -0.04259
 C118 C 0.33124 0.88389 -0.00150
 C119 C 0.32964 0.90674 0.03971
 C120 C 0.33158 0.95410 0.03929
 H121 H 0.32200 1.15901 0.00096
 H122 H 0.35201 1.03774 0.06991
 H123 H 0.32187 1.03522 -0.07162
 H124 H 0.35136 0.97180 -0.07213
 H125 H 0.32427 0.84778 -0.00176
 H126 H 0.32375 0.97144 0.06994
 C127 C 0.83147 0.61956 0.50109
 C128 C 0.83595 0.59623 0.54170
 C129 C 0.84222 0.54954 0.54011
 C130 C 0.83834 0.52519 0.49914
 C131 C 0.83141 0.55003 0.45924
 C132 C 0.83027 0.59727 0.45956
 C133 C 0.83692 0.47413 0.49836
 C134 C 0.84051 0.45022 0.45732
 C135 C 0.83299 0.40327 0.45529
 C136 C 0.82701 0.37937 0.49559
 C137 C 0.82227 0.40149 0.53691
 C138 C 0.82799 0.44875 0.53794
 H139 H 0.82546 0.65533 0.50204
 H140 H 0.84788 0.53224 0.57110
 H141 H 0.82377 0.53294 0.42814
 H142 H 0.84802 0.46794 0.42665
 H143 H 0.82346 0.34305 0.49390
 H144 H 0.82411 0.46523 0.56986
 O145 O 0.24224 0.29753 0.20227
 O146 O 0.31483 0.24782 0.28839
 O147 O 0.30410 0.23853 0.20148
 O148 O 0.25669 0.31130 0.28836
 O149 O 0.20345 0.25921 0.30301
 O150 O 0.25123 0.18599 0.21587
 O151 O 0.26110 0.19614 0.30278
 O152 O 0.18892 0.24549 0.21679
 Cu153 Cu 0.28477 0.27902 0.24380
 Cu154 Cu 0.22080 0.21654 0.26093
 C155 C 0.20349 0.27927 0.19418
 C156 C 0.29985 0.21405 0.31098
 C157 C 0.28530 0.20030 0.19313
 C158 C 0.22266 0.29742 0.31120
 O159 O 0.75980 0.81826 0.21860
 O160 O 0.80351 0.74245 0.30469
 O161 O 0.81916 0.75709 0.21872
 O162 O 0.74461 0.80485 0.30450
 O163 O 0.69082 0.75436 0.28663
 O164 O 0.76567 0.70589 0.20191
 O165 O 0.74989 0.69147 0.28774
 O166 O 0.70681 0.76674 0.20102
 Cu167 Cu 0.78714 0.78573 0.26353
 Cu168 Cu 0.72293 0.72439 0.24290
 C169 C 0.72676 0.80474 0.19416
 C170 C 0.78362 0.70437 0.31153
 C171 C 0.80447 0.72429 0.19462
 C172 C 0.70521 0.78736 0.31062
 O173 O 0.80750 0.25016 0.21059
 O174 O 0.72990 0.20487 0.29821
 O175 O 0.74420 0.18609 0.21276
 O176 O 0.79619 0.26302 0.29623
 O177 O 0.74685 0.31435 0.27945
 O178 O 0.69570 0.23749 0.19404
 O179 O 0.68032 0.25526 0.27942
 O180 O 0.75821 0.30135 0.19342
 Cu181 Cu 0.77418 0.22064 0.25585
 Cu182 Cu 0.71524 0.28207 0.23473
 C183 C 0.79598 0.28356 0.18702
 C184 C 0.69245 0.22352 0.30469
 C185 C 0.71198 0.19885 0.18833
 C186 C 0.77973 0.30125 0.30305
 O187 O 0.29630 0.76191 0.19671
 O188 O 0.24647 0.68514 0.28285
 O189 O 0.23621 0.69654 0.19608
 O190 O 0.31097 0.74738 0.28266
 O191 O 0.25974 0.79720 0.29838
 O192 O 0.18427 0.74554 0.21208
 O193 O 0.19574 0.73541 0.29874
 O194 O 0.24478 0.81141 0.21252
 Cu195 Cu 0.27765 0.71782 0.23813
 Cu196 Cu 0.21605 0.77736 0.25693
 C197 C 0.27819 0.79934 0.18918
 C198 C 0.21316 0.69777 0.30624
 C199 C 0.19798 0.71293 0.18851
 C200 C 0.29788 0.78034 0.30593
 O201 O 0.68995 0.24434 0.71842
 O202 O 0.76880 0.29237 0.80337
 O203 O 0.75018 0.30989 0.71871
 O204 O 0.70598 0.23022 0.80313
 O205 O 0.75706 0.18136 0.78404
 O206 O 0.80003 0.26081 0.69696
 O207 O 0.81998 0.24458 0.78183
 O208 O 0.74062 0.19516 0.69893
 Cu209 Cu 0.72379 0.27423 0.76287
 Cu210 Cu 0.78473 0.21574 0.73849
 C211 C 0.70222 0.21200 0.69367
 C212 C 0.80747 0.27570 0.80783
 C213 C 0.78140 0.29842 0.69226
 C214 C 0.72435 0.19278 0.80887
 O215 O 0.31386 0.75761 0.71285
 O216 O 0.23860 0.70619 0.79932
 O217 O 0.25323 0.69182 0.71337
 O218 O 0.30271 0.76766 0.79954
 O219 O 0.25204 0.81803 0.78409
 O220 O 0.20195 0.74155 0.69781
 O221 O 0.18738 0.75603 0.78392
 O222 O 0.26209 0.80686 0.69734
 Cu223 Cu 0.28217 0.72581 0.75769
 Cu224 Cu 0.22068 0.78554 0.73938
 C225 C 0.30028 0.79039 0.68960
 C226 C 0.20053 0.72316 0.80712
 C227 C 0.21991 0.70404 0.69013
 C228 C 0.28535 0.80531 0.80727
 O229 O 0.25007 0.31582 0.71663
 O230 O 0.29739 0.24202 0.80323
 O231 O 0.31208 0.25595 0.71700
 O232 O 0.24035 0.30565 0.80355
 O233 O 0.18633 0.25427 0.78912
 O234 O 0.25835 0.20439 0.70218
 O235 O 0.24393 0.19022 0.78836
 O236 O 0.19676 0.26371 0.70224
 Cu237 Cu 0.28039 0.28496 0.76142
 Cu238 Cu 0.21604 0.22294 0.74414
 C239 C 0.21577 0.30186 0.69404
 C240 C 0.27799 0.20388 0.81126
 C241 C 0.29721 0.22243 0.69409
 C242 C 0.20151 0.28795 0.81180
 O243 O 0.69491 0.75276 0.80035
 O244 O 0.74703 0.68048 0.71511
 O245 O 0.75737 0.69413 0.80173
 O246 O 0.68361 0.73901 0.71366
 O247 O 0.73518 0.79282 0.69936
 O248 O 0.80904 0.74759 0.78644
 O249 O 0.79792 0.73478 0.70023
 O250 O 0.74630 0.80661 0.78546
 Cu251 Cu 0.71555 0.71117 0.75906
 Cu252 Cu 0.77721 0.77585 0.74152
 C253 C 0.71248 0.79173 0.80812
 C254 C 0.78079 0.69567 0.69249
 C255 C 0.79550 0.71373 0.80959
 C256 C 0.69718 0.77322 0.69100
 C257 C 0.32552 0.12573 0.08411
 C258 C 0.27488 0.13561 0.08576
 C259 C 0.26242 0.16012 0.12183
 C260 C 0.30133 0.17289 0.15390
 C261 C 0.32188 0.12785 0.16632
 C262 C 0.33475 0.10308 0.12995
 C263 C 0.35016 0.17220 0.08791
 C264 C 0.33743 0.19689 0.12408
 H265 H 0.25044 0.12311 0.06102
 H266 H 0.22748 0.16796 0.12792
 H267 H 0.32732 0.11710 0.20072
 H268 H 0.35180 0.07179 0.13438
 H269 H 0.37616 0.18428 0.06459
 H270 H 0.35255 0.23004 0.13116
 C271 C 0.82445 0.62106 0.58497
 C272 C 0.77389 0.63134 0.58488
 C273 C 0.76038 0.65585 0.62053
 C274 C 0.79821 0.66823 0.65393
 C275 C 0.81798 0.62297 0.66699
 C276 C 0.83191 0.59818 0.63101
 C277 C 0.84935 0.66733 0.58975
 C278 C 0.83553 0.69204 0.62547
 H279 H 0.75025 0.61917 0.55926
 H280 H 0.72534 0.66407 0.62537
 H281 H 0.82225 0.61213 0.70154
 H282 H 0.84870 0.56679 0.63586
 H283 H 0.87639 0.67920 0.56751
 H284 H 0.85078 0.72497 0.63326
 C285 C 0.69262 0.87379 0.08011
 C286 C 0.72518 0.90109 0.11158
 C287 C 0.73590 0.87907 0.15008
 C288 C 0.71386 0.83142 0.15367
 C289 C 0.66298 0.83797 0.14843
 C290 C 0.65190 0.85996 0.11005
 C291 C 0.71795 0.82980 0.07220
 C292 C 0.72814 0.80761 0.11044
 H293 H 0.74086 0.93371 0.10340
 H294 H 0.75933 0.89366 0.17466
 H295 H 0.63783 0.82658 0.17294
 H296 H 0.61717 0.86722 0.10187
 H297 H 0.73073 0.81869 0.03997
 H298 H 0.74722 0.77710 0.10998
 C299 C 0.17536 0.37715 0.58590
 C300 C 0.16750 0.40015 0.63195
 C301 C 0.18040 0.37515 0.66803
 C302 C 0.19969 0.32957 0.65515
 C303 C 0.16256 0.30631 0.62600
 C304 C 0.14979 0.33121 0.59012
 C305 C 0.22575 0.36613 0.58657
 C306 C 0.23827 0.34138 0.62234
 H307 H 0.15160 0.43203 0.63676
 H308 H 0.17599 0.38621 0.70255
 H309 H 0.14686 0.27348 0.63329
 H310 H 0.12320 0.31961 0.56724
 H311 H 0.25001 0.37799 0.56136
 H312 H 0.27306 0.33263 0.62767
 C313 C 0.87883 0.32558 0.08240
 C314 C 0.90048 0.33302 0.12950
 C315 C 0.87292 0.31953 0.16434
 C316 C 0.82636 0.30023 0.14941
 C317 C 0.80696 0.33754 0.12002
 C318 C 0.83442 0.35096 0.08540
 C319 C 0.86402 0.27520 0.08211
 C320 C 0.83671 0.26225 0.11662
 H321 H 0.93299 0.34972 0.13606
 H322 H 0.88265 0.32398 0.19933
 H323 H 0.77503 0.35317 0.12652
 H324 H 0.82584 0.37811 0.06290
 H325 H 0.87505 0.25123 0.05708
 H326 H 0.82482 0.22756 0.12093
 C327 C 0.37692 0.83318 0.58084
 C328 C 0.39915 0.84491 0.62677
 C329 C 0.37374 0.83116 0.66307
 C330 C 0.32844 0.80744 0.65045
 C331 C 0.30514 0.84125 0.61971
 C332 C 0.33054 0.85483 0.58362
 C333 C 0.36631 0.78214 0.58322
 C334 C 0.34115 0.76885 0.61921
 H335 H 0.43036 0.86473 0.63113
 H336 H 0.38398 0.83839 0.69748
 H337 H 0.27204 0.85442 0.62622
 H338 H 0.31912 0.87970 0.55989
 H339 H 0.37873 0.75811 0.55898
 H340 H 0.33274 0.73365 0.62577
 C341 C 0.12197 0.67053 0.07900
 C342 C 0.16900 0.64994 0.08123
 C343 C 0.19412 0.66352 0.11747
 C344 C 0.17000 0.69605 0.14913
 C345 C 0.15616 0.73488 0.11895
 C346 C 0.13126 0.72176 0.08275
 C347 C 0.10022 0.65714 0.12486
 C348 C 0.12535 0.67088 0.16137
 H349 H 0.18099 0.62550 0.05720
 H350 H 0.22749 0.65090 0.12365
 H351 H 0.16344 0.77013 0.12650
 H352 H 0.11806 0.74606 0.05934
 H353 H 0.07001 0.63574 0.12906
 H354 H 0.11561 0.66229 0.19562
 C355 C 0.62152 0.17359 0.58654
 C356 C 0.66573 0.14804 0.58924
 C357 C 0.69242 0.16010 0.62486
 C358 C 0.67244 0.19643 0.65528
 C359 C 0.66290 0.23559 0.62369
 C360 C 0.63643 0.22382 0.58817
 C361 C 0.59873 0.16470 0.63279
 C362 C 0.62551 0.17682 0.66866
 H363 H 0.67473 0.12182 0.56573
 H364 H 0.72418 0.14418 0.63130
 H365 H 0.67493 0.27015 0.62942
 H366 H 0.62614 0.24847 0.56363
 H367 H 0.56573 0.14841 0.63780
 H368 H 0.61486 0.17150 0.70328
 C369 C 0.68488 0.11347 0.91645
 C370 C 0.73507 0.12904 0.91635
 C371 C 0.74763 0.15477 0.88046
 C372 C 0.70910 0.16317 0.84744
 C373 C 0.69046 0.11598 0.83430
 C374 C 0.67744 0.08989 0.87027
 C375 C 0.65848 0.15699 0.91176
 C376 C 0.67139 0.18303 0.87624
 H377 H 0.75913 0.11951 0.94188
 H378 H 0.78240 0.16663 0.87522
 H379 H 0.68571 0.10490 0.79973
 H380 H 0.66056 0.05716 0.86547
 H381 H 0.63069 0.16585 0.93357
 H382 H 0.65470 0.21400 0.86850
 C383 C 0.17150 0.62092 0.41516
 C384 C 0.16097 0.59794 0.36931
 C385 C 0.17433 0.62335 0.33290
 C386 C 0.19658 0.66931 0.34536
 C387 C 0.16156 0.69166 0.37570
 C388 C 0.14833 0.66633 0.41183
 C389 C 0.22246 0.63304 0.41306
 C390 C 0.23540 0.65811 0.37695
 H391 H 0.14247 0.56603 0.36502
 H392 H 0.16797 0.61249 0.29850
 H393 H 0.14732 0.72410 0.36889
 H394 H 0.12276 0.67715 0.43530
 H395 H 0.24676 0.62144 0.43740
 H396 H 0.27059 0.66712 0.37035
 C397 C 0.32739 0.88229 0.91619
 C398 C 0.27620 0.87115 0.91363
 C399 C 0.26318 0.84595 0.87760
 C400 C 0.30205 0.83373 0.84639
 C401 C 0.32535 0.87910 0.83383
 C402 C 0.33896 0.90456 0.87016
 C403 C 0.34977 0.83633 0.91311
 C404 C 0.33630 0.81092 0.87706
 H405 H 0.25180 0.88336 0.93768
 H406 H 0.22791 0.83739 0.87085
 H407 H 0.33272 0.88924 0.79944
 H408 H 0.35898 0.93553 0.86556
 H409 H 0.37516 0.82522 0.93655
 H410 H 0.35006 0.77820 0.87040
 C411 C 0.82201 0.37813 0.41159
 C412 C 0.84728 0.33409 0.40637
 C413 C 0.83390 0.30871 0.37027
 C414 C 0.79660 0.32973 0.34190
 C415 C 0.75840 0.33839 0.37521
 C416 C 0.77150 0.36355 0.41125
 C417 C 0.82957 0.40227 0.36587
 C418 C 0.81610 0.37680 0.32952
 H419 H 0.87429 0.32425 0.42856
 H420 H 0.84952 0.27723 0.36212
 H421 H 0.72350 0.32674 0.37030
 H422 H 0.74763 0.37310 0.43705
 H423 H 0.84591 0.43522 0.36144
 H424 H 0.82038 0.38851 0.29513
 C425 C 0.12700 0.33022 0.92006
 C426 C 0.17395 0.35415 0.91634
 C427 C 0.19872 0.34077 0.88040
 C428 C 0.17428 0.30479 0.85079
 C429 C 0.16089 0.26650 0.88317
 C430 C 0.13628 0.27961 0.91895
 C431 C 0.10465 0.33930 0.87401
 C432 C 0.12945 0.32575 0.83792
 H433 H 0.18628 0.38016 0.93947
 H434 H 0.23219 0.35533 0.87333
 H435 H 0.16879 0.23158 0.87771
 H436 H 0.12359 0.25570 0.94402
 H437 H 0.07374 0.35705 0.86924
 H438 H 0.11902 0.33121 0.80341
 C439 C 0.62581 0.82658 0.41656
 C440 C 0.60508 0.83623 0.36991
 C441 C 0.63156 0.82385 0.33454
 C442 C 0.67623 0.80326 0.34874
 C443 C 0.69897 0.83891 0.37986
 C444 C 0.67258 0.85121 0.41502
 C445 C 0.63581 0.77615 0.41485
 C446 C 0.66204 0.76415 0.37985
 H447 H 0.57371 0.85297 0.36433
 H448 H 0.62222 0.82950 0.29974
 H449 H 0.73250 0.85405 0.37433
 H450 H 0.68364 0.87687 0.43911
 H451 H 0.62223 0.75152 0.43878
 H452 H 0.67036 0.72943 0.37388
 C453 C 0.87447 0.67676 0.91653
 C454 C 0.82830 0.65101 0.91448
 C455 C 0.80200 0.66260 0.87906
 C456 C 0.82420 0.69880 0.84827
 C457 C 0.83696 0.73821 0.87971
 C458 C 0.86313 0.72687 0.91494
 C459 C 0.89597 0.66772 0.86999
 C460 C 0.86959 0.67942 0.83446
 H461 H 0.81754 0.62522 0.93848
 H462 H 0.76883 0.64676 0.87323
 H463 H 0.82762 0.77264 0.87393
 H464 H 0.87566 0.75176 0.93919
 H465 H 0.92782 0.65180 0.86451
 H466 H 0.87950 0.67401 0.79974
 C467 C 0.37440 0.17236 0.41909
 C468 C 0.32766 0.14803 0.41517
 C469 C 0.30291 0.16121 0.37927
 C470 C 0.32715 0.19742 0.34988
 C471 C 0.34010 0.23578 0.38245
 C472 C 0.36468 0.22287 0.41821
 C473 C 0.39702 0.16352 0.37303
 C474 C 0.37223 0.17687 0.33696
 H475 H 0.31547 0.12189 0.43816
 H476 H 0.26960 0.14635 0.37208
 H477 H 0.33200 0.27064 0.37708
 H478 H 0.37712 0.24687 0.44337
 H479 H 0.42814 0.14608 0.36824
 H480 H 0.38286 0.17155 0.30244
 C481 C 0.67216 0.86844 0.91556
 C482 C 0.64641 0.82244 0.91213
 C483 C 0.65893 0.79686 0.87640
 C484 C 0.69592 0.81961 0.84676
 C485 C 0.67664 0.86505 0.83348
 C486 C 0.66403 0.89068 0.86935
 C487 C 0.72250 0.85724 0.91458
 C488 C 0.73467 0.83181 0.87914
 H489 H 0.61983 0.81138 0.93527
 H490 H 0.64309 0.76400 0.86945
 H491 H 0.67182 0.87545 0.79887
 H492 H 0.64788 0.92239 0.86434
 H493 H 0.74698 0.86922 0.93952
 H494 H 0.76933 0.82243 0.87396
 C495 C 0.18324 0.37524 0.41821
 C496 C 0.15622 0.32995 0.41406
 C497 C 0.16875 0.30404 0.37867
 C498 C 0.20696 0.32577 0.34990
 C499 C 0.18930 0.37177 0.33626
 C500 C 0.17663 0.39766 0.37184
 C501 C 0.23306 0.36257 0.41867
 C502 C 0.24534 0.33687 0.38326
 H503 H 0.12877 0.31957 0.43649
 H504 H 0.15209 0.27164 0.37137
 H505 H 0.18509 0.38218 0.30156
 H506 H 0.16073 0.42951 0.36663
 H507 H 0.25701 0.37367 0.44445
 H508 H 0.27976 0.32647 0.37879
 C509 C 0.31688 0.12600 0.91827
 C510 C 0.26707 0.13891 0.91865
 C511 C 0.25500 0.16457 0.88327
 C512 C 0.29348 0.17543 0.84991
 C513 C 0.33173 0.19708 0.87864
 C514 C 0.34418 0.17123 0.91395
 C515 C 0.32358 0.10349 0.87174
 C516 C 0.31099 0.12934 0.83621
 H517 H 0.24292 0.12800 0.94436
 H518 H 0.22065 0.17510 0.87881
 H519 H 0.34868 0.22929 0.87122
 H520 H 0.37192 0.18154 0.93605
 H521 H 0.33987 0.07185 0.86630
 H522 H 0.31550 0.11896 0.80149
 C523 C 0.81987 0.62448 0.41764
 C524 C 0.77051 0.63867 0.41808
 C525 C 0.75925 0.66500 0.38293
 C526 C 0.79812 0.67515 0.34985
 C527 C 0.83677 0.69553 0.37899
 C528 C 0.84827 0.66899 0.41410
 C529 C 0.82610 0.60217 0.37105
 C530 C 0.81444 0.62870 0.33573
 H531 H 0.74612 0.62818 0.44371
 H532 H 0.72529 0.67663 0.37855
 H533 H 0.85451 0.72746 0.37208
 H534 H 0.87591 0.67834 0.43668
 H535 H 0.84108 0.56987 0.36557
 H536 H 0.81857 0.61842 0.30093
 C537 C 0.12208 0.68125 0.91514
 C538 C 0.09842 0.67420 0.86900
 C539 C 0.12442 0.68772 0.83307
 C540 C 0.17178 0.70645 0.84604
 C541 C 0.16327 0.74425 0.87988
 C542 C 0.13750 0.73126 0.91565
 C543 C 0.16607 0.65530 0.90976
 C544 C 0.19210 0.66872 0.87407
 H545 H 0.06569 0.65715 0.86419
 H546 H 0.11322 0.68318 0.79852
 H547 H 0.17551 0.77880 0.87550
 H548 H 0.12821 0.75484 0.94177
 H549 H 0.17529 0.62762 0.93129
 H550 H 0.22338 0.65265 0.86579
 C551 C 0.61984 0.19121 0.41924
 C552 C 0.66555 0.21707 0.42691
 C553 C 0.68894 0.22659 0.38861
 C554 C 0.66463 0.21094 0.34549
 C555 C 0.65477 0.16027 0.35201
 C556 C 0.63147 0.15000 0.39051
 C557 C 0.59481 0.22220 0.38677
 C558 C 0.61804 0.23223 0.34822
 H559 H 0.67738 0.23020 0.45905
 H560 H 0.72104 0.24557 0.38891
 H561 H 0.66496 0.13471 0.32830
 H562 H 0.62186 0.11556 0.39965
 H563 H 0.56266 0.23700 0.39412
 H564 H 0.60489 0.25441 0.32280
 C565 C 0.88345 0.30961 0.91978
 C566 C 0.91016 0.28475 0.88305
 C567 C 0.88562 0.27452 0.84537
 C568 C 0.83636 0.28924 0.84755
 C569 C 0.81730 0.26754 0.89064
 C570 C 0.84205 0.27723 0.92800
 C571 C 0.86430 0.35051 0.89542
 C572 C 0.83988 0.33991 0.85772
 H573 H 0.94400 0.27257 0.88703
 H574 H 0.89954 0.25571 0.81758
 H575 H 0.78727 0.24541 0.89158
 H576 H 0.83373 0.26145 0.96004
 H577 H 0.86994 0.38509 0.90669
 H578 H 0.82478 0.36530 0.83693
 C579 C 0.37684 0.82274 0.41331
 C580 C 0.33308 0.84888 0.40816
 C581 C 0.30688 0.83540 0.37261
 C582 C 0.32683 0.79726 0.34465
 C583 C 0.37433 0.81548 0.33140
 C584 C 0.40052 0.82904 0.36719
 C585 C 0.36107 0.77290 0.41426
 C586 C 0.33515 0.75971 0.37867
 H587 H 0.32407 0.87658 0.42989
 H588 H 0.27559 0.85151 0.36452
 H589 H 0.38565 0.81927 0.29681
 H590 H 0.43368 0.84518 0.36239
 H591 H 0.37034 0.74958 0.44050
 H592 H 0.32278 0.72518 0.37450
 C593 C 0.31804 0.87949 0.08199
 C594 C 0.32424 0.90288 0.12827
 C595 C 0.31152 0.87627 0.16394
 C596 C 0.29419 0.82868 0.15047
 C597 C 0.25599 0.83631 0.11681
 C598 C 0.26832 0.86267 0.08132
 C599 C 0.34529 0.83647 0.08657
 C600 C 0.33268 0.80986 0.12205
 H601 H 0.33987 0.93613 0.13332
 H602 H 0.31545 0.88737 0.19859
 H603 H 0.22168 0.82295 0.12103
 H604 H 0.24450 0.87144 0.05528
 H605 H 0.37299 0.82820 0.06443
 H606 H 0.34954 0.77897 0.12969
 C607 C 0.81042 0.37451 0.57945
 C608 C 0.85273 0.36109 0.60563
 C609 C 0.84366 0.33656 0.64356
 C610 C 0.79301 0.32737 0.65208
 C611 C 0.77246 0.37427 0.65236
 C612 C 0.78127 0.39872 0.61441
 C613 C 0.78332 0.32972 0.57110
 C614 C 0.77502 0.30509 0.60878
 H615 H 0.88702 0.37043 0.59524
 H616 H 0.87010 0.32502 0.66554
 H617 H 0.75160 0.38679 0.67936
 H618 H 0.76663 0.43124 0.60915
 H619 H 0.76864 0.31938 0.53911
 H620 H 0.75549 0.27338 0.60801
 C621 C 0.67341 0.11707 0.08177
 C622 C 0.66378 0.09526 0.12823
 C623 C 0.67577 0.12250 0.16382
 C624 C 0.69603 0.16894 0.15001
 C625 C 0.73548 0.15845 0.11878
 C626 C 0.72386 0.13149 0.08359
 C627 C 0.64819 0.16152 0.08370
 C628 C 0.66015 0.18868 0.11908
 H629 H 0.64721 0.06252 0.13346
 H630 H 0.66999 0.11248 0.19853
 H631 H 0.77019 0.16989 0.12472
 H632 H 0.74879 0.12040 0.05952
 H633 H 0.62232 0.17040 0.05976
 H634 H 0.64454 0.22065 0.12496
 C635 C 0.17974 0.62390 0.58292
 C636 C 0.15352 0.66765 0.58690
 C637 C 0.16626 0.69429 0.62238
 C638 C 0.20381 0.67474 0.65139
 C639 C 0.18511 0.62769 0.66491
 C640 C 0.17225 0.60107 0.62923
 C641 C 0.22981 0.63947 0.58277
 C642 C 0.24227 0.66585 0.61827
 H643 H 0.12634 0.67638 0.56440
 H644 H 0.15008 0.72568 0.62966
 H645 H 0.18038 0.61701 0.69957
 H646 H 0.15569 0.56824 0.63422
 H647 H 0.25377 0.62978 0.55713
 H648 H 0.27687 0.67820 0.62296
 C649 C 0.87917 0.68727 0.08445
 C650 C 0.86581 0.73674 0.08508
 C651 C 0.84132 0.74833 0.12169
 C652 C 0.83200 0.70956 0.15493
 C653 C 0.80956 0.67152 0.12649
 C654 C 0.83427 0.65974 0.09000
 C655 C 0.90358 0.68051 0.12986
 C656 C 0.87887 0.69244 0.16659
 H657 H 0.87536 0.76088 0.05902
 H658 H 0.83017 0.78238 0.12685
 H659 H 0.77762 0.65431 0.13482
 H660 H 0.82333 0.63244 0.06771
 H661 H 0.93594 0.66505 0.13365
 H662 H 0.89074 0.68806 0.20080
 C663 C 0.37366 0.18140 0.58662
 C664 C 0.39657 0.17481 0.63279
 C665 C 0.37115 0.18798 0.66857
 C666 C 0.32509 0.20608 0.65528
 C667 C 0.33635 0.24398 0.62162
 C668 C 0.36155 0.23120 0.58601
 C669 C 0.32795 0.15502 0.59135
 C670 C 0.30251 0.16807 0.62692
 H671 H 0.42843 0.15864 0.63764
 H672 H 0.38194 0.18389 0.70318
 H673 H 0.32644 0.27845 0.62603
 H674 H 0.37269 0.25476 0.55999
 H675 H 0.31703 0.12752 0.56929
 H676 H 0.26995 0.15182 0.63470
 C677 C 0.12671 0.32034 0.08737
 C678 C 0.17179 0.34765 0.09282
 C679 C 0.19733 0.33460 0.12819
 C680 C 0.17544 0.29564 0.15566
 C681 C 0.12884 0.31243 0.16916
 C682 C 0.10331 0.32559 0.13357
 C683 C 0.13999 0.27089 0.08578
 C684 C 0.16529 0.25810 0.12119
 H685 H 0.18223 0.37573 0.07135
 H686 H 0.22948 0.35146 0.13642
 H687 H 0.11772 0.31565 0.20381
 H688 H 0.07100 0.34087 0.13864
 H689 H 0.12960 0.24755 0.05922
 H690 H 0.17610 0.22388 0.12486
 C691 C 0.62087 0.81391 0.58358
 C692 C 0.66521 0.84206 0.59026
 C693 C 0.69043 0.82898 0.62577
 C694 C 0.66902 0.78907 0.65229
 C695 C 0.62177 0.80453 0.66528
 C696 C 0.59651 0.81775 0.62949
 C697 C 0.63529 0.76479 0.58144
 C698 C 0.66030 0.75193 0.61708
 H699 H 0.67545 0.87063 0.56935
 H700 H 0.72209 0.84642 0.63468
 H701 H 0.60994 0.80673 0.69978
 H702 H 0.56370 0.83200 0.63441
 H703 H 0.62576 0.74168 0.55439
 H704 H 0.67172 0.71790 0.62046
   
