data_POSCAR
  _audit_creation_date              2014-09-24
  _audit_creation_method            'ToBaCCo'
  _symmetry_space_group_name_H-M    'P1'
  _symmetry_Int_Tables_number       1
  _symmetry_cell_setting            triclinic
  loop_
  _symmetry_equiv_pos_as_xyz
 x,y,z
_cell_length_a 50.4874
_cell_length_b 57.5339
_cell_length_c 53.2662
_cell_angle_alpha 90.128800
_cell_angle_beta 90.027200
_cell_angle_gamma 89.909000
loop_
  _atom_site_label
  _atom_site_type_symbol
  _atom_site_fract_x
  _atom_site_fract_y
  _atom_site_fract_z
C1 C 0.26217 0.35019 -0.00614
 C2 C 0.25301 0.35410 0.01833
 C3 C 0.26705 0.34661 0.03935
 C4 C 0.29029 0.33321 0.03619
 C5 C 0.29876 0.32712 0.01157
 C6 C 0.28452 0.33539 -0.00970
 C7 C 0.29174 0.32705 -0.03356
 C8 C 0.31355 0.31256 -0.03682
 C9 C 0.32861 0.30478 -0.01622
 C10 C 0.32109 0.31222 0.00829
 C11 C 0.30454 0.32488 0.05694
 C12 C 0.32673 0.31082 0.05373
 C13 C 0.33538 0.30431 0.02963
 C14 C 0.35739 0.28942 0.02632
 C15 C 0.36557 0.28354 0.00203
 C16 C 0.35130 0.29030 -0.01941
 H17 H 0.28012 0.33092 -0.05005
 H18 H 0.31830 0.30771 -0.05588
 H19 H 0.29843 0.32891 0.07593
 H20 H 0.33680 0.30485 0.07044
 H21 H 0.23546 0.36472 0.02130
 H22 H 0.38240 0.27195 0.00014
 C23 C 0.70579 0.63292 -0.02811
 C24 C 0.71308 0.62285 -0.00507
 C25 C 0.70809 0.63393 0.01780
 C26 C 0.69378 0.65498 0.01820
 C27 C 0.68482 0.66485 -0.00465
 C28 C 0.69119 0.65407 -0.02792
 C29 C 0.68173 0.66426 -0.05024
 C30 C 0.66686 0.68461 -0.04978
 C31 C 0.66026 0.69546 -0.02699
 C32 C 0.66946 0.68559 -0.00420
 C33 C 0.68783 0.66616 0.04096
 C34 C 0.67291 0.68646 0.04140
 C35 C 0.66310 0.69626 0.01910
 C36 C 0.64727 0.71654 0.01949
 C37 C 0.63852 0.72609 -0.00320
 C38 C 0.64484 0.71599 -0.02639
 H39 H 0.68508 0.65644 -0.06842
 H40 H 0.66050 0.69165 -0.06761
 H41 H 0.69435 0.65917 0.05878
 H42 H 0.66928 0.69436 0.05951
 H43 H 0.72526 0.60733 -0.00477
 H44 H 0.62535 0.74097 -0.00280
 C45 C 0.62435 0.29602 1.01166
 C46 C 0.61559 0.28907 0.98769
 C47 C 0.62263 0.30094 0.96582
 C48 C 0.63909 0.32067 0.96755
 C49 C 0.64789 0.32851 0.99143
 C50 C 0.64029 0.31641 1.01362
 C51 C 0.65014 0.32443 1.03686
 C52 C 0.66659 0.34374 1.03838
 C53 C 0.67440 0.35580 1.01676
 C54 C 0.66508 0.34809 0.99302
 C55 C 0.64767 0.33232 0.94587
 C56 C 0.66465 0.35123 0.94744
 C57 C 0.67364 0.35944 0.97077
 C58 C 0.69180 0.37808 0.97239
 C59 C 0.70050 0.38557 0.99601
 C60 C 0.69220 0.37474 1.01817
 H61 H 0.64597 0.31574 1.05432
 H62 H 0.67371 0.34869 1.05679
 H63 H 0.64194 0.32661 0.92729
 H64 H 0.67097 0.35904 0.93000
 H65 H 0.60168 0.27487 0.98588
 H66 H 0.71378 0.40033 0.99718
 C67 C 0.36926 0.70554 0.97999
 C68 C 0.37648 0.71566 1.00288
 C69 C 0.37017 0.70560 1.02614
 C70 C 0.35565 0.68440 1.02623
 C71 C 0.34848 0.67366 1.00310
 C72 C 0.35562 0.68413 0.97995
 C73 C 0.34837 0.67320 0.95735
 C74 C 0.33464 0.65228 0.95736
 C75 C 0.32717 0.64162 0.97997
 C76 C 0.33370 0.65257 1.00307
 C77 C 0.34716 0.67404 1.04874
 C78 C 0.33244 0.65369 1.04868
 C79 C 0.32497 0.64278 1.02610
 C80 C 0.30974 0.62199 1.02598
 C81 C 0.30472 0.61095 1.00291
 C82 C 0.31250 0.62074 0.98005
 H83 H 0.35304 0.68077 0.93932
 H84 H 0.32962 0.64475 0.93936
 H85 H 0.35116 0.68163 1.06689
 H86 H 0.32746 0.64652 1.06679
 H87 H 0.38895 0.73092 1.00220
 H88 H 0.29277 0.59533 1.00231
 C89 C 0.02244 0.31034 0.38713
 C90 C -0.00161 0.30032 0.39401
 C91 C -0.02608 0.30862 0.38504
 C92 C -0.02610 0.32806 0.36847
 C93 C -0.00165 0.33843 0.36130
 C94 C 0.02261 0.32973 0.37105
 C95 C 0.04657 0.33993 0.36357
 C96 C 0.04695 0.35792 0.34632
 C97 C 0.02339 0.36638 0.33572
 C98 C -0.00126 0.35676 0.34333
 C99 C -0.04956 0.33637 0.35734
 C100 C -0.04916 0.35405 0.33958
 C101 C -0.02529 0.36455 0.33207
 C102 C -0.02437 0.38147 0.31255
 C103 C 0.00030 0.39107 0.30618
 C104 C 0.02397 0.38356 0.31695
 H105 H 0.06544 0.33378 0.37056
 H106 H 0.06609 0.36467 0.34091
 H107 H -0.06864 0.32879 0.36130
 H108 H -0.06799 0.35871 0.33144
 H109 H -0.00094 0.28622 0.40744
 H110 H 0.00136 0.40534 0.29300
 C111 C 0.03095 0.62442 0.69517
 C112 C 0.00606 0.61681 0.70304
 C113 C -0.01765 0.62692 0.69449
 C114 C -0.01612 0.64525 0.67661
 C115 C 0.00908 0.65304 0.66807
 C116 C 0.03263 0.64238 0.67721
 C117 C 0.05729 0.65052 0.66886
 C118 C 0.05899 0.66887 0.65206
 C119 C 0.03612 0.68006 0.64312
 C120 C 0.01085 0.67219 0.65113
 C121 C -0.03885 0.65715 0.66835
 C122 C -0.03711 0.67600 0.65215
 C123 C -0.01253 0.68391 0.64300
 C124 C -0.01045 0.70389 0.62719
 C125 C 0.01497 0.71092 0.61944
 C126 C 0.03802 0.69947 0.62710
 H127 H 0.07566 0.64307 0.67552
 H128 H 0.07859 0.67456 0.64669
 H129 H -0.05841 0.65274 0.67495
 H130 H -0.05554 0.68452 0.64770
 H131 H 0.00535 0.60190 0.71540
 H132 H 0.01720 0.72485 0.60599
 C133 C 1.01781 0.62642 0.30692
 C134 C 0.99402 0.61666 0.29840
 C135 C 0.96939 0.62370 0.30789
 C136 C 0.96834 0.64099 0.32681
 C137 C 0.99217 0.65136 0.33551
 C138 C 1.01694 0.64406 0.32554
 C139 C 1.04016 0.65488 0.33417
 C140 C 1.03923 0.67238 0.35222
 C141 C 1.01497 0.68015 0.36231
 C142 C 0.99119 0.66922 0.35409
 C143 C 0.94404 0.64861 0.33680
 C144 C 0.94310 0.66582 0.35518
 C145 C 0.96638 0.67625 0.36418
 C146 C 0.96545 0.69398 0.38252
 C147 C 0.98904 0.70386 0.39114
 C148 C 1.01385 0.69774 0.38114
 H149 H 1.05942 0.65008 0.32695
 H150 H 1.05798 0.67937 0.35836
 H151 H 0.92541 0.64149 0.33040
 H152 H 0.92383 0.67098 0.36214
 H153 H 0.99469 0.60270 0.28471
 H154 H 0.98762 0.71771 0.40491
 C155 C 1.02532 0.29206 0.62829
 C156 C 1.00043 0.28409 0.62066
 C157 C 0.97698 0.29309 0.63065
 C158 C 0.97828 0.31155 0.64816
 C159 C 1.00338 0.32023 0.65587
 C160 C 1.02697 0.31042 0.64590
 C161 C 1.05153 0.31865 0.65448
 C162 C 1.05305 0.33613 0.67248
 C163 C 1.03004 0.34634 0.68264
 C164 C 1.00489 0.33821 0.67421
 C165 C 0.95522 0.32100 0.65879
 C166 C 0.95665 0.33858 0.67665
 C167 C 0.98120 0.34743 0.68464
 C168 C 0.98266 0.36475 0.70336
 C169 C 1.00744 0.37246 0.71149
 C170 C 1.03130 0.36337 0.70204
 H171 H 1.06996 0.31131 0.64778
 H172 H 1.07265 0.34099 0.67863
 H173 H 0.93578 0.31465 0.65376
 H174 H 0.93818 0.34477 0.68450
 H175 H 0.99923 0.27069 0.60635
 H176 H 1.00800 0.38686 0.72462
 C177 C 0.28035 -0.02969 0.34697
 C178 C 0.27021 -0.00905 0.35754
 C179 C 0.27751 0.01282 0.34867
 C180 C 0.29650 0.01476 0.32947
 C181 C 0.30709 -0.00560 0.31830
 C182 C 0.29857 -0.02788 0.32659
 C183 C 0.30686 -0.04751 0.31287
 C184 C 0.32398 -0.04547 0.29256
 C185 C 0.33479 -0.02390 0.28563
 C186 C 0.32549 -0.00360 0.29815
 C187 C 0.30514 0.03664 0.32122
 C188 C 0.32350 0.03862 0.30195
 C189 C 0.33373 0.01878 0.28998
 C190 C 0.35104 0.02083 0.26930
 C191 C 0.35962 0.00073 0.25697
 C192 C 0.35266 -0.02158 0.26511
 H193 H 0.29923 -0.06466 0.31671
 H194 H 0.32759 -0.06106 0.28180
 H195 H 0.29775 0.05254 0.32960
 H196 H 0.32901 0.05594 0.29612
 H197 H 0.25664 -0.00962 0.37325
 H198 H 0.37352 0.00250 0.24155
 C199 C 0.64285 -0.01269 0.73374
 C200 C 0.63626 0.00948 0.74305
 C201 C 0.64218 0.02981 0.73010
 C202 C 0.65613 0.02853 0.70718
 C203 C 0.66344 0.00646 0.69730
 C204 C 0.65662 -0.01424 0.71043
 C205 C 0.66523 -0.03571 0.70056
 C206 C 0.67983 -0.03694 0.67844
 C207 C 0.68664 -0.01678 0.66512
 C208 C 0.67833 0.00516 0.67460
 C209 C 0.66386 0.04874 0.69443
 C210 C 0.67824 0.04745 0.67223
 C211 C 0.68568 0.02589 0.66193
 C212 C 0.70121 0.02456 0.63986
 C213 C 0.70906 0.00275 0.63077
 C214 C 0.70246 -0.01789 0.64316
 H215 H 0.66165 -0.05193 0.71011
 H216 H 0.68623 -0.05395 0.67224
 H217 H 0.65937 0.06584 0.70177
 H218 H 0.68394 0.06368 0.66359
 H219 H 0.62459 0.01125 0.76001
 H220 H 0.72037 0.00182 0.61350
 C221 C 0.34721 1.02392 0.72515
 C222 C 0.35506 1.00228 0.73475
 C223 C 0.34841 0.98129 0.72302
 C224 C 0.33226 0.98162 0.70137
 C225 C 0.32304 1.00317 0.69177
 C226 C 0.33014 1.02442 0.70382
 C227 C 0.31811 1.04508 0.69538
 C228 C 0.30226 1.04538 0.67403
 C229 C 0.29643 1.02482 0.66093
 C230 C 0.30602 1.00340 0.67045
 C231 C 0.32425 0.96085 0.68963
 C232 C 0.30754 0.96113 0.66889
 C233 C 0.29809 0.98218 0.65905
 C234 C 0.28107 0.98255 0.63798
 C235 C 0.27293 1.00387 0.62810
 C236 C 0.28010 1.02498 0.63936
 H237 H 0.31985 1.06121 0.70558
 H238 H 0.29388 1.06189 0.66842
 H239 H 0.33037 0.94404 0.69659
 H240 H 0.30216 0.94461 0.66059
 H241 H 0.36822 1.00180 0.75086
 H242 H 0.26028 1.00399 0.61165
 C243 C 0.73969 0.97621 0.34753
 C244 C 0.75208 0.99705 0.35368
 C245 C 0.74130 1.01864 0.34710
 C246 C 0.71860 1.01927 0.33120
 C247 C 0.70624 0.99805 0.32398
 C248 C 0.71660 0.97647 0.33259
 C249 C 0.70459 0.95569 0.32484
 C250 C 0.68319 0.95589 0.30847
 C251 C 0.67302 0.97690 0.29909
 C252 C 0.68437 0.99827 0.30702
 C253 C 0.70959 1.04003 0.32020
 C254 C 0.68814 1.04031 0.30380
 C255 C 0.67492 1.01971 0.29698
 C256 C 0.65405 1.01962 0.27891
 C257 C 0.64313 0.99810 0.27184
 C258 C 0.65260 0.97698 0.28106
 H259 H 0.71213 0.93896 0.33074
 H260 H 0.67517 0.93929 0.30273
 H261 H 0.71986 1.05628 0.32297
 H262 H 0.68301 1.05691 0.29573
 H263 H 0.76981 0.99634 0.36523
 H264 H 0.62622 0.99749 0.25934
 O265 O 0.86694 0.83594 0.48061
 O266 O 0.83908 0.87346 0.52958
 O267 O 0.87482 0.84070 0.52836
 O268 O 0.83109 0.86778 0.48165
 O269 O 0.80027 0.84157 0.48938
 O270 O 0.84439 0.81420 0.53634
 O271 O 0.80797 0.84756 0.53750
 O272 O 0.83681 0.80909 0.48836
 Cu273 Cu 0.85598 0.85714 0.50442
 Cu274 Cu 0.81923 0.82549 0.51383
 C275 C 0.85687 0.81619 0.47614
 C276 C 0.81866 0.86722 0.54163
 C277 C 0.86738 0.82258 0.53989
 C278 C 0.80836 0.85922 0.47735
 O279 O 0.15644 0.12767 0.50987
 O280 O 0.13306 0.16477 0.45887
 O281 O 0.16762 0.13148 0.46260
 O282 O 0.12367 0.16192 0.50678
 O283 O 0.15558 0.18700 0.51525
 O284 O 0.19949 0.15661 0.47096
 O285 O 0.16414 0.19060 0.46745
 O286 O 0.18859 0.15251 0.51838
 Cu287 Cu 0.14202 0.14398 0.48356
 Cu288 Cu 0.18025 0.17426 0.49365
 C289 C 0.17637 0.13363 0.52280
 C290 C 0.14409 0.18414 0.45477
 C291 C 0.19119 0.13863 0.45962
 C292 C 0.13223 0.17952 0.51867
 O293 O 0.16637 0.85637 0.46940
 O294 O 0.14646 0.82705 0.52697
 O295 O 0.17761 0.86140 0.51691
 O296 O 0.13825 0.81971 0.47934
 O297 O 0.17318 0.79662 0.47678
 O298 O 0.21240 0.83826 0.51345
 O299 O 0.18070 0.80319 0.52418
 O300 O 0.20168 0.83384 0.46602
 Cu301 Cu 0.15375 0.84344 0.49837
 Cu302 Cu 0.19552 0.81569 0.49477
 C303 C 0.18740 0.85055 0.45807
 C304 C 0.15972 0.81003 0.53526
 C305 C 0.20182 0.85685 0.52142
 C306 C 0.14904 0.80084 0.47213
 O307 O 0.86804 0.16275 0.52143
 O308 O 0.82802 0.13610 0.47153
 O309 O 0.86476 0.16704 0.47313
 O310 O 0.83347 0.12970 0.51951
 O311 O 0.80171 0.15556 0.52564
 O312 O 0.83432 0.19417 0.47892
 O313 O 0.79678 0.16248 0.47730
 O314 O 0.83692 0.18921 0.52746
 Cu315 Cu 0.85161 0.14625 0.49584
 Cu316 Cu 0.81423 0.17801 0.50294
 C317 C 0.85940 0.18062 0.53281
 C318 C 0.80565 0.14477 0.46582
 C319 C 0.85527 0.18688 0.46816
 C320 C 0.81238 0.13598 0.53043
 O321 O 0.52493 0.84951 0.88375
 O322 O 0.47085 0.88204 0.85479
 O323 O 0.47358 0.84814 0.88649
 O324 O 0.52218 0.88167 0.85027
 O325 O 0.52033 0.85578 0.81964
 O326 O 0.47152 0.82216 0.85595
 O327 O 0.46877 0.85656 0.82375
 O328 O 0.52312 0.82310 0.85361
 Cu329 Cu 0.49804 0.86793 0.87185
 Cu330 Cu 0.49568 0.83677 0.83513
 C331 C 0.53329 0.83087 0.87381
 C332 C 0.46063 0.87506 0.83443
 C333 C 0.46434 0.82941 0.87743
 C334 C 0.52968 0.87438 0.82888
 O335 O 0.53176 0.14971 0.10972
 O336 O 0.47985 0.11645 0.14115
 O337 O 0.48054 0.15059 0.11000
 O338 O 0.53130 0.11600 0.14195
 O339 O 0.53200 0.14098 0.17348
 O340 O 0.48042 0.17594 0.14123
 O341 O 0.47986 0.14120 0.17292
 O342 O 0.53185 0.17546 0.14055
 Cu343 Cu 0.50594 0.13066 0.12266
 Cu344 Cu 0.50619 0.16087 0.16034
 C345 C 0.54026 0.16843 0.11934
 C346 C 0.47081 0.12310 0.16215
 C347 C 0.47184 0.16911 0.12002
 C348 C 0.54027 0.12242 0.16309
 O349 O 0.50676 0.15180 0.81133
 O350 O 0.45881 0.18795 0.84666
 O351 O 0.45542 0.15617 0.81154
 O352 O 0.50973 0.18129 0.84789
 O353 O 0.51417 0.20947 0.82009
 O354 O 0.45933 0.18363 0.78292
 O355 O 0.46345 0.21576 0.81848
 O356 O 0.51055 0.17961 0.78304
 Cu357 Cu 0.48210 0.16653 0.83211
 Cu358 Cu 0.48713 0.19992 0.79828
 C359 C 0.51681 0.15964 0.79116
 C360 C 0.45359 0.20832 0.83882
 C361 C 0.44839 0.16515 0.79087
 C362 C 0.52113 0.19961 0.84042
 O363 O 0.47984 0.83637 0.13589
 O364 O 0.53048 0.86621 0.17277
 O365 O 0.53090 0.83939 0.13405
 O366 O 0.47920 0.86283 0.17502
 O367 O 0.48260 0.83251 0.20017
 O368 O 0.53467 0.80874 0.15872
 O369 O 0.53408 0.83604 0.19810
 O370 O 0.48313 0.80552 0.16034
 Cu371 Cu 0.50471 0.85430 0.15203
 Cu372 Cu 0.50896 0.81757 0.18186
 C373 C 0.47293 0.81590 0.14161
 C374 C 0.54108 0.85633 0.19153
 C375 C 0.54158 0.82007 0.13935
 C376 C 0.47199 0.85179 0.19445
 O377 O 0.86632 0.52764 0.82982
 O378 O 0.83491 0.48083 0.86473
 O379 O 0.87338 0.48294 0.83295
 O380 O 0.82581 0.52491 0.85925
 O381 O 0.79868 0.51841 0.82742
 O382 O 0.84610 0.47646 0.80127
 O383 O 0.80695 0.47448 0.83352
 O384 O 0.84001 0.52157 0.79731
 Cu385 Cu 0.85283 0.50477 0.84980
 Cu386 Cu 0.82029 0.49713 0.81154
 C387 C 0.85888 0.53262 0.80779
 C388 C 0.81551 0.46985 0.85546
 C389 C 0.86768 0.47241 0.81269
 C390 C 0.80400 0.52850 0.84797
 O391 O 0.18556 0.47768 0.15129
 O392 O 0.14582 0.52631 0.17565
 O393 O 0.18832 0.52283 0.14798
 O394 O 0.14379 0.48139 0.17884
 O395 O 0.16869 0.48234 0.21295
 O396 O 0.21375 0.52351 0.18174
 O397 O 0.17046 0.52748 0.20990
 O398 O 0.21092 0.47872 0.18509
 Cu399 Cu 0.16342 0.50209 0.16003
 Cu400 Cu 0.19346 0.50333 0.20088
 C401 C 0.20488 0.46980 0.16400
 C402 C 0.15090 0.53484 0.19709
 C403 C 0.20893 0.52980 0.15938
 C404 C 0.14866 0.47476 0.20106
 O405 O 0.86700 0.48004 0.16595
 O406 O 0.82123 0.52040 0.13450
 O407 O 0.85959 0.52468 0.16630
 O408 O 0.83097 0.47611 0.13158
 O409 O 0.80085 0.47090 0.16111
 O410 O 0.83128 0.51939 0.19738
 O411 O 0.79205 0.51520 0.16487
 O412 O 0.83751 0.47439 0.19593
 Cu413 Cu 0.84759 0.50082 0.14659
 Cu414 Cu 0.81249 0.49448 0.18292
 C415 C 0.86004 0.47037 0.18631
 C416 C 0.79875 0.52453 0.14431
 C417 C 0.85077 0.53022 0.18773
 C418 C 0.81098 0.46542 0.14002
 O419 O 0.17063 0.51748 0.87137
 O420 O 0.13726 0.47095 0.83738
 O421 O 0.17467 0.47247 0.87016
 O422 O 0.13427 0.51594 0.83725
 O423 O 0.16435 0.51822 0.80726
 O424 O 0.20480 0.47411 0.84018
 O425 O 0.16673 0.47272 0.80679
 O426 O 0.20154 0.51942 0.84210
 Cu427 Cu 0.15124 0.49406 0.85701
 Cu428 Cu 0.18741 0.49639 0.82102
 C429 C 0.19176 0.52628 0.86287
 C430 C 0.14606 0.46384 0.81647
 C431 C 0.19649 0.46571 0.86074
 C432 C 0.14232 0.52445 0.81667
 C433 C 0.25617 0.35370 0.06397
 C434 C 0.26888 0.37028 0.07882
 C435 C 0.25376 0.38563 0.09585
 N436 N 0.26647 0.40153 0.11039
 N437 N 0.25278 0.41703 0.12384
 C438 C 0.22586 0.41731 0.12305
 N439 N 0.21321 0.40133 0.10867
 N440 N 0.22686 0.38577 0.09539
 C441 C 0.21029 0.43552 0.13571
 C442 C 0.22064 0.45030 0.15401
 H443 H 0.28960 0.37407 0.07557
 H444 H 0.18976 0.43750 0.13014
 H445 H 0.23525 0.35059 0.06695
 H446 H 0.24042 0.44741 0.16126
 C447 C 0.72074 0.62436 0.04056
 C448 C 0.71828 0.60105 0.04698
 C449 C 0.73553 0.59030 0.06584
 N450 N 0.72842 0.57001 0.07682
 N451 N 0.74479 0.55934 0.09269
 C452 C 0.76900 0.56844 0.09786
 N453 N 0.77617 0.58866 0.08678
 N454 N 0.75966 0.59948 0.07117
 C455 C 0.78799 0.55589 0.11370
 C456 C 0.77979 0.53965 0.13134
 H457 H 0.70399 0.59026 0.03725
 H458 H 0.80891 0.55938 0.11128
 H459 H 0.73318 0.63569 0.05174
 H460 H 0.75892 0.53779 0.13558
 C461 C 0.70252 0.38985 0.94980
 C462 C 0.72960 0.39396 0.94745
 C463 C 0.74153 0.40616 0.92604
 N464 N 0.76806 0.40958 0.92576
 N465 N 0.77940 0.42134 0.90719
 C466 C 0.76468 0.43013 0.88809
 N467 N 0.73810 0.42649 0.88818
 N468 N 0.72671 0.41471 0.90683
 C469 C 0.77712 0.44457 0.86850
 C470 C 0.80330 0.45183 0.87106
 H471 H 0.74281 0.38804 0.96216
 H472 H 0.76507 0.45115 0.85325
 H473 H 0.68923 0.39478 0.93476
 H474 H 0.81469 0.44602 0.88711
 C475 C 0.30308 0.60952 0.95660
 C476 C 0.27622 0.60484 0.95357
 C477 C 0.26498 0.59216 0.93212
 N478 N 0.23845 0.58892 0.93119
 N479 N 0.22761 0.57635 0.91292
 C480 C 0.24286 0.56647 0.89482
 N481 N 0.26947 0.56994 0.89552
 N482 N 0.28037 0.58257 0.91387
 C483 C 0.23082 0.55107 0.87578
 C484 C 0.20435 0.54452 0.87796
 H485 H 0.26257 0.61037 0.96812
 H486 H 0.24319 0.54345 0.86132
 H487 H 0.31699 0.60553 0.94173
 H488 H 0.19259 0.55159 0.89318
 C489 C 0.04713 0.29933 0.39634
 C490 C 0.05153 0.27575 0.39219
 C491 C 0.07436 0.26303 0.40232
 N492 N 0.07707 0.24013 0.39691
 N493 N 0.09643 0.22769 0.40723
 C494 C 0.11388 0.23766 0.42339
 N495 N 0.11144 0.26070 0.42853
 N496 N 0.09204 0.27319 0.41815
 C497 C 0.13332 0.22333 0.43704
 C498 C 0.13233 0.19917 0.43559
 H499 H 0.03711 0.26595 0.38144
 H500 H 0.14602 0.23163 0.45078
 H501 H 0.06190 0.30981 0.40578
 H502 H 0.11876 0.19101 0.42252
 C503 C 0.06378 0.70807 0.61740
 C504 C 0.06987 0.73169 0.61810
 C505 C 0.09271 0.74191 0.60504
 N506 N 0.09677 0.76514 0.60665
 N507 N 0.11573 0.77528 0.59324
 C508 C 0.13142 0.76261 0.57766
 N509 N 0.12769 0.73925 0.57637
 N510 N 0.10868 0.72907 0.58983
 C511 C 0.15014 0.77422 0.56050
 C512 C 0.14961 0.79830 0.55771
 H513 H 0.05645 0.74346 0.62765
 H514 H 0.16161 0.76371 0.54756
 H515 H 0.07767 0.69584 0.60926
 H516 H 0.13689 0.80853 0.56984
 C517 C 0.94028 0.70366 0.39249
 C518 C 0.93601 0.72761 0.39176
 C519 C 0.91556 0.73990 0.40630
 N520 N 0.91449 0.76339 0.40498
 N521 N 0.89807 0.77541 0.41962
 C522 C 0.88204 0.76442 0.43623
 N523 N 0.88273 0.74082 0.43728
 N524 N 0.89925 0.72875 0.42261
 C525 C 0.86556 0.77799 0.45390
 C526 C 0.86931 0.80190 0.45651
 H527 H 0.94991 0.73826 0.38139
 H528 H 0.85202 0.76895 0.46625
 H529 H 0.92603 0.69225 0.40130
 H530 H 0.88386 0.81048 0.44483
 C531 C 0.95163 0.28263 0.62220
 C532 C 0.94921 0.25856 0.62012
 C533 C 0.92753 0.24701 0.60664
 N534 N 0.92900 0.22379 0.60252
 N535 N 0.91081 0.21304 0.58865
 C536 C 0.89040 0.22512 0.57840
 N537 N 0.88864 0.24832 0.58286
 N538 N 0.90694 0.25912 0.59668
 C539 C 0.87130 0.21359 0.56164
 C540 C 0.87615 0.19139 0.55212
 H541 H 0.96513 0.24763 0.62701
 H542 H 0.85422 0.22334 0.55524
 H543 H 0.93546 0.29383 0.61652
 H544 H 0.89391 0.18214 0.55766
 C545 C 0.36197 0.04351 0.26091
 C546 C 0.36528 0.04835 0.23547
 C547 C 0.38286 0.06670 0.22602
 N548 N 0.38772 0.06782 0.20104
 N549 N 0.40538 0.08274 0.19200
 C550 C 0.41892 0.09718 0.20758
 N551 N 0.41372 0.09640 0.23258
 N552 N 0.39608 0.08135 0.24167
 C553 C 0.43970 0.11261 0.19760
 C554 C 0.44943 0.10932 0.17336
 H555 H 0.35658 0.03672 0.22174
 H556 H 0.44826 0.12576 0.20969
 H557 H 0.36932 0.05560 0.27486
 H558 H 0.44149 0.09535 0.16196
 C559 C 0.63310 0.05172 0.74194
 C560 C 0.61480 0.06638 0.73039
 C561 C 0.59882 0.08302 0.74508
 N562 N 0.58305 0.09868 0.73325
 N563 N 0.56729 0.11278 0.74642
 C564 C 0.56653 0.11156 0.77190
 N565 N 0.58227 0.09589 0.78369
 N566 N 0.59815 0.08194 0.77055
 C567 C 0.54838 0.12620 0.78672
 C568 C 0.53567 0.14552 0.77658
 H569 H 0.61053 0.06428 0.71058
 H570 H 0.54527 0.12184 0.80627
 H571 H 0.63646 0.05356 0.76194
 H572 H 0.54011 0.15084 0.75755
 C573 C 0.36020 0.95946 0.73284
 C574 C 0.36268 0.95538 0.75851
 C575 C 0.37863 0.93624 0.76877
 N576 N 0.38261 0.93506 0.79389
 N577 N 0.39853 0.91894 0.80356
 C578 C 0.41106 0.90334 0.78851
 N579 N 0.40673 0.90425 0.76337
 N580 N 0.39084 0.92046 0.75366
 C581 C 0.43016 0.88661 0.79905
 C582 C 0.43919 0.88907 0.82363
 H583 H 0.35385 0.96750 0.77168
 H584 H 0.43861 0.87341 0.78694
 H585 H 0.36813 0.94691 0.71965
 H586 H 0.43147 0.90304 0.83518
 C587 C 0.64117 0.95538 0.27044
 C588 C 0.63904 0.95289 0.24449
 C589 C 0.62393 0.93438 0.23213
 N590 N 0.61120 0.91755 0.24531
 N591 N 0.59601 0.90203 0.23350
 C592 C 0.59302 0.90288 0.20816
 N593 N 0.60593 0.91956 0.19509
 N594 N 0.62113 0.93498 0.20684
 C595 C 0.57472 0.88749 0.19471
 C596 C 0.56166 0.86879 0.20570
 H597 H 0.64756 0.96615 0.23255
 H598 H 0.57083 0.89158 0.17520
 H599 H 0.63405 0.94188 0.28284
 H600 H 0.56651 0.86333 0.22460
 C601 C 0.35887 0.28096 0.95702
 C602 C 0.38511 0.27524 0.95121
 C603 C 0.39255 0.26149 0.92903
 N604 N 0.41615 0.26541 0.91767
 N605 N 0.42448 0.25167 0.89912
 C606 C 0.40975 0.23320 0.89156
 N607 N 0.38619 0.22917 0.90303
 N608 N 0.37763 0.24317 0.92133
 C609 C 0.42024 0.21682 0.87275
 C610 C 0.43744 0.22430 0.85403
 H611 H 0.40105 0.28167 0.96292
 H612 H 0.41510 0.19860 0.87415
 H613 H 0.34422 0.27817 0.94252
 H614 H 0.44018 0.24279 0.85116
 C615 C 0.63333 0.72646 0.95062
 C616 C 0.63250 0.75048 0.94751
 C617 C 0.61605 0.76195 0.92846
 N618 N 0.61388 0.78541 0.92881
 N619 N 0.59733 0.79623 0.91329
 C620 C 0.58231 0.78400 0.89676
 N621 N 0.58484 0.76051 0.89602
 N622 N 0.60137 0.74966 0.91165
 C623 C 0.56244 0.79588 0.88108
 C624 C 0.55505 0.81869 0.88642
 H625 H 0.64275 0.76148 0.96089
 H626 H 0.55218 0.78616 0.86661
 H627 H 0.62414 0.71526 0.93679
 H628 H 0.56455 0.82778 0.90181
 C629 C 0.37972 0.71614 0.04845
 C630 C 0.38564 0.73983 0.05020
 C631 C 0.39979 0.75024 0.07153
 N632 N 0.40376 0.77352 0.07181
 N633 N 0.41809 0.78336 0.08987
 C634 C 0.42910 0.77032 0.10836
 N635 N 0.42491 0.74701 0.10827
 N636 N 0.41052 0.73712 0.09015
 C637 C 0.44646 0.78112 0.12733
 C638 C 0.45304 0.80458 0.12569
 H639 H 0.37966 0.75159 0.03540
 H640 H 0.45533 0.77032 0.14169
 H641 H 0.38279 0.70580 0.06510
 H642 H 0.44436 0.81509 0.11096
 C643 C 0.61645 0.28286 0.03288
 C644 C 0.61037 0.25915 0.03144
 C645 C 0.60004 0.24553 0.05259
 N646 N 0.59751 0.22221 0.04991
 N647 N 0.58680 0.20946 0.06804
 C648 C 0.57811 0.21950 0.08961
 N649 N 0.58082 0.24285 0.09244
 N650 N 0.59163 0.25566 0.07426
 C651 C 0.56422 0.20555 0.10873
 C652 C 0.55947 0.18196 0.10476
 H653 H 0.61416 0.24961 0.01427
 H654 H 0.55565 0.21428 0.12484
 H655 H 0.61572 0.29074 0.05127
 H656 H 0.56777 0.17354 0.08834
 C657 C 0.27044 0.04685 0.62793
 C658 C 0.24443 0.04891 0.61952
 C659 C 0.23503 0.06863 0.60455
 N660 N 0.20997 0.06834 0.59549
 N661 N 0.20143 0.08517 0.58043
 C662 C 0.21763 0.10296 0.57386
 N663 N 0.24263 0.10346 0.58322
 N664 N 0.25122 0.08655 0.59828
 C665 C 0.20872 0.12071 0.55590
 C666 C 0.18500 0.11801 0.54289
 H667 H 0.23061 0.03490 0.62303
 H668 H 0.22162 0.13523 0.55176
 H669 H 0.28403 0.06125 0.62574
 H670 H 0.17264 0.10303 0.54661
 C671 C 0.75451 0.03816 0.35699
 C672 C 0.74211 0.05819 0.36619
 C673 C 0.75729 0.07524 0.38105
 N674 N 0.74465 0.09132 0.39541
 N675 N 0.75836 0.10535 0.41056
 C676 C 0.78520 0.10378 0.41184
 N677 N 0.79780 0.08803 0.39715
 N678 N 0.78413 0.07406 0.38205
 C679 C 0.80075 0.11745 0.42986
 C680 C 0.78969 0.13397 0.44588
 H681 H 0.72076 0.05992 0.36555
 H682 H 0.82172 0.11359 0.43122
 H683 H 0.77513 0.03580 0.36213
 H684 H 0.76905 0.13881 0.44401
 C685 C 0.71268 0.95981 0.63267
 C686 C 0.73889 0.95793 0.62450
 C687 C 0.74991 0.93739 0.61162
 N688 N 0.77564 0.93767 0.60436
 N689 N 0.78600 0.91993 0.59164
 C690 C 0.77106 0.90112 0.58561
 N691 N 0.74531 0.90070 0.59305
 N692 N 0.73490 0.91852 0.60582
 C693 C 0.78224 0.88203 0.57025
 C694 C 0.80769 0.88364 0.56016
 H695 H 0.75206 0.97258 0.62724
 H696 H 0.76981 0.86732 0.56556
 H697 H 0.69965 0.94494 0.63129
 H698 H 0.81961 0.89878 0.56443
 C699 C 0.27278 0.94858 0.35720
 C700 C 0.24874 0.94514 0.36971
 C701 C 0.24168 0.92350 0.38274
 N702 N 0.21640 0.92058 0.39060
 N703 N 0.20962 0.90204 0.40398
 C704 C 0.22787 0.88566 0.41017
 N705 N 0.25321 0.88846 0.40215
 N706 N 0.26000 0.90703 0.38861
 C707 C 0.22067 0.86631 0.42703
 C708 C 0.19482 0.86428 0.43597
 H709 H 0.23364 0.95850 0.36927
 H710 H 0.23613 0.85513 0.43431
 H711 H 0.28554 0.93361 0.35494
 H712 H 0.17969 0.87579 0.42863
 C713 C 0.05543 0.37196 0.71194
 C714 C 0.05727 0.37955 0.73685
 C715 C 0.07963 0.39256 0.74741
 N716 N 0.07976 0.39681 0.77241
 N717 N 0.09794 0.41059 0.78255
 C718 C 0.11671 0.42083 0.76811
 N719 N 0.11693 0.41629 0.74305
 N720 N 0.09865 0.40240 0.73284
 C721 C 0.13517 0.43780 0.77937
 C722 C 0.13141 0.44504 0.80413
 H723 H 0.04120 0.37587 0.74971
 H724 H 0.15037 0.44569 0.76788
 H725 H 0.07325 0.37218 0.70072
 H726 H 0.11556 0.43739 0.81503
 C727 C 0.04320 0.61696 0.29692
 C728 C 0.04629 0.61132 0.27157
 C729 C 0.06973 0.59914 0.26148
 N730 N 0.07098 0.59433 0.23657
 N731 N 0.09121 0.58228 0.22712
 C732 C 0.11103 0.57453 0.24220
 N733 N 0.10991 0.57950 0.26713
 N734 N 0.08964 0.59158 0.27661
 C735 C 0.13262 0.55986 0.23208
 C736 C 0.13302 0.55295 0.20694
 H737 H 0.03051 0.61549 0.25854
 H738 H 0.14735 0.55312 0.24495
 H739 H 0.05944 0.61389 0.30977
 H740 H 0.11795 0.55948 0.19429
 C741 C 0.95289 0.38907 0.29924
 C742 C 0.95447 0.39727 0.27453
 C743 C 0.93249 0.40826 0.26098
 N744 N 0.93646 0.41523 0.23699
 N745 N 0.91763 0.42656 0.22455
 C746 C 0.89407 0.43139 0.23564
 N747 N 0.88994 0.42422 0.25960
 N748 N 0.90884 0.41287 0.27210
 C749 C 0.87379 0.44503 0.22237
 C750 C 0.87875 0.45466 0.19881
 H751 H 0.97276 0.39545 0.26410
 H752 H 0.85517 0.44848 0.23178
 H753 H 0.93344 0.38803 0.30756
 H754 H 0.89753 0.45143 0.18960
 C755 C 0.95802 0.61824 0.70390
 C756 C 0.95604 0.60903 0.72812
 C757 C 0.93265 0.59713 0.73821
 N758 N 0.93150 0.59329 0.76325
 N759 N 0.91207 0.58071 0.77306
 C760 C 0.89302 0.57125 0.75827
 N761 N 0.89397 0.57524 0.73312
 N762 N 0.91345 0.58800 0.72325
 C763 C 0.87299 0.55558 0.76932
 C764 C 0.87323 0.55139 0.79511
 H765 H 0.97238 0.61124 0.74110
 H766 H 0.85964 0.54606 0.75717
 H767 H 0.94007 0.61942 0.69292
 H768 H 0.88683 0.56113 0.80683
 C769 C 0.71545 0.62297 0.94948
 C770 C 0.72099 0.59934 0.94697
 C771 C 0.73748 0.59045 0.92652
 N772 N 0.73405 0.56843 0.91805
 N773 N 0.75053 0.55946 0.90109
 C774 C 0.77127 0.57207 0.89236
 N775 N 0.77480 0.59405 0.90093
 N776 N 0.75806 0.60316 0.91759
 C777 C 0.79097 0.56133 0.87584
 C778 C 0.78403 0.54358 0.85943
 H779 H 0.71318 0.58696 0.96034
 H780 H 0.81145 0.56677 0.87739
 H781 H 0.71930 0.63392 0.93341
 H782 H 0.76332 0.53997 0.85576
 C783 C 0.24825 0.36192 0.97470
 C784 C 0.25985 0.37182 0.95339
 C785 C 0.24461 0.38756 0.93696
 N786 N 0.25677 0.39917 0.91802
 N787 N 0.24332 0.41433 0.90400
 C788 C 0.21722 0.41845 0.90847
 N789 N 0.20507 0.40672 0.92723
 N790 N 0.21847 0.39157 0.94117
 C791 C 0.20206 0.43578 0.89416
 C792 C 0.21235 0.44794 0.87377
 H793 H 0.28093 0.37026 0.95012
 H794 H 0.18188 0.43913 0.90009
 H795 H 0.22810 0.36721 0.97885
 H796 H 0.23215 0.44419 0.86707
 C797 C 0.29742 0.61347 0.04791
 C798 C 0.29082 0.59016 0.05148
 C799 C 0.27383 0.58285 0.07233
 N800 N 0.27808 0.56216 0.08379
 N801 N 0.26171 0.55476 0.10167
 C802 C 0.24026 0.56761 0.10839
 N803 N 0.23588 0.58821 0.09676
 N804 N 0.25252 0.59582 0.07921
 C805 C 0.22074 0.55836 0.12610
 C806 C 0.22823 0.54424 0.14603
 H807 H 0.29909 0.57682 0.03943
 H808 H 0.19996 0.56200 0.12283
 H809 H 0.29260 0.62535 0.06301
 H810 H 0.24895 0.54278 0.15110
 C811 C 0.70262 0.38369 0.04240
 C812 C 0.72949 0.38854 0.04529
 C813 C 0.74070 0.40012 0.06751
 N814 N 0.76709 0.40425 0.06832
 N815 N 0.77768 0.41606 0.08733
 C816 C 0.76230 0.42423 0.10632
 N817 N 0.73588 0.41983 0.10571
 N818 N 0.72525 0.40798 0.08664
 C819 C 0.77380 0.43902 0.12621
 C820 C 0.79985 0.44681 0.12437
 H821 H 0.74295 0.38431 0.03010
 H822 H 0.76109 0.44551 0.14104
 H823 H 0.68912 0.38656 0.05789
 H824 H 0.81199 0.44089 0.10885
 C825 C 0.96705 0.71641 0.61850
 C826 C 0.96805 0.73966 0.61064
 C827 C 0.94522 0.75223 0.60000
 N828 N 0.94796 0.77496 0.59382
 N829 N 0.92805 0.78662 0.58333
 C830 C 0.90455 0.77603 0.57860
 N831 N 0.90171 0.75330 0.58492
 N832 N 0.92167 0.74160 0.59544
 C833 C 0.88295 0.78852 0.56567
 C834 C 0.88633 0.81116 0.55686
 H835 H 0.98596 0.74970 0.61308
 H836 H 0.86482 0.77924 0.56154
 H837 H 0.94782 0.70829 0.61818
 H838 H 0.90475 0.82016 0.56059
 C839 C 0.95037 0.29739 0.39291
 C840 C 0.94987 0.27377 0.39906
 C841 C 0.92689 0.26173 0.40976
 N842 N 0.92742 0.23823 0.41093
 N843 N 0.90808 0.22665 0.42224
 C844 C 0.88744 0.23805 0.43300
 N845 N 0.88672 0.26164 0.43166
 N846 N 0.90611 0.27330 0.42020
 C847 C 0.86741 0.22502 0.44745
 C848 C 0.86971 0.20097 0.44980
 H849 H 0.96695 0.26299 0.39501
 H850 H 0.85239 0.23440 0.45788
 H851 H 0.93178 0.30670 0.39341
 H852 H 0.88510 0.19199 0.43943
 C853 C 0.04903 0.28079 0.61721
 C854 C 0.04976 0.25679 0.61363
 C855 C 0.06952 0.24515 0.59785
 N856 N 0.06572 0.22262 0.59132
 N857 N 0.08236 0.21199 0.57570
 C858 C 0.10347 0.22350 0.56607
 N859 N 0.10754 0.24596 0.57290
 N860 N 0.09077 0.25666 0.58843
 C861 C 0.12141 0.21207 0.54821
 C862 C 0.11468 0.19112 0.53670
 H863 H 0.03388 0.24621 0.62107
 H864 H 0.13977 0.22069 0.54338
 H865 H 0.06528 0.29146 0.61071
 H866 H 0.09575 0.18310 0.54066
 C867 C 0.03640 0.71041 0.38896
 C868 C 0.03868 0.71992 0.41303
 C869 C 0.05955 0.73645 0.41991
 N870 N 0.07038 0.73565 0.44318
 N871 N 0.08767 0.75174 0.45052
 C872 C 0.09430 0.76953 0.43505
 N873 N 0.08326 0.77048 0.41183
 N874 N 0.06632 0.75412 0.40431
 C875 C 0.11203 0.78804 0.44389
 C876 C 0.13329 0.78288 0.45951
 H877 H 0.02539 0.71436 0.42780
 H878 H 0.10845 0.80578 0.43803
 H879 H 0.05292 0.71275 0.37632
 H880 H 0.13864 0.76487 0.46267
 C881 C 0.63422 0.96749 0.74719
 C882 C 0.62939 0.96799 0.77307
 C883 C 0.61400 0.95027 0.78641
 N884 N 0.60159 0.93267 0.77411
 N885 N 0.58578 0.91812 0.78650
 C886 C 0.58177 0.92074 0.81159
 N887 N 0.59438 0.93818 0.82383
 N888 N 0.61016 0.95268 0.81147
 C889 C 0.56322 0.90596 0.82552
 C890 C 0.54940 0.88764 0.81454
 H891 H 0.63644 0.98245 0.78427
 H892 H 0.55993 0.91007 0.84514
 H893 H 0.63072 0.95130 0.73745
 H894 H 0.55317 0.88284 0.79519
 C895 C 0.36424 0.95993 0.25166
 C896 C 0.37316 0.93903 0.26203
 C897 C 0.38772 0.92220 0.24640
 N898 N 0.40178 0.90466 0.25707
 N899 N 0.41649 0.89049 0.24292
 C900 C 0.41752 0.89336 0.21761
 N901 N 0.40309 0.91058 0.20698
 N902 N 0.38844 0.92468 0.22108
 C903 C 0.43535 0.87968 0.20169
 C904 C 0.45131 0.86176 0.21061
 H905 H 0.37213 0.93605 0.28207
 H906 H 0.43693 0.88483 0.18219
 H907 H 0.37054 0.96358 0.23261
 H908 H 0.44903 0.85541 0.22961
 C909 C 0.64370 0.04017 0.26787
 C910 C 0.63235 0.04013 0.24384
 C911 C 0.61791 0.05971 0.23253
 N912 N 0.60999 0.05779 0.20831
 N913 N 0.59522 0.07422 0.19774
 C914 C 0.58761 0.09327 0.21098
 N915 N 0.59571 0.09536 0.23524
 N916 N 0.61060 0.07885 0.24586
 C917 C 0.56987 0.11072 0.19947
 C918 C 0.56025 0.10752 0.17512
 H919 H 0.63445 0.02490 0.23202
 H920 H 0.56339 0.12550 0.21052
 H921 H 0.64506 0.05666 0.27753
 H922 H 0.56677 0.09253 0.16442
 C923 C 0.35719 0.04360 0.73793
 C924 C 0.36445 0.06469 0.72681
 C925 C 0.37619 0.08362 0.74189
 N926 N 0.38717 0.10242 0.73055
 N927 N 0.39886 0.11901 0.74416
 C928 C 0.39983 0.11742 0.76960
 N929 N 0.38853 0.09881 0.78087
 N930 N 0.37690 0.08228 0.76731
 C931 C 0.41464 0.13411 0.78511
 C932 C 0.42821 0.15325 0.77551
 H933 H 0.36377 0.06676 0.70663
 H934 H 0.41663 0.12998 0.80486
 H935 H 0.36323 0.04117 0.75729
 H936 H 0.42562 0.15831 0.75610
 C937 C 0.63751 0.72681 0.04331
 C938 C 0.63435 0.75069 0.04643
 C939 C 0.62000 0.76063 0.06787
 N940 N 0.61433 0.78366 0.06819
 N941 N 0.59964 0.79273 0.08650
 C942 C 0.59011 0.77911 0.10522
 N943 N 0.59615 0.75613 0.10515
 N944 N 0.61078 0.74703 0.08677
 C945 C 0.57236 0.78867 0.12451
 C946 C 0.56194 0.81099 0.12235
 H947 H 0.64119 0.76243 0.03195
 H948 H 0.56599 0.77746 0.13966
 H949 H 0.63139 0.71524 0.05821
 H950 H 0.56782 0.82189 0.10676
 C951 C 0.37143 0.27830 0.04768
 C952 C 0.37575 0.25434 0.04742
 C953 C 0.39234 0.24184 0.06561
 N954 N 0.39632 0.21874 0.06231
 N955 N 0.41235 0.20698 0.07749
 C956 C 0.42509 0.21784 0.09664
 N957 N 0.42089 0.24096 0.10019
 N958 N 0.40484 0.25279 0.08490
 C959 C 0.44387 0.20492 0.11263
 C960 C 0.45163 0.18237 0.10630
 H961 H 0.36732 0.24416 0.03225
 H962 H 0.45264 0.21356 0.12869
 H963 H 0.37836 0.28876 0.06326
 H964 H 0.44348 0.17428 0.08962
 C965 C 0.61159 0.29270 0.94151
 C966 C 0.61030 0.26909 0.93571
 C967 C 0.59623 0.25996 0.91364
 N968 N 0.59388 0.23665 0.91070
 N969 N 0.57979 0.22786 0.89182
 C970 C 0.56753 0.24204 0.87508
 N971 N 0.57023 0.26540 0.87776
 N972 N 0.58429 0.27421 0.89673
 C973 C 0.55017 0.23237 0.85542
 C974 C 0.54230 0.20918 0.85622
 H975 H 0.61900 0.25661 0.94852
 H976 H 0.54156 0.24399 0.84167
 H977 H 0.60389 0.30531 0.92833
 H978 H 0.54994 0.19802 0.87090
 C979 C 0.37769 0.71740 0.95657
 C980 C 0.37624 0.74154 0.95456
 C981 C 0.39052 0.75483 0.93537
 N982 N 0.39211 0.77825 0.93770
 N983 N 0.40672 0.79064 0.92184
 C984 C 0.42026 0.78007 0.90299
 N985 N 0.41831 0.75666 0.90035
 N986 N 0.40379 0.74422 0.91633
 C987 C 0.43768 0.79354 0.88635
 C988 C 0.44517 0.81619 0.89238
 H989 H 0.36621 0.75134 0.96913
 H990 H 0.44604 0.78503 0.87001
 H991 H 0.38674 0.70731 0.94169
 H992 H 0.43779 0.82420 0.90943
 C993 C 0.75250 0.95480 0.35693
 C994 C 0.74034 0.94062 0.37471
 C995 C 0.75595 0.92468 0.39056
 N996 N 0.74387 0.91158 0.40837
 N997 N 0.75814 0.89856 0.42409
 C998 C 0.78501 0.89830 0.42263
 N999 N 0.79702 0.91126 0.40472
 N1000 N 0.78279 0.92416 0.38898
 C1001 C 0.80142 0.88553 0.44079
 C1002 C 0.79114 0.87001 0.45832
 H1003 H 0.71947 0.94291 0.37875
 H1004 H 0.82256 0.88873 0.44046
 H1005 H 0.77364 0.95317 0.35392
 H1006 H 0.77031 0.86554 0.45794
 C1007 C 0.26978 0.96111 0.62692
 C1008 C 0.27016 0.95711 0.60113
 C1009 C 0.25469 0.93841 0.58938
 N1010 N 0.26168 0.93018 0.56643
 N1011 N 0.24703 0.91409 0.55499
 C1012 C 0.22459 0.90592 0.56590
 N1013 N 0.21745 0.91432 0.58875
 N1014 N 0.23231 0.93018 0.60035
 C1015 C 0.20777 0.88885 0.55293
 C1016 C 0.21831 0.87341 0.53543
 H1017 H 0.28187 0.96830 0.58916
 H1018 H 0.18699 0.88783 0.55786
 H1019 H 0.26030 0.94870 0.63924
 H1020 H 0.23954 0.87281 0.53256
 C1021 C 0.26345 0.03330 0.35867
 C1022 C 0.26534 0.03965 0.38378
 C1023 C 0.24918 0.05858 0.39413
 N1024 N 0.25668 0.06950 0.41557
 N1025 N 0.24155 0.08610 0.42556
 C1026 C 0.21826 0.09218 0.41460
 N1027 N 0.21068 0.08115 0.39326
 N1028 N 0.22596 0.06477 0.38310
 C1029 C 0.20043 0.10903 0.42653
 C1030 C 0.20954 0.12538 0.44375
 H1031 H 0.27904 0.03059 0.39600
 H1032 H 0.17949 0.10812 0.42216
 H1033 H 0.25178 0.04369 0.34582
 H1034 H 0.23063 0.12780 0.44643
 C1035 C 0.70994 0.04559 0.62603
 C1036 C 0.73603 0.04772 0.61783
 C1037 C 0.74587 0.06758 0.60327
 N1038 N 0.77157 0.06776 0.59602
 N1039 N 0.78102 0.08508 0.58219
 C1040 C 0.76516 0.10297 0.57504
 N1041 N 0.73942 0.10293 0.58246
 N1042 N 0.72992 0.08553 0.59633
 C1043 C 0.77558 0.12158 0.55876
 C1044 C 0.80099 0.11978 0.54871
 H1045 H 0.75006 0.03405 0.62223
 H1046 H 0.76290 0.13603 0.55370
 H1047 H 0.69603 0.05959 0.62275
 H1048 H 0.81303 0.10480 0.55337
 C1049 C 0.94526 0.61217 0.29793
 C1050 C 0.94172 0.60926 0.27217
 C1051 C 0.91996 0.59576 0.26101
 N1052 N 0.91788 0.59467 0.23569
 N1053 N 0.89951 0.58145 0.22489
 C1054 C 0.88247 0.56871 0.23897
 N1055 N 0.88433 0.56998 0.26439
 N1056 N 0.90275 0.58328 0.27523
 C1057 C 0.86360 0.55261 0.22682
 C1058 C 0.86416 0.54932 0.20089
 H1059 H 0.95605 0.61684 0.25946
 H1060 H 0.85093 0.54189 0.23840
 H1061 H 0.93036 0.60592 0.31086
 H1062 H 0.87756 0.55971 0.18969
 C1063 C 0.95876 0.37592 0.71425
 C1064 C 0.95759 0.38172 0.73966
 C1065 C 0.93702 0.39688 0.75021
 N1066 N 0.93951 0.40468 0.77412
 N1067 N 0.92197 0.41954 0.78368
 C1068 C 0.90125 0.42714 0.76965
 N1069 N 0.89856 0.41912 0.74580
 N1070 N 0.91619 0.40432 0.73620
 C1071 C 0.88221 0.44404 0.77977
 C1072 C 0.88644 0.45529 0.80262
 H1073 H 0.97338 0.37618 0.75208
 H1074 H 0.86486 0.44818 0.76865
 H1075 H 0.94255 0.38066 0.70196
 H1076 H 0.90416 0.45164 0.81339
 C1077 C 0.05466 0.61306 0.70638
 C1078 C 0.05564 0.60853 0.73211
 C1079 C 0.07612 0.59421 0.74422
 N1080 N 0.07376 0.58931 0.76900
 N1081 N 0.09111 0.57544 0.78035
 C1082 C 0.11156 0.56590 0.76738
 N1083 N 0.11414 0.57098 0.74260
 N1084 N 0.09668 0.58485 0.73118
 C1085 C 0.13018 0.54978 0.77976
 C1086 C 0.12544 0.54166 0.80401
 H1087 H 0.03977 0.61493 0.74395
 H1088 H 0.14715 0.54349 0.76932
 H1089 H 0.07091 0.60775 0.69442
 H1090 H 0.10792 0.54745 0.81397
 C1091 C 0.04894 0.39381 0.30743
 C1092 C 0.05299 0.39604 0.28167
 C1093 C 0.07481 0.40936 0.27070
 N1094 N 0.07552 0.41238 0.24549
 N1095 N 0.09407 0.42557 0.23502
 C1096 C 0.11266 0.43624 0.24938
 N1097 N 0.11219 0.43300 0.27462
 N1098 N 0.09354 0.41983 0.28513
 C1099 C 0.13238 0.45172 0.23794
 C1100 C 0.13050 0.45816 0.21279
 H1101 H 0.03854 0.38873 0.26885
 H1102 H 0.14783 0.45896 0.24970
 H1103 H 0.06371 0.40000 0.32057
 H1104 H 0.11453 0.45140 0.20133
   
