data_POSCAR
  _audit_creation_date              2014-09-24
  _audit_creation_method            'ToBaCCo'
  _symmetry_space_group_name_H-M    'P1'
  _symmetry_Int_Tables_number       1
  _symmetry_cell_setting            triclinic
  loop_
  _symmetry_equiv_pos_as_xyz
 x,y,z
_cell_length_a 52.1850
_cell_length_b 49.0667
_cell_length_c 51.2665
_cell_angle_alpha 88.754100
_cell_angle_beta 92.333100
_cell_angle_gamma 83.465400
loop_
  _atom_site_label
  _atom_site_type_symbol
  _atom_site_fract_x
  _atom_site_fract_y
  _atom_site_fract_z
N1 N 0.62905 0.65043 0.61191
 N2 N 0.61218 0.63445 0.62017
 C3 C 0.58941 0.64978 0.62290
 C4 C 0.59215 0.67676 0.61617
 C5 C 0.61756 0.67637 0.60930
 H6 H 0.57239 0.64203 0.63016
 H7 H 0.62694 0.69359 0.60253
 Cu8 Cu 0.62148 0.59529 0.62957
 Cu9 Cu 0.66452 0.63642 0.60369
 Cu10 Cu 0.68255 0.57045 0.61950
 N11 N 0.63834 0.56276 0.64853
 N12 N 0.66269 0.55377 0.64548
 C13 C 0.66987 0.53270 0.66241
 C14 C 0.64873 0.52787 0.67681
 C15 C 0.62897 0.54734 0.66711
 H16 H 0.68908 0.52179 0.66393
 H17 H 0.60953 0.55107 0.67378
 N18 N 0.69912 0.58898 0.59203
 N19 N 0.69245 0.61513 0.58636
 C20 C 0.70701 0.62304 0.56715
 C21 C 0.72358 0.60052 0.56013
 C22 C 0.71797 0.57923 0.57641
 H23 H 0.70505 0.64351 0.55850
 H24 H 0.72694 0.55824 0.57698
 H25 H 0.64699 0.60213 0.60023
 H26 H 0.65572 0.61053 0.63455
 N27 N 0.88026 0.32562 0.13414
 N28 N 0.89471 0.34388 0.14306
 C29 C 0.91943 0.33254 0.14538
 C30 C 0.92061 0.30537 0.13788
 C31 C 0.89517 0.30179 0.13100
 H32 H 0.93512 0.34313 0.15287
 H33 H 0.88792 0.28354 0.12364
 Cu34 Cu 0.87967 0.38006 0.15273
 Cu35 Cu 0.84326 0.33438 0.12679
 Cu36 Cu 0.81978 0.40302 0.13066
 N37 N 0.86015 0.41137 0.16810
 N38 N 0.83650 0.42023 0.15963
 C39 C 0.82751 0.44190 0.17360
 C40 C 0.84661 0.44691 0.19186
 C41 C 0.86709 0.42713 0.18773
 H42 H 0.80859 0.45327 0.17049
 H43 H 0.88552 0.42412 0.19844
 N44 N 0.80140 0.37673 0.11113
 N45 N 0.80980 0.35037 0.11045
 C46 C 0.79354 0.33799 0.09481
 C47 C 0.77406 0.35757 0.08507
 C48 C 0.77968 0.38189 0.09598
 H49 H 0.79652 0.31663 0.08969
 H50 H 0.76905 0.40200 0.09280
 H51 H 0.84881 0.37372 0.11701
 H52 H 0.83535 0.36857 0.14975
 N53 N 0.39804 0.16147 -0.12287
 N54 N 0.40441 0.15172 -0.14568
 C55 C 0.42169 0.16680 -0.15596
 C56 C 0.42659 0.18701 -0.13855
 C57 C 0.41123 0.18289 -0.11771
 H58 H 0.43045 0.16292 -0.17446
 H59 H 0.40959 0.19460 -0.10011
 Cu60 Cu 0.39063 0.11933 -0.15916
 Cu61 Cu 0.37372 0.14496 -0.10132
 Cu62 Cu 0.33416 0.10535 -0.13631
 N63 N 0.37231 0.09039 -0.17376
 N64 N 0.34998 0.08541 -0.16494
 C65 C 0.34072 0.06563 -0.17902
 C66 C 0.35828 0.05750 -0.19766
 C67 C 0.37817 0.07368 -0.19370
 H68 H 0.32261 0.05767 -0.17570
 H69 H 0.39529 0.07375 -0.20488
 N70 N 0.32656 0.11886 -0.10132
 N71 N 0.34154 0.13391 -0.08788
 C72 C 0.33141 0.13904 -0.06447
 C73 C 0.30928 0.12609 -0.06302
 C74 C 0.30683 0.11350 -0.08669
 H75 H 0.33993 0.15058 -0.04932
 H76 H 0.29194 0.10103 -0.09269
 H77 H 0.36982 0.10737 -0.11927
 H78 H 0.35423 0.14005 -0.13516
 N79 N 0.08802 0.85192 0.39323
 N80 N 0.07868 0.85739 0.36928
 C81 C 0.05903 0.84247 0.36440
 C82 C 0.05554 0.82688 0.38669
 C83 C 0.07429 0.83374 0.40467
 H84 H 0.04806 0.84329 0.34602
 H85 H 0.07850 0.82544 0.42428
 Cu86 Cu 0.09265 0.88413 0.34705
 Cu87 Cu 0.11850 0.86753 0.40682
 Cu88 Cu 0.15518 0.89054 0.35769
 N89 N 0.10967 0.90978 0.32636
 N90 N 0.13438 0.91192 0.33029
 C91 C 0.14132 0.93105 0.31362
 C92 C 0.11968 0.94178 0.29856
 C93 C 0.09994 0.92766 0.30723
 H94 H 0.16053 0.93725 0.31325
 H95 H 0.07993 0.93028 0.30036
 N96 N 0.16960 0.87933 0.39285
 N97 N 0.15531 0.87240 0.41204
 C98 C 0.17041 0.86747 0.43393
 C99 C 0.19547 0.87127 0.42814
 C100 C 0.19421 0.87877 0.40191
 H101 H 0.16381 0.86075 0.45247
 H102 H 0.20994 0.88399 0.39039
 H103 H 0.12385 0.89850 0.37927
 H104 H 0.13125 0.86183 0.37049
 C105 C 0.13947 0.18137 0.12975
 C106 C 0.16264 0.17129 0.11853
 C107 C 0.17462 0.14547 0.12580
 C108 C 0.16391 0.12958 0.14465
 C109 C 0.14107 0.13946 0.15563
 C110 C 0.12864 0.16541 0.14798
 C111 C 0.12289 0.20513 0.12561
 N112 N 0.10223 0.20373 0.14065
 C113 C 0.10557 0.17954 0.15440
 C114 C 0.13521 0.11972 0.17319
 N115 N 0.15405 0.09815 0.17326
 C116 C 0.17160 0.10401 0.15569
 C117 C 0.19565 0.14021 0.11064
 N118 N 0.19677 0.16221 0.09437
 C119 C 0.17677 0.18142 0.09916
 H120 H 0.12522 0.22180 0.11205
 H121 H 0.09203 0.17264 0.16784
 H122 H 0.11878 0.12133 0.18552
 H123 H 0.18876 0.09068 0.15122
 H124 H 0.20883 0.12149 0.11095
 H125 H 0.17218 0.20076 0.08849
 C126 C 0.38926 0.83747 0.60929
 C127 C 0.36495 0.85092 0.60140
 C128 C 0.35546 0.87477 0.61333
 C129 C 0.37033 0.88569 0.63305
 C130 C 0.39446 0.87264 0.64062
 C131 C 0.40399 0.84830 0.62868
 C132 C 0.40286 0.81343 0.60185
 N133 N 0.42551 0.80944 0.61618
 C134 C 0.42642 0.83075 0.63255
 C135 C 0.40435 0.88776 0.66015
 N136 N 0.38676 0.90963 0.66463
 C137 C 0.36591 0.90847 0.64808
 C138 C 0.33143 0.88317 0.60198
 N139 N 0.32627 0.86516 0.58327
 C140 C 0.34666 0.84535 0.58278
 H141 H 0.39668 0.79978 0.58714
 H142 H 0.44193 0.83292 0.64676
 H143 H 0.42279 0.88291 0.67062
 H144 H 0.34882 0.92325 0.64686
 H145 H 0.31884 0.90135 0.60661
 H146 H 0.34803 0.82812 0.56987
 C147 C 0.89507 0.66481 0.37653
 C148 C 0.87561 0.65341 0.38967
 C149 C 0.86607 0.63009 0.38042
 C150 C 0.87585 0.61788 0.35782
 C151 C 0.89508 0.62912 0.34492
 C152 C 0.90459 0.65283 0.35420
 C153 C 0.90786 0.68743 0.38095
 N154 N 0.92467 0.68956 0.36166
 C155 C 0.92280 0.66848 0.34522
 C156 C 0.90120 0.61290 0.32404
 N157 N 0.88608 0.59214 0.32384
 C158 C 0.87040 0.59507 0.34437
 C159 C 0.84735 0.62376 0.39696
 N160 N 0.84521 0.64274 0.41593
 C161 C 0.86246 0.66093 0.41157
 H162 H 0.90484 0.70160 0.39672
 H163 H 0.93397 0.66475 0.32805
 H164 H 0.91554 0.61605 0.30993
 H165 H 0.85645 0.58132 0.34942
 H166 H 0.83582 0.60687 0.39502
 H167 H 0.86542 0.67828 0.42357
 C168 C 0.58640 0.35384 -0.10194
 C169 C 0.60774 0.36573 -0.09168
 C170 C 0.61849 0.38513 -0.10635
 C171 C 0.60825 0.39278 -0.13147
 C172 C 0.58710 0.38125 -0.14154
 C173 C 0.57618 0.36153 -0.12670
 C174 C 0.57196 0.33451 -0.09214
 N175 N 0.55330 0.33015 -0.11037
 C176 C 0.55576 0.34665 -0.13156
 C177 C 0.58103 0.39301 -0.16599
 N178 N 0.59818 0.41112 -0.17100
 C179 C 0.61489 0.41109 -0.15000
 C180 C 0.63837 0.39369 -0.09142
 N181 N 0.64003 0.37996 -0.06800
 C182 C 0.62143 0.36268 -0.06804
 H183 H 0.57514 0.32404 -0.07329
 H184 H 0.54347 0.34797 -0.14917
 H185 H 0.56544 0.38859 -0.17925
 H186 H 0.63049 0.42381 -0.14818
 H187 H 0.65075 0.40883 -0.09721
 H188 H 0.61770 0.34939 -0.05183
 C189 C -0.03232 0.29376 0.14080
 C190 C -0.01042 0.27432 0.14034
 C191 C -0.01344 0.24629 0.13740
 C192 C -0.03826 0.23829 0.13423
 C193 C -0.05995 0.25780 0.13401
 C194 C -0.05740 0.28580 0.13758
 C195 C 0.00837 0.22674 0.13750
 C196 C 0.03323 0.23495 0.13981
 C197 C 0.03630 0.26310 0.14189
 C198 C 0.01447 0.28257 0.14249
 C199 C 0.06121 0.27130 0.14317
 C200 C 0.08287 0.25178 0.14243
 C201 C 0.07997 0.22377 0.14100
 C202 C 0.05509 0.21546 0.13977
 H203 H -0.02959 0.31513 0.14303
 H204 H -0.04092 0.21689 0.13182
 H205 H -0.07871 0.25060 0.13165
 H206 H 0.00601 0.20518 0.13553
 H207 H 0.01684 0.30413 0.14437
 H208 H 0.06394 0.29278 0.14461
 H209 H 0.10195 0.25844 0.14342
 H210 H 0.05285 0.19385 0.13825
 C211 C 0.54601 0.69763 0.61453
 C212 C 0.52724 0.72047 0.61522
 C213 C 0.53495 0.74691 0.61871
 C214 C 0.56129 0.75009 0.62101
 C215 C 0.57985 0.72730 0.61993
 C216 C 0.57241 0.70088 0.61685
 C217 C 0.51624 0.76973 0.61980
 C218 C 0.48990 0.76650 0.61709
 C219 C 0.48222 0.74012 0.61308
 C220 C 0.50091 0.71726 0.61235
 C221 C 0.45591 0.73706 0.60982
 C222 C 0.43736 0.75987 0.61059
 C223 C 0.44475 0.78611 0.61493
 C224 C 0.47110 0.78927 0.61819
 H225 H 0.54004 0.67740 0.61181
 H226 H 0.56756 0.77020 0.62364
 H227 H 0.60004 0.73035 0.62195
 H228 H 0.52217 0.78998 0.62266
 H229 H 0.49498 0.69702 0.60946
 H230 H 0.44967 0.71701 0.60670
 H231 H 0.41716 0.75696 0.60828
 H232 H 0.47693 0.80950 0.62121
 C233 C 1.02259 0.79986 0.36853
 C234 C 1.00533 0.78020 0.37158
 C235 C 1.00225 0.76866 0.39658
 C236 C 1.01676 0.77675 0.41804
 C237 C 1.03435 0.79587 0.41479
 C238 C 1.03755 0.80779 0.39001
 C239 C 0.98498 0.74902 0.39966
 C240 C 0.97119 0.74029 0.37792
 C241 C 0.97465 0.75149 0.35282
 C242 C 0.99144 0.77160 0.34986
 C243 C 0.96146 0.74216 0.33101
 C244 C 0.94514 0.72176 0.33398
 C245 C 0.94137 0.71068 0.35882
 C246 C 0.95431 0.72020 0.38078
 H247 H 1.02472 0.80824 0.34915
 H248 H 1.01468 0.76809 0.43736
 H249 H 1.04513 0.80144 0.43193
 H250 H 0.98254 0.74025 0.41889
 H251 H 0.99397 0.78025 0.33061
 H252 H 0.96392 0.75048 0.31163
 H253 H 0.93517 0.71480 0.31688
 H254 H 0.95168 0.71144 0.39994
 C255 C 0.45351 0.22152 -0.11939
 C256 C 0.47119 0.24086 -0.12193
 C257 C 0.48022 0.24685 -0.14680
 C258 C 0.47141 0.23341 -0.16868
 C259 C 0.45395 0.21408 -0.16596
 C260 C 0.44483 0.20787 -0.14134
 C261 C 0.49800 0.26603 -0.14940
 C262 C 0.50703 0.27918 -0.12740
 C263 C 0.49806 0.27315 -0.10250
 C264 C 0.48013 0.25411 -0.09993
 C265 C 0.50730 0.28617 -0.08055
 C266 C 0.52536 0.30488 -0.08317
 C267 C 0.53445 0.31105 -0.10781
 C268 C 0.52507 0.29812 -0.12988
 H269 H 0.44691 0.21682 -0.10023
 H270 H 0.47808 0.23779 -0.18790
 H271 H 0.44746 0.20416 -0.18327
 H272 H 0.50492 0.27059 -0.16850
 H273 H 0.47327 0.24949 -0.08082
 H274 H 0.50059 0.28184 -0.06133
 H275 H 0.53202 0.31478 -0.06593
 H276 H 0.53220 0.30239 -0.14892
 C277 C 0.14024 -0.02644 0.26888
 C278 C 0.13857 -0.00426 0.25089
 C279 C 0.11410 0.00903 0.24241
 C280 C 0.09174 -0.00031 0.25183
 C281 C 0.09356 -0.02235 0.26978
 C282 C 0.11779 -0.03553 0.27868
 C283 C 0.11237 0.03158 0.22487
 C284 C 0.13483 0.04110 0.21580
 C285 C 0.15930 0.02761 0.22406
 C286 C 0.16102 0.00498 0.24149
 C287 C 0.18169 0.03715 0.21493
 C288 C 0.17991 0.06006 0.19804
 C289 C 0.15572 0.07390 0.18992
 C290 C 0.13322 0.06410 0.19879
 H291 H 0.15907 -0.03650 0.27522
 H292 H 0.07281 0.00962 0.24553
 H293 H 0.07591 -0.02867 0.27697
 H294 H 0.09358 0.04187 0.21851
 H295 H 0.17981 -0.00524 0.24793
 H296 H 0.20060 0.02707 0.22107
 H297 H 0.19755 0.06734 0.19181
 H298 H 0.11445 0.07431 0.19239
 C299 C 0.62421 0.50410 -0.29164
 C300 C 0.62347 0.48553 -0.27052
 C301 C 0.64668 0.47134 -0.25973
 C302 C 0.67012 0.47524 -0.27077
 C303 C 0.67070 0.49338 -0.29204
 C304 C 0.64786 0.50849 -0.30256
 C305 C 0.64615 0.45358 -0.23800
 C306 C 0.62261 0.44952 -0.22712
 C307 C 0.59926 0.46295 -0.23845
 C308 C 0.59984 0.48102 -0.25997
 C309 C 0.57572 0.45821 -0.22792
 C310 C 0.57534 0.44066 -0.20612
 C311 C 0.59849 0.42792 -0.19427
 C312 C 0.62207 0.43231 -0.20499
 H313 H 0.60622 0.51485 -0.29954
 H314 H 0.68809 0.46437 -0.26285
 H315 H 0.68933 0.49595 -0.29962
 H316 H 0.66404 0.44301 -0.22951
 H317 H 0.58195 0.49163 -0.26841
 H318 H 0.55762 0.46820 -0.23642
 H319 H 0.55701 0.43758 -0.19803
 H320 H 0.63994 0.42218 -0.19611
 C321 C 0.37779 1.02417 0.77012
 C322 C 0.37544 1.00393 0.75148
 C323 C 0.35082 0.99606 0.74477
 C324 C 0.32904 1.00845 0.75684
 C325 C 0.33156 1.02838 0.77548
 C326 C 0.35589 1.03646 0.78235
 C327 C 0.34833 0.97591 0.72617
 C328 C 0.37017 0.96334 0.71426
 C329 C 0.39483 0.97100 0.72105
 C330 C 0.39732 0.99132 0.73956
 C331 C 0.41661 0.95814 0.70921
 C332 C 0.41397 0.93792 0.69081
 C333 C 0.38951 0.93028 0.68379
 C334 C 0.36769 0.94312 0.69569
 H335 H 0.39669 1.03000 0.77538
 H336 H 0.31003 1.00270 0.75189
 H337 H 0.31431 1.03765 0.78430
 H338 H 0.32942 0.96996 0.72102
 H339 H 0.41624 0.99723 0.74473
 H340 H 0.43567 0.96375 0.71415
 H341 H 0.43104 0.92855 0.68174
 H342 H 0.34879 0.93709 0.69078
 C343 C 0.86829 0.47776 0.22174
 C344 C 0.86734 0.49837 0.24035
 C345 C 0.84323 0.50976 0.24923
 C346 C 0.82048 0.50057 0.23905
 C347 C 0.82159 0.48030 0.22026
 C348 C 0.84546 0.46861 0.21154
 C349 C 0.84225 0.53021 0.26800
 C350 C 0.86506 0.53973 0.27769
 C351 C 0.88912 0.52862 0.26846
 C352 C 0.89012 0.50788 0.25003
 C353 C 0.91183 0.53858 0.27771
 C354 C 0.91073 0.55947 0.29582
 C355 C 0.88699 0.57051 0.30530
 C356 C 0.86419 0.56041 0.29626
 H357 H 0.88680 0.46920 0.21492
 H358 H 0.80183 0.50909 0.24559
 H359 H 0.80373 0.47349 0.21286
 H360 H 0.82376 0.53885 0.27490
 H361 H 0.90861 0.49929 0.24308
 H362 H 0.93042 0.53033 0.27083
 H363 H 0.92852 0.56681 0.30273
 H364 H 0.84579 0.56909 0.30327
 C365 C 0.28812 0.14681 -0.02395
 C366 C 0.27153 0.14547 -0.00315
 C367 C 0.25993 0.12120 0.00146
 C368 C 0.26469 0.09897 -0.01503
 C369 C 0.28064 0.10075 -0.03603
 C370 C 0.29255 0.12455 -0.04062
 C371 C 0.24352 0.11962 0.02226
 C372 C 0.23796 0.14222 0.03814
 C373 C 0.24901 0.16674 0.03325
 C374 C 0.26602 0.16809 0.01284
 C375 C 0.24260 0.18959 0.04870
 C376 C 0.22531 0.18816 0.06870
 C377 C 0.21462 0.16373 0.07392
 C378 C 0.22113 0.14080 0.05863
 H379 H 0.29704 0.16535 -0.02757
 H380 H 0.25589 0.08027 -0.01182
 H381 H 0.28395 0.08329 -0.04852
 H382 H 0.23478 0.10093 0.02585
 H383 H 0.27464 0.18683 0.00917
 H384 H 0.25077 0.20860 0.04517
 H385 H 0.22048 0.20600 0.08036
 H386 H 0.21254 0.12206 0.06231
 C387 C 0.75017 0.62362 0.52850
 C388 C 0.76772 0.62264 0.50842
 C389 C 0.77782 0.59701 0.49883
 C390 C 0.77034 0.57282 0.50964
 C391 C 0.75290 0.57397 0.52967
 C392 C 0.74253 0.59934 0.53924
 C393 C 0.79517 0.59598 0.47857
 C394 C 0.80261 0.62027 0.46782
 C395 C 0.79266 0.64589 0.47758
 C396 C 0.77526 0.64692 0.49777
 C397 C 0.80026 0.67011 0.46694
 C398 C 0.81754 0.66901 0.44679
 C399 C 0.82748 0.64369 0.43681
 C400 C 0.81988 0.61936 0.44747
 H401 H 0.74265 0.64335 0.53581
 H402 H 0.77788 0.55299 0.50254
 H403 H 0.74729 0.55492 0.53735
 H404 H 0.80285 0.57630 0.47117
 H405 H 0.76758 0.66660 0.50517
 H406 H 0.79279 0.68992 0.47414
 H407 H 0.82283 0.68804 0.43872
 H408 H 0.82768 0.59972 0.44018
 C409 C 0.74185 0.37630 0.04978
 C410 C 0.72306 0.37275 0.03018
 C411 C 0.71527 0.34643 0.02618
 C412 C 0.72646 0.32413 0.04192
 C413 C 0.74542 0.32779 0.06119
 C414 C 0.75334 0.35386 0.06528
 C415 C 0.69669 0.34280 0.00635
 C416 C 0.68611 0.36510 -0.00978
 C417 C 0.69405 0.39138 -0.00581
 C418 C 0.71230 0.39507 0.01425
 C419 C 0.68380 0.41354 -0.02215
 C420 C 0.66605 0.40971 -0.04246
 C421 C 0.65802 0.38373 -0.04669
 C422 C 0.66799 0.36151 -0.03009
 H423 H 0.74797 0.39646 0.05241
 H424 H 0.72072 0.30381 0.03917
 H425 H 0.75380 0.31019 0.07296
 H426 H 0.69073 0.32261 0.00327
 H427 H 0.71837 0.41524 0.01724
 H428 H 0.68963 0.43381 -0.01934
 H429 H 0.65837 0.42719 -0.05476
 H430 H 0.66211 0.34134 -0.03338
 C431 C 0.21650 0.87200 0.47286
 C432 C 0.23858 0.86916 0.48972
 C433 C 0.26309 0.86134 0.47964
 C434 C 0.26513 0.85692 0.45285
 C435 C 0.24313 0.86034 0.43614
 C436 C 0.21865 0.86777 0.44597
 C437 C 0.28519 0.85828 0.49642
 C438 C 0.28318 0.86353 0.52308
 C439 C 0.25875 0.87190 0.53310
 C440 C 0.23657 0.87437 0.51641
 C441 C 0.25696 0.87791 0.55963
 C442 C 0.27917 0.87580 0.57605
 C443 C 0.30345 0.86717 0.56635
 C444 C 0.30530 0.86091 0.53985
 H445 H 0.19773 0.87808 0.48057
 H446 H 0.28376 0.85098 0.44478
 H447 H 0.24525 0.85677 0.41553
 H448 H 0.30395 0.85212 0.48869
 H449 H 0.21782 0.88064 0.52412
 H450 H 0.23842 0.88443 0.56763
 H451 H 0.27739 0.88057 0.59646
 H452 H 0.32406 0.85465 0.53221
   
