data_POSCAR
  _audit_creation_date              2014-09-24
  _audit_creation_method            'ToBaCCo'
  _symmetry_space_group_name_H-M    'P1'
  _symmetry_Int_Tables_number       1
  _symmetry_cell_setting            triclinic
  loop_
  _symmetry_equiv_pos_as_xyz
 x,y,z
_cell_length_a 26.4666
_cell_length_b 26.5891
_cell_length_c 43.9258
_cell_angle_alpha 86.883100
_cell_angle_beta 89.882300
_cell_angle_gamma 91.426700
loop_
  _atom_site_label
  _atom_site_type_symbol
  _atom_site_fract_x
  _atom_site_fract_y
  _atom_site_fract_z
O1 O -0.05246 0.54839 0.97305
 O2 O -0.05146 0.44440 1.03181
 O3 O -0.05130 0.54208 1.03247
 O4 O -0.05324 0.45025 0.97280
 O5 O 0.03010 0.45189 0.97181
 O6 O 0.03206 0.54457 1.03125
 O7 O 0.03180 0.44628 1.03108
 O8 O 0.03087 0.54996 0.97194
 Cu9 Cu -0.06045 0.49622 1.00259
 Cu10 Cu 0.03957 0.49840 1.00144
 C11 C -0.01098 0.56707 0.96244
 C12 C -0.00971 0.42716 1.04144
 C13 C -0.00935 0.55916 1.04204
 C14 C -0.01196 0.43492 0.96229
 O15 O 0.55183 -0.02807 0.53449
 O16 O 0.45237 -0.03709 0.47623
 O17 O 0.55096 -0.04001 0.47593
 O18 O 0.45370 -0.02683 0.53469
 O19 O 0.45663 0.05566 0.52592
 O20 O 0.55572 0.04262 0.46801
 O21 O 0.45760 0.04532 0.46718
 O22 O 0.55553 0.05437 0.52598
 Cu23 Cu 0.50184 -0.04127 0.50615
 Cu24 Cu 0.50660 0.05778 0.49598
 C25 C 0.57102 0.01476 0.54013
 C26 C 0.43806 0.00267 0.46171
 C27 C 0.57039 -0.00095 0.46213
 C28 C 0.43823 0.01655 0.54025
 C29 C 0.10917 -0.01631 0.26351
 H30 H 0.11248 -0.01248 0.23894
 C31 C 0.15252 -0.01410 0.28153
 H32 H 0.18924 -0.00893 0.27073
 C33 C 0.05730 -0.02703 0.30754
 H34 H 0.02020 -0.03118 0.31772
 C35 C 0.09967 -0.02588 0.32637
 H36 H 0.09473 -0.02920 0.35089
 N37 N 0.06266 -0.02264 0.27668
 C38 C -0.04080 -0.09555 0.21469
 H39 H -0.07394 -0.07333 0.21757
 C40 C -0.04358 -0.13715 0.19667
 H41 H -0.07858 -0.14538 0.18503
 C42 C 0.04466 -0.11175 0.22659
 H43 H 0.07889 -0.10216 0.23847
 C44 C 0.04345 -0.15396 0.20896
 H45 H 0.07687 -0.17642 0.20771
 Zn46 Zn 0.00447 -0.02399 0.25131
 N47 N 0.00319 -0.08285 0.22861
 C48 C -0.02872 0.03695 0.20095
 N49 N 0.00500 0.03456 0.22429
 C50 C 0.03696 0.07418 0.22929
 C51 C 0.03595 0.11807 0.21030
 C52 C -0.03113 0.08009 0.18154
 C53 C -0.06692 -0.06621 0.29377
 C54 C -0.10927 -0.06663 0.31285
 C55 C -0.12702 0.01764 0.29310
 C56 C -0.08408 0.01667 0.27471
 N57 N -0.05474 -0.02463 0.27558
 H58 H -0.05437 0.00568 0.19751
 H59 H 0.06249 0.07238 0.24844
 H60 H 0.06106 0.14949 0.21494
 H61 H -0.05809 0.08100 0.16302
 H62 H -0.04302 -0.09864 0.29391
 H63 H -0.11726 -0.09944 0.32792
 H64 H -0.14995 0.05083 0.29182
 H65 H -0.07392 0.04926 0.26001
 C66 C -0.00091 -0.16678 0.19333
 C67 C 0.14795 -0.01915 0.31338
 C68 C -0.13978 -0.02408 0.31289
 C69 C 0.00132 0.12148 0.18616
 C70 C -0.04047 0.10639 0.77459
 H71 H -0.07052 0.09973 0.75865
 C72 C -0.04354 0.14695 0.79335
 H73 H -0.07595 0.17096 0.79144
 C74 C 0.03892 0.08491 0.79555
 H75 H 0.07186 0.06184 0.79570
 C76 C 0.03729 0.12489 0.81483
 H77 H 0.06824 0.13063 0.83043
 N78 N -0.00001 0.07574 0.77625
 C79 C 0.07230 -0.01680 0.71066
 H80 H 0.04700 -0.04944 0.71214
 C81 C 0.11474 -0.01624 0.69175
 H82 H 0.12151 -0.04857 0.67849
 C83 C 0.09257 0.06577 0.72529
 H84 H 0.08329 0.09794 0.73802
 C85 C 0.13561 0.06786 0.70673
 H86 H 0.15970 0.10142 0.70592
 Zn87 Zn 0.00232 0.01996 0.75069
 N88 N 0.06201 0.02381 0.72690
 C89 C -0.04720 0.03400 0.69392
 N90 N -0.05441 0.02180 0.72414
 C91 C -0.10160 0.01195 0.73574
 C92 C -0.14360 0.01239 0.71656
 C93 C -0.08830 0.03601 0.67405
 C94 C 0.03666 -0.04934 0.79707
 C95 C 0.03577 -0.09345 0.81585
 C96 C -0.03518 -0.12402 0.78718
 C97 C -0.03294 -0.07930 0.76896
 N98 N 0.00168 -0.04226 0.77468
 H99 H -0.00960 0.04262 0.68519
 H100 H -0.10650 0.00335 0.75994
 H101 H -0.18088 0.00394 0.72600
 H102 H -0.08206 0.04564 0.65004
 H103 H 0.06530 -0.02082 0.80059
 H104 H 0.06297 -0.09741 0.83415
 H105 H -0.06319 -0.15282 0.78229
 H106 H -0.05876 -0.07464 0.75012
 C107 C 0.14711 0.02653 0.68955
 C108 C -0.00453 0.15641 0.81405
 C109 C -0.00099 -0.13123 0.81131
 C110 C -0.13705 0.02463 0.68535
 C111 C -0.00921 -0.32963 0.10995
 C112 C 0.03519 -0.33796 0.09309
 C113 C 0.03522 -0.37502 0.07149
 C114 C -0.00887 -0.40332 0.06573
 C115 C -0.05293 -0.39466 0.08224
 C116 C -0.05316 -0.35853 0.10413
 C117 C -0.00774 -0.28941 0.13264
 C118 C -0.04921 -0.27940 0.15135
 C119 C -0.04654 -0.24037 0.17134
 C120 C -0.00257 -0.21009 0.17324
 C121 C 0.03942 -0.22068 0.15525
 C122 C 0.03728 -0.26012 0.13525
 C123 C 0.07898 -0.30857 0.09741
 C124 C 0.07983 -0.27015 0.11778
 H125 H 0.11294 -0.31482 0.08446
 H126 H 0.11443 -0.24797 0.11992
 H127 H 0.06936 -0.38099 0.05862
 H128 H -0.08749 -0.41593 0.07824
 H129 H -0.07909 -0.23402 0.18547
 H130 H 0.07355 -0.19747 0.15626
 H131 H -0.08830 -0.35343 0.11589
 H132 H -0.08405 -0.30124 0.15099
 C133 C -0.01020 0.30150 0.10537
 C134 C 0.03604 0.32396 0.09477
 C135 C 0.03606 0.36602 0.07395
 C136 C -0.00960 0.38642 0.06326
 C137 C -0.05536 0.36445 0.07438
 C138 C -0.05573 0.32275 0.09508
 C139 C -0.00858 0.25572 0.12685
 C140 C -0.05248 0.22985 0.13806
 C141 C -0.04900 0.18670 0.15739
 C142 C -0.00178 0.16814 0.16619
 C143 C 0.04221 0.19397 0.15552
 C144 C 0.03916 0.23729 0.13586
 C145 C 0.08203 0.30407 0.10476
 C146 C 0.08356 0.26177 0.12491
 H147 H 0.11749 0.32134 0.09675
 H148 H 0.12013 0.24773 0.13181
 H149 H 0.07187 0.38242 0.06585
 H150 H -0.09135 0.37913 0.06688
 H151 H -0.08352 0.16791 0.16568
 H152 H 0.07889 0.17965 0.16195
 H153 H -0.09214 0.30767 0.10251
 H154 H -0.08990 0.24200 0.13211
 C155 C 0.31805 0.02872 0.60578
 C156 C 0.34271 -0.01746 0.60304
 C157 C 0.38214 -0.02088 0.58191
 C158 C 0.39800 0.02123 0.56335
 C159 C 0.37441 0.06729 0.56661
 C160 C 0.33494 0.07109 0.58749
 C161 C 0.27478 0.03015 0.62786
 C162 C 0.24630 0.07354 0.63148
 C163 C 0.20543 0.07243 0.65171
 C164 C 0.19190 0.02818 0.66899
 C165 C 0.22057 -0.01498 0.66589
 C166 C 0.26137 -0.01446 0.64540
 C167 C 0.32777 -0.06012 0.62126
 C168 C 0.28819 -0.05857 0.64210
 H169 H 0.34687 -0.09539 0.61929
 H170 H 0.27796 -0.09270 0.65555
 H171 H 0.40035 -0.05662 0.57983
 H172 H 0.38599 0.10044 0.55266
 H173 H 0.18361 0.10611 0.65327
 H174 H 0.21104 -0.04922 0.67942
 H175 H 0.31811 0.10742 0.58880
 H176 H 0.25438 0.10850 0.61859
 C177 C -0.30809 0.02536 0.60294
 C178 C -0.33490 -0.02089 0.60027
 C179 C -0.37485 -0.02428 0.57941
 C180 C -0.39002 0.01838 0.56169
 C181 C -0.36485 0.06477 0.56568
 C182 C -0.32437 0.06820 0.58582
 C183 C -0.26385 0.02672 0.62418
 C184 C -0.23128 0.06925 0.62592
 C185 C -0.19012 0.06836 0.64575
 C186 C -0.18087 0.02544 0.66460
 C187 C -0.21282 -0.01716 0.66304
 C188 C -0.25347 -0.01722 0.64254
 C189 C -0.32201 -0.06335 0.61864
 C190 C -0.28282 -0.06128 0.63974
 H191 H -0.34288 -0.09866 0.61689
 H192 H -0.27465 -0.09505 0.65361
 H193 H -0.39435 -0.06027 0.57723
 H194 H -0.37572 0.09864 0.55276
 H195 H -0.16555 0.10146 0.64656
 H196 H -0.20503 -0.05077 0.67719
 H197 H -0.30656 0.10481 0.58775
 H198 H -0.23638 0.10322 0.61182
 C199 C -0.01252 -0.30769 0.89569
 C200 C 0.03384 -0.32800 0.90584
 C201 C 0.03405 -0.36912 0.92731
 C202 C -0.01141 -0.39058 0.93908
 C203 C -0.05729 -0.37072 0.92874
 C204 C -0.05796 -0.32993 0.90735
 C205 C -0.01102 -0.26305 0.87323
 C206 C -0.05492 -0.23962 0.86199
 C207 C -0.05146 -0.19741 0.84170
 C208 C -0.00425 -0.17737 0.83196
 C209 C 0.03970 -0.20086 0.84268
 C210 C 0.03669 -0.24324 0.86319
 C211 C 0.07974 -0.30695 0.89473
 C212 C 0.08113 -0.26553 0.87386
 H213 H 0.11524 -0.32256 0.90243
 H214 H 0.11765 -0.25047 0.86612
 H215 H 0.06981 -0.38412 0.93505
 H216 H -0.09297 -0.38654 0.93735
 H217 H -0.08598 -0.17970 0.83411
 H218 H 0.07640 -0.18619 0.83498
 H219 H -0.09444 -0.31632 0.90045
 H220 H -0.09231 -0.25286 0.86878
 C221 C -0.01501 0.31919 0.89714
 C222 C 0.03104 0.34418 0.90413
 C223 C 0.03176 0.38222 0.92511
 C224 C -0.01299 0.39633 0.93921
 C225 C -0.05874 0.37239 0.93164
 C226 C -0.05985 0.33437 0.91095
 C227 C -0.01387 0.27756 0.87543
 C228 C -0.05717 0.24882 0.86808
 C229 C -0.05397 0.20990 0.84814
 C230 C -0.00766 0.19858 0.83483
 C231 C 0.03566 0.22718 0.84191
 C232 C 0.03299 0.26609 0.86220
 C233 C 0.07613 0.33099 0.89022
 C234 C 0.07702 0.29306 0.86954
 H235 H 0.11137 0.35030 0.89541
 H236 H 0.11291 0.28429 0.85943
 H237 H 0.06732 0.40071 0.93056
 H238 H -0.09390 0.38259 0.94206
 H239 H -0.08786 0.18794 0.84359
 H240 H 0.07159 0.21930 0.83153
 H241 H -0.09618 0.31735 0.90621
 H242 H -0.09376 0.25524 0.87774
 C243 C -0.30965 -0.01631 0.39692
 C244 C -0.31939 0.03109 0.40863
 C245 C -0.35917 0.03592 0.42936
 C246 C -0.38906 -0.00612 0.43934
 C247 C -0.37904 -0.05317 0.42801
 C248 C -0.34005 -0.05827 0.40699
 C249 C -0.26675 -0.01972 0.37477
 C250 C -0.25498 -0.06453 0.36084
 C251 C -0.21416 -0.06580 0.34069
 C252 C -0.18382 -0.02257 0.33392
 C253 C -0.19558 0.02231 0.34754
 C254 C -0.23682 0.02417 0.36752
 C255 C -0.28888 0.07327 0.40003
 C256 C -0.24821 0.06978 0.38016
 H257 H -0.29621 0.10951 0.40910
 H258 H -0.22544 0.10345 0.37448
 H259 H -0.36615 0.07238 0.43823
 H260 H -0.40147 -0.08625 0.43539
 H261 H -0.20671 -0.10071 0.33011
 H262 H -0.17215 0.05588 0.34293
 H263 H -0.33406 -0.09543 0.39921
 H264 H -0.27696 -0.09891 0.36500
 C265 C 0.31964 -0.00479 0.39479
 C266 C 0.32474 -0.04406 0.41760
 C267 C 0.36426 -0.04207 0.43883
 C268 C 0.39801 -0.00050 0.43844
 C269 C 0.39235 0.03878 0.41619
 C270 C 0.35395 0.03664 0.39453
 C271 C 0.27694 -0.00838 0.37255
 C272 C 0.27032 0.02705 0.34789
 C273 C 0.22899 0.02286 0.32839
 C274 C 0.19310 -0.01643 0.33310
 C275 C 0.19995 -0.05261 0.35707
 C276 C 0.24180 -0.04925 0.37652
 C277 C 0.28966 -0.08444 0.41958
 C278 C 0.24868 -0.08660 0.39976
 H279 H 0.29339 -0.11439 0.43711
 H280 H 0.22207 -0.11816 0.40261
 H281 H 0.36785 -0.07225 0.45625
 H282 H 0.41785 0.07134 0.41547
 H283 H 0.22442 0.05110 0.30996
 H284 H 0.17277 -0.08363 0.36042
 H285 H 0.35134 0.06815 0.37815
 H286 H 0.29653 0.05822 0.34323
   
