data_POSCAR
  _audit_creation_date              2014-09-24
  _audit_creation_method            'ToBaCCo'
  _symmetry_space_group_name_H-M    'P1'
  _symmetry_Int_Tables_number       1
  _symmetry_cell_setting            triclinic
  loop_
  _symmetry_equiv_pos_as_xyz
 x,y,z
_cell_length_a 59.8087
_cell_length_b 34.8187
_cell_length_c 20.9440
_cell_angle_alpha 89.981600
_cell_angle_beta 89.874800
_cell_angle_gamma 90.166200
loop_
  _atom_site_label
  _atom_site_type_symbol
  _atom_site_fract_x
  _atom_site_fract_y
  _atom_site_fract_z
C1 C 0.74971 0.25072 0.47144
 C2 C 0.74957 0.25089 0.53658
 C3 C 0.72996 0.26487 0.57349
 C4 C 0.76903 0.23712 0.57404
 C5 C 0.76802 0.23222 0.43461
 C6 C 0.73159 0.26909 0.43398
 C7 C 0.73281 0.29352 0.61995
 C8 C 0.71440 0.30764 0.65372
 C9 C 0.69295 0.29302 0.64178
 C10 C 0.69008 0.26379 0.59645
 C11 C 0.70850 0.24966 0.56275
 C12 C 0.79051 0.25238 0.56355
 C13 C 0.80882 0.23829 0.59759
 C14 C 0.80579 0.20914 0.64289
 C15 C 0.78435 0.19451 0.65468
 C16 C 0.76604 0.20854 0.62062
 C17 C 0.77383 0.19369 0.44563
 C18 C 0.79157 0.17699 0.41222
 C19 C 0.80351 0.19847 0.36698
 C20 C 0.79745 0.23657 0.35466
 C21 C 0.77973 0.25331 0.38809
 C22 C 0.72003 0.24779 0.38759
 C23 C 0.70244 0.26440 0.35366
 C24 C 0.69636 0.30256 0.36537
 C25 C 0.70816 0.32425 0.41044
 C26 C 0.72578 0.30768 0.44435
 H27 H 0.74924 0.30543 0.62917
 H28 H 0.71695 0.33019 0.68869
 H29 H 0.67363 0.25202 0.58677
 H30 H 0.70603 0.22702 0.52799
 H31 H 0.79310 0.27494 0.52869
 H32 H 0.82533 0.24992 0.58827
 H33 H 0.74959 0.19659 0.62965
 H34 H 0.76474 0.17671 0.48043
 H35 H 0.79606 0.14745 0.42194
 H36 H 0.80655 0.25342 0.31968
 H37 H 0.77542 0.28297 0.37864
 H38 H 0.72435 0.21808 0.37865
 H39 H 0.69343 0.24739 0.31881
 H40 H 0.70365 0.35384 0.41969
 H41 H 0.73476 0.32481 0.47906
 H42 H 0.78183 0.17199 0.68969
 C43 C 0.25008 0.75027 0.46689
 C44 C 0.25019 0.75024 0.53203
 C45 C 0.23210 0.76888 0.56949
 C46 C 0.26841 0.73162 0.56883
 C47 C 0.26953 0.73631 0.42936
 C48 C 0.23052 0.76430 0.43005
 C49 C 0.22642 0.80750 0.55880
 C50 C 0.20879 0.82429 0.59251
 C51 C 0.19683 0.80281 0.63770
 C52 C 0.20279 0.76464 0.64977
 C53 C 0.22041 0.74780 0.61604
 C54 C 0.28018 0.75267 0.61509
 C55 C 0.29787 0.73582 0.64833
 C56 C 0.30384 0.69766 0.63606
 C57 C 0.29182 0.67622 0.59111
 C58 C 0.27411 0.69303 0.55789
 C59 C 0.26649 0.70773 0.38286
 C60 C 0.28478 0.69361 0.34860
 C61 C 0.30624 0.70815 0.36008
 C62 C 0.30932 0.73727 0.40533
 C63 C 0.29104 0.75145 0.43957
 C64 C 0.20902 0.74926 0.44109
 C65 C 0.19066 0.76340 0.40731
 C66 C 0.19365 0.79240 0.36172
 C67 C 0.21510 0.80688 0.34949
 C68 C 0.23346 0.79279 0.38328
 H69 H 0.23551 0.82446 0.52396
 H70 H 0.20437 0.85389 0.58298
 H71 H 0.19367 0.74779 0.68470
 H72 H 0.22463 0.71807 0.62521
 H73 H 0.27596 0.78237 0.62447
 H74 H 0.30703 0.75264 0.68309
 H75 H 0.26497 0.67608 0.52328
 H76 H 0.25002 0.69587 0.37404
 H77 H 0.28221 0.67111 0.31363
 H78 H 0.32584 0.74883 0.41441
 H79 H 0.29366 0.77402 0.47435
 H80 H 0.20646 0.72675 0.47608
 H81 H 0.17415 0.75189 0.41697
 H82 H 0.21760 0.82927 0.31424
 H83 H 0.24991 0.80458 0.37381
 H84 H 0.29623 0.64663 0.58143
 C85 C 0.24981 0.24933 -0.46846
 C86 C 0.24992 0.24940 -0.53360
 C87 C 0.26823 0.26799 -0.57057
 C88 C 0.23176 0.23086 -0.57089
 C89 C 0.23019 0.23532 -0.43140
 C90 C 0.26931 0.26323 -0.43112
 C91 C 0.27410 0.30656 -0.55966
 C92 C 0.29188 0.32334 -0.59304
 C93 C 0.30383 0.30188 -0.63819
 C94 C 0.29769 0.26373 -0.65042
 C95 C 0.27992 0.24693 -0.61699
 C96 C 0.22018 0.25201 -0.61727
 C97 C 0.20249 0.23527 -0.65088
 C98 C 0.19634 0.19708 -0.63885
 C99 C 0.20820 0.17553 -0.59378
 C100 C 0.22590 0.19226 -0.56022
 C101 C 0.23302 0.20682 -0.38468
 C102 C 0.21462 0.19279 -0.35057
 C103 C 0.19321 0.20733 -0.36244
 C104 C 0.19034 0.23635 -0.40805
 C105 C 0.20875 0.25042 -0.44212
 C106 C 0.29076 0.24805 -0.44159
 C107 C 0.30908 0.26214 -0.40745
 C108 C 0.30611 0.29120 -0.36206
 C109 C 0.28470 0.30579 -0.35035
 C110 C 0.26637 0.29176 -0.38451
 H111 H 0.26502 0.32351 -0.52493
 H112 H 0.29637 0.35293 -0.58325
 H113 H 0.30675 0.24679 -0.68529
 H114 H 0.27556 0.21725 -0.62634
 H115 H 0.22454 0.28173 -0.62642
 H116 H 0.19349 0.25227 -0.68569
 H117 H 0.23491 0.17525 -0.52550
 H118 H 0.24943 0.19499 -0.37546
 H119 H 0.21710 0.17039 -0.31536
 H120 H 0.17390 0.24800 -0.41757
 H121 H 0.20629 0.27294 -0.47706
 H122 H 0.29330 0.22551 -0.47646
 H123 H 0.32556 0.25054 -0.41670
 H124 H 0.28222 0.32824 -0.31526
 H125 H 0.24995 0.30365 -0.37548
 H126 H 0.20370 0.14591 -0.58415
 C127 C -0.25025 0.74962 -0.53521
 C128 C -0.25020 0.74961 -0.47007
 C129 C -0.26838 0.73098 -0.43273
 C130 C -0.23195 0.76819 -0.43311
 C131 C -0.23074 0.76367 -0.57258
 C132 C -0.26981 0.73555 -0.57220
 C133 C -0.28001 0.75205 -0.38621
 C134 C -0.29766 0.73520 -0.35239
 C135 C -0.30374 0.69699 -0.36435
 C136 C -0.29185 0.67552 -0.40960
 C137 C -0.27418 0.69236 -0.44336
 C138 C -0.22611 0.80680 -0.44388
 C139 C -0.20842 0.82359 -0.41035
 C140 C -0.19655 0.80210 -0.36526
 C141 C -0.20264 0.76392 -0.35320
 C142 C -0.22031 0.74710 -0.38675
 C143 C -0.20928 0.74857 -0.56224
 C144 C -0.19092 0.76289 -0.59620
 C145 C -0.19386 0.79213 -0.64135
 C146 C -0.21530 0.80661 -0.65298
 C147 C -0.23366 0.79233 -0.61897
 C148 C -0.26690 0.70705 -0.61888
 C149 C -0.28526 0.69285 -0.65274
 C150 C -0.30671 0.70724 -0.64066
 C151 C -0.30965 0.73629 -0.59514
 C152 C -0.29129 0.75052 -0.56133
 H153 H -0.27569 0.78178 -0.37708
 H154 H -0.30669 0.75214 -0.31744
 H155 H -0.29630 0.64589 -0.41917
 H156 H -0.26514 0.67541 -0.47818
 H157 H -0.23515 0.82379 -0.47856
 H158 H -0.20391 0.85320 -0.41988
 H159 H -0.22464 0.71738 -0.37750
 H160 H -0.20675 0.72594 -0.52753
 H161 H -0.17444 0.75130 -0.58688
 H162 H -0.21784 0.82919 -0.68785
 H163 H -0.25009 0.80415 -0.62788
 H164 H -0.25046 0.69532 -0.62821
 H165 H -0.28272 0.67043 -0.68789
 H166 H -0.32613 0.74781 -0.58547
 H167 H -0.29381 0.77303 -0.52640
 H168 H -0.19360 0.74706 -0.31834
 N169 N 0.02358 1.06994 -0.06460
 N170 N 0.04023 1.09448 -0.07267
 N171 N -0.02351 1.04413 -0.10996
 N172 N -0.04014 1.05026 -0.14996
 N173 N -0.02346 1.06998 -0.06428
 N174 N -0.04007 1.09444 -0.07191
 N175 N 0.02351 1.04409 -0.11027
 N176 N 0.04010 1.05029 -0.15069
 C177 C 0.05034 1.08169 -0.12641
 C178 C -0.05027 1.08163 -0.12541
 N179 N -0.02375 0.93389 -0.07140
 N180 N -0.04072 0.91022 -0.08087
 N181 N 0.02337 0.96140 -0.11452
 N182 N 0.04036 0.95737 -0.15430
 N183 N 0.02332 0.93387 -0.07163
 N184 N 0.04028 0.91032 -0.08100
 N185 N -0.02369 0.96144 -0.11427
 N186 N -0.04059 0.95729 -0.15413
 Mn187 Mn -0.00008 1.00276 -0.11299
 C188 C -0.05099 0.92528 -0.13256
 C189 C 0.05066 0.92542 -0.13267
 N190 N -0.02350 1.06731 0.07323
 N191 N -0.04040 1.09096 0.08280
 N192 N 0.02351 1.03972 0.11582
 N193 N 0.04049 1.04374 0.15545
 N194 N 0.02358 1.06725 0.07293
 N195 N 0.04062 1.09079 0.08215
 N196 N -0.02355 1.03976 0.11610
 N197 N -0.04048 1.04388 0.15606
 Mn198 Mn 0.00005 1.06908 0.00437
 C199 C -0.05075 1.07589 0.13456
 C200 C 0.05092 1.07568 0.13372
 N201 N 0.02330 0.93118 0.06589
 N202 N 0.03987 0.90666 0.07369
 N203 N -0.02369 0.95707 0.11179
 N204 N -0.04035 0.95094 0.15202
 N205 N -0.02374 0.93122 0.06611
 N206 N -0.04044 0.90677 0.07396
 N207 N 0.02333 0.95703 0.11155
 N208 N 0.03991 0.95084 0.15171
 Mn209 Mn -0.00022 0.93208 -0.00281
 Mn210 Mn -0.00010 0.99839 0.11455
 Cl211 Cl -0.00009 1.00058 0.00078
 C212 C 0.05004 0.91944 0.12727
 C213 C -0.05059 0.91958 0.12758
 N214 N 0.52394 0.56615 -0.07292
 N215 N 0.54094 0.58978 -0.08232
 N216 N 0.47687 0.53860 -0.11589
 N217 N 0.45996 0.54268 -0.15573
 N218 N 0.47687 0.56613 -0.07303
 N219 N 0.45995 0.58973 -0.08247
 N220 N 0.52393 0.53863 -0.11580
 N221 N 0.54092 0.54275 -0.15560
 C222 C 0.55129 0.57473 -0.13399
 C223 C 0.44964 0.57466 -0.13416
 N224 N 0.47669 0.43004 -0.06591
 N225 N 0.46003 0.40554 -0.07375
 N226 N 0.52380 0.45595 -0.11150
 N227 N 0.54045 0.44981 -0.15169
 N228 N 0.52374 0.43008 -0.06582
 N229 N 0.54035 0.40560 -0.07364
 N230 N 0.47678 0.45590 -0.11158
 N231 N 0.46020 0.44975 -0.15180
 Mn232 Mn 0.50035 0.49727 -0.11443
 C233 C 0.44995 0.41835 -0.12737
 C234 C 0.55057 0.41843 -0.12725
 N235 N 0.47675 0.56876 0.06448
 N236 N 0.46015 0.59325 0.07225
 N237 N 0.52369 0.54293 0.11029
 N238 N 0.54025 0.54912 0.15059
 N239 N 0.52380 0.56879 0.06461
 N240 N 0.54045 0.59332 0.07254
 N241 N 0.47667 0.54290 0.11015
 N242 N 0.46002 0.54904 0.15030
 Mn243 Mn 0.50034 0.56792 -0.00426
 C244 C 0.44992 0.58043 0.12582
 C245 C 0.55051 0.58053 0.12622
 N246 N 0.52360 0.43272 0.07171
 N247 N 0.54053 0.40915 0.08115
 N248 N 0.47652 0.46020 0.11447
 N249 N 0.45953 0.45607 0.15427
 N250 N 0.47652 0.43267 0.07160
 N251 N 0.45953 0.40902 0.08102
 N252 N 0.52358 0.46025 0.11459
 N253 N 0.54048 0.45619 0.15442
 Mn254 Mn 0.50014 0.43092 0.00294
 Mn255 Mn 0.50011 0.50157 0.11311
 Cl256 Cl 0.50024 0.49942 -0.00066
 C257 C 0.55082 0.42425 0.13283
 C258 C 0.44917 0.42407 0.13268
 C259 C 0.35672 0.34813 0.27264
 N260 N 0.36317 0.38467 0.28562
 N261 N 0.38120 0.39966 0.25744
 C262 C 0.39332 0.37855 0.21545
 N263 N 0.38685 0.34202 0.20243
 N264 N 0.36883 0.32703 0.23061
 C265 C 0.33758 0.33174 0.30398
 C266 C 0.32165 0.31781 0.33085
 C267 C 0.41292 0.39452 0.18586
 C268 C 0.42945 0.40796 0.16139
 C269 C -0.14098 0.83701 0.26777
 N270 N -0.14346 0.86817 0.22960
 N271 N -0.12576 0.88403 0.20107
 C272 C -0.10505 0.86921 0.20989
 N273 N -0.10257 0.83803 0.24802
 N274 N -0.12027 0.82217 0.27655
 C275 C -0.15995 0.82051 0.29969
 C276 C -0.17588 0.80700 0.32709
 C277 C -0.08593 0.88676 0.18028
 C278 C -0.06983 0.90167 0.15594
 C279 C 0.64050 0.66283 0.26794
 N280 N 0.64322 0.63312 0.22680
 N281 N 0.62560 0.61740 0.19792
 C282 C 0.60472 0.63090 0.20931
 N283 N 0.60200 0.66063 0.25041
 N284 N 0.61962 0.67636 0.27929
 C285 C 0.65942 0.67917 0.30016
 C286 C 0.67532 0.69254 0.32771
 C287 C 0.58569 0.61342 0.17933
 C288 C 0.56966 0.59851 0.15474
 C289 C 0.14352 1.15109 0.27220
 N290 N 0.13104 1.17263 0.23185
 N291 N 0.11298 1.15773 0.20393
 C292 C 0.10687 1.12085 0.21556
 N293 N 0.11936 1.09929 0.25586
 N294 N 0.13741 1.11419 0.28378
 C295 C 0.16265 1.16739 0.30337
 C296 C 0.17856 1.18124 0.33018
 C297 C 0.08723 1.10498 0.18632
 C298 C 0.07068 1.09164 0.16214
 C299 C 0.64075 0.33656 -0.26836
 N300 N 0.64340 0.36649 -0.22763
 N301 N 0.62574 0.38212 -0.19885
 C302 C 0.60489 0.36829 -0.20994
 N303 N 0.60223 0.33833 -0.25064
 N304 N 0.61990 0.32270 -0.27941
 C305 C 0.65971 0.32033 -0.30048
 C306 C 0.67566 0.30705 -0.32797
 C307 C 0.58581 0.38568 -0.18010
 C308 C 0.56975 0.40051 -0.15563
 C309 C 0.14311 0.84988 -0.27147
 N310 N 0.13069 0.82855 -0.23032
 N311 N 0.11267 0.84349 -0.20237
 C312 C 0.10651 0.88020 -0.21478
 N313 N 0.11894 0.90154 -0.25589
 N314 N 0.13697 0.88660 -0.28384
 C315 C 0.16222 0.83352 -0.30266
 C316 C 0.17810 0.81962 -0.32948
 C317 C 0.08691 0.89610 -0.18548
 C318 C 0.07038 0.90946 -0.16122
 C319 C 0.35753 0.65047 -0.27361
 N320 N 0.36414 0.61420 -0.28762
 N321 N 0.38210 0.59922 -0.25959
 C322 C 0.39401 0.62007 -0.21674
 N323 N 0.38740 0.65633 -0.20270
 N324 N 0.36943 0.67131 -0.23072
 C325 C 0.33845 0.66687 -0.30474
 C326 C 0.32258 0.68080 -0.33141
 C327 C 0.41354 0.60412 -0.18727
 C328 C 0.43000 0.59070 -0.16286
 C329 C -0.14044 1.16391 -0.26464
 N330 N -0.14304 1.13319 -0.22547
 N331 N -0.12538 1.11742 -0.19708
 C332 C -0.10459 1.13189 -0.20705
 N333 N -0.10199 1.16264 -0.24618
 N334 N -0.11964 1.17840 -0.27456
 C335 C -0.15937 1.18027 -0.29644
 C336 C -0.17526 1.19365 -0.32377
 C337 C -0.08552 1.11441 -0.17764
 C338 C -0.06946 1.09953 -0.15350
 C339 C 0.64361 0.65068 -0.27433
 N340 N 0.63105 0.67223 -0.23405
 N341 N 0.61306 0.65723 -0.20571
 C342 C 0.60708 0.62023 -0.21684
 N343 N 0.61965 0.59867 -0.25708
 N344 N 0.63764 0.61367 -0.28542
 C345 C 0.66268 0.66708 -0.30593
 C346 C 0.67854 0.68103 -0.33307
 C347 C 0.58751 0.60426 -0.18719
 C348 C 0.57100 0.59082 -0.16270
 C349 C 0.14035 1.16354 -0.26986
 N350 N 0.14311 1.13461 -0.22724
 N351 N 0.12548 1.11904 -0.19792
 C352 C 0.10456 1.13193 -0.21035
 N353 N 0.10180 1.16089 -0.25293
 N354 N 0.11943 1.17645 -0.28224
 C355 C 0.15929 1.17966 -0.30254
 C356 C 0.17521 1.19285 -0.33046
 C357 C 0.08553 1.11455 -0.17998
 C358 C 0.06949 1.09968 -0.15514
 C359 C 0.35987 0.33619 -0.26855
 N360 N 0.35723 0.36647 -0.22854
 N361 N 0.37487 0.38217 -0.19971
 C362 C 0.39567 0.36807 -0.21006
 N363 N 0.39831 0.33777 -0.25002
 N364 N 0.38067 0.32207 -0.27885
 C365 C 0.34095 0.31992 -0.30079
 C366 C 0.32506 0.30661 -0.32843
 C367 C 0.41472 0.38552 -0.18022
 C368 C 0.43078 0.40041 -0.15576
 C369 C -0.14297 0.84928 -0.27364
 N370 N -0.13663 0.88597 -0.28597
 N371 N -0.11871 0.90096 -0.25752
 C372 C -0.10657 0.87970 -0.21589
 N373 N -0.11292 0.84301 -0.20352
 N374 N -0.13085 0.82803 -0.23198
 C375 C -0.16200 0.83289 -0.30525
 C376 C -0.17784 0.81896 -0.33231
 C377 C -0.08707 0.89567 -0.18605
 C378 C -0.07062 0.90913 -0.16141
 C379 C 0.35990 0.66284 0.26661
 N380 N 0.35726 0.63199 0.22780
 N381 N 0.37489 0.61621 0.19906
 C382 C 0.39568 0.63080 0.20828
 N383 N 0.39831 0.66167 0.24705
 N384 N 0.38069 0.67745 0.27579
 C385 C 0.34101 0.67921 0.29879
 C386 C 0.32515 0.69262 0.32642
 C387 C 0.41471 0.61329 0.17854
 C388 C 0.43075 0.59838 0.15415
 C389 C -0.14280 1.15156 0.27560
 N390 N -0.13038 1.17303 0.23463
 N391 N -0.11243 1.15812 0.20622
 C392 C -0.10635 1.12129 0.21795
 N393 N -0.11878 1.09982 0.25888
 N394 N -0.13673 1.11473 0.28728
 C395 C -0.16187 1.16786 0.30714
 C396 C -0.17774 1.18170 0.33413
 C397 C -0.08684 1.10539 0.18812
 C398 C -0.07039 1.09198 0.16347
 C399 C 0.64285 0.34905 0.27331
 N400 N 0.62972 0.32682 0.23559
 N401 N 0.61178 0.34164 0.20721
 C402 C 0.60644 0.37912 0.21572
 N403 N 0.61958 0.40135 0.25340
 N404 N 0.63752 0.38654 0.28179
 C405 C 0.66188 0.33289 0.30499
 C406 C 0.67770 0.31917 0.33218
 C407 C 0.58692 0.39493 0.18605
 C408 C 0.57046 0.40825 0.16155
 C409 C 0.13991 0.83737 0.26859
 N410 N 0.14266 0.86720 0.22763
 N411 N 0.12506 0.88285 0.19879
 C412 C 0.10417 0.86915 0.21003
 N413 N 0.10141 0.83930 0.25094
 N414 N 0.11902 0.82364 0.27979
 C415 C 0.15880 0.82111 0.30078
 C416 C 0.17468 0.80781 0.32831
 C417 C 0.08517 0.88658 0.18013
 C418 C 0.06916 0.90146 0.15565
   
