data_POSCAR
  _audit_creation_date              2014-09-24
  _audit_creation_method            'ToBaCCo'
  _symmetry_space_group_name_H-M    'P1'
  _symmetry_Int_Tables_number       1
  _symmetry_cell_setting            triclinic
  loop_
  _symmetry_equiv_pos_as_xyz
 x,y,z
_cell_length_a 32.9657
_cell_length_b 32.8144
_cell_length_c 32.6641
_cell_angle_alpha 90.076500
_cell_angle_beta 89.977300
_cell_angle_gamma 89.989800
loop_
  _atom_site_label
  _atom_site_type_symbol
  _atom_site_fract_x
  _atom_site_fract_y
  _atom_site_fract_z
C1 C 0.28348 0.33695 0.02065
 C2 C 0.28478 0.33929 -0.02298
 C3 C 0.31185 0.31291 -0.04376
 C4 C 0.33794 0.28540 -0.02326
 C5 C 0.33577 0.28393 0.02037
 C6 C 0.30888 0.30962 0.04114
 H7 H 0.30810 0.30871 0.07437
 H8 H 0.31293 0.31407 -0.07685
 C9 C 0.71651 0.66425 0.02079
 C10 C 0.71592 0.66370 -0.02262
 C11 C 0.68878 0.68950 -0.04337
 C12 C 0.66184 0.71599 -0.02259
 C13 C 0.66354 0.71660 0.02117
 C14 C 0.69045 0.69068 0.04171
 H15 H 0.69077 0.69075 0.07495
 H16 H 0.68864 0.68831 -0.07652
 C17 C 0.71646 0.33595 0.97932
 C18 C 0.71565 0.33767 1.02308
 C19 C 0.68886 0.31097 1.04370
 C20 C 0.66288 0.28407 1.02279
 C21 C 0.66367 0.28343 0.97938
 C22 C 0.69041 0.30924 0.95862
 H23 H 0.69058 0.30891 0.92538
 H24 H 0.68758 0.31114 1.07685
 C25 C 0.28368 0.66432 0.97880
 C26 C 0.28502 0.66199 1.02242
 C27 C 0.31241 0.68808 1.04313
 C28 C 0.33873 0.71532 1.02256
 C29 C 0.33652 0.71675 0.97894
 C30 C 0.30934 0.69134 0.95825
 H31 H 0.30853 0.69223 0.92502
 H32 H 0.31351 0.68692 1.07622
 C33 C 0.02149 0.28206 0.33460
 C34 C -0.02160 0.28178 0.33445
 C35 C -0.04225 0.30826 0.30785
 C36 C -0.02158 0.33497 0.28150
 C37 C 0.02150 0.33511 0.28180
 C38 C 0.04213 0.30870 0.30831
 H39 H 0.07504 0.30928 0.30890
 H40 H -0.07516 0.30845 0.30805
 C41 C 0.01963 0.71642 0.66367
 C42 C -0.02360 0.71512 0.66144
 C43 C -0.04409 0.68773 0.68775
 C44 C -0.02368 0.66128 0.71505
 C45 C 0.01955 0.66344 0.71643
 C46 C 0.04002 0.69068 0.69084
 H47 H 0.07295 0.69146 0.69167
 H48 H -0.07688 0.68670 0.68667
 C49 C 0.97888 0.71929 0.33302
 C50 C 1.02188 0.71887 0.33386
 C51 C 1.04273 0.69196 0.30773
 C52 C 1.02248 0.66488 0.28089
 C53 C 0.97913 0.66625 0.28011
 C54 C 0.95847 0.69317 0.30614
 H55 H 0.92553 0.69323 0.30600
 H56 H 1.07558 0.69204 0.30900
 C57 C 0.97974 0.28004 0.66641
 C58 C 1.02309 0.28078 0.66498
 C59 C 1.04339 0.30764 0.69200
 C60 C 1.02256 0.33382 0.71889
 C61 C 0.97956 0.33306 0.71931
 C62 C 0.95912 0.30613 0.69329
 H63 H 0.92618 0.30602 0.69337
 H64 H 1.07624 0.30890 0.69204
 C65 C 0.33521 0.01998 0.28255
 C66 C 0.33730 -0.02344 0.28397
 C67 C 0.31110 -0.04386 0.31150
 C68 C 0.28399 -0.02318 0.33798
 C69 C 0.28273 0.02024 0.33565
 C70 C 0.30821 0.04064 0.30826
 H71 H 0.30747 0.07372 0.30740
 H72 H 0.31212 -0.07680 0.31263
 C73 C 0.66606 0.02173 0.71936
 C74 C 0.66601 -0.02156 0.71958
 C75 C 0.69259 -0.04242 0.69321
 C76 C 0.71908 -0.02176 0.66664
 C77 C 0.71902 0.02153 0.66667
 C78 C 0.69256 0.04236 0.69299
 H79 H 0.69211 0.07542 0.69245
 H80 H 0.69226 -0.07547 0.69295
 C81 C 0.33639 0.97942 0.71713
 C82 C 0.33836 1.02286 0.71566
 C83 C 0.31192 1.04318 0.68833
 C84 C 0.28461 1.02243 0.66215
 C85 C 0.28342 0.97901 0.66455
 C86 C 0.30923 0.95868 0.69167
 H87 H 0.30860 0.92560 0.69256
 H88 H 0.31285 1.07612 0.68718
 C89 C 0.66349 0.97967 0.28348
 C90 C 0.66272 1.02287 0.28401
 C91 C 0.68882 1.04374 0.31087
 C92 C 0.71570 1.02328 0.33763
 C93 C 0.71647 0.97971 0.33602
 C94 C 0.69031 0.95905 0.30934
 H95 H 0.69047 0.92596 0.30909
 H96 H 0.68757 1.07674 0.31095
 O97 O 0.89647 0.84250 0.45767
 O98 O 0.84222 0.89731 0.53924
 O99 O 0.89800 0.84015 0.53662
 O100 O 0.84083 0.89750 0.45899
 O101 O 0.79334 0.84998 0.45955
 O102 O 0.84930 0.79397 0.53923
 O103 O 0.79383 0.85075 0.53879
 O104 O 0.85022 0.79378 0.45965
 Cu105 Cu 0.87403 0.87430 0.49837
 Cu106 Cu 0.81689 0.81733 0.49928
 C107 C 0.88290 0.80852 0.44523
 C108 C 0.80857 0.88381 0.55246
 C109 C 0.88361 0.80717 0.55083
 C110 C 0.80744 0.88332 0.44593
 O111 O 0.15985 0.10113 0.53709
 O112 O 0.10316 0.15835 0.45915
 O113 O 0.15851 0.10329 0.45766
 O114 O 0.10268 0.15769 0.53841
 O115 O 0.15009 0.20525 0.54055
 O116 O 0.20650 0.15026 0.46013
 O117 O 0.14972 0.20677 0.46093
 O118 O 0.20622 0.14967 0.53963
 Cu119 Cu 0.12631 0.12526 0.49835
 Cu120 Cu 0.18288 0.18284 0.50029
 C121 C 0.19283 0.11533 0.55127
 C122 C 0.11678 0.19234 0.44683
 C123 C 0.19216 0.11744 0.44535
 C124 C 0.11644 0.19094 0.55275
 O125 O 0.10261 0.84127 0.54148
 O126 O 0.16010 0.89874 0.46412
 O127 O 0.10283 0.84286 0.46135
 O128 O 0.15817 0.89624 0.54337
 O129 O 0.20635 0.84949 0.54027
 O130 O 0.14876 0.79383 0.46136
 O131 O 0.20551 0.84932 0.46068
 O132 O 0.14958 0.79320 0.54049
 Cu133 Cu 0.12611 0.87455 0.50237
 Cu134 Cu 0.18229 0.81664 0.50066
 C135 C 0.11649 0.80754 0.55429
 C136 C 0.19267 0.88403 0.44947
 C137 C 0.11589 0.80891 0.44798
 C138 C 0.19199 0.88218 0.55532
 O139 O 0.83992 0.10175 0.46261
 O140 O 0.89741 0.15797 0.54077
 O141 O 0.84197 0.10291 0.54154
 O142 O 0.89714 0.15745 0.46051
 O143 O 0.85122 0.20649 0.46140
 O144 O 0.79385 0.14980 0.53977
 O145 O 0.85052 0.20613 0.54064
 O146 O 0.79436 0.15109 0.46014
 Cu147 Cu 0.87398 0.12530 0.50106
 Cu148 Cu 0.81776 0.18323 0.50052
 C149 C 0.80725 0.11655 0.44838
 C150 C 0.88355 0.19149 0.55421
 C151 C 0.80825 0.11680 0.55402
 C152 C 0.88401 0.19151 0.44764
 O153 O 0.53623 0.83951 0.89895
 O154 O 0.45963 0.89727 0.84123
 O155 O 0.45778 0.84165 0.89644
 O156 O 0.53913 0.89707 0.84300
 O157 O 0.53901 0.85103 0.79360
 O158 O 0.46086 0.79315 0.84951
 O159 O 0.46051 0.85005 0.79292
 O160 O 0.53979 0.79398 0.84918
 Cu161 Cu 0.49842 0.87373 0.87468
 Cu162 Cu 0.50009 0.81729 0.81645
 C163 C 0.55086 0.80686 0.88410
 C164 C 0.44680 0.88325 0.80740
 C165 C 0.44591 0.80767 0.88231
 C166 C 0.55239 0.88396 0.80890
 O167 O 0.53702 0.15949 0.10278
 O168 O 0.45770 0.10328 0.15840
 O169 O 0.45777 0.15921 0.10301
 O170 O 0.53691 0.10309 0.15906
 O171 O 0.53707 0.15042 0.20723
 O172 O 0.45862 0.20713 0.15062
 O173 O 0.45855 0.15017 0.20703
 O174 O 0.53715 0.20707 0.15070
 Cu175 Cu 0.49750 0.12652 0.12597
 Cu176 Cu 0.49783 0.18347 0.18374
 C177 C 0.55027 0.19300 0.11697
 C178 C 0.44483 0.11709 0.19230
 C179 C 0.44492 0.19283 0.11723
 C180 C 0.55013 0.11693 0.19286
 O181 O 0.46186 0.16050 0.89734
 O182 O 0.54061 0.10411 0.84146
 O183 O 0.54039 0.15983 0.89676
 O184 O 0.46210 0.10316 0.84049
 O185 O 0.46056 0.15086 0.79284
 O186 O 0.53902 0.20790 0.84944
 O187 O 0.53946 0.15075 0.79272
 O188 O 0.46021 0.20732 0.84881
 Cu189 Cu 0.50091 0.12712 0.87386
 Cu190 Cu 0.49987 0.18398 0.81608
 C191 C 0.44806 0.19370 0.88303
 C192 C 0.55336 0.11777 0.80752
 C193 C 0.55289 0.19360 0.88276
 C194 C 0.44844 0.11694 0.80690
 O195 O 0.46313 0.83972 0.10224
 O196 O 0.54060 0.89661 0.15947
 O197 O 0.54187 0.84088 0.10432
 O198 O 0.46209 0.89696 0.15935
 O199 O 0.46015 0.84924 0.20698
 O200 O 0.53966 0.79269 0.15148
 O201 O 0.53895 0.84990 0.20813
 O202 O 0.46081 0.79301 0.15085
 Cu203 Cu 0.50162 0.87329 0.12645
 Cu204 Cu 0.49992 0.81642 0.18420
 C205 C 0.44913 0.80655 0.11644
 C206 C 0.55288 0.88298 0.19359
 C207 C 0.55420 0.80712 0.11851
 C208 C 0.44804 0.88309 0.19277
 O209 O 0.89751 0.53645 0.83978
 O210 O 0.84045 0.45879 0.89696
 O211 O 0.89643 0.45784 0.84207
 O212 O 0.84106 0.53865 0.89659
 O213 O 0.79304 0.53769 0.84945
 O214 O 0.85055 0.45941 0.79277
 O215 O 0.79334 0.45889 0.84884
 O216 O 0.84917 0.53867 0.79298
 Cu217 Cu 0.87348 0.49822 0.87383
 Cu218 Cu 0.81680 0.49862 0.81613
 C219 C 0.88330 0.55048 0.80652
 C220 C 0.80727 0.44549 0.88247
 C221 C 0.88320 0.44529 0.80786
 C222 C 0.80737 0.55143 0.88278
 O223 O 0.10271 0.53871 0.15781
 O224 O 0.15902 0.45846 0.10348
 O225 O 0.10340 0.45982 0.15845
 O226 O 0.16027 0.53754 0.10138
 O227 O 0.20641 0.54013 0.15037
 O228 O 0.14967 0.46165 0.20736
 O229 O 0.20675 0.46098 0.15092
 O230 O 0.14986 0.54094 0.20583
 Cu231 Cu 0.12664 0.49891 0.12537
 Cu232 Cu 0.18288 0.50093 0.18352
 C233 C 0.11626 0.55301 0.19128
 C234 C 0.19259 0.44624 0.11788
 C235 C 0.11686 0.44754 0.19265
 C236 C 0.19318 0.55170 0.11581
 O237 O 0.84105 0.54134 0.10263
 O238 O 0.89684 0.46098 0.15726
 O239 O 0.83944 0.46276 0.10152
 O240 O 0.89678 0.54088 0.15773
 O241 O 0.85009 0.54054 0.20630
 O242 O 0.79405 0.46011 0.15125
 O243 O 0.85108 0.46162 0.20668
 O244 O 0.79313 0.53933 0.14994
 Cu245 Cu 0.87338 0.50123 0.12503
 Cu246 Cu 0.81739 0.50043 0.18345
 C247 C 0.80729 0.55354 0.11669
 C248 C 0.88387 0.44806 0.19150
 C249 C 0.80688 0.44845 0.11650
 C250 C 0.88301 0.55419 0.19147
 O251 O 0.15847 0.54336 0.89611
 O252 O 0.10329 0.46143 0.84276
 O253 O 0.16066 0.46453 0.89872
 O254 O 0.10272 0.54122 0.84114
 O255 O 0.14955 0.54041 0.79270
 O256 O 0.20592 0.46118 0.84891
 O257 O 0.14904 0.46160 0.79333
 O258 O 0.20654 0.54038 0.84899
 Cu259 Cu 0.12648 0.50241 0.87449
 Cu260 Cu 0.18248 0.50087 0.81611
 C261 C 0.19222 0.55534 0.88187
 C262 C 0.11631 0.44813 0.80864
 C263 C 0.19323 0.45003 0.88385
 C264 C 0.11647 0.55404 0.80723
 N265 N 0.27819 0.38960 0.07381
 C266 C 0.25924 0.36425 0.04707
 N267 N 0.21806 0.36366 0.04619
 N268 N 0.19674 0.38939 0.06933
 C269 C 0.21578 0.41564 0.09511
 N270 N 0.25686 0.41486 0.09742
 N271 N 0.72217 0.61324 0.07559
 C272 C 0.74060 0.63559 0.04593
 N273 N 0.78141 0.63270 0.04168
 N274 N 0.80272 0.60685 0.06456
 C275 C 0.78411 0.58375 0.09341
 N276 N 0.74350 0.58773 0.09887
 N277 N 0.72181 0.38869 0.92639
 C278 C 0.74075 0.36335 0.95309
 N279 N 0.78194 0.36300 0.95418
 N280 N 0.80326 0.38891 0.93131
 C281 C 0.78419 0.41512 0.90557
 N282 N 0.74314 0.41409 0.90302
 N283 N 0.27808 0.61148 0.92590
 C284 C 0.25926 0.63713 0.95247
 N285 N 0.21808 0.63805 0.95327
 N286 N 0.19661 0.61238 0.93023
 C287 C 0.21552 0.58585 0.90462
 N288 N 0.25660 0.58628 0.90239
 N289 N 0.07613 0.27705 0.38567
 C290 C 0.04642 0.25832 0.36377
 N291 N 0.04182 0.21745 0.36762
 N292 N 0.06451 0.19641 0.39385
 C293 C 0.09346 0.21531 0.41646
 N294 N 0.09920 0.25596 0.41159
 N295 N 0.04486 0.78217 0.63677
 C296 C 0.04571 0.74078 0.63618
 N297 N 0.07214 0.72170 0.61068
 N298 N 0.09554 0.74308 0.58535
 C299 C 0.09329 0.78434 0.58457
 N300 N 0.06778 0.80355 0.61093
 N301 N 0.92449 0.72397 0.38433
 C302 C 0.95365 0.74299 0.36199
 N303 N 0.95739 0.78401 0.36523
 N304 N 0.93447 0.80495 0.39143
 C305 C 0.90611 0.78576 0.41453
 N306 N 0.90118 0.74494 0.41020
 N307 N 0.95432 0.21495 0.63798
 C308 C 0.95388 0.25634 0.63812
 N309 N 0.92801 0.27607 0.61258
 N310 N 0.90478 0.25530 0.58655
 C311 C 0.90664 0.21404 0.58509
 N312 N 0.93158 0.19419 0.61146
 N313 N 0.36252 0.04548 0.21681
 C314 C 0.36285 0.04604 0.25839
 N315 N 0.38817 0.07229 0.27790
 N316 N 0.41354 0.09577 0.25672
 C317 C 0.41454 0.09380 0.21526
 N318 N 0.38839 0.06848 0.19564
 N319 N 0.63261 0.04270 0.78379
 C320 C 0.63683 0.04690 0.74272
 N321 N 0.61522 0.07647 0.72343
 N322 N 0.58920 0.09976 0.74415
 C323 C 0.58395 0.09439 0.78498
 N324 N 0.60628 0.06560 0.80446
 N325 N 0.36393 0.95416 0.78281
 C326 C 0.36421 0.95352 0.74124
 N327 N 0.38976 0.92747 0.72173
 N328 N 0.41538 0.90426 0.74290
 C329 C 0.41643 0.90634 0.78436
 N330 N 0.39004 0.93145 0.80398
 N331 N 0.63201 0.95779 0.21841
 C332 C 0.63475 0.95440 0.25969
 N333 N 0.61229 0.92539 0.27883
 N334 N 0.58679 0.90191 0.25772
 C335 C 0.58295 0.90652 0.21663
 N336 N 0.60617 0.93471 0.19733
 N337 N 0.38957 0.23291 0.97020
 C338 C 0.36568 0.26189 0.95298
 N339 N 0.36924 0.26792 0.91185
 N340 N 0.39527 0.24624 0.88941
 C341 C 0.41856 0.21709 0.90707
 N342 N 0.41523 0.21082 0.94788
 N343 N 0.60816 0.76645 0.97148
 C344 C 0.63375 0.73918 0.95383
 N345 N 0.63148 0.73442 0.91242
 N346 N 0.60517 0.75582 0.89010
 C347 C 0.58026 0.78338 0.90817
 N348 N 0.58222 0.78828 0.94929
 N349 N 0.39090 0.76734 0.02901
 C350 C 0.36669 0.73864 0.04627
 N351 N 0.37006 0.73271 0.08743
 N352 N 0.39617 0.75425 0.10987
 C353 C 0.41976 0.78315 0.09221
 N354 N 0.41666 0.78929 0.05135
 N355 N 0.62565 0.22030 0.03864
 C356 C 0.63374 0.25984 0.04762
 N357 N 0.61549 0.27672 0.08091
 N358 N 0.58938 0.25530 0.10343
 C359 C 0.58058 0.21608 0.09359
 N360 N 0.59935 0.19892 0.06088
 N361 N 0.23250 0.02846 0.60975
 C362 C 0.26105 0.04583 0.63411
 N363 N 0.26666 0.08685 0.63076
 N364 N 0.24498 0.10905 0.60456
 C365 C 0.21624 0.09129 0.58082
 N366 N 0.21040 0.05056 0.58388
 N367 N 0.76682 0.02958 0.39077
 C368 C 0.73910 0.04695 0.36554
 N369 N 0.73412 0.08813 0.36803
 N370 N 0.75571 0.11048 0.39428
 C371 C 0.78369 0.09265 0.41884
 N372 N 0.78883 0.05178 0.41661
 N373 N 0.72579 0.92054 0.61862
 C374 C 0.74303 0.95328 0.63729
 N375 N 0.78253 0.96165 0.62928
 N376 N 0.80355 0.93935 0.60257
 C377 C 0.78601 0.90722 0.58333
 N378 N 0.74683 0.89798 0.59212
 N379 N 0.23253 0.97084 0.39105
 C380 C 0.26067 0.95339 0.36624
 N381 N 0.26607 0.91232 0.36933
 N382 N 0.24453 0.89013 0.39570
 C383 C 0.21616 0.90798 0.41986
 N384 N 0.21058 0.94877 0.41707
 N385 N 0.03878 0.37157 0.78278
 C386 C 0.04709 0.36346 0.74289
 N387 N 0.07954 0.38211 0.72537
 N388 N 0.10192 0.40861 0.74649
 C389 C 0.09282 0.41743 0.78606
 N390 N 0.06092 0.39828 0.80388
 N391 N 0.08702 0.63392 0.26371
 C392 C 0.04621 0.63685 0.25770
 N393 N 0.02931 0.61192 0.22923
 N394 N 0.05164 0.58582 0.20763
 C395 C 0.09214 0.58307 0.21394
 N396 N 0.10947 0.60744 0.24257
 N397 N 0.96146 0.37168 0.21740
 C398 C 0.95363 0.36423 0.25747
 N399 N 0.92139 0.38315 0.27516
 N400 N 0.89880 0.40939 0.25399
 C401 C 0.90749 0.41765 0.21423
 N402 N 0.93913 0.39815 0.19625
 N403 N 0.96991 0.60882 0.76715
 C404 C 0.95281 0.63323 0.73842
 N405 N 0.91200 0.62994 0.73250
 N406 N 0.88973 0.60373 0.75409
 C407 C 0.90725 0.57996 0.78304
 N408 N 0.94776 0.58297 0.78916
 N409 N 0.78008 0.62792 0.96049
 C410 C 0.74031 0.63479 0.95238
 N411 N 0.72328 0.61550 0.91979
 N412 N 0.74480 0.58949 0.89716
 C413 C 0.78427 0.58182 0.90618
 N414 N 0.80157 0.60168 0.93814
 N415 N 0.26677 0.37041 0.91221
 C416 C 0.26147 0.36741 0.95350
 N417 N 0.23340 0.39216 0.97105
 N418 N 0.21139 0.41800 0.94889
 C419 C 0.21686 0.42069 0.90789
 N420 N 0.24518 0.39661 0.88992
 N421 N 0.26713 0.63078 0.08720
 C422 C 0.26149 0.63411 0.04600
 N423 N 0.23292 0.60987 0.02858
 N424 N 0.21080 0.58415 0.05079
 C425 C 0.21666 0.58110 0.09170
 N426 N 0.24543 0.60471 0.10953
 N427 N 0.76648 0.39087 0.02927
 C428 C 0.73895 0.36560 0.04680
 N429 N 0.73405 0.36807 0.08818
 N430 N 0.75556 0.39432 0.11057
 C431 C 0.78338 0.41892 0.09257
 N432 N 0.78842 0.41673 0.05150
 N433 N 0.97017 0.76725 0.60898
 C434 C 0.95296 0.73866 0.63345
 N435 N 0.91211 0.73304 0.63026
 N436 N 0.88990 0.75477 0.60410
 C437 C 0.90753 0.78358 0.58028
 N438 N 0.94808 0.78940 0.58318
 N439 N 0.92149 0.27521 0.38296
 C440 C 0.95360 0.25766 0.36365
 N441 N 0.96128 0.21766 0.37071
 N442 N 0.93898 0.19645 0.39719
 C443 C 0.90750 0.21429 0.41709
 N444 N 0.89892 0.25397 0.40920
 N445 N 0.02974 0.22910 0.61203
 C446 C 0.04675 0.25750 0.63691
 N447 N 0.08757 0.26339 0.63387
 N448 N 0.10991 0.24218 0.60730
 C449 C 0.09247 0.21363 0.58297
 N450 N 0.05197 0.20744 0.58585
 N451 N 0.03787 0.78257 0.37177
 C452 C 0.04642 0.74296 0.36350
 N453 N 0.07916 0.72577 0.38196
 N454 N 0.10162 0.74696 0.40838
 C455 C 0.09230 0.78627 0.41733
 N456 N 0.06008 0.80375 0.39842
 N457 N 0.61804 0.92114 0.72578
 C458 C 0.63665 0.95365 0.74348
 N459 N 0.62871 0.96177 0.78343
 N460 N 0.60212 0.93947 0.80442
 C461 C 0.58296 0.90756 0.78641
 N462 N 0.59168 0.89858 0.74680
 N463 N 0.36878 0.91200 0.26673
 C464 C 0.36512 0.95290 0.26044
 N465 N 0.38899 0.96995 0.23124
 N466 N 0.41479 0.94769 0.20924
 C467 C 0.41826 0.90711 0.21582
 N468 N 0.39495 0.88964 0.24516
 N469 N 0.62516 0.03854 0.22011
 C470 C 0.63349 0.04756 0.25976
 N471 N 0.61546 0.08080 0.27673
 N472 N 0.58936 0.10328 0.25528
 C473 C 0.58035 0.09345 0.21595
 N474 N 0.59886 0.06076 0.19869
 N475 N 0.36966 0.08755 0.73267
 C476 C 0.36619 0.04664 0.73901
 N477 N 0.39016 0.02972 0.76818
 N478 N 0.41581 0.05214 0.79016
 C479 C 0.41905 0.09273 0.78358
 N480 N 0.39568 0.11007 0.75423
 N481 N 0.63635 0.78212 0.04663
 C482 C 0.63615 0.74075 0.04756
 N483 N 0.61113 0.72154 0.07435
 N484 N 0.58586 0.74280 0.09795
 C485 C 0.58472 0.78405 0.09560
 N486 N 0.61061 0.80336 0.06977
 N487 N 0.38868 0.27865 0.07291
 C488 C 0.36315 0.25955 0.04652
 N489 N 0.36252 0.21817 0.04574
 N490 N 0.38832 0.19678 0.06864
 C491 C 0.41470 0.21600 0.09408
 N492 N 0.41397 0.25727 0.09630
 N493 N 0.63228 0.21854 0.95757
 C494 C 0.63498 0.25962 0.95405
 N495 N 0.61247 0.27857 0.92489
 N496 N 0.58693 0.25746 0.90141
 C497 C 0.58310 0.21657 0.90619
 N498 N 0.60639 0.19746 0.93452
 N499 N 0.38944 0.72184 0.92635
 C500 C 0.36393 0.74099 0.95275
 N501 N 0.36328 0.78236 0.95347
 N502 N 0.38905 0.80370 0.93050
 C503 C 0.41543 0.78445 0.90506
 N504 N 0.41475 0.74318 0.90291
 N505 N 0.78199 0.95466 0.36305
 C506 C 0.74080 0.95367 0.36357
 N507 N 0.72188 0.92723 0.38919
 N508 N 0.74324 0.90398 0.41468
 C509 C 0.78430 0.90641 0.41553
 N510 N 0.80335 0.93190 0.38905
 N511 N 0.27784 0.92617 0.61163
 C512 C 0.25901 0.95269 0.63731
 N513 N 0.21783 0.95350 0.63821
 N514 N 0.19637 0.93050 0.61248
 C515 C 0.21529 0.90493 0.58590
 N516 N 0.25637 0.90270 0.58637
 N517 N 0.27758 0.07323 0.38847
 C518 C 0.25855 0.04656 0.36311
 N519 N 0.21737 0.04574 0.36260
 N520 N 0.19612 0.06889 0.38840
 C521 C 0.21525 0.09462 0.41465
 N522 N 0.25632 0.09684 0.41380
 N523 N 0.78348 0.04249 0.63422
 C524 C 0.74268 0.04653 0.63750
 N525 N 0.72388 0.07579 0.61502
 N526 N 0.74485 0.09890 0.58902
 C527 C 0.78545 0.09366 0.58467
 N528 N 0.80442 0.06520 0.60790
 N529 N 0.95386 0.63761 0.21481
 C530 C 0.95332 0.63796 0.25639
 N531 N 0.92736 0.61266 0.27627
 N532 N 0.90414 0.58668 0.25548
 C533 C 0.90609 0.58502 0.21403
 N534 N 0.93112 0.61114 0.19403
 N535 N 0.92507 0.38404 0.72352
 C536 C 0.95437 0.36216 0.74283
 N537 N 0.95822 0.36594 0.78398
 N538 N 0.93522 0.39216 0.80476
 C539 C 0.90669 0.41476 0.78527
 N540 N 0.90170 0.40993 0.74433
 N541 N 0.04473 0.63617 0.78227
 C542 C 0.04554 0.63584 0.74070
 N543 N 0.07195 0.61056 0.72134
 N544 N 0.09537 0.58522 0.74264
 C545 C 0.09316 0.58421 0.78409
 N546 N 0.06766 0.61034 0.80357
 N547 N 0.07594 0.38619 0.27730
 C548 C 0.04643 0.36435 0.25823
 N549 N 0.04204 0.36833 0.21717
 N550 N 0.06475 0.39461 0.19626
 C551 C 0.09350 0.41716 0.21550
 N552 N 0.09903 0.41218 0.25635
   
