data_POSCAR
  _audit_creation_date              2014-09-24
  _audit_creation_method            'ToBaCCo'
  _symmetry_space_group_name_H-M    'P1'
  _symmetry_Int_Tables_number       1
  _symmetry_cell_setting            triclinic
  loop_
  _symmetry_equiv_pos_as_xyz
 x,y,z
_cell_length_a 27.8987
_cell_length_b 34.6778
_cell_length_c 34.2785
_cell_angle_alpha 92.215500
_cell_angle_beta 91.082300
_cell_angle_gamma 92.569200
loop_
  _atom_site_label
  _atom_site_type_symbol
  _atom_site_fract_x
  _atom_site_fract_y
  _atom_site_fract_z
N1 N 0.63277 0.70700 0.61462
 N2 N 0.60628 0.70871 0.64591
 C3 C 0.57097 0.73324 0.64026
 C4 C 0.57516 0.74702 0.60314
 C5 C 0.61463 0.72974 0.58759
 H6 H 0.54323 0.73940 0.66092
 H7 H 0.62903 0.73335 0.55882
 Cu8 Cu 0.61768 0.67565 0.68916
 Cu9 Cu 0.68785 0.67446 0.61109
 Cu10 Cu 0.72309 0.63425 0.69769
 N11 N 0.62585 0.63272 0.72314
 N12 N 0.66793 0.61781 0.72809
 C13 C 0.66379 0.58904 0.75327
 C14 C 0.61625 0.58516 0.76379
 C15 C 0.59314 0.61346 0.74426
 H16 H 0.69268 0.57107 0.76169
 H17 H 0.55541 0.61936 0.74487
 N18 N 0.76481 0.63768 0.65223
 N19 N 0.75094 0.65199 0.61892
 C20 C 0.78526 0.64669 0.59240
 C21 C 0.82204 0.62770 0.60972
 C22 C 0.80806 0.62254 0.64771
 H23 H 0.78266 0.65426 0.56215
 H24 H 0.82650 0.60690 0.66971
 H25 H 0.67356 0.63552 0.65439
 H26 H 0.70130 0.68392 0.66918
 N27 N 0.86432 0.26630 0.13885
 N28 N 0.85808 0.26291 0.17651
 C29 C 0.86259 0.22580 0.18554
 C30 C 0.87366 0.20511 0.15180
 C31 C 0.87429 0.23165 0.12271
 H32 H 0.86208 0.21548 0.21491
 H33 H 0.88296 0.22643 0.09238
 Cu34 Cu 0.85447 0.30803 0.21154
 Cu35 Cu 0.86148 0.31578 0.11420
 Cu36 Cu 0.84834 0.39612 0.17507
 N37 N 0.87221 0.35459 0.24290
 N38 N 0.87043 0.38905 0.22837
 C39 C 0.88363 0.41597 0.25628
 C40 C 0.89440 0.39731 0.29001
 C41 C 0.88680 0.35836 0.28057
 H42 H 0.88461 0.44682 0.25250
 H43 H 0.89104 0.33459 0.29968
 N44 N 0.84200 0.39755 0.11797
 N45 N 0.84518 0.36650 0.09480
 C46 C 0.83193 0.37510 0.05828
 C47 C 0.82113 0.41357 0.05847
 C48 C 0.82809 0.42704 0.09668
 H49 H 0.82826 0.35452 0.03377
 H50 H 0.81989 0.45527 0.10855
 H51 H 0.88708 0.34972 0.16232
 H52 H 0.82052 0.34073 0.15655
 N53 N 0.37634 0.21766 -0.11276
 N54 N 0.40783 0.20994 -0.13968
 C55 C 0.44643 0.23450 -0.13445
 C56 C 0.43903 0.25795 -0.10180
 C57 C 0.39437 0.24646 -0.08865
 H58 H 0.47837 0.23400 -0.15184
 H59 H 0.37659 0.25809 -0.06332
 Cu60 Cu 0.39731 0.16644 -0.17719
 Cu61 Cu 0.31506 0.18911 -0.11209
 Cu62 Cu 0.30400 0.10106 -0.15455
 N63 N 0.38985 0.11356 -0.20046
 N64 N 0.35404 0.08899 -0.19264
 C65 C 0.35918 0.05570 -0.21348
 C66 C 0.40085 0.05930 -0.23438
 C67 C 0.41952 0.09616 -0.22538
 H68 H 0.33524 0.03036 -0.21264
 H69 H 0.45233 0.10928 -0.23615
 N70 N 0.25016 0.12474 -0.12860
 N71 N 0.25361 0.16064 -0.11461
 C72 C 0.21179 0.16969 -0.09855
 C73 C 0.18096 0.13746 -0.10175
 C74 C 0.20646 0.10922 -0.12054
 H75 H 0.20531 0.19667 -0.08308
 H76 H 0.19455 0.07953 -0.12716
 H77 H 0.36349 0.13641 -0.13510
 H78 H 0.32303 0.15357 -0.17408
 N79 N 0.08073 0.80225 0.34353
 N80 N 0.06046 0.80968 0.30986
 C81 C 0.02610 0.78220 0.30069
 C82 C 0.02464 0.75622 0.33032
 C83 C 0.05961 0.76990 0.35717
 H84 H 0.00456 0.78080 0.27408
 H85 H 0.07002 0.75665 0.38392
 Cu86 Cu 0.08222 0.85300 0.27950
 Cu87 Cu 0.13548 0.83339 0.36530
 Cu88 Cu 0.15925 0.91981 0.32063
 N89 N 0.11529 0.89140 0.24857
 N90 N 0.14769 0.91618 0.26446
 C91 C 0.16438 0.93968 0.23695
 C92 C 0.14069 0.92922 0.20215
 C93 C 0.10943 0.89882 0.21055
 H94 H 0.18941 0.96411 0.24242
 H95 H 0.08367 0.88387 0.19068
 N96 N 0.18342 0.90957 0.37311
 N97 N 0.17694 0.87588 0.38935
 C98 C 0.19932 0.87764 0.42465
 C99 C 0.22000 0.91439 0.43089
 C100 C 0.20922 0.93385 0.39772
 H101 H 0.19905 0.85449 0.44491
 H102 H 0.21972 0.96342 0.39182
 H103 H 0.10725 0.88130 0.34351
 H104 H 0.15839 0.86169 0.31577
 C105 C 0.01851 0.04912 0.09818
 C106 C -0.01993 0.06497 0.11801
 C107 C -0.04386 0.09615 0.10284
 C108 C -0.03121 0.10928 0.06596
 C109 C 0.00694 0.09346 0.04561
 C110 C 0.03253 0.06375 0.06211
 C111 C 0.04539 0.02088 0.11538
 C112 C 0.08737 0.00831 0.09798
 C113 C 0.10076 0.02239 0.06164
 C114 C 0.07350 0.05000 0.04352
 C115 C 0.08827 0.06586 0.00841
 C116 C 0.06327 0.09581 -0.00808
 C117 C 0.02195 0.10881 0.01038
 H118 H -0.02889 0.05444 0.14637
 H119 H -0.04945 0.13326 0.05397
 H120 H 0.03533 0.01051 0.14366
 H121 H 0.13303 0.01267 0.04799
 H122 H 0.12047 0.05593 -0.00523
 H123 H 0.00226 0.13192 -0.00159
 C124 C 0.43522 0.89904 0.62722
 C125 C 0.46451 0.86793 0.61943
 C126 C 0.45757 0.84479 0.58510
 C127 C 0.41983 0.85208 0.55904
 C128 C 0.38961 0.88261 0.56678
 C129 C 0.39741 0.90629 0.60095
 C130 C 0.44435 0.92395 0.66000
 C131 C 0.41585 0.95579 0.66708
 C132 C 0.37713 0.96200 0.64171
 C133 C 0.36826 0.93790 0.60828
 C134 C 0.33216 0.94595 0.58118
 C135 C 0.32486 0.92295 0.54670
 C136 C 0.35294 0.89080 0.54016
 H137 H 0.49392 0.86260 0.63936
 H138 H 0.41414 0.83416 0.53261
 H139 H 0.47408 0.91894 0.67970
 H140 H 0.35544 0.98679 0.64694
 H141 H 0.31030 0.97057 0.58664
 H142 H 0.34763 0.87314 0.51349
 C143 C 0.94478 0.56748 0.38299
 C144 C 0.95365 0.59912 0.35953
 C145 C 0.95744 0.63682 0.37611
 C146 C 0.95136 0.64294 0.41639
 C147 C 0.94104 0.61163 0.44009
 C148 C 0.93889 0.57365 0.42349
 C149 C 0.94076 0.52983 0.36647
 C150 C 0.93146 0.49810 0.38989
 C151 C 0.92651 0.50433 0.43038
 C152 C 0.92967 0.54190 0.44723
 C153 C 0.92179 0.54836 0.48717
 C154 C 0.92134 0.58616 0.50331
 C155 C 0.93138 0.61765 0.47984
 H156 H 0.95827 0.59441 0.32840
 H157 H 0.95345 0.67215 0.42901
 H158 H 0.94460 0.52522 0.33524
 H159 H 0.91837 0.48021 0.44865
 H160 H 0.91337 0.52412 0.50529
 H161 H 0.93098 0.64679 0.49247
 C162 C 0.58432 0.41910 -0.11844
 C163 C 0.55304 0.38698 -0.11302
 C164 C 0.56270 0.36107 -0.08375
 C165 C 0.60490 0.36637 -0.06090
 C166 C 0.63719 0.39764 -0.06675
 C167 C 0.62675 0.42436 -0.09538
 C168 C 0.57295 0.44684 -0.14542
 C169 C 0.60362 0.47959 -0.14987
 C170 C 0.64664 0.48395 -0.12788
 C171 C 0.65808 0.45688 -0.10018
 C172 C 0.69932 0.46256 -0.07614
 C173 C 0.70953 0.43615 -0.04731
 C174 C 0.67875 0.40344 -0.04334
 H175 H 0.52006 0.38310 -0.13026
 H176 H 0.61228 0.34629 -0.03829
 H177 H 0.53999 0.44313 -0.16267
 H178 H 0.67019 0.50930 -0.13119
 H179 H 0.72300 0.48777 -0.07954
 H180 H 0.68616 0.38320 -0.02090
 C181 C -0.11214 0.16711 0.14861
 C182 C -0.11436 0.14123 0.17813
 C183 C -0.09201 0.10958 0.16409
 C184 C -0.07727 0.11856 0.12705
 O185 O -0.09020 0.15333 0.11756
 H186 H -0.12916 0.14529 0.20688
 H187 H -0.08563 0.08393 0.17999
 C188 C 0.54293 0.77308 0.58388
 C189 C 0.53849 0.77625 0.54404
 C190 C 0.50460 0.80283 0.53889
 C191 C 0.49129 0.81417 0.57605
 O192 O 0.51453 0.79609 0.60340
 H193 H 0.55751 0.76091 0.52149
 H194 H 0.49213 0.81342 0.51138
 C195 C 0.99615 0.72224 0.33179
 C196 C 0.96585 0.70764 0.30190
 C197 C 0.94738 0.67339 0.31448
 C198 C 0.96719 0.66990 0.35127
 O199 O 0.99674 0.69951 0.36191
 H200 H 0.95877 0.71995 0.27396
 H201 H 0.92227 0.65342 0.29883
 C202 C 0.47291 0.28680 -0.08305
 C203 C 0.47698 0.29378 -0.04325
 C204 C 0.51265 0.32172 -0.03812
 C205 C 0.52703 0.33011 -0.07526
 O206 O 0.50302 0.30891 -0.10266
 H207 H 0.45663 0.27988 -0.02073
 H208 H 0.52573 0.33518 -0.01072
 C209 C 0.14216 -0.04958 0.16604
 C210 C 0.18356 -0.03614 0.14891
 C211 C 0.16853 -0.01484 0.11872
 C212 C 0.11900 -0.01635 0.12026
 O213 O 0.10306 -0.03754 0.14897
 H214 H 0.22020 -0.04040 0.15811
 H215 H 0.19108 0.00189 0.09968
 C216 C 0.59597 0.55714 -0.21269
 C217 C 0.54741 0.55129 -0.20680
 C218 C 0.54354 0.52059 -0.18322
 C219 C 0.59003 0.51026 -0.17611
 O220 O 0.62190 0.53244 -0.19393
 H221 H 0.51825 0.56718 -0.21848
 H222 H 0.51082 0.50790 -0.17182
 C223 C 0.42203 1.02979 0.74033
 C224 C 0.47065 1.02558 0.73695
 C225 C 0.47486 0.99575 0.71037
 C226 C 0.42842 0.98440 0.69907
 O227 O 0.39623 1.00504 0.71730
 H228 H 0.49949 1.04241 0.75195
 H229 H 0.50786 0.98472 0.69931
 C230 C 0.90863 0.41568 0.32805
 C231 C 0.91665 0.39633 0.36176
 C232 C 0.92695 0.42453 0.38993
 C233 C 0.92452 0.45901 0.37119
 O234 O 0.91353 0.45355 0.33363
 H235 H 0.91473 0.36546 0.36547
 H236 H 0.93524 0.42026 0.42036
 C237 C 0.13449 0.13322 -0.08282
 C238 C 0.10051 0.16072 -0.08331
 C239 C 0.06706 0.14919 -0.05726
 C240 C 0.08359 0.11565 -0.04214
 O241 O 0.12455 0.10594 -0.05795
 H242 H 0.10119 0.18691 -0.09951
 H243 H 0.03602 0.16492 -0.04900
 C244 C 0.86272 0.61091 0.58960
 C245 C 0.89246 0.58454 0.60530
 C246 C 0.92010 0.57244 0.57518
 C247 C 0.90554 0.59279 0.54361
 O248 O 0.87075 0.61608 0.55226
 H249 H 0.89237 0.57396 0.63459
 H250 H 0.94659 0.55060 0.57576
 C251 C 0.79784 0.43356 0.02684
 C252 C 0.80087 0.47290 0.02243
 C253 C 0.77019 0.47926 -0.00790
 C254 C 0.75023 0.44328 -0.01928
 O255 O 0.76720 0.41557 0.00177
 H256 H 0.82183 0.49438 0.03996
 H257 H 0.76145 0.50703 -0.01874
 C258 C 0.24655 0.93016 0.46579
 C259 C 0.25009 0.96885 0.47669
 C260 C 0.27834 0.97123 0.50958
 C261 C 0.29040 0.93378 0.51612
 O262 O 0.27104 0.90876 0.48950
 H263 H 0.23425 0.99251 0.46219
 H264 H 0.29022 0.99738 0.52586
   
