data_POSCAR
  _audit_creation_date              2014-09-24
  _audit_creation_method            'ToBaCCo'
  _symmetry_space_group_name_H-M    'P1'
  _symmetry_Int_Tables_number       1
  _symmetry_cell_setting            triclinic
  loop_
  _symmetry_equiv_pos_as_xyz
 x,y,z
_cell_length_a 22.4374
_cell_length_b 22.4340
_cell_length_c 29.9409
_cell_angle_alpha 82.821100
_cell_angle_beta 84.704600
_cell_angle_gamma 96.653600
loop_
  _atom_site_label
  _atom_site_type_symbol
  _atom_site_fract_x
  _atom_site_fract_y
  _atom_site_fract_z
C1 C 0.01641 0.52533 0.97542
 C2 C 0.00997 0.49867 1.01941
 C3 C -0.01392 0.53217 1.05527
 C4 C 0.02324 0.43576 1.03299
 C5 C 0.02150 0.49013 0.93650
 C6 C 0.01892 0.59214 0.96475
 C7 C 0.02456 0.56076 1.08257
 C8 C 0.00278 0.59989 1.11128
 C9 C -0.05849 0.60961 1.11432
 C10 C -0.09751 0.57690 1.08887
 C11 C -0.07512 0.53954 1.05923
 C12 C 0.07433 0.41485 1.01248
 C13 C 0.08506 0.35501 1.02356
 C14 C 0.04606 0.31536 1.05651
 C15 C -0.00303 0.33701 1.07890
 C16 C -0.01458 0.39656 1.06707
 C17 C -0.01689 0.43603 0.93626
 C18 C -0.01220 0.40363 0.89943
 C19 C 0.02973 0.42549 0.86152
 C20 C 0.06748 0.48009 0.86140
 C21 C 0.06343 0.51200 0.89854
 C22 C -0.02250 0.61790 0.93838
 C23 C -0.01892 0.68096 0.92822
 C24 C 0.02611 0.71914 0.94430
 C25 C 0.06790 0.69288 0.97025
 C26 C 0.06456 0.63012 0.98001
 H27 H 0.07199 0.55513 1.07997
 H28 H 0.03442 0.62319 1.13053
 H29 H -0.14491 0.58176 1.08967
 H30 H -0.10534 0.51740 1.03836
 H31 H 0.10571 0.44469 0.98749
 H32 H 0.12417 0.33995 1.00658
 H33 H -0.05384 0.41152 1.08393
 H34 H -0.05077 0.41897 0.96451
 H35 H -0.04212 0.36190 0.90027
 H36 H 0.10077 0.49785 0.83296
 H37 H 0.09342 0.55366 0.89777
 H38 H -0.05761 0.58919 0.92586
 H39 H -0.05139 0.69989 0.90783
 H40 H 0.10419 0.72044 0.98228
 H41 H 0.09813 0.61100 0.99914
 H42 H -0.03350 0.30732 1.10461
 C43 C 0.50867 -0.02003 0.48331
 C44 C 0.48078 -0.01196 0.52430
 C45 C 0.41390 -0.01645 0.53292
 C46 C 0.51529 -0.00250 0.56365
 C47 C 0.57370 -0.02823 0.47741
 C48 C 0.47482 -0.02547 0.44307
 C49 C 0.38727 0.02932 0.55215
 C50 C 0.32462 0.02442 0.56189
 C51 C 0.28740 -0.02627 0.55249
 C52 C 0.31421 -0.07226 0.53344
 C53 C 0.37685 -0.06764 0.52419
 C54 C 0.56749 0.03994 0.55924
 C55 C 0.60144 0.04509 0.59577
 C56 C 0.58262 0.00959 0.63781
 C57 C 0.52907 -0.03092 0.64278
 C58 C 0.49594 -0.03708 0.60602
 C59 C 0.59649 -0.07273 0.50591
 C60 C 0.65718 -0.08130 0.49947
 C61 C 0.69606 -0.04636 0.46376
 C62 C 0.67293 -0.00258 0.43483
 C63 C 0.61233 0.00646 0.44163
 C64 C 0.48274 -0.07280 0.41735
 C65 C 0.44964 -0.08028 0.38075
 C66 C 0.40737 -0.04096 0.36942
 C67 C 0.40014 0.00705 0.39447
 C68 C 0.43444 0.01550 0.43040
 H69 H 0.41510 0.06882 0.55965
 H70 H 0.30526 0.06032 0.57684
 H71 H 0.28717 -0.11262 0.52671
 H72 H 0.39653 -0.10434 0.51062
 H73 H 0.58253 0.06833 0.52730
 H74 H 0.64235 0.07698 0.59125
 H75 H 0.45583 -0.07002 0.61040
 H76 H 0.56708 -0.10128 0.53290
 H77 H 0.67296 -0.11642 0.52178
 H78 H 0.70173 0.02467 0.40686
 H79 H 0.59546 0.04049 0.41892
 H80 H 0.51362 -0.10494 0.42626
 H81 H 0.45571 -0.11807 0.36232
 H82 H 0.36812 0.03821 0.38609
 H83 H 0.42871 0.05340 0.44879
 H84 H 0.51375 -0.05937 0.67463
 C85 C 0.15343 -0.05748 0.23482
 H86 H 0.14010 -0.06287 0.20159
 C87 C 0.21357 -0.05886 0.24288
 H88 H 0.24612 -0.06534 0.21551
 C89 C 0.12688 -0.04091 0.31029
 H90 H 0.09321 -0.03283 0.33624
 C91 C 0.18665 -0.04143 0.31973
 H92 H 0.19813 -0.03487 0.35328
 N93 N 0.11124 -0.05011 0.26862
 C94 C -0.05640 -0.12542 0.22311
 H95 H -0.08198 -0.08835 0.22819
 C96 C -0.08280 -0.17567 0.20577
 H97 H -0.12861 -0.17615 0.19726
 C98 C 0.03513 -0.16793 0.22728
 H99 H 0.08084 -0.16500 0.23617
 C100 C 0.01057 -0.21903 0.20956
 H101 H 0.03798 -0.25480 0.20449
 Zn102 Zn 0.03070 -0.04965 0.25465
 N103 N 0.00173 -0.12198 0.23289
 C104 C 0.02670 0.00525 0.16557
 N105 N 0.03050 0.01663 0.20886
 C106 C 0.03983 0.07435 0.21871
 C107 C 0.04486 0.12347 0.18426
 C108 C 0.03281 0.05286 0.13009
 C109 C -0.02270 -0.08935 0.34228
 C110 C -0.06439 -0.09350 0.38042
 C111 C -0.10607 -0.00765 0.34432
 C112 C -0.06282 -0.00451 0.30706
 N113 N -0.02228 -0.04515 0.30674
 H114 H 0.02095 -0.04088 0.15823
 H115 H 0.04424 0.08218 0.25325
 H116 H 0.05275 0.16920 0.19246
 H117 H 0.03033 0.04278 0.09583
 H118 H 0.00869 -0.12234 0.34048
 H119 H -0.06447 -0.12988 0.40780
 H120 H -0.13891 0.02415 0.34374
 H121 H -0.06328 0.02883 0.27779
 C122 C -0.04905 -0.22318 0.19836
 C123 C 0.23067 -0.05147 0.28602
 C124 C -0.10724 -0.05268 0.38154
 C125 C 0.04248 0.11282 0.13925
 C126 C -0.00924 0.18349 0.72208
 H127 H -0.01355 0.17394 0.68791
 C128 C 0.00448 0.24326 0.73026
 H129 H 0.01059 0.27938 0.70206
 C130 C -0.01409 0.14781 0.80038
 H131 H -0.02268 0.11060 0.82774
 C132 C -0.00127 0.20687 0.81015
 H133 H 0.00104 0.21444 0.84501
 N134 N -0.01675 0.13713 0.75683
 C135 C 0.00076 -0.01383 0.67966
 H136 H -0.04029 -0.04256 0.69413
 C137 C 0.03907 -0.03309 0.64656
 H138 H 0.02681 -0.07671 0.63578
 C139 C 0.06803 0.07598 0.67886
 H140 H 0.08011 0.11739 0.69271
 C141 C 0.10823 0.05795 0.64616
 H142 H 0.15052 0.08638 0.63443
 Zn143 Zn -0.03585 0.05688 0.74424
 N144 N 0.01540 0.04006 0.69482
 C145 C -0.13290 0.04289 0.69005
 N146 N -0.11751 0.04748 0.73249
 C147 C -0.16018 0.04781 0.76774
 C148 C -0.22135 0.04074 0.76146
 C149 C -0.19355 0.03617 0.68218
 C150 C 0.03084 0.00974 0.81058
 C151 C 0.04569 -0.03146 0.84529
 C152 C -0.04979 -0.09277 0.84352
 C153 C -0.06351 -0.04948 0.80944
 N154 N -0.02332 0.00069 0.79391
 H155 H -0.09823 0.04485 0.66217
 H156 H -0.14656 0.05299 0.80092
 H157 H -0.25437 0.04075 0.79015
 H158 H -0.20501 0.03188 0.64827
 H159 H 0.06280 0.04893 0.79651
 H160 H 0.08927 -0.02352 0.85778
 H161 H -0.08167 -0.13296 0.85524
 H162 H -0.10536 -0.05688 0.79453
 C163 C 0.09394 0.00272 0.62972
 C164 C 0.00897 0.25541 0.77482
 C165 C 0.00523 -0.08364 0.86199
 C166 C -0.23870 0.03420 0.71825
 C167 C -0.07783 -0.34879 0.13952
 C168 C -0.13682 -0.33617 0.14659
 C169 C -0.13444 -0.28882 0.17092
 C170 C -0.07443 -0.27529 0.17707
 O171 O -0.04032 -0.31203 0.15862
 H172 H -0.17734 -0.35783 0.13547
 H173 H -0.17230 -0.26667 0.18217
 C174 C 0.05549 0.25126 0.06696
 C175 C 0.08094 0.21798 0.03620
 C176 C 0.07863 0.16116 0.05896
 C177 C 0.05232 0.16396 0.10205
 O178 O 0.03816 0.21859 0.10697
 H179 H 0.09815 0.23300 0.00115
 H180 H 0.09504 0.12258 0.04584
 C181 C 0.22130 -0.03169 0.56460
 C182 C 0.17881 -0.07176 0.54937
 C183 C 0.12478 -0.06349 0.57085
 C184 C 0.13805 -0.01891 0.59763
 O185 O 0.19648 0.00067 0.59357
 H186 H 0.18597 -0.10346 0.52561
 H187 H 0.08111 -0.08744 0.56741
 C188 C -0.37982 0.01346 0.67561
 C189 C -0.40092 0.00001 0.72095
 C190 C -0.35110 0.00734 0.74350
 C191 C -0.30306 0.02451 0.71026
 O192 O -0.32059 0.02836 0.66910
 H193 H -0.44701 -0.01373 0.73587
 H194 H -0.35019 -0.00055 0.77979
 C195 C 0.03073 -0.21422 0.93231
 C196 C 0.06592 -0.17217 0.95199
 C197 C 0.06013 -0.11732 0.92888
 C198 C 0.02161 -0.12958 0.89692
 O199 O 0.00334 -0.18823 0.89915
 H200 H 0.09305 -0.18005 0.97965
 H201 H 0.08170 -0.07364 0.93458
 C202 C 0.03354 0.39079 0.82267
 C203 C 0.05731 0.41420 0.77896
 C204 C 0.05078 0.36686 0.75458
 C205 C 0.02369 0.31788 0.78520
 O206 O 0.01320 0.33245 0.82642
 H207 H 0.07653 0.46030 0.76610
 H208 H 0.06499 0.36801 0.71894
 C209 C -0.24023 -0.05692 0.45499
 C210 C -0.20845 -0.08857 0.48524
 C211 C -0.15347 -0.09015 0.46228
 C212 C -0.15549 -0.05928 0.41966
 O213 O -0.20789 -0.03874 0.41536
 H214 H -0.22331 -0.10847 0.51984
 H215 H -0.11659 -0.11160 0.47518
 C216 C 0.36917 -0.05108 0.33279
 C217 C 0.38549 -0.07803 0.29532
 C218 C 0.33635 -0.08044 0.27172
 C219 C 0.29342 -0.05506 0.29666
 O220 O 0.31346 -0.03711 0.33364
 H221 H 0.42794 -0.09431 0.28636
 H222 H 0.33211 -0.10008 0.24079
   
