data_POSCAR
  _audit_creation_date              2014-09-24
  _audit_creation_method            'ToBaCCo'
  _symmetry_space_group_name_H-M    'P1'
  _symmetry_Int_Tables_number       1
  _symmetry_cell_setting            triclinic
  loop_
  _symmetry_equiv_pos_as_xyz
 x,y,z
_cell_length_a 47.2583
_cell_length_b 47.8783
_cell_length_c 44.9405
_cell_angle_alpha 90.131600
_cell_angle_beta 90.043700
_cell_angle_gamma 89.974800
loop_
  _atom_site_label
  _atom_site_type_symbol
  _atom_site_fract_x
  _atom_site_fract_y
  _atom_site_fract_z
C1 C 1.25121 0.25025 0.25031
 C2 C 0.74965 -0.25006 0.24922
 C3 C 0.74985 0.24988 -0.25048
 C4 C 1.25148 -0.24984 -0.24995
 C5 C 0.25014 0.24968 0.74956
 C6 C 0.74847 0.75012 0.75074
 C7 C 0.74886 0.24980 0.25030
 C8 C 0.25016 0.74953 0.24980
 N9 N 0.97085 0.04929 0.03277
 N10 N 0.95181 0.06866 0.03887
 N11 N 1.03049 0.03002 0.05311
 N12 N 1.04969 0.03575 0.07360
 N13 N 1.03030 0.04937 0.03243
 N14 N 1.04936 0.06877 0.03827
 N15 N 0.97102 0.02996 0.05347
 N16 N 0.95210 0.03568 0.07423
 C17 C 0.94008 0.05961 0.06451
 C18 C 1.06149 0.05972 0.06372
 N19 N 1.03055 -0.04969 0.03233
 N20 N 1.04928 -0.06933 0.03843
 N21 N 0.97116 -0.03035 0.05336
 N22 N 0.95218 -0.03604 0.07404
 N23 N 0.97109 -0.04971 0.03260
 N24 N 0.95207 -0.06909 0.03857
 N25 N 1.03064 -0.03033 0.05310
 N26 N 1.04944 -0.03632 0.07391
 Mn27 Mn 1.00083 -0.00017 0.05354
 C28 C 1.06116 -0.06043 0.06413
 C29 C 0.94025 -0.06000 0.06419
 N30 N 1.02993 0.04939 -0.03175
 N31 N 1.04880 0.06887 -0.03784
 N32 N 0.97039 0.02993 -0.05220
 N33 N 0.95150 0.03582 -0.07295
 N34 N 0.97046 0.04931 -0.03145
 N35 N 0.95164 0.06888 -0.03752
 N36 N 1.02986 0.03002 -0.05251
 N37 N 1.04869 0.03582 -0.07329
 Mn38 Mn 1.00038 0.04957 0.00051
 C39 C 1.06056 0.05985 -0.06353
 C40 C 0.93973 0.05989 -0.06317
 N41 N 0.97072 -0.04974 -0.03156
 N42 N 0.95170 -0.06917 -0.03745
 N43 N 1.03000 -0.03028 -0.05257
 N44 N 1.04896 -0.03595 -0.07329
 N45 N 1.03016 -0.04963 -0.03188
 N46 N 1.04924 -0.06896 -0.03795
 N47 N 0.97053 -0.03039 -0.05225
 N48 N 0.95138 -0.03616 -0.07278
 Mn49 Mn 1.00063 -0.04993 0.00036
 Mn50 Mn 1.00019 -0.00019 -0.05265
 Cl51 Cl 1.00051 -0.00018 0.00044
 C52 C 0.93959 -0.06015 -0.06293
 C53 C 1.06100 -0.05987 -0.06356
 N54 N 1.02996 0.47038 0.44703
 N55 N 1.04906 0.46460 0.42648
 N56 N 0.97042 0.45114 0.46759
 N57 N 0.95145 0.43171 0.46155
 N58 N 0.97049 0.47043 0.44684
 N59 N 0.95154 0.46462 0.42611
 N60 N 1.02987 0.45107 0.46776
 N61 N 1.04891 0.43165 0.46189
 C62 C 1.06092 0.44065 0.43637
 C63 C 0.93962 0.44067 0.43590
 N64 N 0.97026 0.47065 0.55252
 N65 N 0.95143 0.46480 0.57330
 N66 N 1.02976 0.45117 0.53193
 N67 N 1.04865 0.43169 0.53802
 N68 N 1.02975 0.47057 0.55266
 N69 N 1.04865 0.46478 0.57342
 N70 N 0.97029 0.45124 0.53179
 N71 N 0.95149 0.43170 0.53792
 Mn72 Mn 1.00008 0.45092 0.49976
 C73 C 0.93965 0.44072 0.56357
 C74 C 1.06049 0.44074 0.56367
 N75 N 0.97056 0.53074 0.44683
 N76 N 0.95150 0.53638 0.42620
 N77 N 1.03003 0.55011 0.46765
 N78 N 1.04876 0.56971 0.46148
 N79 N 1.03004 0.53072 0.44691
 N80 N 1.04880 0.53664 0.42608
 N81 N 0.97056 0.55015 0.46755
 N82 N 0.95150 0.56951 0.46158
 Mn83 Mn 1.00026 0.50056 0.44663
 C84 C 0.93958 0.56037 0.43602
 C85 C 1.06056 0.56075 0.43579
 N86 N 1.02983 0.53087 0.55260
 N87 N 1.04891 0.53654 0.57323
 N88 N 0.97046 0.55031 0.53173
 N89 N 0.95174 0.56997 0.53785
 N90 N 0.97037 0.53100 0.55246
 N91 N 0.95158 0.53704 0.57326
 N92 N 1.02990 0.55017 0.53186
 N93 N 1.04902 0.56949 0.53781
 Mn94 Mn 1.00005 0.50078 0.55283
 Mn95 Mn 1.00024 0.55042 0.49970
 Cl96 Cl 1.00016 0.50067 0.49973
 C97 C 1.06091 0.56043 0.56339
 C98 C 0.93988 0.56112 0.56351
 N99 N 0.54988 0.02892 0.53117
 N100 N 0.56938 0.04793 0.53682
 N101 N 0.53031 -0.02964 0.55215
 N102 N 0.53585 -0.04871 0.57253
 N103 N 0.54986 -0.02976 0.53138
 N104 N 0.56923 -0.04890 0.53705
 N105 N 0.53032 0.02907 0.55194
 N106 N 0.53602 0.04820 0.57230
 C107 C 0.56019 0.05998 0.56226
 C108 C 0.55994 -0.06071 0.56251
 N109 N 0.44967 -0.02977 0.53148
 N110 N 0.43046 -0.04905 0.53706
 N111 N 0.46924 0.02906 0.55199
 N112 N 0.46371 0.04830 0.57226
 N113 N 0.44960 0.02889 0.53128
 N114 N 0.43019 0.04802 0.53688
 N115 N 0.46929 -0.02964 0.55219
 N116 N 0.46396 -0.04885 0.57247
 Mn117 Mn 0.49979 -0.00028 0.55237
 C118 C 0.43992 -0.06093 0.56243
 C119 C 0.43954 0.06012 0.56223
 N120 N 0.54968 -0.03012 0.46730
 N121 N 0.56899 -0.04937 0.46179
 N122 N 0.53007 0.02845 0.44635
 N123 N 0.53553 0.04754 0.42598
 N124 N 0.54970 0.02854 0.46707
 N125 N 0.56903 0.04769 0.46139
 N126 N 0.53005 -0.03025 0.44659
 N127 N 0.53546 -0.04961 0.42640
 Mn128 Mn 0.55004 -0.00060 0.49922
 C129 C 0.55956 -0.06151 0.43649
 C130 C 0.55965 0.05953 0.43596
 N131 N 0.44949 0.02854 0.46722
 N132 N 0.43027 0.04787 0.46176
 N133 N 0.46898 -0.03025 0.44658
 N134 N 0.46316 -0.04923 0.42609
 N135 N 0.44944 -0.03013 0.46736
 N136 N 0.42982 -0.04901 0.46159
 N137 N 0.46903 0.02846 0.44645
 N138 N 0.46365 0.04774 0.42626
 Mn139 Mn 0.44929 -0.00062 0.49934
 Mn140 Mn 0.49954 -0.00090 0.44619
 Cl141 Cl 0.49966 -0.00060 0.49928
 C142 C 0.43964 0.05981 0.43641
 C143 C 0.43894 -0.06096 0.43605
 N144 N 0.54971 0.52926 0.03201
 N145 N 0.56902 0.54852 0.03741
 N146 N 0.53007 0.47079 0.05309
 N147 N 0.53556 0.45176 0.07352
 N148 N 0.54965 0.47060 0.03235
 N149 N 0.56898 0.45144 0.03808
 N150 N 0.53012 0.52949 0.05274
 N151 N 0.53558 0.54892 0.07284
 C152 C 0.55967 0.56076 0.06267
 C153 C 0.55964 0.43969 0.06356
 N154 N 0.44946 0.47078 0.03230
 N155 N 0.43022 0.45152 0.03786
 N156 N 0.46903 0.52960 0.05281
 N157 N 0.46324 0.54858 0.07331
 N158 N 0.44944 0.52946 0.03206
 N159 N 0.42981 0.54833 0.03786
 N160 N 0.46905 0.47089 0.05305
 N161 N 0.46368 0.45169 0.07332
 Mn162 Mn 0.49957 0.50020 0.05323
 C163 C 0.43963 0.43964 0.06325
 C164 C 0.43898 0.56029 0.06337
 N165 N 0.54967 0.47014 -0.03176
 N166 N 0.56916 0.45111 -0.03743
 N167 N 0.53013 0.52873 -0.05280
 N168 N 0.53563 0.54780 -0.07317
 N169 N 0.54973 0.52881 -0.03205
 N170 N 0.56909 0.54793 -0.03772
 N171 N 0.53008 0.47002 -0.05252
 N172 N 0.53573 0.45090 -0.07290
 Mn173 Mn 0.54995 0.49970 0.00014
 C174 C 0.55992 0.43909 -0.06287
 C175 C 0.55976 0.55976 -0.06317
 N176 N 0.44952 0.52900 -0.03205
 N177 N 0.43032 0.54832 -0.03761
 N178 N 0.46902 0.47014 -0.05250
 N179 N 0.46346 0.45085 -0.07273
 N180 N 0.44943 0.47034 -0.03178
 N181 N 0.43003 0.45120 -0.03731
 N182 N 0.46909 0.52884 -0.05278
 N183 N 0.46374 0.54806 -0.07306
 Mn184 Mn 0.44920 0.49990 0.00013
 Mn185 Mn 0.49958 0.49943 -0.05296
 Cl186 Cl 0.49957 0.49981 0.00014
 C187 C 0.43972 0.56017 -0.06299
 C188 C 0.43933 0.43905 -0.06265
 C189 C 1.23360 0.23169 0.23215
 C190 C 1.21935 0.21622 0.21713
 C191 C 1.20254 0.19765 0.19918
 C192 C 1.18325 0.20847 0.17858
 C193 C 1.16694 0.19044 0.16109
 C194 C 1.16972 0.16130 0.16400
 C195 C 1.18922 0.15064 0.18475
 C196 C 1.20552 0.16872 0.20220
 C197 C 1.15212 0.14216 0.14568
 C198 C 1.14011 0.11805 0.15832
 C199 C 1.12281 0.10052 0.14130
 C200 C 1.11736 0.10678 0.11144
 C201 C 1.12949 0.13050 0.09856
 C202 C 1.14677 0.14808 0.11554
 C203 C 1.09837 0.08955 0.09438
 C204 C 1.08188 0.07562 0.08027
 H205 H 1.18074 0.23084 0.17611
 H206 H 1.15183 0.19929 0.14562
 H207 H 1.19208 0.12833 0.18725
 H208 H 1.22048 0.16013 0.21801
 H209 H 1.14353 0.11312 0.18155
 H210 H 1.11337 0.08230 0.15155
 H211 H 1.12537 0.13556 0.07547
 H212 H 1.15601 0.16626 0.10507
 C213 C 1.23382 0.73160 0.73192
 C214 C 1.21950 0.71617 0.71694
 C215 C 1.20259 0.69764 0.69903
 C216 C 1.20363 0.66880 0.70388
 C217 C 1.18721 0.65077 0.68649
 C218 C 1.16954 0.66138 0.66397
 C219 C 1.16871 0.69042 0.65924
 C220 C 1.18513 0.70841 0.67667
 C221 C 1.15180 0.64231 0.64571
 C222 C 1.14842 0.64690 0.61499
 C223 C 1.13104 0.62942 0.59800
 C224 C 1.11684 0.60713 0.61145
 C225 C 1.12031 0.60220 0.64191
 C226 C 1.13770 0.61964 0.65895
 C227 C 1.09781 0.59006 0.59427
 C228 C 1.08130 0.57623 0.58005
 H229 H 1.21716 0.66025 0.72107
 H230 H 1.18857 0.62851 0.69044
 H231 H 1.15503 0.69927 0.64237
 H232 H 1.18413 0.73071 0.67278
 H233 H 1.15928 0.66394 0.60408
 H234 H 1.12847 0.63344 0.57444
 H235 H 1.10927 0.58512 0.65259
 H236 H 1.13958 0.61577 0.68259
 C237 C 0.73184 0.23306 0.72989
 C238 C 0.71663 0.21927 0.71407
 C239 C 0.69815 0.20282 0.69557
 C240 C 0.70941 0.18315 0.67578
 C241 C 0.69140 0.16676 0.65828
 C242 C 0.66184 0.16983 0.66038
 C243 C 0.65075 0.18981 0.68021
 C244 C 0.66880 0.20618 0.69767
 C245 C 0.64269 0.15190 0.64238
 C246 C 0.61794 0.14067 0.65500
 C247 C 0.60041 0.12304 0.63836
 C248 C 0.60731 0.11645 0.60889
 C249 C 0.63168 0.12778 0.59602
 C250 C 0.64926 0.14540 0.61262
 C251 C 0.59005 0.09718 0.59226
 C252 C 0.57609 0.08051 0.57849
 H253 H 0.73210 0.18030 0.67407
 H254 H 0.70058 0.15131 0.64355
 H255 H 0.62812 0.19291 0.68207
 H256 H 0.65987 0.22140 0.71288
 H257 H 0.61250 0.14498 0.67795
 H258 H 0.58169 0.11424 0.64861
 H259 H 0.63724 0.12279 0.57323
 H260 H 0.66795 0.15399 0.60216
 C261 C 0.73163 0.73331 0.22949
 C262 C 0.71636 0.71974 0.21356
 C263 C 0.69777 0.70360 0.19496
 C264 C 0.70884 0.68361 0.17543
 C265 C 0.69067 0.66748 0.15786
 C266 C 0.66117 0.67114 0.15967
 C267 C 0.65028 0.69146 0.17922
 C268 C 0.66848 0.70758 0.19674
 C269 C 0.64186 0.65340 0.14173
 C270 C 0.61696 0.64254 0.15438
 C271 C 0.59935 0.62490 0.13787
 C272 C 0.60634 0.61797 0.10853
 C273 C 0.63083 0.62899 0.09560
 C274 C 0.64848 0.64661 0.11207
 C275 C 0.58916 0.59850 0.09216
 C276 C 0.57533 0.58160 0.07861
 H277 H 0.73148 0.68032 0.17398
 H278 H 0.69967 0.65175 0.14334
 H279 H 0.62769 0.69498 0.18083
 H280 H 0.65972 0.72305 0.21176
 H281 H 0.61149 0.64709 0.17728
 H282 H 0.58055 0.61631 0.14815
 H283 H 0.63644 0.62370 0.07290
 H284 H 0.66730 0.65494 0.10161
 C285 C 0.76759 -0.23160 0.23142
 C286 C 0.78207 -0.21619 0.21668
 C287 C 0.79911 -0.19766 0.19904
 C288 C 0.79773 -0.16879 0.20377
 C289 C 0.81417 -0.15073 0.18655
 C290 C 0.83220 -0.16135 0.16433
 C291 C 0.83340 -0.19041 0.15974
 C292 C 0.81696 -0.20843 0.17700
 C293 C 0.84989 -0.14224 0.14619
 C294 C 0.85358 -0.14704 0.11553
 C295 C 0.87086 -0.12949 0.09864
 C296 C 0.88465 -0.10690 0.11212
 C297 C 0.88088 -0.10176 0.14253
 C298 C 0.86359 -0.11928 0.15947
 C299 C 0.90357 -0.08973 0.09503
 C300 C 0.91998 -0.07584 0.08085
 H301 H 0.78388 -0.16024 0.22070
 H302 H 0.81253 -0.12845 0.19038
 H303 H 0.84737 -0.19925 0.14311
 H304 H 0.81822 -0.23075 0.17320
 H305 H 0.84302 -0.16431 0.10459
 H306 H 0.87366 -0.13367 0.07512
 H307 H 0.89162 -0.08445 0.15323
 H308 H 0.86146 -0.11524 0.18307
 C309 C 0.76765 0.26845 0.73159
 C310 C 0.78209 0.28390 0.71682
 C311 C 0.79916 0.30248 0.69918
 C312 C 0.82540 0.31165 0.70984
 C313 C 0.84193 0.32978 0.69278
 C314 C 0.83244 0.33899 0.66477
 C315 C 0.80602 0.32964 0.65426
 C316 C 0.78951 0.31153 0.67137
 C317 C 0.85014 0.35807 0.64652
 C318 C 0.85239 0.35423 0.61555
 C319 C 0.86960 0.37176 0.59852
 C320 C 0.88474 0.39341 0.61215
 C321 C 0.88243 0.39759 0.64289
 C322 C 0.86525 0.38008 0.65997
 C323 C 0.90345 0.41066 0.59480
 C324 C 0.91964 0.42467 0.58044
 H325 H 0.83311 0.30474 0.73131
 H326 H 0.86233 0.33626 0.70132
 H327 H 0.79795 0.33661 0.63297
 H328 H 0.76918 0.30464 0.66294
 H329 H 0.84133 0.33728 0.60458
 H330 H 0.87137 0.36821 0.57477
 H331 H 0.89406 0.41427 0.65369
 H332 H 0.86367 0.38383 0.68368
 C333 C 0.26960 -0.23306 0.73066
 C334 C 0.28489 -0.21926 0.71508
 C335 C 0.30345 -0.20271 0.69696
 C336 C 0.31900 -0.18098 0.70986
 C337 C 0.33717 -0.16488 0.69241
 C338 C 0.34003 -0.17034 0.66178
 C339 C 0.32432 -0.19229 0.64902
 C340 C 0.30616 -0.20838 0.66654
 C341 C 0.35896 -0.15288 0.64321
 C342 C 0.35037 -0.14415 0.61473
 C343 C 0.36769 -0.12668 0.59779
 C344 C 0.39380 -0.11780 0.60903
 C345 C 0.40275 -0.12673 0.63713
 C346 C 0.38546 -0.14418 0.65412
 C347 C 0.41075 -0.09847 0.59234
 C348 C 0.42441 -0.08166 0.57857
 H349 H 0.31700 -0.17641 0.73339
 H350 H 0.34864 -0.14788 0.70278
 H351 H 0.32631 -0.19717 0.62558
 H352 H 0.29429 -0.22525 0.65638
 H353 H 0.32995 -0.15020 0.60589
 H354 H 0.36049 -0.11973 0.57614
 H355 H 0.42292 -0.11994 0.64604
 H356 H 0.39281 -0.15086 0.67579
 C357 C 0.26927 0.26712 0.23097
 C358 C 0.28452 0.28101 0.21545
 C359 C 0.30303 0.29767 0.19740
 C360 C 0.31741 0.32029 0.21007
 C361 C 0.33560 0.33646 0.19272
 C362 C 0.33963 0.33019 0.16241
 C363 C 0.32508 0.30738 0.14987
 C364 C 0.30691 0.29121 0.16730
 C365 C 0.35863 0.34768 0.14394
 C366 C 0.35073 0.35531 0.11488
 C367 C 0.36807 0.37278 0.09798
 C368 C 0.39352 0.38277 0.10985
 C369 C 0.40179 0.37494 0.13854
 C370 C 0.38448 0.35748 0.15549
 C371 C 0.41044 0.40211 0.09314
 C372 C 0.42410 0.41892 0.07937
 H373 H 0.31452 0.32547 0.23335
 H374 H 0.34616 0.35413 0.20289
 H375 H 0.32799 0.30188 0.12669
 H376 H 0.29594 0.27366 0.15732
 H377 H 0.33081 0.34838 0.10553
 H378 H 0.36140 0.37889 0.07586
 H379 H 0.42144 0.38259 0.14793
 H380 H 0.39130 0.35166 0.17763
 C381 C 0.76767 0.23137 -0.23247
 C382 C 0.78212 0.21599 -0.21759
 C383 C 0.79920 0.19752 -0.19979
 C384 C 0.78948 0.18854 -0.17200
 C385 C 0.80600 0.17054 -0.15472
 C386 C 0.83250 0.16123 -0.16504
 C387 C 0.84205 0.17038 -0.19304
 C388 C 0.82551 0.18839 -0.21026
 C389 C 0.85020 0.14226 -0.14663
 C390 C 0.86542 0.12025 -0.15992
 C391 C 0.88260 0.10283 -0.14268
 C392 C 0.88480 0.10711 -0.11195
 C393 C 0.86954 0.12877 -0.09847
 C394 C 0.85233 0.14621 -0.11566
 C395 C 0.90350 0.08995 -0.09446
 C396 C 0.91970 0.07597 -0.08003
 H397 H 0.76909 0.19539 -0.16371
 H398 H 0.79789 0.16362 -0.13345
 H399 H 0.86251 0.16393 -0.20143
 H400 H 0.83327 0.19526 -0.23171
 H401 H 0.86394 0.11642 -0.18362
 H402 H 0.89433 0.08615 -0.15336
 H403 H 0.87122 0.13240 -0.07473
 H404 H 0.84118 0.16316 -0.10481
 C405 C 0.76724 0.73130 0.26726
 C406 C 0.78151 0.71581 0.28216
 C407 C 0.79838 0.69723 0.29997
 C408 C 0.79027 0.69110 0.32917
 C409 C 0.80664 0.67303 0.34650
 C410 C 0.83134 0.66082 0.33479
 C411 C 0.83926 0.66707 0.30537
 C412 C 0.82287 0.68516 0.28809
 C413 C 0.84898 0.64191 0.35327
 C414 C 0.86123 0.61778 0.34080
 C415 C 0.87852 0.60045 0.35799
 C416 C 0.88379 0.60698 0.38785
 C417 C 0.87145 0.63075 0.40056
 C418 C 0.85413 0.64809 0.38342
 C419 C 0.90277 0.58996 0.40510
 C420 C 0.91923 0.57616 0.41934
 H421 H 0.77128 0.70025 0.33854
 H422 H 0.79981 0.66837 0.36894
 H423 H 0.85836 0.65833 0.29586
 H424 H 0.82936 0.68981 0.26552
 H425 H 0.85736 0.61226 0.31778
 H426 H 0.88800 0.58212 0.34792
 H427 H 0.87555 0.63610 0.42361
 H428 H 0.84532 0.66669 0.39357
 C429 C 0.26919 0.23353 0.26993
 C430 C 0.28438 0.21986 0.28577
 C431 C 0.30282 0.20356 0.30431
 C432 C 0.29156 0.18363 0.32368
 C433 C 0.30957 0.16734 0.34119
 C434 C 0.33910 0.17078 0.33949
 C435 C 0.35019 0.19103 0.32009
 C436 C 0.33214 0.20731 0.30263
 C437 C 0.35823 0.15289 0.35739
 C438 C 0.38308 0.14183 0.34477
 C439 C 0.40052 0.12406 0.36125
 C440 C 0.39341 0.11720 0.39054
 C441 C 0.36897 0.12841 0.40345
 C442 C 0.35148 0.14616 0.38701
 C443 C 0.41042 0.09764 0.40690
 C444 C 0.42412 0.08068 0.42045
 H445 H 0.26889 0.18051 0.32506
 H446 H 0.30043 0.15166 0.35560
 H447 H 0.37280 0.19438 0.31856
 H448 H 0.34104 0.22273 0.28772
 H449 H 0.38865 0.14633 0.32191
 H450 H 0.41930 0.11533 0.35099
 H451 H 0.36325 0.12318 0.42611
 H452 H 0.33269 0.15464 0.39744
 C453 C 0.26942 0.73344 -0.23029
 C454 C 0.28458 0.71977 -0.21440
 C455 C 0.30299 0.70348 -0.19581
 C456 C 0.29170 0.68356 -0.17645
 C457 C 0.30969 0.66729 -0.15888
 C458 C 0.33922 0.67076 -0.16051
 C459 C 0.35033 0.69100 -0.17989
 C460 C 0.33231 0.70725 -0.19742
 C461 C 0.35833 0.65291 -0.14251
 C462 C 0.38324 0.64189 -0.15503
 C463 C 0.40067 0.62419 -0.13846
 C464 C 0.39349 0.61735 -0.10918
 C465 C 0.36898 0.62852 -0.09638
 C466 C 0.35150 0.64621 -0.11291
 C467 C 0.41051 0.59787 -0.09272
 C468 C 0.42421 0.58098 -0.07908
 H469 H 0.26904 0.68042 -0.17514
 H470 H 0.30052 0.65162 -0.14449
 H471 H 0.37294 0.69437 -0.18137
 H472 H 0.34124 0.72267 -0.21231
 H473 H 0.38887 0.64637 -0.17788
 H474 H 0.41950 0.61548 -0.14864
 H475 H 0.36321 0.62332 -0.07373
 H476 H 0.33266 0.65465 -0.10256
 C477 C 1.23359 -0.23129 -0.23207
 C478 C 1.21915 -0.21584 -0.21726
 C479 C 1.20215 -0.19726 -0.19952
 C480 C 1.17687 -0.18647 -0.21095
 C481 C 1.16041 -0.16832 -0.19376
 C482 C 1.16903 -0.16073 -0.16487
 C483 C 1.19451 -0.17168 -0.15360
 C484 C 1.21095 -0.18981 -0.17085
 C485 C 1.15136 -0.14173 -0.14648
 C486 C 1.14741 -0.14693 -0.11596
 C487 C 1.13011 -0.12949 -0.09884
 C488 C 1.11661 -0.10660 -0.11195
 C489 C 1.12066 -0.10104 -0.14221
 C490 C 1.13793 -0.11847 -0.15938
 C491 C 1.09769 -0.08951 -0.09466
 C492 C 1.08128 -0.07567 -0.08035
 H493 H 1.16985 -0.19214 -0.23311
 H494 H 1.14072 -0.16057 -0.20290
 H495 H 1.20188 -0.16598 -0.13160
 H496 H 1.23055 -0.19797 -0.16183
 H497 H 1.15716 -0.16486 -0.10547
 H498 H 1.12697 -0.13409 -0.07548
 H499 H 1.11027 -0.08339 -0.15259
 H500 H 1.14086 -0.11369 -0.18271
 C501 C 1.23329 0.26872 0.26825
 C502 C 1.21885 0.28413 0.28311
 C503 C 1.20187 0.30268 0.30090
 C504 C 1.18357 0.29189 0.32245
 C505 C 1.16719 0.30992 0.33986
 C506 C 1.16891 0.33903 0.33592
 C507 C 1.18740 0.34966 0.31419
 C508 C 1.20378 0.33158 0.29682
 C509 C 1.15128 0.35816 0.35420
 C510 C 1.13811 0.38151 0.34120
 C511 C 1.12085 0.39906 0.35823
 C512 C 1.11658 0.39355 0.38846
 C513 C 1.12984 0.37058 0.40169
 C514 C 1.14710 0.35299 0.38469
 C515 C 1.09766 0.41077 0.40561
 C516 C 1.08123 0.42472 0.41978
 H517 H 1.18191 0.26954 0.32575
 H518 H 1.15287 0.30108 0.35611
 H519 H 1.18944 0.37196 0.31087
 H520 H 1.21797 0.34015 0.28027
 H521 H 1.14062 0.38585 0.31771
 H522 H 1.11052 0.41668 0.34773
 H523 H 1.12665 0.36611 0.42507
 H524 H 1.15724 0.33541 0.39543
 C525 C 0.73159 -0.23320 0.26868
 C526 C 0.71631 -0.21932 0.28426
 C527 C 0.69772 -0.20267 0.30233
 C528 C 0.69205 -0.21038 0.33175
 C529 C 0.67368 -0.19429 0.34913
 C530 C 0.66071 -0.17032 0.33722
 C531 C 0.66658 -0.16278 0.30762
 C532 C 0.68496 -0.17887 0.29032
 C533 C 0.64141 -0.15301 0.35562
 C534 C 0.61659 -0.14166 0.34322
 C535 C 0.59905 -0.12437 0.36019
 C536 C 0.60603 -0.11823 0.38974
 C537 C 0.63041 -0.12977 0.40244
 C538 C 0.64798 -0.14710 0.38552
 C539 C 0.58898 -0.09899 0.40655
 C540 C 0.57521 -0.08223 0.42036
 H541 H 0.70174 -0.22885 0.34120
 H542 H 0.66934 -0.20077 0.37173
 H543 H 0.65726 -0.14422 0.29798
 H544 H 0.68924 -0.17272 0.26757
 H545 H 0.61078 -0.14615 0.32040
 H546 H 0.58024 -0.11550 0.35015
 H547 H 0.63609 -0.12499 0.42525
 H548 H 0.66710 -0.15525 0.39557
 C549 C 0.73176 0.26666 -0.23090
 C550 C 0.71650 0.28040 -0.21510
 C551 C 0.69798 0.29678 -0.19659
 C552 C 0.70921 0.31627 -0.17658
 C553 C 0.69116 0.33257 -0.15904
 C554 C 0.66160 0.32960 -0.16133
 C555 C 0.65055 0.30980 -0.18140
 C556 C 0.66864 0.29352 -0.19890
 C557 C 0.64242 0.34742 -0.14327
 C558 C 0.61774 0.35883 -0.15592
 C559 C 0.60019 0.37638 -0.13922
 C560 C 0.60700 0.38271 -0.10966
 C561 C 0.63130 0.37120 -0.09675
 C562 C 0.64890 0.35366 -0.11341
 C563 C 0.58975 0.40194 -0.09297
 C564 C 0.57580 0.41858 -0.07915
 H565 H 0.73189 0.31904 -0.17470
 H566 H 0.70032 0.34788 -0.14411
 H567 H 0.62792 0.30678 -0.18342
 H568 H 0.65973 0.27844 -0.21429
 H569 H 0.61237 0.35473 -0.17894
 H570 H 0.58154 0.38533 -0.14949
 H571 H 0.63679 0.37600 -0.07389
 H572 H 0.66753 0.34493 -0.10293
 C573 C 1.23231 0.23114 -0.23256
 C574 C 1.21788 0.21575 -0.21773
 C575 C 1.20087 0.19731 -0.19992
 C576 C 1.18221 0.20826 -0.17873
 C577 C 1.16581 0.19036 -0.16128
 C578 C 1.16784 0.16121 -0.16481
 C579 C 1.18666 0.15040 -0.18619
 C580 C 1.20307 0.16835 -0.20360
 C581 C 1.15023 0.14220 -0.14643
 C582 C 1.13750 0.11844 -0.15918
 C583 C 1.12032 0.10098 -0.14204
 C584 C 1.11567 0.10697 -0.11195
 C585 C 1.12847 0.13038 -0.09898
 C586 C 1.14564 0.14787 -0.11607
 C587 C 1.09690 0.08976 -0.09467
 C588 C 1.08064 0.07581 -0.08035
 H589 H 1.18031 0.23065 -0.17573
 H590 H 1.15123 0.19934 -0.14533
 H591 H 1.18896 0.12807 -0.18920
 H592 H 1.21753 0.15964 -0.21986
 H593 H 1.14032 0.11369 -0.18256
 H594 H 1.11036 0.08302 -0.15236
 H595 H 1.12500 0.13523 -0.07570
 H596 H 1.15544 0.16577 -0.10551
 C597 C 1.23321 0.73213 0.26697
 C598 C 1.21867 0.71684 0.28191
 C599 C 1.20150 0.69849 0.29974
 C600 C 1.20501 0.66952 0.29768
 C601 C 1.18840 0.65167 0.31501
 C602 C 1.16802 0.66257 0.33471
 C603 C 1.16468 0.69174 0.33662
 C604 C 1.18131 0.70955 0.31925
 C605 C 1.15020 0.64363 0.35304
 C606 C 1.14365 0.65046 0.38273
 C607 C 1.12640 0.63295 0.39975
 C608 C 1.11545 0.60836 0.38740
 C609 C 1.12203 0.60125 0.35797
 C610 C 1.13930 0.61872 0.34091
 C611 C 1.09671 0.59097 0.40459
 C612 C 1.08053 0.57687 0.41890
 H613 H 1.22065 0.66072 0.28273
 H614 H 1.19174 0.62935 0.31328
 H615 H 1.14893 0.70080 0.35123
 H616 H 1.17835 0.73194 0.32098
 H617 H 1.15201 0.66927 0.39287
 H618 H 1.12145 0.63869 0.42249
 H619 H 1.11354 0.58236 0.34810
 H620 H 1.14363 0.61303 0.31803
 C621 C 0.73077 0.23302 0.26974
 C622 C 0.71549 0.21927 0.28541
 C623 C 0.69694 0.20286 0.30373
 C624 C 0.70814 0.18439 0.32475
 C625 C 0.69007 0.16802 0.34208
 C626 C 0.66053 0.16989 0.33855
 C627 C 0.64949 0.18868 0.31750
 C628 C 0.66760 0.20505 0.30022
 C629 C 0.64138 0.15193 0.35636
 C630 C 0.61766 0.13924 0.34305
 C631 C 0.60019 0.12153 0.35954
 C632 C 0.60613 0.11633 0.38952
 C633 C 0.62945 0.12912 0.40307
 C634 C 0.64697 0.14682 0.38662
 C635 C 0.58905 0.09694 0.40604
 C636 C 0.57528 0.08017 0.41976
 H637 H 0.73083 0.18247 0.32756
 H638 H 0.69923 0.15348 0.35780
 H639 H 0.62686 0.19085 0.31453
 H640 H 0.65871 0.21933 0.28404
 H641 H 0.61301 0.14245 0.31971
 H642 H 0.58230 0.11158 0.34879
 H643 H 0.63426 0.12520 0.42626
 H644 H 0.66485 0.15656 0.39758
 C645 C 0.73043 0.73317 -0.22994
 C646 C 0.71522 0.71933 -0.21431
 C647 C 0.69675 0.70284 -0.19599
 C648 C 0.70805 0.68409 -0.17532
 C649 C 0.69006 0.66771 -0.15791
 C650 C 0.66050 0.66987 -0.16101
 C651 C 0.64936 0.68893 -0.18173
 C652 C 0.66739 0.70530 -0.19909
 C653 C 0.64141 0.65195 -0.14309
 C654 C 0.61742 0.63956 -0.15617
 C655 C 0.59998 0.62191 -0.13958
 C656 C 0.60625 0.61645 -0.10972
 C657 C 0.62985 0.62894 -0.09640
 C658 C 0.64733 0.64659 -0.11295
 C659 C 0.58919 0.59711 -0.09312
 C660 C 0.57542 0.58037 -0.07937
 H661 H 0.73075 0.68197 -0.17282
 H662 H 0.69928 0.65297 -0.14245
 H663 H 0.62671 0.69131 -0.18437
 H664 H 0.65843 0.71981 -0.21500
 H665 H 0.61251 0.64298 -0.17942
 H666 H 0.58187 0.61219 -0.15016
 H667 H 0.63490 0.62482 -0.07330
 H668 H 0.66543 0.65609 -0.10216
 C669 C 0.76614 -0.23140 -0.23101
 C670 C 0.78048 -0.21603 -0.21598
 C671 C 0.79746 -0.19756 -0.19804
 C672 C 0.81662 -0.20850 -0.17738
 C673 C 0.83314 -0.19058 -0.15996
 C674 C 0.83071 -0.16142 -0.16301
 C675 C 0.81134 -0.15063 -0.18383
 C676 C 0.79483 -0.16860 -0.20121
 C677 C 0.84854 -0.14239 -0.14477
 C678 C 0.86078 -0.11843 -0.15749
 C679 C 0.87823 -0.10098 -0.14054
 C680 C 0.88362 -0.10718 -0.11065
 C681 C 0.87129 -0.13077 -0.09769
 C682 C 0.85385 -0.14826 -0.11461
 C683 C 0.90269 -0.08999 -0.09360
 C684 C 0.91921 -0.07607 -0.07949
 H685 H 0.81887 -0.23089 -0.17480
 H686 H 0.84813 -0.19954 -0.14445
 H687 H 0.80874 -0.12830 -0.18645
 H688 H 0.77998 -0.15991 -0.21707
 H689 H 0.85739 -0.11354 -0.18074
 H690 H 0.88781 -0.08288 -0.15085
 H691 H 0.87535 -0.13578 -0.07458
 H692 H 0.84445 -0.16632 -0.10406
 C693 C 0.76672 0.26823 0.26840
 C694 C 0.78116 0.28364 0.28329
 C695 C 0.79820 0.30222 0.30103
 C696 C 0.79608 0.33114 0.29711
 C697 C 0.81259 0.34924 0.31434
 C698 C 0.83145 0.33864 0.33577
 C699 C 0.83338 0.30952 0.33957
 C700 C 0.81686 0.29146 0.32230
 C701 C 0.84922 0.35781 0.35391
 C702 C 0.85391 0.35251 0.38431
 C703 C 0.87124 0.37016 0.40117
 C704 C 0.88409 0.39334 0.38793
 C705 C 0.87933 0.39895 0.35779
 C706 C 0.86199 0.38135 0.34088
 C707 C 0.90301 0.41068 0.40498
 C708 C 0.91939 0.42470 0.41916
 H709 H 0.78162 0.33970 0.28078
 H710 H 0.81037 0.37154 0.31113
 H711 H 0.84797 0.30068 0.35558
 H712 H 0.81872 0.26911 0.32548
 H713 H 0.84409 0.33479 0.39508
 H714 H 0.87479 0.36560 0.42448
 H715 H 0.88932 0.41673 0.34725
 H716 H 0.85910 0.38579 0.31747
 C717 C 0.26727 -0.23439 0.26828
 C718 C 0.28246 -0.22045 0.28402
 C719 C 0.30088 -0.20381 0.30243
 C720 C 0.28955 -0.18393 0.32194
 C721 C 0.30749 -0.16739 0.33937
 C722 C 0.33706 -0.17050 0.33749
 C723 C 0.34823 -0.19067 0.31792
 C724 C 0.33024 -0.20720 0.30053
 C725 C 0.35615 -0.15248 0.35551
 C726 C 0.38108 -0.14148 0.34304
 C727 C 0.39860 -0.12386 0.35972
 C728 C 0.39152 -0.11704 0.38908
 C729 C 0.36695 -0.12811 0.40179
 C730 C 0.34938 -0.14572 0.38515
 C731 C 0.40886 -0.09787 0.40580
 C732 C 0.42291 -0.08132 0.41968
 H733 H 0.26685 -0.18105 0.32350
 H734 H 0.29824 -0.15180 0.35390
 H735 H 0.37086 -0.19382 0.31622
 H736 H 0.33924 -0.22256 0.28553
 H737 H 0.38670 -0.14598 0.32018
 H738 H 0.41747 -0.11527 0.34958
 H739 H 0.36124 -0.12295 0.42450
 H740 H 0.33055 -0.15413 0.39552
 C741 C 0.26822 0.26633 -0.23075
 C742 C 0.28346 0.27996 -0.21483
 C743 C 0.30194 0.29623 -0.19619
 C744 C 0.29068 0.31587 -0.17637
 C745 C 0.30870 0.33210 -0.15873
 C746 C 0.33825 0.32891 -0.16074
 C747 C 0.34933 0.30895 -0.18059
 C748 C 0.33127 0.29272 -0.19819
 C749 C 0.35739 0.34673 -0.14265
 C750 C 0.38214 0.35799 -0.15522
 C751 C 0.39961 0.37563 -0.13854
 C752 C 0.39264 0.38218 -0.10908
 C753 C 0.36829 0.37077 -0.09624
 C754 C 0.35077 0.35315 -0.11289
 C755 C 0.40975 0.40155 -0.09247
 C756 C 0.42358 0.41835 -0.07875
 H757 H 0.26800 0.31881 -0.17474
 H758 H 0.29954 0.34755 -0.14398
 H759 H 0.37196 0.30577 -0.18238
 H760 H 0.34019 0.27753 -0.21343
 H761 H 0.38761 0.35375 -0.17818
 H762 H 0.41831 0.38450 -0.14876
 H763 H 0.36268 0.37574 -0.07346
 H764 H 0.33207 0.34451 -0.10248
 C765 C 1.23327 -0.23298 0.23261
 C766 C 1.21880 -0.21761 0.21767
 C767 C 1.20172 -0.19911 0.19987
 C768 C 1.18290 -0.20999 0.17877
 C769 C 1.16636 -0.19203 0.16145
 C770 C 1.16841 -0.16287 0.16500
 C771 C 1.18742 -0.15215 0.18627
 C772 C 1.20395 -0.17015 0.20355
 C773 C 1.15065 -0.14378 0.14675
 C774 C 1.13821 -0.11989 0.15956
 C775 C 1.12099 -0.10229 0.14254
 C776 C 1.11600 -0.10826 0.11248
 C777 C 1.12848 -0.13182 0.09946
 C778 C 1.14569 -0.14945 0.11644
 C779 C 1.09729 -0.09080 0.09528
 C780 C 1.08112 -0.07664 0.08099
 H781 H 1.18093 -0.23237 0.17577
 H782 H 1.15166 -0.20098 0.14559
 H783 H 1.18977 -0.12983 0.18930
 H784 H 1.21853 -0.16148 0.21974
 H785 H 1.14130 -0.11512 0.18290
 H786 H 1.11130 -0.08423 0.15292
 H787 H 1.12476 -0.13667 0.07623
 H788 H 1.15525 -0.16744 0.10580
 C789 C 1.23239 0.26835 0.73170
 C790 C 1.21802 0.28389 0.71694
 C791 C 1.20105 0.30255 0.69928
 C792 C 1.20981 0.30996 0.67063
 C793 C 1.19340 0.32813 0.65346
 C794 C 1.16797 0.33918 0.66478
 C795 C 1.15939 0.33163 0.69365
 C796 C 1.17583 0.31343 0.71076
 C797 C 1.15033 0.35826 0.64646
 C798 C 1.13694 0.38153 0.65947
 C799 C 1.11974 0.39905 0.64237
 C800 C 1.11571 0.39358 0.61206
 C801 C 1.12916 0.37065 0.59884
 C802 C 1.14638 0.35312 0.61589
 C803 C 1.09691 0.41081 0.59480
 C804 C 1.08062 0.42477 0.58048
 H805 H 1.22936 0.30173 0.66157
 H806 H 1.20075 0.33380 0.63148
 H807 H 1.13974 0.33945 0.70283
 H808 H 1.16882 0.30779 0.73289
 H809 H 1.13985 0.38627 0.68285
 H810 H 1.10941 0.41672 0.65284
 H811 H 1.12603 0.36611 0.57544
 H812 H 1.15609 0.33519 0.60530
 C813 C 0.73047 -0.23298 0.73128
 C814 C 0.71529 -0.21903 0.71567
 C815 C 0.69687 -0.20227 0.69754
 C816 C 0.68360 -0.17880 0.70980
 C817 C 0.66548 -0.16255 0.69240
 C818 C 0.66037 -0.16958 0.66245
 C819 C 0.67383 -0.19323 0.65032
 C820 C 0.69195 -0.20948 0.66779
 C821 C 0.64135 -0.15208 0.64394
 C822 C 0.64851 -0.14567 0.61435
 C823 C 0.63114 -0.12826 0.59734
 C824 C 0.60638 -0.11712 0.60963
 C825 C 0.59884 -0.12372 0.63888
 C826 C 0.61618 -0.14110 0.65593
 C827 C 0.58940 -0.09793 0.59270
 C828 C 0.57564 -0.08126 0.57878
 H829 H 0.68731 -0.17302 0.73280
 H830 H 0.65578 -0.14424 0.70225
 H831 H 0.67009 -0.19934 0.62744
 H832 H 0.70204 -0.22769 0.65813
 H833 H 0.66791 -0.15352 0.60462
 H834 H 0.63726 -0.12313 0.57478
 H835 H 0.57972 -0.11519 0.64861
 H836 H 0.60990 -0.14597 0.67850
 C837 C 0.73089 0.26677 0.23087
 C838 C 0.71572 0.28083 0.21537
 C839 C 0.69731 0.29778 0.19743
 C840 C 0.68910 0.28879 0.16905
 C841 C 0.67088 0.30519 0.15186
 C842 C 0.66058 0.33078 0.16292
 C843 C 0.66901 0.33961 0.19146
 C844 C 0.68724 0.32321 0.20858
 C845 C 0.64134 0.34835 0.14474
 C846 C 0.61837 0.36230 0.15805
 C847 C 0.60088 0.37969 0.14117
 C848 C 0.60607 0.38334 0.11078
 C849 C 0.62860 0.36925 0.09723
 C850 C 0.64612 0.35182 0.11407
 C851 C 0.58907 0.40251 0.09384
 C852 C 0.57532 0.41916 0.07990
 H853 H 0.69669 0.26907 0.16027
 H854 H 0.66453 0.29770 0.13011
 H855 H 0.66181 0.35939 0.20041
 H856 H 0.69350 0.33037 0.23050
 H857 H 0.61391 0.35974 0.18152
 H858 H 0.58351 0.39052 0.15188
 H859 H 0.63291 0.37207 0.07375
 H860 H 0.66381 0.34163 0.10326
 C861 C 0.76661 0.23125 0.23222
 C862 C 0.78106 0.21579 0.21738
 C863 C 0.79818 0.19721 0.19973
 C864 C 0.82383 0.18712 0.21099
 C865 C 0.84043 0.16899 0.19393
 C866 C 0.83160 0.16069 0.16532
 C867 C 0.80576 0.17095 0.15422
 C868 C 0.78917 0.18907 0.17134
 C869 C 0.84941 0.14165 0.14708
 C870 C 0.85280 0.14627 0.11637
 C871 C 0.87021 0.12881 0.09938
 C872 C 0.88440 0.10647 0.11279
 C873 C 0.88091 0.10151 0.14325
 C874 C 0.86354 0.11895 0.16029
 C875 C 0.90337 0.08934 0.09557
 C876 C 0.91980 0.07547 0.08130
 H877 H 0.83103 0.19333 0.23292
 H878 H 0.86039 0.16179 0.20294
 H879 H 0.79821 0.16470 0.13245
 H880 H 0.76930 0.19668 0.16245
 H881 H 0.84252 0.16376 0.10561
 H882 H 0.87290 0.13296 0.07586
 H883 H 0.89182 0.08429 0.15388
 H884 H 0.86106 0.11461 0.18378
 C885 C 0.76644 0.73178 0.73268
 C886 C 0.78115 0.71658 0.71783
 C887 C 0.79868 0.69841 0.70016
 C888 C 0.82734 0.69516 0.70718
 C889 C 0.84444 0.67759 0.69000
 C890 C 0.83307 0.66299 0.66553
 C891 C 0.80419 0.66632 0.65873
 C892 C 0.78714 0.68393 0.67594
 C893 C 0.85134 0.64455 0.64710
 C894 C 0.84129 0.61863 0.63667
 C895 C 0.85864 0.60128 0.61946
 C896 C 0.88622 0.60962 0.61243
 C897 C 0.89635 0.63539 0.62261
 C898 C 0.87907 0.65274 0.63981
 C899 C 0.90434 0.59183 0.59495
 C900 C 0.92017 0.57747 0.58048
 H901 H 0.83647 0.70618 0.72595
 H902 H 0.86648 0.67517 0.69606
 H903 H 0.79490 0.65565 0.63984
 H904 H 0.76498 0.68634 0.67028
 H905 H 0.82016 0.61160 0.64219
 H906 H 0.85061 0.58134 0.61177
 H907 H 0.91763 0.64209 0.61723
 H908 H 0.88729 0.67272 0.64712
 C909 C 0.26814 0.23293 0.72989
 C910 C 0.28335 0.21923 0.71403
 C911 C 0.30183 0.20289 0.69547
 C912 C 0.33115 0.20659 0.69730
 C913 C 0.34923 0.19032 0.67978
 C914 C 0.33818 0.17012 0.66018
 C915 C 0.30864 0.16672 0.65835
 C916 C 0.29061 0.18300 0.67590
 C917 C 0.35735 0.15229 0.64215
 C918 C 0.35061 0.14560 0.61248
 C919 C 0.36819 0.12800 0.59588
 C920 C 0.39272 0.11688 0.60868
 C921 C 0.39980 0.12368 0.63805
 C922 C 0.38227 0.14130 0.65469
 C923 C 0.40991 0.09754 0.59212
 C924 C 0.42378 0.08078 0.57839
 H925 H 0.34005 0.22197 0.71234
 H926 H 0.37184 0.19366 0.68143
 H927 H 0.29951 0.15109 0.64379
 H928 H 0.26794 0.17991 0.67441
 H929 H 0.33178 0.15402 0.60209
 H930 H 0.36249 0.12283 0.57317
 H931 H 0.41864 0.11503 0.64824
 H932 H 0.38785 0.14576 0.67758
 C933 C 0.26723 0.73340 0.23135
 C934 C 0.28240 0.71944 0.21562
 C935 C 0.30082 0.70279 0.19723
 C936 C 0.33018 0.70620 0.19914
 C937 C 0.34817 0.68971 0.18173
 C938 C 0.33702 0.66955 0.16213
 C939 C 0.30745 0.66642 0.16025
 C940 C 0.28950 0.68292 0.17770
 C941 C 0.35611 0.65158 0.14408
 C942 C 0.34931 0.64485 0.11442
 C943 C 0.36690 0.62730 0.09775
 C944 C 0.39152 0.61625 0.11044
 C945 C 0.39863 0.62303 0.13981
 C946 C 0.38109 0.64060 0.15653
 C947 C 0.40888 0.59713 0.09368
 C948 C 0.42294 0.58062 0.07978
 H949 H 0.33917 0.72156 0.21415
 H950 H 0.37080 0.69288 0.18343
 H951 H 0.29821 0.65084 0.14570
 H952 H 0.26681 0.68003 0.17612
 H953 H 0.33045 0.65325 0.10408
 H954 H 0.36117 0.62217 0.07504
 H955 H 0.41754 0.61446 0.14993
 H956 H 0.38673 0.64507 0.17940
   
