data_POSCAR
  _audit_creation_date              2014-09-24
  _audit_creation_method            'ToBaCCo'
  _symmetry_space_group_name_H-M    'P1'
  _symmetry_Int_Tables_number       1
  _symmetry_cell_setting            triclinic
  loop_
  _symmetry_equiv_pos_as_xyz
 x,y,z
_cell_length_a 43.5992
_cell_length_b 36.3156
_cell_length_c 39.8357
_cell_angle_alpha 90.334600
_cell_angle_beta 89.903600
_cell_angle_gamma 89.441400
loop_
  _atom_site_label
  _atom_site_type_symbol
  _atom_site_fract_x
  _atom_site_fract_y
  _atom_site_fract_z
C1 C 0.29884 0.30796 0.23420
 H2 H 0.29996 0.31126 0.26118
 C3 C 0.31819 0.32833 0.21357
 H4 H 0.33390 0.34765 0.22491
 C5 C 0.27646 0.27925 0.18677
 H6 H 0.26048 0.25973 0.17639
 C7 C 0.29542 0.29894 0.16523
 H8 H 0.29380 0.29421 0.13844
 N9 N 0.27808 0.28456 0.22054
 C10 C 0.20448 0.27758 0.29449
 H11 H 0.20256 0.24799 0.29647
 C12 C 0.18559 0.30054 0.31390
 H13 H 0.16942 0.28832 0.33111
 C14 C 0.22861 0.32921 0.27023
 H15 H 0.24511 0.34033 0.25289
 C16 C 0.21017 0.35319 0.28915
 H17 H 0.21274 0.38261 0.28612
 Zn18 Zn 0.25170 0.25880 0.24979
 N19 N 0.22596 0.29214 0.27377
 C20 C 0.27383 0.23761 0.31372
 N21 N 0.27647 0.23158 0.28011
 C22 C 0.29717 0.20677 0.26761
 C23 C 0.31526 0.18565 0.28930
 C24 C 0.29139 0.21712 0.33625
 C25 C 0.20490 0.24363 0.20436
 C26 C 0.18527 0.22234 0.18478
 C27 C 0.20853 0.16760 0.20822
 C28 C 0.22764 0.18998 0.22750
 N29 N 0.22585 0.22727 0.22482
 H30 H 0.25812 0.25831 0.32325
 H31 H 0.29925 0.20300 0.24074
 H32 H 0.33095 0.16526 0.27893
 H33 H 0.28884 0.22230 0.36291
 H34 H 0.20375 0.27336 0.20299
 H35 H 0.16925 0.23590 0.16807
 H36 H 0.21029 0.13797 0.21061
 H37 H 0.24386 0.17746 0.24451
 C38 C 0.18858 0.33893 0.31170
 C39 C 0.31641 0.32423 0.17853
 C40 C 0.18712 0.18377 0.18636
 C41 C 0.31214 0.19036 0.32417
 C42 C 0.79899 0.79317 0.23660
 H43 H 0.80000 0.79513 0.26369
 C44 C 0.81985 0.81262 0.21700
 H45 H 0.83599 0.83010 0.22988
 C46 C 0.77528 0.76905 0.18801
 H47 H 0.75832 0.75144 0.17673
 C48 C 0.79552 0.78809 0.16741
 H49 H 0.79374 0.78367 0.14063
 N50 N 0.77691 0.77250 0.22192
 C51 C 0.70059 0.76874 0.29281
 H52 H 0.69702 0.73933 0.29395
 C53 C 0.68207 0.79260 0.31176
 H54 H 0.66452 0.78125 0.32781
 C55 C 0.72846 0.81899 0.27109
 H56 H 0.74632 0.82924 0.25495
 C57 C 0.71048 0.84384 0.28961
 H58 H 0.71477 0.87305 0.28747
 Zn59 Zn 0.74867 0.74777 0.24988
 N60 N 0.72368 0.78215 0.27356
 C61 C 0.76744 0.72283 0.31407
 N62 N 0.77142 0.71845 0.28041
 C63 C 0.79207 0.69361 0.26788
 C64 C 0.80889 0.67097 0.28949
 C65 C 0.78369 0.70075 0.33654
 C66 C 0.70234 0.73574 0.20288
 C67 C 0.68273 0.71562 0.18224
 C68 C 0.70405 0.65955 0.20525
 C69 C 0.72316 0.68076 0.22556
 N70 N 0.72237 0.71814 0.22358
 H71 H 0.75168 0.74344 0.32367
 H72 H 0.79516 0.69109 0.24101
 H73 H 0.82465 0.65072 0.27903
 H74 H 0.78018 0.70469 0.36324
 H75 H 0.70195 0.76552 0.20210
 H76 H 0.66750 0.73013 0.16532
 H77 H 0.70505 0.62982 0.20706
 H78 H 0.73864 0.66725 0.24277
 C79 C 0.68718 0.83071 0.31065
 C80 C 0.81821 0.81092 0.18158
 C81 C 0.68367 0.67698 0.18303
 C82 C 0.80452 0.67413 0.32434
 C83 C 0.80044 0.28712 0.73671
 H84 H 0.80139 0.29062 0.76368
 C85 C 0.81998 0.30725 0.71613
 H86 H 0.83567 0.32656 0.72750
 C87 C 0.77808 0.25838 0.68928
 H88 H 0.76199 0.23901 0.67890
 C89 C 0.79721 0.27791 0.66776
 H90 H 0.79560 0.27326 0.64096
 N91 N 0.77953 0.26391 0.72304
 C92 C 0.70619 0.26117 0.79751
 H93 H 0.70404 0.23177 0.80090
 C94 C 0.68799 0.28545 0.81639
 H95 H 0.67206 0.27448 0.83456
 C96 C 0.73034 0.31103 0.77035
 H97 H 0.74657 0.32095 0.75212
 C98 C 0.71262 0.33629 0.78871
 H99 H 0.71549 0.36546 0.78436
 Zn100 Zn 0.75263 0.23952 0.75276
 N101 N 0.72736 0.27426 0.77562
 C102 C 0.77572 0.22188 0.81715
 N103 N 0.77709 0.21321 0.78402
 C104 C 0.79659 0.18664 0.77257
 C105 C 0.81452 0.16619 0.79492
 C106 C 0.79336 0.20249 0.84041
 C107 C 0.70660 0.22256 0.70642
 C108 C 0.68745 0.20026 0.68713
 C109 C 0.70862 0.14700 0.71517
 C110 C 0.72729 0.17032 0.73398
 N111 N 0.72650 0.20731 0.72875
 H112 H 0.76124 0.24432 0.82572
 H113 H 0.79770 0.18070 0.74594
 H114 H 0.82798 0.14404 0.78410
 H115 H 0.79200 0.21211 0.86604
 H116 H 0.70608 0.25211 0.70314
 H117 H 0.67252 0.21286 0.66870
 H118 H 0.70975 0.11760 0.71949
 H119 H 0.74243 0.15873 0.75262
 C120 C 0.69142 0.32361 0.81246
 C121 C 0.81823 0.30315 0.68110
 C122 C 0.68865 0.16187 0.69106
 C123 C 0.81309 0.17323 0.83000
 C124 C 0.29641 0.79882 0.72824
 H125 H 0.29947 0.80129 0.75510
 C126 C 0.31468 0.81928 0.70650
 H127 H 0.33150 0.83786 0.71687
 C128 C 0.27024 0.77207 0.68224
 H129 H 0.25328 0.75323 0.67278
 C130 C 0.28800 0.79192 0.65963
 H131 H 0.28438 0.78810 0.63296
 N132 N 0.27424 0.77642 0.71587
 C133 C 0.20642 0.76907 0.79631
 H134 H 0.20427 0.73949 0.79801
 C135 C 0.18918 0.79199 0.81753
 H136 H 0.17406 0.77974 0.83584
 C137 C 0.22927 0.82076 0.77068
 H138 H 0.24452 0.83193 0.75204
 C139 C 0.21247 0.84469 0.79141
 H140 H 0.21507 0.87411 0.78846
 Zn141 Zn 0.24934 0.75047 0.74662
 N142 N 0.22639 0.78368 0.77388
 C143 C 0.27643 0.72566 0.80734
 N144 N 0.27560 0.72103 0.77344
 C145 C 0.29385 0.69563 0.75780
 C146 C 0.31281 0.67234 0.77652
 C147 C 0.29527 0.70322 0.82699
 C148 C 0.19955 0.73814 0.70392
 C149 C 0.17879 0.71783 0.68482
 C150 C 0.20150 0.66198 0.70665
 C151 C 0.22174 0.68335 0.72542
 N152 N 0.22092 0.72072 0.72311
 H153 H 0.26242 0.74664 0.81929
 H154 H 0.29326 0.69308 0.73073
 H155 H 0.32690 0.65195 0.76370
 H156 H 0.29510 0.70673 0.85401
 H157 H 0.19911 0.76790 0.70291
 H158 H 0.16262 0.73220 0.66886
 H159 H 0.20267 0.63227 0.70858
 H160 H 0.23815 0.66995 0.74163
 C161 C 0.19229 0.83037 0.81544
 C162 C 0.31028 0.81634 0.67166
 C163 C 0.17993 0.67919 0.68566
 C164 C 0.31346 0.67582 0.81162
 C165 C -0.02703 -0.02824 0.02716
 C166 C -0.01304 -0.00406 0.00471
 C167 C -0.03107 0.01752 -0.01679
 C168 C -0.06322 0.01515 -0.01600
 C169 C -0.07695 -0.00978 0.00621
 C170 C -0.05909 -0.03146 0.02796
 C171 C 0.02053 -0.00071 0.00424
 C172 C 0.03791 -0.01954 -0.02010
 C173 C 0.07001 -0.01655 -0.02064
 C174 C 0.08444 0.00581 0.00345
 C175 C 0.06718 0.02498 0.02788
 C176 C 0.03514 0.02139 0.02814
 H177 H -0.01289 -0.04483 0.04367
 H178 H -0.01998 0.03685 -0.03338
 H179 H 0.02633 -0.03625 -0.03870
 H180 H 0.02148 0.03561 0.04702
 H181 H -0.10169 -0.01205 0.00689
 H182 H 0.10916 0.00837 0.00314
 C183 C -0.03545 0.47257 0.52366
 C184 C -0.02183 0.49652 0.50073
 C185 C -0.04018 0.51710 0.47879
 C186 C -0.07227 0.51428 0.47990
 C187 C -0.08568 0.48989 0.50281
 C188 C -0.06747 0.46879 0.52473
 C189 C 0.01168 0.50060 0.50013
 C190 C 0.02912 0.48343 0.47487
 C191 C 0.06117 0.48705 0.47425
 C192 C 0.07545 0.50849 0.49911
 C193 C 0.05813 0.52604 0.52445
 C194 C 0.02616 0.52174 0.52485
 H195 H -0.02097 0.45647 0.54023
 H196 H -0.02943 0.53610 0.46162
 H197 H 0.01766 0.46741 0.45568
 H198 H 0.01247 0.53471 0.54443
 H199 H -0.11041 0.48754 0.50375
 H200 H 0.10013 0.51153 0.49874
 C201 C 0.46559 -0.02191 0.52019
 C202 C 0.48188 0.00206 0.49938
 C203 C 0.46598 0.02644 0.47830
 C204 C 0.43378 0.02746 0.47837
 C205 C 0.41775 0.00299 0.49899
 C206 C 0.43339 -0.02202 0.51974
 C207 C 0.51562 0.00147 0.49954
 C208 C 0.53177 -0.01594 0.47334
 C209 C 0.56398 -0.01696 0.47346
 C210 C 0.57977 -0.00027 0.50013
 C211 C 0.56384 0.01734 0.52645
 C212 C 0.53165 0.01810 0.52599
 H213 H 0.47805 -0.04107 0.53599
 H214 H 0.47870 0.04515 0.46255
 H215 H 0.51923 -0.02853 0.45288
 H216 H 0.51903 0.03136 0.54626
 H217 H 0.39290 0.00340 0.49885
 H218 H 0.60462 -0.00102 0.50043
 C219 C 0.46933 0.47826 0.01646
 C220 C 0.48473 0.49898 -0.00770
 C221 C 0.46806 0.51791 -0.03227
 C222 C 0.43591 0.51639 -0.03279
 C223 C 0.42066 0.49517 -0.00867
 C224 C 0.43717 0.47596 0.01610
 C225 C 0.51838 0.50109 -0.00712
 C226 C 0.53588 0.48211 -0.03124
 C227 C 0.56805 0.48381 -0.03072
 C228 C 0.58244 0.50532 -0.00598
 C229 C 0.56506 0.52472 0.01819
 C230 C 0.53295 0.52216 0.01757
 H231 H 0.48254 0.46337 0.03508
 H232 H 0.48017 0.53387 -0.05089
 H233 H 0.52437 0.46611 -0.05041
 H234 H 0.51920 0.53653 0.03627
 H235 H 0.39582 0.49462 -0.00854
 H236 H 0.60723 0.50697 -0.00554
 C237 C 0.14221 -0.09891 -0.11708
 C238 C 0.17270 -0.09059 -0.12543
 C239 C 0.18887 -0.11343 -0.14765
 C240 C 0.17497 -0.14472 -0.16150
 C241 C 0.14453 -0.15215 -0.15240
 N242 N 0.12922 -0.12948 -0.13072
 C243 C 0.12403 -0.07635 -0.09294
 N244 N 0.09933 -0.09182 -0.07775
 C245 C 0.08166 -0.07326 -0.05502
 C246 C 0.08853 -0.03679 -0.04620
 C247 C 0.11356 -0.02005 -0.06194
 C248 C 0.13125 -0.03959 -0.08536
 H249 H 0.21253 -0.10710 -0.15335
 H250 H 0.13281 -0.17579 -0.16267
 H251 H 0.06266 -0.08730 -0.04338
 H252 H 0.11923 0.00832 -0.05646
 H253 H 0.18440 -0.06739 -0.11440
 H254 H 0.14996 -0.02566 -0.09759
 C255 C 0.13523 0.40888 0.37677
 C256 C 0.16590 0.41769 0.36979
 C257 C 0.18308 0.39523 0.34818
 C258 C 0.16998 0.36386 0.33353
 C259 C 0.13925 0.35609 0.34105
 N260 N 0.12298 0.37835 0.36225
 C261 C 0.11622 0.43061 0.40074
 N262 N 0.09157 0.41426 0.41523
 C263 C 0.07345 0.43185 0.43816
 C264 C 0.07983 0.46815 0.44800
 C265 C 0.10470 0.48585 0.43286
 C266 C 0.12283 0.46733 0.40918
 H267 H 0.20690 0.40182 0.34372
 H268 H 0.12812 0.33240 0.33010
 H269 H 0.05456 0.41711 0.44929
 H270 H 0.10999 0.51414 0.43914
 H271 H 0.17700 0.44088 0.38159
 H272 H 0.14149 0.48191 0.39752
 C273 C 0.63514 -0.09693 0.37481
 C274 C 0.66656 -0.09067 0.36970
 C275 C 0.68332 -0.11388 0.34837
 C276 C 0.66907 -0.14354 0.33218
 C277 C 0.63763 -0.14884 0.33788
 N278 N 0.62176 -0.12586 0.35882
 C279 C 0.61649 -0.07437 0.39853
 N280 N 0.59023 -0.08880 0.41127
 C281 C 0.57260 -0.07059 0.43431
 C282 C 0.58137 -0.03583 0.44623
 C283 C 0.60780 -0.01992 0.43270
 C284 C 0.62528 -0.03890 0.40876
 H285 H 0.70767 -0.10926 0.34536
 H286 H 0.62564 -0.17119 0.32571
 H287 H 0.55237 -0.08383 0.44410
 H288 H 0.61495 0.00724 0.44065
 H289 H 0.67854 -0.06895 0.38273
 H290 H 0.64528 -0.02567 0.39849
 C291 C 0.64061 0.39814 -0.12431
 C292 C 0.67140 0.40555 -0.13208
 C293 C 0.68775 0.38154 -0.15308
 C294 C 0.67374 0.35000 -0.16627
 C295 C 0.64297 0.34357 -0.15792
 N296 N 0.62749 0.36736 -0.13741
 C297 C 0.62228 0.42170 -0.10112
 N298 N 0.59683 0.40726 -0.08659
 C299 C 0.57905 0.42662 -0.06454
 C300 C 0.58663 0.46287 -0.05570
 C301 C 0.61244 0.47859 -0.07078
 C302 C 0.63020 0.45827 -0.09357
 H303 H 0.71165 0.38714 -0.15823
 H304 H 0.63118 0.31975 -0.16773
 H305 H 0.55941 0.41336 -0.05339
 H306 H 0.61870 0.50676 -0.06522
 H307 H 0.68321 0.42887 -0.12144
 H308 H 0.64957 0.47144 -0.10527
 C309 C -0.13682 0.10917 -0.10099
 C310 C -0.16076 0.13205 -0.08965
 C311 C -0.17732 0.15328 -0.11246
 C312 C -0.17031 0.15275 -0.14725
 C313 C -0.14540 0.12962 -0.15711
 N314 N -0.12980 0.10910 -0.13423
 C315 C -0.11859 0.08534 -0.07811
 N316 N -0.09188 0.07009 -0.08966
 C317 C -0.07390 0.04777 -0.07050
 C318 C -0.08254 0.03939 -0.03746
 C319 C -0.11005 0.05464 -0.02509
 C320 C -0.12816 0.07729 -0.04525
 H321 H -0.19650 0.16856 -0.10214
 H322 H -0.13706 0.12844 -0.18257
 H323 H -0.05312 0.03624 -0.08129
 H324 H -0.11750 0.04937 0.00036
 H325 H -0.16698 0.13396 -0.06344
 H326 H -0.14948 0.08772 -0.03497
 C327 C -0.14652 0.60476 0.39289
 C328 C -0.17773 0.61270 0.39850
 C329 C -0.19362 0.63523 0.37612
 C330 C -0.17873 0.64970 0.34795
 C331 C -0.14772 0.64046 0.34281
 N332 N -0.13264 0.61861 0.36509
 C333 C -0.12829 0.58140 0.41602
 N334 N -0.10201 0.56512 0.40447
 C335 C -0.08388 0.54363 0.42420
 C336 C -0.09184 0.53746 0.45786
 C337 C -0.11864 0.55429 0.47040
 C338 C -0.13681 0.57631 0.44971
 H339 H -0.21772 0.64088 0.38059
 H340 H -0.13531 0.65111 0.32147
 H341 H -0.06347 0.53107 0.41347
 H342 H -0.12522 0.55105 0.49643
 H343 H -0.19007 0.60128 0.41950
 H344 H -0.15681 0.58972 0.46042
 C345 C 0.36322 0.12377 0.39319
 C346 C 0.33218 0.13197 0.39957
 C347 C 0.31568 0.15366 0.37708
 C348 C 0.32977 0.16708 0.34799
 C349 C 0.36065 0.15767 0.34212
 N350 N 0.37635 0.13658 0.36454
 C351 C 0.38172 0.10060 0.41624
 N352 N 0.40702 0.08258 0.40415
 C353 C 0.42448 0.05993 0.42359
 C354 C 0.41655 0.05404 0.45728
 C355 C 0.39115 0.07319 0.47050
 C356 C 0.37384 0.09657 0.45023
 H357 H 0.29169 0.15938 0.38215
 H358 H 0.37242 0.16750 0.32003
 H359 H 0.44397 0.04573 0.41247
 H360 H 0.38473 0.07015 0.49661
 H361 H 0.32035 0.12122 0.42122
 H362 H 0.35473 0.11142 0.46136
 C363 C 0.36651 0.60325 -0.12676
 C364 C 0.35032 0.58890 -0.15425
 C365 C 0.33339 0.61264 -0.17468
 C366 C 0.33247 0.65057 -0.16778
 C367 C 0.34943 0.66386 -0.14044
 N368 N 0.36585 0.64024 -0.12099
 C369 C 0.38441 0.57946 -0.10384
 N370 N 0.40856 0.59418 -0.08700
 C371 C 0.42556 0.57443 -0.06478
 C372 C 0.41822 0.53770 -0.05791
 C373 C 0.39329 0.52199 -0.07478
 C374 C 0.37639 0.54270 -0.09779
 H375 H 0.32055 0.60127 -0.19550
 H376 H 0.34971 0.69299 -0.13460
 H377 H 0.44434 0.58771 -0.05193
 H378 H 0.38693 0.49371 -0.07017
 H379 H 0.35087 0.55980 -0.16019
 H380 H 0.35686 0.53026 -0.10995
 C381 C -0.12344 -0.12538 0.11997
 C382 C -0.11379 -0.13525 0.15232
 C383 C -0.13291 -0.15630 0.17263
 C384 C -0.16174 -0.16826 0.16098
 C385 C -0.17001 -0.15823 0.12798
 N386 N -0.15111 -0.13739 0.10896
 C387 C -0.10495 -0.10222 0.09713
 N388 N -0.11372 -0.09982 0.06441
 C389 C -0.09914 -0.07814 0.04189
 C390 C -0.07410 -0.05678 0.05189
 C391 C -0.06436 -0.05900 0.08537
 C392 C -0.07973 -0.08149 0.10808
 H393 H -0.12425 -0.16419 0.19699
 H394 H -0.19204 -0.16519 0.11749
 H395 H -0.10719 -0.07759 0.01621
 H396 H -0.04543 -0.04250 0.09423
 H397 H -0.09163 -0.12751 0.16199
 H398 H -0.07224 -0.08155 0.13391
 C399 C -0.12762 0.37100 0.61680
 C400 C -0.11451 0.35649 0.64616
 C401 C -0.13201 0.33409 0.66699
 C402 C -0.16246 0.32584 0.65863
 C403 C -0.17446 0.34029 0.62874
 N404 N -0.15703 0.36214 0.60896
 C405 C -0.11065 0.39551 0.59384
 N406 N -0.12082 0.39915 0.56172
 C407 C -0.10728 0.42189 0.53929
 C408 C -0.08196 0.44312 0.54880
 C409 C -0.07105 0.43986 0.58179
 C410 C -0.08532 0.41623 0.60437
 H411 H -0.12161 0.32291 0.68944
 H412 H -0.19790 0.33497 0.62142
 H413 H -0.11625 0.42319 0.51401
 H414 H -0.05197 0.45625 0.59040
 H415 H -0.09095 0.36179 0.65290
 H416 H -0.07701 0.41519 0.62990
 C417 C 0.36196 -0.11774 0.60336
 C418 C 0.33065 -0.12385 0.59747
 C419 C 0.31396 -0.14540 0.61966
 C420 C 0.32816 -0.16083 0.64793
 C421 C 0.35939 -0.15362 0.65324
 N422 N 0.37524 -0.13254 0.63118
 C423 C 0.38060 -0.09461 0.58074
 N424 N 0.40609 -0.07785 0.59304
 C425 C 0.42371 -0.05533 0.57398
 C426 C 0.41578 -0.04830 0.54046
 C427 C 0.39016 -0.06616 0.52704
 C428 C 0.37265 -0.08937 0.54693
 H429 H 0.28974 -0.14936 0.61505
 H430 H 0.37130 -0.16507 0.67465
 H431 H 0.44334 -0.04216 0.58529
 H432 H 0.38374 -0.06230 0.50103
 H433 H 0.31880 -0.11149 0.57647
 H434 H 0.35334 -0.10321 0.53569
 C435 C 0.37182 0.38905 0.11292
 C436 C 0.38447 0.37556 0.14291
 C437 C 0.36647 0.35441 0.16431
 C438 C 0.33596 0.34647 0.15594
 C439 C 0.32433 0.36022 0.12559
 N440 N 0.34229 0.38074 0.10518
 C441 C 0.38965 0.41140 0.08896
 N442 N 0.38041 0.41261 0.05635
 C443 C 0.39515 0.43281 0.03281
 C444 C 0.42088 0.45372 0.04160
 C445 C 0.43068 0.45314 0.07515
 C446 C 0.41515 0.43214 0.09887
 H447 H 0.37660 0.34374 0.18711
 H448 H 0.30086 0.35517 0.11825
 H449 H 0.38695 0.43213 0.00720
 H450 H 0.44998 0.46948 0.08322
 H451 H 0.40811 0.38048 0.14959
 H452 H 0.42273 0.43298 0.12469
 C453 C 0.13070 0.11797 0.12220
 C454 C 0.11793 0.14887 0.13867
 C455 C 0.13624 0.17016 0.15977
 C456 C 0.16714 0.16065 0.16490
 C457 C 0.17881 0.12908 0.14870
 N458 N 0.16061 0.10896 0.12803
 C459 C 0.11291 0.09465 0.09867
 N460 N 0.12439 0.06083 0.09019
 C461 C 0.11015 0.03810 0.06806
 C462 C 0.08259 0.04906 0.05277
 C463 C 0.07028 0.08377 0.06109
 C464 C 0.08535 0.10667 0.08383
 H465 H 0.12615 0.19387 0.17235
 H466 H 0.20255 0.12084 0.15179
 H467 H 0.12031 0.01142 0.06260
 H468 H 0.04938 0.09359 0.04936
 H469 H 0.09408 0.15656 0.13583
 H470 H 0.07574 0.13368 0.08880
 C471 C 0.12209 0.61584 0.62094
 C472 C 0.10983 0.64667 0.63802
 C473 C 0.12859 0.66721 0.65930
 C474 C 0.15939 0.65700 0.66402
 C475 C 0.17054 0.62559 0.64713
 N476 N 0.15195 0.60624 0.62632
 C477 C 0.10397 0.59324 0.59713
 N478 N 0.11560 0.55992 0.58733
 C479 C 0.10126 0.53791 0.56469
 C480 C 0.07344 0.54915 0.55018
 C481 C 0.06086 0.58327 0.55997
 C482 C 0.07603 0.60543 0.58326
 H483 H 0.11892 0.69086 0.67235
 H484 H 0.19421 0.61688 0.64981
 H485 H 0.11161 0.51163 0.55813
 H486 H 0.03970 0.59326 0.54893
 H487 H 0.08608 0.65489 0.63547
 H488 H 0.06620 0.63205 0.58935
 C489 C 0.63538 0.09286 0.62636
 C490 C 0.66566 0.08265 0.63448
 C491 C 0.68274 0.10484 0.65600
 C492 C 0.67002 0.13739 0.66934
 C493 C 0.63974 0.14667 0.66067
 N494 N 0.62349 0.12457 0.63968
 C495 C 0.61648 0.07140 0.60236
 N496 N 0.59136 0.08788 0.58845
 C497 C 0.57363 0.07081 0.56512
 C498 C 0.58114 0.03512 0.55403
 C499 C 0.60632 0.01715 0.56869
 C500 C 0.62386 0.03497 0.59298
 H501 H 0.70625 0.09706 0.66141
 H502 H 0.62895 0.17141 0.67057
 H503 H 0.55435 0.08560 0.55443
 H504 H 0.61244 -0.01072 0.56132
 H505 H 0.67667 0.05854 0.62375
 H506 H 0.64281 0.02007 0.60408
 C507 C 0.62792 0.61436 0.11563
 C508 C 0.61528 0.64528 0.13219
 C509 C 0.63338 0.66558 0.15430
 C510 C 0.66390 0.65504 0.16035
 C511 C 0.67544 0.62352 0.14394
 N512 N 0.65747 0.60438 0.12230
 C513 C 0.61036 0.59198 0.09117
 N514 N 0.62136 0.55796 0.08264
 C515 C 0.60727 0.53599 0.05977
 C516 C 0.58037 0.54801 0.04376
 C517 C 0.56859 0.58297 0.05208
 C518 C 0.58351 0.60507 0.07558
 H519 H 0.62339 0.68929 0.16698
 H520 H 0.69891 0.61454 0.14771
 H521 H 0.61701 0.50909 0.05431
 H522 H 0.54823 0.59359 0.03980
 H523 H 0.59168 0.65370 0.12867
 H524 H 0.57434 0.63230 0.08058
   
