data_POSCAR
  _audit_creation_date              2014-09-24
  _audit_creation_method            'ToBaCCo'
  _symmetry_space_group_name_H-M    'P1'
  _symmetry_Int_Tables_number       1
  _symmetry_cell_setting            triclinic
  loop_
  _symmetry_equiv_pos_as_xyz
 x,y,z
_cell_length_a 59.3666
_cell_length_b 55.7014
_cell_length_c 8.7850
_cell_angle_alpha 89.594200
_cell_angle_beta 89.953700
_cell_angle_gamma 90.060500
loop_
  _atom_site_label
  _atom_site_type_symbol
  _atom_site_fract_x
  _atom_site_fract_y
  _atom_site_fract_z
O1 O 0.23184 0.27356 0.10423
 O2 O 0.27485 0.22664 0.15672
 O3 O 0.23173 0.22689 0.09817
 O4 O 0.27485 0.27325 0.16430
 O5 O 0.26766 0.27209 0.41123
 O6 O 0.22455 0.22572 0.34508
 O7 O 0.26766 0.22544 0.40366
 O8 O 0.22464 0.27237 0.35114
 Cu9 Cu 0.25408 0.25019 0.10631
 Cu10 Cu 0.24535 0.24877 0.40238
 C11 C 0.22090 0.28082 0.21913
 C12 C 0.27864 0.21824 0.28876
 C13 C 0.22075 0.21857 0.21080
 C14 C 0.27863 0.28041 0.29860
 O15 O 0.77462 0.27297 0.34443
 O16 O 0.73159 0.22613 0.40420
 O17 O 0.77467 0.22632 0.34440
 O18 O 0.73156 0.27282 0.40493
 O19 O 0.72427 0.27307 0.15812
 O20 O 0.76739 0.22659 0.09760
 O21 O 0.72432 0.22642 0.15741
 O22 O 0.76732 0.27325 0.09763
 Cu23 Cu 0.75388 0.24953 0.39907
 Cu24 Cu 0.74505 0.24986 0.10312
 C25 C 0.77833 0.28090 0.21107
 C26 C 0.72059 0.21847 0.29067
 C27 C 0.77842 0.21872 0.21103
 C28 C 0.72054 0.28069 0.29144
 O29 O 0.76852 0.77234 0.90578
 O30 O 0.72551 0.72576 0.84147
 O31 O 0.76858 0.72566 0.90144
 O32 O 0.72540 0.77238 0.84814
 O33 O 0.73256 0.77334 0.60114
 O34 O 0.77579 0.72665 0.65454
 O35 O 0.73273 0.72670 0.59454
 O36 O 0.77567 0.77329 0.65876
 Cu37 Cu 0.74625 0.74893 0.89882
 Cu38 Cu 0.75495 0.75010 0.60272
 C39 C 0.77945 0.78059 0.79271
 C40 C 0.72175 0.71848 0.70739
 C41 C 0.77958 0.71836 0.78691
 C42 C 0.72158 0.78064 0.71579
 O43 O 0.22426 0.77307 0.65871
 O44 O 0.26719 0.72641 0.59793
 O45 O 0.22417 0.72642 0.65936
 O46 O 0.26726 0.77306 0.59704
 O47 O 0.27471 0.77287 0.84362
 O48 O 0.23159 0.72619 0.90593
 O49 O 0.27464 0.72622 0.84450
 O50 O 0.23169 0.77289 0.90531
 Cu51 Cu 0.24492 0.74976 0.60373
 Cu52 Cu 0.25394 0.74952 0.89944
 C53 C 0.22064 0.78077 0.79199
 C54 C 0.27828 0.71856 0.71113
 C55 C 0.22050 0.71853 0.79283
 C56 C 0.27837 0.78073 0.71000
 C57 C 1.02076 0.05112 0.03632
 C58 C 1.00029 0.06337 0.04596
 C59 C 0.97979 0.05112 0.03810
 C60 C 0.97953 0.02593 0.02016
 C61 C 1.00021 0.01330 0.01018
 C62 C 1.02093 0.02593 0.01847
 C63 C 1.04124 0.01305 0.00851
 C64 C 1.04120 -0.01177 -0.00953
 C65 C 1.02085 -0.02464 -0.01839
 C66 C 1.00017 -0.01200 -0.00839
 C67 C 0.95918 0.01306 0.01177
 C68 C 0.95914 -0.01176 -0.00654
 C69 C 0.97944 -0.02462 -0.01706
 C70 C 0.97961 -0.04979 -0.03605
 C71 C 1.00008 -0.06203 -0.04569
 C72 C 1.02059 -0.04981 -0.03703
 H73 H 1.05737 0.02208 0.01455
 H74 H 1.05730 -0.02081 -0.01664
 H75 H 0.94308 0.02209 0.01922
 H76 H 0.94301 -0.02079 -0.01244
 H77 H 1.00033 0.08273 0.05949
 H78 H 1.00005 -0.08138 -0.06005
 C79 C 0.52031 0.55053 0.54004
 C80 C 0.49984 0.56280 0.54883
 C81 C 0.47933 0.55058 0.53971
 C82 C 0.47907 0.52540 0.52148
 C83 C 0.49975 0.51275 0.51216
 C84 C 0.52048 0.52535 0.52159
 C85 C 0.54078 0.51245 0.51219
 C86 C 0.54073 0.48764 0.49337
 C87 C 0.52038 0.47481 0.48334
 C88 C 0.49970 0.48746 0.49308
 C89 C 0.45871 0.51255 0.51195
 C90 C 0.45867 0.48774 0.49345
 C91 C 0.47896 0.47486 0.48363
 C92 C 0.47914 0.44969 0.46455
 C93 C 0.49960 0.43744 0.45493
 C94 C 0.52011 0.44965 0.46392
 H95 H 0.55691 0.52145 0.51919
 H96 H 0.55682 0.47859 0.48668
 H97 H 0.44262 0.52160 0.51871
 H98 H 0.44253 0.47873 0.48679
 H99 H 0.49988 0.58215 0.56261
 H100 H 0.49956 0.41811 0.44024
 C101 C -0.02054 0.44950 0.03948
 C102 C -0.00004 0.43740 0.05320
 C103 C 0.02042 0.44976 0.04626
 C104 C 0.02060 0.47493 0.02450
 C105 C -0.00011 0.48742 0.01056
 C106 C -0.02079 0.47468 0.01846
 C107 C -0.04113 0.48744 0.00530
 C108 C -0.04117 0.51225 -0.01528
 C109 C -0.02087 0.52521 -0.02415
 C110 C -0.00015 0.51270 -0.01138
 C111 C 0.04090 0.48791 0.01614
 C112 C 0.04087 0.51269 -0.00610
 C113 C 0.02053 0.52542 -0.02032
 C114 C 0.02028 0.55056 -0.04319
 C115 C -0.00023 0.56269 -0.05509
 C116 C -0.02069 0.55039 -0.04526
 H117 H -0.05723 0.47833 0.01103
 H118 H -0.05730 0.52119 -0.02470
 H119 H 0.05703 0.47899 0.02666
 H120 H 0.05697 0.52181 -0.01182
 H121 H -0.00001 0.41806 0.06937
 H122 H -0.00026 0.58203 -0.07183
 C123 C 0.47970 0.94909 0.53834
 C124 C 0.50014 0.93678 0.54724
 C125 C 0.52066 0.94898 0.53723
 C126 C 0.52095 0.97419 0.51843
 C127 C 0.50029 0.98688 0.50884
 C128 C 0.47955 0.97429 0.51871
 C129 C 0.45925 0.98721 0.50852
 C130 C 0.45933 1.01204 0.48840
 C131 C 0.47969 1.02487 0.47819
 C132 C 0.50036 1.01220 0.48900
 C133 C 0.54132 0.98703 0.50870
 C134 C 0.54139 1.01188 0.48998
 C135 C 0.52110 1.02480 0.47974
 C136 C 0.52096 1.05000 0.46030
 C137 C 0.50052 1.06227 0.44929
 C138 C 0.47999 1.05004 0.45752
 H139 H 0.44311 0.97821 0.51577
 H140 H 0.44324 1.02111 0.48094
 H141 H 0.55741 0.97796 0.51566
 H142 H 0.55753 1.02089 0.48333
 H143 H 0.50008 0.91741 0.56183
 H144 H 0.50058 1.08163 0.43403
 C145 C 1.20429 0.20210 0.18718
 C146 C 1.18927 0.18787 0.16751
 C147 C 1.17088 0.17142 0.14528
 C148 C 1.14903 0.18030 0.12583
 C149 C 1.13099 0.16450 0.10631
 C150 C 1.13456 0.13953 0.10616
 C151 C 1.15659 0.13074 0.12570
 C152 C 1.17464 0.14661 0.14505
 C153 C 1.11526 0.12281 0.08765
 C154 C 1.11367 0.10179 0.17691
 C155 C 1.09500 0.08660 0.16361
 C156 C 1.07775 0.09218 0.06081
 C157 C 1.07936 0.11284 -0.03006
 C158 C 1.09798 0.12805 -0.01688
 C159 C 1.05804 0.07721 0.05170
 C160 C 1.04123 0.06511 0.04457
 H161 H 1.14591 0.19946 0.12673
 H162 H 1.11420 0.17181 0.09403
 H163 H 1.15989 0.11163 0.12461
 H164 H 1.19150 0.13954 0.16000
 H165 H 1.12657 0.09741 0.25958
 H166 H 1.09387 0.07069 0.23494
 H167 H 1.06612 0.11731 -0.11017
 H168 H 1.09888 0.14391 -0.08867
 C169 C 0.70437 0.70102 0.68296
 C170 C 0.68933 0.68681 0.66367
 C171 C 0.67090 0.67039 0.64191
 C172 C 0.64930 0.67933 0.61319
 C173 C 0.63118 0.66358 0.59528
 C174 C 0.63442 0.63861 0.60597
 C175 C 0.65622 0.62976 0.63429
 C176 C 0.67435 0.64557 0.65203
 C177 C 0.61502 0.62197 0.58955
 C178 C 0.61271 0.60187 0.68635
 C179 C 0.59397 0.58676 0.67442
 C180 C 0.57734 0.59151 0.56548
 C181 C 0.57963 0.61126 0.46741
 C182 C 0.59833 0.62639 0.47921
 C183 C 0.55760 0.57658 0.55665
 C184 C 0.54078 0.56450 0.54918
 H185 H 0.64641 0.69851 0.60597
 H186 H 0.61456 0.67097 0.57590
 H187 H 0.65928 0.61062 0.64146
 H188 H 0.69102 0.63845 0.67414
 H189 H 0.62513 0.59816 0.77361
 H190 H 0.59230 0.57158 0.75136
 H191 H 0.56687 0.61509 0.38255
 H192 H 0.59978 0.64152 0.40173
 C193 C -0.20430 0.29846 0.18797
 C194 C -0.18928 0.31276 0.16919
 C195 C -0.17090 0.32928 0.14734
 C196 C -0.17425 0.35401 0.16327
 C197 C -0.15619 0.36991 0.14407
 C198 C -0.13457 0.36125 0.10857
 C199 C -0.13143 0.33636 0.09257
 C200 C -0.14947 0.32051 0.11194
 C201 C -0.11524 0.37799 0.09049
 C202 C -0.09912 0.37432 -0.02453
 C203 C -0.08044 0.38949 -0.03775
 C204 C -0.07761 0.40851 0.06365
 C205 C -0.09372 0.41254 0.17701
 C206 C -0.11244 0.39740 0.19037
 C207 C -0.05781 0.42336 0.05438
 C208 C -0.04098 0.43544 0.04739
 H209 H -0.19078 0.36098 0.19077
 H210 H -0.15918 0.38899 0.15564
 H211 H -0.11493 0.32910 0.06777
 H212 H -0.14667 0.30139 0.10035
 H213 H -0.10096 0.35973 -0.10438
 H214 H -0.06810 0.38625 -0.12615
 H215 H -0.09165 0.42718 0.25639
 H216 H -0.12440 0.40052 0.28116
 C217 C 0.29578 0.79821 0.68607
 C218 C 0.31085 0.81244 0.66697
 C219 C 0.32931 0.82887 0.64538
 C220 C 0.32564 0.85369 0.64516
 C221 C 0.34377 0.86953 0.62711
 C222 C 0.36580 0.86070 0.60875
 C223 C 0.36927 0.83571 0.60843
 C224 C 0.35115 0.81994 0.62668
 C225 C 0.38518 0.87737 0.59160
 C226 C 0.40254 0.87236 0.48753
 C227 C 0.42119 0.88756 0.47517
 C228 C 0.42276 0.90798 0.56639
 C229 C 0.40547 0.91330 0.66907
 C230 C 0.38676 0.89812 0.68153
 C231 C 0.44243 0.92301 0.55691
 C232 C 0.45922 0.93514 0.54862
 H233 H 0.30879 0.86079 0.65927
 H234 H 0.34055 0.88866 0.62609
 H235 H 0.38605 0.82836 0.59677
 H236 H 0.35419 0.80076 0.62730
 H237 H 0.40167 0.85671 0.41537
 H238 H 0.43448 0.88329 0.39521
 H239 H 0.40657 0.92901 0.74072
 H240 H 0.37380 0.90230 0.76395
 C241 C -0.20395 0.70177 -0.19346
 C242 C -0.18893 0.68744 -0.17661
 C243 C -0.17054 0.67090 -0.15705
 C244 C -0.17421 0.64610 -0.16448
 C245 C -0.15617 0.63018 -0.14662
 C246 C -0.13425 0.63889 -0.12084
 C247 C -0.13078 0.66385 -0.11368
 C248 C -0.14880 0.67971 -0.13174
 C249 C -0.11499 0.62213 -0.10282
 C250 C -0.09822 0.62655 0.00657
 C251 C -0.07965 0.61129 0.02006
 C252 C -0.07758 0.59142 -0.07541
 C253 C -0.09430 0.58666 -0.18325
 C254 C -0.11292 0.60189 -0.19685
 C255 C -0.05792 0.57641 -0.06518
 C256 C -0.04115 0.56430 -0.05633
 H257 H -0.19098 0.63909 -0.18395
 H258 H -0.15940 0.61106 -0.15129
 H259 H -0.11406 0.67112 -0.09653
 H260 H -0.14576 0.69887 -0.12662
 H261 H -0.09948 0.64178 0.08199
 H262 H -0.06681 0.61512 0.10410
 H263 H -0.09281 0.57137 -0.25812
 H264 H -0.12542 0.59817 -0.28325
 C265 C 0.29610 1.20073 0.30851
 C266 C 0.31125 1.18652 0.32354
 C267 C 0.32987 1.17019 0.34007
 C268 C 0.35190 1.17913 0.33917
 C269 C 0.37013 1.16348 0.35465
 C270 C 0.36659 1.13862 0.37123
 C271 C 0.34438 1.12976 0.37116
 C272 C 0.32613 1.14548 0.35587
 C273 C 0.38605 1.12213 0.38928
 C274 C 0.38660 1.09997 0.31328
 C275 C 0.40523 1.08476 0.32832
 C276 C 0.42345 1.09147 0.41976
 C277 C 0.42295 1.11336 0.49666
 C278 C 0.40440 1.12859 0.48164
 C279 C 0.44294 1.07626 0.43276
 C280 C 0.45961 1.06405 0.44410
 H281 H 0.35499 1.19821 0.32615
 H282 H 0.38703 1.17081 0.35186
 H283 H 0.34112 1.11075 0.38520
 H284 H 0.30913 1.13838 0.35677
 H285 H 0.37285 1.09464 0.23995
 H286 H 0.40550 1.06789 0.26767
 H287 H 0.43695 1.11872 0.56780
 H288 H 0.40434 1.14537 0.54312
 C289 C 1.20333 -0.20168 -0.18512
 C290 C 1.18836 -0.18736 -0.16738
 C291 C 1.17001 -0.17082 -0.14746
 C292 C 1.17384 -0.14602 -0.15050
 C293 C 1.15583 -0.13008 -0.13306
 C294 C 1.13377 -0.13879 -0.11206
 C295 C 1.13014 -0.16375 -0.10925
 C296 C 1.14813 -0.17963 -0.12687
 C297 C 1.11455 -0.12200 -0.09405
 C298 C 1.09740 -0.12697 0.01235
 C299 C 1.07890 -0.11164 0.02592
 C300 C 1.07727 -0.09115 -0.06636
 C301 C 1.09436 -0.08587 -0.17129
 C302 C 1.11291 -0.10117 -0.18495
 C303 C 1.05771 -0.07602 -0.05605
 C304 C 1.04100 -0.06382 -0.04737
 H305 H 1.19071 -0.13901 -0.16640
 H306 H 1.15918 -0.11096 -0.13427
 H307 H 1.11332 -0.17101 -0.09578
 H308 H 1.14496 -0.19879 -0.12529
 H309 H 1.09833 -0.14267 0.08539
 H310 H 1.06578 -0.11589 0.10761
 H311 H 1.09320 -0.07010 -0.24377
 H312 H 1.12571 -0.09701 -0.26904
 C313 C 0.70315 0.29816 0.31412
 C314 C 0.68810 0.31240 0.33156
 C315 C 0.66967 0.32886 0.35094
 C316 C 0.67350 0.35366 0.35297
 C317 C 0.65542 0.36953 0.36991
 C318 C 0.63329 0.36074 0.38535
 C319 C 0.62966 0.33578 0.38302
 C320 C 0.64772 0.31998 0.36591
 C321 C 0.61401 0.37745 0.40339
 C322 C 0.59651 0.37201 0.50612
 C323 C 0.57802 0.38732 0.52022
 C324 C 0.57674 0.40829 0.43209
 C325 C 0.59415 0.41403 0.33062
 C326 C 0.61271 0.39873 0.31642
 C327 C 0.55721 0.42345 0.44325
 C328 C 0.54051 0.43565 0.45274
 H329 H 0.69043 0.36072 0.34151
 H330 H 0.65876 0.38863 0.37276
 H331 H 0.61279 0.32848 0.39216
 H332 H 0.64455 0.30083 0.36361
 H333 H 0.59716 0.35594 0.57608
 H334 H 0.56463 0.38272 0.59914
 H335 H 0.59327 0.43016 0.26125
 H336 H 0.62578 0.40326 0.23509
 C337 C 0.79676 -0.20186 -0.18358
 C338 C 0.81173 -0.18752 -0.16556
 C339 C 0.83005 -0.17090 -0.14561
 C340 C 0.85168 -0.17960 -0.11481
 C341 C 0.86966 -0.16366 -0.09744
 C342 C 0.86626 -0.13874 -0.11081
 C343 C 0.84445 -0.13014 -0.14212
 C344 C 0.82646 -0.14614 -0.15929
 C345 C 0.88548 -0.12189 -0.09318
 C346 C 0.88792 -0.10194 -0.19102
 C347 C 0.90649 -0.08662 -0.17729
 C348 C 0.92277 -0.09100 -0.06536
 C349 C 0.92033 -0.11060 0.03367
 C350 C 0.90181 -0.12594 0.02006
 C351 C 0.94240 -0.07592 -0.05492
 C352 C 0.95916 -0.06376 -0.04617
 H353 H 0.85468 -0.19874 -0.10513
 H354 H 0.88630 -0.17085 -0.07600
 H355 H 0.84127 -0.11105 -0.15170
 H356 H 0.80978 -0.13922 -0.18335
 H357 H 0.87577 -0.09851 -0.28041
 H358 H 0.90829 -0.07155 -0.25503
 H359 H 0.93283 -0.11415 0.12073
 H360 H 0.90025 -0.14095 0.09837
 C361 C 0.29599 0.29788 0.32327
 C362 C 0.31099 0.31215 0.34205
 C363 C 0.32935 0.32870 0.36263
 C364 C 0.35111 0.31990 0.38735
 C365 C 0.36915 0.33579 0.40421
 C366 C 0.36567 0.36075 0.39647
 C367 C 0.34371 0.36945 0.37182
 C368 C 0.32566 0.35350 0.35514
 C369 C 0.38494 0.37754 0.41285
 C370 C 0.38686 0.39794 0.31820
 C371 C 0.40547 0.41325 0.33048
 C372 C 0.42232 0.40840 0.43768
 C373 C 0.42041 0.38834 0.53349
 C374 C 0.40187 0.37301 0.52131
 C375 C 0.44193 0.42353 0.44691
 C376 C 0.45867 0.43571 0.45487
 H377 H 0.35418 0.30074 0.39239
 H378 H 0.38589 0.32853 0.42067
 H379 H 0.34046 0.38856 0.36689
 H380 H 0.30887 0.36050 0.33600
 H381 H 0.37426 0.40175 0.23236
 H382 H 0.40684 0.42867 0.25521
 H383 H 0.43336 0.38443 0.61691
 H384 H 0.40072 0.35764 0.59710
 C385 C 0.20403 0.70196 -0.18512
 C386 C 0.18897 0.68766 -0.16742
 C387 C 0.17050 0.67117 -0.14817
 C388 C 0.14886 0.68004 -0.12047
 C389 C 0.13070 0.66426 -0.10482
 C390 C 0.13393 0.63932 -0.11675
 C391 C 0.15576 0.63055 -0.14467
 C392 C 0.17393 0.64640 -0.16013
 C393 C 0.11454 0.62264 -0.10064
 C394 C 0.11221 0.60281 -0.19787
 C395 C 0.09354 0.58757 -0.18502
 C396 C 0.07704 0.59191 -0.07469
 C397 C 0.07934 0.61143 0.02340
 C398 C 0.09794 0.62669 0.01067
 C399 C 0.05743 0.57680 -0.06399
 C400 C 0.04069 0.56460 -0.05455
 H401 H 0.14598 0.69920 -0.11202
 H402 H 0.11405 0.67158 -0.08580
 H403 H 0.15881 0.61144 -0.15289
 H404 H 0.19063 0.63935 -0.18164
 H405 H 0.12456 0.59940 -0.28584
 H406 H 0.09186 0.57257 -0.26211
 H407 H 0.06666 0.61495 0.10917
 H408 H 0.09941 0.64160 0.08843
 C409 C 0.70417 1.20182 0.31217
 C410 C 0.68919 1.18745 0.33012
 C411 C 0.67083 1.17086 0.35058
 C412 C 0.67455 1.14607 0.34502
 C413 C 0.65653 1.13009 0.36333
 C414 C 0.63457 1.13875 0.38770
 C415 C 0.63104 1.16370 0.39303
 C416 C 0.64904 1.17962 0.37453
 C417 C 0.61532 1.12192 0.40619
 C418 C 0.59841 1.12645 0.51457
 C419 C 0.57985 1.11115 0.52818
 C420 C 0.57792 1.09112 0.43388
 C421 C 0.59479 1.08624 0.32718
 C422 C 0.61341 1.10152 0.31346
 C423 C 0.55824 1.07610 0.44359
 C424 C 0.54144 1.06397 0.45131
 H425 H 0.69136 1.13910 0.32645
 H426 H 0.65980 1.11098 0.36005
 H427 H 0.61428 1.17093 0.40903
 H428 H 0.64595 1.19877 0.37805
 H429 H 0.59956 1.14181 0.58900
 H430 H 0.56690 1.11506 0.61137
 H431 H 0.59341 1.07082 0.25327
 H432 H 0.62601 1.09771 0.22785
 C433 C 0.20369 0.29862 0.19961
 C434 C 0.18888 0.31325 0.18526
 C435 C 0.17083 0.33033 0.17054
 C436 C 0.17006 0.34614 0.04614
 C437 C 0.15216 0.36230 0.03086
 C438 C 0.13480 0.36282 0.14002
 C439 C 0.13583 0.34695 0.26513
 C440 C 0.15372 0.33082 0.28010
 C441 C 0.11543 0.37947 0.12227
 C442 C 0.10621 0.39114 0.24953
 C443 C 0.08743 0.40606 0.23353
 C444 C 0.07765 0.40957 0.09026
 C445 C 0.08685 0.39830 -0.03731
 C446 C 0.10561 0.38335 -0.02159
 C447 C 0.05777 0.42412 0.07476
 C448 C 0.04090 0.43597 0.06171
 H449 H 0.18324 0.34592 -0.03927
 H450 H 0.15199 0.37448 -0.06575
 H451 H 0.12258 0.34664 0.34987
 H452 H 0.15409 0.31857 0.37641
 H453 H 0.11354 0.38874 0.36143
 H454 H 0.08045 0.41471 0.33306
 H455 H 0.07931 0.40079 -0.14862
 H456 H 0.11212 0.37440 -0.12139
 C457 C 0.70413 0.79814 0.69522
 C458 C 0.68905 0.81238 0.67842
 C459 C 0.67056 0.82879 0.65857
 C460 C 0.64844 0.82019 0.66559
 C461 C 0.63035 0.83590 0.64504
 C462 C 0.63415 0.86048 0.61727
 C463 C 0.65646 0.86900 0.61130
 C464 C 0.67456 0.85323 0.63167
 C465 C 0.61484 0.87707 0.59570
 C466 C 0.61484 0.89990 0.66334
 C467 C 0.59621 0.91509 0.64788
 C468 C 0.57741 0.90768 0.56433
 C469 C 0.57742 0.88519 0.49442
 C470 C 0.59600 0.86998 0.50987
 C471 C 0.55780 0.92274 0.55402
 C472 C 0.54106 0.93492 0.54616
 H473 H 0.64515 0.80133 0.68711
 H474 H 0.61338 0.82887 0.65282
 H475 H 0.65991 0.88779 0.58879
 H476 H 0.69163 0.86006 0.62587
 H477 H 0.62900 0.90576 0.73128
 H478 H 0.59634 0.93245 0.70278
 H479 H 0.56298 0.87931 0.42908
 H480 H 0.59564 0.85267 0.45449
 C481 C 0.79586 0.20133 0.18807
 C482 C 0.81097 0.18719 0.16999
 C483 C 0.82950 0.17088 0.14955
 C484 C 0.85150 0.17984 0.14293
 C485 C 0.86965 0.16419 0.12441
 C486 C 0.86605 0.13931 0.11233
 C487 C 0.84385 0.13045 0.11924
 C488 C 0.82569 0.14616 0.13761
 C489 C 0.88543 0.12276 0.09374
 C490 C 0.88624 0.10081 0.17391
 C491 C 0.90492 0.08568 0.16030
 C492 C 0.92297 0.09226 0.06619
 C493 C 0.92217 0.11389 -0.01555
 C494 C 0.90354 0.12904 -0.00202
 C495 C 0.94261 0.07725 0.05627
 C496 C 0.95936 0.06512 0.04802
 H497 H 0.85465 0.19893 0.15287
 H498 H 0.88655 0.17153 0.12192
 H499 H 0.84053 0.11141 0.10873
 H500 H 0.80871 0.13905 0.14248
 H501 H 0.87268 0.09561 0.24984
 H502 H 0.90541 0.06901 0.22457
 H503 H 0.93604 0.11914 -0.08889
 H504 H 0.90328 0.14565 -0.06680
 C505 C 0.29565 0.70110 0.68773
 C506 C 0.31068 0.68689 0.66887
 C507 C 0.32910 0.67048 0.64717
 C508 C 0.35082 0.67944 0.62224
 C509 C 0.36889 0.66369 0.60329
 C510 C 0.36548 0.63870 0.60919
 C511 C 0.34356 0.62984 0.63400
 C512 C 0.32548 0.64565 0.65279
 C513 C 0.38481 0.62205 0.59150
 C514 C 0.38679 0.60152 0.68488
 C515 C 0.40549 0.58640 0.67199
 C516 C 0.42239 0.59157 0.56550
 C517 C 0.42041 0.61174 0.47066
 C518 C 0.40176 0.62688 0.48343
 C519 C 0.44211 0.57666 0.55620
 C520 C 0.45890 0.56458 0.54866
 H521 H 0.35383 0.69863 0.61847
 H522 H 0.38559 0.67108 0.58677
 H523 H 0.34037 0.61070 0.63754
 H524 H 0.30872 0.63853 0.67191
 H525 H 0.37416 0.59748 0.77030
 H526 H 0.40690 0.57088 0.74639
 H527 H 0.43338 0.61588 0.38767
 H528 H 0.40056 0.64234 0.40850
   
