data_POSCAR
  _audit_creation_date              2014-09-24
  _audit_creation_method            'ToBaCCo'
  _symmetry_space_group_name_H-M    'P1'
  _symmetry_Int_Tables_number       1
  _symmetry_cell_setting            triclinic
  loop_
  _symmetry_equiv_pos_as_xyz
 x,y,z
_cell_length_a 17.6728
_cell_length_b 30.0568
_cell_length_c 30.9521
_cell_angle_alpha 89.667400
_cell_angle_beta 89.958900
_cell_angle_gamma 87.468400
loop_
  _atom_site_label
  _atom_site_type_symbol
  _atom_site_fract_x
  _atom_site_fract_y
  _atom_site_fract_z
O1 O 0.21307 0.29248 0.31620
 O2 O 0.14353 0.21886 0.23197
 O3 O 0.20635 0.20589 0.30923
 O4 O 0.15152 0.30335 0.24211
 O5 O 0.26463 0.29978 0.21167
 O6 O 0.31774 0.20046 0.27728
 O7 O 0.25704 0.21422 0.20193
 O8 O 0.32779 0.28675 0.28788
 Cu9 Cu 0.16769 0.25481 0.27817
 Cu10 Cu 0.30343 0.24998 0.24188
 C11 C 0.28189 0.30275 0.31603
 C12 C 0.18765 0.20491 0.20208
 C13 C 0.27119 0.18636 0.30492
 C14 C 0.19877 0.31824 0.21537
 O15 O 0.86622 0.28582 0.22827
 O16 O 0.77271 0.21693 0.30864
 O17 O 0.85305 0.20532 0.24388
 O18 O 0.78217 0.30606 0.30007
 O19 O 0.67910 0.31113 0.25995
 O20 O 0.74744 0.20824 0.20573
 O21 O 0.66287 0.23078 0.27657
 O22 O 0.75784 0.29615 0.19333
 Cu23 Cu 0.82743 0.25536 0.27517
 Cu24 Cu 0.70238 0.26019 0.22913
 C25 C 0.82845 0.30173 0.19639
 C26 C 0.70171 0.21217 0.30673
 C27 C 0.81165 0.18960 0.21478
 C28 C 0.71902 0.32548 0.29045
 O29 O 0.72723 0.79058 0.81982
 O30 O 0.63088 0.72136 0.74027
 O31 O 0.70181 0.70630 0.81391
 O32 O 0.65037 0.80563 0.74949
 O33 O 0.75742 0.79715 0.71316
 O34 O 0.80663 0.69544 0.77606
 O35 O 0.73850 0.71243 0.70430
 O36 O 0.83489 0.77885 0.78450
 Cu37 Cu 0.66687 0.75679 0.78459
 Cu38 Cu 0.79518 0.74543 0.74084
 C39 C 0.79790 0.79579 0.81591
 C40 C 0.66883 0.70513 0.70869
 C41 C 0.76281 0.68376 0.80627
 C42 C 0.69456 0.81824 0.72003
 O43 O 0.30793 0.79264 0.70517
 O44 O 0.23609 0.71762 0.78858
 O45 O 0.29398 0.70669 0.71276
 O46 O 0.24146 0.80325 0.78148
 O47 O 0.13082 0.81006 0.74872
 O48 O 0.18119 0.71252 0.68213
 O49 O 0.12194 0.72484 0.75964
 O50 O 0.19481 0.79855 0.67484
 Cu51 Cu 0.28147 0.75483 0.74982
 Cu52 Cu 0.14600 0.76168 0.71318
 C53 C 0.26393 0.80837 0.67589
 C54 C 0.16658 0.70883 0.78861
 C55 C 0.24611 0.69305 0.68582
 C56 C 0.17667 0.82306 0.77704
 C57 C 1.04955 0.02923 0.03092
 C58 C 0.97099 0.02279 0.03672
 C59 C 0.93467 -0.00715 0.01020
 C60 C 0.97309 -0.03022 -0.02297
 C61 C 1.05144 -0.02337 -0.02953
 C62 C 1.08867 0.00553 -0.00187
 H63 H 1.14831 0.01085 -0.00689
 H64 H 0.87503 -0.01242 0.01543
 C65 C 0.53814 0.52342 0.54124
 C66 C 0.46267 0.51021 0.54736
 C67 C 0.43321 0.47806 0.52004
 C68 C 0.47795 0.45778 0.48748
 C69 C 0.55264 0.47193 0.48077
 C70 C 0.58158 0.50424 0.50775
 H71 H 0.63882 0.51472 0.50248
 H72 H 0.37583 0.46776 0.52510
 C73 C -0.01195 0.46139 0.01428
 C74 C 0.06441 0.47260 0.02151
 C75 C 0.09825 0.50292 -0.00641
 C76 C 0.05817 0.52264 -0.04121
 C77 C -0.01649 0.50943 -0.04982
 C78 C -0.05052 0.47954 -0.02177
 H79 H -0.10811 0.47036 -0.02809
 H80 H 0.15583 0.51218 -0.00019
 C81 C 0.49137 0.95902 0.51316
 C82 C 0.56356 0.97338 0.52544
 C83 C 0.59625 1.00782 0.50244
 C84 C 0.55983 1.02829 0.46674
 C85 C 0.48786 1.01333 0.45387
 C86 C 0.45410 0.97966 0.47785
 H87 H 0.39905 0.96860 0.46823
 H88 H 0.65075 1.01901 0.51287
 C89 C 1.09066 0.19404 0.14554
 C90 C 1.15713 0.17869 0.16657
 C91 C 1.19353 0.13850 0.15356
 C92 C 1.16207 0.11305 0.12066
 C93 C 1.09588 0.12929 0.09904
 C94 C 1.06094 0.16999 0.11152
 C95 C 1.06377 0.10366 0.06666
 C96 C 1.09210 0.06001 0.05860
 C97 C 1.15878 0.04452 0.07959
 C98 C 1.19416 0.07107 0.10984
 H99 H 1.24449 0.12637 0.17011
 H100 H 1.00960 0.18265 0.09573
 H101 H 1.01377 0.11654 0.04970
 H102 H 1.24479 0.05802 0.12605
 H103 H 1.06240 0.22507 0.15514
 H104 H 1.18208 0.01118 0.07367
 C105 C 0.56100 0.68820 0.65993
 C106 C 0.63298 0.67679 0.67681
 C107 C 0.67275 0.63840 0.66211
 C108 C 0.64093 0.61126 0.63102
 C109 C 0.56965 0.62364 0.61289
 C110 C 0.52998 0.66216 0.62762
 C111 C 0.53865 0.59667 0.58117
 C112 C 0.57469 0.55552 0.57026
 C113 C 0.64550 0.54371 0.58865
 C114 C 0.67889 0.57164 0.61821
 H115 H 0.72799 0.62926 0.67554
 H116 H 0.47475 0.67180 0.61456
 H117 H 0.48530 0.60690 0.56619
 H118 H 0.73341 0.56161 0.63197
 H119 H 0.52978 0.71783 0.67094
 H120 H 0.67440 0.51227 0.58076
 C121 C -0.06072 0.31078 0.14781
 C122 C -0.13280 0.32587 0.16192
 C123 C -0.16848 0.36324 0.14206
 C124 C -0.13191 0.38583 0.10879
 C125 C -0.06056 0.36946 0.09360
 C126 C -0.02540 0.33186 0.11336
 C127 C -0.02446 0.39190 0.06001
 C128 C -0.05485 0.43305 0.04457
 C129 C -0.12599 0.44882 0.05987
 C130 C -0.16480 0.42504 0.09106
 H131 H -0.22377 0.37531 0.15325
 H132 H 0.02990 0.31928 0.10272
 H133 H 0.02921 0.37865 0.04760
 H134 H -0.21928 0.43818 0.10243
 H135 H -0.03264 0.28202 0.16290
 H136 H -0.15083 0.48030 0.04842
 C137 C 0.25055 0.87770 0.63156
 C138 C 0.29309 0.83891 0.64307
 C139 C 0.36391 0.82993 0.62364
 C140 C 0.39242 0.85978 0.59322
 C141 C 0.35080 0.89984 0.58334
 C142 C 0.27957 0.90824 0.60235
 C143 C 0.38192 0.93126 0.55549
 C144 C 0.45378 0.92295 0.53704
 C145 C 0.49185 0.88151 0.54436
 C146 C 0.46213 0.85052 0.57281
 H147 H 0.39641 0.79966 0.63202
 H148 H 0.24662 0.93857 0.59491
 H149 H 0.35178 0.96290 0.54955
 H150 H 0.49420 0.81966 0.57936
 H151 H 0.19577 0.88501 0.64623
 H152 H 0.54635 0.87397 0.52948
 C153 C -0.25580 0.63909 -0.12884
 C154 C -0.21670 0.64682 -0.16767
 C155 C -0.15391 0.61848 -0.17844
 C156 C -0.12755 0.58518 -0.14958
 C157 C -0.16328 0.58065 -0.10904
 C158 C -0.22872 0.60670 -0.09957
 C159 C -0.13027 0.55222 -0.07765
 C160 C -0.06171 0.52860 -0.08630
 C161 C -0.03163 0.52917 -0.12833
 C162 C -0.06374 0.55780 -0.15965
 H163 H -0.12403 0.62306 -0.20865
 H164 H -0.25746 0.60313 -0.06889
 H165 H -0.15431 0.55137 -0.04543
 H166 H -0.03650 0.56015 -0.19090
 H167 H -0.30497 0.65974 -0.11975
 H168 H 0.02031 0.51027 -0.13575
 C169 C 0.24954 1.14021 0.36863
 C170 C 0.29239 1.14991 0.33160
 C171 C 0.35884 1.12368 0.32306
 C172 C 0.38417 1.09028 0.35215
 C173 C 0.34407 1.08375 0.39103
 C174 C 0.27576 1.10795 0.39835
 C175 C 0.37517 1.05506 0.42291
 C176 C 0.44599 1.03308 0.41635
 C177 C 0.48083 1.03557 0.37563
 C178 C 0.45074 1.06455 0.34395
 H179 H 0.39179 1.12972 0.29421
 H180 H 0.24370 1.10286 0.42769
 H181 H 0.34739 1.05259 0.45403
 H182 H 0.48141 1.06839 0.31393
 H183 H 0.19768 1.15922 0.37602
 H184 H 0.53465 1.01800 0.36977
 C185 C 1.08818 -0.11506 -0.20541
 C186 C 1.15413 -0.14140 -0.19585
 C187 C 1.19377 -0.13316 -0.15740
 C188 C 1.16463 -0.10171 -0.12760
 C189 C 1.09830 -0.07577 -0.13773
 C190 C 1.06160 -0.08197 -0.17712
 C191 C 1.06670 -0.04621 -0.10713
 C192 C 1.09548 -0.04581 -0.06483
 C193 C 1.16304 -0.07037 -0.05543
 C194 C 1.19813 -0.09749 -0.08683
 H195 H 1.24416 -0.15331 -0.14913
 H196 H 1.01026 -0.06265 -0.18518
 H197 H 1.01578 -0.02639 -0.11500
 H198 H 1.24898 -0.11708 -0.07840
 H199 H 1.05652 -0.12009 -0.23481
 H200 H 1.18676 -0.07018 -0.02318
 C201 C 0.62324 0.38759 0.30405
 C202 C 0.68934 0.36321 0.31673
 C203 C 0.72188 0.37167 0.35710
 C204 C 0.68561 0.40144 0.38587
 C205 C 0.61740 0.42439 0.37351
 C206 C 0.58793 0.41826 0.33208
 C207 C 0.57736 0.45082 0.40369
 C208 C 0.60248 0.45246 0.44666
 C209 C 0.67232 0.43160 0.45803
 C210 C 0.71395 0.40654 0.42774
 H211 H 0.77264 0.35295 0.36734
 H212 H 0.53570 0.43558 0.32210
 H213 H 0.52397 0.46750 0.39471
 H214 H 0.76630 0.38933 0.43769
 H215 H 0.59728 0.38183 0.27302
 H216 H 0.69267 0.43281 0.49099
 C217 C 0.90803 -0.19438 -0.13546
 C218 C 0.83776 -0.17843 -0.15170
 C219 C 0.80642 -0.13747 -0.13739
 C220 C 0.84586 -0.11202 -0.10778
 C221 C 0.91571 -0.12877 -0.09062
 C222 C 0.94619 -0.17009 -0.10458
 C223 C 0.95483 -0.10332 -0.06079
 C224 C 0.92829 -0.05980 -0.05066
 C225 C 0.85889 -0.04355 -0.06810
 C226 C 0.81749 -0.06965 -0.09582
 H227 H 0.75267 -0.12483 -0.15043
 H228 H 1.00011 -0.18321 -0.09225
 H229 H 1.00745 -0.11658 -0.04689
 H230 H 0.76437 -0.05616 -0.10888
 H231 H 0.93277 -0.22599 -0.14624
 H232 H 0.83727 -0.01013 -0.06090
 C233 C 0.26269 0.37359 0.35629
 C234 C 0.30733 0.33473 0.34825
 C235 C 0.37498 0.32676 0.37132
 C236 C 0.39766 0.35746 0.40238
 C237 C 0.35365 0.39733 0.40911
 C238 C 0.28611 0.40494 0.38602
 C239 C 0.37852 0.42922 0.43827
 C240 C 0.44642 0.42160 0.46120
 C241 C 0.48685 0.38051 0.45654
 C242 C 0.46348 0.34906 0.42685
 H243 H 0.40901 0.29645 0.36562
 H244 H 0.25142 0.43512 0.39092
 H245 H 0.34658 0.46060 0.44202
 H246 H 0.49728 0.31842 0.42274
 H247 H 0.21027 0.38014 0.33878
 H248 H 0.53834 0.37350 0.47476
 C249 C 0.06584 0.68896 -0.15901
 C250 C 0.13773 0.67994 -0.17703
 C251 C 0.18270 0.64354 -0.16156
 C252 C 0.15534 0.61568 -0.12909
 C253 C 0.08375 0.62572 -0.11030
 C254 C 0.03957 0.66255 -0.12533
 C255 C 0.05606 0.59759 -0.07822
 C256 C 0.09502 0.55702 -0.06795
 C257 C 0.16683 0.54781 -0.08613
 C258 C 0.19732 0.57728 -0.11590
 H259 H 0.23791 0.63616 -0.17576
 H260 H -0.01598 0.67029 -0.11175
 H261 H 0.00169 0.60572 -0.06337
 H262 H 0.25227 0.56906 -0.13000
 H263 H 0.03062 0.71693 -0.17053
 H264 H 0.19815 0.51699 -0.07848
 C265 C 0.58822 1.19105 0.34571
 C266 C 0.66665 1.18602 0.33788
 C267 C 0.70960 1.15354 0.36133
 C268 C 0.67424 1.12495 0.39015
 C269 C 0.59628 1.13161 0.39920
 C270 C 0.55391 1.16517 0.37722
 C271 C 0.56120 1.10298 0.42821
 C272 C 0.59995 1.06390 0.44314
 C273 C 0.67762 1.05764 0.43369
 C274 C 0.71489 1.08857 0.40857
 H275 H 0.76975 1.14842 0.35506
 H276 H 0.49369 1.17018 0.38313
 H277 H 0.50240 1.10960 0.43677
 H278 H 0.77459 1.08268 0.40163
 H279 H 0.55363 1.21586 0.32834
 H280 H 0.70931 1.02809 0.44472
 C281 C 0.11362 0.38488 0.19927
 C282 C 0.17554 0.35652 0.18752
 C283 C 0.21125 0.36292 0.14755
 C284 C 0.18227 0.39529 0.11841
 C285 C 0.11891 0.42303 0.13017
 C286 C 0.08622 0.41828 0.17109
 C287 C 0.08582 0.45263 0.09968
 C288 C 0.11114 0.45184 0.05664
 C289 C 0.17674 0.42620 0.04592
 C290 C 0.21266 0.39854 0.07673
 H291 H 0.25854 0.34093 0.13802
 H292 H 0.03730 0.43899 0.18051
 H293 H 0.03583 0.47292 0.10818
 H294 H 0.26139 0.37771 0.06722
 H295 H 0.08542 0.38068 0.23001
 H296 H 0.19753 0.42560 0.01298
 C297 C 0.60388 0.88192 0.70249
 C298 C 0.67026 0.85651 0.69237
 C299 C 0.70869 0.86525 0.65369
 C300 C 0.67830 0.89673 0.62410
 C301 C 0.60978 0.92071 0.63387
 C302 C 0.57417 0.91392 0.67362
 C303 C 0.57566 0.94902 0.60273
 C304 C 0.60726 0.95191 0.56127
 C305 C 0.67744 0.93009 0.55260
 C306 C 0.71299 0.90286 0.58389
 H307 H 0.75977 0.84584 0.64546
 H308 H 0.52169 0.93203 0.68162
 H309 H 0.52186 0.96631 0.60957
 H310 H 0.76567 0.88496 0.57592
 H311 H 0.57342 0.87608 0.73221
 H312 H 0.70268 0.93226 0.52079
 C313 C 0.90077 0.12329 0.20617
 C314 C 0.84014 0.15044 0.19018
 C315 C 0.81120 0.14222 0.14893
 C316 C 0.84521 0.10901 0.12290
 C317 C 0.90706 0.08235 0.13893
 C318 C 0.93338 0.08916 0.18095
 C319 C 0.94419 0.05114 0.11182
 C320 C 0.92360 0.04867 0.06811
 C321 C 0.86022 0.07401 0.05302
 C322 C 0.82080 0.10359 0.08032
 H323 H 0.76504 0.16330 0.13612
 H324 H 0.98100 0.06926 0.19367
 H325 H 0.99238 0.03114 0.12374
 H326 H 0.77347 0.12368 0.06754
 H327 H 0.92393 0.12899 0.23795
 H328 H 0.84323 0.07233 0.01947
 C329 C 0.23574 0.65246 0.61612
 C330 C 0.26713 0.65502 0.65766
 C331 C 0.32180 0.62248 0.67108
 C332 C 0.34765 0.58902 0.64254
 C333 C 0.31919 0.58848 0.59984
 C334 C 0.26187 0.61961 0.58733
 C335 C 0.35195 0.55875 0.56966
 C336 C 0.41381 0.53044 0.58151
 C337 C 0.43671 0.52809 0.62495
 C338 C 0.40414 0.55741 0.65525
 H339 H 0.34558 0.62392 0.70330
 H340 H 0.23907 0.61949 0.55485
 H341 H 0.33403 0.56042 0.53617
 H342 H 0.42589 0.55694 0.68798
 H343 H 0.19334 0.67712 0.60521
 H344 H 0.48397 0.50607 0.63455
   
