data_POSCAR
  _audit_creation_date              2014-09-24
  _audit_creation_method            'ToBaCCo'
  _symmetry_space_group_name_H-M    'P1'
  _symmetry_Int_Tables_number       1
  _symmetry_cell_setting            triclinic
  loop_
  _symmetry_equiv_pos_as_xyz
 x,y,z
_cell_length_a 28.9636
_cell_length_b 28.9198
_cell_length_c 74.0531
_cell_angle_alpha 90.560000
_cell_angle_beta 89.612900
_cell_angle_gamma 120.024400
loop_
  _atom_site_label
  _atom_site_type_symbol
  _atom_site_fract_x
  _atom_site_fract_y
  _atom_site_fract_z
C1 C -0.04120 0.02947 0.51168
 C2 C -0.08479 -0.00948 0.49868
 C3 C -0.07015 -0.04070 0.48905
 C4 C -0.01377 -0.03020 0.49323
 C5 C -0.02826 -0.00581 0.52345
 C6 C -0.01419 -0.03720 0.51379
 C7 C 0.00820 0.06127 0.49989
 C8 C 0.02247 0.03011 0.49022
 H9 H -0.12400 -0.01338 0.49768
 H10 H -0.00173 -0.05543 0.48537
 H11 H -0.03450 -0.00929 0.53798
 H12 H 0.02859 0.10448 0.49864
 C13 C 0.96229 -0.07402 0.17913
 C14 C 1.00201 -0.07836 0.16628
 C15 C 1.03271 -0.03253 0.15676
 C16 C 1.02085 0.01278 0.16096
 C17 C 0.99444 -0.02768 0.19045
 C18 C 1.02681 0.01996 0.18047
 C19 C 0.92985 -0.05814 0.16703
 C20 C 0.96053 -0.01270 0.15750
 H21 H 1.00661 -0.11333 0.16527
 H22 H 1.04554 0.04995 0.15316
 H23 H 0.99899 -0.03017 0.20492
 H24 H 0.88677 -0.08173 0.16562
 C25 C 0.07865 1.04729 0.84581
 C26 C 0.08365 1.09061 0.83277
 C27 C 0.03807 1.07560 0.82316
 C28 C -0.00788 1.01917 0.82739
 C29 C 0.03011 1.03449 0.85759
 C30 C -0.01507 1.02005 0.84796
 C31 C 0.06144 0.99757 0.83406
 C32 C 0.01630 0.98294 0.82441
 H33 H 0.11893 1.12991 0.83175
 H34 H -0.04490 1.00685 0.81955
 H35 H 0.03242 1.04105 0.87212
 H36 H 0.08429 0.97720 0.83282
 O37 O 0.60505 0.09749 -0.01517
 O38 O 0.51623 0.09679 0.02105
 O39 O 0.60635 0.09620 0.01997
 O40 O 0.51778 0.10231 -0.01404
 O41 O 0.47146 0.01407 -0.01528
 O42 O 0.56056 0.00795 0.01881
 O43 O 0.47059 0.00855 0.01978
 O44 O 0.55857 0.00923 -0.01623
 Cu45 Cu 0.56600 0.10710 0.00313
 Cu46 Cu 0.51062 0.00107 0.00171
 C47 C 0.59658 0.05326 -0.02181
 C48 C 0.47810 0.05233 0.02641
 C49 C 0.59883 0.05118 0.02502
 C50 C 0.47980 0.05936 -0.02045
 O51 O -0.00747 0.46198 0.65101
 O52 O -0.00210 0.55828 0.68518
 O53 O -0.00217 0.46788 0.68609
 O54 O -0.00314 0.55379 0.65012
 O55 O -0.09128 0.51165 0.65096
 O56 O -0.09029 0.42495 0.68714
 O57 O -0.09023 0.51549 0.68612
 O58 O -0.09560 0.41971 0.65204
 Cu59 Cu 0.00515 0.51473 0.66806
 Cu60 Cu -0.10074 0.46367 0.66922
 C61 C -0.05258 0.42468 0.64572
 C62 C -0.04541 0.55331 0.69130
 C63 C -0.04584 0.43167 0.69259
 C64 C -0.04715 0.54732 0.64443
 O65 O 0.48624 0.38967 0.31617
 O66 O 0.57457 0.47750 0.35245
 O67 O 0.48418 0.38687 0.35133
 O68 O 0.57804 0.47750 0.31732
 O69 O 0.53568 0.52335 0.31717
 O70 O 0.44131 0.43221 0.35126
 O71 O 0.53153 0.52265 0.35227
 O72 O 0.44404 0.43568 0.31620
 Cu73 Cu 0.53503 0.42826 0.33438
 Cu74 Cu 0.48387 0.48307 0.33427
 C75 C 0.45026 0.39811 0.31006
 C76 C 0.56808 0.51525 0.35835
 C77 C 0.44665 0.39386 0.35693
 C78 C 0.57273 0.51562 0.31147
 C79 C -0.05492 0.06381 0.52239
 C80 C -0.06315 0.09327 0.53175
 C81 C -0.06971 0.12952 0.54347
 C82 C -0.04377 0.18402 0.53945
 C83 C -0.04506 0.22027 0.55178
 C84 C -0.07218 0.20244 0.56833
 C85 C -0.09936 0.14738 0.57202
 C86 C -0.09802 0.11120 0.55967
 C87 C -0.07007 0.24134 0.58201
 C88 C -0.06288 0.23475 0.60039
 C89 C -0.05906 0.27222 0.61324
 C90 C -0.06236 0.31674 0.60791
 C91 C -0.06984 0.32353 0.58968
 C92 C -0.07363 0.28611 0.57680
 C93 C -0.05826 0.35528 0.62117
 C94 C -0.05524 0.38722 0.63236
 H95 H -0.02123 0.19868 0.52703
 H96 H -0.02321 0.26243 0.54864
 H97 H -0.12117 0.13237 0.58454
 H98 H -0.11799 0.06912 0.56295
 H99 H -0.05912 0.20119 0.60480
 H100 H -0.05321 0.26662 0.62731
 H101 H -0.07268 0.35776 0.58542
 H102 H -0.07969 0.29199 0.56278
 C103 C 0.92844 0.87788 0.18967
 C104 C 0.89941 0.84008 0.19886
 C105 C 0.86367 0.79704 0.21037
 C106 C 0.80917 0.76823 0.20641
 C107 C 0.77343 0.73029 0.21855
 C108 C 0.79180 0.72085 0.23488
 C109 C 0.84687 0.74902 0.23851
 C110 C 0.88252 0.78694 0.22635
 C111 C 0.75345 0.68355 0.24838
 C112 C 0.76038 0.69692 0.26688
 C113 C 0.72343 0.66277 0.27958
 C114 C 0.67908 0.61484 0.27399
 C115 C 0.67195 0.60097 0.25565
 C116 C 0.70887 0.63510 0.24291
 C117 C 0.64105 0.57992 0.28712
 C118 C 0.60958 0.55068 0.29821
 H119 H 0.79409 0.77616 0.19417
 H120 H 0.73126 0.70976 0.21546
 H121 H 0.86228 0.74212 0.25085
 H122 H 0.92462 0.80922 0.22959
 H123 H 0.79380 0.73430 0.27149
 H124 H 0.72928 0.67392 0.29374
 H125 H 0.63786 0.56382 0.25119
 H126 H 0.70274 0.62346 0.22880
 C127 C 0.12639 0.06139 -0.14350
 C128 C 0.16377 0.06987 -0.13416
 C129 C 0.20620 0.07670 -0.12247
 C130 C 0.23512 0.05106 -0.12658
 C131 C 0.27222 0.05252 -0.11428
 C132 C 0.28068 0.07948 -0.09764
 C133 C 0.25245 0.10637 -0.09385
 C134 C 0.21538 0.10487 -0.10618
 C135 C 0.31692 0.07746 -0.08399
 C136 C 0.30233 0.06997 -0.06562
 C137 C 0.33543 0.06614 -0.05281
 C138 C 0.38352 0.06972 -0.05815
 C139 C 0.39862 0.07753 -0.07636
 C140 C 0.36554 0.08134 -0.08921
 C141 C 0.41734 0.06548 -0.04493
 C142 C 0.44570 0.06229 -0.03377
 H143 H 0.22788 0.02863 -0.13906
 H144 H 0.29280 0.03088 -0.11749
 H145 H 0.25862 0.12806 -0.08127
 H146 H 0.19297 0.12460 -0.10282
 H147 H 0.26478 0.06596 -0.06121
 H148 H 0.32333 0.06002 -0.03876
 H149 H 0.43590 0.08059 -0.08062
 H150 H 0.37811 0.08764 -0.10321
 C151 C -0.01133 0.91974 0.52229
 C152 C -0.01106 0.88380 0.53030
 C153 C -0.01280 0.84142 0.54082
 C154 C -0.06035 0.79248 0.54210
 C155 C -0.06425 0.75343 0.55399
 C156 C -0.02063 0.76300 0.56485
 C157 C 0.02753 0.81170 0.56306
 C158 C 0.03134 0.85067 0.55115
 C159 C -0.02614 0.72354 0.57862
 C160 C -0.00390 0.74089 0.59590
 C161 C -0.01005 0.70398 0.60908
 C162 C -0.03853 0.64924 0.60521
 C163 C -0.06079 0.63147 0.58806
 C164 C -0.05473 0.66838 0.57484
 C165 C -0.04376 0.61173 0.61882
 C166 C -0.04644 0.58158 0.63044
 H167 H -0.09494 0.78514 0.53431
 H168 H -0.10202 0.71665 0.55521
 H169 H 0.06203 0.81992 0.57104
 H170 H 0.06825 0.88852 0.55034
 H171 H 0.01752 0.78299 0.59935
 H172 H 0.00735 0.71817 0.62231
 H173 H -0.08266 0.58917 0.58489
 H174 H -0.07191 0.65384 0.56162
 C175 C 0.06897 0.06267 0.18854
 C176 C 0.10604 0.09843 0.19647
 C177 C 0.14966 0.13863 0.20689
 C178 C 0.19668 0.13655 0.20861
 C179 C 0.23674 0.17156 0.22040
 C180 C 0.23012 0.20897 0.23070
 C181 C 0.18339 0.21185 0.22845
 C182 C 0.14340 0.17681 0.21665
 C183 C 0.27046 0.24293 0.24439
 C184 C 0.25415 0.25154 0.26142
 C185 C 0.29179 0.28226 0.27454
 C186 C 0.34626 0.30481 0.27087
 C187 C 0.36302 0.29664 0.25396
 C188 C 0.32536 0.26581 0.24080
 C189 C 0.38456 0.33704 0.28443
 C190 C 0.41533 0.36451 0.29604
 H191 H 0.20169 0.10677 0.20125
 H192 H 0.27193 0.16793 0.22198
 H193 H 0.17748 0.24073 0.23600
 H194 H 0.10705 0.17859 0.21549
 H195 H 0.21222 0.23373 0.26473
 H196 H 0.27838 0.28834 0.28758
 H197 H 0.40512 0.31417 0.25094
 H198 H 0.33915 0.26027 0.22776
 C199 C 0.93872 0.01718 -0.14354
 C200 C 0.90222 0.01691 -0.13555
 C201 C 0.86113 0.01863 -0.12505
 C202 C 0.82582 -0.02551 -0.11477
 C203 C 0.79009 -0.02171 -0.10291
 C204 C 0.78939 0.02644 -0.10112
 C205 C 0.82392 0.07008 -0.11193
 C206 C 0.85963 0.06618 -0.12378
 C207 C 0.75476 0.03196 -0.08741
 C208 C 0.72832 0.06041 -0.09125
 C209 C 0.69682 0.06649 -0.07809
 C210 C 0.69153 0.04439 -0.06094
 C211 C 0.71763 0.01603 -0.05702
 C212 C 0.74903 0.00985 -0.07014
 C213 C 0.65862 0.04968 -0.04738
 C214 C 0.63066 0.05244 -0.03579
 H215 H 0.82684 -0.06242 -0.11557
 H216 H 0.76346 -0.05623 -0.09496
 H217 H 0.82479 0.10785 -0.11072
 H218 H 0.88720 0.10079 -0.13153
 H219 H 0.73160 0.07748 -0.10447
 H220 H 0.67653 0.08827 -0.08129
 H221 H 0.71379 -0.00125 -0.04379
 H222 H 0.76957 -0.01146 -0.06666
 C223 C 0.07532 -0.02549 0.14488
 C224 C 0.11152 -0.01825 0.13498
 C225 C 0.15510 -0.00848 0.12316
 C226 C 0.14837 -0.01049 0.10442
 C227 C 0.19099 0.00017 0.09292
 C228 C 0.24103 0.01305 0.10001
 C229 C 0.24735 0.01482 0.11888
 C230 C 0.20467 0.00418 0.13036
 C231 C 0.28622 0.02415 0.08775
 C232 C 0.32051 0.00421 0.09161
 C233 C 0.36181 0.01302 0.07972
 C234 C 0.36953 0.04200 0.06386
 C235 C 0.33617 0.06271 0.06005
 C236 C 0.29483 0.05392 0.07191
 C237 C 0.40963 0.04785 0.05102
 C238 C 0.44182 0.05102 0.03996
 H239 H 0.11018 -0.02025 0.09870
 H240 H 0.18460 -0.00230 0.07847
 H241 H 0.28550 0.02519 0.12475
 H242 H 0.21041 0.00616 0.14485
 H243 H 0.31455 -0.01939 0.10357
 H244 H 0.38711 -0.00359 0.08273
 H245 H 0.34167 0.08507 0.04779
 H246 H 0.26961 0.07044 0.06869
 C247 C 0.89414 0.91695 0.47711
 C248 C 0.86507 0.88089 0.46716
 C249 C 0.83111 0.83739 0.45530
 C250 C 0.79406 0.78773 0.46246
 C251 C 0.76192 0.74510 0.45093
 C252 C 0.76653 0.75156 0.43208
 C253 C 0.80386 0.80170 0.42503
 C254 C 0.83591 0.84427 0.43658
 C255 C 0.73235 0.70642 0.41978
 C256 C 0.75342 0.69784 0.40374
 C257 C 0.72078 0.65657 0.39185
 C258 C 0.66669 0.62324 0.39583
 C259 C 0.64551 0.63092 0.41188
 C260 C 0.67809 0.67215 0.42380
 C261 C 0.63233 0.58328 0.38297
 C262 C 0.60320 0.55126 0.37190
 H263 H 0.79024 0.78187 0.47694
 H264 H 0.73402 0.70687 0.45677
 H265 H 0.80783 0.80820 0.41059
 H266 H 0.86447 0.88252 0.43089
 H267 H 0.79517 0.72304 0.40039
 H268 H 0.73757 0.65110 0.37945
 H269 H 0.60359 0.60565 0.41503
 H270 H 0.66052 0.67809 0.43592
 C271 C 0.03170 0.11102 0.81122
 C272 C 0.02487 0.13982 0.80127
 C273 C 0.01544 0.17338 0.78942
 C274 C 0.00249 0.21045 0.79658
 C275 C -0.00805 0.24210 0.78506
 C276 C -0.00590 0.23697 0.76620
 C277 C 0.00731 0.19967 0.75915
 C278 C 0.01787 0.16812 0.77069
 C279 C -0.01704 0.27053 0.75391
 C280 C -0.04650 0.24870 0.73796
 C281 C -0.05540 0.28073 0.72610
 C282 C -0.03512 0.33494 0.73000
 C283 C -0.00644 0.35687 0.74595
 C284 C 0.00249 0.32490 0.75785
 C285 C -0.04112 0.36865 0.71717
 C286 C -0.04440 0.39722 0.70612
 H287 H 0.00016 0.21462 0.81106
 H288 H -0.01869 0.26998 0.79090
 H289 H 0.01008 0.19532 0.74471
 H290 H 0.02783 0.13953 0.76500
 H291 H -0.06270 0.20684 0.73467
 H292 H -0.07753 0.26336 0.71376
 H293 H 0.00983 0.39889 0.74904
 H294 H 0.02583 0.34304 0.76990
 C295 C 0.93734 0.00605 0.14436
 C296 C 0.91490 0.01872 0.13352
 C297 C 0.88502 0.03056 0.12077
 C298 C 0.85478 0.05326 0.12676
 C299 C 0.82113 0.05941 0.11479
 C300 C 0.81716 0.04275 0.09667
 C301 C 0.84876 0.02123 0.09068
 C302 C 0.88235 0.01508 0.10267
 C303 C 0.77873 0.04581 0.08424
 C304 C 0.79250 0.06082 0.06612
 C305 C 0.75559 0.06191 0.05431
 C306 C 0.70445 0.04799 0.06044
 C307 C 0.69047 0.03337 0.07846
 C308 C 0.72732 0.03228 0.09030
 C309 C 0.66637 0.04856 0.04818
 C310 C 0.63503 0.04937 0.03773
 H311 H 0.85629 0.06509 0.14077
 H312 H 0.79787 0.07677 0.11975
 H313 H 0.84611 0.00739 0.07688
 H314 H 0.90511 -0.00310 0.09794
 H315 H 0.83190 0.07200 0.06110
 H316 H 0.76689 0.07349 0.04039
 H317 H 0.65096 0.02242 0.08334
 H318 H 0.71522 0.01978 0.10409
 C319 C 0.06472 0.05300 0.47704
 C320 C 0.10002 0.07529 0.46613
 C321 C 0.14187 0.10509 0.45329
 C322 C 0.12932 0.10679 0.43519
 C323 C 0.16904 0.14050 0.42311
 C324 C 0.22189 0.17319 0.42902
 C325 C 0.23437 0.17013 0.44714
 C326 C 0.19458 0.13636 0.45919
 C327 C 0.26323 0.21191 0.41651
 C328 C 0.30013 0.26387 0.42249
 C329 C 0.33778 0.30103 0.41058
 C330 C 0.33911 0.28681 0.39255
 C331 C 0.30291 0.23511 0.38651
 C332 C 0.26519 0.19789 0.39839
 C333 C 0.37731 0.32528 0.38020
 C334 C 0.40908 0.35703 0.36970
 H335 H 0.08854 0.08323 0.43052
 H336 H 0.15801 0.14241 0.40931
 H337 H 0.27479 0.19425 0.45204
 H338 H 0.20469 0.13562 0.47321
 H339 H 0.29914 0.27617 0.43628
 H340 H 0.36554 0.34097 0.41539
 H341 H 0.30371 0.22363 0.37259
 H342 H 0.23773 0.15807 0.39343
 C343 C -0.00270 0.94028 0.81128
 C344 C -0.01545 0.90465 0.80042
 C345 C -0.02727 0.86239 0.78762
 C346 C -0.04879 0.80979 0.79358
 C347 C -0.05473 0.76962 0.78155
 C348 C -0.03901 0.78161 0.76338
 C349 C -0.01872 0.83437 0.75742
 C350 C -0.01279 0.87448 0.76948
 C351 C -0.04172 0.73983 0.75088
 C352 C -0.05761 0.73737 0.73281
 C353 C -0.05835 0.69914 0.72093
 C354 C -0.04318 0.66291 0.72691
 C355 C -0.02766 0.66477 0.74488
 C356 C -0.02693 0.70294 0.75679
 C357 C -0.04338 0.62403 0.71457
 C358 C -0.04391 0.59166 0.70407
 H359 H -0.05983 0.80004 0.80762
 H360 H -0.07114 0.72927 0.78649
 H361 H -0.00563 0.84504 0.74358
 H362 H 0.00450 0.91518 0.76476
 H363 H -0.06976 0.76481 0.72791
 H364 H -0.07062 0.69792 0.70706
 H365 H -0.01574 0.63699 0.74964
 H366 H -0.01372 0.70430 0.77053
   
