data_POSCAR
  _audit_creation_date              2014-09-24
  _audit_creation_method            'ToBaCCo'
  _symmetry_space_group_name_H-M    'P1'
  _symmetry_Int_Tables_number       1
  _symmetry_cell_setting            triclinic
  loop_
  _symmetry_equiv_pos_as_xyz
 x,y,z
_cell_length_a 29.8147
_cell_length_b 29.7694
_cell_length_c 29.8945
_cell_angle_alpha 90.087200
_cell_angle_beta 90.099800
_cell_angle_gamma 89.927600
loop_
  _atom_site_label
  _atom_site_type_symbol
  _atom_site_fract_x
  _atom_site_fract_y
  _atom_site_fract_z
C1 C 0.33086 0.39934 1.36692
 C2 C 0.36130 0.39882 1.33116
 C3 C 0.39295 0.36497 1.32832
 C4 C 0.39497 0.33156 1.36120
 C5 C 0.36590 0.33282 1.39721
 C6 C 0.33322 0.36675 1.39988
 C7 C 0.29360 0.42514 1.37558
 N8 N 0.27298 0.40889 1.41273
 C9 C 0.29731 0.37346 1.42815
 C10 C 0.37479 0.29548 1.42297
 N11 N 0.40785 0.27125 1.40287
 C12 C 0.42027 0.29308 1.36499
 C13 C 0.41661 0.37150 1.28948
 N14 N 0.40034 0.40865 1.26871
 C15 C 0.36632 0.42556 1.29382
 H16 H 0.28130 0.45248 1.35505
 H17 H 0.28830 0.35260 1.45639
 H18 H 0.35727 0.28581 1.45316
 H19 H 0.44559 0.28165 1.34165
 H20 H 0.44358 0.35054 1.27707
 H21 H 0.34641 0.45476 1.28529
 C22 C 1.16511 0.59886 0.87126
 C23 C 1.13228 0.59726 0.83764
 C24 C 1.09859 0.62927 0.83661
 C25 C 1.09717 0.66320 0.86921
 C26 C 1.12963 0.66469 0.90232
 C27 C 1.16376 0.63223 0.90350
 C28 C 1.20373 0.57456 0.87820
 N29 N 1.22584 0.59223 0.91394
 C30 C 1.20149 0.62744 0.92979
 C31 C 1.12243 0.70319 0.92675
 N32 N 1.08636 0.72513 0.90936
 C33 C 1.07051 0.70073 0.87427
 C34 C 1.07396 0.62194 0.79837
 N35 N 1.09177 0.58624 0.77626
 C36 C 1.12739 0.57081 0.80007
 H37 H 1.21547 0.54683 0.85784
 H38 H 1.21128 0.64905 0.95729
 H39 H 1.14292 0.71506 0.95427
 H40 H 1.04283 0.71044 0.85284
 H41 H 1.04605 0.64207 0.78668
 H42 H 1.14923 0.54358 0.78987
 C43 C 0.67296 -0.10650 0.13426
 C44 C 0.64023 -0.10464 0.16775
 C45 C 0.60433 -0.13408 0.16685
 C46 C 0.60153 -0.16675 0.13301
 C47 C 0.63429 -0.16884 0.10024
 C48 C 0.67000 -0.13816 0.10052
 C49 C 0.71180 -0.08269 0.12764
 N50 N 0.73256 -0.09885 0.09049
 C51 C 0.70726 -0.13294 0.07367
 C52 C 0.62547 -0.20607 0.07445
 N53 N 0.58840 -0.22690 0.09084
 C54 C 0.57322 -0.20277 0.12640
 C55 C 0.57884 -0.12541 0.20432
 N56 N 0.59890 -0.09200 0.22794
 C57 C 0.63651 -0.07920 0.20600
 H58 H 0.72418 -0.05573 0.14865
 H59 H 0.71559 -0.15289 0.04451
 H60 H 0.64580 -0.21817 0.04694
 H61 H 0.54508 -0.21194 0.14734
 H62 H 0.54885 -0.14311 0.21451
 H63 H 0.65967 -0.05361 0.21737
 C64 C -0.16735 1.10345 -0.36650
 C65 C -0.13293 1.10027 -0.33452
 C66 C -0.09998 1.13301 -0.33260
 C67 C -0.10073 1.16912 -0.36273
 C68 C -0.13510 1.17250 -0.39364
 C69 C -0.16878 1.13978 -0.39527
 C70 C -0.20489 1.07783 -0.37501
 N71 N -0.22938 1.09830 -0.40759
 C72 C -0.20757 1.13632 -0.42002
 C73 C -0.12869 1.21159 -0.41710
 N74 N -0.09106 1.23208 -0.40146
 C75 C -0.07375 1.20639 -0.36801
 C76 C -0.07375 1.12393 -0.29585
 N77 N -0.09006 1.08676 -0.27521
 C78 C -0.12603 1.07179 -0.29882
 H79 H -0.21441 1.04740 -0.35766
 H80 H -0.21913 1.15990 -0.44509
 H81 H -0.15011 1.22429 -0.44352
 H82 H -0.04411 1.21440 -0.34861
 H83 H -0.04620 1.14426 -0.28368
 H84 H -0.14715 1.04385 -0.28927
 C85 C 0.66984 0.60649 0.63497
 C86 C 0.63595 0.60385 0.66724
 C87 C 0.60123 0.63489 0.66734
 C88 C 0.60063 0.66966 0.63561
 C89 C 0.63480 0.67268 0.60449
 C90 C 0.66955 0.64105 0.60417
 C91 C 0.70796 0.58149 0.62742
 N92 N 0.73086 0.60059 0.59323
 C93 C 0.70793 0.63722 0.57897
 C94 C 0.62773 0.71093 0.57998
 N95 N 0.59011 0.73156 0.59534
 C96 C 0.57313 0.70649 0.62935
 C97 C 0.57502 0.62577 0.70414
 N98 N 0.59363 0.59074 0.72653
 C99 C 0.63082 0.57709 0.70430
 H100 H 0.71886 0.55228 0.64606
 H101 H 0.71845 0.65934 0.55226
 H102 H 0.64916 0.72340 0.55355
 H103 H 0.54383 0.71505 0.64897
 H104 H 0.54611 0.64477 0.71525
 H105 H 0.65327 0.55065 0.71519
 C106 C 0.82625 0.39300 0.13695
 C107 C 0.85862 0.39427 0.17103
 C108 C 0.89202 0.36193 0.17262
 C109 C 0.89295 0.32740 0.14062
 C110 C 0.86104 0.32625 0.10694
 C111 C 0.82711 0.35892 0.10545
 C112 C 0.78922 0.41917 0.12806
 N113 N 0.76694 0.40115 0.09261
 C114 C 0.78985 0.36419 0.07863
 C115 C 0.86964 0.28884 0.08123
 N116 N 0.90533 0.26668 0.09907
 C117 C 0.91967 0.28995 0.13556
 C118 C 0.91788 0.37077 0.20983
 N119 N 0.90038 0.40704 0.23113
 C120 C 0.86404 0.42154 0.20789
 H121 H 0.77841 0.44821 0.14709
 H122 H 0.77997 0.34248 0.05124
 H123 H 0.85039 0.27782 0.05248
 H124 H 0.94741 0.28033 0.15695
 H125 H 0.94630 0.35134 0.22149
 H126 H 0.84289 0.44954 0.21744
 C127 C 0.33104 0.10096 0.86572
 C128 C 0.36348 0.09980 0.83169
 C129 C 0.39498 0.13379 0.82894
 C130 C 0.39491 0.16893 0.86005
 C131 C 0.36333 0.16983 0.89382
 C132 C 0.33067 0.13612 0.89615
 C133 C 0.29405 0.07478 0.87458
 N134 N 0.27073 0.09397 0.90872
 C135 C 0.29300 0.13143 0.92215
 C136 C 0.37071 0.20823 0.91846
 N137 N 0.40556 0.23069 0.89989
 C138 C 0.42038 0.20723 0.86395
 C139 C 0.41997 0.12634 0.79120
 N140 N 0.40447 0.08877 0.77066
 C141 C 0.36993 0.07212 0.79515
 H142 H 0.28363 0.04537 0.85592
 H143 H 0.28202 0.15427 0.94817
 H144 H 0.35156 0.21959 0.94707
 H145 H 0.44770 0.21731 0.84237
 H146 H 0.44660 0.14761 0.77876
 H147 H 0.34997 0.04311 0.78617
 C148 C 0.17359 0.89574 0.36443
 C149 C 0.14198 0.89613 0.32978
 C150 C 0.10730 0.86537 0.32961
 C151 C 0.10452 0.83308 0.36351
 C152 C 0.13554 0.83291 0.39811
 C153 C 0.17042 0.86460 0.39860
 C154 C 0.21190 0.92020 0.37146
 N155 N 0.23240 0.90478 0.40905
 C156 C 0.20720 0.87078 0.42605
 C157 C 0.12626 0.79610 0.42439
 N158 N 0.09115 0.77374 0.40591
 C159 C 0.07761 0.79602 0.36876
 C160 C 0.08230 0.87299 0.29162
 N161 N 0.10148 0.90720 0.26869
 C162 C 0.13819 0.92138 0.29146
 H163 H 0.22448 0.94665 0.35005
 H164 H 0.21562 0.85114 0.45535
 H165 H 0.14520 0.78493 0.45325
 H166 H 0.05113 0.78514 0.34641
 H167 H 0.05300 0.85441 0.28087
 H168 H 0.16036 0.94810 0.28088
 Zn169 Zn 0.01253 1.05268 -0.02830
 Zn170 Zn -0.03482 0.96360 -0.03630
 Zn171 Zn 0.05406 0.97094 0.01053
 Zn172 Zn -0.02676 1.01079 0.05250
 O173 O 0.00106 0.99938 -0.00057
 O174 O -0.01144 1.05458 -0.08273
 O175 O -0.00891 0.91006 -0.04913
 O176 O 0.10140 0.99957 -0.01201
 O177 O -0.04750 0.98980 -0.08950
 O178 O 0.07129 1.06301 -0.03648
 O179 O 0.05574 0.91625 -0.01302
 O180 O 0.00307 0.98933 0.09977
 O181 O -0.08790 0.95044 -0.01000
 O182 O 0.06517 0.96305 0.06881
 O183 O -0.08072 0.98578 0.05495
 O184 O -0.03583 1.06944 0.06289
 O185 O -0.00990 1.10037 0.00081
 C186 C -0.03545 1.02759 -0.10522
 C187 C 0.02871 0.89394 -0.03704
 C188 C 0.10505 1.03783 -0.03009
 C189 C 0.04112 0.97059 0.10293
 C190 C -0.10316 0.96156 0.02816
 C191 C -0.02884 1.10359 0.03861
 Zn192 Zn 0.47412 0.01364 0.44524
 Zn193 Zn 0.46624 -0.03386 0.53362
 Zn194 Zn 0.55519 -0.02619 0.48718
 Zn195 Zn 0.51320 0.05518 0.52667
 O196 O 0.50207 0.00207 0.49830
 O197 O 0.42000 -0.01116 0.44271
 O198 O 0.49243 -0.08681 0.54715
 O199 O 0.56570 -0.03498 0.42870
 O200 O 0.41354 -0.04738 0.50710
 O201 O 0.50362 -0.00822 0.39791
 O202 O 0.55730 -0.08048 0.51168
 O203 O 0.57186 0.06562 0.53558
 O204 O 0.45251 -0.00782 0.58638
 O205 O 0.60258 0.00307 0.50954
 O206 O 0.48846 0.05702 0.58066
 O207 O 0.49093 0.10286 0.49777
 O208 O 0.46522 0.07243 0.43515
 C209 C 0.39789 -0.03577 0.46928
 C210 C 0.53037 -0.10260 0.53588
 C211 C 0.54139 -0.02752 0.39463
 C212 C 0.60589 0.04100 0.52856
 C213 C 0.46399 0.03001 0.60242
 C214 C 0.47208 0.10638 0.45991
 Zn215 Zn 0.94764 0.47295 0.48923
 Zn216 Zn 1.03662 0.46478 0.53622
 Zn217 Zn 1.02870 0.51244 0.44764
 Zn218 Zn 0.98966 0.55389 0.52902
 O219 O 1.00084 0.50083 0.50066
 O220 O 0.94514 0.41885 0.51394
 O221 O 1.08987 0.45186 0.50998
 O222 O 0.99931 0.49045 0.40002
 O223 O 1.01013 0.41166 0.54936
 O224 O 0.93720 0.46419 0.43081
 O225 O 1.08318 0.48827 0.44563
 O226 O 1.01164 0.60149 0.50032
 O227 O 1.04963 0.49078 0.58951
 O228 O 1.03709 0.57129 0.43760
 O229 O 1.01375 0.55571 0.58326
 O230 O 0.93125 0.56470 0.53734
 O231 O 0.90023 0.50264 0.51080
 C232 C 0.97189 0.39638 0.53817
 C233 C 1.10564 0.46400 0.47237
 C234 C 0.96136 0.47151 0.39672
 C235 C 1.03011 0.60520 0.46239
 C236 C 1.03779 0.52860 0.60548
 C237 C 0.89706 0.54060 0.52976
 Zn238 Zn 0.47080 0.48966 0.94604
 Zn239 Zn 0.46391 0.53683 1.03474
 Zn240 Zn 0.51091 0.44763 1.02654
 Zn241 Zn 0.55251 0.52885 0.98703
 O242 O 0.49941 0.50091 0.99878
 O243 O 0.41643 0.51377 0.94440
 O244 O 0.45072 0.51028 1.08761
 O245 O 0.48924 0.40012 0.99702
 O246 O 0.41050 0.55005 1.00890
 O247 O 0.46238 0.43117 0.93533
 O248 O 0.48605 0.44511 1.08040
 O249 O 0.60023 0.49957 1.00908
 O250 O 0.49035 0.59009 1.04764
 O251 O 0.56954 0.43724 1.03528
 O252 O 0.55463 0.58345 1.01100
 O253 O 0.56249 0.53707 0.92838
 O254 O 0.49944 0.51162 0.89854
 C255 C 0.39433 0.53805 0.97135
 C256 C 0.46180 0.47193 1.10278
 C257 C 0.47005 0.39694 0.95931
 C258 C 0.60358 0.46163 1.02801
 C259 C 0.52799 0.60589 1.03537
 C260 C 0.53750 0.53007 0.89469
 N261 N 1.20981 0.45631 0.40749
 C262 C 1.23290 0.42348 0.42904
 N263 N 1.21426 0.40451 0.46602
 N264 N 1.17401 0.41770 0.48055
 C265 C 1.15083 0.45013 0.45844
 N266 N 1.16959 0.46923 0.42180
 N267 N 0.28920 0.54523 0.90773
 C268 C 0.26654 0.57835 0.92932
 N269 N 0.28590 0.59784 0.96577
 N270 N 0.32638 0.58480 0.97985
 C271 C 0.34906 0.55200 0.95778
 N272 N 0.32966 0.53247 0.92158
 N273 N -0.20976 0.89894 0.03591
 C274 C -0.22769 0.91630 0.07407
 N275 N -0.20481 0.94904 0.09599
 N276 N -0.16552 0.96351 0.08083
 C277 C -0.14753 0.94615 0.04290
 N278 N -0.17041 0.91366 0.02055
 N279 N 0.71498 0.04223 0.58565
 C280 C 0.73053 0.08399 0.57597
 N281 N 0.70493 0.11135 0.54991
 N282 N 0.66511 0.09777 0.53476
 C283 C 0.64992 0.05593 0.54422
 N284 N 0.67562 0.02833 0.56971
 N285 N 0.41465 0.21553 0.45871
 C286 C 0.42453 0.23122 0.41722
 N287 N 0.45091 0.20574 0.39008
 N288 N 0.46615 0.16589 0.40359
 C289 C 0.45647 0.15054 0.44515
 N290 N 0.43068 0.17613 0.47255
 N291 N 0.96408 0.28950 0.60031
 C292 C 0.92547 0.27186 0.58342
 N293 N 0.90326 0.29502 0.55116
 N294 N 0.91859 0.33430 0.53668
 C295 C 0.95696 0.35200 0.55356
 N296 N 0.97959 0.32885 0.58560
 N297 N 0.03423 0.78510 -0.09616
 C298 C 0.07085 0.76583 -0.07677
 N299 N 0.09253 0.78865 -0.04389
 N300 N 0.07864 0.82920 -0.03127
 C301 C 0.04229 0.84852 -0.05072
 N302 N 0.02010 0.82566 -0.08326
 N303 N 0.53495 0.71430 1.09522
 C304 C 0.57190 0.73306 1.07617
 N305 N 0.59321 0.71015 1.04314
 N306 N 0.57869 0.66997 1.03011
 C307 C 0.54209 0.65109 1.04929
 N308 N 0.52022 0.67410 1.08193
 N309 N 0.40053 0.46527 1.20991
 C310 C 0.41622 0.42584 1.22679
 N311 N 0.44725 0.40252 1.20308
 N312 N 0.46183 0.41771 1.16391
 C313 C 0.44621 0.45697 1.14692
 N314 N 0.41530 0.48061 1.17066
 N315 N 0.53984 -0.07097 0.27944
 C316 C 0.58423 -0.07465 0.27013
 N317 N 0.61456 -0.06198 0.30166
 N318 N 0.60098 -0.04675 0.34134
 C319 C 0.55659 -0.04281 0.35054
 N320 N 0.52628 -0.05502 0.31884
 N321 N -0.09262 1.03191 -0.21487
 C322 C -0.07497 1.06997 -0.23277
 N323 N -0.04402 1.09320 -0.20880
 N324 N -0.03143 1.07923 -0.16845
 C325 C -0.04913 1.04141 -0.15041
 N326 N -0.07981 1.01778 -0.17445
 N327 N 1.09514 0.53234 0.71501
 C328 C 1.07740 0.57029 0.73325
 N329 N 1.04650 0.59375 0.70948
 N330 N 1.03398 0.58006 0.66898
 C331 C 1.05167 0.54227 0.65065
 N332 N 1.08239 0.51847 0.67445
 N333 N 0.80439 0.61521 0.56243
 C334 C 0.77284 0.58532 0.57590
 N335 N 0.78196 0.54073 0.57321
 N336 N 0.82126 0.52651 0.55747
 C337 C 0.85302 0.55638 0.54452
 N338 N 0.84399 0.60098 0.54743
 N339 N 0.70342 0.39124 1.04609
 C340 C 0.72753 0.41654 1.07542
 N341 N 0.71090 0.45715 1.08807
 N342 N 0.67189 0.47190 1.07200
 C343 C 0.64762 0.44628 1.04330
 N344 N 0.66393 0.40561 1.03072
 N345 N 0.20564 1.10660 -0.04801
 C346 C 0.23057 1.07975 -0.07521
 N347 N 0.21398 1.03888 -0.08689
 N348 N 0.17425 1.02533 -0.07178
 C349 C 0.14922 1.05249 -0.04522
 N350 N 0.16548 1.09341 -0.03366
 N351 N 0.29067 -0.09734 0.46312
 C352 C 0.27234 -0.08010 0.42510
 N353 N 0.29523 -0.04784 0.40266
 N354 N 0.33494 -0.03369 0.41719
 C355 C 0.35334 -0.05098 0.45494
 N356 N 0.33044 -0.08295 0.47783
 N357 N 0.59665 -0.20569 0.54797
 C358 C 0.57409 -0.22846 0.58017
 N359 N 0.53606 -0.20992 0.59732
 N360 N 0.52145 -0.17008 0.58292
 C361 C 0.54448 -0.14730 0.55101
 N362 N 0.58223 -0.16591 0.53381
 N363 N 1.06118 0.69991 0.39000
 C364 C 1.07429 0.73123 0.42039
 N365 N 1.07225 0.72113 0.46458
 N366 N 1.05733 0.68118 0.47790
 C367 C 1.04469 0.64968 0.44751
 N368 N 1.04700 0.65967 0.40331
 N369 N -0.09023 1.21038 0.04346
 C370 C -0.07732 1.22727 0.08374
 N371 N -0.04741 1.20350 0.10871
 N372 N -0.03171 1.16410 0.09431
 C373 C -0.04451 1.14756 0.05396
 N374 N -0.07383 1.17146 0.02869
 N375 N 0.43698 0.30406 0.88521
 C376 C 0.42307 0.27269 0.91503
 N377 N 0.42562 0.28199 0.95941
 N378 N 0.44166 0.32128 0.97350
 C379 C 0.45506 0.35286 0.94369
 N380 N 0.45227 0.34367 0.89930
 N381 N 0.60980 0.56096 0.80010
 C382 C 0.57924 0.57402 0.76896
 N383 N 0.53497 0.57202 0.77917
 N384 N 0.52173 0.55718 0.81903
 C385 C 0.55230 0.54457 0.85033
 N386 N 0.59658 0.54685 0.84024
 N387 N 0.45105 0.09625 0.70509
 C388 C 0.42022 0.07237 0.72837
 N389 N 0.40403 0.03368 0.71032
 N390 N 0.41819 0.01959 0.67034
 C391 C 0.44884 0.04383 0.64703
 N392 N 0.46500 0.08231 0.66521
 N393 N 0.11590 0.93810 0.19529
 C394 C 0.08614 0.92462 0.22685
 N395 N 0.04160 0.92728 0.21784
 N396 N 0.02729 0.94300 0.17864
 C397 C 0.05703 0.95595 0.14687
 N398 N 0.10159 0.95309 0.15579
 N399 N 0.88644 0.43972 0.30403
 C400 C 0.91601 0.42513 0.27271
 N401 N 0.96058 0.42679 0.28198
 N402 N 0.97505 0.44264 0.32113
 C403 C 0.94546 0.45668 0.35268
 N404 N 0.90089 0.45481 0.34349
   
