data_POSCAR
  _audit_creation_date              2014-09-24
  _audit_creation_method            'ToBaCCo'
  _symmetry_space_group_name_H-M    'P1'
  _symmetry_Int_Tables_number       1
  _symmetry_cell_setting            triclinic
  loop_
  _symmetry_equiv_pos_as_xyz
 x,y,z
_cell_length_a 59.9677
_cell_length_b 33.8340
_cell_length_c 27.7229
_cell_angle_alpha 90.001500
_cell_angle_beta 89.908900
_cell_angle_gamma 89.901000
loop_
  _atom_site_label
  _atom_site_type_symbol
  _atom_site_fract_x
  _atom_site_fract_y
  _atom_site_fract_z
C1 C 0.69853 0.30399 0.49797
 C2 C 0.70678 0.28855 0.54110
 C3 C 0.72657 0.26644 0.54107
 C4 C 0.73907 0.26127 0.49813
 C5 C 0.73063 0.27820 0.45518
 C6 C 0.71024 0.29840 0.45501
 C7 C 0.76064 0.23847 0.49811
 C8 C 0.76923 0.22170 0.45511
 C9 C 0.78969 0.20160 0.45499
 C10 C 0.80125 0.19599 0.49811
 C11 C 0.79282 0.21131 0.54114
 C12 C 0.77301 0.23326 0.54108
 H13 H 0.68292 0.32030 0.49772
 H14 H 0.73191 0.25327 0.57466
 H15 H 0.73969 0.27611 0.42155
 H16 H 0.76021 0.22390 0.42147
 H17 H 0.81690 0.17980 0.49824
 H18 H 0.76761 0.24626 0.57473
 C19 C 0.19722 0.79989 0.50318
 C20 C 0.20883 0.79491 0.54639
 C21 C 0.22970 0.77624 0.54638
 C22 C 0.23879 0.76031 0.50339
 C23 C 0.22641 0.76491 0.46029
 C24 C 0.20611 0.78543 0.46011
 C25 C 0.26091 0.73919 0.50352
 C26 C 0.27347 0.73475 0.46057
 C27 C 0.29378 0.71432 0.46056
 C28 C 0.30253 0.69979 0.50366
 C29 C 0.29076 0.70461 0.54677
 C30 C 0.26985 0.72319 0.54658
 H31 H 0.18124 0.81501 0.50299
 H32 H 0.23866 0.77459 0.58013
 H33 H 0.23218 0.75260 0.42654
 H34 H 0.26782 0.74713 0.42680
 H35 H 0.31854 0.68474 0.50357
 H36 H 0.26075 0.72472 0.58022
 C37 C 0.30255 0.29883 -0.49847
 C38 C 0.29380 0.28419 -0.54149
 C39 C 0.27344 0.26397 -0.54131
 C40 C 0.26088 0.25992 -0.49830
 C41 C 0.26985 0.27601 -0.45539
 C42 C 0.29077 0.29433 -0.45539
 C43 C 0.23869 0.23920 -0.49818
 C44 C 0.22968 0.22322 -0.45517
 C45 C 0.20871 0.20495 -0.45501
 C46 C 0.19698 0.20040 -0.49811
 C47 C 0.20580 0.21496 -0.54117
 C48 C 0.22617 0.23512 -0.54110
 H49 H 0.31856 0.31373 -0.49852
 H50 H 0.26774 0.25142 -0.57493
 H51 H 0.26080 0.27475 -0.42170
 H52 H 0.23878 0.22456 -0.42158
 H53 H 0.18095 0.18555 -0.49824
 H54 H 0.23190 0.24760 -0.57478
 C55 C -0.19793 0.80327 -0.50199
 C56 C -0.20948 0.79774 -0.54513
 C57 C -0.22987 0.77756 -0.54515
 C58 C -0.23843 0.76068 -0.50225
 C59 C -0.22608 0.76581 -0.45922
 C60 C -0.20633 0.78781 -0.45902
 C61 C -0.25999 0.73800 -0.50236
 C62 C -0.27249 0.73295 -0.45945
 C63 C -0.29230 0.71115 -0.45945
 C64 C -0.30060 0.69578 -0.50249
 C65 C -0.28891 0.70122 -0.54551
 C66 C -0.26847 0.72120 -0.54536
 H67 H -0.18234 0.81952 -0.50178
 H68 H -0.23888 0.77543 -0.57880
 H69 H -0.23146 0.75272 -0.42562
 H70 H -0.26719 0.74602 -0.42581
 H71 H -0.31625 0.67972 -0.50256
 H72 H -0.25942 0.72327 -0.57900
 O73 O -0.03158 0.93334 0.08878
 O74 O -0.05563 0.96821 0.04024
 C75 C -0.05142 0.94392 0.07517
 O76 O 0.03091 1.07231 0.08639
 O77 O 0.05604 1.03462 0.04380
 C78 C 0.05103 1.06168 0.07507
 O79 O -0.03178 1.06761 0.08817
 O80 O -0.05573 1.03238 0.03996
 C81 C -0.05159 1.05688 0.07469
 O82 O 0.03106 0.92863 0.08688
 O83 O 0.05612 0.96639 0.04428
 C84 C 0.05117 0.93941 0.07568
 Zr85 Zr 0.00008 0.95028 0.06144
 O86 O 0.00140 0.94693 0.13759
 O87 O -0.00100 0.88807 0.05520
 Zr88 Zr -0.00007 1.05062 0.06105
 O89 O 0.00157 1.05326 0.13722
 O90 O -0.00283 1.11297 0.05772
 O91 O -0.01976 1.00045 0.06981
 O92 O 0.01915 1.00049 0.07118
 O93 O 0.03300 0.92822 -0.08218
 O94 O 0.05701 0.96621 -0.03733
 C95 C 0.05281 0.93927 -0.06923
 O96 O -0.02968 1.06770 -0.09027
 O97 O -0.05472 1.03261 -0.04442
 C98 C -0.04977 1.05734 -0.07844
 O99 O 0.03283 1.07128 -0.08365
 O100 O 0.05690 1.03423 -0.03770
 C101 C 0.05267 1.06058 -0.07031
 O102 O -0.02951 0.93179 -0.08931
 O103 O -0.05463 0.96748 -0.04418
 C104 C -0.04963 0.94236 -0.07779
 Zr105 Zr 0.00144 0.94985 -0.05983
 O106 O 0.00459 0.94775 -0.13585
 O107 O -0.00066 0.88743 -0.05689
 Zr108 Zr 0.00131 1.05024 -0.06038
 O109 O 0.00442 1.05257 -0.13635
 O110 O -0.00127 1.11263 -0.05737
 Zr111 Zr -0.03240 1.00021 -0.00111
 Zr112 Zr 0.03395 1.00032 0.00224
 O113 O 0.02068 1.00001 -0.06807
 O114 O -0.01823 0.99998 -0.07075
 O115 O 0.02082 0.94257 0.00187
 O116 O -0.01891 1.05755 -0.00064
 O117 O -0.01881 0.94290 -0.00005
 O118 O 0.02067 1.05810 0.00128
 H119 H 0.02869 1.00055 0.10031
 H120 H -0.02932 1.08033 -0.00111
 H121 H 0.03081 0.99985 -0.09633
 H122 H -0.02913 0.92005 -0.00029
 H123 H 0.01086 1.12315 0.04215
 H124 H 0.01239 1.12276 -0.04169
 H125 H -0.00607 1.03296 -0.14982
 H126 H -0.00654 0.96625 -0.14937
 H127 H 0.01138 0.87804 -0.03536
 H128 H -0.00178 0.87779 0.08862
 H129 H -0.00867 0.96763 0.15029
 H130 H -0.00938 1.03408 0.14994
 O131 O 0.52967 0.43279 -0.09168
 O132 O 0.55474 0.46830 -0.04653
 C133 C 0.54977 0.44340 -0.08035
 O134 O 0.46660 0.57137 -0.08323
 O135 O 0.44283 0.53370 -0.03733
 C136 C 0.44685 0.56036 -0.06969
 O137 O 0.52906 0.56885 -0.09080
 O138 O 0.55445 0.53359 -0.04606
 C139 C 0.54925 0.55867 -0.07953
 O140 O 0.46724 0.42846 -0.08352
 O141 O 0.44313 0.46574 -0.03772
 C142 C 0.44740 0.43918 -0.07009
 Zr143 Zr 0.49872 0.45008 -0.06119
 O144 O 0.49573 0.44669 -0.13712
 O145 O 0.50006 0.38791 -0.05483
 Zr146 Zr 0.49827 0.55052 -0.06079
 O147 O 0.49502 0.55295 -0.13673
 O148 O 0.50044 0.61294 -0.05745
 O149 O 0.51807 0.50056 -0.07202
 O150 O 0.47919 0.50011 -0.06865
 O151 O 0.46956 0.42741 0.08545
 O152 O 0.44418 0.46527 0.04385
 C153 C 0.44936 0.43803 0.07475
 O154 O 0.53166 0.56714 0.08741
 O155 O 0.55569 0.53261 0.03833
 C156 C 0.55149 0.55677 0.07344
 O157 O 0.46896 0.57121 0.08679
 O158 O 0.44393 0.53337 0.04446
 C159 C 0.44886 0.56033 0.07583
 O160 O 0.53224 0.43275 0.08623
 O161 O 0.55596 0.46845 0.03784
 C162 C 0.55198 0.44375 0.07247
 Zr163 Zr 0.50041 0.44976 0.06001
 O164 O 0.49895 0.44761 0.13626
 O165 O 0.50303 0.38739 0.05710
 Zr166 Zr 0.49997 0.55005 0.06061
 O167 O 0.49852 0.55218 0.13682
 O168 O 0.50240 0.61245 0.05792
 Zr169 Zr 0.53244 0.50049 -0.00268
 Zr170 Zr 0.46608 0.49979 0.00186
 O171 O 0.48106 0.49965 0.07055
 O172 O 0.52000 0.50007 0.06850
 O173 O 0.47954 0.44219 0.00067
 O174 O 0.51861 0.55765 -0.00135
 O175 O 0.51917 0.44300 -0.00199
 O176 O 0.47904 0.55773 0.00130
 H177 H 0.46903 0.50003 -0.09680
 H178 H 0.52887 0.58058 -0.00169
 H179 H 0.47156 0.49937 0.09982
 H180 H 0.52960 0.42026 -0.00268
 H181 H 0.48685 0.62277 -0.04107
 H182 H 0.48863 0.62259 0.04265
 H183 H 0.50936 0.53260 0.14913
 H184 H 0.51035 0.46603 0.14868
 H185 H 0.49064 0.37769 0.03677
 H186 H 0.49978 0.37749 -0.08823
 H187 H 0.50536 0.46756 -0.15081
 H188 H 0.50598 0.53420 -0.15049
 C189 C 0.30556 0.29131 0.41402
 C190 C 0.31569 0.29903 0.37762
 C191 C 0.32816 0.31015 0.33533
 C192 C 0.32037 0.34063 0.30564
 C193 C 0.33346 0.35428 0.26735
 C194 C 0.35460 0.33767 0.25833
 C195 C 0.36198 0.30623 0.28751
 C196 C 0.34886 0.29265 0.32581
 C197 C 0.36945 0.35458 0.22068
 C198 C 0.38298 0.32995 0.19198
 C199 C 0.39818 0.34626 0.15922
 C200 C 0.40001 0.38734 0.15468
 C201 C 0.38624 0.41203 0.18221
 C202 C 0.37106 0.39582 0.21493
 C203 C 0.41696 0.40436 0.12434
 C204 C 0.43156 0.41933 0.10068
 H205 H 0.30440 0.35449 0.31277
 H206 H 0.32719 0.37818 0.24519
 H207 H 0.37828 0.29316 0.28195
 H208 H 0.35514 0.26925 0.34879
 H209 H 0.38195 0.29812 0.19520
 H210 H 0.40879 0.32686 0.13816
 H211 H 0.38766 0.44386 0.17929
 H212 H 0.36115 0.41561 0.23696
 C213 C -0.20022 0.81072 0.41286
 C214 C -0.19095 0.82162 0.37663
 C215 C -0.17858 0.83397 0.33478
 C216 C -0.18280 0.87063 0.31323
 C217 C -0.16932 0.88389 0.27532
 C218 C -0.15138 0.86066 0.25866
 C219 C -0.14766 0.82345 0.27985
 C220 C -0.16116 0.81026 0.31763
 C221 C -0.13578 0.87594 0.22143
 C222 C -0.12674 0.85056 0.18618
 C223 C -0.11055 0.86422 0.15391
 C224 C -0.10325 0.90342 0.15633
 C225 C -0.11258 0.92918 0.19034
 C226 C -0.12874 0.91559 0.22266
 C227 C -0.08534 0.91682 0.12590
 C228 C -0.06998 0.92868 0.10190
 H229 H -0.19621 0.88928 0.32633
 H230 H -0.17276 0.91247 0.25941
 H231 H -0.13380 0.80512 0.26846
 H232 H -0.15762 0.78200 0.33435
 H233 H -0.13202 0.82003 0.18391
 H234 H -0.10344 0.84405 0.12770
 H235 H -0.10695 0.95954 0.19269
 H236 H -0.13510 0.93573 0.24974
 C237 C 0.70130 0.68775 0.41006
 C238 C 0.69187 0.67711 0.37396
 C239 C 0.67927 0.66508 0.33234
 C240 C 0.66158 0.68870 0.31638
 C241 C 0.64791 0.67582 0.27881
 C242 C 0.65170 0.63900 0.25663
 C243 C 0.66987 0.61586 0.27214
 C244 C 0.68354 0.62882 0.30982
 C245 C 0.63598 0.62405 0.21948
 C246 C 0.62921 0.58424 0.21981
 C247 C 0.61301 0.57087 0.18754
 C248 C 0.60337 0.59701 0.15444
 C249 C 0.61038 0.63641 0.15294
 C250 C 0.62661 0.64986 0.18517
 C251 C 0.58545 0.58375 0.12403
 C252 C 0.57008 0.57198 0.10006
 H253 H 0.65799 0.71666 0.33383
 H254 H 0.63388 0.69406 0.26835
 H255 H 0.67338 0.58759 0.25545
 H256 H 0.69715 0.61024 0.32200
 H257 H 0.63584 0.56375 0.24616
 H258 H 0.60762 0.54035 0.18919
 H259 H 0.60302 0.65691 0.12747
 H260 H 0.63166 0.68053 0.18358
 C261 C 0.19413 1.20778 0.41435
 C262 C 0.18414 1.20005 0.37786
 C263 C 0.17188 1.18893 0.33540
 C264 C 0.17968 1.15810 0.30620
 C265 C 0.16676 1.14448 0.26773
 C266 C 0.14581 1.16147 0.25804
 C267 C 0.13843 1.19326 0.28671
 C268 C 0.15137 1.20682 0.32520
 C269 C 0.13108 1.14455 0.22030
 C270 C 0.11790 1.16921 0.19099
 C271 C 0.10275 1.15294 0.15823
 C272 C 0.10062 1.11187 0.15431
 C273 C 0.11405 1.08713 0.18243
 C274 C 0.12919 1.10330 0.21515
 C275 C 0.08362 1.09497 0.12415
 C276 C 0.06895 1.08013 0.10070
 H277 H 0.19551 1.14396 0.31386
 H278 H 0.17302 1.12031 0.24595
 H279 H 0.12225 1.20662 0.28061
 H280 H 0.14510 1.23048 0.34781
 H281 H 0.11915 1.20105 0.19377
 H282 H 0.09239 1.17236 0.13672
 H283 H 0.11240 1.05530 0.17999
 H284 H 0.13883 1.08350 0.23768
 C285 C 0.69568 0.29617 -0.41698
 C286 C 0.68550 0.30463 -0.38088
 C287 C 0.67286 0.31669 -0.33922
 C288 C 0.67962 0.34961 -0.31245
 C289 C 0.66620 0.36400 -0.27507
 C290 C 0.64577 0.34568 -0.26406
 C291 C 0.63943 0.31190 -0.29029
 C292 C 0.65288 0.29758 -0.32768
 C293 C 0.63054 0.36296 -0.22735
 C294 C 0.61820 0.33849 -0.19615
 C295 C 0.60275 0.35482 -0.16395
 C296 C 0.59945 0.39577 -0.16245
 C297 C 0.61196 0.42040 -0.19262
 C298 C 0.62741 0.40416 -0.22481
 C299 C 0.58240 0.41241 -0.13201
 C300 C 0.56771 0.42653 -0.10775
 H301 H 0.69502 0.36474 -0.32120
 H302 H 0.67167 0.38976 -0.25517
 H303 H 0.62367 0.29745 -0.28316
 H304 H 0.64737 0.27230 -0.34846
 H305 H 0.62042 0.30673 -0.19687
 H306 H 0.59312 0.33548 -0.14079
 H307 H 0.60942 0.45212 -0.19203
 H308 H 0.63639 0.42376 -0.24882
 C309 C 0.19928 0.80704 -0.41149
 C310 C 0.18993 0.81710 -0.37496
 C311 C 0.17762 0.82837 -0.33254
 C312 C 0.15863 0.80692 -0.31949
 C313 C 0.14552 0.81913 -0.28056
 C314 C 0.15122 0.85310 -0.25405
 C315 C 0.17066 0.87398 -0.26673
 C316 C 0.18376 0.86169 -0.30579
 C317 C 0.13616 0.86781 -0.21538
 C318 C 0.13154 0.90846 -0.21129
 C319 C 0.11578 0.92207 -0.17803
 C320 C 0.10445 0.89534 -0.14832
 C321 C 0.10937 0.85497 -0.15107
 C322 C 0.12517 0.84126 -0.18431
 C323 C 0.08668 0.90932 -0.11782
 C324 C 0.07137 0.92220 -0.09438
 H325 H 0.15364 0.78123 -0.34015
 H326 H 0.13049 0.80277 -0.27230
 H327 H 0.17562 0.89998 -0.24670
 H328 H 0.19844 0.87853 -0.31560
 H329 H 0.13943 0.92960 -0.23512
 H330 H 0.11195 0.95337 -0.17647
 H331 H 0.10065 0.83401 -0.12833
 H332 H 0.12856 0.80986 -0.18618
 C333 C 0.30020 0.69242 -0.41106
 C334 C 0.30951 0.68227 -0.37456
 C335 C 0.32183 0.67087 -0.33225
 C336 C 0.31583 0.63724 -0.30587
 C337 C 0.32895 0.62485 -0.26697
 C338 C 0.34828 0.64593 -0.25407
 C339 C 0.35384 0.68017 -0.28022
 C340 C 0.34071 0.69249 -0.31899
 C341 C 0.36335 0.63119 -0.21551
 C342 C 0.37418 0.65770 -0.18419
 C343 C 0.38997 0.64401 -0.15101
 C344 C 0.39505 0.60369 -0.14856
 C345 C 0.38389 0.57698 -0.17851
 C346 C 0.36814 0.59058 -0.21172
 C347 C 0.41283 0.58979 -0.11810
 C348 C 0.42818 0.57710 -0.09471
 H349 H 0.30125 0.62025 -0.31585
 H350 H 0.32410 0.59861 -0.24724
 H351 H 0.36878 0.69670 -0.27182
 H352 H 0.34560 0.71841 -0.33936
 H353 H 0.37067 0.68907 -0.18583
 H354 H 0.39855 0.66498 -0.12808
 H355 H 0.38783 0.54573 -0.17719
 H356 H 0.36038 0.56946 -0.23572
 C357 C -0.19556 1.20330 -0.41454
 C358 C -0.18546 1.19481 -0.37845
 C359 C -0.17292 1.18279 -0.33676
 C360 C -0.17952 1.14948 -0.31047
 C361 C -0.16616 1.13520 -0.27304
 C362 C -0.14596 1.15403 -0.26151
 C363 C -0.13979 1.18817 -0.28726
 C364 C -0.15318 1.20238 -0.32470
 C365 C -0.13075 1.13691 -0.22480
 C366 C -0.11881 1.16149 -0.19309
 C367 C -0.10332 1.14536 -0.16094
 C368 C -0.09960 1.10452 -0.16002
 C369 C -0.11174 1.07976 -0.19065
 C370 C -0.12722 1.09580 -0.22280
 C371 C -0.08249 1.08814 -0.12970
 C372 C -0.06774 1.07419 -0.10560
 H373 H -0.19474 1.13400 -0.31964
 H374 H -0.17149 1.10915 -0.25351
 H375 H -0.12420 1.20301 -0.27971
 H376 H -0.14781 1.22798 -0.34511
 H377 H -0.12134 1.19318 -0.19342
 H378 H -0.09399 1.16479 -0.13740
 H379 H -0.10887 1.04813 -0.19046
 H380 H -0.13588 1.07614 -0.24721
 C381 C 0.69590 0.70349 -0.41520
 C382 C 0.68563 0.69536 -0.37916
 C383 C 0.67285 0.68383 -0.33754
 C384 C 0.67544 0.64583 -0.31840
 C385 C 0.66156 0.63291 -0.28109
 C386 C 0.64484 0.65785 -0.26247
 C387 C 0.64282 0.69645 -0.28097
 C388 C 0.65672 0.70930 -0.31835
 C389 C 0.62873 0.64276 -0.22616
 C390 C 0.60592 0.65194 -0.23020
 C391 C 0.59045 0.63567 -0.19820
 C392 C 0.59752 0.61004 -0.16169
 C393 C 0.62021 0.60124 -0.15672
 C394 C 0.63575 0.61752 -0.18873
 C395 C 0.58123 0.59171 -0.13088
 C396 C 0.56695 0.57647 -0.10660
 H397 H 0.68776 0.62576 -0.33327
 H398 H 0.66335 0.60288 -0.26816
 H399 H 0.63029 0.71650 -0.26699
 H400 H 0.65454 0.73874 -0.33299
 H401 H 0.59992 0.67070 -0.25906
 H402 H 0.57291 0.64249 -0.20252
 H403 H 0.62586 0.58141 -0.12857
 H404 H 0.65322 0.61023 -0.18439
 C405 C 0.19920 1.19273 -0.41288
 C406 C 0.18984 1.18254 -0.37642
 C407 C 0.17750 1.17104 -0.33412
 C408 C 0.18325 1.13688 -0.30848
 C409 C 0.17009 1.12441 -0.26963
 C410 C 0.15096 1.14593 -0.25604
 C411 C 0.14564 1.18069 -0.28144
 C412 C 0.15881 1.19309 -0.32017
 C413 C 0.13584 1.13117 -0.21751
 C414 C 0.12529 1.15760 -0.18550
 C415 C 0.10953 1.14394 -0.15218
 C416 C 0.10419 1.10373 -0.15031
 C417 C 0.11507 1.07708 -0.18099
 C418 C 0.13079 1.09065 -0.21433
 C419 C 0.08648 1.08994 -0.11954
 C420 C 0.07121 1.07731 -0.09582
 H421 H 0.19766 1.11954 -0.31901
 H422 H 0.17476 1.09777 -0.25047
 H423 H 0.13086 1.19758 -0.27248
 H424 H 0.15411 1.21942 -0.33997
 H425 H 0.12901 1.18889 -0.18664
 H426 H 0.10119 1.16484 -0.12864
 H427 H 0.11094 1.04592 -0.18007
 H428 H 0.13833 1.06961 -0.23887
 C429 C 0.30077 0.30729 -0.41095
 C430 C 0.31015 0.31741 -0.37456
 C431 C 0.32249 0.32877 -0.33233
 C432 C 0.34130 0.30688 -0.31891
 C433 C 0.35444 0.31913 -0.28017
 C434 C 0.34897 0.35357 -0.25425
 C435 C 0.32972 0.37491 -0.26730
 C436 C 0.31658 0.36259 -0.30616
 C437 C 0.36408 0.36827 -0.21580
 C438 C 0.36896 0.40883 -0.21234
 C439 C 0.38472 0.42237 -0.17919
 C440 C 0.39579 0.39566 -0.14900
 C441 C 0.39060 0.35540 -0.15112
 C442 C 0.37481 0.34177 -0.18425
 C443 C 0.41356 0.40948 -0.11858
 C444 C 0.42886 0.42222 -0.09520
 H445 H 0.34611 0.28081 -0.33913
 H446 H 0.36933 0.30240 -0.27164
 H447 H 0.32494 0.40130 -0.24772
 H448 H 0.30207 0.37978 -0.31628
 H449 H 0.36128 0.42993 -0.23654
 H450 H 0.38873 0.45358 -0.17809
 H451 H 0.39910 0.33445 -0.12797
 H452 H 0.37121 0.31044 -0.18565
 C453 C -0.19473 0.79577 -0.41464
 C454 C -0.18464 0.80426 -0.37853
 C455 C -0.17213 0.81630 -0.33680
 C456 C -0.15227 0.79689 -0.32486
 C457 C -0.13895 0.81112 -0.28735
 C458 C -0.14529 0.84511 -0.26141
 C459 C -0.16560 0.86375 -0.27285
 C460 C -0.17889 0.84945 -0.31034
 C461 C -0.13017 0.86227 -0.22456
 C462 C -0.12691 0.90342 -0.22223
 C463 C -0.11155 0.91952 -0.18992
 C464 C -0.09926 0.89480 -0.15944
 C465 C -0.10272 0.85391 -0.16069
 C466 C -0.11809 0.83771 -0.19301
 C467 C -0.08223 0.91127 -0.12901
 C468 C -0.06754 0.92534 -0.10488
 H469 H -0.14677 0.77142 -0.34540
 H470 H -0.12328 0.79641 -0.27989
 H471 H -0.17106 0.88968 -0.25318
 H472 H -0.19419 0.86481 -0.31941
 H473 H -0.13569 0.92308 -0.24651
 H474 H -0.10889 0.95119 -0.18950
 H475 H -0.09327 0.83449 -0.13727
 H476 H -0.12041 0.80599 -0.19358
 C477 C 0.30549 0.70689 0.41610
 C478 C 0.31550 0.69897 0.37962
 C479 C 0.32778 0.68761 0.33718
 C480 C 0.32011 0.65650 0.30843
 C481 C 0.33307 0.64267 0.27000
 C482 C 0.35394 0.65974 0.25992
 C483 C 0.36120 0.69179 0.28816
 C484 C 0.34821 0.70556 0.32660
 C485 C 0.36869 0.64270 0.22216
 C486 C 0.38171 0.66731 0.19247
 C487 C 0.39687 0.65099 0.15961
 C488 C 0.39919 0.60993 0.15597
 C489 C 0.38591 0.58521 0.18445
 C490 C 0.37075 0.60144 0.21729
 C491 C 0.41619 0.59308 0.12561
 C492 C 0.43090 0.57843 0.10191
 H493 H 0.30433 0.64233 0.31638
 H494 H 0.32689 0.61828 0.24856
 H495 H 0.37731 0.70523 0.28176
 H496 H 0.35439 0.72948 0.34884
 H497 H 0.38033 0.69914 0.19501
 H498 H 0.40711 0.67039 0.13779
 H499 H 0.38770 0.55338 0.18222
 H500 H 0.36124 0.58168 0.24011
 C501 C -0.20098 1.18884 0.41291
 C502 C -0.19162 1.17814 0.37666
 C503 C -0.17913 1.16601 0.33482
 C504 C -0.18332 1.12959 0.31272
 C505 C -0.16972 1.11652 0.27484
 C506 C -0.15170 1.13970 0.25874
 C507 C -0.14800 1.17668 0.28049
 C508 C -0.16161 1.18968 0.31825
 C509 C -0.13602 1.12460 0.22144
 C510 C -0.12684 1.15023 0.18669
 C511 C -0.11065 1.13665 0.15428
 C512 C -0.10347 1.09731 0.15607
 C513 C -0.11292 1.07134 0.18962
 C514 C -0.12909 1.08484 0.22207
 C515 C -0.08556 1.08396 0.12551
 C516 C -0.07019 1.07213 0.10143
 H517 H -0.19680 1.11097 0.32537
 H518 H -0.17316 1.08812 0.25848
 H519 H -0.13408 1.19496 0.26956
 H520 H -0.15809 1.21776 0.33538
 H521 H -0.13202 1.18086 0.18487
 H522 H -0.10344 1.15701 0.12845
 H523 H -0.10741 1.04086 0.19148
 H524 H -0.13556 1.06449 0.24877
 C525 C 0.70059 0.31203 0.41052
 C526 C 0.69135 0.32274 0.37422
 C527 C 0.67903 0.33485 0.33225
 C528 C 0.66149 0.31131 0.31567
 C529 C 0.64807 0.32428 0.27770
 C530 C 0.65200 0.36112 0.25574
 C531 C 0.67004 0.38417 0.27185
 C532 C 0.68345 0.37111 0.30994
 C533 C 0.63648 0.37623 0.21827
 C534 C 0.62964 0.41604 0.21874
 C535 C 0.61353 0.42953 0.18627
 C536 C 0.60407 0.40350 0.15288
 C537 C 0.61119 0.36413 0.15118
 C538 C 0.62733 0.35057 0.18360
 C539 C 0.58612 0.41679 0.12255
 C540 C 0.57068 0.42858 0.09876
 H541 H 0.65780 0.28334 0.33297
 H542 H 0.63412 0.30613 0.26677
 H543 H 0.67364 0.41245 0.25534
 H544 H 0.69696 0.38962 0.32259
 H545 H 0.63610 0.43642 0.24537
 H546 H 0.60804 0.46002 0.18806
 H547 H 0.60397 0.34373 0.12548
 H548 H 0.63245 0.31990 0.18194
 C549 C 0.19454 0.79301 0.41557
 C550 C 0.18459 0.80111 0.37912
 C551 C 0.17234 0.81266 0.33677
 C552 C 0.15233 0.79376 0.32510
 C553 C 0.13933 0.80760 0.28679
 C554 C 0.14615 0.84067 0.25976
 C555 C 0.16663 0.85873 0.27092
 C556 C 0.17960 0.84483 0.30921
 C557 C 0.13134 0.85765 0.22212
 C558 C 0.12862 0.89887 0.21836
 C559 C 0.11347 0.91494 0.18552
 C560 C 0.10085 0.89012 0.15588
 C561 C 0.10380 0.84913 0.15845
 C562 C 0.11896 0.83296 0.19133
 C563 C 0.08384 0.90674 0.12541
 C564 C 0.06914 0.92128 0.10166
 H565 H 0.14647 0.76902 0.34642
 H566 H 0.12353 0.79335 0.27955
 H567 H 0.17248 0.88390 0.25041
 H568 H 0.19504 0.85975 0.31800
 H569 H 0.13762 0.91867 0.24202
 H570 H 0.11119 0.94670 0.18410
 H571 H 0.09408 0.82965 0.13574
 H572 H 0.12087 0.80117 0.19299
   
