data_POSCAR
  _audit_creation_date              2014-09-24
  _audit_creation_method            'ToBaCCo'
  _symmetry_space_group_name_H-M    'P1'
  _symmetry_Int_Tables_number       1
  _symmetry_cell_setting            triclinic
  loop_
  _symmetry_equiv_pos_as_xyz
 x,y,z
_cell_length_a 46.3964
_cell_length_b 39.0979
_cell_length_c 20.8482
_cell_angle_alpha 90.081100
_cell_angle_beta 89.712900
_cell_angle_gamma 89.423600
loop_
  _atom_site_label
  _atom_site_type_symbol
  _atom_site_fract_x
  _atom_site_fract_y
  _atom_site_fract_z
C1 C 0.82578 0.19913 0.46060
 C2 C 0.83105 0.20062 0.52495
 C3 C 0.81525 0.22820 0.54944
 N4 N 0.80168 0.24442 0.50054
 C5 C 0.80778 0.22647 0.44646
 C6 C 0.81632 0.24062 0.61386
 C7 C 0.80154 0.27099 0.63363
 C8 C 0.80672 0.28903 0.69006
 C9 C 0.78544 0.31342 0.69596
 C10 C 0.76765 0.30990 0.64334
 N11 N 0.77765 0.28421 0.60536
 C12 C 0.74213 0.32917 0.63306
 C13 C 0.72941 0.33139 0.57147
 C14 C 0.70126 0.34171 0.55886
 C15 C 0.69850 0.34266 0.49363
 C16 C 0.72462 0.33162 0.46848
 N17 N 0.74355 0.32467 0.51590
 C18 C 0.73086 0.32957 0.40250
 C19 C 0.75253 0.30768 0.37723
 C20 C 0.76167 0.30688 0.31383
 C21 C 0.78072 0.27975 0.30821
 C22 C 0.78313 0.26523 0.36864
 N23 N 0.76575 0.28227 0.41020
 C24 C 0.79981 0.23589 0.38342
 H25 H 0.83554 0.18103 0.42747
 H26 H 0.84639 0.18418 0.54889
 H27 H 0.76069 0.27460 0.45656
 H28 H 0.82367 0.28519 0.72471
 H29 H 0.78331 0.33163 0.73490
 H30 H 0.68419 0.34750 0.59279
 H31 H 0.67920 0.34971 0.46760
 H32 H 0.79151 0.27169 0.26454
 H33 H 0.76649 0.27358 0.56718
 H34 H 0.75494 0.32360 0.27529
 C35 C 0.28510 0.65054 0.54111
 C36 C 0.28220 0.64551 0.47626
 C37 C 0.27110 0.67571 0.45135
 N38 N 0.26688 0.69885 0.49872
 C39 C 0.27564 0.68363 0.55352
 C40 C 0.26720 0.68293 0.38555
 C41 C 0.24766 0.70857 0.36471
 C42 C 0.24593 0.72125 0.30271
 C43 C 0.22321 0.74419 0.30191
 C44 C 0.21175 0.74501 0.36346
 N45 N 0.22665 0.72309 0.40130
 C46 C 0.18746 0.76472 0.38256
 C47 C 0.17989 0.77024 0.44766
 C48 C 0.15413 0.78456 0.46871
 C49 C 0.15673 0.78955 0.53344
 C50 C 0.18381 0.77718 0.55078
 N51 N 0.19791 0.76573 0.49776
 C52 C 0.19708 0.78103 0.61178
 C53 C 0.22482 0.76713 0.62458
 C54 C 0.24214 0.77540 0.67658
 C55 C 0.26457 0.75216 0.67734
 C56 C 0.26039 0.73024 0.62611
 N57 N 0.23633 0.73961 0.59406
 C58 C 0.27687 0.70048 0.61341
 H59 H 0.29322 0.63195 0.57510
 H60 H 0.28768 0.62230 0.45040
 H61 H 0.22616 0.72494 0.55932
 H62 H 0.25954 0.71473 0.26212
 H63 H 0.21602 0.75866 0.26066
 H64 H 0.13560 0.79171 0.44023
 H65 H 0.14068 0.80235 0.56270
 H66 H 0.28157 0.75101 0.71265
 H67 H 0.22108 0.71594 0.44775
 H68 H 0.23876 0.79528 0.71198
 C69 C 0.21848 0.14527 -0.47557
 C70 C 0.21598 0.14909 -0.54072
 C71 C 0.21961 0.18358 -0.55349
 N72 N 0.22496 0.20082 -0.49867
 C73 C 0.22357 0.17754 -0.45086
 C74 C 0.21675 0.19947 -0.61411
 C75 C 0.23348 0.22850 -0.62919
 C76 C 0.22904 0.25041 -0.68055
 C77 C 0.25177 0.27274 -0.68143
 C78 C 0.26943 0.26422 -0.63005
 N79 N 0.25793 0.23731 -0.59846
 C80 C 0.29721 0.27769 -0.61800
 C81 C 0.31037 0.27420 -0.55675
 C82 C 0.33744 0.28601 -0.53944
 C83 C 0.33968 0.28219 -0.47438
 C84 C 0.31374 0.26911 -0.45319
 N85 N 0.29596 0.26416 -0.50342
 C86 C 0.30567 0.26556 -0.38804
 C87 C 0.28097 0.24767 -0.36797
 C88 C 0.26885 0.24970 -0.30715
 C89 C 0.24606 0.22749 -0.30607
 C90 C 0.24504 0.21218 -0.36621
 N91 N 0.26638 0.22480 -0.40362
 C92 C 0.22594 0.18601 -0.38515
 H93 H 0.21710 0.12144 -0.44943
 H94 H 0.21223 0.12877 -0.57489
 H95 H 0.27234 0.21587 -0.44893
 H96 H 0.21155 0.25018 -0.71466
 H97 H 0.25494 0.29241 -0.71707
 H98 H 0.35372 0.29783 -0.56886
 H99 H 0.35803 0.28947 -0.44578
 H100 H 0.23194 0.22344 -0.26543
 H101 H 0.26800 0.22279 -0.56303
 H102 H 0.27564 0.26565 -0.26765
 C103 C -0.30534 0.66669 -0.47003
 C104 C -0.30746 0.66864 -0.53538
 C105 C -0.30118 0.70210 -0.55207
 N106 N -0.29423 0.72036 -0.49926
 C107 C -0.29724 0.69880 -0.44903
 C108 C -0.30315 0.71612 -0.61454
 C109 C -0.28537 0.74378 -0.63283
 C110 C -0.28930 0.76414 -0.68663
 C111 C -0.26675 0.78664 -0.68845
 C112 C -0.24952 0.77956 -0.63572
 N113 N -0.26113 0.75349 -0.60193
 C114 C -0.22333 0.79624 -0.62107
 C115 C -0.21054 0.79343 -0.55956
 C116 C -0.18162 0.79846 -0.54597
 C117 C -0.17875 0.79583 -0.48076
 C118 C -0.20587 0.78868 -0.45669
 N119 N -0.22527 0.78690 -0.50486
 C120 C -0.21285 0.78583 -0.39096
 C121 C -0.23778 0.76887 -0.36968
 C122 C -0.24909 0.77077 -0.30810
 C123 C -0.27198 0.74872 -0.30596
 C124 C -0.27387 0.73378 -0.36627
 N125 N -0.25299 0.74634 -0.40481
 C126 C -0.29356 0.70816 -0.38408
 H127 H -0.30877 0.64405 -0.44127
 H128 H -0.31279 0.64770 -0.56703
 H129 H -0.24761 0.73743 -0.45045
 H130 H -0.30674 0.76332 -0.72084
 H131 H -0.26370 0.80627 -0.72431
 H132 H -0.16425 0.80322 -0.57951
 H133 H -0.15892 0.79842 -0.45419
 H134 H -0.28559 0.74429 -0.26457
 H135 H -0.25164 0.74094 -0.56326
 H136 H -0.24161 0.78635 -0.26871
 N137 N -0.04047 0.94338 -0.06400
 N138 N -0.06313 0.92488 -0.07938
 N139 N 0.02523 0.94927 -0.09140
 N140 N 0.04638 0.93589 -0.12599
 N141 N 0.01813 0.92869 -0.04432
 N142 N 0.03401 0.90048 -0.04613
 N143 N -0.03355 0.96393 -0.11128
 N144 N -0.05140 0.96025 -0.15974
 C145 C -0.06980 0.93605 -0.13911
 C146 C 0.05177 0.90562 -0.09680
 N147 N 0.04033 1.04681 -0.06657
 N148 N 0.06297 1.06548 -0.08199
 N149 N -0.02045 1.03518 -0.12429
 N150 N -0.04017 1.04077 -0.16845
 N151 N -0.01856 1.06151 -0.08543
 N152 N -0.03698 1.08582 -0.10220
 N153 N 0.03829 1.02050 -0.10550
 N154 N 0.05940 1.02054 -0.14803
 Mn155 Mn 0.00242 0.99218 -0.10860
 C156 C 0.07490 1.04831 -0.13221
 C157 C -0.05013 1.07249 -0.15431
 N158 N 0.01051 0.93833 0.09191
 N159 N 0.02918 0.91421 0.10857
 N160 N -0.04685 0.97917 0.11147
 N161 N -0.06886 0.97965 0.15178
 N162 N -0.04843 0.95276 0.07265
 N163 N -0.07159 0.93460 0.08567
 N164 N 0.01199 0.96455 0.13119
 N165 N 0.03167 0.95900 0.17553
 Mn166 Mn -0.01516 0.94042 0.01422
 C167 C 0.04205 0.92746 0.16111
 C168 C -0.08431 0.95204 0.13453
 N169 N -0.02630 1.07121 0.05048
 N170 N -0.04169 1.09978 0.05194
 N171 N 0.02489 1.03599 0.11827
 N172 N 0.04197 1.04055 0.16776
 N173 N 0.03225 1.05609 0.07060
 N174 N 0.05456 1.07503 0.08668
 N175 N -0.03375 1.05095 0.09783
 N176 N -0.05453 1.06519 0.13263
 Mn177 Mn 0.00708 1.05924 -0.00781
 Mn178 Mn -0.01104 1.00768 0.11526
 Cl179 Cl -0.00417 0.99990 0.00331
 C180 C -0.05942 1.09550 0.10291
 C181 C 0.06051 1.06462 0.14724
 N182 N 0.52199 0.56589 -0.05461
 N183 N 0.53873 0.59297 -0.05754
 N184 N 0.46760 0.53496 -0.11458
 N185 N 0.45001 0.54205 -0.16213
 N186 N 0.46246 0.55515 -0.06531
 N187 N 0.44115 0.57680 -0.07862
 N188 N 0.52719 0.54527 -0.10314
 N189 N 0.54795 0.55738 -0.13978
 C190 C 0.55507 0.58694 -0.11038
 C191 C 0.43341 0.56774 -0.13900
 N192 N 0.47920 0.43654 -0.09531
 N193 N 0.46006 0.41338 -0.11172
 N194 N 0.53712 0.47358 -0.12232
 N195 N 0.56047 0.47702 -0.15783
 N196 N 0.53920 0.44651 -0.08552
 N197 N 0.56421 0.43071 -0.09492
 N198 N 0.47744 0.46330 -0.13303
 N199 N 0.45702 0.45922 -0.17606
 Mn200 Mn 0.50240 0.50428 -0.11876
 C201 C 0.44646 0.42797 -0.16227
 C202 C 0.57714 0.45017 -0.14029
 N203 N 0.45909 0.54416 0.07258
 N204 N 0.43683 0.56339 0.09020
 N205 N 0.52139 0.52805 0.11959
 N206 N 0.53971 0.53402 0.16638
 N207 N 0.51894 0.55490 0.08205
 N208 N 0.53586 0.57972 0.10195
 N209 N 0.46187 0.51771 0.11104
 N210 N 0.44171 0.51842 0.15589
 Mn211 Mn 0.49046 0.55540 0.00887
 C212 C 0.42598 0.54667 0.14164
 C213 C 0.54877 0.56616 0.15438
 N214 N 0.53549 0.43552 0.04989
 N215 N 0.55827 0.41555 0.05669
 N216 N 0.47171 0.44546 0.09128
 N217 N 0.45151 0.43284 0.12902
 N218 N 0.47603 0.42547 0.04137
 N219 N 0.45923 0.39845 0.04435
 N220 N 0.53185 0.45535 0.10024
 N221 N 0.55230 0.44928 0.14294
 Mn222 Mn 0.50746 0.43565 -0.02257
 Mn223 Mn 0.49675 0.48658 0.10627
 Cl224 Cl 0.49920 0.49553 -0.00639
 C225 C 0.56866 0.42450 0.11453
 C226 C 0.44380 0.40367 0.09877
 C227 C 0.31055 0.29736 0.33369
 C228 C 0.33915 0.29231 0.31468
 C229 C 0.35422 0.31654 0.27272
 N230 N 0.37878 0.30674 0.24193
 N231 N 0.39389 0.32919 0.20786
 C232 C 0.38519 0.36240 0.20408
 N233 N 0.36068 0.37223 0.23504
 N234 N 0.34538 0.34968 0.26849
 C235 C 0.40294 0.38796 0.17106
 C236 C 0.42338 0.37878 0.12491
 H237 H 0.35099 0.27011 0.33166
 H238 H 0.40002 0.41465 0.18380
 H239 H 0.29764 0.31463 0.30492
 H240 H 0.42461 0.35265 0.10770
 C241 C -0.20989 0.81557 0.33000
 C242 C -0.19364 0.84478 0.34212
 C243 C -0.17714 0.86250 0.29205
 N244 N -0.16426 0.89255 0.30608
 N245 N -0.14760 0.90795 0.26298
 C246 C -0.14307 0.89381 0.20420
 N247 N -0.15609 0.86382 0.18997
 N248 N -0.17287 0.84845 0.23306
 C249 C -0.12276 0.90922 0.15835
 C250 C -0.10922 0.94006 0.17156
 H251 H -0.19305 0.85541 0.39009
 H252 H -0.11692 0.89492 0.11560
 H253 H -0.21404 0.80929 0.28031
 H254 H -0.11552 0.95476 0.21350
 C255 C 0.67740 0.70252 0.33980
 C256 C 0.65234 0.68481 0.35627
 C257 C 0.63404 0.66739 0.30923
 N258 N 0.61449 0.64439 0.33028
 N259 N 0.59799 0.62762 0.28902
 C260 C 0.60025 0.63338 0.22501
 N261 N 0.61958 0.65672 0.20384
 N262 N 0.63633 0.67329 0.24518
 C263 C 0.58188 0.61488 0.17942
 C264 C 0.56849 0.58451 0.19687
 H265 H 0.64570 0.68297 0.40594
 H266 H 0.57939 0.62479 0.13125
 H267 H 0.68117 0.70719 0.28930
 H268 H 0.57284 0.57333 0.24338
 C269 C 0.19770 1.18641 0.33912
 C270 C 0.17367 1.16657 0.35406
 C271 C 0.15493 1.15133 0.30536
 N272 N 0.13401 1.12961 0.32438
 N273 N 0.11691 1.11496 0.28158
 C274 C 0.12000 1.12151 0.21799
 N275 N 0.14083 1.14346 0.19882
 N276 N 0.15809 1.15803 0.24175
 C277 C 0.10078 1.10544 0.17091
 C278 C 0.08225 1.07943 0.18948
 H279 H 0.16776 1.16214 0.40359
 H280 H 0.10098 1.11432 0.12172
 H281 H 0.20069 1.19349 0.28938
 H282 H 0.08290 1.06996 0.23825
 C283 C 0.72909 0.34558 -0.31352
 C284 C 0.71421 0.37666 -0.31800
 C285 C 0.69305 0.38812 -0.26986
 N286 N 0.67875 0.41807 -0.27914
 N287 N 0.65684 0.42708 -0.24113
 C288 C 0.64826 0.40640 -0.19254
 N289 N 0.66287 0.37664 -0.18249
 N290 N 0.68485 0.36762 -0.22057
 C291 C 0.62227 0.41477 -0.15461
 C292 C 0.60539 0.44330 -0.16946
 H293 H 0.71612 0.39181 -0.36127
 H294 H 0.61532 0.39719 -0.11765
 H295 H 0.73181 0.33457 -0.26622
 H296 H 0.61243 0.46080 -0.20644
 C297 C 0.18356 0.80089 -0.34009
 C298 C 0.15522 0.79562 -0.32028
 C299 C 0.14060 0.81906 -0.27544
 N300 N 0.11601 0.80941 -0.24533
 N301 N 0.10157 0.83135 -0.20789
 C302 C 0.11109 0.86381 -0.19978
 N303 N 0.13565 0.87344 -0.22998
 N304 N 0.15023 0.85141 -0.26687
 C305 C 0.09401 0.88919 -0.16390
 C306 C 0.07224 0.87997 -0.12143
 H307 H 0.14346 0.77375 -0.33797
 H308 H 0.09804 0.91601 -0.17291
 H309 H 0.19632 0.81808 -0.31143
 H310 H 0.06957 0.85349 -0.10768
 C311 C 0.29563 0.68687 -0.33470
 C312 C 0.32371 0.67556 -0.34659
 C313 C 0.34212 0.66035 -0.29681
 N314 N 0.36651 0.64349 -0.31462
 N315 N 0.38312 0.62841 -0.27097
 C316 C 0.37612 0.62974 -0.20767
 N317 N 0.35193 0.64714 -0.18956
 N318 N 0.33514 0.66205 -0.23342
 C319 C 0.39428 0.61198 -0.16008
 C320 C 0.41265 0.58567 -0.18005
 H321 H 0.33221 0.67656 -0.39503
 H322 H 0.39280 0.61893 -0.10986
 H323 H 0.28759 0.68744 -0.28583
 H324 H 0.41224 0.57764 -0.22980
 C325 C -0.16634 1.22371 -0.34015
 C326 C -0.16535 1.18824 -0.33279
 C327 C -0.14469 1.17136 -0.28975
 N328 N -0.14116 1.13692 -0.29240
 N329 N -0.12135 1.12137 -0.25647
 C330 C -0.10440 1.13969 -0.21641
 N331 N -0.10820 1.17408 -0.21305
 N332 N -0.12791 1.18966 -0.24928
 C333 C -0.08179 1.12293 -0.17830
 C334 C -0.07327 1.08932 -0.19032
 H335 H -0.17957 1.17218 -0.36046
 H336 H -0.07084 1.13774 -0.14203
 H337 H -0.15521 1.23850 -0.30444
 H338 H -0.08341 1.07490 -0.22827
 C339 C 0.69085 0.69110 -0.33564
 C340 C 0.66260 0.68022 -0.34459
 C341 C 0.64699 0.66119 -0.29528
 N342 N 0.61833 0.66667 -0.28669
 N343 N 0.60350 0.64796 -0.24492
 C344 C 0.61674 0.62272 -0.21111
 N345 N 0.64538 0.61704 -0.22008
 N346 N 0.66033 0.63618 -0.26101
 C347 C 0.59987 0.59975 -0.17056
 C348 C 0.57568 0.61124 -0.13705
 H349 H 0.65094 0.68764 -0.38736
 H350 H 0.60602 0.57296 -0.16873
 H351 H 0.69960 0.68938 -0.28766
 H352 H 0.57133 0.63838 -0.13210
 C353 C 0.20956 1.16883 -0.33755
 C354 C 0.18444 1.15045 -0.34995
 C355 C 0.16726 1.13412 -0.29921
 N356 N 0.14733 1.11060 -0.31560
 N357 N 0.13081 1.09620 -0.27103
 C358 C 0.13337 1.10498 -0.20828
 N359 N 0.15319 1.12871 -0.19178
 N360 N 0.16995 1.14291 -0.23641
 C361 C 0.11405 1.09017 -0.15956
 C362 C 0.09848 1.06075 -0.17285
 H363 H 0.17602 1.14866 -0.39804
 H364 H 0.11139 1.10302 -0.11382
 H365 H 0.21558 1.17140 -0.28775
 H366 H 0.10261 1.04701 -0.21716
 C367 C 0.32335 0.28225 -0.33810
 C368 C 0.32992 0.31688 -0.34179
 C369 C 0.35026 0.33338 -0.29819
 N370 N 0.35763 0.36639 -0.30840
 N371 N 0.37727 0.38135 -0.27180
 C372 C 0.39029 0.36384 -0.22359
 N373 N 0.38272 0.33089 -0.21292
 N374 N 0.36309 0.31588 -0.24965
 C375 C 0.41283 0.37977 -0.18460
 C376 C 0.42297 0.41235 -0.19836
 H377 H 0.32109 0.33200 -0.38068
 H378 H 0.42221 0.36519 -0.14567
 H379 H 0.33032 0.26729 -0.29723
 H380 H 0.41383 0.42685 -0.23767
 C381 C -0.19346 0.80061 -0.34181
 C382 C -0.18236 0.83347 -0.34766
 C383 C -0.16356 0.84882 -0.29905
 N384 N -0.15235 0.88022 -0.30957
 N385 N -0.13483 0.89435 -0.26690
 C386 C -0.12788 0.87768 -0.21189
 N387 N -0.13926 0.84635 -0.20108
 N388 N -0.15677 0.83215 -0.24388
 C389 C -0.10760 0.89264 -0.16568
 C390 C -0.09278 0.92253 -0.17980
 H391 H -0.18759 0.84856 -0.38965
 H392 H -0.10309 0.87899 -0.12162
 H393 H -0.18963 0.78627 -0.29821
 H394 H -0.09668 0.93552 -0.22482
 C395 C 0.28445 0.66383 0.33640
 C396 C 0.31325 0.65469 0.34637
 C397 C 0.33083 0.63616 0.29868
 N398 N 0.35453 0.61855 0.31819
 N399 N 0.37129 0.60222 0.27589
 C400 C 0.36518 0.60322 0.21230
 N401 N 0.34160 0.62111 0.19259
 N402 N 0.32459 0.63711 0.23508
 C403 C 0.38455 0.58655 0.16540
 C404 C 0.40300 0.56003 0.18362
 H405 H 0.32338 0.66071 0.39161
 H406 H 0.38458 0.59552 0.11627
 H407 H 0.27481 0.65846 0.29032
 H408 H 0.40116 0.54922 0.23126
 C409 C -0.19030 1.21316 0.33069
 C410 C -0.16589 1.22044 0.29425
 C411 C -0.15002 1.19335 0.25918
 N412 N -0.12770 1.20147 0.21990
 N413 N -0.11202 1.17696 0.19147
 C414 C -0.11791 1.14342 0.20172
 N415 N -0.14021 1.13533 0.24097
 N416 N -0.15600 1.15981 0.26902
 C417 C -0.09977 1.11599 0.17389
 C418 C -0.07949 1.12220 0.12598
 H419 H -0.15694 1.24591 0.29573
 H420 H -0.10229 1.09025 0.19208
 H421 H -0.19885 1.18749 0.33005
 H422 H -0.07799 1.14745 0.10502
 C423 C 0.71361 0.35213 0.36007
 C424 C 0.69733 0.33963 0.30947
 C425 C 0.67455 0.36058 0.27950
 N426 N 0.66011 0.34842 0.22807
 N427 N 0.63858 0.36647 0.20240
 C428 C 0.63053 0.39726 0.22743
 N429 N 0.64494 0.40942 0.27893
 N430 N 0.66657 0.39143 0.30443
 C431 C 0.60625 0.41692 0.20022
 C432 C 0.59369 0.40710 0.14277
 H433 H 0.69998 0.31325 0.29444
 H434 H 0.59825 0.43935 0.22547
 H435 H 0.70991 0.37818 0.37616
 H436 H 0.60255 0.38546 0.11656
 C437 C 0.16953 0.78097 0.33179
 C438 C 0.16266 0.81578 0.33392
 C439 C 0.14123 0.83202 0.29168
 N440 N 0.13347 0.86510 0.30214
 N441 N 0.11297 0.87995 0.26712
 C442 C 0.09938 0.86229 0.22021
 N443 N 0.10731 0.82925 0.20927
 N444 N 0.12781 0.81432 0.24449
 C445 C 0.07610 0.87834 0.18246
 C446 C 0.06538 0.91086 0.19735
 H447 H 0.17191 0.83138 0.37141
 H448 H 0.06688 0.86407 0.14315
 H449 H 0.16215 0.76540 0.29225
 H450 H 0.07429 0.92488 0.23732
   
