data_POSCAR
  _audit_creation_date              2014-09-24
  _audit_creation_method            'ToBaCCo'
  _symmetry_space_group_name_H-M    'P1'
  _symmetry_Int_Tables_number       1
  _symmetry_cell_setting            triclinic
  loop_
  _symmetry_equiv_pos_as_xyz
 x,y,z
_cell_length_a 40.0752
_cell_length_b 36.9487
_cell_length_c 41.2419
_cell_angle_alpha 87.967200
_cell_angle_beta 90.200300
_cell_angle_gamma 90.641200
loop_
  _atom_site_label
  _atom_site_type_symbol
  _atom_site_fract_x
  _atom_site_fract_y
  _atom_site_fract_z
C1 C 0.16018 0.11968 0.20729
 C2 C 0.14610 0.15159 0.19404
 C3 C 0.16095 0.17116 0.16811
 C4 C 0.18912 0.15690 0.15308
 C5 C 0.20297 0.12361 0.16432
 C6 C 0.18820 0.10573 0.19165
 H7 H 0.12300 0.16154 0.20365
 H8 H 0.19976 0.17177 0.13250
 H9 H 0.20087 0.08289 0.20289
 C10 C -0.14590 0.85305 0.20129
 C11 C -0.13560 0.82336 0.18315
 C12 C -0.15508 0.81009 0.15766
 C13 C -0.18564 0.82669 0.15027
 C14 C -0.19614 0.85726 0.16661
 C15 C -0.17602 0.87025 0.19187
 H16 H -0.11280 0.80944 0.18922
 H17 H -0.20161 0.81524 0.13199
 H18 H -0.18337 0.89487 0.20312
 C19 C -0.16093 0.15500 -0.20713
 C20 C -0.18860 0.14618 -0.18715
 C21 C -0.19763 0.16834 -0.16166
 C22 C -0.17844 0.19928 -0.15562
 C23 C -0.15022 0.20825 -0.17438
 C24 C -0.14169 0.18604 -0.19991
 H25 H -0.20426 0.12298 -0.19207
 H26 H -0.18620 0.21710 -0.13683
 H27 H -0.11900 0.19235 -0.21318
 C28 C 0.15174 0.88644 -0.19481
 C29 C 0.13551 0.85674 -0.17884
 C30 C 0.14183 0.84736 -0.14613
 C31 C 0.16560 0.86725 -0.12899
 C32 C 0.18271 0.89652 -0.14417
 C33 C 0.17492 0.90648 -0.17650
 H34 H 0.11946 0.83877 -0.19205
 H35 H 0.17101 0.85974 -0.10391
 H36 H 0.18767 0.92980 -0.18715
 C37 C 0.13051 1.13067 0.81655
 C38 C 0.11967 1.15861 0.83648
 C39 C 0.13955 1.17122 0.86184
 C40 C 0.17011 1.15472 0.86854
 C41 C 0.18075 1.12504 0.85112
 C42 C 0.16061 1.11302 0.82547
 H43 H 0.09555 1.17087 0.83277
 H44 H 0.18632 1.16638 0.88651
 H45 H 0.16971 1.09112 0.81159
 C46 C 0.79319 0.81032 0.76032
 C47 C 0.76317 0.82244 0.77431
 C48 C 0.74868 0.80435 0.80123
 C49 C 0.76450 0.77429 0.81523
 C50 C 0.79488 0.76186 0.80333
 C51 C 0.80917 0.78020 0.77598
 H52 H 0.75093 0.84658 0.76517
 H53 H 0.75408 0.76226 0.83734
 H54 H 0.83143 0.76896 0.76589
 C55 C 0.16704 0.84241 1.21017
 C56 C 0.16292 0.80893 1.19494
 C57 C 0.18392 0.79871 1.16974
 C58 C 0.21043 0.82161 1.16028
 C59 C 0.21577 0.85488 1.17494
 C60 C 0.19376 0.86529 1.19937
 H61 H 0.14443 0.78942 1.20353
 H62 H 0.22709 0.81334 1.14140
 H63 H 0.19714 0.89199 1.20877
 C64 C 0.83956 1.14460 1.21727
 C65 C 0.81454 1.12730 1.19899
 C66 C 0.80807 1.13764 1.16647
 C67 C 0.82738 1.16538 1.15154
 C68 C 0.85235 1.18329 1.16895
 C69 C 0.85785 1.17310 1.20169
 H70 H 0.80007 1.10512 1.20958
 H71 H 0.82324 1.17266 1.12620
 H72 H 0.87542 1.18905 1.21525
 N73 N 0.53360 1.07970 0.95484
 N74 N 0.55909 1.10155 0.94750
 N75 N 0.46045 1.05376 0.94134
 N76 N 0.43046 1.05412 0.92820
 N77 N 0.46320 1.07831 0.96348
 N78 N 0.43468 1.09555 0.96634
 N79 N 0.52935 1.05589 0.93231
 N80 N 0.55129 1.06101 0.90891
 C81 C 0.56964 1.08953 0.91858
 C82 C 0.41473 1.08050 0.94378
 N83 N 0.46557 0.94942 0.96344
 N84 N 0.43919 0.92777 0.96462
 N85 N 0.53100 0.97890 0.93292
 N86 N 0.55423 0.97770 0.91048
 N87 N 0.53503 0.95289 0.95506
 N88 N 0.56077 0.93266 0.94783
 N89 N 0.46121 0.97593 0.94188
 N90 N 0.43155 0.97319 0.92804
 Mn91 Mn 0.49534 1.01609 0.93681
 C92 C 0.41822 0.94284 0.94236
 C93 C 0.57245 0.94868 0.91997
 N94 N 0.47268 1.07689 1.03226
 N95 N 0.44747 1.09841 1.03757
 N96 N 0.54418 1.05188 1.04743
 N97 N 0.57219 1.05545 1.06399
 N98 N 0.54195 1.07757 1.02467
 N99 N 0.56807 1.09960 1.02550
 N100 N 0.47379 1.05039 1.05430
 N101 N 0.44885 1.05302 1.07504
 Mn102 Mn 0.50305 1.07862 0.99375
 C103 C 0.43286 1.08337 1.06430
 C104 C 0.58675 1.08541 1.05015
 N105 N 0.54373 0.95062 1.02489
 N106 N 0.57098 0.93089 1.02496
 N107 N 0.47464 0.97193 1.05461
 N108 N 0.44726 0.96997 1.07253
 N109 N 0.47376 0.94725 1.03241
 N110 N 0.44586 0.92817 1.03466
 N111 N 0.54499 0.97404 1.04809
 N112 N 0.57313 0.97067 1.06471
 Mn113 Mn 0.50476 0.94960 0.99401
 Mn114 Mn 0.50932 1.01203 1.05165
 Cl115 Cl 0.50317 1.01410 0.99412
 C116 C 0.58905 0.94352 1.05005
 C117 C 0.42973 0.94216 1.05994
 N118 N 0.04477 0.45089 0.05132
 N119 N 0.04613 0.41900 0.06690
 N120 N 0.07489 0.52876 0.03947
 N121 N 0.09322 0.55818 0.04426
 N122 N 0.05121 0.52558 0.06141
 N123 N 0.05266 0.55261 0.08130
 N124 N 0.06824 0.45366 0.02921
 N125 N 0.08568 0.42368 0.02862
 C126 C 0.07178 0.40235 0.05229
 C127 C 0.07919 0.57239 0.07079
 N128 N 0.05427 0.54823 -0.05269
 N129 N 0.05950 0.58018 -0.06716
 N130 N 0.06973 0.46680 -0.03942
 N131 N 0.08581 0.43678 -0.04562
 N132 N 0.04715 0.47362 -0.06186
 N133 N 0.04764 0.44903 -0.08419
 N134 N 0.07687 0.54187 -0.03014
 N135 N 0.09838 0.56915 -0.02899
 Mn136 Mn 0.07292 0.49783 -0.00016
 C137 C 0.08726 0.59279 -0.05233
 C138 C 0.07190 0.42628 -0.07385
 N139 N -0.01993 0.53327 0.06067
 N140 N -0.02237 0.55582 0.08465
 N141 N -0.05015 0.46687 0.02858
 N142 N -0.07405 0.44195 0.02929
 N143 N -0.02708 0.45877 0.05024
 N144 N -0.03459 0.42819 0.06618
 N145 N -0.04153 0.54161 0.03763
 N146 N -0.05914 0.57007 0.04529
 Mn147 Mn 0.01227 0.49185 0.05627
 C148 C -0.04685 0.57869 0.07472
 C149 C -0.06395 0.41794 0.05280
 N150 N -0.02458 0.48024 -0.06227
 N151 N -0.02744 0.45137 -0.08030
 N152 N -0.04040 0.55459 -0.03236
 N153 N -0.06116 0.58170 -0.03815
 N154 N -0.01633 0.55556 -0.05387
 N155 N -0.01942 0.58364 -0.07416
 N156 N -0.04827 0.47992 -0.04027
 N157 N -0.06748 0.45105 -0.04267
 Mn158 Mn 0.01512 0.51438 -0.05804
 Mn159 Mn -0.04544 0.51104 -0.00160
 Cl160 Cl 0.01371 0.50381 -0.00086
 C161 C -0.05470 0.43377 -0.06795
 C162 C -0.04718 0.59999 -0.06391
 N163 N 1.06170 -0.05397 0.53253
 N164 N 1.07858 -0.06098 0.55936
 N165 N 1.03813 -0.06193 0.46096
 N166 N 1.04257 -0.07736 0.43267
 N167 N 1.06234 -0.03858 0.46605
 N168 N 1.08360 -0.03740 0.44194
 N169 N 1.03726 -0.07753 0.52922
 N170 N 1.03664 -0.10080 0.55437
 C171 C 1.06304 -0.09044 0.57265
 C172 C 1.07127 -0.06149 0.42116
 N173 N 0.94329 -0.03306 0.46679
 N174 N 0.92131 -0.03143 0.44294
 N175 N 0.96561 -0.07391 0.52951
 N176 N 0.96150 -0.10026 0.55169
 N177 N 0.94411 -0.04793 0.53400
 N178 N 0.92455 -0.05622 0.55894
 N179 N 0.96545 -0.05820 0.46177
 N180 N 0.95915 -0.07417 0.43414
 Mn181 Mn 1.00157 -0.06851 0.49509
 C182 C 0.93147 -0.05708 0.42268
 C183 C 0.93564 -0.08901 0.56971
 N184 N 1.06641 0.03682 0.47681
 N185 N 1.08375 0.04223 0.44994
 N186 N 1.04430 0.04837 0.54771
 N187 N 1.04637 0.06122 0.57714
 N188 N 1.06566 0.02211 0.54442
 N189 N 1.08284 0.01645 0.57144
 N190 N 1.04472 0.06273 0.48005
 N191 N 1.04700 0.08670 0.45564
 Mn192 Mn 1.06429 -0.00842 0.50505
 C193 C 1.07168 0.07367 0.43722
 C194 C 1.07078 0.04125 0.59157
 N195 N 0.94845 0.02943 0.54529
 N196 N 0.92560 0.03557 0.56757
 N197 N 0.97306 0.06630 0.48007
 N198 N 0.97306 0.09012 0.45545
 N199 N 0.94799 0.04332 0.47757
 N200 N 0.93029 0.05106 0.45124
 N201 N 0.97322 0.05283 0.54739
 N202 N 0.96801 0.07527 0.57078
 Mn203 Mn 0.94554 -0.00211 0.50609
 Mn204 Mn 1.00888 0.05792 0.51377
 Cl205 Cl 1.00496 -0.00538 0.50502
 C206 C 0.93859 0.06407 0.58352
 C207 C 0.94598 0.08057 0.43788
 C208 C 1.13169 0.12480 0.25976
 C209 C 1.12184 0.11005 0.28999
 C210 C 1.12827 0.07336 0.29810
 C211 C 1.14351 0.05176 0.27535
 C212 C 1.15316 0.06658 0.24514
 C213 C 1.14800 0.10359 0.23687
 C214 C 1.11973 0.05904 0.32893
 C215 C 1.10472 0.08105 0.35163
 C216 C 1.09749 0.11756 0.34315
 C217 C 1.10625 0.13185 0.31245
 C218 C 1.08166 0.13921 0.36558
 C219 C 1.07322 0.12490 0.39626
 C220 C 1.08101 0.08896 0.40511
 C221 C 1.09674 0.06713 0.38269
 H222 H 1.12830 0.15356 0.25532
 H223 H 1.14812 0.02337 0.28097
 H224 H 1.16407 0.04850 0.22816
 H225 H 1.12497 0.03093 0.33533
 H226 H 1.10107 0.15999 0.30610
 H227 H 1.07575 0.16716 0.35936
 H228 H 1.06084 0.14199 0.41318
 H229 H 1.10229 0.03914 0.38921
 C230 C 0.85790 -0.11681 0.25406
 C231 C 0.87598 -0.10759 0.28192
 C232 C 0.90991 -0.11700 0.28498
 C233 C 0.92547 -0.13434 0.25963
 C234 C 0.90750 -0.14317 0.23184
 C235 C 0.87309 -0.13538 0.22858
 C236 C 0.92768 -0.10910 0.31338
 C237 C 0.91196 -0.09154 0.33872
 C238 C 0.87820 -0.08121 0.33521
 C239 C 0.86041 -0.08951 0.30702
 C240 C 0.86271 -0.06276 0.36003
 C241 C 0.88033 -0.05479 0.38818
 C242 C 0.91362 -0.06560 0.39237
 C243 C 0.92937 -0.08403 0.36749
 H244 H 0.83150 -0.11104 0.25346
 H245 H 0.95168 -0.14111 0.26123
 H246 H 0.92135 -0.15530 0.21268
 H247 H 0.95366 -0.11673 0.31579
 H248 H 0.83441 -0.08194 0.30464
 H249 H 0.83694 -0.05446 0.35768
 H250 H 0.86768 -0.04051 0.40696
 H251 H 0.95517 -0.09209 0.37036
 C252 C 0.86299 0.14998 0.73844
 C253 C 0.87155 0.12957 0.71182
 C254 C 0.86428 0.09210 0.71197
 C255 C 0.84782 0.07589 0.73875
 C256 C 0.83917 0.09646 0.76527
 C257 C 0.84705 0.13385 0.76587
 C258 C 0.87395 0.07155 0.68555
 C259 C 0.89109 0.08816 0.65919
 C260 C 0.89769 0.12591 0.65912
 C261 C 0.88763 0.14631 0.68518
 C262 C 0.91515 0.14273 0.63339
 C263 C 0.92726 0.12225 0.60850
 C264 C 0.92168 0.08466 0.60845
 C265 C 0.90277 0.06770 0.63341
 H266 H 0.86790 0.17887 0.73701
 H267 H 0.84202 0.04716 0.73941
 H268 H 0.82767 0.08236 0.78585
 H269 H 0.86874 0.04268 0.68579
 H270 H 0.89308 0.17516 0.68506
 H271 H 0.92026 0.17161 0.63295
 H272 H 0.94157 0.13585 0.58934
 H273 H 0.89866 0.03864 0.63356
 C274 C 1.11717 -0.11811 0.75535
 C275 C 1.11258 -0.11186 0.72188
 C276 C 1.13630 -0.09096 0.70404
 C277 C 1.16447 -0.07739 0.71968
 C278 C 1.16956 -0.08480 0.75269
 C279 C 1.14607 -0.10529 0.77150
 C280 C 1.13162 -0.08408 0.67077
 C281 C 1.10370 -0.09833 0.65497
 C282 C 1.08025 -0.12003 0.67250
 C283 C 1.08468 -0.12641 0.70597
 C284 C 1.05265 -0.13464 0.65622
 C285 C 1.04779 -0.12671 0.62311
 C286 C 1.07028 -0.10390 0.60597
 C287 C 1.09862 -0.09058 0.62192
 H288 H 1.09743 -0.13229 0.76849
 H289 H 1.18311 -0.06168 0.70619
 H290 H 1.19296 -0.07545 0.76255
 H291 H 1.14967 -0.06757 0.65719
 H292 H 1.06653 -0.14275 0.71956
 H293 H 1.03454 -0.15160 0.66918
 H294 H 1.02596 -0.13745 0.61116
 H295 H 1.11633 -0.07320 0.60882
 C296 C 0.25651 1.13173 1.13494
 C297 C 0.28665 1.11748 1.12393
 C298 C 0.29274 1.07997 1.12767
 C299 C 0.26823 1.05719 1.14154
 C300 C 0.23842 1.07146 1.15257
 C301 C 0.23217 1.10911 1.15029
 C302 C 0.32326 1.06583 1.11766
 C303 C 0.34780 1.08878 1.10372
 C304 C 0.34144 1.12627 1.09945
 C305 C 0.31106 1.14038 1.10974
 C306 C 0.36549 1.14908 1.08469
 C307 C 0.39538 1.13489 1.07385
 C308 C 0.40212 1.09782 1.07818
 C309 C 0.37839 1.07484 1.09349
 H310 H 0.25330 1.16077 1.13320
 H311 H 0.27216 1.02825 1.14404
 H312 H 0.22000 1.05246 1.16236
 H313 H 0.32789 1.03704 1.12071
 H314 H 0.30643 1.16917 1.10666
 H315 H 0.36099 1.17781 1.08110
 H316 H 0.41332 1.15300 1.06197
 H317 H 0.38325 1.04609 1.09637
 C318 C 0.23486 0.89303 0.88924
 C319 C 0.26504 0.90824 0.89973
 C320 C 0.27187 0.94545 0.89336
 C321 C 0.24758 0.96716 0.87808
 C322 C 0.21759 0.95173 0.86758
 C323 C 0.21137 0.91432 0.87214
 C324 C 0.30322 0.95999 0.90141
 C325 C 0.32780 0.93767 0.91558
 C326 C 0.32032 0.90082 0.92321
 C327 C 0.28901 0.88639 0.91527
 C328 C 0.34454 0.87876 0.93810
 C329 C 0.37622 0.89274 0.94466
 C330 C 0.38435 0.92885 0.93605
 C331 C 0.35993 0.95137 0.92182
 H332 H 0.23062 0.86412 0.89266
 H333 H 0.25216 0.99584 0.87339
 H334 H 0.19963 0.96892 0.85506
 H335 H 0.30874 0.98836 0.89592
 H336 H 0.28361 0.85793 0.92046
 H337 H 0.33910 0.85058 0.94437
 H338 H 0.39461 0.87506 0.95594
 H339 H 0.36590 0.97948 0.91566
 C340 C 0.76045 0.87584 1.12479
 C341 C 0.72954 0.89101 1.11612
 C342 C 0.71001 0.90739 1.13986
 C343 C 0.72158 0.90781 1.17198
 C344 C 0.75191 0.89166 1.18063
 C345 C 0.77181 0.87540 1.15722
 C346 C 0.67902 0.92250 1.13122
 C347 C 0.66686 0.92038 1.09932
 C348 C 0.68623 0.90332 1.07578
 C349 C 0.71763 0.88935 1.08417
 C350 C 0.67363 0.89994 1.04427
 C351 C 0.64197 0.91290 1.03617
 C352 C 0.62260 0.93024 1.05917
 C353 C 0.63536 0.93431 1.09068
 H354 H 0.77556 0.86427 1.10615
 H355 H 0.70684 0.92000 1.19058
 H356 H 0.75939 0.89132 1.20587
 H357 H 0.66411 0.93522 1.14943
 H358 H 0.73246 0.87644 1.06601
 H359 H 0.68809 0.88685 1.02597
 H360 H 0.63272 0.90963 1.01173
 H361 H 0.62044 0.94743 1.10863
 C362 C 0.74227 1.14956 0.84248
 C363 C 0.71326 1.14249 0.86059
 C364 C 0.71367 1.14631 0.89459
 C365 C 0.74327 1.15714 0.90986
 C366 C 0.77215 1.16400 0.89163
 C367 C 0.77194 1.16023 0.85781
 C368 C 0.68463 1.13894 0.91273
 C369 C 0.65537 1.12717 0.89730
 C370 C 0.65517 1.12332 0.86326
 C371 C 0.68394 1.13137 0.84513
 C372 C 0.62640 1.11059 0.84787
 C373 C 0.59837 1.10062 0.86609
 C374 C 0.59830 1.10400 0.89988
 C375 C 0.62660 1.11806 0.91540
 H376 H 0.74163 1.14721 0.81636
 H377 H 0.74415 1.16012 0.93589
 H378 H 0.79479 1.17198 0.90403
 H379 H 0.68496 1.14173 0.93882
 H380 H 0.68368 1.12831 0.81906
 H381 H 0.62585 1.10745 0.82185
 H382 H 0.57674 1.08982 0.85375
 H383 H 0.62676 1.12020 0.94155
 C384 C 0.14412 0.21874 0.12559
 C385 C 0.12937 0.25224 0.11718
 C386 C 0.11750 0.27440 0.14186
 C387 C 0.12139 0.26334 0.17441
 C388 C 0.13635 0.23040 0.18255
 C389 C 0.14730 0.20733 0.15838
 C390 C 0.10210 0.30740 0.13373
 C391 C 0.09907 0.31916 0.10121
 C392 C 0.11163 0.29751 0.07647
 C393 C 0.12626 0.26398 0.08457
 C394 C 0.10985 0.31011 0.04405
 C395 C 0.09646 0.34410 0.03634
 C396 C 0.08369 0.36559 0.06071
 C397 C 0.08451 0.35273 0.09309
 H398 H 0.15241 0.20131 0.10670
 H399 H 0.11287 0.28019 0.19363
 H400 H 0.13926 0.22286 0.20802
 H401 H 0.09287 0.32416 0.15275
 H402 H 0.13561 0.24730 0.06555
 H403 H 0.11942 0.29404 0.02475
 H404 H 0.09605 0.35367 0.01123
 H405 H 0.07514 0.36950 0.11201
 C406 C -0.12506 0.25126 -0.13524
 C407 C -0.10860 0.28375 -0.12840
 C408 C -0.09586 0.30625 -0.15400
 C409 C -0.09971 0.29554 -0.18610
 C410 C -0.11688 0.26345 -0.19277
 C411 C -0.13009 0.24118 -0.16744
 C412 C -0.08033 0.33942 -0.14709
 C413 C -0.07843 0.35081 -0.11498
 C414 C -0.09136 0.32808 -0.08952
 C415 C -0.10573 0.29451 -0.09633
 C416 C -0.09070 0.33972 -0.05763
 C417 C -0.07836 0.37401 -0.05101
 C418 C -0.06565 0.39700 -0.07598
 C419 C -0.06495 0.38501 -0.10790
 H420 H -0.13446 0.23404 -0.11541
 H421 H -0.09021 0.31243 -0.20608
 H422 H -0.12061 0.25660 -0.21784
 H423 H -0.07069 0.35680 -0.16672
 H424 H -0.11572 0.27730 -0.07674
 H425 H -0.10049 0.32265 -0.03789
 H426 H -0.07880 0.38264 -0.02618
 H427 H -0.05533 0.40281 -0.12723
 C428 C 0.14312 0.78931 -0.11247
 C429 C 0.12795 0.75660 -0.10171
 C430 C 0.09411 0.74967 -0.10944
 C431 C 0.07570 0.77600 -0.12670
 C432 C 0.09097 0.80834 -0.13738
 C433 C 0.12495 0.81500 -0.13106
 C434 C 0.07938 0.71623 -0.10049
 C435 C 0.09806 0.68954 -0.08396
 C436 C 0.13157 0.69680 -0.07524
 C437 C 0.14633 0.73030 -0.08419
 C438 C 0.14986 0.67019 -0.05807
 C439 C 0.13528 0.63648 -0.05014
 C440 C 0.10237 0.62871 -0.05965
 C441 C 0.08380 0.65549 -0.07633
 H442 H 0.16939 0.79401 -0.10765
 H443 H 0.04966 0.77128 -0.13253
 H444 H 0.07634 0.82798 -0.15120
 H445 H 0.05357 0.71076 -0.10690
 H446 H 0.17220 0.73565 -0.07800
 H447 H 0.17549 0.67534 -0.05098
 H448 H 0.14994 0.61623 -0.03711
 H449 H 0.05821 0.64985 -0.08334
 C450 C -0.12527 0.75043 0.15332
 C451 C -0.11350 0.72192 0.13495
 C452 C -0.12081 0.72124 0.10142
 C453 C -0.13920 0.74941 0.08674
 C454 C -0.15013 0.77810 0.10500
 C455 C -0.14350 0.77900 0.13852
 C456 C -0.10947 0.69258 0.08306
 C457 C -0.09031 0.66489 0.09767
 C458 C -0.08233 0.66601 0.13106
 C459 C -0.09427 0.69427 0.14955
 C460 C -0.06237 0.63888 0.14538
 C461 C -0.05056 0.61079 0.12689
 C462 C -0.05889 0.60898 0.09388
 C463 C -0.07881 0.63618 0.07938
 H464 H -0.12035 0.75011 0.17916
 H465 H -0.14479 0.74951 0.06101
 H466 H -0.16339 0.79993 0.09263
 H467 H -0.11534 0.69197 0.05739
 H468 H -0.08833 0.69493 0.17520
 H469 H -0.05584 0.63941 0.17088
 H470 H -0.03520 0.59018 0.13857
 H471 H -0.08509 0.63521 0.05384
 C472 C 1.11842 0.09003 0.77091
 C473 C 1.10524 0.08484 0.73977
 C474 C 1.08493 0.11165 0.72492
 C475 C 1.07782 0.14291 0.74150
 C476 C 1.09193 0.14857 0.77188
 C477 C 1.11318 0.12267 0.78720
 C478 C 1.07281 0.10735 0.69334
 C479 C 1.08161 0.07700 0.67597
 C480 C 1.10184 0.04996 0.69080
 C481 C 1.11304 0.05373 0.72281
 C482 C 1.11117 0.02002 0.67307
 C483 C 1.10112 0.01729 0.64076
 C484 C 1.08117 0.04415 0.62578
 C485 C 1.07113 0.07371 0.64370
 H486 H 1.13270 0.06825 0.78200
 H487 H 1.06239 0.16384 0.73036
 H488 H 1.08746 0.17465 0.78191
 H489 H 1.05737 0.12815 0.68195
 H490 H 1.12874 0.03309 0.73408
 H491 H 1.12662 -0.00099 0.68403
 H492 H 1.10893 -0.00591 0.62749
 H493 H 1.05574 0.09454 0.63234
 C494 C 0.84009 -0.17607 0.72175
 C495 C 0.85257 -0.15841 0.69336
 C496 C 0.83165 -0.13540 0.67456
 C497 C 0.79838 -0.13161 0.68353
 C498 C 0.78582 -0.15003 0.71101
 C499 C 0.80637 -0.17210 0.73143
 C500 C 0.84412 -0.11676 0.64688
 C501 C 0.87716 -0.12161 0.63706
 C502 C 0.89788 -0.14573 0.65505
 C503 C 0.88566 -0.16351 0.68337
 C504 C 0.93042 -0.15180 0.64422
 C505 C 0.94233 -0.13400 0.61600
 C506 C 0.92233 -0.10904 0.59863
 C507 C 0.88970 -0.10295 0.60933
 H508 H 0.85739 -0.19180 0.73642
 H509 H 0.78174 -0.11480 0.66888
 H510 H 0.75938 -0.14745 0.71507
 H511 H 0.82801 -0.09874 0.63279
 H512 H 0.90176 -0.18160 0.69739
 H513 H 0.94661 -0.17044 0.65746
 H514 H 0.96742 -0.13927 0.60804
 H515 H 0.87394 -0.08408 0.59581
 C516 C 1.15550 -0.12223 0.25882
 C517 C 1.13506 -0.11401 0.28508
 C518 C 1.10398 -0.13177 0.28951
 C519 C 1.09327 -0.15647 0.26665
 C520 C 1.11346 -0.16418 0.24021
 C521 C 1.14545 -0.14790 0.23598
 C522 C 1.08433 -0.12476 0.31681
 C523 C 1.09547 -0.09993 0.33965
 C524 C 1.12618 -0.08134 0.33431
 C525 C 1.14572 -0.08857 0.30730
 C526 C 1.13728 -0.05600 0.35630
 C527 C 1.11875 -0.04966 0.38386
 C528 C 1.08867 -0.06859 0.39037
 C529 C 1.07680 -0.09350 0.36787
 H530 H 1.17997 -0.10966 0.25763
 H531 H 1.06917 -0.16985 0.26915
 H532 H 1.10311 -0.18240 0.22280
 H533 H 1.06068 -0.13884 0.32043
 H534 H 1.16945 -0.07457 0.30374
 H535 H 1.16054 -0.04127 0.35236
 H536 H 1.12848 -0.03000 0.40041
 H537 H 1.05353 -0.10798 0.37243
 C538 C 0.87761 0.14051 0.26477
 C539 C 0.88447 0.12895 0.29687
 C540 C 0.85997 0.10951 0.31502
 C541 C 0.82872 0.10297 0.30115
 C542 C 0.82180 0.11505 0.26942
 C543 C 0.84619 0.13364 0.25021
 C544 C 0.86713 0.09677 0.34669
 C545 C 0.89846 0.10356 0.36058
 C546 C 0.92272 0.12392 0.34277
 C547 C 0.91566 0.13627 0.31096
 C548 C 0.95377 0.13131 0.35702
 C549 C 0.96095 0.11811 0.38840
 C550 C 0.93735 0.09696 0.40588
 C551 C 0.90603 0.09001 0.39191
 H552 H 0.89768 0.15336 0.25101
 H553 H 0.80942 0.08866 0.31496
 H554 H 0.79670 0.11055 0.26072
 H555 H 0.84840 0.08141 0.36043
 H556 H 0.93445 0.15147 0.29716
 H557 H 0.97261 0.14699 0.34378
 H558 H 0.98532 0.12363 0.39866
 H559 H 0.88765 0.07384 0.40534
 C560 C 0.11659 0.23393 -0.13721
 C561 C 0.11024 0.26592 -0.12115
 C562 C 0.11731 0.26791 -0.08764
 C563 C 0.12988 0.23748 -0.07062
 C564 C 0.13610 0.20567 -0.08681
 C565 C 0.12994 0.20371 -0.12031
 C566 C 0.11199 0.30034 -0.07179
 C567 C 0.09942 0.33067 -0.08904
 C568 C 0.09171 0.32832 -0.12243
 C569 C 0.09737 0.29608 -0.13828
 C570 C 0.07827 0.35824 -0.13944
 C571 C 0.07220 0.39015 -0.12351
 C572 C 0.08008 0.39294 -0.09050
 C573 C 0.09401 0.36323 -0.07340
 H574 H 0.11219 0.23300 -0.16312
 H575 H 0.13522 0.23839 -0.04489
 H576 H 0.14605 0.18262 -0.07317
 H577 H 0.11762 0.30197 -0.04613
 H578 H 0.09175 0.29446 -0.16395
 H579 H 0.07211 0.35684 -0.16498
 H580 H 0.06137 0.41276 -0.13708
 H581 H 0.09976 0.36515 -0.04783
 C582 C -0.14224 0.23866 0.13173
 C583 C -0.12346 0.26795 0.11856
 C584 C -0.08949 0.27194 0.12728
 C585 C -0.07463 0.24608 0.14817
 C586 C -0.09338 0.21695 0.16098
 C587 C -0.12748 0.21318 0.15340
 C588 C -0.07099 0.30192 0.11533
 C589 C -0.08597 0.32799 0.09467
 C590 C -0.11966 0.32354 0.08515
 C591 C -0.13823 0.29358 0.09722
 C592 C -0.13429 0.34939 0.06399
 C593 C -0.11594 0.37976 0.05291
 C594 C -0.08280 0.38494 0.06307
 C595 C -0.06785 0.35870 0.08369
 H596 H -0.16853 0.23633 0.12583
 H597 H -0.04854 0.24852 0.15482
 H598 H -0.08114 0.19734 0.17696
 H599 H -0.04506 0.30517 0.12240
 H600 H -0.16421 0.29044 0.09029
 H601 H -0.16000 0.34632 0.05624
 H602 H -0.12790 0.39955 0.03688
 H603 H -0.04216 0.36227 0.09137
 C604 C -0.15435 0.73141 -0.17619
 C605 C -0.13966 0.70569 -0.15469
 C606 C -0.15997 0.67957 -0.13810
 C607 C -0.19431 0.67883 -0.14385
 C608 C -0.20879 0.70487 -0.16444
 C609 C -0.18935 0.73240 -0.18011
 C610 C -0.14583 0.65487 -0.11562
 C611 C -0.11149 0.65578 -0.10940
 C612 C -0.09094 0.68150 -0.12624
 C613 C -0.10515 0.70636 -0.14870
 C614 C -0.05642 0.68154 -0.12062
 C615 C -0.04236 0.65570 -0.09928
 C616 C -0.06265 0.63008 -0.08256
 C617 C -0.09728 0.63070 -0.08718
 H618 H -0.13871 0.75226 -0.18763
 H619 H -0.21015 0.65855 -0.13184
 H620 H -0.23554 0.70329 -0.16808
 H621 H -0.16157 0.63498 -0.10291
 H622 H -0.08941 0.72624 -0.16140
 H623 H -0.04022 0.70093 -0.13331
 H624 H -0.01551 0.65534 -0.09618
 H625 H -0.11292 0.61047 -0.07482
 C626 C 0.14507 0.75257 0.14667
 C627 C 0.13889 0.72009 0.13108
 C628 C 0.16586 0.69891 0.12100
 C629 C 0.19863 0.71052 0.12716
 C630 C 0.20458 0.74267 0.14325
 C631 C 0.17788 0.76410 0.15312
 C632 C 0.15958 0.66634 0.10534
 C633 C 0.12664 0.65428 0.10047
 C634 C 0.09978 0.67542 0.11110
 C635 C 0.10607 0.70835 0.12582
 C636 C 0.06694 0.66295 0.10748
 C637 C 0.06067 0.62948 0.09412
 C638 C 0.08701 0.60828 0.08334
 C639 C 0.12000 0.62102 0.08596
 H640 H 0.12422 0.76904 0.15360
 H641 H 0.21965 0.69455 0.11985
 H642 H 0.23013 0.75051 0.14828
 H643 H 0.18025 0.65010 0.09755
 H644 H 0.08539 0.72449 0.13382
 H645 H 0.04612 0.67875 0.11556
 H646 H 0.03503 0.62015 0.09211
 H647 H 0.14036 0.60451 0.07792
 C648 C 0.22816 1.11043 0.88962
 C649 C 0.26144 1.10089 0.89542
 C650 C 0.28051 1.08672 0.87018
 C651 C 0.26609 1.08285 0.83952
 C652 C 0.23361 1.09461 0.83338
 C653 C 0.21422 1.10897 0.85823
 C654 C 0.31406 1.07808 0.87560
 C655 C 0.32927 1.08543 0.90536
 C656 C 0.31042 1.10038 0.93042
 C657 C 0.27636 1.10703 0.92560
 C658 C 0.32620 1.10926 0.95957
 C659 C 0.36042 1.10368 0.96372
 C660 C 0.37911 1.08836 0.93908
 C661 C 0.36332 1.07897 0.91010
 H662 H 0.21357 1.12022 0.90949
 H663 H 0.28048 1.07232 0.81982
 H664 H 0.22445 1.09366 0.80875
 H665 H 0.32866 1.06704 0.85626
 H666 H 0.26185 1.11845 0.94483
 H667 H 0.31217 1.12087 0.97898
 H668 H 0.37214 1.11069 0.98639
 H669 H 0.37770 1.06723 0.89096
 C670 C 0.25587 0.87943 1.13264
 C671 C 0.28628 0.89615 1.12397
 C672 C 0.30572 0.91337 1.14769
 C673 C 0.29394 0.91401 1.17967
 C674 C 0.26408 0.89618 1.18836
 C675 C 0.24508 0.87797 1.16509
 C676 C 0.33707 0.92842 1.13929
 C677 C 0.34968 0.92512 1.10776
 C678 C 0.32994 0.90793 1.08414
 C679 C 0.29818 0.89432 1.09220
 C680 C 0.34267 0.90349 1.05300
 C681 C 0.37505 0.91486 1.04549
 C682 C 0.39516 0.93164 1.06869
 C683 C 0.38209 0.93751 1.09965
 H684 H 0.24114 0.86643 1.11419
 H685 H 0.30844 0.92709 1.19823
 H686 H 0.25661 0.89540 1.21357
 H687 H 0.35212 0.94139 1.15753
 H688 H 0.28330 0.88090 1.07406
 H689 H 0.32785 0.89045 1.03463
 H690 H 0.38439 0.91050 1.02134
 H691 H 0.39749 0.95043 1.11765
 C692 C 0.75876 1.14102 1.12875
 C693 C 0.73038 1.12528 1.11471
 C694 C 0.72334 1.08804 1.12062
 C695 C 0.74552 1.06690 1.13931
 C696 C 0.77375 1.08273 1.15308
 C697 C 0.78026 1.12008 1.14866
 C698 C 0.69395 1.07269 1.10832
 C699 C 0.67153 1.09411 1.09010
 C700 C 0.67919 1.13103 1.08311
 C701 C 0.70852 1.14640 1.09553
 C702 C 0.65711 1.15209 1.06417
 C703 C 0.62735 1.13696 1.05286
 C704 C 0.61898 1.10071 1.06069
 C705 C 0.64134 1.07930 1.07907
 H706 H 0.76330 1.16987 1.12527
 H707 H 0.74076 1.03821 1.14371
 H708 H 0.79031 1.06575 1.16759
 H709 H 0.68829 1.04427 1.11335
 H710 H 0.71407 1.17488 1.09069
 H711 H 0.66270 1.18034 1.05837
 H712 H 0.61050 1.15387 1.03860
 H713 H 0.63522 1.05114 1.08482
 C714 C 0.71350 0.85444 0.82183
 C715 C 0.68614 0.86607 0.83973
 C716 C 0.66276 0.84036 0.85241
 C717 C 0.66631 0.80371 0.84583
 C718 C 0.69342 0.79241 0.82784
 C719 C 0.71771 0.81745 0.81635
 C720 C 0.63640 0.85159 0.87173
 C721 C 0.63269 0.88832 0.87803
 C722 C 0.65532 0.91424 0.86434
 C723 C 0.68213 0.90290 0.84560
 C724 C 0.65058 0.95112 0.86944
 C725 C 0.62352 0.96223 0.88770
 C726 C 0.60150 0.93657 0.90195
 C727 C 0.60633 0.89964 0.89739
 H728 H 0.73217 0.87397 0.81335
 H729 H 0.64840 0.78371 0.85499
 H730 H 0.69580 0.76383 0.82344
 H731 H 0.61876 0.83177 0.88181
 H732 H 0.69978 0.92272 0.83556
 H733 H 0.66749 0.97138 0.85897
 H734 H 0.61990 0.99089 0.89093
 H735 H 0.58891 0.87991 0.90793
   
