data_POSCAR
  _audit_creation_date              2014-09-24
  _audit_creation_method            'ToBaCCo'
  _symmetry_space_group_name_H-M    'P1'
  _symmetry_Int_Tables_number       1
  _symmetry_cell_setting            triclinic
  loop_
  _symmetry_equiv_pos_as_xyz
 x,y,z
_cell_length_a 34.6942
_cell_length_b 34.6942
_cell_length_c 34.6942
_cell_angle_alpha 90.000400
_cell_angle_beta 89.999500
_cell_angle_gamma 89.999100
loop_
  _atom_site_label
  _atom_site_type_symbol
  _atom_site_fract_x
  _atom_site_fract_y
  _atom_site_fract_z
O1 O 0.55254 0.50003 0.03170
 O2 O 0.44627 0.50003 0.03169
 O3 O 0.49941 0.44699 0.03169
 O4 O 0.49941 0.55305 0.03169
 O5 O 0.49941 0.55304 -0.03200
 O6 O 0.49940 0.44700 -0.03200
 O7 O 0.44627 0.50003 -0.03196
 O8 O 0.55254 0.50003 -0.03198
 Cu9 Cu 0.49941 0.50002 0.03808
 Cu10 Cu 0.49940 0.50002 -0.03838
 C11 C 0.57062 0.50003 -0.00014
 C12 C 0.42813 0.50004 -0.00013
 C13 C 0.49941 0.42897 -0.00016
 C14 C 0.49941 0.57107 -0.00016
 O15 O 0.03194 0.55373 0.50002
 O16 O 0.03195 0.44746 0.50002
 O17 O 0.03198 0.50060 0.44700
 O18 O 0.03198 0.50059 0.55304
 O19 O -0.03171 0.50059 0.55304
 O20 O -0.03171 0.50060 0.44699
 O21 O -0.03173 0.44747 0.50002
 O22 O -0.03171 0.55373 0.50002
 Cu23 Cu 0.03835 0.50060 0.50002
 Cu24 Cu -0.03811 0.50060 0.50002
 C25 C 0.00011 0.57188 0.50003
 C26 C 0.00011 0.42939 0.50003
 C27 C 0.00014 0.50059 0.42896
 C28 C 0.00014 0.50059 0.57107
 O29 O 0.50001 0.03167 0.55374
 O30 O 0.50002 0.03169 0.44747
 O31 O 0.44700 0.03168 0.50060
 O32 O 0.55305 0.03168 0.50061
 O33 O 0.55304 -0.03201 0.50060
 O34 O 0.44701 -0.03201 0.50059
 O35 O 0.50002 -0.03199 0.44747
 O36 O 0.50001 -0.03197 0.55374
 Cu37 Cu 0.50002 0.03807 0.50060
 Cu38 Cu 0.50003 -0.03839 0.50060
 C39 C 0.50000 -0.00015 0.57188
 C40 C 0.50001 -0.00015 0.42939
 C41 C 0.42897 -0.00017 0.50059
 C42 C 0.57108 -0.00017 0.50060
 O43 O 0.46787 0.00002 -0.05357
 O44 O 0.46787 0.00001 0.05270
 O45 O 0.46784 0.05304 -0.00042
 O46 O 0.46784 -0.05300 -0.00043
 O47 O 0.53153 -0.05301 -0.00043
 O48 O 0.53153 0.05304 -0.00042
 O49 O 0.53155 0.00001 0.05270
 O50 O 0.53155 0.00002 -0.05357
 Cu51 Cu 0.46146 0.00002 -0.00043
 Cu52 Cu 0.53794 0.00002 -0.00043
 C53 C 0.49971 0.00001 -0.07165
 C54 C 0.49971 0.00000 0.07078
 C55 C 0.49968 0.07107 -0.00042
 C56 C 0.49968 -0.07103 -0.00042
 O57 O -0.05269 0.53212 1.00001
 O58 O 0.05358 0.53210 1.00001
 O59 O 0.00044 0.53214 0.94699
 O60 O 0.00044 0.53214 1.05303
 O61 O 0.00043 0.46846 1.05304
 O62 O 0.00043 0.46846 0.94699
 O63 O 0.05357 0.46843 1.00001
 O64 O -0.05269 0.46844 1.00001
 Cu65 Cu 0.00045 0.53853 1.00001
 Cu66 Cu 0.00044 0.46205 1.00001
 C67 C -0.07077 0.50028 1.00000
 C68 C 0.07165 0.50026 1.00000
 C69 C 0.00042 0.50030 0.92896
 C70 C 0.00042 0.50030 1.07106
 O71 O 0.00004 -0.05357 0.46843
 O72 O 0.00003 0.05269 0.46843
 O73 O 0.05306 -0.00043 0.46845
 O74 O -0.05299 -0.00043 0.46844
 O75 O -0.05299 -0.00043 0.53213
 O76 O 0.05305 -0.00043 0.53214
 O77 O 0.00003 0.05270 0.53211
 O78 O 0.00003 -0.05357 0.53211
 Cu79 Cu 0.00003 -0.00044 0.46204
 Cu80 Cu 0.00003 -0.00044 0.53852
 C81 C 0.00004 -0.07165 0.50027
 C82 C 0.00003 0.07077 0.50027
 C83 C 0.07108 -0.00042 0.50030
 C84 C -0.07102 -0.00042 0.50029
 N85 N -0.32868 0.50013 1.03356
 C86 C -0.30888 0.50015 0.99986
 N87 N -0.32868 0.50013 0.96616
 N88 N -0.36710 0.50009 0.96615
 C89 C -0.38703 0.50006 0.99986
 N90 N -0.36710 0.50009 1.03356
 C91 C -0.26747 0.50020 0.99986
 C92 C -0.23269 0.50023 0.99988
 C93 C -0.19127 0.50025 0.99992
 N94 N -0.17148 0.53396 0.99993
 N95 N -0.13306 0.53397 0.99997
 C96 C -0.11313 0.50027 0.99998
 N97 N -0.13304 0.46656 0.99996
 N98 N -0.17146 0.46655 0.99993
 N99 N 0.32957 0.50012 1.03358
 C100 C 0.30977 0.50014 0.99988
 N101 N 0.32956 0.50012 0.96619
 N102 N 0.36798 0.50009 0.96617
 C103 C 0.38796 0.50007 0.99987
 N104 N 0.36799 0.50008 1.03358
 C105 C 0.26835 0.50016 0.99989
 C106 C 0.23357 0.50017 0.99991
 C107 C 0.19216 0.50020 0.99994
 N108 N 0.17238 0.53391 0.99995
 N109 N 0.13395 0.53394 0.99997
 C110 C 0.11401 0.50024 0.99998
 N111 N 0.13392 0.46653 0.99997
 N112 N 0.17234 0.46651 0.99995
 N113 N -0.03362 -0.32958 0.50013
 C114 C 0.00007 -0.30976 0.50015
 N115 N 0.03377 -0.32955 0.50013
 N116 N 0.03380 -0.36797 0.50009
 C117 C 0.00010 -0.38796 0.50006
 N118 N -0.03361 -0.36799 0.50009
 C119 C 0.00004 -0.26835 0.50020
 C120 C 0.00004 -0.23357 0.50023
 C121 C 0.00005 -0.19215 0.50024
 N122 N 0.00005 -0.17236 0.53394
 N123 N 0.00005 -0.13394 0.53396
 C124 C 0.00004 -0.11401 0.50026
 N125 N 0.00004 -0.13392 0.46655
 N126 N 0.00005 -0.17234 0.46654
 N127 N 0.03377 0.32867 0.50013
 C128 C 0.00006 0.30888 0.50015
 N129 N -0.03363 0.32870 0.50012
 N130 N -0.03362 0.36712 0.50008
 C131 C 0.00010 0.38703 0.50006
 N132 N 0.03380 0.36709 0.50008
 C133 C 0.00004 0.26747 0.50019
 C134 C 0.00004 0.23269 0.50022
 C135 C 0.00005 0.19128 0.50024
 N136 N 0.00004 0.17149 0.53394
 N137 N 0.00004 0.13307 0.53396
 C138 C 0.00004 0.11313 0.50026
 N139 N 0.00004 0.13305 0.46655
 N140 N 0.00004 0.17147 0.46654
 N141 N 0.49989 -0.03384 -0.32955
 C142 C 0.49986 -0.00014 -0.30976
 N143 N 0.49989 0.03356 -0.32956
 N144 N 0.49994 0.03356 -0.36798
 C145 C 0.49996 -0.00015 -0.38795
 N146 N 0.49994 -0.03385 -0.36797
 C147 C 0.49981 -0.00013 -0.26835
 C148 C 0.49978 -0.00011 -0.23357
 C149 C 0.49976 -0.00007 -0.19215
 N150 N 0.46605 -0.00005 -0.17236
 N151 N 0.46603 -0.00002 -0.13394
 C152 C 0.49972 -0.00001 -0.11401
 N153 N 0.53344 -0.00002 -0.13392
 N154 N 0.53345 -0.00005 -0.17234
 N155 N 0.49990 0.03356 0.32869
 C156 C 0.49987 -0.00014 0.30889
 N157 N 0.49990 -0.03384 0.32869
 N158 N 0.49995 -0.03385 0.36711
 C159 C 0.49998 -0.00014 0.38703
 N160 N 0.49995 0.03356 0.36711
 C161 C 0.49981 -0.00013 0.26747
 C162 C 0.49978 -0.00011 0.23269
 C163 C 0.49975 -0.00007 0.19128
 N164 N 0.53345 -0.00006 0.17147
 N165 N 0.53343 -0.00003 0.13305
 C166 C 0.49972 -0.00002 0.11314
 N167 N 0.46602 -0.00003 0.13307
 N168 N 0.46604 -0.00006 0.17149
 N169 N 0.49951 -0.32842 -0.03392
 C170 C 0.49954 -0.30864 -0.00022
 N171 N 0.49951 -0.32837 0.03350
 N172 N 0.49947 -0.36677 0.03353
 C173 C 0.49944 -0.38668 -0.00017
 N174 N 0.49946 -0.36681 -0.03390
 C175 C 0.49959 -0.26734 -0.00025
 C176 C 0.49963 -0.23262 -0.00028
 C177 C 0.49965 -0.19132 -0.00032
 N178 N 0.46594 -0.17155 -0.00034
 N179 N 0.46595 -0.13316 -0.00038
 C180 C 0.49967 -0.11328 -0.00040
 N181 N 0.53338 -0.13318 -0.00038
 N182 N 0.53336 -0.17158 -0.00034
 N183 N 0.49950 0.32846 -0.03392
 C184 C 0.49952 0.30868 -0.00023
 N185 N 0.49950 0.32841 0.03349
 N186 N 0.49945 0.36681 0.03352
 C187 C 0.49943 0.38672 -0.00018
 N188 N 0.49945 0.36685 -0.03390
 C189 C 0.49958 0.26738 -0.00026
 C190 C 0.49962 0.23266 -0.00029
 C191 C 0.49964 0.19136 -0.00032
 N192 N 0.46594 0.17159 -0.00033
 N193 N 0.46595 0.13319 -0.00037
 C194 C 0.49967 0.11332 -0.00039
 N195 N 0.53338 0.13322 -0.00037
 N196 N 0.53336 0.17162 -0.00034
 N197 N -0.32840 -0.03392 0.50049
 C198 C -0.30863 -0.00022 0.50046
 N199 N -0.32837 0.03350 0.50049
 N200 N -0.36677 0.03352 0.50055
 C201 C -0.38667 -0.00018 0.50057
 N202 N -0.36680 -0.03390 0.50055
 C203 C -0.26733 -0.00025 0.50039
 C204 C -0.23262 -0.00027 0.50036
 C205 C -0.19131 -0.00030 0.50033
 N206 N -0.17157 -0.00033 0.46661
 N207 N -0.13317 -0.00037 0.46659
 C208 C -0.11327 -0.00039 0.50030
 N209 N -0.13314 -0.00037 0.53402
 N210 N -0.17154 -0.00032 0.53403
 N211 N 0.32846 -0.03392 0.50048
 C212 C 0.30868 -0.00022 0.50046
 N213 N 0.32842 0.03350 0.50048
 N214 N 0.36682 0.03352 0.50053
 C215 C 0.38672 -0.00018 0.50056
 N216 N 0.36686 -0.03390 0.50053
 C217 C 0.26738 -0.00025 0.50040
 C218 C 0.23267 -0.00028 0.50037
 C219 C 0.19137 -0.00030 0.50035
 N220 N 0.17163 -0.00033 0.46663
 N221 N 0.13323 -0.00036 0.46661
 C222 C 0.11333 -0.00038 0.50031
 N223 N 0.13320 -0.00036 0.53404
 N224 N 0.17160 -0.00032 0.53405
 N225 N 0.03387 0.50049 1.32844
 C226 C 0.00017 0.50047 1.30867
 N227 N -0.03354 0.50049 1.32842
 N228 N -0.03356 0.50054 1.36682
 C229 C 0.00015 0.50056 1.38671
 N230 N 0.03387 0.50054 1.36684
 C231 C 0.00019 0.50042 1.26737
 C232 C 0.00022 0.50038 1.23266
 C233 C 0.00028 0.50036 1.19135
 N234 N 0.00031 0.53406 1.17158
 N235 N 0.00036 0.53404 1.13318
 C236 C 0.00039 0.50032 1.11331
 N237 N 0.00036 0.46661 1.13321
 N238 N 0.00030 0.46664 1.17161
 N239 N -0.03355 0.50049 0.67161
 C240 C 0.00017 0.50047 0.69136
 N241 N 0.03387 0.50049 0.67159
 N242 N 0.03386 0.50053 0.63319
 C243 C 0.00014 0.50056 0.61332
 N244 N -0.03356 0.50054 0.63321
 C245 C 0.00018 0.50042 0.73266
 C246 C 0.00022 0.50038 0.76737
 C247 C 0.00027 0.50036 0.80867
 N248 N 0.00030 0.46664 0.82841
 N249 N 0.00035 0.46661 0.86681
 C250 C 0.00039 0.50032 0.88671
 N251 N 0.00036 0.53404 0.86684
 N252 N 0.00031 0.53406 0.82844
   
