data_POSCAR
  _audit_creation_date              2014-09-24
  _audit_creation_method            'ToBaCCo'
  _symmetry_space_group_name_H-M    'P1'
  _symmetry_Int_Tables_number       1
  _symmetry_cell_setting            triclinic
  loop_
  _symmetry_equiv_pos_as_xyz
 x,y,z
_cell_length_a 49.6301
_cell_length_b 49.8293
_cell_length_c 49.9921
_cell_angle_alpha 88.385900
_cell_angle_beta 93.316200
_cell_angle_gamma 91.164200
loop_
  _atom_site_label
  _atom_site_type_symbol
  _atom_site_fract_x
  _atom_site_fract_y
  _atom_site_fract_z
N1 N 0.59521 0.67172 0.61000
 N2 N 0.58550 0.65936 0.63103
 C3 C 0.56201 0.67066 0.63633
 C4 C 0.55669 0.69110 0.61751
 C5 C 0.57824 0.69115 0.60114
 H6 H 0.54948 0.66420 0.65236
 H7 H 0.58148 0.70446 0.58413
 Cu8 Cu 0.60424 0.62938 0.64907
 Cu9 Cu 0.62897 0.66169 0.59544
 Cu10 Cu 0.66207 0.60748 0.62603
 N11 N 0.62282 0.59850 0.66554
 N12 N 0.64556 0.59035 0.65665
 C13 C 0.65431 0.56910 0.67164
 C14 C 0.63599 0.56330 0.69109
 C15 C 0.61618 0.58252 0.68643
 H16 H 0.67255 0.55857 0.66824
 H17 H 0.59838 0.58497 0.69748
 N18 N 0.67562 0.62744 0.59484
 N19 N 0.66333 0.64849 0.58358
 C20 C 0.67761 0.65792 0.56311
 C21 C 0.69981 0.64190 0.56122
 C22 C 0.69788 0.62276 0.58163
 H23 H 0.67197 0.67481 0.55008
 H24 H 0.71180 0.60673 0.58657
 H25 H 0.62652 0.62179 0.60781
 H26 H 0.64634 0.64505 0.63046
 N27 N 0.91514 0.35049 0.09784
 N28 N 0.92602 0.35572 0.12174
 C29 C 0.94786 0.34043 0.12672
 C30 C 0.95105 0.32465 0.10465
 C31 C 0.92978 0.33179 0.08669
 H32 H 0.96050 0.34110 0.14502
 H33 H 0.92486 0.32376 0.06713
 Cu34 Cu 0.91087 0.38202 0.14429
 Cu35 Cu 0.88226 0.36763 0.08345
 Cu36 Cu 0.85917 0.41978 0.11966
 N37 N 0.90063 0.41428 0.16183
 N38 N 0.88012 0.42867 0.15241
 C39 C 0.87690 0.44916 0.16882
 C40 C 0.89655 0.44766 0.18960
 C41 C 0.91133 0.42529 0.18444
 H42 H 0.86152 0.46417 0.16573
 H43 H 0.92827 0.41731 0.19649
 N44 N 0.84079 0.40766 0.08606
 N45 N 0.84934 0.38753 0.07242
 C46 C 0.83211 0.38358 0.05100
 C47 C 0.81185 0.40226 0.05108
 C48 C 0.81806 0.41721 0.07358
 H49 H 0.83422 0.36835 0.03633
 H50 H 0.80652 0.43346 0.08066
 H51 H 0.89191 0.40280 0.10307
 H52 H 0.86737 0.37920 0.11904
 N53 N 0.40964 0.14781 -0.11241
 N54 N 0.42424 0.13222 -0.12638
 C55 C 0.44752 0.14507 -0.13160
 C56 C 0.44753 0.17015 -0.12040
 C57 C 0.42310 0.17123 -0.10842
 H58 H 0.46316 0.13684 -0.14294
 H59 H 0.41597 0.18754 -0.09707
 Cu60 Cu 0.41172 0.09667 -0.13670
 Cu61 Cu 0.37517 0.13570 -0.09910
 Cu62 Cu 0.34853 0.07623 -0.12420
 N63 N 0.39409 0.06683 -0.15522
 N64 N 0.36936 0.05897 -0.15049
 C65 C 0.36225 0.03814 -0.16613
 C66 C 0.38372 0.03261 -0.18155
 C67 C 0.40358 0.05132 -0.17402
 H68 H 0.34296 0.02768 -0.16606
 H69 H 0.42336 0.05379 -0.18183
 N70 N 0.33078 0.09685 -0.09739
 N71 N 0.34073 0.11971 -0.08804
 C72 C 0.32480 0.12820 -0.06920
 C73 C 0.30385 0.10972 -0.06642
 C74 C 0.30831 0.09015 -0.08471
 H75 H 0.32885 0.14588 -0.05748
 H76 H 0.29640 0.07206 -0.08816
 H77 H 0.37971 0.09465 -0.10155
 H78 H 0.36655 0.11309 -0.13266
 N79 N 0.08986 0.83367 0.36713
 N80 N 0.08188 0.84275 0.34313
 C81 C 0.06093 0.82757 0.33362
 C82 C 0.05526 0.80777 0.35276
 C83 C 0.07420 0.81246 0.37381
 H84 H 0.05053 0.83106 0.31429
 H85 H 0.07676 0.80125 0.39256
 Cu86 Cu 0.09940 0.87363 0.32654
 Cu87 Cu 0.12026 0.84978 0.38769
 Cu88 Cu 0.14730 0.90889 0.36168
 N89 N 0.11116 0.90918 0.31470
 N90 N 0.13046 0.92253 0.32799
 C91 C 0.13506 0.94606 0.31501
 C92 C 0.11747 0.94767 0.29252
 C93 C 0.10254 0.92392 0.29301
 H94 H 0.14967 0.96116 0.32174
 H95 H 0.08679 0.91770 0.27852
 N96 N 0.16132 0.89172 0.39553
 N97 N 0.15111 0.86912 0.40535
 C98 C 0.16494 0.86250 0.42848
 C99 C 0.18474 0.88195 0.43359
 C100 C 0.18181 0.90018 0.41225
 H101 H 0.16066 0.84503 0.44093
 H102 H 0.19388 0.91814 0.40902
 H103 H 0.11281 0.88780 0.37154
 H104 H 0.13971 0.86836 0.35647
 C105 C 0.12648 0.14980 0.14705
 C106 C 0.10729 0.16977 0.14912
 C107 C 0.10496 0.19085 0.12990
 C108 C 0.12194 0.19174 0.10833
 C109 C 0.14146 0.17205 0.10613
 C110 C 0.14379 0.15102 0.12560
 C111 C 0.12874 0.12868 0.16615
 C112 C 0.14842 0.10906 0.16439
 C113 C 0.16582 0.11052 0.14320
 C114 C 0.16347 0.13124 0.12367
 C115 C 0.18053 0.13250 0.10226
 C116 C 0.17831 0.15334 0.08276
 C117 C 0.15877 0.17311 0.08488
 H118 H 0.09400 0.16886 0.16560
 H119 H 0.12027 0.20807 0.09356
 H120 H 0.11547 0.12768 0.18266
 H121 H 0.18090 0.09527 0.14175
 H122 H 0.19582 0.11743 0.10095
 H123 H 0.15686 0.18913 0.06980
 C124 C 0.36888 0.84452 0.66549
 C125 C 0.38969 0.82583 0.66803
 C126 C 0.39203 0.80633 0.64856
 C127 C 0.37303 0.80539 0.62662
 C128 C 0.35198 0.82380 0.62393
 C129 C 0.34997 0.84357 0.64334
 C130 C 0.36683 0.86431 0.68463
 C131 C 0.34617 0.88327 0.68193
 C132 C 0.32735 0.88215 0.65983
 C133 C 0.32913 0.86247 0.64052
 C134 C 0.31049 0.86146 0.61836
 C135 C 0.31226 0.84166 0.59909
 C136 C 0.33304 0.82288 0.60204
 H137 H 0.40445 0.82681 0.68484
 H138 H 0.37458 0.79019 0.61171
 H139 H 0.38122 0.86483 0.70177
 H140 H 0.31158 0.89690 0.65742
 H141 H 0.29437 0.87586 0.61626
 H142 H 0.33468 0.80780 0.58703
 C143 C 0.89849 0.61611 0.36452
 C144 C 0.91930 0.63558 0.36602
 C145 C 0.92219 0.65272 0.38790
 C146 C 0.90397 0.65030 0.40838
 C147 C 0.88292 0.63109 0.40706
 C148 C 0.88019 0.61387 0.38509
 C149 C 0.89558 0.59896 0.34272
 C150 C 0.87439 0.57983 0.34103
 C151 C 0.85623 0.57770 0.36157
 C152 C 0.85907 0.59448 0.38363
 C153 C 0.84102 0.59230 0.40419
 C154 C 0.84354 0.60952 0.42600
 C155 C 0.86448 0.62892 0.42727
 H156 H 0.93345 0.63726 0.35030
 H157 H 0.90595 0.66368 0.42513
 H158 H 0.90947 0.60079 0.32678
 H159 H 0.84002 0.56279 0.36043
 H160 H 0.82469 0.57751 0.40303
 H161 H 0.86655 0.64211 0.44418
 C162 C 0.58161 0.38575 -0.13777
 C163 C 0.56046 0.36672 -0.13648
 C164 C 0.56287 0.34417 -0.11903
 C165 C 0.58652 0.34094 -0.10250
 C166 C 0.60768 0.35997 -0.10329
 C167 C 0.60529 0.38241 -0.12106
 C168 C 0.57965 0.40783 -0.15578
 C169 C 0.60117 0.42645 -0.15753
 C170 C 0.62451 0.42324 -0.14053
 C171 C 0.62666 0.40144 -0.12224
 C172 C 0.64993 0.39826 -0.10525
 C173 C 0.65231 0.37609 -0.08731
 C174 C 0.63119 0.35691 -0.08660
 H175 H 0.54235 0.36909 -0.14946
 H176 H 0.58831 0.32368 -0.08886
 H177 H 0.56168 0.41014 -0.16899
 H178 H 0.64100 0.43778 -0.14157
 H179 H 0.66637 0.41287 -0.10617
 H180 H 0.63288 0.33985 -0.07270
 C181 C -0.01027 0.29850 0.12275
 C182 C 0.00933 0.27906 0.11974
 C183 C 0.01085 0.26653 0.09490
 C184 C -0.00739 0.27351 0.07356
 C185 C -0.02710 0.29260 0.07678
 C186 C -0.02889 0.30546 0.10139
 C187 C 0.03044 0.24709 0.09184
 C188 C 0.04827 0.23972 0.11349
 C189 C 0.04652 0.25205 0.13846
 C190 C 0.02722 0.27177 0.14136
 C191 C 0.06398 0.24430 0.16022
 C192 C 0.08291 0.22439 0.15736
 C193 C 0.08493 0.21209 0.13263
 C194 C 0.06764 0.21998 0.11069
 H195 H -0.01109 0.30769 0.14202
 H196 H -0.00653 0.26410 0.05435
 H197 H -0.04070 0.29730 0.05969
 H198 H 0.03164 0.23753 0.07273
 H199 H 0.02596 0.28125 0.16051
 H200 H 0.06291 0.25353 0.17949
 H201 H 0.09621 0.21873 0.17444
 H202 H 0.06892 0.21037 0.09163
 C203 C 0.51752 0.71281 0.63736
 C204 C 0.49540 0.73003 0.63523
 C205 C 0.48853 0.74334 0.61049
 C206 C 0.50393 0.73930 0.58838
 C207 C 0.52603 0.72234 0.59074
 C208 C 0.53307 0.70892 0.61519
 C209 C 0.46650 0.76060 0.60825
 C210 C 0.45138 0.76496 0.63052
 C211 C 0.45834 0.75182 0.65533
 C212 C 0.48021 0.73433 0.65749
 C213 C 0.44337 0.75655 0.67762
 C214 C 0.42181 0.77424 0.67541
 C215 C 0.41469 0.78732 0.65082
 C216 C 0.42955 0.78248 0.62841
 H217 H 0.52286 0.70283 0.65641
 H218 H 0.49893 0.74931 0.56927
 H219 H 0.53743 0.71954 0.57325
 H220 H 0.46124 0.77077 0.58925
 H221 H 0.48552 0.72423 0.67652
 H222 H 0.44840 0.74666 0.69678
 H223 H 0.41050 0.77753 0.69287
 H224 H 0.42442 0.79278 0.60946
 C225 C 1.03058 0.76994 0.37321
 C226 C 1.01030 0.74989 0.37170
 C227 C 0.99415 0.74696 0.34772
 C228 C 0.99841 0.76425 0.32576
 C229 C 1.01844 0.78432 0.32746
 C230 C 1.03494 0.78750 0.35116
 C231 C 0.97392 0.72689 0.34610
 C232 C 0.96943 0.70989 0.36831
 C233 C 0.98541 0.71299 0.39241
 C234 C 1.00583 0.73285 0.39390
 C235 C 0.98057 0.69625 0.41471
 C236 C 0.96002 0.67670 0.41320
 C237 C 0.94412 0.67334 0.38931
 C238 C 0.94902 0.68997 0.36687
 H239 H 1.04262 0.77181 0.39182
 H240 H 0.98619 0.76230 0.30721
 H241 H 1.02094 0.79709 0.30992
 H242 H 0.96158 0.72462 0.32764
 H243 H 1.01812 0.73516 0.41239
 H244 H 0.99262 0.69835 0.43334
 H245 H 0.95669 0.66396 0.43066
 H246 H 0.93661 0.68772 0.34847
 C247 C 0.46347 0.21815 -0.11796
 C248 C 0.48415 0.23780 -0.11843
 C249 C 0.51109 0.23003 -0.12113
 C250 C 0.51684 0.20284 -0.12366
 C251 C 0.49611 0.18348 -0.12357
 C252 C 0.46930 0.19088 -0.12062
 C253 C 0.53185 0.24952 -0.12138
 C254 C 0.52600 0.27677 -0.11936
 C255 C 0.49902 0.28464 -0.11711
 C256 C 0.47829 0.26509 -0.11646
 C257 C 0.49324 0.31199 -0.11568
 C258 C 0.51398 0.33135 -0.11648
 C259 C 0.54086 0.32368 -0.11838
 C260 C 0.54673 0.29632 -0.11978
 H261 H 0.44283 0.22413 -0.11598
 H262 H 0.53736 0.19653 -0.12577
 H263 H 0.50119 0.16261 -0.12542
 H264 H 0.55252 0.24350 -0.12330
 H265 H 0.45762 0.27112 -0.11460
 H266 H 0.47269 0.31840 -0.11400
 H267 H 0.50908 0.35235 -0.11525
 H268 H 0.56740 0.29030 -0.12161
 C269 C 0.13742 -0.01329 0.26745
 C270 C 0.13522 0.00780 0.24829
 C271 C 0.11009 0.01264 0.23435
 C272 C 0.08777 -0.00402 0.23947
 C273 C 0.09028 -0.02528 0.25821
 C274 C 0.11502 -0.03000 0.27247
 C275 C 0.10772 0.03392 0.21545
 C276 C 0.13027 0.05012 0.20991
 C277 C 0.15554 0.04491 0.22341
 C278 C 0.15779 0.02396 0.24270
 C279 C 0.17820 0.06068 0.21728
 C280 C 0.17588 0.08141 0.19792
 C281 C 0.15081 0.08697 0.18471
 C282 C 0.12803 0.07131 0.19086
 H283 H 0.15670 -0.01700 0.27809
 H284 H 0.06839 -0.00066 0.22891
 H285 H 0.07270 -0.03778 0.26184
 H286 H 0.08839 0.03774 0.20491
 H287 H 0.17713 0.02010 0.25319
 H288 H 0.19773 0.05692 0.22736
 H289 H 0.19362 0.09336 0.19347
 H290 H 0.10870 0.07538 0.18046
 C291 C 0.61587 0.53776 -0.27197
 C292 C 0.61713 0.51697 -0.25238
 C293 C 0.64024 0.50083 -0.24940
 C294 C 0.66154 0.50555 -0.26616
 C295 C 0.66006 0.52603 -0.28577
 C296 C 0.63728 0.54256 -0.28902
 C297 C 0.64168 0.48013 -0.22982
 C298 C 0.62013 0.47513 -0.21333
 C299 C 0.59683 0.49103 -0.21645
 C300 C 0.59554 0.51196 -0.23585
 C301 C 0.57515 0.48560 -0.20020
 C302 C 0.57652 0.46458 -0.18107
 C303 C 0.59969 0.44883 -0.17768
 C304 C 0.62145 0.45428 -0.19388
 H305 H 0.59795 0.54982 -0.27395
 H306 H 0.67940 0.49333 -0.26415
 H307 H 0.67711 0.52886 -0.29811
 H308 H 0.65949 0.46782 -0.22752
 H309 H 0.57769 0.52421 -0.23819
 H310 H 0.55712 0.49755 -0.20232
 H311 H 0.55958 0.46079 -0.16869
 H312 H 0.63924 0.44195 -0.19165
 C313 C 0.36169 0.99790 0.78843
 C314 C 0.36311 0.97788 0.76937
 C315 C 0.38842 0.97116 0.76009
 C316 C 0.41183 0.98456 0.77000
 C317 C 0.41024 1.00447 0.78891
 C318 C 0.38522 1.01139 0.79836
 C319 C 0.38995 0.95118 0.74107
 C320 C 0.36647 0.93782 0.73116
 C321 C 0.34113 0.94456 0.74037
 C322 C 0.33960 0.96454 0.75943
 C323 C 0.31771 0.93119 0.73032
 C324 C 0.31937 0.91133 0.71134
 C325 C 0.34445 0.90442 0.70207
 C326 C 0.36795 0.91783 0.71211
 H327 H 0.34220 1.00309 0.79525
 H328 H 0.43140 0.97962 0.76314
 H329 H 0.42876 1.01423 0.79628
 H330 H 0.40939 0.94603 0.73399
 H331 H 0.32016 0.96969 0.76649
 H332 H 0.29813 0.93605 0.73719
 H333 H 0.30102 0.90109 0.70414
 H334 H 0.38736 0.91295 0.70483
 C335 C 0.87880 0.48062 0.22080
 C336 C 0.88228 0.49760 0.24270
 C337 C 0.90792 0.50009 0.25638
 C338 C 0.92952 0.48530 0.24808
 C339 C 0.92579 0.46816 0.22647
 C340 C 0.90047 0.46574 0.21256
 C341 C 0.91148 0.51719 0.27819
 C342 C 0.88963 0.53152 0.28673
 C343 C 0.86391 0.52870 0.27325
 C344 C 0.86045 0.51192 0.25122
 C345 C 0.84200 0.54262 0.28213
 C346 C 0.84546 0.55913 0.30422
 C347 C 0.87094 0.56226 0.31763
 C348 C 0.89301 0.54846 0.30870
 H349 H 0.85907 0.47865 0.21050
 H350 H 0.94930 0.48693 0.25835
 H351 H 0.94285 0.45707 0.22043
 H352 H 0.93117 0.51919 0.28862
 H353 H 0.84074 0.50987 0.24084
 H354 H 0.82216 0.54067 0.27205
 H355 H 0.82826 0.56975 0.31067
 H356 H 0.91266 0.55058 0.31916
 C357 C 0.27677 0.13338 -0.03363
 C358 C 0.25755 0.13310 -0.01407
 C359 C 0.24407 0.10878 -0.00733
 C360 C 0.24969 0.08531 -0.02057
 C361 C 0.26878 0.08576 -0.04002
 C362 C 0.28271 0.10969 -0.04661
 C363 C 0.22540 0.10823 0.01268
 C364 C 0.22002 0.13169 0.02611
 C365 C 0.23312 0.15613 0.01908
 C366 C 0.25180 0.15669 -0.00097
 C367 C 0.22748 0.17957 0.03244
 C368 C 0.20934 0.17874 0.05284
 C369 C 0.19661 0.15445 0.06031
 C370 C 0.20190 0.13103 0.04665
 H371 H 0.28706 0.15205 -0.03869
 H372 H 0.23952 0.06651 -0.01567
 H373 H 0.27298 0.06715 -0.04946
 H374 H 0.21525 0.08950 0.01798
 H375 H 0.26202 0.17539 -0.00619
 H376 H 0.23729 0.19849 0.02730
 H377 H 0.20572 0.19700 0.06321
 H378 H 0.19187 0.11227 0.05202
 C379 C 0.73479 0.62164 0.53423
 C380 C 0.75409 0.62375 0.51480
 C381 C 0.75977 0.64902 0.50258
 C382 C 0.74585 0.67166 0.50982
 C383 C 0.72635 0.66929 0.52885
 C384 C 0.72067 0.64433 0.54126
 C385 C 0.77906 0.65121 0.48317
 C386 C 0.79240 0.62837 0.47544
 C387 C 0.78644 0.60303 0.48738
 C388 C 0.76752 0.60092 0.50715
 C389 C 0.79934 0.58014 0.47915
 C390 C 0.81787 0.58229 0.45917
 C391 C 0.82408 0.60739 0.44734
 C392 C 0.81137 0.63040 0.45569
 H393 H 0.73034 0.60221 0.54340
 H394 H 0.74992 0.69118 0.50065
 H395 H 0.71590 0.68711 0.53407
 H396 H 0.78347 0.67062 0.47387
 H397 H 0.76302 0.58149 0.51637
 H398 H 0.79499 0.56057 0.48805
 H399 H 0.82758 0.56436 0.45308
 H400 H 0.81585 0.64977 0.44638
 C401 C 0.77871 0.38366 0.01625
 C402 C 0.75600 0.38644 -0.00164
 C403 C 0.74295 0.41142 -0.00445
 C404 C 0.75272 0.43309 0.01078
 C405 C 0.77511 0.43005 0.02877
 C406 C 0.78833 0.40537 0.03169
 C407 C 0.72024 0.41430 -0.02226
 C408 C 0.71018 0.39243 -0.03708
 C409 C 0.72305 0.36737 -0.03411
 C410 C 0.74598 0.36458 -0.01654
 C411 C 0.71263 0.34545 -0.04865
 C412 C 0.68962 0.34829 -0.06590
 C413 C 0.67678 0.37314 -0.06910
 C414 C 0.68726 0.39517 -0.05466
 H415 H 0.78851 0.36443 0.01852
 H416 H 0.74298 0.45237 0.00888
 H417 H 0.78222 0.44717 0.04021
 H418 H 0.71029 0.43349 -0.02442
 H419 H 0.75587 0.34536 -0.01431
 H420 H 0.72221 0.32610 -0.04662
 H421 H 0.68199 0.33111 -0.07699
 H422 H 0.67726 0.41432 -0.05676
 C423 C 0.21094 0.85969 0.47216
 C424 C 0.22960 0.86069 0.49431
 C425 C 0.24193 0.88548 0.50153
 C426 C 0.23555 0.90878 0.48630
 C427 C 0.21711 0.90757 0.46414
 C428 C 0.20454 0.88309 0.45691
 C429 C 0.26044 0.88659 0.52379
 C430 C 0.26696 0.86316 0.53880
 C431 C 0.25486 0.83831 0.53139
 C432 C 0.23618 0.83725 0.50928
 C433 C 0.26172 0.81488 0.54620
 C434 C 0.28042 0.81601 0.56814
 C435 C 0.29243 0.84061 0.57579
 C436 C 0.28554 0.86415 0.56103
 H437 H 0.20170 0.84061 0.46664
 H438 H 0.24481 0.92795 0.49152
 H439 H 0.21243 0.92594 0.45293
 H440 H 0.26981 0.90563 0.52937
 H441 H 0.22684 0.81820 0.50368
 H442 H 0.25265 0.79568 0.54081
 H443 H 0.28528 0.79767 0.57937
 H444 H 0.29498 0.88315 0.56661
   
