data_POSCAR
  _audit_creation_date              2014-09-24
  _audit_creation_method            'ToBaCCo'
  _symmetry_space_group_name_H-M    'P1'
  _symmetry_Int_Tables_number       1
  _symmetry_cell_setting            triclinic
  loop_
  _symmetry_equiv_pos_as_xyz
 x,y,z
_cell_length_a 40.8603
_cell_length_b 38.3270
_cell_length_c 39.1756
_cell_angle_alpha 85.168900
_cell_angle_beta 93.698000
_cell_angle_gamma 93.904600
loop_
  _atom_site_label
  _atom_site_type_symbol
  _atom_site_fract_x
  _atom_site_fract_y
  _atom_site_fract_z
C1 C 0.29435 0.30635 0.23998
 H2 H 0.29661 0.30677 0.26761
 C3 C 0.31578 0.32771 0.21972
 H4 H 0.33419 0.34496 0.23196
 C5 C 0.26772 0.28298 0.19061
 H6 H 0.24957 0.26488 0.17937
 C7 C 0.28861 0.30391 0.16939
 H8 H 0.28618 0.30164 0.14197
 N9 N 0.27079 0.28470 0.22522
 C10 C 0.19695 0.26300 0.30131
 H11 H 0.19549 0.23462 0.30341
 C12 C 0.17695 0.28100 0.32046
 H13 H 0.15995 0.26623 0.33714
 C14 C 0.22026 0.31662 0.27614
 H15 H 0.23687 0.33042 0.25856
 C16 C 0.20068 0.33566 0.29476
 H17 H 0.20298 0.36404 0.29177
 Zn18 Zn 0.24438 0.25467 0.25469
 N19 N 0.21835 0.28095 0.28002
 C20 C 0.27331 0.22760 0.31905
 N21 N 0.27343 0.22804 0.28430
 C22 C 0.29537 0.21018 0.26912
 C23 C 0.31790 0.19018 0.28901
 C24 C 0.29541 0.20784 0.33997
 C25 C 0.19251 0.23930 0.20668
 C26 C 0.17155 0.21834 0.18616
 C27 C 0.19755 0.16733 0.21278
 C28 C 0.21802 0.18925 0.23275
 N29 N 0.21565 0.22460 0.22886
 H30 H 0.25625 0.24267 0.33066
 H31 H 0.29518 0.21134 0.24141
 H32 H 0.33470 0.17558 0.27636
 H33 H 0.29511 0.20791 0.36758
 H34 H 0.19085 0.26746 0.20446
 H35 H 0.15404 0.23065 0.16785
 H36 H 0.19991 0.13926 0.21618
 H37 H 0.23584 0.17791 0.25123
 C38 C 0.17874 0.31785 0.31739
 C39 C 0.31313 0.32657 0.18390
 C40 C 0.17423 0.18185 0.18875
 C41 C 0.31806 0.18874 0.32495
 C42 C 0.79494 0.80605 0.23649
 H43 H 0.79773 0.80679 0.26408
 C44 C 0.81623 0.82690 0.21562
 H45 H 0.83554 0.84273 0.22817
 C46 C 0.76766 0.78183 0.18805
 H47 H 0.74901 0.76392 0.17734
 C48 C 0.78839 0.80212 0.16619
 H49 H 0.78379 0.80012 0.13893
 N50 N 0.77116 0.78420 0.22250
 C51 C 0.69788 0.76372 0.29934
 H52 H 0.69628 0.73533 0.30157
 C53 C 0.67809 0.78194 0.31851
 H54 H 0.66111 0.76733 0.33532
 C55 C 0.72134 0.81710 0.27385
 H56 H 0.73797 0.83072 0.25616
 C57 C 0.70197 0.83637 0.29249
 H58 H 0.70443 0.86475 0.28940
 Zn59 Zn 0.74499 0.75471 0.25269
 N60 N 0.71926 0.78143 0.27788
 C61 C 0.77422 0.72851 0.31718
 N62 N 0.77420 0.72842 0.28245
 C63 C 0.79601 0.71020 0.26747
 C64 C 0.81850 0.69032 0.28756
 C65 C 0.79629 0.70890 0.33828
 C66 C 0.69256 0.73869 0.20555
 C67 C 0.67148 0.71750 0.18539
 C68 C 0.69788 0.66677 0.21208
 C69 C 0.71846 0.68893 0.23168
 N70 N 0.71597 0.72426 0.22756
 H71 H 0.75728 0.74385 0.32861
 H72 H 0.79571 0.71095 0.23978
 H73 H 0.83517 0.67540 0.27509
 H74 H 0.79608 0.70937 0.36586
 H75 H 0.69080 0.76684 0.20314
 H76 H 0.65377 0.72962 0.16716
 H77 H 0.70037 0.63873 0.21563
 H78 H 0.73651 0.67779 0.25003
 C79 C 0.68007 0.81879 0.31531
 C80 C 0.81356 0.82513 0.17964
 C81 C 0.67431 0.68103 0.18817
 C82 C 0.81877 0.68938 0.32349
 C83 C 0.79538 0.30461 0.74006
 H84 H 0.79784 0.30470 0.76772
 C85 C 0.81665 0.32623 0.71984
 H86 H 0.83516 0.34332 0.73214
 C87 C 0.76835 0.28190 0.69057
 H88 H 0.75009 0.26396 0.67924
 C89 C 0.78907 0.30309 0.66939
 H90 H 0.78642 0.30119 0.64192
 N91 N 0.77168 0.28318 0.72522
 C92 C 0.69837 0.26102 0.80184
 H93 H 0.69688 0.23264 0.80381
 C94 C 0.67846 0.27895 0.82116
 H95 H 0.66151 0.26413 0.83786
 C96 C 0.72159 0.31471 0.77674
 H97 H 0.73810 0.32858 0.75909
 C98 C 0.70210 0.33368 0.79552
 H99 H 0.70439 0.36207 0.79260
 Zn100 Zn 0.74537 0.25294 0.75461
 N101 N 0.71966 0.27904 0.78047
 C102 C 0.77472 0.22478 0.81837
 N103 N 0.77446 0.22580 0.78365
 C104 C 0.79601 0.20801 0.76801
 C105 C 0.81829 0.18722 0.78729
 C106 C 0.79664 0.20434 0.83881
 C107 C 0.69319 0.23820 0.70665
 C108 C 0.67208 0.21749 0.68603
 C109 C 0.69792 0.16619 0.71222
 C110 C 0.71852 0.18787 0.73228
 N111 N 0.71632 0.22326 0.72865
 H112 H 0.75772 0.23956 0.83040
 H113 H 0.79591 0.21010 0.74028
 H114 H 0.83558 0.17506 0.77308
 H115 H 0.79428 0.20327 0.86617
 H116 H 0.69164 0.26638 0.70464
 H117 H 0.65457 0.23000 0.66786
 H118 H 0.70016 0.13811 0.71542
 H119 H 0.73632 0.17632 0.75064
 C120 C 0.68021 0.31580 0.81817
 C121 C 0.81371 0.32557 0.68398
 C122 C 0.67461 0.18098 0.68834
 C123 C 0.81908 0.18444 0.82367
 C124 C 0.29574 0.80480 0.73773
 H125 H 0.29855 0.80558 0.76531
 C126 C 0.31704 0.82557 0.71681
 H127 H 0.33633 0.84220 0.72853
 C128 C 0.26814 0.78078 0.68918
 H129 H 0.24953 0.76281 0.67848
 C130 C 0.28890 0.80105 0.66733
 H131 H 0.28545 0.79897 0.63992
 N132 N 0.27178 0.78309 0.72370
 C133 C 0.19883 0.76275 0.80089
 H134 H 0.19714 0.73436 0.80309
 C135 C 0.17918 0.78102 0.82016
 H136 H 0.16222 0.76647 0.83703
 C137 C 0.22235 0.81607 0.77535
 H138 H 0.23892 0.82965 0.75758
 C139 C 0.20312 0.83540 0.79409
 H140 H 0.20564 0.86378 0.79099
 Zn141 Zn 0.24561 0.75363 0.75390
 N142 N 0.22015 0.78041 0.77934
 C143 C 0.27505 0.72703 0.81814
 N144 N 0.27479 0.72706 0.78339
 C145 C 0.29639 0.70876 0.76818
 C146 C 0.31890 0.68871 0.78805
 C147 C 0.29716 0.70725 0.83903
 C148 C 0.19295 0.73815 0.70686
 C149 C 0.17168 0.71718 0.68666
 C150 C 0.19781 0.66616 0.71306
 C151 C 0.21858 0.68810 0.73272
 N152 N 0.21631 0.72346 0.72875
 H153 H 0.25828 0.74243 0.82976
 H154 H 0.29591 0.70959 0.74048
 H155 H 0.33540 0.67376 0.77540
 H156 H 0.29714 0.70765 0.86663
 H157 H 0.19138 0.76633 0.70457
 H158 H 0.15402 0.72950 0.66853
 H159 H 0.20012 0.63809 0.71648
 H160 H 0.23660 0.67676 0.75097
 C161 C 0.18125 0.81788 0.81697
 C162 C 0.31389 0.82368 0.68108
 C163 C 0.17427 0.68068 0.68927
 C164 C 0.31942 0.68767 0.82400
 C165 C 0.03190 -0.03088 -0.03100
 C166 C 0.05287 -0.00742 -0.00715
 C167 C 0.03474 0.01171 0.01158
 C168 C -0.00261 0.00577 0.00487
 C169 C 0.00873 -0.05340 -0.00756
 C170 C -0.00929 -0.03412 0.01116
 C171 C 0.00973 -0.00601 -0.05301
 C172 C -0.00830 0.01311 -0.03416
 H173 H 0.07957 -0.00619 -0.00511
 H174 H -0.01730 0.02143 0.02018
 H175 H 0.00652 -0.08189 -0.00616
 H176 H 0.00804 -0.00410 -0.08089
 C177 C 0.02965 0.46934 0.46937
 C178 C 0.05094 0.49251 0.49324
 C179 C 0.03311 0.51186 0.51205
 C180 C -0.00429 0.50642 0.50540
 C181 C 0.00631 0.44708 0.49282
 C182 C -0.01140 0.46657 0.51163
 C183 C 0.00774 0.49454 0.44745
 C184 C -0.00998 0.51388 0.46638
 H185 H 0.07763 0.49338 0.49525
 H186 H -0.01876 0.52225 0.52076
 H187 H 0.00396 0.41858 0.49436
 H188 H 0.00614 0.49663 0.41956
 C189 C 0.53097 -0.03053 0.46813
 C190 C 0.55211 -0.00727 0.49203
 C191 C 0.53414 0.01170 0.51107
 C192 C 0.49675 0.00581 0.50460
 C193 C 0.50795 -0.05323 0.49159
 C194 C 0.49009 -0.03412 0.51063
 C195 C 0.50869 -0.00551 0.44646
 C196 C 0.49083 0.01345 0.46563
 H197 H 0.57881 -0.00599 0.49382
 H198 H 0.48218 0.02132 0.52016
 H199 H 0.50577 -0.08171 0.49284
 H200 H 0.50698 -0.00322 0.41857
 C201 C 0.53073 0.46749 -0.03044
 C202 C 0.55200 0.49080 -0.00669
 C203 C 0.53415 0.51031 0.01195
 C204 C 0.49675 0.50485 0.00526
 C205 C 0.50734 0.44539 -0.00692
 C206 C 0.48961 0.46504 0.01171
 C207 C 0.50886 0.49258 -0.05256
 C208 C 0.49111 0.51208 -0.03379
 H209 H 0.57868 0.49168 -0.00466
 H210 H 0.48227 0.52081 0.02048
 H211 H 0.50493 0.41689 -0.00525
 H212 H 0.50727 0.49449 -0.08044
 C213 C 0.12710 -0.11277 -0.15821
 C214 C 0.12216 -0.12394 -0.12388
 C215 C 0.13639 -0.15417 -0.10891
 C216 C 0.15553 -0.17316 -0.12814
 C217 C 0.16072 -0.16210 -0.16265
 C218 C 0.14625 -0.13170 -0.17748
 C219 C 0.10265 -0.10427 -0.10399
 C220 C 0.08639 -0.08771 -0.08734
 C221 C 0.06746 -0.06820 -0.06784
 C222 C 0.05137 -0.05144 -0.05121
 H223 H 0.11612 -0.08945 -0.17008
 H224 H 0.13281 -0.16299 -0.08232
 H225 H 0.16668 -0.19618 -0.11586
 H226 H 0.14941 -0.12278 -0.20410
 C227 C 0.12405 0.38677 0.34206
 C228 C 0.11907 0.37555 0.37636
 C229 C 0.13332 0.34533 0.39133
 C230 C 0.15259 0.32645 0.37213
 C231 C 0.15789 0.33760 0.33767
 C232 C 0.14333 0.36795 0.32282
 C233 C 0.09961 0.39526 0.39626
 C234 C 0.08346 0.41192 0.41293
 C235 C 0.06471 0.43159 0.43243
 C236 C 0.04882 0.44854 0.44909
 H237 H 0.11307 0.41009 0.33019
 H238 H 0.12971 0.33648 0.41790
 H239 H 0.16380 0.30347 0.38442
 H240 H 0.14657 0.37694 0.29623
 C241 C 0.62579 -0.11198 0.34013
 C242 C 0.62085 -0.12317 0.37445
 C243 C 0.63510 -0.15340 0.38941
 C244 C 0.65427 -0.17234 0.37017
 C245 C 0.65948 -0.16126 0.33567
 C246 C 0.64497 -0.13086 0.32085
 C247 C 0.60136 -0.10353 0.39438
 C248 C 0.58514 -0.08702 0.41113
 C249 C 0.56629 -0.06760 0.43078
 C250 C 0.55029 -0.05094 0.44761
 H251 H 0.61480 -0.08866 0.32828
 H252 H 0.63153 -0.16223 0.41599
 H253 H 0.66545 -0.19535 0.38244
 H254 H 0.64815 -0.12191 0.29424
 C255 C 0.63468 0.34315 -0.10790
 C256 C 0.62038 0.37335 -0.12288
 C257 C 0.62538 0.38458 -0.15717
 C258 C 0.64471 0.36581 -0.17640
 C259 C 0.65932 0.33550 -0.16154
 C260 C 0.65400 0.32431 -0.12709
 C261 C 0.60087 0.39303 -0.10301
 C262 C 0.58466 0.40972 -0.08643
 C263 C 0.56585 0.42948 -0.06706
 C264 C 0.54993 0.44653 -0.05054
 H265 H 0.63105 0.33428 -0.08134
 H266 H 0.61437 0.40788 -0.16905
 H267 H 0.64796 0.37482 -0.20298
 H268 H 0.66523 0.30134 -0.11480
 C269 C -0.12249 0.11519 -0.15152
 C270 C -0.11513 0.12025 -0.11699
 C271 C -0.12974 0.14658 -0.10204
 C272 C -0.15164 0.16790 -0.12154
 C273 C -0.15953 0.16354 -0.15688
 C274 C -0.14427 0.13635 -0.17120
 C275 C -0.09248 0.09828 -0.09716
 C276 C -0.07336 0.07941 -0.08142
 C277 C -0.05084 0.05682 -0.06398
 C278 C -0.03150 0.03712 -0.04994
 H279 H -0.11158 0.09452 -0.16329
 H280 H -0.12395 0.15093 -0.07529
 H281 H -0.16075 0.18876 -0.10866
 H282 H -0.14999 0.12960 -0.19721
 C283 C -0.14615 0.62686 0.39479
 C284 C -0.11399 0.62514 0.38501
 C285 C -0.10355 0.64511 0.35569
 C286 C -0.12526 0.66637 0.33595
 C287 C -0.15779 0.66792 0.34528
 C288 C -0.16792 0.64816 0.37510
 C289 C -0.09196 0.60204 0.40426
 C290 C -0.07337 0.58234 0.41966
 C291 C -0.05145 0.55889 0.43681
 C292 C -0.03262 0.53856 0.45070
 H293 H -0.15453 0.61138 0.41736
 H294 H -0.07870 0.64400 0.34789
 H295 H -0.11659 0.68165 0.31343
 H296 H -0.19289 0.64849 0.38273
 C297 C 0.35352 0.12564 0.39551
 C298 C 0.38574 0.12440 0.38572
 C299 C 0.39608 0.14489 0.35666
 C300 C 0.37423 0.16618 0.33718
 C301 C 0.34164 0.16725 0.34650
 C302 C 0.33160 0.14698 0.37608
 C303 C 0.40794 0.10129 0.40467
 C304 C 0.42671 0.08161 0.41979
 C305 C 0.44886 0.05822 0.43662
 C306 C 0.46792 0.03797 0.45024
 H307 H 0.34521 0.10976 0.41788
 H308 H 0.42098 0.14416 0.34886
 H309 H 0.38283 0.18186 0.31485
 H310 H 0.30659 0.14694 0.38370
 C311 C 0.39715 0.64313 -0.14450
 C312 C 0.38688 0.62317 -0.11511
 C313 C 0.35482 0.62495 -0.10507
 C314 C 0.33298 0.64632 -0.12456
 C315 C 0.34293 0.66610 -0.15445
 C316 C 0.37536 0.66446 -0.16404
 C317 C 0.40899 0.60005 -0.09600
 C318 C 0.42764 0.58037 -0.08068
 C319 C 0.44961 0.55696 -0.06356
 C320 C 0.46847 0.53667 -0.04962
 H321 H 0.42192 0.64197 -0.15250
 H322 H 0.34657 0.60948 -0.08244
 H323 H 0.30808 0.64671 -0.11673
 H324 H 0.38391 0.67975 -0.18662
 C325 C -0.13588 -0.14647 0.10432
 C326 C -0.11924 -0.11591 0.11504
 C327 C -0.12504 -0.10446 0.14689
 C328 C -0.14725 -0.12362 0.16810
 C329 C -0.16428 -0.15483 0.15788
 C330 C -0.15812 -0.16570 0.12534
 C331 C -0.09582 -0.09677 0.09346
 C332 C -0.07612 -0.08142 0.07507
 C333 C -0.05295 -0.06421 0.05317
 C334 C -0.03309 -0.05016 0.03418
 H335 H -0.13132 -0.15577 0.07979
 H336 H -0.11243 -0.08064 0.15535
 H337 H -0.15164 -0.11296 0.19195
 H338 H -0.16913 -0.18994 0.11634
 C339 C -0.15261 0.38316 0.60896
 C340 C -0.11912 0.38645 0.61899
 C341 C -0.10769 0.37059 0.65059
 C342 C -0.12959 0.35120 0.67196
 C343 C -0.16325 0.34736 0.66193
 C344 C -0.17455 0.36377 0.63027
 C345 C -0.09632 0.40508 0.59638
 C346 C -0.07707 0.42010 0.57725
 C347 C -0.05438 0.43698 0.55464
 C348 C -0.03487 0.45079 0.53514
 H349 H -0.16172 0.39534 0.58454
 H350 H -0.08178 0.37281 0.65852
 H351 H -0.12004 0.33851 0.69592
 H352 H -0.20037 0.36166 0.62203
 C353 C 0.36983 -0.10168 0.64317
 C354 C 0.38166 -0.11699 0.61558
 C355 C 0.37123 -0.15151 0.60930
 C356 C 0.34912 -0.17072 0.63051
 C357 C 0.33709 -0.15564 0.65836
 C358 C 0.34769 -0.12088 0.66447
 C359 C 0.40470 -0.09758 0.59376
 C360 C 0.42411 -0.08201 0.57516
 C361 C 0.44696 -0.06457 0.55304
 C362 C 0.46656 -0.05034 0.53386
 H363 H 0.37771 -0.07495 0.64824
 H364 H 0.38034 -0.16367 0.58810
 H365 H 0.34187 -0.19758 0.62544
 H366 H 0.33862 -0.10842 0.68548
 C367 C 0.39212 0.37090 0.15078
 C368 C 0.38099 0.38635 0.11888
 C369 C 0.34756 0.38304 0.10856
 C370 C 0.32539 0.36401 0.12988
 C371 C 0.33640 0.34801 0.16184
 C372 C 0.37000 0.35188 0.17215
 C373 C 0.40402 0.40460 0.09629
 C374 C 0.42345 0.41932 0.07719
 C375 C 0.44634 0.43588 0.05462
 C376 C 0.46600 0.44946 0.03517
 H377 H 0.41797 0.37314 0.15893
 H378 H 0.33868 0.39490 0.08392
 H379 H 0.29964 0.36187 0.12141
 H380 H 0.37932 0.33948 0.19635
 C381 C 0.14786 0.11013 0.12985
 C382 C 0.11484 0.11652 0.12179
 C383 C 0.10102 0.14410 0.13584
 C384 C 0.12021 0.16531 0.15779
 C385 C 0.15348 0.15912 0.16597
 C386 C 0.16705 0.13124 0.15176
 C387 C 0.09553 0.09490 0.09871
 C388 C 0.08022 0.07640 0.07911
 C389 C 0.06333 0.05430 0.05588
 C390 C 0.04981 0.03508 0.03581
 H391 H 0.15886 0.08895 0.11899
 H392 H 0.07546 0.14925 0.12979
 H393 H 0.10896 0.18633 0.16860
 H394 H 0.19269 0.12613 0.15708
 C395 C 0.14729 0.60905 0.63045
 C396 C 0.11428 0.61558 0.62259
 C397 C 0.10063 0.64316 0.63683
 C398 C 0.12000 0.66426 0.65874
 C399 C 0.15329 0.65796 0.66668
 C400 C 0.16667 0.63006 0.65232
 C401 C 0.09479 0.59415 0.59948
 C402 C 0.07932 0.57583 0.57982
 C403 C 0.06222 0.55398 0.55650
 C404 C 0.04848 0.53497 0.53636
 H405 H 0.15815 0.58788 0.61945
 H406 H 0.07507 0.64842 0.63094
 H407 H 0.10890 0.68529 0.66967
 H408 H 0.19231 0.62487 0.65745
 C409 C 0.64789 0.10971 0.62904
 C410 C 0.61487 0.11620 0.62115
 C411 C 0.60117 0.14375 0.63539
 C412 C 0.62048 0.16481 0.65739
 C413 C 0.65375 0.15849 0.66542
 C414 C 0.66720 0.13067 0.65099
 C415 C 0.59542 0.09468 0.59810
 C416 C 0.58001 0.07623 0.57852
 C417 C 0.56300 0.05417 0.55532
 C418 C 0.54937 0.03499 0.53528
 H419 H 0.65879 0.08856 0.61803
 H420 H 0.57561 0.14898 0.62947
 H421 H 0.60933 0.18579 0.66836
 H422 H 0.69284 0.12547 0.65620
 C423 C 0.64790 0.60894 0.12969
 C424 C 0.61484 0.61518 0.12176
 C425 C 0.60097 0.64274 0.13582
 C426 C 0.62018 0.66409 0.15763
 C427 C 0.65351 0.65807 0.16565
 C428 C 0.66711 0.63019 0.15146
 C429 C 0.59550 0.59348 0.09877
 C430 C 0.58015 0.57494 0.07924
 C431 C 0.56315 0.55283 0.05608
 C432 C 0.54948 0.53363 0.03608
 H433 H 0.65892 0.58778 0.11882
 H434 H 0.57538 0.64778 0.12987
 H435 H 0.60891 0.68509 0.16842
 H436 H 0.69280 0.62521 0.15665
   
