data_POSCAR
  _audit_creation_date              2014-09-24
  _audit_creation_method            'ToBaCCo'
  _symmetry_space_group_name_H-M    'P1'
  _symmetry_Int_Tables_number       1
  _symmetry_cell_setting            triclinic
  loop_
  _symmetry_equiv_pos_as_xyz
 x,y,z
_cell_length_a 15.2311
_cell_length_b 15.1328
_cell_length_c 41.3930
_cell_angle_alpha 91.101000
_cell_angle_beta 92.830200
_cell_angle_gamma 118.785100
loop_
  _atom_site_label
  _atom_site_type_symbol
  _atom_site_fract_x
  _atom_site_fract_y
  _atom_site_fract_z
C1 C 0.05122 0.01134 0.49845
 C2 C 0.98590 -0.03124 0.16788
 C3 C -0.04456 0.98608 0.83319
 O4 O 0.42845 0.09154 0.02998
 O5 O 0.60650 0.10348 -0.02877
 O6 O 0.43285 0.09559 -0.03175
 O7 O 0.61554 0.12174 0.03509
 O8 O 0.55136 -0.04386 0.03415
 O9 O 0.37003 -0.06990 -0.03181
 O10 O 0.54429 -0.06183 -0.02853
 O11 O 0.36740 -0.07366 0.03108
 Cu12 Cu 0.52854 0.12000 0.00160
 Cu13 Cu 0.45191 -0.07871 0.00138
 C14 C 0.36580 0.00627 0.03982
 C15 C 0.60446 0.02280 -0.03922
 C16 C 0.37008 0.00777 -0.04312
 C17 C 0.61508 0.04340 0.04576
 O18 O -0.07478 0.54449 0.63630
 O19 O -0.05825 0.38009 0.69802
 O20 O -0.07928 0.54124 0.69903
 O21 O -0.09650 0.36207 0.63505
 O22 O 0.06878 0.43845 0.63478
 O23 O 0.08537 0.62523 0.69662
 O24 O 0.10703 0.46368 0.69778
 O25 O 0.08987 0.61981 0.63384
 Cu26 Cu -0.09324 0.44892 0.66713
 Cu27 Cu 0.10382 0.54425 0.66574
 C28 C 0.00532 0.61065 0.62460
 C29 C 0.02797 0.39503 0.70874
 C30 C 0.00522 0.61507 0.70827
 C31 C -0.01751 0.36899 0.62401
 O32 O 0.55333 0.62945 0.30494
 O33 O 0.38768 0.45888 0.36276
 O34 O 0.55363 0.62820 0.36677
 O35 O 0.38131 0.45925 0.29885
 O36 O 0.46959 0.37882 0.29813
 O37 O 0.63080 0.53645 0.36709
 O38 O 0.46435 0.36694 0.36127
 O39 O 0.63874 0.54584 0.30468
 Cu40 Cu 0.45928 0.55146 0.33303
 Cu41 Cu 0.55866 0.44790 0.33264
 C42 C 0.62635 0.61924 0.29578
 C43 C 0.39854 0.38552 0.37256
 C44 C 0.62136 0.60963 0.37856
 C45 C 0.39806 0.39153 0.28658
 C46 C -0.03366 0.15922 0.55166
 C47 C 0.05721 0.22520 0.56912
 N48 N 0.14169 0.22094 0.56346
 C49 C 0.14003 0.15393 0.54103
 C50 C 0.04990 0.08834 0.52272
 N51 N -0.03558 0.09217 0.52878
 N52 N -0.11844 0.16277 0.55829
 C53 C -0.11620 0.22918 0.58149
 C54 C -0.02475 0.29570 0.59871
 N55 N 0.05956 0.29171 0.59192
 H56 H 0.20878 0.15161 0.53734
 H57 H -0.18483 0.23038 0.58628
 C58 C 0.82524 0.84084 0.23617
 C59 C 0.81102 0.74232 0.23364
 N60 N 0.85662 0.71792 0.21039
 C61 C 0.91596 0.78760 0.18965
 C62 C 0.93230 0.88790 0.19249
 N63 N 0.88456 0.90994 0.21573
 N64 N 0.77634 0.86522 0.25810
 C65 C 0.71283 0.79501 0.27762
 C66 C 0.69781 0.69581 0.27529
 N67 N 0.74807 0.67174 0.25342
 H68 H 0.94543 0.76293 0.17034
 H69 H 0.67451 0.81659 0.29486
 C70 C 0.14838 -0.03842 -0.11668
 C71 C 0.20134 0.05543 -0.09991
 N72 N 0.17596 0.12848 -0.10635
 C73 C 0.10000 0.11162 -0.12884
 C74 C 0.04708 0.01711 -0.14620
 N75 N 0.07329 -0.05494 -0.13871
 N76 N 0.16991 -0.11338 -0.10999
 C77 C 0.24218 -0.09921 -0.08687
 C78 C 0.29548 -0.00571 -0.06951
 N79 N 0.27417 0.07015 -0.07660
 H80 H 0.07934 0.17003 -0.13241
 H81 H 0.25722 -0.16085 -0.08199
 C82 C -0.00923 0.81237 0.55847
 C83 C 0.07925 0.80648 0.56325
 N84 N 0.16042 0.86767 0.54676
 C85 C 0.15647 0.93378 0.52544
 C86 C 0.06677 0.93885 0.52040
 N87 N -0.01246 0.87858 0.53780
 N88 N -0.09110 0.75173 0.57441
 C89 C -0.08871 0.68484 0.59525
 C90 C 0.00010 0.67908 0.60073
 N91 N 0.08250 0.74046 0.58454
 H92 H 0.22285 0.98259 0.51327
 H93 H -0.15513 0.63793 0.60780
 C94 C 0.21551 0.18043 0.21168
 C95 C 0.17610 0.22965 0.23029
 N96 N 0.07663 0.20058 0.22607
 C97 C 0.01458 0.12283 0.20474
 C98 C 0.05316 0.06979 0.18702
 N99 N 0.15364 0.10243 0.19100
 N100 N 0.31373 0.20632 0.21611
 C101 C 0.37443 0.27778 0.23902
 C102 C 0.33507 0.32502 0.25879
 N103 N 0.23663 0.30098 0.25361
 H104 H -0.06469 0.09983 0.20276
 H105 H 0.45227 0.29559 0.24232
 C106 C 0.79370 0.03883 -0.11267
 C107 C 0.74854 -0.04764 -0.09476
 N108 N 0.76855 -0.12471 -0.10080
 C109 C 0.83117 -0.11920 -0.12413
 C110 C 0.87412 -0.03349 -0.14300
 N111 N 0.85482 0.04368 -0.13589
 N112 N 0.77794 0.11797 -0.10618
 C113 C 0.71832 0.11471 -0.08245
 C114 C 0.67146 0.02791 -0.06448
 N115 N 0.68762 -0.05177 -0.07114
 H116 H 0.84867 -0.17993 -0.12750
 H117 H 0.70682 0.17899 -0.07797
 C118 C 0.13792 -0.00941 0.09687
 C119 C 0.19934 -0.04955 0.10778
 N120 N 0.18857 -0.08746 0.13768
 C121 C 0.11882 -0.08748 0.15709
 C122 C 0.05387 -0.05075 0.14577
 N123 N 0.06760 -0.01111 0.11594
 N124 N 0.15261 0.03521 0.06809
 C125 C 0.22634 0.04160 0.04957
 C126 C 0.28709 0.00013 0.06007
 N127 N 0.27195 -0.04523 0.08894
 H128 H 0.11683 -0.11224 0.18150
 H129 H 0.23678 0.07766 0.02667
 C130 C 0.83974 0.78853 0.45233
 C131 C 0.79397 0.83178 0.43299
 N132 N 0.82789 0.93301 0.43653
 C133 C 0.90607 0.99262 0.45830
 C134 C 0.95307 0.94911 0.47745
 N135 N 0.91756 0.84774 0.47342
 N136 N 0.80947 0.68873 0.44872
 C137 C 0.73615 0.62961 0.42604
 C138 C 0.69133 0.67219 0.40575
 N139 N 0.72044 0.77267 0.40992
 H140 H 0.93337 1.07321 0.45991
 H141 H 0.71455 0.55028 0.42344
 C142 C 0.04276 0.20608 0.78050
 C143 C -0.04857 0.18548 0.76409
 N144 N -0.13418 0.10240 0.77055
 C145 C -0.13337 0.03874 0.79289
 C146 C -0.04264 0.05920 0.81043
 N147 N 0.04403 0.14258 0.80324
 N148 N 0.12857 0.28875 0.77307
 C149 C 0.12683 0.35136 0.75008
 C150 C 0.03490 0.33069 0.73386
 N151 N -0.05036 0.24799 0.74145
 H152 H -0.20338 -0.02792 0.79702
 H153 H 0.19628 0.41662 0.74463
 C154 C 0.83133 0.05680 0.11684
 C155 C 0.75907 -0.03472 0.10138
 N156 N 0.76001 -0.12137 0.10797
 C157 C 0.82997 -0.12128 0.12945
 C158 C 0.90274 -0.03023 0.14564
 N159 N 0.90187 0.05729 0.13855
 N160 N 0.83084 0.14367 0.10924
 C161 C 0.76161 0.14280 0.08680
 C162 C 0.68958 0.05074 0.07125
 N163 N 0.69054 -0.03547 0.07919
 H164 H 0.82994 -0.19169 0.13335
 H165 H 0.76331 0.21302 0.08101
 C166 C 0.21818 0.22022 0.44704
 C167 C 0.25602 0.17414 0.42640
 N168 N 0.22999 0.07540 0.43003
 C169 C 0.16808 0.02122 0.45338
 C170 C 0.13196 0.06846 0.47466
 N171 N 0.15779 0.16673 0.47017
 N172 N 0.23932 0.31684 0.44310
 C173 C 0.29686 0.37032 0.41924
 C174 C 0.33597 0.32559 0.39835
 N175 N 0.31513 0.22807 0.40252
 H176 H 0.14573 -0.05803 0.45494
 H177 H 0.31258 0.44759 0.41682
 C178 C 0.01868 0.83781 0.77426
 C179 C -0.07137 0.74801 0.76790
 N180 N -0.15455 0.73457 0.78272
 C181 C -0.15115 0.80664 0.80395
 C182 C -0.05981 0.89658 0.81079
 N183 N 0.02158 0.90925 0.79491
 N184 N 0.10237 0.85262 0.75985
 C185 C 0.10032 0.78123 0.73906
 C186 C 0.01008 0.69108 0.73209
 N187 N -0.07410 0.67661 0.74674
 H188 H -0.21910 0.79438 0.81470
 H189 H 0.16825 0.79558 0.72777
   
