data_POSCAR
  _audit_creation_date              2014-09-24
  _audit_creation_method            'ToBaCCo'
  _symmetry_space_group_name_H-M    'P1'
  _symmetry_Int_Tables_number       1
  _symmetry_cell_setting            triclinic
  loop_
  _symmetry_equiv_pos_as_xyz
 x,y,z
_cell_length_a 50.2792
_cell_length_b 49.3144
_cell_length_c 50.1868
_cell_angle_alpha 90.177500
_cell_angle_beta 90.395000
_cell_angle_gamma 90.451600
loop_
  _atom_site_label
  _atom_site_type_symbol
  _atom_site_fract_x
  _atom_site_fract_y
  _atom_site_fract_z
Si1 Si 0.24945 0.49875 1.00119
 Si2 Si 0.75229 0.50092 0.00067
 Si3 Si 0.00111 0.25022 0.49931
 Si4 Si 0.99666 0.74976 0.50329
 Si5 Si 0.49891 0.00031 0.25102
 Si6 Si 0.49930 -0.00074 0.74702
 C7 C 0.29035 0.02069 0.46577
 H8 H 0.29086 0.03613 0.48113
 C9 C 0.30847 0.02175 0.44484
 H10 H 0.32300 0.03805 0.44432
 C11 C 0.27156 -0.02005 0.44866
 H12 H 0.25750 -0.03660 0.45048
 C13 C 0.28933 -0.01980 0.42740
 H14 H 0.28834 -0.03593 0.41274
 N15 N 0.27232 0.00007 0.46726
 C16 C 0.20909 0.03029 0.51811
 H17 H 0.20887 0.01451 0.53304
 C18 C 0.19051 0.05112 0.51915
 H19 H 0.17630 0.05147 0.53525
 C20 C 0.22784 0.04869 0.47886
 H21 H 0.24202 0.04730 0.46285
 C22 C 0.20960 0.06993 0.47914
 H23 H 0.20996 0.08473 0.46325
 Zn24 Zn 0.24998 -0.00097 0.49743
 N25 N 0.22729 0.02945 0.49823
 C26 C 0.27146 0.01859 0.54653
 N27 N 0.27240 -0.00142 0.52786
 C28 C 0.29064 -0.02156 0.52947
 C29 C 0.30881 -0.02223 0.55062
 C30 C 0.28928 0.01872 0.56800
 C31 C 0.20952 -0.03340 0.47621
 C32 C 0.19116 -0.05472 0.47496
 C33 C 0.21036 -0.07289 0.51533
 C34 C 0.22842 -0.05119 0.51579
 N35 N 0.22768 -0.03203 0.49637
 H36 H 0.25720 0.03475 0.54462
 H37 H 0.29128 -0.03692 0.51406
 H38 H 0.32350 -0.03816 0.55124
 H39 H 0.28815 0.03475 0.58273
 H40 H 0.20917 -0.01768 0.46123
 H41 H 0.17696 -0.05547 0.45865
 H42 H 0.21081 -0.08759 0.53130
 H43 H 0.24255 -0.04938 0.53201
 C44 C 0.19047 0.07121 0.49938
 C45 C 0.30821 0.00122 0.42537
 C46 C 0.19124 -0.07471 0.49483
 C47 C 0.30837 -0.00182 0.57018
 C48 C 0.70823 0.02051 0.53268
 H49 H 0.70790 0.03615 0.51762
 C50 C 0.69009 0.02121 0.55361
 H51 H 0.67575 0.03745 0.55444
 C52 C 0.72649 -0.02041 0.54899
 H53 H 0.74033 -0.03689 0.54685
 C54 C 0.70870 -0.02053 0.57024
 H55 H 0.70947 -0.03687 0.58457
 N56 N 0.72598 -0.00004 0.53079
 C57 C 0.78954 0.03057 0.48016
 H58 H 0.78946 0.01488 0.46504
 C59 C 0.80845 0.05138 0.47932
 H60 H 0.82263 0.05181 0.46319
 C61 C 0.77116 0.04878 0.51965
 H62 H 0.75699 0.04732 0.53567
 C63 C 0.78976 0.07000 0.51958
 H64 H 0.78967 0.08472 0.53563
 Zn65 Zn 0.74821 -0.00077 0.50053
 N66 N 0.77136 0.02965 0.50007
 C67 C 0.72695 0.01908 0.45170
 N68 N 0.72571 -0.00101 0.47018
 C69 C 0.70712 -0.02112 0.46840
 C70 C 0.68894 -0.02172 0.44726
 C71 C 0.70912 0.01928 0.43023
 C72 C 0.78829 -0.03329 0.52110
 C73 C 0.80618 -0.05473 0.52214
 C74 C 0.78631 -0.07284 0.48182
 C75 C 0.76875 -0.05101 0.48155
 N76 N 0.77002 -0.03184 0.50109
 H77 H 0.74147 0.03521 0.45375
 H78 H 0.70625 -0.03653 0.48367
 H79 H 0.67400 -0.03764 0.44649
 H80 H 0.71051 0.03535 0.41564
 H81 H 0.78907 -0.01757 0.53618
 H82 H 0.82044 -0.05559 0.53838
 H83 H 0.78539 -0.08761 0.46583
 H84 H 0.75454 -0.04914 0.46545
 C85 C 0.80887 0.07136 0.49932
 C86 C 0.69005 0.00039 0.57266
 C87 C 0.80548 -0.07479 0.50221
 C88 C 0.68972 -0.00126 0.42787
 C89 C 0.47929 0.20776 1.03000
 H90 H 0.46410 0.20732 1.01463
 C91 C 0.47838 0.18910 1.05083
 H92 H 0.46215 0.17458 1.05156
 C93 C 0.51897 0.22725 1.04750
 H94 H 0.53508 0.24174 1.04582
 C95 C 0.51883 0.20896 1.06870
 H96 H 0.53492 0.20961 1.08314
 N97 N 0.49929 0.22642 1.02878
 C98 C 0.46821 0.29129 0.97903
 H99 H 0.48351 0.29213 0.96400
 C100 C 0.44731 0.30973 0.97835
 H101 H 0.44645 0.32446 0.96242
 C102 C 0.45100 0.27107 1.01813
 H103 H 0.45284 0.25640 1.03395
 C104 C 0.42973 0.28914 1.01821
 H105 H 0.41538 0.28813 1.03417
 Zn106 Zn 0.49978 0.24971 0.99890
 N107 N 0.46963 0.27240 0.99865
 C108 C 0.48039 0.22855 0.94958
 N109 N 0.50015 0.22739 0.96818
 C110 C 0.52004 0.20899 0.96623
 C111 C 0.52074 0.19094 0.94478
 C112 C 0.48030 0.21085 0.92780
 C113 C 0.53148 0.29103 1.02032
 C114 C 0.55240 0.30975 1.02167
 C115 C 0.56992 0.29072 0.98105
 C116 C 0.54863 0.27234 0.98048
 N117 N 0.53001 0.27276 1.00001
 H118 H 0.46444 0.24290 0.95176
 H119 H 0.53521 0.20816 0.98160
 H120 H 0.53649 0.17613 0.94386
 H121 H 0.46450 0.21218 0.91311
 H122 H 0.51620 0.29115 1.03539
 H123 H 0.55329 0.32398 1.03813
 H124 H 0.58425 0.29045 0.96505
 H125 H 0.54675 0.25814 0.96413
 C126 C 0.42778 0.30890 0.99820
 C127 C 0.49840 0.18947 1.07049
 C128 C 0.57190 0.30988 1.00177
 C129 C 0.50062 0.19164 0.92524
 C130 C 0.48100 0.79078 -0.03258
 H131 H 0.46581 0.79072 -0.01741
 C132 C 0.47972 0.80933 -0.05347
 H133 H 0.46320 0.82325 -0.05447
 C134 C 0.52104 0.77268 -0.04947
 H135 H 0.53742 0.75878 -0.04751
 C136 C 0.52054 0.79091 -0.07073
 H137 H 0.53664 0.79081 -0.08495
 N138 N 0.50136 0.77287 -0.03100
 C139 C 0.47162 0.70719 0.01879
 H140 H 0.48702 0.70693 0.03395
 C141 C 0.45086 0.68827 0.01956
 H142 H 0.45022 0.67371 0.03565
 C143 C 0.45389 0.72662 -0.02058
 H144 H 0.45544 0.74123 -0.03648
 C145 C 0.43275 0.70806 -0.02057
 H146 H 0.41821 0.70861 -0.03656
 Zn147 Zn 0.50232 0.74985 -0.00093
 N148 N 0.47268 0.72597 -0.00095
 C149 C 0.48222 0.77056 0.04789
 N150 N 0.50199 0.77246 0.02960
 C151 C 0.52136 0.79175 0.03174
 C152 C 0.52154 0.80994 0.05311
 C153 C 0.48163 0.78837 0.06957
 C154 C 0.53528 0.70964 -0.02128
 C155 C 0.55673 0.69186 -0.02194
 C156 C 0.57333 0.71214 0.01885
 C157 C 0.55155 0.72957 0.01871
 N158 N 0.53313 0.72807 -0.00123
 H159 H 0.46667 0.75551 0.04556
 H160 H 0.53653 0.79315 0.01662
 H161 H 0.53690 0.82543 0.05420
 H162 H 0.46584 0.78642 0.08402
 H163 H 0.52006 0.70854 -0.03659
 H164 H 0.55778 0.67699 -0.03781
 H165 H 0.58785 0.71371 0.03481
 H166 H 0.54922 0.74395 0.03478
 C167 C 0.43108 0.68850 -0.00034
 C168 C 0.49975 0.80966 -0.07285
 C169 C 0.57606 0.69288 -0.00162
 C170 C 0.50143 0.80846 0.07234
 C171 C 1.03398 0.48087 0.20864
 H172 H 1.01859 0.46543 0.20786
 C173 C 1.05498 0.48012 0.19061
 H174 H 1.05550 0.46407 0.17586
 C175 C 1.05118 0.52125 0.22810
 H176 H 1.04939 0.53751 0.24242
 C177 C 1.07251 0.52131 0.21042
 H178 H 1.08724 0.53739 0.21171
 N179 N 1.03253 0.50113 0.22699
 C180 C 0.98213 0.46909 0.29003
 H181 H 0.96722 0.48477 0.29073
 C182 C 0.98124 0.44770 0.30815
 H183 H 0.96561 0.44716 0.32287
 C184 C 1.02133 0.45163 0.27071
 H185 H 1.03719 0.45349 0.25641
 C186 C 1.02123 0.42989 0.28850
 H187 H 1.03680 0.41490 0.28732
 Zn188 Zn 1.00244 0.50149 0.24942
 N189 N 1.00188 0.47062 0.27172
 C190 C 0.95340 0.48192 0.22783
 N191 N 0.97204 0.50203 0.22701
 C192 C 0.97038 0.52241 0.20891
 C193 C 0.94922 0.52325 0.19079
 C194 C 0.93190 0.48194 0.21005
 C195 C 1.02344 0.53355 0.29034
 C196 C 1.02457 0.55467 0.30887
 C197 C 0.98421 0.57267 0.28970
 C198 C 0.98386 0.55117 0.27149
 N199 N 1.00334 0.53219 0.27211
 H200 H 0.95534 0.46558 0.24198
 H201 H 0.98577 0.53786 0.20836
 H202 H 0.94856 0.53937 0.17622
 H203 H 0.91719 0.46584 0.21110
 H204 H 1.03847 0.51797 0.29060
 H205 H 1.04084 0.55543 0.32310
 H206 H 0.96821 0.58722 0.28932
 H207 H 0.96769 0.54937 0.25730
 C208 C 1.00104 0.42778 0.30762
 C209 C 1.07456 0.50059 0.19128
 C210 C 1.00466 0.57449 0.30887
 C211 C 0.92967 0.50275 0.19112
 C212 C -0.03379 0.47822 0.79155
 H213 H -0.01868 0.46273 0.79197
 C214 C -0.05492 0.47709 0.80943
 H215 H -0.05584 0.46067 0.82367
 C216 C -0.05000 0.51923 0.77336
 H217 H -0.04773 0.53593 0.75968
 C218 C -0.07144 0.51891 0.79089
 H219 H -0.08580 0.53514 0.79007
 N220 N -0.03173 0.49905 0.77398
 C221 C 0.02028 0.46992 0.71104
 H222 H 0.03535 0.48570 0.71157
 C223 C 0.02159 0.44930 0.69201
 H224 H 0.03803 0.44912 0.67819
 C225 C -0.01954 0.45126 0.72842
 H226 H -0.03585 0.45244 0.74226
 C227 C -0.01900 0.43024 0.70970
 H228 H -0.03499 0.41541 0.70935
 Zn229 Zn -0.00106 0.50047 0.75237
 N230 N -0.00001 0.47050 0.72880
 C231 C 0.04742 0.48079 0.77448
 N232 N 0.02868 0.50050 0.77565
 C233 C 0.02971 0.52015 0.79469
 C234 C 0.05033 0.52067 0.81344
 C235 C 0.06843 0.48055 0.79285
 C236 C -0.02071 0.53405 0.71239
 C237 C -0.02150 0.55624 0.69525
 C238 C 0.01824 0.57388 0.71662
 C239 C 0.01824 0.55134 0.73341
 N240 N -0.00116 0.53207 0.73111
 H241 H 0.04589 0.46494 0.75964
 H242 H 0.01433 0.53535 0.79538
 H243 H 0.05090 0.53664 0.82828
 H244 H 0.08289 0.46443 0.79192
 H245 H -0.03560 0.51816 0.71067
 H246 H -0.03700 0.55719 0.68021
 H247 H 0.03374 0.58911 0.71885
 H248 H 0.03394 0.54913 0.74802
 C249 C 0.00169 0.42917 0.69105
 C250 C -0.07399 0.49775 0.80940
 C251 C -0.00181 0.57652 0.69719
 C252 C 0.06999 0.50061 0.81276
 C253 C 0.07266 0.19060 0.49845
 C254 C 0.05368 0.19009 0.47792
 C255 C 0.03256 0.20834 0.47815
 C256 C 0.03032 0.22737 0.49882
 C257 C 0.04938 0.22785 0.51937
 C258 C 0.07051 0.20956 0.51915
 C259 C 0.09375 0.17103 0.49872
 C260 C 0.11102 0.15420 0.49895
 C261 C 0.13114 0.13359 0.49925
 C262 C 0.15744 0.13994 0.49254
 C263 C 0.17680 0.11971 0.49263
 C264 C 0.17008 0.09287 0.49947
 C265 C 0.14358 0.08675 0.50619
 C266 C 0.12428 0.10698 0.50608
 H267 H 0.05503 0.17538 0.46191
 H268 H 0.01784 0.20746 0.46230
 H269 H 0.04781 0.24196 0.53580
 H270 H 0.08496 0.20998 0.53526
 H271 H 0.16297 0.16050 0.48725
 H272 H 0.19707 0.12511 0.48762
 H273 H 0.13766 0.06622 0.51113
 H274 H 0.10396 0.10181 0.51118
 C275 C 0.69462 0.57449 -0.00117
 C276 C 0.71325 0.57229 0.01957
 C277 C 0.73099 0.55059 0.02005
 C278 C 0.73030 0.53101 -0.00030
 C279 C 0.71162 0.53333 -0.02103
 C280 C 0.69391 0.55501 -0.02152
 C281 C 0.67559 0.59614 -0.00115
 C282 C 0.65925 0.61390 -0.00113
 C283 C 0.63928 0.63464 -0.00111
 C284 C 0.62703 0.64209 0.02274
 C285 C 0.60676 0.66133 0.02265
 C286 C 0.59842 0.67336 -0.00136
 C287 C 0.61111 0.66599 -0.02519
 C288 C 0.63139 0.64675 -0.02505
 H289 H 0.71381 0.58712 0.03553
 H290 H 0.74484 0.54897 0.03653
 H291 H 0.71059 0.51820 -0.03671
 H292 H 0.67947 0.55640 -0.03756
 H293 H 0.63288 0.63273 0.04136
 H294 H 0.59715 0.66627 0.04127
 H295 H 0.60536 0.67512 -0.04394
 H296 H 0.64074 0.64113 -0.04363
 C297 C 0.92101 -0.19618 0.50383
 C298 C 0.93883 -0.19582 0.52537
 C299 C 0.96097 -0.21273 0.52532
 C300 C 0.96564 -0.22999 0.50362
 C301 C 0.94723 -0.23106 0.48250
 C302 C 0.92505 -0.21409 0.48254
 C303 C 0.89959 -0.17703 0.50304
 C304 C 0.88242 -0.16011 0.50265
 C305 C 0.86287 -0.13897 0.50250
 C306 C 0.87053 -0.11252 0.50938
 C307 C 0.85187 -0.09172 0.50929
 C308 C 0.82518 -0.09706 0.50232
 C309 C 0.81764 -0.12372 0.49534
 C310 C 0.83639 -0.14456 0.49546
 H311 H 0.93592 -0.18205 0.54195
 H312 H 0.97485 -0.21182 0.54191
 H313 H 0.95011 -0.24456 0.46578
 H314 H 0.91135 -0.21457 0.46579
 H315 H 0.89100 -0.10795 0.51474
 H316 H 0.85841 -0.07135 0.51431
 H317 H 0.79720 -0.12851 0.49013
 H318 H 0.83025 -0.16498 0.49013
 C319 C 0.30772 0.42572 1.00160
 C320 C 0.30826 0.44478 1.02232
 C321 C 0.29026 0.46622 1.02233
 C322 C 0.27148 0.46870 1.00172
 C323 C 0.27087 0.44947 0.98106
 C324 C 0.28891 0.42802 0.98104
 C325 C 0.32728 0.40460 1.00088
 C326 C 0.34418 0.38741 1.00025
 C327 C 0.36493 0.36750 0.99946
 C328 C 0.39076 0.37539 0.99258
 C329 C 0.41115 0.35632 0.99207
 C330 C 0.40597 0.32903 0.99844
 C331 C 0.37990 0.32126 1.00530
 C332 C 0.35951 0.34041 1.00578
 H333 H 0.32286 0.44333 1.03822
 H334 H 0.29123 0.48109 1.03825
 H335 H 0.25694 0.45124 0.96467
 H336 H 0.28848 0.41351 0.96478
 H337 H 0.39520 0.39634 0.98777
 H338 H 0.43106 0.36303 0.98713
 H339 H 0.37523 0.30036 1.01003
 H340 H 0.33956 0.33408 1.01111
 C341 C 0.92860 0.19066 0.50053
 C342 C 0.93107 0.20934 0.47971
 C343 C 0.95250 0.22760 0.47937
 C344 C 0.97153 0.22739 0.49994
 C345 C 0.96897 0.20863 0.52074
 C346 C 0.94756 0.19040 0.52107
 C347 C 0.90720 0.17110 0.50036
 C348 C 0.88966 0.15428 0.50017
 C349 C 0.86923 0.13367 0.49985
 C350 C 0.84306 0.14003 0.50671
 C351 C 0.82336 0.11981 0.50653
 C352 C 0.82962 0.09299 0.49942
 C353 C 0.85600 0.08686 0.49258
 C354 C 0.87563 0.10706 0.49279
 H355 H 0.91664 0.20955 0.46358
 H356 H 0.95430 0.24148 0.46285
 H357 H 0.98367 0.20796 0.53660
 H358 H 0.94597 0.17591 0.53718
 H359 H 0.83788 0.16058 0.51218
 H360 H 0.80319 0.12522 0.51164
 H361 H 0.86156 0.06634 0.48744
 H362 H 0.89584 0.10189 0.48756
 C363 C 0.30970 0.57104 -0.00064
 C364 C 0.29153 0.56903 0.02031
 C365 C 0.27296 0.54777 0.02076
 C366 C 0.27237 0.52845 0.00019
 C367 C 0.29054 0.53060 -0.02079
 C368 C 0.30907 0.55185 -0.02124
 C369 C 0.32968 0.59209 -0.00052
 C370 C 0.34684 0.60929 -0.00041
 C371 C 0.36781 0.62932 -0.00025
 C372 C 0.36248 0.65624 -0.00707
 C373 C 0.38303 0.67554 -0.00709
 C374 C 0.40917 0.66813 -0.00025
 C375 C 0.41428 0.64100 0.00658
 C376 C 0.39374 0.62176 0.00657
 H377 H 0.29199 0.58364 0.03647
 H378 H 0.25951 0.54624 0.03742
 H379 H 0.29058 0.51566 -0.03665
 H380 H 0.32315 0.55309 -0.03745
 H381 H 0.34247 0.66231 -0.01235
 H382 H 0.37841 0.69632 -0.01215
 H383 H 0.43424 0.63456 0.01154
 H384 H 0.39810 0.60095 0.01177
 C385 C 0.07053 -0.19254 0.49835
 C386 C 0.04485 -0.18182 0.49824
 C387 C 0.02275 -0.19903 0.49962
 C388 C 0.02607 -0.22719 0.50136
 C389 C 0.05183 -0.23794 0.50092
 C390 C 0.07402 -0.22067 0.49956
 C391 C 0.09302 -0.17437 0.49726
 C392 C 0.11104 -0.15813 0.49642
 C393 C 0.13153 -0.13763 0.49544
 C394 C 0.12486 -0.11121 0.48804
 C395 C 0.14431 -0.09086 0.48769
 C396 C 0.17080 -0.09663 0.49472
 C397 C 0.17737 -0.12331 0.50205
 C398 C 0.15783 -0.14368 0.50238
 H399 H 0.04191 -0.16011 0.49709
 H400 H 0.00317 -0.19016 0.49921
 H401 H 0.05476 -0.25966 0.50181
 H402 H 0.09380 -0.22920 0.49950
 H403 H 0.10453 -0.10626 0.48280
 H404 H 0.13849 -0.07046 0.48242
 H405 H 0.19763 -0.12844 0.50732
 H406 H 0.16320 -0.16408 0.50816
 C407 C 0.69234 0.42835 1.00264
 C408 C 0.69264 0.44778 1.02304
 C409 C 0.71105 0.46914 1.02254
 C410 C 0.72941 0.47118 1.00172
 C411 C 0.72910 0.45165 0.98133
 C412 C 0.71066 0.43027 0.98183
 C413 C 0.67256 0.40710 1.00261
 C414 C 0.65557 0.38972 1.00260
 C415 C 0.63479 0.36950 1.00264
 C416 C 0.60897 0.37674 1.00986
 C417 C 0.58858 0.35734 1.00967
 C418 C 0.59373 0.33035 1.00225
 C419 C 0.61977 0.32324 0.99505
 C420 C 0.64017 0.34271 0.99527
 H421 H 0.67844 0.44661 1.03914
 H422 H 0.71078 0.48424 1.03825
 H423 H 0.74268 0.45307 0.96478
 H424 H 0.71045 0.41548 0.96582
 H425 H 0.60456 0.39745 1.01548
 H426 H 0.56868 0.36357 1.01490
 H427 H 0.62442 0.30258 0.98952
 H428 H 0.66010 0.33688 0.98967
 C429 C 0.50007 0.07247 1.19125
 C430 C 0.52071 0.05358 1.19154
 C431 C 0.52048 0.03239 1.20995
 C432 C 0.49972 0.02999 1.22833
 C433 C 0.47913 0.04902 1.22807
 C434 C 0.47935 0.07023 1.20963
 C435 C 0.49966 0.09344 1.17138
 C436 C 0.49928 0.11058 1.15432
 C437 C 0.49878 0.13055 1.13348
 C438 C 0.50580 0.15754 1.13892
 C439 C 0.50559 0.17677 1.11848
 C440 C 0.49832 0.16922 1.09234
 C441 C 0.49122 0.14205 1.08714
 C442 C 0.49146 0.12288 1.10757
 H443 H 0.53674 0.05500 1.17729
 H444 H 0.53635 0.01766 1.20964
 H445 H 0.46262 0.04731 1.24166
 H446 H 0.46316 0.08460 1.20942
 H447 H 0.51146 0.16370 1.15892
 H448 H 0.51087 0.19758 1.12317
 H449 H 0.48593 0.13550 1.06717
 H450 H 0.48610 0.10202 1.10313
 C451 C -0.00368 0.69673 0.58006
 C452 C 0.01757 0.71463 0.57558
 C453 C 0.01760 0.73119 0.55299
 C454 C -0.00352 0.72972 0.53461
 C455 C -0.02516 0.71243 0.53967
 C456 C -0.02520 0.69592 0.56222
 C457 C -0.00297 0.67825 0.60217
 C458 C -0.00251 0.66204 0.62009
 C459 C -0.00212 0.64192 0.64078
 C460 C 0.02193 0.63013 0.64854
 C461 C 0.02212 0.60923 0.66730
 C462 C -0.00181 0.59979 0.67847
 C463 C -0.02583 0.61213 0.67090
 C464 C -0.02596 0.63304 0.65216
 H465 H 0.03429 0.71548 0.58931
 H466 H 0.03427 0.74474 0.54983
 H467 H -0.04176 0.71125 0.52582
 H468 H -0.04176 0.68217 0.56549
 H469 H 0.04048 0.63672 0.63971
 H470 H 0.04089 0.59991 0.67245
 H471 H -0.04452 0.60555 0.67940
 H472 H -0.04470 0.64200 0.64625
 C473 C 0.49828 0.92686 -0.19345
 C474 C 0.51900 0.92919 -0.21183
 C475 C 0.51921 0.95048 -0.23019
 C476 C 0.49862 0.96951 -0.23035
 C477 C 0.47788 0.96704 -0.21196
 C478 C 0.47766 0.94577 -0.19365
 C479 C 0.49860 0.90577 -0.17370
 C480 C 0.49876 0.88857 -0.15669
 C481 C 0.49884 0.86858 -0.13585
 C482 C 0.50648 0.84189 -0.14118
 C483 C 0.50673 0.82266 -0.12074
 C484 C 0.49928 0.82990 -0.09470
 C485 C 0.49160 0.85679 -0.08960
 C486 C 0.49139 0.87596 -0.11004
 H487 H 0.53517 0.91479 -0.21171
 H488 H 0.53570 0.95225 -0.24381
 H489 H 0.46201 0.98176 -0.21158
 H490 H 0.46162 0.94428 -0.17941
 H491 H 0.51225 0.83595 -0.16111
 H492 H 0.51246 0.80206 -0.12536
 H493 H 0.48617 0.86314 -0.06971
 H494 H 0.48554 0.89660 -0.10567
 C495 C 1.00019 0.30913 0.42677
 C496 C 0.97976 0.30970 0.44557
 C497 C 0.98001 0.29168 0.46702
 C498 C 1.00057 0.27283 0.46975
 C499 C 1.02104 0.27234 0.45090
 C500 C 1.02080 0.29038 0.42945
 C501 C 1.00038 0.32832 0.40523
 C502 C 1.00056 0.34473 0.38746
 C503 C 1.00079 0.36472 0.36663
 C504 C 0.97693 0.37275 0.35461
 C505 C 0.97702 0.39297 0.33515
 C506 C 1.00102 0.40546 0.32744
 C507 C 1.02494 0.39698 0.33940
 C508 C 1.02480 0.37677 0.35887
 H509 H 0.96381 0.32424 0.44381
 H510 H 0.96423 0.29258 0.48158
 H511 H 1.03741 0.25838 0.45284
 H512 H 1.03683 0.28991 0.41514
 H513 H 0.95823 0.36354 0.36045
 H514 H 0.95833 0.39881 0.32609
 H515 H 1.04370 0.40645 0.33419
 H516 H 1.04337 0.37080 0.36814
 C517 C 0.49814 0.92686 0.19229
 C518 C 0.47750 0.94574 0.19189
 C519 C 0.47761 0.96735 0.20996
 C520 C 0.49828 0.97018 0.22870
 C521 C 0.51890 0.95118 0.22911
 C522 C 0.51878 0.92956 0.21101
 C523 C 0.49860 0.90535 0.17287
 C524 C 0.49902 0.88769 0.15622
 C525 C 0.49953 0.86703 0.13593
 C526 C 0.47589 0.85870 0.12340
 C527 C 0.47646 0.83941 0.10295
 C528 C 0.50073 0.82822 0.09472
 C529 C 0.52437 0.83653 0.10763
 C530 C 0.52375 0.85581 0.12810
 H531 H 0.46152 0.94396 0.17738
 H532 H 0.46173 0.98204 0.20913
 H533 H 0.53534 0.95321 0.24298
 H534 H 0.53497 0.91519 0.21135
 H535 H 0.45706 0.86736 0.12921
 H536 H 0.45797 0.83373 0.09316
 H537 H 0.54331 0.82805 0.10197
 H538 H 0.54217 0.86212 0.13767
 C539 C 0.00273 0.31024 0.57133
 C540 C -0.01813 0.29140 0.56880
 C541 C -0.01856 0.27300 0.54753
 C542 C 0.00195 0.27322 0.52872
 C543 C 0.02279 0.29214 0.53133
 C544 C 0.02322 0.31051 0.55259
 C545 C 0.00270 0.32986 0.59262
 C546 C 0.00266 0.34667 0.61012
 C547 C 0.00263 0.36717 0.63059
 C548 C -0.00482 0.36066 0.65663
 C549 C -0.00508 0.38077 0.67636
 C550 C 0.00216 0.40766 0.67027
 C551 C 0.00965 0.41395 0.64402
 C552 C 0.00988 0.39384 0.62435
 H553 H -0.03421 0.29116 0.58306
 H554 H -0.03513 0.25901 0.54567
 H555 H 0.03860 0.29282 0.51680
 H556 H 0.03937 0.32511 0.55425
 H557 H -0.01044 0.34006 0.66168
 H558 H -0.01066 0.37523 0.69643
 H559 H 0.01491 0.43452 0.63857
 H560 H 0.01557 0.39913 0.60423
 C561 C 0.50054 0.07279 0.80566
 C562 C 0.47977 0.07012 0.78707
 C563 C 0.47944 0.04843 0.76905
 C564 C 0.49997 0.02932 0.76943
 C565 C 0.52072 0.03208 0.78808
 C566 C 0.52105 0.05376 0.80606
 C567 C 0.50041 0.09445 0.82493
 C568 C 0.50035 0.11223 0.84146
 C569 C 0.50029 0.13301 0.86165
 C570 C 0.47643 0.14038 0.87378
 C571 C 0.47647 0.15971 0.89421
 C572 C 0.50044 0.17192 0.90281
 C573 C 0.52430 0.16460 0.89027
 C574 C 0.52420 0.14526 0.86983
 H575 H 0.46369 0.08461 0.78673
 H576 H 0.46295 0.04645 0.75522
 H577 H 0.53654 0.01731 0.78887
 H578 H 0.53712 0.05551 0.82047
 H579 H 0.45783 0.13090 0.86770
 H580 H 0.45784 0.16462 0.90370
 H581 H 0.54301 0.17386 0.89622
 H582 H 0.54279 0.13970 0.86057
 C583 C 1.00090 0.69182 0.42971
 C584 C 0.99982 0.71994 0.42602
 C585 C 0.99860 0.73728 0.44812
 C586 C 0.99818 0.72660 0.47400
 C587 C 0.99971 0.69845 0.47754
 C588 C 1.00095 0.68117 0.45552
 C589 C 1.00197 0.67361 0.40730
 C590 C 1.00283 0.65740 0.38931
 C591 C 1.00385 0.63701 0.36878
 C592 C 0.99691 0.64317 0.34244
 C593 C 0.99731 0.62292 0.32283
 C594 C 1.00470 0.59627 0.32938
 C595 C 1.01173 0.59038 0.35591
 C596 C 1.01130 0.61061 0.37543
 H597 H 0.99993 0.72842 0.40613
 H598 H 0.99787 0.75899 0.44503
 H599 H 1.00012 0.68964 0.49722
 H600 H 1.00199 0.65947 0.45862
 H601 H 0.99109 0.66356 0.33708
 H602 H 0.99205 0.62814 0.30254
 H603 H 1.01706 0.56999 0.36172
 H604 H 1.01655 0.60558 0.39579
 C605 C 1.19195 0.50066 0.07364
 C606 C 1.20998 0.47932 0.07107
 C607 C 1.22768 0.47883 0.04970
 C608 C 1.22755 0.49976 0.03083
 C609 C 1.20949 0.52110 0.03351
 C610 C 1.19182 0.52160 0.05487
 C611 C 1.17299 0.50067 0.09498
 C612 C 1.15672 0.50070 0.11252
 C613 C 1.13689 0.50077 0.13305
 C614 C 1.12887 0.47642 0.14489
 C615 C 1.10883 0.47636 0.16407
 C616 C 1.09652 0.50071 0.17164
 C617 C 1.10495 0.52513 0.15982
 C618 C 1.12498 0.52513 0.14064
 H619 H 1.21011 0.46291 0.08537
 H620 H 1.24104 0.46187 0.04778
 H621 H 1.20889 0.53723 0.01893
 H622 H 1.17785 0.53812 0.05656
 H623 H 1.13797 0.45745 0.13916
 H624 H 1.10301 0.45730 0.17303
 H625 H 1.09562 0.54414 0.16493
 H626 H 1.13093 0.54408 0.13149
 C627 C 0.57139 -0.00133 0.68907
 C628 C 0.56874 0.01995 0.70737
 C629 C 0.54745 0.02007 0.72516
 C630 C 0.52874 -0.00119 0.72486
 C631 C 0.53147 -0.02245 0.70648
 C632 C 0.55276 -0.02257 0.68872
 C633 C 0.59275 -0.00101 0.67013
 C634 C 0.61036 -0.00076 0.65395
 C635 C 0.63103 -0.00055 0.63426
 C636 C 0.64341 0.02387 0.62713
 C637 C 0.66282 0.02418 0.60731
 C638 C 0.67011 0.00003 0.59436
 C639 C 0.65772 -0.02445 0.60187
 C640 C 0.63830 -0.02470 0.62167
 H641 H 0.58293 0.03660 0.70767
 H642 H 0.54549 0.03697 0.73874
 H643 H 0.51701 -0.03884 0.70575
 H644 H 0.55452 -0.03906 0.67454
 H645 H 0.63792 0.04269 0.63676
 H646 H 0.67221 0.04328 0.60220
 H647 H 0.66258 -0.04331 0.59202
 H648 H 0.62875 -0.04369 0.62693
 C649 C -0.19022 0.49802 0.92822
 C650 C -0.18994 0.47743 0.94736
 C651 C -0.20753 0.47827 0.96877
 C652 C -0.22565 0.49960 0.97115
 C653 C -0.22587 0.52022 0.95195
 C654 C -0.20825 0.51938 0.93053
 C655 C -0.17140 0.49769 0.90675
 C656 C -0.15530 0.49757 0.88906
 C657 C -0.13568 0.49767 0.86833
 C658 C -0.12849 0.47342 0.85584
 C659 C -0.10867 0.47344 0.83641
 C660 C -0.09579 0.49776 0.82923
 C661 C -0.10339 0.52206 0.84172
 C662 C -0.12318 0.52199 0.86113
 H663 H -0.17595 0.46091 0.94588
 H664 H -0.20688 0.46237 0.98361
 H665 H -0.23927 0.53716 0.95362
 H666 H -0.20848 0.53554 0.91595
 H667 H -0.13804 0.45448 0.86126
 H668 H -0.10348 0.45446 0.82696
 H669 H -0.09359 0.54105 0.83696
 H670 H -0.12850 0.54085 0.87078
 C671 C 0.42667 0.00191 0.30876
 C672 C 0.42911 -0.01945 0.29050
 C673 C 0.45046 -0.01990 0.27279
 C674 C 0.46944 0.00110 0.27313
 C675 C 0.46693 0.02244 0.29145
 C676 C 0.44559 0.02289 0.30914
 C677 C 0.40529 0.00189 0.32767
 C678 C 0.38769 0.00181 0.34385
 C679 C 0.36704 0.00159 0.36357
 C680 C 0.35951 -0.02281 0.37562
 C681 C 0.34016 -0.02298 0.39548
 C682 C 0.32807 0.00131 0.40359
 C683 C 0.33560 0.02571 0.39116
 C684 C 0.35496 0.02582 0.37128
 H685 H 0.41471 -0.03590 0.29019
 H686 H 0.45224 -0.03684 0.25922
 H687 H 0.48159 0.03863 0.29221
 H688 H 0.44401 0.03942 0.32329
 H689 H 0.36884 -0.04167 0.36990
 H690 H 0.33510 -0.04203 0.40492
 H691 H 0.32645 0.04468 0.39673
 H692 H 0.36064 0.04483 0.36207
 C693 C 0.18959 0.49780 0.92983
 C694 C 0.20836 0.51883 0.93207
 C695 C 0.22676 0.51902 0.95310
 C696 C 0.22659 0.49809 0.97196
 C697 C 0.20779 0.47705 0.96961
 C698 C 0.18941 0.47686 0.94860
 C699 C 0.16987 0.49821 0.90894
 C700 C 0.15295 0.49864 0.89182
 C701 C 0.13230 0.49925 0.87184
 C702 C 0.13802 0.49319 0.84523
 C703 C 0.11779 0.49366 0.82596
 C704 C 0.09159 0.50025 0.83308
 C705 C 0.08610 0.50631 0.85989
 C706 C 0.10632 0.50581 0.87911
 H707 H 0.20852 0.53527 0.91779
 H708 H 0.24070 0.53576 0.95476
 H709 H 0.20716 0.46092 0.98420
 H710 H 0.17486 0.46059 0.94718
 H711 H 0.15808 0.48813 0.83939
 H712 H 0.12270 0.48919 0.80544
 H713 H 0.06607 0.51104 0.86609
 H714 H 0.10166 0.51042 0.89967
 C715 C 0.57099 -0.00055 0.30995
 C716 C 0.55193 -0.02138 0.31032
 C717 C 0.53060 -0.02111 0.29233
 C718 C 0.52824 -0.00010 0.27371
 C719 C 0.54734 0.02079 0.27343
 C720 C 0.56868 0.02052 0.29145
 C721 C 0.59246 -0.00048 0.32906
 C722 C 0.61015 -0.00049 0.34540
 C723 C 0.63088 -0.00056 0.36530
 C724 C 0.64248 -0.02502 0.37309
 C725 C 0.66187 -0.02524 0.39320
 C726 C 0.66990 -0.00095 0.40579
 C727 C 0.65834 0.02357 0.39757
 C728 C 0.63895 0.02373 0.37748
 H729 H 0.55342 -0.03770 0.32465
 H730 H 0.51585 -0.03722 0.29303
 H731 H 0.54568 0.03748 0.25962
 H732 H 0.58321 0.03685 0.29114
 H733 H 0.63639 -0.04394 0.36378
 H734 H 0.67062 -0.04439 0.39884
 H735 H 0.66381 0.04254 0.40712
 H736 H 0.63000 0.04276 0.37169
 C737 C 0.81132 0.50278 0.07276
 C738 C 0.79258 0.48172 0.07055
 C739 C 0.77450 0.48121 0.04924
 C740 C 0.77495 0.50185 0.03007
 C741 C 0.79377 0.52288 0.03236
 C742 C 0.81183 0.52340 0.05365
 C743 C 0.83056 0.50283 0.09412
 C744 C 0.84700 0.50281 0.11173
 C745 C 0.86699 0.50270 0.13238
 C746 C 0.87895 0.47833 0.13986
 C747 C 0.89909 0.47829 0.15921
 C748 C 0.90757 0.50267 0.17132
 C749 C 0.89521 0.52704 0.16385
 C750 C 0.87507 0.52703 0.14450
 H751 H 0.79216 0.46555 0.08510
 H752 H 0.76054 0.46449 0.04765
 H753 H 0.79461 0.53879 0.01755
 H754 H 0.82635 0.53970 0.05506
 H755 H 0.87295 0.45940 0.13051
 H756 H 0.90845 0.45926 0.16423
 H757 H 0.90107 0.54608 0.17303
 H758 H 0.86593 0.54601 0.13887
 C759 C 0.42716 -0.00043 0.68811
 C760 C 0.42968 -0.02151 0.70658
 C761 C 0.45102 -0.02158 0.72462
 C762 C 0.46989 -0.00047 0.72440
 C763 C 0.46730 0.02056 0.70584
 C764 C 0.44598 0.02063 0.68783
 C765 C 0.40572 -0.00075 0.66896
 C766 C 0.38805 -0.00095 0.65260
 C767 C 0.36733 -0.00109 0.63267
 C768 C 0.35540 -0.02557 0.62471
 C769 C 0.33598 -0.02580 0.60462
 C770 C 0.32825 -0.00152 0.59222
 C771 C 0.34016 0.02301 0.60060
 C772 C 0.35958 0.02319 0.62067
 H773 H 0.41535 -0.03802 0.70683
 H774 H 0.45286 -0.03830 0.73836
 H775 H 0.48188 0.03682 0.70518
 H776 H 0.44432 0.03695 0.67353
 H777 H 0.36125 -0.04448 0.63388
 H778 H 0.32696 -0.04496 0.59884
 H779 H 0.33493 0.04199 0.59120
 H780 H 0.36878 0.04224 0.62659
   
