data_POSCAR
  _audit_creation_date              2014-09-24
  _audit_creation_method            'ToBaCCo'
  _symmetry_space_group_name_H-M    'P1'
  _symmetry_Int_Tables_number       1
  _symmetry_cell_setting            triclinic
  loop_
  _symmetry_equiv_pos_as_xyz
 x,y,z
_cell_length_a 45.3214
_cell_length_b 47.5948
_cell_length_c 45.2549
_cell_angle_alpha 89.997800
_cell_angle_beta 90.058400
_cell_angle_gamma 89.987100
loop_
  _atom_site_label
  _atom_site_type_symbol
  _atom_site_fract_x
  _atom_site_fract_y
  _atom_site_fract_z
C1 C 0.24996 0.25005 0.25008
 C2 C 0.75000 0.75005 0.24986
 C3 C 0.74998 0.25005 0.75006
 C4 C 0.25001 0.75005 0.74989
 C5 C 0.04151 0.04208 0.01045
 H6 H 0.04213 0.04325 -0.01342
 C7 C 0.05881 0.06030 0.02735
 H8 H 0.07291 0.07551 0.01651
 C9 C 0.02212 0.02109 0.05383
 H10 H 0.00748 0.00611 0.06409
 C11 C 0.03905 0.03893 0.07155
 H12 H 0.03762 0.03742 0.09539
 N13 N 0.02391 0.02274 0.02385
 C14 C 0.01186 -0.04370 -0.04154
 H15 H -0.01197 -0.04485 -0.04217
 C16 C 0.02871 -0.06188 -0.05892
 H17 H 0.01786 -0.07704 -0.07310
 C18 C 0.05521 -0.02278 -0.02204
 H19 H 0.06549 -0.00784 -0.00733
 C20 C 0.07287 -0.04057 -0.03905
 H21 H 0.09668 -0.03907 -0.03761
 Zn22 Zn 0.00081 -0.00083 -0.00071
 N23 N 0.02527 -0.02441 -0.02385
 C24 C -0.02059 0.02121 -0.05519
 N25 N -0.02228 0.02282 -0.02520
 C26 C -0.03983 0.04216 -0.01172
 C27 C -0.05719 0.06040 -0.02854
 C28 C -0.03759 0.03907 -0.07283
 C29 C -0.01032 -0.04376 0.04004
 C30 C -0.02720 -0.06190 0.05741
 C31 C -0.07132 -0.04049 0.03755
 C32 C -0.05363 -0.02272 0.02055
 N33 N -0.02369 -0.02442 0.02237
 H34 H -0.00599 0.00623 -0.06552
 H35 H -0.04037 0.04330 0.01215
 H36 H -0.07127 0.07559 -0.01763
 H37 H -0.03625 0.03758 -0.09668
 H38 H 0.01351 -0.04496 0.04068
 H39 H -0.01638 -0.07709 0.07159
 H40 H -0.09513 -0.03892 0.03612
 H41 H -0.06388 -0.00774 0.00586
 C42 C 0.05948 -0.06021 -0.05772
 C43 C 0.05762 0.05863 0.05817
 C44 C -0.05797 -0.06016 0.05621
 C45 C -0.05612 0.05876 -0.05936
 C46 C 0.04135 0.54340 0.51185
 H47 H 0.04194 0.54455 0.48798
 C48 C 0.05871 0.56161 0.52871
 H49 H 0.07282 0.57678 0.51784
 C50 C 0.02199 0.52248 0.55528
 H51 H 0.00734 0.50752 0.56557
 C52 C 0.03897 0.54030 0.57296
 H53 H 0.03758 0.53881 0.59680
 N54 N 0.02374 0.52410 0.52529
 C55 C 0.01166 0.45753 0.46008
 H56 H -0.01217 0.45637 0.45947
 C57 C 0.02848 0.43932 0.44272
 H58 H 0.01762 0.42413 0.42858
 C59 C 0.05503 0.47849 0.47947
 H60 H 0.06533 0.49347 0.49413
 C61 C 0.07268 0.46066 0.46248
 H62 H 0.09649 0.46218 0.46389
 Zn63 Zn 0.00063 0.50050 0.50077
 N64 N 0.02509 0.47686 0.47770
 C65 C -0.02067 0.52241 0.44622
 N66 N -0.02243 0.52410 0.47620
 C67 C -0.04003 0.54345 0.48958
 C68 C -0.05739 0.56162 0.47267
 C69 C -0.03766 0.54019 0.42849
 C70 C -0.01053 0.45762 0.54156
 C71 C -0.02742 0.43944 0.55888
 C72 C -0.07153 0.46081 0.53895
 C73 C -0.05382 0.47861 0.52200
 N74 N -0.02389 0.47695 0.52387
 H75 H -0.00603 0.50741 0.43596
 H76 H -0.04063 0.54465 0.51345
 H77 H -0.07151 0.57683 0.48350
 H78 H -0.03627 0.53863 0.40465
 H79 H 0.01330 0.45644 0.54224
 H80 H -0.01662 0.42424 0.57306
 H81 H -0.09534 0.46234 0.53745
 H82 H -0.06406 0.49358 0.50729
 C83 C 0.05926 0.44099 0.44387
 C84 C 0.05756 0.55996 0.55954
 C85 C -0.05820 0.44113 0.55761
 C86 C -0.05625 0.55989 0.44185
 C87 C 0.53996 0.04217 0.51180
 H88 H 0.54050 0.04332 0.48793
 C89 C 0.55730 0.06041 0.52863
 H90 H 0.57135 0.07562 0.51774
 C91 C 0.52074 0.02117 0.55525
 H92 H 0.50616 0.00617 0.56557
 C93 C 0.53772 0.03903 0.57291
 H94 H 0.53638 0.03753 0.59676
 N95 N 0.52243 0.02281 0.52527
 C96 C 0.51057 -0.04372 0.45997
 H97 H 0.48674 -0.04494 0.45933
 C98 C 0.52748 -0.06182 0.44256
 H99 H 0.51669 -0.07700 0.42836
 C100 C 0.55385 -0.02266 0.47947
 H101 H 0.56408 -0.00769 0.49418
 C102 C 0.57157 -0.04038 0.46243
 H103 H 0.59538 -0.03878 0.46386
 Zn104 Zn 0.49938 -0.00083 0.50075
 N105 N 0.52391 -0.02439 0.47766
 C106 C 0.47808 0.02112 0.44622
 N107 N 0.47627 0.02274 0.47620
 C108 C 0.45864 0.04206 0.48961
 C109 C 0.44133 0.06028 0.47272
 C110 C 0.46113 0.03897 0.42851
 C111 C 0.48833 -0.04374 0.54155
 C112 C 0.47149 -0.06193 0.55891
 C113 C 0.42732 -0.04065 0.53899
 C114 C 0.44498 -0.02283 0.52201
 N115 N 0.47493 -0.02444 0.52385
 H116 H 0.49274 0.00616 0.43595
 H117 H 0.45801 0.04321 0.51347
 H118 H 0.42720 0.07547 0.48356
 H119 H 0.46258 0.03748 0.40466
 H120 H 0.51217 -0.04488 0.54222
 H121 H 0.48233 -0.07709 0.57309
 H122 H 0.40351 -0.03916 0.53752
 H123 H 0.43471 -0.00789 0.50729
 C124 C 0.55825 -0.06004 0.44374
 C125 C 0.55623 0.05874 0.55946
 C126 C 0.44071 -0.06029 0.55767
 C127 C 0.44253 0.05864 0.44189
 C128 C 0.53989 0.54338 0.01039
 H129 H 0.54047 0.54453 -0.01348
 C130 C 0.55728 0.56155 0.02725
 H131 H 0.57141 0.57671 0.01638
 C132 C 0.52054 0.52243 0.05381
 H133 H 0.50590 0.50747 0.06411
 C134 C 0.53756 0.54022 0.07149
 H135 H 0.53619 0.53871 0.09534
 N136 N 0.52228 0.52407 0.02383
 C137 C 0.51026 0.45752 -0.04142
 H138 H 0.48643 0.45637 -0.04208
 C139 C 0.52712 0.43928 -0.05872
 H140 H 0.51629 0.42408 -0.07286
 C141 C 0.55360 0.47847 -0.02193
 H142 H 0.56386 0.49345 -0.00724
 C143 C 0.57127 0.46062 -0.03885
 H144 H 0.59508 0.46211 -0.03738
 Zn145 Zn 0.49917 0.50046 -0.00068
 N146 N 0.52366 0.47685 -0.02377
 C147 C 0.47780 0.52239 -0.05520
 N148 N 0.47606 0.52404 -0.02522
 C149 C 0.45846 0.54337 -0.01180
 C150 C 0.44110 0.56157 -0.02867
 C151 C 0.46081 0.54020 -0.07290
 C152 C 0.48818 0.45755 0.04009
 C153 C 0.47137 0.43936 0.05749
 C154 C 0.42716 0.46070 0.03772
 C155 C 0.44479 0.47851 0.02070
 N156 N 0.47473 0.47687 0.02245
 H157 H 0.49244 0.50741 -0.06549
 H158 H 0.45787 0.54454 0.01207
 H159 H 0.42699 0.57677 -0.01782
 H160 H 0.46220 0.53868 -0.09674
 H161 H 0.51201 0.45639 0.04069
 H162 H 0.48224 0.42419 0.07163
 H163 H 0.40335 0.46222 0.03633
 H164 H 0.43448 0.49347 0.00603
 C165 C 0.55790 0.44093 -0.05748
 C166 C 0.55617 0.55987 0.05807
 C167 C 0.44059 0.44104 0.05635
 C168 C 0.44223 0.55989 -0.05950
 C169 C 0.23247 -0.23306 -0.23229
 C170 C 0.21728 -0.21828 -0.21685
 C171 C 0.19928 -0.20053 -0.19852
 C172 C 0.20720 -0.17244 -0.19401
 C173 C 0.18973 -0.15512 -0.17624
 C174 C 0.16406 -0.16568 -0.16275
 C175 C 0.15629 -0.19396 -0.16745
 C176 C 0.17381 -0.21126 -0.18521
 C177 C 0.14546 -0.14726 -0.14392
 C178 C 0.11448 -0.14869 -0.14549
 C179 C 0.09702 -0.13119 -0.12790
 C180 C 0.11025 -0.11206 -0.10850
 C181 C 0.14103 -0.11053 -0.10671
 C182 C 0.15854 -0.12799 -0.12429
 C183 C 0.09228 -0.09390 -0.09056
 C184 C 0.07729 -0.07860 -0.07557
 H185 H 0.22682 -0.16390 -0.20429
 H186 H 0.19608 -0.13336 -0.17338
 H187 H 0.13687 -0.20281 -0.15708
 H188 H 0.16752 -0.23299 -0.18851
 H189 H 0.10376 -0.16304 -0.16065
 H190 H 0.07320 -0.13249 -0.12953
 H191 H 0.15151 -0.09585 -0.09171
 H192 H 0.18231 -0.12665 -0.12228
 C193 C 0.23145 0.26785 0.26889
 C194 C 0.21632 0.28264 0.28432
 C195 C 0.19839 0.30044 0.30268
 C196 C 0.17454 0.28916 0.31830
 C197 C 0.15712 0.30649 0.33613
 C198 C 0.16338 0.33536 0.33858
 C199 C 0.18743 0.34648 0.32279
 C200 C 0.20479 0.32912 0.30496
 C201 C 0.14491 0.35382 0.35749
 C202 C 0.15798 0.37485 0.37501
 C203 C 0.14057 0.39233 0.39265
 C204 C 0.10989 0.38907 0.39303
 C205 C 0.09667 0.36818 0.37574
 C206 C 0.11404 0.35065 0.35810
 C207 C 0.09199 0.40725 0.41101
 C208 C 0.07704 0.42258 0.42602
 H209 H 0.16945 0.26697 0.31675
 H210 H 0.13900 0.29724 0.34829
 H211 H 0.19257 0.36867 0.32390
 H212 H 0.22316 0.33807 0.29289
 H213 H 0.18170 0.37756 0.37533
 H214 H 0.15103 0.40839 0.40601
 H215 H 0.07292 0.36553 0.37580
 H216 H 0.10329 0.33491 0.34458
 C217 C 0.73148 -0.23213 0.26863
 C218 C 0.71629 -0.21736 0.28403
 C219 C 0.69824 -0.19962 0.30234
 C220 C 0.67949 -0.21150 0.32347
 C221 C 0.66196 -0.19424 0.34127
 C222 C 0.66301 -0.16484 0.33817
 C223 C 0.68194 -0.15311 0.31685
 C224 C 0.69942 -0.17041 0.29906
 C225 C 0.64445 -0.14646 0.35708
 C226 C 0.65588 -0.12127 0.36867
 C227 C 0.63836 -0.10392 0.38636
 C228 C 0.60921 -0.11147 0.39269
 C229 C 0.59764 -0.13650 0.38132
 C230 C 0.61513 -0.15390 0.36365
 C231 C 0.59118 -0.09348 0.41075
 C232 C 0.57613 -0.07829 0.42582
 H233 H 0.67847 -0.23409 0.32623
 H234 H 0.64790 -0.20388 0.35773
 H235 H 0.68295 -0.13059 0.31365
 H236 H 0.71380 -0.16100 0.28271
 H237 H 0.67848 -0.11515 0.36434
 H238 H 0.64757 -0.08462 0.39511
 H239 H 0.57507 -0.14250 0.38602
 H240 H 0.60558 -0.17297 0.35476
 C241 C 0.73146 0.26781 -0.23110
 C242 C 0.71626 0.28254 -0.21566
 C243 C 0.69820 0.30024 -0.19732
 C244 C 0.70898 0.32617 -0.18754
 C245 C 0.69142 0.34346 -0.16983
 C246 C 0.66279 0.33504 -0.16170
 C247 C 0.65217 0.30891 -0.17164
 C248 C 0.66978 0.29164 -0.18933
 C249 C 0.64408 0.35349 -0.14301
 C250 C 0.61377 0.35654 -0.14902
 C251 C 0.59624 0.37410 -0.13157
 C252 C 0.60873 0.38881 -0.10788
 C253 C 0.63882 0.38586 -0.10166
 C254 C 0.65640 0.36833 -0.11909
 C255 C 0.59073 0.40707 -0.09008
 C256 C 0.57572 0.42246 -0.07520
 H257 H 0.73091 0.33306 -0.19369
 H258 H 0.70008 0.36361 -0.16287
 H259 H 0.63039 0.30169 -0.16545
 H260 H 0.66126 0.27157 -0.19674
 H261 H 0.60372 0.34570 -0.16749
 H262 H 0.57298 0.37631 -0.13663
 H263 H 0.64869 0.39710 -0.08333
 H264 H 0.67956 0.36614 -0.11366
 C265 C -0.23117 0.23227 -0.23143
 C266 C -0.21569 0.21754 -0.21624
 C267 C -0.19726 0.19989 -0.19818
 C268 C -0.20879 0.18723 -0.17279
 C269 C -0.19097 0.16990 -0.15533
 C270 C -0.16135 0.16499 -0.16309
 C271 C -0.14996 0.17787 -0.18864
 C272 C -0.16782 0.19521 -0.20605
 C273 C -0.14247 0.14641 -0.14468
 C274 C -0.12274 0.12741 -0.15800
 C275 C -0.10513 0.10978 -0.14067
 C276 C -0.10696 0.11091 -0.10983
 C277 C -0.12644 0.12978 -0.09636
 C278 C -0.14409 0.14741 -0.11365
 C279 C -0.08897 0.09262 -0.09202
 C280 C -0.07396 0.07722 -0.07713
 H281 H -0.23159 0.19064 -0.16655
 H282 H -0.20049 0.16000 -0.13603
 H283 H -0.12716 0.17480 -0.19498
 H284 H -0.15866 0.20497 -0.22563
 H285 H -0.12126 0.12587 -0.18183
 H286 H -0.09019 0.09519 -0.15133
 H287 H -0.12798 0.13087 -0.07250
 H288 H -0.15877 0.16205 -0.10273
 C289 C -0.23120 0.73229 0.26845
 C290 C -0.21575 0.71762 0.28372
 C291 C -0.19734 0.70005 0.30190
 C292 C -0.20855 0.68841 0.32796
 C293 C -0.19074 0.67120 0.34555
 C294 C -0.16145 0.66539 0.33727
 C295 C -0.15038 0.67724 0.31103
 C296 C -0.16822 0.69446 0.29349
 C297 C -0.14258 0.64694 0.35583
 C298 C -0.12365 0.62712 0.34269
 C299 C -0.10604 0.60963 0.36018
 C300 C -0.10708 0.61172 0.39100
 C301 C -0.12577 0.63140 0.40429
 C302 C -0.14342 0.64890 0.38685
 C303 C -0.08910 0.59355 0.40897
 C304 C -0.07410 0.57825 0.42398
 H305 H -0.23110 0.69254 0.33462
 H306 H -0.20003 0.66210 0.36540
 H307 H -0.12782 0.67347 0.30426
 H308 H -0.15931 0.70343 0.27338
 H309 H -0.12278 0.62483 0.31890
 H310 H -0.09172 0.59439 0.34966
 H311 H -0.12670 0.63324 0.42814
 H312 H -0.15747 0.66419 0.39761
 C313 C 0.26877 0.23226 0.26865
 C314 C 0.28418 0.21754 0.28391
 C315 C 0.30248 0.19988 0.30210
 C316 C 0.29099 0.18783 0.32784
 C317 C 0.30868 0.17050 0.34542
 C318 C 0.33812 0.16497 0.33745
 C319 C 0.34947 0.17724 0.31154
 C320 C 0.33174 0.19458 0.29401
 C321 C 0.35685 0.14637 0.35599
 C322 C 0.37607 0.12682 0.34281
 C323 C 0.39353 0.10918 0.36028
 C324 C 0.39205 0.11084 0.39111
 C325 C 0.37307 0.13025 0.40444
 C326 C 0.35557 0.14790 0.38702
 C327 C 0.40989 0.09253 0.40905
 C328 C 0.42480 0.07712 0.42405
 H329 H 0.26833 0.19173 0.33424
 H330 H 0.29919 0.16108 0.36500
 H331 H 0.37214 0.17368 0.30502
 H332 H 0.34087 0.20387 0.27416
 H333 H 0.37728 0.12488 0.31901
 H334 H 0.40809 0.09416 0.34973
 H335 H 0.37181 0.13175 0.42830
 H336 H 0.34129 0.16297 0.39782
 C337 C 0.26783 0.73319 -0.23251
 C338 C 0.28327 0.71846 -0.21724
 C339 C 0.30162 0.70082 -0.19909
 C340 C 0.33100 0.69588 -0.20700
 C341 C 0.34878 0.67856 -0.18950
 C342 C 0.33738 0.66596 -0.16380
 C343 C 0.30781 0.67113 -0.15600
 C344 C 0.29008 0.68844 -0.17355
 C345 C 0.35617 0.64740 -0.14528
 C346 C 0.35464 0.64866 -0.11425
 C347 C 0.37222 0.63105 -0.09685
 C348 C 0.39153 0.61195 -0.11021
 C349 C 0.39325 0.61056 -0.14105
 C350 C 0.37572 0.62816 -0.15849
 C351 C 0.40945 0.59369 -0.09230
 C352 C 0.42442 0.57832 -0.07733
 H353 H 0.34018 0.70542 -0.22670
 H354 H 0.37154 0.67528 -0.19588
 H355 H 0.29828 0.66145 -0.13658
 H356 H 0.26732 0.69207 -0.16728
 H357 H 0.34011 0.66348 -0.10342
 H358 H 0.37076 0.63235 -0.07300
 H359 H 0.40806 0.59578 -0.15162
 H360 H 0.37712 0.62642 -0.18230
 C361 C -0.23148 -0.23218 0.23105
 C362 C -0.21629 -0.21746 0.21560
 C363 C -0.19823 -0.19980 0.19722
 C364 C -0.20686 -0.17212 0.19138
 C365 C -0.18933 -0.15490 0.17357
 C366 C -0.16289 -0.16516 0.16137
 C367 C -0.15441 -0.19303 0.16739
 C368 C -0.17199 -0.21022 0.18519
 C369 C -0.14422 -0.14684 0.14251
 C370 C -0.11328 -0.14733 0.14521
 C371 C -0.09576 -0.12992 0.12759
 C372 C -0.10888 -0.11183 0.10704
 C373 C -0.13961 -0.11124 0.10412
 C374 C -0.15719 -0.12861 0.12173
 C375 C -0.09085 -0.09375 0.08908
 C376 C -0.07582 -0.07849 0.07407
 H377 H -0.22709 -0.16382 0.20067
 H378 H -0.19626 -0.13344 0.16968
 H379 H -0.13438 -0.20164 0.15802
 H380 H -0.16515 -0.23164 0.18952
 H381 H -0.10267 -0.16085 0.16125
 H382 H -0.07198 -0.13047 0.13009
 H383 H -0.15000 -0.09736 0.08823
 H384 H -0.18090 -0.12802 0.11885
 C385 C -0.23156 0.26789 0.73126
 C386 C -0.21641 0.28269 0.71586
 C387 C -0.19839 0.30048 0.69757
 C388 C -0.20610 0.32867 0.69342
 C389 C -0.18860 0.34603 0.67573
 C390 C -0.16310 0.33539 0.66196
 C391 C -0.15555 0.30700 0.66628
 C392 C -0.17311 0.28967 0.68396
 C393 C -0.14445 0.35386 0.64324
 C394 C -0.11348 0.35215 0.64462
 C395 C -0.09596 0.36970 0.62715
 C396 C -0.10913 0.38916 0.60807
 C397 C -0.13990 0.39097 0.60646
 C398 C -0.15747 0.37346 0.62392
 C399 C -0.09109 0.40736 0.59025
 C400 C -0.07606 0.42271 0.57535
 H401 H -0.22558 0.33727 0.70393
 H402 H -0.19477 0.36787 0.67316
 H403 H -0.13629 0.29811 0.65568
 H404 H -0.16699 0.26785 0.68698
 H405 H -0.10280 0.33754 0.65954
 H406 H -0.07215 0.36819 0.62863
 H407 H -0.15033 0.40591 0.59170
 H408 H -0.18123 0.37503 0.62206
 C409 C 0.26756 -0.23309 0.73206
 C410 C 0.28276 -0.21832 0.71662
 C411 C 0.30078 -0.20059 0.69829
 C412 C 0.29299 -0.17244 0.69394
 C413 C 0.31048 -0.15513 0.67617
 C414 C 0.33603 -0.16578 0.66253
 C415 C 0.34367 -0.19412 0.66705
 C416 C 0.32613 -0.21139 0.68481
 C417 C 0.35465 -0.14737 0.64371
 C418 C 0.38562 -0.14897 0.64515
 C419 C 0.40311 -0.13147 0.62759
 C420 C 0.38990 -0.11218 0.60835
 C421 C 0.35912 -0.11047 0.60668
 C422 C 0.34159 -0.12793 0.62423
 C423 C 0.40790 -0.09401 0.59044
 C424 C 0.42290 -0.07869 0.57548
 H425 H 0.27346 -0.16384 0.70435
 H426 H 0.30423 -0.13333 0.67345
 H427 H 0.36299 -0.20302 0.65656
 H428 H 0.33231 -0.23318 0.68799
 H429 H 0.39633 -0.16344 0.66019
 H430 H 0.42693 -0.13289 0.62912
 H431 H 0.34867 -0.09566 0.59180
 H432 H 0.31783 -0.12646 0.62233
 C433 C 0.26846 0.26786 0.23129
 C434 C 0.28358 0.28267 0.21586
 C435 C 0.30151 0.30048 0.19752
 C436 C 0.32516 0.28914 0.18163
 C437 C 0.34257 0.30648 0.16381
 C438 C 0.33652 0.33542 0.16165
 C439 C 0.31268 0.34659 0.17773
 C440 C 0.29532 0.32922 0.19554
 C441 C 0.35499 0.35388 0.14275
 C442 C 0.34194 0.37514 0.12551
 C443 C 0.35935 0.39263 0.10787
 C444 C 0.39000 0.38914 0.10723
 C445 C 0.40319 0.36803 0.12423
 C446 C 0.38583 0.35049 0.14188
 C447 C 0.40789 0.40732 0.08924
 C448 C 0.42283 0.42264 0.07422
 H449 H 0.33009 0.26690 0.18295
 H450 H 0.36053 0.29719 0.15143
 H451 H 0.30771 0.36882 0.17685
 H452 H 0.27711 0.33822 0.20783
 H453 H 0.31824 0.37803 0.12540
 H454 H 0.34890 0.40886 0.09473
 H455 H 0.42691 0.36520 0.12396
 H456 H 0.39656 0.33457 0.15517
 C457 C 0.23118 0.23226 0.23151
 C458 C 0.21580 0.21753 0.21624
 C459 C 0.19753 0.19987 0.19803
 C460 C 0.20951 0.18653 0.17324
 C461 C 0.19185 0.16920 0.15564
 C462 C 0.16193 0.16496 0.16265
 C463 C 0.15009 0.17851 0.18761
 C464 C 0.16779 0.19585 0.20516
 C465 C 0.14322 0.14637 0.14409
 C466 C 0.12277 0.12797 0.15722
 C467 C 0.10533 0.11032 0.13975
 C468 C 0.10805 0.11083 0.10896
 C469 C 0.12826 0.12910 0.09568
 C470 C 0.14575 0.14675 0.11310
 C471 C 0.09023 0.09251 0.09102
 C472 C 0.07534 0.07710 0.07603
 H473 H 0.23254 0.18943 0.16758
 H474 H 0.20172 0.15878 0.13682
 H475 H 0.12706 0.17596 0.19336
 H476 H 0.15828 0.20614 0.22427
 H477 H 0.12058 0.12690 0.18102
 H478 H 0.08981 0.09619 0.15027
 H479 H 0.13050 0.12971 0.07185
 H480 H 0.16100 0.16093 0.10232
 C481 C 0.23218 0.73320 0.73230
 C482 C 0.21672 0.71848 0.71704
 C483 C 0.19835 0.70086 0.69891
 C484 C 0.21010 0.68779 0.67385
 C485 C 0.19234 0.67050 0.65632
 C486 C 0.16254 0.66602 0.66366
 C487 C 0.15092 0.67931 0.68888
 C488 C 0.16873 0.69661 0.70637
 C489 C 0.14371 0.64747 0.64517
 C490 C 0.12353 0.62885 0.65840
 C491 C 0.10597 0.61126 0.64099
 C492 C 0.10830 0.61204 0.61017
 C493 C 0.12823 0.63052 0.59680
 C494 C 0.14584 0.64813 0.61416
 C495 C 0.09035 0.59377 0.59230
 C496 C 0.07538 0.57839 0.57735
 H497 H 0.23304 0.69087 0.66793
 H498 H 0.20203 0.66028 0.63728
 H499 H 0.12799 0.67658 0.69490
 H500 H 0.15940 0.70669 0.72569
 H501 H 0.12165 0.62759 0.68221
 H502 H 0.09067 0.59696 0.65157
 H503 H 0.13016 0.63135 0.57295
 H504 H 0.16087 0.66248 0.60331
 C505 C 0.73117 0.23226 0.73151
 C506 C 0.71571 0.21754 0.71630
 C507 C 0.69731 0.19989 0.69823
 C508 C 0.70936 0.18569 0.67401
 C509 C 0.69155 0.16837 0.65655
 C510 C 0.66141 0.16500 0.66313
 C511 C 0.64951 0.17941 0.68752
 C512 C 0.66736 0.19674 0.70493
 C513 C 0.64253 0.14642 0.64473
 C514 C 0.62138 0.12882 0.65797
 C515 C 0.60378 0.11119 0.64065
 C516 C 0.60703 0.11092 0.60990
 C517 C 0.62793 0.12840 0.59651
 C518 C 0.64558 0.14603 0.61379
 C519 C 0.58904 0.09261 0.59212
 C520 C 0.57405 0.07720 0.57723
 H521 H 0.73255 0.18791 0.66869
 H522 H 0.70145 0.15727 0.63818
 H523 H 0.62633 0.17754 0.69293
 H524 H 0.65780 0.20770 0.72360
 H525 H 0.61877 0.12836 0.68174
 H526 H 0.58772 0.09767 0.65125
 H527 H 0.63058 0.12841 0.57272
 H528 H 0.66139 0.15959 0.60292
 C529 C 0.73120 0.73226 0.23130
 C530 C 0.71577 0.71756 0.21604
 C531 C 0.69741 0.69997 0.19786
 C532 C 0.71003 0.68363 0.17549
 C533 C 0.69224 0.66642 0.15789
 C534 C 0.66155 0.66532 0.16246
 C535 C 0.64908 0.68188 0.18499
 C536 C 0.66691 0.69908 0.20256
 C537 C 0.64266 0.64691 0.14388
 C538 C 0.61941 0.63149 0.15658
 C539 C 0.60177 0.61401 0.13912
 C540 C 0.60710 0.61172 0.10876
 C541 C 0.63011 0.62702 0.09590
 C542 C 0.64779 0.64450 0.11332
 C543 C 0.58908 0.59355 0.09086
 C544 C 0.57405 0.57824 0.07589
 H545 H 0.73363 0.68410 0.17173
 H546 H 0.70254 0.65366 0.14099
 H547 H 0.62550 0.68177 0.18881
 H548 H 0.65692 0.71171 0.21977
 H549 H 0.61514 0.63261 0.18009
 H550 H 0.58408 0.60218 0.14931
 H551 H 0.63438 0.62545 0.07240
 H552 H 0.66526 0.65637 0.10283
   
