data_POSCAR
  _audit_creation_date              2014-09-24
  _audit_creation_method            'ToBaCCo'
  _symmetry_space_group_name_H-M    'P1'
  _symmetry_Int_Tables_number       1
  _symmetry_cell_setting            triclinic
  loop_
  _symmetry_equiv_pos_as_xyz
 x,y,z
_cell_length_a 62.6358
_cell_length_b 49.3645
_cell_length_c 52.7203
_cell_angle_alpha 87.908200
_cell_angle_beta 92.153200
_cell_angle_gamma 91.733700
loop_
  _atom_site_label
  _atom_site_type_symbol
  _atom_site_fract_x
  _atom_site_fract_y
  _atom_site_fract_z
N1 N 0.59129 0.68250 0.59904
 N2 N 0.57804 0.66548 0.61068
 C3 C 0.55973 0.67802 0.61459
 C4 C 0.56167 0.70438 0.60492
 C5 C 0.58189 0.70657 0.59532
 H6 H 0.54624 0.66878 0.62417
 H7 H 0.58906 0.72425 0.58592
 Cu8 Cu 0.58619 0.62899 0.62082
 Cu9 Cu 0.61902 0.67153 0.58796
 Cu10 Cu 0.63337 0.60588 0.60507
 N11 N 0.59912 0.59854 0.63935
 N12 N 0.61779 0.58976 0.63330
 C13 C 0.62327 0.56900 0.64921
 C14 C 0.60712 0.56463 0.66631
 C15 C 0.59202 0.58368 0.65941
 H16 H 0.63796 0.55818 0.64833
 H17 H 0.57714 0.58676 0.66853
 N18 N 0.65103 0.63055 0.58398
 N19 N 0.64609 0.65589 0.57820
 C20 C 0.66143 0.66732 0.56368
 C21 C 0.67658 0.64819 0.56009
 C22 C 0.66953 0.62514 0.57333
 H23 H 0.66131 0.68778 0.55561
 H24 H 0.67720 0.60581 0.57511
 H25 H 0.61125 0.63126 0.58597
 H26 H 0.62357 0.64241 0.61676
 N27 N 0.91339 0.32144 0.09972
 N28 N 0.92559 0.33728 0.11404
 C29 C 0.94513 0.32669 0.11707
 C30 C 0.94499 0.30272 0.10414
 C31 C 0.92462 0.30004 0.09340
 H32 H 0.95807 0.33529 0.12863
 H33 H 0.91839 0.28359 0.08202
 Cu34 Cu 0.91445 0.36898 0.12922
 Cu35 Cu 0.88384 0.32958 0.09058
 Cu36 Cu 0.86131 0.37840 0.12540
 N37 N 0.90072 0.39252 0.15203
 N38 N 0.87993 0.39560 0.15087
 C39 C 0.87466 0.41230 0.16909
 C40 C 0.89318 0.42008 0.18240
 C41 C 0.90941 0.40722 0.17103
 H42 H 0.85858 0.41840 0.17222
 H43 H 0.92625 0.40824 0.17638
 N44 N 0.84533 0.35887 0.09849
 N45 N 0.85417 0.34088 0.08457
 C46 C 0.83975 0.33242 0.06676
 C47 C 0.82092 0.34563 0.06981
 C48 C 0.82495 0.36208 0.09013
 H49 H 0.84272 0.31773 0.05268
 H50 H 0.81397 0.37590 0.09777
 H51 H 0.88394 0.37034 0.09924
 H52 H 0.88028 0.34483 0.12614
 N53 N 0.40349 0.17867 -0.09811
 N54 N 0.41224 0.16706 -0.11706
 C55 C 0.43115 0.17960 -0.12167
 C56 C 0.43427 0.20026 -0.10476
 C57 C 0.41642 0.19915 -0.09013
 H58 H 0.44150 0.17458 -0.13668
 H59 H 0.41302 0.21234 -0.07493
 Cu60 Cu 0.39769 0.13741 -0.13462
 Cu61 Cu 0.37602 0.16597 -0.08542
 Cu62 Cu 0.34406 0.13689 -0.13259
 N63 N 0.37979 0.11439 -0.15625
 N64 N 0.35882 0.11462 -0.15570
 C65 C 0.35037 0.09803 -0.17335
 C66 C 0.36690 0.08667 -0.18548
 C67 C 0.38541 0.09750 -0.17418
 H68 H 0.33343 0.09457 -0.17715
 H69 H 0.40170 0.09386 -0.17891
 N70 N 0.33266 0.15115 -0.10149
 N71 N 0.34499 0.16100 -0.08297
 C72 C 0.33283 0.16689 -0.06353
 C73 C 0.31177 0.16042 -0.07020
 C74 C 0.31222 0.15065 -0.09438
 H75 H 0.33891 0.17527 -0.04593
 H76 H 0.29873 0.14286 -0.10559
 H77 H 0.36799 0.13087 -0.10606
 H78 H 0.36816 0.16493 -0.12270
 N79 N 0.08704 0.81658 0.40005
 N80 N 0.07386 0.83368 0.38856
 C81 C 0.05467 0.82122 0.38467
 C82 C 0.05596 0.79474 0.39417
 C83 C 0.07673 0.79249 0.40367
 H84 H 0.04102 0.83070 0.37531
 H85 H 0.08366 0.77481 0.41307
 Cu86 Cu 0.08312 0.87023 0.37868
 Cu87 Cu 0.11589 0.82756 0.41155
 Cu88 Cu 0.13197 0.89371 0.39587
 N89 N 0.09656 0.90085 0.36060
 N90 N 0.11583 0.90983 0.36727
 C91 C 0.12149 0.93068 0.35154
 C92 C 0.10485 0.93484 0.33393
 C93 C 0.08925 0.91564 0.34030
 H94 H 0.13664 0.94173 0.35284
 H95 H 0.07390 0.91239 0.33064
 N96 N 0.14973 0.86888 0.41684
 N97 N 0.14413 0.84332 0.42192
 C98 C 0.15981 0.83175 0.43640
 C99 C 0.17587 0.85101 0.44069
 C100 C 0.16900 0.87430 0.42792
 H101 H 0.15934 0.81109 0.44396
 H102 H 0.17734 0.89376 0.42670
 H103 H 0.10976 0.86763 0.41410
 H104 H 0.12021 0.85729 0.38335
 N105 N 0.11208 0.17355 0.09984
 N106 N 0.10134 0.15879 0.11655
 C107 C 0.08296 0.17101 0.12089
 C108 C 0.08231 0.19478 0.10616
 C109 C 0.10103 0.19580 0.09311
 H110 H 0.07133 0.16357 0.13430
 H111 H 0.10623 0.21155 0.07971
 Cu112 Cu 0.11292 0.12588 0.13224
 Cu113 Cu 0.13916 0.16211 0.08762
 Cu114 Cu 0.16595 0.11756 0.12888
 N115 N 0.12822 0.10159 0.15573
 N116 N 0.14905 0.09926 0.15501
 C117 C 0.15558 0.08210 0.17395
 C118 C 0.13794 0.07319 0.18716
 C119 C 0.12078 0.08596 0.17511
 H120 H 0.17195 0.07635 0.17777
 H121 H 0.10423 0.08447 0.18025
 N122 N 0.17988 0.13774 0.10071
 N123 N 0.16940 0.15387 0.08441
 C124 C 0.18268 0.16290 0.06626
 C125 C 0.20247 0.15189 0.07145
 C126 C 0.20019 0.13623 0.09345
 H127 H 0.17821 0.17636 0.05044
 H128 H 0.21227 0.12390 0.10290
 H129 H 0.14166 0.12221 0.10221
 H130 H 0.14633 0.15051 0.12447
 N131 N 0.39616 0.84170 0.59832
 N132 N 0.40958 0.85686 0.61183
 C133 C 0.42805 0.84383 0.61581
 C134 C 0.42603 0.81915 0.60421
 C135 C 0.40559 0.81840 0.59340
 H136 H 0.44171 0.85155 0.62674
 H137 H 0.39824 0.80219 0.58258
 Cu138 Cu 0.40165 0.89173 0.62387
 Cu139 Cu 0.36786 0.85389 0.58725
 Cu140 Cu 0.35102 0.91171 0.61456
 N141 N 0.39020 0.92012 0.64355
 N142 N 0.37036 0.92771 0.63993
 C143 C 0.36640 0.94695 0.65641
 C144 C 0.38479 0.95164 0.67119
 C145 C 0.39959 0.93433 0.66247
 H146 H 0.35122 0.95656 0.65761
 H147 H 0.41585 0.93193 0.66967
 N148 N 0.33384 0.89244 0.58856
 N149 N 0.33994 0.86997 0.57849
 C150 C 0.32487 0.86192 0.56120
 C151 C 0.30864 0.88037 0.56038
 C152 C 0.31486 0.89940 0.57787
 H153 H 0.32596 0.84449 0.54952
 H154 H 0.30626 0.91724 0.58217
 H155 H 0.37307 0.89496 0.59138
 H156 H 0.36512 0.87432 0.62027
 N157 N 0.88723 0.65507 0.40172
 N158 N 0.89925 0.63953 0.38880
 C159 C 0.91784 0.65283 0.38409
 C160 C 0.91737 0.67809 0.39455
 C161 C 0.89770 0.67889 0.40546
 H162 H 0.93054 0.64489 0.37345
 H163 H 0.89162 0.69548 0.41564
 Cu164 Cu 0.88937 0.60382 0.37838
 Cu165 Cu 0.85944 0.64264 0.41383
 Cu166 Cu 0.83896 0.58275 0.38977
 N167 N 0.87556 0.57410 0.36023
 N168 N 0.85583 0.56605 0.36476
 C169 C 0.84988 0.54615 0.34901
 C170 C 0.86673 0.54146 0.33381
 C171 C 0.88286 0.55954 0.34140
 H172 H 0.83425 0.53620 0.34823
 H173 H 0.89846 0.56246 0.33345
 N174 N 0.82433 0.60289 0.41513
 N175 N 0.83175 0.62620 0.42387
 C176 C 0.81814 0.63484 0.44088
 C177 C 0.80149 0.61589 0.44290
 C178 C 0.80595 0.59597 0.42641
 H179 H 0.82051 0.65305 0.45154
 H180 H 0.79654 0.57762 0.42312
 H181 H 0.86328 0.60152 0.41157
 H182 H 0.85360 0.62031 0.38197
 N183 N 0.60967 0.32790 -0.09914
 N184 N 0.59904 0.34268 -0.11627
 C185 C 0.57956 0.33109 -0.12054
 C186 C 0.57807 0.30771 -0.10533
 C187 C 0.59744 0.30626 -0.09205
 H188 H 0.56773 0.33859 -0.13430
 H189 H 0.60232 0.29059 -0.07836
 Cu190 Cu 0.61216 0.37457 -0.13270
 Cu191 Cu 0.63833 0.33838 -0.08708
 Cu192 Cu 0.66600 0.37976 -0.12973
 N193 N 0.62786 0.39742 -0.15670
 N194 N 0.64887 0.39842 -0.15617
 C195 C 0.65554 0.41481 -0.17541
 C196 C 0.63779 0.42464 -0.18863
 C197 C 0.62042 0.41318 -0.17627
 H198 H 0.67208 0.41951 -0.17939
 H199 H 0.60369 0.41569 -0.18129
 N200 N 0.68012 0.35954 -0.10113
 N201 N 0.66940 0.34481 -0.08422
 C202 C 0.68308 0.33568 -0.06579
 C203 C 0.70342 0.34512 -0.07144
 C204 C 0.70101 0.35998 -0.09399
 H205 H 0.67855 0.32323 -0.04947
 H206 H 0.71348 0.37117 -0.10386
 H207 H 0.64322 0.37757 -0.10295
 H208 H 0.64396 0.34826 -0.12425
 C209 C -0.03882 0.28411 0.10275
 C210 C -0.01801 0.28897 0.11220
 C211 C -0.00167 0.26827 0.11170
 N212 N 0.01937 0.27566 0.11316
 N213 N 0.03431 0.25702 0.11301
 C214 C 0.02873 0.23029 0.11171
 N215 N 0.00770 0.22288 0.11054
 N216 N -0.00724 0.24154 0.11039
 C217 C 0.04502 0.20947 0.11214
 C218 C 0.06591 0.21549 0.10523
 H219 H -0.01327 0.30860 0.11938
 H220 H 0.04023 0.18873 0.11703
 H221 H -0.04263 0.26523 0.09350
 H222 H 0.07019 0.23567 0.09799
 C223 C 0.54595 0.72595 0.60484
 C224 C 0.52442 0.72042 0.60922
 C225 C 0.50865 0.74190 0.60911
 N226 N 0.48746 0.73527 0.60834
 N227 N 0.47298 0.75449 0.60834
 C228 C 0.47917 0.78105 0.60931
 N229 N 0.50036 0.78767 0.61029
 N230 N 0.51485 0.76846 0.61011
 C231 C 0.46340 0.80250 0.60969
 C232 C 0.44179 0.79770 0.60364
 H233 H 0.51874 0.69963 0.61199
 H234 H 0.46911 0.82276 0.61412
 H235 H 0.55137 0.74655 0.60035
 H236 H 0.43632 0.77789 0.59751
 C237 C 1.04010 0.77426 0.39459
 C238 C 1.01885 0.77868 0.38700
 C239 C 1.00237 0.75684 0.38768
 N240 N 0.98139 0.76303 0.38630
 N241 N 0.96626 0.74348 0.38688
 C242 C 0.97157 0.71698 0.38865
 N243 N 0.99254 0.71078 0.38978
 N244 N 1.00768 0.73034 0.38942
 C245 C 0.95506 0.69516 0.38903
 C246 C 0.93386 0.69995 0.39410
 H247 H 1.01382 0.79886 0.38135
 H248 H 0.95993 0.67466 0.38620
 H249 H 1.04449 0.75429 0.40183
 H250 H 0.92932 0.72009 0.39888
 C251 C 0.45200 0.22038 -0.10330
 C252 C 0.47197 0.21546 -0.11260
 C253 C 0.48949 0.23591 -0.11187
 N254 N 0.51001 0.22821 -0.11315
 N255 N 0.52602 0.24660 -0.11280
 C256 C 0.52205 0.27340 -0.11145
 N257 N 0.50151 0.28113 -0.11046
 N258 N 0.48551 0.26271 -0.11052
 C259 C 0.53953 0.29392 -0.11168
 C260 C 0.56040 0.28748 -0.10437
 H261 H 0.47512 0.19574 -0.11976
 H262 H 0.53574 0.31471 -0.11680
 H263 H 0.44948 0.23910 -0.09388
 H264 H 0.56381 0.26728 -0.09687
 C265 C 0.10371 -0.04526 0.31245
 C266 C 0.12142 -0.02948 0.30514
 C267 C 0.12067 -0.01033 0.28312
 N268 N 0.13898 0.00210 0.27522
 N269 N 0.13868 0.01933 0.25518
 C270 C 0.12003 0.02485 0.24233
 N271 N 0.10169 0.01255 0.25031
 N272 N 0.10199 -0.00477 0.27031
 C273 C 0.11949 0.04378 0.22011
 C274 C 0.13814 0.05439 0.20947
 H275 H 0.13661 -0.03173 0.31536
 H276 H 0.10407 0.04896 0.21167
 H277 H 0.08872 -0.04369 0.30166
 H278 H 0.15354 0.04835 0.21742
 C279 C 0.60595 0.54574 -0.31338
 C280 C 0.62243 0.52815 -0.30665
 C281 C 0.62142 0.50901 -0.28465
 N282 N 0.63896 0.49493 -0.27716
 N283 N 0.63848 0.47774 -0.25711
 C284 C 0.62040 0.47390 -0.24385
 N285 N 0.60279 0.48784 -0.25144
 N286 N 0.60330 0.50513 -0.27145
 C287 C 0.61970 0.45510 -0.22156
 C288 C 0.63806 0.44314 -0.21114
 H289 H 0.63692 0.52881 -0.31722
 H290 H 0.60449 0.45121 -0.21284
 H291 H 0.59179 0.54528 -0.30217
 H292 H 0.65337 0.44795 -0.21934
 C293 C 0.36455 1.06778 0.79357
 C294 C 0.38194 1.05604 0.78293
 C295 C 0.37920 1.03750 0.76173
 N296 N 0.39639 1.02527 0.75282
 N297 N 0.39409 1.00850 0.73359
 C298 C 0.37451 1.00341 0.72253
 N299 N 0.35735 1.01569 0.73140
 N300 N 0.35964 1.03241 0.75065
 C301 C 0.37153 0.98501 0.70129
 C302 C 0.38815 0.97038 0.69219
 H303 H 0.39798 1.06034 0.79034
 H304 H 0.35558 0.98270 0.69290
 H305 H 0.34851 1.06293 0.78643
 H306 H 0.40402 0.97225 0.70096
 C307 C 0.89554 0.43813 0.20404
 C308 C 0.87790 0.44731 0.21622
 C309 C 0.87984 0.46537 0.23780
 N310 N 0.86206 0.47151 0.25006
 N311 N 0.86335 0.48796 0.26955
 C312 C 0.88247 0.49897 0.27749
 N313 N 0.90027 0.49290 0.26517
 N314 N 0.89899 0.47636 0.24570
 C315 C 0.88394 0.51747 0.29882
 C316 C 0.86625 0.52225 0.31310
 H317 H 0.86196 0.44076 0.21006
 H318 H 0.89919 0.52742 0.30329
 H319 H 0.91153 0.44388 0.21077
 H320 H 0.85124 0.51157 0.30896
 C321 C 0.29272 0.16233 -0.05493
 C322 C 0.29420 0.16552 -0.02876
 C323 C 0.27519 0.16576 -0.01325
 N324 N 0.27732 0.16278 0.01239
 N325 N 0.26021 0.16239 0.02669
 C326 C 0.24035 0.16516 0.01585
 N327 N 0.23824 0.16848 -0.00977
 N328 N 0.25533 0.16868 -0.02408
 C329 C 0.22126 0.16427 0.03130
 C330 C 0.22184 0.15476 0.05653
 H331 H 0.30973 0.16640 -0.01907
 H332 H 0.20618 0.16975 0.02210
 H333 H 0.27718 0.15970 -0.06437
 H334 H 0.23668 0.14762 0.06519
 C335 C 0.69558 0.65167 0.54448
 C336 C 0.70709 0.62954 0.53756
 C337 C 0.72546 0.63208 0.52100
 N338 N 0.73350 0.60941 0.51174
 N339 N 0.75003 0.61108 0.49656
 C340 C 0.75924 0.63551 0.49015
 N341 N 0.75132 0.65823 0.49959
 N342 N 0.73467 0.65656 0.51469
 C343 C 0.77750 0.63740 0.47331
 C344 C 0.78327 0.61523 0.45971
 H345 H 0.70197 0.60926 0.54357
 H346 H 0.78615 0.65662 0.47112
 H347 H 0.69997 0.67187 0.53741
 H348 H 0.77376 0.59656 0.46094
 C349 C 0.80079 0.34356 0.05465
 C350 C 0.79990 0.33383 0.03015
 C351 C 0.77997 0.33346 0.01453
 N352 N 0.78066 0.33177 -0.01106
 N353 N 0.76274 0.33212 -0.02549
 C354 C 0.74345 0.33391 -0.01482
 N355 N 0.74274 0.33518 0.01079
 N356 N 0.76067 0.33509 0.02520
 C357 C 0.72355 0.33487 -0.03046
 C358 C 0.72345 0.34173 -0.05633
 H359 H 0.81442 0.32796 0.02157
 H360 H 0.70857 0.33203 -0.02098
 H361 H 0.78659 0.35152 0.06241
 H362 H 0.73837 0.34670 -0.06540
 C363 C 0.19559 0.84735 0.45643
 C364 C 0.20821 0.86941 0.46438
 C365 C 0.22743 0.86652 0.48103
 N366 N 0.23668 0.88884 0.49151
 N367 N 0.25402 0.88680 0.50677
 C368 C 0.26286 0.86235 0.51202
 N369 N 0.25371 0.84001 0.50136
 N370 N 0.23626 0.84203 0.48619
 C371 C 0.28207 0.86004 0.52886
 C372 C 0.28932 0.88148 0.54368
 H373 H 0.20342 0.88980 0.45915
 H374 H 0.29028 0.84103 0.53001
 H375 H 0.19968 0.82699 0.46279
 H376 H 0.28028 0.89986 0.54348
   
