data_POSCAR
  _audit_creation_date              2014-09-24
  _audit_creation_method            'ToBaCCo'
  _symmetry_space_group_name_H-M    'P1'
  _symmetry_Int_Tables_number       1
  _symmetry_cell_setting            triclinic
  loop_
  _symmetry_equiv_pos_as_xyz
 x,y,z
_cell_length_a 37.2538
_cell_length_b 38.4351
_cell_length_c 37.1002
_cell_angle_alpha 89.201100
_cell_angle_beta 90.115300
_cell_angle_gamma 89.114900
loop_
  _atom_site_label
  _atom_site_type_symbol
  _atom_site_fract_x
  _atom_site_fract_y
  _atom_site_fract_z
N1 N 0.23199 0.22069 0.22522
 N2 N -0.20127 0.77620 0.21396
 N3 N -0.21888 0.22580 -0.24764
 N4 N 0.20488 0.79220 -0.18014
 N5 N 0.21655 1.20237 0.79782
 N6 N 0.78541 0.77375 0.78081
 N7 N 0.19407 0.80084 1.16703
 N8 N 0.75988 1.23437 1.24659
 O9 O 0.54628 0.96249 0.95434
 O10 O 0.47839 0.96869 1.05192
 O11 O 0.58994 0.99774 1.02835
 O12 O 0.44328 1.00575 0.95601
 O13 O 0.54729 0.96365 1.04553
 O14 O 0.48230 0.96582 0.94928
 O15 O 0.43950 1.00170 1.02203
 O16 O 0.58932 0.99721 0.96312
 C17 C 0.57899 0.96725 0.95600
 C18 C 0.44693 0.97517 1.04141
 C19 C 0.57993 0.96885 1.04107
 C20 C 0.45029 0.97460 0.95001
 O21 O 0.48707 1.03129 0.91888
 O22 O 0.55132 1.02861 1.06941
 O23 O 0.56043 1.06300 0.96221
 O24 O 0.46072 1.06651 1.02753
 O25 O 0.48477 1.03375 1.07012
 O26 O 0.55175 1.02585 0.92133
 O27 O 0.47300 1.06823 0.96011
 O28 O 0.56489 1.06420 1.02691
 Co29 Co 0.51679 0.99801 0.94079
 Co30 Co 0.51586 1.00001 1.05300
 Co31 Co 0.57116 1.02919 0.99494
 Co32 Co 0.46014 1.03380 0.99146
 O33 O 0.51583 1.01523 0.99541
 C34 C 0.47674 1.06148 0.92763
 C35 C 0.56134 1.05823 1.05959
 C36 C 0.56078 1.05584 0.92982
 C37 C 0.46681 1.06036 1.06016
 O38 O 0.03660 0.45571 0.04898
 O39 O 0.03159 0.52006 -0.05112
 O40 O 0.00260 0.41208 -0.02426
 O41 O -0.00840 0.55521 0.04153
 O42 O 0.03758 0.45347 -0.04206
 O43 O 0.03293 0.51784 0.05171
 O44 O -0.00388 0.55789 -0.02444
 O45 O 0.00106 0.41377 0.04089
 C46 C 0.03188 0.42397 0.04831
 C47 C 0.02401 0.55073 -0.04250
 C48 C 0.03258 0.42189 -0.03615
 C49 C 0.02372 0.54877 0.04861
 O50 O -0.03485 0.51368 0.07993
 O51 O -0.02858 0.44809 -0.06838
 O52 O -0.06682 0.44135 0.03759
 O53 O -0.07024 0.53616 -0.03083
 O54 O -0.03515 0.51265 -0.07143
 O55 O -0.02970 0.45095 0.07984
 O56 O -0.07267 0.52591 0.03722
 O57 O -0.06622 0.43560 -0.02692
 Co58 Co -0.00035 0.48443 0.06024
 Co59 Co -0.00018 0.48328 -0.05202
 Co60 Co -0.03100 0.43054 0.00688
 Co61 Co -0.03696 0.53803 0.00615
 O62 O -0.01708 0.48423 0.00497
 C63 C -0.06583 0.52366 0.07004
 C64 C -0.05896 0.43752 -0.05943
 C65 C -0.06050 0.44224 0.07029
 C66 C -0.06305 0.52986 -0.06303
 O67 O 1.08259 0.02308 0.46402
 O68 O 0.96108 0.03593 0.51704
 O69 O 0.96985 0.03814 0.45264
 O70 O 1.04514 -0.00175 0.57259
 O71 O 0.92292 0.00943 0.46905
 O72 O 1.08086 0.02186 0.53205
 O73 O 0.98022 0.01013 0.56599
 O74 O 1.03243 0.04903 0.45352
 C75 C 1.06564 0.04965 0.45363
 C76 C 0.96565 0.03633 0.55045
 C77 C 0.93658 0.03305 0.44818
 C78 C 1.06948 0.01964 0.56392
 O79 O 1.08423 -0.04465 0.53181
 O80 O 0.95787 -0.04824 0.47411
 O81 O 1.04684 -0.01439 0.42440
 O82 O 0.97404 -0.05747 0.54029
 O83 O 0.93258 -0.02191 0.53107
 O84 O 1.07799 -0.04481 0.46386
 O85 O 1.03456 -0.06710 0.54709
 O86 O 0.98319 -0.02719 0.42721
 Co87 Co 1.07507 -0.01111 0.49776
 Co88 Co 0.96161 -0.00594 0.49456
 Co89 Co 1.00865 0.00940 0.44449
 Co90 Co 1.00874 -0.02742 0.55206
 O91 O 1.01587 -0.01010 0.49880
 C92 C 1.06762 -0.06819 0.54753
 C93 C 0.96513 -0.05078 0.44162
 C94 C 1.06746 -0.03986 0.43211
 C95 C 0.94222 -0.04966 0.54554
 C96 C 1.17574 0.18131 0.31647
 C97 C 1.15739 0.18854 0.28423
 C98 C 1.17572 0.20200 0.25450
 C99 C 1.21274 0.20843 0.25659
 C100 C 1.23088 0.20168 0.28929
 C101 C 1.21248 0.18812 0.31905
 C102 C 1.15726 0.16440 0.34571
 C103 C 1.14144 0.14871 0.36894
 C104 C 1.12245 0.12792 0.39498
 C105 C 1.08488 0.12925 0.39617
 C106 C 1.06619 0.10505 0.41713
 C107 C 1.08494 0.07905 0.43689
 C108 C 1.12271 0.07916 0.43705
 C109 C 1.14131 0.10340 0.41616
 H110 H 1.12906 0.18301 0.28181
 H111 H 1.16120 0.20655 0.22953
 H112 H 1.25934 0.20655 0.29154
 H113 H 1.22700 0.18234 0.34380
 H114 H 1.07001 0.14799 0.37968
 H115 H 1.03712 0.10558 0.41639
 H116 H 1.13790 0.05953 0.45206
 H117 H 1.17037 0.10201 0.41530
 C118 C 0.85771 -0.17875 0.29960
 C119 C 0.87508 -0.20061 0.27508
 C120 C 0.85566 -0.21571 0.24722
 C121 C 0.81857 -0.20913 0.24349
 C122 C 0.80126 -0.18743 0.26845
 C123 C 0.82072 -0.17232 0.29631
 C124 C 0.87819 -0.16139 0.32680
 C125 C 0.89546 -0.14581 0.34870
 C126 C 0.91597 -0.12558 0.37360
 C127 C 0.94445 -0.10566 0.36073
 C128 C 0.96178 -0.08264 0.38352
 C129 C 0.95084 -0.07921 0.41958
 C130 C 0.92338 -0.10058 0.43285
 C131 C 0.90594 -0.12355 0.40989
 H132 H 0.90373 -0.20553 0.27713
 H133 H 0.86971 -0.23199 0.22811
 H134 H 0.77271 -0.18209 0.26619
 H135 H 0.80703 -0.15527 0.31500
 H136 H 0.95244 -0.10698 0.33271
 H137 H 0.98287 -0.06659 0.37254
 H138 H 0.91427 -0.09838 0.46044
 H139 H 0.88386 -0.13879 0.42013
 C140 C 0.85043 0.17478 0.67812
 C141 C 0.86468 0.19045 0.70868
 C142 C 0.84202 0.20776 0.73271
 C143 C 0.80476 0.20962 0.72646
 C144 C 0.79072 0.19424 0.69542
 C145 C 0.81344 0.17689 0.67140
 C146 C 0.87350 0.15487 0.65483
 C147 C 0.89251 0.13720 0.63595
 C148 C 0.91441 0.11478 0.61401
 C149 C 0.93745 0.09014 0.63041
 C150 C 0.95563 0.06559 0.60950
 C151 C 0.95089 0.06534 0.57189
 C152 C 0.92897 0.09120 0.55547
 C153 C 0.91076 0.11569 0.57646
 H154 H 0.89320 0.18872 0.71432
 H155 H 0.85344 0.21896 0.75667
 H156 H 0.76213 0.19538 0.69010
 H157 H 0.80211 0.16468 0.64792
 H158 H 0.94044 0.08918 0.65947
 H159 H 0.97239 0.04608 0.62290
 H160 H 0.92471 0.09163 0.52658
 H161 H 0.89293 0.13459 0.56350
 C162 C 1.16490 -0.17574 0.71677
 C163 C 1.20197 -0.17716 0.72315
 C164 C 1.21518 -0.18790 0.75693
 C165 C 1.19143 -0.19724 0.78473
 C166 C 1.15427 -0.19594 0.77795
 C167 C 1.14113 -0.18527 0.74422
 C168 C 1.15090 -0.16277 0.68287
 C169 C 1.13816 -0.15079 0.65538
 C170 C 1.12179 -0.13483 0.62395
 C171 C 1.14158 -0.11235 0.60194
 C172 C 1.12431 -0.09238 0.57508
 C173 C 1.08694 -0.09448 0.57011
 C174 C 1.06767 -0.11870 0.59092
 C175 C 1.08500 -0.13865 0.61772
 H176 H 1.22061 -0.16964 0.70217
 H177 H 1.24389 -0.18890 0.76147
 H178 H 1.13542 -0.20268 0.79900
 H179 H 1.11240 -0.18398 0.73970
 H180 H 1.17003 -0.10905 0.60663
 H181 H 1.13989 -0.07391 0.55960
 H182 H 1.03887 -0.12088 0.58784
 H183 H 1.06938 -0.15585 0.63470
 C184 C 0.32949 1.17289 1.19049
 C185 C 0.30293 1.15278 1.20689
 C186 C 0.27136 1.16858 1.21933
 C187 C 0.26592 1.20474 1.21546
 C188 C 0.29320 1.22487 1.19994
 C189 C 0.32476 1.20902 1.18746
 C190 C 0.35956 1.15604 1.17335
 C191 C 0.38328 1.14154 1.15704
 C192 C 0.40944 1.12391 1.13507
 C193 C 0.42608 1.09293 1.14710
 C194 C 0.44686 1.07308 1.12330
 C195 C 0.45074 1.08388 1.08714
 C196 C 0.43549 1.11597 1.07597
 C197 C 0.41500 1.13579 1.09977
 H198 H 0.30608 1.12475 1.20895
 H199 H 0.25060 1.15242 1.23075
 H200 H 0.28963 1.25276 1.19677
 H201 H 0.34497 1.22480 1.17448
 H202 H 0.42176 1.08337 1.17433
 H203 H 0.45820 1.04845 1.13265
 H204 H 0.43814 1.12511 1.04837
 H205 H 0.40213 1.15964 1.09012
 C206 C 0.28823 0.84867 0.87031
 C207 C 0.26141 0.86634 0.85054
 C208 C 0.23412 0.84783 0.83390
 C209 C 0.23332 0.81133 0.83676
 C210 C 0.26034 0.79376 0.85671
 C211 C 0.28765 0.81233 0.87336
 C212 C 0.31640 0.86800 0.88709
 C213 C 0.33976 0.88494 0.90054
 C214 C 0.36733 0.90620 0.91569
 C215 C 0.35855 0.93942 0.92822
 C216 C 0.38551 0.96133 0.94026
 C217 C 0.42168 0.95029 0.93991
 C218 C 0.43019 0.91647 0.92832
 C219 C 0.40315 0.89460 0.91618
 H220 H 0.26157 0.89446 0.84803
 H221 H 0.21341 0.86200 0.81906
 H222 H 0.26037 0.76566 0.85915
 H223 H 0.30832 0.79837 0.88851
 H224 H 0.33093 0.94869 0.92796
 H225 H 0.37810 0.98717 0.94918
 H226 H 0.45779 0.90723 0.92782
 H227 H 0.41025 0.86894 0.90649
 C228 C 0.72651 0.83836 1.15014
 C229 C 0.71772 0.80417 1.15971
 C230 C 0.74116 0.78396 1.18115
 C231 C 0.77371 0.79770 1.19333
 C232 C 0.78218 0.83218 1.18387
 C233 C 0.75871 0.85236 1.16243
 C234 C 0.70234 0.85916 1.12804
 C235 C 0.68182 0.87672 1.10999
 C236 C 0.65676 0.89799 1.08942
 C237 C 0.62017 0.89033 1.09004
 C238 C 0.59529 0.91261 1.07291
 C239 C 0.60665 0.94303 1.05501
 C240 C 0.64364 0.94979 1.05326
 C241 C 0.66851 0.92743 1.07044
 H242 H 0.69281 0.79309 1.15051
 H243 H 0.73403 0.75752 1.18818
 H244 H 0.80726 0.84323 1.19255
 H245 H 0.76578 0.87880 1.15526
 H246 H 0.61075 0.86762 1.10459
 H247 H 0.56704 0.90659 1.07472
 H248 H 0.65326 0.97290 1.03959
 H249 H 0.69677 0.93361 1.06973
 C250 C 0.69067 1.17347 0.79568
 C251 C 0.72149 1.15454 0.78604
 C252 C 0.75076 1.17152 0.77073
 C253 C 0.74961 1.20775 0.76484
 C254 C 0.71812 1.22645 0.77360
 C255 C 0.68885 1.20941 0.78903
 C256 C 0.66236 1.15625 0.81499
 C257 C 0.64008 1.14114 0.83251
 C258 C 0.61542 1.12223 0.85498
 C259 C 0.60142 1.09067 0.84340
 C260 C 0.58184 1.06980 0.86724
 C261 C 0.57631 1.08017 0.90305
 C262 C 0.58893 1.11272 0.91387
 C263 C 0.60843 1.13355 0.89000
 H264 H 0.72332 1.12678 0.79136
 H265 H 0.77480 1.15655 0.76471
 H266 H 0.71662 1.25434 0.76925
 H267 H 0.66523 1.22436 0.79657
 H268 H 0.60682 1.08156 0.81641
 H269 H 0.57242 1.04490 0.85811
 H270 H 0.58503 1.12146 0.94124
 H271 H 0.61927 1.15783 0.89932
 C272 C 0.17637 0.29066 0.15413
 C273 C 0.19466 0.26170 0.14034
 C274 C 0.21379 0.23918 0.16355
 C275 C 0.21477 0.24539 0.20082
 C276 C 0.19695 0.27492 0.21431
 C277 C 0.17786 0.29741 0.19109
 C278 C 0.15461 0.31263 0.13085
 C279 C 0.13545 0.33115 0.11242
 C280 C 0.11152 0.35367 0.09204
 C281 C 0.07948 0.34074 0.07815
 C282 C 0.05410 0.36344 0.06236
 C283 C 0.06045 0.39939 0.06050
 C284 C 0.09344 0.41192 0.07302
 C285 C 0.11874 0.38918 0.08879
 H286 H 0.19353 0.25613 0.11182
 H287 H 0.22695 0.21636 0.15262
 H288 H 0.19740 0.28016 0.24290
 H289 H 0.16372 0.31971 0.20205
 H290 H 0.07359 0.31329 0.08059
 H291 H 0.02903 0.35303 0.05277
 H292 H 0.09915 0.43945 0.07184
 H293 H 0.14340 0.39949 0.09953
 C294 C -0.17938 0.31433 -0.19363
 C295 C -0.17781 0.31284 -0.23128
 C296 C -0.19189 0.28427 -0.24917
 C297 C -0.20752 0.25684 -0.22956
 C298 C -0.20972 0.25903 -0.19182
 C299 C -0.19576 0.28759 -0.17403
 C300 C -0.16183 0.34164 -0.17458
 C301 C -0.14629 0.36296 -0.15717
 C302 C -0.12690 0.38633 -0.13460
 C303 C -0.09433 0.40025 -0.14624
 C304 C -0.07288 0.41856 -0.12225
 C305 C -0.08369 0.42283 -0.08625
 C306 C -0.11725 0.41018 -0.07533
 C307 C -0.13865 0.39200 -0.09935
 H308 H -0.16497 0.33328 -0.24669
 H309 H -0.18992 0.28309 -0.27824
 H310 H -0.22111 0.23804 -0.17604
 H311 H -0.19681 0.28833 -0.14486
 H312 H -0.08488 0.39580 -0.17342
 H313 H -0.04721 0.42805 -0.13144
 H314 H -0.12638 0.41318 -0.04784
 H315 H -0.16370 0.38116 -0.08999
 C316 C 0.15147 0.71015 -0.12515
 C317 C 0.16124 0.70656 -0.16134
 C318 C 0.17946 0.73321 -0.17916
 C319 C 0.18811 0.76382 -0.16100
 C320 C 0.17880 0.76698 -0.12446
 C321 C 0.16054 0.74029 -0.10665
 C322 C 0.13109 0.68332 -0.10762
 C323 C 0.11355 0.66059 -0.09398
 C324 C 0.09222 0.63304 -0.07905
 C325 C 0.10076 0.59844 -0.08700
 C326 C 0.07887 0.57164 -0.07464
 C327 C 0.04797 0.57910 -0.05421
 C328 C 0.03994 0.61396 -0.04578
 C329 C 0.06195 0.64075 -0.05816
 H330 H 0.15435 0.68336 -0.17592
 H331 H 0.18652 0.73019 -0.20725
 H332 H 0.18490 0.79047 -0.11004
 H333 H 0.15300 0.74337 -0.07867
 H334 H 0.12406 0.59219 -0.10325
 H335 H 0.08589 0.54511 -0.08154
 H336 H 0.01640 0.62059 -0.03009
 H337 H 0.05503 0.66748 -0.05193
 C338 C -0.17392 0.67373 0.18025
 C339 C -0.17998 0.70031 0.15470
 C340 C -0.18956 0.73375 0.16573
 C341 C -0.19329 0.74111 0.20255
 C342 C -0.18784 0.71410 0.22808
 C343 C -0.17811 0.68059 0.21698
 C344 C -0.16100 0.64034 0.16834
 C345 C -0.14880 0.61374 0.15622
 C346 C -0.13249 0.58416 0.13899
 C347 C -0.14565 0.57360 0.10560
 C348 C -0.12527 0.55109 0.08430
 C349 C -0.09132 0.53904 0.09609
 C350 C -0.07976 0.54729 0.13103
 C351 C -0.10017 0.56995 0.15227
 H352 H -0.17648 0.69538 0.12623
 H353 H -0.19317 0.75414 0.14556
 H354 H -0.19069 0.71915 0.25658
 H355 H -0.17325 0.66027 0.23700
 H356 H -0.17052 0.58458 0.09496
 H357 H -0.13498 0.54507 0.05760
 H358 H -0.05375 0.53844 0.14086
 H359 H -0.08959 0.57814 0.17796
 C360 C 1.15993 0.14918 0.71802
 C361 C 1.14262 0.15880 0.74985
 C362 C 1.16103 0.17741 0.77601
 C363 C 1.19732 0.18652 0.77088
 C364 C 1.21392 0.17749 0.73802
 C365 C 1.19541 0.15896 0.71197
 C366 C 1.14203 0.12799 0.69209
 C367 C 1.12809 0.10970 0.67014
 C368 C 1.11266 0.08753 0.64351
 C369 C 1.08487 0.06500 0.65272
 C370 C 1.07077 0.04277 0.62689
 C371 C 1.08440 0.04283 0.59153
 C372 C 1.11224 0.06571 0.58257
 C373 C 1.12626 0.08784 0.60840
 H374 H 1.11517 0.15122 0.75483
 H375 H 1.14740 0.18322 0.80101
 H376 H 1.24140 0.18468 0.73259
 H377 H 1.20900 0.15179 0.68730
 H378 H 1.07421 0.06450 0.67986
 H379 H 1.04922 0.02561 0.63459
 H380 H 1.12330 0.06648 0.55559
 H381 H 1.14786 0.10510 0.60103
 C382 C 0.82689 -0.17299 0.68905
 C383 C 0.84955 -0.19412 0.71043
 C384 C 0.83578 -0.21249 0.73991
 C385 C 0.79908 -0.20998 0.74839
 C386 C 0.77631 -0.18939 0.72622
 C387 C 0.79016 -0.17094 0.69674
 C388 C 0.84203 -0.15214 0.66057
 C389 C 0.85647 -0.13470 0.63774
 C390 C 0.87609 -0.11435 0.61182
 C391 C 0.91036 -0.12569 0.60160
 C392 C 0.93135 -0.10490 0.57921
 C393 C 0.91834 -0.07240 0.56665
 C394 C 0.88348 -0.06149 0.57614
 C395 C 0.86246 -0.08238 0.59877
 H396 H 0.87806 -0.19573 0.70483
 H397 H 0.85397 -0.22774 0.75682
 H398 H 0.74795 -0.18712 0.73224
 H399 H 0.77240 -0.15460 0.68043
 H400 H 0.92125 -0.15027 0.61168
 H401 H 0.95812 -0.11398 0.57234
 H402 H 0.87292 -0.03651 0.56691
 H403 H 0.83602 -0.07326 0.60673
 C404 C 1.15057 -0.15338 0.25996
 C405 C 1.16441 -0.13253 0.23232
 C406 C 1.17883 -0.14768 0.20150
 C407 C 1.17975 -0.18422 0.19761
 C408 C 1.16557 -0.20492 0.22583
 C409 C 1.15115 -0.18959 0.25669
 C410 C 1.13547 -0.13721 0.29132
 C411 C 1.12286 -0.12239 0.31688
 C412 C 1.10780 -0.10321 0.34639
 C413 C 1.08132 -0.07779 0.33950
 C414 C 1.06796 -0.05750 0.36750
 C415 C 1.08093 -0.06234 0.40289
 C416 C 1.10711 -0.08841 0.40974
 C417 C 1.12053 -0.10866 0.38158
 H418 H 1.16384 -0.10444 0.23448
 H419 H 1.18852 -0.13070 0.18024
 H420 H 1.16633 -0.23304 0.22434
 H421 H 1.14054 -0.20598 0.27801
 H422 H 1.07133 -0.07331 0.31235
 H423 H 1.04769 -0.03780 0.36134
 H424 H 1.11758 -0.09280 0.43670
 H425 H 1.14113 -0.12821 0.38717
 C426 C 0.81522 0.17717 0.32687
 C427 C 0.83431 0.19629 0.30118
 C428 C 0.81604 0.21673 0.27548
 C429 C 0.77810 0.21823 0.27483
 C430 C 0.75936 0.20014 0.30220
 C431 C 0.77777 0.17969 0.32783
 C432 C 0.83409 0.15303 0.35032
 C433 C 0.85073 0.13230 0.36869
 C434 C 0.87180 0.10747 0.38931
 C435 C 0.90909 0.11080 0.39059
 C436 C 0.93007 0.08636 0.40957
 C437 C 0.91400 0.05820 0.42758
 C438 C 0.87650 0.05491 0.42614
 C439 C 0.85549 0.07947 0.40705
 H440 H 0.86334 0.19436 0.30013
 H441 H 0.83160 0.22949 0.25468
 H442 H 0.73030 0.20117 0.30311
 H443 H 0.76275 0.16506 0.34772
 H444 H 0.92199 0.13225 0.37678
 H445 H 0.95889 0.08959 0.41021
 H446 H 0.86345 0.03346 0.43974
 H447 H 0.82663 0.07655 0.40601
 C448 C 0.16450 0.27640 -0.13702
 C449 C 0.19045 0.25382 -0.12206
 C450 C 0.20813 0.22949 -0.14371
 C451 C 0.20012 0.22719 -0.18090
 C452 C 0.17406 0.25054 -0.19552
 C453 C 0.15651 0.27480 -0.17379
 C454 C 0.14536 0.30082 -0.11475
 C455 C 0.12843 0.32144 -0.09711
 C456 C 0.10707 0.34639 -0.07760
 C457 C 0.07721 0.33551 -0.05782
 C458 C 0.05380 0.36009 -0.04274
 C459 C 0.05991 0.39590 -0.04744
 C460 C 0.09096 0.40652 -0.06586
 C461 C 0.11429 0.38191 -0.08092
 H462 H 0.19669 0.25469 -0.09356
 H463 H 0.22720 0.21163 -0.13102
 H464 H 0.16754 0.25029 -0.22397
 H465 H 0.13654 0.29227 -0.18569
 H466 H 0.07132 0.30808 -0.05511
 H467 H 0.03026 0.35108 -0.02853
 H468 H 0.09649 0.43388 -0.06988
 H469 H 0.13727 0.39064 -0.09624
 C470 C -0.19349 0.32240 0.19820
 C471 C -0.19280 0.31819 0.23569
 C472 C -0.20937 0.28957 0.25196
 C473 C -0.22677 0.26438 0.23095
 C474 C -0.22812 0.26983 0.19318
 C475 C -0.21164 0.29847 0.17711
 C476 C -0.17331 0.34947 0.18075
 C477 C -0.15571 0.37054 0.16448
 C478 C -0.13405 0.39358 0.14303
 C479 C -0.14467 0.40189 0.10772
 C480 C -0.12136 0.41942 0.08458
 C481 C -0.08699 0.42879 0.09643
 C482 C -0.07724 0.42206 0.13254
 C483 C -0.10062 0.40437 0.15566
 H484 H -0.17877 0.33656 0.25229
 H485 H -0.20825 0.28685 0.28103
 H486 H -0.24018 0.25093 0.17571
 H487 H -0.21201 0.30129 0.14801
 H488 H -0.17039 0.39351 0.09758
 H489 H -0.12970 0.42438 0.05698
 H490 H -0.05096 0.42898 0.14241
 H491 H -0.09202 0.39787 0.18288
 C492 C -0.17222 0.67537 -0.18433
 C493 C -0.18169 0.68070 -0.22056
 C494 C -0.19601 0.71293 -0.23204
 C495 C -0.20091 0.74008 -0.20737
 C496 C -0.19143 0.73431 -0.17107
 C497 C -0.17726 0.70222 -0.15968
 C498 C -0.15652 0.64297 -0.17177
 C499 C -0.14286 0.61726 -0.15835
 C500 C -0.12612 0.58882 -0.13871
 C501 C -0.09246 0.57565 -0.14904
 C502 C -0.07284 0.55373 -0.12552
 C503 C -0.08657 0.54535 -0.09125
 C504 C -0.12143 0.55673 -0.08225
 C505 C -0.14104 0.57829 -0.10584
 H506 H -0.17784 0.66011 -0.23988
 H507 H -0.20319 0.71679 -0.26011
 H508 H -0.19444 0.75489 -0.15162
 H509 H -0.16985 0.69844 -0.13162
 H510 H -0.08050 0.58392 -0.17427
 H511 H -0.04598 0.54550 -0.13302
 H512 H -0.13275 0.55055 -0.05610
 H513 H -0.16693 0.58850 -0.09744
 C514 C 0.14584 0.71355 0.12125
 C515 C 0.12472 0.73897 0.13795
 C516 C 0.14067 0.76787 0.15328
 C517 C 0.17830 0.77200 0.15226
 C518 C 0.19923 0.74596 0.13527
 C519 C 0.18310 0.71704 0.11996
 C520 C 0.12886 0.68401 0.10554
 C521 C 0.11319 0.65983 0.09292
 C522 C 0.09260 0.63180 0.07872
 C523 C 0.05904 0.63909 0.06320
 C524 C 0.03710 0.61199 0.05252
 C525 C 0.04846 0.57716 0.05719
 C526 C 0.08277 0.57002 0.07163
 C527 C 0.10468 0.59725 0.08248
 H528 H 0.09579 0.73658 0.13892
 H529 H 0.12340 0.78752 0.16511
 H530 H 0.22820 0.74764 0.13444
 H531 H 0.19971 0.69738 0.10722
 H532 H 0.04941 0.66572 0.06021
 H533 H 0.01090 0.61831 0.04131
 H534 H 0.09223 0.54343 0.07547
 H535 H 0.13059 0.59134 0.09457
 C536 C 0.32316 1.17021 0.81887
 C537 C 0.29787 1.14621 0.80758
 C538 C 0.26262 1.15690 0.80038
 C539 C 0.25173 1.19206 0.80428
 C540 C 0.27783 1.21611 0.81523
 C541 C 0.31316 1.20521 0.82254
 C542 C 0.35814 1.15781 0.82998
 C543 C 0.38598 1.14545 0.84119
 C544 C 0.41682 1.12854 0.85738
 C545 C 0.42827 1.09586 0.84522
 C546 C 0.45121 1.07502 0.86658
 C547 C 0.46239 1.08656 0.90053
 C548 C 0.45349 1.12069 0.91088
 C549 C 0.43074 1.14150 0.88946
 H550 H 0.30515 1.11892 0.80528
 H551 H 0.24347 1.13731 0.79299
 H552 H 0.27094 1.24343 0.81786
 H553 H 0.33250 1.22397 0.83159
 H554 H 0.41740 1.08545 0.82058
 H555 H 0.45757 1.04884 0.85796
 H556 H 0.46191 1.13035 0.93681
 H557 H 0.42189 1.16663 0.89926
 C558 C 0.28159 0.84978 1.11751
 C559 C 0.25501 0.83484 1.09634
 C560 C 0.22629 0.81779 1.11269
 C561 C 0.22354 0.81560 1.15067
 C562 C 0.25120 0.83012 1.17151
 C563 C 0.27983 0.84704 1.15505
 C564 C 0.31002 0.86919 1.10105
 C565 C 0.33387 0.88622 1.08835
 C566 C 0.36246 0.90726 1.07461
 C567 C 0.35492 0.93536 1.05127
 C568 C 0.38245 0.95730 1.04007
 C569 C 0.41789 0.95137 1.05216
 C570 C 0.42526 0.92263 1.07506
 C571 C 0.39769 0.90079 1.08625
 H572 H 0.25607 0.83698 1.06721
 H573 H 0.20540 0.80765 1.09564
 H574 H 0.25065 0.82831 1.20066
 H575 H 0.30040 0.85841 1.17168
 H576 H 0.32769 0.94064 1.04221
 H577 H 0.37592 0.97910 1.02233
 H578 H 0.45224 0.91727 1.08478
 H579 H 0.40377 0.87919 1.10444
 C580 C 0.67336 1.18455 1.19703
 C581 C 0.67306 1.22083 1.19977
 C582 C 0.70140 1.23750 1.21698
 C583 C 0.73070 1.21810 1.23154
 C584 C 0.72997 1.18142 1.22905
 C585 C 0.70164 1.16497 1.21204
 C586 C 0.64658 1.16709 1.17635
 C587 C 0.62623 1.15091 1.15796
 C588 C 0.60462 1.13014 1.13469
 C589 C 0.60102 1.13958 1.09831
 C590 C 0.58542 1.11675 1.07413
 C591 C 0.57336 1.08404 1.08602
 C592 C 0.57539 1.07547 1.12295
 C593 C 0.59111 1.09837 1.14713
 H594 H 0.65132 1.23625 1.18806
 H595 H 0.70054 1.26559 1.21883
 H596 H 0.75219 1.16540 1.23880
 H597 H 0.70238 1.13690 1.20962
 H598 H 0.61163 1.16398 1.08835
 H599 H 0.58403 1.12418 1.04588
 H600 H 0.56621 1.05053 1.13290
 H601 H 0.59405 1.09068 1.17520
 C602 C 0.71815 0.83151 0.85150
 C603 C 0.71063 0.79669 0.84436
 C604 C 0.73257 0.77775 0.82091
 C605 C 0.76217 0.79351 0.80428
 C606 C 0.76952 0.82846 0.81169
 C607 C 0.74761 0.84733 0.83510
 C608 C 0.69513 0.85154 0.87468
 C609 C 0.67576 0.86925 0.89314
 C610 C 0.65231 0.89151 0.91358
 C611 C 0.61576 0.88407 0.91613
 C612 C 0.59204 0.90800 0.93170
 C613 C 0.60463 0.93980 0.94472
 C614 C 0.64166 0.94627 0.94372
 C615 C 0.66534 0.92228 0.92813
 H616 H 0.68777 0.78426 0.85677
 H617 H 0.72649 0.75085 0.81556
 H618 H 0.79247 0.84100 0.79960
 H619 H 0.75361 0.87429 0.84038
 H620 H 0.60539 0.86037 0.90488
 H621 H 0.56368 0.90223 0.93218
 H622 H 0.65214 0.97045 0.95369
 H623 H 0.69360 0.92832 0.92623
   
