data_POSCAR
  _audit_creation_date              2014-09-24
  _audit_creation_method            'ToBaCCo'
  _symmetry_space_group_name_H-M    'P1'
  _symmetry_Int_Tables_number       1
  _symmetry_cell_setting            triclinic
  loop_
  _symmetry_equiv_pos_as_xyz
 x,y,z
_cell_length_a 37.1144
_cell_length_b 34.4905
_cell_length_c 34.9266
_cell_angle_alpha 90.691700
_cell_angle_beta 90.381200
_cell_angle_gamma 90.848800
loop_
  _atom_site_label
  _atom_site_type_symbol
  _atom_site_fract_x
  _atom_site_fract_y
  _atom_site_fract_z
N1 N 0.18686 1.27092 0.16291
 N2 N 0.15762 1.26423 0.18288
 C3 C 0.13285 1.29083 0.17432
 C4 C 0.14702 1.31576 0.14713
 C5 C 0.18166 1.30217 0.14085
 H6 H 0.10625 1.29120 0.18666
 H7 H 0.20122 1.31305 0.12073
 Cu8 Cu 0.15300 1.22030 0.21673
 Cu9 Cu 0.22786 1.23619 0.16470
 Cu10 Cu 0.22592 1.16690 0.23550
 N11 N 0.15515 1.18653 0.26068
 N12 N 0.18416 1.16692 0.26898
 C13 C 0.17791 1.14571 0.30042
 C14 C 0.14273 1.15189 0.31229
 C15 C 0.12929 1.17822 0.28621
 H16 H 0.19704 1.12583 0.31242
 H17 H 0.10269 1.19051 0.28554
 N18 N 0.26540 1.17137 0.19834
 N19 N 0.26632 1.19788 0.17141
 C20 C 0.29455 1.19100 0.14835
 C21 C 0.31199 1.15831 0.16113
 C22 C 0.29279 1.14681 0.19298
 H23 H 0.30053 1.20698 0.12267
 H24 H 0.29750 1.12143 0.21004
 H25 H 0.20232 1.18709 0.18551
 H26 H 0.21807 1.22451 0.22155
 N27 N 0.81239 0.73595 0.16101
 N28 N 0.82959 0.72755 0.19280
 C29 C 0.85397 0.69998 0.18529
 C30 C 0.85215 0.69098 0.14657
 C31 C 0.82542 0.71432 0.13213
 H32 H 0.87268 0.68863 0.20606
 H33 H 0.81617 0.71550 0.10275
 Cu34 Cu 0.82131 0.75655 0.23979
 Cu35 Cu 0.77419 0.77395 0.15931
 Cu36 Cu 0.75995 0.82699 0.24243
 N37 N 0.82377 0.79795 0.27805
 N38 N 0.80028 0.82603 0.27830
 C39 C 0.80971 0.85227 0.30547
 C40 C 0.84117 0.84022 0.32331
 C41 C 0.84899 0.80524 0.30516
 H42 H 0.79490 0.87846 0.31102
 H43 H 0.87216 0.78721 0.30976
 N44 N 0.73055 0.83295 0.19585
 N45 N 0.73648 0.81334 0.16392
 C46 C 0.71282 0.82456 0.13703
 C47 C 0.69092 0.85275 0.15266
 C48 C 0.70304 0.85727 0.19012
 H49 H 0.71155 0.81282 0.10824
 H50 H 0.69312 0.87725 0.21152
 H51 H 0.79594 0.80861 0.20256
 H52 H 0.76076 0.77214 0.21598
 N53 N 0.79255 1.27889 -0.17389
 N54 N 0.81513 1.27956 -0.20271
 C55 C 0.84045 1.30723 -0.19606
 C56 C 0.83353 1.32447 -0.16095
 C57 C 0.80284 1.30586 -0.14775
 H58 H 0.86340 1.31272 -0.21426
 H59 H 0.78956 1.31076 -0.12068
 Cu60 Cu 0.81203 1.24097 -0.24368
 Cu61 Cu 0.75261 1.24185 -0.17188
 Cu62 Cu 0.76734 1.15790 -0.22444
 N63 N 0.82015 1.19381 -0.27297
 N64 N 0.80368 1.16115 -0.26435
 C65 C 0.81607 1.13260 -0.28703
 C66 C 0.84198 1.14806 -0.31132
 C67 C 0.84359 1.18726 -0.30147
 H68 H 0.80685 1.10282 -0.28553
 H69 H 0.86125 1.20933 -0.31302
 N70 N 0.73130 1.16128 -0.18325
 N71 N 0.72460 1.19380 -0.16450
 C72 C 0.69798 1.18733 -0.13929
 C73 C 0.68754 1.14872 -0.14207
 C74 C 0.70925 1.13310 -0.17021
 H75 H 0.68770 1.20886 -0.11960
 H76 H 0.70866 1.10349 -0.18072
 H77 H 0.78896 1.20250 -0.19127
 H78 H 0.75254 1.21459 -0.22598
 N79 N 0.21375 0.71459 -0.18407
 N80 N 0.19055 0.71474 -0.21266
 C81 C 0.16496 0.68747 -0.20683
 C82 C 0.17259 0.66900 -0.17278
 C83 C 0.20400 0.68678 -0.15930
 H84 H 0.14185 0.68250 -0.22535
 H85 H 0.21744 0.68169 -0.13229
 Cu86 Cu 0.19390 0.75274 -0.25309
 Cu87 Cu 0.25247 0.75327 -0.17947
 Cu88 Cu 0.23824 0.83586 -0.23308
 N89 N 0.18622 0.79875 -0.28327
 N90 N 0.20302 0.83147 -0.27459
 C91 C 0.19084 0.85952 -0.29746
 C92 C 0.16460 0.84375 -0.32190
 C93 C 0.16269 0.80480 -0.31202
 H94 H 0.20001 0.88934 -0.29554
 H95 H 0.14454 0.78272 -0.32347
 N96 N 0.27299 0.83410 -0.19021
 N97 N 0.27904 0.80252 -0.17035
 C98 C 0.30384 0.81079 -0.14299
 C99 C 0.31391 0.84955 -0.14570
 C100 C 0.29381 0.86323 -0.17610
 H101 H 0.31311 0.79030 -0.12206
 H102 H 0.29431 0.89231 -0.18723
 H103 H 0.21643 0.79208 -0.19990
 H104 H 0.25334 0.77909 -0.23336
 C105 C 0.49814 1.00442 0.01318
 C106 C 0.00464 0.50445 0.98939
 C107 C 0.99991 -0.00290 0.50567
 C108 C 0.09117 0.40217 1.08609
 C109 C 0.07370 0.38046 1.11427
 C110 C 0.09239 0.35302 1.13525
 C111 C 0.12912 0.34600 1.12822
 C112 C 0.14690 0.36909 1.10084
 C113 C 0.12813 0.39699 1.08016
 C114 C 0.07002 0.42807 1.06138
 C115 C 0.08086 0.46653 1.05516
 C116 C 0.05979 0.49069 1.03247
 C117 C 0.02747 0.47695 1.01478
 C118 C 0.01767 0.43767 1.02076
 C119 C 0.03839 0.41393 1.04388
 H120 H 0.07732 0.33671 1.15612
 H121 H 0.17516 0.36540 1.09469
 H122 H 0.06856 0.52052 1.02901
 H123 H -0.00590 0.42430 1.00788
 H124 H 0.14215 0.41348 1.05851
 H125 H 0.10523 0.47810 1.06848
 H126 H 0.04525 0.38434 1.11965
 H127 H 0.02982 0.38407 1.04776
 C128 C -0.08234 0.61187 1.08221
 C129 C -0.08944 0.60537 1.12119
 C130 C -0.11032 0.63131 1.14230
 C131 C -0.12508 0.66389 1.12474
 C132 C -0.11800 0.67049 1.08593
 C133 C -0.09662 0.64503 1.06503
 C134 C -0.06038 0.58425 1.05939
 C135 C -0.06818 0.57734 1.02052
 C136 C -0.04716 0.55234 0.99876
 C137 C -0.01770 0.53258 1.01500
 C138 C -0.01064 0.53911 1.05443
 C139 C -0.03138 0.56475 1.07604
 H140 H -0.11560 0.62542 1.17214
 H141 H -0.12849 0.69576 1.07181
 H142 H -0.05382 0.54857 0.96869
 H143 H 0.01084 0.52488 1.06933
 H144 H -0.09100 0.65165 1.03543
 H145 H -0.09078 0.59107 1.00675
 H146 H -0.07942 0.57987 1.13529
 H147 H -0.02427 0.56965 1.10583
 C148 C -0.09730 0.40524 0.90041
 C149 C -0.11699 0.37643 0.91986
 C150 C -0.14013 0.35094 0.89997
 C151 C -0.14347 0.35290 0.86004
 C152 C -0.12383 0.38133 0.84037
 C153 C -0.10134 0.40756 0.86036
 C154 C -0.07223 0.43202 0.92184
 C155 C -0.04037 0.44597 0.90500
 C156 C -0.01620 0.46983 0.92562
 C157 C -0.02252 0.47994 0.96433
 C158 C -0.05489 0.46587 0.98077
 C159 C -0.07940 0.44297 0.95983
 H160 H -0.15453 0.32884 0.91576
 H161 H -0.12620 0.38354 0.80955
 H162 H 0.00751 0.47944 0.91069
 H163 H -0.06103 0.47206 1.01046
 H164 H -0.08732 0.42973 0.84437
 H165 H -0.03348 0.43778 0.87599
 H166 H -0.11400 0.37282 0.95044
 H167 H -0.10397 0.43372 0.97374
 C168 C 0.10391 0.59210 0.89078
 C169 C 0.08959 0.61544 0.86196
 C170 C 0.11211 0.63933 0.84040
 C171 C 0.14939 0.64081 0.84760
 C172 C 0.16386 0.61666 0.87579
 C173 C 0.14132 0.59223 0.89700
 C174 C 0.07943 0.56987 0.91585
 C175 C 0.08447 0.53037 0.92253
 C176 C 0.06046 0.50979 0.94573
 C177 C 0.03087 0.52817 0.96347
 C178 C 0.02711 0.56840 0.95716
 C179 C 0.05068 0.58861 0.93346
 H180 H 0.10003 0.65770 0.81912
 H181 H 0.19253 0.61698 0.88176
 H182 H 0.06478 0.47909 0.94951
 H183 H 0.00631 0.58528 0.97027
 H184 H 0.15290 0.57455 0.91921
 H185 H 0.10659 0.51528 0.90920
 H186 H 0.06082 0.61564 0.85658
 H187 H 0.04671 0.61934 0.92930
 C188 C 1.08599 0.09373 0.40056
 C189 C 1.12367 0.09115 0.39781
 C190 C 1.14242 0.11050 0.36899
 C191 C 1.12414 0.13370 0.34245
 C192 C 1.08656 0.13743 0.34624
 C193 C 1.06778 0.11739 0.37452
 C194 C 1.06560 0.07065 0.42930
 C195 C 1.03348 0.08437 0.44509
 C196 C 1.01300 0.06133 0.46962
 C197 C 1.02448 0.02408 0.48087
 C198 C 1.05701 0.01086 0.46475
 C199 C 1.07706 0.03361 0.43960
 H200 H 1.17134 0.10731 0.36797
 H201 H 1.07105 0.15457 0.32656
 H202 H 0.98724 0.07248 0.47842
 H203 H 1.06724 -0.01749 0.47020
 H204 H 1.03873 0.11960 0.37506
 H205 H 1.02363 0.11280 0.43803
 H206 H 1.13882 0.07406 0.41791
 H207 H 1.10105 0.02137 0.42716
 C208 C 1.09703 -0.09569 0.60141
 C209 C 1.12345 -0.07586 0.62317
 C210 C 1.14629 -0.09589 0.64759
 C211 C 1.14310 -0.13647 0.65135
 C212 C 1.11716 -0.15638 0.62847
 C213 C 1.09452 -0.13621 0.60369
 C214 C 1.07144 -0.07365 0.57764
 C215 C 1.06355 -0.08477 0.53981
 C216 C 1.04053 -0.06254 0.51735
 C217 C 1.02426 -0.02845 0.53192
 C218 C 1.03173 -0.01879 0.57076
 C219 C 1.05499 -0.04076 0.59292
 H220 H 1.16583 -0.07899 0.66396
 H221 H 1.11380 -0.18752 0.62978
 H222 H 1.03591 -0.07192 0.48802
 H223 H 1.02012 0.00560 0.58517
 H224 H 1.07431 -0.15217 0.58717
 H225 H 1.07590 -0.11015 0.52728
 H226 H 1.12632 -0.04463 0.62144
 H227 H 1.05999 -0.03204 0.62241
 C228 C 0.90585 -0.09747 0.40432
 C229 C 0.87517 -0.08061 0.38837
 C230 C 0.85324 -0.10152 0.36261
 C231 C 0.86186 -0.13971 0.35147
 C232 C 0.89233 -0.15675 0.36839
 C233 C 0.91388 -0.13594 0.39471
 C234 C 0.93012 -0.07431 0.42973
 C235 C 0.94099 -0.08833 0.46538
 C236 C 0.96326 -0.06573 0.48950
 C237 C 0.97668 -0.02899 0.47801
 C238 C 0.96480 -0.01521 0.44214
 C239 C 0.94207 -0.03753 0.41847
 H240 H 0.83020 -0.08695 0.35077
 H241 H 0.89990 -0.18613 0.36140
 H242 H 0.96924 -0.07675 0.51767
 H243 H 0.97239 0.01312 0.43201
 H244 H 0.93747 -0.14951 0.40672
 H245 H 0.93136 -0.11632 0.47505
 H246 H 0.86826 -0.05105 0.39572
 H247 H 0.93383 -0.02601 0.39110
 C248 C 0.90584 0.08759 0.60763
 C249 C 0.88108 0.06760 0.63066
 C250 C 0.85979 0.08751 0.65693
 C251 C 0.86281 0.12813 0.66129
 C252 C 0.88756 0.14810 0.63790
 C253 C 0.90870 0.12810 0.61143
 C254 C 0.92895 0.06600 0.58032
 C255 C 0.96513 0.07685 0.57510
 C256 C 0.98720 0.05532 0.55088
 C257 C 0.97411 0.02184 0.53106
 C258 C 0.93732 0.01181 0.53614
 C259 C 0.91525 0.03357 0.56014
 H260 H 0.84147 0.07053 0.67411
 H261 H 0.89079 0.17927 0.63967
 H262 H 1.01520 0.06419 0.54849
 H263 H 0.92489 -0.01299 0.52206
 H264 H 0.92713 0.14447 0.59371
 H265 H 0.97678 0.10140 0.59062
 H266 H 0.87862 0.03631 0.62899
 H267 H 0.88725 0.02484 0.56290
 C268 C 0.39558 1.09607 0.10257
 C269 C 0.37265 1.07709 0.12845
 C270 C 0.34610 1.09748 0.14802
 C271 C 0.34152 1.13730 0.14194
 C272 C 0.36458 1.15644 0.11637
 C273 C 0.39142 1.13611 0.09705
 C274 C 0.42299 1.07392 0.08076
 C275 C 0.44107 1.04288 0.09760
 C276 C 0.46545 1.02086 0.07655
 C277 C 0.47372 1.03013 0.03829
 C278 C 0.45478 1.06078 0.02138
 C279 C 0.43013 1.08253 0.04233
 H280 H 0.32850 1.08165 0.16705
 H281 H 0.36198 1.18719 0.11137
 H282 H 0.47705 0.99602 0.09029
 H283 H 0.45877 1.06762 -0.00848
 H284 H 0.40898 1.15181 0.07785
 H285 H 0.43616 1.03526 0.12710
 H286 H 0.37450 1.04617 0.13286
 H287 H 0.41585 1.10539 0.02798
 C288 C 0.60647 1.08911 -0.07645
 C289 C 0.60442 1.12930 -0.08243
 C290 C 0.63089 1.14873 -0.10345
 C291 C 0.65972 1.12834 -0.11944
 C292 C 0.66181 1.08824 -0.11359
 C293 C 0.63568 1.06892 -0.09211
 C294 C 0.57830 1.06830 -0.05411
 C295 C 0.56799 1.03008 -0.06388
 C296 C 0.54223 1.01021 -0.04247
 C297 C 0.52450 1.02838 -0.01162
 C298 C 0.53581 1.06636 -0.00123
 C299 C 0.56203 1.08608 -0.02234
 H300 H 0.62840 1.17959 -0.10781
 H301 H 0.68402 1.07185 -0.12505
 H302 H 0.53597 0.98036 -0.05018
 H303 H 0.52528 1.08072 0.02392
 H304 H 0.63871 1.03818 -0.08737
 H305 H 0.57980 1.01535 -0.08817
 H306 H 0.58205 1.14571 -0.07138
 H307 H 0.57026 1.11494 -0.01304
 C308 C 0.39026 0.91499 -0.07609
 C309 C 0.38856 0.87433 -0.07404
 C310 C 0.36366 0.85303 -0.09639
 C311 C 0.33989 0.87195 -0.12125
 C312 C 0.34131 0.91267 -0.12276
 C313 C 0.36615 0.93389 -0.10047
 C314 C 0.41749 0.93767 -0.05349
 C315 C 0.43559 0.96933 -0.06986
 C316 C 0.46134 0.99067 -0.04891
 C317 C 0.47081 0.98023 -0.01122
 C318 C 0.45094 0.94975 0.00569
 C319 C 0.42520 0.92832 -0.01534
 H320 H 0.36352 0.82174 -0.09458
 H321 H 0.32311 0.92842 -0.14096
 H322 H 0.47340 1.01570 -0.06240
 H323 H 0.45558 0.94234 0.03533
 H324 H 0.36629 0.96522 -0.10213
 H325 H 0.42996 0.97761 -0.09908
 H326 H 0.40703 0.85892 -0.05578
 H327 H 0.41084 0.90487 -0.00151
 C328 C 0.60598 0.91453 0.09590
 C329 C 0.61064 0.91768 0.13578
 C330 C 0.63806 0.89756 0.15424
 C331 C 0.66151 0.87386 0.13323
 C332 C 0.65669 0.87070 0.09333
 C333 C 0.62929 0.89077 0.07492
 C334 C 0.57734 0.93642 0.07610
 C335 C 0.55751 0.91935 0.04579
 C336 C 0.53157 0.94043 0.02615
 C337 C 0.52378 0.97900 0.03695
 C338 C 0.54475 0.99620 0.06667
 C339 C 0.57064 0.97509 0.08632
 H340 H 0.64063 0.90050 0.18500
 H341 H 0.67433 0.85316 0.07601
 H342 H 0.51849 0.92655 0.00175
 H343 H 0.54133 1.02640 0.07442
 H344 H 0.62680 0.88827 0.04408
 H345 H 0.56231 0.88968 0.03697
 H346 H 0.59284 0.93544 0.15277
 H347 H 0.58626 0.98946 0.10877
   
