data_POSCAR
  _audit_creation_date              2014-09-24
  _audit_creation_method            'ToBaCCo'
  _symmetry_space_group_name_H-M    'P1'
  _symmetry_Int_Tables_number       1
  _symmetry_cell_setting            triclinic
  loop_
  _symmetry_equiv_pos_as_xyz
 x,y,z
_cell_length_a 34.3088
_cell_length_b 34.2742
_cell_length_c 27.6754
_cell_angle_alpha 89.942500
_cell_angle_beta 90.016600
_cell_angle_gamma 92.065000
loop_
  _atom_site_label
  _atom_site_type_symbol
  _atom_site_fract_x
  _atom_site_fract_y
  _atom_site_fract_z
O1 O 0.01663 0.32370 -0.01169
 O2 O -0.05829 0.30438 0.08331
 O3 O 0.01680 0.30658 0.08075
 O4 O -0.06160 0.32200 -0.00758
 O5 O -0.05993 0.25999 -0.02899
 O6 O 0.01424 0.24390 0.06318
 O7 O -0.06200 0.24294 0.05943
 O8 O 0.01597 0.26076 -0.02786
 Cu9 Cu -0.02122 0.32078 0.03741
 Cu10 Cu -0.02265 0.24569 0.01456
 C11 C 0.03007 0.29500 -0.03470
 C12 C -0.07387 0.27021 0.08603
 C13 C 0.02890 0.27245 0.08709
 C14 C -0.07527 0.29302 -0.03155
 O15 O 0.55893 0.79345 0.42316
 O16 O 0.48340 0.80331 0.51762
 O17 O 0.56040 0.80344 0.51667
 O18 O 0.48315 0.79613 0.42337
 O19 O 0.48088 0.73209 0.43231
 O20 O 0.55734 0.73946 0.52509
 O21 O 0.48125 0.73926 0.52634
 O22 O 0.55596 0.72972 0.43339
 Cu23 Cu 0.52166 0.80558 0.46956
 Cu24 Cu 0.51822 0.72882 0.48044
 C25 C 0.57083 0.75978 0.41274
 C26 C 0.46953 0.77261 0.53807
 C27 C 0.57298 0.77253 0.53560
 C28 C 0.46950 0.76261 0.41127
 O29 O 0.98240 0.71076 -0.08659
 O30 O 1.05380 0.68971 0.00971
 O31 O 0.97637 0.69160 0.00451
 O32 O 1.05846 0.70913 -0.08075
 O33 O 1.06640 0.76870 -0.05143
 O34 O 0.98069 0.75381 0.02535
 O35 O 1.05394 0.75140 0.03269
 O36 O 0.98971 0.77301 -0.06882
 Cu37 Cu 1.01707 0.69389 -0.04018
 Cu38 Cu 1.02139 0.76815 -0.01511
 C39 C 0.97476 0.74612 -0.09513
 C40 C 1.06723 0.71745 0.03616
 C41 C 0.96457 0.72006 0.02925
 C42 C 1.07819 0.74120 -0.07772
 O43 O 0.43380 0.19905 0.48791
 O44 O 0.51270 0.20509 0.57825
 O45 O 0.43726 0.21226 0.58078
 O46 O 0.51040 0.19722 0.48423
 O47 O 0.51602 0.26089 0.47421
 O48 O 0.44392 0.27582 0.56868
 O49 O 0.51877 0.26867 0.56662
 O50 O 0.44060 0.26269 0.47619
 Cu51 Cu 0.47288 0.19695 0.53380
 Cu52 Cu 0.48024 0.27333 0.52027
 C53 C 0.42387 0.22994 0.46664
 C54 C 0.52957 0.23780 0.58739
 C55 C 0.42859 0.24703 0.59135
 C56 C 0.52635 0.22684 0.46343
 O57 O 0.69838 0.02979 -0.03526
 O58 O 0.70727 -0.05477 0.04688
 O59 O 0.69568 0.02010 0.05885
 O60 O 0.70493 -0.04609 -0.04496
 O61 O 0.76905 -0.03814 -0.04106
 O62 O 0.75941 0.03131 0.05870
 O63 O 0.77029 -0.04275 0.05152
 O64 O 0.76255 0.03729 -0.03511
 Cu65 Cu 0.69505 -0.01336 0.00633
 Cu66 Cu 0.77164 -0.00180 0.00858
 C67 C 0.72943 0.04752 -0.04976
 C68 C 0.74046 -0.06382 0.06285
 C69 C 0.72589 0.03752 0.07590
 C70 C 0.73872 -0.05487 -0.05894
 O71 O 0.19848 0.54713 0.44013
 O72 O 0.18800 0.47747 0.54201
 O73 O 0.19746 0.55377 0.53351
 O74 O 0.18969 0.47084 0.44788
 O75 O 0.25331 0.46536 0.45151
 O76 O 0.26132 0.54771 0.53529
 O77 O 0.25196 0.47275 0.54390
 O78 O 0.26227 0.54056 0.44230
 Cu79 Cu 0.18689 0.51280 0.49065
 Cu80 Cu 0.26356 0.50615 0.49340
 C81 C 0.23241 0.55569 0.42409
 C82 C 0.21837 0.46281 0.55977
 C83 C 0.23102 0.56485 0.54871
 C84 C 0.22022 0.45332 0.43592
 O85 O 0.28607 1.05200 0.03885
 O86 O 0.29511 0.98688 -0.06567
 O87 O 0.27830 1.05983 -0.05361
 O88 O 0.29477 0.97608 0.02882
 O89 O 0.23124 0.96414 0.03084
 O90 O 0.21542 1.04506 -0.05174
 O91 O 0.23202 0.97288 -0.06285
 O92 O 0.22300 1.03927 0.04098
 Cu93 Cu 0.29495 1.01978 -0.01290
 Cu94 Cu 0.21931 1.00384 -0.01018
 C95 C 0.25294 1.05847 0.05657
 C96 C 0.26522 0.96874 -0.08230
 C97 C 0.24361 1.06640 -0.06726
 C98 C 0.26535 0.95559 0.04353
 O99 O 0.81114 0.53281 0.55005
 O100 O 0.80338 0.45061 0.46315
 O101 O 0.81238 0.52705 0.45555
 O102 O 0.80484 0.45654 0.55679
 O103 O 0.74094 0.46086 0.55572
 O104 O 0.74831 0.53041 0.45522
 O105 O 0.73953 0.45500 0.46369
 O106 O 0.74726 0.53655 0.54830
 Cu107 Cu 0.81443 0.49150 0.50635
 Cu108 Cu 0.73770 0.49629 0.50568
 C109 C 0.78028 0.54914 0.56342
 C110 C 0.76977 0.43794 0.44990
 C111 C 0.78149 0.54118 0.43863
 C112 C 0.77140 0.44579 0.57254
 C113 C 0.17639 0.19193 0.17365
 C114 C 0.21178 0.17751 0.18938
 C115 C 0.23026 0.19414 0.23025
 C116 C 0.21300 0.22483 0.25603
 C117 C 0.17582 0.23653 0.24103
 C118 C 0.15874 0.22173 0.19872
 C119 C 0.23421 0.24644 0.29602
 C120 C 0.22388 0.28480 0.30870
 C121 C 0.24298 0.30517 0.34615
 C122 C 0.27476 0.28877 0.36885
 C123 C 0.28688 0.25189 0.35551
 C124 C 0.26604 0.23020 0.32049
 H125 H 0.16298 0.18056 0.14081
 H126 H 0.25849 0.18373 0.24018
 H127 H 0.16022 0.25832 0.26058
 H128 H 0.20145 0.29980 0.28951
 H129 H 0.29067 0.30511 0.39653
 H130 H 0.27547 0.20121 0.31234
 C131 C 0.81001 0.77109 0.11887
 C132 C 0.77932 0.78860 0.14270
 C133 C 0.76351 0.77087 0.18420
 C134 C 0.77486 0.73354 0.19952
 C135 C 0.80573 0.71627 0.17431
 C136 C 0.82420 0.73581 0.13549
 C137 C 0.75512 0.71394 0.24222
 C138 C 0.77230 0.68299 0.26766
 C139 C 0.75374 0.66613 0.30825
 C140 C 0.71907 0.68120 0.32527
 C141 C 0.70193 0.71198 0.30137
 C142 C 0.71870 0.72677 0.25882
 H143 H 0.82393 0.78570 0.08831
 H144 H 0.74267 0.78719 0.20434
 H145 H 0.81645 0.68827 0.18476
 H146 H 0.80008 0.67191 0.25708
 H147 H 0.70560 0.66918 0.35775
 H148 H 0.70292 0.74872 0.23979
 C149 C 0.78207 0.18063 0.18643
 C150 C 0.79347 0.21929 0.19697
 C151 C 0.77039 0.24053 0.22863
 C152 C 0.73907 0.22220 0.25441
 C153 C 0.72796 0.18332 0.24200
 C154 C 0.74810 0.16364 0.20601
 C155 C 0.71861 0.24365 0.29381
 C156 C 0.68118 0.23129 0.31069
 C157 C 0.66367 0.25041 0.34942
 C158 C 0.68226 0.28341 0.36978
 C159 C 0.71887 0.29657 0.35328
 C160 C 0.73718 0.27635 0.31630
 H161 H 0.79842 0.16420 0.16037
 H162 H 0.77711 0.27139 0.23250
 H163 H 0.70338 0.16815 0.25876
 H164 H 0.66520 0.20695 0.29448
 H165 H 0.66839 0.29864 0.39910
 H166 H 0.76623 0.28640 0.30613
 C167 C 0.21720 0.79045 0.12435
 C168 C 0.20525 0.75338 0.14065
 C169 C 0.22525 0.73601 0.17853
 C170 C 0.25616 0.75629 0.20283
 C171 C 0.26733 0.79419 0.18611
 C172 C 0.24849 0.81075 0.14634
 C173 C 0.27633 0.73769 0.24492
 C174 C 0.31430 0.75033 0.25981
 C175 C 0.33315 0.73146 0.29787
 C176 C 0.31499 0.69917 0.32023
 C177 C 0.27785 0.68603 0.30610
 C178 C 0.25803 0.70602 0.27015
 H179 H 0.20197 0.80363 0.09448
 H180 H 0.21632 0.70649 0.18811
 H181 H 0.29021 0.81136 0.20370
 H182 H 0.32997 0.77398 0.24165
 H183 H 0.32998 0.68399 0.34878
 H184 H 0.22854 0.69603 0.26211
 C185 C 0.68475 0.30496 0.67858
 C186 C 0.66503 0.27405 0.70199
 C187 C 0.68107 0.25764 0.74359
 C188 C 0.71818 0.27059 0.76051
 C189 C 0.73809 0.30115 0.73514
 C190 C 0.72112 0.31872 0.69501
 C191 C 0.73639 0.25216 0.80374
 C192 C 0.76532 0.27291 0.83061
 C193 C 0.78449 0.25517 0.86882
 C194 C 0.77357 0.21717 0.88271
 C195 C 0.74435 0.19624 0.85762
 C196 C 0.72626 0.21335 0.81777
 H197 H 0.67207 0.31790 0.64671
 H198 H 0.66442 0.23477 0.76204
 H199 H 0.76709 0.31130 0.74547
 H200 H 0.77359 0.30287 0.82220
 H201 H 0.78868 0.20342 0.91226
 H202 H 0.70533 0.19573 0.79734
 C203 C 0.30999 0.72126 0.62591
 C204 C 0.32812 0.75516 0.64442
 C205 C 0.30944 0.77659 0.68019
 C206 C 0.27178 0.76480 0.69675
 C207 C 0.25353 0.73112 0.67608
 C208 C 0.27307 0.70887 0.64204
 C209 C 0.25227 0.78617 0.73677
 C210 C 0.22543 0.76614 0.76777
 C211 C 0.20704 0.78574 0.80538
 C212 C 0.21544 0.82550 0.81202
 C213 C 0.24448 0.84498 0.78532
 C214 C 0.26165 0.82603 0.74625
 H215 H 0.32508 0.70393 0.59954
 H216 H 0.32511 0.80144 0.69582
 H217 H 0.22450 0.72134 0.68688
 H218 H 0.21959 0.73507 0.76415
 H219 H 0.20122 0.84093 0.84092
 H220 H 0.28289 0.84229 0.72469
 C221 C 0.28068 0.32399 0.67617
 C222 C 0.24448 0.33763 0.68991
 C223 C 0.22392 0.31957 0.72812
 C224 C 0.24005 0.28838 0.75407
 C225 C 0.27723 0.27580 0.73991
 C226 C 0.29689 0.29288 0.70053
 C227 C 0.21813 0.26849 0.79476
 C228 C 0.22684 0.23006 0.80870
 C229 C 0.20673 0.21112 0.84646
 C230 C 0.17652 0.22983 0.86977
 C231 C 0.16639 0.26735 0.85582
 C232 C 0.18768 0.28698 0.81937
 H233 H 0.29612 0.33736 0.64585
 H234 H 0.19528 0.32979 0.73644
 H235 H 0.29163 0.25300 0.75920
 H236 H 0.24845 0.21378 0.78976
 H237 H 0.16031 0.21481 0.89829
 H238 H 0.17992 0.31642 0.81059
 C239 C 0.72119 0.70885 0.63781
 C240 C 0.75344 0.69303 0.66035
 C241 C 0.77228 0.71348 0.69794
 C242 C 0.76078 0.75117 0.71125
 C243 C 0.72854 0.76697 0.68705
 C244 C 0.70836 0.74551 0.65117
 C245 C 0.78227 0.77357 0.75017
 C246 C 0.76358 0.80236 0.77733
 C247 C 0.78361 0.82288 0.81399
 C248 C 0.82195 0.81400 0.82506
 C249 C 0.84124 0.78565 0.79895
 C250 C 0.82161 0.76597 0.76117
 H251 H 0.70616 0.69267 0.60929
 H252 H 0.79580 0.69952 0.71642
 H253 H 0.71900 0.79594 0.69531
 H254 H 0.73333 0.80863 0.77116
 H255 H 0.83668 0.82894 0.85479
 H256 H 0.83750 0.74500 0.74054
 C257 C 0.20576 0.11125 0.15588
 C258 C 0.21504 0.08305 0.12234
 C259 C 0.24840 0.08709 0.09292
 C260 C 0.27372 0.12111 0.09936
 C261 C 0.26331 0.15036 0.13338
 C262 C 0.22874 0.14545 0.16108
 C263 C 0.28679 0.18481 0.13672
 N264 N 0.31887 0.18968 0.10869
 N265 N 0.32873 0.16280 0.07685
 C266 C 0.30732 0.12917 0.07080
 H267 H 0.17911 0.10716 0.17659
 H268 H 0.19535 0.05772 0.11925
 H269 H 0.27989 0.20827 0.16085
 H270 H 0.31708 0.11021 0.04285
 C271 C 0.74174 0.62233 0.64965
 C272 C 0.74876 0.58739 0.62645
 C273 C 0.78126 0.58358 0.59617
 C274 C 0.80930 0.61523 0.59307
 C275 C 0.80164 0.65120 0.61637
 C276 C 0.76695 0.65484 0.64356
 C277 C 0.82821 0.68301 0.60988
 N278 N 0.86082 0.67877 0.58312
 N279 N 0.86849 0.64502 0.56210
 C280 C 0.84394 0.61328 0.56597
 H281 H 0.71518 0.62467 0.67049
 H282 H 0.72728 0.56361 0.63018
 H283 H 0.82347 0.71124 0.62571
 H284 H 0.85243 0.58711 0.54813
 C285 C 0.79385 0.85756 0.12226
 C286 C 0.78410 0.89375 0.10451
 C287 C 0.74565 0.90163 0.09027
 C288 C 0.71573 0.87219 0.09940
 C289 C 0.72649 0.83429 0.11476
 C290 C 0.76594 0.82714 0.12615
 C291 C 0.69737 0.80434 0.11724
 N292 N 0.65962 0.81241 0.10906
 N293 N 0.64901 0.84835 0.09847
 C294 C 0.67548 0.87841 0.09368
 H295 H 0.82396 0.85297 0.13195
 H296 H 0.80771 0.91535 0.10042
 H297 H 0.70412 0.77452 0.12543
 H298 H 0.66404 0.90673 0.08733
 C299 C 0.24924 0.40719 0.66850
 C300 C 0.24281 0.43766 0.63668
 C301 C 0.21586 0.43330 0.59882
 C302 C 0.19284 0.39808 0.59529
 C303 C 0.19976 0.36682 0.62764
 C304 C 0.22911 0.37122 0.66339
 C305 C 0.17835 0.33141 0.62151
 N306 N 0.15143 0.32783 0.58579
 N307 N 0.14479 0.35709 0.55559
 C308 C 0.16464 0.39192 0.55892
 H309 H 0.27196 0.41086 0.69551
 H310 H 0.26073 0.46420 0.63999
 H311 H 0.18276 0.30655 0.64467
 H312 H 0.15797 0.41424 0.53315
 C313 C 0.82984 0.22978 0.12099
 C314 C 0.86279 0.24036 0.09470
 C315 C 0.89370 0.26220 0.11560
 C316 C 0.89113 0.27318 0.16502
 C317 C 0.85854 0.25942 0.19313
 C318 C 0.82746 0.23751 0.17059
 C319 C 0.85941 0.26643 0.24326
 N320 N 0.88963 0.28725 0.26324
 N321 N 0.91955 0.30084 0.23684
 C322 C 0.92155 0.29424 0.18865
 H323 H 0.80632 0.21411 0.10238
 H324 H 0.86355 0.23228 0.05682
 H325 H 0.83700 0.25498 0.26720
 H326 H 0.94737 0.30481 0.16982
 C327 C 0.37112 0.79335 0.58895
 C328 C 0.40586 0.79765 0.56293
 C329 C 0.43781 0.77488 0.57407
 C330 C 0.43600 0.75038 0.61543
 C331 C 0.40060 0.74582 0.64155
 C332 C 0.36761 0.76638 0.62687
 C333 C 0.39914 0.72009 0.68116
 N334 N 0.43143 0.70100 0.69427
 N335 N 0.46495 0.70587 0.67038
 C336 C 0.46838 0.72990 0.63152
 H337 H 0.34599 0.80914 0.57725
 H338 H 0.40670 0.81661 0.53157
 H339 H 0.37276 0.71537 0.70212
 H340 H 0.49653 0.73326 0.61415
 C341 C 0.13407 0.74118 0.13851
 C342 C 0.09993 0.73096 0.11362
 C343 C 0.10122 0.71268 0.06835
 C344 C 0.13786 0.70113 0.05012
 C345 C 0.17263 0.71221 0.07529
 C346 C 0.17052 0.73371 0.11870
 C347 C 0.20869 0.70290 0.05506
 N348 N 0.20981 0.68359 0.01242
 N349 N 0.17735 0.67317 -0.01134
 C350 C 0.14153 0.68134 0.00585
 H351 H 0.13210 0.75763 0.17179
 H352 H 0.07242 0.74034 0.12798
 H353 H 0.23595 0.71081 0.07280
 H354 H 0.11659 0.67212 -0.01543
 C355 C 0.59615 0.28242 0.68118
 C356 C 0.56369 0.27377 0.65260
 C357 C 0.56224 0.24093 0.62235
 C358 C 0.59374 0.21499 0.62313
 C359 C 0.62688 0.22397 0.65246
 C360 C 0.62826 0.25850 0.68057
 C361 C 0.65852 0.19898 0.65087
 N362 N 0.65690 0.16702 0.62211
 N363 N 0.62600 0.15857 0.59450
 C364 C 0.59459 0.18145 0.59378
 H365 H 0.59708 0.30915 0.70211
 H366 H 0.54003 0.29388 0.65269
 H367 H 0.68459 0.20454 0.67205
 H368 H 0.57100 0.17301 0.57002
 C369 C 0.70737 0.14862 0.90868
 C370 C 0.70351 0.11216 0.93103
 C371 C 0.72762 0.08176 0.91783
 C372 C 0.75355 0.08722 0.87828
 C373 C 0.75746 0.12429 0.85565
 C374 C 0.73508 0.15545 0.87221
 C375 C 0.78446 0.12920 0.81773
 N376 N 0.80540 0.09861 0.80289
 N377 N 0.80123 0.06359 0.82352
 C378 C 0.77605 0.05682 0.86062
 H379 H 0.69022 0.17232 0.92186
 H380 H 0.68354 0.10855 0.96115
 H381 H 0.78882 0.15695 0.79949
 H382 H 0.77346 0.02764 0.87544
 C383 C 0.23154 0.65320 0.36288
 C384 C 0.22017 0.62113 0.39128
 C385 C 0.23806 0.58525 0.38571
 C386 C 0.26522 0.58062 0.34776
 C387 C 0.27688 0.61323 0.31911
 C388 C 0.26095 0.65005 0.32822
 C389 C 0.30453 0.60799 0.28237
 N390 N 0.31901 0.57222 0.27472
 N391 N 0.30768 0.54143 0.30125
 C392 C 0.28127 0.54435 0.33740
 H393 H 0.21906 0.68121 0.37001
 H394 H 0.19930 0.62514 0.42007
 H395 H 0.31440 0.63186 0.25931
 H396 H 0.27258 0.51817 0.35706
 C397 C 0.23303 0.91304 0.80729
 C398 C 0.23720 0.94213 0.84211
 C399 C 0.26813 0.94242 0.87530
 C400 C 0.29783 0.91478 0.86972
 C401 C 0.29313 0.88473 0.83452
 C402 C 0.25937 0.88287 0.80486
 C403 C 0.32134 0.85594 0.83220
 N404 N 0.35251 0.85767 0.86223
 N405 N 0.35721 0.88595 0.89481
 C406 C 0.33101 0.91433 0.89973
 H407 H 0.20684 0.91181 0.78536
 H408 H 0.21460 0.96331 0.84507
 H409 H 0.31920 0.83218 0.80670
 H410 H 0.33692 0.93603 0.92699
 C411 C 0.71828 0.36745 0.36644
 C412 C 0.73150 0.40175 0.38854
 C413 C 0.76417 0.40258 0.41917
 C414 C 0.78558 0.36792 0.42465
 C415 C 0.77153 0.33267 0.40241
 C416 C 0.73718 0.33256 0.37398
 C417 C 0.79155 0.29822 0.41090
 N418 N 0.82409 0.29918 0.43863
 N419 N 0.83775 0.33215 0.45873
 C420 C 0.81966 0.36636 0.45291
 H421 H 0.69220 0.36787 0.34435
 H422 H 0.71490 0.42771 0.38320
 H423 H 0.78159 0.27046 0.39606
 H424 H 0.83267 0.39164 0.47022
 C425 C 0.09513 0.26724 0.86414
 C426 C 0.06169 0.27486 0.89027
 C427 C 0.06314 0.29949 0.93078
 C428 C 0.09881 0.32013 0.94172
 C429 C 0.13310 0.31186 0.91518
 C430 C 0.13125 0.28403 0.87747
 C431 C 0.16855 0.33059 0.92862
 N432 N 0.16945 0.35655 0.96554
 N433 N 0.13738 0.36477 0.99002
 C434 C 0.10223 0.34742 0.97954
 H435 H 0.09325 0.24601 0.83515
 H436 H 0.03483 0.25906 0.88079
 H437 H 0.19548 0.32495 0.91002
 H438 H 0.07750 0.35579 1.00050
 C439 C 0.63276 0.70647 0.32504
 C440 C 0.60106 0.71858 0.35156
 C441 C 0.60250 0.75411 0.37696
 C442 C 0.63622 0.77940 0.37206
 C443 C 0.66879 0.76661 0.34524
 C444 C 0.66710 0.72946 0.32268
 C445 C 0.70280 0.79082 0.34359
 N446 N 0.70378 0.82587 0.36615
 N447 N 0.67322 0.83823 0.39056
 C448 C 0.63969 0.81630 0.39444
 H449 H 0.63109 0.67804 0.30789
 H450 H 0.57564 0.69898 0.35402
 H451 H 0.72873 0.78229 0.32481
 H452 H 0.61645 0.82855 0.41470
 C453 C 0.88656 0.73628 0.82863
 C454 C 0.91969 0.72651 0.85450
 C455 C 0.94782 0.75533 0.86827
 C456 C 0.94525 0.79348 0.84796
 C457 C 0.91144 0.80322 0.82152
 C458 C 0.88087 0.77490 0.81458
 C459 C 0.90946 0.84104 0.80207
 N460 N 0.93969 0.86713 0.80792
 N461 N 0.97189 0.85782 0.83143
 C462 C 0.97588 0.82197 0.85120
 H463 H 0.86383 0.71401 0.82277
 H464 H 0.92119 0.69681 0.86765
 H465 H 0.88458 0.84980 0.78123
 H466 H 1.00363 0.81588 0.86739
 C467 C 0.32191 0.21676 0.41927
 C468 C 0.35555 0.21166 0.44651
 C469 C 0.39145 0.22848 0.43167
 C470 C 0.39420 0.24757 0.38634
 C471 C 0.36006 0.25262 0.35864
 C472 C 0.32356 0.23831 0.37631
 C473 C 0.36343 0.27279 0.31447
 N474 N 0.39892 0.28624 0.29893
 N475 N 0.43113 0.28097 0.32462
 C476 C 0.43003 0.26211 0.36773
 H477 H 0.29407 0.20598 0.43330
 H478 H 0.35303 0.19691 0.48108
 H479 H 0.33825 0.27762 0.29198
 H480 H 0.45718 0.25821 0.38667
 C481 C 0.77860 0.89230 0.83457
 C482 C 0.76803 0.92194 0.86571
 C483 C 0.74348 0.91393 0.90514
 C484 C 0.72830 0.87524 0.91254
 C485 C 0.73911 0.84507 0.88064
 C486 C 0.76506 0.85376 0.84205
 C487 C 0.72504 0.80674 0.88985
 N488 N 0.70173 0.79923 0.92852
 N489 N 0.69184 0.82737 0.95878
 C490 C 0.70444 0.86497 0.95234
 H491 H 0.79897 0.89916 0.80560
 H492 H 0.78025 0.95118 0.85997
 H493 H 0.73250 0.78264 0.86686
 H494 H 0.69588 0.88614 0.97872
 C495 C 0.25816 0.37555 0.35552
 C496 C 0.25209 0.41152 0.37673
 C497 C 0.21871 0.41793 0.40460
 C498 C 0.18893 0.38780 0.40704
 C499 C 0.19565 0.35072 0.38593
 C500 C 0.23110 0.34448 0.36128
 C501 C 0.16725 0.32045 0.39201
 N502 N 0.13380 0.32719 0.41606
 N503 N 0.12698 0.36199 0.43481
 C504 C 0.15325 0.39236 0.43130
 H505 H 0.28527 0.37131 0.33644
 H506 H 0.27490 0.43407 0.37334
 H507 H 0.17121 0.29146 0.37801
 H508 H 0.14527 0.41949 0.44720
 C509 C 0.25373 0.16609 0.88196
 C510 C 0.26324 0.13033 0.90194
 C511 C 0.23602 0.09860 0.90264
 C512 C 0.20038 0.10208 0.87634
 C513 C 0.19062 0.13885 0.85688
 C514 C 0.21699 0.17130 0.86153
 C515 C 0.15504 0.14178 0.83203
 N516 N 0.13139 0.10970 0.82571
 N517 N 0.14113 0.07486 0.84204
 C518 C 0.17481 0.06983 0.86653
 H519 H 0.27457 0.19052 0.88463
 H520 H 0.29110 0.12862 0.92013
 H521 H 0.14617 0.16904 0.81655
 H522 H 0.18171 0.04035 0.87604
 C523 C 0.74845 0.59678 0.33057
 C524 C 0.75500 0.56657 0.36278
 C525 C 0.78296 0.57081 0.39953
 C526 C 0.80680 0.60563 0.40144
 C527 C 0.79979 0.63659 0.36863
 C528 C 0.76951 0.63237 0.33410
 C529 C 0.82215 0.67159 0.37300
 N530 N 0.85002 0.67514 0.40758
 N531 N 0.85674 0.64621 0.43827
 C532 C 0.83604 0.61178 0.43656
 H533 H 0.72495 0.59327 0.30458
 H534 H 0.73656 0.54029 0.36056
 H535 H 0.81777 0.69612 0.34928
 H536 H 0.84287 0.58978 0.46267
 C537 C 0.14773 0.74325 0.82037
 C538 C 0.11591 0.73253 0.84953
 C539 C 0.11354 0.74631 0.89721
 C540 C 0.14700 0.76552 0.91823
 C541 C 0.18052 0.77325 0.88948
 C542 C 0.17920 0.76560 0.83915
 C543 C 0.21466 0.78839 0.91202
 N544 N 0.21459 0.79681 0.95981
 N545 N 0.18286 0.79063 0.98672
 C546 C 0.14926 0.77528 0.96777
 H547 H 0.14658 0.73616 0.78225
 H548 H 0.09135 0.71676 0.83316
 H549 H 0.24159 0.79303 0.89218
 H550 H 0.12536 0.76973 0.99226
 C551 C 0.59358 0.25878 0.36339
 C552 C 0.56010 0.25247 0.39099
 C553 C 0.55794 0.22340 0.42688
 C554 C 0.58932 0.19744 0.43118
 C555 C 0.62368 0.20428 0.40307
 C556 C 0.62610 0.23610 0.37036
 C557 C 0.65536 0.17999 0.41019
 N558 N 0.65253 0.15030 0.44247
 N559 N 0.62031 0.14345 0.46831
 C560 C 0.58878 0.16594 0.46393
 H561 H 0.59502 0.28320 0.33847
 H562 H 0.53648 0.27228 0.38631
 H563 H 0.68232 0.18422 0.39037
 H564 H 0.56379 0.15827 0.48579
 C565 C 0.85463 0.27245 0.86828
 C566 C 0.88916 0.28246 0.89234
 C567 C 0.88858 0.29567 0.94019
 C568 C 0.85218 0.30141 0.96314
 C569 C 0.81709 0.29049 0.93881
 C570 C 0.81868 0.27468 0.89179
 C571 C 0.78146 0.29453 0.96302
 N572 N 0.78115 0.30865 1.00875
 N573 N 0.81403 0.31881 1.03180
 C574 C 0.84945 0.31558 1.01071
 H575 H 0.85612 0.26019 0.83228
 H576 H 0.91668 0.27736 0.87462
 H577 H 0.75392 0.28668 0.94593
 H578 H 0.87493 0.32428 1.03141
 C579 C 0.37453 0.77676 0.34678
 C580 C 0.40762 0.78386 0.37524
 C581 C 0.43903 0.75880 0.37347
 C582 C 0.43865 0.72841 0.33864
 C583 C 0.40488 0.72106 0.31008
 C584 C 0.37209 0.74454 0.31572
 C585 C 0.40474 0.68991 0.27705
 N586 N 0.43679 0.66822 0.27232
 N587 N 0.46885 0.67560 0.29837
 C588 C 0.47094 0.70494 0.33121
 H589 H 0.34956 0.79482 0.35168
 H590 H 0.40752 0.80746 0.40125
 H591 H 0.37966 0.68302 0.25451
 H592 H 0.49806 0.71003 0.35046
 C593 C 0.23730 0.88112 0.13792
 C594 C 0.24165 0.91620 0.11275
 C595 C 0.26934 0.92113 0.07566
 C596 C 0.29500 0.89036 0.06615
 C597 C 0.29037 0.85449 0.09188
 C598 C 0.26054 0.84966 0.12697
 C599 C 0.31480 0.82384 0.08014
 N600 N 0.34218 0.82888 0.04518
 N601 N 0.34657 0.86236 0.02104
 C602 C 0.32389 0.89312 0.03015
 H603 H 0.21411 0.87775 0.16433
 H604 H 0.22171 0.93916 0.12070
 H605 H 0.31239 0.79596 0.09843
 H606 H 0.32894 0.91925 0.00918
 C607 C 0.72286 0.38799 0.67181
 C608 C 0.73550 0.41882 0.64252
 C609 C 0.76646 0.41489 0.60997
 C610 C 0.78694 0.37938 0.60979
 C611 C 0.77353 0.34771 0.63949
 C612 C 0.74065 0.35200 0.66966
 C613 C 0.79250 0.31209 0.63644
 N614 N 0.82340 0.30867 0.60651
 N615 N 0.83636 0.33831 0.57915
 C616 C 0.81920 0.37333 0.57956
 H617 H 0.69770 0.39166 0.69482
 H618 H 0.71962 0.44558 0.64370
 H619 H 0.78305 0.28686 0.65738
 H620 H 0.83142 0.39573 0.55638
 C621 C 0.75400 0.09395 0.18706
 C622 C 0.74937 0.06372 0.15380
 C623 C 0.72280 0.06609 0.11551
 C624 C 0.69821 0.09848 0.11285
 C625 C 0.70291 0.12926 0.14693
 C626 C 0.73224 0.12754 0.18297
 C627 C 0.67971 0.16208 0.14182
 N628 N 0.65350 0.16370 0.10530
 N629 N 0.64926 0.13503 0.07316
 C630 C 0.67081 0.10270 0.07542
 H631 H 0.77697 0.09255 0.21381
 H632 H 0.76840 0.03923 0.15630
 H633 H 0.68204 0.18650 0.16637
 H634 H 0.66630 0.08103 0.04760
 C635 C 0.22924 0.66932 0.58864
 C636 C 0.21867 0.63400 0.56633
 C637 C 0.23574 0.59922 0.58055
 C638 C 0.26129 0.59954 0.62081
 C639 C 0.27208 0.63540 0.64332
 C640 C 0.25692 0.67059 0.62582
 C641 C 0.29825 0.63494 0.68247
 N642 N 0.31207 0.60061 0.69822
 N643 N 0.30151 0.56681 0.67750
 C644 C 0.27659 0.56507 0.63944
 H645 H 0.21743 0.69608 0.57503
 H646 H 0.19909 0.63426 0.53561
 H647 H 0.30750 0.66147 0.70099
 H648 H 0.26852 0.53675 0.62466
 C649 C 0.86035 0.70675 0.06785
 C650 C 0.89486 0.70275 0.04194
 C651 C 0.93081 0.71490 0.06190
 C652 C 0.93239 0.72787 0.11044
 C653 C 0.89739 0.73173 0.13689
 C654 C 0.86105 0.72236 0.11463
 C655 C 0.89993 0.74646 0.18428
 N656 N 0.93530 0.75563 0.20393
 N657 N 0.96822 0.75135 0.17933
 C658 C 0.96800 0.73786 0.13329
 H659 H 0.83274 0.69992 0.05022
 H660 H 0.89319 0.69297 0.00474
 H661 H 0.87423 0.75060 0.20599
 H662 H 0.99562 0.73469 0.11513
 C663 C 0.33207 0.24314 0.65512
 C664 C 0.36427 0.23183 0.62853
 C665 C 0.39904 0.25460 0.62876
 C666 C 0.40253 0.28724 0.66025
 C667 C 0.36960 0.29899 0.68668
 C668 C 0.33383 0.27749 0.68254
 C669 C 0.37346 0.33222 0.71627
 N670 N 0.40841 0.35177 0.71985
 N671 N 0.43962 0.34030 0.69586
 C672 C 0.43794 0.30872 0.66634
 H673 H 0.30480 0.22641 0.65174
 H674 H 0.36108 0.20667 0.60498
 H675 H 0.34917 0.34248 0.73706
 H676 H 0.46446 0.30031 0.64873
 C677 C 0.08998 0.21644 0.17331
 C678 C 0.05879 0.22893 0.14608
 C679 C 0.06067 0.26497 0.12190
 C680 C 0.09445 0.29001 0.12775
 C681 C 0.12643 0.27692 0.15533
 C682 C 0.12417 0.23954 0.17736
 C683 C 0.16052 0.30101 0.15806
 N684 N 0.16209 0.33616 0.13566
 N685 N 0.13212 0.34869 0.11025
 C686 C 0.09862 0.32689 0.10529
 H687 H 0.08808 0.18771 0.18972
 H688 H 0.03334 0.20949 0.14246
 H689 H 0.18610 0.29233 0.17745
 H690 H 0.07607 0.33906 0.08373
 C691 C 0.63755 0.74067 0.63657
 C692 C 0.60486 0.74728 0.60841
 C693 C 0.60652 0.77378 0.56972
 C694 C 0.64188 0.79593 0.56141
 C695 C 0.67533 0.78886 0.59020
 C696 C 0.67320 0.76025 0.62712
 C697 C 0.71047 0.80949 0.57962
 N698 N 0.71193 0.83579 0.54304
 N699 N 0.68075 0.84258 0.51614
 C700 C 0.64598 0.82353 0.52385
 H701 H 0.63554 0.71851 0.66452
 H702 H 0.57833 0.73013 0.61561
 H703 H 0.73682 0.80492 0.59996
 H704 H 0.62223 0.83044 0.50041
   
