data_POSCAR
  _audit_creation_date              2014-09-24
  _audit_creation_method            'ToBaCCo'
  _symmetry_space_group_name_H-M    'P1'
  _symmetry_Int_Tables_number       1
  _symmetry_cell_setting            triclinic
  loop_
  _symmetry_equiv_pos_as_xyz
 x,y,z
_cell_length_a 22.8344
_cell_length_b 20.7046
_cell_length_c 24.7128
_cell_angle_alpha 85.069500
_cell_angle_beta 90.692100
_cell_angle_gamma 88.802100
loop_
  _atom_site_label
  _atom_site_type_symbol
  _atom_site_fract_x
  _atom_site_fract_y
  _atom_site_fract_z
C1 C 0.40360 0.39554 0.18460
 N2 N 0.35837 0.43931 0.18032
 C3 C 0.31346 0.43400 0.21593
 N4 N 0.31431 0.38493 0.25616
 C5 C 0.35989 0.34152 0.26090
 N6 N 0.40395 0.34655 0.22465
 C7 C 0.58267 -0.39274 0.24686
 N8 N 0.58586 -0.36075 0.29231
 C9 C 0.63838 -0.35142 0.31637
 N10 N 0.68804 -0.37709 0.29615
 C11 C 0.68496 -0.41067 0.25122
 N12 N 0.63244 -0.41652 0.22594
 C13 C 0.80433 0.13357 0.78841
 N14 N 0.84790 0.17709 0.78926
 C15 C 0.89491 0.17279 0.75653
 N16 N 0.89832 0.12407 0.72309
 C17 C 0.85460 0.08077 0.72153
 N18 N 0.80744 0.08588 0.75399
 C19 C 0.20954 -0.14905 0.79610
 N20 N 0.16268 -0.18739 0.80664
 C21 C 0.11255 -0.17747 0.77679
 N22 N 0.10945 -0.12934 0.73601
 C23 C 0.15631 -0.09187 0.72424
 N24 N 0.20650 -0.10188 0.75420
 C25 C 0.58984 -0.39758 0.81506
 N26 N 0.64187 -0.42192 0.83642
 C27 C 0.69145 -0.41560 0.80649
 N28 N 0.68930 -0.38097 0.75724
 C29 C 0.63823 -0.35430 0.73690
 N30 N 0.58834 -0.36433 0.76520
 C31 C 0.39068 0.37202 0.76902
 N32 N 0.34459 0.41501 0.76395
 C33 C 0.30388 0.41069 0.72395
 N34 N 0.30949 0.36385 0.68927
 C35 C 0.35480 0.32043 0.69453
 N36 N 0.39528 0.32434 0.73467
 C37 C 0.20261 -0.13451 0.20139
 N38 N 0.15494 -0.17102 0.19372
 C39 C 0.10470 -0.16117 0.22096
 N40 N 0.10239 -0.11441 0.25624
 C41 C 0.15014 -0.07865 0.26515
 N42 N 0.20029 -0.08887 0.23777
 C43 C 0.80909 0.14952 0.21442
 N44 N 0.85276 0.19321 0.20919
 C45 C 0.90041 0.18667 0.24305
 N46 N 0.90405 0.13600 0.28193
 C47 C 0.85998 0.09316 0.28811
 N48 N 0.81255 0.10029 0.25445
 O49 O 0.25717 0.20026 0.42863
 O50 O 0.17909 0.10669 0.53727
 O51 O 0.25902 0.19393 0.53418
 O52 O 0.17881 0.11055 0.43176
 O53 O 0.24956 0.03586 0.43426
 O54 O 0.32939 0.11867 0.53781
 O55 O 0.24992 0.03193 0.54190
 O56 O 0.32780 0.12531 0.43279
 Cu57 Cu 0.21146 0.16043 0.48253
 Cu58 Cu 0.29590 0.06985 0.48682
 C59 C 0.30578 0.17885 0.41239
 C60 C 0.20186 0.05414 0.55884
 C61 C 0.30744 0.17046 0.55365
 C62 C 0.20105 0.05937 0.41505
 O63 O 0.83018 -0.12564 0.56836
 O64 O 0.75534 -0.21593 0.46622
 O65 O 0.83128 -0.12186 0.46289
 O66 O 0.75181 -0.21694 0.57096
 O67 O 0.67976 -0.14360 0.56421
 O68 O 0.75835 -0.04974 0.45600
 O69 O 0.68277 -0.14327 0.46188
 O70 O 0.75744 -0.05328 0.56341
 Cu71 Cu 0.79959 -0.17720 0.51767
 Cu72 Cu 0.71292 -0.08930 0.51055
 C73 C 0.80639 -0.07436 0.58344
 C74 C 0.70529 -0.19589 0.44818
 C75 C 0.80803 -0.06964 0.44097
 C76 C 0.70154 -0.19710 0.58483
 O77 O 0.53291 0.27596 0.04048
 O78 O 0.61363 0.18329 -0.05597
 O79 O 0.61595 0.18883 0.04910
 O80 O 0.52814 0.26801 -0.06374
 O81 O 0.59107 0.34779 -0.07281
 O82 O 0.68032 0.26708 0.04058
 O83 O 0.67802 0.26141 -0.06584
 O84 O 0.59621 0.35529 0.02965
 Cu85 Cu 0.56647 0.22104 -0.00655
 Cu86 Cu 0.64357 0.31531 -0.01831
 C87 C 0.55014 0.33164 0.05071
 C88 C 0.65946 0.20685 -0.07759
 C89 C 0.66246 0.21450 0.06464
 C90 C 0.54378 0.32196 -0.08663
 O91 O 0.46950 0.69172 0.07546
 O92 O 0.40098 0.78549 -0.04270
 O93 O 0.39857 0.79112 0.06238
 O94 O 0.47459 0.68772 -0.02942
 O95 O 0.39910 0.62248 -0.02701
 O96 O 0.32323 0.72565 0.06560
 O97 O 0.32590 0.71968 -0.03809
 O98 O 0.39375 0.62681 0.08089
 Cu99 Cu 0.44358 0.74534 0.01603
 Cu100 Cu 0.35343 0.66607 0.02082
 C101 C 0.44222 0.64497 0.09933
 C102 C 0.35165 0.76855 -0.06043
 C103 C 0.34816 0.77595 0.07976
 C104 C 0.44887 0.63893 -0.04529
 O105 O 0.07555 0.51448 0.16354
 O106 O -0.08400 0.52606 0.16823
 O107 O 0.00069 0.60925 0.16535
 O108 O -0.00950 0.42972 0.17580
 O109 O -0.00263 0.42909 0.26512
 O110 O 0.00373 0.60557 0.25505
 O111 O -0.08052 0.52486 0.25773
 O112 O 0.08156 0.51170 0.25305
 Cu113 Cu -0.00468 0.51982 0.15927
 Cu114 Cu 0.00104 0.51723 0.26666
 C115 C 0.10584 0.51209 0.20694
 C116 C -0.10953 0.52814 0.21325
 C117 C 0.00366 0.63748 0.20903
 C118 C -0.00788 0.39923 0.22280
 O119 O 0.02488 0.57578 0.82635
 O120 O 0.00228 0.40089 0.81447
 O121 O 0.09044 0.47965 0.79913
 O122 O -0.06218 0.49670 0.84588
 O123 O -0.09128 0.51537 0.76028
 O124 O 0.06050 0.50740 0.71484
 O125 O -0.02218 0.42363 0.72801
 O126 O -0.01026 0.59700 0.74280
 Cu127 Cu 0.01681 0.48577 0.83018
 Cu128 Cu -0.01892 0.51246 0.72799
 C129 C 0.01021 0.61597 0.78642
 C130 C -0.01267 0.38283 0.76852
 C131 C 0.10136 0.49185 0.74903
 C132 C -0.10255 0.50975 0.81061
 N133 N 0.50533 0.43413 0.07817
 N134 N 0.46501 0.45094 0.11257
 C135 C 0.44958 0.39762 0.14371
 C136 C 0.48054 0.34442 0.12806
 C137 C 0.51514 0.36962 0.08629
 H138 H 0.47633 0.29407 0.14306
 H139 H 0.52336 0.46579 0.04795
 H140 H 0.44732 0.49765 0.11354
 N141 N 0.43587 0.62243 0.19819
 N142 N 0.47692 0.61641 0.24064
 C143 C 0.52957 0.60480 0.21906
 C144 C 0.52357 0.60287 0.16331
 C145 C 0.46481 0.61621 0.15170
 H146 H 0.55861 0.60209 0.13421
 H147 H 0.39296 0.63997 0.20153
 H148 H 0.46819 0.62512 0.28080
 N149 N 0.67243 0.11474 -0.13526
 N150 N 0.71037 0.09556 -0.17087
 C151 C 0.75382 0.13860 -0.17578
 C152 C 0.74311 0.18737 -0.14191
 C153 C 0.69102 0.17037 -0.11700
 H154 H 0.76934 0.22931 -0.13634
 H155 H 0.63435 0.09019 -0.12407
 H156 H 0.70640 0.05368 -0.19125
 N157 N 0.34858 0.85522 -0.13719
 N158 N 0.30846 0.87799 -0.17786
 C159 C 0.26020 0.84178 -0.17180
 C160 C 0.26832 0.79561 -0.12806
 C161 C 0.32381 0.80570 -0.10753
 H162 H 0.23755 0.75965 -0.11265
 H163 H 0.39010 0.87394 -0.13149
 H164 H 0.31530 0.91680 -0.20681
 N165 N 0.19881 0.54051 0.16108
 N166 N 0.25413 0.52057 0.16381
 C167 C 0.26123 0.47643 0.20684
 C168 C 0.20828 0.46909 0.23350
 C169 C 0.16980 0.51012 0.20266
 H170 H 0.19786 0.43403 0.26685
 H171 H 0.18082 0.57230 0.12984
 H172 H 0.28541 0.53421 0.13477
 N173 N -0.01524 0.73094 0.76027
 N174 N 0.01227 0.78650 0.75752
 C175 C 0.06408 0.77735 0.78398
 C176 C 0.06910 0.71348 0.80585
 C177 C 0.01828 0.68553 0.78890
 H178 H 0.10779 0.68876 0.82383
 H179 H -0.05411 0.72329 0.73926
 H180 H -0.00225 0.82836 0.73418
 N181 N -0.20736 0.51679 0.17176
 N182 N -0.26502 0.53400 0.18252
 C183 C -0.26491 0.56284 0.22940
 C184 C -0.20800 0.56350 0.25012
 C185 C -0.17355 0.53445 0.21271
 H186 H -0.19327 0.58452 0.28639
 H187 H -0.19362 0.49534 0.13721
 H188 H -0.30085 0.52719 0.15710
 N189 N 0.00847 0.28335 0.72290
 N190 N -0.01816 0.22386 0.71923
 C191 C -0.06271 0.22049 0.75459
 C192 C -0.06415 0.27592 0.78269
 C193 C -0.01943 0.31400 0.76130
 H194 H -0.09709 0.28977 0.81092
 H195 H 0.04087 0.30226 0.69700
 H196 H -0.00785 0.19125 0.69060
 N197 N 0.38938 0.19880 0.35000
 N198 N 0.40369 0.24189 0.31010
 C199 C 0.36051 0.28732 0.30321
 C200 C 0.31684 0.27278 0.34033
 C201 C 0.33688 0.21616 0.36908
 H202 H 0.27582 0.29877 0.34492
 H203 H 0.41498 0.15801 0.36336
 H204 H 0.44208 0.23957 0.28772
 N205 N 0.89490 -0.03981 0.63237
 N206 N 0.90774 0.00194 0.66808
 C207 C 0.85763 0.02994 0.68361
 C208 C 0.81081 0.00555 0.65625
 C209 C 0.83647 -0.03826 0.62385
 H210 H 0.76491 0.01910 0.65839
 H211 H 0.92590 -0.06736 0.61311
 H212 H 0.95012 0.01113 0.68133
 N213 N 0.11471 0.02437 0.61427
 N214 N 0.10279 -0.01401 0.65806
 C215 C 0.15294 -0.04318 0.67751
 C216 C 0.19874 -0.02337 0.64432
 C217 C 0.17244 0.01920 0.60455
 H218 H 0.24437 -0.03854 0.64804
 H219 H 0.08358 0.05265 0.59110
 H220 H 0.06096 -0.02014 0.67410
 N221 N 0.61292 -0.22654 0.40476
 N222 N 0.59488 -0.26937 0.37209
 C223 C 0.64123 -0.30571 0.35859
 C224 C 0.69114 -0.28551 0.38435
 C225 C 0.67106 -0.23485 0.41295
 H226 H 0.73576 -0.30329 0.38108
 H227 H 0.58568 -0.19207 0.42090
 H228 H 0.55175 -0.27203 0.35803
 N229 N 0.44390 0.60559 -0.13770
 N230 N 0.48456 0.60099 -0.17881
 C231 C 0.53829 0.59679 -0.15559
 C232 C 0.53343 0.59899 -0.09981
 C233 C 0.47378 0.60674 -0.09052
 H234 H 0.56883 0.60511 -0.07128
 H235 H 0.39976 0.61841 -0.14442
 H236 H 0.47436 0.60490 -0.22030
 N237 N 0.49645 0.42022 -0.13506
 N238 N 0.45403 0.43329 -0.17150
 C239 C 0.43590 0.37716 -0.18904
 C240 C 0.46755 0.32606 -0.16239
 C241 C 0.50536 0.35549 -0.12842
 H242 H 0.46284 0.27474 -0.16627
 H243 H 0.51739 0.45489 -0.11389
 H244 H 0.43799 0.47977 -0.18419
 N245 N 0.34341 0.86586 0.14062
 N246 N 0.30253 0.89035 0.17555
 C247 C 0.25361 0.85542 0.17250
 C248 C 0.26202 0.80842 0.13634
 C249 C 0.31850 0.81647 0.11746
 H250 H 0.23121 0.77246 0.12550
 H251 H 0.38587 0.88270 0.13486
 H252 H 0.30962 0.92888 0.19931
 N253 N 0.67645 0.12825 0.14004
 N254 N 0.71454 0.11149 0.17958
 C255 C 0.75815 0.15441 0.17713
 C256 C 0.74729 0.20086 0.13399
 C257 C 0.69491 0.18222 0.11152
 H258 H 0.77372 0.24188 0.12075
 H259 H 0.63842 0.10292 0.13291
 H260 H 0.71063 0.07102 0.20750
 N261 N -0.18634 0.50262 0.87567
 N262 N -0.24504 0.52370 0.87409
 C263 C -0.25539 0.55561 0.82489
 C264 C -0.20498 0.55485 0.79438
 C265 C -0.16316 0.52131 0.82707
 H266 H -0.19924 0.57622 0.75327
 H267 H -0.16525 0.47671 0.90870
 H268 H -0.27454 0.51601 0.90586
 N269 N 0.01705 0.29124 0.26836
 N270 N -0.00981 0.23135 0.27493
 C271 C -0.05650 0.23373 0.24087
 C272 C -0.05912 0.29371 0.21055
 C273 C -0.01303 0.32851 0.22979
 H274 H -0.09417 0.31249 0.18335
 H275 H 0.05053 0.30600 0.29337
 H276 H 0.00185 0.19431 0.30475
 N277 N 0.17597 0.49923 0.67680
 N278 N 0.23037 0.47882 0.67035
 C279 C 0.25205 0.45366 0.71869
 C280 C 0.20950 0.45811 0.75784
 C281 C 0.16158 0.48654 0.72927
 H282 H 0.21077 0.43651 0.79932
 H283 H 0.14821 0.51770 0.64501
 H284 H 0.25085 0.47834 0.63281
 N285 N -0.02200 0.74408 0.24033
 N286 N 0.00819 0.80112 0.24532
 C287 C 0.05767 0.79763 0.21647
 C288 C 0.05884 0.74047 0.19073
 C289 C 0.00903 0.70780 0.20768
 H290 H 0.09546 0.72060 0.16964
 H291 H -0.05742 0.72893 0.26421
 H292 H -0.00294 0.83573 0.27202
 N293 N 0.60938 -0.22707 0.63238
 N294 N 0.59204 -0.27018 0.67107
 C295 C 0.63833 -0.30819 0.68827
 C296 C 0.68725 -0.28881 0.65887
 C297 C 0.66698 -0.23691 0.62419
 H298 H 0.73179 -0.30750 0.66396
 H299 H 0.58223 -0.19099 0.61263
 H300 H 0.54975 -0.27168 0.68669
 N301 N 0.11237 0.03417 0.36175
 N302 N 0.09894 -0.00227 0.32223
 C303 C 0.14821 -0.03192 0.30658
 C304 C 0.19500 -0.01435 0.33791
 C305 C 0.17024 0.02736 0.37259
 H306 H 0.24030 -0.03049 0.33637
 H307 H 0.08213 0.06220 0.38147
 H308 H 0.05673 -0.00670 0.30642
 N309 N 0.89825 -0.03102 0.39358
 N310 N 0.91213 0.01296 0.35407
 C311 C 0.86242 0.04088 0.33236
 C312 C 0.81483 0.01420 0.35966
 C313 C 0.83953 -0.03099 0.39836
 H314 H 0.76894 0.02711 0.35326
 H315 H 0.92866 -0.05911 0.41776
 H316 H 0.95491 0.02369 0.34248
 N317 N 0.38839 0.18302 0.62067
 N318 N 0.40097 0.22270 0.65817
 C319 C 0.35840 0.26883 0.65751
 C320 C 0.31718 0.25829 0.61803
 C321 C 0.33768 0.20345 0.59573
 H322 H 0.27706 0.28570 0.60790
 H323 H 0.41370 0.14227 0.61304
 H324 H 0.43762 0.21760 0.68400
   
