data_POSCAR
  _audit_creation_date              2014-09-24
  _audit_creation_method            'ToBaCCo'
  _symmetry_space_group_name_H-M    'P1'
  _symmetry_Int_Tables_number       1
  _symmetry_cell_setting            triclinic
  loop_
  _symmetry_equiv_pos_as_xyz
 x,y,z
_cell_length_a 49.2295
_cell_length_b 49.6240
_cell_length_c 49.6019
_cell_angle_alpha 90.281100
_cell_angle_beta 89.985300
_cell_angle_gamma 90.003400
loop_
  _atom_site_label
  _atom_site_type_symbol
  _atom_site_fract_x
  _atom_site_fract_y
  _atom_site_fract_z
N1 N 0.30137 0.25230 0.22959
 N2 N 0.29125 0.27567 0.22237
 C3 C 0.30445 0.28441 0.20030
 C4 C 0.32400 0.26554 0.19331
 C5 C 0.32144 0.24544 0.21244
 H6 H 0.30000 0.30302 0.19000
 H7 H 0.33270 0.22677 0.21331
 Cu8 Cu 0.26125 0.29242 0.24169
 Cu9 Cu 0.28688 0.23193 0.25978
 Cu10 Cu 0.23023 0.25813 0.29161
 N11 N 0.22779 0.30516 0.25830
 N12 N 0.21598 0.29184 0.27786
 C13 C 0.19304 0.30468 0.28506
 C14 C 0.19008 0.32735 0.26908
 C15 C 0.21266 0.32694 0.25230
 H16 H 0.17930 0.29754 0.30041
 H17 H 0.21746 0.34101 0.23645
 N18 N 0.24750 0.22426 0.30277
 N19 N 0.26919 0.21433 0.29072
 C20 C 0.27575 0.19078 0.30240
 C21 C 0.25725 0.18550 0.32283
 C22 C 0.23966 0.20730 0.32240
 H23 H 0.29255 0.17825 0.29612
 H24 H 0.22219 0.21049 0.33519
 H25 H 0.24811 0.24710 0.25523
 H26 H 0.27044 0.26395 0.28073
 N27 N 0.69655 -0.24890 0.22955
 N28 N 0.70915 -0.26981 0.21913
 C29 C 0.69861 -0.27531 0.19474
 C30 C 0.67805 -0.25685 0.18935
 C31 C 0.67740 -0.24039 0.21217
 H32 H 0.70559 -0.29166 0.18208
 H33 H 0.66427 -0.22334 0.21601
 Cu34 Cu 0.73795 -0.28841 0.23836
 Cu35 Cu 0.70629 -0.23475 0.26499
 Cu36 Cu 0.77222 -0.25109 0.28339
 N37 N 0.77125 -0.30145 0.25481
 N38 N 0.78454 -0.28664 0.27237
 C39 C 0.80763 -0.29924 0.27924
 C40 C 0.80917 -0.32351 0.26517
 C41 C 0.78545 -0.32414 0.24987
 H42 H 0.82247 -0.29065 0.29282
 H43 H 0.77917 -0.33949 0.23566
 N44 N 0.75191 -0.22098 0.29959
 N45 N 0.72659 -0.21518 0.29314
 C46 C 0.71851 -0.19359 0.30755
 C47 C 0.73980 -0.18539 0.32398
 C48 C 0.76058 -0.20335 0.31838
 H49 H 0.69869 -0.18439 0.30583
 H50 H 0.78076 -0.20334 0.32693
 H51 H 0.74438 -0.24183 0.25293
 H52 H 0.73284 -0.26379 0.28109
 N53 N 0.69769 0.25307 0.77511
 N54 N 0.70975 0.27455 0.78509
 C55 C 0.69584 0.28316 0.80682
 C56 C 0.67394 0.26606 0.81098
 C57 C 0.67579 0.24724 0.79029
 H58 H 0.70165 0.30026 0.81907
 H59 H 0.66280 0.22997 0.78701
 Cu60 Cu 0.74345 0.28809 0.76973
 Cu61 Cu 0.71215 0.23348 0.74408
 Cu62 Cu 0.77177 0.25786 0.71600
 N63 N 0.77689 0.30169 0.75385
 N64 N 0.78768 0.28974 0.73272
 C65 C 0.81084 0.30240 0.72608
 C66 C 0.81512 0.32356 0.74407
 C67 C 0.79290 0.32243 0.76136
 H68 H 0.82379 0.29601 0.70968
 H69 H 0.78879 0.33539 0.77844
 N70 N 0.75268 0.22584 0.70195
 N71 N 0.73001 0.21655 0.71262
 C72 C 0.72263 0.19401 0.69929
 C73 C 0.74159 0.18870 0.67923
 C74 C 0.76028 0.20946 0.68157
 H75 H 0.70500 0.18209 0.70426
 H76 H 0.77850 0.21214 0.66977
 H77 H 0.75239 0.24373 0.75023
 H78 H 0.73219 0.26579 0.72734
 N79 N 0.29843 -0.24251 0.77951
 N80 N 0.28616 -0.26344 0.79012
 C81 C 0.29928 -0.27057 0.81279
 C82 C 0.32103 -0.25321 0.81674
 C83 C 0.31978 -0.23564 0.79509
 H84 H 0.29309 -0.28693 0.82568
 H85 H 0.33323 -0.21896 0.79097
 Cu86 Cu 0.25385 -0.27905 0.77366
 Cu87 Cu 0.28515 -0.22512 0.74684
 Cu88 Cu 0.22808 -0.25306 0.71678
 N89 N 0.22211 -0.29487 0.75630
 N90 N 0.21233 -0.28459 0.73398
 C91 C 0.19016 -0.29853 0.72651
 C92 C 0.18547 -0.31881 0.74519
 C93 C 0.20641 -0.31579 0.76381
 H94 H 0.17816 -0.29367 0.70898
 H95 H 0.20985 -0.32760 0.78171
 N96 N 0.24676 -0.22113 0.70234
 N97 N 0.26849 -0.21051 0.71374
 C98 C 0.27582 -0.18843 0.69985
 C99 C 0.25782 -0.18481 0.67863
 C100 C 0.23970 -0.20606 0.68092
 H101 H 0.29265 -0.17556 0.70529
 H102 H 0.22230 -0.21003 0.66825
 H103 H 0.24504 -0.23625 0.75127
 H104 H 0.26721 -0.25910 0.73089
 N105 N 0.69605 -0.25601 0.76804
 N106 N 0.70628 -0.27938 0.77514
 C107 C 0.69447 -0.28732 0.79829
 C108 C 0.67567 -0.26790 0.80594
 C109 C 0.67726 -0.24838 0.78616
 H110 H 0.69924 -0.30584 0.80873
 H111 H 0.66605 -0.22968 0.78530
 Cu112 Cu 0.73446 -0.29693 0.75381
 Cu113 Cu 0.70854 -0.23643 0.73668
 Cu114 Cu 0.76641 -0.26066 0.70574
 N115 N 0.77012 -0.30698 0.74013
 N116 N 0.78242 -0.29279 0.72148
 C117 C 0.80661 -0.30408 0.71592
 C118 C 0.80994 -0.32666 0.73212
 C119 C 0.78616 -0.32774 0.74726
 H120 H 0.82063 -0.29612 0.70121
 H121 H 0.78076 -0.34233 0.76247
 N122 N 0.74681 -0.22853 0.69297
 N123 N 0.72453 -0.21953 0.70470
 C124 C 0.71605 -0.19726 0.69187
 C125 C 0.73390 -0.19178 0.67104
 C126 C 0.75312 -0.21215 0.67232
 H127 H 0.69829 -0.18578 0.69750
 H128 H 0.77079 -0.21449 0.65962
 H129 H 0.72628 -0.26786 0.71521
 H130 H 0.74768 -0.25138 0.74204
 N131 N 0.30251 0.24862 0.77153
 N132 N 0.28994 0.26975 0.78154
 C133 C 0.30160 0.27656 0.80516
 C134 C 0.32262 0.25867 0.81034
 C135 C 0.32252 0.24123 0.78841
 H136 H 0.29491 0.29306 0.81778
 H137 H 0.33563 0.22408 0.78509
 Cu138 Cu 0.25891 0.28563 0.76320
 Cu139 Cu 0.29115 0.23134 0.73812
 Cu140 Cu 0.23628 0.25950 0.70470
 N141 N 0.22861 0.30174 0.74389
 N142 N 0.21986 0.29142 0.72105
 C143 C 0.19818 0.30556 0.71259
 C144 C 0.19295 0.32594 0.73113
 C145 C 0.21280 0.32286 0.75071
 H146 H 0.18684 0.30102 0.69448
 H147 H 0.21499 0.33453 0.76902
 N148 N 0.25563 0.22721 0.69143
 N149 N 0.27661 0.21670 0.70413
 C150 C 0.28463 0.19430 0.69099
 C151 C 0.26788 0.19029 0.66889
 C152 C 0.24974 0.21169 0.66984
 H153 H 0.30108 0.18152 0.69753
 H154 H 0.23292 0.21524 0.65635
 H155 H 0.27435 0.26534 0.72117
 H156 H 0.25080 0.24282 0.74014
 N157 N 0.30864 -0.25977 0.22776
 N158 N 0.29580 -0.28054 0.21733
 C159 C 0.30909 -0.28881 0.19506
 C160 C 0.33148 -0.27227 0.19120
 C161 C 0.33048 -0.25410 0.21249
 H162 H 0.30248 -0.30519 0.18225
 H163 H 0.34396 -0.23729 0.21612
 Cu164 Cu 0.26167 -0.29322 0.23255
 Cu165 Cu 0.29516 -0.24042 0.25923
 Cu166 Cu 0.23449 -0.26256 0.28683
 N167 N 0.22759 -0.30547 0.24819
 N168 N 0.21704 -0.29326 0.26928
 C169 C 0.19315 -0.30489 0.27536
 C170 C 0.18828 -0.32562 0.25709
 C171 C 0.21072 -0.32532 0.24014
 H172 H 0.18015 -0.29832 0.29165
 H173 H 0.21439 -0.33833 0.22302
 N174 N 0.25527 -0.23187 0.30167
 N175 N 0.27834 -0.22349 0.29109
 C176 C 0.28694 -0.20162 0.30480
 C177 C 0.26841 -0.19583 0.32501
 C178 C 0.24863 -0.21555 0.32244
 H179 H 0.30518 -0.19049 0.30011
 H180 H 0.23023 -0.21729 0.33419
 H181 H 0.27360 -0.27223 0.27547
 H182 H 0.25447 -0.24896 0.25293
 N183 N 0.69550 0.24879 0.22577
 N184 N 0.70855 0.26906 0.21484
 C185 C 0.69623 0.27569 0.19158
 C186 C 0.67421 0.25864 0.18762
 C187 C 0.67446 0.24184 0.20987
 H188 H 0.70321 0.29138 0.17823
 H189 H 0.66075 0.22541 0.21404
 Cu190 Cu 0.74115 0.28399 0.23133
 Cu191 Cu 0.70780 0.23181 0.25881
 Cu192 Cu 0.76620 0.25736 0.28842
 N193 N 0.77368 0.29840 0.24838
 N194 N 0.78335 0.28787 0.27065
 C195 C 0.80609 0.30112 0.27777
 C196 C 0.81112 0.32114 0.25897
 C197 C 0.79000 0.31872 0.24059
 H198 H 0.81815 0.29619 0.29522
 H199 H 0.78687 0.33067 0.22270
 N200 N 0.74585 0.22662 0.30330
 N201 N 0.72341 0.21723 0.29216
 C202 C 0.71491 0.19565 0.30611
 C203 C 0.73289 0.19099 0.32703
 C204 C 0.75222 0.21115 0.32465
 H205 H 0.69725 0.18381 0.30094
 H206 H 0.77017 0.21375 0.33690
 H207 H 0.72757 0.26520 0.27449
 H208 H 0.74856 0.24123 0.25412
 C209 C 0.25264 -0.00552 0.42473
 C210 C 0.24833 0.01923 0.43760
 C211 C 0.24523 0.02001 0.46572
 C212 C 0.24889 -0.00343 0.48149
 C213 C 0.25412 -0.02802 0.46782
 C214 C 0.25542 -0.02924 0.43957
 C215 C 0.24892 -0.00196 0.51188
 C216 C 0.24572 -0.02544 0.52774
 C217 C 0.24885 -0.02446 0.55586
 C218 C 0.25276 0.00042 0.56861
 C219 C 0.25513 0.02411 0.55368
 C220 C 0.25375 0.02277 0.52546
 H221 H 0.25385 -0.00626 0.40291
 H222 H 0.24078 0.03924 0.47499
 H223 H 0.25824 -0.04632 0.47878
 H224 H 0.24164 -0.04479 0.51856
 H225 H 0.25410 0.00126 0.59041
 H226 H 0.25760 0.04109 0.51447
 C227 C 0.74774 -0.00096 0.57360
 C228 C 0.75169 0.02381 0.56087
 C229 C 0.75454 0.02454 0.53270
 C230 C 0.75095 0.00098 0.51681
 C231 C 0.74605 -0.02358 0.53040
 C232 C 0.74502 -0.02474 0.55864
 C233 C 0.75041 0.00220 0.48640
 C234 C 0.75335 -0.02145 0.47051
 C235 C 0.74930 -0.02092 0.44250
 C236 C 0.74485 0.00375 0.42980
 C237 C 0.74296 0.02766 0.44468
 C238 C 0.74521 0.02674 0.47287
 H239 H 0.74668 -0.00167 0.59542
 H240 H 0.75865 0.04378 0.52349
 H241 H 0.74193 -0.04195 0.51940
 H242 H 0.75797 -0.04061 0.47963
 H243 H 0.74295 0.00430 0.40804
 H244 H 0.74182 0.04523 0.48390
 C245 C 0.42398 0.25310 0.00268
 C246 C 0.43886 0.25578 0.02653
 C247 C 0.46733 0.25487 0.02546
 C248 C 0.48121 0.25015 0.00086
 C249 C 0.46542 0.24673 -0.02276
 C250 C 0.43704 0.24939 -0.02210
 C251 C 0.51183 0.25028 -0.00033
 C252 C 0.52570 0.25516 -0.02487
 C253 C 0.55415 0.25656 -0.02584
 C254 C 0.56899 0.25411 -0.00196
 C255 C 0.55594 0.25006 0.02272
 C256 C 0.52762 0.24698 0.02329
 H257 H 0.40199 0.25393 0.00333
 H258 H 0.47825 0.25887 0.04390
 H259 H 0.47485 0.24277 -0.04201
 H260 H 0.51480 0.25894 -0.04334
 H261 H 0.59097 0.25542 -0.00252
 H262 H 0.51824 0.24281 0.04248
 C263 C 0.57760 0.74833 -0.00211
 C264 C 0.56442 0.75186 0.02262
 C265 C 0.53599 0.75427 0.02311
 C266 C 0.52033 0.75072 -0.00062
 C267 C 0.53436 0.74612 -0.02512
 C268 C 0.56285 0.74546 -0.02603
 C269 C 0.48969 0.75016 0.00039
 C270 C 0.47386 0.75338 -0.02327
 C271 C 0.44556 0.74989 -0.02271
 C272 C 0.43258 0.74543 0.00192
 C273 C 0.44746 0.74306 0.02578
 C274 C 0.47587 0.74490 0.02485
 H275 H 0.59960 0.74776 -0.00269
 H276 H 0.52642 0.75816 0.04231
 H277 H 0.52354 0.74202 -0.04361
 H278 H 0.48320 0.75786 -0.04242
 H279 H 0.41062 0.74383 0.00246
 H280 H 0.48682 0.74116 0.04329
 C281 C -0.00002 0.42856 0.25319
 C282 C 0.02406 0.44338 0.25478
 C283 C 0.02307 0.47152 0.25251
 C284 C -0.00172 0.48511 0.24754
 C285 C -0.02559 0.46932 0.24509
 C286 C -0.02495 0.44135 0.24914
 C287 C -0.00288 0.51548 0.24675
 C288 C -0.02758 0.52938 0.25147
 C289 C -0.02846 0.55761 0.25250
 C290 C -0.00439 0.57227 0.24977
 C291 C 0.02045 0.55922 0.24586
 C292 C 0.02096 0.53106 0.24308
 H293 H 0.00059 0.40681 0.25515
 H294 H 0.04174 0.48245 0.25578
 H295 H -0.04501 0.47846 0.24086
 H296 H -0.04622 0.51870 0.25556
 H297 H -0.00493 0.59409 0.25092
 H298 H 0.04030 0.52165 0.23899
 C299 C -0.00087 0.57267 0.74805
 C300 C 0.02404 0.55982 0.75197
 C301 C 0.02474 0.53175 0.75518
 C302 C 0.00091 0.51598 0.75229
 C303 C -0.02393 0.52967 0.74768
 C304 C -0.02492 0.55788 0.74600
 C305 C 0.00219 0.48557 0.75248
 C306 C -0.02155 0.46984 0.75613
 C307 C -0.02086 0.44168 0.75325
 C308 C 0.00406 0.42879 0.74918
 C309 C 0.02800 0.44358 0.74622
 C310 C 0.02693 0.47183 0.74739
 H311 H -0.00149 0.59445 0.74654
 H312 H 0.04418 0.52255 0.75915
 H313 H -0.04261 0.51880 0.74426
 H314 H -0.04092 0.47913 0.76034
 H315 H 0.00475 0.40697 0.74804
 H316 H 0.04546 0.48266 0.74320
 C317 C 0.37618 0.26511 0.12405
 C318 C 0.35330 0.28199 0.12448
 C319 C 0.33659 0.28243 0.14738
 C320 C 0.34248 0.26595 0.16969
 C321 C 0.36574 0.24938 0.16900
 C322 C 0.38265 0.24887 0.14622
 C323 C 0.39334 0.26395 0.09969
 C324 C 0.41593 0.24667 0.09902
 C325 C 0.43149 0.24482 0.07536
 C326 C 0.42433 0.25988 0.05244
 C327 C 0.40204 0.27765 0.05377
 C328 C 0.38640 0.27967 0.07727
 C329 C 0.40569 0.23219 0.14501
 C330 C 0.42204 0.23110 0.12181
 C331 C 0.34732 0.29778 0.10181
 C332 C 0.36360 0.29663 0.07860
 H333 H 0.41097 0.21965 0.16203
 H334 H 0.43943 0.21773 0.12160
 H335 H 0.32975 0.31091 0.10189
 H336 H 0.35810 0.30888 0.06143
 H337 H 0.31867 0.29507 0.14745
 H338 H 0.37070 0.23685 0.18612
 H339 H 0.44848 0.23095 0.07440
 H340 H 0.39665 0.28959 0.03633
 C341 C 0.62920 0.74712 0.11929
 C342 C 0.62493 0.76579 0.14018
 C343 C 0.64120 0.76453 0.16343
 C344 C 0.66168 0.74466 0.16598
 C345 C 0.66546 0.72614 0.14453
 C346 C 0.64938 0.72730 0.12130
 C347 C 0.61226 0.74836 0.09478
 C348 C 0.61676 0.72971 0.07391
 C349 C 0.60086 0.73104 0.05060
 C350 C 0.58056 0.75088 0.04789
 C351 C 0.57604 0.76928 0.06916
 C352 C 0.59197 0.76815 0.09267
 C353 C 0.65315 0.70892 0.09999
 C354 C 0.63711 0.71011 0.07668
 C355 C 0.60443 0.78533 0.13737
 C356 C 0.58823 0.78647 0.11406
 H357 H 0.66867 0.69349 0.10131
 H358 H 0.64072 0.69559 0.06069
 H359 H 0.60088 0.79989 0.15334
 H360 H 0.57267 0.80185 0.11275
 H361 H 0.63770 0.77906 0.17937
 H362 H 0.68087 0.71068 0.14557
 H363 H 0.60415 0.71648 0.03457
 H364 H 0.56054 0.78465 0.06720
 C365 C 0.61883 0.26613 -0.12184
 C366 C 0.61360 0.24919 -0.14397
 C367 C 0.63137 0.24955 -0.16615
 C368 C 0.65431 0.26662 -0.16622
 C369 C 0.65883 0.28380 -0.14394
 C370 C 0.64127 0.28355 -0.12171
 C371 C 0.60087 0.26512 -0.09805
 C372 C 0.60669 0.28148 -0.07562
 C373 C 0.59051 0.27942 -0.05252
 C374 C 0.56878 0.26099 -0.05158
 C375 C 0.56257 0.24541 -0.07459
 C376 C 0.57874 0.24725 -0.09786
 C377 C 0.64605 0.30004 -0.09911
 C378 C 0.62905 0.29902 -0.07644
 C379 C 0.59096 0.23193 -0.14326
 C380 C 0.57381 0.23101 -0.12062
 H381 H 0.66328 0.31362 -0.09879
 H382 H 0.63368 0.31177 -0.05926
 H383 H 0.58664 0.21880 -0.16023
 H384 H 0.55679 0.21717 -0.12077
 H385 H 0.62739 0.23635 -0.18312
 H386 H 0.67633 0.29695 -0.14340
 H387 H 0.59515 0.29173 -0.03500
 H388 H 0.54596 0.23108 -0.07393
 C389 C 0.37674 0.74721 -0.11650
 C390 C 0.37756 0.76837 -0.13513
 C391 C 0.35948 0.76812 -0.15707
 C392 C 0.34067 0.74687 -0.16043
 C393 C 0.34046 0.72571 -0.14154
 C394 C 0.35831 0.72583 -0.11956
 C395 C 0.39530 0.74757 -0.09314
 C396 C 0.39401 0.72660 -0.07430
 C397 C 0.41103 0.72738 -0.05175
 C398 C 0.42925 0.74892 -0.04782
 C399 C 0.43087 0.76950 -0.06720
 C400 C 0.41368 0.76902 -0.08987
 C401 C 0.35791 0.70505 -0.10043
 C402 C 0.37544 0.70545 -0.07816
 C403 C 0.39630 0.78945 -0.13129
 C404 C 0.41407 0.78975 -0.10909
 H405 H 0.34379 0.68844 -0.10257
 H406 H 0.37431 0.68915 -0.06374
 H407 H 0.39716 0.80593 -0.14551
 H408 H 0.42807 0.80645 -0.10684
 H409 H 0.35995 0.78463 -0.17123
 H410 H 0.32644 0.70907 -0.14374
 H411 H 0.40999 0.71130 -0.03705
 H412 H 0.44481 0.78615 -0.06419
 C413 C 0.12161 0.38095 0.26676
 C414 C 0.14378 0.38569 0.24964
 C415 C 0.16642 0.36851 0.25084
 C416 C 0.16689 0.34657 0.26886
 C417 C 0.14456 0.34259 0.28621
 C418 C 0.12190 0.35959 0.28517
 C419 C 0.09733 0.39823 0.26489
 C420 C 0.07491 0.39294 0.28153
 C421 C 0.05141 0.40854 0.27882
 C422 C 0.05008 0.42915 0.25945
 C423 C 0.07301 0.43478 0.24346
 C424 C 0.09669 0.41922 0.24599
 C425 C 0.09929 0.35531 0.30189
 C426 C 0.07618 0.37171 0.30010
 C427 C 0.14263 0.40721 0.23134
 C428 C 0.11948 0.42368 0.22953
 H429 H 0.09931 0.33892 0.31624
 H430 H 0.05901 0.36751 0.31309
 H431 H 0.15963 0.41115 0.21806
 H432 H 0.11929 0.43981 0.21490
 H433 H 0.18336 0.37210 0.23744
 H434 H 0.14438 0.32601 0.30027
 H435 H 0.03393 0.40436 0.29143
 H436 H 0.07201 0.45050 0.22839
 C437 C 0.11914 0.62702 0.74691
 C438 C 0.12164 0.64532 0.72560
 C439 C 0.14390 0.66284 0.72495
 C440 C 0.16373 0.66256 0.74556
 C441 C 0.16095 0.64361 0.76666
 C442 C 0.13870 0.62587 0.76741
 C443 C 0.09535 0.60898 0.74793
 C444 C 0.09262 0.59072 0.76934
 C445 C 0.06956 0.57401 0.77045
 C446 C 0.04930 0.57594 0.75052
 C447 C 0.05266 0.59407 0.72903
 C448 C 0.07558 0.61062 0.72763
 C449 C 0.13542 0.60720 0.78842
 C450 C 0.11280 0.58991 0.78935
 C451 C 0.10161 0.64603 0.70544
 C452 C 0.07894 0.62900 0.70646
 H453 H 0.15038 0.60604 0.80439
 H454 H 0.11100 0.57594 0.80598
 H455 H 0.10336 0.66004 0.68884
 H456 H 0.06383 0.63036 0.69065
 H457 H 0.14531 0.67678 0.70834
 H458 H 0.17574 0.64268 0.78274
 H459 H 0.06698 0.56014 0.78706
 H460 H 0.03727 0.59535 0.71344
 C461 C -0.12472 0.62213 0.26387
 C462 C -0.14709 0.61732 0.24702
 C463 C -0.16934 0.63503 0.24791
 C464 C -0.16924 0.65773 0.26531
 C465 C -0.14662 0.66170 0.28244
 C466 C -0.12439 0.64413 0.28172
 C467 C -0.10086 0.60422 0.26233
 C468 C -0.07822 0.60958 0.27870
 C469 C -0.05506 0.59342 0.27618
 C470 C -0.05428 0.57220 0.25726
 C471 C -0.07746 0.56645 0.24162
 C472 C -0.10080 0.58259 0.24394
 C473 C -0.10158 0.64845 0.29822
 C474 C -0.07887 0.63147 0.29673
 C475 C -0.14652 0.59518 0.22923
 C476 C -0.12377 0.57812 0.22770
 H477 H -0.10112 0.66534 0.31214
 H478 H -0.06153 0.63574 0.30949
 H479 H -0.16366 0.59120 0.21610
 H480 H -0.12403 0.56152 0.21343
 H481 H -0.18630 0.63125 0.23455
 H482 H -0.14586 0.67856 0.29630
 H483 H -0.03737 0.59770 0.28850
 H484 H -0.07687 0.55023 0.22691
 C485 C -0.11693 0.37567 0.74728
 C486 C -0.13739 0.37828 0.76678
 C487 C -0.16015 0.36120 0.76552
 C488 C -0.16250 0.34141 0.74498
 C489 C -0.14169 0.33958 0.72540
 C490 C -0.11897 0.35651 0.72651
 C491 C -0.09277 0.39321 0.74870
 C492 C -0.07226 0.39028 0.72926
 C493 C -0.04913 0.40650 0.73092
 C494 C -0.04618 0.42554 0.75187
 C495 C -0.06713 0.42865 0.77101
 C496 C -0.09050 0.41236 0.76956
 C497 C -0.09811 0.35441 0.70729
 C498 C -0.07514 0.37101 0.70865
 C499 C -0.13454 0.39778 0.78728
 C500 C -0.11151 0.41452 0.78864
 H501 H -0.09949 0.33971 0.69112
 H502 H -0.05941 0.36864 0.69353
 H503 H -0.15019 0.40006 0.80248
 H504 H -0.11008 0.42916 0.80485
 H505 H -0.17568 0.36329 0.78082
 H506 H -0.14276 0.32498 0.70921
 H507 H -0.03332 0.40437 0.71583
 H508 H -0.06495 0.44323 0.78720
 C509 C 0.25362 0.11532 0.37318
 C510 C 0.27483 0.11806 0.35449
 C511 C 0.27598 0.14108 0.33831
 C512 C 0.25606 0.16139 0.34055
 C513 C 0.23495 0.15830 0.35959
 C514 C 0.23364 0.13530 0.37594
 C515 C 0.25224 0.09098 0.39007
 C516 C 0.23100 0.08811 0.40879
 C517 C 0.22973 0.06473 0.42465
 C518 C 0.24940 0.04433 0.42155
 C519 C 0.27063 0.04775 0.40284
 C520 C 0.27215 0.07096 0.38706
 C521 C 0.21271 0.13179 0.39491
 C522 C 0.21142 0.10861 0.41106
 C523 C 0.29448 0.09765 0.35223
 C524 C 0.29316 0.07449 0.36825
 H525 H 0.19715 0.14705 0.39726
 H526 H 0.19491 0.10670 0.42537
 H527 H 0.31097 0.09955 0.33789
 H528 H 0.30867 0.05917 0.36582
 H529 H 0.29241 0.14295 0.32397
 H530 H 0.21941 0.17357 0.36171
 H531 H 0.21331 0.06215 0.43896
 H532 H 0.28611 0.03233 0.40071
 C533 C 0.74533 0.11950 0.62683
 C534 C 0.76499 0.13978 0.62433
 C535 C 0.76348 0.16259 0.64118
 C536 C 0.74257 0.16511 0.66056
 C537 C 0.72288 0.14457 0.66241
 C538 C 0.72421 0.12175 0.64572
 C539 C 0.74699 0.09530 0.60950
 C540 C 0.72744 0.07495 0.61232
 C541 C 0.72920 0.05189 0.59613
 C542 C 0.75033 0.04891 0.57719
 C543 C 0.76966 0.06964 0.57430
 C544 C 0.76816 0.09289 0.59060
 C545 C 0.70493 0.10100 0.64777
 C546 C 0.70654 0.07797 0.63137
 C547 C 0.78587 0.13672 0.60519
 C548 C 0.78744 0.11368 0.58863
 H549 H 0.68853 0.10250 0.66228
 H550 H 0.69136 0.06235 0.63369
 H551 H 0.80122 0.15222 0.60306
 H552 H 0.80394 0.11209 0.57426
 H553 H 0.77874 0.17813 0.63920
 H554 H 0.70661 0.14599 0.67700
 H555 H 0.71400 0.03621 0.59814
 H556 H 0.78603 0.06740 0.55983
 C557 C 0.25519 -0.11834 0.62333
 C558 C 0.23460 -0.13786 0.62239
 C559 C 0.23570 -0.15980 0.64018
 C560 C 0.25719 -0.16226 0.65890
 C561 C 0.27787 -0.14259 0.65910
 C562 C 0.27691 -0.12060 0.64152
 C563 C 0.25380 -0.09486 0.60524
 C564 C 0.27417 -0.07513 0.60670
 C565 C 0.27242 -0.05249 0.59011
 C566 C 0.25053 -0.04938 0.57212
 C567 C 0.23051 -0.06960 0.57040
 C568 C 0.23196 -0.09237 0.58716
 C569 C 0.29711 -0.10061 0.64203
 C570 C 0.29574 -0.07823 0.62494
 C571 C 0.21316 -0.13483 0.60389
 C572 C 0.21188 -0.11250 0.58657
 H573 H 0.31400 -0.10215 0.65594
 H574 H 0.31159 -0.06313 0.62615
 H575 H 0.19712 -0.14975 0.60291
 H576 H 0.19491 -0.11087 0.57278
 H577 H 0.21960 -0.17462 0.63957
 H578 H 0.29469 -0.14410 0.67303
 H579 H 0.28807 -0.03715 0.59121
 H580 H 0.21359 -0.06723 0.55663
 C581 C 0.74313 -0.11640 0.37631
 C582 C 0.72194 -0.11878 0.35751
 C583 C 0.72081 -0.14149 0.34067
 C584 C 0.74071 -0.16180 0.34245
 C585 C 0.76175 -0.15915 0.36161
 C586 C 0.76308 -0.13645 0.37856
 C587 C 0.74457 -0.09235 0.39382
 C588 C 0.76587 -0.08979 0.41253
 C589 C 0.76731 -0.06659 0.42886
 C590 C 0.74770 -0.04609 0.42632
 C591 C 0.72630 -0.04929 0.40770
 C592 C 0.72469 -0.07225 0.39134
 C593 C 0.78401 -0.13331 0.39759
 C594 C 0.78540 -0.11037 0.41427
 C595 C 0.70237 -0.09827 0.35574
 C596 C 0.70371 -0.07540 0.37239
 H597 H 0.79953 -0.14866 0.39954
 H598 H 0.80196 -0.10869 0.42856
 H599 H 0.68594 -0.09987 0.34129
 H600 H 0.68828 -0.05999 0.37031
 H601 H 0.70468 -0.14302 0.32593
 H602 H 0.77708 -0.17467 0.36346
 H603 H 0.78389 -0.06420 0.44304
 H604 H 0.71086 -0.03380 0.40597
 C605 C 0.62535 0.73505 -0.12356
 C606 C 0.64829 0.71821 -0.12385
 C607 C 0.66450 0.71696 -0.14710
 C608 C 0.65802 0.73258 -0.16985
 C609 C 0.63480 0.74922 -0.16919
 C610 C 0.61841 0.75055 -0.14610
 C611 C 0.60845 0.73672 -0.09905
 C612 C 0.58568 0.75378 -0.09864
 C613 C 0.57018 0.75591 -0.07497
 C614 C 0.57755 0.74130 -0.05182
 C615 C 0.60006 0.72379 -0.05287
 C616 C 0.61567 0.72155 -0.07636
 C617 C 0.59534 0.76721 -0.14504
 C618 C 0.57924 0.76879 -0.12172
 C619 C 0.65471 0.70319 -0.10078
 C620 C 0.63866 0.70481 -0.07744
 H621 H 0.58977 0.77927 -0.16234
 H622 H 0.56174 0.78203 -0.12168
 H623 H 0.67239 0.69019 -0.10069
 H624 H 0.64442 0.69305 -0.06001
 H625 H 0.68241 0.70431 -0.14720
 H626 H 0.62935 0.76112 -0.18662
 H627 H 0.55300 0.76955 -0.07424
 H628 H 0.60559 0.71214 -0.03526
 C629 C 0.37280 0.25506 -0.11891
 C630 C 0.35319 0.27545 -0.12121
 C631 C 0.33711 0.27668 -0.14446
 C632 C 0.34037 0.25764 -0.16541
 C633 C 0.36035 0.23739 -0.16276
 C634 C 0.37658 0.23601 -0.13955
 C635 C 0.38956 0.25355 -0.09432
 C636 C 0.40917 0.23312 -0.09190
 C637 C 0.42493 0.23173 -0.06832
 C638 C 0.42090 0.25050 -0.04730
 C639 C 0.40125 0.27091 -0.05025
 C640 C 0.38552 0.27252 -0.07365
 C641 C 0.39643 0.21588 -0.13647
 C642 C 0.41245 0.21446 -0.11306
 C643 C 0.34991 0.29417 -0.10012
 C644 C 0.36581 0.29272 -0.07673
 H645 H 0.39957 0.20103 -0.15225
 H646 H 0.42746 0.19857 -0.11149
 H647 H 0.33486 0.31001 -0.10166
 H648 H 0.36257 0.30748 -0.06088
 H649 H 0.32203 0.29244 -0.14599
 H650 H 0.36329 0.22257 -0.17856
 H651 H 0.43995 0.21592 -0.06613
 H652 H 0.39838 0.28572 -0.03436
 C653 C 0.38479 0.73021 0.12274
 C654 C 0.36261 0.71244 0.12265
 C655 C 0.34570 0.71121 0.14534
 C656 C 0.35065 0.72774 0.16802
 C657 C 0.37341 0.74504 0.16790
 C658 C 0.39045 0.74645 0.14527
 C659 C 0.40200 0.73234 0.09850
 C660 C 0.42381 0.75059 0.09830
 C661 C 0.43939 0.75334 0.07475
 C662 C 0.43298 0.73818 0.05151
 C663 C 0.41147 0.71949 0.05236
 C664 C 0.39583 0.71659 0.07573
 C665 C 0.41274 0.76415 0.14451
 C666 C 0.42912 0.76620 0.12141
 C667 C 0.35741 0.69665 0.09963
 C668 C 0.37374 0.69869 0.07656
 H669 H 0.41736 0.77679 0.16178
 H670 H 0.44588 0.78037 0.12155
 H671 H 0.34037 0.68284 0.09933
 H672 H 0.36882 0.68643 0.05910
 H673 H 0.32837 0.69781 0.14489
 H674 H 0.37778 0.75771 0.18518
 H675 H 0.45576 0.76793 0.07414
 H676 H 0.40666 0.70752 0.03465
 C677 C 0.62161 0.25560 0.11859
 C678 C 0.64076 0.27642 0.12105
 C679 C 0.65754 0.27743 0.14379
 C680 C 0.65553 0.25775 0.16407
 C681 C 0.63594 0.23710 0.16138
 C682 C 0.61896 0.23592 0.13864
 C683 C 0.60422 0.25426 0.09443
 C684 C 0.58512 0.23336 0.09176
 C685 C 0.56891 0.23204 0.06844
 C686 C 0.57206 0.25133 0.04793
 C687 C 0.59107 0.27229 0.05122
 C688 C 0.60721 0.27384 0.07434
 C689 C 0.59953 0.21537 0.13538
 C690 C 0.58290 0.21412 0.11236
 C691 C 0.64293 0.29577 0.10060
 C692 C 0.62642 0.29450 0.07762
 H693 H 0.59723 0.20005 0.15070
 H694 H 0.56828 0.19788 0.11061
 H695 H 0.65762 0.31195 0.10228
 H696 H 0.62881 0.30973 0.06223
 H697 H 0.67221 0.29357 0.14544
 H698 H 0.63401 0.22175 0.17667
 H699 H 0.55435 0.21584 0.06597
 H700 H 0.59323 0.28748 0.03572
 C701 C -0.12191 0.62146 0.73522
 C702 C -0.12232 0.64270 0.71668
 C703 C -0.14505 0.65966 0.71560
 C704 C -0.16749 0.65573 0.73299
 C705 C -0.16666 0.63395 0.75129
 C706 C -0.14395 0.61688 0.75252
 C707 C -0.09776 0.60393 0.73682
 C708 C -0.09712 0.58292 0.75569
 C709 C -0.07365 0.56699 0.75783
 C710 C -0.05086 0.57233 0.74154
 C711 C -0.05217 0.59303 0.72225
 C712 C -0.07553 0.60894 0.71986
 C713 C -0.14272 0.59545 0.77093
 C714 C -0.11971 0.57877 0.77249
 C715 C -0.09983 0.64675 0.69970
 C716 C -0.07683 0.63016 0.70128
 H717 H -0.15960 0.59166 0.78440
 H718 H -0.11950 0.56266 0.78715
 H719 H -0.09993 0.66303 0.68521
 H720 H -0.05980 0.63417 0.68804
 H721 H -0.14485 0.67594 0.70120
 H722 H -0.18340 0.63025 0.76490
 H723 H -0.07264 0.55123 0.77286
 H724 H -0.03478 0.59703 0.70946
 C725 C -0.12065 0.37512 0.25618
 C726 C -0.14059 0.37656 0.23605
 C727 C -0.16301 0.35912 0.23719
 C728 C -0.16556 0.34023 0.25824
 C729 C -0.14540 0.33941 0.27843
 C730 C -0.12294 0.35672 0.27747
 C731 C -0.09670 0.39290 0.25474
 C732 C -0.07656 0.39103 0.27465
 C733 C -0.05347 0.40733 0.27277
 C734 C -0.05029 0.42536 0.25115
 C735 C -0.07094 0.42749 0.23164
 C736 C -0.09419 0.41112 0.23327
 C737 C -0.10255 0.35578 0.29726
 C738 C -0.07974 0.37265 0.29587
 C739 C -0.13756 0.39525 0.21504
 C740 C -0.11476 0.41224 0.21368
 H741 H -0.10412 0.34174 0.31384
 H742 H -0.06436 0.37114 0.31141
 H743 H -0.15284 0.39664 0.19940
 H744 H -0.11312 0.42621 0.19704
 H745 H -0.17822 0.36022 0.22151
 H746 H -0.14688 0.32521 0.29482
 H747 H -0.03784 0.40596 0.28810
 H748 H -0.06855 0.44129 0.21493
 C749 C 0.12489 0.38000 0.73354
 C750 C 0.12477 0.35819 0.71541
 C751 C 0.14735 0.34101 0.71423
 C752 C 0.16990 0.34528 0.73125
 C753 C 0.16979 0.36756 0.74905
 C754 C 0.14731 0.38495 0.75031
 C755 C 0.10077 0.39756 0.73552
 C756 C 0.10062 0.41906 0.75406
 C757 C 0.07714 0.43498 0.75665
 C758 C 0.05388 0.42910 0.74119
 C759 C 0.05467 0.40787 0.72225
 C760 C 0.07802 0.39199 0.71938
 C761 C 0.14660 0.40691 0.76831
 C762 C 0.12366 0.42369 0.77014
 C763 C 0.10181 0.35365 0.69918
 C764 C 0.07881 0.37024 0.70116
 H765 H 0.16379 0.41099 0.78134
 H766 H 0.12383 0.44018 0.78454
 H767 H 0.10148 0.33691 0.68508
 H768 H 0.06137 0.36578 0.68858
 H769 H 0.14691 0.32395 0.70057
 H770 H 0.18704 0.37136 0.76206
 H771 H 0.07654 0.45115 0.77142
 H772 H 0.03689 0.40342 0.71012
 C773 C 0.11753 0.62370 0.25250
 C774 C 0.13796 0.62091 0.23297
 C775 C 0.16116 0.63736 0.23458
 C776 C 0.16398 0.65655 0.25555
 C777 C 0.14319 0.65882 0.27500
 C778 C 0.11999 0.64254 0.27356
 C779 C 0.09298 0.60672 0.25081
 C780 C 0.07253 0.60979 0.27028
 C781 C 0.04912 0.59395 0.26845
 C782 C 0.04589 0.57516 0.24732
 C783 C 0.06674 0.57198 0.22811
 C784 C 0.09035 0.58789 0.22970
 C785 C 0.09913 0.64486 0.29275
 C786 C 0.07579 0.62874 0.29114
 C787 C 0.13467 0.60182 0.21217
 C788 C 0.11129 0.58559 0.21056
 H789 H 0.10079 0.65932 0.30910
 H790 H 0.06011 0.63122 0.30629
 H791 H 0.15028 0.59944 0.19693
 H792 H 0.10956 0.57121 0.19415
 H793 H 0.17679 0.63522 0.21939
 H794 H 0.14484 0.67326 0.29131
 H795 H 0.03335 0.59613 0.28359
 H796 H 0.06432 0.55759 0.21177
 C797 C 0.73448 -0.12260 0.61948
 C798 C 0.71730 -0.12300 0.64205
 C799 C 0.71674 -0.14592 0.65843
 C800 C 0.73340 -0.16831 0.65259
 C801 C 0.75014 -0.16771 0.62952
 C802 C 0.75080 -0.14487 0.61294
 C803 C 0.73592 -0.09811 0.60281
 C804 C 0.75355 -0.09745 0.58055
 C805 C 0.75570 -0.07368 0.56546
 C806 C 0.74066 -0.05065 0.57280
 C807 C 0.72259 -0.05194 0.59479
 C808 C 0.72022 -0.07557 0.60992
 C809 C 0.76784 -0.14363 0.59023
 C810 C 0.76919 -0.12033 0.57431
 C811 C 0.70146 -0.10024 0.64818
 C812 C 0.70293 -0.07691 0.63240
 H813 H 0.78049 -0.16071 0.58489
 H814 H 0.78287 -0.12008 0.55720
 H815 H 0.68806 -0.10034 0.66552
 H816 H 0.69070 -0.05964 0.63805
 H817 H 0.70389 -0.14582 0.67613
 H818 H 0.76287 -0.18479 0.62453
 H819 H 0.76981 -0.07274 0.54871
 H820 H 0.71069 -0.03439 0.60035
 C821 C 0.26682 -0.12677 0.37740
 C822 C 0.25041 -0.14908 0.38338
 C823 C 0.25139 -0.17187 0.36652
 C824 C 0.26856 -0.17239 0.34375
 C825 C 0.28526 -0.14994 0.33844
 C826 C 0.28436 -0.12706 0.35509
 C827 C 0.26512 -0.10238 0.39444
 C828 C 0.28095 -0.07980 0.38792
 C829 C 0.27841 -0.05628 0.40343
 C830 C 0.26005 -0.05512 0.42520
 C831 C 0.24487 -0.07818 0.43195
 C832 C 0.24719 -0.10185 0.41647
 C833 C 0.30026 -0.10423 0.34954
 C834 C 0.29856 -0.08099 0.36566
 C835 C 0.23303 -0.14797 0.40585
 C836 C 0.23145 -0.12476 0.42212
 H837 H 0.31390 -0.10421 0.33239
 H838 H 0.31089 -0.06369 0.36047
 H839 H 0.22031 -0.16508 0.41074
 H840 H 0.21755 -0.12464 0.43905
 H841 H 0.23867 -0.18904 0.37108
 H842 H 0.29843 -0.14982 0.32096
 H843 H 0.29040 -0.03870 0.39832
 H844 H 0.23053 -0.07734 0.44852
 C845 C 0.73346 0.12358 0.38091
 C846 C 0.75067 0.14554 0.38609
 C847 C 0.75012 0.16781 0.36873
 C848 C 0.73266 0.16807 0.34618
 C849 C 0.71539 0.14586 0.34155
 C850 C 0.71571 0.12362 0.35879
 C851 C 0.73449 0.09979 0.39858
 C852 C 0.71770 0.07761 0.39294
 C853 C 0.71962 0.05458 0.40900
 C854 C 0.73849 0.05342 0.43032
 C855 C 0.75462 0.07612 0.43623
 C856 C 0.75280 0.09936 0.42029
 C857 C 0.69892 0.10122 0.35405
 C858 C 0.69987 0.07860 0.37087
 C859 C 0.76837 0.14460 0.40830
 C860 C 0.76945 0.12188 0.42508
 H861 H 0.68513 0.10105 0.33703
 H862 H 0.68681 0.06160 0.36632
 H863 H 0.78174 0.16143 0.41256
 H864 H 0.78367 0.12182 0.44174
 H865 H 0.76339 0.18474 0.37275
 H866 H 0.70206 0.14544 0.32423
 H867 H 0.70691 0.03729 0.40453
 H868 H 0.76937 0.07523 0.45243
 C869 C 0.26640 0.12162 0.61582
 C870 C 0.28436 0.12203 0.63778
 C871 C 0.28516 0.14474 0.65462
 C872 C 0.26800 0.16699 0.64988
 C873 C 0.25044 0.16637 0.62740
 C874 C 0.24951 0.14370 0.61036
 C875 C 0.26476 0.09731 0.59867
 C876 C 0.24637 0.09660 0.57702
 C877 C 0.24406 0.07294 0.56152
 C878 C 0.25970 0.05007 0.56790
 C879 C 0.27854 0.05145 0.58922
 C880 C 0.28109 0.07496 0.60472
 C881 C 0.23171 0.14245 0.58822
 C882 C 0.23017 0.11932 0.57183
 C883 C 0.30082 0.09947 0.64281
 C884 C 0.29918 0.07632 0.62657
 H885 H 0.21861 0.15938 0.58371
 H886 H 0.21593 0.11908 0.55519
 H887 H 0.31482 0.09958 0.65966
 H888 H 0.31193 0.05921 0.63138
 H889 H 0.29880 0.14464 0.67171
 H890 H 0.23726 0.18329 0.62321
 H891 H 0.22939 0.07193 0.54524
 H892 H 0.29088 0.03402 0.59401
   
