data_POSCAR
  _audit_creation_date              2014-09-24
  _audit_creation_method            'ToBaCCo'
  _symmetry_space_group_name_H-M    'P1'
  _symmetry_Int_Tables_number       1
  _symmetry_cell_setting            triclinic
  loop_
  _symmetry_equiv_pos_as_xyz
 x,y,z
_cell_length_a 19.0817
_cell_length_b 19.1024
_cell_length_c 33.0983
_cell_angle_alpha 88.999900
_cell_angle_beta 90.135200
_cell_angle_gamma 90.089500
loop_
  _atom_site_label
  _atom_site_type_symbol
  _atom_site_fract_x
  _atom_site_fract_y
  _atom_site_fract_z
O1 O -0.05403 0.56822 0.96092
 O2 O -0.05431 0.42993 1.03982
 O3 O -0.05412 0.56615 1.03967
 O4 O -0.05427 0.43206 0.96106
 O5 O 0.06151 0.43173 0.96143
 O6 O 0.06167 0.56646 1.03968
 O7 O 0.06142 0.42950 1.03981
 O8 O 0.06176 0.56855 0.96129
 Cu9 Cu -0.06580 0.49909 1.00036
 Cu10 Cu 0.07322 0.49905 1.00059
 C11 C 0.00390 0.59217 0.94784
 C12 C 0.00348 0.40577 1.05309
 C13 C 0.00380 0.58943 1.05285
 C14 C 0.00359 0.40884 0.94802
 O15 O 0.56686 -0.05475 0.54189
 O16 O 0.42991 -0.06020 0.46343
 O17 O 0.56713 -0.06059 0.46334
 O18 O 0.43081 -0.05456 0.54177
 O19 O 0.43064 0.06100 0.53748
 O20 O 0.56691 0.05496 0.45901
 O21 O 0.43090 0.05535 0.45913
 O22 O 0.56801 0.06073 0.53754
 Cu23 Cu 0.49872 -0.06914 0.50294
 Cu24 Cu 0.49924 0.06963 0.49798
 C25 C 0.59099 0.00388 0.55302
 C26 C 0.40683 -0.00331 0.44811
 C27 C 0.59028 -0.00382 0.44788
 C28 C 0.40721 0.00420 0.55277
 Si29 Si -0.00217 -0.00618 0.24957
 Si30 Si -0.00243 0.00676 0.74974
 C31 C 0.00324 -0.25079 0.13754
 N32 N 0.06389 -0.27069 0.11975
 N33 N 0.06422 -0.32229 0.09318
 C34 C 0.00383 -0.35558 0.08326
 N35 N -0.05681 -0.33576 0.10110
 N36 N -0.05707 -0.28444 0.12785
 C37 C 0.00255 -0.19257 0.16592
 N38 N -0.05626 -0.17753 0.18709
 N39 N -0.05737 -0.12359 0.21207
 C40 C 0.00016 -0.08268 0.21657
 N41 N 0.05892 -0.09755 0.19546
 N42 N 0.06019 -0.15172 0.17067
 C43 C 0.00255 0.24484 0.13699
 N44 N -0.05839 0.27488 0.12454
 N45 N -0.05805 0.32740 0.09752
 C46 C 0.00327 0.35213 0.08210
 N47 N 0.06427 0.32242 0.09485
 N48 N 0.06389 0.26961 0.12169
 C49 C 0.00193 0.18529 0.16564
 N50 N 0.06114 0.14777 0.17294
 N51 N 0.06002 0.09234 0.19794
 C52 C -0.00014 0.07294 0.21680
 N53 N -0.05930 0.11040 0.20959
 N54 N -0.05832 0.16558 0.18442
 C55 C 0.24463 0.00844 0.63708
 N56 N 0.27878 -0.05216 0.62942
 N57 N 0.33100 -0.05332 0.60282
 C58 C 0.35130 0.00618 0.58308
 N59 N 0.31751 0.06693 0.59095
 N60 N 0.26499 0.06801 0.61740
 C61 C 0.18556 0.00896 0.66543
 N62 N 0.14457 0.06663 0.66879
 N63 N 0.08977 0.06619 0.69369
 C64 C 0.07440 0.00824 0.71622
 N65 N 0.11544 -0.04925 0.71306
 N66 N 0.16998 -0.04897 0.68802
 C67 C -0.25126 0.00810 0.63757
 N68 N -0.28148 -0.05339 0.62715
 N69 N -0.33291 -0.05464 0.59989
 C70 C -0.35635 0.00559 0.58216
 N71 N -0.32649 0.06720 0.59287
 N72 N -0.27473 0.06840 0.61996
 C73 C -0.19275 0.00887 0.66646
 N74 N -0.15452 0.06800 0.67193
 N75 N -0.09964 0.06769 0.69692
 C76 C -0.08153 0.00847 0.71757
 N77 N -0.11980 -0.05051 0.71225
 N78 N -0.17441 -0.05036 0.68711
 C79 C 0.00333 -0.24420 0.86233
 N80 N 0.06406 -0.26519 0.88020
 N81 N 0.06439 -0.31797 0.90706
 C82 C 0.00393 -0.35139 0.91720
 N83 N -0.05678 -0.33048 0.89928
 N84 N -0.05704 -0.27797 0.87226
 C85 C 0.00261 -0.18469 0.83366
 N86 N -0.05656 -0.16802 0.81277
 N87 N -0.05776 -0.11283 0.78761
 C88 C 0.00006 -0.07231 0.78253
 N89 N 0.05915 -0.08875 0.80344
 N90 N 0.06051 -0.14415 0.82844
 C91 C 0.00287 0.25011 0.86268
 N92 N 0.06356 0.26999 0.88068
 N93 N 0.06391 0.32120 0.90750
 C94 C 0.00352 0.35410 0.91746
 N95 N -0.05715 0.33430 0.89942
 N96 N -0.05744 0.28336 0.87243
 C97 C 0.00220 0.19231 0.83401
 N98 N -0.05670 0.17715 0.81275
 N99 N -0.05778 0.12353 0.78754
 C100 C -0.00013 0.08309 0.78288
 N101 N 0.05873 0.09810 0.80407
 N102 N 0.05997 0.15195 0.82910
 C103 C -0.25025 -0.00858 0.36159
 N104 N -0.28359 0.05223 0.36985
 N105 N -0.33473 0.05358 0.39714
 C106 C -0.35466 -0.00589 0.41704
 N107 N -0.32170 -0.06683 0.40858
 N108 N -0.27026 -0.06811 0.38142
 C109 C -0.19199 -0.00927 0.33268
 N110 N -0.15154 -0.06719 0.32882
 N111 N -0.09685 -0.06666 0.30385
 C112 C -0.08109 -0.00843 0.28165
 N113 N -0.12162 0.04932 0.28532
 N114 N -0.17609 0.04895 0.31042
 C115 C 0.24439 -0.00732 0.36325
 N116 N 0.26459 -0.06694 0.38292
 N117 N 0.31701 -0.06590 0.40959
 C118 C 0.35086 -0.00514 0.41768
 N119 N 0.33071 0.05442 0.39796
 N120 N 0.27858 0.05331 0.37115
 C121 C 0.18548 -0.00788 0.33464
 N122 N 0.16988 0.05013 0.31213
 N123 N 0.11547 0.05030 0.28684
 C124 C 0.07462 -0.00741 0.28333
 N125 N 0.09002 -0.06542 0.30580
 N126 N 0.14467 -0.06574 0.33095
   
