data_POSCAR
  _audit_creation_date              2014-09-24
  _audit_creation_method            'ToBaCCo'
  _symmetry_space_group_name_H-M    'P1'
  _symmetry_Int_Tables_number       1
  _symmetry_cell_setting            triclinic
  loop_
  _symmetry_equiv_pos_as_xyz
 x,y,z
_cell_length_a 25.3804
_cell_length_b 25.3804
_cell_length_c 25.3804
_cell_angle_alpha 90.238800
_cell_angle_beta 89.761000
_cell_angle_gamma 89.761200
loop_
  _atom_site_label
  _atom_site_type_symbol
  _atom_site_fract_x
  _atom_site_fract_y
  _atom_site_fract_z
N1 N 0.23334 0.21817 0.22401
 N2 N 0.77599 -0.23334 0.21818
 N3 N 0.78182 0.22401 0.76666
 N4 N 0.20396 -0.20396 0.79604
 N5 N 0.70360 -0.27549 0.72296
 N6 N 0.27703 0.29640 0.72452
 N7 N 0.27548 -0.27704 0.29640
 N8 N 0.78629 0.21371 0.21371
 O9 O 0.29470 0.05163 0.45648
 O10 O 0.28696 -0.03789 0.57068
 O11 O 0.29194 -0.05006 0.46876
 O12 O 0.29265 0.06387 0.55843
 O13 O 0.20564 0.06777 0.55578
 O14 O 0.20492 -0.04697 0.46546
 O15 O 0.19997 -0.03408 0.56730
 O16 O 0.20764 0.05479 0.45399
 Cu17 Cu 0.30033 0.00652 0.51394
 Cu18 Cu 0.19578 0.01072 0.51038
 C19 C 0.25222 0.06819 0.43597
 C20 C 0.24197 -0.05104 0.58818
 C21 C 0.24853 -0.06776 0.45184
 C22 C 0.24947 0.08519 0.57220
 O23 O 0.71122 0.04925 0.54317
 O24 O 0.70916 -0.05244 0.43864
 O25 O 0.70110 -0.05314 0.54105
 O26 O 0.71615 0.04937 0.44010
 O27 O 0.80281 0.04153 0.44484
 O28 O 0.78771 -0.06108 0.54636
 O29 O 0.79581 -0.06004 0.44428
 O30 O 0.79786 0.04120 0.54779
 Cu31 Cu 0.70064 -0.00083 0.49046
 Cu32 Cu 0.80477 -0.01020 0.49658
 C33 C 0.75509 0.06221 0.56316
 C34 C 0.75239 -0.07305 0.42360
 C35 C 0.74172 -0.07473 0.56047
 C36 C 0.76193 0.06209 0.42471
 O37 O 0.45221 0.20214 0.04120
 O38 O 0.55572 0.20418 -0.06004
 O39 O 0.55515 0.19718 0.04154
 O40 O 0.45364 0.21228 -0.06108
 O41 O 0.45895 0.29889 -0.05314
 O42 O 0.55990 0.28385 0.04938
 O43 O 0.56136 0.29083 -0.05244
 O44 O 0.45683 0.28878 0.04925
 Cu45 Cu 0.50342 0.19523 -0.01019
 Cu46 Cu 0.50954 0.29935 -0.00082
 C47 C 0.43684 0.24490 0.06221
 C48 C 0.57640 0.24760 -0.07304
 C49 C 0.57529 0.23807 0.06209
 C50 C 0.43953 0.25828 -0.07473
 O51 O 0.54352 0.70530 0.05163
 O52 O 0.42931 0.71303 -0.03788
 O53 O 0.53123 0.70806 -0.05006
 O54 O 0.44157 0.70735 0.06387
 O55 O 0.44421 0.79435 0.06777
 O56 O 0.53453 0.79507 -0.04697
 O57 O 0.43270 0.80002 -0.03408
 O58 O 0.54601 0.79235 0.05480
 Cu59 Cu 0.48606 0.69966 0.00652
 Cu60 Cu 0.48961 0.80422 0.01072
 C61 C 0.56403 0.74777 0.06819
 C62 C 0.41182 0.75802 -0.05103
 C63 C 0.54815 0.75146 -0.06776
 C64 C 0.42780 0.75052 0.08520
 O65 O 0.06003 0.44428 0.20418
 O66 O -0.04120 0.54779 0.20214
 O67 O 0.06107 0.54636 0.21229
 O68 O -0.04154 0.44484 0.19718
 O69 O -0.04938 0.44010 0.28385
 O70 O 0.05314 0.54105 0.29890
 O71 O -0.04926 0.54317 0.28878
 O72 O 0.05243 0.43864 0.29084
 Cu73 Cu 0.01019 0.49658 0.19523
 Cu74 Cu 0.00082 0.49046 0.29935
 C75 C 0.07304 0.42360 0.24761
 C76 C -0.06222 0.56316 0.24491
 C77 C 0.07472 0.56046 0.25828
 C78 C -0.06210 0.42471 0.23807
 O79 O 0.03788 0.57068 0.71304
 O80 O -0.05163 0.45648 0.70530
 O81 O -0.06387 0.55842 0.70735
 O82 O 0.05006 0.46876 0.70806
 O83 O 0.04697 0.46546 0.79508
 O84 O -0.06777 0.55578 0.79436
 O85 O -0.05480 0.45399 0.79236
 O86 O 0.03407 0.56729 0.80003
 Cu87 Cu -0.00653 0.51394 0.69967
 Cu88 Cu -0.01072 0.51038 0.80422
 C89 C 0.05103 0.58817 0.75803
 C90 C -0.06819 0.43596 0.74777
 C91 C -0.08520 0.57220 0.75053
 C92 C 0.06776 0.45184 0.75147
 C93 C 0.27791 0.22678 0.19353
 C94 C 0.31590 0.23346 0.16573
 C95 C 0.35919 0.23964 0.13132
 C96 C 0.39519 0.24317 0.10047
 C97 C 0.73093 0.75788 0.18878
 C98 C 0.69205 0.75177 0.16238
 C99 C 0.64698 0.74731 0.13039
 C100 C 0.60887 0.74603 0.10229
 C101 C 0.73719 0.23236 -0.20270
 C102 C 0.69897 0.23871 -0.17500
 C103 C 0.65521 0.24429 -0.14099
 C104 C 0.61869 0.24708 -0.11063
 C105 C 0.24790 0.78501 -0.17358
 C106 C 0.28583 0.77623 -0.14651
 C107 C 0.32990 0.76761 -0.11393
 C108 C 0.36738 0.76206 -0.08548
 C109 C 0.20270 0.26280 0.23237
 C110 C 0.17500 0.30102 0.23871
 C111 C 0.14099 0.34478 0.24429
 C112 C 0.11063 0.38130 0.24708
 C113 C 0.17358 0.75209 0.78501
 C114 C 0.14650 0.71417 0.77623
 C115 C 0.11393 0.67009 0.76761
 C116 C 0.08548 0.63261 0.76206
 C117 C -0.19353 0.72209 0.22679
 C118 C -0.16573 0.68409 0.23346
 C119 C -0.13132 0.64081 0.23964
 C120 C -0.10047 0.60481 0.24317
 C121 C -0.18878 0.26906 0.75788
 C122 C -0.16238 0.30795 0.75177
 C123 C -0.13039 0.35301 0.74732
 C124 C -0.10230 0.39113 0.74603
 C125 C 0.24212 0.18878 0.26906
 C126 C 0.24822 0.16238 0.30795
 C127 C 0.25268 0.13038 0.35302
 C128 C 0.25396 0.10229 0.39113
 C129 C 0.77321 0.19353 0.72209
 C130 C 0.76654 0.16573 0.68410
 C131 C 0.76036 0.13131 0.64081
 C132 C 0.75683 0.10047 0.60481
 C133 C 0.21499 -0.17359 0.75210
 C134 C 0.22377 -0.14651 0.71417
 C135 C 0.23238 -0.11394 0.67009
 C136 C 0.23794 -0.08548 0.63262
 C137 C 0.76763 -0.20270 0.26281
 C138 C 0.76128 -0.17501 0.30102
 C139 C 0.75571 -0.14099 0.34479
 C140 C 0.75292 -0.11063 0.38130
 C141 C 0.67300 0.73428 -0.23259
 C142 C 0.64551 0.74145 -0.19429
 C143 C 0.61227 0.74756 -0.14990
 C144 C 0.58322 0.75063 -0.11228
 C145 C 0.30806 0.28715 -0.23156
 C146 C 0.33623 0.27945 -0.19417
 C147 C 0.37086 0.27110 -0.15156
 C148 C 0.40164 0.26474 -0.11606
 C149 C 0.30558 0.73244 0.25169
 C150 C 0.33250 0.73953 0.21308
 C151 C 0.36498 0.74580 0.16823
 C152 C 0.39338 0.74917 0.13019
 C153 C 0.73996 0.21932 0.18540
 C154 C 0.70032 0.22370 0.15967
 C155 C 0.65515 0.22846 0.12772
 C156 C 0.61785 0.23261 0.09875
 C157 C -0.25169 0.69441 0.73244
 C158 C -0.21308 0.66749 0.73954
 C159 C -0.16823 0.63501 0.74580
 C160 C -0.13019 0.60662 0.74917
 C161 C -0.18540 0.26003 0.21932
 C162 C -0.15968 0.29967 0.22370
 C163 C -0.12772 0.34484 0.22846
 C164 C -0.09875 0.38214 0.23262
 C165 C 0.23259 0.32700 0.73429
 C166 C 0.19429 0.35448 0.74145
 C167 C 0.14990 0.38773 0.74756
 C168 C 0.11228 0.41677 0.75063
 C169 C 0.23155 0.69194 0.28716
 C170 C 0.19417 0.66376 0.27945
 C171 C 0.15156 0.62913 0.27111
 C172 C 0.11605 0.59836 0.26474
 C173 C 0.71284 -0.23156 0.69194
 C174 C 0.72055 -0.19417 0.66376
 C175 C 0.72889 -0.15157 0.62913
 C176 C 0.73526 -0.11606 0.59836
 C177 C 0.26571 -0.23259 0.32700
 C178 C 0.25854 -0.19430 0.35449
 C179 C 0.25244 -0.14991 0.38773
 C180 C 0.24937 -0.11228 0.41678
 C181 C 0.78067 0.18540 0.26004
 C182 C 0.77630 0.15967 0.29967
 C183 C 0.77153 0.12772 0.34485
 C184 C 0.76738 0.09874 0.38215
 C185 C 0.26755 0.25168 0.69441
 C186 C 0.26046 0.21307 0.66749
 C187 C 0.25420 0.16823 0.63502
 C188 C 0.25083 0.13019 0.60662
   
