data_POSCAR
  _audit_creation_date              2014-09-24
  _audit_creation_method            'ToBaCCo'
  _symmetry_space_group_name_H-M    'P1'
  _symmetry_Int_Tables_number       1
  _symmetry_cell_setting            triclinic
  loop_
  _symmetry_equiv_pos_as_xyz
 x,y,z
_cell_length_a 35.1490
_cell_length_b 35.5110
_cell_length_c 48.5919
_cell_angle_alpha 89.999900
_cell_angle_beta 90.000000
_cell_angle_gamma 90.000000
loop_
  _atom_site_label
  _atom_site_type_symbol
  _atom_site_fract_x
  _atom_site_fract_y
  _atom_site_fract_z
B1 B 0.27085 0.23832 0.27762
 B2 B 0.22615 0.22664 0.27025
 B3 B 0.23707 0.27116 0.27739
 B4 B 0.28033 0.28116 0.26445
 B5 B 0.29597 0.24102 0.24848
 B6 B 0.26202 0.20688 0.25249
 B7 B 0.23089 0.26430 0.22287
 B8 B 0.27561 0.27598 0.23036
 B9 B 0.26472 0.23142 0.22315
 B10 B 0.22138 0.22140 0.23612
 B11 B 0.20574 0.26158 0.25210
 B12 B 0.23969 0.29573 0.24808
 B13 B 0.73531 0.76858 0.22315
 B14 B 0.72442 0.72402 0.23037
 B15 B 0.76914 0.73570 0.22287
 B16 B 0.77865 0.77860 0.23612
 B17 B 0.73800 0.79312 0.25249
 B18 B 0.70406 0.75898 0.24848
 B19 B 0.76296 0.72885 0.27740
 B20 B 0.77388 0.77336 0.27025
 B21 B 0.72918 0.76168 0.27762
 B22 B 0.71970 0.71884 0.26446
 B23 B 0.76034 0.70427 0.24809
 B24 B 0.79429 0.73842 0.25210
 B25 B 0.72917 0.23833 -0.27763
 B26 B 0.77388 0.22665 -0.27025
 B27 B 0.76295 0.27116 -0.27740
 B28 B 0.71969 0.28117 -0.26446
 B29 B 0.70405 0.24103 -0.24848
 B30 B 0.73800 0.20688 -0.25249
 B31 B 0.76913 0.26431 -0.22287
 B32 B 0.72441 0.27598 -0.23037
 B33 B 0.73530 0.23143 -0.22315
 B34 B 0.77864 0.22141 -0.23612
 B35 B 0.79428 0.26159 -0.25210
 B36 B 0.76033 0.29574 -0.24809
 B37 B 0.27084 0.76168 -0.27763
 B38 B 0.22613 0.77336 -0.27026
 B39 B 0.23707 0.72884 -0.27741
 B40 B 0.28032 0.71884 -0.26446
 B41 B 0.29596 0.75898 -0.24849
 B42 B 0.26201 0.79312 -0.25250
 B43 B 0.23088 0.73569 -0.22288
 B44 B 0.27561 0.72403 -0.23037
 B45 B 0.26471 0.76858 -0.22316
 B46 B 0.22136 0.77859 -0.23613
 B47 B 0.20573 0.73841 -0.25211
 B48 B 0.23969 0.70427 -0.24810
 B49 B 1.23707 1.27116 0.72260
 B50 B 1.22614 1.22664 0.72975
 B51 B 1.27085 1.23832 0.72237
 B52 B 1.28033 1.28117 0.73554
 B53 B 1.23969 1.29574 0.75191
 B54 B 1.20574 1.26158 0.74790
 B55 B 1.26472 1.23143 0.77685
 B56 B 1.27561 1.27598 0.76963
 B57 B 1.23089 1.26431 0.77713
 B58 B 1.22138 1.22141 0.76388
 B59 B 1.26202 1.20688 0.74751
 B60 B 1.29597 1.24103 0.75152
 B61 B 0.76295 0.72884 0.72259
 B62 B 0.77389 0.77336 0.72974
 B63 B 0.72918 0.76168 0.72237
 B64 B 0.71970 0.71884 0.73554
 B65 B 0.76033 0.70427 0.75190
 B66 B 0.79429 0.73842 0.74789
 B67 B 0.73531 0.76857 0.77684
 B68 B 0.72442 0.72402 0.76963
 B69 B 0.76914 0.73569 0.77712
 B70 B 0.77865 0.77859 0.76387
 B71 B 0.73801 0.79312 0.74750
 B72 B 0.70406 0.75898 0.75151
 B73 B 1.23706 0.72885 0.27740
 B74 B 1.22614 0.77337 0.27025
 B75 B 1.27084 0.76168 0.27762
 B76 B 1.28032 0.71884 0.26446
 B77 B 1.23968 0.70427 0.24809
 B78 B 1.20573 0.73842 0.25210
 B79 B 1.26471 0.76858 0.22315
 B80 B 1.27560 0.72403 0.23037
 B81 B 1.23088 0.73570 0.22287
 B82 B 1.22137 0.77860 0.23612
 B83 B 1.26202 0.79313 0.25249
 B84 B 1.29596 0.75898 0.24848
 B85 B 0.76295 1.27116 0.27739
 B86 B 0.77388 1.22664 0.27025
 B87 B 0.72917 1.23832 0.27762
 B88 B 0.71969 1.28116 0.26445
 B89 B 0.76033 1.29573 0.24808
 B90 B 0.79428 1.26158 0.25209
 B91 B 0.73530 1.23142 0.22315
 B92 B 0.72441 1.27598 0.23036
 B93 B 0.76913 1.26431 0.22287
 B94 B 0.77865 1.22140 0.23612
 B95 B 0.73800 1.20688 0.25248
 B96 B 0.70405 1.24102 0.24848
 N97 N 0.54116 1.06691 0.02891
 N98 N 0.54917 1.09315 0.04729
 N99 N 0.56749 1.04064 -0.02890
 N100 N 0.59408 1.04828 -0.04726
 N101 N 0.54116 1.06691 -0.02892
 N102 N 0.54917 1.09315 -0.04730
 N103 N 0.56749 1.04064 0.02889
 N104 N 0.59408 1.04828 0.04725
 C105 C 0.58194 1.08078 0.05874
 C106 C 0.58194 1.08078 -0.05875
 N107 N 0.54116 0.93308 -0.02892
 N108 N 0.54917 0.90684 -0.04730
 N109 N 0.56749 0.95935 0.02889
 N110 N 0.59408 0.95170 0.04725
 N111 N 0.54116 0.93307 0.02891
 N112 N 0.54916 0.90683 0.04729
 N113 N 0.56749 0.95935 -0.02890
 N114 N 0.59408 0.95171 -0.04726
 Mn115 Mn 0.56778 0.99999 -0.00000
 C116 C 0.58194 0.91921 -0.05875
 C117 C 0.58193 0.91921 0.05874
 N118 N 0.45886 1.06691 -0.02892
 N119 N 0.45086 1.09315 -0.04730
 N120 N 0.43253 1.04064 0.02889
 N121 N 0.40594 1.04828 0.04725
 N122 N 0.45886 1.06691 0.02891
 N123 N 0.45085 1.09315 0.04729
 N124 N 0.43253 1.04064 -0.02890
 N125 N 0.40594 1.04828 -0.04726
 Mn126 Mn 0.50001 1.06725 -0.00000
 C127 C 0.41809 1.08078 -0.05875
 C128 C 0.41808 1.08078 0.05874
 N129 N 0.45886 0.93308 0.02891
 N130 N 0.45085 0.90684 0.04729
 N131 N 0.43253 0.95935 -0.02890
 N132 N 0.40594 0.95171 -0.04726
 N133 N 0.45886 0.93308 -0.02892
 N134 N 0.45085 0.90684 -0.04730
 N135 N 0.43253 0.95935 0.02889
 N136 N 0.40594 0.95171 0.04725
 Mn137 Mn 0.50001 0.93274 -0.00001
 Mn138 Mn 0.43224 0.99999 -0.00000
 Cl139 Cl 0.50001 0.99999 -0.00000
 C140 C 0.41809 0.91921 0.05874
 C141 C 0.41808 0.91921 -0.05875
 N142 N 1.06759 0.53952 0.52969
 N143 N 1.09510 0.56327 0.53615
 N144 N 1.04108 0.46044 0.54876
 N145 N 1.04988 0.43667 0.56865
 N146 N 1.06759 0.46046 0.52969
 N147 N 1.09510 0.43672 0.53615
 N148 N 1.04108 0.53954 0.54876
 N149 N 1.04988 0.56331 0.56865
 C150 C 1.08317 0.57840 0.56016
 C151 C 1.08317 0.42159 0.56016
 N152 N 0.93243 0.46046 0.52969
 N153 N 0.90492 0.43672 0.53615
 N154 N 0.95894 0.53954 0.54876
 N155 N 0.95014 0.56331 0.56865
 N156 N 0.93243 0.53952 0.52969
 N157 N 0.90492 0.56327 0.53615
 N158 N 0.95894 0.46044 0.54876
 N159 N 0.95014 0.43667 0.56865
 Mn160 Mn 1.00001 0.49999 0.54896
 C161 C 0.91685 0.42159 0.56016
 C162 C 0.91685 0.57839 0.56016
 N163 N 1.06759 0.46046 0.47030
 N164 N 1.09510 0.43672 0.46384
 N165 N 1.04108 0.53954 0.45123
 N166 N 1.04988 0.56332 0.43134
 N167 N 1.06759 0.53952 0.47030
 N168 N 1.09510 0.56327 0.46384
 N169 N 1.04108 0.46044 0.45123
 N170 N 1.04988 0.43667 0.43134
 Mn171 Mn 1.06787 0.49999 0.49999
 C172 C 1.08316 0.42159 0.43983
 C173 C 1.08316 0.57840 0.43983
 N174 N 0.93243 0.53952 0.47030
 N175 N 0.90492 0.56327 0.46384
 N176 N 0.95894 0.46044 0.45123
 N177 N 0.95014 0.43667 0.43134
 N178 N 0.93243 0.46046 0.47030
 N179 N 0.90492 0.43672 0.46384
 N180 N 0.95894 0.53954 0.45123
 N181 N 0.95014 0.56332 0.43134
 Mn182 Mn 0.93215 0.49999 0.49999
 Mn183 Mn 1.00001 0.49999 0.45103
 Cl184 Cl 1.00001 0.49999 0.49999
 C185 C 0.91686 0.57840 0.43983
 C186 C 0.91686 0.42159 0.43983
 N187 N 1.06784 0.53963 0.02986
 N188 N 1.09478 0.56415 0.03622
 N189 N 1.04108 0.46040 0.04876
 N190 N 1.04906 0.43593 0.06837
 N191 N 1.06784 0.46037 0.02986
 N192 N 1.09478 0.43585 0.03622
 N193 N 1.04108 0.53960 0.04876
 N194 N 1.04906 0.56407 0.06838
 C195 C 1.08221 0.57957 0.06003
 C196 C 1.08221 0.42043 0.06003
 N197 N 0.93218 0.46037 0.02986
 N198 N 0.90524 0.43586 0.03622
 N199 N 0.95894 0.53960 0.04876
 N200 N 0.95096 0.56407 0.06838
 N201 N 0.93218 0.53963 0.02986
 N202 N 0.90524 0.56415 0.03622
 N203 N 0.95894 0.46041 0.04876
 N204 N 0.95096 0.43593 0.06837
 Mn205 Mn 1.00001 0.50000 0.04891
 C206 C 0.91781 0.42044 0.06003
 C207 C 0.91781 0.57957 0.06003
 N208 N 1.06784 0.46037 -0.02986
 N209 N 1.09478 0.43586 -0.03623
 N210 N 1.04108 0.53960 -0.04876
 N211 N 1.04906 0.56407 -0.06838
 N212 N 1.06784 0.53963 -0.02986
 N213 N 1.09478 0.56415 -0.03622
 N214 N 1.04108 0.46041 -0.04876
 N215 N 1.04906 0.43594 -0.06838
 Mn216 Mn 1.06818 0.50000 -0.00000
 C217 C 1.08221 0.42044 -0.06003
 C218 C 1.08221 0.57957 -0.06003
 N219 N 0.93218 0.53964 -0.02986
 N220 N 0.90524 0.56415 -0.03623
 N221 N 0.95894 0.46041 -0.04876
 N222 N 0.95096 0.43594 -0.06838
 N223 N 0.93218 0.46037 -0.02986
 N224 N 0.90524 0.43586 -0.03623
 N225 N 0.95894 0.53960 -0.04876
 N226 N 0.95096 0.56407 -0.06838
 Mn227 Mn 0.93184 0.50000 -0.00000
 Mn228 Mn 1.00001 0.50000 -0.04892
 Cl229 Cl 1.00001 0.50000 -0.00000
 C230 C 0.91781 0.57957 -0.06003
 C231 C 0.91781 0.42044 -0.06003
 N232 N 0.53998 1.04072 0.54883
 N233 N 0.56360 1.04976 0.56890
 N234 N 0.46006 1.06693 0.52972
 N235 N 0.43647 1.09443 0.53636
 N236 N 0.46004 1.04072 0.54883
 N237 N 0.43642 1.04976 0.56890
 N238 N 0.53996 1.06693 0.52972
 N239 N 0.56355 1.09443 0.53636
 C240 C 0.57863 1.08285 0.56050
 C241 C 0.42139 1.08285 0.56050
 N242 N 0.46004 1.04072 0.45117
 N243 N 0.43643 1.04976 0.43109
 N244 N 0.53996 1.06693 0.47027
 N245 N 0.56355 1.09443 0.46364
 N246 N 0.53998 1.04072 0.45117
 N247 N 0.56360 1.04976 0.43109
 N248 N 0.46006 1.06693 0.47027
 N249 N 0.43647 1.09443 0.46364
 Mn250 Mn 0.50001 1.06717 0.50000
 C251 C 0.42139 1.08285 0.43950
 C252 C 0.57863 1.08285 0.43950
 N253 N 0.46004 0.95929 0.54883
 N254 N 0.43642 0.95025 0.56890
 N255 N 0.53996 0.93307 0.52972
 N256 N 0.56355 0.90557 0.53636
 N257 N 0.53998 0.95929 0.54883
 N258 N 0.56360 0.95025 0.56890
 N259 N 0.46006 0.93307 0.52972
 N260 N 0.43647 0.90557 0.53636
 Mn261 Mn 0.50001 1.00000 0.54900
 C262 C 0.42139 0.91716 0.56050
 C263 C 0.57863 0.91716 0.56050
 N264 N 0.53998 0.95929 0.45117
 N265 N 0.56360 0.95025 0.43109
 N266 N 0.46006 0.93307 0.47027
 N267 N 0.43647 0.90557 0.46364
 N268 N 0.46004 0.95929 0.45117
 N269 N 0.43642 0.95025 0.43109
 N270 N 0.53996 0.93307 0.47027
 N271 N 0.56355 0.90557 0.46364
 Mn272 Mn 0.50001 1.00000 0.45099
 Mn273 Mn 0.50001 0.93284 0.50000
 Cl274 Cl 0.50001 1.00000 0.50000
 C275 C 0.57863 0.91716 0.43950
 C276 C 0.42139 0.91716 0.43950
 N277 N 1.06796 1.03950 0.52984
 N278 N 1.09549 1.06285 0.53715
 N279 N 1.04075 0.96051 0.54838
 N280 N 1.04884 0.93712 0.56857
 N281 N 1.06796 0.96051 0.52983
 N282 N 1.09549 0.93716 0.53714
 N283 N 1.04075 1.03950 0.54838
 N284 N 1.04884 1.06289 0.56857
 C285 C 1.08251 1.07777 0.56101
 C286 C 1.08251 0.92224 0.56100
 N287 N 0.93206 0.96051 0.52983
 N288 N 0.90453 0.93717 0.53714
 N289 N 0.95927 1.03950 0.54838
 N290 N 0.95118 1.06290 0.56857
 N291 N 0.93206 1.03951 0.52984
 N292 N 0.90453 1.06286 0.53715
 N293 N 0.95926 0.96052 0.54838
 N294 N 0.95118 0.93712 0.56857
 Mn295 Mn 1.00001 1.00001 0.54848
 C296 C 0.91750 0.92224 0.56100
 C297 C 0.91751 1.07778 0.56101
 N298 N 1.06796 0.96051 0.47016
 N299 N 1.09549 0.93716 0.46285
 N300 N 1.04075 1.03950 0.45162
 N301 N 1.04884 1.06290 0.43143
 N302 N 1.06796 1.03951 0.47016
 N303 N 1.09549 1.06285 0.46285
 N304 N 1.04075 0.96052 0.45161
 N305 N 1.04884 0.93713 0.43142
 Mn306 Mn 1.06837 1.00001 0.50000
 C307 C 1.08251 0.92225 0.43899
 C308 C 1.08252 1.07778 0.43899
 N309 N 0.93206 1.03951 0.47016
 N310 N 0.90453 1.06286 0.46285
 N311 N 0.95926 0.96052 0.45161
 N312 N 0.95118 0.93713 0.43142
 N313 N 0.93206 0.96052 0.47016
 N314 N 0.90453 0.93717 0.46285
 N315 N 0.95927 1.03951 0.45162
 N316 N 0.95118 1.06290 0.43143
 Mn317 Mn 0.93164 1.00001 0.50000
 Mn318 Mn 1.00001 1.00001 0.45152
 Cl319 Cl 1.00001 1.00001 0.50000
 C320 C 0.91750 1.07778 0.43899
 C321 C 0.91750 0.92225 0.43899
 N322 N 0.56733 0.54050 -0.02890
 N323 N 0.59129 0.54566 -0.04947
 N324 N 0.54091 0.56664 0.02890
 N325 N 0.54609 0.59035 0.04946
 N326 N 0.56733 0.54050 0.02890
 N327 N 0.59128 0.54565 0.04946
 N328 N 0.54091 0.56664 -0.02890
 N329 N 0.54610 0.59036 -0.04946
 C330 C 0.57750 0.57674 -0.06202
 C331 C 0.57750 0.57673 0.06202
 N332 N 0.43269 0.54050 0.02890
 N333 N 0.40874 0.54566 0.04946
 N334 N 0.45911 0.56664 -0.02890
 N335 N 0.45393 0.59036 -0.04946
 N336 N 0.43269 0.54050 -0.02890
 N337 N 0.40874 0.54566 -0.04947
 N338 N 0.45911 0.56664 0.02889
 N339 N 0.45393 0.59036 0.04946
 Mn340 Mn 0.50001 0.56709 -0.00000
 C341 C 0.42252 0.57674 0.06202
 C342 C 0.42252 0.57675 -0.06202
 N343 N 0.56733 0.45952 0.02890
 N344 N 0.59128 0.45436 0.04946
 N345 N 0.54090 0.43339 -0.02890
 N346 N 0.54609 0.40967 -0.04946
 N347 N 0.56733 0.45953 -0.02890
 N348 N 0.59128 0.45437 -0.04947
 N349 N 0.54090 0.43338 0.02889
 N350 N 0.54609 0.40966 0.04945
 Mn351 Mn 0.56780 0.50001 -0.00000
 C352 C 0.57750 0.42328 0.06202
 C353 C 0.57750 0.42329 -0.06203
 N354 N 0.43268 0.45953 -0.02890
 N355 N 0.40873 0.45438 -0.04947
 N356 N 0.45911 0.43339 0.02889
 N357 N 0.45392 0.40967 0.04945
 N358 N 0.43268 0.45953 0.02889
 N359 N 0.40873 0.45437 0.04946
 N360 N 0.45911 0.43339 -0.02890
 N361 N 0.45392 0.40967 -0.04946
 Mn362 Mn 0.43222 0.50002 -0.00000
 Mn363 Mn 0.50001 0.43293 -0.00001
 Cl364 Cl 0.50001 0.50001 -0.00000
 C365 C 0.42252 0.42329 -0.06203
 C366 C 0.42251 0.42328 0.06201
 C367 C 0.27993 1.21232 0.19698
 C368 C 0.29443 1.19688 0.17755
 C369 C 0.31366 1.17795 0.15537
 C370 C 0.34231 1.19658 0.14063
 C371 C 0.36330 1.17721 0.12066
 C372 C 0.35579 1.13912 0.11541
 C373 C 0.32678 1.12067 0.12988
 C374 C 0.30580 1.14003 0.14984
 C375 C 0.37815 1.11878 0.09550
 C376 C 0.39666 1.10150 0.07884
 H377 H 0.34887 1.22582 0.14492
 H378 H 0.38567 1.19177 0.10961
 H379 H 0.32073 1.09123 0.12599
 H380 H 0.28396 1.12526 0.16129
 C381 C 0.77762 0.71022 0.69611
 C382 C 0.79132 0.69572 0.67603
 C383 C 0.80951 0.67806 0.65289
 C384 C 0.83827 0.69709 0.63854
 C385 C 0.85883 0.67853 0.61795
 C386 C 0.85065 0.64089 0.61165
 C387 C 0.82123 0.62221 0.62552
 C388 C 0.80072 0.64074 0.64611
 C389 C 0.87395 0.62045 0.59243
 C390 C 0.89361 0.60202 0.57721
 H391 H 0.84546 0.72588 0.64377
 H392 H 0.88167 0.69317 0.60747
 H393 H 0.81483 0.59303 0.62093
 H394 H 0.77876 0.62568 0.65723
 C395 C 0.72010 0.78767 0.19698
 C396 C 0.70559 0.80311 0.17755
 C397 C 0.68636 0.82203 0.15537
 C398 C 0.65769 0.80341 0.14064
 C399 C 0.63670 0.82277 0.12067
 C400 C 0.64422 0.86086 0.11541
 C401 C 0.67325 0.87931 0.12987
 C402 C 0.69423 0.85996 0.14983
 C403 C 0.62186 0.88121 0.09550
 C404 C 0.60336 0.89848 0.07884
 H405 H 0.65113 0.77418 0.14494
 H406 H 0.61433 0.80822 0.10963
 H407 H 0.67931 0.90874 0.12597
 H408 H 0.71608 0.87472 0.16127
 C409 C 1.22240 0.28978 0.69612
 C410 C 1.20870 0.30428 0.67603
 C411 C 1.19051 0.32193 0.65289
 C412 C 1.16175 0.30290 0.63854
 C413 C 1.14119 0.32146 0.61795
 C414 C 1.14937 0.35910 0.61165
 C415 C 1.17879 0.37778 0.62552
 C416 C 1.19930 0.35925 0.64611
 C417 C 1.12607 0.37953 0.59243
 C418 C 1.10640 0.39796 0.57721
 H419 H 1.15456 0.27412 0.64378
 H420 H 1.11835 0.30682 0.60748
 H421 H 1.18519 0.40696 0.62092
 H422 H 1.22127 0.37431 0.65723
 C423 C 0.72009 1.21233 -0.19698
 C424 C 0.70559 1.19689 -0.17755
 C425 C 0.68635 1.17797 -0.15537
 C426 C 0.69423 1.14004 -0.14983
 C427 C 0.67325 1.12069 -0.12987
 C428 C 0.64422 1.13914 -0.11541
 C429 C 0.63670 1.17722 -0.12068
 C430 C 0.65769 1.19659 -0.14064
 C431 C 0.62187 1.11879 -0.09551
 C432 C 0.60336 1.10151 -0.07884
 H433 H 0.71608 1.12528 -0.16128
 H434 H 0.67932 1.09126 -0.12598
 H435 H 0.61433 1.19177 -0.10963
 H436 H 0.65113 1.22582 -0.14494
 C437 C 1.22239 0.71023 0.30388
 C438 C 1.20869 0.69572 0.32397
 C439 C 1.19050 0.67807 0.34711
 C440 C 1.19932 0.64076 0.35390
 C441 C 1.17881 0.62223 0.37449
 C442 C 1.14936 0.64090 0.38835
 C443 C 1.14117 0.67853 0.38203
 C444 C 1.16173 0.69709 0.36144
 C445 C 1.12606 0.62046 0.40757
 C446 C 1.10640 0.60203 0.42278
 H447 H 1.22130 0.62571 0.34279
 H448 H 1.18522 0.59306 0.37910
 H449 H 1.11831 0.69317 0.39249
 H450 H 1.15452 0.72587 0.35619
 C451 C 0.27992 0.78768 -0.19699
 C452 C 0.29442 0.80311 -0.17756
 C453 C 0.31366 0.82204 -0.15538
 C454 C 0.30579 0.85996 -0.14984
 C455 C 0.32677 0.87931 -0.12988
 C456 C 0.35579 0.86086 -0.11541
 C457 C 0.36331 0.82278 -0.12068
 C458 C 0.34232 0.80342 -0.14065
 C459 C 0.37815 0.88121 -0.09551
 C460 C 0.39666 0.89849 -0.07885
 H461 H 0.28394 0.87473 -0.16128
 H462 H 0.32071 0.90875 -0.12598
 H463 H 0.38568 0.80822 -0.10963
 H464 H 0.34888 0.77418 -0.14495
 C465 C 0.77761 0.28978 0.30387
 C466 C 0.79132 0.30429 0.32396
 C467 C 0.80950 0.32194 0.34710
 C468 C 0.80071 0.35925 0.35389
 C469 C 0.82122 0.37778 0.37447
 C470 C 0.85065 0.35910 0.38834
 C471 C 0.85883 0.32146 0.38204
 C472 C 0.83826 0.30290 0.36145
 C473 C 0.87395 0.37954 0.40756
 C474 C 0.89362 0.39796 0.42278
 H475 H 0.77875 0.37432 0.34277
 H476 H 0.81482 0.40696 0.37907
 H477 H 0.88167 0.30682 0.39251
 H478 H 0.84546 0.27412 0.35621
 C479 C 1.21200 0.27849 0.19615
 C480 C 1.19717 0.29195 0.17601
 C481 C 1.17917 0.30993 0.15279
 C482 C 1.14102 0.30227 0.14657
 C483 C 1.12239 0.32255 0.12585
 C484 C 1.14179 0.35065 0.11122
 C485 C 1.18022 0.35770 0.11700
 C486 C 1.19885 0.33740 0.13772
 C487 C 1.12148 0.37413 0.09190
 C488 C 1.10389 0.39472 0.07673
 H489 H 1.12539 0.28135 0.15822
 H490 H 1.09261 0.31703 0.12175
 H491 H 1.19547 0.37954 0.10602
 H492 H 1.22827 0.34383 0.14249
 C493 C 0.71034 0.77591 0.69576
 C494 C 0.69561 0.78967 0.67575
 C495 C 0.67766 0.80816 0.65281
 C496 C 0.63911 0.80174 0.64727
 C497 C 0.62053 0.82271 0.62695
 C498 C 0.64038 0.85027 0.61211
 C499 C 0.67918 0.85610 0.61720
 C500 C 0.69778 0.83507 0.63752
 C501 C 0.62017 0.87391 0.59296
 C502 C 0.60198 0.89378 0.57772
 H503 H 0.62319 0.78127 0.65913
 H504 H 0.59048 0.81809 0.62329
 H505 H 0.69477 0.87746 0.60597
 H506 H 0.72753 0.84047 0.64180
 C507 C 1.21200 0.72150 -0.19616
 C508 C 1.19718 0.70804 -0.17602
 C509 C 1.17919 0.69005 -0.15280
 C510 C 1.19884 0.66253 -0.13777
 C511 C 1.18021 0.64223 -0.11705
 C512 C 1.14181 0.64934 -0.11122
 C513 C 1.12243 0.67750 -0.12581
 C514 C 1.14105 0.69778 -0.14654
 C515 C 1.12149 0.62587 -0.09191
 C516 C 1.10390 0.60527 -0.07674
 H517 H 1.22824 0.65605 -0.14258
 H518 H 1.19544 0.62035 -0.10610
 H519 H 1.09267 0.68307 -0.12169
 H520 H 1.12545 0.71874 -0.15816
 C521 C 0.71033 1.22409 0.30423
 C522 C 0.69559 1.21034 0.32424
 C523 C 0.67765 1.19185 0.34717
 C524 C 0.69778 1.16496 0.36249
 C525 C 0.67917 1.14394 0.38280
 C526 C 0.64036 1.14974 0.38788
 C527 C 0.62051 1.17728 0.37302
 C528 C 0.63909 1.19825 0.35271
 C529 C 0.62016 1.12610 0.40703
 C530 C 0.60197 1.10623 0.42228
 H531 H 0.72753 1.15958 0.35822
 H532 H 0.69478 1.12260 0.39405
 H533 H 0.59046 1.18188 0.37666
 H534 H 0.62316 1.21870 0.34083
 C535 C 0.78802 0.72151 0.19616
 C536 C 0.80285 0.70805 0.17602
 C537 C 0.82085 0.69007 0.15280
 C538 C 0.80117 0.66259 0.13773
 C539 C 0.81981 0.64230 0.11701
 C540 C 0.85824 0.64935 0.11122
 C541 C 0.87763 0.67745 0.12585
 C542 C 0.85901 0.69774 0.14657
 C543 C 0.87854 0.62587 0.09190
 C544 C 0.89613 0.60528 0.07674
 H545 H 0.77176 0.65616 0.14250
 H546 H 0.80456 0.62046 0.10603
 H547 H 0.90741 0.68298 0.12175
 H548 H 0.87463 0.71865 0.15823
 C549 C 0.28969 1.22409 0.69576
 C550 C 0.30442 1.21034 0.67575
 C551 C 0.32237 1.19184 0.65282
 C552 C 0.30224 1.16494 0.63752
 C553 C 0.32085 1.14391 0.61720
 C554 C 0.35965 1.14974 0.61212
 C555 C 0.37950 1.17730 0.62696
 C556 C 0.36092 1.19827 0.64727
 C557 C 0.37986 1.12610 0.59296
 C558 C 0.39805 1.10623 0.57772
 H559 H 0.27249 1.15954 0.64180
 H560 H 0.30525 1.12256 0.60597
 H561 H 0.40955 1.18191 0.62330
 H562 H 0.37684 1.21874 0.65914
 C563 C 0.78801 0.27850 -0.19616
 C564 C 0.80284 0.29196 -0.17602
 C565 C 0.82084 0.30995 -0.15280
 C566 C 0.80117 0.33744 -0.13774
 C567 C 0.81980 0.35773 -0.11702
 C568 C 0.85822 0.35066 -0.11122
 C569 C 0.87761 0.32254 -0.12584
 C570 C 0.85899 0.30226 -0.14656
 C571 C 0.87853 0.37414 -0.09191
 C572 C 0.89613 0.39473 -0.07674
 H573 H 0.77176 0.34388 -0.14252
 H574 H 0.80456 0.37959 -0.10605
 H575 H 0.90739 0.31700 -0.12173
 H576 H 0.87461 0.28133 -0.15820
 C577 C 0.28968 0.77591 0.30424
 C578 C 0.30442 0.78967 0.32425
 C579 C 0.32236 0.80816 0.34718
 C580 C 0.30224 0.83507 0.36248
 C581 C 0.32084 0.85610 0.38279
 C582 C 0.35965 0.85027 0.38788
 C583 C 0.37949 0.82271 0.37304
 C584 C 0.36091 0.80174 0.35272
 C585 C 0.37985 0.87391 0.40703
 C586 C 0.39804 0.89377 0.42228
 H587 H 0.27249 0.84047 0.35821
 H588 H 0.30525 0.87745 0.39403
 H589 H 0.40954 0.81810 0.37669
 H590 H 0.37683 0.78127 0.34086
 C591 C 1.20360 1.20394 0.29155
 C592 C 1.18813 1.18800 0.31030
 C593 C 1.17120 1.17025 0.33382
 C594 C 1.13892 1.18607 0.34613
 C595 C 1.12319 1.16947 0.36959
 C596 C 1.13983 1.13712 0.38089
 C597 C 1.17236 1.12154 0.36873
 C598 C 1.18808 1.13814 0.34527
 C599 C 1.12149 1.11793 0.40327
 C600 C 1.10463 1.10046 0.42063
 H601 H 1.12587 1.21108 0.33754
 H602 H 1.09777 1.18147 0.37865
 H603 H 1.18518 1.09628 0.37713
 H604 H 1.21325 1.12591 0.33601
 C605 C 0.70108 0.70072 -0.20996
 C606 C 0.68378 0.68333 -0.19284
 C607 C 0.66397 0.66333 -0.17162
 C608 C 0.67996 0.63071 -0.16029
 C609 C 0.66172 0.61235 -0.13856
 C610 C 0.62751 0.62664 -0.12810
 C611 C 0.61138 0.65911 -0.13958
 C612 C 0.62963 0.67747 -0.16130
 C613 C 0.60958 0.60866 -0.10507
 C614 C 0.59481 0.59392 -0.08551
 H615 H 0.70671 0.61981 -0.16800
 H616 H 0.67448 0.58736 -0.12971
 H617 H 0.58502 0.67044 -0.13152
 H618 H 0.61727 0.70289 -0.16980
 C619 C 0.79643 1.20395 0.70845
 C620 C 0.81190 1.18800 0.68970
 C621 C 0.82882 1.17025 0.66617
 C622 C 0.86110 1.18608 0.65387
 C623 C 0.87684 1.16947 0.63041
 C624 C 0.86020 1.13713 0.61911
 C625 C 0.82767 1.12154 0.63127
 C626 C 0.81195 1.13814 0.65473
 C627 C 0.87854 1.11794 0.59673
 C628 C 0.89539 1.10046 0.57937
 H629 H 0.87415 1.21109 0.66246
 H630 H 0.90226 1.18148 0.62134
 H631 H 0.81485 1.09628 0.62288
 H632 H 0.78678 1.12591 0.66399
 C633 C 0.29894 0.70073 0.20996
 C634 C 0.31624 0.68333 0.19284
 C635 C 0.33605 0.66333 0.17161
 C636 C 0.37043 0.67743 0.16133
 C637 C 0.38867 0.65906 0.13961
 C638 C 0.37251 0.62663 0.12810
 C639 C 0.33827 0.61239 0.13852
 C640 C 0.32003 0.63075 0.16025
 C641 C 0.39045 0.60866 0.10507
 C642 C 0.40521 0.59392 0.08551
 H643 H 0.38281 0.70282 0.16985
 H644 H 0.41506 0.67037 0.13157
 H645 H 0.32548 0.58742 0.12965
 H646 H 0.29325 0.61987 0.16794
 C647 C 1.20358 0.79606 0.70844
 C648 C 1.18811 0.81200 0.68969
 C649 C 1.17119 0.82975 0.66617
 C650 C 1.18806 0.86186 0.65473
 C651 C 1.17234 0.87847 0.63126
 C652 C 1.13981 0.86288 0.61910
 C653 C 1.12318 0.83053 0.63039
 C654 C 1.13891 0.81392 0.65385
 C655 C 1.12147 0.88207 0.59673
 C656 C 1.10462 0.89955 0.57936
 H657 H 1.21322 0.87410 0.66399
 H658 H 1.18515 0.90373 0.62287
 H659 H 1.09776 0.81852 0.62133
 H660 H 1.12586 0.78890 0.66244
 C661 C 0.70107 0.29927 0.20995
 C662 C 0.68377 0.31667 0.19283
 C663 C 0.66397 0.33667 0.17160
 C664 C 0.67999 0.36926 0.16025
 C665 C 0.66175 0.38762 0.13852
 C666 C 0.62751 0.37337 0.12809
 C667 C 0.61135 0.34093 0.13959
 C668 C 0.62960 0.32257 0.16132
 C669 C 0.60957 0.39135 0.10506
 C670 C 0.59481 0.40609 0.08550
 H671 H 0.70676 0.38014 0.16794
 H672 H 0.67453 0.41260 0.12965
 H673 H 0.58497 0.32962 0.13155
 H674 H 0.61722 0.29717 0.16983
 C675 C 0.79643 0.79606 0.29155
 C676 C 0.81190 0.81201 0.31030
 C677 C 0.82882 0.82976 0.33382
 C678 C 0.81195 0.86187 0.34527
 C679 C 0.82767 0.87848 0.36873
 C680 C 0.86020 0.86289 0.38089
 C681 C 0.87684 0.83055 0.36959
 C682 C 0.86111 0.81394 0.34613
 C683 C 0.87854 0.88209 0.40326
 C684 C 0.89539 0.89956 0.42063
 H685 H 0.78678 0.87411 0.33601
 H686 H 0.81485 0.90374 0.37712
 H687 H 0.90226 0.81854 0.37866
 H688 H 0.87416 0.78893 0.33754
 C689 C 0.29894 0.29929 -0.20996
 C690 C 0.31624 0.31668 -0.19284
 C691 C 0.33605 0.33669 -0.17162
 C692 C 0.32001 0.36926 -0.16025
 C693 C 0.33825 0.38762 -0.13852
 C694 C 0.37251 0.37340 -0.12811
 C695 C 0.38868 0.34098 -0.13962
 C696 C 0.37044 0.32261 -0.16135
 C697 C 0.39044 0.39137 -0.10507
 C698 C 0.40521 0.40611 -0.08552
 H699 H 0.29322 0.38012 -0.16792
 H700 H 0.32545 0.41258 -0.12964
 H701 H 0.41508 0.32969 -0.13159
 H702 H 0.38283 0.29722 -0.16988
 C703 C 1.21201 0.27850 -0.19616
 C704 C 1.19717 0.29195 -0.17602
 C705 C 1.17918 0.30994 -0.15280
 C706 C 1.19885 0.33742 -0.13774
 C707 C 1.18022 0.35772 -0.11702
 C708 C 1.14179 0.35066 -0.11122
 C709 C 1.12240 0.32255 -0.12585
 C710 C 1.14102 0.30227 -0.14657
 C711 C 1.12149 0.37413 -0.09191
 C712 C 1.10389 0.39473 -0.07674
 H713 H 1.22826 0.34386 -0.14251
 H714 H 1.19547 0.37956 -0.10604
 H715 H 1.09262 0.31702 -0.12175
 H716 H 1.12540 0.28134 -0.15822
 C717 C 0.71034 0.77591 0.30424
 C718 C 0.69560 0.78967 0.32425
 C719 C 0.67766 0.80816 0.34718
 C720 C 0.69778 0.83506 0.36248
 C721 C 0.67918 0.85609 0.38279
 C722 C 0.64037 0.85027 0.38788
 C723 C 0.62053 0.82271 0.37304
 C724 C 0.63911 0.80174 0.35272
 C725 C 0.62017 0.87391 0.40703
 C726 C 0.60198 0.89378 0.42228
 H727 H 0.72753 0.84046 0.35821
 H728 H 0.69477 0.87744 0.39403
 H729 H 0.59048 0.81810 0.37669
 H730 H 0.62318 0.78128 0.34085
 C731 C 0.78802 0.72150 -0.19616
 C732 C 0.80285 0.70805 -0.17603
 C733 C 0.82084 0.69006 -0.15280
 C734 C 0.85898 0.69777 -0.14655
 C735 C 0.87760 0.67748 -0.12583
 C736 C 0.85822 0.64935 -0.11122
 C737 C 0.81981 0.64225 -0.11704
 C738 C 0.80118 0.66255 -0.13776
 C739 C 0.87853 0.62587 -0.09191
 C740 C 0.89613 0.60528 -0.07674
 H741 H 0.87459 0.71871 -0.15818
 H742 H 0.90737 0.68304 -0.12171
 H743 H 0.80457 0.62038 -0.10608
 H744 H 0.77178 0.65608 -0.14255
 C745 C 0.28969 1.22409 0.30423
 C746 C 0.30443 1.21034 0.32424
 C747 C 0.32237 1.19185 0.34717
 C748 C 0.36093 1.19826 0.35271
 C749 C 0.37951 1.17729 0.37303
 C750 C 0.35966 1.14974 0.38788
 C751 C 0.32085 1.14393 0.38280
 C752 C 0.30225 1.16496 0.36248
 C753 C 0.37986 1.12610 0.40703
 C754 C 0.39805 1.10624 0.42228
 H755 H 0.37685 1.21872 0.34084
 H756 H 0.40956 1.18189 0.37668
 H757 H 0.30525 1.12259 0.39404
 H758 H 0.27249 1.15957 0.35821
 C759 C 1.21200 0.72151 0.19616
 C760 C 1.19717 0.70805 0.17602
 C761 C 1.17917 0.69007 0.15280
 C762 C 1.14102 0.69774 0.14657
 C763 C 1.12239 0.67746 0.12585
 C764 C 1.14179 0.64935 0.11122
 C765 C 1.18022 0.64230 0.11701
 C766 C 1.19885 0.66259 0.13773
 C767 C 1.12148 0.62587 0.09190
 C768 C 1.10389 0.60528 0.07674
 H769 H 1.12539 0.71866 0.15822
 H770 H 1.09261 0.68299 0.12175
 H771 H 1.19547 0.62045 0.10603
 H772 H 1.22826 0.65616 0.14251
 C773 C 0.71033 1.22410 0.69576
 C774 C 0.69560 1.21034 0.67575
 C775 C 0.67765 1.19185 0.65282
 C776 C 0.69778 1.16494 0.63752
 C777 C 0.67917 1.14392 0.61720
 C778 C 0.64037 1.14974 0.61212
 C779 C 0.62052 1.17729 0.62696
 C780 C 0.63910 1.19826 0.64728
 C781 C 0.62017 1.12610 0.59296
 C782 C 0.60198 1.10623 0.57772
 H783 H 0.72753 1.15955 0.64179
 H784 H 0.69477 1.12257 0.60596
 H785 H 0.59047 1.18190 0.62331
 H786 H 0.62318 1.21873 0.65915
 C787 C 0.78801 0.27849 0.19615
 C788 C 0.80285 0.29195 0.17601
 C789 C 0.82084 0.30994 0.15279
 C790 C 0.85900 0.30226 0.14657
 C791 C 0.87762 0.32254 0.12584
 C792 C 0.85823 0.35065 0.11121
 C793 C 0.81980 0.35771 0.11701
 C794 C 0.80117 0.33741 0.13773
 C795 C 0.87853 0.37413 0.09190
 C796 C 0.89612 0.39473 0.07673
 H797 H 0.87462 0.28134 0.15821
 H798 H 0.90740 0.31702 0.12174
 H799 H 0.80455 0.37955 0.10603
 H800 H 0.77176 0.34384 0.14250
 C801 C 0.28968 0.77592 0.69576
 C802 C 0.30441 0.78967 0.67575
 C803 C 0.32235 0.80817 0.65281
 C804 C 0.36090 0.80173 0.64726
 C805 C 0.37948 0.82270 0.62695
 C806 C 0.35964 0.85027 0.61211
 C807 C 0.32084 0.85611 0.61721
 C808 C 0.30224 0.83508 0.63752
 C809 C 0.37985 0.87391 0.59296
 C810 C 0.39804 0.89378 0.57772
 H811 H 0.37682 0.78126 0.65912
 H812 H 0.40953 0.81808 0.62329
 H813 H 0.30525 0.87747 0.60597
 H814 H 0.27249 0.84049 0.64180
 C815 C 0.27993 1.21233 -0.19699
 C816 C 0.29443 1.19689 -0.17755
 C817 C 0.31367 1.17797 -0.15537
 C818 C 0.30579 1.14005 -0.14983
 C819 C 0.32677 1.12069 -0.12987
 C820 C 0.35580 1.13914 -0.11541
 C821 C 0.36332 1.17722 -0.12068
 C822 C 0.34233 1.19659 -0.14064
 C823 C 0.37816 1.11879 -0.09551
 C824 C 0.39666 1.10151 -0.07884
 H825 H 0.28394 1.12528 -0.16127
 H826 H 0.32070 1.09126 -0.12597
 H827 H 0.38570 1.19177 -0.10963
 H828 H 0.34890 1.22582 -0.14495
 C829 C 0.77763 0.71023 0.30388
 C830 C 0.79133 0.69572 0.32397
 C831 C 0.80951 0.67807 0.34711
 C832 C 0.80070 0.64077 0.35391
 C833 C 0.82121 0.62223 0.37450
 C834 C 0.85066 0.64090 0.38835
 C835 C 0.85886 0.67853 0.38203
 C836 C 0.83829 0.69709 0.36144
 C837 C 0.87396 0.62046 0.40757
 C838 C 0.89362 0.60203 0.42278
 H839 H 0.77872 0.62571 0.34280
 H840 H 0.81479 0.59306 0.37910
 H841 H 0.88171 0.69317 0.39249
 H842 H 0.84550 0.72587 0.35619
 C843 C 0.72009 1.21232 0.19698
 C844 C 0.70559 1.19688 0.17755
 C845 C 0.68636 1.17795 0.15537
 C846 C 0.65772 1.19658 0.14062
 C847 C 0.63673 1.17722 0.12066
 C848 C 0.64423 1.13912 0.11540
 C849 C 0.67324 1.12067 0.12988
 C850 C 0.69422 1.14002 0.14984
 C851 C 0.62187 1.11878 0.09550
 C852 C 0.60336 1.10150 0.07884
 H853 H 0.65117 1.22582 0.14491
 H854 H 0.61436 1.19177 0.10960
 H855 H 0.67929 1.09123 0.12600
 H856 H 0.71605 1.12526 0.16130
 C857 C 1.22240 0.71022 0.69611
 C858 C 1.20870 0.69572 0.67602
 C859 C 1.19051 0.67806 0.65289
 C860 C 1.19930 0.64074 0.64611
 C861 C 1.17879 0.62221 0.62552
 C862 C 1.14937 0.64089 0.61165
 C863 C 1.14119 0.67853 0.61795
 C864 C 1.16176 0.69709 0.63854
 C865 C 1.12607 0.62045 0.59242
 C866 C 1.10641 0.60202 0.57721
 H867 H 1.22126 0.62568 0.65723
 H868 H 1.18519 0.59303 0.62093
 H869 H 1.11836 0.69317 0.60747
 H870 H 1.15457 0.72588 0.64377
 C871 C 0.72010 0.78767 -0.19699
 C872 C 0.70559 0.80311 -0.17756
 C873 C 0.68636 0.82203 -0.15538
 C874 C 0.65769 0.80341 -0.14065
 C875 C 0.63670 0.82278 -0.12069
 C876 C 0.64423 0.86086 -0.11541
 C877 C 0.67326 0.87931 -0.12987
 C878 C 0.69424 0.85996 -0.14983
 C879 C 0.62187 0.88121 -0.09551
 C880 C 0.60336 0.89848 -0.07885
 H881 H 0.65113 0.77418 -0.14496
 H882 H 0.61432 0.80823 -0.10964
 H883 H 0.67932 0.90874 -0.12598
 H884 H 0.71609 0.87472 -0.16128
 C885 C 1.22240 0.28978 0.30388
 C886 C 1.20870 0.30428 0.32396
 C887 C 1.19051 0.32193 0.34710
 C888 C 1.19931 0.35925 0.35389
 C889 C 1.17880 0.37778 0.37448
 C890 C 1.14937 0.35910 0.38834
 C891 C 1.14119 0.32146 0.38204
 C892 C 1.16175 0.30290 0.36145
 C893 C 1.12607 0.37953 0.40757
 C894 C 1.10640 0.39796 0.42278
 H895 H 1.22127 0.37431 0.34277
 H896 H 1.18519 0.40696 0.37907
 H897 H 1.11835 0.30682 0.39251
 H898 H 1.15456 0.27412 0.35621
 C899 C 0.27992 0.78768 0.19698
 C900 C 0.29443 0.80312 0.17755
 C901 C 0.31366 0.82204 0.15537
 C902 C 0.34231 0.80341 0.14063
 C903 C 0.36330 0.82277 0.12067
 C904 C 0.35580 0.86086 0.11541
 C905 C 0.32678 0.87932 0.12988
 C906 C 0.30580 0.85997 0.14984
 C907 C 0.37816 0.88121 0.09550
 C908 C 0.39666 0.89848 0.07884
 H909 H 0.34886 0.77417 0.14493
 H910 H 0.38567 0.80822 0.10961
 H911 H 0.32073 0.90876 0.12599
 H912 H 0.28396 0.87474 0.16129
 C913 C 0.77762 0.28978 0.69612
 C914 C 0.79132 0.30429 0.67603
 C915 C 0.80951 0.32194 0.65289
 C916 C 0.83826 0.30290 0.63854
 C917 C 0.85882 0.32146 0.61795
 C918 C 0.85065 0.35910 0.61165
 C919 C 0.82123 0.37779 0.62552
 C920 C 0.80072 0.35926 0.64611
 C921 C 0.87395 0.37954 0.59243
 C922 C 0.89362 0.39796 0.57721
 H923 H 0.84545 0.27412 0.64378
 H924 H 0.88166 0.30682 0.60748
 H925 H 0.81484 0.40697 0.62093
 H926 H 0.77876 0.37432 0.65724
 C927 C 1.20359 1.20394 0.70845
 C928 C 1.18812 1.18800 0.68970
 C929 C 1.17120 1.17025 0.66617
 C930 C 1.18807 1.13814 0.65473
 C931 C 1.17235 1.12153 0.63127
 C932 C 1.13983 1.13712 0.61911
 C933 C 1.12319 1.16947 0.63040
 C934 C 1.13892 1.18607 0.65386
 C935 C 1.12148 1.11793 0.59673
 C936 C 1.10463 1.10045 0.57937
 H937 H 1.21324 1.12590 0.66399
 H938 H 1.18517 1.09627 0.62288
 H939 H 1.09777 1.18148 0.62134
 H940 H 1.12587 1.21109 0.66245
 C941 C 0.70108 0.70072 0.20996
 C942 C 0.68378 0.68332 0.19284
 C943 C 0.66398 0.66332 0.17161
 C944 C 0.68001 0.63075 0.16024
 C945 C 0.66177 0.61239 0.13851
 C946 C 0.62751 0.62662 0.12810
 C947 C 0.61134 0.65904 0.13962
 C948 C 0.62958 0.67740 0.16135
 C949 C 0.60958 0.60865 0.10507
 C950 C 0.59481 0.59391 0.08551
 H951 H 0.70680 0.61989 0.16791
 H952 H 0.67457 0.58744 0.12963
 H953 H 0.58494 0.67033 0.13160
 H954 H 0.61719 0.70279 0.16988
 C955 C 1.20358 0.79606 0.29155
 C956 C 1.18811 0.81201 0.31030
 C957 C 1.17119 0.82976 0.33382
 C958 C 1.18807 0.86187 0.34527
 C959 C 1.17234 0.87847 0.36873
 C960 C 1.13982 0.86289 0.38089
 C961 C 1.12317 0.83055 0.36959
 C962 C 1.13891 0.81394 0.34613
 C963 C 1.12147 0.88209 0.40326
 C964 C 1.10462 0.89956 0.42063
 H965 H 1.21324 0.87410 0.33601
 H966 H 1.18516 0.90373 0.37712
 H967 H 1.09775 0.81854 0.37865
 H968 H 1.12586 0.78892 0.33754
 C969 C 0.70107 0.29928 -0.20996
 C970 C 0.68377 0.31668 -0.19284
 C971 C 0.66397 0.33669 -0.17161
 C972 C 0.67998 0.36928 -0.16026
 C973 C 0.66175 0.38764 -0.13853
 C974 C 0.62751 0.37339 -0.12810
 C975 C 0.61135 0.34095 -0.13960
 C976 C 0.62960 0.32258 -0.16133
 C977 C 0.60957 0.39136 -0.10507
 C978 C 0.59481 0.40610 -0.08551
 H979 H 0.70676 0.38015 -0.16795
 H980 H 0.67453 0.41261 -0.12967
 H981 H 0.58497 0.32964 -0.13156
 H982 H 0.61722 0.29718 -0.16984
 C983 C 0.79643 1.20395 0.29155
 C984 C 0.81190 1.18800 0.31030
 C985 C 0.82882 1.17025 0.33383
 C986 C 0.81194 1.13815 0.34527
 C987 C 0.82766 1.12155 0.36874
 C988 C 0.86019 1.13713 0.38089
 C989 C 0.87684 1.16947 0.36959
 C990 C 0.86110 1.18607 0.34613
 C991 C 0.87854 1.11794 0.40327
 C992 C 0.89539 1.10047 0.42064
 H993 H 0.78676 1.12592 0.33602
 H994 H 0.81484 1.09629 0.37713
 H995 H 0.90226 1.18147 0.37865
 H996 H 0.87416 1.21109 0.33753
 C997 C 0.29894 0.70073 -0.20996
 C998 C 0.31625 0.68334 -0.19284
 C999 C 0.33606 0.66334 -0.17162
 C1000 C 0.37037 0.67751 -0.16128
 C1001 C 0.38862 0.65915 -0.13955
 C1002 C 0.37252 0.62665 -0.12810
 C1003 C 0.33834 0.61233 -0.13859
 C1004 C 0.32010 0.63069 -0.16032
 C1005 C 0.39045 0.60867 -0.10507
 C1006 C 0.40521 0.59393 -0.08551
 H1007 H 0.38270 0.70296 -0.16975
 H1008 H 0.41495 0.67051 -0.13147
 H1009 H 0.32560 0.58731 -0.12976
 H1010 H 0.29337 0.61976 -0.16805
 C1011 C 0.79644 0.79606 0.70844
 C1012 C 0.81191 0.81200 0.68969
 C1013 C 0.82883 0.82975 0.66617
 C1014 C 0.86110 0.81393 0.65385
 C1015 C 0.87684 0.83054 0.63039
 C1016 C 0.86019 0.86289 0.61910
 C1017 C 0.82767 0.87847 0.63126
 C1018 C 0.81195 0.86187 0.65473
 C1019 C 0.87854 0.88208 0.59673
 C1020 C 0.89539 0.89956 0.57936
 H1021 H 0.87415 0.78891 0.66244
 H1022 H 0.90225 0.81853 0.62133
 H1023 H 0.81486 0.90373 0.62287
 H1024 H 0.78678 0.87410 0.66399
 C1025 C 0.29894 0.29928 0.20995
 C1026 C 0.31624 0.31667 0.19283
 C1027 C 0.33604 0.33668 0.17160
 C1028 C 0.32001 0.36925 0.16023
 C1029 C 0.33824 0.38761 0.13850
 C1030 C 0.37250 0.37338 0.12809
 C1031 C 0.38867 0.34096 0.13960
 C1032 C 0.37043 0.32259 0.16133
 C1033 C 0.39043 0.39136 0.10506
 C1034 C 0.40520 0.40610 0.08550
 H1035 H 0.29322 0.38011 0.16791
 H1036 H 0.32545 0.41257 0.12962
 H1037 H 0.41507 0.32967 0.13158
 H1038 H 0.38282 0.29721 0.16986
   
