data_POSCAR
  _audit_creation_date              2014-09-24
  _audit_creation_method            'ToBaCCo'
  _symmetry_space_group_name_H-M    'P1'
  _symmetry_Int_Tables_number       1
  _symmetry_cell_setting            triclinic
  loop_
  _symmetry_equiv_pos_as_xyz
 x,y,z
_cell_length_a 25.4302
_cell_length_b 17.2064
_cell_length_c 23.1118
_cell_angle_alpha 89.906100
_cell_angle_beta 90.066300
_cell_angle_gamma 90.292000
loop_
  _atom_site_label
  _atom_site_type_symbol
  _atom_site_fract_x
  _atom_site_fract_y
  _atom_site_fract_z
C1 C 0.21438 0.21060 0.21621
 C2 C 0.21218 0.29310 0.21831
 C3 C 0.24173 0.33296 0.25999
 C4 C 0.27519 0.29367 0.29796
 C5 C 0.27762 0.21121 0.29662
 C6 C 0.24594 0.17090 0.25653
 H7 H 0.24857 0.10807 0.25398
 H8 H 0.23872 0.39569 0.26292
 C9 C 0.77624 0.29498 0.20686
 C10 C 0.77472 0.21272 0.20359
 C11 C 0.74085 0.17068 0.23985
 C12 C 0.70741 0.20908 0.27827
 C13 C 0.70561 0.29122 0.27828
 C14 C 0.74095 0.33335 0.24371
 H15 H 0.74058 0.39636 0.24501
 H16 H 0.74177 0.10769 0.23945
 C17 C 0.72429 0.71376 0.70337
 C18 C 0.71839 0.79479 0.71164
 C19 C 0.75328 0.83438 0.74853
 C20 C 0.79399 0.79471 0.77729
 C21 C 0.79678 0.71243 0.77216
 C22 C 0.76187 0.67328 0.73540
 H23 H 0.76402 0.61056 0.73164
 H24 H 0.74966 0.89681 0.75332
 C25 C 0.28573 0.79262 0.72024
 C26 C 0.28488 0.71084 0.71807
 C27 C 0.24993 0.66918 0.75333
 C28 C 0.21642 0.70749 0.79244
 C29 C 0.21744 0.79033 0.79396
 C30 C 0.25154 0.83150 0.75741
 H31 H 0.25252 0.89449 0.75901
 H32 H 0.24855 0.60638 0.74966
 O33 O 1.05161 -0.09080 -0.01467
 O34 O 0.94730 -0.00366 0.07393
 O35 O 0.94951 -0.09302 -0.01918
 O36 O 1.05027 -0.00466 0.07576
 O37 O 1.04955 0.10105 0.02173
 O38 O 0.95208 0.01090 -0.07547
 O39 O 0.94679 0.09929 0.01663
 O40 O 1.05398 0.01464 -0.06920
 Cu41 Cu 0.99887 -0.05842 0.03477
 Cu42 Cu 1.00028 0.06711 -0.03192
 C43 C 1.07152 -0.05214 -0.05613
 C44 C 0.92934 0.06257 0.06027
 C45 C 0.93495 -0.05690 -0.06438
 C46 C 1.06834 0.06245 0.06377
 O47 O 0.44297 0.51579 0.43122
 O48 O 0.55219 0.59981 0.51467
 O49 O 0.54465 0.51153 0.42296
 O50 O 0.44962 0.60123 0.52240
 O51 O 0.45325 0.49752 0.57888
 O52 O 0.54608 0.40605 0.47773
 O53 O 0.55551 0.49422 0.56873
 O54 O 0.44435 0.41164 0.48708
 Cu55 Cu 0.49748 0.56783 0.46742
 Cu56 Cu 0.50015 0.44192 0.53379
 C57 C 0.42444 0.44985 0.44546
 C58 C 0.57304 0.56112 0.55539
 C59 C 0.56081 0.44314 0.43306
 C60 C 0.43482 0.56410 0.56706
 O61 O 0.05176 0.48010 -0.07048
 O62 O -0.05408 0.40535 0.02308
 O63 O -0.04980 0.48363 -0.07420
 O64 O 0.04750 0.40588 0.02782
 O65 O 0.04826 0.51758 0.07503
 O66 O -0.05106 0.59379 -0.02540
 O67 O -0.05408 0.51541 0.07205
 O68 O 0.04972 0.59179 -0.02333
 Cu69 Cu -0.00130 0.43248 -0.02817
 Cu70 Cu -0.00205 0.56569 0.02967
 C71 C 0.06806 0.54925 -0.06328
 C72 C -0.07107 0.44663 0.06445
 C73 C -0.06567 0.55298 -0.06825
 C74 C 0.06452 0.44859 0.06852
 O75 O 0.44594 0.91058 0.52547
 O76 O 0.54789 0.98769 0.42760
 O77 O 0.54702 0.90427 0.52259
 O78 O 0.44495 0.98994 0.42943
 O79 O 0.44942 1.09892 0.47978
 O80 O 0.55059 1.01260 0.57387
 O81 O 0.55158 1.09515 0.47956
 O82 O 0.44901 1.01921 0.57614
 Cu83 Cu 0.49613 0.93747 0.47076
 Cu84 Cu 0.50042 1.06755 0.53223
 C85 C 0.43120 0.95100 0.56840
 C86 C 0.56756 1.05440 0.43750
 C87 C 0.56527 0.94327 0.56472
 C88 C 0.42979 1.05887 0.43895
 C89 C 1.11188 0.07827 0.15896
 C90 C 1.14846 0.11243 0.19606
 C91 C 1.18491 0.16732 0.17545
 C92 C 1.18834 0.18054 0.11482
 C93 C 1.15166 0.14461 0.07676
 C94 C 1.11127 0.09604 0.09971
 C95 C 1.15831 0.15628 0.01679
 N96 N 1.19811 0.20169 -0.00308
 N97 N 1.23243 0.23514 0.03263
 C98 C 1.22932 0.22534 0.09068
 H99 H 1.08243 0.03976 0.17728
 H100 H 1.14567 0.10003 0.24196
 H101 H 1.13371 0.12800 -0.01491
 H102 H 1.25954 0.25135 0.11739
 C103 C 0.61801 0.57985 0.64898
 C104 C 0.65472 0.61591 0.68470
 C105 C 0.69074 0.66967 0.66219
 C106 C 0.69304 0.68182 0.60164
 C107 C 0.65619 0.64410 0.56487
 C108 C 0.61683 0.59518 0.58937
 C109 C 0.66129 0.65512 0.50472
 N110 N 0.69959 0.70231 0.48355
 N111 N 0.73360 0.73846 0.51822
 C112 C 0.73186 0.72946 0.57644
 H113 H 0.58896 0.54181 0.66856
 H114 H 0.65329 0.60478 0.73084
 H115 H 0.63639 0.62532 0.47401
 H116 H 0.76124 0.75880 0.60241
 C117 C -0.15290 0.37226 0.07934
 C118 C -0.19040 0.33579 0.11376
 C119 C -0.18724 0.33861 0.17429
 C120 C -0.14526 0.38062 0.20057
 C121 C -0.10661 0.41739 0.16531
 C122 C -0.11089 0.41329 0.10405
 C123 C -0.06347 0.45341 0.19287
 N124 N -0.06009 0.45390 0.25139
 N125 N -0.09639 0.41993 0.28437
 C126 C -0.13851 0.38289 0.26110
 H127 H -0.15669 0.36822 0.03273
 H128 H -0.22250 0.30535 0.09278
 H129 H -0.03170 0.47985 0.16890
 H130 H -0.16570 0.35455 0.29027
 C131 C 0.34981 0.87731 0.58773
 C132 C 0.31448 0.83965 0.62418
 C133 C 0.32260 0.83846 0.68404
 C134 C 0.36658 0.87775 0.70791
 C135 C 0.40214 0.91775 0.67094
 C136 C 0.39361 0.91686 0.61008
 C137 C 0.44626 0.95409 0.69635
 N138 N 0.45367 0.95063 0.75439
 N139 N 0.42027 0.91302 0.78889
 C140 C 0.37717 0.87622 0.76768
 H141 H 0.34296 0.87520 0.54151
 H142 H 0.28092 0.80992 0.60544
 H143 H 0.47575 0.98377 0.67102
 H144 H 0.35195 0.84558 0.79774
 C145 C -0.14268 0.63308 -0.09165
 C146 C -0.17587 0.67108 -0.12999
 C147 C -0.16844 0.66539 -0.18985
 C148 C -0.12737 0.61821 -0.21157
 C149 C -0.09265 0.58069 -0.17241
 C150 C -0.10099 0.58778 -0.11180
 C151 C -0.04940 0.54043 -0.19559
 N152 N -0.04303 0.53551 -0.25369
 N153 N -0.07645 0.56888 -0.29031
 C154 C -0.11821 0.61018 -0.27132
 H155 H -0.14944 0.63957 -0.04562
 H156 H -0.20738 0.70630 -0.11277
 H157 H -0.01987 0.51394 -0.16862
 H158 H -0.14307 0.63756 -0.30323
 C159 C 0.40372 1.15512 0.36594
 C160 C 0.36684 1.19154 0.33090
 C161 C 0.31344 1.16949 0.33184
 C162 C 0.29780 1.10674 0.36852
 C163 C 0.33605 1.06818 0.40294
 C164 C 0.38907 1.09348 0.40184
 C165 C 0.31953 1.00726 0.43937
 N166 N 0.26796 0.98751 0.44215
 N167 N 0.23178 1.02507 0.41144
 C168 C 0.24475 1.08427 0.37529
 H169 H 0.44429 1.17469 0.36449
 H170 H 0.38053 1.23693 0.30203
 H171 H 0.34704 0.97584 0.46618
 H172 H 0.21320 1.11400 0.35333
 C173 C 1.11125 -0.07733 -0.15150
 C174 C 1.14629 -0.11541 -0.18770
 C175 C 1.18516 -0.16398 -0.16486
 C176 C 1.19124 -0.16971 -0.10407
 C177 C 1.15553 -0.13086 -0.06702
 C178 C 1.11395 -0.08660 -0.09131
 C179 C 1.16376 -0.13612 -0.00688
 N180 N 1.20421 -0.17874 0.01421
 N181 N 1.23737 -0.21570 -0.02062
 C182 C 1.23248 -0.21228 -0.07896
 H183 H 1.08027 -0.04296 -0.17090
 H184 H 1.14167 -0.10962 -0.23412
 H185 H 1.13941 -0.10547 0.02367
 H186 H 1.26127 -0.24198 -0.10513
 C187 C 0.65054 0.41335 0.39922
 C188 C 0.68551 0.37786 0.36117
 C189 C 0.66696 0.33363 0.31444
 C190 C 0.61203 0.32762 0.30467
 C191 C 0.57655 0.36241 0.34398
 C192 C 0.59619 0.40545 0.39149
 C193 C 0.52229 0.35291 0.33431
 N194 N 0.50502 0.31290 0.28745
 N195 N 0.53835 0.28203 0.24960
 C196 C 0.59118 0.28838 0.25640
 H197 H 0.66596 0.44654 0.43531
 H198 H 0.72738 0.38339 0.36896
 H199 H 0.49356 0.37697 0.36351
 H200 H 0.61636 0.26286 0.22398
 C201 C 0.84557 -0.08324 -0.10291
 C202 C 0.81132 -0.11624 -0.14334
 C203 C 0.83037 -0.16312 -0.18837
 C204 C 0.88572 -0.17098 -0.19497
 C205 C 0.92025 -0.13953 -0.15282
 C206 C 0.89985 -0.09543 -0.10646
 C207 C 0.97453 -0.15221 -0.15914
 N208 N 0.99300 -0.18975 -0.20639
 N209 N 0.96084 -0.21491 -0.24788
 C210 C 0.90801 -0.20587 -0.24414
 H211 H 0.82939 -0.04907 -0.06807
 H212 H 0.76940 -0.10838 -0.13751
 H213 H 1.00237 -0.13222 -0.12717
 H214 H 0.88386 -0.22533 -0.27984
 C215 C 0.38189 0.42699 0.35123
 C216 C 0.34565 0.38991 0.31558
 C217 C 0.30708 0.34083 0.33891
 C218 C 0.30224 0.33411 0.39976
 C219 C 0.33919 0.37197 0.43630
 C220 C 0.38071 0.41623 0.41136
 C221 C 0.33227 0.36556 0.49656
 N222 N 0.29181 0.32288 0.51818
 N223 N 0.25752 0.28681 0.48378
 C224 C 0.26118 0.29128 0.42537
 H225 H 0.41267 0.46158 0.33131
 H226 H 0.34940 0.39636 0.26912
 H227 H 0.35761 0.39535 0.52685
 H228 H 0.23159 0.26222 0.39952
 C229 C 0.09201 0.64573 -0.13676
 C230 C 0.12794 0.68411 -0.17196
 C231 C 0.18140 0.66336 -0.17261
 C232 C 0.19778 0.59874 -0.13815
 C233 C 0.16009 0.55686 -0.10485
 C234 C 0.10740 0.58255 -0.10292
 C235 C 0.17693 0.49241 -0.07240
 N236 N 0.22857 0.47354 -0.07101
 N237 N 0.26444 0.51519 -0.09943
 C238 C 0.25102 0.57744 -0.13222
 H239 H 0.05154 0.66526 -0.13624
 H240 H 0.11343 0.73030 -0.19944
 H241 H 0.14969 0.45737 -0.04757
 H242 H 0.28241 0.61036 -0.15210
 C243 C 0.60040 1.08066 0.33881
 C244 C 0.63409 1.11812 0.30018
 C245 C 0.67642 1.16275 0.32041
 C246 C 0.68752 1.16465 0.38046
 C247 C 0.65343 1.12631 0.41984
 C248 C 0.60840 1.08639 0.39869
 C249 C 0.66645 1.12786 0.47907
 N250 N 0.71009 1.16638 0.49720
 N251 N 0.74185 1.20283 0.46019
 C252 C 0.73224 1.20298 0.40250
 H253 H 0.56652 1.04973 0.32188
 H254 H 0.62579 1.11502 0.25425
 H255 H 0.64318 1.09758 0.51110
 H256 H 0.75993 1.23233 0.37439
 C257 C 0.08645 0.35702 0.14619
 C258 C 0.12199 0.32000 0.18256
 C259 C 0.17574 0.33870 0.18097
 C260 C 0.19334 0.39954 0.14392
 C261 C 0.15650 0.43981 0.10900
 C262 C 0.10312 0.41643 0.10913
 C263 C 0.17469 0.50088 0.07372
 N264 N 0.22666 0.51866 0.07229
 N265 N 0.26156 0.47929 0.10356
 C266 C 0.24681 0.42020 0.13899
 H267 H 0.04553 0.33908 0.14688
 H268 H 0.10756 0.27498 0.21135
 H269 H 0.14816 0.53445 0.04711
 H270 H 0.27718 0.38961 0.16229
 C271 C 0.65553 0.92924 0.60296
 C272 C 0.69234 0.89500 0.63970
 C273 C 0.67687 0.83885 0.68042
 C274 C 0.62277 0.82030 0.68623
 C275 C 0.58593 0.85141 0.64663
 C276 C 0.60262 0.90659 0.60491
 C277 C 0.53329 0.82659 0.65061
 N278 N 0.51836 0.77734 0.69349
 N279 N 0.55256 0.75121 0.73251
 C280 C 0.60414 0.77143 0.73059
 H281 H 0.66867 0.97194 0.57158
 H282 H 0.73347 0.91039 0.63499
 H283 H 0.50385 0.84617 0.62033
 H284 H 0.63022 0.74893 0.76354
 C285 C 0.90062 0.12210 0.15181
 C286 C 0.86328 0.15838 0.18647
 C287 C 0.81181 0.16919 0.16651
 C288 C 0.79746 0.14214 0.11088
 C289 C 0.83589 0.10770 0.07489
 C290 C 0.88776 0.09759 0.09580
 C291 C 0.82091 0.08402 0.01909
 N292 N 0.77055 0.09347 0.00111
 N293 N 0.73429 0.12513 0.03516
 C294 C 0.74599 0.14977 0.08940
 H295 H 0.94022 0.11481 0.16825
 H296 H 0.87468 0.17899 0.22897
 H297 H 0.84879 0.05833 -0.01032
 H298 H 0.71511 0.17549 0.11509
 C299 C 0.41011 0.62594 0.65931
 C300 C 0.37375 0.66105 0.69588
 C301 C 0.32096 0.66812 0.67935
 C302 C 0.30432 0.63876 0.62514
 C303 C 0.34142 0.60410 0.58760
 C304 C 0.39469 0.59818 0.60497
 C305 C 0.32373 0.57611 0.53381
 N306 N 0.27236 0.58291 0.51891
 N307 N 0.23757 0.61586 0.55409
 C308 C 0.25177 0.64410 0.60662
 H309 H 0.45078 0.62181 0.67299
 H310 H 0.38696 0.68385 0.73712
 H311 H 0.35016 0.54887 0.50353
 H312 H 0.22191 0.67056 0.63330
   
