data_POSCAR
  _audit_creation_date              2014-09-24
  _audit_creation_method            'ToBaCCo'
  _symmetry_space_group_name_H-M    'P1'
  _symmetry_Int_Tables_number       1
  _symmetry_cell_setting            triclinic
  loop_
  _symmetry_equiv_pos_as_xyz
 x,y,z
_cell_length_a 64.4225
_cell_length_b 64.4711
_cell_length_c 50.6656
_cell_angle_alpha 90.073800
_cell_angle_beta 90.002000
_cell_angle_gamma 119.962600
loop_
  _atom_site_label
  _atom_site_type_symbol
  _atom_site_fract_x
  _atom_site_fract_y
  _atom_site_fract_z
C1 C -0.05403 0.48417 -0.05876
 C2 C -0.05490 0.46253 -0.05790
 C3 C -0.03789 0.46474 -0.03955
 N4 N -0.02679 0.48707 -0.02920
 C5 C -0.03657 0.49904 -0.04085
 C6 C -0.03254 0.44645 -0.03350
 C7 C -0.01459 0.44886 -0.01550
 C8 C -0.00714 0.43215 -0.01252
 C9 C 0.01064 0.44101 0.00623
 C10 C 0.01369 0.46293 0.01432
 N11 N -0.00205 0.46737 0.00130
 C12 C 0.03082 0.47794 0.03327
 C13 C 0.03668 0.50174 0.03897
 C14 C 0.05411 0.51657 0.05690
 C15 C 0.05496 0.53822 0.05607
 C16 C 0.03797 0.53598 0.03771
 N17 N 0.02689 0.51369 0.02732
 C18 C 0.03263 0.55423 0.03167
 C19 C 0.01477 0.55190 0.01365
 C20 C 0.00748 0.56870 0.01070
 C21 C -0.01028 0.55993 -0.00806
 C22 C -0.01349 0.53793 -0.01620
 N23 N 0.00218 0.53340 -0.00315
 C24 C -0.03065 0.52292 -0.03519
 H25 H -0.06513 0.48840 -0.07109
 H26 H -0.06664 0.44697 -0.06963
 H27 H 0.00529 0.51940 -0.00687
 H28 H -0.01361 0.41541 -0.02303
 H29 H 0.02043 0.43238 0.01288
 H30 H 0.06521 0.51233 0.06922
 H31 H 0.06667 0.55377 0.06780
 H32 H -0.01998 0.56866 -0.01470
 H33 H -0.00525 0.48131 0.00505
 H34 H 0.01404 0.58545 0.02123
 C35 C 0.51863 0.46355 -0.05789
 C36 C 0.53935 0.48525 -0.05872
 C37 C 0.53650 0.50013 -0.04110
 N38 N 0.51468 0.48816 -0.02963
 C39 C 0.50364 0.46578 -0.03982
 C40 C 0.55429 0.52405 -0.03557
 C41 C 0.55204 0.53912 -0.01681
 C42 C 0.57074 0.56127 -0.00902
 C43 C 0.56174 0.57003 0.00977
 C44 C 0.53774 0.55305 0.01305
 N45 N 0.53190 0.53446 -0.00358
 C46 C 0.52226 0.55525 0.03126
 C47 C 0.49879 0.53687 0.03749
 C48 C 0.48412 0.53894 0.05610
 C49 C 0.46339 0.51725 0.05698
 C50 C 0.46594 0.50254 0.03882
 N51 N 0.48758 0.51461 0.02699
 C52 C 0.44802 0.47876 0.03301
 C53 C 0.45013 0.46388 0.01389
 C54 C 0.43124 0.44206 0.00558
 C55 C 0.44018 0.43327 -0.01322
 C56 C 0.46437 0.44990 -0.01601
 N57 N 0.47034 0.46832 0.00094
 C58 C 0.47998 0.44748 -0.03390
 H59 H 0.51498 0.44795 -0.06944
 H60 H 0.55480 0.48950 -0.07085
 H61 H 0.48750 0.48212 0.00493
 H62 H 0.58910 0.57011 -0.01586
 H63 H 0.57187 0.58689 0.02012
 H64 H 0.48797 0.55444 0.06797
 H65 H 0.44812 0.51289 0.06946
 H66 H 0.42991 0.41660 -0.02388
 H67 H 0.51486 0.52025 -0.00701
 H68 H 0.41279 0.43345 0.01213
 C69 C 0.51650 1.05662 -0.05554
 C70 C 0.53731 1.05576 -0.05641
 C71 C 0.53458 1.03806 -0.03887
 N72 N 0.51273 1.02811 -0.02742
 C73 C 0.50157 1.03936 -0.03753
 C74 C 0.55247 1.03204 -0.03342
 C75 C 0.55034 1.01475 -0.01474
 C76 C 0.56913 1.01140 -0.00702
 C77 C 0.56023 0.99364 0.01171
 C78 C 0.53620 0.98653 0.01502
 N79 N 0.53024 0.99921 -0.00154
 C80 C 0.52081 0.96884 0.03322
 C81 C 0.49730 0.96364 0.03950
 C82 C 0.48273 0.94691 0.05812
 C83 C 0.46192 0.94777 0.05904
 C84 C 0.46432 0.96493 0.04090
 N85 N 0.48595 0.97456 0.02903
 C86 C 0.44628 0.97065 0.03514
 C87 C 0.44825 0.98758 0.01605
 C88 C 0.42925 0.99036 0.00776
 C89 C 0.43809 1.00808 -0.01099
 C90 C 0.46233 1.01579 -0.01377
 N91 N 0.46842 1.00343 0.00314
 C92 C 0.47786 1.03386 -0.03161
 H93 H 0.51275 1.06852 -0.06702
 H94 H 0.55274 1.06702 -0.06852
 H95 H 0.48562 1.00689 0.00713
 H96 H 0.58749 1.02100 -0.01387
 H97 H 0.57045 0.98699 0.02200
 H98 H 0.48670 0.93536 0.06996
 H99 H 0.44669 0.93683 0.07155
 H100 H 0.42773 1.01438 -0.02162
 H101 H 0.51316 0.99631 -0.00493
 H102 H 0.41081 0.98043 0.01429
 C103 C 1.05293 0.51405 0.43922
 C104 C 1.05253 0.53508 0.43864
 C105 C 1.03585 0.53308 0.45731
 N106 N 1.02608 0.51144 0.46916
 C107 C 1.03642 0.49969 0.45819
 C108 C 1.03069 0.55147 0.46355
 C109 C 1.01407 0.54973 0.48302
 C110 C 1.01171 0.56888 0.49177
 C111 C 0.99408 0.56015 0.51066
 C112 C 0.98604 0.53587 0.51307
 N113 N 0.99805 0.52959 0.49584
 C114 C 0.96798 0.52049 0.53093
 C115 C 0.96221 0.49675 0.53676
 C116 C 0.94503 0.48209 0.55495
 C117 C 0.94559 0.46114 0.55574
 C118 C 0.96303 0.46356 0.53795
 N119 N 0.97313 0.48535 0.52643
 C120 C 0.96872 0.44546 0.53233
 C121 C 0.98565 0.44726 0.51332
 C122 C 0.98863 0.42827 0.50552
 C123 C 1.00607 0.43682 0.48642
 C124 C 1.01342 0.46089 0.48294
 N125 N 1.00114 0.46716 0.49978
 C126 C 1.03093 0.47604 0.46434
 H127 H 1.06404 0.50979 0.42694
 H128 H 1.06344 0.55020 0.42600
 H129 H 1.00424 0.48431 0.50308
 H130 H 1.02184 0.58734 0.48541
 H131 H 0.98808 0.57062 0.52160
 H132 H 0.93341 0.48611 0.56663
 H133 H 0.93430 0.44582 0.56796
 H134 H 1.01237 0.42636 0.47600
 H135 H 0.99421 0.51232 0.49160
 H136 H 0.97897 0.40999 0.51256
 C137 C 0.51794 0.46240 0.55608
 C138 C 0.53870 0.48408 0.55698
 C139 C 0.53601 0.49890 0.53916
 N140 N 0.51426 0.48690 0.52751
 C141 C 0.50313 0.46459 0.53779
 C142 C 0.55387 0.52274 0.53355
 C143 C 0.55164 0.53774 0.51472
 C144 C 0.57041 0.55972 0.50669
 C145 C 0.56138 0.56850 0.48799
 C146 C 0.53729 0.55169 0.48500
 N147 N 0.53142 0.53320 0.50172
 C148 C 0.52171 0.55399 0.46702
 C149 C 0.49817 0.53567 0.46089
 C150 C 0.48337 0.53786 0.44257
 C151 C 0.46264 0.51615 0.44161
 C152 C 0.46533 0.50134 0.45944
 N153 N 0.48705 0.51335 0.47114
 C154 C 0.44748 0.47749 0.46502
 C155 C 0.44968 0.46252 0.48391
 C156 C 0.43089 0.44056 0.49197
 C157 C 0.43990 0.43181 0.51073
 C158 C 0.46399 0.44860 0.51372
 N159 N 0.46988 0.46707 0.49695
 C160 C 0.47955 0.44631 0.53173
 H161 H 0.51417 0.44684 0.56773
 H162 H 0.55407 0.48836 0.56927
 H163 H 0.48699 0.48105 0.49322
 H164 H 0.58884 0.56844 0.51334
 H165 H 0.57154 0.58525 0.47751
 H166 H 0.48713 0.55342 0.43093
 H167 H 0.44728 0.51186 0.42929
 H168 H 0.42972 0.41508 0.52123
 H169 H 0.51432 0.51920 0.50544
 H170 H 0.41247 0.43184 0.48531
 C171 C 0.45734 -0.06351 0.45416
 C172 C 0.47866 -0.06342 0.45413
 C173 C 0.49504 -0.04293 0.46758
 N174 N 0.48439 -0.03049 0.47564
 C175 C 0.46131 -0.04307 0.46762
 C176 C 0.51967 -0.03527 0.47055
 C177 C 0.53564 -0.01548 0.48622
 C178 C 0.56042 -0.00508 0.48595
 C179 C 0.56921 0.01265 0.50483
 C180 C 0.54960 0.01265 0.51612
 N181 N 0.52923 -0.00468 0.50484
 C182 C 0.55087 0.02757 0.53725
 C183 C 0.53160 0.03060 0.54541
 C184 C 0.53198 0.04376 0.56727
 C185 C 0.51066 0.04368 0.56728
 C186 C 0.49792 0.03047 0.54543
 N187 N 0.51083 0.02265 0.53201
 C188 C 0.47554 0.02728 0.53730
 C189 C 0.46194 0.01231 0.51619
 C190 C 0.44222 0.01214 0.50494
 C191 C 0.43337 -0.00560 0.48608
 C192 C 0.44790 -0.01583 0.48631
 N193 N 0.46513 -0.00492 0.50488
 C194 C 0.44420 -0.03559 0.47064
 H195 H 0.44087 -0.07692 0.44500
 H196 H 0.48183 -0.07675 0.44495
 H197 H 0.47667 -0.01065 0.51147
 H198 H 0.57106 -0.00990 0.47357
 H199 H 0.58792 0.02412 0.50978
 H200 H 0.54626 0.05276 0.58154
 H201 H 0.50529 0.05260 0.58156
 H202 H 0.41786 -0.01054 0.47374
 H203 H 0.51194 -0.01054 0.51146
 H204 H 0.43487 0.02351 0.50993
 O205 O 0.18286 0.40538 0.22306
 O206 O 0.22335 0.40522 0.27447
 O207 O 0.18279 0.40520 0.27451
 O208 O 0.22343 0.40541 0.22305
 O209 O 0.24312 0.44500 0.22337
 O210 O 0.20265 0.44479 0.27465
 O211 O 0.24305 0.44481 0.27460
 O212 O 0.20270 0.44497 0.22340
 Cu213 Cu 0.20110 0.40129 0.24875
 Cu214 Cu 0.22486 0.44887 0.24903
 C215 C 0.18593 0.42524 0.21464
 C216 C 0.24010 0.42504 0.28313
 C217 C 0.18585 0.42501 0.28319
 C218 C 0.24020 0.42528 0.21462
 O219 O 0.59345 0.81782 0.27621
 O220 O 0.59370 0.77762 0.22445
 O221 O 0.59355 0.81806 0.22477
 O222 O 0.59354 0.77734 0.27591
 O223 O 0.55392 0.75757 0.27567
 O224 O 0.55392 0.79810 0.22470
 O225 O 0.55408 0.75782 0.22441
 O226 O 0.55383 0.79789 0.27594
 Cu227 Cu 0.59757 0.79972 0.25035
 Cu228 Cu 0.54996 0.77585 0.25017
 C229 C 0.57355 0.81466 0.28473
 C230 C 0.57388 0.76088 0.21577
 C231 C 0.57369 0.81496 0.21618
 C232 C 0.57368 0.76053 0.28435
 O233 O 0.22303 0.81716 0.22572
 O234 O 0.18262 0.77597 0.27672
 O235 O 0.22302 0.81663 0.27718
 O236 O 0.18266 0.77650 0.22530
 O237 O 0.20278 0.75700 0.22492
 O238 O 0.24299 0.79698 0.27657
 O239 O 0.20276 0.75648 0.27614
 O240 O 0.24299 0.79750 0.22531
 Cu241 Cu 0.20081 0.79856 0.25128
 Cu242 Cu 0.22490 0.77503 0.25069
 C243 C 0.23988 0.81428 0.21698
 C244 C 0.18585 0.75921 0.28495
 C245 C 0.23987 0.81359 0.28555
 C246 C 0.18589 0.75991 0.21644
 O247 O 0.77873 0.59588 0.77465
 O248 O 0.81918 0.59548 0.72332
 O249 O 0.77872 0.59569 0.72322
 O250 O 0.81921 0.59571 0.77476
 O251 O 0.79920 0.55612 0.77479
 O252 O 0.75887 0.55610 0.72345
 O253 O 0.79916 0.55588 0.72355
 O254 O 0.75888 0.55629 0.77468
 Cu255 Cu 0.80098 0.59970 0.74897
 Cu256 Cu 0.77703 0.55212 0.74913
 C257 C 0.76191 0.57610 0.78324
 C258 C 0.81601 0.57556 0.71485
 C259 C 0.76190 0.57585 0.71472
 C260 C 0.81605 0.57587 0.78340
 O261 O 0.40647 0.22384 0.72459
 O262 O 0.40613 0.18349 0.77641
 O263 O 0.40662 0.22425 0.77603
 O264 O 0.40598 0.18306 0.72498
 O265 O 0.44561 0.20255 0.72497
 O266 O 0.44624 0.24359 0.77582
 O267 O 0.44575 0.20299 0.77620
 O268 O 0.44609 0.24317 0.72458
 Cu269 Cu 0.40229 0.20170 0.75051
 Cu270 Cu 0.44990 0.22503 0.75037
 C271 C 0.42638 0.24038 0.71593
 C272 C 0.42593 0.18641 0.78497
 C273 C 0.42659 0.24092 0.78447
 C274 C 0.42573 0.18582 0.71646
 O275 O 0.81712 0.22366 0.77601
 O276 O 0.77641 0.18281 0.72483
 O277 O 0.81699 0.22329 0.72457
 O278 O 0.77657 0.18319 0.77625
 O279 O 0.75686 0.20311 0.77597
 O280 O 0.79712 0.24306 0.72447
 O281 O 0.75671 0.20273 0.72473
 O282 O 0.79726 0.24343 0.77572
 Cu283 Cu 0.79878 0.20123 0.75043
 Cu284 Cu 0.77500 0.22508 0.75020
 C285 C 0.81407 0.24050 0.78443
 C286 C 0.75962 0.18585 0.71624
 C287 C 0.81389 0.24000 0.71588
 C288 C 0.75983 0.18636 0.78475
 C289 C 0.04416 0.46869 0.04719
 C290 C 0.05562 0.46170 0.05923
 C291 C 0.06975 0.45425 0.07417
 C292 C 0.09472 0.46858 0.07448
 C293 C 0.10851 0.46236 0.09034
 C294 C 0.09748 0.44170 0.10618
 C295 C 0.07238 0.42716 0.10536
 C296 C 0.05861 0.43342 0.08945
 C297 C 0.11209 0.43605 0.12433
 C298 C 0.10413 0.42810 0.15019
 C299 C 0.11861 0.42442 0.16791
 C300 C 0.14118 0.42856 0.16005
 C301 C 0.14904 0.43593 0.13420
 C302 C 0.13460 0.43963 0.11644
 C303 C 0.15678 0.42656 0.17893
 C304 C 0.17001 0.42558 0.19507
 H305 H 0.10351 0.48484 0.06288
 H306 H 0.12774 0.47412 0.09083
 H307 H 0.06340 0.41101 0.11711
 H308 H 0.03928 0.42222 0.08938
 H309 H 0.08706 0.42551 0.15700
 H310 H 0.11241 0.41887 0.18793
 H311 H 0.16650 0.43921 0.12791
 H312 H 0.14109 0.44546 0.09658
 C313 C 0.53142 0.57764 0.04557
 C314 C 0.53832 0.59593 0.05791
 C315 C 0.54567 0.61731 0.07320
 C316 C 0.56643 0.62683 0.08867
 C317 C 0.57259 0.64665 0.10489
 C318 C 0.55803 0.65719 0.10584
 C319 C 0.53745 0.64775 0.08981
 C320 C 0.53132 0.62793 0.07365
 C321 C 0.56357 0.67722 0.12431
 C322 C 0.56004 0.69622 0.11669
 C323 C 0.56367 0.71417 0.13472
 C324 C 0.57091 0.71340 0.16057
 C325 C 0.57498 0.69487 0.16817
 C326 C 0.57138 0.67692 0.15017
 C327 C 0.57282 0.73078 0.17971
 C328 C 0.57370 0.74482 0.19603
 H329 H 0.57765 0.61871 0.08850
 H330 H 0.58868 0.65367 0.11678
 H331 H 0.52566 0.65520 0.09039
 H332 H 0.51511 0.62060 0.06189
 H333 H 0.55431 0.69711 0.09683
 H334 H 0.56043 0.72842 0.12864
 H335 H 0.58043 0.69401 0.18818
 H336 H 0.57392 0.66237 0.15677
 C337 C 0.42373 0.95733 0.04911
 C338 C 0.40533 0.94586 0.06122
 C339 C 0.38384 0.93170 0.07626
 C340 C 0.37272 0.90671 0.07560
 C341 C 0.35284 0.89284 0.09157
 C342 C 0.34384 0.90380 0.10851
 C343 C 0.35487 0.92895 0.10866
 C344 C 0.37476 0.94279 0.09264
 C345 C 0.32378 0.88907 0.12680
 C346 C 0.32441 0.89644 0.15309
 C347 C 0.30642 0.88180 0.17085
 C348 C 0.28754 0.85965 0.16260
 C349 C 0.28644 0.85238 0.13636
 C350 C 0.30443 0.86699 0.11855
 C351 C 0.27009 0.84385 0.18144
 C352 C 0.25600 0.83043 0.19752
 H353 H 0.37972 0.89795 0.06315
 H354 H 0.34501 0.87357 0.09129
 H355 H 0.34821 0.93789 0.12128
 H356 H 0.38327 0.96214 0.09334
 H357 H 0.33923 0.91315 0.16016
 H358 H 0.30753 0.88753 0.19117
 H359 H 0.27192 0.83524 0.12977
 H360 H 0.30329 0.86094 0.09837
 C361 C 0.95513 0.53003 0.54536
 C362 C 0.94406 0.53727 0.55777
 C363 C 0.93039 0.54503 0.57311
 C364 C 0.94199 0.56511 0.58954
 C365 C 0.92859 0.57161 0.60577
 C366 C 0.90340 0.55807 0.60577
 C367 C 0.89192 0.53818 0.58879
 C368 C 0.90535 0.53172 0.57261
 C369 C 0.88910 0.56391 0.62419
 C370 C 0.86724 0.56184 0.61608
 C371 C 0.85303 0.56574 0.63400
 C372 C 0.86048 0.57181 0.66022
 C373 C 0.88242 0.57442 0.66833
 C374 C 0.89667 0.57054 0.65045
 C375 C 0.84503 0.57400 0.67915
 C376 C 0.83188 0.57511 0.69530
 H377 H 0.96138 0.57553 0.59010
 H378 H 0.93793 0.58716 0.61840
 H379 H 0.87259 0.52717 0.58861
 H380 H 0.89619 0.51604 0.56010
 H381 H 0.86107 0.55704 0.59594
 H382 H 0.83605 0.56363 0.62752
 H383 H 0.88828 0.57894 0.68862
 H384 H 0.91322 0.57195 0.65741
 C385 C 0.47034 0.42395 0.54605
 C386 C 0.46335 0.40568 0.55840
 C387 C 0.45585 0.38432 0.57369
 C388 C 0.43534 0.37524 0.58950
 C389 C 0.42905 0.35543 0.60572
 C390 C 0.44324 0.34446 0.60633
 C391 C 0.46356 0.35346 0.58996
 C392 C 0.46981 0.37327 0.57379
 C393 C 0.43757 0.32443 0.62477
 C394 C 0.44053 0.30510 0.61697
 C395 C 0.43677 0.28711 0.63494
 C396 C 0.42996 0.28816 0.66092
 C397 C 0.42647 0.30703 0.66872
 C398 C 0.43021 0.32503 0.65078
 C399 C 0.42786 0.27067 0.67996
 C400 C 0.42680 0.25654 0.69622
 H401 H 0.42443 0.38369 0.58959
 H402 H 0.41316 0.34875 0.61787
 H403 H 0.47505 0.34567 0.59026
 H404 H 0.48582 0.38026 0.56177
 H405 H 0.44591 0.30398 0.59701
 H406 H 0.43956 0.27260 0.62870
 H407 H 0.42136 0.30810 0.68883
 H408 H 0.42811 0.33982 0.65752
 C409 C 0.57354 0.04133 0.55089
 C410 C 0.59207 0.05312 0.56272
 C411 C 0.61373 0.06760 0.57742
 C412 C 0.62395 0.05685 0.59253
 C413 C 0.64407 0.07093 0.60820
 C414 C 0.65420 0.09598 0.60895
 C415 C 0.64403 0.10662 0.59328
 C416 C 0.62393 0.09251 0.57766
 C417 C 0.67456 0.11090 0.62687
 C418 C 0.69310 0.13351 0.61879
 C419 C 0.71135 0.14821 0.63634
 C420 C 0.71134 0.14051 0.66215
 C421 C 0.69329 0.11784 0.67019
 C422 C 0.67504 0.10311 0.65268
 C423 C 0.72903 0.15634 0.68083
 C424 C 0.74330 0.16975 0.69682
 H425 H 0.61616 0.03757 0.59252
 H426 H 0.65164 0.06224 0.61982
 H427 H 0.65116 0.12579 0.59372
 H428 H 0.61605 0.10101 0.56619
 H429 H 0.69339 0.13989 0.59895
 H430 H 0.72522 0.16574 0.62991
 H431 H 0.69302 0.11177 0.69019
 H432 H 0.66087 0.08597 0.65963
 C433 C 0.46904 0.04629 0.95493
 C434 C 0.46195 0.05755 0.94267
 C435 C 0.45440 0.07144 0.92745
 C436 C 0.43392 0.06006 0.91156
 C437 C 0.42764 0.07361 0.89534
 C438 C 0.44181 0.09874 0.89482
 C439 C 0.46208 0.11001 0.91128
 C440 C 0.46833 0.09643 0.92745
 C441 C 0.43620 0.11315 0.87633
 C442 C 0.43915 0.13542 0.88414
 C443 C 0.43550 0.14971 0.86611
 C444 C 0.42883 0.14192 0.84009
 C445 C 0.42534 0.11957 0.83229
 C446 C 0.42896 0.10525 0.85027
 C447 C 0.42694 0.15740 0.82099
 C448 C 0.42609 0.17056 0.80469
 H449 H 0.42304 0.04071 0.91138
 H450 H 0.41179 0.06445 0.88311
 H451 H 0.47356 0.12927 0.91105
 H452 H 0.48432 0.10541 0.93953
 H453 H 0.44443 0.14187 0.90413
 H454 H 0.43830 0.16700 0.87235
 H455 H 0.42034 0.11343 0.81214
 H456 H 0.42688 0.08837 0.84354
 C457 C 0.57688 0.53338 0.95049
 C458 C 0.59534 0.54042 0.93845
 C459 C 0.61692 0.54789 0.92352
 C460 C 0.62785 0.53382 0.92362
 C461 C 0.64785 0.54002 0.90777
 C462 C 0.65719 0.56040 0.89150
 C463 C 0.64634 0.57470 0.89190
 C464 C 0.62632 0.56846 0.90781
 C465 C 0.67742 0.56598 0.87334
 C466 C 0.67716 0.57341 0.84730
 C467 C 0.69530 0.57700 0.82959
 C468 C 0.71396 0.57328 0.83767
 C469 C 0.71468 0.56642 0.86370
 C470 C 0.69656 0.56282 0.88144
 C471 C 0.73153 0.57514 0.81884
 C472 C 0.74571 0.57597 0.80274
 H473 H 0.62060 0.51776 0.93556
 H474 H 0.65554 0.52844 0.90761
 H475 H 0.65327 0.59063 0.87982
 H476 H 0.61797 0.57946 0.90755
 H477 H 0.66252 0.57567 0.84034
 H478 H 0.69447 0.58214 0.80944
 H479 H 0.72903 0.56346 0.87015
 H480 H 0.69741 0.55738 0.90144
 C481 C 0.95497 0.42522 0.95301
 C482 C 0.94365 0.40686 0.94075
 C483 C 0.92970 0.38540 0.92556
 C484 C 0.94104 0.37626 0.90966
 C485 C 0.92741 0.35634 0.89355
 C486 C 0.90226 0.34533 0.89315
 C487 C 0.89104 0.35442 0.90959
 C488 C 0.90469 0.37433 0.92564
 C489 C 0.88776 0.32516 0.87484
 C490 C 0.86557 0.30586 0.88286
 C491 C 0.85120 0.28775 0.86502
 C492 C 0.85883 0.28864 0.83897
 C493 C 0.88109 0.30748 0.83096
 C494 C 0.89549 0.32560 0.84876
 C495 C 0.84327 0.27104 0.82006
 C496 C 0.83003 0.25680 0.80394
 H497 H 0.96040 0.38473 0.90941
 H498 H 0.93654 0.34960 0.88133
 H499 H 0.87176 0.34660 0.90944
 H500 H 0.89575 0.38138 0.93772
 H501 H 0.85926 0.30487 0.90288
 H502 H 0.83398 0.27327 0.87142
 H503 H 0.88710 0.30843 0.81079
 H504 H 0.91231 0.34036 0.84187
 C505 C 0.52865 0.95269 0.45663
 C506 C 0.53588 0.94173 0.44399
 C507 C 0.54361 0.92818 0.42837
 C508 C 0.56359 0.93989 0.41185
 C509 C 0.57003 0.92661 0.39534
 C510 C 0.55652 0.90143 0.39516
 C511 C 0.53675 0.88985 0.41224
 C512 C 0.53034 0.90316 0.42868
 C513 C 0.56230 0.88725 0.37647
 C514 C 0.56035 0.86541 0.38432
 C515 C 0.56416 0.85130 0.36616
 C516 C 0.57001 0.85884 0.33996
 C517 C 0.57251 0.88077 0.33211
 C518 C 0.56872 0.89491 0.35023
 C519 C 0.57212 0.84350 0.32080
 C520 C 0.57317 0.83043 0.30447
 H521 H 0.57397 0.95927 0.41143
 H522 H 0.58550 0.93602 0.38264
 H523 H 0.52576 0.87053 0.41228
 H524 H 0.51473 0.89392 0.44125
 H525 H 0.55572 0.85917 0.40445
 H526 H 0.56215 0.83434 0.37244
 H527 H 0.57687 0.88669 0.31183
 H528 H 0.57003 0.91145 0.34347
 C529 C 0.42490 0.46814 0.45104
 C530 C 0.40646 0.46107 0.43894
 C531 C 0.38490 0.45354 0.42393
 C532 C 0.37575 0.43314 0.40792
 C533 C 0.35577 0.42688 0.39191
 C534 C 0.34472 0.44099 0.39172
 C535 C 0.35380 0.46119 0.40830
 C536 C 0.37376 0.46742 0.42426
 C537 C 0.32455 0.43541 0.37346
 C538 C 0.30523 0.43826 0.38158
 C539 C 0.28713 0.43464 0.36377
 C540 C 0.28807 0.42806 0.33766
 C541 C 0.30693 0.42467 0.32954
 C542 C 0.32503 0.42828 0.34731
 C543 C 0.27050 0.42615 0.31879
 C544 C 0.25632 0.42526 0.30267
 H545 H 0.38427 0.42230 0.40748
 H546 H 0.34905 0.41109 0.37958
 H547 H 0.34595 0.47263 0.40832
 H548 H 0.38082 0.48335 0.43644
 H549 H 0.30421 0.44347 0.40166
 H550 H 0.27263 0.43735 0.37025
 H551 H 0.30792 0.41975 0.30932
 H552 H 0.33982 0.42627 0.34034
 C553 C 0.04348 0.57282 0.45044
 C554 C 0.05505 0.59130 0.43852
 C555 C 0.06931 0.61290 0.42374
 C556 C 0.09424 0.62315 0.42317
 C557 C 0.10813 0.64323 0.40752
 C558 C 0.09725 0.65334 0.39214
 C559 C 0.07219 0.64315 0.39320
 C560 C 0.05832 0.62305 0.40891
 C561 C 0.11194 0.67372 0.37423
 C562 C 0.10387 0.67419 0.34855
 C563 C 0.11838 0.69249 0.33104
 C564 C 0.14111 0.71058 0.33896
 C565 C 0.14910 0.71058 0.36464
 C566 C 0.13461 0.69229 0.38219
 C567 C 0.15671 0.72836 0.32028
 C568 C 0.16994 0.74273 0.30431
 H569 H 0.10291 0.61532 0.43443
 H570 H 0.12732 0.65040 0.40683
 H571 H 0.06332 0.65067 0.38181
 H572 H 0.03902 0.61523 0.40918
 H573 H 0.08666 0.66000 0.34170
 H574 H 0.11209 0.69224 0.31114
 H575 H 0.16668 0.72448 0.37096
 H576 H 0.14121 0.69257 0.40192
 C577 C 0.95684 0.53176 0.95155
 C578 C 0.94550 0.53888 0.93947
 C579 C 0.93154 0.54649 0.92447
 C580 C 0.90654 0.53242 0.92428
 C581 C 0.89289 0.53877 0.90835
 C582 C 0.90409 0.55929 0.89230
 C583 C 0.92922 0.57357 0.89301
 C584 C 0.94285 0.56719 0.90899
 C585 C 0.88962 0.56504 0.87405
 C586 C 0.89755 0.57269 0.84812
 C587 C 0.88317 0.57642 0.83031
 C588 C 0.86071 0.57263 0.83816
 C589 C 0.85289 0.56556 0.86408
 C590 C 0.86724 0.56181 0.88193
 C591 C 0.84517 0.57463 0.81920
 C592 C 0.83196 0.57559 0.80301
 H593 H 0.89762 0.51626 0.93603
 H594 H 0.87363 0.52720 0.90795
 H595 H 0.93834 0.58960 0.88110
 H596 H 0.96220 0.57818 0.90896
 H597 H 0.91452 0.57501 0.84133
 H598 H 0.88933 0.58173 0.81024
 H599 H 0.83552 0.56254 0.87036
 H600 H 0.86077 0.55621 0.90184
 C601 C 0.47130 0.42626 0.95262
 C602 C 0.46430 0.40790 0.94038
 C603 C 0.45681 0.38642 0.92524
 C604 C 0.47104 0.37566 0.92491
 C605 C 0.46475 0.35571 0.90892
 C606 C 0.44413 0.34627 0.89295
 C607 C 0.42970 0.35697 0.89376
 C608 C 0.43603 0.37693 0.90981
 C609 C 0.43837 0.32603 0.87472
 C610 C 0.43050 0.32616 0.84884
 C611 C 0.42664 0.30796 0.83107
 C612 C 0.43052 0.28937 0.83893
 C613 C 0.43785 0.28879 0.86479
 C614 C 0.44173 0.30698 0.88259
 C615 C 0.42829 0.27167 0.82005
 C616 C 0.42713 0.25735 0.80395
 H617 H 0.48726 0.38298 0.93663
 H618 H 0.47642 0.34813 0.90844
 H619 H 0.41359 0.34995 0.88192
 H620 H 0.42491 0.38516 0.90989
 H621 H 0.42808 0.34073 0.84205
 H622 H 0.42113 0.30867 0.81105
 H623 H 0.44094 0.27450 0.87107
 H624 H 0.44750 0.30623 0.90246
 C625 C 0.57504 0.04537 0.95264
 C626 C 0.59348 0.05682 0.94059
 C627 C 0.61503 0.07093 0.92564
 C628 C 0.62497 0.05979 0.91067
 C629 C 0.64498 0.07351 0.89475
 C630 C 0.65526 0.09856 0.89359
 C631 C 0.64538 0.10959 0.90911
 C632 C 0.62539 0.09585 0.92499
 C633 C 0.67548 0.11308 0.87540
 C634 C 0.69421 0.13575 0.88310
 C635 C 0.71231 0.15010 0.86528
 C636 C 0.71197 0.14197 0.83958
 C637 C 0.69374 0.11923 0.83191
 C638 C 0.67563 0.10486 0.84969
 C639 C 0.72950 0.15745 0.82061
 C640 C 0.74365 0.17058 0.80440
 H641 H 0.61706 0.04050 0.91101
 H642 H 0.65233 0.06453 0.88325
 H643 H 0.65263 0.12877 0.90835
 H644 H 0.61772 0.10463 0.93634
 H645 H 0.69475 0.14246 0.90285
 H646 H 0.72633 0.16768 0.87141
 H647 H 0.69321 0.11283 0.81200
 H648 H 0.66130 0.08765 0.84303
 C649 C 0.04280 0.46686 0.45041
 C650 C 0.05356 0.45941 0.43773
 C651 C 0.06681 0.45140 0.42201
 C652 C 0.08593 0.44991 0.43306
 C653 C 0.09992 0.44386 0.41725
 C654 C 0.09497 0.43928 0.39013
 C655 C 0.07538 0.44033 0.37935
 C656 C 0.06144 0.44639 0.39520
 C657 C 0.11079 0.43455 0.37285
 C658 C 0.10113 0.41759 0.35234
 C659 C 0.11619 0.41439 0.33500
 C660 C 0.14109 0.42804 0.33797
 C661 C 0.15085 0.44459 0.35864
 C662 C 0.13583 0.44782 0.37599
 C663 C 0.15666 0.42611 0.31899
 C664 C 0.16990 0.42522 0.30280
 H665 H 0.09027 0.45380 0.45380
 H666 H 0.11470 0.44293 0.42618
 H667 H 0.07132 0.43726 0.35849
 H668 H 0.04679 0.44767 0.38640
 H669 H 0.08193 0.40691 0.34960
 H670 H 0.10844 0.40155 0.31904
 H671 H 0.17010 0.45538 0.36100
 H672 H 0.14385 0.46126 0.39132
 C673 C 0.53085 0.57639 0.45282
 C674 C 0.53775 0.59470 0.44057
 C675 C 0.54510 0.61611 0.42541
 C676 C 0.53081 0.62681 0.42517
 C677 C 0.53695 0.64668 0.40916
 C678 C 0.55748 0.65610 0.39308
 C679 C 0.57197 0.64547 0.39381
 C680 C 0.56579 0.62559 0.40987
 C681 C 0.56306 0.67623 0.37481
 C682 C 0.57077 0.67599 0.34888
 C683 C 0.57441 0.69404 0.33108
 C684 C 0.57046 0.71261 0.33894
 C685 C 0.56331 0.71331 0.36485
 C686 C 0.55965 0.69526 0.38269
 C687 C 0.57244 0.73013 0.32001
 C688 C 0.57339 0.74430 0.30387
 H689 H 0.51465 0.61949 0.43698
 H690 H 0.52523 0.65420 0.40876
 H691 H 0.58802 0.65247 0.38187
 H692 H 0.57696 0.61741 0.40988
 H693 H 0.57323 0.66143 0.34209
 H694 H 0.57979 0.69324 0.31101
 H695 H 0.56017 0.72758 0.37114
 H696 H 0.55400 0.69610 0.40260
 C697 C 0.42316 0.95222 0.45680
 C698 C 0.40495 0.94115 0.44422
 C699 C 0.38364 0.92747 0.42870
 C700 C 0.37494 0.93905 0.41258
 C701 C 0.35516 0.92567 0.39619
 C702 C 0.34385 0.90051 0.39572
 C703 C 0.35249 0.88905 0.41238
 C704 C 0.37226 0.90245 0.42871
 C705 C 0.32383 0.88627 0.37715
 C706 C 0.30423 0.86419 0.38494
 C707 C 0.28625 0.85004 0.36686
 C708 C 0.28757 0.85777 0.34079
 C709 C 0.30670 0.87993 0.33301
 C710 C 0.32469 0.89411 0.35105
 C711 C 0.27010 0.84241 0.32165
 C712 C 0.25600 0.82934 0.30532
 H713 H 0.38365 0.95841 0.41239
 H714 H 0.34877 0.93500 0.38381
 H715 H 0.34444 0.86976 0.41219
 H716 H 0.37897 0.89332 0.44097
 H717 H 0.30291 0.85780 0.40496
 H718 H 0.27154 0.83290 0.37309
 H719 H 0.30799 0.88601 0.31283
 H720 H 0.33968 0.91084 0.34433
 C721 C 0.53012 0.95572 0.04749
 C722 C 0.53717 0.94445 0.05979
 C723 C 0.54468 0.93054 0.07502
 C724 C 0.53089 0.90554 0.07475
 C725 C 0.53714 0.89191 0.09082
 C726 C 0.55728 0.90313 0.10748
 C727 C 0.57130 0.92828 0.10726
 C728 C 0.56501 0.94188 0.09114
 C729 C 0.56293 0.88865 0.12580
 C730 C 0.56997 0.89631 0.15196
 C731 C 0.57366 0.88192 0.16977
 C732 C 0.57044 0.85974 0.16169
 C733 C 0.56397 0.85219 0.13557
 C734 C 0.56025 0.86655 0.11771
 C735 C 0.57244 0.84417 0.18058
 C736 C 0.57340 0.83093 0.19670
 H737 H 0.51500 0.89658 0.06250
 H738 H 0.52577 0.87263 0.09083
 H739 H 0.58705 0.93742 0.11965
 H740 H 0.57580 0.96123 0.09153
 H741 H 0.57184 0.91305 0.15891
 H742 H 0.57850 0.88786 0.19000
 H743 H 0.56140 0.83504 0.12911
 H744 H 0.55513 0.86030 0.09764
 C745 C 0.42545 0.46942 0.04698
 C746 C 0.40701 0.46234 0.05907
 C747 C 0.38544 0.45476 0.07406
 C748 C 0.37434 0.46867 0.07395
 C749 C 0.35434 0.46235 0.08985
 C750 C 0.34518 0.44201 0.10617
 C751 C 0.35621 0.42788 0.10577
 C752 C 0.37622 0.43424 0.08982
 C753 C 0.32494 0.43630 0.12436
 C754 C 0.32531 0.42894 0.15041
 C755 C 0.30715 0.42520 0.16814
 C756 C 0.28834 0.42870 0.16009
 C757 C 0.28751 0.43549 0.13406
 C758 C 0.30567 0.43924 0.11629
 C759 C 0.27071 0.42665 0.17894
 C760 C 0.25647 0.42565 0.19506
 H761 H 0.38144 0.48469 0.06197
 H762 H 0.34651 0.47380 0.09000
 H763 H 0.34942 0.41199 0.11790
 H764 H 0.38472 0.42336 0.09009
 H765 H 0.34006 0.42684 0.15735
 H766 H 0.30806 0.42011 0.18830
 H767 H 0.27305 0.43828 0.12763
 H768 H 0.30473 0.44462 0.09629
 C769 C 0.04577 0.57661 0.04604
 C770 C 0.05705 0.59488 0.05845
 C771 C 0.07094 0.61624 0.07381
 C772 C 0.05955 0.62543 0.08955
 C773 C 0.07310 0.64525 0.10582
 C774 C 0.09824 0.65610 0.10656
 C775 C 0.10951 0.64697 0.09027
 C776 C 0.09594 0.62717 0.07406
 C777 C 0.11264 0.67615 0.12504
 C778 C 0.13498 0.69538 0.11731
 C779 C 0.14926 0.71334 0.13534
 C780 C 0.14139 0.71236 0.16129
 C781 C 0.11897 0.69361 0.16901
 C782 C 0.10466 0.67564 0.15102
 C783 C 0.15687 0.72978 0.18041
 C784 C 0.17003 0.74384 0.19671
 H785 H 0.04020 0.61707 0.08954
 H786 H 0.06392 0.65201 0.11792
 H787 H 0.12878 0.65467 0.09068
 H788 H 0.10493 0.62008 0.06210
 H789 H 0.14149 0.69642 0.09737
 H790 H 0.16661 0.72776 0.12917
 H791 H 0.11278 0.69259 0.18910
 H792 H 0.08771 0.66092 0.15769
 C793 C 0.46650 0.04092 0.55096
 C794 C 0.45967 0.05263 0.56280
 C795 C 0.45237 0.06701 0.57752
 C796 C 0.46640 0.09198 0.57679
 C797 C 0.46041 0.10606 0.59248
 C798 C 0.44030 0.09532 0.60921
 C799 C 0.42603 0.07020 0.60940
 C800 C 0.43206 0.05614 0.59366
 C801 C 0.43500 0.11028 0.62723
 C802 C 0.42799 0.10305 0.65348
 C803 C 0.42463 0.11788 0.67101
 C804 C 0.42816 0.14007 0.66257
 C805 C 0.43461 0.14719 0.63636
 C806 C 0.43799 0.13240 0.61878
 C807 C 0.42648 0.15604 0.68119
 C808 C 0.42576 0.16957 0.69712
 H809 H 0.48226 0.10057 0.56451
 H810 H 0.47196 0.12531 0.59217
 H811 H 0.41030 0.06142 0.62184
 H812 H 0.42110 0.03682 0.59441
 H813 H 0.42588 0.08631 0.66070
 H814 H 0.41980 0.11226 0.69131
 H815 H 0.43743 0.16435 0.62963
 H816 H 0.44311 0.13833 0.59863
 C817 C 0.57649 0.53205 0.54743
 C818 C 0.59498 0.53910 0.55943
 C819 C 0.61661 0.54663 0.57432
 C820 C 0.62620 0.56741 0.58976
 C821 C 0.64626 0.57374 0.60563
 C822 C 0.65697 0.55932 0.60627
 C823 C 0.64746 0.53873 0.59026
 C824 C 0.62740 0.53244 0.57444
 C825 C 0.67725 0.56502 0.62442
 C826 C 0.69627 0.56163 0.61644
 C827 C 0.71444 0.56537 0.63420
 C828 C 0.71387 0.57259 0.66012
 C829 C 0.69532 0.57654 0.66807
 C830 C 0.67714 0.57282 0.65036
 C831 C 0.73148 0.57460 0.67900
 C832 C 0.74568 0.57556 0.69514
 H833 H 0.61795 0.57851 0.58983
 H834 H 0.65333 0.58984 0.61751
 H835 H 0.65504 0.52706 0.59060
 H836 H 0.62001 0.51622 0.56271
 H837 H 0.69700 0.55591 0.59653
 H838 H 0.72870 0.56224 0.62785
 H839 H 0.69461 0.58196 0.68815
 H840 H 0.66259 0.57525 0.65722
 C841 C 0.95537 0.42303 0.54648
 C842 C 0.94393 0.40472 0.55871
 C843 C 0.92985 0.38333 0.57389
 C844 C 0.90486 0.37253 0.57391
 C845 C 0.89111 0.35274 0.59002
 C846 C 0.90221 0.34350 0.60641
 C847 C 0.92734 0.35422 0.60587
 C848 C 0.94106 0.37402 0.58971
 C849 C 0.88764 0.32352 0.62482
 C850 C 0.89549 0.32402 0.65086
 C851 C 0.88103 0.30611 0.66878
 C852 C 0.85859 0.28744 0.66093
 C853 C 0.85084 0.28647 0.63493
 C854 C 0.86526 0.30438 0.61696
 C855 C 0.84301 0.27007 0.67996
 C856 C 0.82979 0.25604 0.69621
 H857 H 0.89602 0.37971 0.56188
 H858 H 0.87186 0.34515 0.59027
 H859 H 0.93637 0.34736 0.61805
 H860 H 0.96040 0.38228 0.58987
 H861 H 0.91245 0.33868 0.65763
 H862 H 0.88714 0.30712 0.68892
 H863 H 0.83348 0.27211 0.62865
 H864 H 0.85885 0.30334 0.59698
   
