data_POSCAR
  _audit_creation_date              2014-09-24
  _audit_creation_method            'ToBaCCo'
  _symmetry_space_group_name_H-M    'P1'
  _symmetry_Int_Tables_number       1
  _symmetry_cell_setting            triclinic
  loop_
  _symmetry_equiv_pos_as_xyz
 x,y,z
_cell_length_a 17.2662
_cell_length_b 17.2662
_cell_length_c 17.2662
_cell_angle_alpha 90.022300
_cell_angle_beta 89.977700
_cell_angle_gamma 89.977700
loop_
  _atom_site_label
  _atom_site_type_symbol
  _atom_site_fract_x
  _atom_site_fract_y
  _atom_site_fract_z
N1 N 0.41436 0.41529 1.41307
 N2 N 1.08693 0.58564 0.91529
 N3 N 0.58471 -0.08693 0.08564
 N4 N -0.08644 1.08644 -0.41356
 N5 N 0.58714 0.58819 0.58597
 N6 N 0.91403 0.41286 0.08819
 N7 N 0.41181 0.08597 0.91286
 N8 N 0.08669 0.91331 0.41331
 Zn9 Zn -0.03766 0.91712 0.05649
 Zn10 Zn -0.08343 1.05582 -0.03592
 Zn11 Zn 0.06030 1.06040 0.06142
 Zn12 Zn 0.05480 0.96286 -0.08215
 O13 O -0.00141 0.99916 0.00007
 O14 O -0.14114 0.91451 0.06196
 O15 O -0.08192 1.15364 -0.00218
 O16 O 0.06871 1.02402 0.15869
 O17 O -0.17532 1.01749 -0.00659
 O18 O -0.00442 0.91856 0.15439
 O19 O 0.02420 1.15778 0.06999
 O20 O 0.15259 0.99626 -0.08118
 O21 O -0.08590 1.06184 -0.13938
 O22 O 0.15755 1.06859 0.02484
 O23 O 0.01638 0.99233 -0.17389
 O24 O 0.06085 0.85945 -0.08445
 O25 O -0.00778 0.82527 0.01848
 C26 C -0.19252 0.95895 0.03417
 C27 C -0.03524 1.18998 0.04119
 C28 C 0.03934 0.96482 0.19080
 C29 C 0.18930 1.03958 -0.03478
 C30 C -0.04175 1.03378 -0.19089
 C31 C 0.03338 0.80810 -0.03982
 Zn32 Zn 0.58215 -0.05480 0.46286
 Zn33 Zn 0.43858 -0.06030 0.56040
 Zn34 Zn 0.53592 0.08343 0.55582
 Zn35 Zn 0.44351 0.03766 0.41712
 O36 O 0.49993 0.00141 0.49916
 O37 O 0.58118 -0.15258 0.49626
 O38 O 0.43001 -0.02420 0.65778
 O39 O 0.63938 0.08590 0.56184
 O40 O 0.47516 -0.15755 0.56859
 O41 O 0.67389 -0.01638 0.49233
 O42 O 0.50218 0.08192 0.65364
 O43 O 0.43804 0.14114 0.41451
 O44 O 0.34131 -0.06871 0.52402
 O45 O 0.50659 0.17532 0.51749
 O46 O 0.34561 0.00442 0.41856
 O47 O 0.48152 0.00778 0.32527
 O48 O 0.58445 -0.06085 0.35945
 C49 C 0.53478 -0.18930 0.53958
 C50 C 0.45881 0.03524 0.68998
 C51 C 0.69089 0.04175 0.53378
 C52 C 0.46583 0.19252 0.45895
 C53 C 0.30920 -0.03934 0.46482
 C54 C 0.53982 -0.03338 0.30810
 Zn55 Zn 1.03714 0.41785 0.44520
 Zn56 Zn 1.08288 0.55649 0.53766
 Zn57 Zn 0.93960 0.56142 0.43970
 Zn58 Zn 0.94418 0.46408 0.58343
 O59 O 1.00084 0.50007 0.50141
 O60 O 1.14055 0.41555 0.43915
 O61 O 1.08144 0.65439 0.50442
 O62 O 0.93141 0.52484 0.34245
 O63 O 1.17473 0.51848 0.50778
 O64 O 1.00374 0.41882 0.34741
 O65 O 0.97599 0.65869 0.43129
 O66 O 0.84636 0.49782 0.58192
 O67 O 1.08549 0.56196 0.64114
 O68 O 0.84222 0.57000 0.47580
 O69 O 0.98251 0.49341 0.67532
 O70 O 0.93816 0.36062 0.58590
 O71 O 1.00767 0.32611 0.48362
 C72 C 1.19190 0.46018 0.46662
 C73 C 1.03519 0.69080 0.46066
 C74 C 0.96042 0.46522 0.31070
 C75 C 0.81002 0.54119 0.53524
 C76 C 1.04105 0.53417 0.69252
 C77 C 0.96622 0.30911 0.54175
 Zn78 Zn 0.44459 0.46331 0.91676
 Zn79 Zn 0.58324 0.55541 0.96331
 Zn80 Zn 0.43946 0.56054 1.06054
 Zn81 Zn 0.53669 0.41676 1.05541
 O82 O 0.50091 0.49909 0.99909
 O83 O 0.48301 0.49329 0.82506
 O84 O 0.58172 0.65332 0.99665
 O85 O 0.34209 0.56855 1.02461
 O86 O 0.58606 0.56141 0.85986
 O87 O 0.34668 0.49665 0.91828
 O88 O 0.47539 0.65791 1.06855
 O89 O 0.50335 0.41828 1.15332
 O90 O 0.67494 0.51699 0.99329
 O91 O 0.43145 0.52461 1.15791
 O92 O 0.64014 0.41394 1.06141
 O93 O 0.50671 0.32506 1.01699
 O94 O 0.43859 0.35986 0.91394
 C95 C 0.54157 0.53421 0.80823
 C96 C 0.53486 0.68993 1.03966
 C97 C 0.31008 0.53966 0.96514
 C98 C 0.46034 0.46514 1.18992
 C99 C 0.69177 0.45844 1.03421
 C100 C 0.46579 0.30824 0.95844
 C101 C 1.33820 0.43146 0.43288
 C102 C 1.27162 0.44486 0.44923
 C103 C 0.16340 0.56989 0.93425
 C104 C 0.23021 0.55629 0.94954
 C105 C -0.33903 0.92937 0.06632
 C106 C -0.27235 0.94309 0.05065
 C107 C 0.83729 0.07064 0.56684
 C108 C 0.77064 0.05732 0.55079
 C109 C 0.43368 0.33903 0.42937
 C110 C 0.44935 0.27235 0.44309
 C111 C 0.93316 0.16271 0.57064
 C112 C 0.94921 0.22936 0.55732
 C113 C 0.06712 0.66180 -0.06854
 C114 C 0.05077 0.72838 -0.05514
 C115 C 0.56575 0.83660 1.06989
 C116 C 0.55046 0.76979 1.05629
 C117 C 0.43011 0.43425 1.33660
 C118 C 0.44371 0.44954 1.26979
 C119 C 0.56854 -0.06712 0.16180
 C120 C 0.55515 -0.05077 0.22838
 C121 C -0.07064 1.06684 -0.33729
 C122 C -0.05732 1.05079 -0.27064
 C123 C 1.07063 0.56632 0.83903
 C124 C 1.05691 0.55065 0.77235
 C125 C 0.66352 0.57224 0.56661
 C126 C 0.73024 0.55833 0.55104
 C127 C 0.83793 0.42912 1.06821
 C128 C 0.77142 0.44272 1.05172
 C129 C 0.33556 1.07012 -0.06735
 C130 C 0.26897 1.05642 -0.05121
 C131 C 0.16293 -0.07042 0.43282
 C132 C 0.22952 -0.05641 0.44866
 C133 C 0.56735 -0.33556 0.57012
 C134 C 0.55122 -0.26897 0.55642
 C135 C 1.06718 0.83707 0.42958
 C136 C 1.05134 0.77048 0.44359
 C137 C -0.06661 1.33648 0.07224
 C138 C -0.05104 1.26976 0.05833
 C139 C 0.43179 0.16207 0.92912
 C140 C 0.44828 0.22858 0.94272
 C141 C 0.57088 0.56821 0.66207
 C142 C 0.55728 0.55172 0.72858
 C143 C 0.42776 0.06661 0.83648
 C144 C 0.44167 0.05104 0.76976
 C145 C 0.07042 0.93282 0.33707
 C146 C 0.05641 0.94867 0.27048
 C147 C 0.92988 0.43265 0.16444
 C148 C 0.94358 0.44879 0.23103
   
