data_POSCAR
  _audit_creation_date              2014-09-24
  _audit_creation_method            'ToBaCCo'
  _symmetry_space_group_name_H-M    'P1'
  _symmetry_Int_Tables_number       1
  _symmetry_cell_setting            triclinic
  loop_
  _symmetry_equiv_pos_as_xyz
 x,y,z
_cell_length_a 21.8617
_cell_length_b 21.8387
_cell_length_c 21.8794
_cell_angle_alpha 99.899700
_cell_angle_beta 82.747700
_cell_angle_gamma 94.348200
loop_
  _atom_site_label
  _atom_site_type_symbol
  _atom_site_fract_x
  _atom_site_fract_y
  _atom_site_fract_z
O1 O 0.57968 0.50326 0.05788
 O2 O 0.41567 0.49871 0.03526
 O3 O 0.49014 0.42174 0.05916
 O4 O 0.50660 0.58294 0.03021
 O5 O 0.53042 0.55019 -0.07057
 O6 O 0.51254 0.38812 -0.04187
 O7 O 0.43873 0.46556 -0.06547
 O8 O 0.60376 0.47137 -0.04316
 Cu9 Cu 0.49578 0.50585 0.05566
 Cu10 Cu 0.52390 0.46610 -0.06554
 C11 C 0.61929 0.48595 0.01175
 C12 C 0.39875 0.47993 -0.01859
 C13 C 0.49871 0.37748 0.01362
 C14 C 0.52064 0.59421 -0.02504
 O15 O -0.06434 0.58913 0.54401
 O16 O -0.03834 0.42141 0.51802
 O17 O -0.03438 0.51247 0.61237
 O18 O -0.06170 0.50092 0.44790
 O19 O 0.03842 0.51631 0.42148
 O20 O 0.06417 0.53698 0.58658
 O21 O 0.06177 0.44265 0.49753
 O22 O 0.03425 0.60939 0.51447
 Cu23 Cu -0.05966 0.50372 0.53301
 Cu24 Cu 0.05955 0.52828 0.50204
 C25 C -0.01971 0.62803 0.53330
 C26 C 0.01640 0.40358 0.50490
 C27 C 0.01965 0.52753 0.62763
 C28 C -0.01612 0.50633 0.40659
 O29 O 0.50588 0.02389 0.59079
 O30 O 0.50468 0.05275 0.43006
 O31 O 0.42295 0.05278 0.52604
 O32 O 0.58922 0.03234 0.49657
 O33 O 0.57206 -0.06880 0.46796
 O34 O 0.40436 -0.04673 0.48981
 O35 O 0.49162 -0.04841 0.39757
 O36 O 0.48340 -0.07585 0.55976
 Cu37 Cu 0.50745 0.05042 0.51423
 Cu38 Cu 0.48594 -0.07016 0.47602
 C39 C 0.49447 -0.03103 0.60293
 C40 C 0.49866 0.00693 0.38633
 C41 C 0.38523 0.00721 0.51135
 C42 C 0.60931 -0.02142 0.47763
 C43 C 0.51132 -0.14103 -0.13589
 C44 C 0.50017 -0.08130 -0.14635
 C45 C 0.49269 -0.03316 -0.09471
 C46 C 0.50418 -0.04132 -0.03475
 C47 C 0.51942 -0.10071 -0.02696
 C48 C 0.51873 -0.15165 -0.07578
 C49 C 0.50014 0.01162 0.01935
 C50 C 0.49144 0.00053 0.08167
 C51 C 0.49188 0.04980 0.13230
 C52 C 0.49289 0.11097 0.12035
 C53 C 0.49800 0.12362 0.05912
 C54 C 0.50539 0.07392 0.00920
 H55 H 0.51386 -0.17919 -0.17421
 H56 H 0.47717 0.01058 -0.10173
 H57 H 0.53198 -0.10813 0.01724
 H58 H 0.48387 -0.04638 0.09142
 H59 H 0.49014 0.14911 0.15901
 H60 H 0.51607 0.08436 -0.03752
 C61 C -0.11730 0.49372 1.13106
 C62 C -0.12849 0.48631 1.06826
 C63 C -0.07766 0.48678 1.02216
 C64 C -0.01692 0.49953 1.03780
 C65 C -0.00734 0.50799 1.10123
 C66 C -0.05688 0.50216 1.14804
 C67 C 0.03597 0.50254 0.98748
 C68 C 0.09537 0.48646 0.99497
 C69 C 0.14457 0.48903 0.94735
 C70 C 0.13299 0.50414 0.89016
 C71 C 0.07339 0.51694 0.87975
 C72 C 0.02662 0.52008 0.93054
 H73 H -0.15560 0.49211 1.16710
 H74 H -0.08567 0.47606 0.97364
 H75 H 0.03867 0.51956 1.11435
 H76 H 0.10362 0.47103 1.03747
 H77 H 0.17115 0.50642 0.85452
 H78 H -0.01738 0.53725 0.92621
 C79 C -0.12363 -0.11159 0.50627
 C80 C -0.06734 -0.12018 0.52716
 C81 C -0.02239 -0.07074 0.53138
 C82 C -0.03017 -0.01495 0.50965
 C83 C -0.08671 -0.00813 0.48763
 C84 C -0.13431 -0.05530 0.48762
 C85 C 0.02138 0.03457 0.50822
 C86 C 0.01001 0.09774 0.50971
 C87 C 0.05905 0.14336 0.50538
 C88 C 0.11973 0.12540 0.50424
 C89 C 0.13183 0.06383 0.50656
 C90 C 0.08300 0.01854 0.50523
 H91 H -0.15924 -0.14879 0.50459
 H92 H 0.01877 -0.07655 0.55192
 H93 H -0.09396 0.03339 0.46938
 H94 H -0.03697 0.11162 0.51531
 H95 H 0.15829 0.15912 0.50052
 H96 H 0.09372 -0.02932 0.50277
 C97 C -0.26668 0.49186 0.97946
 C98 C -0.31671 0.47965 1.02282
 C99 C -0.30423 0.45779 1.07663
 C100 C -0.24307 0.45567 1.08967
 C101 C -0.19277 0.47753 1.05024
 C102 C -0.20638 0.49172 0.99327
 C103 C -0.18640 0.54683 0.96207
 C104 C -0.25240 0.54684 0.94697
 H105 H -0.34180 0.44391 1.10954
 H106 H -0.23609 0.43896 1.13184
 H107 H -0.15281 0.53499 0.91982
 H108 H -0.17257 0.58844 0.99547
 H109 H -0.25669 0.53481 0.89617
 H110 H -0.27694 0.58850 0.97151
 C111 C 0.29071 0.49163 1.02455
 C112 C 0.33562 0.47417 0.97405
 C113 C 0.31418 0.44921 0.91608
 C114 C 0.25126 0.44994 0.90805
 C115 C 0.20819 0.47629 0.95751
 C116 C 0.22890 0.49268 1.01646
 C117 C 0.21993 0.55003 1.06397
 C118 C 0.28769 0.54904 1.07286
 H119 H 0.34614 0.43157 0.87608
 H120 H 0.23717 0.43246 0.86229
 H121 H 0.18809 0.54093 1.10563
 H122 H 0.20931 0.59055 1.04330
 H123 H 0.29479 0.53948 1.11968
 H124 H 0.31642 0.58903 1.05736
 C125 C 0.01775 -0.26429 0.52877
 C126 C -0.02995 -0.30823 0.54235
 C127 C -0.08881 -0.28533 0.56501
 C128 C -0.10050 -0.22272 0.56478
 C129 C -0.05375 -0.18154 0.54169
 C130 C 0.00615 -0.20282 0.52849
 C131 C 0.05353 -0.19792 0.47383
 C132 C 0.06620 -0.26538 0.47397
 H133 H -0.12688 -0.31630 0.57955
 H134 H -0.14691 -0.20780 0.57948
 H135 H 0.09291 -0.16485 0.48644
 H136 H 0.03299 -0.19090 0.43174
 H137 H 0.11291 -0.27108 0.48652
 H138 H 0.05296 -0.29752 0.43192
 C139 C 0.08408 0.31910 0.51241
 C140 C 0.02803 0.33702 0.49883
 C141 C -0.01626 0.28950 0.47995
 C142 C -0.00602 0.22643 0.48022
 C143 C 0.04810 0.20943 0.50116
 C144 C 0.09358 0.25735 0.51414
 C145 C 0.12825 0.27472 0.56989
 C146 C 0.11797 0.34228 0.56767
 H147 H -0.05932 0.30112 0.46633
 H148 H -0.04128 0.19165 0.46521
 H149 H 0.17765 0.26370 0.55915
 H150 H 0.10371 0.25794 0.61210
 H151 H 0.16128 0.36974 0.55519
 H152 H 0.08757 0.36488 0.60869
 C153 C 0.47892 -0.10043 -0.31888
 C154 C 0.49508 -0.04217 -0.33595
 C155 C 0.51365 0.00479 -0.28755
 C156 C 0.51554 -0.00800 -0.22640
 C157 C 0.49784 -0.06794 -0.21071
 C158 C 0.48024 -0.11274 -0.26003
 C159 C 0.45591 -0.17846 -0.27697
 C160 C 0.45449 -0.16417 -0.34321
 H161 H 0.52780 0.05125 -0.29678
 H162 H 0.53206 0.02920 -0.19202
 H163 H 0.40928 -0.18718 -0.25221
 H164 H 0.49018 -0.21303 -0.27532
 H165 H 0.40704 -0.16438 -0.35649
 H166 H 0.48817 -0.18991 -0.37894
 C167 C 0.48147 0.07426 0.30978
 C168 C 0.50039 0.01833 0.32185
 C169 C 0.52233 -0.02579 0.27053
 C170 C 0.52026 -0.01564 0.20899
 C171 C 0.49455 0.03819 0.19723
 C172 C 0.47815 0.08369 0.24920
 C173 C 0.41944 0.11648 0.26786
 C174 C 0.42329 0.10624 0.33418
 H175 H 0.54031 -0.06847 0.27793
 H176 H 0.53833 -0.05046 0.17105
 H177 H 0.37959 0.09035 0.24660
 H178 H 0.42536 0.16639 0.26264
 H179 H 0.38559 0.07423 0.35160
 H180 H 0.43176 0.15014 0.36685
 C181 C 0.54825 -0.32359 -0.09299
 C182 C 0.52350 -0.34096 -0.03627
 C183 C 0.49785 -0.29296 0.00941
 C184 C 0.49690 -0.23163 -0.00335
 C185 C 0.52225 -0.21572 -0.06207
 C186 C 0.54752 -0.26459 -0.10545
 C187 C 0.57897 -0.28181 -0.17018
 C188 C 0.57955 -0.34832 -0.15574
 H189 H 0.47695 -0.30293 0.05446
 H190 H 0.47453 -0.19737 0.03250
 H191 H 0.62572 -0.25836 -0.17647
 H192 H 0.54886 -0.27885 -0.20673
 H193 H 0.62660 -0.36320 -0.15346
 H194 H 0.54936 -0.38277 -0.18334
 C195 C 0.50550 0.30041 0.08330
 C196 C 0.49283 0.31327 0.02601
 C197 C 0.47405 0.26316 -0.01845
 C198 C 0.47391 0.20152 -0.00731
 C199 C 0.49433 0.18859 0.04782
 C200 C 0.50668 0.23975 0.09374
 C201 C 0.56141 0.25508 0.12930
 C202 C 0.55999 0.32156 0.11781
 H203 H 0.46083 0.27148 -0.06226
 H204 H 0.45904 0.16436 -0.04264
 H205 H 0.60311 0.23121 0.10520
 H206 H 0.55010 0.25061 0.17938
 H207 H 0.60087 0.33631 0.08697
 H208 H 0.54769 0.35515 0.16114
 C209 C -0.28217 0.02214 0.48448
 C210 C -0.32335 -0.02838 0.46736
 C211 C -0.29790 -0.08598 0.44193
 C212 C -0.23467 -0.09405 0.44316
 C213 C -0.19585 -0.04476 0.47036
 C214 C -0.22013 0.01416 0.48591
 C215 C -0.21683 0.06202 0.54320
 C216 C -0.28491 0.07075 0.54169
 H217 H -0.32732 -0.12578 0.42489
 H218 H -0.21741 -0.13980 0.42649
 H219 H -0.18660 0.10345 0.53384
 H220 H -0.20749 0.04189 0.58423
 H221 H -0.29382 0.11722 0.53152
 H222 H -0.31508 0.05568 0.58188
 C223 C 0.27659 -0.02624 0.49036
 C224 C 0.31871 0.01771 0.51861
 C225 C 0.29573 0.07419 0.55154
 C226 C 0.23452 0.08857 0.54915
 C227 C 0.19496 0.04703 0.51332
 C228 C 0.21623 -0.01198 0.48793
 C229 C 0.21498 -0.04789 0.42353
 C230 C 0.28116 -0.06340 0.42612
 H231 H 0.32579 0.10865 0.57659
 H232 H 0.21903 0.13310 0.57361
 H233 H 0.21060 -0.01767 0.38844
 H234 H 0.18190 -0.08921 0.42243
 H235 H 0.31525 -0.04211 0.39255
 H236 H 0.28611 -0.11362 0.42642
 C237 C -0.08410 0.51321 1.32494
 C238 C -0.02689 0.50075 1.34069
 C239 C 0.01947 0.48227 1.29154
 C240 C 0.00981 0.48182 1.22896
 C241 C -0.04598 0.50140 1.21401
 C242 C -0.09322 0.51395 1.26345
 C243 C -0.13219 0.56896 1.28165
 C244 C -0.12228 0.56794 1.34895
 H245 H 0.06358 0.46927 1.30147
 H246 H 0.04656 0.46686 1.19277
 H247 H -0.18093 0.55729 1.27249
 H248 H -0.11038 0.61094 1.26350
 H249 H -0.16517 0.55537 1.37825
 H250 H -0.09480 0.60940 1.37004
 C251 C 0.09023 0.54971 0.71141
 C252 C 0.03114 0.53380 0.69357
 C253 C -0.01602 0.52079 0.74023
 C254 C -0.00239 0.51687 0.80055
 C255 C 0.05890 0.52663 0.81679
 C256 C 0.10413 0.54561 0.77087
 C257 C 0.16625 0.52182 0.74429
 C258 C 0.15092 0.52783 0.68009
 H259 H -0.06292 0.50961 0.72924
 H260 H -0.03996 0.50176 0.83257
 H261 H 0.17056 0.47249 0.74916
 H262 H 0.20484 0.55461 0.75976
 H263 H 0.14680 0.48236 0.64854
 H264 H 0.17951 0.56504 0.65933
   
