data_POSCAR
  _audit_creation_date              2014-09-24
  _audit_creation_method            'ToBaCCo'
  _symmetry_space_group_name_H-M    'P1'
  _symmetry_Int_Tables_number       1
  _symmetry_cell_setting            triclinic
  loop_
  _symmetry_equiv_pos_as_xyz
 x,y,z
_cell_length_a 24.1397
_cell_length_b 24.0799
_cell_length_c 24.0669
_cell_angle_alpha 89.971200
_cell_angle_beta 90.273300
_cell_angle_gamma 89.205000
loop_
  _atom_site_label
  _atom_site_type_symbol
  _atom_site_fract_x
  _atom_site_fract_y
  _atom_site_fract_z
O1 O 0.43898 0.99537 -0.55948
 O2 O 0.54391 0.97497 -0.45054
 O3 O 0.43731 0.98487 -0.45299
 O4 O 0.54805 0.98887 -0.55829
 O5 O 0.55318 1.07972 -0.54760
 O6 O 0.44242 1.07596 -0.44357
 O7 O 0.54984 1.06580 -0.44015
 O8 O 0.44400 1.08635 -0.55006
 Cu9 Cu 0.49188 0.97690 -0.50684
 Cu10 Cu 0.49827 1.08610 -0.49466
 C11 C 0.42212 1.04395 -0.57205
 C12 C 0.56422 1.01670 -0.42612
 C13 C 0.42080 1.03000 -0.43078
 C14 C 0.56991 1.03509 -0.57030
 O15 O -0.56126 1.42839 0.03323
 O16 O -0.47107 1.54924 0.04821
 O17 O -0.57567 1.53436 0.03353
 O18 O -0.45390 1.44188 0.04725
 O19 O -0.44333 1.44321 -0.04381
 O20 O -0.56470 1.53641 -0.05752
 O21 O -0.45930 1.55070 -0.04275
 O22 O -0.55051 1.43043 -0.05779
 Cu23 Cu -0.51619 1.48780 0.04980
 Cu24 Cu -0.50286 1.49007 -0.05960
 C25 C -0.57304 1.41020 -0.01490
 C26 C -0.45042 1.57098 0.00515
 C27 C -0.59111 1.55097 -0.01431
 C28 C -0.42761 1.42712 0.00406
 O29 O 0.01668 0.43660 0.44740
 O30 O 0.01779 0.55152 0.54876
 O31 O 0.01502 0.54580 0.44163
 O32 O 0.01831 0.44388 0.55587
 O33 O 0.10975 0.44497 0.55590
 O34 O 0.10646 0.54456 0.43934
 O35 O 0.10921 0.55225 0.54610
 O36 O 0.10813 0.43519 0.44747
 Cu37 Cu 0.00778 0.49415 0.49823
 Cu38 Cu 0.11756 0.49377 0.49667
 C39 C 0.06234 0.41584 0.43072
 C40 C 0.06369 0.57192 0.56421
 C41 C 0.06020 0.56366 0.42206
 C42 C 0.06456 0.42788 0.57605
 O43 O -0.14012 0.99805 -0.08729
 O44 O 0.14363 0.98218 -0.06833
 O45 O 0.00498 1.06322 -0.14752
 O46 O 0.00582 0.91296 -0.14401
 O47 O 0.00022 0.84740 -0.07439
 O48 O 0.00324 1.13307 -0.08183
 O49 O 0.08062 0.98398 -0.14066
 O50 O -0.06865 0.99469 -0.15058
 Zr51 Zr 0.00318 0.98937 -0.10057
 O52 O 0.04937 0.93832 -0.04909
 O53 O -0.04858 1.04245 -0.05746
 C54 C -0.12056 0.99876 -0.13746
 C55 C 0.13058 0.98088 -0.12062
 C56 C 0.00433 1.11497 -0.13270
 C57 C 0.00429 0.86214 -0.12598
 H58 H 0.07703 1.06143 -0.07355
 O59 O 0.05124 1.03923 -0.05107
 H60 H -0.07373 0.91911 -0.08014
 O61 O -0.05086 0.94222 -0.05531
 O62 O 0.13484 0.98928 0.08039
 O63 O -0.14929 0.99511 0.06278
 O64 O 0.07549 1.13210 0.00107
 O65 O 0.06903 0.84671 0.00358
 O66 O -0.07915 0.85032 -0.00505
 O67 O -0.07489 1.13720 -0.01356
 O68 O -0.00707 1.07132 0.13844
 O69 O -0.01356 0.91984 0.14195
 O70 O -0.00326 1.13689 0.06849
 O71 O -0.01395 0.85146 0.07464
 O72 O 0.14051 1.06124 0.00814
 O73 O -0.14310 1.07101 -0.01670
 O74 O -0.14766 0.92218 -0.01029
 O75 O 0.13761 0.91232 0.00733
 O76 O 0.06450 0.99562 0.14485
 O77 O -0.08649 0.99575 0.13543
 Zr78 Zr 0.09385 0.98841 0.00330
 Zr79 Zr -0.09979 0.99494 -0.00921
 Zr80 Zr -0.00071 1.08980 -0.00530
 Zr81 Zr -0.00487 0.89455 -0.00083
 Zr82 Zr -0.00857 0.99450 0.09536
 O83 O -0.05696 0.94443 0.04550
 O84 O 0.04518 1.04179 0.04948
 C85 C 0.11640 0.99283 0.13067
 C86 C -0.13649 0.99485 0.11516
 C87 C 0.12585 1.11312 0.00703
 C88 C 0.12041 0.86164 0.00660
 C89 C -0.13320 0.86674 -0.00906
 C90 C -0.12609 1.12175 -0.01817
 C91 C -0.00483 1.12213 0.12028
 C92 C -0.01609 0.86840 0.12568
 H93 H -0.07942 1.06991 0.06436
 O94 O -0.05463 1.04499 0.04292
 H95 H 0.06430 0.91738 0.07743
 O96 O 0.04272 0.94142 0.05175
 C97 C 0.37525 1.05119 0.38909
 C98 C 0.34605 1.00537 0.36972
 C99 C 0.29564 1.00885 0.33462
 C100 C 0.28113 0.96194 0.30360
 C101 C 0.23415 0.96282 0.26970
 C102 C 0.20025 1.01061 0.26642
 C103 C 0.21311 1.05682 0.29927
 C104 C 0.26072 1.05619 0.33289
 C105 C 0.15313 1.01302 0.22702
 C106 C 0.15926 0.99095 0.17394
 H107 H 0.36157 0.96416 0.37998
 H108 H 0.30669 0.92461 0.30501
 H109 H 0.22442 0.92607 0.24585
 H110 H 0.18715 1.09385 0.29775
 H111 H 0.26963 1.09245 0.35770
 H112 H 0.11597 1.03635 0.23762
 H113 H 0.36240 1.09291 0.37774
 H114 H 0.19939 0.97427 0.16193
 C115 C -0.38390 1.03786 0.39015
 C116 C -0.36513 0.99196 0.35994
 C117 C -0.31692 0.99458 0.32224
 C118 C -0.31502 0.95996 0.27543
 C119 C -0.27018 0.96181 0.23890
 C120 C -0.22586 0.99784 0.24904
 C121 C -0.22681 1.03100 0.29692
 C122 C -0.27206 1.02977 0.33300
 C123 C -0.17791 1.00067 0.21104
 C124 C -0.18346 0.99294 0.15387
 H125 H -0.38795 0.95359 0.36202
 H126 H -0.34861 0.93183 0.26679
 H127 H -0.26990 0.93439 0.20327
 H128 H -0.19274 1.05841 0.30605
 H129 H -0.27136 1.05568 0.36972
 H130 H -0.13808 1.01233 0.22802
 H131 H -0.36423 1.07761 0.38465
 H132 H -0.22423 0.98647 0.13627
 C133 C -0.39789 1.00741 -0.38323
 C134 C -0.37028 1.05007 -0.35597
 C135 C -0.33155 1.03839 -0.30966
 C136 C -0.28302 1.06929 -0.30464
 C137 C -0.24518 1.05787 -0.26186
 C138 C -0.25598 1.01608 -0.22269
 C139 C -0.30553 0.98666 -0.22648
 C140 C -0.34279 0.99725 -0.26995
 C141 C -0.21701 1.00386 -0.17675
 C142 C -0.15982 1.00600 -0.18380
 H143 H -0.37426 1.09237 -0.37103
 H144 H -0.27399 1.10168 -0.33439
 H145 H -0.20796 1.08230 -0.25895
 H146 H -0.31502 0.95492 -0.19619
 H147 H -0.38070 0.97381 -0.27205
 H148 H -0.23367 0.99065 -0.13723
 H149 H -0.38908 0.96479 -0.37123
 H150 H -0.14314 1.01387 -0.22472
 C151 C 0.37519 1.03011 -0.39071
 C152 C 0.35426 0.98144 -0.36820
 C153 C 0.30659 0.98225 -0.33004
 C154 C 0.30460 0.94365 -0.28650
 C155 C 0.26041 0.94463 -0.24915
 C156 C 0.21696 0.98364 -0.25555
 C157 C 0.21786 1.02069 -0.30045
 C158 C 0.26251 1.02040 -0.33713
 C159 C 0.17005 0.98614 -0.21653
 C160 C 0.17675 0.97578 -0.15990
 H161 H 0.37507 0.94216 -0.37641
 H162 H 0.33774 0.91334 -0.28086
 H163 H 0.25997 0.91451 -0.21575
 H164 H 0.18438 1.05054 -0.30657
 H165 H 0.26217 1.04957 -0.37138
 H166 H 0.13027 1.00095 -0.23198
 H167 H 0.35790 1.06991 -0.37821
 H168 H 0.21760 0.96629 -0.14335
 C169 C 0.38716 1.36939 -0.02157
 C170 C 0.35816 1.34758 0.02331
 C171 C 0.30920 1.31214 0.01626
 C172 C 0.29684 1.27348 0.05775
 C173 C 0.25039 1.23994 0.05278
 C174 C 0.21491 1.24513 0.00651
 C175 C 0.22594 1.28530 -0.03395
 C176 C 0.27299 1.31830 -0.02942
 C177 C 0.16693 1.20839 -0.00033
 C178 C 0.17112 1.15249 0.01388
 H179 H 0.37160 1.35670 0.06533
 H180 H 0.32351 1.26885 0.09384
 H181 H 0.24199 1.21024 0.08537
 H182 H 0.19871 1.29040 -0.06955
 H183 H 0.28034 1.34918 -0.06113
 H184 H 0.12989 1.22411 -0.02090
 H185 H 0.37666 1.35651 -0.06339
 H186 H 0.21056 1.13592 0.02847
 C187 C 0.36241 0.58530 -0.02003
 C188 C 0.33281 0.60493 0.02575
 C189 C 0.28509 0.64325 0.01987
 C190 C 0.27685 0.68442 0.06019
 C191 C 0.23365 0.72307 0.05447
 C192 C 0.19735 0.72042 0.00877
 C193 C 0.20375 0.67752 -0.03006
 C194 C 0.24772 0.63943 -0.02492
 C195 C 0.15327 0.76257 0.00098
 C196 C 0.16326 0.81832 0.01172
 H197 H 0.34774 0.59586 0.06738
 H198 H 0.30472 0.68751 0.09544
 H199 H 0.22859 0.75500 0.08579
 H200 H 0.17565 0.67442 -0.06512
 H201 H 0.25226 0.60697 -0.05574
 H202 H 0.11399 0.75025 -0.01680
 H203 H 0.34991 0.59801 -0.06148
 H204 H 0.20457 0.83095 0.02359
 C205 C -0.41606 0.62042 0.01143
 C206 C -0.38523 0.64124 -0.03248
 C207 C -0.34857 0.68929 -0.02605
 C208 C -0.29913 0.69037 -0.05620
 C209 C -0.26267 0.73437 -0.04988
 C210 C -0.27565 0.77883 -0.01411
 C211 C -0.32613 0.77884 0.01445
 C212 C -0.36218 0.73415 0.00898
 C213 C -0.23691 0.82505 -0.00635
 C214 C -0.18068 0.81645 -0.01443
 H215 H -0.38438 0.61887 -0.07154
 H216 H -0.28819 0.65651 -0.08387
 H217 H -0.22444 0.73369 -0.07325
 H218 H -0.33719 0.81295 0.04175
 H219 H -0.40081 0.73501 0.03163
 H220 H -0.25224 0.86513 0.00781
 H221 H -0.41338 0.63950 0.05207
 H222 H -0.15927 0.84312 -0.01176
 C223 C -0.37798 1.39151 0.01021
 C224 C -0.34973 1.37019 -0.03565
 C225 C -0.30031 1.33364 -0.03035
 C226 C -0.29055 1.29321 -0.07116
 C227 C -0.24533 1.25669 -0.06653
 C228 C -0.20846 1.26060 -0.02136
 C229 C -0.21657 1.30276 0.01803
 C230 C -0.26244 1.33876 0.01392
 C231 C -0.16225 1.22032 -0.01433
 C232 C -0.16948 1.16430 -0.02623
 H233 H -0.36656 1.37745 -0.07688
 H234 H -0.31865 1.28912 -0.10610
 H235 H -0.23917 1.22545 -0.09834
 H236 H -0.18821 1.30691 0.05275
 H237 H -0.26792 1.37071 0.04510
 H238 H -0.12410 1.23381 0.00496
 H239 H -0.36418 1.38103 0.05183
 H240 H -0.20989 1.15031 -0.03956
 C241 C 0.06294 1.36823 0.39220
 C242 C 0.01471 1.34832 0.36742
 C243 C 0.01428 1.30003 0.32924
 C244 C -0.02699 1.29734 0.28813
 C245 C -0.02876 1.25247 0.25133
 C246 C 0.01033 1.20879 0.25548
 C247 C 0.05048 1.21045 0.29778
 C248 C 0.05281 1.25585 0.33408
 C249 C 0.00949 1.16116 0.21652
 C250 C -0.00539 1.16787 0.16082
 H251 H -0.02395 1.37072 0.37397
 H252 H -0.05768 1.33038 0.28412
 H253 H -0.06122 1.25166 0.22016
 H254 H 0.08057 1.17692 0.30224
 H255 H 0.08414 1.25578 0.36638
 H256 H 0.02490 1.12111 0.23077
 H257 H 0.10257 1.34911 0.38252
 H258 H -0.01466 1.20919 0.14524
 C259 C 0.06637 1.38950 -0.37630
 C260 C 0.01881 1.36409 -0.35634
 C261 C 0.01931 1.32554 -0.30843
 C262 C -0.02060 1.28385 -0.30610
 C263 C -0.02140 1.24657 -0.26161
 C264 C 0.01731 1.25082 -0.21804
 C265 C 0.05602 1.29371 -0.21930
 C266 C 0.05740 1.33052 -0.26433
 C267 C 0.01743 1.21138 -0.17087
 C268 C 0.00456 1.15560 -0.17830
 H269 H -0.01993 1.37027 -0.37858
 H270 H -0.05093 1.27976 -0.33912
 H271 H -0.05282 1.21493 -0.26102
 H272 H 0.08572 1.29823 -0.18577
 H273 H 0.08763 1.36329 -0.26403
 H274 H 0.03146 1.22555 -0.13053
 H275 H 0.10624 1.38023 -0.35745
 H276 H -0.00356 1.14032 -0.21983
 C277 C 0.06487 0.61667 -0.39911
 C278 C 0.01692 0.63959 -0.37568
 C279 C 0.01805 0.68735 -0.33714
 C280 C -0.02244 0.69154 -0.29576
 C281 C -0.02226 0.73576 -0.25823
 C282 C 0.01804 0.77718 -0.26199
 C283 C 0.05727 0.77421 -0.30470
 C284 C 0.05765 0.72942 -0.34174
 C285 C 0.01922 0.82391 -0.22223
 C286 C 0.00536 0.81663 -0.16659
 H287 H -0.02258 0.61998 -0.38314
 H288 H -0.05390 0.66012 -0.29202
 H289 H -0.05411 0.73784 -0.22675
 H290 H 0.08816 0.80614 -0.30885
 H291 H 0.08837 0.72827 -0.37434
 H292 H 0.03427 0.86373 -0.23616
 H293 H 0.10481 0.63352 -0.38805
 H294 H -0.00400 0.77539 -0.15161
 C295 C 0.05962 0.60863 0.38054
 C296 C 0.01040 0.63405 0.36252
 C297 C 0.00867 0.68410 0.32670
 C298 C -0.03805 0.69392 0.29306
 C299 C -0.04138 0.74095 0.25906
 C300 C 0.00177 0.77959 0.25865
 C301 C 0.04753 0.77098 0.29389
 C302 C 0.05123 0.72347 0.32736
 C303 C 0.00029 0.82828 0.22104
 C304 C -0.02142 0.82437 0.16748
 H305 H -0.02871 0.61618 0.37456
 H306 H -0.07186 0.66480 0.29266
 H307 H -0.07791 0.74721 0.23343
 H308 H 0.08096 0.80052 0.29471
 H309 H 0.08696 0.71822 0.35425
 H310 H 0.02234 0.86534 0.23300
 H311 H 0.09903 0.62360 0.36592
 H312 H -0.03723 0.78491 0.15334
   
