data_POSCAR
  _audit_creation_date              2014-09-24
  _audit_creation_method            'ToBaCCo'
  _symmetry_space_group_name_H-M    'P1'
  _symmetry_Int_Tables_number       1
  _symmetry_cell_setting            triclinic
  loop_
  _symmetry_equiv_pos_as_xyz
 x,y,z
_cell_length_a 50.2329
_cell_length_b 50.2559
_cell_length_c 50.2774
_cell_angle_alpha 90.016500
_cell_angle_beta 90.018000
_cell_angle_gamma 90.018400
loop_
  _atom_site_label
  _atom_site_type_symbol
  _atom_site_fract_x
  _atom_site_fract_y
  _atom_site_fract_z
O1 O 0.31900 0.35601 0.02536
 O2 O 0.35554 0.31965 -0.02634
 O3 O 0.31891 0.35632 -0.02611
 O4 O 0.35570 0.31944 0.02513
 O5 O 0.32471 0.28818 0.02519
 O6 O 0.28765 0.32533 -0.02636
 O7 O 0.32454 0.28838 -0.02659
 O8 O 0.28774 0.32501 0.02541
 Cu9 Cu 0.34040 0.34097 -0.00049
 Cu10 Cu 0.30300 0.30356 -0.00061
 C11 C 0.29711 0.34685 0.03396
 C12 C 0.34642 0.29778 -0.03502
 C13 C 0.29697 0.34727 -0.03473
 C14 C 0.34662 0.29750 0.03366
 O15 O 0.68108 0.64401 0.02528
 O16 O 0.64455 0.68043 -0.02639
 O17 O 0.68110 0.64368 -0.02619
 O18 O 0.64446 0.68067 0.02508
 O19 O 0.67552 0.71186 0.02512
 O20 O 0.71243 0.67460 -0.02646
 O21 O 0.67561 0.71163 -0.02666
 O22 O 0.71241 0.67495 0.02532
 Cu23 Cu 0.65968 0.65909 -0.00055
 Cu24 Cu 0.69716 0.69641 -0.00069
 C25 C 0.70299 0.65313 0.03387
 C26 C 0.65370 0.70227 -0.03507
 C27 C 0.70304 0.65267 -0.03482
 C28 C 0.65360 0.70259 0.03361
 O29 O 0.68108 0.35601 0.97471
 O30 O 0.64451 0.31957 1.02633
 O31 O 0.68110 0.35630 1.02618
 O32 O 0.64441 0.31940 0.97486
 O33 O 0.67542 0.28818 0.97480
 O34 O 0.71238 0.32535 1.02643
 O35 O 0.67553 0.28835 1.02658
 O36 O 0.71236 0.32505 0.97465
 Cu37 Cu 0.65966 0.34093 1.00051
 Cu38 Cu 0.69709 0.30358 1.00063
 C39 C 0.70298 0.34689 0.96612
 C40 C 0.65363 0.29772 1.03500
 C41 C 0.70303 0.34727 1.03481
 C42 C 0.65351 0.29749 0.96631
 O43 O 0.35585 0.68019 1.02652
 O44 O 0.31920 0.64372 0.97491
 O45 O 0.35589 0.68034 0.97505
 O46 O 0.31924 0.64346 1.02639
 O47 O 0.28796 0.67441 1.02666
 O48 O 0.32487 0.71156 0.97501
 O49 O 0.28792 0.67468 0.97489
 O50 O 0.32483 0.71141 1.02679
 Cu51 Cu 0.34066 0.65882 1.00071
 Cu52 Cu 0.30323 0.69617 1.00086
 C53 C 0.34674 0.70206 1.03519
 C54 C 0.29729 0.65284 0.96635
 C55 C 0.34677 0.70226 0.96651
 C56 C 0.29732 0.65249 1.03503
 O57 O -0.02621 0.35553 0.31932
 O58 O 0.02552 0.31921 0.35588
 O59 O 0.02531 0.35586 0.31926
 O60 O -0.02599 0.31896 0.35600
 O61 O -0.02605 0.28769 0.32506
 O62 O 0.02556 0.32484 0.28805
 O63 O 0.02577 0.28793 0.32493
 O64 O -0.02627 0.32452 0.28810
 Cu65 Cu -0.00035 0.34051 0.34073
 Cu66 Cu -0.00024 0.30308 0.30338
 C67 C -0.03481 0.34637 0.29745
 C68 C 0.03421 0.29734 0.34679
 C69 C 0.03394 0.34679 0.29737
 C70 C -0.03453 0.29701 0.34695
 O71 O 0.02567 0.68047 0.64395
 O72 O -0.02613 0.64424 0.68053
 O73 O -0.02585 0.68072 0.64375
 O74 O 0.02539 0.64391 0.68066
 O75 O 0.02564 0.67500 0.71179
 O76 O -0.02591 0.71207 0.67462
 O77 O -0.02618 0.67533 0.71167
 O78 O 0.02591 0.71183 0.67483
 Cu79 Cu -0.00024 0.65921 0.65912
 Cu80 Cu -0.00012 0.69673 0.69638
 C81 C 0.03436 0.70236 0.65300
 C82 C -0.03474 0.65346 0.70236
 C83 C -0.03437 0.70269 0.65274
 C84 C 0.03401 0.65303 0.70254
 O85 O 1.02612 0.64437 0.31931
 O86 O 0.97445 0.68073 0.35592
 O87 O 0.97460 0.64413 0.31925
 O88 O 1.02596 0.68088 0.35606
 O89 O 1.02606 0.71220 0.32518
 O90 O 0.97439 0.67517 0.28809
 O91 O 0.97424 0.71205 0.32502
 O92 O 1.02622 0.67543 0.28815
 Cu93 Cu 1.00028 0.65941 0.34074
 Cu94 Cu 1.00022 0.69688 0.30346
 C95 C 1.03473 0.65355 0.29746
 C96 C 0.96579 0.70262 0.34686
 C97 C 0.96598 0.65323 0.29737
 C98 C 1.03453 0.70283 0.34705
 O99 O 0.97416 0.31943 0.64360
 O100 O 1.02585 0.35575 0.68033
 O101 O 1.02567 0.31925 0.64354
 O102 O 0.97432 0.35602 0.68032
 O103 O 0.97405 0.32495 0.71145
 O104 O 1.02571 0.28791 0.67440
 O105 O 1.02588 0.32467 0.71146
 O106 O 0.97389 0.28810 0.67448
 Cu107 Cu 1.00001 0.34074 0.65885
 Cu108 Cu 0.99987 0.30324 0.69610
 C109 C 0.96547 0.29754 0.65263
 C110 C 1.03442 0.34654 0.70218
 C111 C 1.03420 0.29728 0.65255
 C112 C 0.96568 0.34690 0.70218
 O113 O 0.31916 -0.02573 0.35576
 O114 O 0.35562 0.02608 0.31942
 O115 O 0.31901 0.02577 0.35609
 O116 O 0.35591 -0.02541 0.31923
 O117 O 0.32493 -0.02556 0.28797
 O118 O 0.28776 0.02593 0.32510
 O119 O 0.32463 0.02624 0.28817
 O120 O 0.28792 -0.02587 0.32475
 Cu121 Cu 0.34054 0.00018 0.34074
 Cu122 Cu 0.30315 0.00019 0.30333
 C123 C 0.29730 -0.03439 0.34659
 C124 C 0.34649 0.03474 0.29757
 C125 C 0.29707 0.03433 0.34703
 C126 C 0.34686 -0.03397 0.29730
 O127 O 0.64437 0.02601 0.68060
 O128 O 0.68090 -0.02580 0.64434
 O129 O 0.64416 -0.02549 0.68086
 O130 O 0.68096 0.02570 0.64391
 O131 O 0.71222 0.02600 0.67488
 O132 O 0.67515 -0.02550 0.71212
 O133 O 0.71215 -0.02580 0.67534
 O134 O 0.67537 0.02631 0.71184
 Cu135 Cu 0.65948 0.00009 0.65931
 Cu136 Cu 0.69689 0.00027 0.69671
 C137 C 0.65350 0.03474 0.70244
 C138 C 0.70279 -0.03438 0.65351
 C139 C 0.65323 -0.03398 0.70281
 C140 C 0.70289 0.03432 0.65294
 O141 O 0.35531 0.97401 0.68097
 O142 O 0.31874 1.02565 0.64453
 O143 O 0.35548 1.02550 0.68106
 O144 O 0.31872 0.97416 0.64427
 O145 O 0.28745 0.97395 0.67523
 O146 O 0.32450 1.02561 0.71231
 O147 O 0.28750 1.02576 0.67551
 O148 O 0.32431 0.97381 0.71220
 Cu149 Cu 0.34018 0.99983 0.65959
 Cu150 Cu 0.30278 0.99978 0.69697
 C151 C 0.34619 0.96536 0.70283
 C152 C 0.29686 1.03427 0.65366
 C153 C 0.34641 1.03407 0.70297
 C154 C 0.29680 0.96555 0.65332
 O155 O 0.64465 0.97447 0.31958
 O156 O 0.68114 1.02611 0.35620
 O157 O 0.64442 1.02597 0.31961
 O158 O 0.68122 0.97461 0.35631
 O159 O 0.71251 0.97453 0.32537
 O160 O 0.67543 1.02620 0.28840
 O161 O 0.71241 1.02633 0.32525
 O162 O 0.67567 0.97440 0.28838
 Cu163 Cu 0.65974 1.00029 0.34104
 Cu164 Cu 0.69717 1.00037 0.30370
 C165 C 0.65379 0.96589 0.29771
 C166 C 0.70303 1.03478 0.34712
 C167 C 0.65350 1.03460 0.29772
 C168 C 0.70316 0.96606 0.34725
 C169 C 0.78594 0.86492 0.52472
 C170 C 0.77641 0.87466 0.50052
 C171 C 0.78603 0.86502 0.47632
 C172 C 0.80568 0.84492 0.47607
 C173 C 0.81553 0.83483 0.50055
 C174 C 0.80562 0.84487 0.52501
 C175 C 0.81575 0.83472 0.54903
 C176 C 0.83536 0.81512 0.54905
 C177 C 0.84553 0.80497 0.52506
 C178 C 0.83548 0.81485 0.50058
 C179 C 0.81584 0.83477 0.45208
 C180 C 0.83541 0.81513 0.45210
 C181 C 0.84553 0.80496 0.47612
 C182 C 0.86555 0.78525 0.47641
 C183 C 0.87525 0.77568 0.50060
 C184 C 0.86559 0.78528 0.52480
 H185 H 0.80860 0.84190 0.56803
 H186 H 0.84254 0.80800 0.56807
 H187 H 0.80875 0.84197 0.43306
 H188 H 0.84260 0.80800 0.43309
 H189 H 0.76141 0.89022 0.50052
 H190 H 0.89079 0.76066 0.50060
 C191 C 0.21395 0.13497 0.52469
 C192 C 0.22351 0.12526 0.50050
 C193 C 0.21394 0.13494 0.47630
 C194 C 0.19429 0.15504 0.47604
 C195 C 0.18442 0.16511 0.50052
 C196 C 0.19428 0.15504 0.52498
 C197 C 0.18413 0.16518 0.54899
 C198 C 0.16454 0.18479 0.54901
 C199 C 0.15441 0.19498 0.52502
 C200 C 0.16449 0.18511 0.50054
 C201 C 0.18417 0.16523 0.45204
 C202 C 0.16462 0.18488 0.45206
 C203 C 0.15447 0.19503 0.47607
 C204 C 0.13446 0.21475 0.47635
 C205 C 0.12474 0.22431 0.50054
 C206 C 0.13436 0.21469 0.52475
 H207 H 0.19124 0.15797 0.56800
 H208 H 0.15734 0.19191 0.56802
 H209 H 0.19129 0.15804 0.43303
 H210 H 0.15745 0.19203 0.43305
 H211 H 0.23850 0.10969 0.50050
 H212 H 0.10921 0.23934 0.50053
 C213 C 0.13474 0.78493 0.52352
 C214 C 0.12504 0.77540 0.49930
 C215 C 0.13471 0.78505 0.47512
 C216 C 0.15477 0.80475 0.47491
 C217 C 0.16482 0.81459 0.49942
 C218 C 0.15477 0.80465 0.52386
 C219 C 0.16488 0.81478 0.54790
 C220 C 0.18444 0.83443 0.54797
 C221 C 0.19460 0.84464 0.52401
 C222 C 0.18477 0.83459 0.49950
 C223 C 0.16494 0.81495 0.45095
 C224 C 0.18455 0.83456 0.45102
 C225 C 0.19467 0.84468 0.47506
 C226 C 0.21435 0.86476 0.47541
 C227 C 0.22387 0.87446 0.49964
 C228 C 0.21425 0.86476 0.52381
 H229 H 0.15769 0.80761 0.56689
 H230 H 0.19152 0.84161 0.56701
 H231 H 0.15777 0.80786 0.43191
 H232 H 0.19170 0.84179 0.43203
 H233 H 0.10950 0.76037 0.49926
 H234 H 0.23886 0.89003 0.49968
 C235 C 0.86528 0.21454 0.52310
 C236 C 0.87498 0.22405 0.49888
 C237 C 0.86533 0.21437 0.47470
 C238 C 0.84527 0.19466 0.47448
 C239 C 0.83522 0.18483 0.49898
 C240 C 0.84526 0.19481 0.52343
 C241 C 0.83515 0.18470 0.54746
 C242 C 0.81558 0.16505 0.54753
 C243 C 0.80543 0.15481 0.52356
 C244 C 0.81527 0.16484 0.49905
 C245 C 0.83511 0.18443 0.45051
 C246 C 0.81550 0.16481 0.45057
 C247 C 0.80537 0.15472 0.47461
 C248 C 0.78568 0.13465 0.47495
 C249 C 0.77615 0.12498 0.49918
 C250 C 0.78577 0.13471 0.52335
 H251 H 0.84234 0.19189 0.56645
 H252 H 0.80849 0.15789 0.56656
 H253 H 0.84229 0.19150 0.43148
 H254 H 0.80836 0.15757 0.43159
 H255 H 0.89051 0.23908 0.49886
 H256 H 0.76115 0.10942 0.49921
 C257 C 0.52403 0.78528 0.86512
 C258 C 0.49983 0.77573 0.87487
 C259 C 0.47559 0.78537 0.86529
 C260 C 0.47530 0.80507 0.84526
 C261 C 0.49979 0.81495 0.83517
 C262 C 0.52429 0.80502 0.84514
 C263 C 0.54831 0.81519 0.83500
 C264 C 0.54831 0.83486 0.81548
 C265 C 0.52428 0.84504 0.80539
 C266 C 0.49979 0.83495 0.81526
 C267 C 0.45128 0.81525 0.83516
 C268 C 0.45127 0.83485 0.81557
 C269 C 0.47529 0.84501 0.80541
 C270 C 0.47556 0.86507 0.78575
 C271 C 0.49977 0.87481 0.77621
 C272 C 0.52400 0.86516 0.78577
 H273 H 0.56735 0.80804 0.84213
 H274 H 0.56733 0.84206 0.80836
 H275 H 0.43225 0.80813 0.84237
 H276 H 0.43224 0.84205 0.80848
 H277 H 0.49986 0.76069 0.89037
 H278 H 0.49974 0.89038 0.76123
 C279 C 0.52407 0.21481 0.13504
 C280 C 0.49986 0.22429 0.12527
 C281 C 0.47563 0.21467 0.13489
 C282 C 0.47537 0.19505 0.15501
 C283 C 0.49988 0.18525 0.16514
 C284 C 0.52436 0.19517 0.15511
 C285 C 0.54840 0.18508 0.16531
 C286 C 0.54843 0.16550 0.18492
 C287 C 0.52441 0.15533 0.19505
 C288 C 0.49991 0.16534 0.18514
 C289 C 0.45136 0.18488 0.16515
 C290 C 0.45139 0.16535 0.18482
 C291 C 0.47542 0.15528 0.19502
 C292 C 0.47572 0.13530 0.21476
 C293 C 0.49994 0.12564 0.22435
 C294 C 0.52416 0.13530 0.21476
 H295 H 0.56742 0.19223 0.15814
 H296 H 0.56746 0.15836 0.19206
 H297 H 0.43233 0.19194 0.15791
 H298 H 0.43237 0.15815 0.19194
 H299 H 0.49986 0.23926 0.10970
 H300 H 0.49994 0.11013 0.23939
 C301 C 0.47600 0.21490 0.86493
 C302 C 0.50023 0.22442 0.87467
 C303 C 0.52443 0.21478 0.86504
 C304 C 0.52467 0.19512 0.84495
 C305 C 0.50015 0.18528 0.83488
 C306 C 0.47568 0.19520 0.84491
 C307 C 0.45163 0.18507 0.83478
 C308 C 0.45159 0.16543 0.81522
 C309 C 0.47559 0.15525 0.80507
 C310 C 0.50011 0.16531 0.81492
 C311 C 0.54867 0.18495 0.83480
 C312 C 0.54863 0.16538 0.81516
 C313 C 0.52458 0.15526 0.80502
 C314 C 0.52426 0.13522 0.78532
 C315 C 0.50003 0.12550 0.77580
 C316 C 0.47582 0.13515 0.78542
 H317 H 0.43262 0.19222 0.84196
 H318 H 0.43255 0.15824 0.80812
 H319 H 0.56771 0.19204 0.84199
 H320 H 0.56764 0.15818 0.80803
 H321 H 0.50024 0.23942 0.89022
 H322 H 0.50001 0.10994 0.76080
 C323 C 0.52469 0.86540 0.21437
 C324 C 0.50047 0.87509 0.22392
 C325 C 0.47625 0.86539 0.21434
 C326 C 0.47600 0.84527 0.19471
 C327 C 0.50051 0.83524 0.18484
 C328 C 0.52499 0.84534 0.19469
 C329 C 0.54903 0.83524 0.18453
 C330 C 0.54905 0.81563 0.16493
 C331 C 0.52504 0.80541 0.15482
 C332 C 0.50053 0.81524 0.16491
 C333 C 0.45199 0.83504 0.18461
 C334 C 0.45201 0.81537 0.16508
 C335 C 0.47605 0.80526 0.15493
 C336 C 0.47634 0.78551 0.13494
 C337 C 0.50056 0.77601 0.12520
 C338 C 0.52478 0.78570 0.13478
 H339 H 0.56805 0.84248 0.19163
 H340 H 0.56808 0.80856 0.15772
 H341 H 0.43295 0.84221 0.19173
 H342 H 0.43299 0.80818 0.15794
 H343 H 0.50046 0.89066 0.23891
 H344 H 0.50055 0.76097 0.10969
 C345 C 0.78551 0.47606 0.86535
 C346 C 0.77596 0.50026 0.87506
 C347 C 0.78549 0.52447 0.86534
 C348 C 0.80510 0.52473 0.84520
 C349 C 0.81496 0.50023 0.83513
 C350 C 0.80513 0.47576 0.84524
 C351 C 0.81526 0.45173 0.83510
 C352 C 0.83481 0.45171 0.81544
 C353 C 0.84490 0.47571 0.80523
 C354 C 0.83485 0.50021 0.81510
 C355 C 0.81519 0.54873 0.83498
 C356 C 0.83471 0.54870 0.81530
 C357 C 0.84484 0.52468 0.80515
 C358 C 0.86481 0.52438 0.78540
 C359 C 0.87450 0.50018 0.77583
 C360 C 0.86490 0.47597 0.78548
 H361 H 0.80818 0.43272 0.84234
 H362 H 0.84199 0.43269 0.80833
 H363 H 0.80809 0.56775 0.84218
 H364 H 0.84185 0.56772 0.80813
 H365 H 0.76100 0.50026 0.89065
 H366 H 0.89000 0.50018 0.76077
 C367 C 0.13490 0.47592 0.21435
 C368 C 0.12529 0.50014 0.22398
 C369 C 0.13504 0.52434 0.21446
 C370 C 0.15508 0.52463 0.19477
 C371 C 0.16507 0.50015 0.18484
 C372 C 0.15496 0.47566 0.19467
 C373 C 0.16506 0.45165 0.18447
 C374 C 0.18467 0.45167 0.16488
 C375 C 0.19487 0.47569 0.15478
 C376 C 0.18503 0.50017 0.16488
 C377 C 0.16527 0.54865 0.18467
 C378 C 0.18485 0.54866 0.16505
 C379 C 0.19495 0.52466 0.15485
 C380 C 0.21463 0.52440 0.13478
 C381 C 0.22416 0.50018 0.12508
 C382 C 0.21455 0.47598 0.13474
 H383 H 0.15784 0.43263 0.19155
 H384 H 0.19176 0.43265 0.15766
 H385 H 0.15812 0.56767 0.19184
 H386 H 0.19200 0.56769 0.15790
 H387 H 0.10975 0.50015 0.23899
 H388 H 0.23917 0.50017 0.10953
 C389 C 0.78543 0.47552 0.13466
 C390 C 0.77589 0.49973 0.12494
 C391 C 0.78548 0.52394 0.13464
 C392 C 0.80513 0.52424 0.15472
 C393 C 0.81496 0.49977 0.16483
 C394 C 0.80507 0.47527 0.15478
 C395 C 0.81516 0.45127 0.16499
 C396 C 0.83472 0.45130 0.18465
 C397 C 0.84488 0.47533 0.19478
 C398 C 0.83489 0.49980 0.18483
 C399 C 0.81530 0.54827 0.16484
 C400 C 0.83488 0.54829 0.18447
 C401 C 0.84498 0.52430 0.19468
 C402 C 0.86503 0.52405 0.21439
 C403 C 0.87463 0.49984 0.22405
 C404 C 0.86489 0.47563 0.21450
 H405 H 0.80803 0.43225 0.15782
 H406 H 0.84186 0.43229 0.19183
 H407 H 0.80821 0.56728 0.15761
 H408 H 0.84210 0.56732 0.19156
 H409 H 0.76091 0.49972 0.10937
 H410 H 0.89016 0.49984 0.23908
 C411 C 0.21427 0.52378 0.86563
 C412 C 0.22383 0.49956 0.87530
 C413 C 0.21426 0.47536 0.86557
 C414 C 0.19461 0.47512 0.84546
 C415 C 0.18474 0.49963 0.83543
 C416 C 0.19461 0.52410 0.84555
 C417 C 0.18447 0.54813 0.83545
 C418 C 0.16488 0.54817 0.81582
 C419 C 0.15475 0.52418 0.80559
 C420 C 0.16481 0.49968 0.81543
 C421 C 0.18449 0.45114 0.83523
 C422 C 0.16493 0.45118 0.81557
 C423 C 0.15480 0.47521 0.80545
 C424 C 0.13479 0.47552 0.78572
 C425 C 0.12509 0.49974 0.77619
 C426 C 0.13472 0.52394 0.78586
 H427 H 0.19158 0.56714 0.84269
 H428 H 0.15769 0.56720 0.80874
 H429 H 0.19160 0.43210 0.84239
 H430 H 0.15777 0.43217 0.80838
 H431 H 0.23882 0.49955 0.89086
 H432 H 0.10958 0.49976 0.76114
 C433 C 0.28242 0.36223 0.05296
 C434 C 0.27054 0.37657 0.06805
 C435 C 0.25725 0.39491 0.08462
 C436 C 0.24648 0.41181 0.09777
 C437 C 0.23459 0.43293 0.11192
 C438 C 0.22510 0.45200 0.12292
 C439 C 0.71768 0.63773 0.05286
 C440 C 0.72954 0.62337 0.06794
 C441 C 0.74282 0.60501 0.08451
 C442 C 0.75358 0.58811 0.09765
 C443 C 0.76544 0.56698 0.11181
 C444 C 0.77493 0.54791 0.12281
 C445 C 0.71767 0.36229 0.94714
 C446 C 0.72955 0.37664 0.93206
 C447 C 0.74284 0.39499 0.91550
 C448 C 0.75360 0.41189 0.90235
 C449 C 0.76548 0.43301 0.88819
 C450 C 0.77497 0.45208 0.87718
 C451 C 0.28255 0.63743 0.94738
 C452 C 0.27062 0.62308 0.93232
 C453 C 0.25725 0.60475 0.91577
 C454 C 0.24641 0.58788 0.90263
 C455 C 0.23444 0.56679 0.88847
 C456 C 0.22488 0.54775 0.87746
 C457 C 0.05318 0.28271 0.36227
 C458 C 0.06822 0.27086 0.37670
 C459 C 0.08470 0.25758 0.39513
 C460 C 0.09776 0.24681 0.41210
 C461 C 0.11181 0.23491 0.43327
 C462 C 0.12273 0.22538 0.45237
 C463 C 0.05335 0.71696 0.63751
 C464 C 0.06840 0.72879 0.62308
 C465 C 0.08489 0.74205 0.60465
 C466 C 0.09797 0.75282 0.58770
 C467 C 0.11204 0.76473 0.56654
 C468 C 0.12297 0.77427 0.54747
 C469 C 0.94684 0.71727 0.36235
 C470 C 0.93182 0.72913 0.37679
 C471 C 0.91534 0.74241 0.39522
 C472 C 0.90228 0.75319 0.41218
 C473 C 0.88823 0.76510 0.43334
 C474 C 0.87730 0.77463 0.45243
 C475 C 0.94653 0.28289 0.63709
 C476 C 0.93152 0.27102 0.62264
 C477 C 0.91506 0.25768 0.60420
 C478 C 0.90201 0.24685 0.58726
 C479 C 0.88795 0.23486 0.56612
 C480 C 0.87703 0.22525 0.54705
 C481 C 0.36191 0.05375 0.28292
 C482 C 0.37628 0.06882 0.27105
 C483 C 0.39464 0.08536 0.25772
 C484 C 0.41154 0.09847 0.24690
 C485 C 0.43266 0.11258 0.23495
 C486 C 0.45173 0.12354 0.22538
 C487 C 0.63805 0.05374 0.71706
 C488 C 0.62367 0.06880 0.72894
 C489 C 0.60531 0.08533 0.74227
 C490 C 0.58841 0.09843 0.75310
 C491 C 0.56730 0.11253 0.76508
 C492 C 0.54823 0.12347 0.77466
 C493 C 0.36165 0.94641 0.71752
 C494 C 0.37604 0.93138 0.72942
 C495 C 0.39442 0.91489 0.74277
 C496 C 0.41134 0.90181 0.75361
 C497 C 0.43247 0.88774 0.76558
 C498 C 0.45155 0.87681 0.77514
 C499 C 0.63837 0.94694 0.28295
 C500 C 0.62401 0.93190 0.27099
 C501 C 0.60568 0.91538 0.25756
 C502 C 0.58881 0.90228 0.24666
 C503 C 0.56773 0.88816 0.23463
 C504 C 0.54868 0.87719 0.22502
 C505 C 0.36190 0.28312 0.94604
 C506 C 0.37634 0.27124 0.93103
 C507 C 0.39477 0.25792 0.91458
 C508 C 0.41174 0.24710 0.90156
 C509 C 0.43291 0.23515 0.88754
 C510 C 0.45201 0.22557 0.87665
 C511 C 0.63822 0.71696 0.94600
 C512 C 0.62379 0.72887 0.93102
 C513 C 0.60534 0.74222 0.91460
 C514 C 0.58836 0.75305 0.90160
 C515 C 0.56717 0.76503 0.88763
 C516 C 0.54805 0.77461 0.87678
 C517 C 0.36225 0.71678 0.05409
 C518 C 0.37670 0.72873 0.06905
 C519 C 0.39513 0.74214 0.08545
 C520 C 0.41209 0.75305 0.09845
 C521 C 0.43325 0.76511 0.11242
 C522 C 0.45234 0.77477 0.12328
 C523 C 0.63816 0.28303 0.05393
 C524 C 0.62373 0.27114 0.06893
 C525 C 0.60530 0.25781 0.08538
 C526 C 0.58834 0.24699 0.09842
 C527 C 0.56717 0.23504 0.11244
 C528 C 0.54807 0.22547 0.12333
 C529 C 0.28215 0.05325 0.63827
 C530 C 0.27024 0.06833 0.62395
 C531 C 0.25689 0.08490 0.60564
 C532 C 0.24606 0.09804 0.58878
 C533 C 0.23410 0.11219 0.56770
 C534 C 0.22455 0.12318 0.54866
 C535 C 0.71696 0.05271 0.36174
 C536 C 0.72894 0.06783 0.37600
 C537 C 0.74239 0.08443 0.39422
 C538 C 0.75331 0.09761 0.41101
 C539 C 0.76537 0.11181 0.43202
 C540 C 0.77500 0.12283 0.45102
 C541 C 0.71750 0.94659 0.63818
 C542 C 0.72943 0.93149 0.62388
 C543 C 0.74282 0.91492 0.60561
 C544 C 0.75369 0.90178 0.58877
 C545 C 0.76569 0.88765 0.56771
 C546 C 0.77529 0.87668 0.54868
 C547 C 0.28262 0.94658 0.36195
 C548 C 0.27072 0.93148 0.37626
 C549 C 0.25737 0.91489 0.39455
 C550 C 0.24654 0.90173 0.41140
 C551 C 0.23456 0.88757 0.43245
 C552 C 0.22499 0.87657 0.45148
 C553 C 0.05339 0.36191 0.71697
 C554 C 0.06844 0.37624 0.72896
 C555 C 0.08495 0.39455 0.74240
 C556 C 0.09804 0.41142 0.75331
 C557 C 0.11213 0.43251 0.76537
 C558 C 0.12306 0.45156 0.77501
 C559 C 0.05370 0.63817 0.28273
 C560 C 0.06875 0.62381 0.27081
 C561 C 0.08525 0.60546 0.25746
 C562 C 0.09834 0.58854 0.24663
 C563 C 0.11240 0.56741 0.23467
 C564 C 0.12332 0.54833 0.22511
 C565 C 0.94621 0.36176 0.28274
 C566 C 0.93116 0.37612 0.27083
 C567 C 0.91466 0.39450 0.25749
 C568 C 0.90158 0.41142 0.24667
 C569 C 0.88752 0.43257 0.23472
 C570 C 0.87661 0.45165 0.22516
 C571 C 0.94625 0.63812 0.71709
 C572 C 0.93118 0.62379 0.72901
 C573 C 0.91465 0.60546 0.74237
 C574 C 0.90155 0.58856 0.75320
 C575 C 0.88746 0.56744 0.76517
 C576 C 0.87654 0.54836 0.77474
 C577 C 0.71700 0.63792 0.94736
 C578 C 0.72897 0.62357 0.93231
 C579 C 0.74240 0.60528 0.91573
 C580 C 0.75329 0.58847 0.90254
 C581 C 0.76531 0.56746 0.88828
 C582 C 0.77490 0.54846 0.87719
 C583 C 0.28296 0.36199 0.94747
 C584 C 0.27094 0.37631 0.93243
 C585 C 0.25747 0.39457 0.91586
 C586 C 0.24654 0.41137 0.90268
 C587 C 0.23447 0.43237 0.88844
 C588 C 0.22487 0.45137 0.87739
 C589 C 0.28335 0.63777 0.05286
 C590 C 0.27135 0.62344 0.06791
 C591 C 0.25789 0.60517 0.08448
 C592 C 0.24697 0.58837 0.09767
 C593 C 0.23490 0.56737 0.11191
 C594 C 0.22527 0.54837 0.12296
 C595 C 0.71700 0.36200 0.05265
 C596 C 0.72898 0.37634 0.06771
 C597 C 0.74239 0.39464 0.08430
 C598 C 0.75326 0.41147 0.09749
 C599 C 0.76526 0.43251 0.11174
 C600 C 0.77484 0.45153 0.12281
 C601 C 0.94779 0.71669 0.63803
 C602 C 0.93272 0.72869 0.62373
 C603 C 0.91611 0.74214 0.60549
 C604 C 0.90287 0.75305 0.58872
 C605 C 0.88857 0.76510 0.56775
 C606 C 0.87747 0.77469 0.54877
 C607 C 0.94762 0.28298 0.36159
 C608 C 0.93252 0.27095 0.37585
 C609 C 0.91588 0.25747 0.39404
 C610 C 0.90263 0.24654 0.41078
 C611 C 0.88831 0.23450 0.43174
 C612 C 0.87720 0.22492 0.45071
 C613 C 0.05206 0.28329 0.63787
 C614 C 0.06716 0.27129 0.62360
 C615 C 0.08379 0.25783 0.60538
 C616 C 0.09704 0.24692 0.58863
 C617 C 0.11135 0.23487 0.56767
 C618 C 0.12247 0.22527 0.54871
 C619 C 0.05240 0.71681 0.36174
 C620 C 0.06751 0.72878 0.37604
 C621 C 0.08416 0.74217 0.39430
 C622 C 0.09741 0.75302 0.41110
 C623 C 0.11172 0.76499 0.43211
 C624 C 0.12283 0.77452 0.45113
 C625 C 0.63770 0.94718 0.71762
 C626 C 0.62329 0.93217 0.72956
 C627 C 0.60493 0.91562 0.74292
 C628 C 0.58806 0.90243 0.75375
 C629 C 0.56701 0.88816 0.76569
 C630 C 0.54798 0.87706 0.77522
 C631 C 0.36242 0.94720 0.28252
 C632 C 0.37686 0.93221 0.27058
 C633 C 0.39525 0.91568 0.25722
 C634 C 0.41213 0.90253 0.24639
 C635 C 0.43321 0.88830 0.23444
 C636 C 0.45225 0.87724 0.22490
 C637 C 0.63796 0.05348 0.28298
 C638 C 0.62353 0.06849 0.27106
 C639 C 0.60515 0.08503 0.25771
 C640 C 0.58827 0.09819 0.24688
 C641 C 0.56720 0.11241 0.23491
 C642 C 0.54816 0.12347 0.22535
 C643 C 0.36193 0.05298 0.71772
 C644 C 0.37635 0.06804 0.72960
 C645 C 0.39474 0.08464 0.74287
 C646 C 0.41164 0.09785 0.75362
 C647 C 0.43275 0.11214 0.76547
 C648 C 0.45181 0.12324 0.77493
 C649 C 0.63816 0.71741 0.05250
 C650 C 0.62382 0.72939 0.06756
 C651 C 0.60555 0.74279 0.08417
 C652 C 0.58876 0.75366 0.09741
 C653 C 0.56776 0.76564 0.11173
 C654 C 0.54876 0.77518 0.12287
 C655 C 0.36212 0.28272 0.05255
 C656 C 0.37649 0.27079 0.06760
 C657 C 0.39480 0.25743 0.08422
 C658 C 0.41162 0.24661 0.09746
 C659 C 0.43264 0.23467 0.11180
 C660 C 0.45164 0.22516 0.12295
 C661 C 0.63804 0.28271 0.94739
 C662 C 0.62367 0.27079 0.93231
 C663 C 0.60536 0.25746 0.91568
 C664 C 0.58851 0.24666 0.90242
 C665 C 0.56747 0.23476 0.88810
 C666 C 0.54844 0.22527 0.87696
 C667 C 0.36223 0.71705 0.94760
 C668 C 0.37657 0.72900 0.93254
 C669 C 0.39484 0.74240 0.91591
 C670 C 0.41164 0.75326 0.90267
 C671 C 0.43263 0.76525 0.88835
 C672 C 0.45162 0.77481 0.87721
 C673 C 0.71793 0.94716 0.36275
 C674 C 0.72985 0.93211 0.37713
 C675 C 0.74320 0.91553 0.39546
 C676 C 0.75403 0.90232 0.41230
 C677 C 0.76597 0.88803 0.43334
 C678 C 0.77549 0.87692 0.45234
 C679 C 0.28205 0.94666 0.63778
 C680 C 0.27016 0.93164 0.62333
 C681 C 0.25686 0.91509 0.60492
 C682 C 0.24610 0.90192 0.58800
 C683 C 0.23423 0.88769 0.56688
 C684 C 0.22475 0.87662 0.54782
 C685 C 0.28226 0.05316 0.36258
 C686 C 0.27031 0.06814 0.37701
 C687 C 0.25692 0.08465 0.39538
 C688 C 0.24606 0.09780 0.41225
 C689 C 0.23408 0.11202 0.43330
 C690 C 0.22452 0.12308 0.45232
 C691 C 0.71766 0.05314 0.63734
 C692 C 0.72958 0.06809 0.62286
 C693 C 0.74293 0.08457 0.60443
 C694 C 0.75375 0.09769 0.58752
 C695 C 0.76569 0.11187 0.56641
 C696 C 0.77522 0.12289 0.54736
 C697 C 0.94708 0.63772 0.28259
 C698 C 0.93205 0.62332 0.27065
 C699 C 0.91548 0.60497 0.25728
 C700 C 0.90228 0.58811 0.24644
 C701 C 0.88802 0.56706 0.23448
 C702 C 0.87692 0.54803 0.22495
 C703 C 0.94680 0.36242 0.71697
 C704 C 0.93179 0.37681 0.72893
 C705 C 0.91524 0.39513 0.74235
 C706 C 0.90206 0.41196 0.75325
 C707 C 0.88782 0.43298 0.76528
 C708 C 0.87675 0.45198 0.77488
 C709 C 0.05286 0.63751 0.71736
 C710 C 0.06786 0.62312 0.72935
 C711 C 0.08439 0.60480 0.74278
 C712 C 0.09756 0.58797 0.75368
 C713 C 0.11180 0.56694 0.76571
 C714 C 0.12287 0.54794 0.77529
 C715 C 0.05281 0.36234 0.28262
 C716 C 0.06783 0.37675 0.27068
 C717 C 0.08440 0.39509 0.25730
 C718 C 0.09760 0.41192 0.24645
 C719 C 0.11188 0.43294 0.23446
 C720 C 0.12299 0.45195 0.22490
   
