data_POSCAR
  _audit_creation_date              2014-09-24
  _audit_creation_method            'ToBaCCo'
  _symmetry_space_group_name_H-M    'P1'
  _symmetry_Int_Tables_number       1
  _symmetry_cell_setting            triclinic
  loop_
  _symmetry_equiv_pos_as_xyz
 x,y,z
_cell_length_a 28.9476
_cell_length_b 31.3729
_cell_length_c 32.1907
_cell_angle_alpha 91.454700
_cell_angle_beta 88.464700
_cell_angle_gamma 88.940400
loop_
  _atom_site_label
  _atom_site_type_symbol
  _atom_site_fract_x
  _atom_site_fract_y
  _atom_site_fract_z
C1 C 0.29584 0.33224 1.32895
 C2 C 0.32043 0.32843 1.29065
 C3 C 0.35553 0.29809 1.28557
 C4 C 0.36790 0.27268 1.31840
 C5 C 0.34416 0.27633 1.35604
 C6 C 0.30709 0.30563 1.36108
 C7 C 0.25935 0.35799 1.34317
 N8 N 0.24756 0.34682 1.38269
 C9 C 0.27660 0.31483 1.39370
 C10 C 0.36598 0.24939 1.38273
 N11 N 0.40257 0.22997 1.36180
 C12 C 0.40345 0.24383 1.32234
 C13 C 0.37402 0.30092 1.24629
 N14 N 0.35176 0.33275 1.22716
 C15 C 0.31880 0.35006 1.25380
 H16 H 0.24161 0.38161 1.32520
 H17 H 0.27556 0.29930 1.42338
 H18 H 0.35622 0.24534 1.41502
 H19 H 0.42905 0.23449 1.29849
 H20 H 0.40286 0.28226 1.23298
 H21 H 0.29591 0.37652 1.24707
 C22 C 1.15494 0.60562 0.85181
 C23 C 1.11735 0.61034 0.82586
 C24 C 1.08577 0.64373 0.83251
 C25 C 1.09175 0.67310 0.86576
 C26 C 1.12913 0.66812 0.89125
 C27 C 1.16072 0.63428 0.88426
 C28 C 1.19195 0.57743 0.85120
 N29 N 1.22002 0.58826 0.88272
 C30 C 1.20100 0.62322 0.90313
 C31 C 1.12848 0.70179 0.91922
 N32 N 1.09167 0.72753 0.91181
 C33 C 1.06869 0.71021 0.87911
 C34 C 1.05450 0.64091 0.80088
 N35 N 1.06690 0.60709 0.77544
 C36 C 1.10508 0.58810 0.79086
 H37 H 1.19827 0.55118 0.82914
 H38 H 1.21526 0.64028 0.92925
 H39 H 1.15375 0.70771 0.94281
 H40 H 1.03852 0.72390 0.86504
 H41 H 1.02570 0.66255 0.79600
 H42 H 1.12306 0.56022 0.77759
 C43 C 0.65427 -0.11762 0.12673
 C44 C 0.63110 -0.12510 0.16472
 C45 C 0.60761 -0.16280 0.16996
 C46 C 0.60715 -0.19352 0.13743
 C47 C 0.62954 -0.18560 0.10011
 C48 C 0.65262 -0.14752 0.09460
 C49 C 0.68487 -0.08701 0.11417
 N50 N 0.70157 -0.09812 0.07524
 C51 C 0.68120 -0.13463 0.06298
 C52 C 0.62811 -0.22182 0.07561
 N53 N 0.60519 -0.25194 0.09682
 C54 C 0.59184 -0.23490 0.13479
 C55 C 0.59091 -0.16258 0.21037
 N56 N 0.60323 -0.12573 0.22975
 C57 C 0.62816 -0.10267 0.20213
 H58 H 0.69560 -0.06014 0.13303
 H59 H 0.68941 -0.15239 0.03433
 H60 H 0.64397 -0.22643 0.04491
 H61 H 0.57436 -0.25153 0.15948
 H62 H 0.57154 -0.18767 0.22486
 H63 H 0.64375 -0.07224 0.20863
 C64 C -0.15443 1.14079 -0.33499
 C65 C -0.12617 1.14658 -0.30085
 C66 C -0.10152 1.18342 -0.29639
 C67 C -0.10461 1.21504 -0.32621
 C68 C -0.13192 1.20940 -0.36068
 C69 C -0.15776 1.17163 -0.36495
 C70 C -0.18359 1.10857 -0.34513
 N71 N -0.20548 1.11839 -0.38040
 C72 C -0.18980 1.15694 -0.39316
 C73 C -0.12716 1.24585 -0.38397
 N74 N -0.09827 1.27306 -0.36390
 C75 C -0.08486 1.25432 -0.32859
 C76 C -0.07743 1.18038 -0.26020
 N77 N -0.08698 1.14252 -0.24265
 C78 C -0.11698 1.12162 -0.26739
 H79 H -0.18945 1.08023 -0.32730
 H80 H -0.20148 1.17372 -0.42000
 H81 H -0.14425 1.25215 -0.41271
 H82 H -0.06187 1.26823 -0.30618
 H83 H -0.05450 1.20398 -0.24753
 H84 H -0.13107 1.09052 -0.26193
 C85 C 0.66704 0.63024 0.68322
 C86 C 0.63054 0.63226 0.71263
 C87 C 0.59899 0.66600 0.71312
 C88 C 0.60398 0.69849 0.68407
 C89 C 0.63980 0.69602 0.65472
 C90 C 0.67160 0.66183 0.65442
 C91 C 0.70338 0.60186 0.67644
 N92 N 0.72993 0.61550 0.64426
 C93 C 0.71069 0.65226 0.63053
 C94 C 0.63681 0.73158 0.63086
 N95 N 0.60021 0.75614 0.64517
 C96 C 0.58012 0.73618 0.67785
 C97 C 0.56726 0.65899 0.74488
 N98 N 0.57926 0.62223 0.76364
 C99 C 0.61791 0.60569 0.74401
 H100 H 0.71044 0.57360 0.69401
 H101 H 0.72426 0.67133 0.60567
 H102 H 0.66080 0.73930 0.60595
 H103 H 0.55037 0.74828 0.69590
 H104 H 0.53764 0.67909 0.75374
 H105 H 0.63512 0.57599 0.75128
 C106 C 0.82875 0.39017 0.16410
 C107 C 0.85659 0.38782 0.19899
 C108 C 0.88340 0.35176 0.20448
 C109 C 0.88392 0.31834 0.17532
 C110 C 0.85764 0.32061 0.14022
 C111 C 0.82847 0.35656 0.13517
 C112 C 0.79634 0.41980 0.15273
 N113 N 0.77488 0.40470 0.11859
 C114 C 0.79456 0.36612 0.10728
 C115 C 0.86688 0.28330 0.11729
 N116 N 0.89738 0.25897 0.13860
 C117 C 0.90712 0.28003 0.17431
 C118 C 0.90496 0.35635 0.24149
 N119 N 0.89220 0.39452 0.25888
 C120 C 0.86242 0.41431 0.23330
 H121 H 0.78713 0.44921 0.16956
 H122 H 0.78469 0.34602 0.08130
 H123 H 0.85183 0.27438 0.08799
 H124 H 0.93051 0.26867 0.19750
 H125 H 0.92800 0.33334 0.25515
 H126 H 0.84538 0.44486 0.23960
 C127 C 0.31075 0.12602 0.83618
 C128 C 0.34022 0.11873 0.80136
 C129 C 0.37194 0.14922 0.78993
 C130 C 0.37383 0.18792 0.81282
 C131 C 0.34414 0.19505 0.84677
 C132 C 0.31245 0.16413 0.85839
 C133 C 0.27666 0.10224 0.85453
 N134 N 0.25736 0.12549 0.88709
 C135 C 0.27897 0.16343 0.88940
 C136 C 0.35337 0.23445 0.86350
 N137 N 0.38827 0.25167 0.84086
 C138 C 0.40065 0.22376 0.80935
 C139 C 0.39504 0.13371 0.75457
 N140 N 0.37753 0.09507 0.74417
 C141 C 0.34389 0.08580 0.77239
 H142 H 0.26590 0.07109 0.84382
 H143 H 0.27073 0.18884 0.91195
 H144 H 0.33591 0.24944 0.89038
 H145 H 0.42791 0.22871 0.78640
 H146 H 0.42109 0.15012 0.73666
 H147 H 0.32304 0.05751 0.77136
 C148 C 0.22048 0.86692 0.32995
 C149 C 0.19027 0.87495 0.29722
 C150 C 0.14978 0.85214 0.29400
 C151 C 0.13924 0.82064 0.32294
 C152 C 0.16954 0.81226 0.35424
 C153 C 0.21037 0.83511 0.35755
 C154 C 0.26179 0.88432 0.34213
 N155 N 0.27693 0.86305 0.37585
 C156 C 0.24588 0.83260 0.38490
 C157 C 0.15141 0.78015 0.37743
 N158 N 0.11045 0.76856 0.36120
 C159 C 0.10292 0.79300 0.32764
 C160 C 0.12810 0.86544 0.25883
 N161 N 0.15455 0.89526 0.24024
 C162 C 0.19264 0.90116 0.26338
 H163 H 0.27976 0.90979 0.32690
 H164 H 0.24841 0.81074 0.41030
 H165 H 0.16765 0.76619 0.40383
 H166 H 0.07319 0.79076 0.30804
 H167 H 0.09650 0.85284 0.24665
 H168 H 0.22056 0.92227 0.25559
 Zn169 Zn 0.04408 0.96695 0.01042
 Zn170 Zn -0.05232 0.97499 -0.02230
 Zn171 Zn -0.02699 1.02096 0.05609
 Zn172 Zn 0.01005 1.04899 -0.02520
 O173 O -0.00622 1.00271 0.00469
 O174 O 0.03531 0.91541 -0.01388
 O175 O -0.10451 0.97230 0.00893
 O176 O 0.00588 0.99985 0.09745
 O177 O -0.03585 0.92144 -0.03725
 O178 O 0.05796 0.95785 0.06442
 O179 O -0.08439 1.00533 0.06706
 O180 O -0.00499 1.09860 0.00040
 O181 O -0.06804 0.99948 -0.06998
 O182 O -0.03080 1.07770 0.06172
 O183 O -0.01876 1.05228 -0.07336
 O184 O 0.07021 1.04911 -0.03795
 O185 O 0.09540 0.98731 -0.01431
 C186 C 0.00125 0.90002 -0.03305
 C187 C -0.11388 0.98600 0.04575
 C188 C 0.03940 0.97324 0.09799
 C189 C -0.02319 1.10688 0.03594
 C190 C -0.05137 1.03108 -0.08863
 C191 C 0.10243 1.02183 -0.03309
 Zn192 Zn 0.52708 -0.05012 0.46646
 Zn193 Zn 0.56840 -0.00692 0.54054
 Zn194 Zn 0.55962 0.03950 0.46110
 Zn195 Zn 0.47564 0.01888 0.51287
 O196 O 0.53298 0.00037 0.49514
 O197 O 0.55141 -0.09415 0.49344
 O198 O 0.62045 0.02404 0.53894
 O199 O 0.57560 0.01735 0.41031
 O200 O 0.58326 -0.06209 0.54768
 O201 O 0.55531 -0.04995 0.41647
 O202 O 0.61175 0.06083 0.48174
 O203 O 0.46380 0.07128 0.49727
 O204 O 0.53920 0.01013 0.58796
 O205 O 0.52212 0.08498 0.45396
 O206 O 0.46755 0.02184 0.56821
 O207 O 0.42988 -0.01052 0.49015
 O208 O 0.46788 -0.06212 0.45487
 C209 C 0.57364 -0.09565 0.52688
 C210 C 0.63409 0.05236 0.51401
 C211 C 0.57307 -0.02042 0.39545
 C212 C 0.48370 0.09535 0.47184
 C213 C 0.49746 0.02077 0.59631
 C214 C 0.43040 -0.04230 0.46500
 Zn215 Zn 0.97375 0.51149 0.54915
 Zn216 Zn 1.00617 0.47175 0.46891
 Zn217 Zn 0.97354 0.56331 0.47128
 Zn218 Zn 1.06263 0.53830 0.50887
 O219 O 1.00390 0.52128 0.49961
 O220 O 0.95571 0.45667 0.55473
 O221 O 0.97540 0.47695 0.42248
 O222 O 0.92397 0.58408 0.50001
 O223 O 0.98001 0.42784 0.49447
 O224 O 0.92268 0.54414 0.55589
 O225 O 0.95152 0.54437 0.42283
 O226 O 1.07372 0.59016 0.48987
 O227 O 1.06380 0.45504 0.45295
 O228 O 1.00912 0.60825 0.45907
 O229 O 1.10570 0.50505 0.48261
 O230 O 1.07529 0.54099 0.56294
 O231 O 1.00836 0.52440 0.59299
 C232 C 0.95982 0.42471 0.52967
 C233 C 0.95378 0.50744 0.40598
 C234 C 0.90538 0.57343 0.53425
 C235 C 1.05037 0.61604 0.46888
 C236 C 1.10255 0.47188 0.45961
 C237 C 1.04999 0.53619 0.59523
 Zn238 Zn 0.49113 0.43263 1.03189
 Zn239 Zn 0.45055 0.51953 1.04391
 Zn240 Zn 0.54684 0.50814 1.01054
 Zn241 Zn 0.46694 0.48324 0.95769
 O242 O 0.48895 0.48584 1.01079
 O243 O 0.45450 0.42746 1.07729
 O244 O 0.47878 0.56260 1.06834
 O245 O 0.58995 0.47143 1.02810
 O246 O 0.42355 0.49218 1.08519
 O247 O 0.54845 0.41540 1.04449
 O248 O 0.55045 0.55524 1.04327
 O249 O 0.50641 0.50576 0.92059
 O250 O 0.40458 0.54244 1.01633
 O251 O 0.56546 0.52338 0.95966
 O252 O 0.41408 0.51355 0.95311
 O253 O 0.45482 0.42934 0.93988
 O254 O 0.47145 0.39361 0.99623
 C255 C 0.42727 0.45400 1.09634
 C256 C 0.52006 0.57489 1.06606
 C257 C 0.58704 0.43376 1.04138
 C258 C 0.54605 0.52183 0.92479
 C259 C 0.39179 0.53757 0.97927
 C260 C 0.45729 0.39465 0.95941
 C261 C 1.21171 0.36230 0.40730
 C262 C 1.18966 0.39918 0.40030
 C263 C 1.14969 0.41365 0.42650
 C264 C 1.14462 0.45462 0.43819
 H265 H 1.20190 0.41995 0.37620
 H266 H 1.12429 0.39065 0.43607
 H267 H 1.20173 0.34486 0.43471
 H268 H 1.17203 0.47662 0.43114
 C269 C 0.26013 0.56705 0.89087
 C270 C 0.28624 0.57745 0.92312
 C271 C 0.32874 0.55337 0.93181
 C272 C 0.35006 0.56088 0.96738
 H273 H 0.27608 0.60335 0.94438
 H274 H 0.34190 0.52907 0.90981
 H275 H 0.27098 0.54021 0.87077
 H276 H 0.33558 0.58444 0.98955
 C277 C -0.26339 0.91929 0.05285
 C278 C -0.23605 0.94926 0.06825
 C279 C -0.19316 0.95960 0.04561
 C280 C -0.15955 0.97960 0.06516
 H281 H -0.24231 0.96299 0.09909
 H282 H -0.18767 0.94804 0.01379
 H283 H -0.25457 0.90542 0.02234
 H284 H -0.16507 0.99041 0.09721
 C285 C 0.76129 0.09292 0.60356
 C286 C 0.73768 0.10101 0.56929
 C287 C 0.69970 0.07239 0.55752
 C288 C 0.67554 0.07763 0.52311
 H289 H 0.74504 0.12858 0.55087
 H290 H 0.69024 0.04724 0.57845
 H291 H 0.75275 0.06431 0.62023
 H292 H 0.68490 0.10267 0.50205
 C293 C 0.43433 0.20176 0.37590
 C294 C 0.43447 0.18885 0.41504
 C295 C 0.46673 0.15497 0.42695
 C296 C 0.45965 0.13522 0.46254
 H297 H 0.40926 0.20110 0.43792
 H298 H 0.49336 0.14336 0.40493
 H299 H 0.46039 0.18857 0.35406
 H300 H 0.43134 0.14570 0.48333
 C301 C 0.91596 0.31268 0.62535
 C302 C 0.91018 0.32943 0.58790
 C303 C 0.92857 0.37216 0.57896
 C304 C 0.94003 0.38303 0.54017
 H305 H 0.89438 0.31121 0.56325
 H306 H 0.93475 0.39417 0.60463
 H307 H 0.93520 0.33103 0.64787
 H308 H 0.93625 0.35983 0.51500
 C309 C 0.08307 0.76488 -0.06657
 C310 C 0.04655 0.79058 -0.07252
 C311 C 0.04213 0.83183 -0.04953
 C312 C 0.00463 0.85690 -0.05237
 H313 H 0.02041 0.78196 -0.09445
 H314 H 0.07059 0.84231 -0.03082
 H315 H 0.10749 0.77452 -0.04325
 H316 H -0.02397 0.84612 -0.07074
 C317 C 0.59949 0.70788 1.08122
 C318 C 0.57449 0.67856 1.10045
 C319 C 0.56785 0.63691 1.07982
 C320 C 0.53171 0.61337 1.09006
 H321 H 0.55656 0.68576 1.12978
 H322 H 0.59050 0.62704 1.05381
 H323 H 0.61492 0.69961 1.05088
 H324 H 0.50758 0.62468 1.11444
 C325 C 0.36529 0.34617 1.18662
 C326 C 0.36648 0.38720 1.17727
 C327 C 0.39189 0.39997 1.13965
 C328 C 0.39911 0.44088 1.13219
 H329 H 0.35285 0.41132 1.19923
 H330 H 0.40661 0.37546 1.11861
 H331 H 0.38165 0.32271 1.16538
 H332 H 0.38355 0.46546 1.15262
 C333 C 0.59147 -0.11514 0.27255
 C334 C 0.59982 -0.07715 0.29050
 C335 C 0.58513 -0.06821 0.33415
 C336 C 0.59022 -0.02984 0.35250
 H337 H 0.61640 -0.05237 0.27311
 H338 H 0.56882 -0.09342 0.35131
 H339 H 0.57401 -0.13896 0.29073
 H340 H 0.60604 -0.00445 0.33526
 C341 C -0.06739 1.12835 -0.20463
 C342 C -0.07896 1.09174 -0.18687
 C343 C -0.05800 1.07893 -0.14774
 C344 C -0.07090 1.04355 -0.12849
 H345 H -0.10419 1.07116 -0.20070
 H346 H -0.03208 1.09915 -0.13421
 H347 H -0.04237 1.14853 -0.18971
 H348 H -0.09729 1.02373 -0.14180
 C349 C 1.04413 0.59466 0.73798
 C350 C 1.06628 0.57166 0.70772
 C351 C 1.04406 0.55962 0.66868
 C352 C 1.06982 0.54543 0.63590
 H353 H 1.10232 0.56284 0.71086
 H354 H 1.00700 0.56399 0.66616
 H355 H 1.00896 0.60576 0.73357
 H356 H 1.10713 0.54375 0.63803
 C357 C 0.77183 0.59425 0.62953
 C358 C 0.79613 0.60692 0.59633
 C359 C 0.83908 0.58432 0.58281
 C360 C 0.86261 0.59576 0.54874
 H361 H 0.78452 0.63383 0.57878
 H362 H 0.85140 0.55787 0.60081
 H363 H 0.78397 0.56672 0.64612
 H364 H 0.84985 0.62192 0.53061
 C365 C 0.73845 0.42538 1.10159
 C366 C 0.70920 0.40645 1.07574
 C367 C 0.66830 0.43022 1.06177
 C368 C 0.62908 0.41036 1.05325
 H369 H 0.71303 0.37290 1.06743
 H370 H 0.66951 0.46472 1.06087
 H371 H 0.73056 0.45795 1.11204
 H372 H 0.62714 0.37616 1.05680
 C373 C 0.22090 1.11530 -0.08774
 C374 C 0.20370 1.07605 -0.08624
 C375 C 0.16088 1.06869 -0.06216
 C376 C 0.14851 1.02960 -0.05138
 H377 H 0.22035 1.04943 -0.10306
 H378 H 0.13828 1.09583 -0.05427
 H379 H 0.20525 1.14018 -0.06763
 H380 H 0.17198 1.00268 -0.05732
 C381 C 0.31605 -0.13077 0.39778
 C382 C 0.33966 -0.09452 0.39717
 C383 C 0.38120 -0.08916 0.42229
 C384 C 0.38680 -0.05339 0.44491
 H385 H 0.32696 -0.06744 0.38034
 H386 H 0.40729 -0.11440 0.42183
 H387 H 0.32680 -0.15514 0.41903
 H388 H 0.35894 -0.02977 0.44684
 C389 C 0.58614 -0.20519 0.63112
 C390 C 0.60218 -0.18929 0.59531
 C391 C 0.58727 -0.14689 0.58169
 C392 C 0.58879 -0.13750 0.54142
 H393 H 0.62536 -0.20791 0.57479
 H394 H 0.57380 -0.12359 0.60458
 H395 H 0.55994 -0.18702 0.64905
 H396 H 0.59866 -0.16198 0.51833
 C397 C 1.08040 0.73544 0.37546
 C398 C 1.08761 0.71497 0.41085
 C399 C 1.05932 0.67881 0.42414
 C400 C 1.07303 0.65535 0.45588
 H401 H 1.11591 0.72395 0.43024
 H402 H 1.02909 0.67010 0.40692
 H403 H 1.05152 0.72649 0.35656
 H404 H 1.10457 0.66357 0.47141
 C405 C -0.08378 1.22002 0.12836
 C406 C -0.08181 1.20369 0.08970
 C407 C -0.06010 1.16144 0.08205
 C408 C -0.03892 1.15090 0.04585
 H409 H -0.09405 1.22175 0.06383
 H410 H -0.06176 1.13853 0.10670
 H411 H -0.06650 1.20255 0.15238
 H412 H -0.03605 1.17438 0.02182
 C413 C 0.40962 0.29177 0.84988
 C414 C 0.41209 0.30615 0.88918
 C415 C 0.43214 0.34732 0.90127
 C416 C 0.44164 0.35420 0.94124
 H417 H 0.39934 0.28629 0.91388
 H418 H 0.43799 0.37161 0.87849
 H419 H 0.42519 0.30945 0.82482
 H420 H 0.43699 0.32844 0.96276
 C421 C 0.55393 0.60364 0.79743
 C422 C 0.57415 0.57657 0.82313
 C423 C 0.54818 0.55726 0.85757
 C424 C 0.57054 0.53954 0.88877
 H425 H 0.61079 0.56939 0.81960
 H426 H 0.51072 0.55879 0.85814
 H427 H 0.51796 0.61290 0.80282
 H428 H 0.60793 0.54071 0.88936
 C429 C 0.38835 0.07012 0.70716
 C430 C 0.43138 0.06694 0.69137
 C431 C 0.44138 0.04476 0.65122
 C432 C 0.48481 0.03475 0.63917
 H433 H 0.45933 0.08175 0.70782
 H434 H 0.41317 0.03866 0.63052
 H435 H 0.36087 0.05297 0.69225
 H436 H 0.51257 0.03991 0.66059
 C437 C 0.14653 0.91424 0.20068
 C438 C 0.10372 0.92209 0.18758
 C439 C 0.09473 0.93942 0.14609
 C440 C 0.05412 0.95870 0.13904
 H441 H 0.07444 0.91597 0.20811
 H442 H 0.12084 0.93591 0.12142
 H443 H 0.17599 0.92322 0.18157
 H444 H 0.02965 0.96386 0.16486
 C445 C 0.90762 0.40838 0.29868
 C446 C 0.90591 0.44897 0.31202
 C447 C 0.92669 0.45951 0.35192
 C448 C 0.93060 0.49939 0.36654
 H449 H 0.89147 0.47383 0.29328
 H450 H 0.94023 0.43334 0.36967
 H451 H 0.92396 0.38467 0.31773
 H452 H 0.91661 0.52594 0.34969
   
