data_POSCAR
  _audit_creation_date              2014-09-24
  _audit_creation_method            'ToBaCCo'
  _symmetry_space_group_name_H-M    'P1'
  _symmetry_Int_Tables_number       1
  _symmetry_cell_setting            triclinic
  loop_
  _symmetry_equiv_pos_as_xyz
 x,y,z
_cell_length_a 25.0871
_cell_length_b 24.5391
_cell_length_c 24.1749
_cell_angle_alpha 91.595400
_cell_angle_beta 90.914100
_cell_angle_gamma 90.487200
loop_
  _atom_site_label
  _atom_site_type_symbol
  _atom_site_fract_x
  _atom_site_fract_y
  _atom_site_fract_z
O1 O 0.53307 0.09899 0.01990
 O2 O 0.47791 -0.03309 -0.12088
 O3 O 0.59591 0.00806 -0.06583
 O4 O 0.41437 0.05659 -0.03436
 O5 O 0.56519 -0.06629 -0.10053
 O6 O 0.44129 0.08837 0.04384
 O7 O 0.40311 -0.02890 -0.08110
 O8 O 0.60422 0.05262 0.02274
 C9 C 0.58170 0.09651 0.01359
 C10 C 0.42998 -0.02240 -0.12308
 C11 C 0.59111 -0.02342 -0.10618
 C12 C 0.41658 0.09494 -0.00056
 O13 O 0.46840 0.00615 0.11233
 O14 O 0.52353 -0.13000 -0.02061
 O15 O 0.58768 -0.04430 0.07203
 O16 O 0.40626 -0.07964 0.01730
 O17 O 0.43684 -0.11292 -0.05753
 O18 O 0.56015 0.03184 0.10368
 O19 O 0.39772 0.00690 0.06284
 O20 O 0.59879 -0.08995 -0.01489
 Co21 Co 0.50079 0.04927 0.06265
 Co22 Co 0.50097 -0.07850 -0.06763
 Co23 Co 0.58745 -0.01804 0.00285
 Co24 Co 0.41476 -0.01164 -0.00821
 O25 O 0.50100 -0.01466 -0.00259
 C26 C 0.41981 -0.00154 0.10806
 C27 C 0.57101 -0.13112 -0.00692
 C28 C 0.58281 -0.01227 0.11168
 C29 C 0.40827 -0.11802 -0.01640
 O30 O -0.11729 0.45869 -0.03900
 O31 O 0.07154 0.54544 0.09015
 O32 O -0.02733 0.41145 0.05981
 O33 O -0.08763 0.57673 0.04917
 O34 O 0.04502 0.44775 0.09257
 O35 O -0.11681 0.55995 -0.03398
 O36 O -0.00976 0.55526 0.09890
 O37 O -0.06240 0.39097 -0.03594
 C38 C -0.10894 0.40882 -0.03600
 C39 C 0.03473 0.56126 0.11946
 C40 C 0.00381 0.41981 0.09957
 C41 C -0.12447 0.57675 0.01447
 O42 O -0.04223 0.56555 -0.10648
 O43 O 0.08927 0.43361 -0.00800
 O44 O 0.02434 0.42479 -0.07973
 O45 O 0.05150 0.60366 0.01628
 O46 O 0.09827 0.53391 -0.01304
 O47 O -0.04490 0.46113 -0.11856
 O48 O -0.03082 0.62014 -0.03321
 O49 O 0.03712 0.36167 -0.00286
 Co50 Co -0.07357 0.51010 -0.06817
 Co51 Co 0.06752 0.49097 0.03659
 Co52 Co -0.00122 0.42300 -0.00885
 Co53 Co -0.01791 0.58247 0.03081
 O54 O -0.01108 0.50459 -0.00369
 C55 C -0.03203 0.61185 -0.08520
 C56 C 0.08546 0.38254 -0.00051
 C57 C -0.00303 0.43370 -0.12189
 C58 C 0.09126 0.58429 -0.00899
 O59 O 0.00806 -0.10201 0.45957
 O60 O 0.11131 0.01277 0.54145
 O61 O 0.04814 0.02006 0.37982
 O62 O -0.00284 -0.02272 0.62013
 O63 O 0.09917 -0.00446 0.44491
 O64 O -0.00164 -0.09484 0.56456
 O65 O 0.06448 0.04934 0.60550
 O66 O -0.01525 -0.05358 0.38943
 C67 C 0.00641 -0.09534 0.40875
 C68 C 0.10577 0.02514 0.59077
 C69 C 0.09046 -0.00166 0.39494
 C70 C 0.00218 -0.07334 0.61191
 O71 O -0.09253 -0.04384 0.55122
 O72 O 0.06135 0.09977 0.43376
 O73 O -0.08827 0.02070 0.42743
 O74 O -0.01122 0.11222 0.56096
 O75 O 0.07005 0.11364 0.53295
 O76 O -0.08951 -0.06233 0.44940
 O77 O -0.07987 0.03920 0.58673
 O78 O -0.02300 0.09152 0.42396
 Co79 Co -0.03903 -0.06737 0.50489
 Co80 Co 0.07861 0.05181 0.48867
 Co81 Co -0.01760 0.01882 0.41287
 Co82 Co -0.00607 0.04208 0.58384
 O83 O 0.00373 0.01104 0.49836
 C84 C -0.10832 -0.00258 0.57876
 C85 C 0.01753 0.11992 0.42034
 C86 C -0.11332 -0.02226 0.43098
 C87 C 0.03035 0.13813 0.55230
 C88 C -0.23379 0.30226 -0.02042
 C89 C -0.23999 0.27663 0.03088
 C90 C -0.28177 0.23797 0.03738
 C91 C -0.31702 0.22497 -0.00754
 C92 C -0.31146 0.25136 -0.05848
 C93 C -0.26972 0.29014 -0.06495
 C94 C -0.26472 0.31567 -0.11639
 C95 C -0.29998 0.30331 -0.16018
 C96 C -0.34083 0.26547 -0.15380
 C97 C -0.34662 0.23956 -0.10366
 C98 C -0.28693 0.21264 0.08900
 C99 C -0.25174 0.22501 0.13284
 C100 C -0.21080 0.26269 0.12640
 C101 C -0.20484 0.28838 0.07617
 C102 C -0.35651 0.18190 -0.00209
 C103 C -0.38667 0.14412 0.00401
 C104 C -0.18993 0.34039 -0.02737
 C105 C -0.15307 0.37170 -0.03197
 H106 H -0.23359 0.34540 -0.12330
 H107 H -0.29558 0.32321 -0.19927
 H108 H -0.36808 0.25600 -0.18796
 H109 H -0.37896 0.21039 -0.10065
 H110 H -0.31819 0.18312 0.09611
 H111 H -0.25625 0.20521 0.17198
 H112 H -0.18345 0.27204 0.16047
 H113 H -0.17238 0.31743 0.07328
 C114 C 0.21158 0.69204 -0.03322
 C115 C 0.26487 0.67431 -0.03797
 C116 C 0.30741 0.71271 -0.03254
 C117 C 0.29623 0.76849 -0.02253
 C118 C 0.24282 0.78644 -0.01949
 C119 C 0.20033 0.74804 -0.02493
 C120 C 0.14720 0.76674 -0.02150
 C121 C 0.13640 0.82191 -0.01313
 C122 C 0.17799 0.85953 -0.00767
 C123 C 0.23066 0.84225 -0.01075
 C124 C 0.36046 0.69411 -0.03696
 C125 C 0.37112 0.63903 -0.04652
 C126 C 0.32946 0.60142 -0.05182
 C127 C 0.27684 0.61863 -0.04759
 C128 C 0.33933 0.80795 -0.01740
 C129 C 0.37355 0.84258 -0.01533
 C130 C 0.16875 0.65247 -0.03063
 C131 C 0.13306 0.62055 -0.02374
 H132 H 0.11348 0.73905 -0.02572
 H133 H 0.09554 0.83551 -0.01077
 H134 H 0.16942 0.90235 -0.00101
 H135 H 0.26160 0.87310 -0.00619
 H136 H 0.39416 0.72185 -0.03304
 H137 H 0.41193 0.62546 -0.04981
 H138 H 0.33794 0.55869 -0.05929
 H139 H 0.24571 0.58796 -0.05224
 C140 C 0.21653 0.28497 -0.00407
 C141 C 0.24840 0.28093 -0.05182
 C142 C 0.29286 0.24541 -0.05277
 C143 C 0.30525 0.21440 -0.00586
 C144 C 0.27387 0.21916 0.04226
 C145 C 0.22936 0.25453 0.04313
 C146 C 0.19825 0.25820 0.09148
 C147 C 0.21066 0.22758 0.13755
 C148 C 0.25418 0.19296 0.13673
 C149 C 0.28561 0.18870 0.08983
 C150 C 0.32378 0.24150 -0.10113
 C151 C 0.31121 0.27204 -0.14725
 C152 C 0.26780 0.30686 -0.14632
 C153 C 0.23663 0.31145 -0.09924
 C154 C 0.34812 0.17514 -0.00757
 C155 C 0.38130 0.14001 -0.00620
 C156 C 0.17010 0.31975 -0.00360
 C157 C 0.13137 0.34837 -0.00249
 H158 H 0.16400 0.28459 0.09419
 H159 H 0.18631 0.23062 0.17404
 H160 H 0.26360 0.16921 0.17257
 H161 H 0.31910 0.16127 0.09137
 H162 H 0.35796 0.21500 -0.10373
 H163 H 0.33537 0.26881 -0.18386
 H164 H 0.25813 0.33038 -0.18229
 H165 H 0.20319 0.33899 -0.10052
 C166 C -0.26247 0.65813 0.04418
 C167 C -0.30836 0.64653 0.01102
 C168 C -0.34981 0.68546 0.00789
 C169 C -0.34489 0.73560 0.03788
 C170 C -0.30162 0.74470 0.07537
 C171 C -0.26023 0.70573 0.07857
 C172 C -0.21652 0.71626 0.11513
 C173 C -0.21378 0.76407 0.14761
 C174 C -0.25416 0.80236 0.14427
 C175 C -0.29775 0.79296 0.10871
 C176 C -0.39471 0.67383 -0.02667
 C177 C -0.39866 0.62485 -0.05715
 C178 C -0.35807 0.58673 -0.05412
 C179 C -0.31325 0.59731 -0.02057
 C180 C -0.37933 0.78056 0.02425
 C181 C -0.40421 0.81990 0.01077
 C182 C -0.21493 0.62567 0.03694
 C183 C -0.17413 0.60170 0.02804
 H184 H -0.18428 0.68753 0.11915
 H185 H -0.18010 0.77149 0.17544
 H186 H -0.25168 0.83954 0.16937
 H187 H -0.32845 0.82367 0.10781
 H188 H -0.42730 0.70225 -0.03006
 H189 H -0.43340 0.61644 -0.08324
 H190 H -0.36132 0.54877 -0.07787
 H191 H -0.28272 0.56643 -0.01925
 C192 C 0.04455 -0.22628 0.30966
 C193 C 0.03156 -0.27842 0.32962
 C194 C 0.03580 -0.32538 0.29428
 C195 C 0.05327 -0.31993 0.23938
 C196 C 0.06968 -0.26830 0.22065
 C197 C 0.06491 -0.22124 0.25578
 C198 C 0.07998 -0.16986 0.23563
 C199 C 0.10004 -0.16519 0.18251
 C200 C 0.10526 -0.21127 0.14833
 C201 C 0.09009 -0.26231 0.16686
 C202 C 0.02160 -0.37691 0.31465
 C203 C 0.00387 -0.38198 0.36862
 C204 C -0.00021 -0.33610 0.40328
 C205 C 0.01336 -0.28481 0.38421
 C206 C 0.04923 -0.36588 0.20039
 C207 C 0.04359 -0.40138 0.16530
 C208 C 0.03381 -0.17794 0.34350
 C209 C 0.02250 -0.13916 0.37253
 H210 H 0.07684 -0.13292 0.26083
 H211 H 0.11186 -0.12563 0.16793
 H212 H 0.12109 -0.20747 0.10721
 H213 H 0.09490 -0.29698 0.13878
 H214 H 0.02439 -0.41376 0.28924
 H215 H -0.00671 -0.42173 0.38363
 H216 H -0.01397 -0.34025 0.44518
 H217 H 0.00963 -0.25036 0.41278
 C218 C 0.04566 0.27843 0.64432
 C219 C 0.07737 0.27260 0.69279
 C220 C 0.07255 0.31054 0.73786
 C221 C 0.03627 0.35420 0.73403
 C222 C 0.00809 0.36263 0.68383
 C223 C 0.01279 0.32453 0.63880
 C224 C -0.01678 0.33286 0.58954
 C225 C -0.04993 0.37785 0.58474
 C226 C -0.05452 0.41516 0.62875
 C227 C -0.02600 0.40777 0.67791
 C228 C 0.10322 0.30279 0.78665
 C229 C 0.13753 0.25868 0.79081
 C230 C 0.14239 0.22167 0.74667
 C231 C 0.11284 0.22839 0.69808
 C232 C 0.02372 0.38623 0.78347
 C233 C 0.01203 0.40962 0.82602
 C234 C 0.04119 0.23298 0.60474
 C235 C 0.03645 0.19152 0.57714
 H236 H -0.01419 0.30495 0.55423
 H237 H -0.07217 0.38379 0.54667
 H238 H -0.08032 0.45002 0.62480
 H239 H -0.03065 0.43787 0.71102
 H240 H 0.10101 0.33068 0.82201
 H241 H 0.16033 0.25304 0.82855
 H242 H 0.16904 0.18745 0.75019
 H243 H 0.11817 0.19866 0.66476
 C244 C 0.00801 0.25465 0.32517
 C245 C 0.05482 0.27582 0.30150
 C246 C 0.05088 0.31454 0.25898
 C247 C 0.00008 0.33184 0.24021
 C248 C -0.04662 0.31239 0.26547
 C249 C -0.04265 0.27371 0.30810
 C250 C -0.08997 0.25413 0.33202
 C251 C -0.13978 0.27225 0.31441
 C252 C -0.14361 0.31010 0.27282
 C253 C -0.09768 0.33001 0.24840
 C254 C 0.09831 0.33434 0.23533
 C255 C 0.14810 0.31634 0.25305
 C256 C 0.15191 0.27837 0.29448
 C257 C 0.10595 0.25825 0.31863
 C258 C -0.00358 0.36609 0.19216
 C259 C -0.00286 0.39221 0.15060
 C260 C 0.01181 0.20963 0.36288
 C261 C 0.01485 0.16998 0.39116
 H262 H -0.08896 0.22480 0.36463
 H263 H -0.17559 0.25684 0.33315
 H264 H -0.18239 0.32405 0.25933
 H265 H -0.10258 0.35939 0.21617
 H266 H 0.09751 0.36394 0.20299
 H267 H 0.18392 0.33183 0.23440
 H268 H 0.19068 0.26440 0.30800
 H269 H 0.11096 0.22892 0.35086
 C270 C 0.00095 -0.17940 0.73897
 C271 C -0.05039 -0.20128 0.74895
 C272 C -0.05655 -0.24353 0.78745
 C273 C -0.01141 -0.26364 0.81600
 C274 C 0.03957 -0.24010 0.80790
 C275 C 0.04577 -0.19786 0.76923
 C276 C 0.09704 -0.17508 0.76173
 C277 C 0.14098 -0.19328 0.79181
 C278 C 0.13498 -0.23462 0.82947
 C279 C 0.08495 -0.25797 0.83755
 C280 C -0.10822 -0.26495 0.79633
 C281 C -0.15256 -0.24508 0.76819
 C282 C -0.14658 -0.20372 0.73065
 C283 C -0.09623 -0.18198 0.72091
 C284 C -0.01767 -0.30912 0.85277
 C285 C -0.02423 -0.34715 0.88264
 C286 C 0.00701 -0.13971 0.69584
 C287 C 0.00758 -0.10833 0.65827
 H288 H 0.10357 -0.14280 0.73291
 H289 H 0.17989 -0.17518 0.78595
 H290 H 0.16929 -0.24866 0.85257
 H291 H 0.08220 -0.28989 0.86741
 H292 H -0.11500 -0.29706 0.82525
 H293 H -0.19178 -0.26184 0.77561
 H294 H -0.18113 -0.18835 0.70895
 H295 H -0.09383 -0.14972 0.69143
 C296 C 0.23870 0.00964 0.68771
 C297 C 0.26799 0.05679 0.70522
 C298 C 0.31586 0.05137 0.73667
 C299 C 0.33395 -0.00103 0.75044
 C300 C 0.30572 -0.04822 0.73113
 C301 C 0.25779 -0.04286 0.69984
 C302 C 0.22958 -0.09057 0.68197
 C303 C 0.24835 -0.14211 0.69457
 C304 C 0.29528 -0.14737 0.72520
 C305 C 0.32381 -0.10111 0.74337
 C306 C 0.34422 0.09894 0.75446
 C307 C 0.32585 0.15050 0.74136
 C308 C 0.27898 0.15587 0.71060
 C309 C 0.25019 0.10969 0.69264
 C310 C 0.37574 -0.00647 0.79181
 C311 C 0.40514 -0.01305 0.83076
 C312 C 0.18969 0.01499 0.65600
 C313 C 0.15014 0.01934 0.62778
 H314 H 0.19274 -0.08860 0.65825
 H315 H 0.22624 -0.17815 0.68066
 H316 H 0.30968 -0.18750 0.73494
 H317 H 0.36029 -0.10726 0.76679
 H318 H 0.38102 0.09669 0.77825
 H319 H 0.34819 0.18643 0.75503
 H320 H 0.26484 0.19604 0.70061
 H321 H 0.21388 0.11592 0.66896
 C322 C -0.25113 -0.02884 0.33967
 C323 C -0.26970 0.02179 0.32069
 C324 C -0.30865 0.02297 0.27747
 C325 C -0.32894 -0.02650 0.25361
 C326 C -0.31256 -0.07704 0.27465
 C327 C -0.27342 -0.07822 0.31780
 C328 C -0.25666 -0.12921 0.33729
 C329 C -0.27812 -0.17773 0.31490
 C330 C -0.31653 -0.17656 0.27285
 C331 C -0.33366 -0.12688 0.25272
 C332 C -0.32557 0.07409 0.25818
 C333 C -0.30450 0.12262 0.28086
 C334 C -0.26643 0.12146 0.32318
 C335 C -0.24914 0.07176 0.34308
 C336 C -0.36301 -0.02492 0.20462
 C337 C -0.38906 -0.02082 0.16266
 C338 C -0.20500 -0.02966 0.37664
 C339 C -0.16431 -0.02773 0.40383
 H340 H -0.22704 -0.13205 0.37010
 H341 H -0.26487 -0.21643 0.33028
 H342 H -0.33297 -0.21435 0.25552
 H343 H -0.36351 -0.12793 0.21988
 H344 H -0.35524 0.07716 0.22546
 H345 H -0.31779 0.16132 0.26550
 H346 H -0.25018 0.15926 0.34070
 H347 H -0.21962 0.07299 0.37623
 C348 C 0.21877 -0.01803 0.29505
 C349 C 0.24830 0.03090 0.28911
 C350 C 0.29497 0.03082 0.25664
 C351 C 0.31154 -0.01801 0.22975
 C352 C 0.28251 -0.06710 0.23638
 C353 C 0.23616 -0.06717 0.26949
 C354 C 0.20790 -0.11667 0.27578
 C355 C 0.22455 -0.16470 0.24948
 C356 C 0.26951 -0.16453 0.21658
 C357 C 0.29840 -0.11641 0.21006
 C358 C 0.32372 0.08026 0.25115
 C359 C 0.30673 0.12843 0.27686
 C360 C 0.26090 0.12862 0.30835
 C361 C 0.23193 0.08056 0.31464
 C362 C 0.35461 -0.01591 0.19052
 C363 C 0.38713 -0.01100 0.15484
 C364 C 0.17095 -0.01708 0.32800
 C365 C 0.13272 -0.01238 0.35721
 H366 H 0.17271 -0.11870 0.30097
 H367 H 0.20235 -0.20222 0.25454
 H368 H 0.28218 -0.20191 0.19612
 H369 H 0.33334 -0.11829 0.18440
 H370 H 0.35966 0.08224 0.22711
 H371 H 0.32915 0.16585 0.27211
 H372 H 0.24772 0.16619 0.32806
 H373 H 0.19660 0.08292 0.33964
 C374 C -0.24367 -0.00466 0.66969
 C375 C -0.25707 0.04393 0.69909
 C376 C -0.29487 0.04234 0.74221
 C377 C -0.31915 -0.00777 0.75549
 C378 C -0.30801 -0.05576 0.72397
 C379 C -0.27011 -0.05418 0.68096
 C380 C -0.25879 -0.10281 0.65073
 C381 C -0.28436 -0.15166 0.66255
 C382 C -0.32141 -0.15326 0.70463
 C383 C -0.33325 -0.10599 0.73514
 C384 C -0.30673 0.09117 0.77188
 C385 C -0.28199 0.14023 0.75922
 C386 C -0.24513 0.14183 0.71696
 C387 C -0.23263 0.09435 0.68712
 C388 C -0.35263 -0.01092 0.80376
 C389 C -0.37899 -0.01533 0.84467
 C390 C -0.19866 -0.00474 0.63269
 C391 C -0.15877 -0.00433 0.60559
 H392 H -0.23032 -0.10351 0.61756
 H393 H -0.27527 -0.18849 0.63900
 H394 H -0.34110 -0.19133 0.71371
 H395 H -0.36246 -0.10924 0.76736
 H396 H -0.33526 0.09195 0.80500
 H397 H -0.29145 0.17718 0.78232
 H398 H -0.22608 0.18007 0.70725
 H399 H -0.20385 0.09764 0.65448
   
