data_POSCAR
  _audit_creation_date              2014-09-24
  _audit_creation_method            'ToBaCCo'
  _symmetry_space_group_name_H-M    'P1'
  _symmetry_Int_Tables_number       1
  _symmetry_cell_setting            triclinic
  loop_
  _symmetry_equiv_pos_as_xyz
 x,y,z
_cell_length_a 38.2492
_cell_length_b 38.6947
_cell_length_c 41.1720
_cell_angle_alpha 87.789500
_cell_angle_beta 91.111500
_cell_angle_gamma 88.509900
loop_
  _atom_site_label
  _atom_site_type_symbol
  _atom_site_fract_x
  _atom_site_fract_y
  _atom_site_fract_z
N1 N 0.60204 0.69550 0.61517
 N2 N 0.58825 0.67814 0.63961
 C3 C 0.55768 0.69359 0.64714
 C4 C 0.55204 0.72203 0.62606
 C5 C 0.58064 0.72244 0.60610
 H6 H 0.54032 0.68404 0.66566
 H7 H 0.58528 0.74064 0.58614
 Cu8 Cu 0.61050 0.63572 0.65782
 Cu9 Cu 0.64638 0.68097 0.59685
 Cu10 Cu 0.65808 0.59209 0.60419
 N11 N 0.62629 0.58816 0.66683
 N12 N 0.64322 0.57064 0.64506
 C13 C 0.64846 0.53777 0.65631
 C14 C 0.63475 0.53472 0.68708
 C15 C 0.62084 0.56729 0.69305
 H16 H 0.66185 0.51775 0.64331
 H17 H 0.60695 0.57510 0.71430
 N18 N 0.68315 0.62138 0.57240
 N19 N 0.67972 0.65543 0.57066
 C20 C 0.70258 0.66829 0.54926
 C21 C 0.72133 0.64104 0.53685
 C22 C 0.70835 0.61159 0.55201
 H23 H 0.70581 0.69553 0.54357
 H24 H 0.71763 0.58520 0.54961
 H25 H 0.62390 0.63467 0.60012
 H26 H 0.66391 0.63767 0.62656
 N27 N 0.91000 0.33677 0.11140
 N28 N 0.92356 0.34911 0.13800
 C29 C 0.94955 0.32755 0.14941
 C30 C 0.95281 0.30056 0.12856
 C31 C 0.92728 0.30726 0.10459
 H32 H 0.96512 0.33132 0.17114
 H33 H 0.92106 0.29156 0.08422
 Cu34 Cu 0.90672 0.39256 0.15486
 Cu35 Cu 0.86981 0.35889 0.08861
 Cu36 Cu 0.83200 0.42982 0.12436
 N37 N 0.88244 0.42927 0.17694
 N38 N 0.85275 0.44308 0.16541
 C39 C 0.84105 0.46682 0.18593
 C40 C 0.86487 0.46825 0.21142
 C41 C 0.89086 0.44404 0.20503
 H42 H 0.81709 0.48211 0.18252
 H43 H 0.91372 0.43715 0.21999
 N44 N 0.81498 0.41239 0.08278
 N45 N 0.82897 0.38491 0.06949
 C46 C 0.81112 0.37889 0.04185
 C47 C 0.78485 0.40398 0.03750
 C48 C 0.78819 0.42489 0.06370
 H49 H 0.81711 0.35816 0.02584
 H50 H 0.77201 0.44736 0.06856
 H51 H 0.87618 0.40875 0.10368
 H52 H 0.85051 0.37921 0.13059
 N53 N 0.41385 0.17983 -0.10932
 N54 N 0.42594 0.16791 -0.13650
 C55 C 0.45594 0.18373 -0.14372
 C56 C 0.46299 0.20659 -0.11954
 C57 C 0.43590 0.20332 -0.09808
 H58 H 0.47170 0.17850 -0.16458
 H59 H 0.43243 0.21724 -0.07604
 Cu60 Cu 0.40188 0.13216 -0.15922
 Cu61 Cu 0.37007 0.16461 -0.09101
 Cu62 Cu 0.33211 0.09419 -0.12555
 N63 N 0.38436 0.08892 -0.17447
 N64 N 0.35648 0.07471 -0.16209
 C65 C 0.34984 0.04558 -0.17775
 C66 C 0.37520 0.04126 -0.20089
 C67 C 0.39677 0.06905 -0.19800
 H68 H 0.32878 0.02837 -0.17212
 H69 H 0.41977 0.07439 -0.21202
 N70 N 0.31177 0.11793 -0.08844
 N71 N 0.32580 0.14543 -0.07602
 C72 C 0.30529 0.15684 -0.05227
 C73 C 0.27742 0.13519 -0.04920
 C74 C 0.28223 0.11073 -0.07246
 H75 H 0.31024 0.17919 -0.03807
 H76 H 0.26506 0.08985 -0.07783
 H77 H 0.37721 0.11490 -0.10738
 H78 H 0.34704 0.14475 -0.13218
 N79 N 0.09310 0.82573 0.38896
 N80 N 0.08194 0.83861 0.36051
 C81 C 0.05865 0.81717 0.34776
 C82 C 0.05453 0.78966 0.36962
 C83 C 0.07681 0.79591 0.39561
 H84 H 0.04530 0.82147 0.32449
 H85 H 0.08137 0.77984 0.41742
 Cu86 Cu 0.09775 0.88273 0.34317
 Cu87 Cu 0.12878 0.84805 0.41459
 Cu88 Cu 0.16614 0.92027 0.37873
 N89 N 0.12235 0.91987 0.32134
 N90 N 0.14976 0.93381 0.33483
 C91 C 0.16217 0.95811 0.31411
 C92 C 0.14110 0.95976 0.28643
 C93 C 0.11609 0.93509 0.29178
 H94 H 0.18451 0.97383 0.31896
 H95 H 0.09526 0.92835 0.27525
 N96 N 0.17893 0.90243 0.42299
 N97 N 0.16527 0.87443 0.43635
 C98 C 0.17985 0.86831 0.46613
 C99 C 0.20353 0.89390 0.47183
 C100 C 0.20212 0.91519 0.44414
 H101 H 0.17333 0.84718 0.48267
 H102 H 0.21723 0.93807 0.43971
 H103 H 0.12110 0.89821 0.39608
 H104 H 0.15170 0.86955 0.37374
 C105 C 0.08746 0.13783 0.08525
 C106 C 0.11616 0.11890 0.07388
 C107 C 0.12928 0.09011 0.09155
 C108 C 0.11402 0.08007 0.12106
 C109 C 0.08563 0.09874 0.13222
 C110 C 0.07246 0.12797 0.11436
 C111 C 0.06906 0.16664 0.07298
 N112 N 0.04378 0.17480 0.09424
 C113 C 0.04553 0.15125 0.11960
 C114 C 0.07563 0.08272 0.16083
 N115 N 0.09759 0.05521 0.16757
 C116 C 0.12119 0.05328 0.14341
 C117 C 0.15690 0.07680 0.07457
 N118 N 0.16117 0.09718 0.04745
 C119 C 0.13627 0.12291 0.04672
 H120 H 0.07384 0.18085 0.05040
 H121 H 0.02819 0.15079 0.14007
 H122 H 0.05397 0.09045 0.17571
 H123 H 0.14148 0.03343 0.14181
 H124 H 0.17307 0.05427 0.08162
 H125 H 0.13280 0.14291 0.02773
 C126 C 0.37200 0.83330 0.64468
 C127 C 0.34177 0.84469 0.62723
 C128 C 0.32221 0.87266 0.63753
 C129 C 0.33238 0.88926 0.66578
 C130 C 0.36220 0.87791 0.68305
 C131 C 0.38202 0.84962 0.67255
 C132 C 0.39653 0.80748 0.63976
 N133 N 0.42102 0.80770 0.66409
 C134 C 0.41221 0.83312 0.68442
 C135 C 0.36623 0.89918 0.70878
 N136 N 0.33949 0.92306 0.70761
 C137 C 0.31850 0.91702 0.68161
 C138 C 0.29485 0.87835 0.61554
 N139 N 0.29733 0.85429 0.59243
 C140 C 0.32574 0.83349 0.59950
 H141 H 0.39641 0.78971 0.62009
 H142 H 0.42705 0.83946 0.70595
 H143 H 0.38690 0.89719 0.72714
 H144 H 0.29514 0.93207 0.67452
 H145 H 0.27442 0.89814 0.61656
 H146 H 0.33423 0.81195 0.58530
 C147 C 0.91628 0.63331 0.40849
 C148 C 0.88554 0.61696 0.41780
 C149 C 0.87272 0.59044 0.39981
 C150 C 0.89031 0.58009 0.37210
 C151 C 0.92062 0.59623 0.36285
 C152 C 0.93355 0.62322 0.38103
 C153 C 0.93461 0.65991 0.42129
 N154 N 0.96211 0.66659 0.40196
 C155 C 0.96181 0.64423 0.37730
 C156 C 0.93210 0.58074 0.33532
 N157 N 0.90925 0.55603 0.32744
 C158 C 0.88362 0.55536 0.34985
 C159 C 0.84262 0.57955 0.41435
 N160 N 0.83661 0.59915 0.44037
 C161 C 0.86283 0.62203 0.44280
 H162 H 0.92811 0.67385 0.44277
 H163 H 0.98084 0.64317 0.35822
 H164 H 0.95525 0.58709 0.32182
 H165 H 0.86202 0.53784 0.35029
 H166 H 0.82599 0.55917 0.40637
 H167 H 0.86548 0.64077 0.46147
 C168 C 0.62257 0.33707 -0.13413
 C169 C 0.64783 0.35189 -0.11428
 C170 C 0.65940 0.38472 -0.12191
 C171 C 0.64629 0.40294 -0.14982
 C172 C 0.62205 0.38793 -0.16994
 C173 C 0.60991 0.35484 -0.16190
 C174 C 0.60466 0.30680 -0.13119
 N175 N 0.58130 0.30587 -0.15641
 C176 C 0.58466 0.33486 -0.17557
 C177 C 0.61384 0.41158 -0.19495
 N178 N 0.63237 0.44051 -0.19026
 C179 C 0.65205 0.43561 -0.16266
 C180 C 0.68379 0.39248 -0.09845
 N181 N 0.68740 0.36497 -0.07697
 C182 C 0.66554 0.34008 -0.08647
 H183 H 0.60788 0.28730 -0.11171
 H184 H 0.56876 0.34162 -0.19704
 H185 H 0.59513 0.40835 -0.21460
 H186 H 0.66921 0.45451 -0.15267
 H187 H 0.69862 0.41589 -0.09778
 H188 H 0.66310 0.31500 -0.07423
 C189 C -0.02328 0.27268 0.13212
 C190 C -0.01880 0.24923 0.10939
 C191 C 0.00647 0.22013 0.11462
 C192 C 0.01896 0.20305 0.08956
 H193 H -0.03305 0.25173 0.08638
 H194 H 0.01574 0.21324 0.13911
 H195 H -0.00715 0.27061 0.15410
 H196 H 0.01165 0.21172 0.06495
 C197 C 0.52117 0.74550 0.62303
 C198 C 0.49906 0.74978 0.64734
 C199 C 0.46800 0.77284 0.64289
 C200 C 0.45111 0.78496 0.66834
 H201 H 0.50411 0.73671 0.67078
 H202 H 0.45940 0.78080 0.61844
 H203 H 0.51699 0.76024 0.60029
 H204 H 0.46129 0.77907 0.69274
 C205 C 1.03228 0.76206 0.36532
 C206 C 1.02621 0.73810 0.38870
 C207 C 1.00197 0.71000 0.38275
 C208 C 0.98701 0.69294 0.40742
 H209 H 1.03798 0.73970 0.41272
 H210 H 0.99506 0.70423 0.35793
 H211 H 1.01856 0.76080 0.34210
 H212 H 0.99191 0.70063 0.43210
 C213 C 0.49286 0.22946 -0.11608
 C214 C 0.51280 0.23889 -0.14101
 C215 C 0.54141 0.26301 -0.13624
 C216 C 0.55546 0.28024 -0.16133
 H217 H 0.50720 0.22998 -0.16515
 H218 H 0.54975 0.26819 -0.11165
 H219 H 0.49756 0.24009 -0.09246
 H220 H 0.54525 0.27690 -0.18572
 C221 C 0.14502 -0.01701 0.25763
 C222 C 0.11811 -0.00854 0.23747
 C223 C 0.12226 0.01520 0.20910
 C224 C 0.09442 0.03154 0.19496
 H225 H 0.09237 -0.01828 0.24247
 H226 H 0.14826 0.02021 0.20037
 H227 H 0.17020 -0.00548 0.25375
 H228 H 0.06883 0.02831 0.20537
 C229 C 0.63515 0.50460 -0.29308
 C230 C 0.62570 0.50416 -0.26195
 C231 C 0.62683 0.47168 -0.24215
 C232 C 0.63053 0.47195 -0.20985
 H233 H 0.61835 0.52790 -0.25042
 H234 H 0.62599 0.44725 -0.25413
 H235 H 0.64466 0.48079 -0.30329
 H236 H 0.63429 0.49627 -0.19819
 C237 C 0.38001 1.01277 0.77684
 C238 C 0.35390 0.99260 0.76811
 C239 C 0.36006 0.96449 0.74566
 C240 C 0.33358 0.95007 0.72996
 H241 H 0.32774 0.99732 0.77689
 H242 H 0.38674 0.95626 0.74110
 H243 H 0.40560 1.00910 0.76642
 H244 H 0.30712 0.96007 0.73282
 C245 C 0.86184 0.49042 0.23952
 C246 C 0.88935 0.49771 0.25828
 C247 C 0.88520 0.52006 0.28613
 C248 C 0.91287 0.53401 0.30038
 H249 H 0.91521 0.48779 0.25271
 H250 H 0.85911 0.52590 0.29450
 H251 H 0.83640 0.50196 0.24423
 H252 H 0.93865 0.52989 0.29049
 C253 C 0.24851 0.13914 -0.02649
 C254 C 0.22891 0.11277 -0.01676
 C255 C 0.20081 0.11818 0.00657
 C256 C 0.18770 0.09177 0.02384
 H257 H 0.23431 0.08700 -0.02515
 H258 H 0.19173 0.14438 0.01067
 H259 H 0.24427 0.16432 -0.01635
 H260 H 0.19863 0.06589 0.02143
 C261 C 0.75071 0.64406 0.51443
 C262 C 0.76546 0.61681 0.50055
 C263 C 0.79553 0.62120 0.47914
 C264 C 0.80742 0.59527 0.46150
 H265 H 0.75532 0.59119 0.50482
 H266 H 0.80763 0.64618 0.47736
 H267 H 0.76041 0.66970 0.50912
 H268 H 0.79389 0.57098 0.46205
 C269 C 0.75896 0.40850 0.01065
 C270 C 0.75085 0.38268 -0.00850
 C271 C 0.72510 0.38790 -0.03537
 C272 C 0.71183 0.36087 -0.05012
 H273 H 0.76287 0.35722 -0.00407
 H274 H 0.71662 0.41399 -0.04279
 H275 H 0.74552 0.43342 0.00720
 H276 H 0.71900 0.33487 -0.04115
 C277 C 0.22560 0.89840 0.50099
 C278 C 0.23408 0.87210 0.52187
 C279 C 0.25702 0.87706 0.55033
 C280 C 0.27383 0.85011 0.56538
 H281 H 0.22515 0.84634 0.51733
 H282 H 0.26130 0.90303 0.55824
 H283 H 0.23638 0.92364 0.50456
 H284 H 0.27141 0.82455 0.55579
   
