data_POSCAR
  _audit_creation_date              2014-09-24
  _audit_creation_method            'ToBaCCo'
  _symmetry_space_group_name_H-M    'P1'
  _symmetry_Int_Tables_number       1
  _symmetry_cell_setting            triclinic
  loop_
  _symmetry_equiv_pos_as_xyz
 x,y,z
_cell_length_a 42.8239
_cell_length_b 40.7887
_cell_length_c 35.7689
_cell_angle_alpha 87.839100
_cell_angle_beta 93.615600
_cell_angle_gamma 90.639200
loop_
  _atom_site_label
  _atom_site_type_symbol
  _atom_site_fract_x
  _atom_site_fract_y
  _atom_site_fract_z
C1 C 0.17683 0.18693 0.20177
 C2 C 0.17998 0.20927 0.17120
 C3 C 0.20119 0.20319 0.14447
 C4 C 0.21970 0.17482 0.14801
 C5 C 0.21623 0.15295 0.17783
 C6 C 0.19535 0.15939 0.20512
 C7 C 0.15820 0.18577 0.23214
 N8 N 0.16600 0.15876 0.25434
 C9 C 0.18866 0.14261 0.23755
 C10 C 0.23538 0.12683 0.17350
 N11 N 0.25116 0.13221 0.14195
 C12 C 0.24197 0.16192 0.12642
 C13 C 0.19842 0.22826 0.11757
 N14 N 0.17648 0.24955 0.12749
 C15 C 0.16518 0.23822 0.16028
 H16 H 0.14124 0.20398 0.23825
 H17 H 0.19910 0.11959 0.24746
 H18 H 0.23803 0.10573 0.19268
 H19 H 0.24969 0.17274 0.10045
 H20 H 0.21128 0.23076 0.09250
 H21 H 0.14689 0.24974 0.17456
 C22 C -0.18166 0.78357 0.23182
 C23 C -0.18468 0.75843 0.20620
 C24 C -0.21265 0.75391 0.18595
 C25 C -0.23798 0.77414 0.19114
 C26 C -0.23552 0.79906 0.21630
 C27 C -0.20672 0.80371 0.23750
 C28 C -0.15620 0.79460 0.25287
 N29 N -0.16446 0.82095 0.27217
 C30 C -0.19559 0.82647 0.26323
 C31 C -0.26370 0.81592 0.21179
 N32 N -0.28279 0.80172 0.18448
 C33 C -0.26663 0.77595 0.17241
 C34 C -0.20836 0.72993 0.16079
 N35 N -0.17835 0.71954 0.16551
 C36 C -0.16365 0.73676 0.19339
 H37 H -0.13331 0.78350 0.25425
 H38 H -0.20887 0.84650 0.27303
 H39 H -0.26898 0.83765 0.22651
 H40 H -0.27397 0.75968 0.15040
 H41 H -0.22562 0.72119 0.13998
 H42 H -0.13911 0.73474 0.20243
 C43 C -0.15759 0.19002 -0.16118
 C44 C -0.16818 0.21742 -0.14291
 C45 C -0.19193 0.21372 -0.11827
 C46 C -0.20566 0.18259 -0.11184
 C47 C -0.19393 0.15578 -0.12839
 C48 C -0.16983 0.15942 -0.15271
 C49 C -0.13531 0.18557 -0.18701
 N50 N -0.13335 0.15284 -0.19308
 C51 C -0.15435 0.13689 -0.17185
 C52 C -0.21057 0.12870 -0.11737
 N53 N -0.23318 0.13796 -0.09497
 C54 C -0.23017 0.17112 -0.09125
 C55 C -0.19453 0.24327 -0.10127
 N56 N -0.17273 0.26463 -0.11435
 C57 C -0.15697 0.24910 -0.14033
 H58 H -0.12103 0.20457 -0.19950
 H59 H -0.15909 0.11075 -0.17148
 H60 H -0.20754 0.10431 -0.12740
 H61 H -0.24460 0.18597 -0.07490
 H62 H -0.20976 0.24803 -0.07911
 H63 H -0.13678 0.25901 -0.15377
 C64 C 0.17884 0.82151 -0.17628
 C65 C 0.18208 0.79846 -0.14664
 C66 C 0.21086 0.78519 -0.13621
 C67 C 0.23716 0.79600 -0.15468
 C68 C 0.23427 0.81930 -0.18385
 C69 C 0.20435 0.83139 -0.19583
 C70 C 0.15313 0.83764 -0.19164
 N71 N 0.16161 0.85665 -0.22130
 C72 C 0.19301 0.85292 -0.22434
 C73 C 0.26433 0.82878 -0.19166
 N74 N 0.28527 0.81211 -0.16764
 C75 C 0.26835 0.79127 -0.14592
 C76 C 0.20652 0.76241 -0.10745
 N77 N 0.17568 0.76191 -0.10054
 C78 C 0.16069 0.78406 -0.12427
 H79 H 0.12951 0.83438 -0.18286
 H80 H 0.20665 0.86532 -0.24518
 H81 H 0.27002 0.84805 -0.21174
 H82 H 0.27741 0.77660 -0.12194
 H83 H 0.22416 0.74667 -0.09347
 H84 H 0.13567 0.78806 -0.12648
 C85 C 0.22610 1.20672 0.76020
 C86 C 0.24394 1.19727 0.79281
 C87 C 0.24072 1.21337 0.82564
 C88 C 0.21921 1.23888 0.82622
 C89 C 0.20175 1.24852 0.79388
 C90 C 0.20509 1.23210 0.76053
 C91 C 0.21991 1.19060 0.72766
 N92 N 0.19491 1.20471 0.70809
 C93 C 0.18631 1.23081 0.72783
 C94 C 0.17956 1.27003 0.80416
 N95 N 0.18260 1.27307 0.84204
 C96 C 0.20697 1.25403 0.85553
 C97 C 0.25704 1.19580 0.85396
 N98 N 0.26952 1.16929 0.83896
 C99 C 0.26159 1.16984 0.80171
 H100 H 0.23181 1.16868 0.72057
 H101 H 0.16546 1.24528 0.72173
 H102 H 0.16078 1.28012 0.78571
 H103 H 0.21494 1.25054 0.88470
 H104 H 0.25809 1.20066 0.88357
 H105 H 0.26716 1.15089 0.78286
 C106 C 0.77280 0.81661 0.77091
 C107 C 0.74788 0.80862 0.79329
 C108 C 0.74876 0.78006 0.81503
 C109 C 0.77460 0.75939 0.81531
 C110 C 0.79949 0.76717 0.79378
 C111 C 0.79856 0.79636 0.77114
 C112 C 0.77849 0.84360 0.74832
 N113 N 0.80717 0.84089 0.73423
 C114 C 0.81967 0.81195 0.74855
 C115 C 0.82212 0.74361 0.80288
 N116 N 0.81162 0.72227 0.82990
 C117 C 0.78233 0.73204 0.83702
 C118 C 0.72349 0.78003 0.83680
 N119 N 0.70730 0.80828 0.82941
 C120 C 0.72200 0.82579 0.80239
 H121 H 0.76293 0.86427 0.74408
 H122 H 0.84225 0.80234 0.74287
 H123 H 0.84516 0.74353 0.79213
 H124 H 0.76713 0.72043 0.85667
 H125 H 0.71826 0.76131 0.85777
 H126 H 0.71583 0.85032 0.79213
 C127 C 0.17776 0.85979 1.19611
 C128 C 0.20813 0.85392 1.18563
 C129 C 0.21307 0.83268 1.15734
 C130 C 0.18734 0.81626 1.13962
 C131 C 0.15738 0.82312 1.14945
 C132 C 0.15260 0.84512 1.17740
 C133 C 0.16601 0.87953 1.22217
 N134 N 0.13414 0.87750 1.21926
 C135 C 0.12590 0.85650 1.19160
 C136 C 0.13683 0.80422 1.12871
 N137 N 0.15325 0.78530 1.10683
 C138 C 0.18425 0.79235 1.11307
 C139 C 0.24444 0.83515 1.15051
 N140 N 0.25848 0.85757 1.17369
 C141 C 0.23627 0.86837 1.19579
 H142 H 0.17977 0.89506 1.24090
 H143 H 0.10227 0.84902 1.18309
 H144 H 0.11171 0.80300 1.13076
 H145 H 0.20301 0.78034 1.10016
 H146 H 0.25540 0.82341 1.12817
 H147 H 0.23957 0.88679 1.21664
 C148 C 0.80029 1.15834 1.14774
 C149 C 0.78341 1.15872 1.11327
 C150 C 0.78419 1.18576 1.08902
 C151 C 0.80293 1.21276 1.09917
 C152 C 0.81996 1.21240 1.13360
 C153 C 0.81840 1.18488 1.15831
 C154 C 0.80497 1.13385 1.17443
 N155 N 0.82587 1.14438 1.20165
 C156 C 0.83399 1.17595 1.19211
 C157 C 0.83933 1.23948 1.13351
 N158 N 0.83484 1.25576 1.09983
 C159 C 0.81242 1.23982 1.07883
 C160 C 0.76557 1.17846 1.05736
 N161 N 0.75439 1.14744 1.06236
 C162 C 0.76524 1.13530 1.09632
 H163 H 0.79368 1.11002 1.17365
 H164 H 0.85137 1.19072 1.20715
 H165 H 0.85748 1.24516 1.15481
 H166 H 0.80542 1.24602 1.04983
 H167 H 0.76014 1.19445 1.03303
 H168 H 0.75928 1.11143 1.10830
 O169 O 0.52893 0.97355 0.93250
 O170 O 0.46649 0.96611 1.07901
 O171 O 0.53744 0.93556 1.04730
 O172 O 0.46057 0.94028 0.96451
 O173 O 0.52310 0.96756 1.08961
 O174 O 0.47080 0.97886 0.92549
 O175 O 0.46151 0.93484 1.03233
 O176 O 0.54998 0.94101 0.97752
 C177 C 0.54510 0.94863 0.94332
 C178 C 0.45858 0.93879 1.06608
 C179 C 0.53541 0.94109 1.08111
 C180 C 0.46060 0.95052 0.93156
 O181 O 0.47397 1.03666 0.95630
 O182 O 0.52423 1.03085 1.06196
 O183 O 0.56721 1.00176 0.98685
 O184 O 0.43360 0.99398 1.03443
 O185 O 0.46849 1.02929 1.04920
 O186 O 0.53365 1.03431 0.95577
 O187 O 0.43653 1.00187 0.96737
 O188 O 0.55978 0.99630 1.05479
 Co189 Co 0.50140 1.00392 0.94883
 Co190 Co 0.49574 0.99720 1.06492
 Co191 Co 0.54855 0.96990 1.01617
 Co192 Co 0.45226 0.96915 1.00032
 O193 O 0.49969 0.98509 1.00733
 C194 C 0.44564 1.03079 0.95969
 C195 C 0.55231 1.02535 1.05857
 C196 C 0.56098 1.02791 0.96792
 C197 C 0.44042 1.02237 1.04407
 O198 O 0.04745 0.47567 0.06835
 O199 O 0.05152 0.52853 -0.05086
 O200 O 0.02111 0.42432 -0.02852
 O201 O 0.02122 0.57531 0.03153
 O202 O 0.04272 0.46856 -0.05328
 O203 O 0.04857 0.53883 0.06657
 O204 O 0.02426 0.57009 -0.03513
 O205 O 0.05435 0.45924 0.01275
 C206 C 0.06315 0.45992 0.04669
 C207 C 0.04986 0.55839 -0.04425
 C208 C 0.03717 0.43780 -0.05533
 C209 C 0.04477 0.56778 0.05356
 O210 O -0.01041 0.53856 0.07631
 O211 O -0.01884 0.47968 -0.07018
 O212 O 0.00273 0.43915 0.04000
 O213 O -0.03686 0.54406 -0.03758
 O214 O -0.00560 0.53921 -0.07896
 O215 O -0.01423 0.47764 0.07323
 O216 O -0.03871 0.55267 0.02692
 O217 O -0.02852 0.45482 -0.01840
 Co218 Co 0.01718 0.50738 0.06474
 Co219 Co 0.01630 0.50423 -0.05703
 Co220 Co 0.01250 0.46010 -0.00341
 Co221 Co -0.00640 0.55657 -0.00371
 O222 O 0.00880 0.50858 0.00328
 C223 C -0.03462 0.55156 0.06154
 C224 C -0.03643 0.46121 -0.05181
 C225 C -0.01522 0.44845 0.06369
 C226 C -0.03146 0.54877 -0.07058
 O227 O 1.04214 0.04657 0.46583
 O228 O 0.94525 0.06361 0.54427
 O229 O 0.94746 0.02870 0.43168
 O230 O 1.03922 0.03137 0.59224
 O231 O 0.93815 0.05939 0.47636
 O232 O 1.05149 0.04422 0.53379
 O233 O 0.97981 0.04556 0.58705
 O234 O 0.99641 0.05887 0.44486
 C235 C 1.02460 0.06551 0.44652
 C236 C 0.95780 0.06446 0.57686
 C237 C 0.93369 0.05284 0.44270
 C238 C 1.05971 0.04258 0.56876
 O239 O 1.04302 -0.02256 0.53269
 O240 O 0.92807 -0.00712 0.48446
 O241 O 1.00400 0.00377 0.41319
 O242 O 0.98369 -0.01013 0.58453
 O243 O 0.93651 -0.00094 0.55527
 O244 O 1.02948 -0.01805 0.46382
 O245 O 1.01060 -0.01931 0.57649
 O246 O 0.96895 -0.02529 0.45709
 Co247 Co 1.03691 0.01301 0.49986
 Co248 Co 0.94081 0.02795 0.51421
 Co249 Co 0.98509 0.01643 0.45358
 Co250 Co 1.00678 0.02348 0.56021
 O251 O 0.98826 0.02021 0.50845
 C252 C 1.03304 -0.03382 0.56298
 C253 C 0.94066 -0.02869 0.46526
 C254 C 1.02731 -0.01391 0.42805
 C255 C 0.95367 -0.01528 0.58124
 C256 C 1.12307 0.15682 0.29595
 C257 C 1.11000 0.14312 0.32840
 C258 C 1.12879 0.12335 0.35399
 C259 C 1.15990 0.11744 0.34700
 C260 C 1.17211 0.12956 0.31407
 C261 C 1.15396 0.14902 0.28768
 C262 C 1.11596 0.10843 0.38544
 C263 C 1.08402 0.11118 0.39070
 C264 C 1.06486 0.13069 0.36535
 C265 C 1.07816 0.14731 0.33482
 C266 C 1.03252 0.13176 0.37006
 C267 C 1.01920 0.11205 0.39803
 C268 C 1.03814 0.09173 0.42244
 C269 C 1.07072 0.09272 0.41952
 H270 H 1.10847 0.17137 0.27599
 H271 H 1.17460 0.10249 0.36648
 H272 H 1.19624 0.12406 0.30974
 H273 H 1.13052 0.09309 0.40473
 H274 H 1.06346 0.16205 0.31510
 H275 H 1.01735 0.14654 0.35097
 H276 H 0.99401 0.11167 0.39956
 H277 H 1.08567 0.07706 0.43794
 C278 C 0.84501 -0.14278 0.32444
 C279 C 0.86641 -0.12619 0.34901
 C280 C 0.89876 -0.12664 0.34319
 C281 C 0.90934 -0.14436 0.31388
 C282 C 0.88828 -0.16170 0.29061
 C283 C 0.85574 -0.16129 0.29521
 C284 C 0.92015 -0.10933 0.36661
 C285 C 0.90980 -0.09189 0.39644
 C286 C 0.87765 -0.09247 0.40337
 C287 C 0.85613 -0.10941 0.37952
 C288 C 0.86747 -0.07545 0.43360
 C289 C 0.88857 -0.05667 0.45548
 C290 C 0.92036 -0.05442 0.44765
 C291 C 0.93096 -0.07303 0.41868
 H292 H 0.82029 -0.14242 0.32919
 H293 H 0.93404 -0.14491 0.30895
 H294 H 0.89775 -0.17448 0.26800
 H295 H 0.94485 -0.10925 0.36145
 H296 H 0.83142 -0.10932 0.38456
 H297 H 0.84298 -0.07583 0.43965
 H298 H 0.87963 -0.04267 0.47755
 H299 H 0.95532 -0.07147 0.41209
 C300 C 0.89212 0.15249 0.74834
 C301 C 0.90695 0.13430 0.72183
 C302 C 0.91765 0.10226 0.73185
 C303 C 0.91277 0.08861 0.76743
 C304 C 0.89612 0.10576 0.79240
 C305 C 0.88535 0.13777 0.78330
 C306 C 0.93191 0.08368 0.70570
 C307 C 0.93389 0.09570 0.66878
 C308 C 0.92230 0.12720 0.65801
 C309 C 0.90971 0.14674 0.68491
 C310 C 0.92271 0.13807 0.62027
 C311 C 0.93401 0.11769 0.59352
 C312 C 0.94604 0.08664 0.60436
 C313 C 0.94625 0.07604 0.64214
 H314 H 0.88345 0.17681 0.74053
 H315 H 0.92079 0.06409 0.77548
 H316 H 0.89203 0.09405 0.81934
 H317 H 0.94025 0.05922 0.71368
 H318 H 0.90092 0.17097 0.67676
 H319 H 0.91373 0.16202 0.61134
 H320 H 0.93367 0.12628 0.56448
 H321 H 0.95500 0.05184 0.65057
 C322 C 1.14408 -0.12241 0.71681
 C323 C 1.12004 -0.10803 0.69312
 C324 C 1.09407 -0.09400 0.70898
 C325 C 1.09189 -0.09551 0.74779
 C326 C 1.11469 -0.11156 0.77080
 C327 C 1.14105 -0.12529 0.75583
 C328 C 1.07042 -0.07893 0.68588
 C329 C 1.07174 -0.07846 0.64690
 C330 C 1.09674 -0.09382 0.63067
 C331 C 1.12098 -0.10822 0.65390
 C332 C 1.09745 -0.09359 0.59150
 C333 C 1.07468 -0.07660 0.56884
 C334 C 1.05077 -0.05964 0.58497
 C335 C 1.04903 -0.06156 0.62405
 H336 H 1.16380 -0.13349 0.70471
 H337 H 1.07213 -0.08490 0.76034
 H338 H 1.11197 -0.11270 0.80071
 H339 H 1.05095 -0.06754 0.69826
 H340 H 1.14049 -0.11946 0.64150
 H341 H 1.11627 -0.10542 0.57844
 H342 H 1.07684 -0.07510 0.53882
 H343 H 1.03162 -0.04755 0.63709
 C344 C 0.29662 1.12237 1.10681
 C345 C 0.31925 1.10047 1.09571
 C346 C 0.31590 1.06647 1.10392
 C347 C 0.29080 1.05502 1.12407
 C348 C 0.26955 1.07698 1.13686
 C349 C 0.27195 1.11096 1.12845
 C350 C 0.33814 1.04443 1.09285
 C351 C 0.36479 1.05602 1.07561
 C352 C 0.36902 1.09011 1.06877
 C353 C 0.34579 1.11206 1.07788
 C354 C 0.39686 1.10165 1.05397
 C355 C 0.42039 1.07967 1.04661
 C356 C 0.41586 1.04574 1.05214
 C357 C 0.38782 1.03406 1.06630
 H358 H 0.29945 1.14840 1.10070
 H359 H 0.28795 1.02904 1.13067
 H360 H 0.25054 1.06700 1.15241
 H361 H 0.33525 1.01834 1.09886
 H362 H 0.34888 1.13817 1.07228
 H363 H 0.40073 1.12768 1.04889
 H364 H 0.44201 1.08913 1.03610
 H365 H 0.38446 1.00791 1.07138
 C366 C 0.32990 0.84904 0.82669
 C367 C 0.35901 0.85989 0.84236
 C368 C 0.37563 0.84008 0.86994
 C369 C 0.36449 0.80860 0.87873
 C370 C 0.33549 0.79815 0.86351
 C371 C 0.31656 0.81909 0.83941
 C372 C 0.40209 0.85267 0.88982
 C373 C 0.41174 0.88516 0.88302
 C374 C 0.39671 0.90413 0.85337
 C375 C 0.37061 0.89125 0.83293
 C376 C 0.40684 0.93640 0.84619
 C377 C 0.42977 0.95065 0.87009
 C378 C 0.44280 0.93291 0.90166
 C379 C 0.43474 0.89967 0.90697
 H380 H 0.31676 0.86552 0.80743
 H381 H 0.37750 0.79260 0.89881
 H382 H 0.32758 0.77389 0.87194
 H383 H 0.41397 0.83787 0.91208
 H384 H 0.35825 0.90637 0.81134
 H385 H 0.39592 0.95118 0.82328
 H386 H 0.43570 0.97628 0.86528
 H387 H 0.44491 0.88572 0.93104
 C388 C 0.67311 0.83984 1.18230
 C389 C 0.64475 0.85138 1.16423
 C390 C 0.63137 0.83509 1.13284
 C391 C 0.64520 0.80679 1.12130
 C392 C 0.67284 0.79528 1.13933
 C393 C 0.68824 0.81199 1.16943
 C394 C 0.60474 0.84765 1.11269
 C395 C 0.59109 0.87657 1.12332
 C396 C 0.60311 0.89206 1.15594
 C397 C 0.62987 0.87938 1.17627
 C398 C 0.58886 0.92075 1.16668
 C399 C 0.56456 0.93516 1.14389
 C400 C 0.55413 0.92124 1.10985
 C401 C 0.56666 0.89111 1.10063
 H402 H 0.68334 0.85307 1.20574
 H403 H 0.63487 0.79368 1.09770
 H404 H 0.68192 0.77338 1.12833
 H405 H 0.59525 0.83548 1.08796
 H406 H 0.63962 0.89185 1.20064
 H407 H 0.59743 0.93286 1.19180
 H408 H 0.55544 0.95842 1.15170
 H409 H 0.55879 0.88006 1.07455
 C410 C 0.71456 1.12922 0.92669
 C411 C 0.68997 1.10722 0.93448
 C412 C 0.69536 1.07304 0.93565
 C413 C 0.72511 1.06139 0.92978
 C414 C 0.74904 1.08315 0.92100
 C415 C 0.74410 1.11736 0.91822
 C416 C 0.67098 1.05089 0.94259
 C417 C 0.64094 1.06233 0.94783
 C418 C 0.63524 1.09646 0.94638
 C419 C 0.65985 1.11871 0.94006
 C420 C 0.60497 1.10766 0.95128
 C421 C 0.58069 1.08530 0.95763
 C422 C 0.58638 1.05141 0.95989
 C423 C 0.61660 1.04008 0.95497
 H424 H 0.70991 1.15528 0.92475
 H425 H 0.72979 1.03530 0.93134
 H426 H 0.77164 1.07289 0.91664
 H427 H 0.67537 1.02471 0.94378
 H428 H 0.65548 1.14488 0.93909
 H429 H 0.60009 1.13370 0.95029
 H430 H 0.55756 1.09452 0.96163
 H431 H 0.62110 1.01394 0.95654
 C432 C 0.15962 0.30733 0.12386
 C433 C 0.14712 0.33467 0.10322
 C434 C 0.14006 0.33267 0.06420
 C435 C 0.14706 0.30390 0.04626
 C436 C 0.15992 0.27698 0.06693
 C437 C 0.16565 0.27819 0.10596
 C438 C 0.12532 0.35904 0.04401
 C439 C 0.11726 0.38726 0.06244
 C440 C 0.12581 0.38983 0.10108
 C441 C 0.14082 0.36363 0.12116
 C442 C 0.11791 0.41799 0.11947
 C443 C 0.09960 0.44223 0.10061
 C444 C 0.08903 0.43895 0.06288
 C445 C 0.09925 0.41211 0.04343
 H446 H 0.16442 0.30850 0.15390
 H447 H 0.14201 0.30200 0.01639
 H448 H 0.16441 0.25474 0.05266
 H449 H 0.11918 0.35717 0.01431
 H450 H 0.14659 0.36535 0.15099
 H451 H 0.12461 0.42057 0.14895
 H452 H 0.09231 0.46276 0.11621
 H453 H 0.09131 0.40931 0.01436
 C454 C -0.14887 0.32017 -0.12006
 C455 C -0.13534 0.34802 -0.10322
 C456 C -0.13646 0.35144 -0.06415
 C457 C -0.15291 0.32816 -0.04309
 C458 C -0.16602 0.30040 -0.05992
 C459 C -0.16337 0.29555 -0.09834
 C460 C -0.12007 0.37725 -0.04654
 C461 C -0.10234 0.39957 -0.06751
 C462 C -0.10302 0.39749 -0.10693
 C463 C -0.11962 0.37182 -0.12456
 C464 C -0.08579 0.42018 -0.12790
 C465 C -0.06613 0.44306 -0.10988
 C466 C -0.06325 0.44364 -0.07054
 C467 C -0.08256 0.42273 -0.04958
 H468 H -0.14720 0.31707 -0.14981
 H469 H -0.15473 0.33085 -0.01331
 H470 H -0.17692 0.28199 -0.04235
 H471 H -0.12006 0.37913 -0.01637
 H472 H -0.11918 0.36959 -0.15465
 H473 H -0.08636 0.41923 -0.15817
 H474 H -0.05163 0.45885 -0.12673
 H475 H -0.08072 0.42302 -0.01922
 C476 C 0.16632 0.70495 -0.07900
 C477 C 0.14517 0.68147 -0.06558
 C478 C 0.11787 0.69196 -0.04934
 C479 C 0.11307 0.72540 -0.04476
 C480 C 0.13382 0.74850 -0.05889
 C481 C 0.15979 0.73852 -0.07748
 C482 C 0.09481 0.66913 -0.04014
 C483 C 0.09843 0.63598 -0.04724
 C484 C 0.12614 0.62507 -0.06206
 C485 C 0.14959 0.64791 -0.07077
 C486 C 0.12923 0.59172 -0.06933
 C487 C 0.10465 0.56967 -0.06308
 C488 C 0.07669 0.58071 -0.04949
 C489 C 0.07406 0.61383 -0.04109
 H490 H 0.18617 0.69721 -0.09371
 H491 H 0.09231 0.73376 -0.03233
 H492 H 0.12868 0.77433 -0.05733
 H493 H 0.07330 0.67741 -0.02932
 H494 H 0.17051 0.63979 -0.08317
 H495 H 0.15034 0.58283 -0.08056
 H496 H 0.10732 0.54415 -0.06949
 H497 H 0.05265 0.62267 -0.03053
 C498 C -0.14216 0.67375 0.15921
 C499 C -0.12767 0.65146 0.13700
 C500 C -0.13477 0.65204 0.09781
 C501 C -0.15695 0.67424 0.08170
 C502 C -0.17157 0.69601 0.10408
 C503 C -0.16405 0.69623 0.14288
 C504 C -0.11928 0.63080 0.07532
 C505 C -0.09674 0.60898 0.09152
 C506 C -0.09042 0.60771 0.13086
 C507 C -0.10594 0.62890 0.15333
 C508 C -0.06804 0.58583 0.14704
 C509 C -0.05102 0.56644 0.12443
 C510 C -0.05611 0.56843 0.08518
 C511 C -0.07968 0.58916 0.06894
 H512 H -0.13659 0.67358 0.18919
 H513 H -0.16277 0.67498 0.05175
 H514 H -0.18826 0.71329 0.09096
 H515 H -0.12433 0.63168 0.04519
 H516 H -0.10067 0.62824 0.18341
 H517 H -0.06307 0.58435 0.17714
 H518 H -0.03314 0.55057 0.13770
 H519 H -0.08382 0.59096 0.03872
 C520 C 1.18131 0.15807 0.67025
 C521 C 1.16009 0.14260 0.64518
 C522 C 1.13599 0.16089 0.62578
 C523 C 1.13410 0.19464 0.63118
 C524 C 1.15453 0.20966 0.65752
 C525 C 1.17788 0.19142 0.67845
 C526 C 1.11332 0.14486 0.60286
 C527 C 1.11355 0.11055 0.60094
 C528 C 1.13784 0.09230 0.62035
 C529 C 1.16144 0.10857 0.64139
 C530 C 1.13719 0.05792 0.62010
 C531 C 1.11191 0.04167 0.60231
 C532 C 1.08771 0.05962 0.58343
 C533 C 1.08892 0.09397 0.58183
 H534 H 1.19860 0.14290 0.68558
 H535 H 1.11598 0.20917 0.61620
 H536 H 1.15170 0.23556 0.66160
 H537 H 1.09455 0.15882 0.58828
 H538 H 1.17981 0.09450 0.65662
 H539 H 1.15553 0.04362 0.63498
 H540 H 1.11091 0.01509 0.60378
 H541 H 1.06978 0.10764 0.56765
 C542 C 0.85296 -0.13713 0.70427
 C543 C 0.86663 -0.11308 0.68095
 C544 C 0.84787 -0.08818 0.66294
 C545 C 0.81589 -0.08766 0.66845
 C546 C 0.80250 -0.11127 0.69186
 C547 C 0.82066 -0.13641 0.71054
 C548 C 0.86131 -0.06408 0.63974
 C549 C 0.89346 -0.06432 0.63446
 C550 C 0.91236 -0.08910 0.65261
 C551 C 0.89885 -0.11336 0.67562
 C552 C 0.94449 -0.08926 0.64733
 C553 C 0.95777 -0.06516 0.62435
 C554 C 0.93934 -0.04031 0.60622
 C555 C 0.90704 -0.04017 0.61132
 H556 H 0.86789 -0.15559 0.71826
 H557 H 0.80109 -0.06889 0.65462
 H558 H 0.77757 -0.10988 0.69430
 H559 H 0.84675 -0.04507 0.62593
 H560 H 0.91342 -0.13235 0.68944
 H561 H 0.95934 -0.10816 0.66077
 H562 H 0.98241 -0.06651 0.62006
 H563 H 0.89250 -0.02120 0.59743
 C564 C 1.12353 -0.09730 0.27699
 C565 C 1.10245 -0.08261 0.29954
 C566 C 1.07179 -0.07527 0.28489
 C567 C 1.06233 -0.08411 0.24845
 C568 C 1.08294 -0.10026 0.22681
 C569 C 1.11396 -0.10675 0.24053
 C570 C 1.05099 -0.05966 0.30709
 C571 C 1.06004 -0.05270 0.34434
 C572 C 1.09016 -0.06174 0.35953
 C573 C 1.11138 -0.07595 0.33685
 C574 C 1.09851 -0.05669 0.39734
 C575 C 1.07745 -0.04230 0.41979
 C576 C 1.04810 -0.03163 0.40458
 C577 C 1.03940 -0.03710 0.36680
 H578 H 1.14685 -0.10297 0.28874
 H579 H 1.03887 -0.07886 0.23680
 H580 H 1.07478 -0.10655 0.19873
 H581 H 1.02767 -0.05346 0.29560
 H582 H 1.13465 -0.08232 0.34841
 H583 H 1.12128 -0.06399 0.40960
 H584 H 1.08449 -0.03897 0.44895
 H585 H 1.01657 -0.02952 0.35500
 C586 C 0.85136 0.14007 0.26405
 C587 C 0.86291 0.12041 0.29485
 C588 C 0.86162 0.08586 0.29284
 C589 C 0.84809 0.07148 0.26092
 C590 C 0.83601 0.09100 0.23092
 C591 C 0.83756 0.12559 0.23172
 C592 C 0.87411 0.06603 0.32261
 C593 C 0.88763 0.08021 0.35473
 C594 C 0.88795 0.11467 0.35777
 C595 C 0.87570 0.13465 0.32764
 C596 C 0.90106 0.12841 0.39066
 C597 C 0.91469 0.10818 0.41955
 C598 C 0.91562 0.07410 0.41561
 C599 C 0.90151 0.06027 0.38352
 H600 H 0.85227 0.16649 0.26590
 H601 H 0.84701 0.04503 0.25899
 H602 H 0.82664 0.07855 0.20650
 H603 H 0.87359 0.03954 0.32062
 H604 H 0.87637 0.16112 0.32957
 H605 H 0.90136 0.15474 0.39368
 H606 H 0.92567 0.11921 0.44419
 H607 H 0.90198 0.03389 0.38061
 C608 C 0.14562 0.31670 -0.15296
 C609 C 0.12579 0.33425 -0.13140
 C610 C 0.12193 0.32410 -0.09375
 C611 C 0.13876 0.29729 -0.07794
 C612 C 0.15953 0.28084 -0.09900
 C613 C 0.16302 0.28997 -0.13698
 C614 C 0.10175 0.34125 -0.07229
 C615 C 0.08667 0.36951 -0.08740
 C616 C 0.09139 0.38036 -0.12467
 C617 C 0.11033 0.36224 -0.14671
 C618 C 0.07759 0.40956 -0.13902
 C619 C 0.05985 0.42821 -0.11640
 C620 C 0.05479 0.41744 -0.07955
 C621 C 0.06774 0.38771 -0.06541
 H622 H 0.14852 0.32489 -0.18169
 H623 H 0.13605 0.28911 -0.04917
 H624 H 0.17174 0.26002 -0.08573
 H625 H 0.09842 0.33308 -0.04361
 H626 H 0.11370 0.37041 -0.17541
 H627 H 0.08105 0.41831 -0.16745
 H628 H 0.04992 0.45092 -0.12789
 H629 H 0.06410 0.37940 -0.03686
 C630 C -0.13525 0.30700 0.10842
 C631 C -0.11373 0.33036 0.09570
 C632 C -0.10124 0.32691 0.06036
 C633 C -0.11089 0.30074 0.03808
 C634 C -0.13275 0.27807 0.05063
 C635 C -0.14479 0.28081 0.08596
 C636 C -0.07915 0.34951 0.04786
 C637 C -0.06953 0.37573 0.07002
 C638 C -0.08236 0.37981 0.10498
 C639 C -0.10432 0.35691 0.11775
 C640 C -0.07300 0.40680 0.12637
 C641 C -0.05107 0.42944 0.11317
 C642 C -0.03788 0.42495 0.07881
 C643 C -0.04729 0.39805 0.05745
 H644 H -0.14461 0.30903 0.13569
 H645 H -0.10148 0.29779 0.01099
 H646 H -0.13956 0.25771 0.03324
 H647 H -0.06945 0.34671 0.02086
 H648 H -0.11405 0.35974 0.14471
 H649 H -0.08271 0.41047 0.15312
 H650 H -0.04424 0.45024 0.12988
 H651 H -0.03775 0.39477 0.03050
 C652 C -0.14510 0.68353 -0.16548
 C653 C -0.12904 0.65739 -0.14600
 C654 C -0.13993 0.64467 -0.11184
 C655 C -0.16672 0.65762 -0.09803
 C656 C -0.18271 0.68308 -0.11752
 C657 C -0.17235 0.69677 -0.15158
 C658 C -0.12375 0.61941 -0.09160
 C659 C -0.09665 0.60646 -0.10497
 C660 C -0.08594 0.61839 -0.13954
 C661 C -0.10222 0.64379 -0.15991
 C662 C -0.05875 0.60512 -0.15266
 C663 C -0.04175 0.58124 -0.13106
 C664 C -0.05168 0.57014 -0.09602
 C665 C -0.07962 0.58236 -0.08362
 H666 H -0.13663 0.69286 -0.19172
 H667 H -0.17526 0.64822 -0.07177
 H668 H -0.20265 0.69257 -0.10459
 H669 H -0.13203 0.61013 -0.06513
 H670 H -0.09379 0.65323 -0.18621
 H671 H -0.05020 0.61379 -0.17918
 H672 H -0.02025 0.57228 -0.14121
 H673 H -0.08754 0.57402 -0.05664
 C674 C 0.14723 0.72672 0.09362
 C675 C 0.12740 0.70114 0.08098
 C676 C 0.09963 0.70875 0.05894
 C677 C 0.09288 0.74145 0.04846
 C678 C 0.11234 0.76660 0.06171
 C679 C 0.13903 0.75956 0.08528
 C680 C 0.07829 0.68381 0.04913
 C681 C 0.08424 0.65123 0.06091
 C682 C 0.11226 0.64332 0.08216
 C683 C 0.13379 0.66832 0.09191
 C684 C 0.11789 0.61059 0.09394
 C685 C 0.09589 0.58603 0.08496
 C686 C 0.06786 0.59373 0.06402
 C687 C 0.06229 0.62651 0.05214
 H688 H 0.16750 0.72131 0.11244
 H689 H 0.07176 0.74767 0.03151
 H690 H 0.10567 0.79184 0.05540
 H691 H 0.05667 0.68988 0.03303
 H692 H 0.15502 0.66237 0.10884
 H693 H 0.13924 0.60401 0.11024
 H694 H 0.10090 0.56097 0.09430
 H695 H 0.04077 0.63290 0.03606
 C696 C 0.31361 1.15125 0.88128
 C697 C 0.33232 1.12604 0.89781
 C698 C 0.32288 1.09292 0.89370
 C699 C 0.29490 1.08564 0.87309
 C700 C 0.27711 1.11089 0.85545
 C701 C 0.28651 1.14369 0.85927
 C702 C 0.34220 1.06763 0.90879
 C703 C 0.37161 1.07499 0.92600
 C704 C 0.38117 1.10810 0.92974
 C705 C 0.36107 1.13341 0.91661
 C706 C 0.41127 1.11535 0.94498
 C707 C 0.43217 1.09007 0.95490
 C708 C 0.42289 1.05716 0.95121
 C709 C 0.39229 1.04973 0.93771
 H710 H 0.32088 1.17666 0.88370
 H711 H 0.28735 1.06044 0.86955
 H712 H 0.25608 1.10494 0.83856
 H713 H 0.33505 1.04225 0.90548
 H714 H 0.36847 1.15878 0.91931
 H715 H 0.41900 1.14055 0.94800
 H716 H 0.45567 1.09623 0.96551
 H717 H 0.38514 1.02435 0.93442
 C718 C 0.31243 0.85641 1.15114
 C719 C 0.34113 0.87230 1.14493
 C720 C 0.34747 0.90349 1.15976
 C721 C 0.32559 0.91785 1.18128
 C722 C 0.29699 0.90234 1.18666
 C723 C 0.28958 0.87169 1.17116
 C724 C 0.37490 0.92060 1.15149
 C725 C 0.39563 0.90753 1.12733
 C726 C 0.38988 0.87596 1.11320
 C727 C 0.36297 0.85824 1.12270
 C728 C 0.41019 0.86351 1.08803
 C729 C 0.43439 0.88315 1.07474
 C730 C 0.43923 0.91521 1.08715
 C731 C 0.42072 0.92659 1.11493
 H732 H 0.30765 0.83266 1.13943
 H733 H 0.33009 0.94175 1.19286
 H734 H 0.28037 0.91534 1.20190
 H735 H 0.37926 0.94485 1.16226
 H736 H 0.35824 0.83433 1.11122
 H737 H 0.40629 0.83933 1.07701
 H738 H 0.44836 0.87389 1.05329
 H739 H 0.42396 0.95144 1.12433
 C740 C 0.69949 1.14078 1.04323
 C741 C 0.67523 1.11750 1.04078
 C742 C 0.68227 1.08456 1.03379
 C743 C 0.71271 1.07611 1.02608
 C744 C 0.73671 1.09927 1.02947
 C745 C 0.73051 1.13099 1.04060
 C746 C 0.65930 1.06025 1.03681
 C747 C 0.62931 1.06840 1.04647
 C748 C 0.62161 1.10145 1.05159
 C749 C 0.64468 1.12592 1.04861
 C750 C 0.59108 1.10926 1.06011
 C751 C 0.56842 1.08450 1.06331
 C752 C 0.57619 1.05160 1.05866
 C753 C 0.60682 1.04380 1.05076
 H754 H 0.69493 1.16519 1.05244
 H755 H 0.71835 1.05109 1.02008
 H756 H 0.76065 1.09150 1.02769
 H757 H 0.66492 1.03489 1.03230
 H758 H 0.63917 1.15120 1.05367
 H759 H 0.58468 1.13448 1.06395
 H760 H 0.54481 1.09108 1.06903
 H761 H 0.61302 1.01855 1.04664
 C762 C 0.66147 0.84416 0.83557
 C763 C 0.63882 0.85715 0.85761
 C764 C 0.63661 0.84517 0.89498
 C765 C 0.65644 0.82015 0.90944
 C766 C 0.67906 0.80773 0.88764
 C767 C 0.68219 0.81973 0.85062
 C768 C 0.61533 0.85903 0.91782
 C769 C 0.59667 0.88535 0.90418
 C770 C 0.59816 0.89702 0.86664
 C771 C 0.61901 0.88258 0.84338
 C772 C 0.57955 0.92369 0.85353
 C773 C 0.56093 0.93966 0.87793
 C774 C 0.56041 0.92901 0.91574
 C775 C 0.57760 0.90109 0.92821
 H776 H 0.66326 0.85343 0.80701
 H777 H 0.65506 0.81078 0.93806
 H778 H 0.69478 0.78944 0.90049
 H779 H 0.61411 0.85010 0.94666
 H780 H 0.62056 0.89182 0.81472
 H781 H 0.58022 0.93291 0.82478
 H782 H 0.54788 0.96106 0.86755
 H783 H 0.57734 0.89242 0.95722
   
