data_POSCAR
  _audit_creation_date              2014-09-24
  _audit_creation_method            'ToBaCCo'
  _symmetry_space_group_name_H-M    'P1'
  _symmetry_Int_Tables_number       1
  _symmetry_cell_setting            triclinic
  loop_
  _symmetry_equiv_pos_as_xyz
 x,y,z
_cell_length_a 40.1480
_cell_length_b 40.1302
_cell_length_c 40.0995
_cell_angle_alpha 89.839300
_cell_angle_beta 89.852300
_cell_angle_gamma 90.051800
loop_
  _atom_site_label
  _atom_site_type_symbol
  _atom_site_fract_x
  _atom_site_fract_y
  _atom_site_fract_z
C1 C 0.16743 0.16832 0.20733
 C2 C 0.19609 0.15391 0.19347
 C3 C 0.21052 0.16768 0.16466
 C4 C 0.19625 0.19589 0.14976
 C5 C 0.16762 0.21030 0.16359
 C6 C 0.15323 0.19652 0.19236
 H7 H 0.20703 0.13198 0.20495
 H8 H 0.20725 0.20654 0.12739
 H9 H 0.13097 0.20766 0.20293
 C10 C -0.16451 0.83259 0.21339
 C11 C -0.19336 0.84680 0.19977
 C12 C -0.20822 0.83254 0.17162
 C13 C -0.19427 0.80406 0.15711
 C14 C -0.16546 0.78982 0.17067
 C15 C -0.15059 0.80408 0.19882
 H16 H -0.20413 0.86895 0.21087
 H17 H -0.20568 0.79311 0.13523
 H18 H -0.12820 0.79309 0.20918
 C19 C -0.16860 0.16458 -0.21042
 C20 C -0.19673 0.14957 -0.19598
 C21 C -0.21133 0.16342 -0.16740
 C22 C -0.19777 0.19233 -0.15329
 C23 C -0.16967 0.20735 -0.16769
 C24 C -0.15511 0.19349 -0.19624
 H25 H -0.20713 0.12711 -0.20685
 H26 H -0.20891 0.20305 -0.13109
 H27 H -0.13326 0.20511 -0.20725
 C28 C 0.16917 0.83531 -0.20913
 C29 C 0.19765 0.84860 -0.19401
 C30 C 0.21094 0.83342 -0.16545
 C31 C 0.19568 0.80489 -0.15207
 C32 C 0.16720 0.79160 -0.16720
 C33 C 0.15398 0.80681 -0.19572
 H34 H 0.20929 0.87075 -0.20438
 H35 H 0.20579 0.79313 -0.12990
 H36 H 0.13186 0.79660 -0.20734
 C37 C 0.17103 1.16812 0.79048
 C38 C 0.15643 1.19654 0.80448
 C39 C 0.16999 1.21073 0.83331
 C40 C 0.19818 1.19649 0.84812
 C41 C 0.21279 1.16807 0.83414
 C42 C 0.19922 1.15390 0.80531
 H43 H 0.13451 1.20745 0.79311
 H44 H 0.20858 1.20736 0.87053
 H45 H 0.21042 1.13179 0.79458
 C46 C 0.83416 0.83535 0.78857
 C47 C 0.84836 0.80646 0.80217
 C48 C 0.83404 0.79141 0.83037
 C49 C 0.80547 0.80528 0.84493
 C50 C 0.79127 0.83415 0.83135
 C51 C 0.80559 0.84916 0.80318
 H52 H 0.87057 0.79582 0.79095
 H53 H 0.79439 0.79381 0.86685
 H54 H 0.79461 0.87159 0.79281
 C55 C 0.16431 0.83107 1.21080
 C56 C 0.19322 0.84465 1.19652
 C57 C 0.20728 0.83005 1.16808
 C58 C 0.19245 0.80184 1.15393
 C59 C 0.16357 0.78824 1.16817
 C60 C 0.14951 0.80283 1.19660
 H61 H 0.20467 0.86660 1.20733
 H62 H 0.20324 0.79064 1.13182
 H63 H 0.12704 0.79233 1.20748
 C64 C 0.83422 1.16795 1.21023
 C65 C 0.80573 1.15283 1.19691
 C66 C 0.79066 1.16616 1.16837
 C67 C 0.80405 1.19465 1.15313
 C68 C 0.83253 1.20983 1.16640
 C69 C 0.84760 1.19646 1.19497
 H70 H 0.79537 1.13067 1.20856
 H71 H 0.79240 1.20482 1.13095
 H72 H 0.86974 1.20811 1.20518
 O73 O 0.45361 1.05813 1.06089
 O74 O 0.41707 1.02581 1.03110
 C75 C 0.42381 1.04910 1.05233
 O76 O 0.54768 1.05478 0.94190
 O77 O 0.58399 1.02448 0.97414
 C78 C 0.57742 1.04594 0.95090
 O79 O 0.45416 1.05810 0.94456
 O80 O 0.41733 1.02581 0.97440
 C81 C 0.42429 1.04907 0.95304
 O82 O 0.54713 1.05485 1.06388
 O83 O 0.58371 1.02451 1.03196
 C84 C 0.57694 1.04602 1.05500
 Zr85 Zr 0.50034 1.03920 1.04506
 O86 O 0.50427 1.09181 1.04469
 O87 O 0.49644 1.03904 1.09773
 Zr88 Zr 0.50072 1.03922 0.96071
 O89 O 0.50468 1.09183 0.96097
 O90 O 0.49728 1.03925 0.90804
 O91 O 0.47079 1.04585 1.00281
 O92 O 0.52947 1.04519 1.00292
 O93 O 0.54672 0.93907 1.06433
 O94 O 0.58352 0.96915 1.03218
 C95 C 0.57660 0.94776 1.05543
 O96 O 0.45353 0.93633 0.94504
 O97 O 0.41695 0.96846 0.97517
 C98 C 0.42371 0.94537 0.95370
 O99 O 0.54723 0.93915 0.94210
 O100 O 0.58376 0.96917 0.97426
 C101 C 0.57703 0.94784 0.95105
 O102 O 0.45302 0.93626 1.06100
 O103 O 0.41670 0.96845 1.03061
 C104 C 0.42328 0.94529 1.05217
 Zr105 Zr 0.50004 0.95479 1.04520
 O106 O 0.50361 0.90216 1.04475
 O107 O 0.49610 0.95447 1.09785
 Zr108 Zr 0.50040 0.95479 0.96102
 O109 O 0.50398 0.90216 0.96193
 O110 O 0.49693 0.95431 0.90836
 Zr111 Zr 0.45083 0.99723 1.00290
 Zr112 Zr 0.54985 0.99690 1.00308
 O113 O 0.52919 0.94868 1.00318
 O114 O 0.47042 0.94846 1.00307
 O115 O 0.52981 0.99692 1.05174
 O116 O 0.47175 0.99709 0.95470
 O117 O 0.47130 0.99707 1.05118
 O118 O 0.53022 0.99692 0.95436
 H119 H 0.54466 1.06466 1.00288
 H120 H 0.45685 0.99709 0.93504
 H121 H 0.54429 0.92916 1.00325
 H122 H 0.45621 0.99706 1.07076
 H123 H 0.51579 1.02548 0.89939
 H124 H 0.51495 0.96870 0.89957
 H125 H 0.48461 0.89355 0.97460
 H126 H 0.48458 0.89356 1.03172
 H127 H 0.51421 0.96867 1.10661
 H128 H 0.51506 1.02552 1.10650
 H129 H 0.48564 1.10056 1.03118
 H130 H 0.48577 1.10057 0.97414
 O131 O -0.06430 0.45257 0.05503
 O132 O -0.03221 0.41624 0.02460
 C133 C -0.05530 0.42282 0.04619
 O134 O -0.06111 0.54694 -0.06386
 O135 O -0.03103 0.58336 -0.03162
 C136 C -0.05237 0.57672 -0.05484
 O137 O -0.06419 0.45321 -0.06102
 O138 O -0.03215 0.41654 -0.03090
 C139 C -0.05525 0.42335 -0.05233
 O140 O -0.06128 0.54623 0.05836
 O141 O -0.03113 0.58303 0.02628
 C142 C -0.05251 0.57611 0.04952
 Zr143 Zr -0.04562 0.49952 0.03924
 O144 O -0.09822 0.50322 0.03881
 O145 O -0.04586 0.49548 0.09188
 Zr146 Zr -0.04545 0.50000 -0.04512
 O147 O -0.09805 0.50369 -0.04481
 O148 O -0.04528 0.49655 -0.09779
 O149 O -0.05201 0.47003 -0.00302
 O150 O -0.05162 0.52871 -0.00285
 O151 O 0.05436 0.54639 0.05816
 O152 O 0.02420 0.58311 0.02621
 C153 C 0.04560 0.57624 0.04933
 O154 O 0.05780 0.45346 -0.06100
 O155 O 0.02566 0.41664 -0.03092
 C156 C 0.04889 0.42357 -0.05231
 O157 O 0.05473 0.54712 -0.06378
 O158 O 0.02437 0.58344 -0.03162
 C159 C 0.04596 0.57687 -0.05473
 O160 O 0.05753 0.45278 0.05478
 O161 O 0.02556 0.41631 0.02448
 C162 C 0.04867 0.42299 0.04593
 Zr163 Zr 0.03867 0.49965 0.03920
 O164 O 0.09127 0.50351 0.03909
 O165 O 0.03836 0.49557 0.09186
 Zr166 Zr 0.03882 0.50016 -0.04520
 O167 O 0.09142 0.50396 -0.04532
 O168 O 0.03849 0.49670 -0.09787
 Zr169 Zr -0.00333 0.45032 -0.00311
 Zr170 Zr -0.00341 0.54935 -0.00281
 O171 O 0.04481 0.52882 -0.00290
 O172 O 0.04529 0.47023 -0.00309
 O173 O -0.00350 0.52923 0.04584
 O174 O -0.00327 0.47118 -0.05132
 O175 O -0.00345 0.47064 0.04522
 O176 O -0.00332 0.52982 -0.05158
 H177 H -0.07111 0.54384 -0.00278
 H178 H -0.00321 0.45615 -0.07088
 H179 H 0.06433 0.54394 -0.00285
 H180 H -0.00345 0.45543 0.06472
 H181 H -0.03151 0.51511 -0.10646
 H182 H 0.02543 0.51573 -0.10650
 H183 H 0.10014 0.48551 -0.03147
 H184 H 0.10004 0.48499 0.02542
 H185 H 0.02495 0.51427 0.10065
 H186 H -0.03188 0.51374 0.10068
 H187 H -0.10687 0.48427 0.02570
 H188 H -0.10675 0.48490 -0.03135
 O189 O 0.94156 0.06100 0.54660
 O190 O 0.97390 0.03111 0.58319
 C191 C 0.95062 0.05239 0.57645
 O192 O 0.94456 -0.05816 0.45357
 O193 O 0.97453 -0.02612 0.41657
 C194 C 0.95318 -0.04931 0.42362
 O195 O 0.94188 -0.05473 0.54732
 O196 O 0.97396 -0.02425 0.58354
 C197 C 0.95088 -0.04583 0.57705
 O198 O 0.94431 0.06382 0.45282
 O199 O 0.97443 0.03171 0.41622
 C200 C 0.95297 0.05482 0.42298
 Zr201 Zr 0.96023 0.04517 0.49969
 O202 O 0.90762 0.04477 0.49626
 O203 O 0.96022 0.09780 0.50312
 Zr204 Zr 0.96040 -0.03907 0.50021
 O205 O 0.90778 -0.03890 0.49679
 O206 O 0.96048 -0.09168 0.50428
 O207 O 0.95396 0.00313 0.52974
 O208 O 0.95415 0.00293 0.47102
 O209 O 1.06020 0.06406 0.45205
 O210 O 1.02984 0.03183 0.41587
 C211 C 1.05134 0.05499 0.42233
 O212 O 1.06363 -0.05466 0.54645
 O213 O 1.03131 -0.02481 0.58305
 C214 C 1.05459 -0.04607 0.57629
 O215 O 1.06021 -0.05786 0.45281
 O216 O 1.02986 -0.02596 0.41621
 C217 C 1.05131 -0.04907 0.42297
 O218 O 1.06358 0.06133 0.54582
 O219 O 1.03173 0.03115 0.58281
 C220 C 1.05481 0.05262 0.57577
 Zr221 Zr 1.04456 0.04545 0.49916
 O222 O 1.09714 0.04556 0.49510
 O223 O 1.04416 0.09808 0.50257
 Zr224 Zr 1.04471 -0.03886 0.49966
 O225 O 1.09730 -0.03833 0.49555
 O226 O 1.04486 -0.09148 0.50370
 Zr227 Zr 1.00270 0.00336 0.54925
 Zr228 Zr 1.00229 0.00299 0.45013
 O229 O 1.05059 0.00320 0.47042
 O230 O 1.05128 0.00340 0.52912
 O231 O 1.00227 0.05173 0.46967
 O232 O 1.00266 -0.04493 0.52888
 O233 O 1.00250 0.05151 0.52833
 O234 O 1.00245 -0.04560 0.47028
 H235 H 0.93459 0.00282 0.45600
 H236 H 1.00269 -0.06448 0.54403
 H237 H 1.07004 0.00317 0.45517
 H238 H 1.00253 0.07106 0.54336
 H239 H 0.97418 -0.10044 0.48575
 H240 H 1.03100 -0.10030 0.48537
 H241 H 1.10604 -0.02515 0.51442
 H242 H 1.10594 0.03179 0.51357
 H243 H 1.03079 0.10667 0.48373
 H244 H 0.97386 0.10649 0.48445
 H245 H 0.89902 0.03133 0.51512
 H246 H 0.89914 -0.02560 0.51564
 C247 C 1.12508 0.12763 0.28829
 N248 N 1.12805 0.09446 0.29411
 N249 N 1.11364 0.08061 0.32072
 C250 C 1.09582 0.09951 0.34234
 N251 N 1.09284 0.13268 0.33653
 N252 N 1.10726 0.14654 0.30990
 C253 C 1.14036 0.14242 0.25943
 C254 C 1.15313 0.15465 0.23504
 C255 C 1.08008 0.08443 0.37080
 C256 C 1.06692 0.07128 0.39448
 C257 C 0.87882 -0.12524 0.29258
 N258 N 0.90892 -0.13600 0.30346
 N259 N 0.92353 -0.12147 0.32947
 C260 C 0.90846 -0.09576 0.34536
 N261 N 0.87836 -0.08502 0.33448
 N262 N 0.86376 -0.09954 0.30849
 C263 C 0.86326 -0.14057 0.26433
 C264 C 0.85020 -0.15326 0.24047
 C265 C 0.92433 -0.07979 0.37309
 C266 C 0.93756 -0.06606 0.39624
 C267 C 0.87425 0.12391 0.70915
 N268 N 0.86219 0.09520 0.69609
 N269 N 0.87686 0.08134 0.66970
 C270 C 0.90402 0.09577 0.65557
 N271 N 0.91607 0.12449 0.66863
 N272 N 0.90141 0.13835 0.69501
 C273 C 0.85874 0.13860 0.73784
 C274 C 0.84585 0.15085 0.76208
 C275 C 0.92014 0.08059 0.62748
 C276 C 0.93391 0.06776 0.60406
 C277 C 1.12883 -0.11996 0.70890
 N278 N 1.11507 -0.13866 0.68439
 N279 N 1.10108 -0.12409 0.65801
 C280 C 1.10042 -0.09040 0.65533
 N281 N 1.11419 -0.07171 0.67983
 N282 N 1.12819 -0.08627 0.70621
 C283 C 1.14333 -0.13565 0.73760
 C284 C 1.15524 -0.14887 0.76182
 C285 C 1.08470 -0.07473 0.62728
 C286 C 1.07115 -0.06162 0.60388
 C287 C 0.29111 1.12526 1.12394
 N288 N 0.30724 1.10032 1.14008
 N289 N 0.33365 1.08574 1.12621
 C290 C 0.34475 1.09567 1.09578
 N291 N 0.32863 1.12062 1.07965
 N292 N 0.30221 1.13520 1.09352
 C293 C 0.26237 1.14063 1.13865
 C294 C 0.23809 1.15339 1.15092
 C295 C 0.37283 1.07957 1.08060
 C296 C 0.39623 1.06580 1.06775
 C297 C 0.29126 0.87273 0.87853
 N298 N 0.31117 0.89422 0.86155
 N299 N 0.33752 0.90791 0.87632
 C300 C 0.34477 0.90052 0.90852
 N301 N 0.32487 0.87901 0.92550
 N302 N 0.29851 0.86532 0.91073
 C303 C 0.26259 0.85841 0.86275
 C304 C 0.23839 0.84659 0.84949
 C305 C 0.37278 0.91581 0.92457
 C306 C 0.39615 0.92906 0.93794
 C307 C 0.70924 0.87506 1.13036
 N308 N 0.69103 0.85818 1.10750
 N309 N 0.66456 0.87233 1.09336
 C310 C 0.65548 0.90379 1.10165
 N311 N 0.67368 0.92067 1.12453
 N312 N 0.70015 0.90651 1.13867
 C313 C 0.73810 0.86002 1.14513
 C314 C 0.76249 0.84746 1.15731
 C315 C 0.62741 0.91926 1.08585
 C316 C 0.60406 0.93227 1.07219
 C317 C 0.70943 1.11994 0.87518
 N318 N 0.69638 1.13259 0.90369
 N319 N 0.67027 1.11802 0.91825
 C320 C 0.65641 1.09035 0.90475
 N321 N 0.66945 1.07769 0.87624
 N322 N 0.69557 1.09227 0.86167
 C323 C 0.73773 1.13551 0.85970
 C324 C 0.76160 1.14861 0.84689
 C325 C 0.62846 1.07456 0.92064
 C326 C 0.60509 1.06142 0.93428
 C327 C 0.12466 0.29123 0.11949
 N328 N 0.13267 0.29996 0.08777
 N329 N 0.11810 0.32607 0.07328
 C330 C 0.09508 0.34422 0.09009
 N331 N 0.08707 0.33548 0.12181
 N332 N 0.10164 0.30938 0.13629
 C333 C 0.14002 0.26289 0.13498
 C334 C 0.15271 0.23897 0.14802
 C335 C 0.07906 0.37208 0.07441
 C336 C 0.06534 0.39539 0.06134
 C337 C -0.12898 0.29019 -0.12523
 N338 N -0.10690 0.30923 -0.14246
 N339 N -0.09300 0.33581 -0.12828
 C340 C -0.10077 0.34417 -0.09645
 N341 N -0.12287 0.32514 -0.07922
 N342 N -0.13676 0.29856 -0.09340
 C343 C -0.14349 0.26122 -0.14030
 C344 C -0.15550 0.23674 -0.15286
 C345 C -0.08522 0.37235 -0.08095
 C346 C -0.07177 0.39579 -0.06790
 C347 C 0.12190 0.70969 -0.12705
 N348 N 0.09010 0.70190 -0.13531
 N349 N 0.07512 0.67550 -0.12167
 C350 C 0.09152 0.65610 -0.09936
 N351 N 0.12332 0.66388 -0.09112
 N352 N 0.13829 0.69027 -0.10476
 C353 C 0.13789 0.73837 -0.14136
 C354 C 0.15129 0.76258 -0.15320
 C355 C 0.07526 0.62801 -0.08418
 C356 C 0.06178 0.60456 -0.07099
 C357 C -0.12384 0.70815 0.12686
 N358 N -0.14037 0.69155 0.10257
 N359 N -0.12652 0.66528 0.08775
 C360 C -0.09572 0.65481 0.09679
 N361 N -0.07918 0.67140 0.12109
 N362 N -0.09304 0.69767 0.13590
 C363 C -0.13857 0.73672 0.14247
 C364 C -0.15087 0.76085 0.15541
 C365 C -0.08059 0.62687 0.08044
 C366 C -0.06781 0.60357 0.06647
 C367 C 1.12988 0.12538 0.70811
 N368 N 1.13321 0.09220 0.70275
 N369 N 1.11905 0.07799 0.67633
 C370 C 1.10115 0.09655 0.65448
 N371 N 1.09784 0.12974 0.65983
 N372 N 1.11200 0.14395 0.68625
 C373 C 1.14458 0.14055 0.73689
 C374 C 1.15674 0.15319 0.76123
 C375 C 1.08527 0.08113 0.62647
 C376 C 1.07157 0.06814 0.60317
 C377 C 0.87610 -0.12068 0.70920
 N378 N 0.89793 -0.13765 0.68977
 N379 N 0.91227 -0.12286 0.66363
 C380 C 0.90521 -0.09066 0.65612
 N381 N 0.88337 -0.07369 0.67554
 N382 N 0.86902 -0.08848 0.70169
 C383 C 0.86093 -0.13651 0.73754
 C384 C 0.84832 -0.14977 0.76145
 C385 C 0.92095 -0.07468 0.62819
 C386 C 0.93446 -0.06141 0.60479
 C387 C 1.12310 -0.12554 0.29059
 N388 N 1.10730 -0.14393 0.31425
 N389 N 1.09330 -0.12917 0.34051
 C390 C 1.09470 -0.09557 0.34388
 N391 N 1.11051 -0.07720 0.32022
 N392 N 1.12450 -0.09196 0.29397
 C393 C 1.13794 -0.14134 0.26216
 C394 C 1.15035 -0.15439 0.23812
 C395 C 1.07944 -0.07958 0.37198
 C396 C 1.06661 -0.06583 0.39538
 C397 C 0.87801 0.12820 0.29056
 N398 N 0.86141 0.10573 0.30970
 N399 N 0.87613 0.09184 0.33603
 C400 C 0.90790 0.10002 0.34403
 N401 N 0.92451 0.12251 0.32491
 N402 N 0.90978 0.13640 0.29856
 C403 C 0.86231 0.14272 0.26190
 C404 C 0.84911 0.15467 0.23770
 C405 C 0.92391 0.08457 0.37203
 C406 C 0.93724 0.07121 0.39539
 C407 C 0.12595 0.29200 -0.12465
 N408 N 0.09792 0.30510 -0.13818
 N409 N 0.08310 0.33124 -0.12411
 C410 C 0.09585 0.34507 -0.09608
 N411 N 0.12389 0.33198 -0.08255
 N412 N 0.13872 0.30584 -0.09663
 C413 C 0.14163 0.26359 -0.13956
 C414 C 0.15464 0.23957 -0.15199
 C415 C 0.07961 0.37291 -0.08070
 C416 C 0.06572 0.39614 -0.06775
 C417 C -0.12776 0.29006 0.12204
 N418 N -0.14155 0.30306 0.09404
 N419 N -0.12782 0.32943 0.07909
 C420 C -0.09988 0.34358 0.09171
 N421 N -0.08611 0.33058 0.11971
 N422 N -0.09984 0.30422 0.13465
 C423 C -0.14225 0.26143 0.13794
 C424 C -0.15419 0.23726 0.15132
 C425 C -0.08476 0.37168 0.07545
 C426 C -0.07159 0.39514 0.06198
 C427 C -0.12426 0.71021 -0.12938
 N428 N -0.14327 0.68708 -0.11355
 N429 N -0.12922 0.66047 -0.09948
 C430 C -0.09574 0.65618 -0.10084
 N431 N -0.07673 0.67929 -0.11668
 N432 N -0.09078 0.70590 -0.13075
 C433 C -0.13931 0.73915 -0.14402
 C434 C -0.15187 0.76362 -0.15612
 C435 C -0.08054 0.62791 -0.08506
 C436 C -0.06771 0.60439 -0.07146
 C437 C 0.11953 0.70746 0.12527
 N438 N 0.08851 0.69776 0.13464
 N439 N 0.07396 0.67173 0.12009
 C440 C 0.09000 0.65464 0.09574
 N441 N 0.12102 0.66434 0.08639
 N442 N 0.13557 0.69036 0.10094
 C443 C 0.13504 0.73572 0.14060
 C444 C 0.14807 0.75959 0.15327
 C445 C 0.07423 0.62689 0.07976
 C446 C 0.06108 0.60369 0.06603
 C447 C 0.29342 1.12502 0.87835
 N448 N 0.30320 1.13457 0.90923
 N449 N 0.32916 1.11998 0.92388
 C450 C 0.34611 1.09541 0.90808
 N451 N 0.33634 1.08588 0.87719
 N452 N 0.31039 1.10046 0.86254
 C453 C 0.26522 1.14039 0.86274
 C454 C 0.24139 1.15311 0.84967
 C455 C 0.37378 1.07939 0.92398
 C456 C 0.39692 1.06569 0.93728
 C457 C 0.28995 0.87135 1.12543
 N458 N 0.30350 0.89939 1.13846
 N459 N 0.33006 0.91346 1.12420
 C460 C 0.34386 0.89990 1.09648
 N461 N 0.33032 0.87184 1.08345
 N462 N 0.30376 0.85778 1.09771
 C463 C 0.26105 0.85655 1.14050
 C464 C 0.23662 0.84436 1.15312
 C465 C 0.37208 0.91542 1.08085
 C466 C 0.39559 0.92884 1.06773
 C467 C 0.70901 1.12123 1.12813
 N468 N 0.69004 1.13773 1.10555
 N469 N 0.66378 1.12290 1.09175
 C470 C 0.65569 1.09113 1.10012
 N471 N 0.67465 1.07463 1.12271
 N472 N 0.70092 1.08947 1.13652
 C473 C 0.73759 1.13704 1.14255
 C474 C 0.76171 1.15033 1.15443
 C475 C 0.62778 1.07504 1.08475
 C476 C 0.60447 1.06168 1.07142
 C477 C 0.70944 0.87585 0.87487
 N478 N 0.69771 0.90560 0.86392
 N479 N 0.67138 0.91960 0.87852
 C480 C 0.65598 0.90426 0.90451
 N481 N 0.66771 0.87451 0.91545
 N482 N 0.69404 0.86051 0.90085
 C483 C 0.73807 0.86100 0.85945
 C484 C 0.76225 0.84867 0.84660
 C485 C 0.62796 0.91956 0.92058
 C486 C 0.60459 0.93245 0.93433
   
