data_POSCAR
  _audit_creation_date              2014-09-24
  _audit_creation_method            'ToBaCCo'
  _symmetry_space_group_name_H-M    'P1'
  _symmetry_Int_Tables_number       1
  _symmetry_cell_setting            triclinic
  loop_
  _symmetry_equiv_pos_as_xyz
 x,y,z
_cell_length_a 20.1932
_cell_length_b 20.1295
_cell_length_c 37.1654
_cell_angle_alpha 90.275700
_cell_angle_beta 94.050500
_cell_angle_gamma 92.372700
loop_
  _atom_site_label
  _atom_site_type_symbol
  _atom_site_fract_x
  _atom_site_fract_y
  _atom_site_fract_z
C1 C -0.00511 0.29090 1.01782
 C2 C 0.00455 0.29107 0.98182
 C3 C 0.00671 0.35700 0.97119
 N4 N -0.00077 0.39715 0.99984
 C5 C -0.00787 0.35677 1.02848
 C6 C 0.01992 0.37969 0.93623
 C7 C 0.04006 0.44677 0.93150
 C8 C 0.09088 0.46818 0.91069
 C9 C 0.09139 0.53634 0.91087
 C10 C 0.04043 0.55454 0.93155
 N11 N 0.01109 0.49964 0.94540
 C12 C 0.02003 0.62028 0.93603
 C13 C 0.00564 0.64210 0.97110
 C14 C 0.00230 0.70794 0.98184
 C15 C -0.00910 0.70768 1.01751
 C16 C -0.01080 0.64179 1.02835
 N17 N -0.00212 0.60170 0.99975
 C18 C -0.02424 0.61922 1.06351
 C19 C -0.04371 0.55166 1.06812
 C20 C -0.09407 0.52905 1.08906
 C21 C -0.09277 0.46098 1.08925
 C22 C -0.04204 0.44400 1.06823
 N23 N -0.01394 0.49933 1.05417
 C24 C -0.02119 0.37877 1.06346
 H25 H -0.01117 0.24652 1.03368
 H26 H 0.01103 0.24702 0.96595
 H27 H 0.02813 0.50153 1.03934
 H28 H 0.12427 0.43776 0.89693
 H29 H 0.12535 0.56888 0.89724
 H30 H 0.00902 0.75263 0.96633
 H31 H -0.01682 0.75188 1.03299
 H32 H -0.12559 0.42768 1.10318
 H33 H -0.03119 0.49808 0.96006
 H34 H -0.12813 0.55862 1.10286
 C35 C 0.29213 0.01187 0.48096
 C36 C 0.29644 0.01321 0.51775
 C37 C 0.36342 0.01314 0.52889
 N38 N 0.40021 0.01227 0.49981
 C39 C 0.35659 0.01152 0.47038
 C40 C 0.38991 0.01735 0.56527
 C41 C 0.45779 0.03472 0.57283
 C42 C 0.48268 0.07907 0.59948
 C43 C 0.55066 0.07853 0.59974
 C44 C 0.56526 0.03331 0.57344
 N45 N 0.50825 0.00888 0.55601
 C46 C 0.62972 0.01302 0.56707
 C47 C 0.64729 0.00595 0.53077
 C48 C 0.71153 0.00205 0.52010
 C49 C 0.70703 -0.00203 0.48338
 C50 C 0.64035 0.00124 0.47212
 N51 N 0.60381 0.00582 0.50123
 C52 C 0.61366 -0.00496 0.43578
 C53 C 0.54522 -0.02062 0.42855
 C54 C 0.51884 -0.06508 0.40222
 C55 C 0.45111 -0.06186 0.40160
 C56 C 0.43806 -0.01573 0.42765
 N57 N 0.49559 0.00745 0.44506
 C58 C 0.37418 0.00503 0.43427
 H59 H 0.24592 0.00895 0.46441
 H60 H 0.25424 0.01517 0.53397
 H61 H 0.50084 0.04565 0.46429
 H62 H 0.45465 0.10896 0.61678
 H63 H 0.58547 0.10796 0.61737
 H64 H 0.75785 0.00314 0.53655
 H65 H 0.74887 -0.00905 0.46742
 H66 H 0.41545 -0.09076 0.38420
 H67 H 0.50393 -0.02902 0.53660
 H68 H 0.54563 -0.09690 0.38530
 C69 C 0.10747 0.00607 0.26525
 H70 H 0.10999 0.00394 0.23629
 C71 C 0.16606 0.00920 0.28782
 H72 H 0.21280 0.00840 0.27549
 C73 C 0.04239 0.00835 0.31573
 H74 H -0.00561 0.00906 0.32671
 C75 C 0.09933 0.01164 0.33915
 H76 H 0.09411 0.01348 0.36794
 N77 N 0.04720 0.00418 0.27951
 C78 C -0.09191 -0.09419 0.19914
 H79 H -0.13279 -0.06135 0.20040
 C80 C -0.09655 -0.14699 0.17454
 H81 H -0.14221 -0.15390 0.15792
 C82 C 0.01616 -0.12320 0.22046
 H83 H 0.05992 -0.11402 0.23847
 C84 C 0.01364 -0.17674 0.19627
 H85 H 0.05598 -0.20797 0.19582
 Zn86 Zn -0.03177 -0.00285 0.24865
 N87 N -0.03527 -0.08173 0.22045
 C88 C -0.03177 0.06208 0.18163
 N89 N -0.03297 0.07196 0.21777
 C90 C -0.03149 0.13441 0.23202
 C91 C -0.03027 0.19002 0.20954
 C92 C -0.03036 0.11593 0.15830
 C93 C -0.11141 -0.06214 0.29788
 C94 C -0.16009 -0.06769 0.32258
 C95 C -0.20023 0.03798 0.30219
 C96 C -0.15032 0.04166 0.27795
 N97 N -0.10610 -0.00730 0.27698
 H98 H -0.03076 0.01242 0.17069
 H99 H -0.03102 0.14104 0.26095
 H100 H -0.02959 0.23857 0.22196
 H101 H -0.02930 0.10671 0.12961
 H102 H -0.07564 -0.10046 0.29640
 H103 H -0.15959 -0.11058 0.33978
 H104 H -0.23354 0.07858 0.30355
 H105 H -0.14601 0.08442 0.26071
 C106 C -0.04211 -0.18781 0.17168
 C107 C 0.16251 0.01174 0.32551
 C108 C -0.20529 -0.01678 0.32546
 C109 C -0.02951 0.18124 0.17193
 C110 C 0.03143 0.13343 0.76765
 H111 H 0.02981 0.13942 0.73869
 C112 C 0.03007 0.18933 0.79012
 H113 H 0.02803 0.23750 0.77765
 C114 C 0.03441 0.06219 0.81815
 H115 H 0.03459 0.01269 0.82914
 C116 C 0.03287 0.11633 0.84147
 H117 H 0.03274 0.10758 0.87021
 N118 N 0.03424 0.07145 0.78195
 C119 C 0.11550 -0.05952 0.70376
 H120 H 0.08195 -0.10222 0.70652
 C121 C 0.16487 -0.06166 0.67944
 H122 H 0.16925 -0.10748 0.66484
 C123 C 0.15031 0.05028 0.72132
 H124 H 0.14468 0.09372 0.73779
 C125 C 0.20043 0.05036 0.69720
 H126 H 0.23297 0.09418 0.69545
 Zn127 Zn 0.03262 -0.00409 0.75107
 N128 N 0.10753 -0.00336 0.72310
 C129 C -0.04133 -0.00308 0.68371
 N130 N -0.04605 -0.00325 0.72000
 C131 C -0.10601 -0.00010 0.73432
 C132 C -0.16454 0.00155 0.71184
 C133 C -0.09826 -0.00161 0.66035
 C134 C 0.09130 -0.09187 0.79997
 C135 C 0.09461 -0.14405 0.82450
 C136 C -0.01774 -0.17846 0.80411
 C137 C -0.01887 -0.12551 0.77994
 N138 N 0.03439 -0.08209 0.77931
 H139 H 0.00664 -0.00350 0.67265
 H140 H -0.10831 0.00138 0.76331
 H141 H -0.21099 0.00476 0.72427
 H142 H -0.09319 -0.00145 0.63153
 H143 H 0.13361 -0.05757 0.79816
 H144 H 0.14082 -0.14946 0.84035
 H145 H -0.06133 -0.21146 0.80496
 H146 H -0.06298 -0.11823 0.76248
 C147 C 0.20634 -0.00493 0.67445
 C148 C 0.03062 0.18124 0.82778
 C149 C 0.03840 -0.18668 0.82814
 C150 C -0.16128 0.00008 0.67411
 C151 C -0.02877 -0.33270 0.09280
 C152 C -0.09248 -0.29368 0.08787
 C153 C -0.09824 -0.24592 0.11318
 C154 C -0.03983 -0.24089 0.14232
 C155 C -0.03499 -0.31165 0.15742
 C156 C -0.02807 -0.35933 0.13190
 C157 C 0.02901 -0.27981 0.09595
 C158 C 0.02222 -0.23132 0.12082
 H159 H -0.12994 -0.30244 0.06573
 H160 H -0.14050 -0.21458 0.11128
 H161 H -0.03264 -0.32270 0.18604
 H162 H -0.01720 -0.40986 0.13959
 H163 H 0.07279 -0.28137 0.08065
 H164 H 0.05942 -0.19123 0.12582
 C165 C -0.02276 0.32881 0.09471
 C166 C -0.08447 0.28153 0.09104
 C167 C -0.08665 0.23478 0.11715
 C168 C -0.02692 0.23839 0.14522
 C169 C 0.03465 0.23643 0.12320
 C170 C 0.03733 0.28385 0.09740
 C171 C -0.02184 0.35751 0.13346
 C172 C -0.02485 0.31053 0.15974
 H173 H -0.12393 0.28537 0.06984
 H174 H -0.12814 0.19892 0.11818
 H175 H 0.07476 0.20286 0.12882
 H176 H 0.08004 0.29069 0.08142
 H177 H -0.01345 0.40977 0.14028
 H178 H -0.02061 0.32482 0.18793
 C179 C 0.34282 0.01030 0.59605
 C180 C 0.37384 0.00147 0.63491
 C181 C 0.32851 -0.00359 0.66041
 C182 C 0.25586 -0.00125 0.64520
 C183 C 0.25276 0.06369 0.62355
 C184 C 0.29831 0.06997 0.59846
 C185 C 0.29481 -0.05109 0.59114
 C186 C 0.24874 -0.05638 0.61597
 H187 H 0.42603 -0.00611 0.64180
 H188 H 0.34283 -0.01313 0.68856
 H189 H 0.21722 0.10164 0.62744
 H190 H 0.30194 0.11344 0.58142
 H191 H 0.29657 -0.08748 0.56960
 H192 H 0.21062 -0.09584 0.61376
 C193 C -0.31940 0.00826 0.59692
 C194 C -0.27064 0.06899 0.59874
 C195 C -0.22032 0.06583 0.62473
 C196 C -0.22201 0.00235 0.64741
 C197 C -0.29176 -0.00068 0.66203
 C198 C -0.34243 0.00142 0.63574
 C199 C -0.27643 -0.05310 0.59430
 C200 C -0.22535 -0.05542 0.62004
 H201 H -0.27598 0.11177 0.58124
 H202 H -0.18301 0.10596 0.62929
 H203 H -0.30192 -0.01147 0.68966
 H204 H -0.39343 -0.00917 0.64202
 H205 H -0.28736 -0.09329 0.57492
 H206 H -0.19290 -0.09712 0.62216
 C207 C 0.02451 -0.33164 0.90679
 C208 C 0.08736 -0.28610 0.91231
 C209 C 0.09292 -0.23803 0.88715
 C210 C 0.03545 -0.23944 0.85746
 C211 C 0.03227 -0.31078 0.84231
 C212 C 0.02544 -0.35879 0.86772
 C213 C -0.03414 -0.28467 0.90315
 C214 C -0.02744 -0.23580 0.87840
 H215 H 0.12383 -0.29016 0.93503
 H216 H 0.13352 -0.20121 0.88992
 H217 H 0.03071 -0.32238 0.81370
 H218 H 0.01544 -0.41042 0.85991
 H219 H -0.07827 -0.29037 0.91812
 H220 H -0.06507 -0.19938 0.87322
 C221 C 0.02219 0.32941 0.90498
 C222 C 0.08431 0.28791 0.90875
 C223 C 0.08710 0.24097 0.88264
 C224 C 0.02749 0.23859 0.85449
 C225 C -0.03416 0.23129 0.87640
 C226 C -0.03744 0.27887 0.90219
 C227 C 0.02128 0.35739 0.86624
 C228 C 0.02488 0.31029 0.83997
 H229 H 0.12362 0.29577 0.93000
 H230 H 0.12895 0.20900 0.88167
 H231 H -0.07388 0.19390 0.87074
 H232 H -0.08029 0.28200 0.91809
 H233 H 0.01271 0.40880 0.85942
 H234 H 0.02112 0.32378 0.81178
 C235 C -0.33932 -0.00731 0.40486
 C236 C -0.28222 0.04609 0.40751
 C237 C -0.23779 0.04052 0.38195
 C238 C -0.25507 -0.01609 0.35452
 C239 C -0.26251 -0.07921 0.37758
 C240 C -0.30592 -0.07423 0.40360
 C241 C -0.37017 0.00266 0.36601
 C242 C -0.32654 -0.00316 0.33988
 H243 H -0.27845 0.08666 0.42699
 H244 H -0.19576 0.07553 0.38031
 H245 H -0.24024 -0.12612 0.37290
 H246 H -0.31805 -0.11575 0.42083
 H247 H -0.42049 0.01786 0.35949
 H248 H -0.34089 0.00444 0.31154
 C249 C 0.32023 0.00853 0.40296
 C250 C 0.27353 -0.05364 0.40108
 C251 C 0.22328 -0.05197 0.37497
 C252 C 0.22311 0.01167 0.35235
 C253 C 0.22431 0.06916 0.37983
 C254 C 0.27516 0.06806 0.40578
 C255 C 0.34350 0.01618 0.36434
 C256 C 0.29299 0.01703 0.33791
 H257 H 0.28020 -0.09613 0.41865
 H258 H 0.18722 -0.09319 0.37032
 H259 H 0.19031 0.10959 0.37780
 H260 H 0.28440 0.10787 0.42554
 H261 H 0.39462 0.02691 0.35832
 H262 H 0.30310 0.02757 0.31025
   
