data_POSCAR
  _audit_creation_date              2014-09-24
  _audit_creation_method            'ToBaCCo'
  _symmetry_space_group_name_H-M    'P1'
  _symmetry_Int_Tables_number       1
  _symmetry_cell_setting            triclinic
  loop_
  _symmetry_equiv_pos_as_xyz
 x,y,z
_cell_length_a 52.4854
_cell_length_b 52.5073
_cell_length_c 52.4947
_cell_angle_alpha 89.999500
_cell_angle_beta 89.971000
_cell_angle_gamma 90.005700
loop_
  _atom_site_label
  _atom_site_type_symbol
  _atom_site_fract_x
  _atom_site_fract_y
  _atom_site_fract_z
C1 C 0.21060 0.51922 1.03148
 H2 H 0.20997 0.53387 1.01701
 C3 C 0.19332 0.51974 1.05170
 H4 H 0.17938 0.53493 1.05284
 C5 C 0.22908 0.48112 1.04725
 H6 H 0.24269 0.46584 1.04517
 C7 C 0.21213 0.48091 1.06779
 H8 H 0.21294 0.46556 1.08156
 N9 N 0.22810 0.50018 1.02969
 C10 C 0.28853 0.53089 0.98162
 H11 H 0.28918 0.51641 0.96698
 C12 C 0.30580 0.55111 0.98106
 H13 H 0.31976 0.55229 0.96589
 C14 C 0.27004 0.54671 1.01971
 H15 H 0.25644 0.54465 1.03501
 C16 C 0.28698 0.56724 1.01987
 H17 H 0.28622 0.58107 1.03517
 Zn18 Zn 0.24958 0.50016 1.00072
 N19 N 0.27103 0.52913 1.00067
 C20 C 0.22912 0.51913 0.95416
 N21 N 0.22813 0.50010 0.97175
 C22 C 0.21064 0.48104 0.96998
 C23 C 0.19341 0.48046 0.94974
 C24 C 0.21222 0.51926 0.93360
 C25 C 0.28854 0.46943 1.01979
 C26 C 0.30581 0.44922 1.02033
 C27 C 0.28702 0.43312 0.98151
 C28 C 0.27008 0.45364 0.98170
 N29 N 0.27105 0.47121 1.00075
 H30 H 0.24271 0.53443 0.95621
 H31 H 0.20999 0.46641 0.98448
 H32 H 0.17947 0.46528 0.94855
 H33 H 0.21299 0.53454 0.91976
 H34 H 0.28918 0.48391 1.03445
 H35 H 0.31976 0.44803 1.03549
 H36 H 0.28628 0.41931 0.96620
 H37 H 0.25648 0.45571 0.96640
 C38 C 0.30504 0.56941 1.00039
 C39 C 0.19405 0.50038 1.06999
 C40 C 0.30507 0.43094 1.00098
 C41 C 0.19418 0.49977 0.93142
 C42 C 0.78890 0.51930 -0.03043
 H43 H 0.78958 0.53391 -0.01591
 C44 C 0.80615 0.51987 -0.05068
 H45 H 0.82013 0.53501 -0.05185
 C46 C 0.77034 0.48128 -0.04629
 H47 H 0.75673 0.46600 -0.04424
 C48 C 0.78727 0.48113 -0.06685
 H49 H 0.78648 0.46585 -0.08070
 N50 N 0.77138 0.50028 -0.02867
 C51 C 0.71108 0.53091 0.01961
 H52 H 0.71045 0.51640 0.03422
 C53 C 0.69382 0.55113 0.02023
 H54 H 0.67989 0.55229 0.03542
 C55 C 0.72951 0.54679 -0.01849
 H56 H 0.74308 0.54476 -0.03383
 C57 C 0.71257 0.56733 -0.01859
 H58 H 0.71331 0.58117 -0.03387
 Zn59 Zn 0.74996 0.50018 0.00034
 N60 N 0.72854 0.52918 0.00052
 C61 C 0.77055 0.51898 0.04691
 N62 N 0.77147 0.50000 0.02926
 C63 C 0.78894 0.48093 0.03092
 C64 C 0.80624 0.48027 0.05110
 C65 C 0.78753 0.51905 0.06741
 C66 C 0.71093 0.46958 -0.01878
 C67 C 0.69364 0.44938 -0.01938
 C68 C 0.71247 0.43310 0.01935
 C69 C 0.72944 0.45361 0.01922
 N70 N 0.72845 0.47126 0.00024
 H71 H 0.75697 0.53431 0.04494
 H72 H 0.78953 0.46634 0.01638
 H73 H 0.82017 0.46509 0.05220
 H74 H 0.78683 0.53430 0.08129
 H75 H 0.71028 0.48412 -0.03337
 H76 H 0.67967 0.44826 -0.03452
 H77 H 0.71323 0.41922 0.03460
 H78 H 0.74306 0.45560 0.03450
 C79 C 0.69454 0.56946 0.00093
 C80 C 0.80535 0.50058 -0.06901
 C81 C 0.69439 0.43101 -0.00011
 C82 C 0.80556 0.49954 0.06947
 C83 C -0.01920 0.28942 0.46868
 H84 H -0.03376 0.29004 0.48326
 C85 C -0.01988 0.30668 0.44847
 H86 H -0.03510 0.32060 0.44743
 C87 C 0.01882 0.27097 0.45263
 H88 H 0.03414 0.25738 0.45460
 C89 C 0.01887 0.28790 0.43209
 H90 H 0.03413 0.28710 0.41819
 N91 N -0.00013 0.27194 0.47033
 C92 C -0.03053 0.21152 0.51857
 H93 H -0.01596 0.21088 0.53313
 C94 C -0.05074 0.19424 0.51924
 H95 H -0.05183 0.18029 0.53441
 C96 C -0.04657 0.22999 0.48058
 H97 H -0.04460 0.24358 0.46527
 C98 C -0.06710 0.21304 0.48053
 H99 H -0.08101 0.21378 0.46531
 Zn100 Zn 0.00009 0.25048 0.49929
 N101 N -0.02888 0.22902 0.49952
 C102 C -0.01863 0.27091 0.54599
 N103 N 0.00030 0.27192 0.52827
 C104 C 0.01936 0.28942 0.52992
 C105 C 0.02007 0.30663 0.55017
 C106 C -0.01864 0.28781 0.56656
 C107 C 0.03076 0.21155 0.48002
 C108 C 0.05097 0.19428 0.47938
 C109 C 0.06726 0.21307 0.51812
 C110 C 0.04673 0.23002 0.51804
 N111 N 0.02907 0.22904 0.49907
 H112 H -0.03394 0.25732 0.54402
 H113 H 0.03391 0.29008 0.51532
 H114 H 0.03525 0.32057 0.55127
 H115 H -0.03384 0.28702 0.58051
 H116 H 0.01620 0.21090 0.46544
 H117 H 0.05209 0.18032 0.46422
 H118 H 0.08114 0.21382 0.53337
 H119 H 0.04473 0.24360 0.53335
 C120 C -0.06915 0.19498 0.50001
 C121 C -0.00064 0.30596 0.43002
 C122 C 0.06935 0.19502 0.49864
 C123 C 0.00086 0.30584 0.56863
 C124 C 0.98074 0.71094 0.53044
 H125 H 0.96621 0.71027 0.51584
 C126 C 0.98003 0.69371 0.55068
 H127 H 0.96487 0.67975 0.55177
 C128 C 1.01870 0.72946 0.54652
 H129 H 1.03401 0.74306 0.54456
 C130 C 1.01871 0.71255 0.56708
 H131 H 1.03390 0.71334 0.58102
 N132 N 0.99979 0.72845 0.52880
 C133 C 0.96942 0.78875 0.48044
 H134 H 0.98401 0.78938 0.46588
 C135 C 0.94921 0.80602 0.47976
 H136 H 0.94813 0.81996 0.46458
 C137 C 0.95336 0.77033 0.51847
 H138 H 0.95532 0.75676 0.53380
 C139 C 0.93283 0.78728 0.51850
 H140 H 0.91892 0.78655 0.53374
 Zn141 Zn 1.00005 0.74986 0.49981
 N142 N 0.97106 0.77128 0.49952
 C143 C 0.98147 0.72931 0.45313
 N144 N 1.00037 0.72837 0.47087
 C145 C 1.01945 0.71090 0.46929
 C146 C 1.02020 0.69362 0.44909
 C147 C 0.98150 0.71234 0.43262
 C148 C 1.03060 0.78886 0.51909
 C149 C 1.05080 0.80615 0.51976
 C150 C 1.06724 0.78734 0.48108
 C151 C 1.04673 0.77037 0.48113
 N152 N 1.02900 0.77135 0.50005
 H153 H 0.96613 0.74288 0.45505
 H154 H 1.03397 0.71030 0.48389
 H155 H 1.03539 0.67969 0.44806
 H156 H 0.96631 0.71305 0.41867
 H157 H 1.01600 0.78950 0.53363
 H158 H 1.05185 0.82012 0.53491
 H159 H 1.08118 0.78659 0.46587
 H160 H 1.04480 0.75676 0.46583
 C161 C 0.93079 0.80531 0.49900
 C162 C 0.99922 0.69450 0.56913
 C163 C 1.06924 0.80541 0.50055
 C164 C 1.00102 0.69431 0.43063
 C165 C 0.46946 -0.01984 0.28851
 H166 H 0.48402 -0.03440 0.28915
 C167 C 0.44925 -0.02047 0.30579
 H168 H 0.44814 -0.03562 0.31976
 C169 C 0.45347 0.01816 0.27002
 H170 H 0.45546 0.03346 0.25642
 C171 C 0.43294 0.01825 0.28698
 H172 H 0.41905 0.03349 0.28623
 N173 N 0.47114 -0.00079 0.27100
 C174 C 0.51945 -0.03118 0.21061
 H175 H 0.53400 -0.01659 0.20997
 C176 C 0.52016 -0.05138 0.19334
 H177 H 0.53538 -0.05241 0.17941
 C178 C 0.48145 -0.04724 0.22908
 H179 H 0.46612 -0.04528 0.24268
 C180 C 0.48141 -0.06777 0.21214
 H181 H 0.46616 -0.08167 0.21295
 Zn182 Zn 0.50013 -0.00057 0.24955
 N183 N 0.50038 -0.02954 0.22810
 C184 C 0.54680 -0.01923 0.27004
 N185 N 0.52908 -0.00031 0.27101
 C186 C 0.53070 0.01875 0.28849
 C187 C 0.55091 0.01945 0.30577
 C188 C 0.56732 -0.01925 0.28699
 C189 C 0.48083 0.03001 0.21059
 C190 C 0.48011 0.05025 0.19336
 C191 C 0.51879 0.06667 0.21217
 C192 C 0.51879 0.04611 0.22908
 N193 N 0.49989 0.02838 0.22808
 H194 H 0.54486 -0.03455 0.25645
 H195 H 0.51611 0.03329 0.28913
 H196 H 0.55198 0.03462 0.31971
 H197 H 0.58125 -0.03445 0.28624
 H198 H 0.46630 0.01540 0.20994
 H199 H 0.46493 0.05132 0.17942
 H200 H 0.53397 0.08063 0.21294
 H201 H 0.53410 0.04417 0.24267
 C202 C 0.50093 -0.06983 0.19407
 C203 C 0.43086 -0.00122 0.30505
 C204 C 0.49928 0.06871 0.19413
 C205 C 0.56935 0.00025 0.30503
 C206 C 0.53071 -0.01939 0.71113
 H207 H 0.51615 -0.03396 0.71050
 C208 C 0.55094 -0.02005 0.69387
 H209 H 0.55205 -0.03521 0.67992
 C210 C 0.54670 0.01863 0.72958
 H211 H 0.54470 0.03395 0.74316
 C212 C 0.56724 0.01870 0.71264
 H213 H 0.58114 0.03394 0.71338
 N214 N 0.52902 -0.00033 0.72861
 C215 C 0.48065 -0.03063 0.78901
 H216 H 0.46611 -0.01604 0.78962
 C217 C 0.47992 -0.05083 0.80629
 H218 H 0.46473 -0.05188 0.82023
 C219 C 0.51866 -0.04674 0.77058
 H220 H 0.53399 -0.04481 0.75700
 C221 C 0.51865 -0.06726 0.78754
 H222 H 0.53385 -0.08119 0.78682
 Zn223 Zn 0.50002 -0.00008 0.75005
 N224 N 0.49974 -0.02902 0.77153
 C225 C 0.45336 -0.01877 0.72955
 N226 N 0.47107 0.00015 0.72857
 C227 C 0.46946 0.01919 0.71106
 C228 C 0.44925 0.01987 0.69379
 C229 C 0.43283 -0.01881 0.71260
 C230 C 0.51928 0.03055 0.78899
 C231 C 0.51996 0.05078 0.80622
 C232 C 0.48128 0.06716 0.78738
 C233 C 0.48131 0.04661 0.77046
 N234 N 0.50024 0.02890 0.77148
 H235 H 0.45530 -0.03407 0.74316
 H236 H 0.48405 0.03374 0.71041
 H237 H 0.44818 0.03503 0.67982
 H238 H 0.41890 -0.03401 0.71336
 H239 H 0.53382 0.01596 0.78966
 H240 H 0.53512 0.05188 0.82018
 H241 H 0.46608 0.08109 0.78659
 H242 H 0.46601 0.04464 0.75686
 C243 C 0.49912 -0.06927 0.80558
 C244 C 0.56933 -0.00079 0.69460
 C245 C 0.50076 0.06922 0.80543
 C246 C 0.43081 0.00067 0.69454
 C247 C 0.28902 0.01922 0.46911
 H248 H 0.28968 0.03387 0.48359
 C249 C 0.30629 0.01973 0.44888
 H250 H 0.32027 0.03487 0.44769
 C251 C 0.27047 -0.01884 0.45332
 H252 H 0.25685 -0.03412 0.45539
 C253 C 0.28742 -0.01905 0.43278
 H254 H 0.28664 -0.03436 0.41897
 N255 N 0.27148 0.00021 0.47089
 C256 C 0.21110 0.03100 0.51896
 H257 H 0.21043 0.01652 0.53361
 C258 C 0.19386 0.05123 0.51950
 H259 H 0.17990 0.05244 0.53466
 C260 C 0.22962 0.04676 0.48085
 H261 H 0.24321 0.04467 0.46555
 C262 C 0.21270 0.06731 0.48067
 H263 H 0.21348 0.08111 0.46536
 Zn264 Zn 0.25001 0.00020 0.49986
 N265 N 0.22860 0.02919 0.49991
 C266 C 0.27051 0.01913 0.54642
 N267 N 0.27146 0.00010 0.52882
 C268 C 0.28893 -0.01897 0.53057
 C269 C 0.30618 -0.01957 0.55079
 C270 C 0.28744 0.01925 0.56696
 C271 C 0.21101 -0.03047 0.48076
 C272 C 0.19374 -0.05068 0.48018
 C273 C 0.21252 -0.06685 0.51898
 C274 C 0.22947 -0.04633 0.51884
 N275 N 0.22851 -0.02873 0.49981
 H276 H 0.25693 0.03444 0.54438
 H277 H 0.28955 -0.03360 0.51607
 H278 H 0.32011 -0.03475 0.55196
 H279 H 0.28670 0.03453 0.58080
 H280 H 0.21039 -0.01597 0.46613
 H281 H 0.17980 -0.05185 0.46501
 H282 H 0.21326 -0.08069 0.53427
 H283 H 0.24306 -0.04429 0.53414
 C284 C 0.19464 0.06951 0.50015
 C285 C 0.30551 0.00039 0.43059
 C286 C 0.19448 -0.06900 0.49949
 C287 C 0.30546 -0.00026 0.56911
 C288 C 0.71118 0.01929 0.53049
 H289 H 0.71052 0.03390 0.51598
 C290 C 0.69393 0.01986 0.55073
 H291 H 0.67996 0.03501 0.55190
 C292 C 0.72971 -0.01875 0.54635
 H293 H 0.74331 -0.03404 0.54431
 C294 C 0.71277 -0.01890 0.56691
 H295 H 0.71355 -0.03417 0.58076
 N296 N 0.72870 0.00026 0.52874
 C297 C 0.78905 0.03086 0.48050
 H298 H 0.78969 0.01633 0.46590
 C299 C 0.80630 0.05110 0.47986
 H300 H 0.82024 0.05225 0.46467
 C301 C 0.77059 0.04677 0.51857
 H302 H 0.75701 0.04474 0.53389
 C303 C 0.78752 0.06732 0.51865
 H304 H 0.78676 0.08119 0.53391
 Zn305 Zn 0.75013 0.00016 0.49974
 N306 N 0.77157 0.02914 0.49957
 C307 C 0.72961 0.01898 0.45315
 N308 N 0.72864 0.00000 0.47080
 C309 C 0.71115 -0.01906 0.46912
 C310 C 0.69389 -0.01970 0.44891
 C311 C 0.71266 0.01905 0.43262
 C312 C 0.78912 -0.03051 0.51885
 C313 C 0.80638 -0.05073 0.51944
 C314 C 0.78754 -0.06695 0.48070
 C315 C 0.77060 -0.04642 0.48083
 N316 N 0.77161 -0.02879 0.49983
 H317 H 0.74320 0.03429 0.45514
 H318 H 0.71052 -0.03364 0.48366
 H319 H 0.67995 -0.03488 0.44779
 H320 H 0.71341 0.03430 0.41873
 H321 H 0.78978 -0.01599 0.53346
 H322 H 0.82035 -0.05188 0.53459
 H323 H 0.78676 -0.08082 0.46543
 H324 H 0.75699 -0.04440 0.46555
 C325 C 0.80555 0.06945 0.49914
 C326 C 0.69470 0.00056 0.56907
 C327 C 0.80560 -0.06908 0.50016
 C328 C 0.69463 -0.00045 0.43053
 C329 C 0.48047 0.21109 1.03054
 H330 H 0.46592 0.21047 1.01596
 C331 C 0.47979 0.19378 1.05071
 H332 H 0.46463 0.17981 1.05177
 C333 C 0.51845 0.22955 1.04664
 H334 H 0.53375 0.24316 1.04471
 C335 C 0.51849 0.21256 1.06713
 H336 H 0.53370 0.21329 1.08105
 N337 N 0.49952 0.22860 1.02894
 C338 C 0.46908 0.28905 0.98080
 H339 H 0.48364 0.28972 0.96622
 C340 C 0.44885 0.30630 0.98018
 H341 H 0.44774 0.32028 0.96504
 C342 C 0.45307 0.27051 1.01879
 H343 H 0.45506 0.25690 1.03408
 C344 C 0.43253 0.28744 1.01889
 H345 H 0.41863 0.28666 1.03413
 Zn346 Zn 0.49974 0.25011 1.00001
 N347 N 0.47075 0.27153 0.99982
 C348 C 0.48110 0.22968 0.95330
 N349 N 0.50002 0.22870 0.97102
 C350 C 0.51910 0.21123 0.96937
 C351 C 0.51982 0.19399 0.94914
 C352 C 0.48110 0.21275 0.93275
 C353 C 0.53034 0.28904 1.01937
 C354 C 0.55055 0.30631 1.02007
 C355 C 0.56693 0.28760 0.98131
 C356 C 0.54640 0.27065 0.98133
 N357 N 0.52870 0.27158 1.00028
 H358 H 0.46577 0.24325 0.95527
 H359 H 0.53363 0.21059 0.98396
 H360 H 0.53501 0.18006 0.94805
 H361 H 0.46590 0.21350 0.91882
 H362 H 0.51576 0.28964 1.03394
 H363 H 0.55164 0.32023 1.03526
 H364 H 0.58084 0.28689 0.96608
 H365 H 0.54444 0.25709 0.96599
 C366 C 0.43045 0.30552 0.99944
 C367 C 0.49901 0.19449 1.06914
 C368 C 0.56897 0.30561 1.00083
 C369 C 0.50062 0.19473 0.93071
 C370 C 0.48049 0.78913 -0.03010
 H371 H 0.46595 0.78980 -0.01549
 C372 C 0.47979 0.80635 -0.05035
 H373 H 0.46462 0.82030 -0.05144
 C374 C 0.51846 0.77061 -0.04618
 H375 H 0.53377 0.75702 -0.04422
 C376 C 0.51848 0.78751 -0.06675
 H377 H 0.53368 0.78672 -0.08069
 N378 N 0.49954 0.77163 -0.02845
 C379 C 0.46913 0.71133 0.01995
 H380 H 0.48371 0.71071 0.03449
 C381 C 0.44890 0.69408 0.02066
 H382 H 0.44781 0.68016 0.03585
 C383 C 0.45310 0.72975 -0.01807
 H384 H 0.45507 0.74331 -0.03341
 C385 C 0.43255 0.71282 -0.01808
 H386 H 0.41863 0.71355 -0.03330
 Zn387 Zn 0.49978 0.75023 0.00056
 N388 N 0.47080 0.72879 0.00086
 C389 C 0.48115 0.77078 0.04723
 N390 N 0.50006 0.77173 0.02948
 C391 C 0.51913 0.78922 0.03106
 C392 C 0.51987 0.80650 0.05126
 C393 C 0.48117 0.78775 0.06775
 C394 C 0.53039 0.71124 -0.01870
 C395 C 0.55062 0.69398 -0.01936
 C396 C 0.56699 0.71284 0.01931
 C397 C 0.54645 0.72978 0.01925
 N398 N 0.52875 0.72877 0.00033
 H399 H 0.46583 0.75720 0.04533
 H400 H 0.53366 0.78983 0.01644
 H401 H 0.53505 0.82044 0.05229
 H402 H 0.46598 0.78701 0.08171
 H403 H 0.51581 0.71058 -0.03324
 H404 H 0.55170 0.68001 -0.03451
 H405 H 0.58091 0.71362 0.03452
 H406 H 0.54449 0.74339 0.03455
 C407 C 0.43049 0.69480 0.00144
 C408 C 0.49899 0.80556 -0.06880
 C409 C 0.56904 0.69477 -0.00015
 C410 C 0.50069 0.80578 0.06973
 C411 C 1.03114 0.48013 0.21110
 H412 H 1.01659 0.46556 0.21046
 C413 C 1.05136 0.47950 0.19381
 H414 H 1.05247 0.46434 0.17985
 C415 C 1.04713 0.51816 0.22955
 H416 H 1.04514 0.53347 0.24314
 C417 C 1.06766 0.51824 0.21259
 H418 H 1.08154 0.53349 0.21332
 N419 N 1.02946 0.49919 0.22859
 C420 C 0.98113 0.46887 0.28900
 H421 H 0.96659 0.48346 0.28963
 C422 C 0.98040 0.44866 0.30628
 H423 H 0.96521 0.44761 0.32023
 C424 C 1.01911 0.45275 0.27054
 H425 H 1.03444 0.45468 0.25695
 C426 C 1.01910 0.43223 0.28750
 H427 H 1.03430 0.41828 0.28675
 Zn428 Zn 1.00047 0.49942 0.25004
 N429 N 1.00020 0.47047 0.27151
 C430 C 0.95379 0.48075 0.22958
 N431 N 0.97151 0.49967 0.22858
 C432 C 0.96988 0.51872 0.21108
 C433 C 0.94965 0.51941 0.19384
 C434 C 0.93324 0.48073 0.21266
 C435 C 1.01975 0.53004 0.28898
 C436 C 1.02044 0.55027 0.30622
 C437 C 0.98175 0.56665 0.28741
 C438 C 0.98177 0.54610 0.27049
 N439 N 1.00070 0.52839 0.27149
 H440 H 0.95574 0.46544 0.24317
 H441 H 0.98447 0.53325 0.21043
 H442 H 0.94857 0.53458 0.17989
 H443 H 0.91930 0.46553 0.21343
 H444 H 1.03430 0.51546 0.28964
 H445 H 1.03561 0.55137 0.32017
 H446 H 0.96654 0.58058 0.28664
 H447 H 0.96647 0.54414 0.25690
 C448 C 0.99959 0.43022 0.30555
 C449 C 1.06974 0.49876 0.19453
 C450 C 1.00124 0.56871 0.30545
 C451 C 0.93120 0.50022 0.19461
 C452 C -0.03065 0.48062 0.78894
 H453 H -0.01608 0.46605 0.78959
 C454 C -0.05089 0.47996 0.80620
 H455 H -0.05200 0.46479 0.82015
 C456 C -0.04664 0.51862 0.77047
 H457 H -0.04464 0.53394 0.75689
 C458 C -0.06719 0.51868 0.78741
 H459 H -0.08109 0.53392 0.78666
 N460 N -0.02896 0.49967 0.77146
 C461 C 0.01945 0.46937 0.71111
 H462 H 0.03400 0.48396 0.71051
 C463 C 0.02017 0.44919 0.69381
 H464 H 0.03537 0.44814 0.67987
 C465 C -0.01858 0.45327 0.72950
 H466 H -0.03392 0.45520 0.74307
 C467 C -0.01857 0.43277 0.71252
 H468 H -0.03379 0.41885 0.71322
 Zn469 Zn 0.00005 0.49993 0.75004
 N470 N 0.00035 0.47098 0.72857
 C471 C 0.04670 0.48128 0.77059
 N472 N 0.02898 0.50020 0.77154
 C473 C 0.03058 0.51925 0.78904
 C474 C 0.05075 0.51994 0.80634
 C475 C 0.06719 0.48125 0.78758
 C476 C -0.01922 0.53050 0.71107
 C477 C -0.01992 0.55071 0.69381
 C478 C 0.01874 0.56717 0.71265
 C479 C 0.01872 0.54663 0.72959
 N480 N -0.00018 0.52889 0.72859
 H481 H 0.04477 0.46597 0.75700
 H482 H 0.01598 0.53379 0.78965
 H483 H 0.05179 0.53511 0.82030
 H484 H 0.08112 0.46604 0.78686
 H485 H -0.03374 0.51589 0.71042
 H486 H -0.03507 0.55177 0.67985
 H487 H 0.03392 0.58112 0.71343
 H488 H 0.03402 0.54470 0.74320
 C489 C 0.00095 0.43077 0.69449
 C490 C -0.06928 0.49920 0.80546
 C491 C -0.00074 0.56918 0.69459
 C492 C 0.06918 0.50073 0.80564
 C493 C 0.08978 0.17674 0.49882
 C494 C 0.10660 0.16112 0.49900
 C495 C 0.12595 0.14245 0.49922
 C496 C 0.14217 0.12620 0.49942
 C497 C 0.16080 0.10683 0.49967
 C498 C 0.17640 0.08998 0.49988
 C499 C 0.67628 0.58991 0.00075
 C500 C 0.66065 0.60673 0.00059
 C501 C 0.64198 0.62607 0.00042
 C502 C 0.62573 0.64229 0.00028
 C503 C 0.60635 0.66092 0.00011
 C504 C 0.58950 0.67652 -0.00001
 C505 C 0.91037 -0.17640 0.49914
 C506 C 0.89357 -0.16076 0.49927
 C507 C 0.87424 -0.14207 0.49944
 C508 C 0.85804 -0.12581 0.49959
 C509 C 0.83942 -0.10641 0.49978
 C510 C 0.82383 -0.08956 0.49995
 C511 C 0.32333 0.41049 1.00072
 C512 C 0.33894 0.39366 1.00051
 C513 C 0.35759 0.37429 1.00026
 C514 C 0.37382 0.35806 1.00005
 C515 C 0.39318 0.33940 0.99982
 C516 C 0.41001 0.32378 0.99964
 C517 C 0.91041 0.17671 0.49989
 C518 C 0.89358 0.16108 0.49978
 C519 C 0.87424 0.14241 0.49965
 C520 C 0.85802 0.12616 0.49954
 C521 C 0.83938 0.10678 0.49940
 C522 C 0.82378 0.08992 0.49928
 C523 C 0.32330 0.58987 0.00062
 C524 C 0.33892 0.60670 0.00079
 C525 C 0.35758 0.62606 0.00097
 C526 C 0.37381 0.64229 0.00110
 C527 C 0.39319 0.66094 0.00124
 C528 C 0.41003 0.67655 0.00134
 C529 C 0.08967 -0.17630 0.50042
 C530 C 0.10648 -0.16066 0.50030
 C531 C 0.12581 -0.14197 0.50015
 C532 C 0.14202 -0.12571 0.50002
 C533 C 0.16064 -0.10632 0.49985
 C534 C 0.17624 -0.08947 0.49969
 C535 C 0.67613 0.41057 1.00008
 C536 C 0.66051 0.39374 1.00022
 C537 C 0.64185 0.37438 1.00038
 C538 C 0.62561 0.35815 1.00050
 C539 C 0.60625 0.33949 1.00063
 C540 C 0.58942 0.32387 1.00073
 C541 C 0.49932 0.08922 1.17595
 C542 C 0.49933 0.10610 1.16039
 C543 C 0.49931 0.12553 1.14180
 C544 C 0.49927 0.14181 1.12563
 C545 C 0.49920 0.16053 1.10633
 C546 C 0.49912 0.17619 1.08954
 C547 C -0.00070 0.67628 0.58961
 C548 C -0.00065 0.66068 0.60646
 C549 C -0.00062 0.64205 0.62584
 C550 C -0.00061 0.62583 0.64208
 C551 C -0.00062 0.60647 0.66074
 C552 C -0.00066 0.58964 0.67635
 C553 C 0.49917 0.91030 -0.17615
 C554 C 0.49920 0.89349 -0.16051
 C555 C 0.49920 0.87415 -0.14183
 C556 C 0.49918 0.85795 -0.12557
 C557 C 0.49914 0.83934 -0.10617
 C558 C 0.49908 0.82376 -0.08930
 C559 C 0.99947 0.32322 0.41065
 C560 C 0.99954 0.33880 0.39378
 C561 C 0.99961 0.35741 0.37438
 C562 C 0.99965 0.37361 0.35812
 C563 C 0.99966 0.39295 0.33944
 C564 C 0.99964 0.40977 0.32381
 C565 C 0.50083 0.91081 0.17679
 C566 C 0.50076 0.89395 0.16120
 C567 C 0.50070 0.87457 0.14257
 C568 C 0.50066 0.85832 0.12636
 C569 C 0.50064 0.83966 0.10701
 C570 C 0.50065 0.82404 0.09018
 C571 C 0.00081 0.32402 0.58915
 C572 C 0.00078 0.33956 0.60604
 C573 C 0.00077 0.35813 0.62549
 C574 C 0.00079 0.37430 0.64178
 C575 C 0.00082 0.39359 0.66051
 C576 C 0.00087 0.41037 0.67618
 C577 C 0.50066 0.08971 0.82364
 C578 C 0.50060 0.10657 0.83923
 C579 C 0.50055 0.12596 0.85785
 C580 C 0.50053 0.14221 0.87406
 C581 C 0.50053 0.16087 0.89341
 C582 C 0.50056 0.17649 0.91024
 C583 C 1.00099 0.67604 0.41020
 C584 C 1.00098 0.66040 0.39339
 C585 C 1.00100 0.64171 0.37406
 C586 C 1.00103 0.62545 0.35786
 C587 C 1.00109 0.60605 0.33925
 C588 C 1.00115 0.58919 0.32367
 C589 C 1.17676 0.50011 0.08936
 C590 C 1.16116 0.49987 0.10622
 C591 C 1.14253 0.49960 0.12563
 C592 C 1.12632 0.49938 0.14189
 C593 C 1.10698 0.49914 0.16058
 C594 C 1.09017 0.49895 0.17623
 C595 C 0.58978 -0.00063 0.67632
 C596 C 0.60661 -0.00047 0.66069
 C597 C 0.62597 -0.00027 0.64202
 C598 C 0.64220 -0.00009 0.62577
 C599 C 0.66084 0.00014 0.60639
 C600 C 0.67645 0.00033 0.58954
 C601 C -0.17641 0.50034 0.91051
 C602 C -0.16080 0.50014 0.89366
 C603 C -0.14216 0.49991 0.87427
 C604 C -0.12593 0.49972 0.85802
 C605 C -0.10657 0.49952 0.83935
 C606 C -0.08974 0.49936 0.82372
 C607 C 0.41042 -0.00103 0.32333
 C608 C 0.39360 -0.00085 0.33897
 C609 C 0.37425 -0.00061 0.35765
 C610 C 0.35802 -0.00039 0.37390
 C611 C 0.33938 -0.00013 0.39328
 C612 C 0.32376 0.00011 0.41013
 C613 C 0.17599 0.49996 0.91092
 C614 C 0.16043 0.50010 0.89404
 C615 C 0.14184 0.50025 0.87462
 C616 C 0.12566 0.50038 0.85833
 C617 C 0.10636 0.50051 0.83962
 C618 C 0.08958 0.50061 0.82395
 C619 C 0.58978 0.00015 0.32330
 C620 C 0.60660 0.00007 0.33893
 C621 C 0.62595 -0.00003 0.35759
 C622 C 0.64216 -0.00011 0.37384
 C623 C 0.66079 -0.00022 0.39322
 C624 C 0.67639 -0.00032 0.41007
 C625 C 0.82385 0.49967 0.08988
 C626 C 0.83950 0.49977 0.10668
 C627 C 0.85819 0.49988 0.12600
 C628 C 0.87446 0.49996 0.14220
 C629 C 0.89386 0.50006 0.16081
 C630 C 0.91072 0.50013 0.17639
 C631 C 0.41037 0.00056 0.67628
 C632 C 0.39354 0.00045 0.66066
 C633 C 0.37418 0.00033 0.64201
 C634 C 0.35795 0.00021 0.62578
 C635 C 0.33931 0.00006 0.60641
 C636 C 0.32370 -0.00008 0.58957
   
