data_POSCAR
  _audit_creation_date              2014-09-24
  _audit_creation_method            'ToBaCCo'
  _symmetry_space_group_name_H-M    'P1'
  _symmetry_Int_Tables_number       1
  _symmetry_cell_setting            triclinic
  loop_
  _symmetry_equiv_pos_as_xyz
 x,y,z
_cell_length_a 21.6713
_cell_length_b 21.7285
_cell_length_c 21.8594
_cell_angle_alpha 93.719600
_cell_angle_beta 77.919200
_cell_angle_gamma 71.434700
loop_
  _atom_site_label
  _atom_site_type_symbol
  _atom_site_fract_x
  _atom_site_fract_y
  _atom_site_fract_z
C1 C 0.52272 0.47668 0.00447
 C2 C 0.46795 0.53054 0.00639
 C3 C 0.39965 0.52809 0.00572
 C4 C 0.47427 0.59672 0.00714
 C5 C 0.58903 0.48271 0.00595
 C6 C 0.52180 0.40836 0.00002
 C7 C 0.36012 0.57158 -0.02734
 C8 C 0.29486 0.57400 -0.02622
 C9 C 0.26820 0.52999 0.00449
 C10 C 0.30775 0.48585 0.03745
 C11 C 0.37148 0.48689 0.04006
 C12 C 0.51733 0.61100 -0.04307
 C13 C 0.51870 0.67478 -0.04436
 C14 C 0.47645 0.72540 0.00437
 C15 C 0.43349 0.71083 0.05437
 C16 C 0.43257 0.64706 0.05589
 C17 C 0.59687 0.52107 0.05614
 C18 C 0.66062 0.52203 0.05866
 C19 C 0.71754 0.48374 0.01147
 C20 C 0.70939 0.44552 -0.03840
 C21 C 0.64585 0.44529 -0.04136
 C22 C 0.55101 0.36696 0.04066
 C23 C 0.55621 0.30117 0.03466
 C24 C 0.53061 0.27584 -0.01085
 C25 C 0.50079 0.31691 -0.05142
 C26 C 0.49766 0.38247 -0.04687
 H27 H 0.37948 0.60460 -0.05394
 H28 H 0.26612 0.60908 -0.05167
 H29 H 0.28848 0.45314 0.06456
 H30 H 0.39825 0.45575 0.06945
 H31 H 0.54853 0.57311 -0.08200
 H32 H 0.55093 0.68459 -0.08463
 H33 H 0.39845 0.63704 0.09457
 H34 H 0.55394 0.54894 0.09405
 H35 H 0.66544 0.55070 0.09861
 H36 H 0.75251 0.41532 -0.07507
 H37 H 0.64103 0.41497 -0.08018
 H38 H 0.57073 0.38549 0.07667
 H39 H 0.57977 0.27004 0.06600
 H40 H 0.48192 0.29772 -0.08774
 H41 H 0.47696 0.41276 -0.08009
 H42 H 0.40009 0.74909 0.09213
 C43 C -0.00740 0.53344 0.55379
 C44 C -0.01185 0.49126 0.50723
 C45 C -0.01306 0.42425 0.51650
 C46 C -0.01500 0.50866 0.44303
 C47 C -0.00521 0.59993 0.54345
 C48 C -0.00477 0.51626 0.61833
 C49 C 0.03716 0.37916 0.53844
 C50 C 0.03712 0.31515 0.54255
 C51 C -0.01157 0.29448 0.52269
 C52 C -0.06197 0.33964 0.50113
 C53 C -0.06273 0.40385 0.49824
 C54 C 0.03080 0.46590 0.39044
 C55 C 0.02511 0.47670 0.32945
 C56 C -0.02683 0.53052 0.31967
 C57 C -0.07119 0.57487 0.37209
 C58 C -0.06594 0.56357 0.43349
 C59 C -0.05013 0.65456 0.58613
 C60 C -0.04645 0.71694 0.58063
 C61 C 0.00180 0.72646 0.53199
 C62 C 0.04695 0.67182 0.48889
 C63 C 0.04372 0.60898 0.49490
 C64 C -0.05301 0.49367 0.65402
 C65 C -0.05059 0.48035 0.71545
 C66 C -0.00160 0.49180 0.74302
 C67 C 0.04659 0.51435 0.70739
 C68 C 0.04508 0.52624 0.64566
 H69 H 0.07695 0.39312 0.55134
 H70 H 0.07639 0.28108 0.55942
 H71 H -0.10100 0.32548 0.48680
 H72 H -0.10187 0.43767 0.48103
 H73 H 0.07058 0.42342 0.39675
 H74 H 0.06154 0.44287 0.28994
 H75 H -0.10244 0.59665 0.47345
 H76 H -0.08785 0.64874 0.62429
 H77 H -0.08157 0.75807 0.61462
 H78 H 0.08593 0.67707 0.45182
 H79 H 0.08019 0.56731 0.46252
 H80 H -0.09296 0.48712 0.63468
 H81 H -0.08829 0.46312 0.74223
 H82 H 0.08562 0.52250 0.72718
 H83 H 0.08275 0.54370 0.61917
 H84 H -0.11113 0.61704 0.36554
 C85 C 0.53557 -0.01774 0.44785
 C86 C 0.49008 -0.02231 0.49948
 C87 C 0.50287 -0.02230 0.56379
 C88 C 0.42338 -0.02601 0.49599
 C89 C 0.52226 -0.01673 0.38362
 C90 C 0.60200 -0.01368 0.45189
 C91 C 0.55963 -0.06783 0.57642
 C92 C 0.56801 -0.06838 0.63822
 C93 C 0.51858 -0.02530 0.68901
 C94 C 0.46206 0.02069 0.67560
 C95 C 0.45462 0.02206 0.61389
 C96 C 0.40194 -0.07423 0.52451
 C97 C 0.33758 -0.07566 0.52685
 C98 C 0.29395 -0.02992 0.49939
 C99 C 0.31523 0.01820 0.47037
 C100 C 0.37907 0.02076 0.46957
 C101 C 0.53324 0.03217 0.34825
 C102 C 0.52364 0.03321 0.28712
 C103 C 0.50226 -0.01440 0.26025
 C104 C 0.49052 -0.06294 0.29561
 C105 C 0.50182 -0.06500 0.35632
 C106 C 0.60800 0.03376 0.49492
 C107 C 0.67122 0.03699 0.49651
 C108 C 0.72967 -0.00610 0.45354
 C109 C 0.72273 -0.05201 0.40946
 C110 C 0.65998 -0.05615 0.40905
 H111 H 0.59699 -0.10336 0.53867
 H112 H 0.61235 -0.10408 0.64651
 H113 H 0.42387 0.05716 0.71181
 H114 H 0.41067 0.05793 0.60515
 H115 H 0.43485 -0.11027 0.54596
 H116 H 0.32180 -0.11259 0.55008
 H117 H 0.39337 0.05988 0.44940
 H118 H 0.54922 0.06977 0.36814
 H119 H 0.53194 0.07185 0.26122
 H120 H 0.47409 -0.10014 0.27564
 H121 H 0.49476 -0.10426 0.38186
 H122 H 0.56373 0.06867 0.52695
 H123 H 0.67321 0.07458 0.53013
 H124 H 0.76625 -0.08572 0.37543
 H125 H 0.65662 -0.09266 0.37493
 H126 H 0.28164 0.05526 0.45046
 O127 O 0.43950 0.01175 -0.08600
 O128 O 0.46332 0.01329 0.07577
 O129 O 0.44216 0.10007 -0.00256
 O130 O 0.45892 -0.07393 -0.00756
 O131 O 0.56848 -0.10284 -0.04545
 O132 O 0.55169 0.07159 -0.04067
 O133 O 0.57267 -0.01340 0.03758
 O134 O 0.54907 -0.01799 -0.12457
 Cu135 Cu 0.43997 0.01566 -0.00124
 Cu136 Cu 0.57152 -0.01852 -0.04717
 C137 C 0.49003 -0.00323 -0.13274
 C138 C 0.52219 -0.00013 0.08415
 C139 C 0.49411 0.11545 -0.02097
 C140 C 0.51638 -0.11797 -0.02676
 O141 O -0.11087 0.56936 1.04938
 O142 O 0.06837 0.54898 1.02949
 O143 O -0.01299 0.56744 0.95597
 O144 O -0.02927 0.55420 1.12520
 O145 O -0.00537 0.44720 1.10419
 O146 O 0.01559 0.45985 0.93437
 O147 O 0.09439 0.44141 1.01380
 O148 O -0.08278 0.46217 1.02551
 Cu149 Cu -0.02410 0.57082 1.04241
 Cu150 Cu 0.00814 0.44190 1.01725
 C151 C -0.12699 0.51902 1.03907
 C152 C 0.11176 0.49159 1.01941
 C153 C 0.00385 0.51609 0.91645
 C154 C -0.01935 0.49826 1.14338
 O155 O 0.02901 -0.09168 0.42559
 O156 O -0.00697 0.08674 0.42860
 O157 O 0.10066 -0.01370 0.41706
 O158 O -0.07764 0.00860 0.43454
 O159 O -0.09582 0.02727 0.53839
 O160 O 0.08559 -0.00639 0.52074
 O161 O -0.01733 0.09806 0.53179
 O162 O 0.00719 -0.07754 0.52981
 Cu163 Cu 0.01296 -0.00377 0.41602
 Cu164 Cu -0.00666 0.01146 0.54062
 C165 C 0.02180 -0.11453 0.47765
 C166 C -0.01616 0.12230 0.48044
 C167 C 0.12350 -0.01358 0.46592
 C168 C -0.11709 0.02141 0.48917
 C169 C -0.21349 0.47878 1.01424
 C170 C -0.19757 0.52677 1.04148
 H171 H -0.17350 0.43440 0.98959
 H172 H -0.23590 0.57346 1.06232
 C173 C 0.20531 0.53317 1.00284
 C174 C 0.17906 0.48296 1.01559
 H175 H 0.17427 0.57526 0.98602
 H176 H 0.21226 0.43429 1.01764
 C177 C 0.00435 -0.20632 0.52988
 C178 C 0.02810 -0.18424 0.47728
 H179 H -0.01888 -0.17208 0.57326
 H180 H 0.04741 -0.21605 0.43240
 C181 C -0.00884 0.22581 0.52491
 C182 C -0.02422 0.19211 0.48026
 H183 H 0.01119 0.20091 0.56156
 H184 H -0.03819 0.21471 0.44016
 C185 C 0.52769 -0.02900 -0.24915
 C186 C 0.47854 -0.00119 -0.19661
 H187 H 0.57670 -0.05803 -0.24365
 H188 H 0.42725 0.02239 -0.19909
 C189 C 0.49092 -0.01333 0.19595
 C190 C 0.53273 -0.00017 0.14839
 H191 H 0.44953 -0.02722 0.18683
 H192 H 0.57776 0.00746 0.15594
 C193 C 0.47255 -0.20559 0.00290
 C194 C 0.52310 -0.18752 -0.02721
 H195 H 0.42656 -0.16811 0.02965
 H196 H 0.57110 -0.22396 -0.05066
 C197 C 0.53817 0.20582 -0.01663
 C198 C 0.48692 0.18513 -0.01945
 H199 H 0.58550 0.17115 -0.01301
 H200 H 0.43784 0.22039 -0.01719
 C201 C -0.20528 -0.00514 0.45150
 C202 C -0.18787 0.02743 0.49559
 H203 H -0.16526 -0.03576 0.41222
 H204 H -0.22364 0.05404 0.53890
 C205 C 0.22504 -0.03043 0.50534
 C206 C 0.19411 -0.01891 0.45828
 H207 H 0.19987 -0.04193 0.54911
 H208 H 0.22100 -0.01213 0.41296
 C209 C -0.03433 0.54112 1.25507
 C210 C -0.02075 0.49066 1.20990
 H211 H -0.05154 0.59101 1.24479
 H212 H -0.00750 0.44111 1.22144
 C213 C -0.00202 0.48102 0.80915
 C214 C 0.00932 0.52298 0.84932
 H215 H -0.01725 0.44111 0.82637
 H216 H 0.01779 0.56660 0.83375
   
