data_POSCAR
  _audit_creation_date              2014-09-24
  _audit_creation_method            'ToBaCCo'
  _symmetry_space_group_name_H-M    'P1'
  _symmetry_Int_Tables_number       1
  _symmetry_cell_setting            triclinic
  loop_
  _symmetry_equiv_pos_as_xyz
 x,y,z
_cell_length_a 53.2108
_cell_length_b 39.9982
_cell_length_c 41.3836
_cell_angle_alpha 89.975500
_cell_angle_beta 89.899000
_cell_angle_gamma 90.076400
loop_
  _atom_site_label
  _atom_site_type_symbol
  _atom_site_fract_x
  _atom_site_fract_y
  _atom_site_fract_z
C1 C 1.21673 0.26296 0.30147
 H2 H 1.21694 0.23603 0.30395
 C3 C 1.20101 0.28213 0.32110
 H4 H 1.18901 0.26997 0.33872
 C5 C 1.23182 0.31171 0.27513
 H6 H 1.24394 0.32317 0.25733
 C7 C 1.21635 0.33184 0.29430
 H8 H 1.21641 0.35871 0.29097
 N9 N 1.23132 0.27786 0.27857
 C10 C 1.23956 0.20127 0.20405
 H11 H 1.25978 0.19926 0.20223
 C12 C 1.22417 0.18157 0.18433
 H13 H 1.23253 0.16423 0.16734
 C14 C 1.20383 0.22657 0.22806
 H15 H 1.19589 0.24448 0.24466
 C16 C 1.18782 0.20742 0.20883
 H17 H 1.16765 0.21043 0.21101
 Zn18 Zn 1.25072 0.24921 0.25194
 N19 N 1.22920 0.22288 0.22571
 C20 C 1.26953 0.18793 0.27792
 N21 N 1.27022 0.22191 0.27967
 C22 C 1.28501 0.23785 0.30160
 C23 C 1.30076 0.21960 0.32196
 C24 C 1.28500 0.16866 0.29784
 C25 C 1.26164 0.29475 0.20172
 C26 C 1.27692 0.31353 0.18098
 C27 C 1.31340 0.28883 0.20612
 C28 C 1.29749 0.27058 0.22636
 N29 N 1.27211 0.27419 0.22420
 H30 H 1.25724 0.17569 0.26089
 H31 H 1.28493 0.26488 0.30275
 H32 H 1.31289 0.23270 0.33877
 H33 H 1.28469 0.14164 0.29574
 H34 H 1.24140 0.29668 0.20007
 H35 H 1.26848 0.33013 0.16340
 H36 H 1.33358 0.28598 0.20822
 H37 H 1.30551 0.25347 0.24365
 C38 C 1.19806 0.18462 0.18690
 C39 C 1.20062 0.31684 0.31723
 C40 C 1.30305 0.31063 0.18337
 C41 C 1.30097 0.18468 0.31982
 C42 C 0.71615 -0.23636 0.30022
 H43 H 0.71626 -0.26329 0.30262
 C44 C 0.70054 -0.21715 0.31994
 H45 H 0.68850 -0.22928 0.33755
 C46 C 0.73143 -0.18761 0.27403
 H47 H 0.74360 -0.17618 0.25628
 C48 C 0.71607 -0.16744 0.29329
 H49 H 0.71624 -0.14056 0.29008
 N50 N 0.73079 -0.22147 0.27737
 C51 C 0.73923 -0.29804 0.20299
 H52 H 0.75946 -0.29997 0.20128
 C53 C 0.72395 -0.31781 0.18322
 H54 H 0.73239 -0.33513 0.16628
 C55 C 0.70337 -0.27285 0.22681
 H56 H 0.69535 -0.25496 0.24338
 C57 C 0.68747 -0.29207 0.20753
 H58 H 0.66729 -0.28916 0.20961
 Zn59 Zn 0.75018 -0.25014 0.25084
 N60 N 0.72875 -0.27646 0.22458
 C61 C 0.76867 -0.31141 0.27708
 N62 N 0.76954 -0.27742 0.27867
 C63 C 0.78433 -0.26149 0.30061
 C64 C 0.79987 -0.27980 0.32116
 C65 C 0.78394 -0.33069 0.29722
 C66 C 0.76112 -0.20475 0.20064
 C67 C 0.77640 -0.18603 0.17987
 C68 C 0.81288 -0.21068 0.20508
 C69 C 0.79697 -0.22887 0.22535
 N70 N 0.77159 -0.22525 0.22317
 H71 H 0.75638 -0.32364 0.26004
 H72 H 0.78438 -0.23447 0.30164
 H73 H 0.81203 -0.26689 0.33803
 H74 H 0.78359 -0.35770 0.29537
 H75 H 0.74089 -0.20282 0.19899
 H76 H 0.76797 -0.16947 0.16225
 H77 H 0.83306 -0.21352 0.20719
 H78 H 0.80498 -0.24595 0.24269
 C79 C 0.69783 -0.31485 0.18567
 C80 C 0.70031 -0.18242 0.31620
 C81 C 0.80252 -0.18894 0.18228
 C82 C 0.79986 -0.31469 0.31920
 C83 C 0.71653 0.26423 -0.20120
 H84 H 0.71671 0.23731 -0.19867
 C85 C 0.70081 0.28346 -0.18161
 H86 H 0.68880 0.27134 -0.16396
 C87 C 0.73166 0.31292 -0.22761
 H88 H 0.74379 0.32433 -0.24542
 C89 C 0.71619 0.33311 -0.20848
 H90 H 0.71627 0.35997 -0.21184
 N91 N 0.73115 0.27907 -0.22410
 C92 C 0.73922 0.20212 -0.29837
 H93 H 0.75944 0.19996 -0.30016
 C94 C 0.72376 0.18236 -0.31794
 H95 H 0.73205 0.16483 -0.33479
 C96 C 0.70358 0.22783 -0.27456
 H97 H 0.69570 0.24591 -0.25807
 C98 C 0.68750 0.20864 -0.29364
 H99 H 0.66735 0.21178 -0.29147
 Zn100 Zn 0.75053 0.25026 -0.25064
 N101 N 0.72894 0.22395 -0.27685
 C102 C 0.76913 0.18892 -0.22442
 N103 N 0.76990 0.22291 -0.22276
 C104 C 0.78471 0.23883 -0.20083
 C105 C 0.80037 0.22053 -0.18039
 C106 C 0.78453 0.16965 -0.20440
 C107 C 0.76181 0.29574 -0.30086
 C108 C 0.77725 0.31438 -0.32154
 C109 C 0.81353 0.28917 -0.29629
 C110 C 0.79744 0.27109 -0.27615
 N111 N 0.77210 0.27503 -0.27837
 H112 H 0.75685 0.17667 -0.24146
 H113 H 0.78472 0.26585 -0.19974
 H114 H 0.81255 0.23346 -0.16356
 H115 H 0.78424 0.14264 -0.20633
 H116 H 0.74159 0.29792 -0.30256
 H117 H 0.76885 0.33109 -0.33908
 H118 H 0.83369 0.28595 -0.29400
 H119 H 0.80531 0.25385 -0.25885
 C120 C 0.69765 0.18558 -0.31539
 C121 C 0.70044 0.31817 -0.18552
 C122 C 0.80340 0.31119 -0.31908
 C123 C 0.80048 0.18565 -0.18245
 C124 C 1.21615 -0.23647 -0.19994
 H125 H 1.21619 -0.26340 -0.19755
 C126 C 1.20066 -0.21718 -0.18013
 H127 H 1.18863 -0.22926 -0.16248
 C128 C 1.23152 -0.18778 -0.22616
 H129 H 1.24368 -0.17641 -0.24395
 C130 C 1.21628 -0.16754 -0.20682
 H131 H 1.21653 -0.14066 -0.21001
 N132 N 1.23077 -0.22164 -0.22284
 C133 C 1.23889 -0.29813 -0.29727
 H134 H 1.25912 -0.30009 -0.29905
 C135 C 1.22356 -0.31784 -0.31700
 H136 H 1.23195 -0.33516 -0.33399
 C137 C 1.20310 -0.27293 -0.27327
 H138 H 1.19514 -0.25505 -0.25665
 C139 C 1.18714 -0.29210 -0.29252
 H140 H 1.16697 -0.28917 -0.29036
 Zn141 Zn 1.24999 -0.25036 -0.24945
 N142 N 1.22847 -0.27658 -0.27560
 C143 C 1.26839 -0.31167 -0.22333
 N144 N 1.26936 -0.27769 -0.22175
 C145 C 1.28426 -0.26182 -0.19989
 C146 C 1.29980 -0.28019 -0.17940
 C147 C 1.28367 -0.33101 -0.20325
 C148 C 1.26077 -0.20507 -0.29970
 C149 C 1.27597 -0.18636 -0.32057
 C150 C 1.31254 -0.21099 -0.29555
 C151 C 1.29671 -0.22917 -0.27517
 N152 N 1.27133 -0.22555 -0.27722
 H153 H 1.25602 -0.32385 -0.24030
 H154 H 1.28438 -0.23479 -0.19887
 H155 H 1.31205 -0.26732 -0.16260
 H156 H 1.28324 -0.35802 -0.20508
 H157 H 1.24053 -0.20315 -0.30123
 H158 H 1.26747 -0.16981 -0.33815
 H159 H 1.33273 -0.21382 -0.29355
 H160 H 1.30478 -0.24623 -0.25787
 C161 C 1.19745 -0.31485 -0.31444
 C162 C 1.20054 -0.18246 -0.18385
 C163 C 1.30210 -0.18928 -0.31830
 C164 C 1.29968 -0.31507 -0.18135
 C165 C 0.26065 0.20455 0.70084
 H166 H 0.24041 0.20263 0.69919
 C167 C 0.27590 0.18578 0.68013
 H168 H 0.26743 0.16920 0.66254
 C169 C 0.29655 0.22868 0.72554
 H170 H 0.30459 0.24576 0.74285
 C171 C 0.31242 0.21044 0.70532
 H172 H 0.33260 0.21326 0.70745
 N173 N 0.27116 0.22507 0.72334
 C174 C 0.21577 0.23598 0.80043
 H175 H 0.21589 0.26292 0.80283
 C176 C 0.20015 0.21671 0.82015
 H177 H 0.18813 0.22887 0.83774
 C178 C 0.23106 0.18731 0.77425
 H179 H 0.24323 0.17595 0.75651
 C180 C 0.21570 0.16706 0.79350
 H181 H 0.21592 0.14018 0.79023
 Zn182 Zn 0.24979 0.24991 0.75103
 N183 N 0.23042 0.22117 0.77759
 C184 C 0.20296 0.27239 0.72702
 N185 N 0.22833 0.27619 0.72479
 C186 C 0.23876 0.29787 0.70320
 C187 C 0.22344 0.31754 0.68343
 C188 C 0.18701 0.29151 0.70774
 C189 C 0.28396 0.26124 0.80079
 C190 C 0.29956 0.27951 0.82133
 C191 C 0.28378 0.33043 0.79737
 C192 C 0.26845 0.31119 0.77723
 N193 N 0.26921 0.27720 0.77884
 H194 H 0.19497 0.25442 0.74357
 H195 H 0.25899 0.29995 0.70148
 H196 H 0.23184 0.33495 0.66650
 H197 H 0.16683 0.28845 0.70982
 H198 H 0.28394 0.23421 0.80182
 H199 H 0.31168 0.26657 0.83820
 H200 H 0.28351 0.35745 0.79551
 H201 H 0.25620 0.32345 0.76018
 C202 C 0.19991 0.18196 0.81642
 C203 C 0.30202 0.18867 0.68256
 C204 C 0.29965 0.31440 0.81936
 C205 C 0.19732 0.31439 0.68588
 C206 C 0.76049 0.70537 0.70035
 H207 H 0.74026 0.70339 0.69858
 C208 C 0.77583 0.68655 0.67978
 H209 H 0.76745 0.66990 0.66219
 C210 C 0.79626 0.72961 0.72520
 H211 H 0.80423 0.74675 0.74252
 C212 C 0.81223 0.71134 0.70513
 H213 H 0.83241 0.71420 0.70739
 N214 N 0.77089 0.72596 0.72288
 C215 C 0.71527 0.73685 0.79986
 H216 H 0.71546 0.76377 0.80235
 C217 C 0.69953 0.71758 0.81944
 H218 H 0.68751 0.72974 0.83703
 C219 C 0.73048 0.68820 0.77358
 H220 H 0.74266 0.67684 0.75583
 C221 C 0.71499 0.66796 0.79268
 H222 H 0.71515 0.64109 0.78931
 Zn223 Zn 0.74943 0.75083 0.75054
 N224 N 0.72994 0.72205 0.77702
 C225 C 0.70262 0.77342 0.72646
 N226 N 0.72800 0.77722 0.72427
 C227 C 0.73842 0.79898 0.70274
 C228 C 0.72309 0.81870 0.68301
 C229 C 0.68667 0.79259 0.70722
 C230 C 0.78357 0.76200 0.80043
 C231 C 0.79930 0.78017 0.82090
 C232 C 0.78381 0.83118 0.79683
 C233 C 0.76833 0.81203 0.77677
 N234 N 0.76890 0.77804 0.77845
 H235 H 0.69463 0.75540 0.74296
 H236 H 0.75865 0.80108 0.70103
 H237 H 0.73149 0.83616 0.66612
 H238 H 0.66650 0.78949 0.70929
 H239 H 0.78341 0.73497 0.80152
 H240 H 0.81137 0.76714 0.83778
 H241 H 0.78370 0.85819 0.79489
 H242 H 0.75616 0.82437 0.75968
 C243 C 0.69918 0.68284 0.81558
 C244 C 0.80195 0.68947 0.68237
 C245 C 0.79962 0.81505 0.81884
 C246 C 0.69696 0.81554 0.68543
 C247 C 0.76111 0.20564 0.19941
 H248 H 0.74088 0.20372 0.19765
 C249 C 0.77642 0.18702 0.17866
 H250 H 0.76801 0.17054 0.16093
 C251 C 0.79693 0.22962 0.22443
 H252 H 0.80492 0.24659 0.24190
 C253 C 0.81287 0.21152 0.20418
 H254 H 0.83304 0.21432 0.20643
 N255 N 0.77156 0.22601 0.22209
 C256 C 0.71595 0.23633 0.29888
 H257 H 0.71601 0.26325 0.30141
 C258 C 0.70032 0.21689 0.31842
 H259 H 0.68821 0.22883 0.33603
 C260 C 0.73142 0.18784 0.27254
 H261 H 0.74367 0.17660 0.25481
 C262 C 0.71604 0.16745 0.29162
 H263 H 0.71628 0.14059 0.28828
 Zn264 Zn 0.75009 0.25061 0.24977
 N265 N 0.73069 0.22168 0.27604
 C266 C 0.70335 0.27313 0.22558
 N267 N 0.72873 0.27696 0.22355
 C268 C 0.73925 0.29870 0.20210
 C269 C 0.72402 0.31841 0.18227
 C270 C 0.68749 0.29229 0.20623
 C271 C 0.78404 0.26172 0.29976
 C272 C 0.79952 0.27992 0.32050
 C273 C 0.78372 0.33093 0.29673
 C274 C 0.76850 0.31176 0.27640
 N275 N 0.76935 0.27777 0.27782
 H276 H 0.69531 0.25510 0.24203
 H277 H 0.75949 0.30080 0.20054
 H278 H 0.73249 0.33587 0.16544
 H279 H 0.66731 0.28920 0.20815
 H280 H 0.78407 0.23469 0.30064
 H281 H 0.81162 0.26692 0.33735
 H282 H 0.78340 0.35796 0.29502
 H283 H 0.75629 0.32407 0.25935
 C284 C 0.70018 0.18219 0.31451
 C285 C 0.80253 0.18990 0.18125
 C286 C 0.79954 0.31482 0.31871
 C287 C 0.69790 0.31522 0.18451
 C288 C 0.26162 0.70575 0.20137
 H289 H 0.24138 0.70381 0.19962
 C290 C 0.27693 0.68691 0.18078
 H291 H 0.26852 0.67027 0.16320
 C292 C 0.29743 0.72993 0.22618
 H293 H 0.30543 0.74705 0.24349
 C294 C 0.31337 0.71162 0.20609
 H295 H 0.33355 0.71445 0.20832
 N296 N 0.27205 0.72633 0.22388
 C297 C 0.21643 0.73712 0.30094
 H298 H 0.21656 0.76404 0.30346
 C299 C 0.20068 0.71776 0.32043
 H300 H 0.18858 0.72978 0.33800
 C301 C 0.23176 0.68854 0.27464
 H302 H 0.24397 0.67722 0.25691
 C303 C 0.21625 0.66824 0.29367
 H304 H 0.21640 0.64138 0.29031
 Zn305 Zn 0.25060 0.75122 0.25156
 N306 N 0.23116 0.72239 0.27811
 C307 C 0.20370 0.77358 0.22749
 N308 N 0.22907 0.77749 0.22526
 C309 C 0.23941 0.79922 0.20365
 C310 C 0.22402 0.81880 0.18386
 C311 C 0.18769 0.79261 0.20820
 C312 C 0.28482 0.76264 0.30136
 C313 C 0.30058 0.78090 0.32173
 C314 C 0.28494 0.83183 0.29753
 C315 C 0.26946 0.81255 0.27759
 N316 N 0.27008 0.77856 0.27938
 H317 H 0.19577 0.75558 0.24406
 H318 H 0.25964 0.80141 0.20190
 H319 H 0.23236 0.83623 0.16691
 H320 H 0.16752 0.78942 0.21030
 H321 H 0.28469 0.73562 0.30253
 H322 H 0.31266 0.76780 0.33858
 H323 H 0.28469 0.85885 0.29540
 H324 H 0.25723 0.82478 0.26051
 C325 C 0.20038 0.68305 0.31651
 C326 C 0.30306 0.68977 0.18334
 C327 C 0.30087 0.81583 0.31957
 C328 C 0.19790 0.81552 0.18631
 O329 O 1.03521 0.05836 0.05947
 O330 O 1.06318 0.02837 0.02861
 C331 C 1.05780 0.04973 0.05113
 O332 O 0.96498 -0.06120 0.05534
 O333 O 0.93718 -0.02851 0.02704
 C334 C 0.94244 -0.05211 0.04737
 O335 O 1.03512 -0.05801 0.05902
 O336 O 1.06314 -0.02780 0.02838
 C337 C 1.05772 -0.04939 0.05070
 O338 O 0.96509 0.06192 0.05572
 O339 O 0.93731 0.02989 0.02656
 C340 C 0.94257 0.05314 0.04729
 Zr341 Zr 1.00019 0.04285 0.04030
 O342 O 0.99792 0.04481 0.09132
 O343 O 1.00136 0.09549 0.03602
 Zr344 Zr 1.00013 -0.04123 0.04098
 O345 O 0.99903 -0.03552 0.09172
 O346 O 1.00076 -0.09386 0.04581
 O347 O 1.02267 0.00075 0.04695
 O348 O 0.97808 0.00075 0.04644
 O349 O 0.96552 0.06099 -0.05733
 O350 O 0.93751 0.02946 -0.02789
 C351 C 0.94292 0.05232 -0.04900
 O352 O 1.03550 -0.05796 -0.05905
 O353 O 1.06330 -0.02770 -0.02832
 C354 C 1.05802 -0.04921 -0.05068
 O355 O 0.96537 -0.06071 -0.05663
 O356 O 0.93744 -0.02899 -0.02750
 C357 C 0.94280 -0.05204 -0.04835
 O358 O 1.03566 0.05755 -0.06004
 O359 O 1.06346 0.02871 -0.02802
 C360 C 1.05820 0.04944 -0.05110
 Zr361 Zr 1.00052 0.04279 -0.04063
 O362 O 1.00017 0.04801 -0.09148
 O363 O 1.00122 0.09523 -0.03446
 Zr364 Zr 1.00042 -0.04180 -0.04071
 O365 O 0.99826 -0.04175 -0.09180
 O366 O 1.00276 -0.09464 -0.04018
 Zr367 Zr 1.03802 0.00040 -0.00005
 Zr368 Zr 0.96264 0.00035 -0.00033
 O369 O 0.97865 0.00043 -0.04683
 O370 O 1.02283 0.00045 -0.04710
 O371 O 0.97772 0.04914 -0.00032
 O372 O 1.02216 -0.04779 0.00019
 O373 O 1.02260 0.04878 -0.00012
 O374 O 0.97791 -0.04829 0.00005
 H375 H 0.96667 0.00082 0.06538
 H376 H 1.03348 -0.06743 0.00019
 H377 H 0.96743 0.00027 -0.06591
 H378 H 1.03410 0.06828 -0.00011
 H379 H 1.00440 -0.10314 0.02421
 H380 H 0.98848 -0.10312 -0.02717
 H381 H 1.01201 -0.02734 -0.09997
 H382 H 0.99593 0.02587 -0.10052
 H383 H 1.00218 0.10485 -0.05650
 H384 H 1.00158 0.10430 0.05839
 H385 H 1.00859 0.02654 0.09974
 H386 H 0.99841 -0.05844 0.10078
 O387 O 1.03486 0.55717 0.56005
 O388 O 1.06273 0.52818 0.52813
 C389 C 1.05742 0.54906 0.55108
 O390 O 0.96454 0.43805 0.55638
 O391 O 0.93668 0.47013 0.52759
 C392 C 0.94199 0.44680 0.54818
 O393 O 1.03468 0.44145 0.55961
 O394 O 1.06258 0.47152 0.52867
 C395 C 1.05724 0.45005 0.55110
 O396 O 0.96468 0.56068 0.55704
 O397 O 0.93678 0.52886 0.52786
 C398 C 0.94211 0.55197 0.54872
 Zr399 Zr 0.99973 0.54179 0.54115
 O400 O 0.99785 0.54339 0.59219
 O401 O 1.00082 0.59446 0.53720
 Zr402 Zr 0.99968 0.45754 0.54116
 O403 O 0.99843 0.46102 0.59210
 O404 O 1.00216 0.40475 0.54257
 O405 O 1.02219 0.49962 0.54737
 O406 O 0.97771 0.49958 0.54714
 O407 O 0.96462 0.56054 0.44391
 O408 O 0.93675 0.52883 0.47339
 C409 C 0.94207 0.55181 0.45236
 O410 O 1.03476 0.44167 0.44103
 O411 O 1.06264 0.47158 0.47197
 C412 C 1.05732 0.45024 0.44947
 O413 O 0.96455 0.43889 0.44388
 O414 O 0.93671 0.47047 0.47334
 C415 C 0.94201 0.44753 0.45235
 O416 O 1.03468 0.55713 0.44042
 O417 O 1.06261 0.52756 0.47158
 C418 C 1.05726 0.54868 0.44886
 Zr419 Zr 0.99969 0.54223 0.46018
 O420 O 0.99897 0.54774 0.40937
 O421 O 1.00045 0.59464 0.46662
 Zr422 Zr 0.99968 0.45774 0.45954
 O423 O 0.99727 0.45819 0.40848
 O424 O 1.00237 0.40492 0.45967
 Zr425 Zr 1.03739 0.49966 0.50033
 Zr426 Zr 0.96202 0.49958 0.50053
 O427 O 0.97782 0.49995 0.45389
 O428 O 1.02203 0.50000 0.45335
 O429 O 0.97708 0.54836 0.50073
 O430 O 1.02156 0.45144 0.50029
 O431 O 1.02193 0.54802 0.50057
 O432 O 0.97724 0.45094 0.50037
 H433 H 0.96641 0.49952 0.56620
 H434 H 1.03281 0.43172 0.50029
 H435 H 0.96654 0.49994 0.43488
 H436 H 1.03342 0.56754 0.50045
 H437 H 0.98964 0.39591 0.52715
 H438 H 0.98802 0.39612 0.47230
 H439 H 1.01126 0.47216 0.40027
 H440 H 0.99547 0.52542 0.40025
 H441 H 1.00124 0.60439 0.44464
 H442 H 1.00118 0.60311 0.55963
 H443 H 1.00754 0.52402 0.60026
 H444 H 0.99832 0.43773 0.60027
 O445 O 0.53439 0.05802 0.55897
 O446 O 0.56233 0.02849 0.52768
 C447 C 0.55697 0.04963 0.55040
 O448 O 0.46418 -0.06110 0.55489
 O449 O 0.43640 -0.02911 0.52584
 C450 C 0.44166 -0.05237 0.54653
 O451 O 0.53432 -0.05761 0.55851
 O452 O 0.56229 -0.02763 0.52759
 C453 C 0.55691 -0.04904 0.55008
 O454 O 0.46423 0.06127 0.55551
 O455 O 0.43641 0.02903 0.52659
 C456 C 0.44168 0.05229 0.54732
 Zr457 Zr 0.49938 0.04258 0.53977
 O458 O 0.49738 0.04424 0.59080
 O459 O 0.50045 0.09523 0.53571
 Zr460 Zr 0.49935 -0.04165 0.53983
 O461 O 0.49794 -0.03822 0.59076
 O462 O 0.50188 -0.09444 0.54126
 O463 O 0.52182 0.00043 0.54606
 O464 O 0.47737 0.00037 0.54564
 O465 O 0.46457 0.06130 0.44230
 O466 O 0.43662 0.02965 0.47167
 C467 C 0.44199 0.05260 0.45065
 O468 O 0.53483 -0.05768 0.44020
 O469 O 0.56262 -0.02803 0.47155
 C470 C 0.55736 -0.04926 0.44893
 O471 O 0.46446 -0.06050 0.44240
 O472 O 0.43654 -0.02877 0.47158
 C473 C 0.44189 -0.05179 0.45067
 O474 O 0.53455 0.05768 0.43899
 O475 O 0.56240 0.02828 0.47039
 C476 C 0.55710 0.04925 0.44755
 Zr477 Zr 0.49957 0.04293 0.45876
 O478 O 0.49863 0.04833 0.40797
 O479 O 0.50044 0.09534 0.46513
 Zr480 Zr 0.49956 -0.04171 0.45834
 O481 O 0.49727 -0.04175 0.40726
 O482 O 0.50225 -0.09453 0.45885
 Zr483 Zr 0.53715 0.00046 0.49908
 Zr484 Zr 0.46179 0.00034 0.49894
 O485 O 0.47777 0.00058 0.45240
 O486 O 0.52190 0.00061 0.45205
 O487 O 0.47683 0.04913 0.49921
 O488 O 0.52134 -0.04781 0.49914
 O489 O 0.52172 0.04880 0.49925
 O490 O 0.47698 -0.04833 0.49900
 H491 H 0.46608 0.00025 0.56470
 H492 H 0.53256 -0.06756 0.49930
 H493 H 0.46658 0.00058 0.43329
 H494 H 0.53329 0.06825 0.49922
 H495 H 0.48931 -0.10332 0.52593
 H496 H 0.48765 -0.10328 0.47104
 H497 H 0.51145 -0.02818 0.39895
 H498 H 0.49736 0.02557 0.39889
 H499 H 0.50123 0.10506 0.44314
 H500 H 0.50060 0.10394 0.55813
 H501 H 0.50687 0.02473 0.59891
 H502 H 0.49783 -0.06152 0.59892
 O503 O 0.53538 0.55819 0.05895
 O504 O 0.56316 0.52836 0.02766
 C505 C 0.55791 0.54962 0.05031
 O506 O 0.46523 0.43865 0.05546
 O507 O 0.43722 0.47139 0.02756
 C508 C 0.44263 0.44775 0.04779
 O509 O 0.53541 0.44183 0.05813
 O510 O 0.56318 0.47225 0.02728
 C511 C 0.55793 0.45060 0.04960
 O512 O 0.46521 0.56154 0.05619
 O513 O 0.43724 0.52911 0.02775
 C514 C 0.44261 0.55250 0.04830
 Zr515 Zr 0.50025 0.54273 0.04014
 O516 O 0.49844 0.54470 0.09118
 O517 O 0.50132 0.59537 0.03589
 Zr518 Zr 0.50028 0.45854 0.04056
 O519 O 0.49969 0.46393 0.09135
 O520 O 0.50054 0.40585 0.04503
 O521 O 0.52280 0.50061 0.04638
 O522 O 0.47830 0.50053 0.04646
 O523 O 0.46481 0.56085 -0.05705
 O524 O 0.43706 0.52879 -0.02774
 C525 C 0.44229 0.55185 -0.04871
 O526 O 0.53495 0.44212 -0.05988
 O527 O 0.56294 0.47246 -0.02952
 C528 C 0.55753 0.45094 -0.05184
 O529 O 0.46485 0.43921 -0.05643
 O530 O 0.43712 0.47094 -0.02698
 C531 C 0.44234 0.44789 -0.04789
 O532 O 0.53496 0.55777 -0.06059
 O533 O 0.56303 0.52891 -0.02899
 C534 C 0.55758 0.54970 -0.05195
 Zr535 Zr 0.49998 0.54287 -0.04077
 O536 O 0.49920 0.54825 -0.09159
 O537 O 0.50068 0.59529 -0.03450
 Zr538 Zr 0.49999 0.45817 -0.04097
 O539 O 0.49742 0.45806 -0.09202
 O540 O 0.50231 0.40533 -0.04025
 Zr541 Zr 0.53784 0.50042 -0.00080
 Zr542 Zr 0.46247 0.50034 -0.00009
 O543 O 0.47818 0.50042 -0.04678
 O544 O 0.52227 0.50053 -0.04763
 O545 O 0.47743 0.54916 -0.00017
 O546 O 0.52209 0.45217 -0.00044
 O547 O 0.52236 0.54878 -0.00054
 O548 O 0.47773 0.45167 -0.00002
 H549 H 0.46711 0.50048 0.06562
 H550 H 0.53350 0.43263 -0.00069
 H551 H 0.46688 0.50021 -0.06578
 H552 H 0.53385 0.56831 -0.00062
 H553 H 0.50655 0.39664 0.02428
 H554 H 0.48842 0.39698 -0.02647
 H555 H 0.51100 0.47262 -0.10041
 H556 H 0.49544 0.52596 -0.10064
 H557 H 0.50135 0.60496 -0.05653
 H558 H 0.50165 0.60416 0.05827
 H559 H 0.50887 0.52611 0.09942
 H560 H 0.49909 0.44096 0.10029
 C561 C 1.14814 0.12988 0.13274
 C562 C 1.12109 0.13880 0.14231
 C563 C 1.10334 0.12176 0.12534
 C564 C 1.11430 0.09742 0.10040
 C565 C 1.13201 0.07469 0.11972
 C566 C 1.14982 0.09177 0.13673
 C567 C 1.14946 0.13593 0.09613
 C568 C 1.13166 0.11886 0.07912
 C569 C 1.16692 0.14861 0.15132
 C570 C 1.18156 0.16469 0.16721
 C571 C 1.09483 0.07943 0.08232
 C572 C 1.07821 0.06544 0.06788
 H573 H 1.11630 0.15693 0.16084
 H574 H 1.08334 0.12531 0.12934
 H575 H 1.13072 0.04760 0.11996
 H576 H 1.16378 0.07931 0.15155
 H577 H 1.16318 0.15213 0.08459
 H578 H 1.13014 0.12044 0.05301
 C579 C 1.14772 0.63004 0.63165
 C580 C 1.12068 0.63875 0.64139
 C581 C 1.10294 0.62153 0.62458
 C582 C 1.11394 0.59724 0.59962
 C583 C 1.13184 0.57470 0.61885
 C584 C 1.14962 0.59196 0.63571
 C585 C 1.14888 0.63605 0.59503
 C586 C 1.13110 0.61879 0.57817
 C587 C 1.16645 0.64894 0.65008
 C588 C 1.18103 0.66514 0.66591
 C589 C 1.09450 0.57907 0.58175
 C590 C 1.07786 0.56493 0.56752
 H591 H 1.11587 0.65689 0.65991
 H592 H 1.08295 0.62492 0.62869
 H593 H 1.13068 0.54760 0.61913
 H594 H 1.16371 0.57966 0.65045
 H595 H 1.16247 0.65236 0.58338
 H596 H 1.12947 0.62030 0.55207
 C597 C 0.64752 0.13042 0.63111
 C598 C 0.62051 0.13917 0.64097
 C599 C 0.60270 0.12199 0.62423
 C600 C 0.61358 0.09767 0.59921
 C601 C 0.63151 0.07510 0.61836
 C602 C 0.64937 0.09233 0.63515
 C603 C 0.64856 0.13641 0.59449
 C604 C 0.63072 0.11919 0.57771
 C605 C 0.66637 0.14931 0.64945
 C606 C 0.68108 0.16552 0.66514
 C607 C 0.59405 0.07952 0.58135
 C608 C 0.57740 0.06543 0.56704
 H609 H 0.61578 0.15731 0.65952
 H610 H 0.58272 0.12541 0.62845
 H611 H 0.63032 0.04800 0.61867
 H612 H 0.66347 0.07999 0.64983
 H613 H 0.66215 0.15268 0.58276
 H614 H 0.62902 0.12071 0.55161
 C615 C 0.64820 0.63007 0.13150
 C616 C 0.62114 0.63867 0.14125
 C617 C 0.60344 0.62153 0.12431
 C618 C 0.61447 0.59741 0.09922
 C619 C 0.63237 0.57477 0.11836
 C620 C 0.65012 0.59196 0.13535
 C621 C 0.64938 0.63629 0.09492
 C622 C 0.63164 0.61910 0.07794
 C623 C 0.66691 0.64891 0.15006
 C624 C 0.68146 0.66511 0.16596
 C625 C 0.59504 0.57933 0.08121
 C626 C 0.57840 0.56531 0.06686
 H627 H 0.61630 0.65668 0.15987
 H628 H 0.58343 0.62485 0.12842
 H629 H 0.63123 0.54767 0.11851
 H630 H 0.66420 0.57959 0.15006
 H631 H 0.66298 0.65267 0.08338
 H632 H 0.63003 0.62076 0.05184
 C633 C 0.85217 -0.13509 0.12671
 C634 C 0.87924 -0.14447 0.13562
 C635 C 0.89695 -0.12727 0.11863
 C636 C 0.88590 -0.10233 0.09434
 C637 C 0.86848 -0.07983 0.11439
 C638 C 0.85074 -0.09707 0.13142
 C639 C 0.85050 -0.14041 0.09003
 C640 C 0.86826 -0.12316 0.07299
 C641 C 0.83347 -0.15383 0.14548
 C642 C 0.81891 -0.16964 0.16181
 C643 C 0.90534 -0.08397 0.07647
 C644 C 0.92197 -0.06923 0.06270
 H645 H 0.88409 -0.16304 0.15371
 H646 H 0.91695 -0.13112 0.12217
 H647 H 0.86991 -0.05276 0.11509
 H648 H 0.83697 -0.08477 0.14671
 H649 H 0.83659 -0.15626 0.07847
 H650 H 0.86956 -0.12422 0.04682
 C651 C 0.85173 0.36340 0.62742
 C652 C 0.87881 0.35399 0.63628
 C653 C 0.89651 0.37126 0.61935
 C654 C 0.88548 0.39631 0.59515
 C655 C 0.86805 0.41871 0.61529
 C656 C 0.85031 0.40140 0.63226
 C657 C 0.85006 0.35823 0.59071
 C658 C 0.86782 0.37556 0.57373
 C659 C 0.83300 0.34458 0.64615
 C660 C 0.81843 0.32872 0.66245
 C661 C 0.90492 0.41478 0.57733
 C662 C 0.92154 0.42960 0.56356
 H663 H 0.88366 0.33535 0.65430
 H664 H 0.91652 0.36740 0.62287
 H665 H 0.86948 0.44578 0.61609
 H666 H 0.83654 0.41365 0.64759
 H667 H 0.83615 0.34245 0.57910
 H668 H 0.86912 0.37460 0.54756
 C669 C 0.35154 -0.13539 0.62595
 C670 C 0.37860 -0.14579 0.63376
 C671 C 0.39626 -0.12858 0.61672
 C672 C 0.38518 -0.10259 0.59351
 C673 C 0.36850 -0.08025 0.61472
 C674 C 0.35080 -0.09750 0.63179
 C675 C 0.34911 -0.13953 0.58920
 C676 C 0.36683 -0.12226 0.57211
 C677 C 0.33289 -0.15415 0.64477
 C678 C 0.31840 -0.16997 0.66115
 C679 C 0.40457 -0.08422 0.57561
 C680 C 0.42119 -0.06948 0.56183
 H681 H 0.38347 -0.16505 0.65115
 H682 H 0.41626 -0.13309 0.61952
 H683 H 0.37039 -0.05325 0.61614
 H684 H 0.33752 -0.08530 0.64784
 H685 H 0.33474 -0.15462 0.57763
 H686 H 0.36764 -0.12254 0.54590
 C687 C 0.35267 0.36461 0.12776
 C688 C 0.37977 0.35599 0.13724
 C689 C 0.39742 0.37322 0.12018
 C690 C 0.38631 0.39743 0.09525
 C691 C 0.36844 0.41995 0.11462
 C692 C 0.35075 0.40268 0.13171
 C693 C 0.35140 0.35852 0.09116
 C694 C 0.36911 0.37579 0.07405
 C695 C 0.33399 0.34582 0.14658
 C696 C 0.31944 0.32998 0.16292
 C697 C 0.40569 0.41583 0.07728
 C698 C 0.42225 0.43059 0.06336
 H699 H 0.38467 0.33790 0.15575
 H700 H 0.41744 0.36988 0.12409
 H701 H 0.36955 0.44705 0.11483
 H702 H 0.33670 0.41500 0.14656
 H703 H 0.33779 0.34215 0.07970
 H704 H 0.37066 0.37423 0.04794
 C705 C 0.85191 0.13283 -0.12889
 C706 C 0.85171 0.09492 -0.13468
 C707 C 0.86972 0.07819 -0.11778
 C708 C 0.88617 0.10102 -0.09676
 C709 C 0.86760 0.12018 -0.07520
 C710 C 0.84958 0.13692 -0.09211
 C711 C 0.87880 0.14401 -0.13699
 C712 C 0.89678 0.12731 -0.12012
 C713 C 0.83282 0.15107 -0.14737
 C714 C 0.81774 0.16656 -0.16309
 C715 C 0.90583 0.08321 -0.07889
 C716 C 0.92251 0.06893 -0.06488
 H717 H 0.83855 0.08233 -0.15060
 H718 H 0.87199 0.05126 -0.11922
 H719 H 0.86851 0.12053 -0.04900
 H720 H 0.83505 0.15161 -0.08039
 H721 H 0.88332 0.16338 -0.15445
 H722 H 0.91670 0.13238 -0.12314
 C723 C 0.85105 0.63244 0.37292
 C724 C 0.85092 0.59457 0.36692
 C725 C 0.86892 0.57781 0.38381
 C726 C 0.88526 0.60059 0.40501
 C727 C 0.86661 0.61956 0.42660
 C728 C 0.84860 0.63633 0.40971
 C729 C 0.87793 0.64376 0.36499
 C730 C 0.89589 0.62703 0.38184
 C731 C 0.83200 0.65070 0.35444
 C732 C 0.81700 0.66622 0.33866
 C733 C 0.90490 0.58276 0.42282
 C734 C 0.92161 0.56846 0.43672
 H735 H 0.83783 0.58202 0.35088
 H736 H 0.87124 0.55090 0.38224
 H737 H 0.86745 0.61976 0.45281
 H738 H 0.83402 0.65090 0.42144
 H739 H 0.88246 0.66324 0.34764
 H740 H 0.91581 0.63219 0.37893
 C741 C 0.35091 0.13348 0.37135
 C742 C 0.35111 0.09571 0.36477
 C743 C 0.36914 0.07891 0.38157
 C744 C 0.38518 0.10154 0.40329
 C745 C 0.36626 0.11990 0.42498
 C746 C 0.34823 0.13671 0.40817
 C747 C 0.37775 0.14528 0.36386
 C748 C 0.39574 0.12851 0.38063
 C749 C 0.33181 0.15179 0.35297
 C750 C 0.31673 0.16735 0.33729
 C751 C 0.40486 0.08365 0.42104
 C752 C 0.42156 0.06931 0.43494
 H753 H 0.33821 0.08325 0.34841
 H754 H 0.37168 0.05206 0.37961
 H755 H 0.36695 0.11968 0.45120
 H756 H 0.33346 0.15089 0.41998
 H757 H 0.38223 0.16511 0.34687
 H758 H 0.41563 0.13398 0.37800
 C759 C 0.35097 0.63201 -0.12792
 C760 C 0.35033 0.59401 -0.13310
 C761 C 0.36839 0.57728 -0.11630
 C762 C 0.38530 0.60022 -0.09601
 C763 C 0.36720 0.62005 -0.07438
 C764 C 0.34912 0.63678 -0.09118
 C765 C 0.37784 0.64260 -0.13676
 C766 C 0.39587 0.62591 -0.12000
 C767 C 0.33187 0.65024 -0.14629
 C768 C 0.31683 0.66578 -0.16199
 C769 C 0.40501 0.58247 -0.07829
 C770 C 0.42178 0.56829 -0.06441
 H771 H 0.33685 0.58136 -0.14853
 H772 H 0.37040 0.55029 -0.11733
 H773 H 0.36844 0.62083 -0.04820
 H774 H 0.33487 0.65191 -0.07941
 H775 H 0.38232 0.66159 -0.15464
 H776 H 0.41579 0.63059 -0.12352
 C777 C 1.14932 -0.12817 -0.13143
 C778 C 1.12458 -0.12414 -0.15003
 C779 C 1.10654 -0.10742 -0.13323
 C780 C 1.11497 -0.09634 -0.09945
 C781 C 1.13896 -0.07574 -0.10511
 C782 C 1.15704 -0.09250 -0.12195
 C783 C 1.14193 -0.14520 -0.09954
 C784 C 1.12387 -0.12846 -0.08273
 C785 C 1.16842 -0.14658 -0.14970
 C786 C 1.18344 -0.16252 -0.16510
 C787 C 1.09526 -0.07870 -0.08155
 C788 C 1.07850 -0.06489 -0.06723
 H789 H 1.12152 -0.13355 -0.17431
 H790 H 1.08802 -0.10251 -0.14312
 H791 H 1.14150 -0.05027 -0.09664
 H792 H 1.17510 -0.08141 -0.12792
 H793 H 1.15019 -0.16834 -0.09090
 H794 H 1.11666 -0.13725 -0.05968
 C795 C 1.14886 0.37099 0.36914
 C796 C 1.12438 0.37559 0.35011
 C797 C 1.10626 0.39234 0.36675
 C798 C 1.11436 0.40290 0.40083
 C799 C 1.13856 0.42324 0.39588
 C800 C 1.15672 0.40644 0.37919
 C801 C 1.14096 0.35367 0.40068
 C802 C 1.12283 0.37044 0.41733
 C803 C 1.16810 0.35256 0.35103
 C804 C 1.18328 0.33666 0.33580
 C805 C 1.09456 0.42060 0.41861
 C806 C 1.07779 0.43448 0.43288
 H807 H 1.12154 0.36651 0.32566
 H808 H 1.08790 0.39762 0.35656
 H809 H 1.14119 0.44857 0.40468
 H810 H 1.17492 0.41737 0.37371
 H811 H 1.14894 0.33032 0.40920
 H812 H 1.11527 0.36145 0.44013
 C813 C 0.64885 -0.12830 0.36848
 C814 C 0.65065 -0.09014 0.36518
 C815 C 0.63253 -0.07340 0.38197
 C816 C 0.61441 -0.09652 0.40037
 C817 C 0.63130 -0.11832 0.42177
 C818 C 0.64941 -0.13504 0.40500
 C819 C 0.62200 -0.13709 0.35796
 C820 C 0.60392 -0.12040 0.37470
 C821 C 0.66802 -0.14667 0.35025
 C822 C 0.68311 -0.16256 0.33490
 C823 C 0.59465 -0.07888 0.41821
 C824 C 0.57787 -0.06504 0.43247
 H825 H 0.66492 -0.07739 0.35098
 H826 H 0.63125 -0.04631 0.38215
 H827 H 0.62924 -0.12038 0.44780
 H828 H 0.66288 -0.15143 0.41666
 H829 H 0.61758 -0.15488 0.33898
 H830 H 0.58401 -0.12389 0.37006
 C831 C 0.64881 0.37224 -0.13327
 C832 C 0.62409 0.37638 -0.15189
 C833 C 0.60602 0.39303 -0.13505
 C834 C 0.61440 0.40394 -0.10118
 C835 C 0.63840 0.42456 -0.10671
 C836 C 0.65651 0.40787 -0.12360
 C837 C 0.64137 0.35507 -0.10148
 C838 C 0.62329 0.37173 -0.08462
 C839 C 0.66800 0.35390 -0.15158
 C840 C 0.68314 0.33803 -0.16691
 C841 C 0.59466 0.42153 -0.08317
 C842 C 0.57794 0.43530 -0.06869
 H843 H 0.62106 0.36709 -0.17623
 H844 H 0.58752 0.39800 -0.14495
 H845 H 0.64094 0.44998 -0.09813
 H846 H 0.67457 0.41899 -0.12948
 H847 H 0.64961 0.33188 -0.09292
 H848 H 0.61605 0.36282 -0.06162
 C849 C 1.14950 0.12852 -0.13222
 C850 C 1.12327 0.14416 -0.13494
 C851 C 1.10525 0.12736 -0.11812
 C852 C 1.11517 0.09651 -0.10019
 C853 C 1.13664 0.10964 -0.07894
 C854 C 1.15471 0.12649 -0.09579
 C855 C 1.14612 0.09211 -0.14313
 C856 C 1.12806 0.07526 -0.12627
 C857 C 1.16860 0.14703 -0.15051
 C858 C 1.18363 0.16306 -0.16589
 C859 C 1.09546 0.07879 -0.08225
 C860 C 1.07870 0.06499 -0.06784
 H861 H 1.11921 0.16652 -0.14886
 H862 H 1.08575 0.13532 -0.11765
 H863 H 1.13760 0.10598 -0.05297
 H864 H 1.17114 0.13726 -0.08426
 H865 H 1.15699 0.08056 -0.16233
 H866 H 1.12345 0.04928 -0.13103
 C867 C 1.14866 0.62831 0.36818
 C868 C 1.15224 0.59021 0.36779
 C869 C 1.13411 0.57323 0.38444
 C870 C 1.11422 0.59605 0.39982
 C871 C 1.10393 0.61706 0.37179
 C872 C 1.12202 0.63400 0.35517
 C873 C 1.14725 0.63771 0.40409
 C874 C 1.12914 0.62075 0.42073
 C875 C 1.16787 0.64695 0.35012
 C876 C 1.18303 0.66303 0.33497
 C877 C 1.09446 0.57818 0.41761
 C878 C 1.07771 0.56429 0.43200
 H879 H 1.16764 0.57770 0.35556
 H880 H 1.13398 0.54617 0.38648
 H881 H 1.08416 0.61850 0.36551
 H882 H 1.11772 0.64994 0.33467
 H883 H 1.15942 0.65604 0.41547
 H884 H 1.12581 0.62455 0.44636
 C885 C 0.64865 0.12768 0.36644
 C886 C 0.65113 0.08949 0.36444
 C887 C 0.63296 0.07274 0.38122
 C888 C 0.61415 0.09588 0.39830
 C889 C 0.60376 0.11853 0.37156
 C890 C 0.62189 0.13524 0.35483
 C891 C 0.64844 0.13565 0.40272
 C892 C 0.63029 0.11892 0.41948
 C893 C 0.66786 0.14610 0.34827
 C894 C 0.68297 0.16212 0.33303
 C895 C 0.59436 0.07830 0.41619
 C896 C 0.57757 0.06464 0.43065
 H897 H 0.66585 0.07675 0.35109
 H898 H 0.63211 0.04564 0.38225
 H899 H 0.58390 0.12121 0.36622
 H900 H 0.61754 0.15222 0.33515
 H901 H 0.66142 0.15287 0.41424
 H902 H 0.62772 0.12180 0.44537
 C903 C 0.64862 0.62929 -0.13328
 C904 C 0.65225 0.59121 -0.13349
 C905 C 0.63420 0.57428 -0.11666
 C906 C 0.61433 0.59713 -0.10129
 C907 C 0.60392 0.61796 -0.12938
 C908 C 0.62192 0.63485 -0.14617
 C909 C 0.64730 0.63890 -0.09740
 C910 C 0.62928 0.62199 -0.08059
 C911 C 0.66773 0.64788 -0.15153
 C912 C 0.68281 0.66395 -0.16683
 C913 C 0.59465 0.57930 -0.08334
 C914 C 0.57796 0.56540 -0.06886
 H915 H 0.66764 0.57867 -0.14573
 H916 H 0.63413 0.54723 -0.11447
 H917 H 0.58412 0.61931 -0.13556
 H918 H 0.61754 0.65066 -0.16673
 H919 H 0.65949 0.65731 -0.08618
 H920 H 0.62602 0.62591 -0.05496
 C921 C 0.85138 -0.13254 -0.12765
 C922 C 0.87809 -0.14512 -0.13449
 C923 C 0.89619 -0.12852 -0.11769
 C924 C 0.88584 -0.10092 -0.09565
 C925 C 0.86641 -0.11845 -0.07399
 C926 C 0.84827 -0.13509 -0.09083
 C927 C 0.85226 -0.09490 -0.13483
 C928 C 0.87038 -0.07827 -0.11800
 C929 C 0.83216 -0.15065 -0.14608
 C930 C 0.81698 -0.16602 -0.16180
 C931 C 0.90561 -0.08318 -0.07788
 C932 C 0.92236 -0.06886 -0.06400
 H933 H 0.88243 -0.16534 -0.15108
 H934 H 0.91601 -0.13453 -0.11989
 H935 H 0.86684 -0.11782 -0.04777
 H936 H 0.83317 -0.14871 -0.07904
 H937 H 0.83972 -0.08240 -0.15160
 H938 H 0.87337 -0.05152 -0.12035
 C939 C 0.85078 0.36730 0.37278
 C940 C 0.87755 0.35512 0.36566
 C941 C 0.89557 0.37170 0.38258
 C942 C 0.88509 0.39887 0.40500
 C943 C 0.86585 0.38084 0.42654
 C944 C 0.84778 0.36421 0.40957
 C945 C 0.85137 0.40503 0.36605
 C946 C 0.86943 0.42165 0.38301
 C947 C 0.83169 0.34920 0.35421
 C948 C 0.81666 0.33380 0.33832
 C949 C 0.90479 0.41656 0.42286
 C950 C 0.92154 0.43083 0.43675
 H951 H 0.88198 0.33518 0.34879
 H952 H 0.91543 0.36597 0.38022
 H953 H 0.86634 0.38114 0.45276
 H954 H 0.83279 0.35026 0.42125
 H955 H 0.83871 0.41760 0.34949
 H956 H 0.87223 0.44846 0.38098
 C957 C 0.35082 -0.13292 0.37122
 C958 C 0.37773 -0.14301 0.36216
 C959 C 0.39572 -0.12621 0.37898
 C960 C 0.38508 -0.10092 0.40327
 C961 C 0.36716 -0.12124 0.42480
 C962 C 0.34914 -0.13808 0.40794
 C963 C 0.34993 -0.09488 0.36640
 C964 C 0.36795 -0.07805 0.38325
 C965 C 0.33172 -0.15126 0.35279
 C966 C 0.31664 -0.16683 0.33707
 C967 C 0.40475 -0.08299 0.42107
 C968 C 0.42145 -0.06858 0.43498
 H969 H 0.38228 -0.16174 0.34410
 H970 H 0.41566 -0.13057 0.37532
 H971 H 0.36849 -0.12228 0.45096
 H972 H 0.33503 -0.15354 0.41966
 H973 H 0.33633 -0.08227 0.35115
 H974 H 0.36978 -0.05102 0.38243
 C975 C 0.35102 0.36713 -0.12693
 C976 C 0.37791 0.35700 -0.13609
 C977 C 0.39593 0.37369 -0.11926
 C978 C 0.38535 0.39892 -0.09487
 C979 C 0.36744 0.37856 -0.07335
 C980 C 0.34938 0.36183 -0.09022
 C981 C 0.35017 0.40518 -0.13163
 C982 C 0.36823 0.42191 -0.11477
 C983 C 0.33191 0.34892 -0.14539
 C984 C 0.31685 0.33345 -0.16117
 C985 C 0.40506 0.41673 -0.07711
 C986 C 0.42182 0.43109 -0.06332
 H987 H 0.38240 0.33832 -0.15422
 H988 H 0.41586 0.36930 -0.12298
 H989 H 0.36881 0.37743 -0.04720
 H990 H 0.33526 0.34636 -0.07853
 H991 H 0.33656 0.41788 -0.14680
 H992 H 0.37009 0.44893 -0.11549
 C993 C 1.14796 -0.12996 0.13200
 C994 C 1.14987 -0.13499 0.09530
 C995 C 1.13209 -0.11794 0.07828
 C996 C 1.11415 -0.09753 0.09964
 C997 C 1.13129 -0.07488 0.11992
 C998 C 1.14908 -0.09193 0.13694
 C999 C 1.12091 -0.13984 0.14071
 C1000 C 1.10317 -0.12282 0.12373
 C1001 C 1.16674 -0.14865 0.15062
 C1002 C 1.18139 -0.16466 0.16655
 C1003 C 1.09469 -0.07951 0.08158
 C1004 C 1.07810 -0.06539 0.06723
 H1005 H 1.16396 -0.15052 0.08370
 H1006 H 1.13095 -0.11886 0.05210
 H1007 H 1.12964 -0.04784 0.12078
 H1008 H 1.16266 -0.07951 0.15239
 H1009 H 1.11610 -0.15859 0.15868
 H1010 H 1.08317 -0.12700 0.12716
 C1011 C 1.14755 0.36930 0.63185
 C1012 C 1.12050 0.36016 0.64128
 C1013 C 1.10276 0.37729 0.62442
 C1014 C 1.11376 0.40195 0.59974
 C1015 C 1.13115 0.38081 0.57830
 C1016 C 1.14893 0.36364 0.59520
 C1017 C 1.14921 0.40737 0.63620
 C1018 C 1.13143 0.42455 0.61930
 C1019 C 1.16630 0.35048 0.65033
 C1020 C 1.18089 0.33434 0.66619
 C1021 C 1.09430 0.42005 0.58182
 C1022 C 1.07767 0.43416 0.56756
 H1023 H 1.11569 0.34180 0.65962
 H1024 H 1.08276 0.37361 0.62833
 H1025 H 1.12968 0.37952 0.55217
 H1026 H 1.16269 0.34762 0.58354
 H1027 H 1.16315 0.41973 0.65116
 H1028 H 1.13012 0.45163 0.61978
 C1029 C 0.64716 -0.12958 0.63131
 C1030 C 0.62009 -0.13867 0.64074
 C1031 C 0.60236 -0.12158 0.62381
 C1032 C 0.61337 -0.09701 0.59905
 C1033 C 0.63078 -0.11824 0.57771
 C1034 C 0.64854 -0.13537 0.59467
 C1035 C 0.64882 -0.09150 0.63553
 C1036 C 0.63105 -0.07436 0.61856
 C1037 C 0.66591 -0.14837 0.64986
 C1038 C 0.68052 -0.16449 0.66574
 C1039 C 0.59392 -0.07896 0.58103
 C1040 C 0.57731 -0.06488 0.56667
 H1041 H 0.61527 -0.15695 0.65914
 H1042 H 0.58237 -0.12523 0.62773
 H1043 H 0.62931 -0.11963 0.55158
 H1044 H 0.66229 -0.15143 0.58308
 H1045 H 0.66275 -0.07909 0.65047
 H1046 H 0.62975 -0.04728 0.61896
 C1047 C 0.64830 0.37003 0.13024
 C1048 C 0.62125 0.36081 0.13959
 C1049 C 0.60352 0.37788 0.12267
 C1050 C 0.61452 0.40255 0.09801
 C1051 C 0.63199 0.38145 0.07663
 C1052 C 0.64976 0.36434 0.09359
 C1053 C 0.64989 0.40810 0.13458
 C1054 C 0.63212 0.42522 0.11762
 C1055 C 0.66702 0.35128 0.14879
 C1056 C 0.68156 0.33517 0.16472
 C1057 C 0.59507 0.42058 0.08006
 C1058 C 0.57841 0.43467 0.06587
 H1059 H 0.61643 0.34245 0.15793
 H1060 H 0.58352 0.37414 0.12652
 H1061 H 0.63055 0.38013 0.05050
 H1062 H 0.66356 0.34835 0.08200
 H1063 H 0.66378 0.42050 0.14959
 H1064 H 0.63076 0.45229 0.11808
 C1065 C 0.85222 0.13605 0.12603
 C1066 C 0.85036 0.09800 0.13029
 C1067 C 0.86813 0.08074 0.11340
 C1068 C 0.88598 0.10325 0.09394
 C1069 C 0.89699 0.12773 0.11870
 C1070 C 0.87927 0.14495 0.13555
 C1071 C 0.85101 0.14186 0.08939
 C1072 C 0.86879 0.12459 0.07249
 C1073 C 0.83350 0.15481 0.14465
 C1074 C 0.81893 0.17062 0.16087
 C1075 C 0.90543 0.08489 0.07622
 C1076 C 0.92208 0.07018 0.06255
 H1077 H 0.83630 0.08569 0.14518
 H1078 H 0.86929 0.05364 0.11382
 H1079 H 0.91699 0.13125 0.12265
 H1080 H 0.88408 0.16322 0.15393
 H1081 H 0.83738 0.15804 0.07775
 H1082 H 0.87040 0.12597 0.04636
 C1083 C 0.85179 0.63521 0.62756
 C1084 C 0.84853 0.59711 0.62958
 C1085 C 0.86631 0.57976 0.61277
 C1086 C 0.88558 0.60221 0.59561
 C1087 C 0.89647 0.62452 0.62230
 C1088 C 0.87874 0.64184 0.63907
 C1089 C 0.85212 0.64318 0.59126
 C1090 C 0.86990 0.62581 0.57444
 C1091 C 0.83303 0.65409 0.64608
 C1092 C 0.81842 0.67002 0.66217
 C1093 C 0.90504 0.58374 0.57792
 C1094 C 0.92167 0.56900 0.56418
 H1095 H 0.83356 0.58486 0.64296
 H1096 H 0.86656 0.55264 0.61176
 H1097 H 0.91640 0.62656 0.62757
 H1098 H 0.88349 0.65869 0.65870
 H1099 H 0.83949 0.66083 0.57977
 H1100 H 0.87249 0.62859 0.54855
 C1101 C 0.35155 0.13471 0.62711
 C1102 C 0.34699 0.13478 0.59048
 C1103 C 0.36470 0.11754 0.57342
 C1104 C 0.38520 0.10197 0.59471
 C1105 C 0.37098 0.08042 0.61942
 C1106 C 0.35328 0.09764 0.63646
 C1107 C 0.37830 0.14841 0.63130
 C1108 C 0.39596 0.13122 0.61429
 C1109 C 0.33289 0.15346 0.64587
 C1110 C 0.31837 0.16930 0.66216
 C1111 C 0.40459 0.08367 0.57679
 C1112 C 0.42121 0.06909 0.56290
 H1113 H 0.33123 0.14720 0.57897
 H1114 H 0.36413 0.11519 0.54729
 H1115 H 0.37445 0.05396 0.62315
 H1116 H 0.34160 0.08593 0.65480
 H1117 H 0.38296 0.16979 0.64631
 H1118 H 0.41575 0.13789 0.61474
 C1119 C 0.35269 0.63549 0.12818
 C1120 C 0.35075 0.59743 0.13239
 C1121 C 0.36842 0.58009 0.11540
 C1122 C 0.38629 0.60252 0.09586
 C1123 C 0.39743 0.62692 0.12061
 C1124 C 0.37980 0.64422 0.13757
 C1125 C 0.35141 0.64133 0.09154
 C1126 C 0.36909 0.62399 0.07453
 C1127 C 0.33403 0.65437 0.14688
 C1128 C 0.31948 0.67031 0.16307
 C1129 C 0.40565 0.58408 0.07794
 C1130 C 0.42221 0.56940 0.06400
 H1131 H 0.33670 0.58517 0.14734
 H1132 H 0.36951 0.55299 0.11579
 H1133 H 0.41745 0.63033 0.12447
 H1134 H 0.38473 0.66243 0.15595
 H1135 H 0.33780 0.65759 0.07998
 H1136 H 0.37062 0.62539 0.04840
   
