data_POSCAR
  _audit_creation_date              2014-09-24
  _audit_creation_method            'ToBaCCo'
  _symmetry_space_group_name_H-M    'P1'
  _symmetry_Int_Tables_number       1
  _symmetry_cell_setting            triclinic
  loop_
  _symmetry_equiv_pos_as_xyz
 x,y,z
_cell_length_a 50.0340
_cell_length_b 49.9510
_cell_length_c 50.0542
_cell_angle_alpha 89.927300
_cell_angle_beta 90.011800
_cell_angle_gamma 89.949100
loop_
  _atom_site_label
  _atom_site_type_symbol
  _atom_site_fract_x
  _atom_site_fract_y
  _atom_site_fract_z
N1 N 0.14833 0.16362 0.22110
 N2 N 0.16696 0.14503 0.22015
 C3 C 0.16352 0.12795 0.24076
 C4 C 0.14163 0.13647 0.25516
 C5 C 0.13240 0.15906 0.24230
 H6 H 0.17601 0.11079 0.24508
 H7 H 0.11541 0.17121 0.24791
 Cu8 Cu 0.19419 0.14554 0.19236
 Cu9 Cu 0.14576 0.19217 0.19463
 Cu10 Cu 0.19024 0.18918 0.14158
 N11 N 0.22085 0.14596 0.16400
 N12 N 0.21937 0.16339 0.14431
 C13 C 0.23996 0.15942 0.12742
 C14 C 0.25499 0.13844 0.13719
 C15 C 0.24248 0.13027 0.16034
 H16 H 0.24358 0.17080 0.10938
 H17 H 0.24862 0.11412 0.17338
 N18 N 0.16319 0.21768 0.14528
 N19 N 0.14639 0.21894 0.16561
 C20 C 0.13057 0.24058 0.16256
 C21 C 0.13787 0.25341 0.13933
 C22 C 0.15858 0.23858 0.12883
 H23 H 0.11489 0.24659 0.17615
 H24 H 0.16949 0.24277 0.11065
 H25 H 0.16169 0.16949 0.16481
 H26 H 0.18535 0.19237 0.18236
 N27 N -0.14852 0.83477 0.22191
 N28 N -0.16731 0.85323 0.22189
 C29 C -0.16358 0.86956 0.24298
 C30 C -0.14132 0.86081 0.25669
 C31 C -0.13221 0.83873 0.24294
 H32 H -0.17611 0.88643 0.24812
 H33 H -0.11513 0.82642 0.24794
 Cu34 Cu -0.19500 0.85376 0.19446
 Cu35 Cu -0.14680 0.80680 0.19497
 Cu36 Cu -0.19592 0.80719 0.14605
 N37 N -0.22243 0.85378 0.16677
 N38 N -0.22265 0.83541 0.14794
 C39 C -0.24360 0.83973 0.13160
 C40 C -0.25707 0.86196 0.14074
 C41 C -0.24333 0.87045 0.16305
 H42 H -0.24869 0.82757 0.11446
 H43 H -0.24827 0.88735 0.17560
 N44 N -0.16715 0.78021 0.14741
 N45 N -0.14841 0.78009 0.16601
 C46 C -0.13188 0.75921 0.16167
 C47 C -0.14072 0.74576 0.13938
 C48 C -0.16303 0.75941 0.13076
 H49 H -0.11477 0.75404 0.17383
 H50 H -0.17533 0.75444 0.11372
 H51 H -0.16569 0.82812 0.16499
 H52 H -0.18708 0.80628 0.18635
 N53 N -0.14853 0.16707 -0.22244
 N54 N -0.16717 0.14850 -0.22243
 C55 C -0.16331 0.13219 -0.24353
 C56 C -0.14121 0.14118 -0.25732
 C57 C -0.13226 0.16328 -0.24353
 H58 H -0.17559 0.11511 -0.24854
 H59 H -0.11519 0.17560 -0.24845
 Cu60 Cu -0.19458 0.14767 -0.19477
 Cu61 Cu -0.14661 0.19468 -0.19506
 Cu62 Cu -0.19478 0.19311 -0.14527
 N63 N -0.22137 0.14674 -0.16653
 N64 N -0.22135 0.16469 -0.14728
 C65 C -0.24190 0.15980 -0.13061
 C66 C -0.25532 0.13763 -0.13994
 C67 C -0.24194 0.12974 -0.16269
 H68 H -0.24676 0.17152 -0.11310
 H69 H -0.24693 0.11304 -0.17548
 N70 N -0.16621 0.22029 -0.14667
 N71 N -0.14788 0.22090 -0.16566
 C72 C -0.13132 0.24168 -0.16118
 C73 C -0.13969 0.25459 -0.13837
 C74 C -0.16177 0.24068 -0.12960
 H75 H -0.11446 0.24712 -0.17356
 H76 H -0.17368 0.24516 -0.11215
 H77 H -0.16506 0.17276 -0.16525
 H78 H -0.18692 0.19508 -0.18569
 N79 N 0.15043 0.83344 -0.22166
 N80 N 0.16994 0.85106 -0.22183
 C81 C 0.16539 0.86912 -0.24134
 C82 C 0.14179 0.86234 -0.25385
 C83 C 0.13282 0.83961 -0.24104
 H84 H 0.17853 0.88557 -0.24638
 H85 H 0.11513 0.82811 -0.24583
 Cu86 Cu 0.19997 0.84809 -0.19733
 Cu87 Cu 0.15038 0.80286 -0.19753
 Cu88 Cu 0.19310 0.80818 -0.14335
 N89 N 0.22330 0.85129 -0.16648
 N90 N 0.22016 0.83613 -0.14519
 C91 C 0.23908 0.84233 -0.12708
 C92 C 0.25468 0.86242 -0.13770
 C93 C 0.24433 0.86768 -0.16268
 H94 H 0.24167 0.83255 -0.10794
 H95 H 0.25171 0.88202 -0.17712
 N96 N 0.16458 0.78102 -0.14558
 N97 N 0.14855 0.77881 -0.16643
 C98 C 0.13209 0.75781 -0.16265
 C99 C 0.13821 0.74634 -0.13836
 C100 C 0.15883 0.76137 -0.12802
 H101 H 0.11709 0.75109 -0.17667
 H102 H 0.16924 0.75784 -0.10941
 H103 H 0.16647 0.82737 -0.16883
 H104 H 0.18967 0.80206 -0.18344
 N105 N 0.16457 1.14530 0.78100
 N106 N 0.14657 1.16450 0.78014
 C107 C 0.12998 1.16005 0.75942
 C108 C 0.13814 1.13692 0.74687
 C109 C 0.16008 1.12801 0.76090
 H110 H 0.11336 1.17269 0.75373
 H111 H 0.17199 1.11044 0.75665
 Cu112 Cu 0.14663 1.19356 0.80596
 Cu113 Cu 0.19266 1.14436 0.80777
 Cu114 Cu 0.19261 1.19488 0.85509
 N115 N 0.14638 1.22115 0.83333
 N116 N 0.16441 1.22154 0.85246
 C117 C 0.15965 1.24251 0.86863
 C118 C 0.13751 1.25579 0.85907
 C119 C 0.12948 1.24189 0.83672
 H120 H 0.17136 1.24770 0.88603
 H121 H 0.11262 1.24654 0.82400
 N122 N 0.21948 1.16611 0.85444
 N123 N 0.21947 1.14683 0.83640
 C124 C 0.24035 1.13044 0.84104
 C125 C 0.25393 1.13994 0.86297
 C126 C 0.24037 1.16249 0.87105
 H127 H 0.24549 1.11304 0.82928
 H128 H 0.24551 1.17535 0.88763
 H129 H 0.17119 1.16471 0.83667
 H130 H 0.19382 1.18508 0.81501
 N131 N 0.83402 0.85293 0.77785
 N132 N 0.85213 0.83382 0.77809
 C133 C 0.86885 0.83737 0.75728
 C134 C 0.86062 0.85978 0.74350
 C135 C 0.83854 0.86924 0.75692
 H136 H 0.88573 0.82471 0.75251
 H137 H 0.82673 0.88667 0.75185
 Cu138 Cu 0.85227 0.80632 0.80559
 Cu139 Cu 0.80608 0.85539 0.80467
 Cu140 Cu 0.80662 0.80768 0.85496
 N141 N 0.85267 0.78024 0.83445
 N142 N 0.83481 0.78091 0.85372
 C143 C 0.83959 0.76073 0.87092
 C144 C 0.86159 0.74687 0.86188
 C145 C 0.86948 0.75960 0.83877
 H146 H 0.82791 0.75639 0.88859
 H147 H 0.88610 0.75413 0.82609
 N148 N 0.77970 0.83635 0.85279
 N149 N 0.77948 0.85454 0.83360
 C150 C 0.75861 0.87115 0.83744
 C151 C 0.74527 0.86294 0.86004
 C152 C 0.75897 0.84092 0.86934
 H153 H 0.75334 0.88784 0.82470
 H154 H 0.75403 0.82905 0.88672
 H155 H 0.82779 0.83689 0.83462
 H156 H 0.80512 0.81521 0.81437
 N157 N 0.16631 0.85343 1.22042
 N158 N 0.14880 0.83383 1.22148
 C159 C 0.13233 0.83792 1.24237
 C160 C 0.14006 0.86124 1.25483
 C161 C 0.16162 0.87063 1.24056
 H162 H 0.11607 0.82492 1.24821
 H163 H 0.17311 0.88849 1.24465
 Cu164 Cu 0.14923 0.80481 1.19559
 Cu165 Cu 0.19407 0.85502 1.19334
 Cu166 Cu 0.19461 0.80465 1.14587
 N167 N 0.14929 0.77734 1.16809
 N168 N 0.16705 0.77741 1.14872
 C169 C 0.16242 0.75652 1.13240
 C170 C 0.14064 0.74280 1.14214
 C171 C 0.13269 0.75638 1.16472
 H172 H 0.17390 0.75174 1.11473
 H173 H 0.11603 0.75141 1.17756
 N174 N 0.22086 0.83396 1.14632
 N175 N 0.22061 0.85319 1.16441
 C176 C 0.24099 0.87011 1.15951
 C177 C 0.25449 0.86100 1.13738
 C178 C 0.24141 0.83813 1.12943
 H179 H 0.24578 0.88765 1.17120
 H180 H 0.24660 0.82548 1.11270
 H181 H 0.17271 0.83428 1.16466
 H182 H 0.19610 0.81435 1.18598
 N183 N 0.83404 1.14705 1.22150
 N184 N 0.85220 1.16609 1.22145
 C185 C 0.86882 1.16238 1.24231
 C186 C 0.86050 1.13991 1.25595
 C187 C 0.83846 1.13061 1.24237
 H188 H 0.88567 1.17498 1.24725
 H189 H 0.82656 1.11323 1.24732
 Cu190 Cu 0.85248 1.19378 1.19411
 Cu191 Cu 0.80610 1.14496 1.19460
 Cu192 Cu 0.80675 1.19319 1.14480
 N193 N 0.85302 1.22010 1.16546
 N194 N 0.83505 1.21976 1.14627
 C195 C 0.83999 1.23994 1.12912
 C196 C 0.86220 1.25345 1.13809
 C197 C 0.87006 1.24054 1.16113
 H198 H 0.82832 1.24446 1.11148
 H199 H 0.88685 1.24568 1.17371
 N200 N 0.77972 1.16465 1.14668
 N201 N 0.77950 1.14622 1.16563
 C202 C 0.75876 1.12956 1.16141
 C203 C 0.74551 1.13801 1.13882
 C204 C 0.75913 1.16022 1.12992
 H205 H 0.75361 1.11258 1.17380
 H206 H 0.75433 1.17219 1.11256
 H207 H 0.82778 1.16368 1.16486
 H208 H 0.80524 1.18527 1.18538
 N209 N 0.47204 1.04813 1.02811
 N210 N 0.45135 1.06434 1.03086
 N211 N 0.52809 1.02902 1.04681
 N212 N 0.54880 1.03171 1.06292
 N213 N 0.52833 1.04758 1.02820
 N214 N 0.54921 1.06345 1.03113
 N215 N 0.47180 1.02950 1.04665
 N216 N 0.45096 1.03252 1.06256
 C217 C 0.43854 1.05436 1.05247
 C218 C 0.56162 1.05329 1.05289
 N219 N 0.52774 0.95287 1.02831
 N220 N 0.54827 0.93653 1.03146
 N221 N 0.47149 0.97183 1.04671
 N222 N 0.45065 0.96908 1.06265
 N223 N 0.47150 0.95321 1.02821
 N224 N 0.45067 0.93726 1.03101
 N225 N 0.52774 0.97144 1.04687
 N226 N 0.54827 0.96827 1.06314
 Mn227 Mn 0.49977 1.00045 1.04709
 C228 C 0.56075 0.94641 1.05327
 C229 C 0.43802 0.94741 1.05259
 N230 N 0.52847 1.04756 0.97063
 N231 N 0.54933 1.06346 0.96760
 N232 N 0.47196 1.02950 0.95215
 N233 N 0.45126 1.03265 0.93609
 N234 N 0.47220 1.04813 0.97064
 N235 N 0.45167 1.06447 0.96772
 N236 N 0.52822 1.02899 0.95207
 N237 N 0.54891 1.03172 0.93592
 Mn238 Mn 0.50028 1.04818 0.99939
 C239 C 0.56175 1.05332 0.94586
 C240 C 0.43896 1.05456 0.94607
 N241 N 0.47141 0.95320 0.97078
 N242 N 0.45059 0.93723 0.96793
 N243 N 0.52769 0.97141 0.95214
 N244 N 0.54828 0.96833 0.93597
 N245 N 0.52768 0.95285 0.97075
 N246 N 0.54827 0.93658 0.96775
 N247 N 0.47142 0.97183 0.95224
 N248 N 0.45062 0.96904 0.93624
 Mn249 Mn 0.49960 0.95270 0.99951
 Mn250 Mn 0.49980 1.00043 0.95182
 Cl251 Cl 0.49987 1.00044 0.99945
 C252 C 0.43795 0.94735 0.94629
 C253 C 0.56077 0.94652 0.94596
 N254 N 0.04644 0.47197 -0.02826
 N255 N 0.06253 0.45125 -0.03138
 N256 N 0.02820 0.52853 -0.04665
 N257 N 0.03148 0.54913 -0.06286
 N258 N 0.04671 0.52833 -0.02803
 N259 N 0.06310 0.54882 -0.03105
 N260 N 0.02795 0.47224 -0.04689
 N261 N 0.03092 0.45173 -0.06321
 C262 C 0.05256 0.43898 -0.05327
 C263 C 0.05333 0.56147 -0.05286
 N264 N -0.04799 0.52870 -0.02846
 N265 N -0.06392 0.54959 -0.03131
 N266 N -0.02952 0.47238 -0.04714
 N267 N -0.03224 0.45155 -0.06312
 N268 N -0.04816 0.47234 -0.02867
 N269 N -0.06410 0.45149 -0.03157
 N270 N -0.02933 0.52874 -0.04690
 N271 N -0.03202 0.54964 -0.06284
 Mn272 Mn -0.00068 0.50048 -0.04721
 C273 C -0.05370 0.56229 -0.05286
 C274 C -0.05394 0.43887 -0.05318
 N275 N 0.04646 0.52799 0.02954
 N276 N 0.06285 0.54842 0.03288
 N277 N 0.02757 0.47166 0.04780
 N278 N 0.03044 0.45096 0.06398
 N279 N 0.04621 0.47160 0.02932
 N280 N 0.06229 0.45085 0.03241
 N281 N 0.02778 0.52800 0.04798
 N282 N 0.03093 0.54841 0.06440
 Mn283 Mn 0.04680 0.49997 0.00064
 C284 C 0.05287 0.56082 0.05470
 C285 C 0.05218 0.43828 0.05412
 N286 N -0.04840 0.47211 0.02881
 N287 N -0.06413 0.45105 0.03117
 N288 N -0.02978 0.52837 0.04766
 N289 N -0.03276 0.54909 0.06376
 N290 N -0.04827 0.52848 0.02902
 N291 N -0.06434 0.54926 0.03191
 N292 N -0.02993 0.47197 0.04746
 N293 N -0.03256 0.45079 0.06303
 Mn294 Mn -0.04854 0.50041 0.00018
 Mn295 Mn -0.00110 0.50001 0.04805
 Cl296 Cl -0.00087 0.50023 0.00042
 C297 C -0.05403 0.43813 0.05265
 C298 C -0.05442 0.56178 0.05368
 N299 N 0.95428 -0.02857 0.47207
 N300 N 0.93766 -0.03194 0.45187
 N301 N 0.97276 -0.04701 0.52835
 N302 N 0.96950 -0.06329 0.54887
 N303 N 0.95432 -0.02828 0.52828
 N304 N 0.93798 -0.03127 0.54876
 N305 N 0.97271 -0.04731 0.47215
 N306 N 0.96913 -0.06397 0.45198
 C307 C 0.94720 -0.05407 0.43963
 C308 C 0.94775 -0.05319 0.56128
 N309 N 1.04892 -0.02890 0.52843
 N310 N 1.06482 -0.03163 0.54931
 N311 N 1.03030 -0.04768 0.47225
 N312 N 1.03310 -0.06384 0.45158
 N313 N 1.04898 -0.02923 0.47219
 N314 N 1.06503 -0.03229 0.45149
 N315 N 1.03027 -0.04739 0.52854
 N316 N 1.03295 -0.06322 0.54954
 Mn317 Mn 1.00152 -0.04768 0.50031
 C318 C 1.05462 -0.05314 0.56215
 C319 C 1.05487 -0.05397 0.43899
 N320 N 0.95464 0.02941 0.52795
 N321 N 0.93810 0.03303 0.54819
 N322 N 0.97335 0.04753 0.47159
 N323 N 0.97025 0.06382 0.45103
 N324 N 0.95466 0.02908 0.47173
 N325 N 0.93832 0.03228 0.45126
 N326 N 0.97329 0.04790 0.52782
 N327 N 0.96997 0.06461 0.54798
 Mn328 Mn 0.95415 0.00041 0.50002
 C329 C 0.94796 0.05504 0.56040
 C330 C 0.94834 0.05402 0.43868
 N331 N 1.04937 0.02834 0.47175
 N332 N 1.06568 0.03110 0.45120
 N333 N 1.03086 0.04741 0.52783
 N334 N 1.03372 0.06343 0.54859
 N335 N 1.04929 0.02867 0.52796
 N336 N 1.06522 0.03141 0.54880
 N337 N 1.03094 0.04708 0.47154
 N338 N 1.03421 0.06314 0.45081
 Mn339 Mn 1.04946 -0.00029 0.50008
 Mn340 Mn 1.00213 0.04782 0.49968
 Cl341 Cl 1.00180 0.00007 0.50002
 C342 C 1.05597 0.05290 0.43845
 C343 C 1.05527 0.05320 0.56130
 C344 C 1.08808 0.08326 0.36955
 C345 C 1.10771 0.06855 0.35540
 C346 C 1.11887 0.07919 0.33152
 C347 C 1.11043 0.10453 0.32198
 C348 C 1.09077 0.11921 0.33611
 C349 C 1.07954 0.10854 0.35993
 C350 C 1.05989 0.12358 0.37367
 C351 C 1.05156 0.14844 0.36415
 C352 C 1.06256 0.15890 0.34089
 C353 C 1.08195 0.14455 0.32695
 C354 C 1.13838 0.06408 0.31768
 C355 C 1.14669 0.03919 0.32719
 C356 C 1.13588 0.02885 0.35061
 C357 C 1.11657 0.04325 0.36461
 C358 C 1.12198 0.11561 0.29772
 C359 C 1.13134 0.12522 0.27767
 C360 C 1.07668 0.07246 0.39400
 C361 C 1.06719 0.06357 0.41431
 H362 H 1.05075 0.11630 0.39188
 H363 H 1.03649 0.15966 0.37490
 H364 H 1.05603 0.17824 0.33358
 H365 H 1.08990 0.15355 0.30896
 H366 H 1.14741 0.07131 0.29940
 H367 H 1.16160 0.02787 0.31634
 H368 H 1.14238 0.00950 0.35790
 H369 H 1.10868 0.03432 0.38266
 C370 C 0.91369 -0.08575 0.37204
 C371 C 0.90552 -0.11288 0.37136
 C372 C 0.89405 -0.12364 0.34772
 C373 C 0.89085 -0.10724 0.32483
 C374 C 0.89881 -0.08005 0.32557
 C375 C 0.91022 -0.06927 0.34925
 C376 C 0.91791 -0.04200 0.34954
 C377 C 0.91445 -0.02586 0.32708
 C378 C 0.90340 -0.03641 0.30391
 C379 C 0.89561 -0.06318 0.30305
 C380 C 0.88598 -0.15079 0.34756
 C381 C 0.88919 -0.16688 0.37009
 C382 C 0.90044 -0.15638 0.39320
 C383 C 0.90854 -0.12970 0.39395
 C384 C 0.87941 -0.11839 0.30057
 C385 C 0.86994 -0.12782 0.28052
 C386 C 0.92566 -0.07477 0.39613
 C387 C 0.93556 -0.06546 0.41603
 H388 H 0.92659 -0.03285 0.36709
 H389 H 0.92035 -0.00505 0.32769
 H390 H 0.90080 -0.02377 0.28651
 H391 H 0.88703 -0.07046 0.28459
 H392 H 0.87707 -0.15988 0.33008
 H393 H 0.88290 -0.18760 0.36962
 H394 H 0.90290 -0.16896 0.41065
 H395 H 0.91713 -0.12243 0.41240
 C396 C 0.91514 0.08787 0.62783
 C397 C 0.93007 0.08870 0.65186
 C398 C 0.91844 0.09955 0.67541
 C399 C 0.89196 0.10957 0.67481
 C400 C 0.87709 0.10891 0.65073
 C401 C 0.88871 0.09804 0.62719
 C402 C 0.87345 0.09763 0.60338
 C403 C 0.84745 0.10766 0.60284
 C404 C 0.83610 0.11827 0.62584
 C405 C 0.85065 0.11895 0.64957
 C406 C 0.93376 0.10011 0.69918
 C407 C 0.95983 0.09026 0.69968
 C408 C 0.97120 0.07969 0.67666
 C409 C 0.95659 0.07886 0.65297
 C410 C 0.88005 0.12064 0.69890
 C411 C 0.87026 0.12992 0.71888
 C412 C 0.92687 0.07636 0.60386
 C413 C 0.93653 0.06669 0.58400
 H414 H 0.88141 0.08960 0.58496
 H415 H 0.83607 0.10719 0.58445
 H416 H 0.81590 0.12604 0.62531
 H417 H 0.84095 0.12741 0.66694
 H418 H 0.92579 0.10815 0.71760
 H419 H 0.97125 0.09085 0.71804
 H420 H 0.99147 0.07209 0.67715
 H421 H 0.96632 0.07047 0.63558
 C422 C 1.08545 -0.08338 0.63172
 C423 C 1.09357 -0.11053 0.63272
 C424 C 1.10506 -0.12109 0.65648
 C425 C 1.10839 -0.10446 0.67914
 C426 C 1.10008 -0.07736 0.67821
 C427 C 1.08848 -0.06682 0.65446
 C428 C 1.08011 -0.03974 0.65411
 C429 C 1.08309 -0.02355 0.67656
 C430 C 1.09466 -0.03378 0.69967
 C431 C 1.10308 -0.06037 0.70061
 C432 C 1.11305 -0.14829 0.65695
 C433 C 1.10976 -0.16459 0.63462
 C434 C 1.09849 -0.15427 0.61142
 C435 C 1.09045 -0.12757 0.61036
 C436 C 1.12024 -0.11540 0.70332
 C437 C 1.13009 -0.12519 0.72305
 C438 C 1.07430 -0.07250 0.60718
 C439 C 1.06524 -0.06365 0.58665
 H440 H 1.07111 -0.03084 0.63655
 H441 H 1.07647 -0.00292 0.67598
 H442 H 1.09708 -0.02105 0.71699
 H443 H 1.11191 -0.06745 0.71905
 H444 H 1.12190 -0.15728 0.67453
 H445 H 1.11598 -0.18534 0.63535
 H446 H 1.09595 -0.16701 0.59413
 H447 H 1.08175 -0.12050 0.59186
 C448 C 0.36897 1.08496 1.08295
 C449 C 0.35334 1.10310 1.06777
 C450 C 0.32947 1.11396 1.07877
 C451 C 0.32141 1.10670 1.10492
 C452 C 0.33689 1.08834 1.11998
 C453 C 0.36069 1.07739 1.10895
 C454 C 0.37575 1.05899 1.12436
 C455 C 0.36753 1.05161 1.14992
 C456 C 0.34432 1.06238 1.16074
 C457 C 0.32911 1.08055 1.14604
 C458 C 0.31415 1.13198 1.06318
 C459 C 0.32219 1.13912 1.03749
 C460 C 0.34558 1.12861 1.02680
 C461 C 0.36102 1.11075 1.04164
 C462 C 0.29731 1.11822 1.11640
 C463 C 0.27740 1.12775 1.12611
 C464 C 0.39363 1.07420 1.07195
 C465 C 0.41415 1.06520 1.06300
 H466 H 0.39396 1.05007 1.11683
 H467 H 0.37926 1.03746 1.16141
 H468 H 0.33805 1.05661 1.18063
 H469 H 0.31120 1.08837 1.15532
 H470 H 0.29582 1.14072 1.07065
 H471 H 0.31020 1.15289 1.02582
 H472 H 0.35172 1.13420 1.00681
 H473 H 0.37897 1.10299 1.03239
 C474 C 0.36859 0.91669 0.91557
 C475 C 0.34595 0.91305 0.93217
 C476 C 0.32205 0.90206 0.92140
 C477 C 0.32091 0.89482 0.89408
 C478 C 0.34349 0.89861 0.87745
 C479 C 0.36739 0.90954 0.88822
 C480 C 0.38971 0.91304 0.87119
 C481 C 0.38846 0.90593 0.84431
 C482 C 0.36509 0.89527 0.83377
 C483 C 0.34279 0.89163 0.85005
 C484 C 0.29973 0.89856 0.93840
 C485 C 0.30093 0.90577 0.96527
 C486 C 0.32425 0.91660 0.97577
 C487 C 0.34659 0.92018 0.95953
 C488 C 0.29667 0.88328 0.88303
 C489 C 0.27681 0.87355 0.87345
 C490 C 0.39313 0.92764 0.92658
 C491 C 0.41358 0.93666 0.93559
 H492 H 0.40834 0.92129 0.87844
 H493 H 0.40573 0.90870 0.83158
 H494 H 0.36421 0.88979 0.81288
 H495 H 0.32506 0.88331 0.84090
 H496 H 0.28113 0.89027 0.93112
 H497 H 0.28367 0.90297 0.97799
 H498 H 0.32505 0.92224 0.99663
 H499 H 0.36429 0.92860 0.96864
 C500 C 0.62920 0.91509 1.08549
 C501 C 0.63008 0.88785 1.09330
 C502 C 0.65372 0.87712 1.10490
 C503 C 0.67636 0.89370 1.10866
 C504 C 0.67552 0.92093 1.10076
 C505 C 0.65190 0.93163 1.08905
 C506 C 0.65164 0.95882 1.08103
 C507 C 0.67409 0.97495 1.08438
 C508 C 0.69708 0.96457 1.09606
 C509 C 0.69789 0.93790 1.10423
 C510 C 0.65412 0.84981 1.11248
 C511 C 0.63184 0.83355 1.10865
 C512 C 0.60874 0.84403 1.09730
 C513 C 0.60774 0.87086 1.08970
 C514 C 0.70055 0.88260 1.12038
 C515 C 0.72051 0.87303 1.13002
 C516 C 0.60493 0.92612 1.07391
 C517 C 0.58476 0.93532 1.06442
 H518 H 0.63417 0.96786 1.07199
 H519 H 0.67361 0.99564 1.07794
 H520 H 0.71440 0.97725 1.09876
 H521 H 0.71623 0.93072 1.11320
 H522 H 0.67162 0.84072 1.12141
 H523 H 0.63252 0.81269 1.11452
 H524 H 0.59149 0.83130 1.09434
 H525 H 0.58932 0.87808 1.08095
 C526 C 0.63112 1.08362 0.91463
 C527 C 0.64671 1.06807 0.89683
 C528 C 0.67054 1.07888 0.88571
 C529 C 0.67860 1.10521 0.89235
 C530 C 0.66313 1.12067 0.91033
 C531 C 0.63936 1.10984 0.92152
 C532 C 0.62426 1.12569 0.93946
 C533 C 0.63241 1.15150 0.94615
 C534 C 0.65562 1.16210 0.93518
 C535 C 0.67087 1.14697 0.91746
 C536 C 0.68581 1.06292 0.86803
 C537 C 0.67772 1.03706 0.86143
 C538 C 0.65435 1.02657 0.87216
 C539 C 0.63898 1.04177 0.88973
 C540 C 0.70263 1.11654 0.88055
 C541 C 0.72245 1.12629 0.87085
 C542 C 0.60654 1.07277 0.92572
 C543 C 0.58609 1.06388 0.93492
 H544 H 0.60605 1.11834 0.94852
 H545 H 0.62063 1.16333 0.95992
 H546 H 0.66185 1.18217 0.94042
 H547 H 0.68878 1.15610 0.90947
 H548 H 0.70413 1.07022 0.85915
 H549 H 0.68966 1.02512 0.84790
 H550 H 0.64815 1.00648 0.86696
 H551 H 0.62104 1.03267 0.89768
 C552 C 0.08325 0.36936 0.08591
 C553 C 0.06810 0.34541 0.08590
 C554 C 0.07907 0.32160 0.09703
 C555 C 0.10517 0.32183 0.10800
 C556 C 0.12028 0.34579 0.10807
 C557 C 0.10929 0.36961 0.09700
 C558 C 0.12480 0.39330 0.09731
 C559 C 0.15042 0.39346 0.10823
 C560 C 0.16115 0.37017 0.11905
 C561 C 0.14635 0.34656 0.11903
 C562 C 0.06351 0.29795 0.09687
 C563 C 0.03789 0.29778 0.08592
 C564 C 0.02724 0.32101 0.07491
 C565 C 0.04204 0.34463 0.07491
 C566 C 0.11658 0.29745 0.11909
 C567 C 0.12626 0.27732 0.12831
 C568 C 0.07210 0.39373 0.07454
 C569 C 0.06299 0.41405 0.06518
 H570 H 0.11733 0.41191 0.08913
 H571 H 0.16200 0.41175 0.10830
 H572 H 0.18106 0.37040 0.12752
 H573 H 0.15558 0.32898 0.12770
 H574 H 0.07095 0.27937 0.10518
 H575 H 0.02626 0.27952 0.08596
 H576 H 0.00734 0.32077 0.06642
 H577 H 0.03284 0.36222 0.06622
 C578 C -0.08380 0.36888 -0.08335
 C579 C -0.10216 0.35358 -0.06815
 C580 C -0.11331 0.32981 -0.07905
 C581 C -0.10607 0.32148 -0.10511
 C582 C -0.08722 0.33644 -0.12004
 C583 C -0.07600 0.36016 -0.10910
 C584 C -0.05708 0.37467 -0.12435
 C585 C -0.04948 0.36602 -0.14969
 C586 C -0.06051 0.34288 -0.16042
 C587 C -0.07919 0.32820 -0.14588
 C588 C -0.13156 0.31483 -0.06344
 C589 C -0.13849 0.32303 -0.03775
 C590 C -0.12760 0.34627 -0.02709
 C591 C -0.10968 0.36148 -0.04205
 C592 C -0.11806 0.29763 -0.11663
 C593 C -0.12797 0.27794 -0.12643
 C594 C -0.07315 0.39369 -0.07261
 C595 C -0.06438 0.41433 -0.06375
 H596 H -0.04788 0.39275 -0.11683
 H597 H -0.03496 0.37734 -0.16107
 H598 H -0.05454 0.33625 -0.18012
 H599 H -0.08717 0.31031 -0.15507
 H600 H -0.14054 0.29659 -0.07086
 H601 H -0.15237 0.31125 -0.02604
 H602 H -0.13303 0.35253 -0.00711
 H603 H -0.10171 0.37939 -0.03289
 C604 C 0.08474 0.63036 -0.08412
 C605 C 0.06777 0.65242 -0.08955
 C606 C 0.07854 0.67626 -0.10077
 C607 C 0.10625 0.67799 -0.10629
 C608 C 0.12323 0.65597 -0.10071
 C609 C 0.11245 0.63210 -0.08961
 C610 C 0.12983 0.61038 -0.08419
 C611 C 0.15709 0.61218 -0.08959
 C612 C 0.16763 0.63550 -0.10047
 C613 C 0.15100 0.65721 -0.10601
 C614 C 0.06113 0.69795 -0.10620
 C615 C 0.03393 0.69625 -0.10045
 C616 C 0.02347 0.67306 -0.08923
 C617 C 0.04007 0.65128 -0.08392
 C618 C 0.11732 0.70240 -0.11759
 C619 C 0.12673 0.72254 -0.12702
 C620 C 0.07368 0.60588 -0.07298
 C621 C 0.06445 0.58558 -0.06378
 H622 H 0.12258 0.59182 -0.07572
 H623 H 0.17009 0.59539 -0.08531
 H624 H 0.18882 0.63680 -0.10464
 H625 H 0.16015 0.67491 -0.11447
 H626 H 0.06835 0.71643 -0.11488
 H627 H 0.02091 0.71306 -0.10467
 H628 H 0.00237 0.67193 -0.08461
 H629 H 0.03096 0.63364 -0.07529
 C630 C -0.08562 0.63112 0.08418
 C631 C -0.07104 0.64601 0.10332
 C632 C -0.08221 0.66972 0.11437
 C633 C -0.10789 0.67843 0.10620
 C634 C -0.12228 0.66379 0.08674
 C635 C -0.11111 0.64008 0.07568
 C636 C -0.12587 0.62582 0.05621
 C637 C -0.15092 0.63474 0.04788
 C638 C -0.16185 0.65790 0.05871
 C639 C -0.14780 0.67232 0.07794
 C640 C -0.06725 0.68425 0.13348
 C641 C -0.04196 0.67564 0.14140
 C642 C -0.03104 0.65248 0.13058
 C643 C -0.04533 0.63773 0.11178
 C644 C -0.11953 0.70236 0.11790
 C645 C -0.12920 0.72218 0.12768
 C646 C -0.07447 0.60654 0.07336
 C647 C -0.06528 0.58609 0.06442
 H648 H -0.11821 0.60770 0.04719
 H649 H -0.16191 0.62362 0.03293
 H650 H -0.18133 0.66474 0.05218
 H651 H -0.15713 0.69023 0.08575
 H652 H -0.07489 0.70241 0.14245
 H653 H -0.03077 0.68702 0.15600
 H654 H -0.01139 0.64590 0.13676
 H655 H -0.03596 0.61986 0.10393
 C656 C 1.08497 0.08309 0.63122
 C657 C 1.10201 0.06722 0.64738
 C658 C 1.11252 0.07787 0.67151
 C659 C 1.10602 0.10434 0.67924
 C660 C 1.08884 0.12013 0.66318
 C661 C 1.07825 0.10946 0.63911
 C662 C 1.06113 0.12564 0.62336
 C663 C 1.05468 0.15162 0.63117
 C664 C 1.06507 0.16207 0.65470
 C665 C 1.08196 0.14660 0.67060
 C666 C 1.12947 0.06164 0.68737
 C667 C 1.13598 0.03568 0.67953
 C668 C 1.12585 0.02533 0.65585
 C669 C 1.10896 0.04079 0.63993
 C670 C 1.11733 0.11554 0.70345
 C671 C 1.12679 0.12516 0.72337
 C672 C 1.07450 0.07240 0.60641
 C673 C 1.06576 0.06364 0.58579
 H674 H 1.05255 0.11841 0.60489
 H675 H 1.04157 0.16371 0.61888
 H676 H 1.06003 0.18227 0.66067
 H677 H 1.08951 0.15562 0.68873
 H678 H 1.13787 0.06883 0.70595
 H679 H 1.14897 0.02353 0.69190
 H680 H 1.13097 0.00516 0.64984
 H681 H 1.10144 0.03180 0.62176
 C682 C 0.91588 -0.08507 0.62936
 C683 C 0.88788 -0.08450 0.63336
 C684 C 0.87673 -0.09589 0.65686
 C685 C 0.89366 -0.10777 0.67620
 C686 C 0.92167 -0.10827 0.67225
 C687 C 0.93283 -0.09686 0.64875
 C688 C 0.96090 -0.09757 0.64522
 C689 C 0.97746 -0.10922 0.66437
 C690 C 0.96654 -0.12040 0.68734
 C691 C 0.93898 -0.11999 0.69135
 C692 C 0.84866 -0.09510 0.66042
 C693 C 0.83211 -0.08338 0.64130
 C694 C 0.84303 -0.07224 0.61831
 C695 C 0.87057 -0.07273 0.61428
 C696 C 0.88221 -0.11942 0.70015
 C697 C 0.87248 -0.12899 0.71997
 C698 C 0.92721 -0.07367 0.60525
 C699 C 0.93657 -0.06427 0.58517
 H700 H 0.97032 -0.08914 0.62767
 H701 H 0.99889 -0.10958 0.66135
 H702 H 0.97949 -0.12944 0.70216
 H703 H 0.93142 -0.12894 0.70953
 H704 H 0.83922 -0.10351 0.67796
 H705 H 0.81069 -0.08296 0.64434
 H706 H 0.83009 -0.06315 0.60352
 H707 H 0.87812 -0.06379 0.59608
 C708 C 1.08563 -0.08495 0.36999
 C709 C 1.08999 -0.11287 0.36786
 C710 C 1.10101 -0.12368 0.34404
 C711 C 1.10767 -0.10649 0.32253
 C712 C 1.10320 -0.07858 0.32462
 C713 C 1.09204 -0.06778 0.34839
 C714 C 1.08748 -0.03984 0.34993
 C715 C 1.09371 -0.02307 0.32856
 C716 C 1.10485 -0.03360 0.30540
 C717 C 1.10960 -0.06102 0.30335
 C718 C 1.10510 -0.15168 0.34233
 C719 C 1.09850 -0.16850 0.36354
 C720 C 1.08776 -0.15792 0.38686
 C721 C 1.08353 -0.13044 0.38911
 C722 C 1.11908 -0.11761 0.29832
 C723 C 1.12860 -0.12715 0.27838
 C724 C 1.07463 -0.07391 0.39443
 C725 C 1.06558 -0.06483 0.41478
 H726 H 1.07895 -0.03069 0.36757
 H727 H 1.08987 -0.00179 0.32997
 H728 H 1.10976 -0.02046 0.28891
 H729 H 1.11824 -0.06828 0.28491
 H730 H 1.11340 -0.16088 0.32461
 H731 H 1.10172 -0.18987 0.36188
 H732 H 1.08266 -0.17107 0.40329
 H733 H 1.07511 -0.12316 0.40764
 C734 C 0.91635 0.08600 0.37058
 C735 C 0.92340 0.07545 0.34530
 C736 C 0.91196 0.08644 0.32172
 C737 C 0.89367 0.10800 0.32356
 C738 C 0.88677 0.11867 0.34882
 C739 C 0.89814 0.10763 0.37241
 C740 C 0.89095 0.11863 0.39745
 C741 C 0.87306 0.13996 0.39914
 C742 C 0.86195 0.15076 0.37607
 C743 C 0.86865 0.14032 0.35115
 C744 C 0.91922 0.07549 0.29667
 C745 C 0.93742 0.05443 0.29496
 C746 C 0.94874 0.04381 0.31801
 C747 C 0.94180 0.05404 0.34296
 C748 C 0.88199 0.11925 0.29949
 C749 C 0.87222 0.12866 0.27958
 C750 C 0.92778 0.07461 0.39469
 C751 C 0.93719 0.06520 0.41477
 H752 H 0.89909 0.11093 0.41596
 H753 H 0.86780 0.14814 0.41845
 H754 H 0.84806 0.16733 0.37748
 H755 H 0.85948 0.14942 0.33378
 H756 H 0.91096 0.08310 0.27817
 H757 H 0.94278 0.04633 0.27565
 H758 H 0.96288 0.02746 0.31658
 H759 H 0.95105 0.04502 0.36032
 C760 C 0.08297 0.37023 -0.08533
 C761 C 0.06902 0.35708 -0.10613
 C762 C 0.07982 0.33345 -0.11768
 C763 C 0.10446 0.32312 -0.10830
 C764 C 0.11824 0.33610 -0.08728
 C765 C 0.10746 0.35974 -0.07576
 C766 C 0.12157 0.37238 -0.05476
 C767 C 0.14563 0.36193 -0.04537
 C768 C 0.15618 0.33880 -0.05662
 C769 C 0.14275 0.32597 -0.07735
 C770 C 0.06555 0.32067 -0.13848
 C771 C 0.04125 0.33088 -0.14754
 C772 C 0.03066 0.35396 -0.13620
 C773 C 0.04431 0.36701 -0.11575
 C774 C 0.11572 0.29917 -0.12022
 C775 C 0.12546 0.27934 -0.12984
 C776 C 0.07221 0.39460 -0.07386
 C777 C 0.06331 0.41488 -0.06439
 H778 H 0.11417 0.39042 -0.04535
 H779 H 0.15613 0.37182 -0.02926
 H780 H 0.17487 0.33074 -0.04924
 H781 H 0.15176 0.30802 -0.08544
 H782 H 0.07299 0.30266 -0.14791
 H783 H 0.03056 0.32084 -0.16343
 H784 H 0.01177 0.36180 -0.14329
 H785 H 0.03526 0.38489 -0.10757
 C786 C -0.08343 0.36747 0.08147
 C787 C -0.06696 0.35060 0.09719
 C788 C -0.07762 0.32669 0.10829
 C789 C -0.10470 0.31989 0.10369
 C790 C -0.12099 0.33646 0.08748
 C791 C -0.11029 0.36029 0.07625
 C792 C -0.12692 0.37651 0.06003
 C793 C -0.15339 0.36940 0.05509
 C794 C -0.16389 0.34616 0.06617
 C795 C -0.14798 0.32981 0.08220
 C796 C -0.06079 0.31012 0.12393
 C797 C -0.03420 0.31702 0.12852
 C798 C -0.02382 0.34048 0.11778
 C799 C -0.03989 0.35712 0.10222
 C800 C -0.11597 0.29610 0.11594
 C801 C -0.12574 0.27655 0.12610
 C802 C -0.07291 0.39246 0.07110
 C803 C -0.06429 0.41331 0.06266
 H804 H -0.11966 0.39478 0.05096
 H805 H -0.16581 0.38202 0.04261
 H806 H -0.18448 0.34075 0.06232
 H807 H -0.15706 0.31192 0.09033
 H808 H -0.06797 0.29167 0.13271
 H809 H -0.02159 0.30410 0.14049
 H810 H -0.00317 0.34578 0.12145
 H811 H -0.03086 0.37508 0.09417
 C812 C -0.08361 0.63231 -0.08278
 C813 C -0.10876 0.64176 -0.07385
 C814 C -0.11966 0.66562 -0.08485
 C815 C -0.10528 0.67995 -0.10459
 C816 C -0.07990 0.67078 -0.11312
 C817 C -0.06905 0.64685 -0.10221
 C818 C -0.04370 0.63797 -0.11116
 C819 C -0.02949 0.65235 -0.13033
 C820 C -0.04004 0.67583 -0.14090
 C821 C -0.06496 0.68502 -0.13249
 C822 C -0.14492 0.67459 -0.07576
 C823 C -0.15894 0.66044 -0.05627
 C824 C -0.14822 0.63715 -0.04544
 C825 C -0.12345 0.62781 -0.05408
 C826 C -0.11680 0.70386 -0.11638
 C827 C -0.12658 0.72356 -0.12627
 C828 C -0.07291 0.60749 -0.07218
 C829 C -0.06413 0.58683 -0.06338
 H830 H -0.03459 0.61991 -0.10341
 H831 H -0.01011 0.64531 -0.13690
 H832 H -0.02887 0.68698 -0.15570
 H833 H -0.07234 0.70339 -0.14130
 H834 H -0.15407 0.69262 -0.08355
 H835 H -0.17822 0.66760 -0.04953
 H836 H -0.15917 0.62626 -0.03027
 H837 H -0.11594 0.60959 -0.04506
 C838 C 0.08447 0.62900 0.08691
 C839 C 0.07484 0.63870 0.11167
 C840 C 0.08604 0.66225 0.12297
 C841 C 0.10686 0.67587 0.10949
 C842 C 0.11639 0.66624 0.08465
 C843 C 0.10513 0.64276 0.07331
 C844 C 0.11495 0.63353 0.04844
 C845 C 0.13533 0.64712 0.03517
 C846 C 0.14639 0.67006 0.04630
 C847 C 0.13711 0.67960 0.07075
 C848 C 0.07608 0.67160 0.14773
 C849 C 0.05573 0.65799 0.16102
 C850 C 0.04487 0.63489 0.15003
 C851 C 0.05416 0.62532 0.12560
 C852 C 0.11864 0.69965 0.12122
 C853 C 0.12860 0.71936 0.13085
 C854 C 0.07325 0.60480 0.07549
 C855 C 0.06397 0.58470 0.06599
 H856 H 0.10700 0.61577 0.03899
 H857 H 0.14259 0.63979 0.01617
 H858 H 0.16223 0.68053 0.03593
 H859 H 0.14635 0.69753 0.07859
 H860 H 0.08390 0.68948 0.15708
 H861 H 0.04837 0.66540 0.17996
 H862 H 0.02912 0.62435 0.16048
 H863 H 0.04500 0.60734 0.11781
 C864 C 0.37001 1.08620 0.91571
 C865 C 0.36871 1.09353 0.88842
 C866 C 0.34481 1.10470 0.87787
 C867 C 0.32239 1.10850 0.89470
 C868 C 0.32368 1.10114 0.92200
 C869 C 0.34755 1.08986 0.93252
 C870 C 0.34831 1.08240 0.95981
 C871 C 0.32609 1.08594 0.97621
 C872 C 0.30282 1.09718 0.96598
 C873 C 0.30151 1.10473 0.93919
 C874 C 0.34395 1.11183 0.85049
 C875 C 0.36607 1.10800 0.83402
 C876 C 0.38945 1.09708 0.84434
 C877 C 0.39088 1.08989 0.87121
 C878 C 0.29797 1.11973 0.88382
 C879 C 0.27780 1.12899 0.87446
 C880 C 0.39446 1.07492 0.92648
 C881 C 0.41480 1.06561 0.93540
 H882 H 0.36600 1.07368 0.96873
 H883 H 0.32696 1.07998 0.99699
 H884 H 0.28567 1.10002 0.97885
 H885 H 0.28296 1.11335 0.93213
 H886 H 0.32621 1.12040 0.84152
 H887 H 0.36505 1.11355 0.81313
 H888 H 0.40657 1.09413 0.83146
 H889 H 0.40950 1.08145 0.87830
 C890 C 0.36846 0.91701 1.08261
 C891 C 0.35314 0.89885 1.06724
 C892 C 0.32942 0.88763 1.07809
 C893 C 0.32120 0.89461 1.10424
 C894 C 0.33631 0.91309 1.11945
 C895 C 0.36000 0.92436 1.10858
 C896 C 0.37478 0.94281 1.12412
 C897 C 0.36639 0.94994 1.14968
 C898 C 0.34325 0.93888 1.16034
 C899 C 0.32831 0.92065 1.14550
 C900 C 0.31442 0.86951 1.06238
 C901 C 0.32266 0.86265 1.03668
 C902 C 0.34591 0.87357 1.02611
 C903 C 0.36103 0.89151 1.04110
 C904 C 0.29740 0.88262 1.11566
 C905 C 0.27776 0.87270 1.12543
 C906 C 0.39308 0.92788 1.07189
 C907 C 0.41361 0.93683 1.06309
 H908 H 0.39292 0.95196 1.11669
 H909 H 0.37791 0.96411 1.16127
 H910 H 0.33682 0.94445 1.18022
 H911 H 0.31044 0.91262 1.15465
 H912 H 0.29619 0.86049 1.06975
 H913 H 0.31094 0.84879 1.02491
 H914 H 0.35221 0.86820 1.00613
 H915 H 0.37889 0.89958 1.03195
 C916 C 0.63111 1.08346 1.08343
 C917 C 0.64681 1.06794 1.10118
 C918 C 0.67063 1.07882 1.11217
 C919 C 0.67852 1.10520 1.10543
 C920 C 0.66296 1.12061 1.08745
 C921 C 0.63921 1.10968 1.07637
 C922 C 0.62400 1.12545 1.05840
 C923 C 0.63202 1.15128 1.05159
 C924 C 0.65521 1.16199 1.06248
 C925 C 0.67059 1.14693 1.08021
 C926 C 0.68604 1.06292 1.12983
 C927 C 0.67807 1.03704 1.13655
 C928 C 0.65470 1.02646 1.12593
 C929 C 0.63921 1.04160 1.10836
 C930 C 0.70241 1.11662 1.11724
 C931 C 0.72213 1.12630 1.12710
 C932 C 0.60649 1.07261 1.07263
 C933 C 0.58599 1.06376 1.06364
 H934 H 0.60581 1.11800 1.04940
 H935 H 0.62016 1.16304 1.03781
 H936 H 0.66134 1.18208 1.05716
 H937 H 0.68848 1.15613 1.08813
 H938 H 0.70437 1.07028 1.13861
 H939 H 0.69009 1.02514 1.15007
 H940 H 0.64859 1.00635 1.13121
 H941 H 0.62129 1.03242 1.10048
 C942 C 0.62959 0.91578 0.91447
 C943 C 0.63074 0.88850 0.90692
 C944 C 0.65458 0.87791 0.89568
 C945 C 0.67708 0.89469 0.89201
 C946 C 0.67594 0.92197 0.89959
 C947 C 0.65213 0.93253 0.91093
 C948 C 0.65150 0.95981 0.91857
 C949 C 0.67380 0.97615 0.91515
 C950 C 0.69701 0.96588 0.90387
 C951 C 0.69819 0.93911 0.89614
 C952 C 0.65529 0.85055 0.88834
 C953 C 0.63309 0.83414 0.89200
 C954 C 0.60977 0.84450 0.90297
 C955 C 0.60849 0.87136 0.91038
 C956 C 0.70142 0.88378 0.88062
 C957 C 0.72150 0.87442 0.87120
 C958 C 0.60518 0.92661 0.92577
 C959 C 0.58489 0.93563 0.93505
 H960 H 0.63386 0.96876 0.92731
 H961 H 0.67303 0.99693 0.92122
 H962 H 0.71423 0.97870 0.90114
 H963 H 0.71670 0.93201 0.88750
 H964 H 0.67298 0.84156 0.87972
 H965 H 0.63399 0.81326 0.88629
 H966 H 0.59257 0.83167 0.90577
 H967 H 0.58991 0.87848 0.91885
   
