data_POSCAR
  _audit_creation_date              2014-09-24
  _audit_creation_method            'ToBaCCo'
  _symmetry_space_group_name_H-M    'P1'
  _symmetry_Int_Tables_number       1
  _symmetry_cell_setting            triclinic
  loop_
  _symmetry_equiv_pos_as_xyz
 x,y,z
_cell_length_a 30.5144
_cell_length_b 30.4887
_cell_length_c 30.4394
_cell_angle_alpha 95.427400
_cell_angle_beta 89.220400
_cell_angle_gamma 92.295400
loop_
  _atom_site_label
  _atom_site_type_symbol
  _atom_site_fract_x
  _atom_site_fract_y
  _atom_site_fract_z
O1 O 0.55765 0.50595 0.03876
 O2 O 0.43709 0.50355 0.03615
 O3 O 0.49642 0.44460 0.04174
 O4 O 0.49908 0.56438 0.03303
 O5 O 0.50032 0.55228 -0.03959
 O6 O 0.49815 0.43254 -0.03089
 O7 O 0.43927 0.49050 -0.03629
 O8 O 0.55982 0.49346 -0.03382
 Cu9 Cu 0.49726 0.50579 0.04470
 Cu10 Cu 0.49966 0.49113 -0.04245
 C11 C 0.57935 0.49991 0.00295
 C12 C 0.41741 0.49656 -0.00055
 C13 C 0.49700 0.41809 0.00691
 C14 C 0.50005 0.57881 -0.00478
 O15 O -0.03709 0.56281 0.50534
 O16 O -0.03202 0.44255 0.50603
 O17 O -0.03134 0.50891 0.56652
 O18 O -0.03767 0.49665 0.44530
 O19 O 0.03429 0.50604 0.44095
 O20 O 0.04094 0.51046 0.56164
 O21 O 0.03989 0.44788 0.49768
 O22 O 0.03512 0.56886 0.50509
 Cu23 Cu -0.04181 0.50218 0.50633
 Cu24 Cu 0.04483 0.50891 0.50089
 C25 C -0.00191 0.58660 0.50548
 C26 C 0.00480 0.42457 0.50133
 C27 C 0.00598 0.51084 0.58473
 C28 C -0.00278 0.50007 0.42242
 O29 O 0.50501 0.03328 0.56890
 O30 O 0.50682 0.04374 0.44932
 O31 O 0.44682 0.04465 0.50960
 O32 O 0.56653 0.03266 0.50783
 O33 O 0.55654 -0.03922 0.49281
 O34 O 0.43675 -0.02764 0.49889
 O35 O 0.49600 -0.02830 0.43617
 O36 O 0.49800 -0.03898 0.55598
 Cu37 Cu 0.50749 0.04575 0.51040
 Cu38 Cu 0.49581 -0.04076 0.49484
 C39 C 0.50148 -0.00464 0.58307
 C40 C 0.50098 0.00965 0.42232
 C41 C 0.42134 0.01065 0.50425
 C42 C 0.58203 -0.00531 0.49933
 C43 C 0.50368 -0.04354 -0.09542
 C44 C 0.50050 -0.08732 -0.08487
 C45 C 0.49755 -0.09781 -0.04106
 C46 C 0.49550 -0.06336 -0.00645
 C47 C 0.50042 -0.01887 -0.01627
 C48 C 0.50575 -0.00896 -0.06074
 C49 C 0.51407 0.03516 -0.06918
 C50 C 0.51356 0.06907 -0.03527
 C51 C 0.50490 0.06033 0.00859
 C52 C 0.49992 0.01584 0.01847
 C53 C 0.48758 -0.07215 0.03756
 C54 C 0.48686 -0.03820 0.07150
 C55 C 0.49413 0.00600 0.06292
 C56 C 0.49450 0.04078 0.09737
 C57 C 0.49784 0.08450 0.08668
 C58 C 0.50208 0.09486 0.04297
 H59 H 0.52168 0.04400 -0.10207
 H60 H 0.52058 0.10227 -0.04385
 H61 H 0.48102 -0.10539 0.04622
 H62 H 0.47982 -0.04708 0.10449
 H63 H 0.50034 -0.11382 -0.11127
 H64 H 0.49674 0.11109 0.11295
 C65 C 0.03917 0.50029 0.90945
 C66 C 0.08279 0.49798 0.92220
 C67 C 0.09400 0.49354 0.96590
 C68 C 0.06039 0.49086 0.99818
 C69 C 0.01594 0.49412 0.98605
 C70 C 0.00521 0.49846 0.94149
 C71 C -0.03917 0.49994 0.93011
 C72 C -0.07219 0.49908 0.96198
 C73 C -0.06240 0.49497 1.00634
 C74 C -0.01789 0.49252 1.01851
 C75 C 0.06984 0.48363 1.04191
 C76 C 0.03682 0.48271 1.07374
 C77 C -0.00710 0.48859 1.06310
 C78 C -0.04068 0.48959 1.09569
 C79 C -0.08438 0.49167 1.08309
 C80 C -0.09581 0.49373 1.03901
 H81 H -0.04910 0.50173 0.89641
 H82 H -0.10550 0.50190 0.95127
 H83 H 0.10286 0.47818 1.05202
 H84 H 0.04613 0.47669 1.10673
 H85 H 0.10866 0.50038 0.89764
 H86 H -0.11004 0.49197 1.10814
 C87 C -0.03565 -0.09233 0.49110
 C88 C -0.07974 -0.08131 0.49109
 C89 C -0.09217 -0.03783 0.48963
 C90 C -0.05941 -0.00362 0.48926
 C91 C -0.01444 -0.01400 0.48982
 C92 C -0.00250 -0.05858 0.48938
 C93 C 0.04213 -0.06826 0.48547
 C94 C 0.07451 -0.03485 0.48518
 C95 C 0.06368 0.00972 0.48884
 C96 C 0.01869 0.02021 0.48981
 C97 C -0.07027 0.04040 0.48669
 C98 C -0.03789 0.07386 0.48701
 C99 C 0.00674 0.06473 0.48981
 C100 C 0.03985 0.09872 0.49100
 C101 C 0.08393 0.08780 0.49104
 C102 C 0.09649 0.04405 0.48976
 H103 H 0.05262 -0.10186 0.48175
 H104 H 0.10814 -0.04454 0.48142
 H105 H -0.10393 0.04950 0.48394
 H106 H -0.04837 0.10695 0.48432
 H107 H -0.10508 -0.10712 0.49265
 H108 H 0.10909 0.11407 0.49262
 C109 C -0.28112 0.49727 1.00952
 C110 C -0.30230 0.48094 0.97033
 C111 C -0.34786 0.48245 0.96782
 C112 C -0.37229 0.49985 1.00432
 C113 C -0.34976 0.51639 1.04262
 N114 N -0.30540 0.51488 1.04415
 C115 C -0.23313 0.49616 1.01441
 N116 N -0.21258 0.52756 1.04251
 C117 C -0.16878 0.52791 1.04995
 C118 C -0.14310 0.49494 1.02885
 C119 C -0.16362 0.46174 1.00041
 C120 C -0.20857 0.46243 0.99276
 H121 H -0.36398 0.46950 0.93759
 H122 H -0.36732 0.53048 1.07136
 H123 H -0.15406 0.55368 1.07259
 H124 H -0.14489 0.43512 0.98457
 H125 H -0.28397 0.46763 0.94178
 H126 H -0.22401 0.43612 0.97131
 C127 C 0.27979 0.49485 0.99403
 C128 C 0.30056 0.50585 1.03463
 C129 C 0.34625 0.50594 1.03668
 C130 C 0.37140 0.49569 0.99825
 C131 C 0.34904 0.48465 0.95834
 N132 N 0.30455 0.48423 0.95739
 C133 C 0.23169 0.49404 0.98982
 N134 N 0.21227 0.46460 0.95896
 C135 C 0.16837 0.46304 0.95190
 C136 C 0.14136 0.49281 0.97619
 C137 C 0.16073 0.52396 1.00767
 C138 C 0.20582 0.52435 1.01498
 H139 H 0.36176 0.51445 1.06831
 H140 H 0.36671 0.47611 0.92785
 H141 H 0.15461 0.43894 0.92693
 H142 H 0.14104 0.54831 1.02604
 H143 H 0.28175 0.51363 1.06456
 H144 H 0.22039 0.54906 1.03884
 C145 C -0.00954 -0.27636 0.50322
 C146 C 0.03119 -0.29420 0.50986
 C147 C 0.03393 -0.33975 0.51047
 C148 C -0.00405 -0.36747 0.50557
 C149 C -0.04431 -0.34785 0.49982
 N150 N -0.04586 -0.30359 0.49817
 C151 C -0.01382 -0.22886 0.50012
 N152 N -0.04071 -0.21561 0.46906
 C153 C -0.04695 -0.17236 0.46487
 C154 C -0.02612 -0.13949 0.49358
 C155 C 0.00098 -0.15252 0.52652
 C156 C 0.00783 -0.19716 0.52940
 H157 H 0.06575 -0.35312 0.51498
 H158 H -0.07449 -0.36763 0.49561
 H159 H -0.06852 -0.16363 0.43941
 H160 H 0.01643 -0.12817 0.55020
 H161 H 0.06070 -0.27329 0.51338
 H162 H 0.02863 -0.20687 0.55505
 C163 C 0.01252 0.28479 0.49892
 C164 C -0.02563 0.30508 0.51531
 C165 C -0.02838 0.35072 0.51574
 C166 C 0.00690 0.37616 0.50031
 C167 C 0.04434 0.35453 0.48402
 N168 N 0.04605 0.31002 0.48345
 C169 C 0.01715 0.23664 0.49725
 N170 N 0.04234 0.21647 0.46470
 C171 C 0.04903 0.17251 0.46159
 C172 C 0.03021 0.14619 0.49276
 C173 C 0.00485 0.16637 0.52714
 C174 C -0.00214 0.21150 0.52927
 H175 H -0.05793 0.36611 0.52846
 H176 H 0.07211 0.37288 0.47144
 H177 H 0.06931 0.15812 0.43498
 H178 H -0.00906 0.14726 0.55253
 H179 H -0.05331 0.28594 0.52697
 H180 H -0.02124 0.22666 0.55639
 C181 C 0.50111 -0.01719 -0.28038
 C182 C 0.49923 0.02476 -0.29536
 C183 C 0.49991 0.02905 -0.34062
 C184 C 0.50142 -0.00851 -0.37122
 C185 C 0.50301 -0.04999 -0.35457
 N186 N 0.50334 -0.05315 -0.31028
 C187 C 0.50130 -0.02294 -0.23278
 N188 N 0.52889 -0.05184 -0.21739
 C189 C 0.53070 -0.05834 -0.17384
 C190 C 0.50324 -0.03541 -0.14298
 C191 C 0.47351 -0.00661 -0.15853
 C192 C 0.47298 0.00030 -0.20320
 H193 H 0.49873 0.06178 -0.35153
 H194 H 0.50460 -0.07992 -0.37662
 H195 H 0.55362 -0.08134 -0.16331
 H196 H 0.45067 0.01047 -0.13607
 H197 H 0.49802 0.05400 -0.27228
 H198 H 0.44999 0.02273 -0.21467
 C199 C 0.49410 0.02266 0.28396
 C200 C 0.48629 0.05911 0.31438
 C201 C 0.48917 0.05497 0.35948
 C202 C 0.49924 0.01447 0.37447
 C203 C 0.50696 -0.02119 0.34298
 N204 N 0.50465 -0.01617 0.29910
 C205 C 0.49205 0.02606 0.23590
 N206 N 0.52138 0.00447 0.20845
 C207 C 0.52214 0.00772 0.16414
 C208 C 0.49173 0.03342 0.14502
 C209 C 0.46075 0.05524 0.17268
 C210 C 0.46082 0.05170 0.21803
 H211 H 0.48300 0.08330 0.38265
 H212 H 0.51516 -0.05288 0.35320
 H213 H 0.54700 -0.00902 0.14397
 H214 H 0.43680 0.07540 0.15915
 H215 H 0.47875 0.09070 0.30345
 H216 H 0.43659 0.06871 0.23883
 C217 C 0.50142 -0.28233 -0.01543
 C218 C 0.51267 -0.29796 0.02469
 C219 C 0.51208 -0.34328 0.02822
 C220 C 0.50076 -0.37310 -0.00820
 C221 C 0.48967 -0.35611 -0.04770
 N222 N 0.48993 -0.31179 -0.05018
 C223 C 0.50091 -0.23464 -0.02061
 N224 N 0.47133 -0.21983 -0.04830
 C225 C 0.46919 -0.17643 -0.05474
 C226 C 0.49822 -0.14509 -0.03286
 C227 C 0.52974 -0.15980 -0.00512
 C228 C 0.53093 -0.20441 0.00145
 H229 H 0.52068 -0.35499 0.05936
 H230 H 0.48033 -0.37797 -0.07643
 H231 H 0.44486 -0.16639 -0.07692
 H232 H 0.55359 -0.13675 0.01119
 H233 H 0.52101 -0.27549 0.05329
 H234 H 0.55576 -0.21517 0.02264
 C235 C 0.49676 0.27924 0.01728
 C236 C 0.48590 0.29484 -0.02296
 C237 C 0.48605 0.34017 -0.02637
 C238 C 0.49655 0.37000 0.01027
 C239 C 0.50723 0.35305 0.04991
 N240 N 0.50741 0.30873 0.05228
 C241 C 0.49775 0.23156 0.02236
 N242 N 0.52694 0.21710 0.05066
 C243 C 0.52945 0.17374 0.05711
 C244 C 0.50122 0.14207 0.03458
 C245 C 0.47012 0.15640 0.00615
 C246 C 0.46854 0.20098 -0.00039
 H247 H 0.47780 0.35185 -0.05763
 H248 H 0.51595 0.37492 0.07882
 H249 H 0.55341 0.16399 0.07984
 H250 H 0.44683 0.13307 -0.01067
 H251 H 0.47824 0.27237 -0.05176
 H252 H 0.44400 0.21143 -0.02210
 C253 C -0.27905 -0.01903 0.49075
 C254 C -0.30732 -0.05433 0.47501
 C255 C -0.35257 -0.04988 0.47811
 C256 C -0.36992 -0.01031 0.49662
 C257 C -0.34056 0.02414 0.51228
 N258 N -0.29649 0.01888 0.50929
 C259 C -0.23083 -0.02266 0.48857
 N260 N -0.20558 -0.00103 0.52095
 C261 C -0.16123 -0.00435 0.52155
 C262 C -0.13988 -0.03032 0.48792
 C263 C -0.16517 -0.05222 0.45390
 C264 C -0.21053 -0.04840 0.45400
 H265 H -0.37397 -0.07738 0.46580
 H266 H -0.35257 0.05508 0.52714
 H267 H -0.14274 0.01258 0.54861
 H268 H -0.14973 -0.07259 0.42747
 H269 H -0.29473 -0.08539 0.46118
 H270 H -0.22936 -0.06526 0.42718
 C271 C 0.28298 0.02481 0.49701
 C272 C 0.31175 0.06040 0.48936
 C273 C 0.35683 0.05597 0.49269
 C274 C 0.37344 0.01601 0.50305
 C275 C 0.34356 -0.01871 0.51089
 N276 N 0.29961 -0.01341 0.50807
 C277 C 0.23507 0.02842 0.49345
 N278 N 0.20778 0.01032 0.52320
 C279 C 0.16348 0.01400 0.52228
 C280 C 0.14433 0.03633 0.48955
 C281 C 0.17190 0.05456 0.45824
 C282 C 0.21718 0.05076 0.46010
 H283 H 0.37872 0.08357 0.48637
 H284 H 0.35509 -0.04993 0.51931
 H285 H 0.14330 0.00018 0.54745
 H286 H 0.15832 0.07213 0.43260
 H287 H 0.29950 0.09148 0.48131
 H288 H 0.23796 0.06495 0.43559
 C289 C -0.01213 0.49525 1.28230
 C290 C 0.02727 0.51030 1.30286
 C291 C 0.03055 0.51132 1.34859
 C292 C -0.00537 0.49764 1.37386
 C293 C -0.04396 0.48223 1.35196
 N294 N -0.04626 0.48124 1.30733
 C295 C -0.01753 0.49401 1.23412
 N296 N -0.04508 0.46265 1.21343
 C297 C -0.05229 0.46013 1.16929
 C298 C -0.03143 0.49064 1.14347
 C299 C -0.00376 0.52388 1.16426
 C300 C 0.00360 0.52547 1.20947
 H301 H 0.06100 0.52326 1.36417
 H302 H -0.07226 0.47098 1.37020
 H303 H -0.07439 0.43446 1.15439
 H304 H 0.01178 0.54878 1.14549
 H305 H 0.05543 0.52069 1.28389
 H306 H 0.02455 0.55175 1.22505
 C307 C 0.01533 0.51329 0.72451
 C308 C -0.02247 0.52869 0.70627
 C309 C -0.02571 0.52798 0.66048
 C310 C 0.00894 0.51274 0.63315
 C311 C 0.04635 0.49821 0.65281
 N312 N 0.04835 0.49834 0.69733
 C313 C 0.01962 0.51096 0.77233
 N314 N 0.04125 0.47688 0.78655
 C315 C 0.04699 0.47261 0.83004
 C316 C 0.03092 0.50413 0.86212
 C317 C 0.00957 0.54023 0.84824
 C318 C 0.00329 0.54346 0.80333
 H319 H -0.05515 0.53936 0.64648
 H320 H 0.07359 0.48583 0.63281
 H321 H 0.06425 0.44472 0.83960
 H322 H -0.00202 0.56586 0.87216
 H323 H -0.04964 0.53998 0.72700
 H324 H -0.01304 0.57157 0.79296
   
