data_POSCAR
  _audit_creation_date              2014-09-24
  _audit_creation_method            'ToBaCCo'
  _symmetry_space_group_name_H-M    'P1'
  _symmetry_Int_Tables_number       1
  _symmetry_cell_setting            triclinic
  loop_
  _symmetry_equiv_pos_as_xyz
 x,y,z
_cell_length_a 70.1272
_cell_length_b 70.1607
_cell_length_c 20.6706
_cell_angle_alpha 90.096000
_cell_angle_beta 90.000900
_cell_angle_gamma 120.026100
loop_
  _atom_site_label
  _atom_site_type_symbol
  _atom_site_fract_x
  _atom_site_fract_y
  _atom_site_fract_z
C1 C 0.24701 0.49465 0.52763
 C2 C 0.24667 0.49444 0.46163
 C3 C 0.22772 0.49279 0.42470
 C4 C 0.26512 0.49557 0.42328
 C5 C 0.26437 0.49312 0.56460
 C6 C 0.22986 0.49612 0.56593
 C7 C 0.20619 0.47552 0.43628
 C8 C 0.18840 0.47446 0.40262
 C9 C 0.19196 0.49054 0.35646
 C10 C 0.21347 0.50750 0.34362
 C11 C 0.23125 0.50855 0.37737
 C12 C 0.26091 0.47930 0.37679
 C13 C 0.27826 0.47965 0.34254
 C14 C 0.29996 0.49635 0.35401
 C15 C 0.30422 0.51296 0.39901
 C16 C 0.28688 0.51266 0.43324
 C17 C 0.27687 0.50916 0.61119
 C18 C 0.29367 0.50821 0.64482
 C19 C 0.29801 0.49111 0.63262
 C20 C 0.28526 0.47477 0.58731
 C21 C 0.26845 0.47569 0.55371
 C22 C 0.22525 0.51319 0.55517
 C23 C 0.20836 0.51380 0.58933
 C24 C 0.19609 0.49750 0.63507
 C25 C 0.20102 0.48082 0.64732
 C26 C 0.21789 0.48018 0.61314
 H27 H 0.20318 0.46295 0.47168
 H28 H 0.17189 0.46116 0.41299
 H29 H 0.21654 0.52005 0.30800
 H30 H 0.24774 0.52190 0.36748
 H31 H 0.24425 0.46607 0.36819
 H32 H 0.27479 0.46672 0.30779
 H33 H 0.29043 0.52557 0.46804
 H34 H 0.27388 0.52264 0.62056
 H35 H 0.30340 0.52091 0.67987
 H36 H 0.28841 0.46141 0.57770
 H37 H 0.25871 0.46292 0.51890
 H38 H 0.23457 0.52587 0.51979
 H39 H 0.20473 0.52682 0.57962
 H40 H 0.19164 0.46814 0.68265
 H41 H 0.22126 0.46696 0.62236
 H42 H 0.32095 0.52600 0.40811
 C43 C 0.50520 -0.24799 0.53448
 C44 C 0.50528 -0.24779 0.46847
 C45 C 0.50419 -0.26624 0.43011
 C46 C 0.50681 -0.22894 0.43151
 C47 C 0.50392 -0.23071 0.57276
 C48 C 0.50672 -0.26532 0.57145
 C49 C 0.52041 -0.26200 0.38352
 C50 C 0.52008 -0.27932 0.34906
 C51 C 0.50343 -0.30103 0.36041
 C52 C 0.48688 -0.30533 0.40559
 C53 C 0.48717 -0.28802 0.44004
 C54 C 0.52414 -0.20739 0.44269
 C55 C 0.52502 -0.18970 0.40910
 C56 C 0.50875 -0.19338 0.36353
 C57 C 0.49175 -0.21487 0.35104
 C58 C 0.49083 -0.23258 0.38465
 C59 C 0.48689 -0.22602 0.56226
 C60 C 0.48650 -0.20898 0.59633
 C61 C 0.50298 -0.19665 0.64171
 C62 C 0.51963 -0.20167 0.65373
 C63 C 0.52004 -0.21868 0.61964
 C64 C 0.49062 -0.27782 0.61774
 C65 C 0.49148 -0.29469 0.65111
 C66 C 0.50856 -0.29909 0.63893
 C67 C 0.52498 -0.28630 0.59397
 C68 C 0.52413 -0.26942 0.56066
 H69 H 0.53359 -0.24533 0.37493
 H70 H 0.53295 -0.27581 0.31418
 H71 H 0.47388 -0.32206 0.41461
 H72 H 0.47429 -0.29159 0.47491
 H73 H 0.53685 -0.20430 0.47773
 H74 H 0.53830 -0.17315 0.41894
 H75 H 0.47743 -0.24908 0.37507
 H76 H 0.47407 -0.23537 0.52715
 H77 H 0.47351 -0.20528 0.58679
 H78 H 0.53245 -0.19224 0.68877
 H79 H 0.53325 -0.22211 0.62867
 H80 H 0.47716 -0.27480 0.62700
 H81 H 0.47870 -0.30442 0.68587
 H82 H 0.53835 -0.28944 0.58426
 H83 H 0.53694 -0.25967 0.52605
 H84 H 0.47910 -0.21790 0.31578
 C85 C 1.24733 0.75317 0.53560
 C86 C 1.24764 0.75329 0.46960
 C87 C 1.26502 0.77214 0.43266
 C88 C 1.23044 0.73469 0.43126
 C89 C 1.22836 0.73590 0.57247
 C90 C 1.26582 0.77048 0.57401
 C91 C 1.26918 0.79368 0.44353
 C92 C 1.28599 0.81138 0.40987
 C93 C 1.29866 0.80772 0.36447
 C94 C 1.29424 0.78623 0.35233
 C95 C 1.27744 0.76852 0.38605
 C96 C 1.21849 0.73869 0.38402
 C97 C 1.20159 0.72121 0.34975
 C98 C 1.19661 0.69958 0.36193
 C99 C 1.20887 0.69551 0.40771
 C100 C 1.22579 0.71299 0.44197
 C101 C 1.23185 0.72362 0.61976
 C102 C 1.21404 0.70690 0.65336
 C103 C 1.19257 0.70242 0.64042
 C104 C 1.18904 0.71497 0.59435
 C105 C 1.20684 0.73170 0.56081
 C106 C 1.28756 0.77509 0.56408
 C107 C 1.30494 0.79211 0.59833
 C108 C 1.30076 0.80452 0.64337
 C109 C 1.27906 0.79956 0.65479
 C110 C 1.26168 0.78257 0.62049
 H111 H 1.25950 0.79676 0.47836
 H112 H 1.28915 0.82790 0.41957
 H113 H 1.30386 0.78313 0.31724
 H114 H 1.27437 0.75203 0.37669
 H115 H 1.22191 0.75530 0.37484
 H116 H 1.19222 0.72453 0.31440
 H117 H 1.23509 0.70960 0.47736
 H118 H 1.24832 0.72672 0.62972
 H119 H 1.21703 0.69737 0.68896
 H120 H 1.17253 0.71176 0.58401
 H121 H 1.20386 0.74128 0.52543
 H122 H 1.29104 0.76568 0.52929
 H123 H 1.32164 0.79570 0.58914
 H124 H 1.27557 0.80900 0.68953
 H125 H 1.24503 0.77918 0.62905
 H126 H 1.20519 0.67884 0.41737
 C127 C 0.75310 0.50602 0.53572
 C128 C 0.75300 0.50581 0.46972
 C129 C 0.77037 0.50452 0.43204
 C130 C 0.73569 0.50721 0.43210
 C131 C 0.73449 0.50484 0.57344
 C132 C 0.77196 0.50776 0.57329
 C133 C 0.78237 0.52049 0.38493
 C134 C 0.79939 0.51999 0.35118
 C135 C 0.80445 0.50341 0.36377
 C136 C 0.79217 0.48710 0.40947
 C137 C 0.77513 0.48757 0.44320
 C138 C 0.73149 0.52458 0.44240
 C139 C 0.71467 0.52534 0.40835
 C140 C 0.70205 0.50890 0.36320
 C141 C 0.70652 0.49185 0.35154
 C142 C 0.72333 0.49107 0.38562
 C143 C 0.71278 0.48772 0.56305
 C144 C 0.69531 0.48734 0.59676
 C145 C 0.69939 0.50394 0.64174
 C146 C 0.72107 0.52069 0.65358
 C147 C 0.73853 0.52109 0.61981
 C148 C 0.76837 0.49194 0.62048
 C149 C 0.78611 0.49303 0.65457
 C150 C 0.80760 0.51008 0.64221
 C151 C 0.81122 0.52622 0.59631
 C152 C 0.79348 0.52514 0.56228
 H153 H 0.77889 0.53362 0.37539
 H154 H 0.80877 0.53267 0.31588
 H155 H 0.79590 0.47416 0.41944
 H156 H 0.76580 0.47487 0.47850
 H157 H 0.74113 0.53743 0.47715
 H158 H 0.71141 0.53865 0.41755
 H159 H 0.72643 0.47763 0.37672
 H160 H 0.70937 0.47482 0.52834
 H161 H 0.67864 0.47423 0.58725
 H162 H 0.72448 0.53362 0.68827
 H163 H 0.75516 0.53435 0.62874
 H164 H 0.75188 0.47851 0.62993
 H165 H 0.78306 0.48045 0.69003
 H166 H 0.82773 0.53956 0.58642
 H167 H 0.79653 0.53774 0.52697
 H168 H 0.69688 0.47907 0.31660
 C169 C 0.49453 0.24694 0.53621
 C170 C 0.49444 0.24711 0.47021
 C171 C 0.49290 0.26445 0.43331
 C172 C 0.49559 0.22981 0.43178
 C173 C 0.49297 0.22804 0.57309
 C174 C 0.49588 0.26550 0.57458
 C175 C 0.47560 0.26870 0.44459
 C176 C 0.47464 0.28544 0.41082
 C177 C 0.49080 0.29794 0.36496
 C178 C 0.50779 0.29345 0.35244
 C179 C 0.50878 0.27672 0.38623
 C180 C 0.47938 0.21781 0.38508
 C181 C 0.47976 0.20085 0.35062
 C182 C 0.49645 0.19584 0.36209
 C183 C 0.51299 0.20813 0.40734
 C184 C 0.51265 0.22512 0.44178
 C185 C 0.50899 0.23161 0.61971
 C186 C 0.50807 0.21386 0.65315
 C187 C 0.49099 0.19238 0.64073
 C188 C 0.47466 0.18878 0.59537
 C189 C 0.47558 0.20653 0.56199
 C190 C 0.51297 0.28720 0.56417
 C191 C 0.51342 0.30466 0.59818
 C192 C 0.49694 0.30058 0.64348
 C193 C 0.48024 0.27891 0.65544
 C194 C 0.47978 0.26145 0.62137
 H195 H 0.46294 0.25913 0.47979
 H196 H 0.46137 0.28871 0.42070
 H197 H 0.52036 0.30299 0.31696
 H198 H 0.52215 0.27360 0.37655
 H199 H 0.46617 0.22125 0.37644
 H200 H 0.46689 0.19145 0.31568
 H201 H 0.52552 0.23445 0.47674
 H202 H 0.52244 0.24809 0.62923
 H203 H 0.52079 0.21690 0.68821
 H204 H 0.46130 0.17227 0.58545
 H205 H 0.46282 0.20348 0.52714
 H206 H 0.52576 0.29062 0.52912
 H207 H 0.52648 0.32133 0.58857
 H208 H 0.46740 0.27549 0.69037
 H209 H 0.46654 0.24483 0.63031
 H210 H 0.52602 0.20444 0.41645
 C211 C 0.75313 0.24769 0.53434
 C212 C 0.75323 0.24751 0.46834
 C213 C 0.73466 0.23001 0.43060
 C214 C 0.77206 0.26464 0.43076
 C215 C 0.77046 0.26645 0.57197
 C216 C 0.73587 0.22898 0.57195
 C217 C 0.73877 0.21782 0.38434
 C218 C 0.72135 0.20072 0.35042
 C219 C 0.69967 0.19577 0.36198
 C220 C 0.69551 0.20822 0.40684
 C221 C 0.71292 0.22534 0.44075
 C222 C 0.79361 0.26888 0.44193
 C223 C 0.81129 0.28549 0.40768
 C224 C 0.80758 0.29783 0.36144
 C225 C 0.78609 0.29332 0.34895
 C226 C 0.76839 0.27673 0.38324
 C227 C 0.77515 0.28811 0.56053
 C228 C 0.79221 0.30572 0.59403
 C229 C 0.80460 0.30183 0.63982
 C230 C 0.79958 0.28021 0.65273
 C231 C 0.78254 0.26261 0.61919
 C232 C 0.72342 0.23271 0.61813
 C233 C 0.70659 0.21508 0.65200
 C234 C 0.70220 0.19358 0.64042
 C235 C 0.71493 0.18982 0.59563
 C236 C 0.73177 0.20743 0.56180
 H237 H 0.75541 0.22123 0.37559
 H238 H 0.72475 0.19121 0.31577
 H239 H 0.67880 0.20457 0.41601
 H240 H 0.70945 0.23481 0.47536
 H241 H 0.79673 0.25944 0.47749
 H242 H 0.82784 0.28878 0.41752
 H243 H 0.75188 0.27360 0.37365
 H244 H 0.76575 0.29138 0.52515
 H245 H 0.79584 0.32235 0.58368
 H246 H 0.80900 0.27694 0.68807
 H247 H 0.77911 0.24602 0.62893
 H248 H 0.72643 0.24922 0.62691
 H249 H 0.69686 0.21818 0.68665
 H250 H 0.71174 0.17326 0.58650
 H251 H 0.74148 0.20426 0.52728
 H252 H 0.78304 0.30276 0.31320
 N253 N 0.97717 0.52217 0.07174
 N254 N 0.96024 0.52522 0.08048
 N255 N 1.02360 0.53184 0.11507
 N256 N 1.04060 0.54225 0.15438
 N257 N 1.02356 0.54536 0.07136
 N258 N 1.04053 0.56535 0.07975
 N259 N 0.97724 0.50865 0.11544
 N260 N 0.96036 0.50213 0.15509
 C261 C 0.94990 0.51263 0.13276
 C262 C 1.05101 0.56317 0.13182
 N263 N 1.02355 0.47787 0.06562
 N264 N 1.04015 0.47422 0.07319
 N265 N 0.97727 0.46765 0.11194
 N266 N 0.96071 0.45660 0.15215
 N267 N 0.97720 0.45468 0.06597
 N268 N 0.96060 0.43446 0.07366
 N269 N 1.02359 0.49082 0.11159
 N270 N 1.04021 0.49633 0.15167
 Mn271 Mn 1.00042 0.49974 0.11430
 C272 C 1.05042 0.48587 0.12709
 C273 C 0.95044 0.43590 0.12765
 N274 N 1.02337 0.54627 -0.06791
 N275 N 1.03999 0.56650 -0.07559
 N276 N 0.97697 0.51013 -0.11350
 N277 N 0.96030 0.50456 -0.15340
 N278 N 0.97702 0.52309 -0.06751
 N279 N 0.96039 0.52668 -0.07488
 N280 N 1.02330 0.53331 -0.11389
 N281 N 1.03986 0.54436 -0.15410
 Mn282 Mn 1.00028 0.53446 0.00197
 C283 C 1.05015 0.56506 -0.12960
 C284 C 0.95008 0.51500 -0.12869
 N285 N 0.97700 0.45558 -0.07328
 N286 N 0.96004 0.43558 -0.08171
 N287 N 1.02331 0.49230 -0.11737
 N288 N 1.04023 0.49886 -0.15689
 N289 N 1.02338 0.47878 -0.07365
 N290 N 1.04035 0.47579 -0.08223
 N291 N 0.97694 0.46910 -0.11700
 N292 N 0.95995 0.45867 -0.15635
 Mn293 Mn 1.00028 0.46649 -0.00389
 Mn294 Mn 1.00013 0.50121 -0.11623
 Cl295 Cl 1.00028 0.50047 -0.00096
 C296 C 0.94956 0.43774 -0.13381
 C297 C 1.05070 0.48839 -0.13445
 N298 N 0.47771 0.45413 0.06679
 N299 N 0.47404 0.43392 0.07528
 N300 N 0.46780 0.49047 0.11226
 N301 N 0.45719 0.49681 0.15154
 N302 N 0.45453 0.47728 0.06726
 N303 N 0.43451 0.47429 0.07471
 N304 N 0.49098 0.46734 0.11174
 N305 N 0.49670 0.45650 0.15203
 C306 C 0.48602 0.43565 0.12865
 C307 C 0.43641 0.48655 0.12761
 N308 N 0.52202 0.54484 0.06797
 N309 N 0.52506 0.56485 0.07596
 N310 N 0.53204 0.50843 0.11212
 N311 N 0.54289 0.50263 0.15220
 N312 N 0.54526 0.52175 0.06740
 N313 N 0.56546 0.52536 0.07582
 N314 N 0.50881 0.53151 0.11270
 N315 N 0.50251 0.54208 0.15230
 Mn316 Mn 0.49991 0.49944 0.11299
 C317 C 0.51280 0.56289 0.12887
 C318 C 0.56374 0.51331 0.12892
 N319 N 0.45448 0.47736 -0.07205
 N320 N 0.43428 0.47375 -0.08052
 N321 N 0.49094 0.46758 -0.11728
 N322 N 0.49736 0.45702 -0.15654
 N323 N 0.47773 0.45428 -0.07252
 N324 N 0.47480 0.43430 -0.08011
 N325 N 0.46771 0.49067 -0.11677
 N326 N 0.45687 0.49648 -0.15688
 Mn327 Mn 0.46587 0.46552 -0.00264
 C328 C 0.43601 0.48580 -0.13365
 C329 C 0.48712 0.43625 -0.13285
 N330 N 0.54523 0.52183 -0.07189
 N331 N 0.56527 0.52492 -0.07955
 N332 N 0.50877 0.53177 -0.11634
 N333 N 0.50293 0.54262 -0.15629
 N334 N 0.52203 0.54497 -0.07133
 N335 N 0.52558 0.56514 -0.07941
 N336 N 0.53196 0.50864 -0.11690
 N337 N 0.54261 0.50240 -0.15638
 Mn338 Mn 0.53387 0.53359 -0.00196
 Mn339 Mn 0.49984 0.49967 -0.11762
 Cl340 Cl 0.49987 0.49955 -0.00231
 C341 C 0.56339 0.51271 -0.13256
 C342 C 0.51354 0.56343 -0.13263
 N343 N 0.45428 -0.02353 0.07012
 N344 N 0.43406 -0.04009 0.07847
 N345 N 0.49069 0.02267 0.11606
 N346 N 0.49704 0.03956 0.15565
 N347 N 0.47751 0.02282 0.07123
 N348 N 0.47452 0.03982 0.07913
 N349 N 0.46749 -0.02365 0.11491
 N350 N 0.45662 -0.04029 0.15496
 C351 C 0.43577 -0.05043 0.13160
 C352 C 0.48678 0.05010 0.13211
 N353 N 0.54503 0.02284 0.07105
 N354 N 0.56506 0.03981 0.07903
 N355 N 0.50856 -0.02363 0.11478
 N356 N 0.50277 -0.04030 0.15470
 N357 N 0.52187 -0.02350 0.06989
 N358 N 0.52549 -0.04008 0.07804
 N359 N 0.53172 0.02269 0.11596
 N360 N 0.54232 0.03954 0.15567
 Mn361 Mn 0.49961 -0.00049 0.11621
 C362 C 0.56313 0.05007 0.13213
 C363 C 0.51345 -0.05044 0.13115
 N364 N 0.47759 0.02312 -0.06807
 N365 N 0.47398 0.03970 -0.07622
 N366 N 0.46774 -0.02308 -0.11412
 N367 N 0.45715 -0.03997 -0.15367
 N368 N 0.45443 -0.02322 -0.06919
 N369 N 0.43443 -0.04023 -0.07697
 N370 N 0.49090 0.02325 -0.11296
 N371 N 0.49670 0.03993 -0.15287
 Mn372 Mn 0.46571 -0.00020 0.00102
 C373 C 0.48602 0.05007 -0.12933
 C374 C 0.43636 -0.05052 -0.12999
 N375 N 0.52195 -0.02322 -0.06940
 N376 N 0.52494 -0.04022 -0.07727
 N377 N 0.53198 0.02326 -0.11306
 N378 N 0.54284 0.04000 -0.15278
 N379 N 0.54517 0.02313 -0.06823
 N380 N 0.56536 0.03977 -0.07621
 N381 N 0.50877 -0.02308 -0.11425
 N382 N 0.50243 -0.03997 -0.15383
 Mn383 Mn 0.53374 -0.00019 0.00082
 Mn384 Mn 0.49985 0.00010 -0.11439
 Cl385 Cl 0.49973 -0.00020 0.00091
 C386 C 0.51268 -0.05051 -0.13027
 C387 C 0.56366 0.05017 -0.12917
 C388 C 1.09809 0.49996 0.24043
 C389 C 1.10730 0.48821 0.21255
 C390 C 1.09806 0.47591 0.15617
 C391 C 1.07960 0.47524 0.12799
 C392 C 1.17525 0.48992 0.32635
 C393 C 1.07964 0.49931 0.21235
 C394 C 1.12604 0.48860 0.24241
 C395 C 1.14163 0.48896 0.26817
 C396 C 1.15980 0.48943 0.29917
 C397 C 1.07016 0.48686 0.15601
 H398 H 1.10511 0.50954 0.28406
 H399 H 1.10506 0.46676 0.13419
 H400 H 1.07266 0.46555 0.08452
 H401 H 1.07274 0.50845 0.23491
 C402 C 0.52046 0.61961 0.15835
 C403 C 0.50735 0.61586 0.21323
 C404 C 0.49583 0.59474 0.23995
 C405 C 0.49751 0.57745 0.21223
 C406 C 0.50371 0.68109 0.32705
 C407 C 0.52216 0.60233 0.13053
 C408 C 0.50606 0.63374 0.24302
 C409 C 0.50512 0.64868 0.26878
 C410 C 0.50424 0.66615 0.29982
 C411 C 0.51078 0.58111 0.15743
 H412 H 0.52947 0.63590 0.13732
 H413 H 0.48565 0.59165 0.28245
 H414 H 0.48851 0.56126 0.23388
 H415 H 0.53246 0.60560 0.08825
 C416 C 0.40270 -0.09808 0.24515
 C417 C 0.38158 -0.10722 0.21836
 C418 C 0.37824 -0.09794 0.16264
 C419 C 0.39592 -0.07952 0.13404
 C420 C 0.31545 -0.17496 0.33303
 C421 C 0.42039 -0.07967 0.21664
 C422 C 0.36333 -0.12591 0.24864
 C423 C 0.34813 -0.14146 0.27463
 C424 C 0.33044 -0.15956 0.30579
 C425 C 0.41715 -0.07015 0.16097
 H426 H 0.40547 -0.10513 0.28827
 H427 H 0.36197 -0.10488 0.14150
 H428 H 0.39296 -0.07255 0.09111
 H429 H 0.43656 -0.07282 0.23836
 C430 C 0.90093 0.52031 0.16365
 C431 C 0.89152 0.50699 0.21806
 C432 C 0.90108 0.49532 0.24406
 C433 C 0.92003 0.49705 0.21607
 C434 C 0.82264 0.50353 0.33108
 C435 C 0.91989 0.52207 0.13557
 C436 C 0.87236 0.50565 0.24801
 C437 C 0.85648 0.50474 0.27365
 C438 C 0.83811 0.50394 0.30432
 C439 C 0.92968 0.51053 0.16172
 H440 H 0.89368 0.52944 0.14317
 H441 H 0.89395 0.48498 0.28620
 H442 H 0.92719 0.48794 0.23713
 H443 H 0.92693 0.53253 0.09366
 C444 C 0.50047 0.40266 0.24296
 C445 C 0.48851 0.38154 0.21617
 C446 C 0.47596 0.37817 0.16020
 C447 C 0.47525 0.39583 0.13135
 C448 C 0.49016 0.31560 0.33158
 C449 C 0.49978 0.42033 0.21421
 C450 C 0.48893 0.36333 0.24667
 C451 C 0.48928 0.34816 0.27285
 C452 C 0.48972 0.33053 0.30421
 C453 C 0.48708 0.41706 0.15828
 H454 H 0.51024 0.40546 0.28627
 H455 H 0.46665 0.36189 0.13905
 H456 H 0.46537 0.39284 0.08823
 H457 H 0.50908 0.43650 0.23593
 C458 C 0.59510 0.09887 0.24335
 C459 C 0.61621 0.10851 0.21633
 C460 C 0.61990 0.09917 0.16126
 C461 C 0.60259 0.08018 0.13351
 C462 C 0.68169 0.17753 0.32908
 C463 C 0.57778 0.07989 0.21571
 C464 C 0.63412 0.12771 0.24597
 C465 C 0.64912 0.14362 0.27151
 C466 C 0.66667 0.16202 0.30220
 C467 C 0.58138 0.07031 0.16069
 H468 H 0.59207 0.10595 0.28601
 H469 H 0.63617 0.10649 0.13999
 H470 H 0.60582 0.07318 0.09106
 H471 H 0.56161 0.07267 0.23757
 C472 C 0.47618 0.09770 -0.15943
 C473 C 0.48878 0.10703 -0.21514
 C474 C 0.50070 0.09789 -0.24226
 C475 C 0.49993 0.07942 -0.21408
 C476 C 0.49047 0.17500 -0.32823
 C477 C 0.47538 0.07921 -0.13117
 C478 C 0.48927 0.12579 -0.24505
 C479 C 0.48964 0.14139 -0.27067
 C480 C 0.49007 0.15956 -0.30138
 C481 C 0.48717 0.06984 -0.15841
 H482 H 0.46688 0.10464 -0.13804
 H483 H 0.51051 0.10499 -0.28538
 H484 H 0.50921 0.07257 -0.23604
 H485 H 0.46545 0.07220 -0.08823
 C486 C 0.59553 0.49592 -0.24307
 C487 C 0.61661 0.50743 -0.21577
 C488 C 0.62022 0.52047 -0.16074
 C489 C 0.60287 0.52212 -0.13332
 C490 C 0.68232 0.50413 -0.32741
 C491 C 0.57816 0.49755 -0.21575
 C492 C 0.63458 0.50620 -0.24509
 C493 C 0.64962 0.50533 -0.27036
 C494 C 0.66724 0.50455 -0.30075
 C495 C 0.58169 0.51075 -0.16078
 H496 H 0.59255 0.48580 -0.28570
 H497 H 0.63648 0.52947 -0.13927
 H498 H 0.60604 0.53237 -0.09091
 H499 H 0.56201 0.48856 -0.23782
 C500 C 0.90052 0.38101 -0.16368
 C501 C 0.89096 0.38482 -0.21796
 C502 C 0.90043 0.40600 -0.24421
 C503 C 0.91946 0.42329 -0.21659
 C504 C 0.82187 0.31903 -0.32959
 C505 C 0.91955 0.39827 -0.13598
 C506 C 0.87173 0.36691 -0.24754
 C507 C 0.85580 0.35187 -0.27284
 C508 C 0.83738 0.33419 -0.30313
 C509 C 0.92926 0.41956 -0.16238
 H510 H 0.89335 0.36467 -0.14300
 H511 H 0.89319 0.40913 -0.28626
 H512 H 0.92656 0.43952 -0.23785
 H513 H 0.92672 0.39494 -0.09416
 C514 C 0.49556 -0.09952 -0.24089
 C515 C 0.50698 -0.10917 -0.21374
 C516 C 0.52008 -0.09977 -0.15879
 C517 C 0.52187 -0.08071 -0.13131
 C518 C 0.50323 -0.17840 -0.32551
 C519 C 0.49733 -0.08046 -0.21350
 C520 C 0.50561 -0.12844 -0.24310
 C521 C 0.50463 -0.14440 -0.26839
 C522 C 0.50374 -0.16286 -0.29882
 C523 C 0.51058 -0.07082 -0.15861
 H524 H 0.48540 -0.10664 -0.28345
 H525 H 0.52901 -0.10709 -0.13743
 H526 H 0.53216 -0.07366 -0.08895
 H527 H 0.48841 -0.07324 -0.23545
 C528 C 0.40301 0.50056 -0.24710
 C529 C 0.38190 0.48865 -0.22028
 C530 C 0.37856 0.47602 -0.16461
 C531 C 0.39621 0.47519 -0.13608
 C532 C 0.31576 0.49051 -0.33430
 C533 C 0.42067 0.49975 -0.21866
 C534 C 0.36367 0.48918 -0.25045
 C535 C 0.34847 0.48959 -0.27629
 C536 C 0.33077 0.49007 -0.30725
 C537 C 0.41742 0.48697 -0.16302
 H538 H 0.40578 0.51039 -0.29019
 H539 H 0.36229 0.46674 -0.14344
 H540 H 0.39324 0.46525 -0.09318
 H541 H 0.43684 0.50902 -0.24038
 C542 C 1.09791 0.62259 -0.15867
 C543 C 1.10707 0.61947 -0.21510
 C544 C 1.09775 0.59851 -0.24306
 C545 C 1.07928 0.58075 -0.21499
 C546 C 1.17514 0.68567 -0.32836
 C547 C 1.07943 0.60484 -0.13050
 C548 C 1.12583 0.63779 -0.24489
 C549 C 1.14146 0.65301 -0.27053
 C550 C 1.15966 0.67070 -0.30136
 C551 C 1.06989 0.58377 -0.15858
 H552 H 1.10500 0.63874 -0.13662
 H553 H 1.10470 0.59592 -0.28673
 H554 H 1.07230 0.56470 -0.23759
 H555 H 1.07257 0.60762 -0.08698
 C556 C 0.90221 0.50073 -0.24134
 C557 C 0.89300 0.51243 -0.21323
 C558 C 0.90229 0.52476 -0.15693
 C559 C 0.92082 0.52550 -0.12905
 C560 C 0.82497 0.51071 -0.32631
 C561 C 0.92073 0.50145 -0.21356
 C562 C 0.87421 0.51201 -0.24281
 C563 C 0.85859 0.51164 -0.26836
 C564 C 0.84041 0.51118 -0.29919
 C565 C 0.93027 0.51392 -0.15731
 H566 H 0.89515 0.49114 -0.28492
 H567 H 0.89529 0.53388 -0.13479
 H568 H 0.92781 0.53521 -0.08565
 H569 H 0.92764 0.49234 -0.23628
 C570 C 0.50444 0.40432 -0.24238
 C571 C 0.49303 0.38328 -0.21505
 C572 C 0.47988 0.37962 -0.16034
 C573 C 0.47803 0.39691 -0.13327
 C574 C 0.49673 0.31765 -0.32570
 C575 C 0.50261 0.42162 -0.21540
 C576 C 0.49443 0.36536 -0.24406
 C577 C 0.49540 0.35034 -0.26906
 C578 C 0.49627 0.33273 -0.29919
 C579 C 0.48930 0.41804 -0.16076
 H580 H 0.51464 0.40732 -0.28478
 H581 H 0.47095 0.36339 -0.13886
 H582 H 0.46770 0.39370 -0.09109
 H583 H 0.51152 0.43774 -0.23748
 C584 C 0.59682 0.09822 -0.24139
 C585 C 0.61787 0.10737 -0.21408
 C586 C 0.62112 0.09799 -0.15848
 C587 C 0.60343 0.07943 -0.13051
 C588 C 0.68435 0.17534 -0.32659
 C589 C 0.57911 0.07966 -0.21350
 C590 C 0.63617 0.12617 -0.24376
 C591 C 0.65144 0.14179 -0.26921
 C592 C 0.66925 0.15994 -0.29977
 C593 C 0.58227 0.07003 -0.15796
 H594 H 0.59413 0.10535 -0.28443
 H595 H 0.63734 0.10494 -0.13697
 H596 H 0.60633 0.07238 -0.08766
 H597 H 0.56299 0.07279 -0.23558
 C598 C 1.09977 0.48085 -0.16476
 C599 C 1.10920 0.49418 -0.21912
 C600 C 1.09964 0.50583 -0.24528
 C601 C 1.08065 0.50405 -0.21748
 C602 C 1.17800 0.49748 -0.33202
 C603 C 1.08077 0.47905 -0.13688
 C604 C 1.12837 0.49551 -0.24894
 C605 C 1.14424 0.49640 -0.27451
 C606 C 1.16257 0.49713 -0.30517
 C607 C 1.07097 0.49056 -0.16319
 H608 H 1.10702 0.47174 -0.14418
 H609 H 1.10679 0.51617 -0.28740
 H610 H 1.07348 0.51314 -0.23866
 H611 H 1.07370 0.46857 -0.09500
 C612 C 0.49876 0.59654 -0.24541
 C613 C 0.51060 0.61757 -0.21799
 C614 C 0.52318 0.62083 -0.16216
 C615 C 0.52403 0.60316 -0.13406
 C616 C 0.50901 0.68400 -0.33022
 C617 C 0.49959 0.57884 -0.21739
 C618 C 0.51009 0.63584 -0.24771
 C619 C 0.50973 0.65111 -0.27314
 C620 C 0.50935 0.66890 -0.30357
 C621 C 0.51232 0.58202 -0.16160
 H622 H 0.48898 0.59383 -0.28863
 H623 H 0.53240 0.63705 -0.14055
 H624 H 0.53393 0.60607 -0.09102
 H625 H 0.49038 0.56273 -0.23955
 C626 C 0.40438 -0.09952 -0.24050
 C627 C 0.38331 -0.10917 -0.21327
 C628 C 0.37965 -0.09977 -0.15829
 C629 C 0.39695 -0.08071 -0.13085
 C630 C 0.31777 -0.17825 -0.32543
 C631 C 0.42170 -0.08047 -0.21316
 C632 C 0.36539 -0.12841 -0.24264
 C633 C 0.35038 -0.14434 -0.26800
 C634 C 0.33280 -0.16275 -0.29855
 C635 C 0.41812 -0.07083 -0.15825
 H636 H 0.40740 -0.10665 -0.28309
 H637 H 0.36339 -0.10709 -0.13688
 H638 H 0.39374 -0.07366 -0.08848
 H639 H 0.43786 -0.07325 -0.23517
 C640 C 0.49884 -0.09819 0.24419
 C641 C 0.51078 -0.10731 0.21708
 C642 C 0.52335 -0.09800 0.16132
 C643 C 0.52412 -0.07954 0.13300
 C644 C 0.50928 -0.17508 0.33055
 C645 C 0.49958 -0.07974 0.21596
 C646 C 0.51034 -0.12602 0.24706
 C647 C 0.51002 -0.14158 0.27278
 C648 C 0.50964 -0.15969 0.30359
 C649 C 0.51231 -0.07018 0.16025
 H650 H 0.48905 -0.10527 0.28735
 H651 H 0.53266 -0.10493 0.13994
 H652 H 0.53403 -0.07254 0.09003
 H653 H 0.49029 -0.07290 0.23791
 C654 C 0.40440 0.50370 0.23731
 C655 C 0.38335 0.49226 0.20985
 C656 C 0.37970 0.47915 0.15498
 C657 C 0.39702 0.47736 0.12787
 C658 C 0.31788 0.49604 0.32111
 C659 C 0.42173 0.50193 0.21031
 C660 C 0.36542 0.49362 0.23891
 C661 C 0.35043 0.49460 0.26404
 C662 C 0.33288 0.49551 0.29438
 C663 C 0.41817 0.48866 0.15550
 H664 H 0.40740 0.51387 0.27983
 H665 H 0.36346 0.47020 0.13340
 H666 H 0.39382 0.46706 0.08557
 H667 H 0.43786 0.51086 0.23249
 C668 C 1.10007 0.61985 0.16177
 C669 C 1.10961 0.61600 0.21602
 C670 C 1.10013 0.59480 0.24219
 C671 C 1.08110 0.57755 0.21453
 C672 C 1.17850 0.68153 0.32892
 C673 C 1.08104 0.60261 0.13402
 C674 C 1.12881 0.63387 0.24575
 C675 C 1.14470 0.64886 0.27131
 C676 C 1.16305 0.66646 0.30201
 C677 C 1.07132 0.58132 0.16037
 H678 H 1.10726 0.63620 0.14119
 H679 H 1.10736 0.59165 0.28423
 H680 H 1.07399 0.56130 0.23573
 H681 H 1.07388 0.60597 0.09224
 C682 C 0.47936 0.09931 0.16093
 C683 C 0.49248 0.10869 0.21586
 C684 C 0.50392 0.09904 0.24287
 C685 C 0.50216 0.08002 0.21537
 C686 C 0.49618 0.17768 0.32886
 C687 C 0.47758 0.08028 0.13332
 C688 C 0.49383 0.12791 0.24543
 C689 C 0.49479 0.14382 0.27098
 C690 C 0.49567 0.16221 0.30179
 C691 C 0.48889 0.07039 0.16050
 H692 H 0.47041 0.10664 0.13969
 H693 H 0.51409 0.10615 0.28543
 H694 H 0.51110 0.07279 0.23722
 H695 H 0.46728 0.07324 0.09099
 C696 C 0.62122 0.52319 0.15972
 C697 C 0.61791 0.51060 0.21544
 C698 C 0.59682 0.49866 0.24233
 C699 C 0.57912 0.49942 0.21391
 C700 C 0.68424 0.50929 0.32983
 C701 C 0.60353 0.52397 0.13121
 C702 C 0.63618 0.51018 0.24565
 C703 C 0.65143 0.50989 0.27156
 C704 C 0.66919 0.50957 0.30262
 C705 C 0.58234 0.51216 0.15824
 H706 H 0.63747 0.53249 0.13851
 H707 H 0.59408 0.48887 0.28547
 H708 H 0.56297 0.49013 0.23568
 H709 H 0.60648 0.53388 0.08827
 C710 C 0.90291 0.40247 0.24124
 C711 C 0.89362 0.38150 0.21338
 C712 C 0.90275 0.37837 0.15694
 C713 C 0.92120 0.39612 0.12866
 C714 C 0.82587 0.31543 0.32783
 C715 C 0.92134 0.42023 0.21307
 C716 C 0.87492 0.36319 0.24334
 C717 C 0.85936 0.34798 0.26923
 C718 C 0.84126 0.33034 0.30043
 C719 C 0.93072 0.41720 0.15667
 H720 H 0.89596 0.40507 0.28493
 H721 H 0.89569 0.36220 0.13498
 H722 H 0.92806 0.39333 0.08515
 H723 H 0.92830 0.43629 0.23561
   
