data_POSCAR
  _audit_creation_date              2014-09-24
  _audit_creation_method            'ToBaCCo'
  _symmetry_space_group_name_H-M    'P1'
  _symmetry_Int_Tables_number       1
  _symmetry_cell_setting            triclinic
  loop_
  _symmetry_equiv_pos_as_xyz
 x,y,z
_cell_length_a 25.2278
_cell_length_b 25.4897
_cell_length_c 51.0259
_cell_angle_alpha 90.515900
_cell_angle_beta 88.319500
_cell_angle_gamma 120.967200
loop_
  _atom_site_label
  _atom_site_type_symbol
  _atom_site_fract_x
  _atom_site_fract_y
  _atom_site_fract_z
C1 C -0.04068 0.03363 0.55156
 H2 H -0.03229 0.00190 0.56186
 C3 C -0.04599 0.07794 0.56569
 H4 H -0.04268 0.07904 0.58683
 C5 C -0.05083 0.07358 0.51153
 H6 H -0.05053 0.07272 0.49033
 C7 C -0.05607 0.11889 0.52487
 H8 H -0.05966 0.15238 0.51347
 N9 N -0.04271 0.03254 0.52495
 C10 C 0.04572 -0.06741 0.52778
 H11 H 0.08408 -0.03558 0.51528
 C12 C 0.05152 -0.10910 0.54325
 H13 H 0.09482 -0.10844 0.54279
 C14 C -0.05838 -0.10959 0.54257
 H15 H -0.10157 -0.11038 0.54161
 C16 C -0.05462 -0.15192 0.55830
 H17 H -0.09565 -0.18538 0.56909
 Zn18 Zn -0.02279 -0.01850 0.50530
 N19 N -0.00865 -0.06830 0.52783
 C20 C 0.10074 0.07481 0.49665
 N21 N 0.04798 0.03424 0.48443
 C22 C 0.04303 0.03662 0.45805
 C23 C 0.09182 0.08236 0.44298
 C24 C 0.15111 0.12057 0.48224
 C25 C -0.14222 -0.07451 0.48198
 C26 C -0.19013 -0.12032 0.46742
 C27 C -0.12480 -0.16167 0.45689
 C28 C -0.07823 -0.11478 0.47129
 N29 N -0.08784 -0.07305 0.48378
 H30 H 0.10287 0.07283 0.51774
 H31 H 0.00024 0.00481 0.44880
 H32 H 0.08669 0.08437 0.42209
 H33 H 0.19238 0.15340 0.49228
 H34 H -0.14902 -0.04107 0.49226
 H35 H -0.23337 -0.12100 0.46657
 H36 H -0.11383 -0.19275 0.44710
 H37 H -0.03428 -0.11218 0.47298
 C38 C 0.00106 -0.15194 0.55883
 C39 C -0.05297 0.12186 0.55240
 C40 C -0.18285 -0.16622 0.45522
 C41 C 0.14617 0.12582 0.45523
 C42 C 1.08761 0.03081 0.12817
 H43 H 1.08745 0.07314 0.12935
 C44 C 1.13060 0.02702 0.11179
 H45 H 1.16351 0.06674 0.10032
 C46 C 1.04528 -0.07190 0.14216
 H47 H 1.01225 -0.11005 0.15425
 C48 C 1.08783 -0.07767 0.12605
 H49 H 1.08571 -0.12110 0.12560
 N50 N 1.04592 -0.01823 0.14283
 C51 C 0.89984 0.02225 0.15725
 H52 H 0.89981 0.02569 0.17839
 C53 C 0.85561 0.02647 0.14307
 H54 H 0.82188 0.03382 0.15340
 C55 C 0.94208 0.00570 0.11815
 H56 H 0.97478 -0.00394 0.10852
 C57 C 0.89872 0.00953 0.10325
 H58 H 0.90053 0.00508 0.08219
 Zn59 Zn 0.99305 -0.00460 0.16503
 N60 N 0.94157 0.01152 0.14467
 C61 C 1.04749 0.11668 0.18596
 N62 N 1.04554 0.06236 0.18623
 C63 C 1.08539 0.05443 0.20061
 C64 C 1.12975 0.10219 0.21544
 C65 C 1.09159 0.16606 0.20046
 C66 C 0.89886 -0.12620 0.17388
 C67 C 0.85420 -0.17647 0.18851
 C68 C 0.89526 -0.11805 0.22802
 C69 C 0.93911 -0.06895 0.21264
 N70 N 0.94015 -0.07381 0.18609
 H71 H 1.01596 0.12225 0.17405
 H72 H 1.08291 0.01077 0.20033
 H73 H 1.15985 0.09385 0.22707
 H74 H 1.09339 0.20941 0.19980
 H75 H 0.89965 -0.12829 0.15270
 H76 H 0.82101 -0.21751 0.17845
 H77 H 0.89415 -0.11180 0.24897
 H78 H 0.97066 -0.02621 0.22194
 C79 C 0.85364 0.01844 0.11580
 C80 C 1.13169 -0.02736 0.11074
 C81 C 0.85182 -0.17281 0.21593
 C82 C 1.13431 0.15953 0.21500
 C83 C 0.07463 0.97832 0.86942
 H84 H 0.03050 0.93591 0.86907
 C85 C 0.12052 0.98391 0.88579
 H86 H 0.11118 0.94561 0.89817
 C87 C 0.14081 1.07876 0.85287
 H88 H 0.14877 1.11507 0.83958
 C89 C 0.18826 1.08631 0.86892
 H90 H 0.23161 1.12944 0.86818
 N91 N 0.08559 1.02513 0.85326
 C92 C -0.10334 0.96680 0.83283
 H93 H -0.10164 0.95805 0.81213
 C94 C -0.15766 0.95928 0.84441
 H95 H -0.19784 0.94356 0.83244
 C96 C -0.05179 1.00099 0.87298
 H97 H -0.00991 1.01859 0.88387
 C98 C -0.10464 0.99577 0.88521
 H99 H -0.10252 1.00739 0.90571
 Zn100 Zn 0.02313 1.00787 0.82926
 N101 N -0.05189 0.98719 0.84718
 C102 C -0.03587 0.88659 0.80811
 N103 N 0.01606 0.94311 0.80826
 C104 C 0.06822 0.95497 0.79463
 C105 C 0.06928 0.90956 0.77958
 C106 C -0.03684 0.83968 0.79330
 C107 C 0.04947 1.12682 0.82082
 C108 C 0.05440 1.17565 0.80653
 C109 C 0.04747 1.12110 0.76659
 C110 C 0.04272 1.07328 0.78166
 N111 N 0.04298 1.07665 0.80828
 H112 H -0.07613 0.87732 0.81985
 H113 H 0.10943 0.99983 0.79575
 H114 H 0.11200 0.92013 0.76952
 H115 H -0.07840 0.79479 0.79345
 H116 H 0.04847 1.12783 0.84202
 H117 H 0.05785 1.21453 0.81688
 H118 H 0.04694 1.11715 0.74547
 H119 H 0.03632 1.03257 0.77206
 C120 C -0.15847 0.97571 0.87072
 C121 C 0.17872 1.03780 0.88531
 C122 C 0.05151 1.17240 0.77911
 C123 C 0.01598 0.85098 0.77861
 C124 C 0.50603 0.00568 0.01067
 C125 C 0.51414 0.01464 -0.01583
 C126 C 0.46743 0.01714 -0.03200
 C127 C 0.56982 0.02159 -0.02999
 C128 C 0.55223 0.00254 0.02690
 C129 C 0.45117 -0.00034 0.02509
 C130 C 0.40562 -0.03109 -0.03171
 C131 C 0.36187 -0.02678 -0.04623
 C132 C 0.37895 0.02556 -0.06145
 C133 C 0.44154 0.07289 -0.06243
 C134 C 0.48519 0.06856 -0.04784
 C135 C 0.56263 -0.01818 -0.05055
 C136 C 0.61416 -0.01568 -0.06281
 C137 C 0.67449 0.02703 -0.05471
 C138 C 0.68128 0.06804 -0.03458
 C139 C 0.62967 0.06593 -0.02262
 C140 C 0.57891 0.04365 0.04763
 C141 C 0.62422 0.04319 0.06251
 C142 C 0.64397 0.00185 0.05687
 C143 C 0.61542 -0.04104 0.03670
 C144 C 0.56976 -0.04078 0.02191
 C145 C 0.43662 0.04579 0.02397
 C146 C 0.38549 0.03970 0.03816
 C147 C 0.34812 -0.01237 0.05382
 C148 C 0.36363 -0.05803 0.05524
 C149 C 0.41463 -0.05193 0.04100
 H150 H 0.39121 -0.07183 -0.02007
 H151 H 0.31431 -0.06434 -0.04539
 H152 H 0.45753 0.11310 -0.07454
 H153 H 0.53288 0.10585 -0.04862
 H154 H 0.51679 -0.05259 -0.05659
 H155 H 0.60553 -0.04884 -0.07791
 H156 H 0.63636 0.09802 -0.00717
 H157 H 0.56546 0.07696 0.05197
 H158 H 0.64481 0.07607 0.07815
 H159 H 0.62755 -0.07527 0.03246
 H160 H 0.54840 -0.07401 0.00646
 H161 H 0.46512 0.08666 0.01229
 H162 H 0.37519 0.07594 0.03696
 H163 H 0.33771 -0.09791 0.06767
 H164 H 0.42577 -0.08756 0.04242
 H165 H 0.72677 0.10186 -0.02793
 C166 C 0.01985 0.50266 0.67878
 C167 C 0.00813 0.49810 0.65268
 C168 C 0.00130 0.44597 0.63682
 C169 C 0.00180 0.54515 0.63853
 C170 C 0.02682 0.55496 0.69458
 C171 C 0.02536 0.45517 0.69297
 C172 C 0.04890 0.43288 0.63482
 C173 C 0.04091 0.38268 0.62029
 C174 C -0.01433 0.34521 0.60718
 C175 C -0.06180 0.35880 0.60912
 C176 C -0.05373 0.40900 0.62363
 C177 C 0.04073 0.57525 0.61674
 C178 C 0.03729 0.62140 0.60381
 C179 C -0.00496 0.63854 0.61245
 C180 C -0.04558 0.60676 0.63377
 C181 C -0.04232 0.56031 0.64661
 C182 C -0.01242 0.54378 0.71653
 C183 C -0.00923 0.59240 0.73070
 C184 C 0.03308 0.65313 0.72317
 C185 C 0.07432 0.66430 0.70180
 C186 C 0.07128 0.61556 0.68771
 C187 C -0.02299 0.39383 0.69346
 C188 C -0.01632 0.34945 0.70632
 C189 C 0.03894 0.36577 0.71901
 C190 C 0.08626 0.42754 0.71921
 C191 C 0.07957 0.47181 0.70631
 H192 H 0.09204 0.46136 0.64460
 H193 H 0.07812 0.37318 0.61922
 H194 H -0.10574 0.33025 0.60001
 H195 H -0.09104 0.41833 0.62506
 H196 H 0.07464 0.56376 0.61005
 H197 H 0.06845 0.64449 0.58723
 H198 H -0.07395 0.53638 0.66295
 H199 H -0.04662 0.49732 0.72230
 H200 H -0.04086 0.58252 0.74728
 H201 H 0.10932 0.71034 0.69602
 H202 H 0.10313 0.62506 0.67126
 H203 H -0.06588 0.38040 0.68390
 H204 H -0.05490 0.30282 0.70662
 H205 H 0.12887 0.44151 0.72913
 H206 H 0.11713 0.51905 0.70638
 H207 H -0.08052 0.61679 0.64037
 C208 C 0.47822 0.49565 0.35034
 C209 C 0.48022 0.49998 0.32371
 C210 C 0.53495 0.54990 0.30941
 C211 C 0.42954 0.45310 0.30755
 C212 C 0.43066 0.43951 0.36430
 C213 C 0.52575 0.54530 0.36656
 C214 C 0.52744 0.58603 0.29108
 C215 C 0.57853 0.63164 0.27692
 C216 C 0.63806 0.64196 0.28079
 C217 C 0.64526 0.60475 0.29884
 C218 C 0.59415 0.55918 0.31297
 C219 C 0.36760 0.43556 0.31288
 C220 C 0.32036 0.39029 0.29794
 C221 C 0.33405 0.36196 0.27730
 C222 C 0.39645 0.38167 0.27127
 C223 C 0.44354 0.42653 0.28633
 C224 C 0.42711 0.38340 0.35977
 C225 C 0.38227 0.33053 0.37299
 C226 C 0.33962 0.33275 0.39053
 C227 C 0.34389 0.38924 0.39535
 C228 C 0.38948 0.44230 0.38249
 C229 C 0.56088 0.53282 0.38334
 C230 C 0.60827 0.57974 0.39755
 C231 C 0.62132 0.64054 0.39543
 C232 C 0.58365 0.65202 0.37953
 C233 C 0.53674 0.60503 0.36506
 H234 H 0.48198 0.57893 0.28778
 H235 H 0.57154 0.65910 0.26293
 H236 H 0.68981 0.60950 0.30171
 H237 H 0.60058 0.53038 0.32640
 H238 H 0.35581 0.45678 0.32865
 H239 H 0.27288 0.37684 0.30273
 H240 H 0.49105 0.44012 0.28155
 H241 H 0.45923 0.38072 0.34606
 H242 H 0.38022 0.28765 0.36922
 H243 H 0.31261 0.39257 0.40930
 H244 H 0.39215 0.48542 0.38642
 H245 H 0.55243 0.48678 0.38504
 H246 H 0.63332 0.56726 0.41040
 H247 H 0.59151 0.69783 0.37768
 H248 H 0.50932 0.61531 0.35250
 H249 H 0.40944 0.36313 0.25486
 C250 C -0.05168 0.17222 0.56779
 C251 C -0.06742 0.21122 0.55840
 C252 C -0.06220 0.26338 0.57353
 C253 C -0.02119 0.29164 0.59249
 H254 H -0.08723 0.20420 0.53929
 H255 H -0.09048 0.28124 0.56726
 H256 H -0.03733 0.17684 0.58789
 H257 H 0.01106 0.27701 0.59673
 C258 C 0.80093 0.77513 0.23091
 C259 C 0.80203 0.76673 0.25677
 C260 C 0.74994 0.71673 0.27195
 C261 C 0.69070 0.69030 0.26503
 H262 H 0.84341 0.79591 0.26748
 H263 H 0.76122 0.70502 0.29044
 H264 H 0.76157 0.74202 0.21996
 H265 H 0.67955 0.70676 0.24778
 C266 C 0.22761 0.04019 -0.09830
 C267 C 0.28834 0.08023 -0.10201
 C268 C 0.33673 0.07913 -0.08672
 C269 C 0.33037 0.02785 -0.07632
 H270 H 0.30448 0.11610 -0.11658
 H271 H 0.37965 0.12226 -0.08518
 H272 H 0.21253 0.00564 -0.08310
 H273 H 0.28738 -0.01507 -0.07866
 C274 C 0.00666 0.80170 0.57388
 C275 C -0.03026 0.77111 0.59460
 C276 C -0.02755 0.72244 0.60895
 C277 C -0.00623 0.68832 0.59822
 H278 H -0.06286 0.78325 0.60235
 H279 H -0.04615 0.71358 0.62885
 H280 H 0.04347 0.79380 0.56788
 H281 H 0.01201 0.69732 0.57825
 C282 C 0.18279 0.21280 0.22937
 C283 C 0.23702 0.21815 0.23505
 C284 C 0.28760 0.26989 0.24908
 C285 C 0.28239 0.31266 0.26248
 H286 H 0.24709 0.18380 0.22827
 H287 H 0.33043 0.26990 0.24926
 H288 H 0.17437 0.24938 0.23408
 H289 H 0.23819 0.30989 0.26407
 C290 C 0.78766 -0.02748 -0.11884
 C291 C 0.78460 0.00024 -0.09548
 C292 C 0.72950 -0.00377 -0.08702
 C293 C 0.72800 0.02964 -0.06536
 H294 H 0.82555 0.02757 -0.08424
 H295 H 0.68849 -0.03190 -0.09808
 H296 H 0.74654 -0.04951 -0.13054
 H297 H 0.77171 0.06064 -0.05635
 C298 C 0.17937 -0.02874 0.09354
 C299 C 0.19782 -0.06926 0.09600
 C300 C 0.24858 -0.06725 0.07990
 C301 C 0.29550 -0.01565 0.06910
 H302 H 0.17536 -0.10600 0.11023
 H303 H 0.24756 -0.10999 0.07804
 H304 H 0.20143 0.00685 0.07874
 H305 H 0.29632 0.02695 0.07161
 C306 C 0.76880 0.78754 0.44266
 C307 C 0.76702 0.73433 0.43362
 C308 C 0.71847 0.68684 0.42001
 C309 C 0.67016 0.68984 0.40859
 H310 H 0.80306 0.72561 0.43866
 H311 H 0.72216 0.64682 0.41698
 H312 H 0.72755 0.79014 0.44089
 H313 H 0.67245 0.73340 0.40817
 C314 C 0.05084 0.22216 0.76455
 C315 C 0.02485 0.21390 0.74111
 C316 C 0.01750 0.26050 0.72730
 C317 C 0.04819 0.32039 0.73295
 H318 H 0.00345 0.16935 0.73204
 H319 H -0.01382 0.24391 0.71116
 H320 H 0.06755 0.26506 0.77468
 H321 H 0.08349 0.33792 0.74752
 C322 C 0.80388 0.01891 0.10126
 C323 C 0.78246 -0.01138 0.07868
 C324 C 0.73179 -0.01400 0.06371
 C325 C 0.69346 0.00434 0.07274
 H326 H 0.80261 -0.03647 0.07025
 H327 H 0.72641 -0.03245 0.04415
 H328 H 0.78329 0.04305 0.11020
 H329 H 0.69913 0.02396 0.09204
 C330 C 0.19694 0.17819 0.44056
 C331 C 0.18574 0.20790 0.42201
 C332 C 0.23460 0.26441 0.40902
 C333 C 0.29208 0.27603 0.40400
 H334 H 0.13843 0.19374 0.41774
 H335 H 0.22127 0.29589 0.40207
 H336 H 0.24373 0.19629 0.44699
 H337 H 0.30365 0.24165 0.40839
 C338 C 0.01489 0.80020 0.76371
 C339 C 0.05363 0.80914 0.74334
 C340 C 0.05382 0.75919 0.72845
 C341 C 0.03315 0.70308 0.73833
 H342 H 0.08502 0.85498 0.73604
 H343 H 0.07334 0.77049 0.70872
 H344 H -0.02068 0.75412 0.76925
 H345 H 0.01389 0.69222 0.75812
   
