data_POSCAR
  _audit_creation_date              2014-09-24
  _audit_creation_method            'ToBaCCo'
  _symmetry_space_group_name_H-M    'P1'
  _symmetry_Int_Tables_number       1
  _symmetry_cell_setting            triclinic
  loop_
  _symmetry_equiv_pos_as_xyz
 x,y,z
_cell_length_a 32.8241
_cell_length_b 33.5009
_cell_length_c 33.2567
_cell_angle_alpha 89.679100
_cell_angle_beta 90.596800
_cell_angle_gamma 90.188700
loop_
  _atom_site_label
  _atom_site_type_symbol
  _atom_site_fract_x
  _atom_site_fract_y
  _atom_site_fract_z
N1 N 0.29548 0.21316 0.18635
 N2 N 0.27468 0.23517 0.16064
 C3 C 0.29690 0.24086 0.12733
 C4 C 0.33388 0.22166 0.13253
 C5 C 0.33188 0.20436 0.17046
 H6 H 0.28739 0.25837 0.10150
 H7 H 0.35496 0.18682 0.18566
 Cu8 Cu 0.22184 0.25645 0.17438
 Cu9 Cu 0.27406 0.19858 0.23886
 Cu10 Cu 0.17147 0.21857 0.25301
 N11 N 0.17589 0.28419 0.19730
 N12 N 0.15516 0.26894 0.22733
 C13 C 0.12448 0.29391 0.23626
 C14 C 0.12668 0.32694 0.21095
 C15 C 0.15966 0.31950 0.18650
 H16 H 0.10271 0.28892 0.25998
 H17 H 0.17116 0.33814 0.16253
 N18 N 0.20238 0.18017 0.28670
 N19 N 0.24176 0.17397 0.28218
 C20 C 0.25448 0.14714 0.30980
 C21 C 0.22161 0.13588 0.33311
 C22 C 0.18901 0.15732 0.31737
 H23 H 0.28526 0.13597 0.31193
 H24 H 0.15787 0.15636 0.32767
 H25 H 0.21661 0.19552 0.21498
 H26 H 0.22781 0.24059 0.24589
 N27 N 0.72015 -0.20049 0.17421
 N28 N 0.73548 -0.23221 0.15701
 C29 C 0.71078 -0.24366 0.12664
 C30 C 0.67822 -0.21735 0.12427
 C31 C 0.68511 -0.19056 0.15532
 H32 H 0.71597 -0.26967 0.10835
 H33 H 0.66590 -0.16584 0.16371
 Cu34 Cu 0.78624 -0.25593 0.17588
 Cu35 Cu 0.74749 -0.17490 0.21966
 Cu36 Cu 0.80871 -0.24091 0.27334
 N37 N 0.82866 -0.28629 0.20320
 N38 N 0.83673 -0.28095 0.24157
 C39 C 0.86487 -0.30769 0.25367
 C40 C 0.87493 -0.33136 0.22107
 C41 C 0.85165 -0.31636 0.18940
 H42 H 0.87682 -0.30964 0.28402
 H43 H 0.85059 -0.32743 0.15892
 N44 N 0.78865 -0.19022 0.29584
 N45 N 0.76652 -0.16451 0.27490
 C46 C 0.75954 -0.13218 0.29764
 C47 C 0.77805 -0.13777 0.33483
 C48 C 0.79635 -0.17491 0.33251
 H49 H 0.74230 -0.10635 0.28793
 H50 H 0.81481 -0.18942 0.35531
 H51 H 0.80431 -0.20408 0.22454
 H52 H 0.75671 -0.23142 0.23804
 N53 N 0.71042 0.20351 0.81908
 N54 N 0.73038 0.23095 0.83943
 C55 C 0.70881 0.24091 0.87205
 C56 C 0.67327 0.21844 0.87222
 C57 C 0.67536 0.19513 0.83805
 H58 H 0.71800 0.26358 0.89328
 H59 H 0.65265 0.17404 0.82758
 Cu60 Cu 0.78154 0.25284 0.82044
 Cu61 Cu 0.73121 0.18155 0.76919
 Cu62 Cu 0.81329 0.23107 0.72718
 N63 N 0.82201 0.28540 0.79348
 N64 N 0.83401 0.27728 0.75685
 C65 C 0.86152 0.30492 0.74541
 C66 C 0.86657 0.33225 0.77638
 C67 C 0.84140 0.31837 0.80663
 H68 H 0.87698 0.30481 0.71687
 H69 H 0.83742 0.33137 0.83602
 N70 N 0.78777 0.18342 0.70242
 N71 N 0.75692 0.16425 0.71891
 C72 C 0.74719 0.13246 0.69611
 C73 C 0.77317 0.13140 0.66358
 C74 C 0.79823 0.16442 0.66843
 H75 H 0.72282 0.11180 0.70272
 H76 H 0.82269 0.17346 0.64880
 H77 H 0.79233 0.19723 0.77487
 H78 H 0.75701 0.23593 0.75361
 N79 N 0.28877 -0.20493 0.82043
 N80 N 0.27433 -0.23734 0.83762
 C81 C 0.29865 -0.24737 0.86893
 C82 C 0.33035 -0.22011 0.87115
 C83 C 0.32275 -0.19328 0.84015
 H84 H 0.29425 -0.27306 0.88824
 H85 H 0.34092 -0.16753 0.83214
 Cu86 Cu 0.22678 -0.26453 0.81553
 Cu87 Cu 0.26365 -0.18158 0.77246
 Cu88 Cu 0.17895 -0.23029 0.73238
 N89 N 0.17927 -0.29168 0.79344
 N90 N 0.16061 -0.27837 0.76089
 C91 C 0.12960 -0.30328 0.75167
 C92 C 0.12926 -0.33433 0.77955
 C93 C 0.16094 -0.32549 0.80593
 H94 H 0.10908 -0.29943 0.72630
 H95 H 0.16997 -0.34238 0.83229
 N96 N 0.20245 -0.18111 0.70831
 N97 N 0.23426 -0.16246 0.72408
 C98 C 0.24338 -0.13057 0.70102
 C99 C 0.21599 -0.12870 0.66914
 C100 C 0.19070 -0.16148 0.67459
 H101 H 0.26886 -0.11082 0.70649
 H102 H 0.16584 -0.17045 0.65504
 H103 H 0.20517 -0.20323 0.78155
 H104 H 0.23913 -0.23410 0.74984
 N105 N 0.70810 -0.20926 0.81667
 N106 N 0.72331 -0.24146 0.83377
 C107 C 0.69926 -0.25239 0.86457
 C108 C 0.66708 -0.22586 0.86644
 C109 C 0.67407 -0.19859 0.83591
 H110 H 0.70471 -0.27762 0.88430
 H111 H 0.65586 -0.17275 0.82836
 Cu112 Cu 0.77297 -0.26579 0.81396
 Cu113 Cu 0.73255 -0.18379 0.77018
 Cu114 Cu 0.81964 -0.22730 0.73286
 N115 N 0.82115 -0.29053 0.79130
 N116 N 0.83949 -0.27478 0.76006
 C117 C 0.87128 -0.29769 0.74998
 C118 C 0.87347 -0.32949 0.77664
 C119 C 0.84069 -0.32429 0.80209
 H120 H 0.89040 -0.29224 0.72427
 H121 H 0.83145 -0.34408 0.82615
 N122 N 0.79499 -0.17925 0.70926
 N123 N 0.76174 -0.16259 0.72332
 C124 C 0.75142 -0.13160 0.69938
 C125 C 0.77921 -0.12908 0.66850
 C126 C 0.80669 -0.15941 0.67608
 H127 H 0.72509 -0.11280 0.70341
 H128 H 0.83295 -0.16687 0.65836
 H129 H 0.75919 -0.23510 0.74869
 H130 H 0.79117 -0.20260 0.78202
 N131 N 0.29009 0.20970 0.81672
 N132 N 0.27245 0.23919 0.83565
 C133 C 0.29530 0.24909 0.86798
 C134 C 0.32905 0.22437 0.86939
 C135 C 0.32484 0.20002 0.83616
 H136 H 0.28819 0.27292 0.88845
 H137 H 0.34559 0.17685 0.82702
 Cu138 Cu 0.22200 0.26288 0.81583
 Cu139 Cu 0.26635 0.18541 0.76896
 Cu140 Cu 0.17723 0.22706 0.73178
 N141 N 0.17394 0.28777 0.79196
 N142 N 0.15630 0.27325 0.75954
 C143 C 0.12467 0.29659 0.74893
 C144 C 0.12202 0.32730 0.77636
 C145 C 0.15415 0.32105 0.80295
 H146 H 0.10590 0.29230 0.72240
 H147 H 0.16292 0.33994 0.82786
 N148 N 0.20306 0.18039 0.70760
 N149 N 0.23750 0.16492 0.72114
 C150 C 0.24813 0.13453 0.69711
 C151 C 0.21921 0.13109 0.66675
 C152 C 0.19083 0.16027 0.67473
 H153 H 0.27501 0.11632 0.70117
 H154 H 0.16347 0.16659 0.65755
 H155 H 0.23724 0.23671 0.74946
 H156 H 0.20692 0.20085 0.78050
 N157 N 0.29386 -0.20656 0.18462
 N158 N 0.28246 -0.24204 0.17204
 C159 C 0.30609 -0.25269 0.14104
 C160 C 0.33341 -0.22203 0.13349
 C161 C 0.32510 -0.19352 0.16217
 H162 H 0.30402 -0.28089 0.12548
 H163 H 0.34118 -0.16568 0.16683
 Cu164 Cu 0.23846 -0.27163 0.19746
 Cu165 Cu 0.26854 -0.18058 0.23000
 Cu166 Cu 0.18493 -0.22766 0.27110
 N167 N 0.18850 -0.29488 0.21845
 N168 N 0.16737 -0.27715 0.24648
 C169 C 0.13426 -0.29927 0.25492
 C170 C 0.13451 -0.33279 0.23083
 C171 C 0.16956 -0.32914 0.20826
 H172 H 0.11216 -0.29172 0.27744
 H173 H 0.18025 -0.34993 0.18599
 N174 N 0.20722 -0.17744 0.29206
 N175 N 0.23885 -0.15912 0.27615
 C176 C 0.24743 -0.12625 0.29782
 C177 C 0.21973 -0.12380 0.32882
 C178 C 0.19499 -0.15692 0.32439
 H179 H 0.27289 -0.10651 0.29235
 H180 H 0.17052 -0.16581 0.34406
 H181 H 0.24646 -0.23135 0.25800
 H182 H 0.21271 -0.20732 0.21908
 N183 N 0.71215 0.20992 0.18222
 N184 N 0.71979 0.24785 0.17524
 C185 C 0.69478 0.26103 0.14572
 C186 C 0.67012 0.22956 0.13362
 C187 C 0.68234 0.19758 0.15721
 H188 H 0.69454 0.29126 0.13422
 H189 H 0.66939 0.16785 0.15701
 Cu190 Cu 0.76126 0.27678 0.20550
 Cu191 Cu 0.73817 0.18049 0.22580
 Cu192 Cu 0.82108 0.22563 0.27080
 N193 N 0.81298 0.29783 0.22512
 N194 N 0.83675 0.27722 0.24948
 C195 C 0.87094 0.29819 0.25703
 C196 C 0.86850 0.33400 0.23627
 C197 C 0.83115 0.33285 0.21656
 H198 H 0.89544 0.28808 0.27642
 H199 H 0.81854 0.35562 0.19694
 N200 N 0.80007 0.17360 0.28811
 N201 N 0.76850 0.15609 0.27078
 C202 C 0.75909 0.12285 0.29167
 C203 C 0.78629 0.11924 0.32355
 C204 C 0.81159 0.15209 0.32046
 H205 H 0.73280 0.10425 0.28569
 H206 H 0.83512 0.16078 0.34170
 H207 H 0.75854 0.22820 0.25999
 H208 H 0.79156 0.21200 0.21718
 C209 C 0.21821 0.02362 0.46220
 C210 C 0.21289 -0.01886 0.46161
 C211 C 0.20541 -0.03836 0.49862
 C212 C 0.21176 -0.02047 0.53648
 C213 C 0.21743 0.02201 0.53700
 C214 C 0.22462 0.04139 0.49996
 H215 H 0.23406 0.07238 0.50054
 H216 H 0.19608 -0.06935 0.49794
 C217 C 0.77624 -0.02159 0.53637
 C218 C 0.78120 0.02087 0.53478
 C219 C 0.78830 0.03816 0.49678
 C220 C 0.78248 0.01780 0.46006
 C221 C 0.77716 -0.02469 0.46174
 C222 C 0.76967 -0.04171 0.49973
 H223 H 0.76057 -0.07278 0.50101
 H224 H 0.79733 0.06923 0.49572
 C225 C 0.46321 0.21925 -0.02196
 C226 C 0.46329 0.22518 0.02061
 C227 C 0.50106 0.23315 0.03933
 C228 C 0.53899 0.22629 0.02116
 C229 C 0.53902 0.21956 -0.02141
 C230 C 0.50105 0.21236 -0.04037
 H231 H 0.50084 0.20270 -0.07136
 H232 H 0.50080 0.24288 0.07032
 C233 C 0.46363 0.77675 -0.01855
 C234 C 0.46485 0.78166 0.02419
 C235 C 0.50333 0.78798 0.04247
 C236 C 0.54070 0.78171 0.02290
 C237 C 0.53932 0.77618 -0.01987
 C238 C 0.50084 0.76944 -0.03777
 H239 H 0.49971 0.76017 -0.06891
 H240 H 0.50414 0.79692 0.07366
 C241 C 0.02247 0.46204 0.21674
 C242 C -0.02055 0.46323 0.22411
 C243 C -0.03971 0.50081 0.22153
 C244 C -0.01894 0.53760 0.21837
 C245 C 0.02469 0.53642 0.22216
 C246 C 0.04356 0.49883 0.21806
 H247 H 0.07629 0.49811 0.21624
 H248 H -0.07249 0.50150 0.22244
 C249 C 0.01782 0.46215 0.77586
 C250 C -0.02565 0.46269 0.78103
 C251 C -0.04479 0.50036 0.77922
 C252 C -0.02408 0.53730 0.77664
 C253 C 0.01952 0.53667 0.78127
 C254 C 0.03859 0.49908 0.77849
 H255 H 0.07132 0.49861 0.77838
 H256 H -0.07750 0.50097 0.77953
 C257 C 0.36843 0.22119 0.10296
 C258 C 0.35721 0.20019 0.06350
 C259 C 0.38784 0.19974 0.03617
 C260 C 0.42678 0.22210 0.04961
 C261 C 0.41272 0.26361 0.06320
 C262 C 0.38236 0.26315 0.09061
 C263 C 0.40748 0.20003 0.11731
 C264 C 0.43753 0.20002 0.08942
 H265 H 0.32946 0.18289 0.05935
 H266 H 0.38596 0.17998 0.01086
 H267 H 0.42595 0.29128 0.05220
 H268 H 0.36984 0.29036 0.10296
 H269 H 0.41089 0.18441 0.14575
 H270 H 0.46554 0.18356 0.09443
 C271 C 0.64355 0.78142 0.09771
 C272 C 0.64850 0.75563 0.05988
 C273 C 0.61461 0.75409 0.03607
 C274 C 0.57905 0.78013 0.05033
 C275 C 0.57193 0.76318 0.09324
 C276 C 0.60534 0.76443 0.11793
 C277 C 0.63067 0.82261 0.08173
 C278 C 0.59682 0.82196 0.05791
 H279 H 0.67469 0.73709 0.05380
 H280 H 0.61214 0.73232 0.01242
 H281 H 0.54403 0.74865 0.10273
 H282 H 0.60515 0.75207 0.14819
 H283 H 0.64640 0.85024 0.08903
 H284 H 0.58367 0.84904 0.04533
 C285 C 0.63831 0.21997 -0.09866
 C286 C 0.59925 0.23682 -0.11781
 C287 C 0.56714 0.23805 -0.09221
 C288 C 0.57631 0.22118 -0.04950
 C289 C 0.59360 0.17938 -0.05744
 C290 C 0.62613 0.17881 -0.08235
 C291 C 0.64530 0.24592 -0.06120
 C292 C 0.61270 0.24733 -0.03632
 H293 H 0.59766 0.24911 -0.14806
 H294 H 0.53888 0.25252 -0.10094
 H295 H 0.58103 0.15227 -0.04444
 H296 H 0.64132 0.15129 -0.09039
 H297 H 0.67149 0.26518 -0.05656
 H298 H 0.61139 0.26947 -0.01300
 C299 C 0.36567 0.77980 -0.09939
 C300 C 0.37984 0.73796 -0.08671
 C301 C 0.41126 0.73791 -0.05985
 C302 C 0.42612 0.77959 -0.04709
 C303 C 0.43548 0.80105 -0.08744
 C304 C 0.40436 0.80052 -0.11479
 C305 C 0.35618 0.80140 -0.06009
 C306 C 0.38791 0.80226 -0.03335
 H307 H 0.36715 0.71051 -0.09875
 H308 H 0.42499 0.71039 -0.04896
 H309 H 0.46348 0.81719 -0.09338
 H310 H 0.40689 0.81489 -0.14397
 H311 H 0.32866 0.81866 -0.05567
 H312 H 0.38722 0.82230 -0.00820
 C313 C 0.09914 0.36303 0.21085
 C314 C 0.09271 0.38014 0.25287
 C315 C 0.06739 0.41203 0.25362
 C316 C 0.04960 0.42444 0.21243
 C317 C 0.08769 0.43047 0.18579
 C318 C 0.11369 0.39883 0.18548
 C319 C 0.05631 0.35411 0.19432
 C320 C 0.03101 0.38630 0.19392
 H321 H 0.10765 0.36870 0.27982
 H322 H 0.06080 0.42762 0.28134
 H323 H 0.09248 0.45611 0.16630
 H324 H 0.14069 0.39896 0.16702
 H325 H 0.04830 0.32643 0.17933
 H326 H 0.00337 0.38560 0.17624
 C327 C 0.10148 0.63254 0.78121
 C328 C 0.11713 0.59572 0.80462
 C329 C 0.08959 0.56526 0.80658
 C330 C 0.04894 0.57312 0.78364
 C331 C 0.03454 0.61169 0.80417
 C332 C 0.06126 0.64285 0.80177
 C333 C 0.08936 0.61619 0.73980
 C334 C 0.06251 0.58537 0.74116
 H335 H 0.14633 0.59402 0.82007
 H336 H 0.09535 0.53931 0.82545
 H337 H 0.00908 0.61325 0.82423
 H338 H 0.05632 0.67059 0.81772
 H339 H 0.10181 0.62699 0.71163
 H340 H 0.05208 0.57035 0.71407
 C341 C -0.09764 0.63538 0.21992
 C342 C -0.05682 0.64554 0.20009
 C343 C -0.03086 0.61396 0.19744
 C344 C -0.04681 0.57498 0.21661
 C345 C -0.06052 0.58596 0.25920
 C346 C -0.08641 0.61730 0.26109
 C347 C -0.11404 0.59982 0.19547
 C348 C -0.08739 0.56887 0.19299
 H349 H -0.05077 0.67379 0.18510
 H350 H -0.00485 0.61576 0.17806
 H351 H -0.05115 0.56950 0.28595
 H352 H -0.09909 0.62667 0.28948
 H353 H -0.14305 0.59973 0.17949
 H354 H -0.09366 0.54363 0.17353
 C355 C -0.10614 0.36573 0.77826
 C356 C -0.12291 0.40188 0.80108
 C357 C -0.09604 0.43290 0.80404
 C358 C -0.05487 0.42608 0.78248
 C359 C -0.03997 0.38761 0.80348
 C360 C -0.06601 0.35600 0.80025
 C361 C -0.09379 0.38282 0.73725
 C362 C -0.06772 0.41421 0.73957
 H363 H -0.15217 0.40226 0.81598
 H364 H -0.10243 0.45817 0.82322
 H365 H -0.01467 0.38638 0.82434
 H366 H -0.06070 0.32816 0.81633
 H367 H -0.10604 0.37274 0.70862
 H368 H -0.05771 0.43016 0.71291
 C369 C 0.22062 0.10579 0.36725
 C370 C 0.26249 0.09163 0.38259
 C371 C 0.26069 0.06474 0.41320
 C372 C 0.21736 0.05304 0.42596
 C373 C 0.19688 0.09367 0.43517
 C374 C 0.19921 0.12118 0.40490
 C375 C 0.19724 0.06756 0.35641
 C376 C 0.19466 0.04061 0.38715
 H377 H 0.29140 0.10289 0.37182
 H378 H 0.28798 0.05325 0.42786
 H379 H 0.17994 0.09970 0.46228
 H380 H 0.18527 0.15043 0.40691
 H381 H 0.18023 0.06392 0.32849
 H382 H 0.17345 0.01612 0.38522
 C383 C 0.77424 0.10137 0.62976
 C384 C 0.75727 0.11791 0.58990
 C385 C 0.75825 0.09127 0.55907
 C386 C 0.77729 0.05027 0.57028
 C387 C 0.81897 0.06134 0.58864
 C388 C 0.81736 0.08717 0.61993
 C389 C 0.74955 0.06289 0.63686
 C390 C 0.75031 0.03694 0.60555
 H391 H 0.74343 0.14717 0.58676
 H392 H 0.74417 0.09808 0.53020
 H393 H 0.84760 0.04964 0.57775
 H394 H 0.84457 0.09724 0.63575
 H395 H 0.73003 0.05770 0.66245
 H396 H 0.72967 0.01182 0.60448
 C397 C 0.21556 -0.09934 0.63429
 C398 C 0.17293 -0.08430 0.62272
 C399 C 0.17230 -0.05897 0.59060
 C400 C 0.21443 -0.04933 0.57307
 C401 C 0.24143 -0.03605 0.60871
 C402 C 0.24114 -0.06131 0.64088
 C403 C 0.23244 -0.11707 0.59546
 C404 C 0.23245 -0.09105 0.56377
 H405 H 0.14534 -0.09344 0.63800
 H406 H 0.14410 -0.04675 0.57851
 H407 H 0.26291 -0.01167 0.60746
 H408 H 0.26045 -0.05598 0.66693
 H409 H 0.24562 -0.14668 0.59368
 H410 H 0.24683 -0.09879 0.53569
 C411 C 0.77902 -0.10828 0.36907
 C412 C 0.73661 -0.09386 0.38099
 C413 C 0.73690 -0.06649 0.41097
 C414 C 0.77958 -0.05478 0.42652
 C415 C 0.79934 -0.09531 0.43823
 C416 C 0.79851 -0.12324 0.40859
 C417 C 0.80314 -0.07034 0.35892
 C418 C 0.80444 -0.04310 0.38915
 H419 H 0.70852 -0.10499 0.36761
 H420 H 0.70896 -0.05437 0.42305
 H421 H 0.81501 -0.10095 0.46653
 H422 H 0.81230 -0.15234 0.41277
 H423 H 0.82189 -0.06737 0.33237
 H424 H 0.82632 -0.01914 0.38830
 C425 C 0.63326 0.77503 -0.10329
 C426 C 0.59405 0.79513 -0.11871
 C427 C 0.56428 0.79712 -0.09068
 C428 C 0.57532 0.77748 -0.04964
 C429 C 0.58916 0.73515 -0.06089
 C430 C 0.61942 0.73385 -0.08839
 C431 C 0.64477 0.79841 -0.06535
 C432 C 0.61432 0.80063 -0.03797
 H433 H 0.59030 0.80813 -0.14846
 H434 H 0.53631 0.81331 -0.09669
 H435 H 0.57565 0.70821 -0.04847
 H436 H 0.63143 0.70587 -0.09943
 H437 H 0.67251 0.81597 -0.06253
 H438 H 0.61622 0.82220 -0.01421
 C439 C 0.36402 0.22422 -0.10084
 C440 C 0.37538 0.18222 -0.08609
 C441 C 0.40800 0.18126 -0.06068
 C442 C 0.42604 0.22244 -0.05059
 C443 C 0.43552 0.24102 -0.09233
 C444 C 0.40336 0.24134 -0.11855
 C445 C 0.35755 0.24858 -0.06238
 C446 C 0.39020 0.24844 -0.03682
 H447 H 0.35952 0.15529 -0.09542
 H448 H 0.42001 0.15348 -0.04857
 H449 H 0.46415 0.25529 -0.09991
 H450 H 0.40516 0.25482 -0.14824
 H451 H 0.33138 0.26741 -0.05710
 H452 H 0.39174 0.26882 -0.01183
 C453 C 0.36779 0.77835 0.10378
 C454 C 0.35933 0.75456 0.06522
 C455 C 0.39125 0.75390 0.03943
 C456 C 0.42835 0.77894 0.05303
 C457 C 0.41191 0.82047 0.06348
 C458 C 0.38009 0.82018 0.08922
 C459 C 0.40706 0.76008 0.12103
 C460 C 0.43846 0.75984 0.09456
 H461 H 0.33219 0.73661 0.06021
 H462 H 0.39137 0.73347 0.01448
 H463 H 0.42419 0.84800 0.05112
 H464 H 0.36513 0.84746 0.09834
 H465 H 0.40931 0.74640 0.15064
 H466 H 0.46688 0.74488 0.10182
 C467 C 0.63582 0.22918 0.10317
 C468 C 0.64559 0.20458 0.06576
 C469 C 0.61416 0.20194 0.03882
 C470 C 0.57594 0.22570 0.05047
 C471 C 0.56612 0.20731 0.09220
 C472 C 0.59691 0.20991 0.11969
 C473 C 0.62214 0.27008 0.08715
 C474 C 0.59079 0.26821 0.06024
 H475 H 0.67313 0.18702 0.06284
 H476 H 0.61501 0.18018 0.01518
 H477 H 0.53834 0.19116 0.09899
 H478 H 0.59447 0.19728 0.14971
 H479 H 0.63482 0.29837 0.09693
 H480 H 0.57718 0.29489 0.04724
 C481 C -0.09960 0.63709 0.77543
 C482 C -0.05926 0.64429 0.75315
 C483 C -0.03507 0.61145 0.75124
 C484 C -0.05156 0.57470 0.77387
 C485 C -0.06265 0.58894 0.81623
 C486 C -0.08684 0.62162 0.81712
 C487 C -0.11861 0.60096 0.75407
 C488 C -0.09348 0.56873 0.75254
 H489 H -0.05172 0.67144 0.73692
 H490 H -0.00950 0.61084 0.73116
 H491 H -0.05186 0.57442 0.84359
 H492 H -0.09623 0.63498 0.84520
 H493 H -0.14784 0.60173 0.73849
 H494 H -0.10139 0.54316 0.73411
 C495 C -0.10090 0.36750 0.23480
 C496 C -0.11536 0.40502 0.25655
 C497 C -0.08836 0.43593 0.25491
 C498 C -0.04943 0.42724 0.23026
 C499 C -0.03262 0.39026 0.25249
 C500 C -0.05890 0.35874 0.25386
 C501 C -0.09202 0.38122 0.19181
 C502 C -0.06600 0.41258 0.18953
 H503 H -0.14276 0.40611 0.27451
 H504 H -0.09276 0.46250 0.27286
 H505 H -0.00495 0.39012 0.27027
 H506 H -0.05159 0.33197 0.27085
 H507 H -0.10569 0.36783 0.16523
 H508 H -0.05772 0.42599 0.16094
 C509 C 0.09366 0.36256 0.77497
 C510 C 0.08162 0.37757 0.81655
 C511 C 0.05725 0.41014 0.81554
 C512 C 0.04536 0.42477 0.77311
 C513 C 0.08692 0.43108 0.75195
 C514 C 0.11219 0.39891 0.75365
 C515 C 0.05312 0.35536 0.75252
 C516 C 0.02869 0.38811 0.75045
 H517 H 0.09179 0.36406 0.84463
 H518 H 0.04703 0.42444 0.84285
 H519 H 0.09442 0.45680 0.73344
 H520 H 0.14117 0.39832 0.73822
 H521 H 0.04599 0.32847 0.73583
 H522 H 0.00326 0.38887 0.72973
 C523 C 0.10452 0.63304 0.22993
 C524 C 0.12169 0.59480 0.24900
 C525 C 0.09516 0.56344 0.24820
 C526 C 0.05377 0.57252 0.22698
 C527 C 0.03861 0.60811 0.25171
 C528 C 0.06438 0.64002 0.25233
 C529 C 0.09166 0.62116 0.18725
 C530 C 0.06600 0.58938 0.18574
 H531 H 0.15086 0.59335 0.26463
 H532 H 0.10186 0.53615 0.26467
 H533 H 0.01286 0.60689 0.27154
 H534 H 0.05822 0.66586 0.27073
 H535 H 0.10247 0.63604 0.16029
 H536 H 0.05515 0.57712 0.15741
 C537 C 0.77901 -0.10024 0.63364
 C538 C 0.73633 -0.08922 0.61818
 C539 C 0.73633 -0.06288 0.58703
 C540 C 0.77891 -0.04908 0.57376
 C541 C 0.80080 -0.03425 0.61216
 C542 C 0.79986 -0.06048 0.64359
 C543 C 0.80137 -0.11526 0.59630
 C544 C 0.80201 -0.08844 0.56554
 H545 H 0.70836 -0.10183 0.62997
 H546 H 0.70830 -0.05296 0.57256
 H547 H 0.82084 -0.00885 0.61341
 H548 H 0.81686 -0.05531 0.67127
 H549 H 0.81660 -0.14384 0.59429
 H550 H 0.81922 -0.09411 0.53852
 C551 C 0.21904 -0.09487 0.36328
 C552 C 0.17609 -0.08072 0.37374
 C553 C 0.17483 -0.05612 0.40599
 C554 C 0.21668 -0.04631 0.42469
 C555 C 0.23544 -0.08782 0.43414
 C556 C 0.23603 -0.11316 0.40231
 C557 C 0.24407 -0.05647 0.35748
 C558 C 0.24372 -0.03182 0.38987
 H559 H 0.14875 -0.08985 0.35756
 H560 H 0.14636 -0.04451 0.41737
 H561 H 0.24997 -0.09577 0.46248
 H562 H 0.24990 -0.14250 0.40414
 H563 H 0.26379 -0.05079 0.33213
 H564 H 0.26522 -0.00754 0.39208
 C565 C 0.78414 0.09125 0.35891
 C566 C 0.82600 0.07695 0.37370
 C567 C 0.82458 0.05322 0.40683
 C568 C 0.78139 0.04433 0.42201
 C569 C 0.76261 0.08624 0.42829
 C570 C 0.76465 0.11074 0.39560
 C571 C 0.75907 0.05303 0.35222
 C572 C 0.75664 0.02928 0.38544
 H573 H 0.85453 0.08536 0.35973
 H574 H 0.85199 0.04163 0.42120
 H575 H 0.74633 0.09510 0.45500
 H576 H 0.75121 0.14032 0.39511
 H577 H 0.74128 0.04691 0.32528
 H578 H 0.73470 0.00532 0.38660
 C579 C 0.21829 0.10181 0.63255
 C580 C 0.19685 0.11758 0.59440
 C581 C 0.19488 0.09054 0.56414
 C582 C 0.21594 0.05015 0.57366
 C583 C 0.25912 0.06208 0.58762
 C584 C 0.26039 0.08860 0.61832
 C585 C 0.19539 0.06317 0.64274
 C586 C 0.19324 0.03672 0.61182
 H587 H 0.18308 0.14687 0.59164
 H588 H 0.17803 0.09682 0.53660
 H589 H 0.28664 0.05088 0.57385
 H590 H 0.28895 0.10007 0.63034
 H591 H 0.17821 0.05901 0.67018
 H592 H 0.17215 0.01213 0.61309
   
