data_POSCAR
  _audit_creation_date              2014-09-24
  _audit_creation_method            'ToBaCCo'
  _symmetry_space_group_name_H-M    'P1'
  _symmetry_Int_Tables_number       1
  _symmetry_cell_setting            triclinic
  loop_
  _symmetry_equiv_pos_as_xyz
 x,y,z
_cell_length_a 42.3516
_cell_length_b 42.3515
_cell_length_c 42.3518
_cell_angle_alpha 89.092800
_cell_angle_beta 90.775800
_cell_angle_gamma 89.152600
loop_
  _atom_site_label
  _atom_site_type_symbol
  _atom_site_fract_x
  _atom_site_fract_y
  _atom_site_fract_z
O1 O 0.54309 0.49902 0.02556
 O2 O 0.45610 0.49954 0.02555
 O3 O 0.49996 0.45582 0.02550
 O4 O 0.49922 0.54272 0.02562
 O5 O 0.49849 0.54363 -0.02647
 O6 O 0.49923 0.45673 -0.02659
 O7 O 0.45536 0.50046 -0.02648
 O8 O 0.54236 0.49993 -0.02653
 Cu9 Cu 0.49967 0.49918 0.03077
 Cu10 Cu 0.49879 0.50027 -0.03173
 C11 C 0.55764 0.49941 -0.00049
 C12 C 0.44073 0.50010 -0.00046
 C13 C 0.49971 0.44138 -0.00057
 C14 C 0.49874 0.55807 -0.00040
 O15 O -0.02601 0.54387 0.49906
 O16 O -0.02607 0.45688 0.49960
 O17 O -0.02606 0.49997 0.54277
 O18 O -0.02603 0.50079 0.45587
 O19 O 0.02606 0.49999 0.45661
 O20 O 0.02602 0.49917 0.54351
 O21 O 0.02601 0.45607 0.50034
 O22 O 0.02603 0.54307 0.49980
 Cu23 Cu -0.03125 0.50046 0.49925
 Cu24 Cu 0.03124 0.49949 0.50013
 C25 C 0.00002 0.55847 0.49937
 C26 C -0.00004 0.44156 0.50006
 C27 C -0.00002 0.49945 0.55804
 C28 C 0.00002 0.50053 0.44135
 O29 O 0.49976 0.02547 0.54322
 O30 O 0.49927 0.02543 0.45623
 O31 O 0.45606 0.02540 0.49940
 O32 O 0.54297 0.02547 0.50006
 O33 O 0.54379 -0.02662 0.50094
 O34 O 0.45690 -0.02669 0.50028
 O35 O 0.50010 -0.02666 0.45710
 O36 O 0.50059 -0.02657 0.54410
 Cu37 Cu 0.49943 0.03065 0.49964
 Cu38 Cu 0.50042 -0.03185 0.50069
 C39 C 0.50025 -0.00054 0.55866
 C40 C 0.49962 -0.00062 0.44175
 C41 C 0.44159 -0.00066 0.49975
 C42 C 0.55827 -0.00056 0.50061
 C43 C 0.51590 0.07973 -0.05806
 C44 C 0.51586 0.05704 -0.08082
 C45 C 0.50633 0.02932 -0.06622
 N46 N 0.50046 0.03433 -0.03540
 C47 C 0.50640 0.06511 -0.03034
 C48 C 0.50136 0.00050 -0.08172
 C49 C 0.49565 -0.02818 -0.06537
 C50 C 0.48404 -0.05517 -0.07923
 C51 C 0.48379 -0.07825 -0.05604
 C52 C 0.49525 -0.06473 -0.02864
 N53 N 0.50247 -0.03422 -0.03454
 C54 C 0.50057 -0.08119 0.00029
 C55 C 0.50551 -0.06593 0.02930
 C56 C 0.51473 -0.08094 0.05733
 C57 C 0.51482 -0.05824 0.08009
 C58 C 0.50566 -0.03014 0.06519
 N59 N 0.49988 -0.03491 0.03418
 C60 C 0.50093 -0.00112 0.08053
 C61 C 0.49563 0.02778 0.06400
 C62 C 0.48426 0.05525 0.07748
 C63 C 0.48438 0.07833 0.05429
 C64 C 0.49583 0.06434 0.02727
 N65 N 0.50268 0.03354 0.03340
 C66 C 0.50147 0.08058 -0.00149
 H67 H 0.52209 0.10423 -0.06158
 H68 H 0.52202 0.06058 -0.10533
 H69 H 0.51489 0.01837 0.01868
 H70 H 0.47670 -0.05803 -0.10358
 H71 H 0.47622 -0.10232 -0.05909
 H72 H 0.52064 -0.10568 0.06104
 H73 H 0.52082 -0.06203 0.10479
 H74 H 0.47707 0.10271 0.05710
 H75 H 0.51477 -0.01956 -0.01942
 H76 H 0.47682 0.05841 0.10159
 C77 C -0.05787 0.51552 0.91906
 C78 C -0.08066 0.51556 0.94178
 C79 C -0.06578 0.50643 0.96987
 N80 N -0.03474 0.50072 0.96508
 C81 C -0.02984 0.50636 0.93406
 C82 C -0.08114 0.50167 0.99891
 C83 C -0.06465 0.49641 1.02781
 C84 C -0.07814 0.48503 1.05530
 C85 C -0.05499 0.48520 1.07836
 C86 C -0.02798 0.49668 1.06434
 N87 N -0.03408 0.50352 1.03353
 C88 C 0.00074 0.50236 1.08054
 C89 C 0.02961 0.50730 1.06503
 C90 C 0.05730 0.51681 1.07963
 C91 C 0.08009 0.51676 1.05691
 C92 C 0.06554 0.50723 1.02922
 N93 N 0.03472 0.50136 1.03426
 C94 C 0.08109 0.50224 1.00040
 C95 C 0.06480 0.49655 0.97173
 C96 C 0.07872 0.48496 0.94473
 C97 C 0.05557 0.48471 0.92168
 C98 C 0.02813 0.49616 0.93521
 N99 N 0.03397 0.50337 0.96571
 C100 C -0.00079 0.50146 0.91877
 H101 H -0.06156 0.52142 0.89432
 H102 H -0.10538 0.52152 0.93800
 H103 H 0.01880 0.51565 0.98037
 H104 H -0.10223 0.47755 1.05849
 H105 H -0.05780 0.47788 1.10276
 H106 H 0.06076 0.52300 1.10411
 H107 H 0.10458 0.52292 1.06043
 H108 H 0.05866 0.47715 0.89761
 H109 H -0.01937 0.51573 1.01834
 H110 H 0.10308 0.47761 0.94187
 C111 C 0.08052 -0.05877 0.51569
 C112 C 0.05782 -0.08154 0.51570
 C113 C 0.02975 -0.06662 0.50652
 N114 N 0.03455 -0.03559 0.50081
 C115 C 0.06555 -0.03071 0.50650
 C116 C 0.00074 -0.08196 0.50172
 C117 C -0.02815 -0.06544 0.49641
 C118 C -0.05560 -0.07889 0.48499
 C119 C -0.07867 -0.05572 0.48512
 C120 C -0.06470 -0.02873 0.49662
 N121 N -0.03391 -0.03486 0.50350
 C122 C -0.08093 -0.00000 0.50226
 C123 C -0.06546 0.02885 0.50721
 C124 C -0.08010 0.05654 0.51669
 C125 C -0.05739 0.07932 0.51666
 C126 C -0.02966 0.06476 0.50717
 N127 N -0.03466 0.03394 0.50131
 C128 C -0.00082 0.08028 0.50222
 C129 C 0.02787 0.06397 0.49658
 C130 C 0.05491 0.07786 0.48503
 C131 C 0.07798 0.05469 0.48483
 C132 C 0.06441 0.02726 0.49627
 N133 N 0.03388 0.03313 0.50343
 C134 C 0.08085 -0.00167 0.50162
 H135 H 0.10525 -0.06248 0.52163
 H136 H 0.06158 -0.10626 0.52168
 H137 H 0.01917 0.01796 0.51569
 H138 H -0.05875 -0.10298 0.47752
 H139 H -0.10303 -0.05851 0.47778
 H140 H -0.10460 0.06003 0.52285
 H141 H -0.06094 0.10381 0.52280
 H142 H 0.10208 0.05777 0.47731
 H143 H -0.01877 -0.02017 0.51573
 H144 H 0.05780 0.10223 0.47768
 C145 C -0.35783 0.49984 0.97092
 C146 C -0.34085 0.49936 0.99951
 C147 C -0.35704 0.49881 1.02810
 C148 C -0.39006 0.49879 1.02813
 C149 C -0.40736 0.49931 0.99951
 C150 C -0.39086 0.49982 0.97088
 C151 C -0.30684 0.49950 0.99950
 C152 C -0.27837 0.49966 0.99949
 C153 C -0.24502 0.49990 0.99946
 C154 C -0.21655 0.50014 0.99942
 C155 C -0.18255 0.50047 0.99934
 C156 C -0.16627 0.52370 1.01586
 C157 C -0.13326 0.52409 1.01572
 C158 C -0.11623 0.50125 0.99901
 C159 C -0.13266 0.47794 0.98256
 C160 C -0.16567 0.47758 0.98270
 H161 H -0.34555 0.50027 0.94864
 H162 H -0.34414 0.49844 1.05037
 H163 H -0.40202 0.49839 1.05057
 H164 H -0.40344 0.50023 0.94845
 H165 H -0.17909 0.54151 1.02882
 H166 H -0.12095 0.54222 1.02853
 H167 H -0.11987 0.46006 0.96967
 H168 H -0.17801 0.45948 0.96987
 C169 C 0.35784 0.50010 1.02815
 C170 C 0.34086 0.50071 0.99959
 C171 C 0.35702 0.50112 0.97101
 C172 C 0.39005 0.50092 0.97093
 C173 C 0.40750 0.50030 0.99955
 C174 C 0.39087 0.49990 1.02820
 C175 C 0.30684 0.50091 0.99962
 C176 C 0.27837 0.50108 0.99966
 C177 C 0.24502 0.50127 0.99974
 C178 C 0.21654 0.50143 0.99982
 C179 C 0.18253 0.50161 0.99996
 C180 C 0.16647 0.47884 1.01761
 C181 C 0.13345 0.47902 1.01777
 C182 C 0.11619 0.50204 1.00031
 C183 C 0.13240 0.52478 0.98260
 C184 C 0.16542 0.52457 0.98244
 H185 H 0.34556 0.49978 1.05043
 H186 H 0.34410 0.50160 0.94875
 H187 H 0.40182 0.50125 0.94838
 H188 H 0.40328 0.49942 1.05073
 H189 H 0.17946 0.46096 1.03121
 H190 H 0.12131 0.46122 1.03143
 H191 H 0.11944 0.54269 0.96901
 H192 H 0.17760 0.54229 0.96869
 C193 C 0.02862 -0.35868 0.49969
 C194 C 0.00005 -0.34166 0.49932
 C195 C -0.02852 -0.35780 0.49888
 C196 C -0.02860 -0.39082 0.49885
 C197 C 0.00003 -0.40830 0.49927
 C198 C 0.02867 -0.39170 0.49966
 C199 C 0.00007 -0.30765 0.49948
 C200 C 0.00010 -0.27918 0.49966
 C201 C 0.00015 -0.24584 0.49991
 C202 C 0.00021 -0.21737 0.50017
 C203 C 0.00031 -0.18337 0.50051
 C204 C -0.01631 -0.16709 0.52372
 C205 C -0.01616 -0.13408 0.52412
 C206 C 0.00065 -0.11705 0.50131
 C207 C 0.01720 -0.13347 0.47803
 C208 C 0.01705 -0.16648 0.47767
 H209 H 0.05089 -0.34642 0.50003
 H210 H -0.05079 -0.34485 0.49859
 H211 H -0.05115 -0.40256 0.49853
 H212 H 0.05121 -0.40414 0.49998
 H213 H -0.02935 -0.17991 0.54150
 H214 H -0.02905 -0.12177 0.54222
 H215 H 0.03016 -0.12068 0.46018
 H216 H 0.02995 -0.17882 0.45959
 C217 C -0.02868 0.35708 0.50017
 C218 C -0.00010 0.34005 0.50068
 C219 C 0.02850 0.35618 0.50099
 C220 C 0.02856 0.38921 0.50079
 C221 C -0.00006 0.40656 0.50028
 C222 C -0.02869 0.39011 0.49997
 C223 C -0.00013 0.30603 0.50088
 C224 C -0.00017 0.27756 0.50104
 C225 C -0.00023 0.24421 0.50123
 C226 C -0.00031 0.21573 0.50138
 C227 C -0.00042 0.18172 0.50157
 C228 C 0.01701 0.16458 0.52455
 C229 C 0.01686 0.13156 0.52478
 C230 C -0.00075 0.11538 0.50201
 C231 C -0.01812 0.13267 0.47895
 C232 C -0.01797 0.16569 0.47877
 H233 H -0.05096 0.34484 0.49993
 H234 H 0.05076 0.34324 0.50139
 H235 H 0.05100 0.40113 0.50104
 H236 H -0.05112 0.40273 0.49957
 H237 H 0.03068 0.17673 0.54229
 H238 H 0.03039 0.11857 0.54271
 H239 H -0.03170 0.12056 0.46113
 H240 H -0.03151 0.17871 0.46085
 C241 C 0.50012 0.02813 -0.35854
 C242 C 0.50061 -0.00042 -0.34147
 C243 C 0.50102 -0.02901 -0.35755
 C244 C 0.50092 -0.02912 -0.39057
 C245 C 0.50040 -0.00050 -0.40811
 C246 C 0.50001 0.02815 -0.39156
 C247 C 0.50069 -0.00037 -0.30746
 C248 C 0.50074 -0.00030 -0.27898
 C249 C 0.50080 -0.00020 -0.24564
 C250 C 0.50087 -0.00010 -0.21716
 C251 C 0.50096 0.00004 -0.18315
 C252 C 0.47814 0.01766 -0.16716
 C253 C 0.47824 0.01783 -0.13414
 C254 C 0.50123 0.00041 -0.11681
 C255 C 0.52402 -0.01727 -0.13296
 C256 C 0.52388 -0.01744 -0.16597
 H257 H 0.49980 0.05042 -0.34632
 H258 H 0.50141 -0.05126 -0.34456
 H259 H 0.50124 -0.05167 -0.40228
 H260 H 0.49961 0.05068 -0.40405
 H261 H 0.46028 0.03123 -0.18021
 H262 H 0.46041 0.03147 -0.12206
 H263 H 0.54190 -0.03083 -0.11994
 H264 H 0.54164 -0.03116 -0.17809
 C265 C 0.49988 -0.02926 0.35730
 C266 C 0.49942 -0.00067 0.34025
 C267 C 0.49897 0.02792 0.35636
 C268 C 0.49901 0.02797 0.38938
 C269 C 0.49949 -0.00064 0.40676
 C270 C 0.49991 -0.02928 0.39033
 C271 C 0.49947 -0.00069 0.30624
 C272 C 0.49955 -0.00070 0.27776
 C273 C 0.49969 -0.00071 0.24442
 C274 C 0.49983 -0.00073 0.21594
 C275 C 0.50005 -0.00078 0.18194
 C276 C 0.47711 -0.01743 0.16518
 C277 C 0.47736 -0.01755 0.13217
 C278 C 0.50061 -0.00104 0.11561
 C279 C 0.52350 0.01568 0.13252
 C280 C 0.52322 0.01579 0.16553
 H281 H 0.50023 -0.05154 0.34508
 H282 H 0.49862 0.05019 0.34340
 H283 H 0.49868 0.05042 0.40128
 H284 H 0.50029 -0.05171 0.40297
 H285 H 0.45906 -0.03030 0.17763
 H286 H 0.45944 -0.03044 0.11948
 H287 H 0.54159 0.02853 0.12011
 H288 H 0.54107 0.02876 0.17825
 C289 C 0.49797 -0.35660 -0.02888
 C290 C 0.49836 -0.34055 -0.00026
 C291 C 0.49879 -0.35760 0.02832
 C292 C 0.49887 -0.39061 0.02830
 C293 C 0.49852 -0.40698 -0.00035
 C294 C 0.49805 -0.38961 -0.02896
 C295 C 0.49842 -0.30659 -0.00021
 C296 C 0.49854 -0.27815 -0.00017
 C297 C 0.49874 -0.24485 -0.00012
 C298 C 0.49897 -0.21641 -0.00008
 C299 C 0.49931 -0.18247 -0.00003
 C300 C 0.47633 -0.16561 0.01651
 C301 C 0.47670 -0.13262 0.01663
 C302 C 0.50012 -0.11623 0.00023
 C303 C 0.52307 -0.13323 -0.01638
 C304 C 0.52265 -0.16622 -0.01649
 H305 H 0.49764 -0.34361 -0.05113
 H306 H 0.49909 -0.34539 0.05060
 H307 H 0.49923 -0.40327 0.05072
 H308 H 0.49778 -0.40149 -0.05141
 H309 H 0.45815 -0.17797 0.02930
 H310 H 0.45876 -0.11983 0.02943
 H311 H 0.54127 -0.12091 -0.02914
 H312 H 0.54053 -0.17904 -0.02937
 C313 C 0.49983 0.35705 -0.02929
 C314 C 0.50032 0.33999 -0.00072
 C315 C 0.50064 0.35604 0.02790
 C316 C 0.50047 0.38905 0.02799
 C317 C 0.49996 0.40643 -0.00062
 C318 C 0.49965 0.39006 -0.02927
 C319 C 0.50047 0.30603 -0.00077
 C320 C 0.50058 0.27759 -0.00084
 C321 C 0.50072 0.24429 -0.00093
 C322 C 0.50083 0.21584 -0.00102
 C323 C 0.50099 0.18188 -0.00115
 C324 C 0.52414 0.16475 0.01605
 C325 C 0.52431 0.13175 0.01591
 C326 C 0.50133 0.11562 -0.00146
 C327 C 0.47812 0.13291 -0.01861
 C328 C 0.47798 0.16590 -0.01847
 H329 H 0.49957 0.34484 -0.05158
 H330 H 0.50103 0.34305 0.05016
 H331 H 0.50071 0.40093 0.05044
 H332 H 0.49926 0.40272 -0.05169
 H333 H 0.54203 0.17690 0.02953
 H334 H 0.54235 0.11874 0.02926
 H335 H 0.46015 0.12079 -0.03200
 H336 H 0.45995 0.17894 -0.03182
 C337 C -0.35645 -0.02911 0.50158
 C338 C -0.34034 -0.00051 0.50116
 C339 C -0.35734 0.02808 0.50059
 C340 C -0.39035 0.02810 0.50043
 C341 C -0.40678 -0.00054 0.50083
 C342 C -0.38946 -0.02917 0.50142
 C343 C -0.30638 -0.00050 0.50129
 C344 C -0.27793 -0.00048 0.50139
 C345 C -0.24464 -0.00044 0.50151
 C346 C -0.21619 -0.00039 0.50162
 C347 C -0.18223 -0.00031 0.50175
 C348 C -0.16516 -0.01758 0.52489
 C349 C -0.13216 -0.01747 0.52507
 C350 C -0.11598 -0.00005 0.50209
 C351 C -0.13320 0.01716 0.47888
 C352 C -0.16620 0.01704 0.47874
 H353 H -0.34351 -0.05138 0.50203
 H354 H -0.34508 0.05036 0.50026
 H355 H -0.40297 0.05053 0.49998
 H356 H -0.40138 -0.05161 0.50174
 H357 H -0.17734 -0.03110 0.54279
 H358 H -0.11919 -0.03087 0.54311
 H359 H -0.12104 0.03059 0.46092
 H360 H -0.17919 0.03045 0.46072
 C361 C 0.35629 0.02783 0.49900
 C362 C 0.34020 -0.00079 0.49949
 C363 C 0.35722 -0.02937 0.49998
 C364 C 0.39023 -0.02936 0.50002
 C365 C 0.40664 -0.00070 0.49958
 C366 C 0.38929 0.02791 0.49905
 C367 C 0.30624 -0.00085 0.49958
 C368 C 0.27780 -0.00091 0.49971
 C369 C 0.24451 -0.00100 0.49993
 C370 C 0.21607 -0.00110 0.50015
 C371 C 0.18212 -0.00122 0.50048
 C372 C 0.16533 -0.01771 0.47746
 C373 C 0.13234 -0.01787 0.47780
 C374 C 0.11588 -0.00159 0.50123
 C375 C 0.13282 0.01495 0.52422
 C376 C 0.16581 0.01512 0.52384
 H377 H 0.34332 0.05008 0.49863
 H378 H 0.34499 -0.05166 0.50036
 H379 H 0.40287 -0.05178 0.50044
 H380 H 0.40120 0.05036 0.49870
 H381 H 0.17773 -0.03040 0.45927
 H382 H 0.11959 -0.03063 0.45983
 H383 H 0.12045 0.02763 0.54243
 H384 H 0.17858 0.02796 0.54174
 C385 C 0.02865 0.50073 1.35692
 C386 C 0.00006 0.50128 1.33996
 C387 C -0.02854 0.50162 1.35610
 C388 C -0.02859 0.50139 1.38911
 C389 C 0.00004 0.50082 1.40640
 C390 C 0.02867 0.50051 1.38992
 C391 C 0.00008 0.50145 1.30599
 C392 C 0.00011 0.50158 1.27755
 C393 C 0.00017 0.50171 1.24425
 C394 C 0.00023 0.50181 1.21580
 C395 C 0.00034 0.50192 1.18184
 C396 C -0.01690 0.52505 1.16471
 C397 C -0.01675 0.52520 1.13170
 C398 C 0.00067 0.50222 1.11558
 C399 C 0.01785 0.47903 1.13287
 C400 C 0.01770 0.47891 1.16587
 H401 H 0.05093 0.50046 1.34463
 H402 H -0.05080 0.50204 1.34319
 H403 H -0.05103 0.50165 1.40107
 H404 H 0.05110 0.50007 1.40251
 H405 H -0.03041 0.54295 1.17684
 H406 H -0.03012 0.54323 1.11869
 H407 H 0.03128 0.46106 1.12077
 H408 H 0.03108 0.46090 1.17891
 C409 C 0.02853 0.49865 0.64328
 C410 C -0.00007 0.49907 0.65942
 C411 C -0.02866 0.49953 0.64246
 C412 C -0.02868 0.49960 0.60946
 C413 C -0.00004 0.49922 0.59299
 C414 C 0.02858 0.49872 0.61027
 C415 C -0.00010 0.49916 0.69338
 C416 C -0.00013 0.49930 0.72182
 C417 C -0.00018 0.49953 0.75512
 C418 C -0.00024 0.49978 0.78355
 C419 C -0.00034 0.50014 0.81750
 C420 C -0.01683 0.47714 0.83441
 C421 C -0.01698 0.47753 0.86740
 C422 C -0.00069 0.50100 0.88374
 C423 C 0.01587 0.52396 0.86668
 C424 C 0.01603 0.52353 0.83370
 H425 H 0.05079 0.49831 0.65620
 H426 H -0.05094 0.49986 0.65474
 H427 H -0.05111 0.49999 0.59686
 H428 H 0.05102 0.49843 0.59832
 H429 H -0.02953 0.45892 0.82210
 H430 H -0.02975 0.45957 0.88024
 H431 H 0.02856 0.54220 0.87896
 H432 H 0.02886 0.54143 0.82083
   
