data_POSCAR
  _audit_creation_date              2014-09-24
  _audit_creation_method            'ToBaCCo'
  _symmetry_space_group_name_H-M    'P1'
  _symmetry_Int_Tables_number       1
  _symmetry_cell_setting            triclinic
  loop_
  _symmetry_equiv_pos_as_xyz
 x,y,z
_cell_length_a 52.8266
_cell_length_b 40.3622
_cell_length_c 41.7996
_cell_angle_alpha 89.949300
_cell_angle_beta 89.942900
_cell_angle_gamma 90.058200
loop_
  _atom_site_label
  _atom_site_type_symbol
  _atom_site_fract_x
  _atom_site_fract_y
  _atom_site_fract_z
C1 C 1.21606 0.26274 0.30062
 H2 H 1.21603 0.23604 0.30295
 C3 C 1.20047 0.28189 0.32022
 H4 H 1.18831 0.26995 0.33766
 C5 C 1.23179 0.31097 0.27490
 H6 H 1.24415 0.32224 0.25742
 C7 C 1.21646 0.33106 0.29405
 H8 H 1.21689 0.35772 0.29101
 N9 N 1.23095 0.27741 0.27810
 C10 C 1.23997 0.20177 0.20429
 H11 H 1.26037 0.20018 0.20268
 C12 C 1.22482 0.18212 0.18449
 H13 H 1.23354 0.16524 0.16764
 C14 C 1.20357 0.22597 0.22787
 H15 H 1.19529 0.24343 0.24437
 C16 C 1.18777 0.20683 0.20854
 H17 H 1.16741 0.20939 0.21051
 Zn18 Zn 1.25061 0.24909 0.25184
 N19 N 1.22917 0.22282 0.22576
 C20 C 1.26942 0.18847 0.27780
 N21 N 1.27031 0.22214 0.27935
 C22 C 1.28526 0.23790 0.30104
 C23 C 1.30090 0.21974 0.32145
 C24 C 1.28476 0.16931 0.29779
 C25 C 1.26116 0.29402 0.20203
 C26 C 1.27627 0.31276 0.18132
 C27 C 1.31337 0.28924 0.20630
 C28 C 1.29761 0.27098 0.22653
 N29 N 1.27200 0.27402 0.22440
 H30 H 1.25700 0.17637 0.26097
 H31 H 1.28532 0.26469 0.30205
 H32 H 1.31309 0.23268 0.33817
 H33 H 1.28422 0.14253 0.29594
 H34 H 1.24075 0.29552 0.20045
 H35 H 1.26753 0.32888 0.16380
 H36 H 1.33374 0.28684 0.20833
 H37 H 1.30591 0.25433 0.24378
 C38 C 1.19847 0.18462 0.18676
 C39 C 1.20051 0.31634 0.31670
 C40 C 1.30263 0.31043 0.18361
 C41 C 1.30084 0.18511 0.31962
 C42 C 0.71558 -0.23661 0.29898
 H43 H 0.71552 -0.26331 0.30126
 C44 C 0.70002 -0.21747 0.31862
 H45 H 0.68785 -0.22942 0.33604
 C46 C 0.73139 -0.18835 0.27338
 H47 H 0.74379 -0.17707 0.25595
 C48 C 0.71610 -0.16827 0.29257
 H49 H 0.71658 -0.14161 0.28961
 N50 N 0.73050 -0.22191 0.27651
 C51 C 0.73985 -0.29753 0.20285
 H52 H 0.76026 -0.29902 0.20135
 C53 C 0.72482 -0.31727 0.18299
 H54 H 0.73364 -0.33414 0.16621
 C55 C 0.70330 -0.27347 0.22622
 H56 H 0.69492 -0.25603 0.24266
 C57 C 0.68762 -0.29271 0.20683
 H58 H 0.66725 -0.29026 0.20869
 Zn59 Zn 0.75021 -0.25019 0.25036
 N60 N 0.72891 -0.27651 0.22423
 C61 C 0.76878 -0.31075 0.27660
 N62 N 0.76982 -0.27707 0.27797
 C63 C 0.78474 -0.26129 0.29969
 C64 C 0.80014 -0.27948 0.32037
 C65 C 0.78389 -0.32988 0.29687
 C66 C 0.76068 -0.20538 0.20056
 C67 C 0.77574 -0.18660 0.17982
 C68 C 0.81291 -0.20980 0.20492
 C69 C 0.79720 -0.22811 0.22517
 N70 N 0.77158 -0.22525 0.22298
 H71 H 0.75638 -0.32286 0.25975
 H72 H 0.78491 -0.23451 0.30058
 H73 H 0.81231 -0.26670 0.33718
 H74 H 0.78330 -0.35666 0.29531
 H75 H 0.74027 -0.20403 0.19894
 H76 H 0.76694 -0.17059 0.16225
 H77 H 0.83328 -0.21204 0.20699
 H78 H 0.80554 -0.24465 0.24249
 C79 C 0.69846 -0.31489 0.18514
 C80 C 0.70013 -0.18301 0.31519
 C81 C 0.80209 -0.18875 0.18217
 C82 C 0.79985 -0.31407 0.31875
 C83 C 0.71591 0.26407 -0.20206
 H84 H 0.71593 0.23738 -0.19971
 C85 C 0.70031 0.28320 -0.18244
 H86 H 0.68821 0.27124 -0.16496
 C87 C 0.73151 0.31233 -0.22785
 H88 H 0.74383 0.32362 -0.24538
 C89 C 0.71618 0.33240 -0.20869
 H90 H 0.71655 0.35905 -0.21174
 N91 N 0.73074 0.27876 -0.22463
 C92 C 0.73956 0.20284 -0.29827
 H93 H 0.75996 0.20114 -0.29994
 C94 C 0.72431 0.18309 -0.31786
 H95 H 0.73294 0.16602 -0.33461
 C96 C 0.70328 0.22738 -0.27474
 H97 H 0.69508 0.24500 -0.25833
 C98 C 0.68738 0.20815 -0.29386
 H99 H 0.66704 0.21080 -0.29181
 Zn100 Zn 0.75039 0.25041 -0.25090
 N101 N 0.72887 0.22410 -0.27690
 C102 C 0.76919 0.18978 -0.22478
 N103 N 0.77008 0.22347 -0.22332
 C104 C 0.78503 0.23926 -0.20164
 C105 C 0.80062 0.22113 -0.18115
 C106 C 0.78450 0.17069 -0.20469
 C107 C 0.76109 0.29541 -0.30068
 C108 C 0.77626 0.31418 -0.32131
 C109 C 0.81329 0.29037 -0.29633
 C110 C 0.79743 0.27212 -0.27621
 N111 N 0.77184 0.27529 -0.27836
 H112 H 0.75679 0.17763 -0.24161
 H113 H 0.78510 0.26605 -0.20069
 H114 H 0.81281 0.23394 -0.16440
 H115 H 0.78403 0.14391 -0.20635
 H116 H 0.74068 0.29701 -0.30229
 H117 H 0.76746 0.33039 -0.33875
 H118 H 0.83365 0.28776 -0.29413
 H119 H 0.80567 0.25536 -0.25899
 C120 C 0.69797 0.18570 -0.31549
 C121 C 0.70028 0.31765 -0.18598
 C122 C 0.80265 0.31176 -0.31899
 C123 C 0.80051 0.18654 -0.18289
 C124 C 1.21549 -0.23663 -0.20105
 H125 H 1.21539 -0.26333 -0.19873
 C126 C 1.20012 -0.21738 -0.18128
 H127 H 1.18803 -0.22924 -0.16372
 C128 C 1.23129 -0.18848 -0.22687
 H129 H 1.24363 -0.17729 -0.24442
 C130 C 1.21619 -0.16829 -0.20756
 H131 H 1.21673 -0.14164 -0.21054
 N132 N 1.23032 -0.22203 -0.22368
 C133 C 1.23942 -0.29795 -0.29704
 H134 H 1.25983 -0.29939 -0.29864
 C135 C 1.22436 -0.31782 -0.31672
 H136 H 1.23315 -0.33473 -0.33348
 C137 C 1.20292 -0.27388 -0.27356
 H138 H 1.19458 -0.25638 -0.25714
 C139 C 1.18720 -0.29324 -0.29278
 H140 H 1.16683 -0.29083 -0.29082
 Zn141 Zn 1.24990 -0.25041 -0.24982
 N142 N 1.22853 -0.27686 -0.27569
 C143 C 1.26854 -0.31081 -0.22339
 N144 N 1.26959 -0.27713 -0.22221
 C145 C 1.28456 -0.26121 -0.20066
 C146 C 1.30001 -0.27926 -0.17995
 C147 C 1.28370 -0.32982 -0.20308
 C148 C 1.26015 -0.20584 -0.29984
 C149 C 1.27512 -0.18712 -0.32071
 C150 C 1.31240 -0.21024 -0.29578
 C151 C 1.29677 -0.22849 -0.27538
 N152 N 1.27115 -0.22563 -0.27742
 H153 H 1.25608 -0.32302 -0.24011
 H154 H 1.28473 -0.23442 -0.19993
 H155 H 1.31223 -0.26639 -0.16327
 H156 H 1.28309 -0.35661 -0.20447
 H157 H 1.23974 -0.20449 -0.30132
 H158 H 1.26626 -0.17115 -0.33827
 H159 H 1.33277 -0.21247 -0.29382
 H160 H 1.30518 -0.24498 -0.25807
 C161 C 1.19801 -0.31549 -0.31443
 C162 C 1.20033 -0.18294 -0.18476
 C163 C 1.30148 -0.18926 -0.31851
 C164 C 1.29971 -0.31386 -0.18136
 C165 C 0.26017 0.20465 0.70072
 H166 H 0.23975 0.20323 0.69925
 C167 C 0.27514 0.18595 0.67989
 H168 H 0.26628 0.16993 0.66238
 C169 C 0.29678 0.22749 0.72505
 H170 H 0.30520 0.24405 0.74229
 C171 C 0.31241 0.20927 0.70470
 H172 H 0.33279 0.21160 0.70661
 N173 N 0.27116 0.22454 0.72305
 C174 C 0.21552 0.23579 0.79947
 H175 H 0.21553 0.26249 0.80172
 C176 C 0.20002 0.21665 0.81927
 H177 H 0.18799 0.22868 0.83676
 C178 C 0.23110 0.18754 0.77378
 H179 H 0.24338 0.17628 0.75625
 C180 C 0.21587 0.16744 0.79311
 H181 H 0.21633 0.14078 0.79011
 Zn182 Zn 0.24992 0.24941 0.75057
 N183 N 0.23029 0.22110 0.77689
 C184 C 0.20291 0.27270 0.72677
 N185 N 0.22852 0.27576 0.72459
 C186 C 0.23937 0.29684 0.70312
 C187 C 0.22427 0.31660 0.68339
 C188 C 0.18715 0.29195 0.70751
 C189 C 0.28467 0.26048 0.79966
 C190 C 0.30018 0.27863 0.82023
 C191 C 0.28391 0.32907 0.79682
 C192 C 0.26869 0.30996 0.77666
 N193 N 0.26969 0.27628 0.77804
 H194 H 0.19460 0.25521 0.74328
 H195 H 0.25978 0.29836 0.70147
 H196 H 0.23302 0.33351 0.66654
 H197 H 0.16679 0.28947 0.70953
 H198 H 0.28480 0.23369 0.80056
 H199 H 0.31240 0.26583 0.83696
 H200 H 0.28335 0.35585 0.79525
 H201 H 0.25624 0.32209 0.75988
 C202 C 0.20004 0.18217 0.81587
 C203 C 0.30151 0.18821 0.68203
 C204 C 0.29994 0.31322 0.81860
 C205 C 0.19792 0.31419 0.68574
 C206 C 0.76008 0.70529 0.70078
 H207 H 0.73968 0.70378 0.69914
 C208 C 0.77521 0.68650 0.68019
 H209 H 0.76647 0.67034 0.66270
 C210 C 0.79652 0.72837 0.72532
 H211 H 0.80481 0.74505 0.74253
 C212 C 0.81229 0.71007 0.70521
 H213 H 0.83265 0.71246 0.70730
 N214 N 0.77091 0.72533 0.72312
 C215 C 0.71492 0.73667 0.79923
 H216 H 0.71496 0.76337 0.80150
 C217 C 0.69927 0.71756 0.81887
 H218 H 0.68716 0.72961 0.83627
 C219 C 0.73053 0.68841 0.77361
 H220 H 0.74287 0.67712 0.75616
 C221 C 0.71515 0.66833 0.79278
 H222 H 0.71557 0.64167 0.78975
 Zn223 Zn 0.74953 0.75026 0.75048
 N224 N 0.72977 0.72197 0.77675
 C225 C 0.70256 0.77345 0.72643
 N226 N 0.72817 0.77659 0.72435
 C227 C 0.73901 0.79772 0.70292
 C228 C 0.72391 0.81745 0.68314
 C229 C 0.68680 0.79267 0.70713
 C230 C 0.78413 0.76134 0.79976
 C231 C 0.79977 0.77946 0.82021
 C232 C 0.78383 0.82992 0.79649
 C233 C 0.76847 0.81084 0.77645
 N234 N 0.76926 0.77716 0.77802
 H235 H 0.69424 0.75594 0.74290
 H236 H 0.75942 0.79930 0.70132
 H237 H 0.73266 0.83440 0.66633
 H238 H 0.66643 0.79012 0.70909
 H239 H 0.78412 0.73456 0.80079
 H240 H 0.81192 0.76663 0.83700
 H241 H 0.78346 0.85669 0.79474
 H242 H 0.75612 0.82300 0.75957
 C243 C 0.69921 0.68308 0.81542
 C244 C 0.80156 0.68882 0.68257
 C245 C 0.79978 0.81404 0.81835
 C246 C 0.69755 0.81497 0.68540
 C247 C 0.76062 0.20554 0.19973
 H248 H 0.74021 0.20414 0.19812
 C249 C 0.77566 0.18684 0.17899
 H250 H 0.76687 0.17086 0.16140
 C251 C 0.79714 0.22828 0.22437
 H252 H 0.80549 0.24480 0.24170
 C253 C 0.81284 0.21007 0.20411
 H254 H 0.83321 0.21235 0.20618
 N255 N 0.77153 0.22536 0.22217
 C256 C 0.71558 0.23641 0.29816
 H257 H 0.71553 0.26311 0.30043
 C258 C 0.70006 0.21720 0.31786
 H259 H 0.68793 0.22909 0.33531
 C260 C 0.73135 0.18823 0.27255
 H261 H 0.74373 0.17701 0.25509
 C262 C 0.71611 0.16808 0.29179
 H263 H 0.71659 0.14142 0.28887
 Zn264 Zn 0.75018 0.25015 0.24956
 N265 N 0.73046 0.22178 0.27566
 C266 C 0.70330 0.27348 0.22545
 N267 N 0.72892 0.27654 0.22349
 C268 C 0.73990 0.29765 0.20216
 C269 C 0.72491 0.31747 0.18234
 C270 C 0.68766 0.29279 0.20610
 C271 C 0.78465 0.26105 0.29894
 C272 C 0.80002 0.27914 0.31971
 C273 C 0.78385 0.32965 0.29634
 C274 C 0.76876 0.31061 0.27597
 N275 N 0.76978 0.27693 0.27723
 H276 H 0.69490 0.25596 0.24186
 H277 H 0.76031 0.29916 0.20069
 H278 H 0.73376 0.33441 0.16561
 H279 H 0.66729 0.29032 0.20794
 H280 H 0.78479 0.23426 0.29974
 H281 H 0.81215 0.26629 0.33651
 H282 H 0.78327 0.35644 0.29487
 H283 H 0.75639 0.32279 0.25913
 C284 C 0.70020 0.18276 0.31446
 C285 C 0.80202 0.18905 0.18134
 C286 C 0.79975 0.31373 0.31820
 C287 C 0.69855 0.31507 0.18447
 C288 C 0.26117 0.70594 0.20169
 H289 H 0.24077 0.70443 0.20006
 C290 C 0.27630 0.68718 0.18107
 H291 H 0.26756 0.67103 0.16357
 C292 C 0.29761 0.72901 0.22622
 H293 H 0.30591 0.74568 0.24345
 C294 C 0.31338 0.71074 0.20608
 H295 H 0.33375 0.71314 0.20816
 N296 N 0.27199 0.72597 0.22404
 C297 C 0.21599 0.73710 0.30023
 H298 H 0.21600 0.76379 0.30256
 C299 C 0.20033 0.71790 0.31980
 H300 H 0.18818 0.72981 0.33722
 C301 C 0.23165 0.68892 0.27452
 H302 H 0.24401 0.67768 0.25705
 C303 C 0.21627 0.66879 0.29363
 H304 H 0.21665 0.64214 0.29059
 Zn305 Zn 0.25059 0.75086 0.25145
 N306 N 0.23088 0.72248 0.27773
 C307 C 0.20355 0.77394 0.22746
 N308 N 0.22915 0.77716 0.22535
 C309 C 0.23993 0.79834 0.20391
 C310 C 0.22476 0.81804 0.18417
 C311 C 0.18773 0.79312 0.20819
 C312 C 0.28525 0.76206 0.30070
 C313 C 0.30088 0.78021 0.32114
 C314 C 0.28478 0.83065 0.29745
 C315 C 0.26945 0.81150 0.27744
 N316 N 0.27032 0.77782 0.27899
 H317 H 0.19528 0.75638 0.24393
 H318 H 0.26033 0.80000 0.20229
 H319 H 0.23346 0.83502 0.16735
 H320 H 0.16737 0.79049 0.21018
 H321 H 0.28529 0.73527 0.30172
 H322 H 0.31303 0.76727 0.33788
 H323 H 0.28424 0.85744 0.29560
 H324 H 0.25705 0.82360 0.26058
 C325 C 0.20031 0.68346 0.31626
 C326 C 0.30265 0.68951 0.18342
 C327 C 0.30083 0.81485 0.31932
 C328 C 0.19841 0.81546 0.18646
 O329 O 1.03572 0.05774 0.05833
 O330 O 1.06386 0.02794 0.02781
 C331 C 1.05847 0.04919 0.05001
 O332 O 0.96447 -0.06012 0.05508
 O333 O 0.93661 -0.02830 0.02609
 C334 C 0.94180 -0.05133 0.04668
 O335 O 1.03563 -0.05707 0.05850
 O336 O 1.06382 -0.02730 0.02790
 C337 C 1.05840 -0.04854 0.05015
 O338 O 0.96456 0.06082 0.05486
 O339 O 0.93666 0.02895 0.02598
 C340 C 0.94188 0.05202 0.04648
 Zr341 Zr 1.00021 0.04216 0.04003
 O342 O 0.99712 0.04229 0.09053
 O343 O 1.00313 0.09448 0.03981
 Zr344 Zr 1.00014 -0.04148 0.04017
 O345 O 0.99706 -0.04148 0.09068
 O346 O 1.00297 -0.09380 0.04014
 O347 O 1.02274 0.00035 0.04659
 O348 O 0.97814 0.00035 0.04586
 O349 O 0.96534 0.06104 -0.05640
 O350 O 0.93726 0.02931 -0.02769
 C351 C 0.94262 0.05229 -0.04827
 O352 O 1.03589 -0.05740 -0.05873
 O353 O 1.06369 -0.02762 -0.02785
 C354 C 1.05853 -0.04880 -0.05016
 O355 O 0.96525 -0.06053 -0.05619
 O356 O 0.93722 -0.02875 -0.02758
 C357 C 0.94254 -0.05176 -0.04807
 O358 O 1.03599 0.05794 -0.05892
 O359 O 1.06374 0.02820 -0.02795
 C360 C 1.05861 0.04935 -0.05033
 Zr361 Zr 1.00058 0.04214 -0.04073
 O362 O 0.99792 0.04188 -0.09127
 O363 O 1.00350 0.09446 -0.04035
 Zr364 Zr 1.00051 -0.04159 -0.04059
 O365 O 0.99784 -0.04141 -0.09113
 O366 O 1.00336 -0.09391 -0.04006
 Zr367 Zr 1.03817 0.00031 0.00003
 Zr368 Zr 0.96255 0.00031 -0.00047
 O369 O 0.97854 0.00027 -0.04662
 O370 O 1.02320 0.00027 -0.04675
 O371 O 0.97777 0.04865 -0.00049
 O372 O 1.02237 -0.04759 -0.00005
 O373 O 1.02244 0.04820 -0.00021
 O374 O 0.97769 -0.04803 -0.00033
 H375 H 0.96664 0.00036 0.06460
 H376 H 1.03379 -0.06704 0.00006
 H377 H 0.96721 0.00025 -0.06550
 H378 H 1.03390 0.06765 -0.00016
 H379 H 0.98873 -0.10252 0.02732
 H380 H 0.98905 -0.10255 -0.02726
 H381 H 1.01204 -0.02793 -0.09947
 H382 H 1.01209 0.02838 -0.09956
 H383 H 0.98918 0.10311 -0.02761
 H384 H 0.98888 0.10318 0.02698
 H385 H 1.01111 0.02864 0.09905
 H386 H 1.01113 -0.02790 0.09915
 O387 O 1.03533 0.55677 0.55882
 O388 O 1.06319 0.52688 0.52801
 C389 C 1.05800 0.54814 0.55026
 O390 O 0.96403 0.43869 0.55596
 O391 O 0.93609 0.47057 0.52721
 C392 C 0.94134 0.44749 0.54772
 O393 O 1.03517 0.44186 0.55874
 O394 O 1.06315 0.47171 0.52791
 C395 C 1.05788 0.45043 0.55018
 O396 O 0.96448 0.56026 0.55628
 O397 O 0.93651 0.52845 0.52760
 C398 C 0.94179 0.55151 0.54807
 Zr399 Zr 0.99974 0.54118 0.54090
 O400 O 0.99693 0.54067 0.59143
 O401 O 1.00271 0.59350 0.54091
 Zr402 Zr 0.99958 0.45748 0.54082
 O403 O 0.99674 0.45756 0.59135
 O404 O 1.00239 0.40516 0.54077
 O405 O 1.02226 0.49930 0.54708
 O406 O 0.97763 0.49933 0.54675
 O407 O 0.96399 0.55989 0.44494
 O408 O 0.93609 0.52808 0.47395
 C409 C 0.94132 0.55107 0.45332
 O410 O 1.03513 0.44203 0.44182
 O411 O 1.06310 0.47186 0.47252
 C412 C 1.05783 0.45064 0.45025
 O413 O 0.96400 0.43900 0.44498
 O414 O 0.93606 0.47079 0.47387
 C415 C 0.94131 0.44781 0.45329
 O416 O 1.03484 0.55717 0.44147
 O417 O 1.06276 0.52737 0.47216
 C418 C 1.05752 0.54860 0.44986
 Zr419 Zr 0.99956 0.54136 0.46006
 O420 O 0.99663 0.54166 0.40955
 O421 O 1.00246 0.59369 0.46075
 Zr422 Zr 0.99960 0.45760 0.46000
 O423 O 0.99671 0.45770 0.40949
 O424 O 1.00243 0.40528 0.46010
 Zr425 Zr 1.03736 0.49938 0.50034
 Zr426 Zr 0.96188 0.49937 0.50052
 O427 O 0.97760 0.49946 0.45422
 O428 O 1.02217 0.49950 0.45370
 O429 O 0.97704 0.54774 0.50055
 O430 O 1.02159 0.45147 0.50037
 O431 O 1.02169 0.54730 0.50040
 O432 O 0.97699 0.45102 0.50044
 H433 H 0.96618 0.49930 0.56554
 H434 H 1.03303 0.43202 0.50031
 H435 H 0.96616 0.49947 0.43545
 H436 H 1.03317 0.56673 0.50037
 H437 H 0.98833 0.39650 0.52761
 H438 H 0.98818 0.39658 0.47298
 H439 H 1.01093 0.47105 0.40104
 H440 H 1.01031 0.52743 0.40109
 H441 H 0.98779 0.60231 0.47286
 H442 H 0.98886 0.60221 0.52743
 H443 H 1.01128 0.52752 0.59973
 H444 H 1.01098 0.47091 0.59971
 O445 O 0.53457 0.05772 0.55793
 O446 O 0.56268 0.02792 0.52746
 C447 C 0.55731 0.04919 0.54964
 O448 O 0.46372 -0.06055 0.55440
 O449 O 0.43582 -0.02869 0.52552
 C450 C 0.44104 -0.05176 0.54605
 O451 O 0.53488 -0.05742 0.55769
 O452 O 0.56303 -0.02760 0.52707
 C453 C 0.55763 -0.04887 0.54930
 O454 O 0.46368 0.06047 0.55437
 O455 O 0.43584 0.02863 0.52542
 C456 C 0.44102 0.05166 0.54598
 Zr457 Zr 0.49929 0.04188 0.53938
 O458 O 0.49622 0.04205 0.58988
 O459 O 0.50216 0.09421 0.53880
 Zr460 Zr 0.49935 -0.04178 0.53953
 O461 O 0.49631 -0.04154 0.59004
 O462 O 0.50218 -0.09409 0.53975
 O463 O 0.52191 0.00008 0.54586
 O464 O 0.47729 0.00001 0.54524
 O465 O 0.46442 0.06074 0.44301
 O466 O 0.43639 0.02896 0.47175
 C467 C 0.44171 0.05197 0.45119
 O468 O 0.53493 -0.05764 0.44054
 O469 O 0.56284 -0.02787 0.47133
 C470 C 0.55760 -0.04906 0.44904
 O471 O 0.46403 -0.06056 0.44343
 O472 O 0.43601 -0.02879 0.47216
 C473 C 0.44131 -0.05178 0.45161
 O474 O 0.53507 0.05761 0.44039
 O475 O 0.56287 0.02789 0.47132
 C476 C 0.55770 0.04903 0.44895
 Zr477 Zr 0.49966 0.04182 0.45862
 O478 O 0.49696 0.04157 0.40808
 O479 O 0.50260 0.09414 0.45898
 Zr480 Zr 0.49953 -0.04190 0.45879
 O481 O 0.49680 -0.04205 0.40826
 O482 O 0.50236 -0.09423 0.45936
 Zr483 Zr 0.53734 -0.00001 0.49928
 Zr484 Zr 0.46171 -0.00006 0.49892
 O485 O 0.47761 -0.00005 0.45274
 O486 O 0.52224 -0.00006 0.45256
 O487 O 0.47685 0.04832 0.49888
 O488 O 0.52149 -0.04789 0.49925
 O489 O 0.52156 0.04787 0.49911
 O490 O 0.47683 -0.04839 0.49909
 H491 H 0.46579 -0.00000 0.56398
 H492 H 0.53290 -0.06735 0.49931
 H493 H 0.46625 -0.00007 0.43389
 H494 H 0.53301 0.06733 0.49915
 H495 H 0.48824 -0.10283 0.52641
 H496 H 0.48784 -0.10288 0.47178
 H497 H 0.51078 -0.02823 0.39985
 H498 H 0.51113 0.02808 0.39977
 H499 H 0.48831 0.10280 0.47179
 H500 H 0.48768 0.10285 0.52638
 H501 H 0.50998 0.02798 0.59837
 H502 H 0.51068 -0.02849 0.59849
 O503 O 0.53591 0.55751 0.05784
 O504 O 0.56381 0.52785 0.02684
 C505 C 0.55859 0.54903 0.04916
 O506 O 0.46503 0.43914 0.05560
 O507 O 0.43683 0.47087 0.02715
 C508 C 0.44227 0.44780 0.04758
 O509 O 0.53598 0.44271 0.05769
 O510 O 0.56384 0.47264 0.02676
 C511 C 0.55865 0.45133 0.04902
 O512 O 0.46496 0.56077 0.05575
 O513 O 0.43679 0.52903 0.02723
 C514 C 0.44221 0.55205 0.04771
 Zr515 Zr 0.50024 0.54184 0.04012
 O516 O 0.49763 0.54140 0.09068
 O517 O 0.50312 0.59416 0.04018
 Zr518 Zr 0.50029 0.45828 0.04001
 O519 O 0.49769 0.45845 0.09057
 O520 O 0.50323 0.40597 0.03992
 O521 O 0.52291 0.50010 0.04620
 O522 O 0.47821 0.49999 0.04611
 O523 O 0.46439 0.56085 -0.05565
 O524 O 0.43653 0.52902 -0.02663
 C525 C 0.44173 0.55205 -0.04721
 O526 O 0.53513 0.44267 -0.05945
 O527 O 0.56320 0.47245 -0.02896
 C528 C 0.55785 0.45128 -0.05122
 O529 O 0.46446 0.43953 -0.05581
 O530 O 0.43656 0.47107 -0.02670
 C531 C 0.44179 0.44817 -0.04736
 O532 O 0.53506 0.55807 -0.05930
 O533 O 0.56316 0.52829 -0.02887
 C534 C 0.55779 0.54953 -0.05108
 Zr535 Zr 0.49985 0.54205 -0.04062
 O536 O 0.49672 0.54199 -0.09112
 O537 O 0.50269 0.59439 -0.04018
 Zr538 Zr 0.49990 0.45843 -0.04073
 O539 O 0.49677 0.45872 -0.09123
 O540 O 0.50281 0.40611 -0.04042
 Zr541 Zr 0.53789 0.50024 -0.00060
 Zr542 Zr 0.46213 0.50006 0.00005
 O543 O 0.47778 0.50020 -0.04631
 O544 O 0.52248 0.50031 -0.04713
 O545 O 0.47739 0.54840 -0.00004
 O546 O 0.52214 0.45233 -0.00055
 O547 O 0.52208 0.54808 -0.00043
 O548 O 0.47745 0.45180 -0.00016
 H549 H 0.46688 0.49993 0.06502
 H550 H 0.53358 0.43289 -0.00069
 H551 H 0.46631 0.50022 -0.06504
 H552 H 0.53349 0.56758 -0.00051
 H553 H 0.48916 0.39724 0.02681
 H554 H 0.48851 0.39737 -0.02766
 H555 H 0.51087 0.47225 -0.09974
 H556 H 0.51084 0.52856 -0.09967
 H557 H 0.48837 0.60300 -0.02741
 H558 H 0.48906 0.60289 0.02705
 H559 H 0.51201 0.52825 0.09890
 H560 H 0.51203 0.47166 0.09883
 C561 C 1.15065 0.12938 0.13182
 N562 N 1.14303 0.14054 0.10278
 N563 N 1.12576 0.12385 0.08603
 C564 C 1.11559 0.09549 0.09782
 N565 N 1.12325 0.08428 0.12684
 N566 N 1.14051 0.10097 0.14358
 C567 C 1.16815 0.14832 0.15064
 C568 C 1.18229 0.16466 0.16688
 C569 C 1.09599 0.07853 0.08059
 C570 C 1.07909 0.06482 0.06645
 C571 C 1.15046 0.62859 0.63104
 N572 N 1.14295 0.63938 0.60182
 N573 N 1.12568 0.62254 0.58523
 C574 C 1.11539 0.59441 0.59738
 N575 N 1.12294 0.58357 0.62657
 N576 N 1.14022 0.60041 0.64315
 C577 C 1.16788 0.64776 0.64970
 C578 C 1.18194 0.66431 0.66582
 C579 C 1.09573 0.57740 0.58038
 C580 C 1.07873 0.56370 0.56645
 C581 C 0.64979 0.12997 0.63046
 N582 N 0.63928 0.10209 0.64285
 N583 N 0.62192 0.08526 0.62638
 C584 C 0.61453 0.09582 0.59703
 N585 N 0.62508 0.12366 0.58461
 N586 N 0.64244 0.14048 0.60108
 C587 C 0.66742 0.14909 0.64895
 C588 C 0.68167 0.16557 0.66491
 C589 C 0.59487 0.07871 0.58002
 C590 C 0.57793 0.06491 0.56601
 C591 C 0.65096 0.62950 0.13017
 N592 N 0.64122 0.60081 0.14178
 N593 N 0.62397 0.58401 0.12511
 C594 C 0.61594 0.59542 0.09633
 N595 N 0.62574 0.62407 0.08468
 N596 N 0.64299 0.64086 0.10135
 C597 C 0.66837 0.64858 0.14898
 C598 C 0.68242 0.66503 0.16522
 C599 C 0.59630 0.57840 0.07927
 C600 C 0.57932 0.56467 0.06532
 C601 C 0.84957 -0.13463 0.12558
 N602 N 0.85428 -0.10237 0.13242
 N603 N 0.87149 -0.08544 0.11573
 C604 C 0.88449 -0.10027 0.09170
 N605 N 0.87973 -0.13250 0.08481
 N606 N 0.86252 -0.14943 0.10150
 C607 C 0.83219 -0.15340 0.14481
 C608 C 0.81816 -0.16940 0.16154
 C609 C 0.90410 -0.08265 0.07506
 C610 C 0.92107 -0.06817 0.06174
 C611 C 0.84896 0.36413 0.62659
 N612 N 0.85381 0.39633 0.63358
 N613 N 0.87107 0.41324 0.61696
 C614 C 0.88403 0.39847 0.59286
 N615 N 0.87914 0.36629 0.58582
 N616 N 0.86187 0.34938 0.60243
 C617 C 0.83148 0.34537 0.64572
 C618 C 0.81738 0.32935 0.66239
 C619 C 0.90366 0.41609 0.57622
 C620 C 0.92062 0.43059 0.56286
 C621 C 0.34879 -0.13516 0.62473
 N622 N 0.35331 -0.10281 0.63137
 N623 N 0.37052 -0.08587 0.61471
 C624 C 0.38373 -0.10078 0.59092
 N625 N 0.37917 -0.13311 0.58422
 N626 N 0.36195 -0.15005 0.60088
 C627 C 0.33145 -0.15393 0.64398
 C628 C 0.31747 -0.16993 0.66076
 C629 C 0.40335 -0.08315 0.57434
 C630 C 0.42032 -0.06865 0.56108
 C631 C 0.35033 0.36434 0.12708
 N632 N 0.35493 0.39668 0.13369
 N633 N 0.37215 0.41356 0.11698
 C634 C 0.38530 0.39861 0.09314
 N635 N 0.38065 0.36629 0.08647
 N636 N 0.36344 0.34941 0.10319
 C637 C 0.33288 0.34565 0.14629
 C638 C 0.31877 0.32972 0.16300
 C639 C 0.40484 0.41625 0.07637
 C640 C 0.42170 0.43080 0.06289
 C641 C 0.84989 0.13369 -0.12792
 N642 N 0.85558 0.10185 -0.13534
 N643 N 0.87305 0.08541 -0.11870
 C644 C 0.88535 0.10031 -0.09414
 N645 N 0.87962 0.13213 -0.08668
 N646 N 0.86215 0.14857 -0.10331
 C647 C 0.83197 0.15191 -0.14680
 C648 C 0.81738 0.16752 -0.16305
 C649 C 0.90504 0.08316 -0.07728
 C650 C 0.92199 0.06896 -0.06370
 C651 C 0.84864 0.63280 0.37417
 N652 N 0.86118 0.64774 0.39851
 N653 N 0.87857 0.63119 0.41516
 C654 C 0.88392 0.59920 0.40798
 N655 N 0.87134 0.58423 0.38368
 N656 N 0.85396 0.60079 0.36703
 C657 C 0.83091 0.65115 0.35518
 C658 C 0.81649 0.66685 0.33878
 C659 C 0.90361 0.58196 0.42471
 C660 C 0.92060 0.56773 0.43814
 C661 C 0.34877 0.13373 0.37235
 N662 N 0.36105 0.14843 0.39705
 N663 N 0.37856 0.13190 0.41351
 C664 C 0.38433 0.10016 0.40577
 N665 N 0.37202 0.08544 0.38112
 N666 N 0.35450 0.10197 0.36466
 C667 C 0.33084 0.15206 0.35364
 C668 C 0.31623 0.16778 0.33749
 C669 C 0.40407 0.08293 0.42244
 C670 C 0.42106 0.06867 0.43589
 C671 C 0.34871 0.63342 -0.12595
 N672 N 0.35372 0.60122 -0.13263
 N673 N 0.37121 0.58478 -0.11604
 C674 C 0.38419 0.60006 -0.09227
 N675 N 0.37913 0.63224 -0.08553
 N676 N 0.36165 0.64868 -0.10212
 C677 C 0.33089 0.65162 -0.14491
 C678 C 0.31641 0.66719 -0.16131
 C679 C 0.40396 0.58292 -0.07563
 C680 C 0.42100 0.56872 -0.06230
 C681 C 1.15156 -0.12776 -0.13126
 N682 N 1.14493 -0.13787 -0.10146
 N683 N 1.12746 -0.12138 -0.08488
 C684 C 1.11610 -0.09430 -0.09761
 N685 N 1.12277 -0.08415 -0.12739
 N686 N 1.14024 -0.10064 -0.14397
 C687 C 1.16932 -0.14656 -0.14977
 C688 C 1.18373 -0.16288 -0.16559
 C689 C 1.09633 -0.07766 -0.08049
 C690 C 1.07928 -0.06421 -0.06645
 C691 C 1.15102 0.37135 0.36946
 N692 N 1.14469 0.36180 0.39954
 N693 N 1.12712 0.37831 0.41595
 C694 C 1.11536 0.40487 0.40277
 N695 N 1.12173 0.41446 0.37271
 N696 N 1.13930 0.39795 0.35631
 C697 C 1.16900 0.35257 0.35121
 C698 C 1.18363 0.33631 0.33562
 C699 C 1.09557 0.42162 0.41982
 C700 C 1.07854 0.43516 0.43387
 C701 C 0.65082 -0.12808 0.36819
 N702 N 0.64432 -0.13792 0.39812
 N703 N 0.62676 -0.12146 0.41458
 C704 C 0.61517 -0.09467 0.40160
 N705 N 0.62172 -0.08478 0.37169
 N706 N 0.63928 -0.10124 0.35523
 C707 C 0.66875 -0.14682 0.34985
 C708 C 0.68332 -0.16306 0.33418
 C709 C 0.59537 -0.07800 0.41866
 C710 C 0.57832 -0.06451 0.43269
 C711 C 0.65081 0.37244 -0.13293
 N712 N 0.64486 0.36306 -0.10267
 N713 N 0.62733 0.37947 -0.08611
 C714 C 0.61521 0.40574 -0.09930
 N715 N 0.62119 0.41516 -0.12954
 N716 N 0.63873 0.39875 -0.14610
 C717 C 0.66878 0.35376 -0.15132
 C718 C 0.68340 0.33757 -0.16700
 C719 C 0.59546 0.42239 -0.08204
 C720 C 0.57849 0.43585 -0.06781
 C721 C 1.15184 0.12824 -0.13164
 N722 N 1.14525 0.13833 -0.10184
 N723 N 1.12773 0.12188 -0.08523
 C724 C 1.11627 0.09484 -0.09793
 N725 N 1.12290 0.08471 -0.12771
 N726 N 1.14042 0.10116 -0.14432
 C727 C 1.16968 0.14700 -0.15017
 C728 C 1.18418 0.16327 -0.16600
 C729 C 1.09646 0.07820 -0.08076
 C730 C 1.07939 0.06475 -0.06667
 C731 C 1.15071 0.62828 0.36898
 N732 N 1.14446 0.63766 0.39912
 N733 N 1.12689 0.62107 0.41553
 C734 C 1.11505 0.59459 0.40230
 N735 N 1.12134 0.58517 0.37219
 N736 N 1.13890 0.60176 0.35578
 C737 C 1.16871 0.64714 0.35074
 C738 C 1.18338 0.66344 0.33516
 C739 C 1.09526 0.57775 0.41938
 C740 C 1.07823 0.56414 0.43345
 C741 C 0.65103 0.12775 0.36777
 N742 N 0.64461 0.13764 0.39769
 N743 N 0.62704 0.12123 0.41425
 C744 C 0.61537 0.09444 0.40137
 N745 N 0.62184 0.08450 0.37147
 N746 N 0.63940 0.10092 0.35492
 C747 C 0.66892 0.14648 0.34932
 C748 C 0.68345 0.16274 0.33355
 C749 C 0.59554 0.07785 0.41851
 C750 C 0.57846 0.06443 0.43258
 C751 C 0.65066 0.62912 -0.13256
 N752 N 0.63888 0.60250 -0.14560
 N753 N 0.62136 0.58595 -0.12907
 C754 C 0.61509 0.59554 -0.09900
 N755 N 0.62691 0.62212 -0.08593
 N756 N 0.64443 0.63866 -0.10246
 C757 C 0.66860 0.64792 -0.15093
 C758 C 0.68321 0.66420 -0.16661
 C759 C 0.59536 0.57873 -0.08180
 C760 C 0.57840 0.56513 -0.06762
 C761 C 0.84943 -0.13318 -0.12703
 N762 N 0.86185 -0.14812 -0.10259
 N763 N 0.87942 -0.13170 -0.08610
 C764 C 0.88510 -0.09983 -0.09357
 N765 N 0.87264 -0.08487 -0.11797
 N766 N 0.85507 -0.10129 -0.13446
 C767 C 0.83141 -0.15138 -0.14576
 C768 C 0.81673 -0.16697 -0.16192
 C769 C 0.90488 -0.08268 -0.07686
 C770 C 0.92188 -0.06847 -0.06340
 C771 C 0.84852 0.36653 0.37390
 N772 N 0.85380 0.39864 0.36701
 N773 N 0.87122 0.41508 0.38372
 C774 C 0.88388 0.39990 0.40782
 N775 N 0.87856 0.36781 0.41477
 N776 N 0.86114 0.35137 0.39806
 C777 C 0.83078 0.34832 0.35482
 C778 C 0.81637 0.33272 0.33834
 C779 C 0.90360 0.41702 0.42460
 C780 C 0.92060 0.43119 0.43806
 C781 C 0.34860 -0.13371 0.37232
 N782 N 0.36084 -0.14843 0.39705
 N783 N 0.37827 -0.13186 0.41363
 C784 C 0.38400 -0.10006 0.40600
 N785 N 0.37173 -0.08531 0.38131
 N786 N 0.35430 -0.10188 0.36473
 C787 C 0.33074 -0.15207 0.35349
 C788 C 0.31618 -0.16781 0.33726
 C789 C 0.40368 -0.08277 0.42278
 C790 C 0.42064 -0.06850 0.43629
 C791 C 0.34898 0.36628 -0.12624
 N792 N 0.36169 0.35125 -0.10208
 N793 N 0.37913 0.36780 -0.08549
 C794 C 0.38437 0.39988 -0.09256
 N795 N 0.37161 0.41494 -0.11667
 N796 N 0.35418 0.39838 -0.13325
 C797 C 0.33117 0.34796 -0.14514
 C798 C 0.31668 0.33228 -0.16146
 C799 C 0.40408 0.41715 -0.07588
 C800 C 0.42108 0.43143 -0.06249
 C801 C 1.15051 -0.12907 0.13178
 N802 N 1.14301 -0.13995 0.10259
 N803 N 1.12575 -0.12318 0.08592
 C804 C 1.11546 -0.09503 0.09792
 N805 N 1.12301 -0.08411 0.12707
 N806 N 1.14027 -0.10087 0.14375
 C807 C 1.16804 -0.14810 0.15051
 C808 C 1.18220 -0.16450 0.16666
 C809 C 1.09589 -0.07798 0.08072
 C810 C 1.07900 -0.06422 0.06660
 C811 C 1.15023 0.36987 0.63110
 N812 N 1.14246 0.35883 0.60209
 N813 N 1.12519 0.37564 0.58548
 C814 C 1.11516 0.40399 0.59739
 N815 N 1.12297 0.41507 0.62637
 N816 N 1.14024 0.39826 0.64298
 C817 C 1.16769 0.35077 0.64980
 C818 C 1.18179 0.33430 0.66594
 C819 C 1.09553 0.42103 0.58035
 C820 C 1.07857 0.43477 0.56639
 C821 C 0.64980 -0.12945 0.63070
 N822 N 0.64220 -0.14038 0.60157
 N823 N 0.62494 -0.12359 0.58492
 C824 C 0.61474 -0.09537 0.59690
 N825 N 0.62239 -0.08439 0.62599
 N826 N 0.63965 -0.10118 0.64264
 C827 C 0.66728 -0.14852 0.64942
 C828 C 0.68140 -0.16496 0.66558
 C829 C 0.59515 -0.07831 0.57976
 C830 C 0.57825 -0.06455 0.56569
 C831 C 0.65112 0.37087 0.12967
 N832 N 0.64319 0.35967 0.10079
 N833 N 0.62592 0.37649 0.08419
 C834 C 0.61607 0.40500 0.09598
 N835 N 0.62405 0.41624 0.12483
 N836 N 0.64132 0.39942 0.14143
 C837 C 0.66852 0.35173 0.14841
 C838 C 0.68254 0.33522 0.16461
 C839 C 0.59640 0.42201 0.07901
 C840 C 0.57939 0.43572 0.06513
 C841 C 0.84953 0.13515 0.12487
 N842 N 0.85403 0.10280 0.13155
 N843 N 0.87128 0.08593 0.11496
 C844 C 0.88455 0.10091 0.09120
 N845 N 0.88000 0.13323 0.08447
 N846 N 0.86275 0.15010 0.10106
 C847 C 0.83212 0.15384 0.14403
 C848 C 0.81808 0.16978 0.16073
 C849 C 0.90418 0.08334 0.07469
 C850 C 0.92116 0.06887 0.06146
 C851 C 0.84938 0.63475 0.62654
 N852 N 0.85422 0.60258 0.63365
 N853 N 0.87152 0.58570 0.61714
 C854 C 0.88451 0.60047 0.59302
 N855 N 0.87963 0.63262 0.58586
 N856 N 0.86233 0.64950 0.60237
 C857 C 0.83187 0.65347 0.64555
 C858 C 0.81773 0.66946 0.66211
 C859 C 0.90415 0.58288 0.57647
 C860 C 0.92111 0.56839 0.56318
 C861 C 0.34883 0.13444 0.62512
 N862 N 0.35344 0.10210 0.63174
 N863 N 0.37062 0.08529 0.61497
 C864 C 0.38372 0.10031 0.59109
 N865 N 0.37906 0.13263 0.58442
 N866 N 0.36188 0.14943 0.60118
 C867 C 0.33149 0.15307 0.64445
 C868 C 0.31750 0.16896 0.66128
 C869 C 0.40331 0.08282 0.57439
 C870 C 0.42028 0.06842 0.56105
 C871 C 0.35036 0.63544 0.12716
 N872 N 0.35526 0.60328 0.13427
 N873 N 0.37245 0.58637 0.11759
 C874 C 0.38526 0.60110 0.09329
 N875 N 0.38031 0.63323 0.08613
 N876 N 0.36313 0.65014 0.10281
 C877 C 0.33292 0.65418 0.14629
 C878 C 0.31881 0.67016 0.16292
 C879 C 0.40477 0.58347 0.07652
 C880 C 0.42162 0.56895 0.06303
   
