data_POSCAR
  _audit_creation_date              2014-09-24
  _audit_creation_method            'ToBaCCo'
  _symmetry_space_group_name_H-M    'P1'
  _symmetry_Int_Tables_number       1
  _symmetry_cell_setting            triclinic
  loop_
  _symmetry_equiv_pos_as_xyz
 x,y,z
_cell_length_a 14.5647
_cell_length_b 14.6168
_cell_length_c 24.0026
_cell_angle_alpha 79.920900
_cell_angle_beta 99.734500
_cell_angle_gamma 82.531800
loop_
  _atom_site_label
  _atom_site_type_symbol
  _atom_site_fract_x
  _atom_site_fract_y
  _atom_site_fract_z
O1 O -0.10909 0.41150 1.02806
 O2 O -0.07154 0.61988 0.92889
 O3 O -0.07372 0.43895 0.92503
 O4 O -0.10298 0.58647 1.03340
 O5 O 0.05101 0.55376 1.06711
 O6 O 0.07944 0.40526 0.96101
 O7 O 0.08208 0.58343 0.96265
 O8 O 0.04387 0.37996 1.06520
 Cu9 Cu -0.10474 0.51798 0.97473
 Cu10 Cu 0.07955 0.47713 1.01708
 C11 C -0.03909 0.36127 1.06404
 C12 C 0.01155 0.63807 0.92947
 C13 C 0.00796 0.39520 0.92569
 C14 C -0.03050 0.59456 1.06884
 O15 O 0.62319 -0.04799 0.56813
 O16 O 0.42023 -0.08340 0.46484
 O17 O 0.59917 -0.08206 0.46393
 O18 O 0.44777 -0.05216 0.56908
 O19 O 0.41627 0.10139 0.53472
 O20 O 0.56784 0.07094 0.42805
 O21 O 0.38620 0.06994 0.43028
 O22 O 0.59337 0.10474 0.53133
 Cu23 Cu 0.52584 -0.08180 0.51969
 Cu24 Cu 0.48740 0.10215 0.47708
 C25 C 0.64298 0.03430 0.56735
 C26 C 0.36737 -0.01265 0.43090
 C27 C 0.61073 -0.01088 0.42875
 C28 C 0.40685 0.02939 0.57021
 C29 C -0.05127 -0.14738 0.21840
 C30 C -0.12582 -0.14398 0.25604
 C31 C -0.12867 -0.06945 0.28325
 C32 C -0.05508 -0.00537 0.27062
 C33 C -0.07223 -0.05111 0.17757
 C34 C -0.07332 0.02290 0.20464
 C35 C 0.04178 -0.14681 0.25948
 C36 C 0.04022 -0.07237 0.28652
 H37 H -0.17275 -0.19545 0.26015
 H38 H -0.05700 0.05545 0.29265
 H39 H -0.07676 -0.04271 0.13135
 H40 H 0.10422 -0.19937 0.26560
 C41 C 0.14511 0.05291 0.71884
 C42 C 0.14581 -0.03874 0.76167
 C43 C 0.07122 -0.03670 0.78898
 C44 C 0.00306 0.05776 0.77185
 C45 C 0.04843 0.07128 0.67851
 C46 C -0.02549 0.07322 0.70606
 C47 C 0.14079 0.12925 0.75482
 C48 C 0.06628 0.13260 0.78246
 H49 H 0.19846 -0.10115 0.76817
 H50 H -0.05778 0.05988 0.79423
 H51 H 0.03979 0.07275 0.63259
 H52 H 0.19188 0.17670 0.75772
 N53 N 0.03803 -0.34107 0.15051
 C54 C -0.03938 -0.34643 0.11168
 N55 N -0.12263 -0.29199 0.11105
 N56 N -0.12747 -0.23242 0.14704
 C57 C -0.04944 -0.22566 0.18518
 N58 N 0.03313 -0.28174 0.18646
 N59 N -0.12613 0.23273 0.08860
 C60 C -0.05377 0.27890 0.10374
 N61 N 0.00789 0.24409 0.15449
 N62 N -0.00180 0.16504 0.18857
 C63 C -0.07293 0.11775 0.17276
 N64 N -0.13488 0.15292 0.12221
 N65 N 0.29094 0.12201 0.61070
 C66 C 0.34629 0.03891 0.61246
 N67 N 0.34067 -0.03767 0.65200
 N68 N 0.28044 -0.03210 0.68765
 C69 C 0.22360 0.05034 0.68534
 N70 N 0.23040 0.12751 0.64636
 N71 N -0.22941 -0.02635 0.64724
 C72 C -0.27892 0.04685 0.60560
 N73 N -0.24810 0.13119 0.60032
 N74 N -0.16909 0.14107 0.63422
 C75 C -0.11959 0.06767 0.67555
 N76 N -0.15121 -0.01605 0.68166
 N77 N -0.04836 -0.21484 0.86348
 C78 C 0.02586 -0.28065 0.89419
 N79 N 0.11480 -0.26461 0.89109
 N80 N 0.12902 -0.18663 0.85799
 C81 C 0.05497 -0.12070 0.82752
 N82 N -0.03404 -0.13613 0.83094
 N83 N -0.05197 0.29132 0.86240
 C84 C 0.02100 0.33021 0.88631
 N85 N 0.10835 0.30367 0.87607
 N86 N 0.12223 0.24134 0.84277
 C87 C 0.04966 0.20183 0.81913
 N88 N -0.03781 0.22798 0.82955
 N89 N -0.29747 -0.11158 0.37948
 C90 C -0.32395 -0.02435 0.38936
 N91 N -0.28558 0.04847 0.36448
 N92 N -0.22282 0.03429 0.33101
 C93 C -0.19678 -0.05304 0.32090
 N94 N -0.23569 -0.12550 0.34556
 N95 N 0.21174 0.04567 0.36738
 C96 C 0.28272 -0.02715 0.39271
 N97 N 0.27294 -0.11476 0.38372
 N98 N 0.19565 -0.12895 0.35013
 C99 C 0.12446 -0.05636 0.32489
 N100 N 0.13388 0.03127 0.33420
   
