data_POSCAR
  _audit_creation_date              2014-09-24
  _audit_creation_method            'ToBaCCo'
  _symmetry_space_group_name_H-M    'P1'
  _symmetry_Int_Tables_number       1
  _symmetry_cell_setting            triclinic
  loop_
  _symmetry_equiv_pos_as_xyz
 x,y,z
_cell_length_a 26.8474
_cell_length_b 26.7699
_cell_length_c 26.9507
_cell_angle_alpha 90.765900
_cell_angle_beta 89.492000
_cell_angle_gamma 88.894500
loop_
  _atom_site_label
  _atom_site_type_symbol
  _atom_site_fract_x
  _atom_site_fract_y
  _atom_site_fract_z
C1 C 0.30157 0.25121 0.21844
 C2 C 0.26266 0.28714 0.21768
 C3 C 0.22551 0.28917 0.25481
 C4 C 0.22553 0.25173 0.29086
 C5 C 0.26412 0.21558 0.29309
 C6 C 0.30082 0.21460 0.25546
 H7 H 0.26110 0.31299 0.18725
 H8 H 0.19474 0.25036 0.31689
 H9 H 0.32769 0.18413 0.25426
 C10 C 0.70363 -0.26037 0.21347
 C11 C 0.74388 -0.29507 0.21074
 C12 C 0.78354 -0.29360 0.24476
 C13 C 0.78027 -0.25844 0.28418
 C14 C 0.74111 -0.22294 0.28758
 C15 C 0.70506 -0.22240 0.25013
 H16 H 0.74434 -0.32337 0.18174
 H17 H 0.80861 -0.25827 0.31230
 H18 H 0.67829 -0.19179 0.24949
 C19 C 0.72238 0.25242 0.78281
 C20 C 0.72181 0.21777 0.74323
 C21 C 0.75625 0.21971 0.70377
 C22 C 0.79207 0.25738 0.70454
 C23 C 0.79075 0.29568 0.74108
 C24 C 0.75629 0.29179 0.78067
 H25 H 0.69430 0.18877 0.74292
 H26 H 0.82173 0.25662 0.67733
 H27 H 0.75593 0.31945 0.81014
 C28 C 0.27886 -0.24262 0.79310
 C29 C 0.23943 -0.27642 0.79488
 C30 C 0.20016 -0.27458 0.76050
 C31 C 0.20221 -0.23856 0.72288
 C32 C 0.23854 -0.20143 0.72290
 C33 C 0.27707 -0.20440 0.75781
 H34 H 0.24003 -0.30510 0.82278
 H35 H 0.17604 -0.23974 0.69270
 H36 H 0.30595 -0.17704 0.75704
 C37 C 0.69899 -0.25131 0.78375
 C38 C 0.73977 -0.28493 0.78533
 C39 C 0.77973 -0.28246 0.75125
 C40 C 0.77598 -0.24757 0.71265
 C41 C 0.73542 -0.21369 0.70982
 C42 C 0.69868 -0.21424 0.74728
 H43 H 0.74034 -0.31307 0.81376
 H44 H 0.80468 -0.24648 0.68441
 H45 H 0.67062 -0.18493 0.74863
 C46 C 0.29664 0.26238 0.78394
 C47 C 0.29342 0.22291 0.74918
 C48 C 0.25414 0.22079 0.71506
 C49 C 0.21939 0.26072 0.71432
 C50 C 0.22132 0.30048 0.74881
 C51 C 0.25875 0.29940 0.78499
 H52 H 0.32141 0.19346 0.74902
 H53 H 0.19025 0.26089 0.68688
 H54 H 0.25807 0.32665 0.81481
 C55 C 0.28017 -0.25203 0.21621
 C56 C 0.24511 -0.29048 0.21881
 C57 C 0.21055 -0.29281 0.25819
 C58 C 0.21046 -0.25491 0.29479
 C59 C 0.24767 -0.21870 0.29581
 C60 C 0.28204 -0.21761 0.25619
 H61 H 0.24447 -0.31894 0.19011
 H62 H 0.18068 -0.25322 0.32187
 H63 H 0.31033 -0.18938 0.25662
 C64 C 0.72638 0.23593 0.20134
 C65 C 0.72512 0.19998 0.23883
 C66 C 0.76188 0.19785 0.27563
 C67 C 0.79808 0.23513 0.27674
 C68 C 0.80014 0.27180 0.23991
 C69 C 0.76289 0.27278 0.20361
 H70 H 0.69440 0.17456 0.23998
 H71 H 0.82356 0.23628 0.30747
 H72 H 0.76186 0.30334 0.17783
 O73 O 0.21509 0.05243 0.45322
 O74 O 0.20555 -0.04206 0.55064
 O75 O 0.20916 0.05462 0.54956
 O76 O 0.21115 -0.04493 0.45423
 O77 O 0.29317 -0.05004 0.45862
 O78 O 0.29127 0.05035 0.55325
 O79 O 0.28761 -0.04633 0.55507
 O80 O 0.29715 0.04724 0.45681
 Cu81 Cu 0.20200 0.00547 0.50132
 Cu82 Cu 0.30056 -0.00018 0.50619
 C83 C 0.25774 0.06613 0.43855
 C84 C 0.24497 -0.06000 0.56978
 C85 C 0.24986 0.06933 0.56785
 C86 C 0.25243 -0.06475 0.44043
 O87 O 0.78826 0.04383 0.54523
 O88 O 0.78402 -0.05688 0.45076
 O89 O 0.79214 0.03954 0.44868
 O90 O 0.78218 -0.05340 0.54710
 O91 O 0.70018 -0.04544 0.54605
 O92 O 0.71011 0.04657 0.44625
 O93 O 0.70197 -0.04968 0.44964
 O94 O 0.70632 0.05167 0.54262
 Cu95 Cu 0.79490 -0.00743 0.49828
 Cu96 Cu 0.69641 0.00159 0.49612
 C97 C 0.74792 0.06523 0.55969
 C98 C 0.74217 -0.07043 0.43410
 C99 C 0.75287 0.05858 0.43033
 C100 C 0.73957 -0.06552 0.56320
 O101 O 0.45809 0.21058 0.04394
 O102 O 0.55455 0.20789 -0.05419
 O103 O 0.55482 0.20429 0.04176
 O104 O 0.45768 0.21392 -0.05304
 O105 O 0.46087 0.29621 -0.04880
 O106 O 0.55872 0.28659 0.04542
 O107 O 0.55777 0.29022 -0.05057
 O108 O 0.46208 0.29282 0.04807
 Cu109 Cu 0.50568 0.20091 -0.00581
 Cu110 Cu 0.51000 0.29975 -0.00111
 C111 C 0.44412 0.25215 0.06321
 C112 C 0.57289 0.24859 -0.06885
 C113 C 0.57365 0.24379 0.05945
 C114 C 0.44290 0.25666 -0.06733
 O115 O 0.54173 0.78264 0.05265
 O116 O 0.44420 0.78713 -0.04279
 O117 O 0.44477 0.78844 0.05360
 O118 O 0.54083 0.78511 -0.04406
 O119 O 0.53926 0.70266 -0.04607
 O120 O 0.44287 0.70602 0.05215
 O121 O 0.44284 0.70468 -0.04431
 O122 O 0.54009 0.70023 0.05072
 Cu123 Cu 0.49315 0.79410 0.00512
 Cu124 Cu 0.49120 0.69510 0.00314
 C125 C 0.55750 0.74057 0.06799
 C126 C 0.42710 0.74654 -0.06002
 C127 C 0.42715 0.74792 0.06936
 C128 C 0.55602 0.74351 -0.06219
 O129 O 0.05351 0.44717 0.20970
 O130 O -0.04741 0.54200 0.20373
 O131 O 0.04948 0.54399 0.21130
 O132 O -0.04287 0.44439 0.20408
 O133 O -0.04929 0.44513 0.28582
 O134 O 0.04300 0.54444 0.29304
 O135 O -0.05330 0.54278 0.28550
 O136 O 0.04732 0.44779 0.29147
 Cu137 Cu 0.00359 0.49443 0.19896
 Cu138 Cu -0.00395 0.49507 0.29715
 C139 C 0.06789 0.43158 0.25161
 C140 C -0.06737 0.55880 0.24363
 C141 C 0.06238 0.56083 0.25348
 C142 C -0.06144 0.42742 0.24381
 O143 O 0.04327 0.55576 0.79573
 O144 O -0.05027 0.45728 0.78752
 O145 O 0.04698 0.45873 0.78960
 O146 O -0.05321 0.55435 0.79346
 O147 O -0.05109 0.55795 0.71166
 O148 O 0.04969 0.46302 0.70786
 O149 O -0.04741 0.46083 0.70575
 O150 O 0.04540 0.55996 0.71397
 Cu151 Cu -0.00355 0.50594 0.79979
 Cu152 Cu -0.00063 0.51069 0.70158
 C153 C 0.06004 0.57489 0.75623
 C154 C -0.06497 0.44239 0.74526
 C155 C 0.06576 0.44491 0.74811
 C156 C -0.06907 0.57264 0.75321
 C157 C 0.34154 0.25126 0.17775
 C158 C 0.32252 0.22978 0.12838
 C159 C 0.35634 0.23052 0.09048
 C160 C 0.40650 0.25270 0.10499
 C161 C 0.39330 0.30473 0.12689
 C162 C 0.35975 0.30392 0.16501
 C163 C 0.39032 0.22165 0.18783
 C164 C 0.42392 0.22229 0.14971
 H165 H 0.28539 0.21516 0.12368
 H166 H 0.34805 0.21673 0.05346
 H167 H 0.40979 0.33918 0.11460
 H168 H 0.34838 0.33766 0.18520
 H169 H 0.39996 0.20490 0.22293
 H170 H 0.46074 0.20508 0.15232
 C171 C 0.66451 0.73884 0.17671
 C172 C 0.67980 0.76577 0.12902
 C173 C 0.64457 0.76579 0.09305
 C174 C 0.59672 0.73897 0.10755
 C175 C 0.61422 0.68630 0.12277
 C176 C 0.64916 0.68617 0.15910
 C177 C 0.61414 0.76368 0.19255
 C178 C 0.57922 0.76409 0.15627
 H179 H 0.71560 0.78327 0.12390
 H180 H 0.65036 0.78315 0.05733
 H181 H 0.59904 0.65196 0.10797
 H182 H 0.66246 0.65161 0.17543
 H183 H 0.60479 0.77617 0.23001
 H184 H 0.54146 0.77809 0.16276
 C185 C 0.68333 0.25013 -0.17578
 C186 C 0.63475 0.27741 -0.19010
 C187 C 0.59825 0.27633 -0.15485
 C188 C 0.61322 0.24809 -0.10799
 C189 C 0.63048 0.19598 -0.12674
 C190 C 0.66730 0.19700 -0.16179
 C191 C 0.69792 0.27365 -0.12545
 C192 C 0.66118 0.27283 -0.09035
 H193 H 0.62948 0.29593 -0.22531
 H194 H 0.56185 0.29377 -0.16000
 H195 H 0.61664 0.16116 -0.11234
 H196 H 0.68504 0.16293 -0.17606
 H197 H 0.73485 0.28665 -0.11662
 H198 H 0.66669 0.28625 -0.05265
 C199 C 0.32045 0.75404 -0.16869
 C200 C 0.33721 0.70020 -0.15636
 C201 C 0.37214 0.69726 -0.12017
 C202 C 0.38809 0.74845 -0.09973
 C203 C 0.40483 0.77695 -0.14581
 C204 C 0.36984 0.77968 -0.18198
 C205 C 0.30428 0.77750 -0.11856
 C206 C 0.33948 0.77460 -0.08266
 H207 H 0.32436 0.66718 -0.17580
 H208 H 0.38812 0.66176 -0.10866
 H209 H 0.44206 0.79126 -0.15078
 H210 H 0.37873 0.79504 -0.21791
 H211 H 0.26794 0.79493 -0.11188
 H212 H 0.33318 0.78938 -0.04537
 C213 C 0.18389 0.32882 0.25453
 C214 C 0.19629 0.37822 0.22858
 C215 C 0.15769 0.41190 0.22789
 C216 C 0.11016 0.39394 0.25359
 C217 C 0.09853 0.34404 0.22798
 C218 C 0.13695 0.31012 0.22848
 C219 C 0.16570 0.34620 0.30657
 C220 C 0.12703 0.37982 0.30607
 H221 H 0.23294 0.38774 0.21486
 H222 H 0.16143 0.44892 0.21252
 H223 H 0.06295 0.33595 0.21111
 H224 H 0.13418 0.27312 0.21188
 H225 H 0.18302 0.33483 0.34096
 H226 H 0.11135 0.39610 0.33998
 C227 C 0.16235 0.68752 0.76057
 C228 C 0.11228 0.70191 0.73602
 C229 C 0.07880 0.66439 0.73486
 C230 C 0.09742 0.61597 0.75892
 C231 C 0.14658 0.60255 0.73216
 C232 C 0.18034 0.63975 0.73296
 C233 C 0.14607 0.66974 0.81251
 C234 C 0.11260 0.63214 0.81158
 H235 H 0.10202 0.73924 0.72411
 H236 H 0.04133 0.66971 0.72079
 H237 H 0.15433 0.56661 0.71428
 H238 H 0.21686 0.63546 0.71559
 H239 H 0.15758 0.68687 0.84719
 H240 H 0.09686 0.61708 0.84533
 C241 C -0.17658 0.66907 0.24271
 C242 C -0.12642 0.68510 0.26526
 C243 C -0.09080 0.64827 0.26535
 C244 C -0.10744 0.59883 0.24204
 C245 C -0.15487 0.58525 0.27054
 C246 C -0.19075 0.62179 0.27098
 C247 C -0.16118 0.65003 0.19021
 C248 C -0.12545 0.61313 0.18997
 H249 H -0.11780 0.72302 0.27646
 H250 H -0.05310 0.65477 0.27783
 H251 H -0.15995 0.54968 0.28861
 H252 H -0.22639 0.61727 0.28959
 H253 H -0.17474 0.66597 0.15595
 H254 H -0.11004 0.59735 0.15571
 C255 C -0.17276 0.33493 0.74076
 C256 C -0.15422 0.35073 0.68884
 C257 C -0.11818 0.38583 0.68988
 C258 C -0.10416 0.40302 0.74256
 C259 C -0.15379 0.42032 0.76635
 C260 C -0.18976 0.38521 0.76504
 C261 C -0.12525 0.31952 0.76863
 C262 C -0.08957 0.35489 0.76949
 H263 H -0.16998 0.33797 0.65407
 H264 H -0.10298 0.40148 0.65617
 H265 H -0.16098 0.45805 0.78028
 H266 H -0.22767 0.39417 0.77683
 H267 H -0.12000 0.28349 0.78609
 H268 H -0.05398 0.34899 0.78753
 C269 C 0.26383 0.17585 0.33319
 C270 C 0.31560 0.15533 0.34826
 C271 C 0.31408 0.11863 0.38274
 C272 C 0.26101 0.10593 0.39982
 C273 C 0.23821 0.15608 0.41764
 C274 C 0.23997 0.19269 0.38318
 C275 C 0.23476 0.12951 0.31722
 C276 C 0.23334 0.09305 0.35188
 H277 H 0.35066 0.16993 0.33508
 H278 H 0.34773 0.10175 0.39768
 H279 H 0.22416 0.16293 0.45508
 H280 H 0.22823 0.23079 0.39211
 H281 H 0.21699 0.12564 0.28138
 H282 H 0.21447 0.05805 0.34560
 C283 C 0.75484 0.17957 0.66302
 C284 C 0.70190 0.17048 0.64358
 C285 C 0.69916 0.13256 0.60969
 C286 C 0.74977 0.10716 0.59736
 C287 C 0.78304 0.15012 0.58121
 C288 C 0.78565 0.18808 0.61521
 C289 C 0.77302 0.12839 0.68174
 C290 C 0.77038 0.09070 0.64757
 H291 H 0.66941 0.19289 0.65454
 H292 H 0.66429 0.12272 0.59236
 H293 H 0.80088 0.15180 0.54497
 H294 H 0.80479 0.22212 0.60637
 H295 H 0.78695 0.12238 0.71893
 H296 H 0.78186 0.05257 0.65560
 C297 C 0.23894 -0.16200 0.68251
 C298 C 0.18715 -0.14577 0.66332
 C299 C 0.18864 -0.11236 0.62569
 C300 C 0.24171 -0.09737 0.61081
 C301 C 0.26479 -0.07858 0.65933
 C302 C 0.26305 -0.11200 0.69689
 C303 C 0.26775 -0.18049 0.63605
 C304 C 0.26914 -0.14688 0.59869
 H305 H 0.15212 -0.15742 0.67941
 H306 H 0.15498 -0.09674 0.60955
 H307 H 0.27896 -0.04119 0.66448
 H308 H 0.27475 -0.10203 0.73408
 H309 H 0.28540 -0.21723 0.63278
 H310 H 0.28785 -0.15495 0.56352
 C311 C 0.74021 -0.18281 0.32840
 C312 C 0.76871 -0.13624 0.31278
 C313 C 0.76889 -0.09909 0.34770
 C314 C 0.74062 -0.11151 0.39553
 C315 C 0.68810 -0.12556 0.37840
 C316 C 0.68785 -0.16297 0.34371
 C317 C 0.76351 -0.19828 0.37825
 C318 C 0.76400 -0.16091 0.41301
 H319 H 0.78708 -0.13275 0.27698
 H320 H 0.78728 -0.06389 0.34168
 H321 H 0.65387 -0.10921 0.39366
 H322 H 0.65329 -0.17866 0.33068
 H323 H 0.77563 -0.23601 0.38697
 H324 H 0.77756 -0.16673 0.45035
 C325 C 0.65877 0.74679 -0.17607
 C326 C 0.60893 0.77420 -0.18680
 C327 C 0.57526 0.77261 -0.14888
 C328 C 0.59368 0.74345 -0.10372
 C329 C 0.60903 0.69171 -0.12491
 C330 C 0.64271 0.69348 -0.16291
 C331 C 0.67660 0.76962 -0.12684
 C332 C 0.64272 0.76785 -0.08915
 H333 H 0.59878 0.78999 -0.22221
 H334 H 0.53782 0.78825 -0.15190
 H335 H 0.59377 0.65677 -0.11235
 H336 H 0.65539 0.66004 -0.18284
 H337 H 0.71305 0.78579 -0.12206
 H338 H 0.65026 0.78233 -0.05221
 C339 C 0.33731 0.26226 -0.17690
 C340 C 0.35271 0.31433 -0.15780
 C341 C 0.38733 0.31303 -0.12119
 C342 C 0.40421 0.25983 -0.10718
 C343 C 0.35600 0.23306 -0.09383
 C344 C 0.32121 0.23428 -0.13018
 C345 C 0.38734 0.23729 -0.19292
 C346 C 0.42197 0.23575 -0.15638
 H347 H 0.33968 0.34937 -0.17332
 H348 H 0.40257 0.34684 -0.10528
 H349 H 0.34964 0.21491 -0.05861
 H350 H 0.28517 0.21703 -0.12598
 H351 H 0.39632 0.22490 -0.23048
 H352 H 0.45954 0.22113 -0.16274
 C353 C 0.31702 0.74904 0.17666
 C354 C 0.30192 0.72530 0.12643
 C355 C 0.33865 0.72506 0.09127
 C356 C 0.38696 0.74921 0.10858
 C357 C 0.37051 0.80179 0.12675
 C358 C 0.33375 0.80178 0.16184
 C359 C 0.36531 0.72118 0.19108
 C360 C 0.40168 0.72132 0.15569
 H361 H 0.26461 0.71358 0.11735
 H362 H 0.33271 0.71188 0.05354
 H363 H 0.38466 0.83623 0.11176
 H364 H 0.31637 0.83633 0.17540
 H365 H 0.37053 0.70293 0.22646
 H366 H 0.43784 0.70338 0.16089
 C367 C 0.68614 0.23717 0.16184
 C368 C 0.70031 0.26265 0.11274
 C369 C 0.66280 0.26456 0.07918
 C370 C 0.61458 0.24037 0.09696
 C371 C 0.63067 0.18700 0.11119
 C372 C 0.66824 0.18532 0.14474
 C373 C 0.63876 0.26506 0.18017
 C374 C 0.60144 0.26670 0.14638
 H375 H 0.73740 0.27502 0.10333
 H376 H 0.66786 0.27958 0.04230
 H377 H 0.61525 0.15333 0.09514
 H378 H 0.68497 0.15017 0.15629
 H379 H 0.63487 0.28197 0.21687
 H380 H 0.56568 0.28487 0.15425
 C381 C -0.17958 0.68133 0.75290
 C382 C -0.19286 0.63242 0.72593
 C383 C -0.15639 0.59654 0.72664
 C384 C -0.10941 0.61233 0.75416
 C385 C -0.09344 0.66087 0.72947
 C386 C -0.12970 0.69710 0.72913
 C387 C -0.16402 0.66526 0.80556
 C388 C -0.12783 0.62895 0.80613
 H389 H -0.22829 0.62643 0.70785
 H390 H -0.16072 0.56003 0.70935
 H391 H -0.05584 0.66733 0.71622
 H392 H -0.12167 0.73455 0.71687
 H393 H -0.17794 0.68279 0.83962
 H394 H -0.11222 0.61532 0.84052
 C395 C -0.16095 0.31253 0.24077
 C396 C -0.11277 0.30117 0.26980
 C397 C -0.08009 0.33941 0.27041
 C398 C -0.09780 0.38549 0.24169
 C399 C -0.10896 0.36523 0.18935
 C400 C -0.14158 0.32694 0.18891
 C401 C -0.18181 0.36158 0.26368
 C402 C -0.14892 0.39960 0.26416
 H403 H -0.10290 0.26520 0.28532
 H404 H -0.04368 0.33608 0.28743
 H405 H -0.09166 0.37857 0.15561
 H406 H -0.15129 0.30760 0.15479
 H407 H -0.21947 0.36600 0.27830
 H408 H -0.15853 0.43648 0.27901
 C409 C 0.18078 0.34116 0.74849
 C410 C 0.13152 0.32268 0.77049
 C411 C 0.09350 0.35695 0.76982
 C412 C 0.10778 0.40700 0.74723
 C413 C 0.15309 0.42412 0.77683
 C414 C 0.19136 0.39004 0.77737
 C415 C 0.16729 0.35939 0.69615
 C416 C 0.12900 0.39345 0.69544
 H417 H 0.12698 0.28553 0.78536
 H418 H 0.05652 0.34904 0.78393
 H419 H 0.15598 0.46110 0.79348
 H420 H 0.22690 0.39944 0.79341
 H421 H 0.18719 0.34778 0.66258
 H422 H 0.11620 0.41012 0.66123
 C423 C 0.17119 0.66684 0.25857
 C424 C 0.12534 0.68186 0.22800
 C425 C 0.08915 0.64700 0.22685
 C426 C 0.10182 0.59983 0.25623
 C427 C 0.15219 0.58103 0.23526
 C428 C 0.18854 0.61571 0.23682
 C429 C 0.15011 0.65359 0.31015
 C430 C 0.11369 0.61894 0.30885
 H431 H 0.12158 0.71726 0.20907
 H432 H 0.05450 0.65264 0.20704
 H433 H 0.15932 0.54294 0.22242
 H434 H 0.22670 0.60636 0.22620
 H435 H 0.16441 0.66762 0.34506
 H436 H 0.09668 0.60496 0.34247
 C437 C 0.73432 -0.17421 0.66951
 C438 C 0.68254 -0.15188 0.65676
 C439 C 0.68376 -0.11548 0.62193
 C440 C 0.73644 -0.10488 0.60230
 C441 C 0.76680 -0.09275 0.64872
 C442 C 0.76578 -0.12891 0.68365
 C443 C 0.75513 -0.19221 0.61866
 C444 C 0.75659 -0.15592 0.58386
 H445 H 0.64751 -0.16539 0.67113
 H446 H 0.65004 -0.09768 0.60819
 H447 H 0.78714 -0.05842 0.65385
 H448 H 0.78535 -0.12544 0.71857
 H449 H 0.76541 -0.23072 0.60975
 H450 H 0.76889 -0.16345 0.54597
 C451 C 0.24926 -0.17857 0.33647
 C452 C 0.30224 -0.16661 0.35425
 C453 C 0.30392 -0.12872 0.38838
 C454 C 0.25238 -0.10636 0.40244
 C455 C 0.22929 -0.09077 0.35302
 C456 C 0.22765 -0.12838 0.31870
 C457 C 0.22076 -0.18916 0.38518
 C458 C 0.22224 -0.15130 0.41931
 H459 H 0.33553 -0.18724 0.34231
 H460 H 0.33864 -0.11697 0.40477
 H461 H 0.21558 -0.05322 0.34557
 H462 H 0.21236 -0.12290 0.28197
 H463 H 0.20433 -0.22456 0.39439
 H464 H 0.20598 -0.15435 0.45616
 C465 C 0.76022 0.15893 0.31637
 C466 C 0.81178 0.14083 0.33447
 C467 C 0.80986 0.10794 0.37250
 C468 C 0.75653 0.09531 0.38883
 C469 C 0.73139 0.14599 0.40103
 C470 C 0.73328 0.17911 0.36326
 C471 C 0.73369 0.10986 0.30317
 C472 C 0.73154 0.07696 0.34115
 H473 H 0.84687 0.15130 0.31764
 H474 H 0.84329 0.09135 0.38817
 H475 H 0.71380 0.15515 0.43652
 H476 H 0.71717 0.21653 0.36648
 H477 H 0.72091 0.09980 0.26638
 H478 H 0.71596 0.04005 0.33676
 C479 C 0.25173 0.17866 0.67653
 C480 C 0.19872 0.16477 0.66022
 C481 C 0.19761 0.12892 0.62395
 C482 C 0.24954 0.10936 0.60750
 C483 C 0.27781 0.15604 0.59230
 C484 C 0.27896 0.19210 0.62826
 C485 C 0.27505 0.12805 0.69189
 C486 C 0.27417 0.09214 0.65570
 H487 H 0.16477 0.17963 0.67742
 H488 H 0.16285 0.11446 0.61003
 H489 H 0.29520 0.16050 0.55614
 H490 H 0.29750 0.22733 0.62280
 H491 H 0.28800 0.11965 0.72892
 H492 H 0.28747 0.05418 0.66175
   
