data_POSCAR
  _audit_creation_date              2014-09-24
  _audit_creation_method            'ToBaCCo'
  _symmetry_space_group_name_H-M    'P1'
  _symmetry_Int_Tables_number       1
  _symmetry_cell_setting            triclinic
  loop_
  _symmetry_equiv_pos_as_xyz
 x,y,z
_cell_length_a 44.1550
_cell_length_b 43.8352
_cell_length_c 39.7964
_cell_angle_alpha 89.547200
_cell_angle_beta 90.908100
_cell_angle_gamma 90.183200
loop_
  _atom_site_label
  _atom_site_type_symbol
  _atom_site_fract_x
  _atom_site_fract_y
  _atom_site_fract_z
C1 C 1.25971 0.22952 0.27628
 C2 C 1.23902 0.24496 0.25528
 C3 C 1.21576 0.22885 0.23910
 C4 C 1.21320 0.19719 0.24317
 C5 C 1.23378 0.18188 0.26461
 C6 C 1.25722 0.19770 0.28185
 C7 C 1.24105 0.27830 0.25088
 C8 C 1.26611 0.29150 0.23518
 C9 C 1.26807 0.32342 0.23017
 C10 C 1.24427 0.34161 0.24239
 C11 C 1.21927 0.32853 0.25858
 C12 C 1.21773 0.29678 0.26235
 H13 H 1.27650 0.24302 0.28959
 H14 H 1.19969 0.24108 0.22318
 H15 H 1.28419 0.27655 0.22765
 H16 H 1.19881 0.28632 0.27515
 H17 H 1.23229 0.15728 0.26616
 H18 H 1.24402 0.36597 0.23794
 C19 C 0.78271 -0.28125 0.26267
 C20 C 0.75838 -0.26495 0.24849
 C21 C 0.73541 -0.28046 0.23100
 C22 C 0.73674 -0.31220 0.22716
 C23 C 0.76101 -0.32841 0.24200
 C24 C 0.78426 -0.31336 0.26035
 C25 C 0.75699 -0.23152 0.25227
 C26 C 0.78000 -0.21294 0.23942
 C27 C 0.77904 -0.18109 0.24312
 C28 C 0.75485 -0.16812 0.26066
 C29 C 0.73178 -0.18660 0.27414
 C30 C 0.73289 -0.21829 0.26930
 H31 H 0.80055 -0.26836 0.27499
 H32 H 0.71696 -0.26760 0.21960
 H33 H 0.79822 -0.22337 0.22570
 H34 H 0.71513 -0.23284 0.27904
 H35 H 0.76046 -0.35302 0.24065
 H36 H 0.75443 -0.14371 0.26461
 C37 C 0.77798 0.22578 -0.23906
 C38 C 0.75624 0.24433 -0.25496
 C39 C 0.73284 0.23097 -0.27402
 C40 C 0.73121 0.19914 -0.27767
 C41 C 0.75299 0.18074 -0.26114
 C42 C 0.77630 0.19386 -0.24145
 C43 C 0.75780 0.27774 -0.25112
 C44 C 0.78277 0.29409 -0.26307
 C45 C 0.78466 0.32617 -0.25987
 C46 C 0.76086 0.34108 -0.24312
 C47 C 0.73591 0.32474 -0.23056
 C48 C 0.73440 0.29311 -0.23527
 H49 H 0.79604 0.23634 -0.22446
 H50 H 0.71641 0.24553 -0.28668
 H51 H 0.79968 0.28149 -0.27652
 H52 H 0.71512 0.28024 -0.22627
 H53 H 0.75123 0.15614 -0.26273
 H54 H 0.76223 0.36524 -0.23805
 C55 C 1.26190 -0.26812 -0.22550
 C56 C 1.23817 -0.25260 -0.24201
 C57 C 1.21400 -0.26899 -0.25609
 C58 C 1.21355 -0.30088 -0.25461
 C59 C 1.23714 -0.31627 -0.23765
 C60 C 1.26155 -0.30031 -0.22239
 C61 C 1.23863 -0.21910 -0.24545
 C62 C 1.26112 -0.20479 -0.26438
 C63 C 1.26027 -0.17316 -0.27035
 C64 C 1.23705 -0.15585 -0.25607
 C65 C 1.21454 -0.16990 -0.23664
 C66 C 1.21541 -0.20166 -0.23174
 H67 H 1.27965 -0.25461 -0.21385
 H68 H 1.19580 -0.25679 -0.26884
 H69 H 1.27889 -0.21848 -0.27508
 H70 H 1.19828 -0.21293 -0.21686
 H71 H 1.23717 -0.34092 -0.23843
 H72 H 1.23587 -0.13155 -0.26107
 C73 C 0.22678 0.25441 0.72797
 C74 C 0.24342 0.23380 0.74781
 C75 C 0.22843 0.21101 0.76602
 C76 C 0.19648 0.20868 0.76528
 C77 C 0.18021 0.22950 0.74445
 C78 C 0.19512 0.25225 0.72575
 C79 C 0.27670 0.23637 0.75011
 C80 C 0.29020 0.26224 0.76448
 C81 C 0.32204 0.26507 0.76731
 C82 C 0.33983 0.24124 0.75429
 C83 C 0.32649 0.21541 0.73930
 C84 C 0.29482 0.21302 0.73779
 H85 H 0.23868 0.27166 0.71361
 H86 H 0.24205 0.19651 0.78231
 H87 H 0.27546 0.28031 0.77263
 H88 H 0.28412 0.19346 0.72602
 H89 H 0.15585 0.22791 0.74199
 H90 H 0.36421 0.24165 0.75714
 C91 C 0.71851 0.76832 0.73311
 C92 C 0.73260 0.74221 0.74613
 C93 C 0.71520 0.71802 0.75834
 C94 C 0.68338 0.71970 0.75866
 C95 C 0.66954 0.74617 0.74510
 C96 C 0.68667 0.77053 0.73159
 C97 C 0.76581 0.73971 0.74625
 C98 C 0.78355 0.76004 0.76504
 C99 C 0.81518 0.75691 0.76666
 C100 C 0.82894 0.73344 0.74843
 C101 C 0.81127 0.71327 0.72889
 C102 C 0.77965 0.71637 0.72842
 H103 H 0.73277 0.78583 0.72232
 H104 H 0.72694 0.69770 0.76688
 H105 H 0.77250 0.77757 0.77943
 H106 H 0.76565 0.70055 0.71422
 H107 H 0.64539 0.74896 0.74751
 H108 H 0.85338 0.73137 0.74884
 C109 C 0.71358 0.27505 0.23536
 C110 C 0.72683 0.24819 0.24786
 C111 C 0.70845 0.22412 0.25871
 C112 C 0.67681 0.22665 0.25738
 C113 C 0.66371 0.25345 0.24428
 C114 C 0.68191 0.27773 0.23306
 C115 C 0.75994 0.24489 0.24948
 C116 C 0.77749 0.26395 0.27007
 C117 C 0.80896 0.25981 0.27301
 C118 C 0.82277 0.23684 0.25411
 C119 C 0.80532 0.21777 0.23305
 C120 C 0.77384 0.22185 0.23120
 H121 H 0.72797 0.29363 0.22709
 H122 H 0.71897 0.20376 0.26913
 H123 H 0.76649 0.28175 0.28410
 H124 H 0.76005 0.20754 0.21492
 H125 H 0.63929 0.25504 0.24201
 H126 H 0.84696 0.23320 0.25653
 C127 C 0.22497 0.76825 0.23187
 C128 C 0.24288 0.74859 0.25148
 C129 C 0.22933 0.72560 0.27064
 C130 C 0.19758 0.72200 0.27099
 C131 C 0.17991 0.74186 0.25043
 C132 C 0.19317 0.76500 0.23037
 C133 C 0.27615 0.75167 0.25143
 C134 C 0.29030 0.77780 0.26445
 C135 C 0.32203 0.78069 0.26431
 C136 C 0.33932 0.75728 0.25017
 C137 C 0.32534 0.73119 0.23657
 C138 C 0.29369 0.72846 0.23773
 H139 H 0.23628 0.78637 0.21831
 H140 H 0.24396 0.71171 0.28650
 H141 H 0.27653 0.79578 0.27475
 H142 H 0.28246 0.70872 0.22694
 H143 H 0.15591 0.73755 0.24782
 H144 H 0.36380 0.75898 0.25047
 O145 O 1.04096 0.01869 0.05255
 O146 O 0.93951 -0.02711 0.03010
 O147 O 0.97178 0.05498 0.03723
 O148 O 1.02648 -0.06851 0.01358
 O149 O 0.93468 0.02717 0.01658
 O150 O 1.03701 -0.03302 0.04594
 O151 O 0.98122 -0.04831 0.04471
 O152 O 1.02767 0.06005 0.02842
 C153 C 1.03962 0.04676 0.05289
 C154 C 0.95451 -0.04223 0.05124
 C155 C 0.94481 0.04620 0.03795
 C156 C 1.04060 -0.06022 0.03895
 O157 O 1.05097 -0.02751 -0.02204
 O158 O 0.95040 0.01376 -0.04817
 O159 O 1.01942 0.05486 -0.03540
 O160 O 0.97197 -0.07844 -0.00902
 O161 O 0.95269 -0.03931 -0.03549
 O162 O 1.05657 0.02757 -0.01365
 O163 O 1.00811 -0.04551 -0.04132
 O164 O 0.96291 0.05687 -0.02739
 Co165 Co 1.04257 -0.00344 0.01459
 Co166 Co 0.94883 -0.00583 -0.00799
 Co167 Co 0.99545 0.05132 0.00100
 Co168 Co 0.99374 -0.04500 0.00148
 O169 O 0.99642 0.00113 0.00324
 C170 C 1.03575 -0.04007 -0.04543
 C171 C 0.95090 0.04191 -0.05061
 C172 C 1.04651 0.04640 -0.03560
 C173 C 0.95152 -0.06786 -0.02963
 O174 O 1.05236 0.51583 0.55053
 O175 O 0.94976 0.47034 0.52870
 O176 O 0.98114 0.55115 0.53758
 O177 O 1.03643 0.42913 0.51033
 O178 O 0.94430 0.52434 0.51542
 O179 O 1.04802 0.46411 0.54298
 O180 O 0.99163 0.44898 0.54271
 O181 O 1.03668 0.55740 0.52841
 C182 C 1.04945 0.54376 0.55212
 C183 C 0.96503 0.45528 0.54967
 C184 C 0.95430 0.54219 0.53795
 C185 C 1.05111 0.43696 0.53548
 O186 O 1.06049 0.47074 0.47470
 O187 O 0.96074 0.51159 0.45070
 O188 O 1.02835 0.55398 0.46460
 O189 O 0.98166 0.41922 0.48888
 O190 O 0.96253 0.45856 0.46296
 O191 O 1.06611 0.52610 0.48430
 O192 O 1.01728 0.45272 0.45628
 O193 O 0.97191 0.55447 0.47275
 Co194 Co 1.05284 0.49428 0.51203
 Co195 Co 0.95878 0.49178 0.49066
 Co196 Co 1.00452 0.54893 0.50096
 Co197 Co 1.00351 0.45271 0.49933
 O198 O 1.00630 0.49881 0.50181
 C199 C 1.04481 0.45833 0.45155
 C200 C 0.96120 0.53976 0.44862
 C201 C 1.05559 0.54596 0.46370
 C202 C 0.96080 0.43011 0.46898
 O203 O 0.55798 0.02754 0.53482
 O204 O 0.43619 -0.02900 0.50870
 O205 O 0.47826 0.05818 0.52839
 O206 O 0.52355 -0.04568 0.54640
 O207 O 0.45737 0.01568 0.54149
 O208 O 0.56429 -0.02822 0.52521
 O209 O 0.47210 -0.04117 0.54024
 O210 O 0.53117 0.06446 0.51305
 C211 C 0.54975 0.05468 0.53514
 C212 C 0.44481 -0.04392 0.53344
 C213 C 0.46387 0.04237 0.54909
 C214 C 0.55129 -0.04245 0.54800
 O215 O 0.55884 -0.01996 0.46135
 O216 O 0.42548 0.02615 0.48899
 O217 O 0.51522 0.04746 0.44896
 O218 O 0.47580 -0.05277 0.47148
 O219 O 0.45743 -0.00909 0.45446
 O220 O 0.55887 0.03677 0.46956
 O221 O 0.53139 -0.05836 0.47999
 O222 O 0.46348 0.04579 0.46279
 Co223 Co 0.55474 0.00401 0.49793
 Co224 Co 0.45925 0.00429 0.49786
 Co225 Co 0.49767 0.04951 0.48944
 Co226 Co 0.50075 -0.04549 0.50848
 O227 O 0.50509 0.00162 0.49944
 C228 C 0.55093 -0.04746 0.45991
 C229 C 0.43563 0.04773 0.46981
 C230 C 0.54300 0.04664 0.44566
 C231 C 0.46216 -0.03689 0.44919
 O232 O 0.55083 0.52120 0.03648
 O233 O 0.44809 0.48541 0.03833
 O234 O 0.48643 0.55579 0.03977
 O235 O 0.51375 0.45106 0.03863
 O236 O 0.44337 0.53731 0.02494
 O237 O 0.55533 0.46993 0.02145
 O238 O 0.46268 0.44432 0.01701
 O239 O 0.53595 0.56294 0.01595
 C240 C 0.55003 0.54913 0.03865
 C241 C 0.44976 0.45749 0.04031
 C242 C 0.45933 0.55167 0.04594
 C243 C 0.54102 0.45590 0.04369
 O244 O 0.54804 0.48662 -0.04545
 O245 O 0.44563 0.52273 -0.04291
 O246 O 0.51105 0.55655 -0.04597
 O247 O 0.48304 0.45171 -0.04568
 O248 O 0.44125 0.47056 -0.02900
 O249 O 0.55366 0.53784 -0.03084
 O250 O 0.53422 0.44472 -0.02455
 O251 O 0.46184 0.56351 -0.02164
 Co252 Co 0.54705 0.50391 -0.00447
 Co253 Co 0.44958 0.50400 -0.00231
 Co254 Co 0.49884 0.55395 -0.00305
 Co255 Co 0.49848 0.45372 -0.00359
 O256 O 0.49848 0.50388 -0.00336
 C257 C 0.54738 0.45869 -0.04746
 C258 C 0.44739 0.55070 -0.04457
 C259 C 0.53783 0.55155 -0.05248
 C260 C 0.45556 0.45569 -0.05042
 C261 C 1.14593 0.14678 0.18736
 C262 C 1.15183 0.13946 0.22112
 C263 C 1.17354 0.15597 0.23945
 C264 C 1.18961 0.18000 0.22417
 C265 C 1.18332 0.18727 0.19028
 C266 C 1.16164 0.17076 0.17204
 C267 C 1.12458 0.12922 0.16784
 C268 C 1.10738 0.11471 0.15038
 C269 C 1.08783 0.09763 0.12820
 C270 C 1.08773 0.06573 0.12955
 C271 C 1.07114 0.04908 0.10572
 C272 C 1.05459 0.06421 0.08012
 C273 C 1.05403 0.09630 0.07966
 C274 C 1.07060 0.11288 0.10354
 H275 H 1.13981 0.12089 0.23318
 H276 H 1.17768 0.15007 0.26560
 H277 H 1.19562 0.20531 0.17766
 H278 H 1.15739 0.17647 0.14585
 H279 H 1.10110 0.05371 0.14846
 H280 H 1.07200 0.02440 0.10673
 H281 H 1.04144 0.10858 0.06033
 H282 H 1.07064 0.13758 0.10220
 C283 C 1.14671 0.64681 0.69142
 C284 C 1.15564 0.63784 0.72390
 C285 C 1.17688 0.65522 0.74189
 C286 C 1.18946 0.68172 0.72749
 C287 C 1.17984 0.69081 0.69508
 C288 C 1.15862 0.67345 0.67721
 C289 C 1.12670 0.62800 0.67166
 C290 C 1.11079 0.61261 0.65370
 C291 C 1.09287 0.59483 0.63062
 C292 C 1.09607 0.56309 0.62978
 C293 C 1.08117 0.54622 0.60482
 C294 C 1.06308 0.56101 0.58030
 C295 C 1.05926 0.59280 0.58203
 C296 C 1.07412 0.60958 0.60702
 H297 H 1.14658 0.61719 0.73507
 H298 H 1.18365 0.64785 0.76693
 H299 H 1.18945 0.71080 0.68311
 H300 H 1.15201 0.68044 0.65197
 H301 H 1.11071 0.55150 0.64784
 H302 H 1.08449 0.52176 0.60415
 H303 H 1.04536 0.60480 0.56361
 H304 H 1.07164 0.63416 0.60736
 C305 C 0.66118 0.15887 0.66036
 C306 C 0.65433 0.18328 0.68138
 C307 C 0.67705 0.19638 0.70161
 C308 C 0.70691 0.18517 0.70112
 C309 C 0.71350 0.16066 0.67988
 C310 C 0.69080 0.14764 0.65969
 C311 C 0.63792 0.14457 0.64006
 C312 C 0.61943 0.13114 0.62304
 C313 C 0.59891 0.11300 0.60291
 C314 C 0.58170 0.12596 0.57654
 C315 C 0.56438 0.10723 0.55513
 C316 C 0.56446 0.07538 0.55973
 C317 C 0.58090 0.06285 0.58708
 C318 C 0.59793 0.08150 0.60842
 H319 H 0.63145 0.19203 0.68230
 H320 H 0.67116 0.21499 0.71797
 H321 H 0.73630 0.15178 0.67856
 H322 H 0.69637 0.12873 0.64356
 H323 H 0.58235 0.15034 0.57198
 H324 H 0.55197 0.11749 0.53427
 H325 H 0.58125 0.03843 0.59150
 H326 H 0.61112 0.07120 0.62869
 C327 C 0.66795 0.64082 0.16966
 C328 C 0.65984 0.66418 0.19152
 C329 C 0.68214 0.67942 0.21038
 C330 C 0.71285 0.67145 0.20760
 C331 C 0.72071 0.64785 0.18564
 C332 C 0.69841 0.63268 0.16683
 C333 C 0.64525 0.62546 0.14961
 C334 C 0.62685 0.61238 0.13220
 C335 C 0.60569 0.59654 0.11060
 C336 C 0.58697 0.61295 0.08828
 C337 C 0.56816 0.59751 0.06544
 C338 C 0.56794 0.56544 0.06460
 C339 C 0.58619 0.54913 0.08776
 C340 C 0.60498 0.56462 0.11056
 H341 H 0.63632 0.67066 0.19393
 H342 H 0.67534 0.69723 0.22735
 H343 H 0.74417 0.64147 0.18258
 H344 H 0.70496 0.61473 0.14987
 H345 H 0.58738 0.63766 0.08805
 H346 H 0.55429 0.61065 0.04797
 H347 H 0.58648 0.52442 0.08774
 H348 H 0.61943 0.55169 0.12767
 C349 C 0.84740 -0.12684 0.19457
 C350 C 0.85548 -0.15367 0.21173
 C351 C 0.83344 -0.17087 0.22833
 C352 C 0.80293 -0.16155 0.22790
 C353 C 0.79520 -0.13413 0.21131
 C354 C 0.81727 -0.11696 0.19474
 C355 C 0.86941 -0.11048 0.17489
 C356 C 0.88687 -0.09691 0.15707
 C357 C 0.90619 -0.08074 0.13401
 C358 C 0.89486 -0.05516 0.11682
 C359 C 0.91147 -0.04165 0.09108
 C360 C 0.93975 -0.05352 0.08209
 C361 C 0.95179 -0.07824 0.10061
 C362 C 0.93499 -0.09188 0.12634
 H363 H 0.87869 -0.16160 0.21175
 H364 H 0.84023 -0.19163 0.24127
 H365 H 0.77191 -0.12649 0.21013
 H366 H 0.81067 -0.09636 0.18134
 H367 H 0.87262 -0.04634 0.12244
 H368 H 0.90166 -0.02254 0.07739
 H369 H 0.97344 -0.08794 0.09411
 H370 H 0.94395 -0.11176 0.13937
 C371 C 0.85701 0.37482 0.69428
 C372 C 0.82965 0.38947 0.70060
 C373 C 0.80615 0.37382 0.71650
 C374 C 0.80936 0.34285 0.72627
 C375 C 0.83768 0.32882 0.72061
 C376 C 0.86110 0.34461 0.70472
 C377 C 0.87982 0.39010 0.67474
 C378 C 0.89775 0.40294 0.65688
 C379 C 0.91733 0.41846 0.63363
 C380 C 0.90678 0.44470 0.61709
 C381 C 0.92329 0.45760 0.59094
 C382 C 0.95069 0.44445 0.58091
 C383 C 0.96209 0.41908 0.59881
 C384 C 0.94535 0.40602 0.62495
 H385 H 0.82608 0.41279 0.69227
 H386 H 0.78496 0.38579 0.71904
 H387 H 0.84233 0.30574 0.72890
 H388 H 0.88227 0.33305 0.70012
 H389 H 0.88515 0.45450 0.62350
 H390 H 0.91405 0.47727 0.57774
 H391 H 0.98305 0.40843 0.59148
 H392 H 0.95367 0.38560 0.63747
 C393 C 0.32429 -0.13033 0.66390
 C394 C 0.31200 -0.15886 0.65592
 C395 C 0.29138 -0.17286 0.67744
 C396 C 0.28276 -0.15850 0.70730
 C397 C 0.29533 -0.12984 0.71518
 C398 C 0.31598 -0.11587 0.69360
 C399 C 0.34518 -0.11583 0.64138
 C400 C 0.36257 -0.10377 0.62234
 C401 C 0.38328 -0.08936 0.59956
 C402 C 0.37234 -0.07506 0.57024
 C403 C 0.39241 -0.06060 0.54837
 C404 C 0.42367 -0.06028 0.55565
 C405 C 0.43450 -0.07497 0.58497
 C406 C 0.41440 -0.08941 0.60679
 H407 H 0.31818 -0.17019 0.63294
 H408 H 0.28174 -0.19468 0.67039
 H409 H 0.28934 -0.11836 0.73812
 H410 H 0.32541 -0.09379 0.70004
 H411 H 0.34829 -0.07492 0.56439
 H412 H 0.38345 -0.04946 0.52597
 H413 H 0.45847 -0.07505 0.59119
 H414 H 0.42311 -0.10043 0.62939
 C415 C 0.33979 0.36444 0.17557
 C416 C 0.33223 0.33387 0.17032
 C417 C 0.30912 0.32012 0.18874
 C418 C 0.29279 0.33681 0.21278
 C419 C 0.30141 0.36753 0.21823
 C420 C 0.32457 0.38111 0.19978
 C421 C 0.36188 0.37925 0.15479
 C422 C 0.37952 0.39220 0.13676
 C423 C 0.39943 0.40832 0.11448
 C424 C 0.41619 0.39241 0.09077
 C425 C 0.43339 0.40837 0.06717
 C426 C 0.43386 0.44045 0.06696
 C427 C 0.41767 0.45621 0.09152
 C428 C 0.40054 0.44021 0.11507
 H429 H 0.34368 0.32083 0.15133
 H430 H 0.30316 0.29690 0.18243
 H431 H 0.29095 0.38121 0.23730
 H432 H 0.33040 0.40479 0.20421
 H433 H 0.41541 0.36772 0.09003
 H434 H 0.44569 0.39566 0.04860
 H435 H 0.41765 0.48091 0.09203
 H436 H 0.38758 0.45276 0.13324
 C437 C 0.83997 0.13796 -0.18593
 C438 C 0.83131 0.12995 -0.21871
 C439 C 0.81057 0.14803 -0.23689
 C440 C 0.79830 0.17440 -0.22247
 C441 C 0.80711 0.18212 -0.18947
 C442 C 0.82777 0.16406 -0.17141
 C443 C 0.86114 0.11959 -0.16673
 C444 C 0.87860 0.10506 -0.14936
 C445 C 0.89900 0.08877 -0.12705
 C446 C 0.91806 0.10511 -0.10523
 C447 C 0.93580 0.08974 -0.08118
 C448 C 0.93470 0.05773 -0.07855
 C449 C 0.91629 0.04138 -0.10136
 C450 C 0.89847 0.05684 -0.12540
 H451 H 0.84060 0.10979 -0.23022
 H452 H 0.80443 0.14162 -0.26232
 H453 H 0.79771 0.20193 -0.17741
 H454 H 0.83416 0.17041 -0.14600
 H455 H 0.91861 0.12981 -0.10620
 H456 H 0.94978 0.10299 -0.06406
 H457 H 0.91490 0.01673 -0.09993
 H458 H 0.88373 0.04395 -0.14208
 C459 C 0.85317 0.63582 0.31140
 C460 C 0.83896 0.62387 0.28279
 C461 C 0.81665 0.64069 0.26558
 C462 C 0.80795 0.66995 0.27674
 C463 C 0.82314 0.68175 0.30545
 C464 C 0.84538 0.66484 0.32249
 C465 C 0.87470 0.61797 0.33058
 C466 C 0.89216 0.60358 0.34803
 C467 C 0.91219 0.58719 0.37055
 C468 C 0.93048 0.60337 0.39328
 C469 C 0.94738 0.58781 0.41788
 C470 C 0.94614 0.55579 0.42013
 C471 C 0.92864 0.53960 0.39635
 C472 C 0.91167 0.55526 0.37177
 H473 H 0.84497 0.60143 0.27386
 H474 H 0.80698 0.63079 0.24303
 H475 H 0.81695 0.70335 0.31626
 H476 H 0.85601 0.67418 0.34490
 H477 H 0.93097 0.62808 0.39264
 H478 H 0.96073 0.60089 0.43574
 H479 H 0.92721 0.51494 0.39747
 H480 H 0.89746 0.54252 0.35439
 C481 C 0.31754 0.15105 0.34886
 C482 C 0.32666 0.17811 0.33323
 C483 C 0.30693 0.19353 0.31120
 C484 C 0.27749 0.18210 0.30418
 C485 C 0.26878 0.15464 0.32038
 C486 C 0.28860 0.13938 0.34242
 C487 C 0.33798 0.13491 0.37114
 C488 C 0.35502 0.12099 0.38952
 C489 C 0.37535 0.10386 0.41098
 C490 C 0.36387 0.08476 0.43614
 C491 C 0.38354 0.06690 0.45585
 C492 C 0.41492 0.06790 0.45051
 C493 C 0.42631 0.08759 0.42562
 C494 C 0.40661 0.10542 0.40596
 H495 H 0.34920 0.18718 0.33780
 H496 H 0.31554 0.21371 0.29878
 H497 H 0.24624 0.14525 0.31736
 H498 H 0.28122 0.11851 0.35459
 H499 H 0.33970 0.08337 0.44020
 H500 H 0.37416 0.05201 0.47489
 H501 H 0.45038 0.08883 0.42096
 H502 H 0.41573 0.12010 0.38653
 C503 C 0.33105 0.65117 -0.16960
 C504 C 0.30209 0.63866 -0.17295
 C505 C 0.27930 0.65460 -0.19020
 C506 C 0.28491 0.68364 -0.20469
 C507 C 0.31443 0.69599 -0.20080
 C508 C 0.33720 0.67986 -0.18349
 C509 C 0.35403 0.63463 -0.15108
 C510 C 0.37241 0.62024 -0.13487
 C511 C 0.39333 0.60271 -0.11453
 C512 C 0.39214 0.57079 -0.11499
 C513 C 0.41046 0.55371 -0.09294
 C514 C 0.43009 0.56843 -0.07005
 C515 C 0.43182 0.60048 -0.07051
 C516 C 0.41350 0.61750 -0.09258
 H517 H 0.29695 0.61663 -0.16184
 H518 H 0.25698 0.64437 -0.19071
 H519 H 0.32062 0.71758 -0.21211
 H520 H 0.35964 0.68974 -0.18107
 H521 H 0.37652 0.55912 -0.13180
 H522 H 0.40867 0.52906 -0.09317
 H523 H 0.44680 0.61243 -0.05325
 H524 H 0.41454 0.64219 -0.09195
 C525 C 1.14492 -0.11834 -0.18872
 C526 C 1.17450 -0.10688 -0.19014
 C527 C 1.19699 -0.12330 -0.20638
 C528 C 1.19020 -0.15152 -0.22134
 C529 C 1.16021 -0.16252 -0.22047
 C530 C 1.13775 -0.14605 -0.20420
 C531 C 1.12268 -0.10275 -0.16919
 C532 C 1.10508 -0.08987 -0.15134
 C533 C 1.08567 -0.07469 -0.12809
 C534 C 1.09753 -0.05099 -0.10856
 C535 C 1.08058 -0.03877 -0.08265
 C536 C 1.05145 -0.05011 -0.07590
 C537 C 1.03900 -0.07287 -0.09669
 C538 C 1.05615 -0.08524 -0.12258
 H539 H 1.18036 -0.08559 -0.17797
 H540 H 1.21989 -0.11439 -0.20628
 H541 H 1.15417 -0.18395 -0.23219
 H542 H 1.11496 -0.15520 -0.20315
 H543 H 1.12035 -0.04270 -0.11254
 H544 H 1.09066 -0.02107 -0.06722
 H545 H 1.01666 -0.08207 -0.09196
 H546 H 1.04681 -0.10370 -0.13745
 C547 C 1.15027 0.38248 0.30411
 C548 C 1.18053 0.39204 0.30539
 C549 C 1.20284 0.37499 0.28969
 C550 C 1.19516 0.34806 0.27252
 C551 C 1.16452 0.33916 0.27045
 C552 C 1.14223 0.35624 0.28624
 C553 C 1.12824 0.39810 0.32380
 C554 C 1.11100 0.41087 0.34213
 C555 C 1.09225 0.42571 0.36621
 C556 C 1.10481 0.44879 0.38613
 C557 C 1.08869 0.46034 0.41303
 C558 C 1.05973 0.44893 0.42039
 C559 C 1.04655 0.42684 0.39925
 C560 C 1.06286 0.41514 0.37237
 H561 H 1.18704 0.41215 0.31947
 H562 H 1.22623 0.38224 0.29212
 H563 H 1.15786 0.31875 0.25703
 H564 H 1.11889 0.34856 0.28524
 H565 H 1.12758 0.45703 0.38168
 H566 H 1.09930 0.47755 0.42872
 H567 H 1.02430 0.41763 0.40442
 H568 H 1.05303 0.39711 0.35722
 C569 C 0.66039 -0.14717 0.33206
 C570 C 0.67026 -0.13257 0.30275
 C571 C 0.69334 -0.14540 0.28377
 C572 C 0.70690 -0.17306 0.29388
 C573 C 0.69666 -0.18765 0.32327
 C574 C 0.67361 -0.17478 0.34221
 C575 C 0.63791 -0.13294 0.35259
 C576 C 0.61994 -0.11993 0.36994
 C577 C 0.59987 -0.10259 0.39065
 C578 C 0.59951 -0.07085 0.38722
 C579 C 0.58262 -0.05319 0.40903
 C580 C 0.56571 -0.06697 0.43477
 C581 C 0.56514 -0.09900 0.43730
 C582 C 0.58229 -0.11673 0.41541
 H583 H 0.66031 -0.11111 0.29472
 H584 H 0.70046 -0.13378 0.26111
 H585 H 0.70692 -0.20872 0.33204
 H586 H 0.66641 -0.18614 0.36501
 H587 H 0.61298 -0.05964 0.36820
 H588 H 0.58341 -0.02861 0.40619
 H589 H 0.55239 -0.11022 0.45688
 H590 H 0.58245 -0.14131 0.41834
 C591 C 0.66618 0.36995 -0.17540
 C592 C 0.67803 0.38372 -0.20424
 C593 C 0.70071 0.36909 -0.22227
 C594 C 0.71179 0.34047 -0.21165
 C595 C 0.69969 0.32687 -0.18262
 C596 C 0.67707 0.34151 -0.16467
 C597 C 0.64342 0.38519 -0.15618
 C598 C 0.62479 0.39778 -0.13934
 C599 C 0.60324 0.41282 -0.11832
 C600 C 0.60066 0.44462 -0.11933
 C601 C 0.58164 0.45949 -0.09701
 C602 C 0.56500 0.44271 -0.07326
 C603 C 0.56698 0.41070 -0.07312
 C604 C 0.58604 0.39587 -0.09548
 H605 H 0.66982 0.40577 -0.21275
 H606 H 0.70935 0.38001 -0.24468
 H607 H 0.70805 0.30510 -0.17345
 H608 H 0.66824 0.33073 -0.14226
 H609 H 0.61388 0.45799 -0.13684
 H610 H 0.58056 0.48417 -0.09777
 H611 H 0.55444 0.39719 -0.05515
 H612 H 0.58789 0.37124 -0.09443
 C613 C 1.15176 0.14431 -0.17168
 C614 C 1.13687 0.17076 -0.18252
 C615 C 1.15130 0.19166 -0.20362
 C616 C 1.18126 0.18668 -0.21443
 C617 C 1.19575 0.15945 -0.20353
 C618 C 1.18114 0.13859 -0.18240
 C619 C 1.13671 0.12354 -0.14916
 C620 C 1.12276 0.10732 -0.13022
 C621 C 1.10418 0.08967 -0.10780
 C622 C 1.07274 0.09279 -0.11020
 C623 C 1.05416 0.07805 -0.08717
 C624 C 1.06668 0.05985 -0.06120
 C625 C 1.09830 0.05598 -0.05949
 C626 C 1.11698 0.07096 -0.08264
 H627 H 1.11414 0.17554 -0.17418
 H628 H 1.13919 0.21239 -0.20980
 H629 H 1.21810 0.15345 -0.21194
 H630 H 1.19281 0.11800 -0.17445
 H631 H 1.06257 0.10721 -0.12950
 H632 H 1.02991 0.08136 -0.08943
 H633 H 1.10859 0.04208 -0.03984
 H634 H 1.14133 0.06844 -0.08051
 C635 C 1.15667 0.65436 0.33324
 C636 C 1.14055 0.68043 0.32352
 C637 C 1.15383 0.70251 0.30289
 C638 C 1.18380 0.69911 0.29141
 C639 C 1.19965 0.67237 0.30142
 C640 C 1.18619 0.65033 0.32206
 C641 C 1.14259 0.63202 0.35477
 C642 C 1.12941 0.61430 0.37278
 C643 C 1.11161 0.59469 0.39405
 C644 C 1.08007 0.59597 0.39119
 C645 C 1.06207 0.57933 0.41324
 C646 C 1.07530 0.56102 0.43869
 C647 C 1.10707 0.55892 0.44077
 C648 C 1.12515 0.57583 0.41861
 H649 H 1.11770 0.68392 0.33223
 H650 H 1.14077 0.72282 0.29738
 H651 H 1.22212 0.66758 0.29252
 H652 H 1.19881 0.63006 0.32915
 H653 H 1.06931 0.61045 0.37233
 H654 H 1.03769 0.58131 0.41072
 H655 H 1.11789 0.54503 0.46007
 H656 H 1.14959 0.57470 0.42109
 C657 C 0.62454 0.15494 0.30199
 C658 C 0.64882 0.14772 0.28139
 C659 C 0.66525 0.17101 0.26582
 C660 C 0.65762 0.20178 0.27088
 C661 C 0.63254 0.20869 0.29073
 C662 C 0.61614 0.18539 0.30620
 C663 C 0.60992 0.13161 0.32138
 C664 C 0.59802 0.11316 0.33942
 C665 C 0.58414 0.09274 0.36297
 C666 C 0.60219 0.07702 0.38651
 C667 C 0.58875 0.06086 0.41275
 C668 C 0.55707 0.06043 0.41578
 C669 C 0.53907 0.07513 0.39110
 C670 C 0.55257 0.09130 0.36491
 H671 H 0.65555 0.12420 0.27811
 H672 H 0.68421 0.16501 0.25029
 H673 H 0.62637 0.23214 0.29544
 H674 H 0.59753 0.19119 0.32238
 H675 H 0.62667 0.07820 0.38533
 H676 H 0.60316 0.04963 0.43129
 H677 H 0.51461 0.07513 0.39274
 H678 H 0.53844 0.10361 0.34694
 C679 C 0.63010 0.65059 -0.19565
 C680 C 0.61764 0.66859 -0.22140
 C681 C 0.63527 0.69093 -0.23702
 C682 C 0.66581 0.69585 -0.22698
 C683 C 0.67808 0.67673 -0.20143
 C684 C 0.66037 0.65446 -0.18599
 C685 C 0.61153 0.62982 -0.17701
 C686 C 0.59685 0.61320 -0.15940
 C687 C 0.58060 0.59450 -0.13606
 C688 C 0.55002 0.60019 -0.12997
 C689 C 0.53556 0.58522 -0.10353
 C690 C 0.55174 0.56468 -0.08275
 C691 C 0.58207 0.55813 -0.09003
 C692 C 0.59641 0.57301 -0.11651
 H693 H 0.59417 0.66566 -0.22910
 H694 H 0.62488 0.70378 -0.25742
 H695 H 0.70082 0.67988 -0.19159
 H696 H 0.67008 0.64087 -0.16568
 H697 H 0.53769 0.61699 -0.14483
 H698 H 0.51214 0.59061 -0.09854
 H699 H 0.59500 0.54223 -0.07460
 H700 H 0.62015 0.56863 -0.12091
 C701 C 0.86433 -0.18381 -0.16648
 C702 C 0.84179 -0.17198 -0.18791
 C703 C 0.82644 -0.19109 -0.21039
 C704 C 0.83341 -0.22235 -0.21170
 C705 C 0.85667 -0.23390 -0.19070
 C706 C 0.87199 -0.21472 -0.16817
 C707 C 0.87889 -0.16432 -0.14217
 C708 C 0.89073 -0.14776 -0.12176
 C709 C 0.90476 -0.12778 -0.09756
 C710 C 0.92210 -0.13985 -0.07092
 C711 C 0.93666 -0.12036 -0.04815
 C712 C 0.93409 -0.08853 -0.05185
 C713 C 0.91604 -0.07662 -0.07823
 C714 C 0.90150 -0.09615 -0.10096
 H715 H 0.83577 -0.14806 -0.18691
 H716 H 0.80890 -0.18148 -0.22656
 H717 H 0.86230 -0.25792 -0.19091
 H718 H 0.88941 -0.22410 -0.15166
 H719 H 0.92469 -0.16430 -0.06801
 H720 H 0.95036 -0.13020 -0.02805
 H721 H 0.91364 -0.05221 -0.08170
 H722 H 0.88806 -0.08657 -0.12145
 C723 C 0.86085 0.31594 0.34093
 C724 C 0.83266 0.30440 0.35043
 C725 C 0.81591 0.28604 0.32839
 C726 C 0.82711 0.27899 0.29647
 C727 C 0.85559 0.29050 0.28722
 C728 C 0.87233 0.30890 0.30933
 C729 C 0.87774 0.33526 0.36355
 C730 C 0.89167 0.35159 0.38254
 C731 C 0.90822 0.37127 0.40508
 C732 C 0.92657 0.35882 0.43067
 C733 C 0.94327 0.37797 0.45199
 C734 C 0.94183 0.40983 0.44787
 C735 C 0.92293 0.42215 0.42246
 C736 C 0.90626 0.40296 0.40119
 H737 H 0.82361 0.30961 0.37486
 H738 H 0.79429 0.27712 0.33645
 H739 H 0.86467 0.28569 0.26272
 H740 H 0.89411 0.31779 0.30171
 H741 H 0.92818 0.33431 0.43395
 H742 H 0.95758 0.36785 0.47138
 H743 H 0.92137 0.44660 0.41871
 H744 H 0.89208 0.41284 0.38151
 C745 C 0.36869 -0.14448 0.31184
 C746 C 0.37856 -0.15538 0.28093
 C747 C 0.36293 -0.17916 0.26497
 C748 C 0.33727 -0.19245 0.27981
 C749 C 0.32710 -0.18077 0.31045
 C750 C 0.34274 -0.15700 0.32634
 C751 C 0.38637 -0.12224 0.33009
 C752 C 0.40137 -0.10482 0.34682
 C753 C 0.41932 -0.08571 0.36871
 C754 C 0.41065 -0.05562 0.37516
 C755 C 0.42584 -0.03877 0.40006
 C756 C 0.44963 -0.05206 0.41896
 C757 C 0.45909 -0.08173 0.41111
 C758 C 0.44403 -0.09840 0.38617
 H759 H 0.39868 -0.14596 0.26953
 H760 H 0.37109 -0.18735 0.24117
 H761 H 0.30770 -0.19074 0.32276
 H762 H 0.33505 -0.14895 0.35042
 H763 H 0.39145 -0.04561 0.36191
 H764 H 0.41798 -0.01603 0.40571
 H765 H 0.47742 -0.09251 0.42512
 H766 H 0.45091 -0.12166 0.38146
 C767 C 0.36411 0.34000 -0.18276
 C768 C 0.37960 0.32427 -0.20752
 C769 C 0.36567 0.30000 -0.22439
 C770 C 0.33578 0.29074 -0.21676
 C771 C 0.32029 0.30753 -0.19213
 C772 C 0.33437 0.33175 -0.17532
 C773 C 0.37931 0.36337 -0.16359
 C774 C 0.39236 0.38211 -0.14666
 C775 C 0.40832 0.40333 -0.12531
 C776 C 0.43998 0.40260 -0.12326
 C777 C 0.45548 0.42066 -0.09983
 C778 C 0.43947 0.43963 -0.07800
 C779 C 0.40772 0.44115 -0.08116
 C780 C 0.39226 0.42303 -0.10462
 H781 H 0.40263 0.33059 -0.21363
 H782 H 0.37837 0.28919 -0.24399
 H783 H 0.29784 0.30117 -0.18414
 H784 H 0.32226 0.34357 -0.15588
 H785 H 0.45263 0.38737 -0.13907
 H786 H 0.47993 0.41901 -0.09806
 H787 H 0.39478 0.45557 -0.06475
 H788 H 0.36774 0.42370 -0.10592
 C789 C 1.13953 -0.17817 0.16570
 C790 C 1.12685 -0.19134 0.19433
 C791 C 1.14435 -0.21004 0.21563
 C792 C 1.17517 -0.21595 0.20883
 C793 C 1.18745 -0.20235 0.17962
 C794 C 1.16983 -0.18375 0.15844
 C795 C 1.12170 -0.15861 0.14390
 C796 C 1.10717 -0.14193 0.12557
 C797 C 1.09023 -0.12159 0.10377
 C798 C 1.07592 -0.13257 0.07459
 C799 C 1.05978 -0.11262 0.05333
 C800 C 1.05779 -0.08145 0.06104
 C801 C 1.07226 -0.07064 0.09037
 C802 C 1.08836 -0.09058 0.11156
 H803 H 1.10344 -0.18694 0.20040
 H804 H 1.13376 -0.21870 0.23810
 H805 H 1.21038 -0.20686 0.17198
 H806 H 1.17986 -0.17386 0.13618
 H807 H 1.07726 -0.15651 0.06825
 H808 H 1.04885 -0.12156 0.03091
 H809 H 1.07113 -0.04674 0.09694
 H810 H 1.09939 -0.08180 0.13401
 C811 C 1.14554 0.31409 0.66085
 C812 C 1.16938 0.32487 0.68114
 C813 C 1.18536 0.30483 0.70237
 C814 C 1.17771 0.27365 0.70365
 C815 C 1.15360 0.26305 0.68327
 C816 C 1.13766 0.28314 0.66203
 C817 C 1.12928 0.33480 0.63880
 C818 C 1.11581 0.35234 0.62047
 C819 C 1.09981 0.37356 0.59880
 C820 C 1.09895 0.40454 0.60701
 C821 C 1.08327 0.42520 0.58624
 C822 C 1.06821 0.41512 0.55694
 C823 C 1.06930 0.38400 0.54875
 C824 C 1.08500 0.36335 0.56958
 H825 H 1.17564 0.34879 0.68054
 H826 H 1.20355 0.31377 0.71802
 H827 H 1.14742 0.23912 0.68332
 H828 H 1.11929 0.27450 0.64639
 H829 H 1.11033 0.41273 0.62952
 H830 H 1.08283 0.44904 0.59317
 H831 H 1.05791 0.37560 0.52635
 H832 H 1.08552 0.33944 0.56295
 C833 C 0.64418 -0.15416 0.68265
 C834 C 0.62914 -0.18210 0.68515
 C835 C 0.64286 -0.20666 0.70173
 C836 C 0.67218 -0.20388 0.71627
 C837 C 0.68678 -0.17513 0.71401
 C838 C 0.67288 -0.15058 0.69731
 C839 C 0.63042 -0.12996 0.66342
 C840 C 0.61787 -0.11110 0.64611
 C841 C 0.60168 -0.09051 0.62421
 C842 C 0.57007 -0.08957 0.62536
 C843 C 0.55370 -0.07301 0.60119
 C844 C 0.56881 -0.05725 0.57546
 C845 C 0.60066 -0.05729 0.57527
 C846 C 0.61701 -0.07398 0.59949
 H847 H 0.60700 -0.18517 0.67348
 H848 H 0.63085 -0.22820 0.70125
 H849 H 0.70864 -0.17103 0.72575
 H850 H 0.68465 -0.12891 0.69562
 H851 H 0.55802 -0.10249 0.64427
 H852 H 0.52920 -0.07330 0.60208
 H853 H 0.61289 -0.04532 0.55580
 H854 H 0.64149 -0.07480 0.59826
 C855 C 0.63765 0.35327 0.18419
 C856 C 0.62610 0.34136 0.21409
 C857 C 0.64107 0.31746 0.23074
 C858 C 0.66771 0.30512 0.21752
 C859 C 0.67966 0.31795 0.18805
 C860 C 0.66468 0.34185 0.17149
 C861 C 0.62055 0.37517 0.16482
 C862 C 0.60613 0.39233 0.14711
 C863 C 0.58907 0.41132 0.12422
 C864 C 0.55780 0.40695 0.12038
 C865 C 0.54181 0.42238 0.09491
 C866 C 0.55705 0.44218 0.07287
 C867 C 0.58824 0.44739 0.07783
 C868 C 0.60415 0.43197 0.10332
 H869 H 0.60512 0.34998 0.22404
 H870 H 0.63157 0.30829 0.25362
 H871 H 0.69989 0.30868 0.17702
 H872 H 0.67364 0.35073 0.14818
 H873 H 0.54597 0.39086 0.13631
 H874 H 0.51777 0.41802 0.09175
 H875 H 0.60052 0.46267 0.06139
 H876 H 0.62839 0.43536 0.10599
 C877 C 0.84549 0.14981 0.17078
 C878 C 0.81882 0.14316 0.18788
 C879 C 0.80601 0.16506 0.20866
 C880 C 0.81976 0.19389 0.21255
 C881 C 0.84679 0.20015 0.19561
 C882 C 0.85953 0.17825 0.17486
 C883 C 0.85881 0.12769 0.14903
 C884 C 0.87145 0.11026 0.13072
 C885 C 0.88885 0.09119 0.10909
 C886 C 0.87520 0.07483 0.08272
 C887 C 0.89321 0.05900 0.05997
 C888 C 0.92496 0.05981 0.06330
 C889 C 0.93821 0.07543 0.09059
 C890 C 0.92030 0.09095 0.11324
 H891 H 0.80788 0.12115 0.18507
 H892 H 0.78539 0.15943 0.22174
 H893 H 0.85769 0.22223 0.19777
 H894 H 0.88023 0.18360 0.16175
 H895 H 0.85082 0.07497 0.07925
 H896 H 0.88243 0.04711 0.03922
 H897 H 0.96258 0.07623 0.09409
 H898 H 0.93109 0.10353 0.13351
 C899 C 0.85179 0.64313 0.66989
 C900 C 0.82758 0.66014 0.65675
 C901 C 0.81451 0.68297 0.67596
 C902 C 0.82549 0.68911 0.70862
 C903 C 0.84982 0.67185 0.72166
 C904 C 0.86290 0.64899 0.70237
 C905 C 0.86651 0.62114 0.64917
 C906 C 0.87988 0.60384 0.63136
 C907 C 0.89762 0.58496 0.60991
 C908 C 0.88429 0.56918 0.58293
 C909 C 0.90255 0.55395 0.55998
 C910 C 0.93426 0.55479 0.56371
 C911 C 0.94722 0.56967 0.59168
 C912 C 0.92903 0.58461 0.61454
 H913 H 0.81910 0.65608 0.63148
 H914 H 0.79611 0.69618 0.66502
 H915 H 0.85855 0.67586 0.74683
 H916 H 0.88182 0.63609 0.71265
 H917 H 0.85995 0.56944 0.57908
 H918 H 0.89200 0.54262 0.53871
 H919 H 0.97156 0.57044 0.59546
 H920 H 0.93958 0.59677 0.63527
 C921 C 0.38047 0.14652 0.69273
 C922 C 0.38863 0.17731 0.69022
 C923 C 0.37142 0.19958 0.70590
 C924 C 0.34569 0.19139 0.72438
 C925 C 0.33797 0.16029 0.72733
 C926 C 0.35525 0.13801 0.71154
 C927 C 0.39692 0.12424 0.67396
 C928 C 0.41072 0.10689 0.65655
 C929 C 0.42707 0.08807 0.63362
 C930 C 0.41634 0.05899 0.62502
 C931 C 0.42963 0.04298 0.59875
 C932 C 0.45352 0.05613 0.58064
 C933 C 0.46515 0.08460 0.59068
 C934 C 0.45200 0.10042 0.61698
 H935 H 0.40794 0.18419 0.67545
 H936 H 0.37772 0.22331 0.70269
 H937 H 0.31852 0.15323 0.74170
 H938 H 0.34864 0.11425 0.71353
 H939 H 0.39694 0.04929 0.63760
 H940 H 0.42016 0.02114 0.59144
 H941 H 0.48363 0.09522 0.57729
 H942 H 0.46042 0.12293 0.62333
 C943 C 0.37579 0.66243 0.18544
 C944 C 0.35237 0.65391 0.20688
 C945 C 0.33638 0.67618 0.22419
 C946 C 0.34359 0.70730 0.22016
 C947 C 0.36761 0.71554 0.19909
 C948 C 0.38355 0.69325 0.18184
 C949 C 0.39081 0.63993 0.16559
 C950 C 0.40320 0.62186 0.14779
 C951 C 0.41781 0.60142 0.12510
 C952 C 0.40043 0.58147 0.10534
 C953 C 0.41415 0.56424 0.08042
 C954 C 0.44543 0.56691 0.07487
 C955 C 0.46291 0.58607 0.09578
 C956 C 0.44914 0.60328 0.12067
 H957 H 0.34615 0.63012 0.20981
 H958 H 0.31826 0.66910 0.24056
 H959 H 0.37344 0.73929 0.19508
 H960 H 0.40151 0.70011 0.16512
 H961 H 0.37614 0.57994 0.10848
 H962 H 0.40013 0.54959 0.06480
 H963 H 0.48706 0.58857 0.09217
 H964 H 0.46278 0.61874 0.13574
   
