data_POSCAR
  _audit_creation_date              2014-09-24
  _audit_creation_method            'ToBaCCo'
  _symmetry_space_group_name_H-M    'P1'
  _symmetry_Int_Tables_number       1
  _symmetry_cell_setting            triclinic
  loop_
  _symmetry_equiv_pos_as_xyz
 x,y,z
_cell_length_a 41.8971
_cell_length_b 41.9912
_cell_length_c 14.5787
_cell_angle_alpha 90.157800
_cell_angle_beta 89.889400
_cell_angle_gamma 119.692200
loop_
  _atom_site_label
  _atom_site_type_symbol
  _atom_site_fract_x
  _atom_site_fract_y
  _atom_site_fract_z
C1 C 0.18730 0.50507 0.58781
 C2 C 0.16869 0.49951 0.50432
 C3 C 0.18627 0.50583 0.41903
 C4 C 0.22412 0.51643 0.41680
 C5 C 0.24342 0.52078 0.50070
 C6 C 0.22519 0.51580 0.58641
 C7 C 0.24424 0.51782 0.66760
 C8 C 0.28003 0.52390 0.66538
 C9 C 0.29852 0.52827 0.58186
 C10 C 0.28015 0.52716 0.49862
 C11 C 0.24216 0.51898 0.33331
 C12 C 0.27794 0.52536 0.33146
 C13 C 0.29703 0.52868 0.41292
 C14 C 0.33173 0.53108 0.41064
 C15 C 0.34957 0.53265 0.49227
 C16 C 0.33333 0.53011 0.57803
 H17 H 0.23108 0.51277 0.73395
 H18 H 0.29244 0.52367 0.73010
 H19 H 0.22833 0.51420 0.26809
 H20 H 0.29013 0.52638 0.26519
 H21 H 0.13996 0.49229 0.50597
 H22 H 0.37569 0.53308 0.48867
 C23 C 0.50879 -0.31177 0.58741
 C24 C 0.50692 -0.32984 0.50577
 C25 C 0.50326 -0.31682 0.42034
 C26 C 0.50157 -0.28383 0.41703
 C27 C 0.50203 -0.26582 0.50062
 C28 C 0.50548 -0.28001 0.58601
 C29 C 0.50513 -0.26239 0.66759
 C30 C 0.50044 -0.23186 0.66608
 C31 C 0.49734 -0.21680 0.58268
 C32 C 0.49798 -0.23415 0.49910
 C33 C 0.49681 -0.26970 0.33396
 C34 C 0.49396 -0.23807 0.33237
 C35 C 0.49410 -0.22019 0.41399
 C36 C 0.48967 -0.18906 0.41268
 C37 C 0.48676 -0.17365 0.49503
 C38 C 0.49123 -0.18636 0.58035
 H39 H 0.50767 -0.27258 0.73372
 H40 H 0.49851 -0.22073 0.73146
 H41 H 0.49444 -0.28327 0.26923
 H42 H 0.49036 -0.22840 0.26651
 H43 H 0.50924 -0.35446 0.50908
 H44 H 0.48367 -0.14948 0.49209
 C45 C 1.18870 0.67737 0.58389
 C46 C 1.17271 0.66196 0.49913
 C47 C 1.18906 0.67833 0.41610
 C48 C 1.22283 0.71147 0.41619
 C49 C 1.23973 0.72798 0.50093
 C50 C 1.22291 0.71058 0.58526
 C51 C 1.23878 0.72869 0.66797
 C52 C 1.26970 0.76338 0.66850
 C53 C 1.28654 0.78150 0.58636
 C54 C 1.27166 0.76345 0.50131
 C55 C 1.23872 0.72965 0.33386
 C56 C 1.26973 0.76421 0.33406
 C57 C 1.28666 0.78190 0.41662
 C58 C 1.31562 0.81888 0.41750
 C59 C 1.32854 0.83638 0.50228
 C60 C 1.31531 0.81854 0.58642
 H61 H 1.22648 0.71705 0.73350
 H62 H 1.27896 0.77650 0.73451
 H63 H 1.22641 0.71792 0.26824
 H64 H 1.27898 0.77754 0.26840
 H65 H 1.14623 0.63694 0.49759
 H66 H 1.35125 0.86439 0.50287
 C67 C 0.81474 0.49732 0.41516
 C68 C 0.83260 0.50036 0.49799
 C69 C 0.81538 0.49617 0.58317
 C70 C 0.77844 0.48885 0.58536
 C71 C 0.76013 0.48670 0.50140
 C72 C 0.77828 0.49065 0.41606
 C73 C 0.76008 0.48928 0.33415
 C74 C 0.72470 0.48422 0.33546
 C75 C 0.70630 0.48054 0.41873
 C76 C 0.72409 0.48196 0.50266
 C77 C 0.76014 0.48617 0.66846
 C78 C 0.72471 0.48117 0.66952
 C79 C 0.70643 0.47997 0.58766
 C80 C 0.67043 0.47542 0.58800
 C81 C 0.65292 0.47234 0.50372
 C82 C 0.67079 0.47632 0.42015
 H83 H 0.77323 0.49265 0.26816
 H84 H 0.71192 0.48339 0.27036
 H85 H 0.77318 0.48852 0.73394
 H86 H 0.71178 0.47821 0.73563
 H87 H 0.86057 0.50519 0.49575
 H88 H 0.62610 0.47040 0.50274
 C89 C 0.51651 0.19222 0.58413
 C90 C 0.51949 0.17779 0.50030
 C91 C 0.51636 0.19235 0.41707
 C92 C 0.51211 0.22365 0.41680
 C93 C 0.51027 0.23949 0.50146
 C94 C 0.51235 0.22359 0.58550
 C95 C 0.50811 0.23808 0.66840
 C96 C 0.50165 0.26751 0.66920
 C97 C 0.49976 0.28412 0.58709
 C98 C 0.50358 0.26954 0.50207
 C99 C 0.50772 0.23826 0.33442
 C100 C 0.50101 0.26754 0.33484
 C101 C 0.49875 0.28355 0.41765
 C102 C 0.49001 0.31201 0.41859
 C103 C 0.48589 0.32564 0.50260
 C104 C 0.49090 0.31268 0.58700
 H105 H 0.50896 0.22624 0.73358
 H106 H 0.49678 0.27606 0.73520
 H107 H 0.50877 0.22669 0.26878
 H108 H 0.49662 0.27680 0.26940
 H109 H 0.52114 0.15278 0.49984
 H110 H 0.48010 0.34814 0.50190
 C111 C 0.68118 0.18426 0.41834
 C112 C 0.66596 0.16795 0.50239
 C113 C 0.68187 0.18460 0.58580
 C114 C 0.71347 0.21981 0.58605
 C115 C 0.72895 0.23734 0.50118
 C116 C 0.71280 0.21942 0.41689
 C117 C 0.72961 0.23634 0.33386
 C118 C 0.76188 0.27001 0.33309
 C119 C 0.77864 0.28795 0.41531
 C120 C 0.76190 0.27182 0.50048
 C121 C 0.73094 0.23713 0.66824
 C122 C 0.76322 0.27090 0.66765
 C123 C 0.77931 0.28882 0.58476
 C124 C 0.81392 0.32157 0.58275
 C125 C 0.82956 0.33684 0.49770
 C126 C 0.81277 0.32067 0.41483
 H127 H 0.71842 0.22334 0.26855
 H128 H 0.77404 0.28149 0.26723
 H129 H 0.72029 0.22429 0.73396
 H130 H 0.77597 0.28222 0.73305
 H131 H 0.64168 0.14093 0.50288
 H132 H 0.85608 0.36181 0.49570
 O133 O 0.94950 0.42044 0.16775
 O134 O 0.90864 0.42873 0.08069
 C135 C 0.91637 0.41233 0.14522
 O136 O 1.05299 0.58343 0.15950
 O137 O 1.09393 0.57284 0.07895
 C138 C 1.08616 0.59071 0.13951
 O139 O 0.95057 0.53146 0.16460
 O140 O 0.90921 0.48210 0.07967
 C141 C 0.91730 0.50680 0.14300
 O142 O 1.05147 0.46781 0.16283
 O143 O 1.09324 0.51772 0.08061
 C144 C 1.08486 0.49260 0.14271
 Zr145 Zr 1.00079 0.46026 0.11485
 O146 O 1.00343 0.45971 0.25976
 O147 O 0.99911 0.40925 0.10396
 Zr148 Zr 1.00158 0.54113 0.11234
 O149 O 1.00477 0.54520 0.25714
 O150 O 0.99825 0.58977 0.10444
 O151 O 0.96841 0.48479 0.13176
 O152 O 1.03289 0.51622 0.13135
 O153 O 1.05261 0.46676 -0.15861
 O154 O 1.09384 0.51742 -0.07750
 C155 C 1.08588 0.49178 -0.13799
 O156 O 0.95123 0.52964 -0.17165
 O157 O 0.90942 0.48138 -0.08509
 C158 C 0.91783 0.50534 -0.15011
 O159 O 1.05322 0.58198 -0.16377
 O160 O 1.09426 0.57294 -0.07984
 C161 C 1.08642 0.58997 -0.14254
 O162 O 0.95055 0.41994 -0.16876
 O163 O 0.90906 0.42836 -0.08440
 C164 C 0.91724 0.41203 -0.14857
 Zr165 Zr 1.00145 0.45933 -0.11374
 O166 O 1.00555 0.45826 -0.25829
 O167 O 0.99742 0.40711 -0.10524
 Zr168 Zr 1.00199 0.54008 -0.11678
 O169 O 1.00598 0.54316 -0.26160
 O170 O 0.99841 0.58865 -0.11276
 Zr171 Zr 0.94600 0.47314 -0.00164
 Zr172 Zr 1.05683 0.52731 -0.00025
 O173 O 1.03353 0.51516 -0.13242
 O174 O 0.96911 0.48369 -0.13440
 O175 O 1.03445 0.46995 0.00136
 O176 O 0.96934 0.53053 -0.00284
 O177 O 0.96844 0.43808 0.00023
 O178 O 1.03518 0.56321 -0.00209
 H179 H 1.04857 0.52404 0.18688
 H180 H 0.95269 0.54097 -0.00379
 H181 H 1.04959 0.52267 -0.18731
 H182 H 0.95147 0.41123 0.00025
 H183 H 1.02121 0.60893 0.07597
 H184 H 1.02101 0.60800 -0.08328
 H185 H 0.98759 0.51897 -0.28617
 H186 H 0.98869 0.46602 -0.28419
 H187 H 1.01839 0.40985 -0.06808
 H188 H 0.99866 0.40087 0.16766
 H189 H 0.98617 0.46737 0.28372
 H190 H 0.98634 0.52111 0.28199
 O191 O 0.41913 0.47759 0.16357
 O192 O 0.43250 0.52799 0.07602
 C193 C 0.41434 0.50478 0.14051
 O194 O 0.57969 0.52383 0.16634
 O195 O 0.56675 0.47228 0.08368
 C196 C 0.58517 0.49684 0.14577
 O197 O 0.53157 0.57857 0.17388
 O198 O 0.48682 0.57679 0.07968
 C199 C 0.50900 0.58969 0.14886
 O200 O 0.45996 0.41605 0.16172
 O201 O 0.50911 0.42053 0.08116
 C202 C 0.48320 0.40505 0.14191
 Zr203 Zr 0.45653 0.46173 0.11301
 O204 O 0.45506 0.45832 0.25797
 O205 O 0.40235 0.41673 0.10498
 Zr206 Zr 0.54100 0.53772 0.11558
 O207 O 0.54669 0.54110 0.25977
 O208 O 0.59153 0.58749 0.10491
 O209 O 0.48485 0.51832 0.13125
 O210 O 0.51201 0.48149 0.13335
 O211 O 0.46257 0.41614 -0.16061
 O212 O 0.51074 0.42058 -0.07617
 C213 C 0.48534 0.40496 -0.13820
 O214 O 0.53721 0.58115 -0.16773
 O215 O 0.48920 0.57760 -0.08380
 C216 C 0.51414 0.59224 -0.14687
 O217 O 0.58266 0.52363 -0.15888
 O218 O 0.56706 0.47152 -0.07568
 C219 C 0.58643 0.49568 -0.13733
 O220 O 0.42330 0.47823 -0.17567
 O221 O 0.43399 0.52807 -0.08880
 C222 C 0.41751 0.50503 -0.15527
 Zr223 Zr 0.45845 0.46171 -0.11599
 O224 O 0.45774 0.45623 -0.26032
 O225 O 0.40396 0.41715 -0.10974
 Zr226 Zr 0.54294 0.53753 -0.11331
 O227 O 0.54755 0.53737 -0.25791
 O228 O 0.59395 0.58682 -0.10422
 Zr229 Zr 0.47629 0.53141 -0.00288
 Zr230 Zr 0.52290 0.46772 0.00247
 O231 O 0.51406 0.48130 -0.13058
 O232 O 0.48713 0.51838 -0.13493
 O233 O 0.46502 0.43664 -0.00030
 O234 O 0.53409 0.56176 0.00017
 O235 O 0.43771 0.47506 -0.00339
 O236 O 0.56248 0.52406 0.00300
 H237 H 0.51828 0.47227 0.18903
 H238 H 0.54597 0.58887 0.00122
 H239 H 0.52091 0.47200 -0.18535
 H240 H 0.41127 0.46760 -0.00539
 H241 H 0.61067 0.58140 0.08686
 H242 H 0.61174 0.58100 -0.07498
 H243 H 0.52453 0.53458 -0.28399
 H244 H 0.47109 0.48128 -0.28586
 H245 H 0.40488 0.39592 -0.08342
 H246 H 0.40369 0.39602 0.07643
 H247 H 0.46187 0.48291 0.28224
 H248 H 0.52244 0.52335 0.28517
 O249 O 0.57986 0.04711 -0.16834
 O250 O 0.57421 0.08959 -0.08114
 C251 C 0.58962 0.08067 -0.14588
 O252 O 0.41522 -0.04840 -0.16038
 O253 O 0.42196 -0.09113 -0.07804
 C254 C 0.40550 -0.08201 -0.13938
 O255 O 0.47287 0.05322 -0.16817
 O256 O 0.52276 0.09265 -0.08200
 C257 C 0.49885 0.08584 -0.14652
 O258 O 0.52690 -0.05529 -0.16279
 O259 O 0.47493 -0.09407 -0.08154
 C260 C 0.49996 -0.08760 -0.14275
 Zr261 Zr 0.53792 -0.00315 -0.11497
 O262 O 0.53770 -0.00681 -0.25981
 O263 O 0.58888 -0.00225 -0.10887
 Zr264 Zr 0.45953 0.00161 -0.11398
 O265 O 0.45534 -0.00202 -0.25869
 O266 O 0.41291 0.00869 -0.10700
 O267 O 0.51631 0.03175 -0.13297
 O268 O 0.48158 -0.03230 -0.13189
 O269 O 0.52713 -0.05545 0.15904
 O270 O 0.47552 -0.09455 0.07722
 C271 C 0.50079 -0.08800 0.13767
 O272 O 0.47295 0.05339 0.16916
 O273 O 0.52273 0.09274 0.08267
 C274 C 0.49883 0.08599 0.14729
 O275 O 0.41565 -0.04817 0.16235
 O276 O 0.42255 -0.09109 0.08060
 C277 C 0.40608 -0.08184 0.14207
 O278 O 0.57974 0.04704 0.16872
 O279 O 0.57410 0.08958 0.08243
 C280 C 0.58941 0.08061 0.14708
 Zr281 Zr 0.53804 -0.00311 0.11430
 O282 O 0.53794 -0.00711 0.25898
 O283 O 0.58915 -0.00190 0.10802
 Zr284 Zr 0.45977 0.00171 0.11522
 O285 O 0.45619 -0.00170 0.26005
 O286 O 0.41302 0.00861 0.10983
 Zr287 Zr 0.52859 0.05438 0.00030
 Zr288 Zr 0.46891 -0.05574 0.00008
 O289 O 0.48183 -0.03229 0.13216
 O290 O 0.51652 0.03183 0.13342
 O291 O 0.52594 -0.03673 -0.00054
 O292 O 0.47157 0.03437 0.00072
 O293 O 0.56103 0.02891 -0.00023
 O294 O 0.43557 -0.03115 0.00067
 H295 H 0.47285 -0.04807 -0.18723
 H296 H 0.46266 0.05227 0.00082
 H297 H 0.47337 -0.04820 0.18712
 H298 H 0.58813 0.04462 -0.00013
 H299 H 0.39268 -0.01351 -0.07841
 H300 H 0.39284 -0.01354 0.08085
 H301 H 0.48084 0.01550 0.28460
 H302 H 0.53258 0.01162 0.28419
 H303 H 0.58498 -0.02482 0.07808
 H304 H 0.58443 -0.02553 -0.08085
 H305 H 0.53300 0.01242 -0.28427
 H306 H 0.48016 0.01425 -0.28370
 C307 C 1.17471 0.52760 0.27213
 C308 C 1.16453 0.50031 0.33985
 C309 C 1.12977 0.46866 0.33324
 C310 C 1.10525 0.46507 0.26438
 C311 C 1.11432 0.49334 0.20062
 C312 C 1.14985 0.52405 0.20297
 H313 H 1.20082 0.55280 0.27625
 H314 H 1.12117 0.44680 0.38306
 H315 H 1.07836 0.44074 0.26419
 H316 H 1.15772 0.54625 0.15475
 C317 C 0.52596 0.67660 0.26923
 C318 C 0.50106 0.66180 0.34308
 C319 C 0.47745 0.62355 0.34647
 C320 C 0.47961 0.60069 0.28074
 C321 C 0.50522 0.61533 0.20971
 C322 C 0.52806 0.65339 0.20291
 H323 H 0.54549 0.70569 0.26628
 H324 H 0.45788 0.61118 0.40201
 H325 H 0.46214 0.57129 0.28728
 H326 H 0.54832 0.66492 0.14865
 C327 C 0.34725 -0.17151 0.26821
 C328 C 0.33178 -0.15992 0.33770
 C329 C 0.33689 -0.12424 0.33260
 C330 C 0.35852 -0.10015 0.26418
 C331 C 0.37644 -0.11059 0.19918
 C332 C 0.36927 -0.14706 0.19935
 H333 H 0.34462 -0.19849 0.27083
 H334 H 0.32484 -0.11454 0.38367
 H335 H 0.36271 -0.07254 0.26554
 H336 H 0.38228 -0.15610 0.14956
 C337 C 0.82726 0.47282 0.27021
 C338 C 0.83634 0.50227 0.33039
 C339 C 0.86978 0.53485 0.31886
 C340 C 0.89505 0.53703 0.25339
 C341 C 0.88736 0.50669 0.19758
 C342 C 0.85244 0.47524 0.20326
 H343 H 0.80167 0.44733 0.27851
 H344 H 0.87728 0.55785 0.36466
 H345 H 0.92142 0.56195 0.24979
 H346 H 0.84545 0.45180 0.15988
 C347 C 0.45338 0.33181 0.32359
 C348 C 0.48531 0.32921 0.33442
 C349 C 0.51448 0.34771 0.27250
 C350 C 0.51240 0.36987 0.20387
 C351 C 0.48170 0.37494 0.19804
 C352 C 0.45163 0.35454 0.25643
 H353 H 0.43055 0.31779 0.37064
 H354 H 0.53957 0.34653 0.28024
 H355 H 0.53579 0.38481 0.15923
 H356 H 0.42741 0.35751 0.25333
 C357 C 0.64573 0.17114 0.27082
 C358 C 0.66429 0.16156 0.33542
 C359 C 0.66197 0.12713 0.32918
 C360 C 0.63929 0.10160 0.26410
 C361 C 0.61866 0.11008 0.20311
 C362 C 0.62355 0.14574 0.20406
 H363 H 0.64696 0.19748 0.27492
 H364 H 0.67612 0.11925 0.37844
 H365 H 0.63669 0.07462 0.26443
 H366 H 0.60872 0.15334 0.15654
 C367 C 0.47709 0.13613 -0.32738
 C368 C 0.51040 0.16908 -0.33431
 C369 C 0.53851 0.17687 -0.27103
 C370 C 0.53390 0.15084 -0.20452
 C371 C 0.50155 0.11649 -0.20242
 C372 C 0.47269 0.11009 -0.26229
 H373 H 0.45513 0.12979 -0.37581
 H374 H 0.56442 0.20224 -0.27571
 H375 H 0.55621 0.15685 -0.15795
 H376 H 0.44715 0.08423 -0.26174
 C377 C 0.66891 0.50807 -0.27324
 C378 C 0.65225 0.47731 -0.33206
 C379 C 0.61489 0.45154 -0.31871
 C380 C 0.59459 0.45671 -0.25036
 C381 C 0.61069 0.48819 -0.19533
 C382 C 0.64806 0.51377 -0.20644
 H383 H 0.69721 0.52916 -0.28370
 H384 H 0.60109 0.42777 -0.36305
 H385 H 0.56553 0.43734 -0.24467
 H386 H 0.66071 0.53864 -0.16572
 C387 C 0.82532 0.35350 -0.26839
 C388 C 0.83598 0.33781 -0.33920
 C389 C 0.87190 0.34337 -0.33885
 C390 C 0.89713 0.36540 -0.27296
 C391 C 0.88765 0.38349 -0.20621
 C392 C 0.85109 0.37638 -0.20256
 H393 H 0.79800 0.35025 -0.26782
 H394 H 0.88085 0.33138 -0.39191
 H395 H 0.92474 0.36958 -0.27750
 H396 H 0.84290 0.38983 -0.15184
 C397 C 0.52167 -0.15056 -0.28152
 C398 C 0.49111 -0.16678 -0.34085
 C399 C 0.46241 -0.15895 -0.32738
 C400 C 0.46427 -0.13545 -0.25720
 C401 C 0.49543 -0.11808 -0.20120
 C402 C 0.52407 -0.12589 -0.21326
 H403 H 0.54483 -0.15491 -0.29211
 H404 H 0.43869 -0.17067 -0.37229
 H405 H 0.44246 -0.12885 -0.25068
 H406 H 0.54873 -0.11196 -0.17202
 C407 C 0.36337 0.54509 -0.26995
 C408 C 0.34922 0.52193 -0.34694
 C409 C 0.35499 0.49180 -0.35450
 C410 C 0.37541 0.48558 -0.28947
 C411 C 0.39149 0.50970 -0.21518
 C412 C 0.38450 0.53907 -0.20461
 H413 H 0.35988 0.56888 -0.26310
 H414 H 0.34418 0.47327 -0.41257
 H415 H 0.37970 0.46244 -0.29992
 H416 H 0.39636 0.55804 -0.14787
 C417 C 1.13158 0.65739 -0.33450
 C418 C 1.16694 0.66157 -0.33738
 C419 C 1.17762 0.64585 -0.26706
 C420 C 1.15227 0.62416 -0.19911
 C421 C 1.11617 0.61844 -0.19992
 C422 C 1.10686 0.63674 -0.26616
 H423 H 1.12270 0.66950 -0.38711
 H424 H 1.20457 0.64821 -0.26832
 H425 H 1.16028 0.61037 -0.14926
 H426 H 1.07959 0.63354 -0.26870
 C427 C 0.82673 0.47292 -0.27258
 C428 C 0.83691 0.50091 -0.33821
 C429 C 0.87216 0.53188 -0.33280
 C430 C 0.89725 0.53409 -0.26751
 C431 C 0.88827 0.50505 -0.20639
 C432 C 0.85229 0.47497 -0.20720
 H433 H 0.80012 0.44827 -0.27623
 H434 H 0.88073 0.55409 -0.38162
 H435 H 0.92443 0.55803 -0.26800
 H436 H 0.84457 0.45217 -0.16092
 C437 C 0.51412 0.34440 -0.26500
 C438 C 0.48650 0.32903 -0.33266
 C439 C 0.45604 0.33439 -0.32513
 C440 C 0.45427 0.35635 -0.25615
 C441 C 0.48330 0.37437 -0.19352
 C442 C 0.51239 0.36673 -0.19563
 H443 H 0.53841 0.34160 -0.26982
 H444 H 0.43392 0.32237 -0.37479
 H445 H 0.43099 0.36091 -0.25558
 H446 H 0.53512 0.38012 -0.14812
 C447 C 0.64680 0.17162 -0.26618
 C448 C 0.66553 0.16217 -0.33088
 C449 C 0.66321 0.12772 -0.32534
 C450 C 0.64017 0.10197 -0.26131
 C451 C 0.61922 0.11028 -0.20063
 C452 C 0.62426 0.14601 -0.20042
 H453 H 0.64801 0.19796 -0.26979
 H454 H 0.67747 0.11994 -0.37479
 H455 H 0.63747 0.07496 -0.26237
 H456 H 0.60922 0.15348 -0.15299
 C457 C 1.17637 0.52658 -0.26434
 C458 C 1.16646 0.49894 -0.33116
 C459 C 1.13212 0.46686 -0.32343
 C460 C 1.10740 0.46337 -0.25506
 C461 C 1.11582 0.49224 -0.19344
 C462 C 1.15116 0.52331 -0.19623
 H463 H 1.20225 0.55199 -0.26936
 H464 H 1.12382 0.44482 -0.37286
 H465 H 1.08071 0.43878 -0.25428
 H466 H 1.15846 0.54610 -0.14993
 C467 C 0.54541 0.66891 -0.31855
 C468 C 0.51357 0.67164 -0.32831
 C469 C 0.48369 0.65176 -0.26950
 C470 C 0.48484 0.62765 -0.20542
 C471 C 0.51563 0.62265 -0.20079
 C472 C 0.54644 0.64456 -0.25546
 H473 H 0.56852 0.68377 -0.36436
 H474 H 0.45865 0.65304 -0.27746
 H475 H 0.46073 0.61119 -0.16399
 H476 H 0.57067 0.64159 -0.25274
 C477 C 0.34733 -0.17174 -0.26556
 C478 C 0.33102 -0.16052 -0.33327
 C479 C 0.33518 -0.12525 -0.32653
 C480 C 0.35679 -0.10106 -0.25815
 C481 C 0.37567 -0.11101 -0.19528
 C482 C 0.36944 -0.14717 -0.19701
 H483 H 0.34542 -0.19839 -0.26981
 H484 H 0.32253 -0.11591 -0.37653
 H485 H 0.36034 -0.07369 -0.25815
 H486 H 0.38362 -0.15568 -0.14957
 C487 C 0.46118 -0.17389 0.28120
 C488 C 0.49265 -0.16868 0.32782
 C489 C 0.52718 -0.13999 0.30196
 C490 C 0.53010 -0.11516 0.23462
 C491 C 0.49848 -0.11881 0.19154
 C492 C 0.46415 -0.14931 0.21250
 H493 H 0.43429 -0.19577 0.30120
 H494 H 0.55167 -0.13554 0.33795
 H495 H 0.55691 -0.09200 0.21964
 H496 H 0.43940 -0.15265 0.18065
 C497 C 0.37124 0.55208 0.26982
 C498 C 0.34686 0.52361 0.32711
 C499 C 0.34107 0.48809 0.31377
 C500 C 0.36138 0.48148 0.24841
 C501 C 0.38767 0.51030 0.19475
 C502 C 0.39119 0.54533 0.20287
 H503 H 0.37620 0.57971 0.28017
 H504 H 0.32244 0.46592 0.35806
 H505 H 0.35778 0.45416 0.24307
 H506 H 0.41125 0.56804 0.16232
 C507 C 1.13452 0.66331 0.32020
 C508 C 1.16702 0.66200 0.33224
 C509 C 1.17536 0.64116 0.27162
 C510 C 1.15027 0.62010 0.20306
 C511 C 1.11632 0.61917 0.19551
 C512 C 1.10943 0.64216 0.25251
 H513 H 1.12771 0.67926 0.36662
 H514 H 1.20028 0.63973 0.28045
 H515 H 1.15645 0.60284 0.15996
 H516 H 1.08373 0.64237 0.24810
 C517 C 0.53830 0.17713 0.27168
 C518 C 0.51016 0.16936 0.33500
 C519 C 0.47682 0.13646 0.32787
 C520 C 0.47246 0.11037 0.26266
 C521 C 0.50139 0.11671 0.20291
 C522 C 0.53371 0.15107 0.20498
 H523 H 0.56423 0.20249 0.27655
 H524 H 0.45485 0.13015 0.37636
 H525 H 0.44693 0.08451 0.26201
 H526 H 0.55604 0.15705 0.15834
 C527 C 0.65687 0.51692 0.32655
 C528 C 0.65387 0.48247 0.33824
 C529 C 0.63191 0.45381 0.27806
 C530 C 0.61158 0.45919 0.20966
 C531 C 0.61241 0.49301 0.20231
 C532 C 0.63637 0.52218 0.25932
 H533 H 0.67381 0.53930 0.37255
 H534 H 0.62938 0.42704 0.28644
 H535 H 0.59379 0.43642 0.16600
 H536 H 0.63804 0.54871 0.25493
 C537 C 0.86804 0.33767 0.32037
 C538 C 0.83461 0.33727 0.33087
 C539 C 0.82576 0.35774 0.27059
 C540 C 0.85128 0.38022 0.20432
 C541 C 0.88618 0.38317 0.19957
 C542 C 0.89358 0.36040 0.25562
 H543 H 0.87529 0.32205 0.36645
 H544 H 0.80010 0.35786 0.27815
 H545 H 0.84452 0.39675 0.16061
 H546 H 0.91991 0.36142 0.25265
   
