data_POSCAR
  _audit_creation_date              2014-09-24
  _audit_creation_method            'ToBaCCo'
  _symmetry_space_group_name_H-M    'P1'
  _symmetry_Int_Tables_number       1
  _symmetry_cell_setting            triclinic
  loop_
  _symmetry_equiv_pos_as_xyz
 x,y,z
_cell_length_a 44.7988
_cell_length_b 49.1294
_cell_length_c 47.4434
_cell_angle_alpha 89.954100
_cell_angle_beta 89.944000
_cell_angle_gamma 90.048500
loop_
  _atom_site_label
  _atom_site_type_symbol
  _atom_site_fract_x
  _atom_site_fract_y
  _atom_site_fract_z
C1 C 1.20833 0.25849 0.29482
 H2 H 1.20787 0.23647 0.29523
 C3 C 1.19053 0.27331 0.31352
 H4 H 1.17620 0.26273 0.32832
 C5 C 1.22786 0.29928 0.27536
 H6 H 1.24278 0.30937 0.26085
 C7 C 1.21046 0.31484 0.29367
 H8 H 1.21181 0.33685 0.29295
 N9 N 1.22623 0.27161 0.27600
 C10 C 1.24016 0.21394 0.20719
 H11 H 1.26428 0.21398 0.20603
 C12 C 1.22359 0.19794 0.18855
 H13 H 1.23495 0.18551 0.17304
 C14 C 1.19580 0.23014 0.22871
 H15 H 1.18501 0.24295 0.24412
 C16 C 1.17840 0.21445 0.21046
 H17 H 1.15428 0.21502 0.21211
 Zn18 Zn 1.25025 0.25030 0.25165
 N19 N 1.22613 0.22930 0.22705
 C20 C 1.27286 0.19986 0.27203
 N21 N 1.27400 0.22743 0.27469
 C22 C 1.29121 0.23946 0.29476
 C23 C 1.30876 0.22365 0.31277
 C24 C 1.29004 0.18327 0.28959
 C25 C 1.26061 0.28963 0.21015
 C26 C 1.27715 0.30740 0.19326
 C27 C 1.32227 0.29033 0.21481
 C28 C 1.30488 0.27286 0.23133
 N29 N 1.27459 0.27314 0.22904
 H30 H 1.25850 0.19063 0.25648
 H31 H 1.29128 0.26139 0.29674
 H32 H 1.32247 0.23351 0.32858
 H33 H 1.28897 0.16134 0.28720
 H34 H 1.23653 0.28916 0.20849
 H35 H 1.26581 0.32070 0.17852
 H36 H 1.34634 0.29019 0.21693
 H37 H 1.31565 0.25920 0.24596
 C38 C 1.19243 0.19810 0.19032
 C39 C 1.19158 0.30175 0.31285
 C40 C 1.30824 0.30788 0.19576
 C41 C 1.30822 0.19527 0.31013
 C42 C 0.70997 -0.24076 0.29394
 H43 H 0.71007 -0.26270 0.29594
 C44 C 0.69232 -0.22507 0.31196
 H45 H 0.67866 -0.23491 0.32784
 C46 C 0.72799 -0.20103 0.27112
 H47 H 0.74228 -0.19168 0.25553
 C48 C 0.71070 -0.18459 0.28872
 H49 H 0.71149 -0.16266 0.28641
 N50 N 0.72707 -0.22860 0.27381
 C51 C 0.74075 -0.29070 0.20939
 H52 H 0.76483 -0.29021 0.20773
 C53 C 0.72426 -0.30845 0.19250
 H54 H 0.73563 -0.32172 0.17777
 C55 C 0.69642 -0.27397 0.23055
 H56 H 0.68561 -0.26031 0.24516
 C57 C 0.67908 -0.29141 0.21404
 H58 H 0.65500 -0.29128 0.21615
 Zn59 Zn 0.75093 -0.25133 0.25077
 N60 N 0.72672 -0.27423 0.22826
 C61 C 0.77353 -0.30018 0.27458
 N62 N 0.77501 -0.27251 0.27512
 C63 C 0.79277 -0.25926 0.29392
 C64 C 0.81056 -0.27396 0.31271
 C65 C 0.79092 -0.31563 0.29299
 C66 C 0.76081 -0.21495 0.20627
 C67 C 0.77729 -0.19888 0.18758
 C68 C 0.82258 -0.21521 0.20943
 C69 C 0.80526 -0.23097 0.22774
 N70 N 0.77492 -0.23024 0.22613
 H71 H 0.75871 -0.31036 0.26008
 H72 H 0.79311 -0.23724 0.29425
 H73 H 0.82476 -0.26330 0.32751
 H74 H 0.78968 -0.33765 0.29236
 H75 H 0.73669 -0.21509 0.20517
 H76 H 0.76587 -0.18650 0.17207
 H77 H 0.84669 -0.21568 0.21103
 H78 H 0.81612 -0.24374 0.24315
 C79 C 0.69317 -0.30892 0.19500
 C80 C 0.69266 -0.19673 0.30926
 C81 C 0.80845 -0.19892 0.18929
 C82 C 0.80964 -0.30241 0.31215
 C83 C 0.70915 0.26344 -0.21019
 H84 H 0.70745 0.24159 -0.20783
 C85 C 0.69176 0.28056 -0.19335
 H86 H 0.67654 0.27191 -0.17801
 C87 C 0.73127 0.30152 -0.23280
 H88 H 0.74701 0.30968 -0.24784
 C89 C 0.71432 0.31935 -0.21639
 H90 H 0.71687 0.34113 -0.21908
 N91 N 0.72814 0.27411 -0.22971
 C92 C 0.73995 0.21097 -0.29347
 H93 H 0.76406 0.21001 -0.29416
 C94 C 0.72301 0.19473 -0.31156
 H95 H 0.73406 0.18109 -0.32613
 C96 C 0.69601 0.23018 -0.27392
 H97 H 0.68557 0.24432 -0.25957
 C98 C 0.67823 0.21429 -0.29166
 H99 H 0.65414 0.21602 -0.29067
 Zn100 Zn 0.75121 0.24980 -0.25183
 N101 N 0.72630 0.22802 -0.27491
 C102 C 0.77113 0.20011 -0.22747
 N103 N 0.77378 0.22772 -0.22691
 C104 C 0.79204 0.24029 -0.20803
 C105 C 0.80922 0.22494 -0.18928
 C106 C 0.78790 0.18402 -0.20909
 C107 C 0.76331 0.28484 -0.29666
 C108 C 0.78051 0.30031 -0.31529
 C109 C 0.82500 0.28345 -0.29231
 C110 C 0.80691 0.26829 -0.27411
 N111 N 0.77665 0.26961 -0.27630
 H112 H 0.75600 0.19049 -0.24209
 H113 H 0.79336 0.26228 -0.20771
 H114 H 0.82392 0.23509 -0.17452
 H115 H 0.78583 0.16206 -0.20983
 H116 H 0.73922 0.28517 -0.29818
 H117 H 0.76954 0.31268 -0.33113
 H118 H 0.84906 0.28253 -0.29012
 H119 H 0.81712 0.25558 -0.25824
 C120 C 0.69187 0.19636 -0.31058
 C121 C 0.69430 0.30877 -0.19659
 C122 C 0.81165 0.29977 -0.31298
 C123 C 0.80722 0.19653 -0.18993
 C124 C 1.20813 -0.24039 -0.20672
 H125 H 1.20669 -0.26238 -0.20661
 C126 C 1.19107 -0.22516 -0.18778
 H127 H 1.17633 -0.23539 -0.17307
 C128 C 1.22919 -0.20011 -0.22590
 H129 H 1.24434 -0.19041 -0.24050
 C130 C 1.21255 -0.18413 -0.20731
 H131 H 1.21472 -0.16217 -0.20788
 N132 N 1.22638 -0.22770 -0.22556
 C133 C 1.23619 -0.28407 -0.29579
 H134 H 1.26028 -0.28459 -0.29737
 C135 C 1.21882 -0.29913 -0.31454
 H136 H 1.22951 -0.31145 -0.33057
 C137 C 1.19276 -0.26739 -0.27295
 H138 H 1.18269 -0.25478 -0.25694
 C139 C 1.17455 -0.28217 -0.29130
 H140 H 1.15049 -0.28116 -0.28916
 Zn141 Zn 1.24865 -0.24963 -0.25076
 N142 N 1.22301 -0.26897 -0.27523
 C143 C 1.26827 -0.30160 -0.23226
 N144 N 1.27159 -0.27423 -0.22900
 C145 C 1.29069 -0.26379 -0.20950
 C146 C 1.30801 -0.28111 -0.19286
 C147 C 1.28515 -0.31962 -0.21605
 C148 C 1.25994 -0.21059 -0.29213
 C149 C 1.27688 -0.19444 -0.31034
 C150 C 1.32163 -0.21450 -0.29095
 C151 C 1.30385 -0.23029 -0.27308
 N152 N 1.27359 -0.22785 -0.27378
 H153 H 1.25244 -0.30956 -0.24729
 H154 H 1.29251 -0.24196 -0.20701
 H155 H 1.32332 -0.27266 -0.17751
 H156 H 1.28247 -0.34137 -0.21885
 H157 H 1.23583 -0.20943 -0.29259
 H158 H 1.26583 -0.18065 -0.32478
 H159 H 1.34571 -0.21646 -0.29024
 H160 H 1.31427 -0.24461 -0.25891
 C161 C 1.18774 -0.29831 -0.31214
 C162 C 1.19321 -0.19677 -0.18821
 C163 C 1.30799 -0.19639 -0.30970
 C164 C 1.30527 -0.30928 -0.19627
 C165 C 0.26013 0.21013 0.70822
 H166 H 0.23601 0.20901 0.70775
 C167 C 0.27701 0.19402 0.68997
 H168 H 0.26592 0.18031 0.67549
 C169 C 0.30411 0.22968 0.72733
 H170 H 0.31457 0.24392 0.74155
 C171 C 0.32184 0.21393 0.70942
 H172 H 0.34592 0.21584 0.71014
 N173 N 0.27383 0.22730 0.72662
 C174 C 0.20835 0.23961 0.79371
 H175 H 0.20697 0.26159 0.79388
 C176 C 0.19122 0.22431 0.81259
 H177 H 0.17651 0.23456 0.82730
 C178 C 0.22933 0.19940 0.77443
 H179 H 0.24446 0.18976 0.75981
 C180 C 0.21263 0.18334 0.79295
 H181 H 0.21480 0.16138 0.79226
 Zn182 Zn 0.24894 0.24902 0.74970
 N183 N 0.22659 0.22699 0.77485
 C184 C 0.19309 0.26693 0.72753
 N185 N 0.22334 0.26849 0.72526
 C186 C 0.23656 0.28366 0.70473
 C187 C 0.21923 0.29882 0.68603
 C188 C 0.17491 0.28180 0.70922
 C189 C 0.29106 0.26309 0.79100
 C190 C 0.30837 0.28039 0.80770
 C191 C 0.28547 0.31894 0.78461
 C192 C 0.26860 0.30094 0.76835
 N193 N 0.27194 0.27356 0.77154
 H194 H 0.18298 0.25426 0.74352
 H195 H 0.26065 0.28418 0.70315
 H196 H 0.22995 0.31118 0.67003
 H197 H 0.15086 0.28079 0.71136
 H198 H 0.29290 0.24126 0.79344
 H199 H 0.32368 0.27191 0.82302
 H200 H 0.28277 0.34069 0.78186
 H201 H 0.25276 0.30893 0.75335
 C202 C 0.19327 0.19590 0.81210
 C203 C 0.30814 0.19592 0.69062
 C204 C 0.30561 0.30857 0.80437
 C205 C 0.18815 0.29801 0.68842
 C206 C 0.76237 0.71580 0.70450
 H207 H 0.73828 0.71539 0.70298
 C208 C 0.77961 0.70045 0.68587
 H209 H 0.76881 0.68807 0.66998
 C210 C 0.80595 0.73241 0.72710
 H211 H 0.81614 0.74509 0.74298
 C212 C 0.82403 0.71735 0.70886
 H213 H 0.84809 0.71824 0.71095
 N214 N 0.77568 0.73101 0.72490
 C215 C 0.70810 0.73685 0.79091
 H216 H 0.70638 0.75870 0.79329
 C217 C 0.69068 0.71965 0.80770
 H218 H 0.67544 0.72830 0.82302
 C219 C 0.73032 0.69888 0.76832
 H220 H 0.74610 0.69080 0.75330
 C221 C 0.71336 0.68096 0.78466
 H222 H 0.71599 0.65920 0.78191
 Zn223 Zn 0.75022 0.75068 0.74936
 N224 N 0.72714 0.72627 0.77143
 C225 C 0.69505 0.77023 0.72720
 N226 N 0.72534 0.77246 0.72627
 C227 C 0.73903 0.78955 0.70774
 C228 C 0.72213 0.80576 0.68959
 C229 C 0.67731 0.78609 0.70939
 C230 C 0.79101 0.76014 0.79318
 C231 C 0.80826 0.77547 0.81189
 C232 C 0.78697 0.81641 0.79210
 C233 C 0.77015 0.80033 0.77375
 N234 N 0.77276 0.77273 0.77431
 H235 H 0.68458 0.75605 0.74152
 H236 H 0.76315 0.79057 0.70711
 H237 H 0.73322 0.81943 0.67502
 H238 H 0.65322 0.78430 0.71030
 H239 H 0.79231 0.73815 0.79349
 H240 H 0.82298 0.76530 0.82662
 H241 H 0.78494 0.83837 0.79134
 H242 H 0.75501 0.80998 0.75914
 C243 C 0.69326 0.69143 0.80445
 C244 C 0.81070 0.70110 0.68820
 C245 C 0.80632 0.80387 0.81122
 C246 C 0.69099 0.80404 0.69047
 C247 C 0.76078 0.21525 0.20561
 H248 H 0.73666 0.21537 0.20448
 C249 C 0.77727 0.19929 0.18688
 H250 H 0.76586 0.18695 0.17133
 C251 C 0.80521 0.23124 0.22715
 H252 H 0.81606 0.24396 0.24260
 C253 C 0.82254 0.21559 0.20882
 H254 H 0.84666 0.21607 0.21044
 N255 N 0.77488 0.23047 0.22552
 C256 C 0.70996 0.24072 0.29333
 H257 H 0.71015 0.26265 0.29539
 C258 C 0.69231 0.22498 0.31134
 H259 H 0.67872 0.23476 0.32728
 C260 C 0.72782 0.20105 0.27037
 H261 H 0.74204 0.19176 0.25473
 C262 C 0.71051 0.18456 0.28796
 H263 H 0.71122 0.16264 0.28560
 Zn264 Zn 0.75091 0.25143 0.25021
 N265 N 0.72699 0.22862 0.27314
 C266 C 0.69648 0.27419 0.23008
 N267 N 0.72678 0.27446 0.22779
 C268 C 0.74086 0.29104 0.20901
 C269 C 0.72442 0.30891 0.19222
 C270 C 0.67920 0.29175 0.21367
 C271 C 0.79268 0.25904 0.29343
 C272 C 0.81048 0.27359 0.31233
 C273 C 0.79105 0.31541 0.29276
 C274 C 0.77364 0.30011 0.27425
 N275 N 0.77502 0.27243 0.27467
 H276 H 0.68564 0.26044 0.24461
 H277 H 0.76494 0.29055 0.20736
 H278 H 0.73582 0.32227 0.17756
 H279 H 0.65511 0.29161 0.21576
 H280 H 0.79292 0.23702 0.29365
 H281 H 0.82462 0.26281 0.32710
 H282 H 0.78990 0.33744 0.29224
 H283 H 0.75889 0.31040 0.25978
 C284 C 0.69256 0.19665 0.30857
 C285 C 0.80843 0.19936 0.18863
 C286 C 0.80968 0.30204 0.31190
 C287 C 0.69333 0.30938 0.19473
 C288 C 0.26052 0.71064 0.20976
 H289 H 0.23644 0.71110 0.20811
 C290 C 0.27703 0.69293 0.19282
 H291 H 0.26566 0.67969 0.17806
 C292 C 0.30482 0.72733 0.23097
 H293 H 0.31561 0.74093 0.24564
 C294 C 0.32217 0.70993 0.21441
 H295 H 0.34625 0.71006 0.21653
 N296 N 0.27453 0.72706 0.22869
 C297 C 0.20832 0.74130 0.29461
 H298 H 0.20785 0.76331 0.29509
 C299 C 0.19056 0.72635 0.31328
 H300 H 0.17624 0.73683 0.32814
 C301 C 0.22786 0.70064 0.27499
 H302 H 0.24276 0.69065 0.26042
 C303 C 0.21050 0.68495 0.29328
 H304 H 0.21186 0.66295 0.29248
 Zn305 Zn 0.25021 0.74978 0.25140
 N306 N 0.22621 0.72830 0.27572
 C307 C 0.19571 0.77000 0.22860
 N308 N 0.22604 0.77087 0.22689
 C309 C 0.24004 0.78635 0.20707
 C310 C 0.22345 0.80244 0.18852
 C311 C 0.17829 0.78577 0.21045
 C312 C 0.29124 0.76055 0.29453
 C313 C 0.30875 0.77634 0.31259
 C314 C 0.28990 0.81676 0.28957
 C315 C 0.27277 0.80019 0.27195
 N316 N 0.27397 0.77261 0.27450
 H317 H 0.18494 0.75710 0.24398
 H318 H 0.26416 0.78634 0.20587
 H319 H 0.23480 0.81496 0.17305
 H320 H 0.15417 0.78518 0.21213
 H321 H 0.29136 0.73860 0.29643
 H322 H 0.32249 0.76645 0.32836
 H323 H 0.28878 0.83869 0.28726
 H324 H 0.25837 0.80944 0.25644
 C325 C 0.19163 0.69791 0.31252
 C326 C 0.30812 0.69245 0.19531
 C327 C 0.30812 0.80473 0.31006
 C328 C 0.19229 0.80225 0.19034
 N329 N 1.05310 0.02892 0.03129
 N330 N 1.07352 0.04758 0.03677
 N331 N 1.03220 -0.02830 0.05089
 N332 N 1.03785 -0.04693 0.07024
 N333 N 1.05304 -0.02832 0.03138
 N334 N 1.07344 -0.04695 0.03694
 N335 N 1.03226 0.02893 0.05079
 N336 N 1.03793 0.04759 0.07008
 C337 C 1.06348 0.05922 0.06079
 C338 C 1.06339 -0.05856 0.06100
 N339 N 0.94713 -0.02829 0.03103
 N340 N 0.92680 -0.04709 0.03633
 N341 N 0.96787 0.02893 0.05056
 N342 N 0.96223 0.04776 0.06967
 N343 N 0.94720 0.02893 0.03093
 N344 N 0.92693 0.04776 0.03615
 N345 N 0.96781 -0.02828 0.05065
 N346 N 0.96211 -0.04707 0.06983
 Mn347 Mn 1.00003 0.00032 0.05099
 C348 C 0.93672 -0.05878 0.06036
 C349 C 0.93687 0.05948 0.06015
 N350 N 1.05324 -0.02834 -0.02943
 N351 N 1.07351 -0.04718 -0.03465
 N352 N 1.03265 0.02887 -0.04916
 N353 N 1.03840 0.04761 -0.06838
 N354 N 1.05332 0.02888 -0.02953
 N355 N 1.07370 0.04763 -0.03487
 N356 N 1.03257 -0.02835 -0.04906
 N357 N 1.03821 -0.04719 -0.06816
 Mn358 Mn 1.05346 0.00029 0.00092
 C359 C 1.06357 -0.05891 -0.05864
 C360 C 1.06382 0.05929 -0.05893
 N361 N 0.94741 0.02890 -0.02989
 N362 N 0.92702 0.04755 -0.03543
 N363 N 0.96818 -0.02835 -0.04930
 N364 N 0.96251 -0.04703 -0.06856
 N365 N 0.94735 -0.02833 -0.02979
 N366 N 0.92694 -0.04701 -0.03525
 N367 N 0.96824 0.02889 -0.04939
 N368 N 0.96260 0.04752 -0.06874
 Mn369 Mn 0.94698 0.00030 0.00058
 Mn370 Mn 1.00042 0.00026 -0.04950
 Cl371 Cl 1.00022 0.00029 0.00075
 C372 C 0.93707 0.05916 -0.05949
 C373 C 0.93697 -0.05866 -0.05926
 N374 N 1.05268 0.52823 0.53198
 N375 N 1.07245 0.54760 0.53688
 N376 N 1.03186 0.47098 0.55150
 N377 N 1.03693 0.45173 0.57030
 N378 N 1.05269 0.47100 0.53200
 N379 N 1.07254 0.45174 0.53699
 N380 N 1.03186 0.52818 0.55148
 N381 N 1.03685 0.54750 0.57020
 C382 C 1.06203 0.55952 0.56060
 C383 C 1.06215 0.43980 0.56075
 N384 N 0.94685 0.47092 0.53191
 N385 N 0.92681 0.45180 0.53700
 N386 N 0.96760 0.52815 0.55145
 N387 N 0.96234 0.54728 0.57032
 N388 N 0.94687 0.52817 0.53189
 N389 N 0.92691 0.54733 0.53691
 N390 N 0.96758 0.47094 0.55146
 N391 N 0.96225 0.45184 0.57040
 Mn392 Mn 0.99973 0.49956 0.55176
 C393 C 0.93698 0.43997 0.56087
 C394 C 0.93712 0.55918 0.56075
 N395 N 1.05290 0.47104 0.47123
 N396 N 1.07299 0.45202 0.46612
 N397 N 1.03219 0.52827 0.45165
 N398 N 1.03765 0.54726 0.43263
 N399 N 1.05291 0.52827 0.47122
 N400 N 1.07306 0.54727 0.46605
 N401 N 1.03218 0.47105 0.45166
 N402 N 1.03759 0.45204 0.43269
 Mn403 Mn 1.05312 0.49963 0.50161
 C404 C 1.06288 0.44022 0.44222
 C405 C 1.06298 0.55907 0.44213
 N406 N 0.94705 0.52820 0.47113
 N407 N 0.92706 0.54731 0.46602
 N408 N 0.96787 0.47102 0.45162
 N409 N 0.96267 0.45188 0.43274
 N410 N 0.94705 0.47098 0.47114
 N411 N 0.92709 0.45182 0.46608
 N412 N 0.96787 0.52822 0.45161
 N413 N 0.96264 0.54734 0.43269
 Mn414 Mn 0.94663 0.49957 0.50151
 Mn415 Mn 1.00002 0.49964 0.45135
 Cl416 Cl 0.99987 0.49960 0.50155
 C417 C 0.93734 0.55918 0.44220
 C418 C 0.93740 0.43997 0.44228
 N419 N 0.55233 0.02866 0.52892
 N420 N 0.57281 0.04726 0.53443
 N421 N 0.53144 -0.02851 0.54859
 N422 N 0.53709 -0.04710 0.56797
 N423 N 0.55225 -0.02857 0.52906
 N424 N 0.57266 -0.04720 0.53464
 N425 N 0.53152 0.02869 0.54845
 N426 N 0.53725 0.04730 0.56776
 C427 C 0.56281 0.05889 0.55848
 C428 C 0.56260 -0.05875 0.55873
 N429 N 0.44635 -0.02854 0.52902
 N430 N 0.42603 -0.04731 0.53448
 N431 N 0.46719 0.02869 0.54841
 N432 N 0.46156 0.04738 0.56766
 N433 N 0.44640 0.02868 0.52890
 N434 N 0.42603 0.04737 0.53436
 N435 N 0.46713 -0.02849 0.54854
 N436 N 0.46154 -0.04722 0.56780
 Mn437 Mn 0.49931 0.00009 0.54875
 C438 C 0.43610 -0.05894 0.55850
 C439 C 0.43609 0.05903 0.55836
 N440 N 0.55227 -0.02866 0.46824
 N441 N 0.57263 -0.04737 0.46285
 N442 N 0.53157 0.02852 0.44855
 N443 N 0.53724 0.04722 0.42928
 N444 N 0.55233 0.02855 0.46810
 N445 N 0.57269 0.04728 0.46265
 N446 N 0.53151 -0.02868 0.44869
 N447 N 0.53717 -0.04740 0.42948
 Mn448 Mn 0.55259 -0.00000 0.49857
 C449 C 0.56262 -0.05905 0.43885
 C450 C 0.56269 0.05891 0.43862
 N451 N 0.44642 0.02859 0.46807
 N452 N 0.42603 0.04724 0.46255
 N453 N 0.46714 -0.02867 0.44865
 N454 N 0.46139 -0.04730 0.42936
 N455 N 0.44634 -0.02864 0.46819
 N456 N 0.42587 -0.04726 0.46272
 N457 N 0.46721 0.02854 0.44852
 N458 N 0.46154 0.04716 0.42917
 Mn459 Mn 0.44608 0.00002 0.49855
 Mn460 Mn 0.49936 -0.00007 0.44834
 Cl461 Cl 0.49933 0.00001 0.49855
 C462 C 0.43605 0.05882 0.43846
 C463 C 0.43585 -0.05890 0.43867
 N464 N 0.46756 0.54834 -0.03053
 N465 N 0.46141 0.56727 -0.04939
 N466 N 0.44723 0.52956 0.02891
 N467 N 0.42653 0.53535 0.04782
 N468 N 0.46805 0.54841 0.02867
 N469 N 0.46210 0.56750 0.04741
 N470 N 0.44674 0.52949 -0.03033
 N471 N 0.42584 0.53511 -0.04906
 C472 C 0.43562 0.55848 -0.06100
 C473 C 0.43644 0.55881 0.05942
 N474 N 0.46817 0.45195 0.02881
 N475 N 0.46230 0.43290 0.04764
 N476 N 0.44680 0.47070 -0.03024
 N477 N 0.42585 0.46491 -0.04888
 N478 N 0.46767 0.45193 -0.03039
 N479 N 0.46151 0.43289 -0.04913
 N480 N 0.44731 0.47074 0.02899
 N481 N 0.42666 0.46493 0.04797
 Mn482 Mn 0.44674 0.50012 -0.00066
 C483 C 0.43665 0.44153 0.05965
 C484 C 0.43567 0.44154 -0.06072
 N485 N 0.53238 0.54850 0.02810
 N486 N 0.53843 0.56742 0.04699
 N487 N 0.55276 0.52971 -0.03128
 N488 N 0.57355 0.53564 -0.05008
 N489 N 0.53190 0.54850 -0.03110
 N490 N 0.53791 0.56767 -0.04976
 N491 N 0.55324 0.52971 0.02795
 N492 N 0.57408 0.53538 0.04674
 Mn493 Mn 0.49997 0.54865 -0.00121
 C494 C 0.56421 0.55869 0.05866
 C495 C 0.56364 0.55910 -0.06169
 N496 N 0.53202 0.45202 -0.03097
 N497 N 0.53808 0.43285 -0.04959
 N498 N 0.55331 0.47095 0.02803
 N499 N 0.57415 0.46539 0.04684
 N500 N 0.53250 0.45210 0.02823
 N501 N 0.53859 0.43322 0.04717
 N502 N 0.55284 0.47088 -0.03120
 N503 N 0.57363 0.46501 -0.05000
 Mn504 Mn 0.50009 0.45178 -0.00108
 Mn505 Mn 0.55332 0.50031 -0.00163
 Cl506 Cl 0.50003 0.50022 -0.00115
 C507 C 0.56377 0.44151 -0.06155
 C508 C 0.56434 0.44205 0.05882
 C509 C 1.14289 0.14933 0.13875
 N510 N 1.15590 0.13598 0.11695
 N511 N 1.13996 0.11908 0.10095
 C512 C 1.11053 0.11503 0.10624
 N513 N 1.09751 0.12841 0.12802
 N514 N 1.11345 0.14532 0.14402
 C515 C 1.16028 0.16683 0.15658
 C516 C 1.17493 0.18123 0.17182
 C517 C 1.09368 0.09595 0.08975
 C518 C 1.07974 0.07946 0.07630
 C519 C 1.13758 0.65360 0.63646
 N520 N 1.10957 0.64607 0.64402
 N521 N 1.09418 0.62859 0.62823
 C522 C 1.10634 0.61812 0.60441
 N523 N 1.13433 0.62570 0.59680
 N524 N 1.14972 0.64318 0.61259
 C525 C 1.15476 0.67119 0.65424
 C526 C 1.16959 0.68540 0.66946
 C527 C 1.09046 0.59813 0.58834
 C528 C 1.07736 0.58078 0.57536
 C529 C 0.64194 0.14809 0.63773
 N530 N 0.65470 0.13600 0.61503
 N531 N 0.63884 0.11931 0.59872
 C532 C 0.60973 0.11424 0.60459
 N533 N 0.59695 0.12637 0.62727
 N534 N 0.61281 0.14305 0.64358
 C535 C 0.65928 0.16538 0.65578
 C536 C 0.67403 0.17963 0.67108
 C537 C 0.59301 0.09535 0.58776
 C538 C 0.57913 0.07900 0.57409
 C539 C 0.64422 0.63888 0.14676
 N540 N 0.61407 0.64107 0.14557
 N541 N 0.59823 0.62445 0.12918
 C542 C 0.61206 0.60509 0.11354
 N543 N 0.64220 0.60288 0.11477
 N544 N 0.65804 0.61950 0.13116
 C545 C 0.66133 0.65719 0.16387
 C546 C 0.67580 0.67265 0.17809
 C547 C 0.59514 0.58805 0.09492
 C548 C 0.58099 0.57429 0.07871
 C549 C 0.85770 -0.14983 0.13771
 N550 N 0.88726 -0.14616 0.14258
 N551 N 0.90311 -0.12908 0.12664
 C552 C 0.88989 -0.11519 0.10533
 N553 N 0.86034 -0.11890 0.10043
 N554 N 0.84449 -0.13597 0.11637
 C555 C 0.84042 -0.16746 0.15551
 C556 C 0.82586 -0.18196 0.17076
 C557 C 0.90665 -0.09590 0.08898
 C558 C 0.92051 -0.07923 0.07567
 C559 C 0.86010 0.34692 0.63746
 N560 N 0.84785 0.35786 0.61391
 N561 N 0.86340 0.37523 0.59806
 C562 C 0.89168 0.38217 0.60528
 N563 N 0.90396 0.37119 0.62880
 N564 N 0.88841 0.35382 0.64465
 C565 C 0.84285 0.32924 0.65522
 C566 C 0.82803 0.31488 0.67040
 C567 C 0.90787 0.40193 0.58904
 C568 C 0.92126 0.41902 0.57589
 C569 C 0.35774 -0.14849 0.63806
 N570 N 0.34487 -0.13657 0.61532
 N571 N 0.36061 -0.11989 0.59886
 C572 C 0.38970 -0.11466 0.60463
 N573 N 0.40258 -0.12662 0.62733
 N574 N 0.38684 -0.14330 0.64379
 C575 C 0.34050 -0.16568 0.65631
 C576 C 0.32580 -0.17982 0.67178
 C577 C 0.40623 -0.09568 0.58773
 C578 C 0.41995 -0.07921 0.57406
 C579 C 0.35715 0.36039 0.14761
 N580 N 0.38722 0.35778 0.14566
 N581 N 0.40298 0.37457 0.12932
 C582 C 0.38916 0.39452 0.11448
 N583 N 0.35909 0.39715 0.11646
 N584 N 0.34333 0.38036 0.13280
 C585 C 0.34009 0.34193 0.16468
 C586 C 0.32564 0.32638 0.17888
 C587 C 0.40596 0.41178 0.09590
 C588 C 0.42001 0.42573 0.07971
 C589 C 0.85741 0.14887 -0.13779
 N590 N 0.84474 0.13622 -0.11534
 N591 N 0.86078 0.11946 -0.09926
 C592 C 0.88997 0.11483 -0.10513
 N593 N 0.90266 0.12751 -0.12756
 N594 N 0.88663 0.14427 -0.14364
 C595 C 0.83985 0.16609 -0.15576
 C596 C 0.82501 0.18016 -0.17117
 C597 C 0.90687 0.09582 -0.08858
 C598 C 0.92081 0.07937 -0.07507
 C599 C 0.85994 0.65102 0.36499
 N600 N 0.84734 0.63934 0.38802
 N601 N 0.86305 0.62234 0.40410
 C602 C 0.89183 0.61652 0.39763
 N603 N 0.90446 0.62825 0.37464
 N604 N 0.88875 0.64525 0.35856
 C605 C 0.84254 0.66809 0.34683
 C606 C 0.82767 0.68185 0.33119
 C607 C 0.90817 0.59700 0.41395
 C608 C 0.92163 0.58003 0.42714
 C609 C 0.35669 0.14842 0.35989
 N610 N 0.34425 0.13660 0.38293
 N611 N 0.36022 0.11984 0.39906
 C612 C 0.38912 0.11440 0.39266
 N613 N 0.40157 0.12625 0.36964
 N614 N 0.38561 0.14302 0.35351
 C615 C 0.33921 0.16576 0.34200
 C616 C 0.32439 0.18003 0.32678
 C617 C 0.40591 0.09543 0.40931
 C618 C 0.41980 0.07900 0.42288
 C619 C 0.35485 0.63878 -0.14833
 N620 N 0.34137 0.61843 -0.13376
 N621 N 0.35739 0.60180 -0.11754
 C622 C 0.38738 0.60497 -0.11547
 N623 N 0.40087 0.62530 -0.13008
 N624 N 0.38485 0.64193 -0.14629
 C625 C 0.33752 0.65705 -0.16528
 C626 C 0.32287 0.67244 -0.17941
 C627 C 0.40444 0.58788 -0.09701
 C628 C 0.41871 0.57409 -0.08092
 C629 C 1.14309 -0.14934 -0.13590
 N630 N 1.11370 -0.14532 -0.14130
 N631 N 1.09767 -0.12848 -0.12532
 C632 C 1.11054 -0.11515 -0.10345
 N633 N 1.13992 -0.11921 -0.09802
 N634 N 1.15596 -0.13605 -0.11400
 C635 C 1.16064 -0.16652 -0.15387
 C636 C 1.17547 -0.18052 -0.16934
 C637 C 1.09367 -0.09598 -0.08714
 C638 C 1.07976 -0.07935 -0.07388
 C639 C 1.14100 0.34861 0.36527
 N640 N 1.11222 0.35434 0.35872
 N641 N 1.09639 0.37134 0.37469
 C642 C 1.10886 0.38312 0.39769
 N643 N 1.13762 0.37734 0.40427
 N644 N 1.15345 0.36034 0.38830
 C645 C 1.15852 0.33146 0.34724
 C646 C 1.17347 0.31761 0.33174
 C647 C 1.09236 0.40258 0.41396
 C648 C 1.07875 0.41948 0.42714
 C649 C 0.64226 -0.14865 0.36067
 N650 N 0.65460 -0.13685 0.38373
 N651 N 0.63854 -0.12012 0.39981
 C652 C 0.60966 -0.11472 0.39336
 N653 N 0.59731 -0.12657 0.37033
 N654 N 0.61337 -0.14329 0.35424
 C655 C 0.65984 -0.16591 0.34281
 C656 C 0.67474 -0.18009 0.32760
 C657 C 0.59280 -0.09575 0.40992
 C658 C 0.57888 -0.07929 0.42339
 C659 C 0.64451 0.36040 -0.14834
 N660 N 0.65764 0.38187 -0.13534
 N661 N 0.64160 0.39855 -0.11918
 C662 C 0.61192 0.39431 -0.11560
 N663 N 0.59878 0.37286 -0.12863
 N664 N 0.61482 0.35618 -0.14478
 C665 C 0.66190 0.34217 -0.16535
 C666 C 0.67661 0.32688 -0.17956
 C667 C 0.59487 0.41160 -0.09727
 C668 C 0.58063 0.42560 -0.08132
 C669 C 1.14388 0.14928 -0.13664
 N670 N 1.15666 0.13603 -0.11466
 N671 N 1.14054 0.11925 -0.09863
 C672 C 1.11115 0.11522 -0.10408
 N673 N 1.09836 0.12851 -0.12603
 N674 N 1.11448 0.14530 -0.14206
 C675 C 1.16152 0.16645 -0.15462
 C676 C 1.17641 0.18046 -0.17009
 C677 C 1.09416 0.09615 -0.08767
 C678 C 1.08015 0.07962 -0.07430
 C679 C 1.14119 0.65075 0.36495
 N680 N 1.11233 0.64514 0.35856
 N681 N 1.09651 0.62809 0.37456
 C682 C 1.10907 0.61615 0.39743
 N683 N 1.13791 0.62181 0.40386
 N684 N 1.15372 0.63885 0.38786
 C685 C 1.15866 0.66798 0.34691
 C686 C 1.17357 0.68192 0.33141
 C687 C 1.09255 0.59668 0.41376
 C688 C 1.07891 0.57980 0.42699
 C689 C 0.64224 0.14851 0.36011
 N690 N 0.65461 0.13675 0.38318
 N691 N 0.63857 0.12002 0.39934
 C692 C 0.60968 0.11459 0.39293
 N693 N 0.59730 0.12638 0.36989
 N694 N 0.61333 0.14311 0.35373
 C695 C 0.65979 0.16577 0.34218
 C696 C 0.67467 0.17997 0.32693
 C697 C 0.59285 0.09561 0.40957
 C698 C 0.57894 0.07915 0.42310
 C699 C 0.64436 0.64056 -0.14836
 N700 N 0.61472 0.64485 -0.14463
 N701 N 0.59866 0.62809 -0.12851
 C702 C 0.61175 0.60649 -0.11570
 N703 N 0.64139 0.60218 -0.11946
 N704 N 0.65744 0.61894 -0.13557
 C705 C 0.66177 0.65887 -0.16531
 C706 C 0.67650 0.67422 -0.17948
 C707 C 0.59471 0.58913 -0.09741
 C708 C 0.58047 0.57506 -0.08146
 C709 C 0.85688 -0.14850 -0.13696
 N710 N 0.88599 -0.14369 -0.14314
 N711 N 0.90213 -0.12691 -0.12719
 C712 C 0.88968 -0.11444 -0.10455
 N713 N 0.86059 -0.11929 -0.09835
 N714 N 0.84445 -0.13607 -0.11430
 C715 C 0.83918 -0.16572 -0.15480
 C716 C 0.82423 -0.17978 -0.17011
 C717 C 0.90668 -0.09540 -0.08814
 C718 C 0.92068 -0.07892 -0.07473
 C719 C 0.86004 0.34822 0.36501
 N720 N 0.88888 0.35397 0.35865
 N721 N 0.90460 0.37091 0.37478
 C722 C 0.89194 0.38261 0.39774
 N723 N 0.86312 0.37681 0.40414
 N724 N 0.84740 0.35986 0.38801
 C725 C 0.84262 0.33127 0.34675
 C726 C 0.82773 0.31762 0.33104
 C727 C 0.90827 0.40211 0.41407
 C728 C 0.92172 0.41909 0.42725
 C729 C 0.35643 -0.14843 0.36002
 N730 N 0.38563 -0.14368 0.35425
 N731 N 0.40156 -0.12692 0.37042
 C732 C 0.38878 -0.11443 0.39288
 N733 N 0.35959 -0.11922 0.39868
 N734 N 0.34366 -0.13598 0.38251
 C735 C 0.33901 -0.16577 0.34207
 C736 C 0.32425 -0.18004 0.32678
 C737 C 0.40559 -0.09547 0.40955
 C738 C 0.41951 -0.07906 0.42312
 C739 C 0.35504 0.36060 -0.14762
 N740 N 0.38506 0.35763 -0.14563
 N741 N 0.40103 0.37437 -0.12947
 C742 C 0.38746 0.39461 -0.11486
 N743 N 0.35745 0.39759 -0.11688
 N744 N 0.34148 0.38086 -0.13304
 C745 C 0.33777 0.34226 -0.16457
 C746 C 0.32317 0.32685 -0.17872
 C747 C 0.40448 0.41184 -0.09651
 C748 C 0.41874 0.42577 -0.08052
 C749 C 1.14272 -0.14875 0.13900
 N750 N 1.15560 -0.13569 0.11691
 N751 N 1.13967 -0.11875 0.10094
 C752 C 1.11037 -0.11437 0.10655
 N753 N 1.09749 -0.12746 0.12862
 N754 N 1.11341 -0.14440 0.14459
 C755 C 1.16011 -0.16632 0.15676
 C756 C 1.17477 -0.18078 0.17194
 C757 C 1.09354 -0.09528 0.09005
 C758 C 1.07963 -0.07879 0.07656
 C759 C 1.13804 0.34619 0.63700
 N760 N 1.10995 0.35353 0.64447
 N761 N 1.09453 0.37095 0.62862
 C762 C 1.10673 0.38154 0.60485
 N763 N 1.13479 0.37415 0.59735
 N764 N 1.15021 0.35673 0.61319
 C765 C 1.15522 0.32859 0.65481
 C766 C 1.17003 0.31436 0.67003
 C767 C 1.09077 0.40143 0.58869
 C768 C 1.07759 0.41867 0.57563
 C769 C 0.64126 -0.14785 0.63847
 N770 N 0.65409 -0.13590 0.61570
 N771 N 0.63832 -0.11925 0.59927
 C772 C 0.60923 -0.11408 0.60511
 N773 N 0.59639 -0.12606 0.62786
 N774 N 0.61216 -0.14271 0.64428
 C775 C 0.65852 -0.16509 0.65665
 C776 C 0.67321 -0.17929 0.67204
 C777 C 0.59262 -0.09521 0.58817
 C778 C 0.57883 -0.07886 0.57442
 C779 C 0.64446 0.36185 0.14677
 N780 N 0.65833 0.38092 0.13074
 N781 N 0.64249 0.39760 0.11441
 C782 C 0.61230 0.39574 0.11367
 N783 N 0.59842 0.37669 0.12974
 N784 N 0.61426 0.36002 0.14607
 C785 C 0.66156 0.34346 0.16378
 C786 C 0.67600 0.32791 0.17792
 C787 C 0.59535 0.41278 0.09508
 C788 C 0.58116 0.42652 0.07888
 C789 C 0.85779 0.15049 0.13711
 N790 N 0.84466 0.13670 0.11569
 N791 N 0.86055 0.11965 0.09982
 C792 C 0.89006 0.11590 0.10487
 N793 N 0.90320 0.12973 0.12626
 N794 N 0.88731 0.14677 0.14214
 C795 C 0.84045 0.16805 0.15487
 C796 C 0.82585 0.18248 0.17010
 C797 C 0.90684 0.09663 0.08861
 C798 C 0.92071 0.07995 0.07537
 C799 C 0.86069 0.65252 0.63699
 N800 N 0.88896 0.64558 0.64419
 N801 N 0.90444 0.62816 0.62839
 C802 C 0.89211 0.61717 0.60491
 N803 N 0.86385 0.62415 0.59768
 N804 N 0.84838 0.64156 0.61348
 C805 C 0.84350 0.67021 0.65472
 C806 C 0.82874 0.68456 0.66988
 C807 C 0.90820 0.59735 0.58875
 C808 C 0.92151 0.58019 0.57567
 C809 C 0.35771 0.14816 0.63820
 N810 N 0.38698 0.14340 0.64355
 N811 N 0.40268 0.12679 0.62703
 C812 C 0.38960 0.11447 0.60463
 N813 N 0.36035 0.11927 0.59926
 N814 N 0.34465 0.13588 0.61578
 C815 C 0.34054 0.16529 0.65652
 C816 C 0.32589 0.17938 0.67205
 C817 C 0.40613 0.09559 0.58767
 C818 C 0.41988 0.07920 0.57395
 C819 C 0.35692 0.63999 0.14712
 N820 N 0.34301 0.62031 0.13198
 N821 N 0.35874 0.60352 0.11567
 C822 C 0.38887 0.60586 0.11405
 N823 N 0.40278 0.62553 0.12921
 N824 N 0.38705 0.64232 0.14553
 C825 C 0.33990 0.65845 0.16419
 C826 C 0.32548 0.67398 0.17840
 C827 C 0.40567 0.58858 0.09552
 C828 C 0.41974 0.57462 0.07939
   
