data_POSCAR
  _audit_creation_date              2014-09-24
  _audit_creation_method            'ToBaCCo'
  _symmetry_space_group_name_H-M    'P1'
  _symmetry_Int_Tables_number       1
  _symmetry_cell_setting            triclinic
  loop_
  _symmetry_equiv_pos_as_xyz
 x,y,z
_cell_length_a 52.2271
_cell_length_b 52.4449
_cell_length_c 52.4571
_cell_angle_alpha 90.041200
_cell_angle_beta 90.045500
_cell_angle_gamma 89.884600
loop_
  _atom_site_label
  _atom_site_type_symbol
  _atom_site_fract_x
  _atom_site_fract_y
  _atom_site_fract_z
C1 C 0.33951 0.33601 1.37077
 C2 C 0.31767 0.34592 1.38280
 C3 C 0.30567 0.36785 1.37323
 C4 C 0.31549 0.38007 1.35159
 C5 C 0.33731 0.37041 1.33933
 C6 C 0.34940 0.34827 1.34892
 C7 C 0.35154 0.31395 1.38007
 C8 C 0.37323 0.30408 1.36778
 C9 C 0.38309 0.31624 1.34613
 C10 C 0.37130 0.33832 1.33658
 C11 C 0.38088 0.35053 1.31481
 C12 C 0.36883 0.37244 1.30531
 C13 C 0.34716 0.38237 1.31753
 H14 H 0.30994 0.33651 1.39953
 H15 H 0.30608 0.39702 1.34423
 H16 H 0.34396 0.30441 1.39679
 H17 H 0.39985 0.30847 1.33666
 H18 H 0.39762 0.34296 1.30517
 H19 H 0.33794 0.39932 1.30999
 C20 C 1.16078 0.66451 0.87066
 C21 C 1.18258 0.65461 0.88281
 C22 C 1.19482 0.63287 0.87307
 C23 C 1.18527 0.62082 0.85119
 C24 C 1.16350 0.63047 0.83882
 C25 C 1.15117 0.65243 0.84856
 C26 C 1.14856 0.68641 0.88009
 C27 C 1.12695 0.69631 0.86766
 C28 C 1.11735 0.68432 0.84577
 C29 C 1.12935 0.66240 0.83609
 C30 C 1.12007 0.65041 0.81404
 C31 C 1.13235 0.62869 0.80439
 C32 C 1.15395 0.61872 0.81674
 H33 H 1.19011 0.66389 0.89971
 H34 H 1.19487 0.60404 0.84370
 H35 H 1.15593 0.69582 0.89700
 H36 H 1.10066 0.69212 0.83619
 H37 H 1.10341 0.65802 0.80428
 H38 H 1.16336 0.60194 0.80907
 C39 C 0.66009 -0.16484 0.12949
 C40 C 0.68193 -0.15513 0.11737
 C41 C 0.69418 -0.13343 0.12702
 C42 C 0.68465 -0.12121 0.14880
 C43 C 0.66284 -0.13065 0.16116
 C44 C 0.65047 -0.15257 0.15150
 C45 C 0.64781 -0.18669 0.12013
 C46 C 0.62614 -0.19637 0.13253
 C47 C 0.61654 -0.18420 0.15433
 C48 C 0.62859 -0.16232 0.16394
 C49 C 0.61929 -0.15013 0.18588
 C50 C 0.63162 -0.12843 0.19545
 C51 C 0.65328 -0.11869 0.18313
 H52 H 0.68950 -0.16449 0.10054
 H53 H 0.69432 -0.10446 0.15616
 H54 H 0.65519 -0.19623 0.10330
 H55 H 0.59979 -0.19182 0.16388
 H56 H 0.60257 -0.15755 0.19561
 H57 H 0.66271 -0.10192 0.19073
 C58 C -0.16086 1.16368 -0.37118
 C59 C -0.18273 1.15389 -0.38324
 C60 C -0.19477 1.13205 -0.37366
 C61 C -0.18499 1.11979 -0.35198
 C62 C -0.16315 1.12933 -0.33969
 C63 C -0.15101 1.15138 -0.34929
 C64 C -0.14878 1.18565 -0.38047
 C65 C -0.12708 1.19538 -0.36815
 C66 C -0.11725 1.18320 -0.34649
 C67 C -0.12909 1.16121 -0.33693
 C68 C -0.11954 1.14898 -0.31512
 C69 C -0.13165 1.12716 -0.30560
 C70 C -0.15334 1.11735 -0.31785
 H71 H -0.19043 1.16333 -0.39999
 H72 H -0.19444 1.10292 -0.34462
 H73 H -0.15627 1.19526 -0.39720
 H74 H -0.10048 1.19093 -0.33705
 H75 H -0.10279 1.15646 -0.30546
 H76 H -0.16261 1.10048 -0.31029
 C77 C 0.66175 0.66518 0.63071
 C78 C 0.68369 0.65516 0.61895
 C79 C 0.69550 0.63324 0.62872
 C80 C 0.68543 0.62110 0.65026
 C81 C 0.66350 0.63086 0.66227
 C82 C 0.65158 0.65300 0.65247
 C83 C 0.64990 0.68725 0.62121
 C84 C 0.62811 0.69722 0.63323
 C85 C 0.61796 0.68514 0.65480
 C86 C 0.62958 0.66306 0.66454
 C87 C 0.61971 0.65094 0.68624
 C88 C 0.63159 0.62902 0.69593
 C89 C 0.65337 0.61899 0.68398
 H90 H 0.69168 0.66445 0.60229
 H91 H 0.69475 0.60417 0.65771
 H92 H 0.65770 0.69672 0.60456
 H93 H 0.60111 0.69299 0.66406
 H94 H 0.60289 0.65859 0.69567
 H95 H 0.66246 0.60204 0.69168
 C96 C 0.83771 0.33576 0.12942
 C97 C 0.81589 0.34597 0.11759
 C98 C 0.80417 0.36794 0.12742
 C99 C 0.81425 0.37991 0.14912
 C100 C 0.83606 0.36994 0.16118
 C101 C 0.84787 0.34776 0.15132
 C102 C 0.84946 0.31365 0.11987
 C103 C 0.87113 0.30348 0.13196
 C104 C 0.88127 0.31540 0.15365
 C105 C 0.86976 0.33751 0.16345
 C106 C 0.87962 0.34947 0.18528
 C107 C 0.86784 0.37142 0.19504
 C108 C 0.84618 0.38164 0.18302
 H109 H 0.80795 0.33676 0.10082
 H110 H 0.80506 0.39688 0.15667
 H111 H 0.84167 0.30430 0.10311
 H112 H 0.89802 0.30740 0.16296
 H113 H 0.89635 0.34167 0.19476
 H114 H 0.83717 0.39861 0.19077
 C115 C 0.33735 0.16357 0.87084
 C116 C 0.31547 0.15356 0.88263
 C117 C 0.30363 0.13171 0.87275
 C118 C 0.31364 0.11967 0.85106
 C119 C 0.33551 0.12943 0.83904
 C120 C 0.34744 0.15148 0.84895
 C121 C 0.34923 0.18555 0.88043
 C122 C 0.37095 0.19550 0.86839
 C123 C 0.38102 0.18353 0.84672
 C124 C 0.36939 0.16154 0.83686
 C125 C 0.37919 0.14952 0.81505
 C126 C 0.36729 0.12769 0.80524
 C127 C 0.34557 0.11766 0.81720
 H128 H 0.30759 0.16283 0.89939
 H129 H 0.30436 0.10279 0.84348
 H130 H 0.34155 0.19500 0.89717
 H131 H 0.39781 0.19142 0.83750
 H132 H 0.39597 0.15717 0.80561
 H133 H 0.33647 0.10078 0.80942
 C134 C 0.16172 0.83450 0.36984
 C135 C 0.18361 0.84439 0.38177
 C136 C 0.19557 0.86619 0.37203
 C137 C 0.18572 0.87832 0.35034
 C138 C 0.16385 0.86869 0.33817
 C139 C 0.15177 0.84667 0.34793
 C140 C 0.14973 0.81255 0.37929
 C141 C 0.12800 0.80269 0.36708
 C142 C 0.11806 0.81477 0.34538
 C143 C 0.12984 0.83674 0.33568
 C144 C 0.12020 0.84884 0.31383
 C145 C 0.13225 0.87063 0.30417
 C146 C 0.15396 0.88055 0.31630
 H147 H 0.19144 0.83511 0.39853
 H148 H 0.19516 0.89515 0.34291
 H149 H 0.15736 0.80308 0.39605
 H150 H 0.10128 0.80701 0.33598
 H151 H 0.10344 0.84128 0.30425
 H152 H 0.16318 0.89739 0.30863
 Zn153 Zn 0.00344 1.03113 -0.01492
 Zn154 Zn -0.02079 0.97968 -0.02038
 Zn155 Zn 0.03076 0.98481 0.00414
 Zn156 Zn -0.01585 1.00382 0.03115
 O157 O -0.00063 0.99984 -0.00002
 O158 O -0.01296 1.03364 -0.04477
 O159 O -0.00477 0.95113 -0.03057
 O160 O 0.05653 1.00408 -0.00746
 O161 O -0.03092 0.99560 -0.04895
 O162 O 0.03625 1.03846 -0.02157
 O163 O 0.03335 0.95505 -0.01237
 O164 O 0.00341 0.99200 0.05686
 O165 O -0.04953 0.96946 -0.00471
 O166 O 0.03801 0.97793 0.03681
 O167 O -0.04573 0.98736 0.03341
 O168 O -0.02281 1.03646 0.03854
 O169 O -0.00851 1.05674 0.00436
 C170 C -0.02657 1.01792 -0.05712
 C171 C 0.01761 0.94285 -0.02612
 C172 C 0.05667 1.02591 -0.01782
 C173 C 0.02532 0.98159 0.05708
 C174 C -0.05792 0.97375 0.01756
 C175 C -0.01907 1.05682 0.02610
 Zn176 Zn 0.49625 -0.03086 0.48540
 Zn177 Zn 0.52045 0.02058 0.47989
 Zn178 Zn 0.46889 0.01549 0.50436
 Zn179 Zn 0.51553 -0.00341 0.53146
 O180 O 0.50030 0.00047 0.50026
 O181 O 0.51266 -0.03346 0.45559
 O182 O 0.50439 0.04908 0.46963
 O183 O 0.44314 -0.00384 0.49275
 O184 O 0.53060 0.00458 0.45137
 O185 O 0.46345 -0.03824 0.47872
 O186 O 0.46629 0.04520 0.48780
 O187 O 0.49625 0.00843 0.55712
 O188 O 0.54917 0.03089 0.49560
 O189 O 0.46163 0.02242 0.53701
 O190 O 0.54539 0.01310 0.53374
 O191 O 0.52252 -0.03602 0.53891
 O192 O 0.50821 -0.05641 0.50474
 C193 C 0.52626 -0.01777 0.44323
 C194 C 0.48200 0.05736 0.47403
 C195 C 0.44302 -0.02570 0.48243
 C196 C 0.47431 0.01880 0.55730
 C197 C 0.55756 0.02668 0.51789
 C198 C 0.51877 -0.05642 0.52650
 Zn199 Zn 1.01573 0.50370 0.46839
 Zn200 Zn 0.96934 0.48471 0.49563
 Zn201 Zn 1.02104 0.47972 0.51995
 Zn202 Zn 0.99649 0.53111 0.51451
 O203 O 1.00067 0.49979 0.49964
 O204 O 0.99642 0.49179 0.44279
 O205 O 0.96701 0.45501 0.51220
 O206 O 1.04971 0.46942 0.50412
 O207 O 0.96197 0.47773 0.46300
 O208 O 1.04568 0.48725 0.46602
 O209 O 1.00519 0.45121 0.53032
 O210 O 1.01315 0.53379 0.54419
 O211 O 0.94353 0.50396 0.50736
 O212 O 1.03135 0.49580 0.54838
 O213 O 0.96368 0.53838 0.52140
 O214 O 1.00811 0.55668 0.49509
 O215 O 1.02246 0.53633 0.46091
 C216 C 0.97455 0.48136 0.44267
 C217 C 0.98283 0.44289 0.52596
 C218 C 1.05799 0.47367 0.48181
 C219 C 1.02698 0.51817 0.55647
 C220 C 0.94332 0.52578 0.51775
 C221 C 1.01860 0.55672 0.47332
 Zn222 Zn 0.48416 0.49613 0.96901
 Zn223 Zn 0.53064 0.51544 0.99598
 Zn224 Zn 0.47906 0.52046 1.02045
 Zn225 Zn 0.50371 0.46909 1.01521
 O226 O 0.49938 0.50030 1.00018
 O227 O 0.50330 0.50791 0.94327
 O228 O 0.53301 0.54524 1.01241
 O229 O 0.45025 0.53054 1.00470
 O230 O 0.53779 0.52225 0.96328
 O231 O 0.45416 0.51249 0.96666
 O232 O 0.49488 0.54908 1.03058
 O233 O 0.48735 0.46663 1.04505
 O234 O 0.55658 0.49629 1.00763
 O235 O 0.46904 0.50459 1.04906
 O236 O 0.53658 0.46190 1.02189
 O237 O 0.49193 0.44337 0.99604
 O238 O 0.47743 0.46344 0.96176
 C239 C 0.52512 0.51844 0.94302
 C240 C 0.51720 0.55742 1.02613
 C241 C 0.44188 0.52613 0.98243
 C242 C 0.47360 0.48232 1.05732
 C243 C 0.55690 0.47450 1.01807
 C244 C 0.48133 0.44315 0.97430
 C245 C 1.28422 0.37714 0.38476
 C246 C 1.26514 0.38535 0.39478
 C247 C 1.24223 0.39517 0.40646
 C248 C 1.23582 0.42094 0.40381
 C249 C 1.21327 0.43041 0.41463
 C250 C 1.19678 0.41417 0.42824
 C251 C 1.20350 0.38831 0.43095
 C252 C 1.22608 0.37889 0.42013
 C253 C 1.17248 0.42409 0.43913
 C254 C 1.14984 0.40967 0.43755
 C255 C 1.12679 0.41936 0.44706
 C256 C 1.12606 0.44355 0.45831
 C257 C 1.14851 0.45794 0.46024
 C258 C 1.17159 0.44829 0.45073
 C259 C 1.10212 0.45394 0.46713
 C260 C 1.08200 0.46284 0.47409
 H261 H 1.24813 0.43369 0.39318
 H262 H 1.20847 0.45031 0.41190
 H263 H 1.19137 0.37540 0.44157
 H264 H 1.23089 0.35891 0.42233
 H265 H 1.14983 0.39114 0.42844
 H266 H 1.10949 0.40813 0.44535
 H267 H 1.14816 0.47669 0.46891
 H268 H 1.18874 0.45971 0.45252
 C269 C 0.21629 0.62367 0.88466
 C270 C 0.23541 0.61558 0.89472
 C271 C 0.25840 0.60598 0.90645
 C272 C 0.25744 0.58449 0.92222
 C273 C 0.27988 0.57485 0.93316
 C274 C 0.30361 0.58661 0.92845
 C275 C 0.30433 0.60832 0.91271
 C276 C 0.28187 0.61791 0.90179
 C277 C 0.32759 0.57602 0.93946
 C278 C 0.34680 0.59232 0.94883
 C279 C 0.36970 0.58232 0.95843
 C280 C 0.37369 0.55593 0.95881
 C281 C 0.35460 0.53955 0.94978
 C282 C 0.33169 0.54950 0.94019
 C283 C 0.39765 0.54565 0.96772
 C284 C 0.41780 0.53685 0.97471
 H285 H 0.23935 0.57513 0.92599
 H286 H 0.27866 0.55830 0.94542
 H287 H 0.32232 0.61759 0.90843
 H288 H 0.28285 0.63450 0.88954
 H289 H 0.34409 0.61279 0.94882
 H290 H 0.38435 0.59517 0.96538
 H291 H 0.35755 0.51910 0.94987
 H292 H 0.31744 0.53647 0.93281
 C293 C -0.28313 0.87611 0.11478
 C294 C -0.26399 0.88408 0.10475
 C295 C -0.24100 0.89360 0.09306
 C296 C -0.24220 0.91402 0.07594
 C297 C -0.21977 0.92361 0.06505
 C298 C -0.19582 0.91286 0.07115
 C299 C -0.19486 0.89221 0.08823
 C300 C -0.21730 0.88267 0.09911
 C301 C -0.17189 0.92345 0.06017
 C302 C -0.15191 0.90717 0.05238
 C303 C -0.12907 0.91722 0.04283
 C304 C -0.12590 0.94364 0.04093
 C305 C -0.14575 0.95998 0.04837
 C306 C -0.16860 0.94998 0.05790
 C307 C -0.10201 0.95403 0.03212
 C308 C -0.08192 0.96293 0.02520
 H309 H -0.26046 0.92259 0.07109
 H310 H -0.22117 0.93932 0.05173
 H311 H -0.17671 0.88376 0.09359
 H312 H -0.21615 0.86691 0.11241
 H313 H -0.15398 0.88667 0.05359
 H314 H -0.11383 0.90439 0.03713
 H315 H -0.14344 0.98046 0.04710
 H316 H -0.18347 0.96302 0.06405
 C317 C 0.78376 0.12288 0.61478
 C318 C 0.76466 0.11476 0.60474
 C319 C 0.74174 0.10505 0.59303
 C320 C 0.72498 0.12161 0.58036
 C321 C 0.70239 0.11227 0.56954
 C322 C 0.69627 0.08621 0.57125
 C323 C 0.71336 0.06970 0.58386
 C324 C 0.73592 0.07908 0.59469
 C325 C 0.67196 0.07634 0.56038
 C326 C 0.67132 0.05264 0.54779
 C327 C 0.64825 0.04300 0.53830
 C328 C 0.62555 0.05690 0.54125
 C329 C 0.62602 0.08061 0.55350
 C330 C 0.64906 0.09029 0.56298
 C331 C 0.60164 0.04648 0.53246
 C332 C 0.58155 0.03755 0.52555
 H333 H 0.72933 0.14175 0.57894
 H334 H 0.68979 0.12541 0.55969
 H335 H 0.70902 0.04961 0.58582
 H336 H 0.74870 0.06611 0.60455
 H337 H 0.68867 0.04160 0.54519
 H338 H 0.64810 0.02463 0.52885
 H339 H 0.60853 0.09146 0.55601
 H340 H 0.64886 0.10842 0.57287
 C341 C 0.38454 0.28242 0.37672
 C342 C 0.39437 0.26316 0.38462
 C343 C 0.40586 0.24005 0.39406
 C344 C 0.39753 0.21640 0.38494
 C345 C 0.40830 0.19389 0.39440
 C346 C 0.42757 0.19474 0.41315
 C347 C 0.43592 0.21864 0.42208
 C348 C 0.42512 0.24113 0.41258
 C349 C 0.43856 0.17080 0.42363
 C350 C 0.44354 0.16845 0.44989
 C351 C 0.45316 0.14565 0.45987
 C352 C 0.45799 0.12491 0.44375
 C353 C 0.45336 0.12713 0.41757
 C354 C 0.44372 0.14991 0.40755
 C355 C 0.46698 0.10116 0.45422
 C356 C 0.47409 0.08119 0.46316
 H357 H 0.38256 0.21534 0.37067
 H358 H 0.40121 0.17581 0.38739
 H359 H 0.45092 0.21994 0.43628
 H360 H 0.43174 0.25935 0.41973
 H361 H 0.43945 0.18404 0.46281
 H362 H 0.45655 0.14409 0.48019
 H363 H 0.45704 0.11120 0.40492
 H364 H 0.44040 0.15123 0.38721
 C365 C 0.88492 0.21818 0.62242
 C366 C 0.89480 0.23739 0.61458
 C367 C 0.90637 0.26044 0.60523
 C368 C 0.92596 0.25925 0.58709
 C369 C 0.93689 0.28169 0.57772
 C370 C 0.92834 0.30563 0.58641
 C371 C 0.90872 0.30659 0.60477
 C372 C 0.89782 0.28414 0.61409
 C373 C 0.93947 0.32952 0.57607
 C374 C 0.94428 0.35046 0.59217
 C375 C 0.95400 0.37320 0.58226
 C376 C 0.95906 0.37533 0.55616
 C377 C 0.95461 0.35454 0.54003
 C378 C 0.94490 0.33178 0.54990
 C379 C 0.96803 0.39908 0.54577
 C380 C 0.97507 0.41905 0.53685
 H381 H 0.93276 0.24099 0.58014
 H382 H 0.95215 0.28031 0.56383
 H383 H 0.90147 0.32472 0.61157
 H384 H 0.88260 0.28528 0.62807
 H385 H 0.94061 0.34921 0.61245
 H386 H 0.95739 0.38918 0.59492
 H387 H 0.95832 0.35603 0.51977
 H388 H 0.94109 0.31614 0.53696
 C389 C 0.11550 0.71788 -0.12333
 C390 C 0.10556 0.73707 -0.11539
 C391 C 0.09396 0.76012 -0.10594
 C392 C 0.10143 0.78376 -0.11577
 C393 C 0.09057 0.80623 -0.10631
 C394 C 0.07209 0.80536 -0.08683
 C395 C 0.06459 0.78148 -0.07717
 C396 C 0.07547 0.75902 -0.08668
 C397 C 0.06104 0.82929 -0.07634
 C398 C 0.05709 0.83204 -0.04995
 C399 C 0.04745 0.85485 -0.03999
 C400 C 0.04159 0.87519 -0.05625
 C401 C 0.04519 0.87256 -0.08255
 C402 C 0.05485 0.84977 -0.09255
 C403 C 0.03260 0.89898 -0.04584
 C404 C 0.02551 0.91898 -0.03695
 H405 H 0.11580 0.78483 -0.13062
 H406 H 0.09701 0.82431 -0.11389
 H407 H 0.05019 0.78016 -0.06240
 H408 H 0.06951 0.74082 -0.07897
 H409 H 0.06199 0.81677 -0.03694
 H410 H 0.04486 0.85673 -0.01958
 H411 H 0.04071 0.88818 -0.09531
 H412 H 0.05737 0.84813 -0.11298
 C413 C 0.61461 0.78214 1.12355
 C414 C 0.60460 0.76302 1.11561
 C415 C 0.59293 0.74006 1.10611
 C416 C 0.57587 0.74112 1.08555
 C417 C 0.56500 0.71873 1.07597
 C418 C 0.57106 0.69495 1.08686
 C419 C 0.58809 0.69412 1.10766
 C420 C 0.59894 0.71653 1.11719
 C421 C 0.56010 0.67106 1.07629
 C422 C 0.55216 0.65129 1.09259
 C423 C 0.54260 0.62850 1.08256
 C424 C 0.54082 0.62517 1.05615
 C425 C 0.54842 0.64481 1.03979
 C426 C 0.55798 0.66761 1.04977
 C427 C 0.53194 0.60136 1.04578
 C428 C 0.52495 0.58133 1.03692
 H429 H 0.57104 0.75925 1.07687
 H430 H 0.55172 0.72003 1.06016
 H431 H 0.59342 0.67610 1.11622
 H432 H 0.61220 0.71548 1.13305
 H433 H 0.55326 0.65349 1.11309
 H434 H 0.53676 0.61342 1.09540
 H435 H 0.54726 0.64238 1.01931
 H436 H 0.56424 0.68231 1.03672
 C437 C 0.37855 0.38457 1.28271
 C438 C 0.38665 0.39457 1.26367
 C439 C 0.39630 0.40627 1.24082
 C440 C 0.42221 0.40390 1.23447
 C441 C 0.43151 0.41478 1.21200
 C442 C 0.41498 0.42815 1.19553
 C443 C 0.38898 0.43056 1.20217
 C444 C 0.37973 0.41968 1.22467
 C445 C 0.42475 0.43913 1.17133
 C446 C 0.41025 0.43734 1.14877
 C447 C 0.41979 0.44696 1.12583
 C448 C 0.44389 0.45854 1.12511
 C449 C 0.45835 0.46066 1.14748
 C450 C 0.44885 0.45104 1.17045
 C451 C 0.45413 0.46748 1.10128
 C452 C 0.46291 0.47452 1.08124
 H453 H 0.43518 0.39347 1.24678
 H454 H 0.45153 0.41228 1.20725
 H455 H 0.37585 0.44099 1.19006
 H456 H 0.35964 0.42166 1.22943
 H457 H 0.39179 0.42798 1.14875
 H458 H 0.40850 0.44509 1.10859
 H459 H 0.47703 0.46959 1.14714
 H460 H 0.46032 0.45300 1.18754
 C461 C 0.62220 -0.11633 0.21824
 C462 C 0.61437 -0.10637 0.23743
 C463 C 0.60503 -0.09471 0.26047
 C464 C 0.58550 -0.07643 0.25940
 C465 C 0.57613 -0.06547 0.28185
 C466 C 0.58619 -0.07266 0.30568
 C467 C 0.60594 -0.09094 0.30653
 C468 C 0.61527 -0.10189 0.28406
 C469 C 0.57586 -0.06152 0.32961
 C470 C 0.59233 -0.05506 0.34984
 C471 C 0.58247 -0.04531 0.37264
 C472 C 0.55606 -0.04188 0.37551
 C473 C 0.53954 -0.04800 0.35542
 C474 C 0.54934 -0.05773 0.33260
 C475 C 0.54580 -0.03282 0.39932
 C476 C 0.53700 -0.02568 0.41934
 H477 H 0.57748 -0.07070 0.24123
 H478 H 0.56114 -0.05123 0.28055
 H479 H 0.61384 -0.09714 0.32458
 H480 H 0.63033 -0.11609 0.28512
 H481 H 0.61284 -0.05745 0.34800
 H482 H 0.59544 -0.04063 0.38808
 H483 H 0.51904 -0.04554 0.35749
 H484 H 0.53614 -0.06283 0.31753
 C485 C -0.12197 1.11503 -0.28296
 C486 C -0.11387 1.10506 -0.26388
 C487 C -0.10420 1.09342 -0.24097
 C488 C -0.07822 1.09543 -0.23479
 C489 C -0.06889 1.08464 -0.21225
 C490 C -0.08546 1.07171 -0.19556
 C491 C -0.11153 1.06964 -0.20203
 C492 C -0.12082 1.08043 -0.22460
 C493 C -0.07565 1.06084 -0.17129
 C494 C -0.08996 1.06311 -0.14868
 C495 C -0.08037 1.05359 -0.12568
 C496 C -0.05640 1.04164 -0.12497
 C497 C -0.04214 1.03904 -0.14739
 C498 C -0.05168 1.04856 -0.17041
 C499 C -0.04611 1.03275 -0.10111
 C500 C -0.03730 1.02574 -0.08105
 H501 H -0.06521 1.10553 -0.24727
 H502 H -0.04880 1.08687 -0.20764
 H503 H -0.12470 1.05954 -0.18974
 H504 H -0.14096 1.07873 -0.22922
 H505 H -0.10831 1.07276 -0.14866
 H506 H -0.09151 1.05582 -0.10840
 H507 H -0.02356 1.02981 -0.14705
 H508 H -0.04036 1.04623 -0.18754
 C509 C 1.12301 0.61687 0.78143
 C510 C 1.11521 0.60722 0.76206
 C511 C 1.10592 0.59604 0.73877
 C512 C 1.09996 0.57005 0.73774
 C513 C 1.09083 0.55928 0.71509
 C514 C 1.08760 0.57440 0.69316
 C515 C 1.09369 0.60050 0.69442
 C516 C 1.10278 0.61122 0.71707
 C517 C 1.07771 0.56313 0.66912
 C518 C 1.08804 0.57041 0.64545
 C519 C 1.07821 0.56040 0.62277
 C520 C 1.05797 0.54298 0.62340
 C521 C 1.04774 0.53539 0.64685
 C522 C 1.05755 0.54536 0.66957
 C523 C 1.04720 0.53358 0.59995
 C524 C 1.03805 0.52624 0.58017
 H525 H 1.10238 0.55811 0.75442
 H526 H 1.08659 0.53909 0.71464
 H527 H 1.09105 0.61272 0.67799
 H528 H 1.10726 0.63137 0.71769
 H529 H 1.10378 0.58377 0.64448
 H530 H 1.08628 0.56640 0.60473
 H531 H 1.03197 0.52201 0.64755
 H532 H 1.04899 0.53961 0.68746
 C533 C 0.71826 0.62335 0.61679
 C534 C 0.73743 0.61514 0.60695
 C535 C 0.76044 0.60539 0.59541
 C536 C 0.78390 0.61739 0.59999
 C537 C 0.80636 0.60774 0.58913
 C538 C 0.80564 0.58591 0.57353
 C539 C 0.78192 0.57405 0.56894
 C540 C 0.75948 0.58375 0.57981
 C541 C 0.82958 0.57534 0.56246
 C542 C 0.83377 0.54883 0.56178
 C543 C 0.85660 0.53892 0.55198
 C544 C 0.87552 0.55532 0.54270
 C545 C 0.87145 0.58170 0.54307
 C546 C 0.84864 0.59166 0.55287
 C547 C 0.89934 0.54508 0.53342
 C548 C 0.91938 0.53636 0.52604
 H549 H 0.78487 0.63410 0.61210
 H550 H 0.82434 0.61708 0.59332
 H551 H 0.78069 0.55741 0.55677
 H552 H 0.74140 0.57435 0.57609
 H553 H 0.81964 0.53579 0.56932
 H554 H 0.85960 0.51847 0.55190
 H555 H 0.88597 0.59457 0.53591
 H556 H 0.84585 0.61213 0.55283
 C557 C 0.78274 0.37752 1.11608
 C558 C 0.76367 0.38597 1.10620
 C559 C 0.74079 0.39604 1.09466
 C560 C 0.72599 0.38071 1.07855
 C561 C 0.70345 0.39032 1.06778
 C562 C 0.69544 0.41543 1.07299
 C563 C 0.71057 0.43073 1.08908
 C564 C 0.73307 0.42107 1.09984
 C565 C 0.67122 0.42551 1.06203
 C566 C 0.66975 0.45076 1.05308
 C567 C 0.64674 0.46043 1.04342
 C568 C 0.62492 0.44502 1.04255
 C569 C 0.62624 0.41981 1.05119
 C570 C 0.64922 0.41009 1.06085
 C571 C 0.60102 0.45526 1.03345
 C572 C 0.58092 0.46397 1.02621
 H573 H 0.73181 0.36131 1.07438
 H574 H 0.69239 0.37818 1.05523
 H575 H 0.70474 0.45000 1.09374
 H576 H 0.74434 0.43306 1.11237
 H577 H 0.68642 0.46300 1.05344
 H578 H 0.64594 0.47997 1.03677
 H579 H 0.60942 0.40775 1.05073
 H580 H 0.64964 0.39070 1.06790
 C581 C 0.28216 1.12231 -0.11593
 C582 C 0.26307 1.11401 -0.10606
 C583 C 0.24017 1.10412 -0.09452
 C584 C 0.22444 1.12009 -0.07994
 C585 C 0.20191 1.11061 -0.06916
 C586 C 0.19484 1.08498 -0.07282
 C587 C 0.21088 1.06905 -0.08738
 C588 C 0.23338 1.07858 -0.09815
 C589 C 0.17064 1.07499 -0.06186
 C590 C 0.16970 1.05039 -0.05121
 C591 C 0.14675 1.04076 -0.04152
 C592 C 0.12444 1.05556 -0.04233
 C593 C 0.12521 1.08014 -0.05267
 C594 C 0.14815 1.08982 -0.06236
 C595 C 0.10062 1.04528 -0.03321
 C596 C 0.08059 1.03652 -0.02595
 H597 H 0.22955 1.13988 -0.07697
 H598 H 0.19013 1.12326 -0.05780
 H599 H 0.20579 1.04935 -0.09084
 H600 H 0.24537 1.06608 -0.10949
 H601 H 0.18675 1.03864 -0.05025
 H602 H 0.14636 1.02171 -0.03354
 H603 H 0.10802 1.09171 -0.05352
 H604 H 0.14816 1.10868 -0.07073
 C605 C 0.21829 -0.12405 0.38409
 C606 C 0.23744 -0.11591 0.39400
 C607 C 0.26044 -0.10621 0.40556
 C608 C 0.25915 -0.08619 0.42316
 C609 C 0.28157 -0.07647 0.43401
 C610 C 0.30560 -0.08669 0.42738
 C611 C 0.30666 -0.10693 0.40979
 C612 C 0.28423 -0.11660 0.39895
 C613 C 0.32949 -0.07604 0.43843
 C614 C 0.34976 -0.09224 0.44564
 C615 C 0.37252 -0.08212 0.45534
 C616 C 0.37534 -0.05573 0.45798
 C617 C 0.35522 -0.03947 0.45109
 C618 C 0.33243 -0.04954 0.44140
 C619 C 0.39910 -0.04527 0.46708
 C620 C 0.41911 -0.03640 0.47432
 H621 H 0.24082 -0.07804 0.42844
 H622 H 0.28010 -0.06110 0.44772
 H623 H 0.32487 -0.11497 0.40402
 H624 H 0.28545 -0.13205 0.38528
 H625 H 0.34796 -0.11273 0.44390
 H626 H 0.38798 -0.09488 0.46064
 H627 H 0.35725 -0.01899 0.45293
 H628 H 0.31733 -0.03655 0.43571
 C629 C 0.61698 -0.28111 0.62412
 C630 C 0.60731 -0.26183 0.61607
 C631 C 0.59601 -0.23870 0.60649
 C632 C 0.60572 -0.21504 0.61410
 C633 C 0.59503 -0.19253 0.60457
 C634 C 0.57446 -0.19338 0.58725
 C635 C 0.56476 -0.21727 0.57979
 C636 C 0.57548 -0.23977 0.58936
 C637 C 0.56342 -0.16945 0.57678
 C638 C 0.55659 -0.16777 0.55088
 C639 C 0.54684 -0.14503 0.54089
 C640 C 0.54374 -0.12369 0.55663
 C641 C 0.55025 -0.12523 0.58246
 C642 C 0.56002 -0.14794 0.59250
 C643 C 0.53449 -0.10006 0.54613
 C644 C 0.52711 -0.08017 0.53723
 H645 H 0.62167 -0.21400 0.62728
 H646 H 0.60316 -0.17446 0.61041
 H647 H 0.54875 -0.21855 0.56673
 H648 H 0.56778 -0.25799 0.58339
 H649 H 0.55929 -0.18387 0.53822
 H650 H 0.54198 -0.14401 0.52083
 H651 H 0.54791 -0.10883 0.59482
 H652 H 0.56478 -0.14874 0.61257
 C653 C 1.11674 0.78112 0.37614
 C654 C 1.10694 0.76192 0.38413
 C655 C 1.09551 0.73888 0.39364
 C656 C 1.07594 0.74008 0.41181
 C657 C 1.06514 0.71764 0.42134
 C658 C 1.07379 0.69369 0.41277
 C659 C 1.09338 0.69271 0.39438
 C660 C 1.10415 0.71516 0.38491
 C661 C 1.06274 0.66981 0.42321
 C662 C 1.05797 0.64881 0.40719
 C663 C 1.04824 0.62610 0.41718
 C664 C 1.04314 0.62407 0.44328
 C665 C 1.04760 0.64492 0.45934
 C666 C 1.05731 0.66765 0.44939
 C667 C 1.03401 0.60041 0.45371
 C668 C 1.02675 0.58050 0.46258
 H669 H 1.06907 0.75834 0.41866
 H670 H 1.04989 0.71903 0.43524
 H671 H 1.10070 0.67459 0.38767
 H672 H 1.11935 0.71401 0.37091
 H673 H 1.06164 0.64999 0.38691
 H674 H 1.04485 0.61009 0.40457
 H675 H 1.04384 0.64351 0.47960
 H676 H 1.06109 0.68334 0.46227
 C677 C -0.11785 1.28176 0.12281
 C678 C -0.10825 1.26243 0.11476
 C679 C -0.09703 1.23924 0.10522
 C680 C -0.07440 1.24002 0.09096
 C681 C -0.06365 1.21747 0.08153
 C682 C -0.07541 1.19382 0.08626
 C683 C -0.09811 1.19326 0.10068
 C684 C -0.10883 1.21582 0.11007
 C685 C -0.06423 1.16985 0.07601
 C686 C -0.06399 1.14749 0.09082
 C687 C -0.05407 1.12478 0.08092
 C688 C -0.04426 1.12409 0.05611
 C689 C -0.04420 1.14628 0.04130
 C690 C -0.05409 1.16902 0.05117
 C691 C -0.03490 1.10048 0.04564
 C692 C -0.02744 1.08060 0.03677
 H693 H -0.06508 1.25806 0.08714
 H694 H -0.04601 1.21851 0.07075
 H695 H -0.10782 1.17541 0.10435
 H696 H -0.12640 1.21501 0.12102
 H697 H -0.07134 1.14760 0.11012
 H698 H -0.05419 1.10772 0.09256
 H699 H -0.03676 1.14593 0.02203
 H700 H -0.05430 1.18582 0.03919
 C701 C 0.38275 0.21830 0.87810
 C702 C 0.39248 0.23752 0.88615
 C703 C 0.40390 0.26058 0.89569
 C704 C 0.42230 0.25949 0.91507
 C705 C 0.43313 0.28195 0.92455
 C706 C 0.42568 0.30581 0.91473
 C707 C 0.40726 0.30667 0.89516
 C708 C 0.39645 0.28420 0.88573
 C709 C 0.43679 0.32973 0.92507
 C710 C 0.44312 0.35002 0.90871
 C711 C 0.45292 0.37278 0.91856
 C712 C 0.45654 0.37557 0.94484
 C713 C 0.45053 0.35543 0.96125
 C714 C 0.44074 0.33265 0.95145
 C715 C 0.46577 0.39931 0.95506
 C716 C 0.47311 0.41929 0.96376
 H717 H 0.42825 0.24130 0.92288
 H718 H 0.44748 0.28064 0.93940
 H719 H 0.40086 0.32474 0.88745
 H720 H 0.38216 0.28526 0.87078
 H721 H 0.44061 0.34824 0.88830
 H722 H 0.45753 0.38825 0.90568
 H723 H 0.45314 0.35744 0.98165
 H724 H 0.43575 0.31752 0.96457
 C725 C 0.62156 0.61700 0.71846
 C726 C 0.61318 0.60711 0.73743
 C727 C 0.60316 0.59557 0.76020
 C728 C 0.57834 0.60143 0.76838
 C729 C 0.56873 0.59063 0.79076
 C730 C 0.58386 0.57381 0.80529
 C731 C 0.60874 0.56792 0.79683
 C732 C 0.61831 0.57874 0.77442
 C733 C 0.57382 0.56278 0.82936
 C734 C 0.58964 0.56072 0.85100
 C735 C 0.57998 0.55100 0.87385
 C736 C 0.55444 0.54316 0.87539
 C737 C 0.53862 0.54489 0.85392
 C738 C 0.54822 0.55462 0.83104
 C739 C 0.54427 0.53398 0.89916
 C740 C 0.53561 0.52667 0.91915
 H741 H 0.56649 0.61452 0.75757
 H742 H 0.54964 0.59582 0.79694
 H743 H 0.62073 0.55481 0.80742
 H744 H 0.63754 0.57404 0.76824
 H745 H 0.60932 0.56714 0.85041
 H746 H 0.59236 0.54985 0.89040
 H747 H 0.51881 0.53886 0.85489
 H748 H 0.53567 0.55565 0.81464
 C749 C 0.37725 0.11578 0.78259
 C750 C 0.38560 0.10600 0.76352
 C751 C 0.39558 0.09460 0.74062
 C752 C 0.42133 0.09790 0.73412
 C753 C 0.43095 0.08731 0.71161
 C754 C 0.41488 0.07328 0.69526
 C755 C 0.38904 0.06994 0.70206
 C756 C 0.37948 0.08053 0.72460
 C757 C 0.42497 0.06253 0.67106
 C758 C 0.41028 0.06363 0.64858
 C759 C 0.42004 0.05411 0.62565
 C760 C 0.44456 0.04333 0.62488
 C761 C 0.45923 0.04194 0.64717
 C762 C 0.44952 0.05146 0.67012
 C763 C 0.45489 0.03427 0.60111
 C764 C 0.46368 0.02702 0.58114
 H765 H 0.43394 0.10884 0.74634
 H766 H 0.45082 0.09052 0.70674
 H767 H 0.37628 0.05898 0.69004
 H768 H 0.35951 0.07783 0.72948
 H769 H 0.39146 0.07233 0.64860
 H770 H 0.40857 0.05540 0.60848
 H771 H 0.47823 0.03362 0.64679
 H772 H 0.46115 0.05004 0.68716
 C773 C 0.12250 0.88262 0.28147
 C774 C 0.11440 0.89249 0.26234
 C775 C 0.10475 0.90404 0.23938
 C776 C 0.08392 0.92083 0.24041
 C777 C 0.07430 0.93170 0.21802
 C778 C 0.08543 0.92590 0.19428
 C779 C 0.10646 0.90910 0.19348
 C780 C 0.11603 0.89825 0.21588
 C781 C 0.07492 0.93697 0.17040
 C782 C 0.09138 0.94519 0.15085
 C783 C 0.08143 0.95497 0.12811
 C784 C 0.05492 0.95669 0.12461
 C785 C 0.03838 0.94877 0.14402
 C786 C 0.04829 0.93900 0.16678
 C787 C 0.04465 0.96594 0.10088
 C788 C 0.03591 0.97330 0.08092
 H789 H 0.07508 0.92548 0.25851
 H790 H 0.05830 0.94479 0.21930
 H791 H 0.11521 0.90398 0.17548
 H792 H 0.13211 0.88520 0.21486
 H793 H 0.11196 0.94417 0.15319
 H794 H 0.09440 0.96106 0.11321
 H795 H 0.01782 0.94990 0.14146
 H796 H 0.03511 0.93252 0.18131
 C797 C 0.87784 0.38329 0.21769
 C798 C 0.88619 0.39306 0.23676
 C799 C 0.89613 0.40452 0.25964
 C800 C 0.92170 0.40056 0.26662
 C801 C 0.93127 0.41126 0.28909
 C802 C 0.91535 0.42606 0.30493
 C803 C 0.88971 0.43004 0.29767
 C804 C 0.88018 0.41933 0.27517
 C805 C 0.92539 0.43697 0.32908
 C806 C 0.91039 0.43674 0.35135
 C807 C 0.92009 0.44642 0.37424
 C808 C 0.94486 0.45649 0.37517
 C809 C 0.95985 0.45702 0.35308
 C810 C 0.95020 0.44733 0.33018
 C811 C 0.95513 0.46568 0.39892
 C812 C 0.96390 0.47304 0.41887
 H813 H 0.93418 0.38904 0.25478
 H814 H 0.95098 0.40755 0.29432
 H815 H 0.87707 0.44159 0.30929
 H816 H 0.86037 0.42254 0.26992
 H817 H 0.89136 0.42859 0.35121
 H818 H 0.90837 0.44580 0.39126
 H819 H 0.97906 0.46479 0.35359
 H820 H 0.96209 0.44808 0.31330
   
