data_POSCAR
  _audit_creation_date              2014-09-24
  _audit_creation_method            'ToBaCCo'
  _symmetry_space_group_name_H-M    'P1'
  _symmetry_Int_Tables_number       1
  _symmetry_cell_setting            triclinic
  loop_
  _symmetry_equiv_pos_as_xyz
 x,y,z
_cell_length_a 39.8639
_cell_length_b 39.8641
_cell_length_c 39.8834
_cell_angle_alpha 90.021200
_cell_angle_beta 90.022800
_cell_angle_gamma 90.022800
loop_
  _atom_site_label
  _atom_site_type_symbol
  _atom_site_fract_x
  _atom_site_fract_y
  _atom_site_fract_z
O1 O 0.32096 0.36782 0.03203
 O2 O 0.36712 0.32188 -0.03322
 O3 O 0.32085 0.36819 -0.03299
 O4 O 0.36739 0.32176 0.03179
 O5 O 0.32831 0.28238 0.03182
 O6 O 0.28160 0.32897 -0.03313
 O7 O 0.32801 0.28251 -0.03336
 O8 O 0.28172 0.32857 0.03205
 Cu9 Cu 0.34801 0.34886 -0.00060
 Cu10 Cu 0.30095 0.30163 -0.00068
 C11 C 0.29343 0.35612 0.04287
 C12 C 0.35556 0.29430 -0.04408
 C13 C 0.29323 0.35663 -0.04379
 C14 C 0.35590 0.29412 0.04255
 O15 O 0.67907 0.63224 0.03195
 O16 O 0.63294 0.67826 -0.03327
 O17 O 0.67908 0.63183 -0.03306
 O18 O 0.63277 0.67843 0.03174
 O19 O 0.67196 0.71771 0.03174
 O20 O 0.71843 0.67093 -0.03324
 O21 O 0.67216 0.71752 -0.03344
 O22 O 0.71841 0.67138 0.03194
 Cu23 Cu 0.65202 0.65125 -0.00066
 Cu24 Cu 0.69922 0.69835 -0.00077
 C25 C 0.70665 0.64387 0.04276
 C26 C 0.64456 0.70580 -0.04414
 C27 C 0.70671 0.64329 -0.04389
 C28 C 0.64436 0.70605 0.04250
 O29 O 0.67903 0.36790 0.96806
 O30 O 0.63285 0.32187 1.03323
 O31 O 0.67905 0.36825 1.03307
 O32 O 0.63264 0.32179 0.96822
 O33 O 0.67176 0.28246 0.96819
 O34 O 0.71834 0.32911 1.03322
 O35 O 0.67199 0.28257 1.03338
 O36 O 0.71830 0.32872 0.96804
 Cu37 Cu 0.65195 0.34890 1.00065
 Cu38 Cu 0.69906 0.30174 1.00073
 C39 C 0.70657 0.35625 0.95724
 C40 C 0.64443 0.29431 1.04409
 C41 C 0.70666 0.35674 1.04389
 C42 C 0.64418 0.29418 0.95743
 O43 O 0.32118 0.63188 0.96829
 O44 O 0.36749 0.67800 1.03342
 O45 O 0.32126 0.63159 1.03331
 O46 O 0.36759 0.67802 0.96840
 O47 O 0.32847 0.71734 0.96840
 O48 O 0.28197 0.67073 1.03348
 O49 O 0.32834 0.71729 1.03358
 O50 O 0.28191 0.67106 0.96829
 Cu51 Cu 0.34831 0.65093 1.00086
 Cu52 Cu 0.30121 0.69807 1.00096
 C53 C 0.29361 0.64351 0.95749
 C54 C 0.35593 0.70558 1.04426
 C55 C 0.29365 0.64310 1.04414
 C56 C 0.35604 0.70563 0.95763
 O57 O 0.03216 0.32125 0.36760
 O58 O -0.03315 0.36708 0.32142
 O59 O -0.03288 0.32089 0.36773
 O60 O 0.03189 0.36761 0.32143
 O61 O 0.03217 0.32846 0.28213
 O62 O -0.03277 0.28159 0.32859
 O63 O -0.03304 0.32792 0.28213
 O64 O 0.03244 0.28195 0.32844
 Cu65 Cu -0.00051 0.34815 0.34849
 Cu66 Cu -0.00028 0.30101 0.30136
 C67 C 0.04312 0.29373 0.35601
 C68 C -0.04392 0.35543 0.29386
 C69 C -0.04357 0.29323 0.35618
 C70 C 0.04276 0.35612 0.29384
 O71 O 0.03234 0.67831 0.63224
 O72 O -0.03307 0.63262 0.67844
 O73 O -0.03270 0.67865 0.63198
 O74 O 0.03197 0.63207 0.67854
 O75 O 0.03225 0.67134 0.71772
 O76 O -0.03260 0.71807 0.67100
 O77 O -0.03297 0.67191 0.71761
 O78 O 0.03261 0.71772 0.67129
 Cu79 Cu -0.00038 0.65146 0.65137
 Cu80 Cu -0.00015 0.69874 0.69836
 C81 C 0.04329 0.70587 0.64377
 C82 C -0.04386 0.64436 0.70595
 C83 C -0.04338 0.70635 0.64343
 C84 C 0.04283 0.64364 0.70611
 O85 O 1.03304 0.63278 0.32140
 O86 O 0.96781 0.67868 0.36764
 O87 O 0.96800 0.63236 0.32141
 O88 O 1.03285 0.67886 0.36783
 O89 O 1.03282 0.71823 0.32878
 O90 O 0.96779 0.67156 0.28218
 O91 O 0.96761 0.71803 0.32856
 O92 O 1.03300 0.67201 0.28220
 Cu93 Cu 1.00043 0.65172 0.34850
 Cu94 Cu 1.00029 0.69893 0.30147
 C95 C 1.04384 0.64447 0.29387
 C96 C 0.95692 0.70624 0.35609
 C97 C 0.95715 0.64391 0.29384
 C98 C 1.04359 0.70651 0.35634
 O99 O 0.96740 0.32147 0.63184
 O100 O 1.03267 0.36727 0.67826
 O101 O 1.03244 0.32120 0.63178
 O102 O 0.96762 0.36775 0.67815
 O103 O 0.96730 0.32851 0.71733
 O104 O 1.03229 0.28180 0.67080
 O105 O 1.03252 0.32801 0.71743
 O106 O 0.96708 0.28209 0.67088
 Cu107 Cu 1.00005 0.34838 0.65108
 Cu108 Cu 0.99977 0.30113 0.69806
 C109 C 0.95645 0.29390 0.64333
 C110 C 1.04341 0.35556 0.70581
 C111 C 1.04312 0.29352 0.64326
 C112 C 0.95673 0.35619 0.70570
 O113 O 0.32124 -0.03246 0.36750
 O114 O 0.36732 0.03293 0.32160
 O115 O 0.32115 0.03259 0.36796
 O116 O 0.36772 -0.03211 0.32148
 O117 O 0.32862 -0.03221 0.28213
 O118 O 0.28187 0.03267 0.32879
 O119 O 0.32818 0.03301 0.28228
 O120 O 0.28200 -0.03254 0.32828
 Cu121 Cu 0.34830 0.00024 0.34858
 Cu122 Cu 0.30120 0.00024 0.30140
 C123 C 0.29372 -0.04334 0.35581
 C124 C 0.35571 0.04379 0.29406
 C125 C 0.29352 0.04335 0.35643
 C126 C 0.35623 -0.04289 0.29385
 O127 O 0.63267 0.03279 0.67843
 O128 O 0.67887 -0.03257 0.63260
 O129 O 0.63238 -0.03226 0.67860
 O130 O 0.67880 0.03247 0.63202
 O131 O 0.71810 0.03275 0.67117
 O132 O 0.67149 -0.03215 0.71795
 O133 O 0.71812 -0.03246 0.67181
 O134 O 0.67184 0.03306 0.71772
 Cu135 Cu 0.65174 0.00009 0.65147
 Cu136 Cu 0.69885 0.00033 0.69863
 C137 C 0.64427 0.04374 0.70595
 C138 C 0.70642 -0.04335 0.64430
 C139 C 0.64390 -0.04294 0.70625
 C140 C 0.70641 0.04333 0.64351
 O141 O 0.36702 0.96722 0.67883
 O142 O 0.32078 1.03239 0.63279
 O143 O 0.36727 1.03226 0.67880
 O144 O 0.32089 0.96734 0.63242
 O145 O 0.28160 0.96719 0.67155
 O146 O 0.32818 1.03229 0.71813
 O147 O 0.28155 1.03240 0.67198
 O148 O 0.32788 0.96707 0.71810
 Cu149 Cu 0.34793 0.99980 0.65176
 Cu150 Cu 0.30083 0.99972 0.69891
 C151 C 0.35544 0.95635 0.70637
 C152 C 0.29324 1.04321 0.64444
 C153 C 0.35575 1.04304 0.70640
 C154 C 0.29330 0.95651 0.64394
 O155 O 0.67932 1.03299 0.36790
 O156 O 0.63309 0.96779 0.32173
 O157 O 0.67924 0.96793 0.36815
 O158 O 0.63282 1.03284 0.32184
 O159 O 0.67191 1.03294 0.28252
 O160 O 0.71853 0.96786 0.32903
 O161 O 0.67224 0.96773 0.28246
 O162 O 0.71856 1.03308 0.32872
 Cu163 Cu 0.65218 1.00038 0.34885
 Cu164 Cu 0.69928 1.00040 0.30172
 C165 C 0.70688 1.04384 0.35629
 C166 C 0.64468 0.95697 0.29416
 C167 C 0.70684 0.95714 0.35662
 C168 C 0.64431 1.04364 0.29424
 O169 O 0.82200 0.86721 0.53341
 O170 O 0.86807 0.82117 0.46815
 O171 O 0.82200 0.86759 0.46841
 O172 O 0.86840 0.82102 0.53317
 O173 O 0.82923 0.78172 0.53317
 O174 O 0.78265 0.82847 0.46823
 O175 O 0.82886 0.78190 0.46798
 O176 O 0.78268 0.82805 0.53340
 Cu177 Cu 0.84907 0.84819 0.50081
 Cu178 Cu 0.80189 0.80107 0.50070
 C179 C 0.79442 0.85560 0.54419
 C180 C 0.85642 0.79365 0.45724
 C181 C 0.79438 0.85608 0.45757
 C182 C 0.85686 0.79338 0.54389
 O183 O 0.17790 0.13270 0.53330
 O184 O 0.13195 0.17882 0.46801
 O185 O 0.17807 0.13245 0.46829
 O186 O 0.13152 0.17890 0.53303
 O187 O 0.17068 0.21821 0.53323
 O188 O 0.21740 0.17159 0.46831
 O189 O 0.17114 0.21811 0.46804
 O190 O 0.21721 0.17187 0.53349
 Cu191 Cu 0.15091 0.15178 0.50066
 Cu192 Cu 0.19808 0.19891 0.50079
 C193 C 0.20546 0.14430 0.54418
 C194 C 0.14362 0.20636 0.45719
 C195 C 0.20570 0.14399 0.45756
 C196 C 0.14303 0.20653 0.54384
 O197 O 0.13224 0.82078 0.53185
 O198 O 0.17835 0.86703 0.46679
 O199 O 0.13196 0.82084 0.46684
 O200 O 0.17832 0.86720 0.53179
 O201 O 0.21766 0.82809 0.53184
 O202 O 0.17111 0.78155 0.46671
 O203 O 0.21766 0.82789 0.46666
 O204 O 0.17143 0.78153 0.53190
 Cu205 Cu 0.15127 0.84790 0.49931
 Cu206 Cu 0.19844 0.80080 0.49926
 C207 C 0.14389 0.79323 0.54268
 C208 C 0.20593 0.85547 0.45597
 C209 C 0.14350 0.79324 0.45602
 C210 C 0.20592 0.85566 0.54261
 O211 O 0.82155 0.13231 0.46619
 O212 O 0.86766 0.17868 0.53129
 O213 O 0.82155 0.13225 0.53121
 O214 O 0.86797 0.17855 0.46627
 O215 O 0.82881 0.21783 0.46607
 O216 O 0.78222 0.17136 0.53118
 O217 O 0.82846 0.21793 0.53126
 O218 O 0.78224 0.17145 0.46599
 Cu219 Cu 0.84862 0.15151 0.49873
 Cu220 Cu 0.80146 0.19860 0.49859
 C221 C 0.79396 0.14385 0.45534
 C222 C 0.85601 0.20624 0.54207
 C223 C 0.79394 0.14380 0.54198
 C224 C 0.85645 0.20615 0.45544
 O225 O 0.46711 0.86720 0.82156
 O226 O 0.53248 0.82107 0.86744
 O227 O 0.53215 0.86755 0.82145
 O228 O 0.46743 0.82101 0.86792
 O229 O 0.46725 0.78174 0.82874
 O230 O 0.53215 0.82847 0.78208
 O231 O 0.53246 0.78184 0.82821
 O232 O 0.46694 0.82807 0.78224
 Cu233 Cu 0.49979 0.84815 0.84854
 Cu234 Cu 0.49968 0.80107 0.80134
 C235 C 0.45621 0.85562 0.79402
 C236 C 0.54331 0.79354 0.85573
 C237 C 0.54290 0.85606 0.79381
 C238 C 0.45662 0.79340 0.85639
 O239 O 0.53256 0.17909 0.13288
 O240 O 0.46728 0.13298 0.17890
 O241 O 0.46751 0.17903 0.13242
 O242 O 0.53233 0.13276 0.17903
 O243 O 0.53233 0.17196 0.21828
 O244 O 0.46733 0.21842 0.17148
 O245 O 0.46710 0.17222 0.21811
 O246 O 0.53254 0.21844 0.17199
 Cu247 Cu 0.49992 0.15201 0.15187
 Cu248 Cu 0.49981 0.19923 0.19893
 C249 C 0.54337 0.20667 0.14449
 C250 C 0.45639 0.14463 0.20641
 C251 C 0.45668 0.20666 0.14387
 C252 C 0.54309 0.14435 0.20663
 O253 O 0.46757 0.17910 0.86728
 O254 O 0.53275 0.13293 0.82119
 O255 O 0.53262 0.17905 0.86763
 O256 O 0.46772 0.13265 0.82125
 O257 O 0.46764 0.17176 0.78193
 O258 O 0.53273 0.21836 0.82851
 O259 O 0.53286 0.17209 0.78193
 O260 O 0.46751 0.21836 0.82811
 Cu261 Cu 0.50017 0.15199 0.84828
 Cu262 Cu 0.50020 0.19911 0.80115
 C263 C 0.45673 0.20664 0.85564
 C264 C 0.54359 0.14453 0.79365
 C265 C 0.54342 0.20666 0.85611
 C266 C 0.45691 0.14417 0.79365
 O267 O 0.46794 0.82125 0.13267
 O268 O 0.53317 0.86761 0.17866
 O269 O 0.53299 0.82141 0.13226
 O270 O 0.46812 0.86776 0.17870
 O271 O 0.46817 0.82869 0.21805
 O272 O 0.53322 0.78214 0.17141
 O273 O 0.53339 0.82849 0.21796
 O274 O 0.46800 0.78204 0.17188
 Cu275 Cu 0.50055 0.84845 0.15163
 Cu276 Cu 0.50072 0.80138 0.19879
 C277 C 0.45715 0.79370 0.14434
 C278 C 0.54407 0.85607 0.20622
 C279 C 0.54384 0.79382 0.14378
 C280 C 0.45739 0.85625 0.20632
 O281 O 0.86717 0.53307 0.82133
 O282 O 0.82143 0.46772 0.86756
 O283 O 0.86762 0.46802 0.82122
 O284 O 0.82116 0.53276 0.86783
 O285 O 0.78171 0.53271 0.82883
 O286 O 0.82832 0.46781 0.78207
 O287 O 0.78199 0.46751 0.82854
 O288 O 0.82786 0.53302 0.78219
 Cu289 Cu 0.84831 0.50040 0.84841
 Cu290 Cu 0.80099 0.50025 0.80145
 C291 C 0.85543 0.54387 0.79383
 C292 C 0.79386 0.45679 0.85604
 C293 C 0.85601 0.45718 0.79366
 C294 C 0.79347 0.54346 0.85639
 O295 O 0.17855 0.46764 0.13240
 O296 O 0.13279 0.53303 0.17854
 O297 O 0.17893 0.53268 0.13217
 O298 O 0.13224 0.46799 0.17860
 O299 O 0.17142 0.46774 0.21786
 O300 O 0.21827 0.53261 0.17128
 O301 O 0.17199 0.53295 0.21779
 O302 O 0.21789 0.46740 0.17152
 Cu303 Cu 0.15168 0.50035 0.15149
 Cu304 Cu 0.19887 0.50016 0.19858
 C305 C 0.20608 0.45669 0.14398
 C306 C 0.14447 0.54382 0.20608
 C307 C 0.20660 0.54337 0.14369
 C308 C 0.14375 0.45714 0.20619
 O309 O 0.82147 0.53228 0.13232
 O310 O 0.86726 0.46698 0.17855
 O311 O 0.82118 0.46724 0.13211
 O312 O 0.86775 0.53202 0.17857
 O313 O 0.82853 0.53227 0.21778
 O314 O 0.78180 0.46732 0.17115
 O315 O 0.82802 0.46705 0.21774
 O316 O 0.78211 0.53252 0.17138
 Cu317 Cu 0.84837 0.49961 0.15146
 Cu318 Cu 0.80114 0.49981 0.19847
 C319 C 0.79393 0.54322 0.14385
 C320 C 0.85555 0.45619 0.20607
 C321 C 0.79351 0.45654 0.14359
 C322 C 0.85619 0.54289 0.20614
 O323 O 0.17834 0.53206 0.86791
 O324 O 0.13242 0.46679 0.82160
 O325 O 0.17852 0.46701 0.86806
 O326 O 0.13205 0.53184 0.82163
 O327 O 0.17127 0.53206 0.78243
 O328 O 0.21791 0.46706 0.82903
 O329 O 0.17166 0.46684 0.78242
 O330 O 0.21771 0.53227 0.82885
 Cu331 Cu 0.15138 0.49941 0.84873
 Cu332 Cu 0.19861 0.49957 0.80173
 C333 C 0.20591 0.54296 0.85640
 C334 C 0.14410 0.45602 0.79405
 C335 C 0.20619 0.45630 0.85659
 C336 C 0.14361 0.54269 0.79407
 C337 C 0.27473 0.37513 0.06696
 C338 C 0.25895 0.39221 0.08624
 C339 C 0.24045 0.41346 0.10762
 C340 C 0.22470 0.43265 0.12483
 C341 C 0.72533 0.62483 0.06684
 C342 C 0.74110 0.60772 0.08610
 C343 C 0.75958 0.58645 0.10748
 C344 C 0.77532 0.56726 0.12469
 C345 C 0.72526 0.37527 0.93315
 C346 C 0.74103 0.39235 0.91387
 C347 C 0.75951 0.41359 0.89246
 C348 C 0.77525 0.43276 0.87523
 C349 C 0.27484 0.62445 0.93345
 C350 C 0.25899 0.60735 0.91421
 C351 C 0.24042 0.58611 0.89283
 C352 C 0.22460 0.56696 0.87560
 C353 C 0.06714 0.27508 0.37517
 C354 C 0.08631 0.25932 0.39240
 C355 C 0.10754 0.24083 0.41379
 C356 C 0.12461 0.22505 0.43308
 C357 C 0.06733 0.72447 0.62459
 C358 C 0.08651 0.74022 0.60736
 C359 C 0.10775 0.75872 0.58598
 C360 C 0.12484 0.77452 0.56673
 C361 C 0.93293 0.72490 0.37527
 C362 C 0.91377 0.74069 0.39249
 C363 C 0.89255 0.75920 0.41387
 C364 C 0.87546 0.77498 0.43314
 C365 C 0.93247 0.27524 0.62407
 C366 C 0.91334 0.25943 0.60680
 C367 C 0.89214 0.24087 0.58539
 C368 C 0.87506 0.22502 0.56613
 C369 C 0.37481 0.06785 0.27537
 C370 C 0.39193 0.08706 0.25955
 C371 C 0.41320 0.10837 0.24097
 C372 C 0.43238 0.12552 0.22513
 C373 C 0.62514 0.06778 0.72462
 C374 C 0.60800 0.08697 0.74044
 C375 C 0.58673 0.10826 0.75904
 C376 C 0.56757 0.12541 0.77490
 C377 C 0.37457 0.93236 0.72509
 C378 C 0.39171 0.91318 0.74093
 C379 C 0.41299 0.89189 0.75951
 C380 C 0.43218 0.87474 0.77533
 C381 C 0.62555 0.93297 0.27538
 C382 C 0.60842 0.91378 0.25949
 C383 C 0.58718 0.89247 0.24083
 C384 C 0.56804 0.87528 0.22495
 C385 C 0.37474 0.27558 0.93197
 C386 C 0.39197 0.25975 0.91287
 C387 C 0.41337 0.24118 0.89170
 C388 C 0.43264 0.22535 0.87465
 C389 C 0.62539 0.72455 0.93193
 C390 C 0.60816 0.74040 0.91284
 C391 C 0.58674 0.75899 0.89170
 C392 C 0.56744 0.77483 0.87469
 C393 C 0.37516 0.72438 0.06815
 C394 C 0.39242 0.74029 0.08720
 C395 C 0.41382 0.75897 0.10833
 C396 C 0.43308 0.77489 0.12535
 C397 C 0.62528 0.27559 0.06805
 C398 C 0.60807 0.25976 0.08718
 C399 C 0.58671 0.24120 0.10838
 C400 C 0.56745 0.22537 0.12546
 C401 C 0.27449 0.06727 0.62544
 C402 C 0.25864 0.08653 0.60840
 C403 C 0.24004 0.10791 0.58724
 C404 C 0.22419 0.12513 0.56814
 C405 C 0.72466 0.06658 0.37434
 C406 C 0.74056 0.08588 0.39134
 C407 C 0.75924 0.10731 0.41243
 C408 C 0.77515 0.12459 0.43147
 C409 C 0.72519 0.93255 0.62534
 C410 C 0.74108 0.91329 0.60834
 C411 C 0.75974 0.89193 0.58721
 C412 C 0.77564 0.87474 0.56813
 C413 C 0.27500 0.93255 0.37480
 C414 C 0.25916 0.91327 0.39183
 C415 C 0.24056 0.89188 0.41298
 C416 C 0.22469 0.87465 0.43206
 C417 C 0.06744 0.37456 0.72466
 C418 C 0.08663 0.39163 0.74060
 C419 C 0.10791 0.41286 0.75929
 C420 C 0.12504 0.43201 0.77522
 C421 C 0.06788 0.62545 0.27512
 C422 C 0.08709 0.60836 0.25927
 C423 C 0.10836 0.58709 0.24068
 C424 C 0.12547 0.56788 0.22483
 C425 C 0.93204 0.37446 0.27510
 C426 C 0.91286 0.39158 0.25926
 C427 C 0.89161 0.41289 0.24067
 C428 C 0.87454 0.43212 0.22483
 C429 C 0.93205 0.62541 0.72471
 C430 C 0.91282 0.60834 0.74057
 C431 C 0.89153 0.58710 0.75918
 C432 C 0.87442 0.56792 0.77505
 C433 C 0.72448 0.62502 0.93352
 C434 C 0.74030 0.60782 0.91432
 C435 C 0.75885 0.58650 0.89295
 C436 C 0.77467 0.56736 0.87568
 C437 C 0.27538 0.37484 0.93363
 C438 C 0.25949 0.39200 0.91444
 C439 C 0.24089 0.41327 0.89308
 C440 C 0.22502 0.43240 0.87584
 C441 C 0.27585 0.62486 0.06673
 C442 C 0.25998 0.60768 0.08592
 C443 C 0.24138 0.58638 0.10725
 C444 C 0.22549 0.56725 0.12447
 C445 C 0.72446 0.37497 0.06651
 C446 C 0.74029 0.39215 0.08573
 C447 C 0.75885 0.41346 0.10710
 C448 C 0.77469 0.43262 0.12435
 C449 C 0.93402 0.72418 0.62522
 C450 C 0.91480 0.74004 0.60807
 C451 C 0.89340 0.75864 0.58683
 C452 C 0.87613 0.77452 0.56774
 C453 C 0.93379 0.27535 0.37429
 C454 C 0.91452 0.25945 0.39136
 C455 C 0.89307 0.24084 0.41253
 C456 C 0.87576 0.22497 0.43158
 C457 C 0.06575 0.27569 0.62509
 C458 C 0.08499 0.25982 0.60798
 C459 C 0.10642 0.24122 0.58676
 C460 C 0.12372 0.22536 0.56769
 C461 C 0.06626 0.72430 0.37452
 C462 C 0.08553 0.74012 0.39167
 C463 C 0.10696 0.75865 0.41294
 C464 C 0.12424 0.77446 0.43209
 C465 C 0.62467 0.93312 0.72505
 C466 C 0.60742 0.91394 0.74083
 C467 C 0.58604 0.89257 0.75930
 C468 C 0.56684 0.87532 0.77506
 C469 C 0.37551 0.93319 0.27508
 C470 C 0.39278 0.91402 0.25931
 C471 C 0.41418 0.89268 0.24084
 C472 C 0.43340 0.87546 0.22508
 C473 C 0.62504 0.06758 0.27549
 C474 C 0.60775 0.08673 0.25972
 C475 C 0.58632 0.10803 0.24123
 C476 C 0.56708 0.12520 0.22543
 C477 C 0.37497 0.06706 0.72512
 C478 C 0.39223 0.08630 0.74083
 C479 C 0.41364 0.10770 0.75923
 C480 C 0.43289 0.12496 0.77494
 C481 C 0.62522 0.72486 0.06650
 C482 C 0.60808 0.74068 0.08574
 C483 C 0.58683 0.75921 0.10718
 C484 C 0.56773 0.77503 0.12449
 C485 C 0.37512 0.27539 0.06654
 C486 C 0.39233 0.25963 0.08577
 C487 C 0.41364 0.24116 0.10722
 C488 C 0.43278 0.22540 0.12454
 C489 C 0.62500 0.27544 0.93340
 C490 C 0.60782 0.25968 0.91413
 C491 C 0.58652 0.24121 0.89268
 C492 C 0.56736 0.22544 0.87538
 C493 C 0.37521 0.72440 0.93363
 C494 C 0.39237 0.74020 0.91439
 C495 C 0.41364 0.75873 0.89296
 C496 C 0.43275 0.77456 0.87567
 C497 C 0.72562 0.93317 0.37583
 C498 C 0.74140 0.91397 0.39306
 C499 C 0.75987 0.89260 0.41443
 C500 C 0.77564 0.87535 0.43362
 C501 C 0.27454 0.93255 0.62469
 C502 C 0.25879 0.91337 0.60739
 C503 C 0.24036 0.89204 0.58594
 C504 C 0.22463 0.87484 0.56666
 C505 C 0.27469 0.06721 0.37571
 C506 C 0.25885 0.08633 0.39298
 C507 C 0.24031 0.10761 0.41439
 C508 C 0.22449 0.12479 0.43360
 C509 C 0.72520 0.06719 0.62418
 C510 C 0.74098 0.08628 0.60683
 C511 C 0.75945 0.10752 0.58533
 C512 C 0.77521 0.12466 0.56604
 C513 C 0.93321 0.62466 0.27505
 C514 C 0.91403 0.60740 0.25924
 C515 C 0.89268 0.58603 0.24072
 C516 C 0.87544 0.56684 0.22492
 C517 C 0.93284 0.37548 0.72450
 C518 C 0.91371 0.39274 0.74035
 C519 C 0.89242 0.41410 0.75894
 C520 C 0.87523 0.43327 0.77481
 C521 C 0.06670 0.62436 0.72496
 C522 C 0.08583 0.60712 0.74082
 C523 C 0.10714 0.58578 0.75941
 C524 C 0.12436 0.56661 0.77526
 C525 C 0.06667 0.37545 0.27509
 C526 C 0.08583 0.39272 0.25930
 C527 C 0.10718 0.41408 0.24078
 C528 C 0.12444 0.43324 0.22497
   
