data_POSCAR
  _audit_creation_date              2014-09-24
  _audit_creation_method            'ToBaCCo'
  _symmetry_space_group_name_H-M    'P1'
  _symmetry_Int_Tables_number       1
  _symmetry_cell_setting            triclinic
  loop_
  _symmetry_equiv_pos_as_xyz
 x,y,z
_cell_length_a 22.4946
_cell_length_b 22.9374
_cell_length_c 23.2989
_cell_angle_alpha 90.009000
_cell_angle_beta 92.870700
_cell_angle_gamma 89.087800
loop_
  _atom_site_label
  _atom_site_type_symbol
  _atom_site_fract_x
  _atom_site_fract_y
  _atom_site_fract_z
C1 C 1.25126 0.26537 0.24053
 C2 C 0.75216 -0.22897 0.25550
 C3 C 0.75687 0.25406 -0.23934
 C4 C 1.24581 -0.25405 -0.25569
 C5 C 0.24427 0.25306 0.75526
 C6 C 0.74458 0.74459 0.74394
 C7 C 0.75451 0.23388 0.25292
 C8 C 0.25908 0.72598 0.25803
 N9 N 1.11379 0.06218 0.05812
 N10 N 1.14907 0.10713 0.06809
 N11 N 1.08785 -0.06116 0.10594
 N12 N 1.10627 -0.09832 0.14718
 N13 N 1.12769 -0.05868 0.06673
 N14 N 1.17348 -0.09328 0.07970
 N15 N 1.07216 0.06109 0.09578
 N16 N 1.07677 0.10566 0.13105
 C17 C 1.12457 0.13397 0.11335
 C18 C 1.15983 -0.11816 0.12954
 N19 N 0.91433 -0.07563 0.06361
 N20 N 0.87569 -0.11426 0.08044
 N21 N 0.94390 0.05095 0.09478
 N22 N 0.92362 0.08530 0.13567
 N23 N 0.90304 0.04569 0.05267
 N24 N 0.85448 0.07563 0.06429
 N25 N 0.95860 -0.07087 0.10236
 N26 N 0.95176 -0.10625 0.14578
 Mn27 Mn 1.01577 -0.00517 0.10028
 C28 C 0.90052 -0.13349 0.13136
 C29 C 0.86801 0.10123 0.11544
 N30 N 1.12503 -0.07097 -0.05529
 N31 N 1.16614 -0.11258 -0.05875
 N32 N 1.06991 0.04238 -0.10685
 N33 N 1.07307 0.08114 -0.14832
 N34 N 1.11196 0.05086 -0.06680
 N35 N 1.14597 0.09477 -0.08066
 N36 N 1.08119 -0.07964 -0.09343
 N37 N 1.09055 -0.12720 -0.12340
 Mn38 Mn 1.12019 -0.00370 0.00067
 C39 C 1.14326 -0.14752 -0.10104
 C40 C 1.12064 0.11339 -0.13154
 N41 N 0.90285 0.03553 -0.07274
 N42 N 0.86178 0.07479 -0.09010
 N43 N 0.95411 -0.08940 -0.09777
 N44 N 0.94362 -0.13131 -0.13571
 N45 N 0.91208 -0.08710 -0.06063
 N46 N 0.87183 -0.12732 -0.07259
 N47 N 0.94421 0.03153 -0.11042
 N48 N 0.93289 0.06689 -0.15390
 Mn49 Mn 0.90744 -0.02017 -0.00437
 Mn50 Mn 1.01250 -0.02405 -0.10234
 Cl51 Cl 1.01374 -0.01309 -0.00122
 C52 C 0.88196 0.09391 -0.14086
 C53 C 0.89292 -0.15538 -0.11868
 N54 N 1.08484 0.57359 0.54888
 N55 N 1.12103 0.61756 0.55746
 N56 N 1.06273 0.45053 0.59728
 N57 N 1.08200 0.42223 0.64359
 N58 N 1.10402 0.45237 0.55922
 N59 N 1.15300 0.42488 0.57973
 N60 N 1.04664 0.57099 0.58964
 N61 N 1.05730 0.61251 0.62815
 C62 C 1.10310 0.64175 0.60652
 C63 C 1.13754 0.40548 0.63201
 N64 N 0.89812 0.42354 0.55358
 N65 N 0.85676 0.38776 0.56848
 N66 N 0.91878 0.55442 0.58777
 N67 N 0.89985 0.59127 0.62668
 N68 N 0.87656 0.54422 0.54824
 N69 N 0.82784 0.57408 0.55911
 N70 N 0.93621 0.43342 0.59688
 N71 N 0.92046 0.40451 0.64290
 Mn72 Mn 0.99120 0.50260 0.59324
 C73 C 0.87159 0.37502 0.62350
 C74 C 0.84337 0.60381 0.60757
 N75 N 1.10096 0.44550 0.43249
 N76 N 1.15149 0.42228 0.41563
 N77 N 1.03827 0.55990 0.38612
 N78 N 1.04712 0.59229 0.34065
 N79 N 1.08161 0.56659 0.42553
 N80 N 1.12043 0.60446 0.40777
 N81 N 1.05863 0.43983 0.39174
 N82 N 1.07948 0.41284 0.34697
 Mn83 Mn 1.09344 0.50923 0.49170
 C84 C 1.13668 0.40077 0.36288
 C85 C 1.09760 0.62092 0.35525
 N86 N 0.87271 0.53628 0.42609
 N87 N 0.82592 0.57046 0.41658
 N88 N 0.93292 0.42063 0.39134
 N89 N 0.93150 0.37387 0.35809
 N90 N 0.89544 0.41595 0.43230
 N91 N 0.86819 0.36561 0.42894
 N92 N 0.91087 0.54191 0.38589
 N93 N 0.89078 0.58073 0.34731
 Mn94 Mn 0.88560 0.47991 0.48990
 Mn95 Mn 0.98498 0.49080 0.38834
 Cl96 Cl 0.98914 0.49566 0.49080
 C97 C 0.83763 0.59784 0.36752
 C98 C 0.89124 0.33977 0.38268
 N99 N 0.58315 0.08862 0.56726
 N100 N 0.62352 0.12570 0.58820
 N101 N 0.56855 -0.03885 0.60836
 N102 N 0.59107 -0.07436 0.64898
 N103 N 0.60732 -0.03104 0.56884
 N104 N 0.65683 -0.06067 0.58124
 N105 N 0.54228 0.08109 0.60507
 N106 N 0.55305 0.11331 0.65091
 C107 C 0.60292 0.14162 0.63989
 C108 C 0.64612 -0.08765 0.63095
 N109 N 0.39925 -0.06847 0.56732
 N110 N 0.35935 -0.10516 0.58471
 N111 N 0.41767 0.05957 0.60329
 N112 N 0.39955 0.09876 0.64049
 N113 N 0.37685 0.05221 0.56191
 N114 N 0.32967 0.08533 0.56985
 N115 N 0.44150 -0.06155 0.60761
 N116 N 0.43048 -0.09311 0.65334
 Mn117 Mn 0.49259 0.00977 0.60632
 C118 C 0.38022 -0.12194 0.63763
 C119 C 0.34470 0.11459 0.61853
 N120 N 0.60324 -0.03570 0.44532
 N121 N 0.65364 -0.06159 0.43281
 N122 N 0.53805 0.07375 0.39886
 N123 N 0.54761 0.10449 0.35234
 N124 N 0.57966 0.08369 0.43942
 N125 N 0.61916 0.12022 0.42041
 N126 N 0.56129 -0.04659 0.40544
 N127 N 0.58258 -0.08031 0.36489
 Mn128 Mn 0.59345 0.02687 0.50522
 C129 C 0.63998 -0.09002 0.38329
 C130 C 0.59781 0.13362 0.36665
 N131 N 0.37288 0.04818 0.43846
 N132 N 0.32687 0.08361 0.42751
 N133 N 0.43276 -0.06798 0.40405
 N134 N 0.42306 -0.11005 0.36585
 N135 N 0.39561 -0.07239 0.44545
 N136 N 0.36122 -0.11779 0.43794
 N137 N 0.41211 0.05348 0.39901
 N138 N 0.39439 0.09332 0.36064
 Mn139 Mn 0.38593 -0.00996 0.50316
 Mn140 Mn 0.48597 0.00283 0.40132
 Cl141 Cl 0.48976 0.00749 0.50392
 C142 C 0.34119 0.11177 0.37914
 C143 C 0.37884 -0.14102 0.38857
 N144 N 0.43053 0.59491 -0.06555
 N145 N 0.41626 0.63163 -0.10769
 N146 N 0.39273 0.55087 0.05257
 N147 N 0.35511 0.55339 0.09440
 N148 N 0.42731 0.59645 0.05431
 N149 N 0.41477 0.63094 0.09734
 N150 N 0.39681 0.54877 -0.06866
 N151 N 0.35916 0.55239 -0.11409
 C152 C 0.37225 0.60435 -0.13799
 C153 C 0.36918 0.60407 0.12131
 N154 N 0.46256 0.39193 0.05942
 N155 N 0.45582 0.34822 0.09517
 N156 N 0.41745 0.42440 -0.06444
 N157 N 0.37643 0.40179 -0.09986
 N158 N 0.46471 0.38996 -0.06007
 N159 N 0.45630 0.34252 -0.09149
 N160 N 0.41484 0.42589 0.05640
 N161 N 0.37475 0.40644 0.09099
 Mn162 Mn 0.40476 0.48748 -0.00602
 C163 C 0.40146 0.35848 0.11538
 C164 C 0.40166 0.35128 -0.11705
 N165 N 0.55298 0.61679 0.06312
 N166 N 0.56006 0.66496 0.09339
 N167 N 0.60497 0.58123 -0.05159
 N168 N 0.64340 0.59836 -0.08908
 N169 N 0.55601 0.61321 -0.05650
 N170 N 0.55908 0.65196 -0.09783
 N171 N 0.60089 0.58321 0.06858
 N172 N 0.64147 0.60792 0.10328
 Mn173 Mn 0.49155 0.60552 -0.00115
 C174 C 0.61474 0.65834 0.11907
 C175 C 0.61361 0.64223 -0.11771
 N176 N 0.59102 0.41101 -0.05176
 N177 N 0.61262 0.37016 -0.08486
 N178 N 0.62257 0.45745 0.07198
 N179 N 0.66765 0.44884 0.10985
 N180 N 0.58942 0.41072 0.06796
 N181 N 0.61166 0.36912 0.10217
 N182 N 0.62700 0.45567 -0.04775
 N183 N 0.67474 0.44548 -0.07725
 Mn184 Mn 0.52701 0.40081 0.00382
 Mn185 Mn 0.61439 0.51949 0.01046
 Cl186 Cl 0.50950 0.50323 0.00193
 C187 C 0.66423 0.39257 -0.10099
 C188 C 0.65968 0.39380 0.12864
 N189 N 1.11069 0.22272 0.17006
 N190 N 1.14320 0.25660 0.20424
 C191 C 1.20147 0.24246 0.19983
 C192 C 1.20535 0.19681 0.16051
 C193 C 1.14683 0.18598 0.14294
 H194 H 1.24404 0.17093 0.15066
 H195 H 1.06419 0.22238 0.16834
 H196 H 1.12468 0.28585 0.23293
 N197 N 1.16501 0.72888 0.60527
 N198 N 1.20376 0.75503 0.64041
 C199 C 1.20088 0.73252 0.69401
 C200 C 1.15648 0.69043 0.69183
 C201 C 1.13578 0.68928 0.63487
 H202 H 1.14621 0.65910 0.72421
 H203 H 1.16177 0.73534 0.56082
 H204 H 1.23406 0.78502 0.62602
 N205 N 0.62274 0.16897 0.74152
 N206 N 0.66270 0.19738 0.77346
 C207 C 0.70151 0.22198 0.73891
 C208 C 0.68677 0.20572 0.68219
 C209 C 0.63608 0.17298 0.68593
 H210 H 0.71054 0.21495 0.64406
 H211 H 0.58818 0.14528 0.75805
 H212 H 0.66413 0.19823 0.81833
 N213 N 0.62807 0.76142 0.14952
 N214 N 0.66458 0.79148 0.18400
 C215 C 0.70405 0.75424 0.21053
 C216 C 0.69332 0.69823 0.18989
 C217 C 0.64443 0.70474 0.15229
 H218 H 0.71700 0.65815 0.20141
 H219 H 0.59315 0.77974 0.12397
 H220 H 0.66234 0.83670 0.18879
 N221 N 0.90218 -0.19186 0.21966
 N222 N 0.86384 -0.21609 0.25279
 C223 C 0.80907 -0.21399 0.22611
 C224 C 0.81327 -0.18584 0.17346
 C225 C 0.87304 -0.17266 0.17145
 H226 H 0.77738 -0.17225 0.14353
 H227 H 0.94695 -0.18546 0.23176
 H228 H 0.87504 -0.23020 0.29460
 N229 N 0.76863 0.36230 0.64968
 N230 N 0.73837 0.32967 0.68385
 C231 C 0.77678 0.29488 0.71468
 C232 C 0.83477 0.30822 0.70131
 C233 C 0.82703 0.35046 0.65929
 H234 H 0.87622 0.28919 0.71855
 H235 H 0.74934 0.39209 0.62007
 H236 H 0.69209 0.33139 0.68586
 N237 N 0.28908 -0.11398 0.68999
 N238 N 0.25379 -0.14823 0.71751
 C239 C 0.28082 -0.20072 0.72670
 C240 C 0.33626 -0.19955 0.70207
 C241 C 0.33931 -0.14353 0.67948
 H242 H 0.36640 -0.23590 0.69546
 H243 H 0.27677 -0.07252 0.67457
 H244 H 0.20957 -0.13735 0.72499
 N245 N 0.38122 0.25956 0.15261
 N246 N 0.34154 0.23507 0.18451
 C247 C 0.30637 0.27704 0.20640
 C248 C 0.32509 0.33077 0.18646
 C249 C 0.37171 0.31756 0.15239
 H250 H 0.30704 0.37388 0.19365
 H251 H 0.41234 0.23651 0.12928
 H252 H 0.33806 0.19009 0.18982
 N253 N 0.86464 0.13584 -0.23739
 N254 N 0.83381 0.17842 -0.26315
 C255 C 0.80278 0.20721 -0.22377
 C256 C 0.81253 0.17976 -0.17060
 C257 C 0.85256 0.13517 -0.18139
 H258 H 0.79306 0.19046 -0.13031
 H259 H 0.89279 0.10708 -0.25832
 H260 H 0.83310 0.18646 -0.30730
 N261 N 0.74767 0.66083 0.36688
 N262 N 0.72572 0.70656 0.33836
 C263 C 0.76219 0.71941 0.29603
 C264 C 0.80791 0.67773 0.29621
 C265 C 0.79787 0.64298 0.34272
 H266 H 0.84436 0.67385 0.26782
 H267 H 0.72916 0.64325 0.40316
 H268 H 0.68688 0.72885 0.34865
 N269 N 0.24250 0.15762 0.35458
 N270 N 0.21931 0.19662 0.31792
 C271 C 0.26302 0.21941 0.28753
 C272 C 0.31681 0.19301 0.30625
 C273 C 0.30148 0.15395 0.34823
 H274 H 0.36095 0.20068 0.29181
 H275 H 0.21790 0.13305 0.38243
 H276 H 0.17397 0.20719 0.31368
 N277 N 0.31171 0.60179 -0.23059
 N278 N 0.28060 0.63932 -0.26360
 C279 C 0.28671 0.69357 -0.24135
 C280 C 0.32585 0.69000 -0.19335
 C281 C 0.33931 0.63120 -0.18740
 H282 H 0.33724 0.72446 -0.16320
 H283 H 0.31239 0.55668 -0.23673
 H284 H 0.25379 0.62678 -0.29913
 N285 N 1.15219 -0.25001 -0.13198
 N286 N 1.17674 -0.27712 -0.17512
 C287 C 1.21312 -0.24007 -0.20093
 C288 C 1.21458 -0.18855 -0.16913
 C289 C 1.17454 -0.19616 -0.12712
 H290 H 1.23757 -0.14864 -0.17731
 H291 H 1.11828 -0.26717 -0.10836
 H292 H 1.16780 -0.32010 -0.18655
 N293 N 1.17572 0.40238 0.26662
 N294 N 1.20568 0.36660 0.23416
 C295 C 1.22904 0.32239 0.26682
 C296 C 1.21407 0.33217 0.32357
 C297 C 1.17926 0.38242 0.32089
 H298 H 1.22000 0.30300 0.35993
 H299 H 1.14890 0.43693 0.25074
 H300 H 1.20436 0.36913 0.18934
 N301 N 0.74398 -0.11265 0.36083
 N302 N 0.77332 -0.14694 0.32632
 C303 C 0.73415 -0.17680 0.29214
 C304 C 0.67670 -0.16034 0.30669
 C305 C 0.68532 -0.11975 0.35021
 H306 H 0.63478 -0.17839 0.29112
 H307 H 0.76415 -0.08584 0.39213
 H308 H 0.81956 -0.15110 0.32845
 N309 N 0.76621 0.36288 -0.12698
 N310 N 0.79021 0.32348 -0.16052
 C311 C 0.74634 0.29371 -0.18870
 C312 C 0.69201 0.31567 -0.17222
 C313 C 0.70672 0.35895 -0.13330
 H314 H 0.64774 0.30442 -0.18833
 H315 H 0.79027 0.39162 -0.10033
 H316 H 0.83588 0.31855 -0.16560
 N317 N 1.10438 0.19292 -0.20221
 N318 N 1.13611 0.22992 -0.23069
 C319 C 1.19420 0.22438 -0.21308
 C320 C 1.19882 0.18132 -0.17055
 C321 C 1.14084 0.16274 -0.16535
 H322 H 1.23848 0.16297 -0.14915
 H323 H 1.05860 0.18735 -0.20935
 H324 H 1.11804 0.25658 -0.26367
 N325 N 1.12199 0.64837 0.25639
 N326 N 1.16563 0.67446 0.23121
 C327 C 1.20387 0.69737 0.27167
 C328 C 1.18128 0.68581 0.32542
 C329 C 1.13076 0.65369 0.31356
 H330 H 1.19846 0.69725 0.36792
 H331 H 1.08828 0.62517 0.23455
 H332 H 1.16891 0.67605 0.18674
 N333 N 0.60668 0.22511 0.31195
 N334 N 0.64723 0.25182 0.28297
 C335 C 0.69535 0.21601 0.27828
 C336 C 0.68334 0.16346 0.30522
 C337 C 0.62755 0.17194 0.32702
 H338 H 0.71270 0.12589 0.31133
 H339 H 0.56659 0.24428 0.32353
 H340 H 0.64206 0.29488 0.26898
 N341 N 0.60092 0.69776 -0.20823
 N342 N 0.63425 0.72528 -0.24412
 C343 C 0.69157 0.72379 -0.22338
 C344 C 0.69437 0.69081 -0.17296
 C345 C 0.63611 0.67587 -0.16505
 H346 H 0.73305 0.67856 -0.14601
 H347 H 0.55501 0.69244 -0.21449
 H348 H 0.61740 0.74230 -0.28321
 N349 N 0.87111 -0.25705 -0.15081
 N350 N 0.83292 -0.28330 -0.18694
 C351 C 0.79692 -0.24271 -0.21337
 C352 C 0.81242 -0.18823 -0.19127
 C353 C 0.85957 -0.19936 -0.15234
 H354 H 0.79211 -0.14624 -0.20177
 H355 H 0.90396 -0.27851 -0.12512
 H356 H 0.83116 -0.32843 -0.19251
 N357 N 0.83681 0.24870 0.39008
 N358 N 0.79859 0.22062 0.35595
 C359 C 0.80359 0.23898 0.30118
 C360 C 0.85090 0.27769 0.30111
 C361 C 0.86766 0.28539 0.35854
 H362 H 0.86245 0.30551 0.26596
 H363 H 0.83666 0.24757 0.43491
 H364 H 0.76657 0.19373 0.37205
 N365 N 0.34000 -0.24056 0.39251
 N366 N 0.30345 -0.27598 0.35800
 C367 C 0.28870 -0.24706 0.30845
 C368 C 0.31787 -0.19333 0.31050
 C369 C 0.34943 -0.19170 0.36293
 H370 H 0.31668 -0.15943 0.27816
 H371 H 0.35651 -0.25086 0.43402
 H372 H 0.29599 -0.31980 0.36697
 N373 N 0.37723 0.24951 -0.14726
 N374 N 0.33471 0.22377 -0.17886
 C375 C 0.29861 0.26498 -0.20422
 C376 C 0.32001 0.31934 -0.18738
 C377 C 0.36900 0.30759 -0.15142
 H378 H 0.30268 0.36225 -0.19872
 H379 H 0.41005 0.22748 -0.12202
 H380 H 0.33104 0.17865 -0.18310
 N381 N 1.25766 -0.16778 0.14260
 N382 N 1.28515 -0.21079 0.17712
 C383 C 1.24550 -0.22911 0.21461
 C384 C 1.19246 -0.19610 0.20560
 C385 C 1.20193 -0.15919 0.15972
 H386 H 1.15201 -0.19941 0.22857
 H387 H 1.27765 -0.14676 0.10897
 H388 H 1.32921 -0.22503 0.17399
 N389 N 1.16990 0.39289 0.73294
 N390 N 1.19545 0.35175 0.76535
 C391 C 1.21986 0.31123 0.73142
 C392 C 1.20974 0.32849 0.67412
 C393 C 1.17703 0.37994 0.67736
 H394 H 1.21834 0.30407 0.63563
 H395 H 1.14387 0.42686 0.74870
 H396 H 1.19280 0.34965 0.80995
 N397 N 0.74360 -0.13861 0.63918
 N398 N 0.76894 -0.18205 0.66874
 C399 C 0.73158 -0.20032 0.70836
 C400 C 0.68103 -0.16412 0.70543
 C401 C 0.68982 -0.12733 0.65968
 H402 H 0.64218 -0.16516 0.73083
 H403 H 0.76209 -0.11876 0.60404
 H404 H 0.81026 -0.20056 0.66008
 N405 N 0.72469 0.38728 0.21756
 N406 N 0.74925 0.34567 0.25045
 C407 C 0.74343 0.29347 0.22348
 C408 C 0.71085 0.30324 0.17180
 C409 C 0.70017 0.36285 0.16994
 H410 H 0.69291 0.27130 0.14185
 H411 H 0.72057 0.43089 0.22991
 H412 H 0.76501 0.35302 0.29267
 N413 N 0.76408 0.13186 0.13345
 N414 N 0.73456 0.16458 0.16938
 C415 C 0.77327 0.18900 0.20805
 C416 C 0.83084 0.16973 0.19578
 C417 C 0.82274 0.13366 0.14789
 H418 H 0.87261 0.18147 0.21743
 H419 H 0.74399 0.10853 0.09941
 H420 H 0.68836 0.17040 0.16688
 N421 N 0.74290 0.64337 0.62393
 N422 N 0.71714 0.67841 0.66034
 C423 C 0.75823 0.69729 0.70017
 C424 C 0.81330 0.67315 0.68735
 C425 C 0.80116 0.63928 0.63900
 H426 H 0.85652 0.68106 0.70802
 H427 H 0.72080 0.62342 0.58884
 H428 H 0.67234 0.69066 0.65610
 N429 N 0.24484 0.15769 0.63083
 N430 N 0.21867 0.19298 0.66676
 C431 C 0.25971 0.21268 0.70610
 C432 C 0.31490 0.18843 0.69405
 C433 C 0.30305 0.15365 0.64651
 H434 H 0.35761 0.19439 0.71647
 H435 H 0.22269 0.13586 0.59693
 H436 H 0.17319 0.20302 0.66423
 N437 N 0.38125 0.63178 0.22246
 N438 N 0.35385 0.66610 0.25834
 C439 C 0.29925 0.68164 0.23498
 C440 C 0.29286 0.65439 0.18124
 C441 C 0.34573 0.62379 0.17536
 H442 H 0.25845 0.66197 0.14790
 H443 H 0.42556 0.61776 0.22843
 H444 H 0.37535 0.68104 0.29604
   
