data_POSCAR
  _audit_creation_date              2014-09-24
  _audit_creation_method            'ToBaCCo'
  _symmetry_space_group_name_H-M    'P1'
  _symmetry_Int_Tables_number       1
  _symmetry_cell_setting            triclinic
  loop_
  _symmetry_equiv_pos_as_xyz
 x,y,z
_cell_length_a 38.0739
_cell_length_b 28.0484
_cell_length_c 28.8558
_cell_angle_alpha 89.705100
_cell_angle_beta 90.408900
_cell_angle_gamma 90.124600
loop_
  _atom_site_label
  _atom_site_type_symbol
  _atom_site_fract_x
  _atom_site_fract_y
  _atom_site_fract_z
C1 C 1.24953 0.25763 0.25214
 C2 C 0.75046 -0.24065 0.25728
 C3 C 0.74787 0.24567 -0.24693
 C4 C 1.24688 -0.26002 -0.25097
 C5 C 0.24843 0.25562 0.75321
 C6 C 0.74931 0.75775 0.74621
 C7 C 0.75002 0.24079 0.25193
 C8 C 0.25026 0.74122 0.25272
 O9 O 1.05650 0.07458 0.08884
 O10 O 1.09297 0.03562 0.03891
 C11 C 1.08738 0.06437 0.07299
 O12 O 0.95610 -0.09655 0.07618
 O13 O 0.91712 -0.04609 0.04020
 C14 C 0.92430 -0.08263 0.06611
 O15 O 1.05544 -0.09045 0.07804
 O16 O 1.09227 -0.04340 0.03485
 C17 C 1.08659 -0.07597 0.06605
 O18 O 0.95939 0.08118 0.08918
 O19 O 0.91783 0.03929 0.04830
 C20 C 0.92723 0.07183 0.07792
 Zr21 Zr 1.00623 0.05207 0.06561
 O22 O 1.00465 0.03823 0.13783
 O23 O 1.00994 0.12576 0.07973
 Zr24 Zr 1.00526 -0.06734 0.05435
 O25 O 1.00345 -0.07660 0.12710
 O26 O 1.00943 -0.14195 0.04512
 O27 O 1.03746 -0.00829 0.06711
 O28 O 0.97522 -0.00823 0.07021
 O29 O 0.95074 0.09269 -0.06912
 O30 O 0.91453 0.04280 -0.02825
 C31 C 0.91977 0.07801 -0.05655
 O32 O 1.05003 -0.07529 -0.09330
 O33 O 1.08932 -0.03564 -0.04685
 C34 C 1.08191 -0.06396 -0.08084
 O35 O 0.95074 -0.07802 -0.08502
 O36 O 0.91433 -0.03742 -0.03589
 C37 C 0.91972 -0.06641 -0.06997
 O38 O 1.04924 0.09263 -0.07519
 O39 O 1.09002 0.04471 -0.03888
 C40 C 1.08130 0.08069 -0.06502
 Zr41 Zr 1.00120 0.06457 -0.05148
 O42 O 0.99816 0.06614 -0.12461
 O43 O 1.00300 0.13989 -0.04772
 Zr44 Zr 1.00149 -0.05520 -0.06233
 O45 O 0.99620 -0.04865 -0.13512
 O46 O 1.00463 -0.13035 -0.06744
 Zr47 Zr 1.05572 -0.00059 -0.00141
 Zr48 Zr 0.95149 -0.00109 0.00461
 O49 O 0.97061 0.00537 -0.06344
 O50 O 1.03251 0.00610 -0.06759
 O51 O 0.97292 0.06789 0.00971
 O52 O 1.03405 -0.06954 -0.00623
 O53 O 1.03367 0.06760 0.00617
 O54 O 0.97199 -0.07043 -0.00329
 H55 H 0.95967 -0.01047 0.09754
 H56 H 1.05021 -0.09699 -0.00918
 H57 H 0.95404 0.00824 -0.08993
 H58 H 1.04877 0.09632 0.00826
 H59 H 0.98825 -0.15257 0.02799
 H60 H 0.98384 -0.14393 -0.05176
 H61 H 1.01190 -0.02239 -0.14498
 H62 H 0.99736 0.10028 -0.13351
 H63 H 0.98563 0.14976 -0.02431
 H64 H 1.00431 0.14252 0.05042
 H65 H 1.02844 0.02818 0.14785
 H66 H 1.02060 -0.05410 0.14078
 O67 O 1.04887 0.56385 0.58938
 O68 O 1.08421 0.52380 0.53872
 C69 C 1.07950 0.55090 0.57444
 O70 O 0.94351 0.40198 0.56984
 O71 O 0.90664 0.45578 0.53453
 C72 C 0.91241 0.41869 0.56042
 O73 O 1.04286 0.39953 0.57041
 O74 O 1.08118 0.44560 0.52868
 C75 C 1.07444 0.41159 0.55769
 O76 O 0.94997 0.57680 0.58816
 O77 O 0.90961 0.53809 0.54259
 C78 C 0.91783 0.56816 0.57466
 Zr79 Zr 0.99807 0.54719 0.56332
 O80 O 0.99625 0.53303 0.63543
 O81 O 1.00142 0.62099 0.57773
 Zr82 Zr 0.99340 0.42768 0.54820
 O83 O 0.99528 0.41249 0.62011
 O84 O 0.99129 0.35427 0.53244
 O85 O 1.02715 0.48419 0.56327
 O86 O 0.96530 0.48859 0.56524
 O87 O 0.94787 0.59826 0.43355
 O88 O 0.90752 0.54863 0.46782
 C89 C 0.91599 0.58670 0.44464
 O90 O 1.03714 0.42509 0.39866
 O91 O 1.07895 0.45526 0.44821
 C92 C 1.06949 0.43274 0.41097
 O93 O 0.93892 0.42046 0.41237
 O94 O 0.90389 0.46594 0.45892
 C95 C 0.90839 0.43424 0.42709
 O96 O 1.04563 0.58509 0.42072
 O97 O 1.08281 0.53271 0.45775
 C98 C 1.07660 0.56736 0.42899
 Zr99 Zr 0.99595 0.56320 0.44673
 O100 O 0.99132 0.56885 0.37390
 O101 O 1.00300 0.63769 0.45351
 Zr102 Zr 0.99003 0.44389 0.43214
 O103 O 0.98306 0.45397 0.35994
 O104 O 0.99179 0.36917 0.42264
 Zr105 Zr 1.04641 0.49193 0.49522
 Zr106 Zr 0.94249 0.49951 0.49946
 O107 O 0.96215 0.50711 0.43205
 O108 O 1.02377 0.50248 0.42921
 O109 O 0.96661 0.56672 0.50724
 O110 O 1.02205 0.42504 0.48762
 O111 O 1.02791 0.56166 0.50477
 O112 O 0.96017 0.42902 0.49058
 H113 H 0.94952 0.48690 0.59233
 H114 H 1.03710 0.39666 0.48322
 H115 H 0.94507 0.51179 0.40637
 H116 H 1.04538 0.58779 0.50671
 H117 H 0.99234 0.33727 0.56260
 H118 H 0.97584 0.35473 0.44573
 H119 H 0.99885 0.48035 0.35064
 H120 H 0.99252 0.60338 0.36663
 H121 H 0.98923 0.64767 0.48074
 H122 H 1.01546 0.63619 0.55305
 H123 H 1.01630 0.51197 0.64324
 H124 H 0.98356 0.43894 0.63631
 O125 O 0.54157 0.09044 0.57942
 O126 O 0.57968 0.04947 0.53310
 C127 C 0.57310 0.07899 0.56621
 O128 O 0.44929 -0.08673 0.58420
 O129 O 0.40831 -0.04541 0.54152
 C130 C 0.41705 -0.07755 0.57164
 O131 O 0.54844 -0.07226 0.58442
 O132 O 0.58325 -0.02839 0.53539
 C133 C 0.57894 -0.05805 0.56957
 O134 O 0.44206 0.08756 0.57888
 O135 O 0.40472 0.03678 0.54040
 C136 C 0.41085 0.07113 0.56926
 Zr137 Zr 0.49190 0.06487 0.55473
 O138 O 0.49127 0.07024 0.62781
 O139 O 0.49035 0.13971 0.54651
 Zr140 Zr 0.49708 -0.05545 0.55990
 O141 O 0.49777 -0.04720 0.63263
 O142 O 0.49959 -0.13068 0.56633
 O143 O 0.52588 0.00755 0.56455
 O144 O 0.46419 0.00229 0.56708
 O145 O 0.43620 0.08391 0.41996
 O146 O 0.40169 0.03419 0.46369
 C147 C 0.40584 0.06825 0.43380
 O148 O 0.54357 -0.07991 0.41557
 O149 O 0.58080 -0.02966 0.45488
 C150 C 0.57449 -0.06248 0.42455
 O151 O 0.44638 -0.09538 0.42744
 O152 O 0.40609 -0.04961 0.46560
 C153 C 0.41456 -0.08549 0.43972
 O154 O 0.53428 0.08158 0.40444
 O155 O 0.57654 0.04793 0.45116
 C156 C 0.56675 0.07299 0.41546
 Zr157 Zr 0.48760 0.06036 0.43805
 O158 O 0.47949 0.06030 0.36547
 O159 O 0.48947 0.13579 0.43712
 Zr160 Zr 0.49390 -0.06010 0.44261
 O161 O 0.48686 -0.06112 0.36975
 O162 O 0.50115 -0.13482 0.44368
 Zr163 Zr 0.54455 0.00683 0.49597
 Zr164 Zr 0.44061 -0.00240 0.50108
 O165 O 0.45995 -0.00310 0.43309
 O166 O 0.52134 0.00248 0.42960
 O167 O 0.45806 0.06889 0.49781
 O168 O 0.52638 -0.06381 0.50012
 O169 O 0.52016 0.07397 0.49434
 O170 O 0.46505 -0.06970 0.50302
 H171 H 0.44919 0.00157 0.59499
 H172 H 0.54394 -0.08978 0.50001
 H173 H 0.44277 -0.00568 0.40725
 H174 H 0.53542 0.10257 0.49227
 H175 H 0.51959 -0.14219 0.54786
 H176 H 0.49063 -0.14669 0.47282
 H177 H 0.50742 -0.04515 0.35570
 H178 H 0.49406 0.03435 0.35286
 H179 H 0.47180 0.14717 0.45946
 H180 H 0.49107 0.15297 0.57826
 H181 H 0.50584 0.04379 0.64002
 H182 H 0.49909 -0.07985 0.64578
 O183 O 0.55259 0.58624 0.08742
 O184 O 0.59089 0.54485 0.04165
 C185 C 0.58419 0.57433 0.07485
 O186 O 0.45983 0.41047 0.08414
 O187 O 0.41814 0.45386 0.04482
 C188 C 0.42767 0.41986 0.07304
 O189 O 0.55660 0.42214 0.08770
 O190 O 0.59283 0.46628 0.04100
 C191 C 0.58743 0.43501 0.07338
 O192 O 0.45273 0.58825 0.08287
 O193 O 0.41546 0.53888 0.04267
 C194 C 0.42142 0.57364 0.07108
 Zr195 Zr 0.50287 0.56256 0.06174
 O196 O 0.50173 0.55834 0.13484
 O197 O 0.50490 0.63794 0.06289
 Zr198 Zr 0.50643 0.44270 0.06303
 O199 O 0.50370 0.44739 0.13615
 O200 O 0.51244 0.36794 0.06832
 O201 O 0.53613 0.50432 0.07043
 O202 O 0.47389 0.50089 0.07145
 O203 O 0.45018 0.58399 -0.07834
 O204 O 0.41411 0.53735 -0.03349
 C205 C 0.41930 0.56974 -0.06488
 O206 O 0.55360 0.41956 -0.08028
 O207 O 0.59128 0.46589 -0.03736
 C208 C 0.58488 0.43404 -0.06864
 O209 O 0.45443 0.41301 -0.07650
 O210 O 0.41603 0.45682 -0.03295
 C211 C 0.42294 0.42568 -0.06451
 O212 O 0.54961 0.58569 -0.08460
 O213 O 0.58900 0.54477 -0.03928
 C214 C 0.58151 0.57479 -0.07201
 Zr215 Zr 0.50106 0.56176 -0.05586
 O216 O 0.49623 0.56367 -0.12893
 O217 O 0.50289 0.63720 -0.05398
 Zr218 Zr 0.50396 0.44071 -0.05439
 O219 O 0.49957 0.43929 -0.12755
 O220 O 0.50897 0.36552 -0.05224
 Zr221 Zr 0.55537 0.50447 0.00226
 Zr222 Zr 0.45149 0.49891 0.00473
 O223 O 0.47220 0.49971 -0.06286
 O224 O 0.53348 0.50266 -0.06497
 O225 O 0.47048 0.56967 0.00335
 O226 O 0.53560 0.43441 0.00371
 O227 O 0.53222 0.57243 0.00223
 O228 O 0.47431 0.43053 0.00515
 H229 H 0.45794 0.49999 0.09844
 H230 H 0.55194 0.40696 0.00387
 H231 H 0.45626 0.49889 -0.09014
 H232 H 0.54779 0.60077 0.00174
 H233 H 0.50056 0.35402 0.04099
 H234 H 0.48794 0.35253 -0.03661
 H235 H 0.51872 0.45928 -0.14015
 H236 H 0.51304 0.54021 -0.14129
 H237 H 0.48078 0.64828 -0.03987
 H238 H 0.48759 0.64949 0.03975
 H239 H 0.50126 0.59172 0.14589
 H240 H 0.52317 0.46828 0.14657
 C241 C 1.17822 0.18552 0.18646
 C242 C 1.19588 0.17275 0.14723
 C243 C 1.22915 0.18903 0.13704
 C244 C 1.24576 0.21818 0.16954
 C245 C 1.22987 0.22919 0.21316
 C246 C 1.19433 0.21439 0.21966
 O247 O 1.14624 0.16664 0.18869
 C248 C 1.14406 0.14122 0.15003
 C249 C 1.17392 0.14366 0.12370
 C250 C 1.17789 0.11932 0.08233
 C251 C 1.14956 0.09172 0.06692
 C252 C 1.11795 0.08947 0.09268
 C253 C 1.11532 0.11437 0.13511
 H254 H 1.24192 0.17983 0.10490
 H255 H 1.27095 0.23161 0.15911
 H256 H 1.18019 0.22331 0.25086
 H257 H 1.20186 0.12171 0.06250
 H258 H 1.15199 0.07328 0.03422
 H259 H 1.09157 0.11339 0.15553
 C260 C 1.17486 0.65702 0.69683
 C261 C 1.19408 0.63591 0.66248
 C262 C 1.22949 0.64459 0.65617
 C263 C 1.24559 0.67769 0.68540
 C264 C 1.22634 0.70265 0.72005
 C265 C 1.19075 0.68914 0.72760
 O266 O 1.14101 0.64528 0.69507
 C267 C 1.13903 0.61648 0.65862
 C268 C 1.17093 0.60930 0.63789
 C269 C 1.17501 0.58195 0.59833
 C270 C 1.14481 0.56164 0.57869
 C271 C 1.11121 0.56939 0.59840
 C272 C 1.10847 0.59676 0.63948
 H273 H 1.24410 0.62726 0.62900
 H274 H 1.27324 0.68487 0.68028
 H275 H 1.17565 0.70264 0.75615
 H276 H 1.20047 0.57721 0.58258
 H277 H 1.14763 0.54098 0.54734
 H278 H 1.08331 0.60366 0.65532
 C279 C 0.67205 0.19161 0.67904
 C280 C 0.68823 0.15085 0.66421
 C281 C 0.72261 0.13944 0.67545
 C282 C 0.74101 0.17076 0.70425
 C283 C 0.72490 0.21248 0.72255
 C284 C 0.69023 0.22406 0.70711
 O285 O 0.63897 0.19525 0.66402
 C286 C 0.63436 0.15573 0.63931
 C287 C 0.66397 0.12778 0.63822
 C288 C 0.66567 0.08513 0.61440
 C289 C 0.63553 0.07032 0.59066
 C290 C 0.60418 0.09780 0.59130
 C291 C 0.60357 0.14126 0.61625
 H292 H 0.73492 0.10747 0.66246
 H293 H 0.76810 0.16237 0.71245
 H294 H 0.67768 0.25724 0.71602
 H295 H 0.68936 0.06387 0.61417
 H296 H 0.63659 0.03680 0.57230
 H297 H 0.58014 0.16302 0.61737
 C298 C 0.67675 0.68801 0.19495
 C299 C 0.69606 0.65175 0.17625
 C300 C 0.73192 0.64700 0.18380
 C301 C 0.74859 0.68111 0.21175
 C302 C 0.72949 0.71897 0.23277
 C303 C 0.69278 0.72240 0.22277
 O304 O 0.64323 0.68738 0.18172
 C305 C 0.64138 0.64978 0.15401
 C306 C 0.67308 0.62695 0.14935
 C307 C 0.67756 0.58789 0.12067
 C308 C 0.64811 0.57140 0.09607
 C309 C 0.61483 0.59386 0.10051
 C310 C 0.61154 0.63372 0.13012
 H311 H 0.74675 0.61875 0.16773
 H312 H 0.77681 0.67889 0.21614
 H313 H 0.67699 0.75219 0.23350
 H314 H 0.70285 0.57077 0.11723
 H315 H 0.65129 0.54069 0.07390
 H316 H 0.58670 0.65191 0.13412
 C317 C 0.82783 -0.19514 0.18147
 C318 C 0.80919 -0.17386 0.14620
 C319 C 0.77283 -0.17479 0.14348
 C320 C 0.75473 -0.19769 0.17926
 C321 C 0.77283 -0.21876 0.21768
 C322 C 0.81035 -0.21897 0.21723
 O323 O 0.86232 -0.18779 0.17844
 C324 C 0.86534 -0.16096 0.14051
 C325 C 0.83347 -0.15173 0.11962
 C326 C 0.82979 -0.12235 0.08120
 C327 C 0.86013 -0.10096 0.06377
 C328 C 0.89360 -0.10913 0.08453
 C329 C 0.89625 -0.14033 0.12326
 H330 H 0.75880 -0.15748 0.11533
 H331 H 0.72630 -0.19760 0.17802
 H332 H 0.82588 -0.23614 0.24391
 H333 H 0.80432 -0.11515 0.06583
 H334 H 0.85728 -0.07717 0.03446
 H335 H 0.92118 -0.14676 0.14042
 C336 C 0.81811 0.29681 0.66932
 C337 C 0.79942 0.33426 0.65090
 C338 C 0.76479 0.34334 0.66183
 C339 C 0.74896 0.31353 0.69440
 C340 C 0.76776 0.27550 0.71641
 C341 C 0.80236 0.26536 0.70083
 O342 O 0.85143 0.29641 0.65565
 C343 C 0.85358 0.33467 0.62829
 C344 C 0.82225 0.35855 0.62404
 C345 C 0.81833 0.40026 0.59860
 C346 C 0.84810 0.41873 0.57690
 C347 C 0.88123 0.39576 0.58134
 C348 C 0.88386 0.35266 0.60714
 H349 H 0.75064 0.37301 0.64659
 H350 H 0.72196 0.32084 0.70334
 H351 H 0.81683 0.23453 0.71272
 H352 H 0.79333 0.41846 0.59621
 H353 H 0.84531 0.45173 0.55759
 H354 H 0.90869 0.33439 0.61148
 C355 C 0.31998 -0.18360 0.69164
 C356 C 0.30393 -0.17392 0.64995
 C357 C 0.26965 -0.18690 0.63981
 C358 C 0.25153 -0.21314 0.67324
 C359 C 0.26808 -0.22788 0.71549
 C360 C 0.30209 -0.20918 0.72595
 O361 O 0.35287 -0.16741 0.69388
 C362 C 0.35757 -0.14747 0.65241
 C363 C 0.32822 -0.15062 0.62451
 C364 C 0.32680 -0.13286 0.57970
 C365 C 0.35676 -0.11012 0.56288
 C366 C 0.38749 -0.10537 0.59079
 C367 C 0.38810 -0.12498 0.63618
 H368 H 0.25733 -0.17750 0.60711
 H369 H 0.22465 -0.22315 0.66555
 H370 H 0.31471 -0.21493 0.75915
 H371 H 0.30340 -0.13624 0.55843
 H372 H 0.35586 -0.09595 0.52790
 H373 H 0.41106 -0.12175 0.65829
 C374 C 0.31688 0.33754 0.18770
 C375 C 0.34157 0.30367 0.17780
 C376 C 0.34091 0.25795 0.19586
 C377 C 0.31231 0.24540 0.22320
 C378 C 0.28418 0.27805 0.23152
 C379 C 0.28795 0.32594 0.21521
 O380 O 0.32307 0.37915 0.16676
 C381 C 0.35210 0.37077 0.14269
 C382 C 0.36397 0.32478 0.14811
 C383 C 0.39311 0.30707 0.12565
 C384 C 0.41195 0.33868 0.09792
 C385 C 0.40182 0.38721 0.09360
 C386 C 0.37077 0.40339 0.11517
 H387 H 0.36103 0.23218 0.18772
 H388 H 0.31051 0.20858 0.23440
 H389 H 0.26869 0.35321 0.22147
 H390 H 0.40146 0.27045 0.13001
 H391 H 0.43547 0.32580 0.08123
 H392 H 0.36269 0.44031 0.11278
 C393 C 0.82197 0.19459 -0.16760
 C394 C 0.80399 0.15754 -0.14747
 C395 C 0.76893 0.14814 -0.15656
 C396 C 0.75177 0.17734 -0.18879
 C397 C 0.76964 0.21503 -0.21241
 C398 C 0.80497 0.22533 -0.19892
 O399 O 0.85568 0.19592 -0.15493
 C400 C 0.85882 0.15869 -0.12635
 C401 C 0.82771 0.13456 -0.12041
 C402 C 0.82461 0.09415 -0.09290
 C403 C 0.85498 0.07721 -0.07097
 C404 C 0.88795 0.10030 -0.07717
 C405 C 0.88974 0.14212 -0.10506
 H406 H 0.75529 0.11896 -0.13977
 H407 H 0.72427 0.17026 -0.19569
 H408 H 0.81894 0.25613 -0.21183
 H409 H 0.79976 0.07579 -0.08904
 H410 H 0.85277 0.04509 -0.05020
 H411 H 0.91439 0.16045 -0.11081
 C412 C 0.80037 0.67996 0.34678
 C413 C 0.82076 0.71402 0.36790
 C414 C 0.81828 0.76213 0.35736
 C415 C 0.79452 0.77572 0.32259
 C416 C 0.77371 0.74148 0.29820
 C417 C 0.77565 0.69286 0.31288
 O418 O 0.80932 0.63574 0.35889
 C419 C 0.83616 0.64221 0.38799
 C420 C 0.84393 0.68962 0.39478
 C421 C 0.87286 0.70496 0.42023
 C422 C 0.89531 0.67008 0.43845
 C423 C 0.88854 0.62096 0.43111
 C424 C 0.85798 0.60664 0.40661
 H425 H 0.83507 0.78820 0.37402
 H426 H 0.79357 0.81303 0.31304
 H427 H 0.75958 0.66518 0.29784
 H428 H 0.87877 0.74248 0.42423
 H429 H 0.91871 0.68130 0.45702
 H430 H 0.85287 0.56942 0.39938
 C431 C 0.30480 0.19990 0.34929
 C432 C 0.28941 0.15581 0.35303
 C433 C 0.25842 0.14411 0.33038
 C434 C 0.24378 0.17809 0.30027
 C435 C 0.25980 0.22378 0.29339
 C436 C 0.28931 0.23548 0.32208
 O437 O 0.33670 0.20164 0.36823
 C438 C 0.34146 0.15755 0.38411
 C439 C 0.31299 0.12834 0.37628
 C440 C 0.31299 0.08003 0.38725
 C441 C 0.34359 0.06097 0.40716
 C442 C 0.37372 0.08993 0.41437
 C443 C 0.37254 0.13905 0.40292
 H444 H 0.24713 0.10876 0.33326
 H445 H 0.22099 0.16656 0.28135
 H446 H 0.30241 0.26964 0.31908
 H447 H 0.29043 0.05764 0.38007
 H448 H 0.34418 0.02333 0.41570
 H449 H 0.39521 0.16190 0.40791
 C450 C 0.32093 0.66764 -0.19020
 C451 C 0.30293 0.65136 -0.15220
 C452 C 0.26753 0.65988 -0.14552
 C453 C 0.25015 0.68793 -0.17857
 C454 C 0.26818 0.70777 -0.21740
 C455 C 0.30378 0.69434 -0.22449
 O456 O 0.35486 0.65652 -0.18892
 C457 C 0.35821 0.63290 -0.14907
 C458 C 0.32704 0.62845 -0.12568
 C459 C 0.32419 0.60529 -0.08331
 C460 C 0.35482 0.58597 -0.06402
 C461 C 0.38766 0.59080 -0.08666
 C462 C 0.38929 0.61460 -0.13005
 H463 H 0.25387 0.64616 -0.11549
 H464 H 0.22252 0.69512 -0.17346
 H465 H 0.31805 0.70420 -0.25529
 H466 H 0.29927 0.60217 -0.06572
 H467 H 0.35289 0.56747 -0.03122
 H468 H 0.41382 0.61849 -0.14846
 C469 C 1.17504 -0.17650 -0.20044
 C470 C 1.19398 -0.15718 -0.16452
 C471 C 1.22893 -0.16746 -0.15616
 C472 C 1.24499 -0.20038 -0.18510
 C473 C 1.22622 -0.22340 -0.22179
 C474 C 1.19109 -0.20826 -0.23124
 O475 O 1.14145 -0.16300 -0.20038
 C476 C 1.13946 -0.13476 -0.16342
 C477 C 1.17117 -0.12983 -0.14094
 C478 C 1.17569 -0.10307 -0.10117
 C479 C 1.14617 -0.08070 -0.08309
 C480 C 1.11251 -0.08573 -0.10434
 C481 C 1.10921 -0.11303 -0.14557
 H482 H 1.24325 -0.15141 -0.12768
 H483 H 1.27229 -0.20860 -0.17824
 H484 H 1.17656 -0.22032 -0.26124
 H485 H 1.20103 -0.10008 -0.08417
 H486 H 1.14966 -0.06045 -0.05154
 H487 H 1.08401 -0.11788 -0.16253
 C488 C 1.18973 0.33705 0.32751
 C489 C 1.17163 0.36115 0.29342
 C490 C 1.17910 0.35653 0.24672
 C491 C 1.20581 0.32492 0.23443
 C492 C 1.22463 0.29780 0.26848
 C493 C 1.21655 0.30530 0.31610
 O494 O 1.17704 0.34462 0.36967
 C495 C 1.15015 0.37381 0.36184
 C496 C 1.14570 0.38475 0.31563
 C497 C 1.11756 0.41138 0.29891
 C498 C 1.09282 0.42714 0.33107
 C499 C 1.09685 0.41671 0.37893
 C500 C 1.12625 0.39029 0.39474
 H501 H 1.16419 0.37555 0.22049
 H502 H 1.21106 0.32011 0.19791
 H503 H 1.22933 0.28574 0.34377
 H504 H 1.11428 0.41870 0.26227
 H505 H 1.07041 0.44742 0.31876
 H506 H 1.12949 0.38116 0.43103
 C507 C 0.67832 -0.17971 0.32942
 C508 C 0.68555 -0.13247 0.32119
 C509 C 0.71293 -0.11733 0.29345
 C510 C 0.73343 -0.15225 0.27238
 C511 C 0.72645 -0.20201 0.27886
 C512 C 0.69926 -0.21527 0.31012
 O513 O 0.65035 -0.18619 0.35609
 C514 C 0.63992 -0.14194 0.36492
 C515 C 0.66099 -0.10785 0.34481
 C516 C 0.65565 -0.05922 0.35025
 C517 C 0.62727 -0.04503 0.37747
 C518 C 0.60448 -0.07930 0.39747
 C519 C 0.61079 -0.12853 0.39108
 H520 H 0.71835 -0.07981 0.28812
 H521 H 0.75536 -0.13975 0.25207
 H522 H 0.69404 -0.25237 0.31808
 H523 H 0.67279 -0.03314 0.33431
 H524 H 0.62265 -0.00734 0.38233
 H525 H 0.59389 -0.15529 0.40644
 C526 C 0.67830 0.30726 -0.17054
 C527 C 0.69680 0.34723 -0.15770
 C528 C 0.73148 0.35489 -0.16971
 C529 C 0.74743 0.32084 -0.19771
 C530 C 0.72854 0.28024 -0.21435
 C531 C 0.69403 0.27209 -0.19746
 O532 O 0.64524 0.30770 -0.15613
 C533 C 0.64294 0.34900 -0.13400
 C534 C 0.67391 0.37426 -0.13373
 C535 C 0.67754 0.41862 -0.11310
 C536 C 0.64793 0.43787 -0.09172
 C537 C 0.61545 0.41288 -0.09179
 C538 C 0.61297 0.36772 -0.11336
 H539 H 0.74563 0.38635 -0.15853
 H540 H 0.77452 0.32671 -0.20739
 H541 H 0.67951 0.23995 -0.20523
 H542 H 0.70222 0.43783 -0.11362
 H543 H 0.65027 0.47252 -0.07558
 H544 H 0.58862 0.34772 -0.11383
 C545 C 1.19742 0.17415 -0.16112
 C546 C 1.17744 0.20788 -0.13943
 C547 C 1.18069 0.25629 -0.14810
 C548 C 1.20475 0.27062 -0.18176
 C549 C 1.22505 0.23682 -0.20688
 C550 C 1.22247 0.18776 -0.19386
 O551 O 1.18781 0.12972 -0.15068
 C552 C 1.16093 0.13576 -0.12212
 C553 C 1.15383 0.18310 -0.11407
 C554 C 1.12519 0.19835 -0.08876
 C555 C 1.10241 0.16346 -0.07173
 C556 C 1.10852 0.11442 -0.08011
 C557 C 1.13871 0.10006 -0.10469
 H558 H 1.16424 0.28208 -0.13093
 H559 H 1.20625 0.30822 -0.19001
 H560 H 1.23824 0.16033 -0.20940
 H561 H 1.11988 0.23585 -0.08368
 H562 H 1.07943 0.17468 -0.05275
 H563 H 1.14345 0.06287 -0.11231
 C564 C 1.17896 0.68446 0.32769
 C565 C 1.18681 0.63712 0.32258
 C566 C 1.21438 0.62109 0.29612
 C567 C 1.23453 0.65507 0.27290
 C568 C 1.22710 0.70530 0.27544
 C569 C 1.19959 0.71950 0.30607
 O570 O 1.15083 0.69144 0.35402
 C571 C 1.14106 0.64735 0.36570
 C572 C 1.16271 0.61306 0.34771
 C573 C 1.15831 0.56463 0.35597
 C574 C 1.13020 0.55071 0.38385
 C575 C 1.10666 0.58490 0.40191
 C576 C 1.11207 0.63409 0.39266
 H577 H 1.22032 0.58348 0.29348
 H578 H 1.25674 0.64137 0.25406
 H579 H 1.19392 0.75679 0.31191
 H580 H 1.17592 0.53847 0.34152
 H581 H 1.12629 0.51307 0.39052
 H582 H 1.09455 0.66087 0.40627
 C583 C 0.68867 0.16465 0.32940
 C584 C 0.66973 0.14114 0.29588
 C585 C 0.67739 0.14454 0.24908
 C586 C 0.70507 0.17452 0.23601
 C587 C 0.72457 0.20142 0.26935
 C588 C 0.71644 0.19487 0.31719
 O589 O 0.67586 0.15818 0.37178
 C590 C 0.64802 0.13036 0.36464
 C591 C 0.64308 0.11927 0.31865
 C592 C 0.61411 0.09391 0.30257
 C593 C 0.58913 0.07941 0.33518
 C594 C 0.59375 0.08966 0.38289
 C595 C 0.62389 0.11500 0.39803
 H596 H 0.66190 0.12586 0.22332
 H597 H 0.71041 0.17856 0.19938
 H598 H 0.72990 0.21421 0.34433
 H599 H 0.61049 0.08642 0.26609
 H600 H 0.56624 0.05979 0.32338
 H601 H 0.62769 0.12380 0.43422
 C602 C 0.67675 0.67900 -0.19723
 C603 C 0.69490 0.66374 -0.15870
 C604 C 0.72994 0.67418 -0.15082
 C605 C 0.74679 0.70346 -0.18296
 C606 C 0.72857 0.72310 -0.22206
 C607 C 0.69352 0.70720 -0.23083
 O608 O 0.64310 0.66564 -0.19682
 C609 C 0.64021 0.64176 -0.15694
 C610 C 0.67141 0.63948 -0.13280
 C611 C 0.67492 0.61732 -0.09003
 C612 C 0.64500 0.59641 -0.07100
 C613 C 0.61204 0.59806 -0.09452
 C614 C 0.60962 0.62130 -0.13832
 H615 H 0.74372 0.66099 -0.12044
 H616 H 0.77414 0.71192 -0.17658
 H617 H 0.67945 0.71660 -0.26219
 H618 H 0.69983 0.61643 -0.07173
 H619 H 0.64764 0.57934 -0.03741
 H620 H 0.58497 0.62327 -0.15714
 C621 C 0.82315 -0.16715 -0.19554
 C622 C 0.80431 -0.14758 -0.16002
 C623 C 0.76861 -0.15470 -0.15459
 C624 C 0.75173 -0.18476 -0.18612
 C625 C 0.77045 -0.20775 -0.22243
 C626 C 0.80649 -0.19576 -0.22870
 O627 O 0.85730 -0.15722 -0.19290
 C628 C 0.85985 -0.13098 -0.15473
 C629 C 0.82801 -0.12368 -0.13384
 C630 C 0.82420 -0.09745 -0.09362
 C631 C 0.85458 -0.07816 -0.07365
 C632 C 0.88818 -0.08636 -0.09322
 C633 C 0.89072 -0.11289 -0.13482
 H634 H 0.75436 -0.13861 -0.12639
 H635 H 0.72391 -0.19114 -0.18160
 H636 H 0.82142 -0.20799 -0.25795
 H637 H 0.79872 -0.09197 -0.07814
 H638 H 0.85172 -0.05692 -0.04278
 H639 H 0.91580 -0.11942 -0.15102
 C640 C 0.80769 0.30037 0.34538
 C641 C 0.79177 0.34393 0.34950
 C642 C 0.75970 0.35430 0.32897
 C643 C 0.74450 0.31963 0.30032
 C644 C 0.76121 0.27475 0.29249
 C645 C 0.79181 0.26412 0.31963
 O646 O 0.84014 0.29969 0.36269
 C647 C 0.84471 0.34394 0.37789
 C648 C 0.81563 0.37222 0.37123
 C649 C 0.81514 0.42042 0.38222
 C650 C 0.84586 0.44030 0.40108
 C651 C 0.87653 0.41228 0.40720
 C652 C 0.87588 0.36330 0.39555
 H653 H 0.74779 0.38910 0.33246
 H654 H 0.72057 0.32995 0.28329
 H655 H 0.80528 0.23036 0.31646
 H656 H 0.79205 0.44206 0.37609
 H657 H 0.84602 0.47776 0.40999
 H658 H 0.89891 0.34109 0.40000
 C659 C 0.29974 -0.17960 0.33990
 C660 C 0.32093 -0.21332 0.36018
 C661 C 0.31918 -0.26119 0.34919
 C662 C 0.29530 -0.27499 0.31481
 C663 C 0.27328 -0.24127 0.29088
 C664 C 0.27460 -0.19279 0.30653
 O665 O 0.30807 -0.13534 0.35263
 C666 C 0.33530 -0.14156 0.38129
 C667 C 0.34385 -0.18885 0.38720
 C668 C 0.37295 -0.20399 0.41244
 C669 C 0.39481 -0.16897 0.43146
 C670 C 0.38740 -0.11986 0.42507
 C671 C 0.35664 -0.10577 0.40064
 H672 H 0.33659 -0.28695 0.36528
 H673 H 0.29527 -0.31219 0.30525
 H674 H 0.25760 -0.16533 0.29280
 H675 H 0.37938 -0.24142 0.41585
 H676 H 0.41829 -0.18005 0.45000
 H677 H 0.35098 -0.06851 0.39421
 C678 C 0.32065 0.31203 -0.16966
 C679 C 0.31365 0.35962 -0.17574
 C680 C 0.28700 0.37639 -0.20427
 C681 C 0.26675 0.34282 -0.22816
 C682 C 0.27312 0.29275 -0.22348
 C683 C 0.29990 0.27766 -0.19185
 O684 O 0.34805 0.30411 -0.14175
 C685 C 0.35829 0.34782 -0.12990
 C686 C 0.33760 0.38285 -0.14934
 C687 C 0.34259 0.43107 -0.14099
 C688 C 0.37036 0.44393 -0.11165
 C689 C 0.39295 0.40886 -0.09227
 C690 C 0.38696 0.35997 -0.10151
 H691 H 0.28187 0.41417 -0.20798
 H692 H 0.24532 0.35654 -0.24898
 H693 H 0.30469 0.24017 -0.18540
 H694 H 0.32569 0.45785 -0.15645
 H695 H 0.37490 0.48144 -0.10501
 H696 H 0.40385 0.33265 -0.08699
 C697 C 1.17853 -0.18997 0.18753
 C698 C 1.19812 -0.15381 0.16865
 C699 C 1.23378 -0.14872 0.17740
 C700 C 1.24995 -0.18230 0.20672
 C701 C 1.23061 -0.22030 0.22832
 C702 C 1.19401 -0.22394 0.21667
 O703 O 1.14523 -0.18965 0.17333
 C704 C 1.14381 -0.15235 0.14484
 C705 C 1.17555 -0.12936 0.14054
 C706 C 1.18027 -0.09026 0.11142
 C707 C 1.15097 -0.07375 0.08627
 C708 C 1.11761 -0.09622 0.09063
 C709 C 1.11422 -0.13637 0.12037
 H710 H 1.24891 -0.12059 0.16119
 H711 H 1.27811 -0.17961 0.21167
 H712 H 1.17787 -0.25373 0.22711
 H713 H 1.20558 -0.07294 0.10830
 H714 H 1.15426 -0.04287 0.06403
 H715 H 1.08931 -0.15454 0.12453
 C716 C 1.17144 0.30326 0.67687
 C717 C 1.19013 0.32447 0.64188
 C718 C 1.22650 0.32377 0.64003
 C719 C 1.24451 0.30093 0.67624
 C720 C 1.22629 0.27932 0.71401
 C721 C 1.18879 0.27933 0.71288
 O722 O 1.13696 0.31006 0.67295
 C723 C 1.13395 0.33635 0.63466
 C724 C 1.16580 0.34577 0.61433
 C725 C 1.16928 0.37389 0.57500
 C726 C 1.13874 0.39390 0.55613
 C727 C 1.10537 0.38594 0.57679
 C728 C 1.10296 0.35595 0.61635
 H729 H 1.24059 0.34099 0.61210
 H730 H 1.27294 0.30088 0.67554
 H731 H 1.17314 0.26182 0.73897
 H732 H 1.19470 0.38092 0.55983
 H733 H 1.14138 0.41637 0.52571
 H734 H 1.07810 0.34952 0.63326
 C735 C 0.67641 -0.16263 0.69107
 C736 C 0.69485 -0.14362 0.65463
 C737 C 0.73010 -0.15275 0.64749
 C738 C 0.74682 -0.18410 0.67825
 C739 C 0.72829 -0.20697 0.71513
 C740 C 0.69289 -0.19302 0.72310
 O741 O 0.64267 -0.15045 0.69036
 C742 C 0.63991 -0.12345 0.65247
 C743 C 0.67124 -0.11787 0.62972
 C744 C 0.67445 -0.09214 0.58873
 C745 C 0.64396 -0.07172 0.56991
 C746 C 0.61095 -0.07765 0.59193
 C747 C 0.60908 -0.10363 0.63419
 H748 H 0.74415 -0.13690 0.61878
 H749 H 0.77438 -0.19145 0.67277
 H750 H 0.67836 -0.20486 0.75300
 H751 H 0.69945 -0.08855 0.57142
 H752 H 0.64606 -0.05224 0.53755
 H753 H 0.58438 -0.10897 0.65185
 C754 C 0.67885 0.31392 0.18658
 C755 C 0.69652 0.32746 0.14744
 C756 C 0.72971 0.31127 0.13709
 C757 C 0.74623 0.28143 0.16934
 C758 C 0.73039 0.26973 0.21297
 C759 C 0.69490 0.28451 0.21958
 O760 O 0.64684 0.33245 0.18887
 C761 C 0.64462 0.35845 0.15035
 C762 C 0.67451 0.35677 0.12404
 C763 C 0.67836 0.38176 0.08272
 C764 C 0.64987 0.40915 0.06735
 C765 C 0.61822 0.41042 0.09305
 C766 C 0.61574 0.38498 0.13544
 H767 H 0.74245 0.32095 0.10495
 H768 H 0.77125 0.26799 0.15863
 H769 H 0.68067 0.27502 0.25066
 H770 H 0.70233 0.37997 0.06287
 H771 H 0.65212 0.42805 0.03468
 H772 H 0.59196 0.38528 0.15581
 C773 C 0.81623 0.15791 0.18943
 C774 C 0.84134 0.19111 0.17845
 C775 C 0.84108 0.23738 0.19460
 C776 C 0.81258 0.25118 0.22130
 C777 C 0.78407 0.21928 0.23087
 C778 C 0.78728 0.17084 0.21628
 O779 O 0.82224 0.11553 0.17027
 C780 C 0.85157 0.12276 0.14627
 C781 C 0.86377 0.16879 0.15001
 C782 C 0.89316 0.18561 0.12726
 C783 C 0.91188 0.15314 0.10088
 C784 C 0.90151 0.10455 0.09825
 C785 C 0.87023 0.08914 0.12017
 H786 H 0.86152 0.26258 0.18563
 H787 H 0.81124 0.28831 0.23119
 H788 H 0.76769 0.14411 0.22359
 H789 H 0.90169 0.22230 0.13025
 H790 H 0.93546 0.16553 0.08373
 H791 H 0.86187 0.05225 0.11889
 C792 C 0.82169 0.67762 0.69273
 C793 C 0.80498 0.66519 0.65230
 C794 C 0.77065 0.67769 0.64205
 C795 C 0.75313 0.70624 0.67384
 C796 C 0.77025 0.72366 0.71459
 C797 C 0.80432 0.70545 0.72562
 O798 O 0.85467 0.66175 0.69504
 C799 C 0.85867 0.63916 0.65488
 C800 C 0.82879 0.64033 0.62787
 C801 C 0.82658 0.62002 0.58436
 C802 C 0.85634 0.59703 0.56779
 C803 C 0.88784 0.59453 0.59458
 C804 C 0.88911 0.61640 0.63885
 H805 H 0.75784 0.66626 0.61038
 H806 H 0.72620 0.71579 0.66599
 H807 H 0.81726 0.71298 0.75822
 H808 H 0.80276 0.62195 0.56373
 H809 H 0.85471 0.58136 0.53362
 H810 H 0.91266 0.61527 0.66007
 C811 C 0.32034 0.18468 0.68932
 C812 C 0.30028 0.14960 0.66929
 C813 C 0.26442 0.14551 0.67637
 C814 C 0.24855 0.17909 0.70523
 C815 C 0.26849 0.21562 0.72767
 C816 C 0.30516 0.21843 0.71820
 O817 O 0.35374 0.18359 0.67640
 C818 C 0.35474 0.14688 0.64761
 C819 C 0.32266 0.12502 0.64196
 C820 C 0.31743 0.08672 0.61240
 C821 C 0.34658 0.06982 0.58811
 C822 C 0.38025 0.09127 0.59371
 C823 C 0.38418 0.13063 0.62388
 H824 H 0.24899 0.11825 0.65927
 H825 H 0.22031 0.17754 0.70926
 H826 H 0.32152 0.24732 0.73022
 H827 H 0.29184 0.07036 0.60826
 H828 H 0.34286 0.03966 0.56531
 H829 H 0.40932 0.14804 0.62889
 C830 C 0.32515 0.69324 0.17841
 C831 C 0.30598 0.66688 0.14731
 C832 C 0.26962 0.66716 0.14574
 C833 C 0.25209 0.69401 0.17905
 C834 C 0.27073 0.71880 0.21500
 C835 C 0.30828 0.72067 0.21183
 O836 O 0.35963 0.68669 0.17461
 C837 C 0.36210 0.65496 0.14069
 C838 C 0.32991 0.64172 0.12307
 C839 C 0.32583 0.60669 0.08977
 C840 C 0.35617 0.58439 0.07368
 C841 C 0.39006 0.59781 0.09020
 C842 C 0.39295 0.63383 0.12440
 H843 H 0.25516 0.64640 0.12046
 H844 H 0.22366 0.69310 0.17869
 H845 H 0.32438 0.74141 0.23525
 H846 H 0.30010 0.59610 0.07732
 H847 H 0.35300 0.55623 0.04856
 H848 H 0.41821 0.64439 0.13847
   
