data_POSCAR
  _audit_creation_date              2014-09-24
  _audit_creation_method            'ToBaCCo'
  _symmetry_space_group_name_H-M    'P1'
  _symmetry_Int_Tables_number       1
  _symmetry_cell_setting            triclinic
  loop_
  _symmetry_equiv_pos_as_xyz
 x,y,z
_cell_length_a 21.1440
_cell_length_b 21.2339
_cell_length_c 23.5622
_cell_angle_alpha 89.997200
_cell_angle_beta 89.761200
_cell_angle_gamma 120.128900
loop_
  _atom_site_label
  _atom_site_type_symbol
  _atom_site_fract_x
  _atom_site_fract_y
  _atom_site_fract_z
O1 O 0.34897 0.55666 0.29842
 O2 O 0.22855 0.55941 0.31570
 C3 C 0.19585 0.59418 0.32656
 O4 O 0.20593 0.64977 0.29882
 O5 O 0.32941 0.76979 0.31547
 C6 C 0.39716 0.80250 0.32598
 O7 O 0.44299 0.79265 0.29813
 O8 O 0.43990 0.66982 0.31509
 C9 C 0.40482 0.60234 0.32594
 O10 O 0.32958 0.55977 0.18542
 O11 O 0.20611 0.55641 0.20268
 C12 C 0.19623 0.60202 0.17496
 O13 O 0.22885 0.66945 0.18570
 O14 O 0.34919 0.79253 0.20238
 C15 C 0.40504 0.80264 0.17447
 O16 O 0.44005 0.77017 0.18508
 O17 O 0.44313 0.65045 0.20203
 C18 C 0.39735 0.59480 0.17447
 Cr19 Cr 0.28035 0.56214 0.25055
 Cr20 Cr 0.28038 0.71835 0.25059
 Cr21 Cr 0.43742 0.71872 0.25010
 O22 O 0.33272 0.66640 0.25042
 O23 O 0.56058 0.33041 0.68454
 O24 O 0.55749 0.20759 0.70151
 C25 C 0.60333 0.19778 0.67362
 O26 O 0.67109 0.23052 0.68411
 O27 O 0.79458 0.35054 0.70081
 C28 C 0.80466 0.40608 0.67299
 O29 O 0.77187 0.44077 0.68386
 O30 O 0.65149 0.44357 0.70120
 C31 C 0.59564 0.39789 0.67369
 O32 O 0.55739 0.34982 0.79759
 O33 O 0.56046 0.23010 0.81456
 C34 C 0.59546 0.19760 0.82513
 O35 O 0.65128 0.20770 0.79719
 O36 O 0.77161 0.33078 0.81391
 C37 C 0.80425 0.39821 0.82463
 O38 O 0.79441 0.44382 0.79688
 O39 O 0.67095 0.44050 0.81419
 C40 C 0.60318 0.40548 0.82515
 Cr41 Cr 0.56307 0.28153 0.74954
 Cr42 Cr 0.72010 0.28192 0.74901
 Cr43 Cr 0.72014 0.43809 0.74904
 O44 O 0.66776 0.33385 0.74920
 C45 C 0.42387 -0.14572 0.37143
 C46 C 0.44650 -0.10224 0.40966
 C47 C 0.47366 -0.05036 0.45532
 C48 C 0.51903 0.02393 0.44361
 C49 C 0.54555 0.07434 0.48800
 C50 C 0.52682 0.05066 0.54427
 C51 C 0.48145 -0.02363 0.55598
 C52 C 0.45492 -0.07404 0.51159
 C53 C 0.55398 0.10254 0.58993
 C54 C 0.57661 0.14602 0.62816
 H55 H 0.53388 0.04282 0.40026
 H56 H 0.58058 0.13166 0.47847
 H57 H 0.46660 -0.04252 0.59933
 H58 H 0.41990 -0.13136 0.52112
 C59 C 0.14389 0.56897 0.37234
 C60 C 0.10033 0.54798 0.41089
 C61 C 0.04841 0.52309 0.45697
 C62 C 0.07251 0.52924 0.51308
 C63 C 0.02208 0.50518 0.55789
 C64 C -0.05267 0.47487 0.54677
 C65 C -0.07678 0.46872 0.49066
 C66 C -0.02634 0.49279 0.44586
 C67 C -0.10459 0.44998 0.59285
 C68 C -0.14817 0.42897 0.63141
 H69 H 0.13019 0.55261 0.52216
 H70 H 0.04130 0.51017 0.60111
 H71 H -0.13446 0.44535 0.48159
 H72 H -0.04557 0.48779 0.40263
 C73 C 0.43004 0.57578 0.37139
 C74 C 0.45107 0.55333 0.40964
 C75 C 0.47602 0.52642 0.45532
 C76 C 0.45999 0.53454 0.51168
 C77 C 0.48414 0.50829 0.55608
 C78 C 0.52442 0.47380 0.54430
 C79 C 0.54046 0.46567 0.48794
 C80 C 0.51630 0.49192 0.44354
 C81 C 0.54938 0.44689 0.58998
 C82 C 0.57041 0.42444 0.62823
 H83 H 0.42886 0.56111 0.52126
 H84 H 0.47146 0.51488 0.59951
 H85 H 0.57158 0.43910 0.47836
 H86 H 0.52899 0.48533 0.40011
 C87 C 0.43031 -0.14559 0.12882
 C88 C 0.45131 -0.10214 0.09040
 C89 C 0.47618 -0.05034 0.04450
 C90 C 0.51778 0.02438 0.05585
 C91 C 0.54181 0.07473 0.01123
 C92 C 0.52434 0.05057 -0.04491
 C93 C 0.48275 -0.02415 -0.05626
 C94 C 0.45872 -0.07450 -0.01164
 C95 C 0.54921 0.10237 -0.09081
 C96 C 0.57020 0.14582 -0.12922
 H97 H 0.53157 0.04365 0.09910
 H98 H 0.57396 0.13238 0.02048
 H99 H 0.46896 -0.04342 -0.09951
 H100 H 0.42656 -0.13215 -0.02089
 C101 C 0.14469 0.57547 0.12929
 C102 C 0.10155 0.55309 0.09078
 C103 C 0.05022 0.52631 0.04469
 C104 C -0.02486 0.48359 0.05589
 C105 C -0.07472 0.45746 0.01108
 C106 C -0.04971 0.47394 -0.04512
 C107 C 0.02536 0.51666 -0.05631
 C108 C 0.07522 0.54279 -0.01150
 C109 C -0.10105 0.44716 -0.09120
 C110 C -0.14419 0.42477 -0.12971
 H111 H -0.04478 0.47050 0.09918
 H112 H -0.13266 0.42449 0.02021
 H113 H 0.04529 0.52975 -0.09960
 H114 H 0.13316 0.57576 -0.02064
 C115 C 0.42412 0.56977 0.12883
 C116 C 0.44674 0.54891 0.09042
 C117 C 0.47382 0.52416 0.04452
 C118 C 0.51995 0.49607 0.05577
 C119 C 0.54636 0.47211 0.01115
 C120 C 0.52675 0.47615 -0.04490
 C121 C 0.48063 0.50424 -0.05614
 C122 C 0.45422 0.52820 -0.01152
 C123 C 0.55383 0.45139 -0.09079
 C124 C 0.57643 0.43052 -0.12921
 H125 H 0.53546 0.49272 0.09894
 H126 H 0.58198 0.45047 0.02031
 H127 H 0.46511 0.50759 -0.09932
 H128 H 0.41859 0.54984 -0.02069
   
