data_POSCAR
  _audit_creation_date              2014-09-24
  _audit_creation_method            'ToBaCCo'
  _symmetry_space_group_name_H-M    'P1'
  _symmetry_Int_Tables_number       1
  _symmetry_cell_setting            triclinic
  loop_
  _symmetry_equiv_pos_as_xyz
 x,y,z
_cell_length_a 44.7346
_cell_length_b 44.7284
_cell_length_c 44.7288
_cell_angle_alpha 90.000800
_cell_angle_beta 89.998600
_cell_angle_gamma 90.000500
loop_
  _atom_site_label
  _atom_site_type_symbol
  _atom_site_fract_x
  _atom_site_fract_y
  _atom_site_fract_z
Si1 Si 0.25002 0.49997 0.99999
 Si2 Si 0.75000 0.50000 -0.00002
 Si3 Si -0.00001 0.24998 0.49999
 Si4 Si 1.00000 0.74997 0.49998
 Si5 Si 0.50000 -0.00001 0.25004
 Si6 Si 0.49998 -0.00003 0.74998
 C7 C 0.29566 0.02270 0.46412
 H8 H 0.29639 0.03977 0.48125
 C9 C 0.31597 0.02352 0.44044
 H10 H 0.33236 0.04131 0.43922
 C11 C 0.27405 -0.02189 0.44522
 H12 H 0.25811 -0.03988 0.44749
 C13 C 0.29398 -0.02192 0.42116
 H14 H 0.29317 -0.03980 0.40483
 N15 N 0.27516 0.00031 0.46601
 C16 C 0.20429 0.03588 0.52272
 H17 H 0.20357 0.01876 0.53978
 C18 C 0.18399 0.05957 0.52353
 H19 H 0.16760 0.06079 0.54131
 C20 C 0.22593 0.05478 0.47812
 H21 H 0.24187 0.05250 0.46014
 C22 C 0.20600 0.07884 0.47809
 H23 H 0.20681 0.09517 0.46021
 Zn24 Zn 0.24998 -0.00001 0.50001
 N25 N 0.22481 0.03399 0.50033
 C26 C 0.27402 0.02186 0.55481
 N27 N 0.27514 -0.00034 0.53402
 C28 C 0.29565 -0.02273 0.53592
 C29 C 0.31594 -0.02355 0.55961
 C30 C 0.29395 0.02189 0.57888
 C31 C 0.20431 -0.03591 0.47728
 C32 C 0.18400 -0.05960 0.47646
 C33 C 0.20598 -0.07887 0.52191
 C34 C 0.22592 -0.05481 0.52188
 N35 N 0.22481 -0.03402 0.49967
 H36 H 0.25809 0.03985 0.55253
 H37 H 0.29637 -0.03980 0.51879
 H38 H 0.33233 -0.04134 0.56083
 H39 H 0.29313 0.03977 0.59520
 H40 H 0.20359 -0.01879 0.46022
 H41 H 0.16762 -0.06082 0.45867
 H42 H 0.20679 -0.09519 0.53979
 H43 H 0.24185 -0.05253 0.53988
 C44 C 0.18481 0.08119 0.50097
 C45 C 0.31516 0.00096 0.41882
 C46 C 0.18481 -0.08122 0.49902
 C47 C 0.31512 -0.00099 0.58123
 C48 C 0.70433 0.02269 0.53592
 H49 H 0.70361 0.03975 0.51879
 C50 C 0.68403 0.02350 0.55961
 H51 H 0.66764 0.04129 0.56082
 C52 C 0.72595 -0.02191 0.55482
 H53 H 0.74189 -0.03990 0.55254
 C54 C 0.70602 -0.02194 0.57888
 H55 H 0.70683 -0.03981 0.59520
 N56 N 0.72484 0.00030 0.53402
 C57 C 0.79568 0.03586 0.47729
 H58 H 0.79641 0.01874 0.46023
 C59 C 0.81598 0.05955 0.47648
 H60 H 0.83237 0.06077 0.45868
 C61 C 0.77407 0.05476 0.52189
 H62 H 0.75813 0.05248 0.53988
 C63 C 0.79400 0.07882 0.52192
 H64 H 0.79319 0.09515 0.53980
 Zn65 Zn 0.75001 -0.00004 0.50002
 N66 N 0.77518 0.03397 0.49968
 C67 C 0.72595 0.02184 0.44522
 N68 N 0.72483 -0.00037 0.46602
 C69 C 0.70433 -0.02276 0.46412
 C70 C 0.68402 -0.02357 0.44044
 C71 C 0.70601 0.02187 0.42116
 C72 C 0.79568 -0.03594 0.52273
 C73 C 0.81599 -0.05962 0.52354
 C74 C 0.79399 -0.07889 0.47810
 C75 C 0.77406 -0.05483 0.47814
 N76 N 0.77518 -0.03404 0.50034
 H77 H 0.74188 0.03983 0.44750
 H78 H 0.70361 -0.03982 0.48125
 H79 H 0.66763 -0.04136 0.43922
 H80 H 0.70682 0.03975 0.40484
 H81 H 0.79641 -0.01881 0.53980
 H82 H 0.83238 -0.06085 0.54133
 H83 H 0.79318 -0.09522 0.46023
 H84 H 0.75813 -0.05255 0.46015
 C85 C 0.81517 0.08117 0.49904
 C86 C 0.68484 0.00095 0.58123
 C87 C 0.81517 -0.08124 0.50098
 C88 C 0.68483 -0.00101 0.41882
 C89 C 0.47724 0.20431 1.03589
 H90 H 0.46019 0.20359 1.01875
 C91 C 0.47640 0.18401 1.05958
 H92 H 0.45860 0.16762 1.06078
 C93 C 0.52182 0.22592 1.05482
 H94 H 0.53982 0.24185 1.05256
 C95 C 0.52183 0.20599 1.07888
 H96 H 0.53969 0.20679 1.09522
 N97 N 0.49963 0.22481 1.03401
 C98 C 0.46417 0.29566 0.97722
 H99 H 0.48132 0.29638 0.96019
 C100 C 0.44048 0.31596 0.97635
 H101 H 0.43929 0.33235 0.95855
 C102 C 0.44519 0.27405 1.02179
 H103 H 0.44743 0.25812 1.03978
 C104 C 0.42112 0.29398 1.02176
 H105 H 0.40477 0.29317 1.03960
 Zn106 Zn 0.50001 0.24998 1.00001
 N107 N 0.46602 0.27516 0.99962
 C108 C 0.47820 0.22592 0.94519
 N109 N 0.50039 0.22481 0.96600
 C110 C 0.52278 0.20430 0.96412
 C111 C 0.52361 0.18399 0.94043
 C112 C 0.47819 0.20598 0.92113
 C113 C 0.53587 0.29567 1.02279
 C114 C 0.55955 0.31597 1.02365
 C115 C 0.57891 0.29398 0.97825
 C116 C 0.55485 0.27405 0.97823
 N117 N 0.53401 0.27516 1.00039
 H118 H 0.46021 0.24185 0.94746
 H119 H 0.53983 0.20358 0.98126
 H120 H 0.54140 0.16760 0.93923
 H121 H 0.46032 0.20679 0.90480
 H122 H 0.51871 0.29639 1.03982
 H123 H 0.56074 0.33236 1.04145
 H124 H 0.59526 0.29317 0.96040
 H125 H 0.55260 0.25811 0.96023
 C126 C 0.41882 0.31515 0.99887
 C127 C 0.49894 0.18481 1.08121
 C128 C 0.58121 0.31516 1.00114
 C129 C 0.50107 0.18480 0.91880
 C130 C 0.47721 0.79566 -0.03586
 H131 H 0.46016 0.79638 -0.01872
 C132 C 0.47637 0.81597 -0.05954
 H133 H 0.45857 0.83235 -0.06075
 C134 C 0.52180 0.77406 -0.05479
 H135 H 0.53979 0.75813 -0.05253
 C136 C 0.52180 0.79399 -0.07886
 H137 H 0.53966 0.79319 -0.09519
 N138 N 0.49961 0.77516 -0.03398
 C139 C 0.46414 0.70430 0.02279
 H140 H 0.48130 0.70358 0.03983
 C141 C 0.44046 0.68400 0.02366
 H142 H 0.43927 0.66760 0.04145
 C143 C 0.44516 0.72592 -0.02177
 H144 H 0.44740 0.74185 -0.03976
 C145 C 0.42110 0.70599 -0.02175
 H146 H 0.40474 0.70680 -0.03959
 Zn147 Zn 0.49999 0.74998 0.00002
 N148 N 0.46600 0.72481 0.00040
 C149 C 0.47817 0.77404 0.05483
 N150 N 0.50037 0.77515 0.03402
 C151 C 0.52275 0.79566 0.03591
 C152 C 0.52359 0.81596 0.05960
 C153 C 0.47816 0.79397 0.07890
 C154 C 0.53584 0.70431 -0.02278
 C155 C 0.55953 0.68401 -0.02365
 C156 C 0.57889 0.70599 0.02176
 C157 C 0.55482 0.72592 0.02179
 N158 N 0.53399 0.72481 -0.00038
 H159 H 0.46018 0.75811 0.05257
 H160 H 0.53980 0.79638 0.01877
 H161 H 0.54137 0.83235 0.06080
 H162 H 0.46030 0.79316 0.09523
 H163 H 0.51868 0.70359 -0.03981
 H164 H 0.56071 0.66762 -0.04145
 H165 H 0.59524 0.70680 0.03960
 H166 H 0.55258 0.74185 0.03979
 C167 C 0.41879 0.68481 0.00114
 C168 C 0.49891 0.81516 -0.08118
 C169 C 0.58119 0.68482 -0.00114
 C170 C 0.50104 0.81515 0.08123
 C171 C 1.03585 0.47718 0.20427
 H172 H 1.01869 0.46015 0.20355
 C173 C 1.05954 0.47631 0.18398
 H174 H 1.06073 0.45852 0.16759
 C175 C 1.05483 0.52174 0.22589
 H176 H 1.05259 0.53974 0.24183
 C177 C 1.07890 0.52172 0.20597
 H178 H 1.09526 0.53956 0.20678
 N179 N 1.03400 0.49958 0.22478
 C180 C 0.97723 0.46409 0.29563
 H181 H 0.96018 0.48123 0.29635
 C182 C 0.97639 0.44040 0.31593
 H183 H 0.95860 0.43920 0.33232
 C184 C 1.02180 0.44515 0.27401
 H185 H 1.03980 0.44741 0.25808
 C186 C 1.02181 0.42109 0.29394
 H187 H 1.03967 0.40475 0.29313
 Zn188 Zn 1.00000 0.49997 0.24995
 N189 N 0.99962 0.46596 0.27512
 C190 C 0.94517 0.47820 0.22589
 N191 N 0.96601 0.50036 0.22478
 C192 C 0.96415 0.52276 0.20427
 C193 C 0.94047 0.52363 0.18398
 C194 C 0.92110 0.47823 0.20596
 C195 C 1.02278 0.53584 0.29563
 C196 C 1.02362 0.55953 0.31593
 C197 C 0.97820 0.57885 0.29395
 C198 C 0.97820 0.55478 0.27402
 N199 N 1.00038 0.53397 0.27513
 H200 H 0.94741 0.46020 0.24182
 H201 H 0.98131 0.53979 0.20355
 H202 H 0.93928 0.54143 0.16759
 H203 H 0.90474 0.46039 0.20677
 H204 H 1.03982 0.51870 0.29635
 H205 H 1.04141 0.56073 0.33232
 H206 H 0.96034 0.59519 0.29315
 H207 H 0.96021 0.55253 0.25809
 C208 C 0.99893 0.41876 0.31512
 C209 C 1.08121 0.49883 0.18480
 C210 C 1.00108 0.58117 0.31513
 C211 C 0.91880 0.50112 0.18479
 C212 C -0.03583 0.47720 0.79569
 H213 H -0.01868 0.46016 0.79641
 C214 C -0.05952 0.47633 0.81599
 H215 H -0.06071 0.45853 0.83237
 C216 C -0.05481 0.52176 0.77407
 H217 H -0.05256 0.53976 0.75814
 C218 C -0.07887 0.52174 0.79400
 H219 H -0.09523 0.53958 0.79319
 N220 N -0.03398 0.49959 0.77519
 C221 C 0.02279 0.46410 0.70433
 H222 H 0.03984 0.48124 0.70362
 C223 C 0.02363 0.44041 0.68403
 H224 H 0.04142 0.43921 0.66764
 C225 C -0.02179 0.44517 0.72594
 H226 H -0.03979 0.44743 0.74187
 C227 C -0.02180 0.42111 0.70601
 H228 H -0.03966 0.40477 0.70682
 Zn229 Zn 0.00002 0.49998 0.75001
 N230 N 0.00040 0.46598 0.72484
 C231 C 0.05485 0.47820 0.77407
 N232 N 0.03402 0.50037 0.77518
 C233 C 0.03588 0.52276 0.79569
 C234 C 0.05956 0.52363 0.81599
 C235 C 0.07891 0.47822 0.79399
 C236 C -0.02274 0.53587 0.70434
 C237 C -0.02357 0.55955 0.68403
 C238 C 0.02185 0.57886 0.70602
 C239 C 0.02184 0.55480 0.72595
 N240 N -0.00035 0.53399 0.72484
 H241 H 0.05260 0.46020 0.75814
 H242 H 0.01872 0.53979 0.79641
 H243 H 0.06076 0.54142 0.83237
 H244 H 0.09527 0.46037 0.79318
 H245 H -0.03979 0.51873 0.70361
 H246 H -0.04136 0.56076 0.66764
 H247 H 0.03971 0.59519 0.70683
 H248 H 0.03983 0.55253 0.74188
 C249 C 0.00109 0.41878 0.68484
 C250 C -0.08118 0.49885 0.81517
 C251 C -0.00103 0.58119 0.68484
 C252 C 0.08123 0.50111 0.81517
 C253 C 0.09768 0.15086 0.52519
 C254 C 0.10243 0.18516 0.52440
 C255 C 0.07822 0.18753 0.50015
 C256 C 0.07314 0.15357 0.50096
 C257 C 0.12119 0.14740 0.50040
 C258 C 0.09697 0.14979 0.47616
 C259 C 0.12635 0.18135 0.49958
 C260 C 0.10172 0.18410 0.47533
 C261 C 0.05363 0.20914 0.50004
 C262 C 0.03272 0.22609 0.49999
 C263 C 0.14454 0.12444 0.50057
 C264 C 0.16318 0.10499 0.50074
 H265 H 0.09626 0.13694 0.54569
 H266 H 0.10439 0.19997 0.54422
 H267 H 0.05100 0.14238 0.50152
 H268 H 0.09498 0.13500 0.45634
 H269 H 0.14851 0.19250 0.49902
 H270 H 0.10310 0.19802 0.45483
 C271 C 0.65037 0.59723 -0.02511
 C272 C 0.68468 0.60199 -0.02509
 C273 C 0.68754 0.57824 -0.00045
 C274 C 0.65358 0.57314 -0.00048
 C275 C 0.64740 0.62120 -0.00069
 C276 C 0.65029 0.59744 0.02394
 C277 C 0.68136 0.62637 -0.00066
 C278 C 0.68460 0.60219 0.02399
 C279 C 0.70915 0.55364 -0.00031
 C280 C 0.72610 0.53273 -0.00020
 C281 C 0.62444 0.64455 -0.00084
 C282 C 0.60499 0.66319 -0.00097
 H283 H 0.63605 0.59543 -0.04530
 H284 H 0.69908 0.60357 -0.04524
 H285 H 0.64238 0.55099 -0.00040
 H286 H 0.63591 0.59581 0.04409
 H287 H 0.69252 0.64854 -0.00074
 H288 H 0.69893 0.60395 0.04417
 C289 C 0.90239 -0.15051 0.47563
 C290 C 0.92685 -0.15361 0.49990
 C291 C 0.92176 -0.18759 0.50015
 C292 C 0.89764 -0.18482 0.47586
 C293 C 0.87879 -0.14745 0.50041
 C294 C 0.87364 -0.18141 0.50065
 C295 C 0.90293 -0.15024 0.52468
 C296 C 0.89819 -0.18455 0.52494
 C297 C 0.94635 -0.20919 0.50004
 C298 C 0.96727 -0.22614 0.49999
 C299 C 0.85545 -0.12449 0.50058
 C300 C 0.83680 -0.10504 0.50075
 H301 H 0.90387 -0.13626 0.45537
 H302 H 0.94899 -0.14242 0.49959
 H303 H 0.89574 -0.19930 0.45579
 H304 H 0.85148 -0.19257 0.50096
 H305 H 0.90487 -0.13577 0.54475
 H306 H 0.89674 -0.19881 0.54520
 C307 C 0.34958 0.40268 0.97485
 C308 C 0.31527 0.39793 0.97496
 C309 C 0.31247 0.42173 0.99955
 C310 C 0.34643 0.42683 0.99943
 C311 C 0.35261 0.37876 0.99931
 C312 C 0.34977 0.40259 1.02389
 C313 C 0.31865 0.37360 0.99944
 C314 C 0.31547 0.39783 1.02404
 C315 C 0.29086 0.44632 0.99969
 C316 C 0.27391 0.46724 0.99981
 C317 C 0.37557 0.35542 0.99917
 C318 C 0.39501 0.33678 0.99904
 H319 H 0.36385 0.40443 0.95462
 H320 H 0.30083 0.39629 0.95484
 H321 H 0.35763 0.44898 0.99943
 H322 H 0.36421 0.40426 1.04401
 H323 H 0.30750 0.35143 0.99944
 H324 H 0.30118 0.39612 1.04426
 C325 C 0.87383 0.18115 0.49570
 C326 C 0.89558 0.18698 0.52207
 C327 C 0.92175 0.18752 0.49984
 C328 C 0.90043 0.18207 0.47348
 C329 C 0.87879 0.14738 0.49960
 C330 C 0.90498 0.14797 0.47739
 C331 C 0.90013 0.15285 0.52595
 C332 C 0.92664 0.15375 0.50373
 C333 C 0.94635 0.20913 0.49994
 C334 C 0.96726 0.22608 0.49999
 C335 C 0.85544 0.12442 0.49943
 C336 C 0.83680 0.10498 0.49926
 H337 H 0.85184 0.19215 0.49239
 H338 H 0.89200 0.20328 0.54044
 H339 H 0.90083 0.19435 0.45191
 H340 H 0.90861 0.13168 0.45901
 H341 H 0.89976 0.14058 0.54752
 H342 H 0.94863 0.14271 0.50704
 C343 C 0.34955 0.59728 0.02515
 C344 C 0.31524 0.60203 0.02502
 C345 C 0.31246 0.57822 0.00043
 C346 C 0.34642 0.57312 0.00058
 C347 C 0.35259 0.62119 0.00068
 C348 C 0.34978 0.59736 -0.02389
 C349 C 0.31863 0.62635 0.00054
 C350 C 0.31547 0.60211 -0.02406
 C351 C 0.29086 0.55362 0.00029
 C352 C 0.27391 0.53270 0.00017
 C353 C 0.37555 0.64454 0.00083
 C354 C 0.39499 0.66318 0.00097
 H355 H 0.36381 0.59553 0.04539
 H356 H 0.30078 0.60367 0.04513
 H357 H 0.35762 0.55097 0.00059
 H358 H 0.36422 0.59568 -0.04400
 H359 H 0.30748 0.64852 0.00052
 H360 H 0.30120 0.60382 -0.04429
 C361 C 0.09738 -0.15056 0.47502
 C362 C 0.10213 -0.18487 0.47530
 C363 C 0.07823 -0.18757 0.49981
 C364 C 0.07314 -0.15360 0.49952
 C365 C 0.12119 -0.14743 0.49957
 C366 C 0.09727 -0.15015 0.52407
 C367 C 0.12635 -0.18139 0.49986
 C368 C 0.10203 -0.18447 0.52438
 C369 C 0.05364 -0.20918 0.49992
 C370 C 0.03273 -0.22613 0.49997
 C371 C 0.14454 -0.12447 0.49941
 C372 C 0.16318 -0.10502 0.49924
 H373 H 0.09571 -0.13637 0.45473
 H374 H 0.10385 -0.19941 0.45526
 H375 H 0.05099 -0.14240 0.49938
 H376 H 0.09552 -0.13563 0.54411
 H377 H 0.14852 -0.19255 0.50000
 H378 H 0.10366 -0.19867 0.54467
 C379 C 0.64988 0.40294 0.97638
 C380 C 0.65359 0.42684 1.00111
 C381 C 0.68755 0.42175 1.00041
 C382 C 0.68418 0.39819 0.97566
 C383 C 0.64742 0.37878 1.00067
 C384 C 0.68137 0.37362 0.99997
 C385 C 0.65081 0.40237 1.02541
 C386 C 0.68511 0.39762 1.02473
 C387 C 0.70915 0.44635 1.00027
 C388 C 0.72610 0.46727 1.00016
 C389 C 0.62446 0.35543 1.00082
 C390 C 0.60501 0.33679 1.00096
 H391 H 0.63515 0.40488 0.95650
 H392 H 0.64240 0.44899 1.00158
 H393 H 0.69817 0.39675 0.95521
 H394 H 0.69252 0.35146 0.99951
 H395 H 0.63683 0.40384 1.04587
 H396 H 0.69985 0.39571 1.04460
 C397 C 0.51601 0.09130 1.14381
 C398 C 0.52787 0.09436 1.17618
 C399 C 0.49977 0.07822 1.18757
 C400 C 0.48793 0.07483 1.15551
 C401 C 0.49949 0.12119 1.14743
 C402 C 0.47139 0.10505 1.15882
 C403 C 0.51134 0.12465 1.17948
 C404 C 0.48323 0.10810 1.19124
 C405 C 0.49990 0.05363 1.20918
 C406 C 0.49997 0.03272 1.22613
 C407 C 0.49931 0.14453 1.12446
 C408 C 0.49914 0.16318 1.10502
 H409 H 0.52948 0.08463 1.12406
 H410 H 0.55109 0.08969 1.18358
 H411 H 0.47830 0.05407 1.14588
 H412 H 0.44816 0.10969 1.15142
 H413 H 0.52097 0.14542 1.18907
 H414 H 0.46976 0.11472 1.21101
 C415 C -0.00589 0.68097 0.62598
 C416 C 0.02103 0.68785 0.60522
 C417 C -0.00021 0.68752 0.57823
 C418 C -0.02711 0.68102 0.59857
 C419 C -0.00048 0.64739 0.62121
 C420 C -0.02169 0.64710 0.59420
 C421 C 0.02641 0.65390 0.60086
 C422 C 0.00519 0.65392 0.57353
 C423 C -0.00009 0.70912 0.55363
 C424 C -0.00003 0.72607 0.53271
 C425 C -0.00065 0.62443 0.64456
 C426 C -0.00082 0.60498 0.66320
 H427 H -0.01044 0.69182 0.64783
 H428 H 0.03859 0.70486 0.60946
 H429 H -0.04912 0.69243 0.59735
 H430 H -0.03926 0.63010 0.58991
 H431 H 0.04842 0.64249 0.60204
 H432 H 0.00974 0.64303 0.55169
 C433 C 0.47499 0.90271 -0.15045
 C434 C 0.49958 0.92685 -0.15358
 C435 C 0.49973 0.92174 -0.18755
 C436 C 0.47512 0.89794 -0.18475
 C437 C 0.49945 0.87878 -0.14740
 C438 C 0.49959 0.87361 -0.18136
 C439 C 0.52403 0.90260 -0.15022
 C440 C 0.52420 0.89784 -0.18453
 C441 C 0.49986 0.94633 -0.20916
 C442 C 0.49993 0.96724 -0.22612
 C443 C 0.49927 0.85544 -0.12443
 C444 C 0.49911 0.83680 -0.10498
 H445 H 0.45476 0.90447 -0.13618
 H446 H 0.49958 0.94900 -0.14239
 H447 H 0.45502 0.89631 -0.19921
 H448 H 0.49960 0.85144 -0.19251
 H449 H 0.54414 0.90427 -0.13577
 H450 H 0.54443 0.89612 -0.19880
 C451 C 0.98283 0.35592 0.40861
 C452 C 0.97151 0.32335 0.40554
 C453 C 0.99975 0.31243 0.42174
 C454 C 1.01106 0.34469 0.42515
 C455 C 0.99948 0.35256 0.37876
 C456 C 1.02772 0.34164 0.39497
 C457 C 0.98815 0.32032 0.37528
 C458 C 1.01642 0.30902 0.39190
 C459 C 0.99987 0.29083 0.44634
 C460 C 0.99994 0.27388 0.46725
 C461 C 0.99930 0.37552 0.35541
 C462 C 0.99914 0.39496 0.33676
 H463 H 0.96902 0.37545 0.41524
 H464 H 0.94840 0.31558 0.41015
 H465 H 1.02048 0.35448 0.44592
 H466 H 1.05083 0.34942 0.39037
 H467 H 0.97873 0.31057 0.35450
 H468 H 1.03022 0.28948 0.38532
 C469 C 0.52432 0.90340 0.14973
 C470 C 0.49915 0.92682 0.15362
 C471 C 0.50021 0.92175 0.18758
 C472 C 0.52539 0.89867 0.18402
 C473 C 0.50048 0.87878 0.14744
 C474 C 0.50154 0.87363 0.18139
 C475 C 0.47532 0.90188 0.15103
 C476 C 0.47636 0.89714 0.18533
 C477 C 0.50009 0.94634 0.20919
 C478 C 0.50003 0.96726 0.22614
 C479 C 0.50066 0.85543 0.12448
 C480 C 0.50083 0.83679 0.10503
 H481 H 0.54403 0.90573 0.13484
 H482 H 0.49817 0.94896 0.14244
 H483 H 0.54597 0.89762 0.19784
 H484 H 0.50253 0.85148 0.19253
 H485 H 0.45473 0.90295 0.13721
 H486 H 0.45664 0.89485 0.20023
 C487 C 0.00198 0.31864 0.62633
 C488 C -0.02339 0.31446 0.60306
 C489 C 0.00025 0.31244 0.57823
 C490 C 0.02561 0.31624 0.60107
 C491 C 0.00053 0.35257 0.62120
 C492 C 0.02415 0.35052 0.59635
 C493 C -0.02481 0.34875 0.59835
 C494 C -0.00119 0.34638 0.57317
 C495 C 0.00011 0.29083 0.55364
 C496 C 0.00003 0.27388 0.53272
 C497 C 0.00072 0.37553 0.64455
 C498 C 0.00088 0.39498 0.66320
 H499 H 0.00328 0.30750 0.64847
 H500 H -0.04294 0.29937 0.60554
 H501 H 0.04633 0.30262 0.60191
 H502 H 0.04370 0.36560 0.59384
 H503 H -0.04554 0.36236 0.59747
 H504 H -0.00250 0.35756 0.55105
 C505 C 0.47561 0.09773 0.84938
 C506 C 0.47607 0.10248 0.81507
 C507 C 0.50022 0.07821 0.81245
 C508 C 0.49974 0.07312 0.84642
 C509 C 0.50050 0.12117 0.85259
 C510 C 0.52464 0.09688 0.84994
 C511 C 0.50098 0.12633 0.81863
 C512 C 0.52513 0.10163 0.81564
 C513 C 0.50009 0.05362 0.79084
 C514 C 0.50002 0.03270 0.77388
 C515 C 0.50069 0.14452 0.87556
 C516 C 0.50086 0.16316 0.89500
 H517 H 0.45525 0.09637 0.86350
 H518 H 0.45610 0.10450 0.80047
 H519 H 0.49923 0.05097 0.85761
 H520 H 0.54461 0.09482 0.86453
 H521 H 0.50150 0.14850 0.80748
 H522 H 0.54549 0.10296 0.80150
 C523 C 0.98539 0.64307 0.40929
 C524 C 1.01358 0.65598 0.42464
 C525 C 1.00024 0.68751 0.42174
 C526 C 0.97204 0.67491 0.40673
 C527 C 1.00054 0.64737 0.37876
 C528 C 0.98719 0.67888 0.37581
 C529 C 1.02874 0.65997 0.39378
 C530 C 1.01541 0.69186 0.39123
 C531 C 1.00012 0.70911 0.44633
 C532 C 1.00004 0.72606 0.46725
 C533 C 1.00072 0.62441 0.35541
 C534 C 1.00088 0.60497 0.33677
 H535 H 0.97306 0.62277 0.41648
 H536 H 1.02443 0.64680 0.44498
 H537 H 0.94872 0.68131 0.41233
 H538 H 0.97633 0.68803 0.35545
 H539 H 1.05206 0.65357 0.38820
 H540 H 1.02774 0.71218 0.38409
 C541 C 1.18138 0.49914 0.12635
 C542 C 1.18459 0.47479 0.10187
 C543 C 1.18757 0.49953 0.07822
 C544 C 1.18473 0.52387 0.10228
 C545 C 1.14743 0.49928 0.12119
 C546 C 1.15043 0.52399 0.09753
 C547 C 1.15029 0.47495 0.09711
 C548 C 1.15360 0.49967 0.07313
 C549 C 1.20917 0.49967 0.05363
 C550 C 1.22612 0.49979 0.03271
 C551 C 1.12446 0.49913 0.14453
 C552 C 1.10501 0.49900 0.16317
 H553 H 1.19253 0.49892 0.14852
 H554 H 1.19890 0.45457 0.10337
 H555 H 1.19915 0.54398 0.10413
 H556 H 1.13613 0.54422 0.09599
 H557 H 1.13587 0.45483 0.09523
 H558 H 1.14241 0.49988 0.05098
 C559 C 0.58826 -0.00646 0.64058
 C560 C 0.58713 -0.02699 0.66842
 C561 C 0.57823 0.00012 0.68754
 C562 C 0.57902 0.02063 0.66000
 C563 C 0.62121 0.00038 0.64742
 C564 C 0.61232 0.02750 0.66654
 C565 C 0.62046 -0.02016 0.67495
 C566 C 0.61116 0.00697 0.69445
 C567 C 0.55363 0.00002 0.70914
 C568 C 0.53271 -0.00003 0.72608
 C569 C 0.64457 0.00055 0.62447
 C570 C 0.66321 0.00072 0.60503
 H571 H 0.57908 -0.01198 0.61819
 H572 H 0.57651 -0.04939 0.66944
 H573 H 0.56171 0.03741 0.65409
 H574 H 0.62293 0.04990 0.66550
 H575 H 0.63778 -0.03694 0.68083
 H576 H 0.62028 0.01248 0.71686
 C577 C -0.18136 0.49973 0.87361
 C578 C -0.18493 0.47511 0.89777
 C579 C -0.18755 0.49956 0.92174
 C580 C -0.18435 0.52419 0.89802
 C581 C -0.14740 0.49931 0.87878
 C582 C -0.15005 0.52374 0.90278
 C583 C -0.15063 0.47470 0.90253
 C584 C -0.15358 0.49914 0.92684
 C585 C -0.20915 0.49970 0.94633
 C586 C -0.22611 0.49982 0.96725
 C587 C -0.12444 0.49916 0.85544
 C588 C -0.10499 0.49902 0.83680
 H589 H -0.19250 0.49998 0.85144
 H590 H -0.19953 0.45512 0.89599
 H591 H -0.19847 0.54453 0.89644
 H592 H -0.13545 0.54373 0.90459
 H593 H -0.13651 0.45435 0.90413
 H594 H -0.14239 0.49889 0.94900
 C595 C 0.37365 0.00117 0.31866
 C596 C 0.39849 0.02520 0.31585
 C597 C 0.42176 0.00017 0.31249
 C598 C 0.39735 -0.02386 0.31492
 C599 C 0.37879 0.00041 0.35262
 C600 C 0.40208 -0.02461 0.34923
 C601 C 0.40323 0.02442 0.35015
 C602 C 0.42684 -0.00060 0.34645
 C603 C 0.44636 0.00006 0.29089
 C604 C 0.46727 0.00001 0.27393
 C605 C 0.35544 0.00057 0.37558
 C606 C 0.33680 0.00074 0.39502
 H607 H 0.35150 0.00190 0.30751
 H608 H 0.39729 0.04567 0.30187
 H609 H 0.39521 -0.04371 0.30017
 H610 H 0.40331 -0.04508 0.36320
 H611 H 0.40540 0.04427 0.36489
 H612 H 0.44898 -0.00132 0.35765
 C613 C 0.14619 0.52065 0.90667
 C614 C 0.15428 0.49324 0.92617
 C615 C 0.18757 0.50041 0.92174
 C616 C 0.17981 0.52783 0.90258
 C617 C 0.14744 0.50065 0.87877
 C618 C 0.18073 0.50783 0.87428
 C619 C 0.15522 0.47324 0.89795
 C620 C 0.18887 0.48039 0.89386
 C621 C 0.20918 0.50027 0.94634
 C622 C 0.22613 0.50015 0.96725
 C623 C 0.12448 0.50080 0.85543
 C624 C 0.10503 0.50094 0.83679
 H625 H 0.12839 0.53720 0.91170
 H626 H 0.14363 0.48724 0.94778
 H627 H 0.19018 0.55028 0.90476
 H628 H 0.19133 0.51383 0.85266
 H629 H 0.14485 0.45079 0.89579
 H630 H 0.20668 0.46384 0.88888
 C631 C 0.59765 0.02436 0.34952
 C632 C 0.60239 0.02408 0.31521
 C633 C 0.57824 -0.00018 0.31248
 C634 C 0.57315 0.00012 0.34646
 C635 C 0.62121 -0.00044 0.35262
 C636 C 0.59703 -0.02468 0.34986
 C637 C 0.62636 -0.00074 0.31865
 C638 C 0.60178 -0.02500 0.31556
 C639 C 0.55364 -0.00007 0.29088
 C640 C 0.53273 -0.00002 0.27393
 C641 C 0.64456 -0.00061 0.37558
 C642 C 0.66320 -0.00078 0.39502
 H643 H 0.59620 0.04465 0.36374
 H644 H 0.60432 0.04412 0.30070
 H645 H 0.55101 0.00048 0.35766
 H646 H 0.59507 -0.04472 0.36437
 H647 H 0.64852 -0.00110 0.30750
 H648 H 0.60320 -0.04529 0.30133
 C649 C 0.85236 0.52250 0.09466
 C650 C 0.84616 0.49593 0.07338
 C651 C 0.81245 0.50043 0.07821
 C652 C 0.81832 0.52702 0.09915
 C653 C 0.85259 0.50067 0.12118
 C654 C 0.81889 0.50518 0.12607
 C655 C 0.84670 0.47410 0.10023
 C656 C 0.81264 0.47858 0.10472
 C657 C 0.79084 0.50029 0.05362
 C658 C 0.77389 0.50018 0.03271
 C659 C 0.87555 0.50082 0.14452
 C660 C 0.89500 0.50095 0.16316
 H661 H 0.86894 0.54055 0.09076
 H662 H 0.85714 0.49212 0.05145
 H663 H 0.80640 0.54877 0.09843
 H664 H 0.80795 0.50899 0.14802
 H665 H 0.85862 0.45234 0.10092
 H666 H 0.79605 0.46054 0.10857
 C667 C 0.40937 0.01446 0.64302
 C668 C 0.40692 0.02805 0.67477
 C669 C 0.42173 -0.00018 0.68755
 C670 C 0.42452 -0.01375 0.65612
 C671 C 0.37874 -0.00043 0.64743
 C672 C 0.39355 -0.02866 0.66022
 C673 C 0.37589 0.01316 0.67885
 C674 C 0.39111 -0.01509 0.69202
 C675 C 0.44633 -0.00008 0.70915
 C676 C 0.46725 -0.00003 0.72609
 C677 C 0.35539 -0.00060 0.62448
 C678 C 0.33675 -0.00076 0.60503
 H679 H 0.41665 0.02661 0.62264
 H680 H 0.41269 0.05137 0.68101
 H681 H 0.44477 -0.02481 0.64700
 H682 H 0.38780 -0.05198 0.65397
 H683 H 0.35562 0.02422 0.68793
 H684 H 0.38390 -0.02723 0.71242
   
