data_POSCAR
  _audit_creation_date              2014-09-24
  _audit_creation_method            'ToBaCCo'
  _symmetry_space_group_name_H-M    'P1'
  _symmetry_Int_Tables_number       1
  _symmetry_cell_setting            triclinic
  loop_
  _symmetry_equiv_pos_as_xyz
 x,y,z
_cell_length_a 44.1337
_cell_length_b 45.2040
_cell_length_c 45.7254
_cell_angle_alpha 90.001200
_cell_angle_beta 89.977900
_cell_angle_gamma 89.960200
loop_
  _atom_site_label
  _atom_site_type_symbol
  _atom_site_fract_x
  _atom_site_fract_y
  _atom_site_fract_z
C1 C 0.14635 0.16974 0.19248
 C2 C 0.14502 0.19147 0.17062
 C3 C 0.16546 0.19085 0.14762
 C4 C 0.18746 0.16850 0.14616
 C5 C 0.18878 0.14703 0.16777
 C6 C 0.16811 0.14765 0.19107
 C7 C 0.12981 0.16520 0.21764
 N8 N 0.14111 0.14099 0.23126
 C9 C 0.16447 0.13001 0.21539
 C10 C 0.21272 0.12865 0.16116
 N11 N 0.22571 0.13857 0.13618
 C12 C 0.21063 0.16286 0.12674
 C13 C 0.15931 0.21488 0.13009
 N14 N 0.13573 0.22982 0.14197
 C15 C 0.12675 0.21587 0.16670
 H16 H 0.11116 0.17859 0.22555
 H17 H 0.17790 0.11084 0.22123
 H18 H 0.22038 0.10977 0.17375
 H19 H 0.21634 0.17564 0.10748
 H20 H 0.17123 0.22121 0.11035
 H21 H 0.10852 0.22311 0.18085
 C22 C -0.14184 0.83614 0.19427
 C23 C -0.14191 0.81397 0.17281
 C24 C -0.16349 0.81443 0.15081
 C25 C -0.18527 0.83701 0.15002
 C26 C -0.18524 0.85892 0.17123
 C27 C -0.16338 0.85848 0.19349
 C28 C -0.12408 0.84085 0.21859
 N29 N -0.13440 0.86543 0.23231
 C30 C -0.15836 0.87645 0.21734
 C31 C -0.20936 0.87740 0.16547
 N32 N -0.22374 0.86710 0.14137
 C33 C -0.20938 0.84249 0.13168
 C34 C -0.15868 0.78992 0.13356
 N35 N -0.13478 0.77482 0.14461
 C36 C -0.12429 0.78915 0.16856
 H37 H -0.10532 0.82729 0.22592
 H38 H -0.17131 0.89583 0.22352
 H39 H -0.21617 0.89660 0.17804
 H40 H -0.21619 0.82940 0.11297
 H41 H -0.17178 0.78331 0.11463
 H42 H -0.10556 0.78184 0.18204
 C43 C -0.14542 0.17093 -0.19621
 C44 C -0.14643 0.19209 -0.17378
 C45 C -0.16885 0.19058 -0.15259
 C46 C -0.19051 0.16792 -0.15355
 C47 C -0.18951 0.14701 -0.17569
 C48 C -0.16685 0.14854 -0.19713
 C49 C -0.12666 0.16724 -0.22005
 N50 N -0.13636 0.14324 -0.23511
 C51 C -0.16084 0.13160 -0.22146
 C52 C -0.21359 0.12809 -0.17156
 N53 N -0.22892 0.13716 -0.14751
 C54 C -0.21519 0.16142 -0.13628
 C55 C -0.16474 0.21420 -0.13401
 N56 N -0.14046 0.22978 -0.14348
 C57 C -0.12903 0.21664 -0.16771
 H58 H -0.10763 0.18106 -0.22613
 H59 H -0.17344 0.11245 -0.22884
 H60 H -0.21969 0.10939 -0.18514
 H61 H -0.22278 0.17356 -0.11721
 H62 H -0.17851 0.21984 -0.11521
 H63 H -0.10975 0.22453 -0.18010
 C64 C 0.14370 0.82874 -0.19374
 C65 C 0.14183 0.80651 -0.17244
 C66 C 0.16325 0.80509 -0.15033
 C67 C 0.18680 0.82586 -0.14925
 C68 C 0.18867 0.84783 -0.17032
 C69 C 0.16699 0.84929 -0.19270
 C70 C 0.12650 0.83503 -0.21809
 N71 N 0.13888 0.85880 -0.23158
 C72 C 0.16359 0.86777 -0.21643
 C73 C 0.21408 0.86440 -0.16423
 N74 N 0.22740 0.85292 -0.14008
 C75 C 0.21109 0.82940 -0.13067
 C76 C 0.15631 0.78093 -0.13328
 N77 N 0.13131 0.76788 -0.14457
 C78 C 0.12219 0.78317 -0.16847
 H79 H 0.10672 0.82307 -0.22560
 H80 H 0.17813 0.88609 -0.22242
 H81 H 0.22239 0.88319 -0.17655
 H82 H 0.21665 0.81578 -0.11193
 H83 H 0.16870 0.77316 -0.11434
 H84 H 0.10299 0.77748 -0.18209
 C85 C 0.16396 1.14986 0.81035
 C86 C 0.18528 1.15011 0.83306
 C87 C 0.18403 1.17187 0.85436
 C88 C 0.16145 1.19365 0.85318
 C89 C 0.14034 1.19343 0.83072
 C90 C 0.14161 1.17139 0.80917
 C91 C 0.16026 1.13184 0.78635
 N92 N 0.13627 1.14201 0.77087
 C93 C 0.12463 1.16612 0.78443
 C94 C 0.12168 1.21755 0.83470
 N95 N 0.13112 1.23210 0.85895
 C96 C 0.15533 1.21785 0.87045
 C97 C 0.20795 1.16718 0.87312
 N98 N 0.22344 1.14318 0.86361
 C99 C 0.20995 1.13252 0.83920
 H100 H 0.17412 1.11298 0.78041
 H101 H 0.10553 1.17899 0.77670
 H102 H 0.10296 1.22422 0.82088
 H103 H 0.16775 1.22479 0.88969
 H104 H 0.21394 1.18041 0.89200
 H105 H 0.21779 1.11368 0.82666
 C106 C 0.84116 0.85526 0.80638
 C107 C 0.81912 0.85645 0.82844
 C108 C 0.81886 0.83526 0.85033
 C109 C 0.84062 0.81267 0.85044
 C110 C 0.86243 0.81147 0.82865
 C111 C 0.86270 0.83291 0.80647
 C112 C 0.84627 0.87234 0.78196
 N113 N 0.87030 0.86082 0.76747
 C114 C 0.88059 0.83676 0.78207
 C115 C 0.87988 0.78670 0.83374
 N116 N 0.86904 0.77315 0.85800
 C117 C 0.84510 0.78865 0.86843
 C118 C 0.79444 0.84123 0.86813
 N119 N 0.78011 0.86543 0.85749
 C120 C 0.79483 0.87498 0.83328
 H121 H 0.83332 0.89148 0.77506
 H122 H 0.89941 0.82297 0.77528
 H123 H 0.89866 0.77887 0.82057
 H124 H 0.83170 0.78262 0.88736
 H125 H 0.78727 0.82865 0.88707
 H126 H 0.78804 0.89365 0.81996
 C127 C 0.16799 0.85101 1.19285
 C128 C 0.18865 0.85002 1.16958
 C129 C 0.18640 0.82800 1.14861
 C130 C 0.16340 0.80671 1.15068
 C131 C 0.14295 0.80768 1.17367
 C132 C 0.14527 0.82995 1.19489
 C133 C 0.16527 0.86942 1.21670
 N134 N 0.14152 0.85991 1.23291
 C135 C 0.12907 0.83587 1.21996
 C136 C 0.12371 0.78392 1.17054
 N137 N 0.13211 0.76881 1.14629
 C138 C 0.15628 0.78238 1.13395
 C139 C 0.20990 0.83198 1.12917
 N140 N 0.22608 0.85580 1.13797
 C141 C 0.21346 0.86704 1.16256
 H142 H 0.17961 0.88810 1.22202
 H143 H 0.10992 0.82350 1.22831
 H144 H 0.10527 0.77783 1.18496
 H145 H 0.16799 0.77486 1.11450
 H146 H 0.21512 0.81838 1.11033
 H147 H 0.22198 0.88590 1.17463
 C148 C 0.83296 1.14527 1.19605
 C149 C 0.81032 1.14431 1.17459
 C150 C 0.80933 1.16580 1.15300
 C151 C 0.83097 1.18848 1.15261
 C152 C 0.85337 1.18944 1.17381
 C153 C 0.85437 1.16771 1.19568
 C154 C 0.83898 1.12775 1.21998
 N155 N 0.86342 1.13912 1.23390
 C156 C 0.87309 1.16349 1.21941
 C157 C 0.87074 1.21416 1.16841
 N158 N 0.85930 1.22794 1.14454
 C159 C 0.83505 1.21260 1.13466
 C160 C 0.78465 1.15980 1.13561
 N161 N 0.77087 1.13529 1.14620
 C162 C 0.78620 1.12556 1.16998
 H163 H 0.82639 1.10843 1.22693
 H164 H 0.89205 1.17722 1.22584
 H165 H 0.89001 1.22174 1.18099
 H166 H 0.82127 1.21873 1.11602
 H167 H 0.77704 1.17244 1.11688
 H168 H 0.78004 1.10651 1.18304
 O169 O 0.45858 0.94206 0.94603
 O170 O 0.42478 0.96996 0.97249
 C171 C 0.43131 0.94938 0.95388
 O172 O 0.54376 0.94698 1.05017
 O173 O 0.57611 0.97426 1.02155
 C174 C 0.57063 0.95537 1.04209
 O175 O 0.45836 0.94211 1.04724
 O176 O 0.42470 0.96997 1.02060
 C177 C 0.43114 0.94951 1.03936
 O178 O 0.54391 0.94721 0.94310
 O179 O 0.57615 0.97495 0.97141
 C180 C 0.57073 0.95583 0.95105
 Zr181 Zr 0.50080 0.96006 0.95952
 O182 O 0.50551 0.91347 0.95905
 O183 O 0.49725 0.96064 0.91335
 Zr184 Zr 0.50066 0.95984 1.03365
 O185 O 0.50533 0.91323 1.03347
 O186 O 0.49703 0.95976 1.07982
 O187 O 0.47396 0.95356 0.99653
 O188 O 0.52709 0.95518 0.99661
 O189 O 0.54135 1.04944 0.94298
 O190 O 0.57496 1.02349 0.97148
 C191 C 0.56857 1.04207 0.95088
 O192 O 0.45565 1.05050 1.04744
 O193 O 0.42339 1.02130 1.02065
 C194 C 0.42881 1.04197 1.03947
 O195 O 0.54101 1.04897 1.05098
 O196 O 0.57485 1.02323 1.02250
 C197 C 0.56828 1.04164 1.04321
 O198 O 0.45594 1.05111 0.94647
 O199 O 0.42348 1.02149 0.97266
 C200 C 0.42906 1.04258 0.95430
 Zr201 Zr 0.49898 1.03487 0.95967
 O202 O 0.50161 1.08161 0.95950
 O203 O 0.49526 1.03454 0.91351
 Zr204 Zr 0.49878 1.03479 1.03377
 O205 O 0.50143 1.08156 1.03322
 O206 O 0.49494 1.03521 1.07990
 Zr207 Zr 0.45490 0.99636 0.99660
 Zr208 Zr 0.54467 0.99846 0.99682
 O209 O 0.52506 1.04087 0.99681
 O210 O 0.47184 1.03998 0.99669
 O211 O 0.52686 0.99808 0.95401
 O212 O 0.47344 0.99670 1.03899
 O213 O 0.47353 0.99689 0.95424
 O214 O 0.52660 0.99791 1.03951
 H215 H 0.54127 0.93818 0.99655
 H216 H 0.45960 0.99638 1.05605
 H217 H 0.53860 1.05835 0.99690
 H218 H 0.45963 0.99664 0.93723
 H219 H 0.51392 0.97179 1.08758
 H220 H 0.51099 1.02213 1.08770
 H221 H 0.48369 1.08899 1.02224
 H222 H 0.48523 1.08907 0.97228
 H223 H 0.51251 1.02295 0.90579
 H224 H 0.51443 0.97238 0.90573
 H225 H 0.48946 0.90526 0.97177
 H226 H 0.48852 0.90509 1.02166
 O227 O 0.04526 0.54157 -0.05180
 O228 O 0.01834 0.57395 -0.02306
 C229 C 0.03722 0.56802 -0.04390
 O230 O -0.06204 0.45882 -0.04884
 O231 O -0.03325 0.42637 -0.02199
 C232 C -0.05391 0.43234 -0.04113
 O233 O -0.05867 0.54222 -0.05117
 O234 O -0.03175 0.57418 -0.02205
 C235 C -0.05064 0.56856 -0.04292
 O236 O 0.04804 0.45834 -0.04933
 O237 O 0.01913 0.42616 -0.02230
 C238 C 0.03967 0.43196 -0.04163
 Zr239 Zr 0.03184 0.49997 -0.03454
 O240 O 0.03353 0.49690 -0.08067
 O241 O 0.07968 0.50320 -0.03280
 Zr242 Zr -0.04514 0.50037 -0.03444
 O243 O -0.04619 0.49720 -0.08061
 O244 O -0.09295 0.50404 -0.03321
 O245 O -0.00654 0.52635 -0.04022
 O246 O -0.00679 0.47467 -0.03995
 O247 O 0.04836 0.45797 0.05351
 O248 O 0.01931 0.42594 0.02644
 C249 C 0.04005 0.43161 0.04561
 O250 O -0.05833 0.54195 0.05658
 O251 O -0.03078 0.57407 0.02815
 C252 C -0.04996 0.56833 0.04876
 O253 O -0.06172 0.45843 0.05367
 O254 O -0.03265 0.42612 0.02685
 C255 C -0.05342 0.43199 0.04594
 O256 O 0.04561 0.54127 0.05655
 O257 O 0.01865 0.57377 0.02801
 C258 C 0.03761 0.56776 0.04873
 Zr259 Zr 0.03184 0.49974 0.03937
 O260 O 0.03287 0.49631 0.08552
 O261 O 0.07969 0.50290 0.03816
 Zr262 Zr -0.04498 0.50015 0.03949
 O263 O -0.04596 0.49670 0.08564
 O264 O -0.09280 0.50382 0.03849
 Zr265 Zr -0.00633 0.54384 0.00252
 Zr266 Zr -0.00684 0.45614 0.00229
 O267 O -0.00668 0.47437 0.04468
 O268 O -0.00643 0.52613 0.04520
 O269 O 0.03756 0.47336 0.00232
 O270 O -0.05038 0.52601 0.00262
 O271 O 0.03751 0.52562 0.00246
 O272 O -0.05107 0.47384 0.00246
 H273 H -0.00694 0.46150 -0.05727
 H274 H -0.06793 0.53969 0.00278
 H275 H -0.00667 0.46109 0.06192
 H276 H 0.05506 0.53928 0.00244
 H277 H -0.10082 0.48659 -0.02259
 H278 H -0.10071 0.48634 0.02795
 H279 H -0.03228 0.51209 0.09349
 H280 H 0.01903 0.51159 0.09337
 H281 H 0.08738 0.48548 0.02735
 H282 H 0.08739 0.48502 -0.02333
 H283 H 0.01840 0.51097 -0.08848
 H284 H -0.03282 0.51286 -0.08843
 O285 O 1.06103 -0.04992 0.54182
 O286 O 1.03127 -0.02320 0.57351
 C287 C 1.05229 -0.04232 0.56789
 O288 O 1.05952 0.05617 0.45963
 O289 O 1.03208 0.02781 0.42748
 C290 C 1.05161 0.04824 0.43343
 O291 O 1.06136 0.05343 0.54217
 O292 O 1.03196 0.02615 0.57361
 C293 C 1.05284 0.04540 0.56817
 O294 O 1.05963 -0.05191 0.45936
 O295 O 1.03268 -0.02291 0.42735
 C296 C 1.05205 -0.04355 0.43320
 Zr297 Zr 1.04474 -0.03547 0.50046
 O298 O 1.09263 -0.03513 0.49782
 O299 O 1.04480 -0.08221 0.50335
 Zr300 Zr 1.04485 0.03942 0.50073
 O301 O 1.09273 0.03901 0.49799
 O302 O 1.04492 0.08614 0.50401
 O303 O 1.05044 0.00187 0.52674
 O304 O 1.05054 0.00205 0.47531
 O305 O 0.95373 -0.05160 0.45840
 O306 O 0.98147 -0.02280 0.42686
 C307 C 0.96183 -0.04327 0.43237
 O308 O 0.95088 0.05388 0.54105
 O309 O 0.97947 0.02650 0.57312
 C310 C 0.95885 0.04594 0.56722
 O311 O 0.95421 0.05637 0.45877
 O312 O 0.98217 0.02790 0.42707
 C313 C 0.96256 0.04838 0.43272
 O314 O 0.95097 -0.04991 0.54086
 O315 O 0.97998 -0.02308 0.57304
 C316 C 0.95923 -0.04232 0.56706
 Zr317 Zr 0.96795 -0.03533 0.49979
 O318 O 0.92011 -0.03475 0.49644
 O319 O 0.96773 -0.08207 0.50259
 Zr320 Zr 0.96809 0.03957 0.50005
 O321 O 0.92027 0.03927 0.49653
 O322 O 0.96808 0.08630 0.50326
 Zr323 Zr 1.00597 0.00195 0.54363
 Zr324 Zr 1.00682 0.00211 0.45691
 O325 O 0.96276 0.00223 0.47455
 O326 O 0.96185 0.00205 0.52598
 O327 O 1.00659 -0.04118 0.47403
 O328 O 1.00624 0.04483 0.52573
 O329 O 1.00610 -0.04083 0.52535
 O330 O 1.00673 0.04529 0.47438
 H331 H 1.06846 0.00214 0.46225
 H332 H 1.00617 0.06217 0.53900
 H333 H 0.94510 0.00240 0.46119
 H334 H 1.00598 -0.05837 0.53834
 H335 H 1.03256 0.09390 0.48769
 H336 H 0.98084 0.09400 0.48719
 H337 H 0.91231 0.02746 0.51304
 H338 H 0.91223 -0.02339 0.51329
 H339 H 0.98041 -0.08967 0.48641
 H340 H 1.03229 -0.08980 0.48707
 H341 H 1.10027 -0.02367 0.51471
 H342 H 1.10037 0.02711 0.51458
 C343 C 1.08889 0.08603 0.36069
 C344 C 1.11157 0.07043 0.34509
 C345 C 1.12257 0.08176 0.31810
 C346 C 1.11098 0.10873 0.30697
 C347 C 1.08843 0.12441 0.32267
 C348 C 1.07733 0.11300 0.34958
 C349 C 1.05459 0.12892 0.36475
 C350 C 1.04315 0.15537 0.35364
 C351 C 1.05404 0.16655 0.32735
 C352 C 1.07642 0.15136 0.31195
 C353 C 1.14496 0.06559 0.30273
 C354 C 1.15622 0.03901 0.31374
 C355 C 1.14559 0.02802 0.34021
 C356 C 1.12349 0.04343 0.35578
 C357 C 1.12210 0.12030 0.27934
 C358 C 1.13119 0.13009 0.25642
 C359 C 1.07648 0.07363 0.38742
 C360 C 1.06554 0.06260 0.40896
 H361 H 1.04544 0.12114 0.38531
 H362 H 1.02575 0.16725 0.36551
 H363 H 1.04509 0.18711 0.31881
 H364 H 1.08413 0.16094 0.29158
 H365 H 1.15396 0.07326 0.28206
 H366 H 1.17328 0.02688 0.30166
 H367 H 1.15434 0.00733 0.34864
 H368 H 1.11584 0.03391 0.37620
 C369 C 0.92302 -0.07936 0.35951
 C370 C 0.92580 -0.10986 0.35303
 C371 C 0.91371 -0.12124 0.32650
 C372 C 0.89894 -0.10203 0.30660
 C373 C 0.89605 -0.07153 0.31314
 C374 C 0.90807 -0.06017 0.33971
 C375 C 0.90481 -0.02961 0.34580
 C376 C 0.89006 -0.01085 0.32624
 C377 C 0.87852 -0.02192 0.30019
 C378 C 0.88139 -0.05190 0.29360
 C379 C 0.91684 -0.15181 0.32047
 C380 C 0.93149 -0.17059 0.34008
 C381 C 0.94331 -0.15946 0.36600
 C382 C 0.94056 -0.12946 0.37252
 C383 C 0.88675 -0.11368 0.27944
 C384 C 0.87667 -0.12356 0.25696
 C385 C 0.93628 -0.06751 0.38610
 C386 C 0.94770 -0.05700 0.40766
 H387 H 0.91354 -0.01990 0.36572
 H388 H 0.88765 0.01243 0.33127
 H389 H 0.86725 -0.00720 0.28500
 H390 H 0.87199 -0.05949 0.27308
 H391 H 0.90804 -0.16152 0.30058
 H392 H 0.93370 -0.19391 0.33513
 H393 H 0.95467 -0.17414 0.38115
 H394 H 0.95010 -0.12185 0.39298
 C395 C 0.92164 0.08595 0.63886
 C396 C 0.94134 0.10048 0.65866
 C397 C 0.92955 0.11320 0.68473
 C398 C 0.89816 0.11124 0.69087
 C399 C 0.87844 0.09698 0.67091
 C400 C 0.89022 0.08431 0.64483
 C401 C 0.87011 0.07005 0.62528
 C402 C 0.83921 0.06836 0.63132
 C403 C 0.82767 0.08075 0.65682
 C404 C 0.84695 0.09492 0.67647
 C405 C 0.94967 0.12753 0.70422
 C406 C 0.98058 0.12921 0.69817
 C407 C 0.99213 0.11673 0.67272
 C408 C 0.97285 0.10252 0.65310
 C409 C 0.88614 0.12336 0.71790
 C410 C 0.87563 0.13299 0.74031
 C411 C 0.93387 0.07205 0.61279
 C412 C 0.94469 0.06023 0.59160
 H413 H 0.87801 0.06009 0.60515
 H414 H 0.82415 0.05737 0.61613
 H415 H 0.80365 0.07937 0.66142
 H416 H 0.83688 0.10421 0.69599
 H417 H 0.94174 0.13757 0.72430
 H418 H 0.99565 0.14024 0.71332
 H419 H 1.01615 0.11803 0.66817
 H420 H 0.98292 0.09318 0.63358
 C421 C 1.08784 -0.08141 0.64072
 C422 C 1.11717 -0.07426 0.65101
 C423 C 1.12770 -0.08636 0.67784
 C424 C 1.10890 -0.10570 0.69411
 C425 C 1.07960 -0.11294 0.68374
 C426 C 1.06907 -0.10084 0.65691
 C427 C 1.03975 -0.10853 0.64691
 C428 C 1.02135 -0.12758 0.66298
 C429 C 1.03154 -0.13920 0.68933
 C430 C 1.06032 -0.13208 0.69968
 C431 C 1.15701 -0.07866 0.68783
 C432 C 1.17542 -0.05964 0.67172
 C433 C 1.16518 -0.04796 0.64540
 C434 C 1.13641 -0.05510 0.63505
 C435 C 1.11983 -0.11843 0.72130
 C436 C 1.12890 -0.12920 0.74378
 C437 C 1.07646 -0.06798 0.61407
 C438 C 1.06609 -0.05648 0.59251
 H439 H 1.03072 -0.09991 0.62663
 H440 H 0.99894 -0.13312 0.65506
 H441 H 1.01706 -0.15381 0.70184
 H442 H 1.06724 -0.14171 0.72029
 H443 H 1.16599 -0.08721 0.70817
 H444 H 1.19776 -0.05396 0.67971
 H445 H 1.17956 -0.03319 0.63297
 H446 H 1.12940 -0.04539 0.61450
 C447 C 0.35343 1.07977 1.07560
 C448 C 0.34274 1.06955 1.10299
 C449 C 0.31574 1.08156 1.11510
 C450 C 0.29955 1.10370 1.09971
 C451 C 0.31002 1.11364 1.07213
 C452 C 0.33712 1.10173 1.06010
 C453 C 0.34727 1.11216 1.03260
 C454 C 0.33098 1.13359 1.01731
 C455 C 0.30436 1.14505 1.02897
 C456 C 0.29393 1.13533 1.05609
 C457 C 0.30550 1.07098 1.14252
 C458 C 0.32148 1.04916 1.15754
 C459 C 0.34790 1.03744 1.14572
 C460 C 0.35850 1.04740 1.11876
 C461 C 0.27241 1.11647 1.11253
 C462 C 0.25010 1.12701 1.12365
 C463 C 0.38075 1.06713 1.06307
 C464 C 0.40305 1.05605 1.05251
 H465 H 0.36775 1.10378 1.02254
 H466 H 0.33895 1.14115 0.99620
 H467 H 0.29171 1.16157 1.01693
 H468 H 0.27311 1.14491 1.06427
 H469 H 0.28506 1.07939 1.15262
 H470 H 0.31333 1.04132 1.17848
 H471 H 0.36029 1.02059 1.15753
 H472 H 0.37916 1.03758 1.11048
 C473 C 0.35742 0.90755 0.91945
 C474 C 0.33058 0.90680 0.93643
 C475 C 0.30366 0.89443 0.92454
 C476 C 0.30368 0.88308 0.89567
 C477 C 0.33068 0.88332 0.87892
 C478 C 0.35764 0.89556 0.89086
 C479 C 0.38431 0.89567 0.87366
 C480 C 0.38436 0.88400 0.84545
 C481 C 0.35801 0.87204 0.83376
 C482 C 0.33141 0.87165 0.85019
 C483 C 0.27713 0.89389 0.94194
 C484 C 0.27714 0.90539 0.97023
 C485 C 0.30338 0.91772 0.98176
 C486 C 0.32988 0.91840 0.96520
 C487 C 0.27582 0.87186 0.88292
 C488 C 0.25273 0.86279 0.87204
 C489 C 0.38445 0.92153 0.93110
 C490 C 0.40632 0.93383 0.94114
 H491 H 0.40537 0.90470 0.88182
 H492 H 0.40496 0.88424 0.83260
 H493 H 0.35816 0.86300 0.81184
 H494 H 0.31150 0.86207 0.84016
 H495 H 0.25615 0.88455 0.93391
 H496 H 0.25667 0.90473 0.98326
 H497 H 0.30329 0.92657 1.00376
 H498 H 0.34978 0.92799 0.97524
 C499 C 0.64692 0.92239 1.08084
 C500 C 0.65182 0.92509 1.11131
 C501 C 0.67915 0.91435 1.12390
 C502 C 0.70135 0.90084 1.10594
 C503 C 0.69673 0.89872 1.07537
 C504 C 0.66948 0.90962 1.06276
 C505 C 0.66557 0.90761 1.03208
 C506 C 0.68795 0.89526 1.01439
 C507 C 0.71447 0.88437 1.02674
 C508 C 0.71892 0.88598 1.05687
 C509 C 0.68366 0.91756 1.15437
 C510 C 0.66185 0.93108 1.17190
 C511 C 0.63513 0.94159 1.15960
 C512 C 0.63003 0.93864 1.12967
 C513 C 0.72879 0.88888 1.11893
 C514 C 0.75145 0.87863 1.12964
 C515 C 0.61906 0.93338 1.06792
 C516 C 0.59644 0.94297 1.05659
 H517 H 0.64530 0.91571 1.02142
 H518 H 0.68476 0.89421 0.99096
 H519 H 0.73175 0.87473 1.01288
 H520 H 0.73999 0.87733 1.06544
 H521 H 0.70411 0.90980 1.16494
 H522 H 0.66571 0.93344 1.19516
 H523 H 0.61827 0.95210 1.17331
 H524 H 0.60894 0.94723 1.12109
 C525 C 0.64239 1.07713 0.90958
 C526 C 0.64177 1.10570 0.89695
 C527 C 0.66850 1.11769 0.88429
 C528 C 0.69566 1.10098 0.88427
 C529 C 0.69611 1.07213 0.89634
 C530 C 0.66942 1.06022 0.90916
 C531 C 0.67054 1.03149 0.92147
 C532 C 0.69720 1.01498 0.92103
 C533 C 0.72321 1.02652 0.90825
 C534 C 0.72281 1.05478 0.89606
 C535 C 0.66737 1.14640 0.87196
 C536 C 0.64060 1.16277 0.87211
 C537 C 0.61447 1.15103 0.88447
 C538 C 0.61492 1.12284 0.89679
 C539 C 0.72325 1.11379 0.87249
 C540 C 0.74608 1.12481 0.86292
 C541 C 0.61549 1.06534 0.92362
 C542 C 0.59365 1.05513 0.93578
 H543 H 0.65083 1.02143 0.93144
 H544 H 0.69760 0.99299 0.93042
 H545 H 0.74380 1.01351 0.90779
 H546 H 0.74362 1.06282 0.88640
 H547 H 0.68709 1.15647 0.86204
 H548 H 0.64014 1.18468 0.86256
 H549 H 0.59373 1.16383 0.88452
 H550 H 0.59401 1.11464 0.90613
 C551 C 0.07658 0.35832 0.08425
 C552 C 0.05832 0.33260 0.08564
 C553 C 0.07008 0.30623 0.09824
 C554 C 0.10010 0.30569 0.10917
 C555 C 0.11823 0.33151 0.10803
 C556 C 0.10642 0.35791 0.09556
 C557 C 0.12498 0.38342 0.09461
 C558 C 0.15439 0.38286 0.10567
 C559 C 0.16595 0.35705 0.11787
 C560 C 0.14819 0.33161 0.11909
 C561 C 0.05136 0.28084 0.09950
 C562 C 0.02193 0.28143 0.08848
 C563 C 0.01052 0.30712 0.07594
 C564 C 0.02836 0.33250 0.07456
 C565 C 0.11254 0.27849 0.12109
 C566 C 0.12316 0.25595 0.13080
 C567 C 0.06467 0.38504 0.07090
 C568 C 0.05403 0.40672 0.05951
 H569 H 0.11697 0.40401 0.08534
 H570 H 0.16828 0.40257 0.10477
 H571 H 0.18881 0.35674 0.12643
 H572 H 0.15819 0.31208 0.12881
 H573 H 0.05925 0.26032 0.10902
 H574 H 0.00790 0.26183 0.08967
 H575 H -0.01238 0.30748 0.06745
 H576 H 0.01836 0.35201 0.06479
 C577 C -0.08909 0.35900 -0.08066
 C578 C -0.11657 0.34608 -0.07108
 C579 C -0.12687 0.31927 -0.08392
 C580 C -0.10959 0.30550 -0.10621
 C581 C -0.08196 0.31828 -0.11560
 C582 C -0.07175 0.34518 -0.10288
 C583 C -0.04412 0.35761 -0.11272
 C584 C -0.02699 0.34377 -0.13437
 C585 C -0.03686 0.31736 -0.14665
 C586 C -0.06404 0.30469 -0.13750
 C587 C -0.15438 0.30674 -0.07393
 C588 C -0.17121 0.32030 -0.05188
 C589 C -0.16114 0.34652 -0.03936
 C590 C -0.13414 0.35936 -0.04874
 C591 C -0.12035 0.27832 -0.11959
 C592 C -0.12954 0.25584 -0.13067
 C593 C -0.07802 0.38585 -0.06695
 C594 C -0.06780 0.40758 -0.05532
 H595 H -0.03539 0.37804 -0.10374
 H596 H -0.00582 0.35348 -0.14150
 H597 H -0.02337 0.30662 -0.16334
 H598 H -0.07078 0.28413 -0.14771
 H599 H -0.16314 0.28635 -0.08297
 H600 H -0.19220 0.31042 -0.04449
 H601 H -0.17436 0.35700 -0.02232
 H602 H -0.12725 0.37978 -0.03833
 C603 C 0.07083 0.64036 -0.08650
 C604 C 0.05286 0.66632 -0.08735
 C605 C 0.06442 0.69242 -0.10061
 C606 C 0.09400 0.69250 -0.11260
 C607 C 0.11171 0.66635 -0.11227
 C608 C 0.10006 0.64019 -0.09923
 C609 C 0.11820 0.61435 -0.09906
 C610 C 0.14706 0.61436 -0.11143
 C611 C 0.15848 0.63995 -0.12417
 C612 C 0.14112 0.66571 -0.12464
 C613 C 0.04598 0.71804 -0.10138
 C614 C 0.01701 0.71794 -0.08923
 C615 C 0.00583 0.69252 -0.07597
 C616 C 0.02344 0.66693 -0.07501
 C617 C 0.10670 0.71963 -0.12439
 C618 C 0.11786 0.74201 -0.13382
 C619 C 0.05948 0.61408 -0.07194
 C620 C 0.04972 0.59269 -0.05939
 H621 H 0.11029 0.59390 -0.08943
 H622 H 0.16063 0.59441 -0.11112
 H623 H 0.18091 0.63985 -0.13376
 H624 H 0.15097 0.68502 -0.13487
 H625 H 0.05371 0.73836 -0.11142
 H626 H 0.00316 0.73769 -0.09009
 H627 H -0.01670 0.69253 -0.06659
 H628 H 0.01364 0.64764 -0.06467
 C629 C -0.08349 0.64235 0.08856
 C630 C -0.06620 0.65686 0.11034
 C631 C -0.07625 0.68436 0.12192
 C632 C -0.10371 0.69702 0.11189
 C633 C -0.12108 0.68241 0.09022
 C634 C -0.11092 0.65501 0.07850
 C635 C -0.12860 0.64090 0.05676
 C636 C -0.15556 0.65346 0.04691
 C637 C -0.16548 0.68026 0.05832
 C638 C -0.14854 0.69466 0.07973
 C639 C -0.05833 0.69869 0.14332
 C640 C -0.03132 0.68613 0.15311
 C641 C -0.02163 0.65912 0.14198
 C642 C -0.03878 0.64455 0.12083
 C643 C -0.11426 0.72495 0.12387
 C644 C -0.12355 0.74806 0.13356
 C645 C -0.07236 0.61518 0.07546
 C646 C -0.06260 0.59326 0.06377
 H647 H -0.12185 0.62000 0.04722
 H648 H -0.16886 0.64230 0.03038
 H649 H -0.18643 0.68995 0.05058
 H650 H -0.15721 0.71547 0.08792
 H651 H -0.06496 0.71972 0.15265
 H652 H -0.01784 0.69743 0.16941
 H653 H -0.00060 0.64949 0.14960
 H654 H -0.03022 0.62366 0.11272
 C655 C 1.08762 0.08291 0.64207
 C656 C 1.10181 0.06467 0.66321
 C657 C 1.11168 0.07702 0.69015
 C658 C 1.10710 0.10749 0.69588
 C659 C 1.09243 0.12561 0.67496
 C660 C 1.08274 0.11330 0.64793
 C661 C 1.06802 0.13181 0.62739
 C662 C 1.06287 0.16160 0.63346
 C663 C 1.07228 0.17362 0.65991
 C664 C 1.08696 0.15595 0.68048
 C665 C 1.12578 0.05836 0.71096
 C666 C 1.12970 0.02828 0.70546
 C667 C 1.11982 0.01615 0.67922
 C668 C 1.10616 0.03404 0.65819
 C669 C 1.11749 0.12016 0.72326
 C670 C 1.12634 0.13061 0.74596
 C671 C 1.07673 0.07012 0.61495
 C672 C 1.06662 0.05914 0.59302
 H673 H 1.06023 0.12347 0.60653
 H674 H 1.05148 0.17541 0.61754
 H675 H 1.06821 0.19678 0.66452
 H676 H 1.09383 0.16631 0.70075
 H677 H 1.13373 0.06674 0.73176
 H678 H 1.14037 0.01429 0.72168
 H679 H 1.12270 -0.00725 0.67519
 H680 H 1.09894 0.02357 0.63808
 C681 C 0.92441 -0.08210 0.63981
 C682 C 0.89574 -0.09609 0.64048
 C683 C 0.88496 -0.10877 0.66695
 C684 C 0.90295 -0.10743 0.69257
 C685 C 0.93186 -0.09388 0.69176
 C686 C 0.94256 -0.08104 0.66534
 C687 C 0.97136 -0.06723 0.66519
 C688 C 0.98912 -0.06627 0.69036
 C689 C 0.97877 -0.07909 0.71611
 C690 C 0.95047 -0.09273 0.71695
 C691 C 0.85615 -0.12252 0.66713
 C692 C 0.83853 -0.12372 0.64188
 C693 C 0.84909 -0.11132 0.61599
 C694 C 0.87736 -0.09763 0.61518
 C695 C 0.89138 -0.11931 0.71988
 C696 C 0.88146 -0.12886 0.74256
 C697 C 0.93528 -0.06852 0.61304
 C698 C 0.94539 -0.05681 0.59148
 H699 H 0.98054 -0.05715 0.64564
 H700 H 1.01115 -0.05577 0.68979
 H701 H 0.99275 -0.07848 0.73555
 H702 H 0.94340 -0.10238 0.73750
 H703 H 0.84698 -0.13253 0.68672
 H704 H 0.81656 -0.13434 0.64239
 H705 H 0.83532 -0.11231 0.59644
 H706 H 0.88462 -0.08830 0.59454
 C707 C 1.09060 -0.08049 0.36069
 C708 C 1.09896 -0.11069 0.35946
 C709 C 1.11033 -0.12284 0.33296
 C710 C 1.11329 -0.10468 0.30788
 C711 C 1.10546 -0.07433 0.30927
 C712 C 1.09400 -0.06220 0.33574
 C713 C 1.08598 -0.03187 0.33650
 C714 C 1.08915 -0.01406 0.31182
 C715 C 1.10057 -0.02586 0.28601
 C716 C 1.10865 -0.05564 0.28461
 C717 C 1.11839 -0.15314 0.33221
 C718 C 1.11531 -0.17093 0.35692
 C719 C 1.10418 -0.15904 0.38283
 C720 C 1.09606 -0.12927 0.38420
 C721 C 1.12379 -0.11739 0.28053
 C722 C 1.13227 -0.12814 0.25783
 C723 C 1.07767 -0.06833 0.38727
 C724 C 1.06633 -0.05756 0.40874
 H725 H 1.07720 -0.02158 0.35612
 H726 H 1.08284 0.00907 0.31277
 H727 H 1.10316 -0.01189 0.26695
 H728 H 1.11740 -0.06383 0.26403
 H729 H 1.12717 -0.16340 0.31257
 H730 H 1.12158 -0.19406 0.35596
 H731 H 1.10182 -0.17294 0.40196
 H732 H 1.08754 -0.12102 0.40485
 C733 C 0.92491 0.08503 0.35971
 C734 C 0.92996 0.07009 0.33291
 C735 C 0.91701 0.08120 0.30667
 C736 C 0.89934 0.10735 0.30735
 C737 C 0.89439 0.12234 0.33413
 C738 C 0.90720 0.11112 0.36040
 C739 C 0.90192 0.12643 0.38692
 C740 C 0.88445 0.15212 0.38747
 C741 C 0.87191 0.16309 0.36179
 C742 C 0.87675 0.14847 0.33536
 C743 C 0.92208 0.06571 0.28021
 C744 C 0.93960 0.04004 0.27967
 C745 C 0.95247 0.02930 0.30528
 C746 C 0.94778 0.04404 0.33166
 C747 C 0.88632 0.11888 0.28052
 C748 C 0.87545 0.12851 0.25828
 C749 C 0.93777 0.07327 0.38647
 C750 C 0.94882 0.06256 0.40810
 H751 H 0.91123 0.11874 0.40745
 H752 H 0.88061 0.16357 0.40793
 H753 H 0.85835 0.18305 0.36234
 H754 H 0.86650 0.15786 0.31597
 H755 H 0.91257 0.07322 0.25970
 H756 H 0.94321 0.02843 0.25926
 H757 H 0.96603 0.00934 0.30475
 H758 H 0.95815 0.03470 0.35101
 C759 C 0.07447 0.35910 -0.08238
 C760 C 0.10446 0.35821 -0.09331
 C761 C 0.11566 0.33191 -0.10647
 C762 C 0.09678 0.30669 -0.10866
 C763 C 0.06658 0.30777 -0.09824
 C764 C 0.05542 0.33403 -0.08496
 C765 C 0.02525 0.33447 -0.07438
 C766 C 0.00665 0.30970 -0.07690
 C767 C 0.01749 0.28412 -0.09012
 C768 C 0.04711 0.28301 -0.10066
 C769 C 0.14579 0.33150 -0.11712
 C770 C 0.16428 0.35638 -0.11485
 C771 C 0.15331 0.38209 -0.10197
 C772 C 0.12376 0.38312 -0.09127
 C773 C 0.10875 0.27943 -0.12085
 C774 C 0.11922 0.25685 -0.13060
 C775 C 0.06324 0.38562 -0.06819
 C776 C 0.05314 0.40719 -0.05616
 H777 H 0.01568 0.35393 -0.06412
 H778 H -0.01638 0.31045 -0.06876
 H779 H 0.00287 0.26501 -0.09220
 H780 H 0.05454 0.26260 -0.11074
 H781 H 0.15535 0.31203 -0.12735
 H782 H 0.18725 0.35569 -0.12314
 H783 H 0.16776 0.40135 -0.10026
 H784 H 0.11623 0.40363 -0.08144
 C785 C -0.08887 0.35838 0.08472
 C786 C -0.07063 0.34295 0.10515
 C787 C -0.08104 0.31589 0.11735
 C788 C -0.10973 0.30453 0.10922
 C789 C -0.12797 0.31998 0.08882
 C790 C -0.11749 0.34698 0.07651
 C791 C -0.13606 0.36198 0.05608
 C792 C -0.16420 0.35064 0.04805
 C793 C -0.17444 0.32423 0.06004
 C794 C -0.15664 0.30898 0.08021
 C795 C -0.06227 0.30069 0.13746
 C796 C -0.03406 0.31197 0.14540
 C797 C -0.02398 0.33855 0.13364
 C798 C -0.04192 0.35392 0.11369
 C799 C -0.12055 0.27705 0.12192
 C800 C -0.12976 0.25431 0.13241
 C801 C -0.07762 0.38535 0.07138
 C802 C -0.06731 0.40715 0.05997
 H803 H -0.12907 0.38261 0.04614
 H804 H -0.17816 0.36245 0.03249
 H805 H -0.19630 0.31549 0.05370
 H806 H -0.16557 0.28851 0.08891
 H807 H -0.06913 0.27993 0.14721
 H808 H -0.01995 0.30000 0.16072
 H809 H -0.00201 0.34717 0.13980
 H810 H -0.03298 0.37441 0.10502
 C811 C -0.08299 0.64266 -0.08336
 C812 C -0.11001 0.65624 -0.07344
 C813 C -0.11952 0.68358 -0.08576
 C814 C -0.10190 0.69720 -0.10787
 C815 C -0.07479 0.68368 -0.11770
 C816 C -0.06541 0.65622 -0.10554
 C817 C -0.03834 0.64301 -0.11584
 C818 C -0.02088 0.65669 -0.13734
 C819 C -0.02991 0.68367 -0.14903
 C820 C -0.05658 0.69708 -0.13946
 C821 C -0.14659 0.69678 -0.07542
 C822 C -0.16375 0.68336 -0.05354
 C823 C -0.15445 0.65663 -0.04152
 C824 C -0.12790 0.64313 -0.05125
 C825 C -0.11187 0.72499 -0.12057
 C826 C -0.12075 0.74797 -0.13087
 C827 C -0.07253 0.61549 -0.06979
 C828 C -0.06314 0.59355 -0.05790
 H829 H -0.03029 0.62212 -0.10730
 H830 H -0.00011 0.64640 -0.14478
 H831 H -0.01617 0.69429 -0.16559
 H832 H -0.06269 0.71806 -0.14922
 H833 H -0.15476 0.71759 -0.08406
 H834 H -0.18438 0.69377 -0.04590
 H835 H -0.16791 0.64625 -0.02461
 H836 H -0.12162 0.62232 -0.04123
 C837 C 0.07152 0.64027 0.09072
 C838 C 0.10086 0.64031 0.10319
 C839 C 0.11257 0.66666 0.11579
 C840 C 0.09483 0.69279 0.11590
 C841 C 0.06513 0.69250 0.10419
 C842 C 0.05350 0.66620 0.09141
 C843 C 0.02394 0.66659 0.07936
 C844 C 0.00631 0.69217 0.08013
 C845 C 0.01757 0.71779 0.09292
 C846 C 0.04666 0.71811 0.10478
 C847 C 0.14207 0.66623 0.12794
 C848 C 0.15946 0.64049 0.12768
 C849 C 0.14799 0.61472 0.11537
 C850 C 0.11904 0.61450 0.10322
 C851 C 0.10758 0.72011 0.12713
 C852 C 0.11873 0.74269 0.13609
 C853 C 0.06014 0.61384 0.07647
 C854 C 0.05029 0.59238 0.06411
 H855 H 0.01407 0.64714 0.06940
 H856 H -0.01631 0.69202 0.07098
 H857 H 0.00370 0.73754 0.09364
 H858 H 0.05446 0.73858 0.11446
 H859 H 0.15197 0.68570 0.13782
 H860 H 0.18196 0.64055 0.13710
 H861 H 0.16159 0.59478 0.11522
 H862 H 0.11108 0.59391 0.09392
 C863 C 0.35424 1.08405 0.92135
 C864 C 0.35426 1.09663 0.89301
 C865 C 0.32736 1.10959 0.88171
 C866 C 0.30063 1.10994 0.89886
 C867 C 0.30080 1.09793 0.92746
 C868 C 0.32766 1.08483 0.93870
 C869 C 0.32718 1.07260 0.96721
 C870 C 0.30094 1.07340 0.98416
 C871 C 0.27476 1.08645 0.97326
 C872 C 0.27454 1.09856 0.94523
 C873 C 0.32788 1.12189 0.85324
 C874 C 0.35423 1.12142 0.83644
 C875 C 0.38054 1.10875 0.84751
 C876 C 0.38068 1.09646 0.87546
 C877 C 0.27286 1.12203 0.88675
 C878 C 0.24993 1.13186 0.87621
 C879 C 0.38134 1.06980 0.93248
 C880 C 0.40346 1.05758 0.94208
 H881 H 0.34705 1.06242 0.97676
 H882 H 0.30101 1.06406 1.00597
 H883 H 0.25450 1.08718 0.98660
 H884 H 0.25361 1.10845 0.93769
 H885 H 0.30801 1.13203 0.84367
 H886 H 0.35423 1.13094 0.81472
 H887 H 0.40095 1.10844 0.83438
 H888 H 0.40171 1.08688 0.88313
 C889 C 0.35717 0.91032 1.07643
 C890 C 0.33988 0.88933 1.06063
 C891 C 0.31262 0.87799 1.07281
 C892 C 0.30296 0.88755 1.10081
 C893 C 0.32035 0.90843 1.11665
 C894 C 0.34754 0.91983 1.10443
 C895 C 0.36452 0.94071 1.12066
 C896 C 0.35494 0.95003 1.14820
 C897 C 0.32829 0.93896 1.16012
 C898 C 0.31111 0.91839 1.14464
 C899 C 0.29553 0.85730 1.05649
 C900 C 0.30518 0.84796 1.02896
 C901 C 0.33195 0.85888 1.01715
 C902 C 0.34917 0.87938 1.03268
 C903 C 0.27526 0.87588 1.11348
 C904 C 0.25244 0.86649 1.12458
 C905 C 0.38418 0.92306 1.06346
 C906 C 0.40607 0.93456 1.05261
 H907 H 0.38541 0.94998 1.11233
 H908 H 0.36830 0.96586 1.16037
 H909 H 0.32092 0.94630 1.18150
 H910 H 0.29056 0.91042 1.15486
 H911 H 0.27457 0.84815 1.06479
 H912 H 0.29179 0.83218 1.01673
 H913 H 0.33931 0.85161 0.99573
 H914 H 0.36975 0.88736 1.02252
 C915 C 0.64109 1.07670 1.08601
 C916 C 0.66326 1.05731 1.09762
 C917 C 0.68981 1.06903 1.11083
 C918 C 0.69403 1.10004 1.11231
 C919 C 0.67162 1.11942 1.10112
 C920 C 0.64506 1.10770 1.08794
 C921 C 0.62303 1.12749 1.07679
 C922 C 0.62712 1.15799 1.07862
 C923 C 0.65309 1.16946 1.09150
 C924 C 0.67516 1.15051 1.10265
 C925 C 0.71171 1.04924 1.12219
 C926 C 0.70753 1.01872 1.12050
 C927 C 0.68161 1.00726 1.10751
 C928 C 0.65963 1.02621 1.09619
 C929 C 0.72161 1.11212 1.12479
 C930 C 0.74444 1.12265 1.13480
 C931 C 0.61468 1.06475 1.07133
 C932 C 0.59315 1.05453 1.05870
 H933 H 0.60243 1.11962 1.06661
 H934 H 0.61004 1.17280 1.07000
 H935 H 0.65617 1.19318 1.09287
 H936 H 0.69496 1.16051 1.11249
 H937 H 0.73225 1.05712 1.13249
 H938 H 0.72451 1.00389 1.12928
 H939 H 0.67854 0.98356 1.10617
 H940 H 0.63982 1.01622 1.08634
 C941 C 0.64679 0.92141 0.91319
 C942 C 0.65820 0.89391 0.92310
 C943 C 0.68604 0.88291 0.91187
 C944 C 0.70223 0.89942 0.89069
 C945 C 0.69087 0.92700 0.88086
 C946 C 0.66299 0.93796 0.89206
 C947 C 0.65198 0.96549 0.88179
 C948 C 0.66815 0.98181 0.86117
 C949 C 0.69554 0.97120 0.85041
 C950 C 0.70685 0.94409 0.86002
 C951 C 0.69712 0.85547 0.92231
 C952 C 0.68112 0.83934 0.94318
 C953 C 0.65381 0.85001 0.95404
 C954 C 0.64237 0.87698 0.94421
 C955 C 0.73030 0.88778 0.87875
 C956 C 0.75342 0.87762 0.86889
 C957 C 0.61903 0.93317 0.92561
 C958 C 0.59652 0.94323 0.93671
 H959 H 0.63087 0.97474 0.88964
 H960 H 0.65950 1.00291 0.85370
 H961 H 0.70811 0.98405 0.83454
 H962 H 0.72824 0.93675 0.85100
 H963 H 0.71827 0.84623 0.91453
 H964 H 0.68996 0.81842 0.95095
 H965 H 0.64147 0.83741 0.97026
 H966 H 0.62108 0.88439 0.95338
   
