data_POSCAR
  _audit_creation_date              2014-09-24
  _audit_creation_method            'ToBaCCo'
  _symmetry_space_group_name_H-M    'P1'
  _symmetry_Int_Tables_number       1
  _symmetry_cell_setting            triclinic
  loop_
  _symmetry_equiv_pos_as_xyz
 x,y,z
_cell_length_a 35.0025
_cell_length_b 35.9193
_cell_length_c 34.6889
_cell_angle_alpha 90.070400
_cell_angle_beta 90.492200
_cell_angle_gamma 89.703800
loop_
  _atom_site_label
  _atom_site_type_symbol
  _atom_site_fract_x
  _atom_site_fract_y
  _atom_site_fract_z
N1 N 0.15610 0.15859 0.14632
 N2 N -0.18598 0.80314 0.19120
 N3 N -0.16742 0.16974 -0.15976
 N4 N 0.15421 0.84192 -0.16165
 N5 N 0.16814 1.16812 0.83909
 N6 N 0.85025 0.84766 0.84290
 N7 N 0.18393 0.81297 1.18681
 N8 N 0.83795 1.16852 1.14946
 O9 O 0.44551 0.93468 0.92397
 O10 O 0.40495 0.97112 0.95956
 C11 C 0.41173 0.94653 0.93308
 O12 O 0.54354 0.91814 1.06837
 O13 O 0.59096 0.94999 1.03729
 C14 C 0.57918 0.92495 1.06135
 O15 O 0.43672 0.92638 1.05873
 O16 O 0.40064 0.96846 1.02417
 C17 C 0.40423 0.94080 1.04785
 O18 O 0.55217 0.92908 0.92659
 O19 O 0.59436 0.95413 0.97019
 C20 C 0.58645 0.93424 0.94002
 Zr21 Zr 0.49927 0.94873 0.94817
 O22 O 0.49836 0.88979 0.94649
 O23 O 0.49835 0.95083 0.88723
 Zr24 Zr 0.49329 0.94244 1.04488
 O25 O 0.49166 0.88375 1.03940
 O26 O 0.48566 0.93820 1.10518
 O27 O 0.46152 0.94183 0.99379
 O28 O 0.52882 0.93559 0.99808
 O29 O 0.56487 1.05558 0.93851
 O30 O 0.60089 1.01468 0.97475
 C31 C 0.59729 1.04099 0.94949
 O32 O 0.45001 1.06043 1.06963
 O33 O 0.40717 1.03198 1.02895
 C34 C 0.41565 1.05480 1.05666
 O35 O 0.55581 1.04663 1.07887
 O36 O 0.59677 1.01241 1.04133
 C37 C 0.58971 1.03533 1.06931
 O38 O 0.45762 1.06876 0.93410
 O39 O 0.41061 1.03594 0.96467
 C40 C 0.42202 1.06184 0.94154
 Zr41 Zr 0.50815 1.04236 0.95523
 O42 O 0.51748 1.10029 0.96117
 O43 O 0.50809 1.04741 0.89442
 Zr44 Zr 0.50231 1.03595 1.05212
 O45 O 0.51202 1.09400 1.05564
 O46 O 0.49476 1.03323 1.11252
 Zr47 Zr 0.44412 0.99808 0.99652
 Zr48 Zr 0.55726 0.98678 1.00380
 O49 O 0.53891 1.04261 1.00627
 O50 O 0.47191 1.04979 1.00209
 O51 O 0.53785 0.99271 0.94637
 O52 O 0.46454 0.99206 1.05345
 O53 O 0.47120 0.99923 0.94257
 O54 O 0.53120 0.98533 1.05833
 H55 H 0.54420 0.91237 0.99725
 H56 H 0.44632 0.99234 1.07515
 H57 H 0.55823 1.06254 1.00889
 H58 H 0.45554 1.00220 0.91884
 H59 H 0.50725 0.95123 1.11777
 H60 H 0.51267 1.01415 1.12262
 H61 H 0.49164 1.10657 1.04053
 H62 H 0.49496 1.11102 0.97425
 H63 H 0.52862 1.03110 0.88449
 H64 H 0.51752 0.96940 0.87943
 H65 H 0.47355 0.88164 0.95689
 H66 H 0.46925 0.87747 1.02312
 O67 O 0.07043 0.55394 -0.07401
 O68 O 0.03750 0.59515 -0.03593
 C69 C 0.06175 0.58744 -0.06285
 O70 O -0.07291 0.45589 -0.07128
 O71 O -0.03605 0.41217 -0.04012
 C72 C -0.06381 0.42172 -0.06303
 O73 O -0.06451 0.55982 -0.07117
 O74 O -0.02626 0.59791 -0.03445
 C75 C -0.05268 0.59239 -0.06029
 O76 O 0.07110 0.44945 -0.07256
 O77 O 0.03148 0.40889 -0.04135
 C78 C 0.05951 0.41614 -0.06434
 Zr79 Zr 0.04882 0.50180 -0.05551
 O80 O 0.04116 0.49955 -0.11612
 O81 O 0.10852 0.50193 -0.06398
 Zr82 Zr -0.04706 0.50620 -0.05258
 O83 O -0.04728 0.50398 -0.11359
 O84 O -0.10712 0.51334 -0.05234
 O85 O 0.00218 0.53770 -0.06024
 O86 O -0.00075 0.47146 -0.06226
 O87 O 0.07313 0.44454 0.05696
 O88 O 0.03262 0.40655 0.02288
 C89 C 0.06104 0.41203 0.04635
 O90 O -0.05878 0.55565 0.06876
 O91 O -0.02265 0.59583 0.03292
 C92 C -0.04677 0.58877 0.05999
 O93 O -0.06887 0.45151 0.06030
 O94 O -0.03423 0.40993 0.02426
 C95 C -0.06053 0.41797 0.04904
 O96 O 0.07452 0.54802 0.06491
 O97 O 0.04058 0.59232 0.03123
 C98 C 0.06603 0.58225 0.05666
 Zr99 Zr 0.05232 0.49807 0.04203
 O100 O 0.05263 0.49161 0.10271
 O101 O 0.11280 0.49896 0.04155
 Zr102 Zr -0.04380 0.50300 0.04484
 O103 O -0.04022 0.49605 0.10539
 O104 O -0.10366 0.51060 0.04844
 Zr105 Zr 0.00536 0.55769 -0.00309
 Zr106 Zr 0.00008 0.44664 -0.00733
 O107 O 0.00292 0.46775 0.04924
 O108 O 0.00620 0.53349 0.05227
 O109 O 0.05662 0.46673 -0.00815
 O110 O -0.05088 0.53721 -0.00244
 O111 O 0.05929 0.53175 -0.00563
 O112 O -0.05444 0.47190 -0.00489
 H113 H -0.00206 0.45484 -0.08505
 H114 H -0.07254 0.55502 -0.00100
 H115 H 0.00280 0.44992 0.07101
 H116 H 0.08261 0.54725 -0.00547
 H117 H -0.11772 0.49424 -0.03500
 H118 H -0.11562 0.49332 0.02977
 H119 H -0.02565 0.51731 0.11597
 H120 H 0.04009 0.51382 0.11391
 H121 H 0.12139 0.47964 0.02316
 H122 H 0.12046 0.50101 -0.03811
 H123 H 0.03424 0.52488 -0.12504
 H124 H -0.03308 0.52588 -0.12297
 O125 O 1.06611 -0.05731 0.54660
 O126 O 1.03259 -0.02283 0.59083
 C127 C 1.05733 -0.04829 0.58170
 O128 O 1.06421 0.08108 0.44339
 O129 O 1.02845 0.04680 0.40060
 C130 C 1.05344 0.07219 0.40868
 O131 O 1.07042 0.07458 0.55117
 O132 O 1.03472 0.04014 0.59319
 C133 C 1.06098 0.06434 0.58563
 O134 O 1.05977 -0.05632 0.43810
 O135 O 1.02487 -0.01793 0.39815
 C136 C 1.04842 -0.04522 0.40418
 Zr137 Zr 1.04472 -0.03594 0.49363
 O138 O 1.10495 -0.03632 0.48836
 O139 O 1.04421 -0.09483 0.49542
 Zr140 Zr 1.04820 0.05768 0.49699
 O141 O 1.10820 0.05223 0.49150
 O142 O 1.05369 0.11603 0.50285
 O143 O 1.05474 0.00949 0.52988
 O144 O 1.05249 0.01169 0.46150
 O145 O 0.92836 -0.05150 0.44092
 O146 O 0.96241 -0.01471 0.39965
 C147 C 0.93748 -0.04024 0.40661
 O148 O 0.93271 0.07943 0.55357
 O149 O 0.96834 0.04253 0.59435
 C150 C 0.94310 0.06835 0.58765
 O151 O 0.93416 0.08613 0.44560
 O152 O 0.96551 0.04948 0.40172
 C153 C 0.94278 0.07668 0.41056
 O154 O 0.92831 -0.05219 0.54942
 O155 O 0.96645 -0.02043 0.59226
 C156 C 0.93962 -0.04400 0.58414
 Zr157 Zr 0.94791 -0.03217 0.49560
 O158 O 0.88761 -0.02741 0.49278
 O159 O 0.94396 -0.09091 0.49739
 Zr160 Zr 0.95140 0.06159 0.49874
 O161 O 0.89095 0.06190 0.49531
 O162 O 0.95150 0.12020 0.50507
 Zr163 Zr 0.99952 0.01103 0.55387
 Zr164 Zr 0.99652 0.01468 0.43919
 O165 O 0.94181 0.01609 0.46373
 O166 O 0.94316 0.01391 0.53196
 O167 O 0.99511 -0.04031 0.46025
 O168 O 1.00087 0.06546 0.53138
 O169 O 0.99696 -0.04190 0.52769
 O170 O 0.99921 0.06816 0.46406
 H171 H 1.07409 0.01138 0.44319
 H172 H 1.00201 0.08709 0.54907
 H173 H 0.91921 0.01766 0.44640
 H174 H 0.99666 -0.06456 0.54392
 H175 H 1.03374 0.12755 0.48636
 H176 H 0.96960 0.13023 0.48604
 H177 H 0.88132 0.04891 0.51837
 H178 H 0.87903 -0.01576 0.51709
 H179 H 0.96133 -0.10090 0.47752
 H180 H 1.02589 -0.10339 0.47549
 H181 H 1.11573 -0.02436 0.51171
 H182 H 1.11815 0.04040 0.51532
 C183 C 1.14292 0.13818 0.17916
 C184 C 1.12670 0.15627 0.21062
 C185 C 1.11258 0.13579 0.24419
 N186 N 1.10621 0.15396 0.27787
 N187 N 1.09283 0.13579 0.30834
 C188 C 1.08503 0.09885 0.30608
 N189 N 1.09110 0.08077 0.27231
 N190 N 1.10480 0.09885 0.24197
 C191 C 1.06914 0.07860 0.33895
 C192 C 1.07071 0.09242 0.37649
 H193 H 1.12539 0.18640 0.21108
 H194 H 1.05666 0.05153 0.33350
 H195 H 1.14780 0.10838 0.18034
 H196 H 1.08573 0.11810 0.38254
 C197 C 0.83096 -0.18314 0.22652
 C198 C 0.83087 -0.14547 0.23653
 C199 C 0.84827 -0.13162 0.27247
 N200 N 0.85540 -0.09474 0.27635
 N201 N 0.87145 -0.08154 0.30845
 C202 C 0.88067 -0.10467 0.33808
 N203 N 0.87305 -0.14153 0.33447
 N204 N 0.85727 -0.15481 0.30216
 C205 C 0.89906 -0.09014 0.37330
 C206 C 0.91807 -0.05619 0.37282
 H207 H 0.81907 -0.12494 0.21698
 H208 H 0.89930 -0.10700 0.39916
 H209 H 0.84458 -0.20284 0.24595
 H210 H 0.92030 -0.04112 0.34589
 C211 C 0.85077 0.14615 0.81229
 C212 C 0.86696 0.16150 0.77948
 C213 C 0.88351 0.13878 0.74856
 N214 N 0.89002 0.15450 0.71375
 N215 N 0.90446 0.13440 0.68505
 C216 C 0.91321 0.09785 0.69014
 N217 N 0.90718 0.08218 0.72514
 N218 N 0.89240 0.10224 0.75381
 C219 C 0.92916 0.07570 0.65835
 C220 C 0.92564 0.08780 0.62034
 H221 H 0.86528 0.19135 0.77529
 H222 H 0.94309 0.04941 0.66482
 H223 H 0.85015 0.11621 0.81573
 H224 H 0.90928 0.11280 0.61408
 C225 C 1.13926 -0.13462 0.80826
 C226 C 1.12375 -0.14960 0.77460
 C227 C 1.11073 -0.12582 0.74261
 N228 N 1.10612 -0.14047 0.70682
 N229 N 1.09450 -0.11913 0.67756
 C230 C 1.08682 -0.08241 0.68310
 N231 N 1.09107 -0.06785 0.71897
 N232 N 1.10303 -0.08910 0.74815
 C233 C 1.07263 -0.05886 0.65144
 C234 C 1.07566 -0.06957 0.61296
 H235 H 1.12319 -0.17953 0.77085
 H236 H 1.05938 -0.03246 0.65867
 H237 H 1.14327 -0.10479 0.81041
 H238 H 1.09121 -0.09470 0.60559
 C239 C 0.18786 1.14468 1.12457
 C240 C 0.22029 1.13031 1.14286
 C241 C 0.25343 1.11672 1.12116
 N242 N 0.28740 1.11125 1.13946
 N243 N 0.31753 1.09842 1.12025
 C244 C 0.31470 1.09037 1.08207
 N245 N 0.28067 1.09565 1.06382
 N246 N 0.25062 1.10876 1.08296
 C247 C 0.34712 1.07450 1.06091
 C248 C 0.38426 1.07473 1.07573
 H249 H 0.22194 1.13035 1.17406
 H250 H 0.34141 1.06186 1.03310
 H251 H 0.18762 1.14796 1.09352
 H252 H 0.39038 1.08929 1.10243
 C253 C 0.18673 0.85414 0.86046
 C254 C 0.21693 0.87256 0.84298
 C255 C 0.24966 0.88705 0.86499
 N256 N 0.28221 0.89621 0.84639
 N257 N 0.31190 0.91011 0.86578
 C258 C 0.30994 0.91574 0.90443
 N259 N 0.27724 0.90693 0.92298
 N260 N 0.24767 0.89268 0.90365
 C261 C 0.34230 0.93158 0.92603
 C262 C 0.37925 0.93114 0.91140
 H263 H 0.21690 0.87578 0.81194
 H264 H 0.33721 0.94239 0.95472
 H265 H 0.18841 0.84754 0.89091
 H266 H 0.38486 0.91745 0.88418
 C267 C 0.78886 0.82608 1.16838
 C268 C 0.75183 0.81480 1.15951
 C269 C 0.72486 0.83883 1.13817
 N270 N 0.68745 0.82940 1.13585
 N271 N 0.66252 0.85117 1.11723
 C272 C 0.67409 0.88314 1.10009
 N273 N 0.71158 0.89242 1.10212
 N274 N 0.73649 0.87072 1.12090
 C275 C 0.64671 0.90747 1.07960
 C276 C 0.60744 0.90179 1.08189
 H277 H 0.74183 0.78830 1.17021
 H278 H 0.65762 0.93059 1.06302
 H279 H 0.79836 0.85335 1.15946
 H280 H 0.59674 0.87942 1.09966
 C281 C 0.79593 1.16061 0.85642
 C282 C 0.77541 1.12901 0.84553
 C283 C 0.73897 1.11920 0.86343
 N284 N 0.72772 1.08315 0.86382
 N285 N 0.69502 1.07354 0.88029
 C286 C 0.67209 1.09971 0.89653
 N287 N 0.68297 1.13590 0.89556
 N288 N 0.71598 1.14547 0.87951
 C289 C 0.63624 1.08895 0.91508
 C290 C 0.63263 1.05394 0.93170
 H291 H 0.78693 1.10960 0.82478
 H292 H 0.61328 1.10915 0.91732
 H293 H 0.78421 1.17833 0.87872
 H294 H 0.65725 1.03553 0.93288
 C295 C 0.13377 0.18918 0.13160
 C296 C 0.15094 0.21917 0.11331
 C297 C 0.12882 0.25133 0.09933
 N298 N 0.14682 0.28386 0.09195
 N299 N 0.12717 0.31336 0.07941
 C300 C 0.08884 0.31130 0.07346
 N301 N 0.07089 0.27862 0.08038
 N302 N 0.09049 0.24920 0.09328
 C303 C 0.06701 0.34360 0.05928
 C304 C 0.08157 0.37955 0.06185
 H305 H 0.18176 0.21992 0.11097
 H306 H 0.03863 0.33911 0.04754
 H307 H 0.10339 0.19011 0.13732
 H308 H 0.10877 0.38417 0.07617
 C309 C -0.14599 0.20078 -0.14504
 C310 C -0.16316 0.23448 -0.13496
 C311 C -0.14041 0.26587 -0.12028
 N312 N -0.15593 0.30053 -0.11826
 N313 N -0.13540 0.32906 -0.10503
 C314 C -0.09867 0.32387 -0.09314
 N315 N -0.08331 0.28919 -0.09485
 N316 N -0.10372 0.26075 -0.10830
 C317 C -0.07567 0.35462 -0.07764
 C318 C -0.08673 0.39187 -0.08065
 H319 H -0.19358 0.23840 -0.13925
 H320 H -0.04875 0.34754 -0.06375
 H321 H -0.11510 0.19858 -0.14429
 H322 H -0.11263 0.39928 -0.09620
 C323 C 0.13255 0.81034 -0.14917
 C324 C 0.15044 0.77857 -0.13451
 C325 C 0.12868 0.74627 -0.12106
 N326 N 0.14640 0.71288 -0.11632
 N327 N 0.12719 0.68357 -0.10337
 C328 C 0.08962 0.68669 -0.09436
 N329 N 0.07197 0.72014 -0.09886
 N330 N 0.09108 0.74935 -0.11215
 C331 C 0.06847 0.65506 -0.07847
 C332 C 0.08167 0.61850 -0.08137
 H333 H 0.18135 0.77698 -0.13395
 H334 H 0.04156 0.66075 -0.06438
 H335 H 0.10184 0.81050 -0.15338
 H336 H 0.10705 0.61242 -0.09794
 C337 C -0.17716 0.76621 0.17770
 C338 C -0.14031 0.75157 0.18112
 C339 C -0.12872 0.71671 0.16221
 N340 N -0.09122 0.71038 0.15508
 N341 N -0.08012 0.67970 0.13667
 C342 C -0.10607 0.65396 0.12504
 N343 N -0.14355 0.65990 0.13282
 N344 N -0.15473 0.69084 0.15089
 C345 C -0.09389 0.62061 0.10365
 C346 C -0.06041 0.62089 0.08225
 H347 H -0.11822 0.76804 0.19484
 H348 H -0.11237 0.59652 0.10287
 H349 H -0.19799 0.75153 0.16019
 H350 H -0.04410 0.64638 0.08040
 C351 C 1.15628 0.14663 0.80851
 C352 C 1.13236 0.16007 0.77904
 C353 C 1.11931 0.13642 0.74699
 N354 N 1.10913 0.15226 0.71295
 N355 N 1.09660 0.13140 0.68376
 C356 C 1.09334 0.09393 0.68768
 N357 N 1.10304 0.07809 0.72191
 N358 N 1.11604 0.09893 0.75100
 C359 C 1.07828 0.07108 0.65584
 C360 C 1.08029 0.08329 0.61781
 H361 H 1.12524 0.18941 0.77763
 H362 H 1.06555 0.04441 0.66234
 H363 H 1.16731 0.11854 0.80533
 H364 H 1.09605 0.10839 0.61137
 C365 C 0.86290 -0.12862 0.81226
 C366 C 0.87849 -0.14336 0.77868
 C367 C 0.89032 -0.11966 0.74640
 N368 N 0.89417 -0.13455 0.71067
 N369 N 0.90520 -0.11353 0.68121
 C370 C 0.91313 -0.07688 0.68646
 N371 N 0.90964 -0.06206 0.72228
 N372 N 0.89821 -0.08300 0.75167
 C373 C 0.92687 -0.05379 0.65449
 C374 C 0.92177 -0.06425 0.61606
 H375 H 0.88025 -0.17329 0.77525
 H376 H 0.94139 -0.02803 0.66139
 H377 H 0.85739 -0.09895 0.81409
 H378 H 0.90479 -0.08853 0.60916
 C379 C 1.17298 -0.16893 0.22216
 C380 C 1.13497 -0.16285 0.23220
 C381 C 1.12436 -0.14415 0.26828
 N382 N 1.08874 -0.12969 0.27202
 N383 N 1.07864 -0.11235 0.30432
 C384 C 1.10366 -0.10911 0.33428
 N385 N 1.13915 -0.12407 0.33080
 N386 N 1.14938 -0.14114 0.29830
 C387 C 1.09258 -0.08961 0.36983
 C388 C 1.06191 -0.06480 0.36970
 H389 H 1.11218 -0.17006 0.21239
 H390 H 1.10938 -0.09380 0.39585
 H391 H 1.19531 -0.15847 0.24105
 H392 H 1.04724 -0.05882 0.34275
 C393 C 0.85392 0.14797 0.18127
 C394 C 0.87016 0.16598 0.21294
 C395 C 0.88493 0.14506 0.24629
 N396 N 0.89116 0.16257 0.28045
 N397 N 0.90423 0.14366 0.31090
 C398 C 0.91178 0.10662 0.30814
 N399 N 0.90594 0.08925 0.27389
 N400 N 0.89258 0.10806 0.24357
 C401 C 0.92698 0.08533 0.34095
 C402 C 0.92585 0.09839 0.37879
 H403 H 0.87030 0.19612 0.21400
 H404 H 0.93869 0.05793 0.33509
 H405 H 0.85064 0.11799 0.18183
 H406 H 0.91190 0.12462 0.38525
 C407 C 0.14593 0.19745 -0.14876
 C408 C 0.16018 0.22706 -0.12670
 C409 C 0.13584 0.25847 -0.11483
 N410 N 0.15198 0.29157 -0.10556
 N411 N 0.13038 0.32033 -0.09478
 C412 C 0.09183 0.31693 -0.09253
 N413 N 0.07570 0.28368 -0.10131
 N414 N 0.09729 0.25501 -0.11249
 C415 C 0.06791 0.34827 -0.07966
 C416 C 0.08090 0.38486 -0.08110
 H417 H 0.19048 0.22905 -0.12060
 H418 H 0.03951 0.34246 -0.06913
 H419 H 0.11644 0.19951 -0.15838
 H420 H 0.10812 0.39075 -0.09435
 C421 C -0.14033 0.19845 0.13334
 C422 C -0.15788 0.22922 0.11619
 C423 C -0.13539 0.26063 0.10163
 N424 N -0.15212 0.29440 0.09617
 N425 N -0.13178 0.32314 0.08358
 C426 C -0.09403 0.31903 0.07569
 N427 N -0.07746 0.28514 0.08065
 N428 N -0.09769 0.25652 0.09359
 C429 C -0.07125 0.35021 0.06123
 C430 C -0.08285 0.38720 0.06515
 H431 H -0.18876 0.23121 0.11548
 H432 H -0.04401 0.34383 0.04808
 H433 H -0.10958 0.19840 0.13740
 H434 H -0.10871 0.39380 0.08073
 C435 C -0.12655 0.81653 -0.14508
 C436 C -0.14295 0.78465 -0.12959
 C437 C -0.12022 0.75250 -0.11637
 N438 N -0.13755 0.71927 -0.11091
 N439 N -0.11773 0.69000 -0.09808
 C440 C -0.07985 0.69294 -0.08986
 N441 N -0.06253 0.72627 -0.09503
 N442 N -0.08231 0.75550 -0.10823
 C443 C -0.05811 0.66094 -0.07452
 C444 C -0.07191 0.62474 -0.07785
 H445 H -0.17378 0.78274 -0.12821
 H446 H -0.03077 0.66593 -0.06066
 H447 H -0.09605 0.81712 -0.15012
 H448 H -0.09796 0.61977 -0.09411
 C449 C 0.15899 0.78712 0.16756
 C450 C 0.17194 0.75214 0.15616
 C451 C 0.14749 0.72560 0.13535
 N452 N 0.15949 0.68996 0.13076
 N453 N 0.13788 0.66548 0.11186
 C454 C 0.10354 0.67575 0.09662
 N455 N 0.09164 0.71152 0.10090
 N456 N 0.11319 0.73600 0.12002
 C457 C 0.07964 0.64865 0.07574
 C458 C 0.08799 0.61075 0.07738
 H459 H 0.20070 0.74347 0.16376
 H460 H 0.05495 0.65850 0.05964
 H461 H 0.12943 0.79465 0.16242
 H462 H 0.11167 0.60117 0.09516
 C463 C 0.19995 1.15787 0.86004
 C464 C 0.23034 1.13742 0.84448
 C465 C 0.26333 1.12567 0.86812
 N466 N 0.29693 1.11684 0.85106
 N467 N 0.32663 1.10494 0.87207
 C468 C 0.32365 1.10114 0.91088
 N469 N 0.28998 1.10978 0.92789
 N470 N 0.26044 1.12206 0.90695
 C471 C 0.35504 1.08523 0.93404
 C472 C 0.39263 1.08382 0.92112
 H473 H 0.23117 1.13164 0.81385
 H474 H 0.34813 1.07352 0.96186
 H475 H 0.20326 1.16755 0.88949
 H476 H 0.40042 1.09829 0.89498
 C477 C 0.22076 0.82051 1.17060
 C478 C 0.23491 0.85665 1.16947
 C479 C 0.26974 0.86611 1.14841
 N480 N 0.27520 0.90161 1.13653
 N481 N 0.30623 0.91062 1.11675
 C482 C 0.33311 0.88451 1.10838
 N483 N 0.32794 0.84907 1.12074
 N484 N 0.29666 0.83996 1.14018
 C485 C 0.36779 0.89459 1.08730
 C486 C 0.36889 0.92656 1.06469
 H487 H 0.21812 0.87919 1.18149
 H488 H 0.39272 0.87673 1.08968
 H489 H 0.23550 0.79890 1.15471
 H490 H 0.34296 0.94266 1.06019
 C491 C 0.80505 1.15416 1.12932
 C492 C 0.77725 1.13374 1.14852
 C493 C 0.74549 1.11516 1.12844
 N494 N 0.71674 1.10012 1.14916
 N495 N 0.68834 1.08207 1.13161
 C496 C 0.68786 1.07807 1.09270
 N497 N 0.71672 1.09296 1.07196
 N498 N 0.74500 1.11124 1.08950
 C499 C 0.65670 1.05821 1.07299
 C500 C 0.62211 1.05082 1.09097
 H501 H 0.77901 1.13097 1.17957
 H502 H 0.66003 1.05158 1.04274
 H503 H 0.80168 1.15965 1.09877
 H504 H 0.61733 1.06045 1.12014
 C505 C 0.81785 0.85857 0.86555
 C506 C 0.78514 0.87380 0.84847
 C507 C 0.75128 0.88405 0.87103
 N508 N 0.71737 0.89047 0.85290
 N509 N 0.68657 0.90022 0.87294
 C510 C 0.68863 0.90414 0.91185
 N511 N 0.72260 0.89796 0.92994
 N512 N 0.75331 0.88791 0.90995
 C513 C 0.65544 0.91661 0.93423
 C514 C 0.61842 0.91717 0.91900
 H515 H 0.78383 0.87691 0.81744
 H516 H 0.66047 0.92602 0.96352
 H517 H 0.81785 0.85224 0.89609
 H518 H 0.61291 0.90565 0.89063
   
