data_POSCAR
  _audit_creation_date              2014-09-24
  _audit_creation_method            'ToBaCCo'
  _symmetry_space_group_name_H-M    'P1'
  _symmetry_Int_Tables_number       1
  _symmetry_cell_setting            triclinic
  loop_
  _symmetry_equiv_pos_as_xyz
 x,y,z
_cell_length_a 35.4723
_cell_length_b 35.4794
_cell_length_c 35.5352
_cell_angle_alpha 80.477500
_cell_angle_beta 101.374200
_cell_angle_gamma 102.951600
loop_
  _atom_site_label
  _atom_site_type_symbol
  _atom_site_fract_x
  _atom_site_fract_y
  _atom_site_fract_z
C1 C 0.57121 0.56882 -0.00641
 C2 C 0.57486 0.53282 -0.01563
 C3 C 0.54213 0.50185 -0.01522
 C4 C 0.50768 0.50532 -0.00314
 C5 C 0.50566 0.54152 0.00696
 C6 C 0.53655 0.57419 0.00390
 C7 C 0.47387 0.47120 -0.00156
 C8 C 0.43496 0.47659 -0.00568
 C9 C 0.40354 0.44461 -0.00308
 C10 C 0.41082 0.40671 0.00123
 C11 C 0.44905 0.40048 0.00427
 C12 C 0.48035 0.43271 0.00420
 H13 H 0.59672 0.59208 -0.00392
 H14 H 0.54294 0.47529 -0.02586
 H15 H 0.47931 0.54451 0.01592
 H16 H 0.42871 0.50559 -0.01060
 H17 H 0.38645 0.38206 0.00119
 H18 H 0.50988 0.42736 0.00919
 C19 C -0.00211 0.58875 0.40885
 C20 C 0.00167 0.59780 0.44681
 C21 C 0.00387 0.56724 0.47763
 C22 C -0.00060 0.52834 0.47097
 C23 C -0.00598 0.52035 0.43259
 C24 C -0.00536 0.55028 0.40111
 C25 C -0.00016 0.49592 0.50395
 C26 C 0.01235 0.46166 0.50088
 C27 C 0.01182 0.43066 0.53110
 C28 C 0.00064 0.43477 0.56565
 C29 C -0.01095 0.46886 0.56994
 C30 C -0.01225 0.49879 0.53873
 H31 H 0.00085 0.61242 0.38557
 H32 H 0.00760 0.57335 0.50699
 H33 H -0.01239 0.49033 0.42712
 H34 H 0.02309 0.45896 0.47519
 H35 H 0.00091 0.41126 0.58934
 H36 H -0.02340 0.52392 0.54171
 C37 C 0.58927 0.00018 0.59183
 C38 C 0.55095 -0.00302 0.59861
 C39 C 0.52018 -0.00272 0.56712
 C40 C 0.52733 0.00350 0.52880
 C41 C 0.56623 0.00783 0.52274
 C42 C 0.59755 0.00481 0.55385
 C43 C 0.49438 0.00591 0.49530
 C44 C 0.49682 -0.00342 0.45883
 C45 C 0.46647 -0.00005 0.42718
 C46 C 0.43227 0.01036 0.43262
 C47 C 0.42863 0.01886 0.46869
 C48 C 0.46014 0.01770 0.49945
 H49 H 0.61223 -0.00198 0.61660
 H50 H 0.49054 -0.00778 0.57294
 H51 H 0.57247 0.01555 0.49361
 H52 H 0.52238 -0.01297 0.45461
 H53 H 0.40794 0.01082 0.40883
 H54 H 0.45776 0.02657 0.52642
 O55 O 0.47187 -0.01772 -0.04528
 O56 O 0.46417 -0.02748 0.05803
 O57 O 0.46292 0.02881 0.00108
 O58 O 0.47136 -0.07397 0.01172
 O59 O 0.53573 -0.05682 0.02621
 O60 O 0.52721 0.04622 0.01593
 O61 O 0.52854 -0.01034 0.07250
 O62 O 0.53615 -0.00021 -0.03049
 Cu63 Cu 0.46113 -0.02419 0.00481
 Cu64 Cu 0.53835 -0.00345 0.02237
 C65 C 0.50547 -0.00778 -0.05549
 C66 C 0.49511 -0.02061 0.08296
 C67 C 0.49348 0.05507 0.00726
 C68 C 0.50494 -0.08304 0.02077
 O69 O -0.05416 0.53191 0.97605
 O70 O 0.04950 0.52371 0.98747
 O71 O -0.00831 0.52543 0.92996
 O72 O 0.00361 0.53210 1.03385
 O73 O -0.01396 0.46818 1.04561
 O74 O -0.02536 0.46141 0.94130
 O75 O 0.03212 0.45978 0.99937
 O76 O -0.07121 0.46789 0.98742
 Cu77 Cu -0.00047 0.53469 0.98085
 Cu78 Cu -0.02114 0.45790 0.99472
 C79 C -0.08045 0.50122 0.97962
 C80 C 0.05845 0.49020 0.99485
 C81 C -0.01898 0.49237 0.91776
 C82 C -0.00379 0.50147 1.05747
 O83 O -0.00276 -0.03325 0.46567
 O84 O 0.01045 0.07105 0.47318
 O85 O 0.05604 0.02562 0.46649
 O86 O -0.04837 0.01248 0.47438
 O87 O -0.03327 -0.00003 0.53780
 O88 O 0.07077 0.01376 0.53002
 O89 O 0.02513 0.05916 0.53671
 O90 O 0.01257 -0.04557 0.52909
 Cu91 Cu 0.00219 0.02000 0.46356
 Cu92 Cu 0.02012 0.00546 0.53978
 C93 C 0.00329 -0.05722 0.49591
 C94 C 0.02011 0.08305 0.50613
 C95 C 0.08130 0.02214 0.49701
 C96 C -0.05857 0.00455 0.50760
 C97 C -0.31404 0.51886 0.96721
 C98 C -0.34104 0.48653 0.98016
 C99 C -0.37816 0.49074 0.98449
 C100 C -0.38897 0.52769 0.97632
 C101 C -0.36167 0.55968 0.96173
 C102 C -0.32467 0.55524 0.95739
 C103 C -0.27466 0.51525 0.96620
 C104 C -0.24130 0.51263 0.96650
 C105 C -0.20120 0.50973 0.96805
 C106 C -0.19065 0.47318 0.97562
 C107 C -0.15141 0.47040 0.97903
 C108 C -0.12213 0.50421 0.97496
 C109 C -0.13310 0.54083 0.96693
 C110 C -0.17239 0.54353 0.96355
 H111 H -0.33299 0.45820 0.98807
 H112 H -0.39712 0.46526 0.99666
 H113 H -0.36876 0.58829 0.95296
 H114 H -0.30410 0.58043 0.94691
 H115 H -0.21270 0.44685 0.97932
 H116 H -0.14398 0.44177 0.98518
 H117 H -0.11130 0.56739 0.96362
 H118 H -0.18023 0.57199 0.95784
 C119 C 0.28752 0.46305 0.99626
 C120 C 0.31068 0.48664 0.97032
 C121 C 0.34830 0.48054 0.97016
 C122 C 0.36320 0.45068 0.99598
 C123 C 0.33957 0.42702 1.02178
 C124 C 0.30203 0.43318 1.02189
 C125 C 0.24881 0.46920 0.99662
 C126 C 0.21621 0.47370 0.99718
 C127 C 0.17700 0.47822 0.99790
 C128 C 0.16750 0.51528 0.99054
 C129 C 0.12908 0.51935 0.99025
 C130 C 0.09965 0.48634 0.99728
 C131 C 0.10968 0.44929 1.00516
 C132 C 0.14806 0.44531 1.00545
 H133 H 0.29968 0.50974 0.95021
 H134 H 0.36557 0.49894 0.94965
 H135 H 0.35039 0.40417 1.04237
 H136 H 0.28440 0.41476 1.04212
 H137 H 0.18968 0.54097 0.98467
 H138 H 0.12233 0.54826 0.98401
 H139 H 0.08777 0.42328 1.01065
 H140 H 0.15507 0.41649 1.01122
 C141 C 0.00220 -0.28716 0.46743
 C142 C -0.01601 -0.29997 0.43197
 C143 C -0.01574 -0.33752 0.42504
 C144 C 0.00279 -0.36343 0.45360
 C145 C 0.02137 -0.34966 0.48923
 C146 C 0.02103 -0.31199 0.49595
 C147 C 0.00152 -0.24846 0.47429
 C148 C 0.00072 -0.21583 0.47919
 C149 C -0.00024 -0.17654 0.48392
 C150 C -0.01019 -0.15031 0.45140
 C151 C -0.00983 -0.11172 0.45544
 C152 C 0.00051 -0.09877 0.49215
 C153 C 0.00983 -0.12553 0.52479
 C154 C 0.00948 -0.16418 0.52066
 H155 H -0.03089 -0.28102 0.40971
 H156 H -0.03182 -0.34651 0.39775
 H157 H 0.03754 -0.36713 0.51174
 H158 H 0.03566 -0.30217 0.52341
 H159 H -0.01778 -0.15956 0.42283
 H160 H -0.01714 -0.09191 0.42971
 H161 H 0.01800 -0.11648 0.55343
 H162 H 0.01722 -0.18426 0.54604
 C163 C 0.03176 0.31853 0.51954
 C164 C 0.04820 0.33536 0.55350
 C165 C 0.04307 0.37253 0.55680
 C166 C 0.02127 0.39326 0.52618
 C167 C 0.00603 0.37663 0.49168
 C168 C 0.01120 0.33946 0.48844
 C169 C 0.03364 0.27887 0.51748
 C170 C 0.03380 0.24528 0.51574
 C171 C 0.03248 0.20492 0.51342
 C172 C 0.03829 0.17886 0.54721
 C173 C 0.03474 0.13920 0.54493
 C174 C 0.02520 0.12514 0.50876
 C175 C 0.01992 0.15170 0.47496
 C176 C 0.02350 0.19129 0.47733
 H177 H 0.06418 0.31939 0.57774
 H178 H 0.05559 0.38481 0.58352
 H179 H -0.01126 0.39166 0.46779
 H180 H -0.00181 0.32660 0.46210
 H181 H 0.04506 0.18911 0.57532
 H182 H 0.03900 0.11952 0.57146
 H183 H 0.01260 0.14187 0.44667
 H184 H 0.01876 0.21120 0.45101
 C185 C 0.53037 -0.00759 -0.28523
 C186 C 0.55530 -0.02997 -0.29272
 C187 C 0.56162 -0.02907 -0.33053
 C188 C 0.54306 -0.00570 -0.36136
 C189 C 0.51766 0.01628 -0.35355
 C190 C 0.51140 0.01534 -0.31576
 C191 C 0.52502 -0.00734 -0.24615
 C192 C 0.52097 -0.00677 -0.21335
 C193 C 0.51676 -0.00592 -0.17403
 C194 C 0.55002 0.00451 -0.14646
 C195 C 0.54627 0.00455 -0.10804
 C196 C 0.50910 -0.00588 -0.09663
 C197 C 0.47576 -0.01585 -0.12467
 C198 C 0.47960 -0.01588 -0.16312
 H199 H 0.57009 -0.04788 -0.26930
 H200 H 0.58093 -0.04668 -0.33567
 H201 H 0.50334 0.03493 -0.37658
 H202 H 0.49216 0.03288 -0.31029
 H203 H 0.57892 0.01231 -0.15458
 H204 H 0.57253 0.01234 -0.08721
 H205 H 0.44675 -0.02409 -0.11684
 H206 H 0.45364 -0.02397 -0.18424
 C207 C 0.47764 -0.01757 0.31338
 C208 C 0.49029 -0.04304 0.34554
 C209 C 0.48678 -0.03751 0.38272
 C210 C 0.47050 -0.00645 0.38804
 C211 C 0.45804 0.01898 0.35549
 C212 C 0.46157 0.01342 0.31849
 C213 C 0.48129 -0.02255 0.27500
 C214 C 0.48394 -0.02524 0.24231
 C215 C 0.48686 -0.02679 0.20282
 C216 C 0.52360 -0.01746 0.19111
 C217 C 0.52633 -0.01610 0.15219
 C218 C 0.49226 -0.02398 0.12443
 C219 C 0.45548 -0.03403 0.13661
 C220 C 0.45284 -0.03536 0.17556
 H221 H 0.50279 -0.06713 0.34187
 H222 H 0.49630 -0.05775 0.40720
 H223 H 0.44599 0.04352 0.35871
 H224 H 0.45190 0.03343 0.29383
 H225 H 0.55010 -0.01057 0.21194
 H226 H 0.55509 -0.00831 0.14379
 H227 H 0.42872 -0.04027 0.11598
 H228 H 0.42423 -0.04240 0.18431
 C229 C 0.52539 -0.31322 0.02129
 C230 C 0.55081 -0.31717 -0.00251
 C231 C 0.55469 -0.35409 -0.00787
 C232 C 0.53312 -0.38830 0.01056
 C233 C 0.50763 -0.38362 0.03477
 C234 C 0.50390 -0.34646 0.04003
 C235 C 0.52091 -0.27487 0.02535
 C236 C 0.51771 -0.24219 0.02736
 C237 C 0.51435 -0.20270 0.02822
 C238 C 0.54816 -0.17397 0.03532
 C239 C 0.54513 -0.13507 0.03352
 C240 C 0.50817 -0.12442 0.02447
 C241 C 0.47432 -0.15365 0.01802
 C242 C 0.47744 -0.19252 0.01984
 H243 H 0.56726 -0.29159 -0.01755
 H244 H 0.57335 -0.35536 -0.02812
 H245 H 0.49137 -0.40834 0.05091
 H246 H 0.48423 -0.34368 0.05874
 H247 H 0.57690 -0.18153 0.04163
 H248 H 0.57173 -0.11330 0.03866
 H249 H 0.44544 -0.14645 0.01102
 H250 H 0.45110 -0.21451 0.01409
 C251 C 0.46797 0.28431 0.00729
 C252 C 0.48880 0.31572 -0.01446
 C253 C 0.48302 0.35351 -0.01497
 C254 C 0.45626 0.36043 0.00631
 C255 C 0.43573 0.32870 0.02841
 C256 C 0.44157 0.29089 0.02888
 C257 C 0.47312 0.24527 0.00680
 C258 C 0.47715 0.21254 0.00610
 C259 C 0.48151 0.17332 0.00521
 C260 C 0.51878 0.16386 0.01360
 C261 C 0.52283 0.12552 0.01361
 C262 C 0.48957 0.09612 0.00523
 C263 C 0.45228 0.10607 -0.00365
 C264 C 0.44832 0.14439 -0.00365
 H265 H 0.50919 0.31095 -0.03139
 H266 H 0.49884 0.37721 -0.03272
 H267 H 0.41526 0.33312 0.04542
 H268 H 0.42533 0.26679 0.04588
 H269 H 0.54468 0.18604 0.02046
 H270 H 0.55193 0.11884 0.02064
 H271 H 0.42608 0.08416 -0.01018
 H272 H 0.41933 0.15138 -0.01023
 C273 C -0.28774 0.00510 0.53437
 C274 C -0.32042 -0.00639 0.50670
 C275 C -0.35804 -0.00594 0.51281
 C276 C -0.36393 0.00596 0.54700
 C277 C -0.33028 0.01796 0.57439
 C278 C -0.29272 0.01749 0.56806
 C279 C -0.24910 0.00368 0.52850
 C280 C -0.21658 0.00244 0.52408
 C281 C -0.17748 0.00116 0.51952
 C282 C -0.14981 -0.00694 0.55213
 C283 C -0.11135 -0.00670 0.54814
 C284 C -0.09999 0.00169 0.51139
 C285 C -0.12821 0.00912 0.47866
 C286 C -0.16671 0.00888 0.48275
 H287 H -0.31691 -0.01632 0.48058
 H288 H -0.38243 -0.01688 0.49130
 H289 H -0.33232 0.02903 0.60032
 H290 H -0.26751 0.02686 0.58953
 H291 H -0.15783 -0.01296 0.58072
 H292 H -0.09038 -0.01251 0.57392
 H293 H -0.12041 0.01576 0.45000
 H294 H -0.18792 0.01519 0.45730
 C295 C 0.31641 0.03614 0.48231
 C296 C 0.33260 0.05445 0.44951
 C297 C 0.36978 0.05007 0.44563
 C298 C 0.39114 0.02716 0.47451
 C299 C 0.37511 0.00992 0.50793
 C300 C 0.33794 0.01435 0.51175
 C301 C 0.27678 0.03750 0.48473
 C302 C 0.24322 0.03728 0.48671
 C303 C 0.20291 0.03555 0.48924
 C304 C 0.17530 0.03976 0.45554
 C305 C 0.13571 0.03585 0.45799
 C306 C 0.12329 0.02754 0.49424
 C307 C 0.15139 0.02385 0.52794
 C308 C 0.19091 0.02779 0.52541
 H309 H 0.31614 0.07138 0.42656
 H310 H 0.38159 0.06409 0.41980
 H311 H 0.39061 -0.00828 0.53042
 H312 H 0.32556 -0.00012 0.53716
 H313 H 0.18429 0.04559 0.42738
 H314 H 0.11482 0.03888 0.43153
 H315 H 0.14282 0.01751 0.55629
 H316 H 0.21204 0.02429 0.55165
 C317 C -0.00688 0.52755 1.28679
 C318 C 0.00663 0.50243 1.31865
 C319 C 0.00648 0.50943 1.35620
 C320 C -0.00707 0.54204 1.36282
 C321 C -0.02128 0.56666 1.33001
 C322 C -0.02111 0.55944 1.29255
 C323 C -0.00531 0.52124 1.24817
 C324 C -0.00383 0.51674 1.21562
 C325 C -0.00211 0.51239 1.17645
 C326 C -0.01253 0.47552 1.16385
 C327 C -0.01225 0.47174 1.12531
 C328 C -0.00159 0.50487 1.09889
 C329 C 0.00948 0.54170 1.11207
 C330 C 0.00920 0.54539 1.15056
 H331 H 0.01798 0.47775 1.31453
 H332 H 0.01900 0.49015 1.37984
 H333 H -0.03371 0.59104 1.33281
 H334 H -0.03203 0.57890 1.26801
 H335 H -0.02134 0.44977 1.18366
 H336 H -0.02101 0.44300 1.11608
 H337 H 0.01782 0.56780 1.09253
 H338 H 0.01733 0.57407 1.15999
 C339 C -0.03025 0.48008 0.68269
 C340 C -0.01014 0.51197 0.66083
 C341 C -0.00519 0.50879 0.62350
 C342 C -0.02019 0.47357 0.60764
 C343 C -0.04156 0.44212 0.62935
 C344 C -0.04648 0.44537 0.66667
 C345 C -0.03191 0.48217 0.72239
 C346 C -0.03197 0.48382 0.75597
 C347 C -0.03063 0.48592 0.79629
 C348 C -0.02024 0.52215 0.81015
 C349 C -0.01682 0.52425 0.84963
 C350 C -0.02370 0.49005 0.87583
 C351 C -0.03459 0.45376 0.86156
 C352 C -0.03798 0.45175 0.82202
 H353 H 0.00271 0.53891 0.67305
 H354 H 0.01176 0.53334 0.60767
 H355 H -0.05390 0.41482 0.61770
 H356 H -0.06211 0.42052 0.68336
 H357 H -0.01432 0.54877 0.79050
 H358 H -0.00844 0.55264 0.85964
 H359 H -0.04011 0.42692 0.88095
 H360 H -0.04586 0.42354 0.81159
   
