data_POSCAR
  _audit_creation_date              2014-09-24
  _audit_creation_method            'ToBaCCo'
  _symmetry_space_group_name_H-M    'P1'
  _symmetry_Int_Tables_number       1
  _symmetry_cell_setting            triclinic
  loop_
  _symmetry_equiv_pos_as_xyz
 x,y,z
_cell_length_a 21.1317
_cell_length_b 21.4121
_cell_length_c 29.3584
_cell_angle_alpha 90.406200
_cell_angle_beta 90.243700
_cell_angle_gamma 90.683200
loop_
  _atom_site_label
  _atom_site_type_symbol
  _atom_site_fract_x
  _atom_site_fract_y
  _atom_site_fract_z
O1 O 0.05367 0.43176 0.95507
 O2 O 0.06496 0.55304 1.03940
 O3 O 0.03269 0.43410 1.04293
 O4 O 0.04857 0.55461 0.95110
 O5 O -0.05537 0.56083 0.95088
 O6 O -0.07024 0.44763 1.03943
 O7 O -0.03812 0.56724 1.03886
 O8 O -0.05014 0.43839 0.95159
 Cu9 Cu 0.05921 0.49244 0.99725
 Cu10 Cu -0.06273 0.50424 0.99514
 C11 C 0.00146 0.41301 0.93877
 C12 C 0.01733 0.58247 1.05321
 C13 C -0.02332 0.42009 1.05636
 C14 C -0.00244 0.57871 0.93583
 O15 O 0.44991 0.06715 0.54082
 O16 O 0.56738 0.05655 0.45370
 O17 O 0.44292 0.05115 0.45233
 O18 O 0.57028 0.03548 0.54112
 O19 O 0.55398 -0.06625 0.53772
 O20 O 0.43363 -0.05140 0.45247
 O21 O 0.55779 -0.04578 0.44976
 O22 O 0.43361 -0.03465 0.54058
 Cu23 Cu 0.50864 0.06171 0.49725
 Cu24 Cu 0.49380 -0.05865 0.49508
 C25 C 0.42019 0.02001 0.55538
 C26 C 0.58416 0.00517 0.43657
 C27 C 0.41628 0.00081 0.43763
 C28 C 0.58417 -0.01986 0.55370
 C29 C -0.08062 0.02680 0.27638
 C30 C -0.02430 0.03013 0.25183
 C31 C -0.00860 0.08388 0.22752
 C32 C -0.04908 0.13532 0.22735
 C33 C -0.10607 0.13149 0.25225
 C34 C -0.12235 0.07726 0.27698
 C35 C 0.01869 -0.02291 0.25173
 C36 C 0.00252 -0.07720 0.22753
 C37 C 0.04372 -0.12798 0.22653
 C38 C 0.10135 -0.12359 0.25088
 C39 C 0.11759 -0.06925 0.27610
 C40 C 0.07569 -0.01894 0.27589
 H41 H -0.09058 -0.01474 0.29605
 H42 H 0.03460 0.08450 0.20779
 H43 H -0.04141 -0.07888 0.20834
 H44 H 0.08606 0.02290 0.29563
 H45 H -0.13774 0.17077 0.25245
 H46 H 0.13342 -0.16261 0.25027
 C47 C -0.02028 -0.08425 0.78010
 C48 C -0.02369 -0.02681 0.75805
 C49 C -0.07828 -0.01064 0.73415
 C50 C -0.12979 -0.05226 0.73117
 C51 C -0.12590 -0.11043 0.75323
 C52 C -0.07137 -0.12669 0.77832
 C53 C 0.03057 0.01628 0.75918
 C54 C 0.08566 0.00116 0.73566
 C55 C 0.13701 0.04312 0.73458
 C56 C 0.13250 0.10044 0.75831
 C57 C 0.07732 0.11569 0.78281
 C58 C 0.02643 0.07301 0.78265
 H59 H 0.02179 -0.09463 0.79970
 H60 H -0.07947 0.03362 0.71649
 H61 H 0.08726 -0.04240 0.71669
 H62 H -0.01615 0.08280 0.80170
 H63 H -0.16546 -0.14287 0.75089
 H64 H 0.17189 0.13318 0.75756
 C65 C 0.09183 -0.34099 0.08880
 C66 C 0.02935 -0.36430 0.08479
 C67 C -0.01864 -0.33636 0.11069
 C68 C -0.00380 -0.28609 0.14041
 C69 C 0.05929 -0.26347 0.14362
 C70 C 0.10656 -0.29123 0.11769
 C71 C 0.07442 -0.21291 0.17232
 C72 C 0.02752 -0.18405 0.19841
 C73 C -0.03509 -0.20726 0.19567
 C74 C -0.05061 -0.25774 0.16693
 H75 H -0.06687 -0.35382 0.10801
 H76 H 0.15508 -0.27440 0.11966
 H77 H 0.12259 -0.19495 0.17335
 H78 H -0.09920 -0.27438 0.16531
 H79 H 0.12991 -0.36096 0.06911
 H80 H -0.07215 -0.18633 0.21581
 C81 C -0.09886 0.35677 0.09859
 C82 C -0.03539 0.37336 0.08886
 C83 C 0.01341 0.34102 0.11114
 C84 C -0.00137 0.29240 0.14169
 C85 C -0.06528 0.27534 0.14934
 C86 C -0.11348 0.30822 0.12800
 C87 C -0.08040 0.22500 0.17767
 C88 C -0.03264 0.19148 0.19971
 C89 C 0.03091 0.21038 0.19338
 C90 C 0.04639 0.25991 0.16440
 H91 H 0.06248 0.35316 0.10462
 H92 H -0.16273 0.29609 0.13378
 H93 H -0.12951 0.21089 0.18128
 H94 H 0.09570 0.27258 0.15963
 H95 H -0.13811 0.38035 0.08258
 H96 H 0.06895 0.18673 0.21070
 C97 C 0.34582 0.09293 0.59271
 C98 C 0.36866 0.03158 0.58840
 C99 C 0.34192 -0.01582 0.61539
 C100 C 0.29318 -0.00155 0.64638
 C101 C 0.27079 0.06035 0.64977
 C102 C 0.29749 0.10708 0.62286
 C103 C 0.22129 0.07474 0.67949
 C104 C 0.19321 0.02823 0.70631
 C105 C 0.21652 -0.03308 0.70357
 C106 C 0.26597 -0.04784 0.67388
 H107 H 0.35912 -0.06316 0.61252
 H108 H 0.28085 0.15470 0.62497
 H109 H 0.20324 0.12191 0.68053
 H110 H 0.28252 -0.09550 0.67218
 H111 H 0.36495 0.13050 0.57224
 H112 H 0.19621 -0.06980 0.72427
 C113 C -0.34023 -0.09448 0.58748
 C114 C -0.36331 -0.03303 0.58574
 C115 C -0.33601 0.01294 0.61436
 C116 C -0.28660 -0.00286 0.64450
 C117 C -0.26411 -0.06486 0.64543
 C118 C -0.29125 -0.11013 0.61681
 C119 C -0.21421 -0.08080 0.67450
 C120 C -0.18585 -0.03577 0.70310
 C121 C -0.20909 0.02566 0.70269
 C122 C -0.25894 0.04196 0.67366
 H123 H -0.35337 0.06034 0.61345
 H124 H -0.27452 -0.15779 0.61700
 H125 H -0.19621 -0.12799 0.67379
 H126 H -0.27553 0.08965 0.67383
 H127 H -0.35977 -0.13095 0.56567
 H128 H -0.18854 0.06122 0.72479
 C129 C 0.05270 -0.34891 0.88028
 C130 C -0.00265 -0.37067 0.90154
 C131 C -0.06058 -0.34193 0.89119
 C132 C -0.06337 -0.29146 0.86143
 C133 C -0.00770 -0.26935 0.84040
 C134 C 0.05011 -0.29887 0.84964
 C135 C -0.01084 -0.21731 0.81152
 C136 C -0.06867 -0.18597 0.80466
 C137 C -0.12356 -0.20939 0.82574
 C138 C -0.12105 -0.26186 0.85342
 H139 H -0.10394 -0.35772 0.90727
 H140 H 0.09342 -0.28250 0.83385
 H141 H 0.03188 -0.20082 0.79500
 H142 H -0.16407 -0.27827 0.86962
 H143 H 0.09783 -0.37015 0.88759
 H144 H -0.16839 -0.18598 0.82220
 C145 C -0.05109 0.33886 0.88218
 C146 C 0.00309 0.36047 0.90556
 C147 C 0.06119 0.33066 0.89775
 C148 C 0.06535 0.27978 0.86792
 C149 C 0.01087 0.25805 0.84460
 C150 C -0.04715 0.28820 0.85170
 C151 C 0.01536 0.20598 0.81535
 C152 C 0.07337 0.17447 0.81014
 C153 C 0.12710 0.19739 0.83349
 C154 C 0.12324 0.24971 0.86178
 H155 H 0.10362 0.34633 0.91553
 H156 H -0.08955 0.27212 0.83413
 H157 H -0.02641 0.18974 0.79709
 H158 H 0.16536 0.26584 0.87971
 H159 H -0.09631 0.36096 0.88751
 H160 H 0.17197 0.17377 0.83109
 C161 C -0.34606 -0.04788 0.38171
 C162 C -0.36723 0.00644 0.40387
 C163 C -0.33731 0.06403 0.39366
 C164 C -0.28654 0.06734 0.36344
 C165 C -0.26548 0.01276 0.34147
 C166 C -0.29597 -0.04461 0.35046
 C167 C -0.21355 0.01651 0.31174
 C168 C -0.18107 0.07388 0.30502
 C169 C -0.20315 0.12764 0.32734
 C170 C -0.25567 0.12453 0.35578
 H171 H -0.35228 0.10683 0.41015
 H172 H -0.28037 -0.08710 0.33395
 H173 H -0.19820 -0.02537 0.29432
 H174 H -0.27117 0.16673 0.37277
 H175 H -0.36790 -0.09284 0.38856
 H176 H -0.17879 0.17210 0.32402
 C177 C 0.34425 0.05455 0.38122
 C178 C 0.36372 0.00050 0.40391
 C179 C 0.33176 -0.05639 0.39476
 C180 C 0.28101 -0.05958 0.36420
 C181 C 0.26149 -0.00530 0.34146
 C182 C 0.29367 0.05159 0.34999
 C183 C 0.20959 -0.00894 0.31131
 C184 C 0.17615 -0.06593 0.30459
 C185 C 0.19684 -0.11939 0.32753
 C186 C 0.24894 -0.11636 0.35671
 H187 H 0.34567 -0.09869 0.41204
 H188 H 0.27931 0.09384 0.33291
 H189 H 0.19505 0.03265 0.29347
 H190 H 0.26334 -0.15829 0.37422
 H191 H 0.36801 0.09886 0.38758
 H192 H 0.17162 -0.16347 0.32410
   
