data_POSCAR
  _audit_creation_date              2014-09-24
  _audit_creation_method            'ToBaCCo'
  _symmetry_space_group_name_H-M    'P1'
  _symmetry_Int_Tables_number       1
  _symmetry_cell_setting            triclinic
  loop_
  _symmetry_equiv_pos_as_xyz
 x,y,z
_cell_length_a 51.6753
_cell_length_b 53.1465
_cell_length_c 24.7823
_cell_angle_alpha 89.786900
_cell_angle_beta 89.859200
_cell_angle_gamma 120.893600
loop_
  _atom_site_label
  _atom_site_type_symbol
  _atom_site_fract_x
  _atom_site_fract_y
  _atom_site_fract_z
C1 C 0.14316 0.41936 0.51384
 C2 C 0.15469 0.41775 0.46330
 C3 C 0.18265 0.41920 0.46151
 C4 C 0.20021 0.42472 0.50830
 C5 C 0.18866 0.42776 0.55793
 C6 C 0.15987 0.42444 0.56155
 C7 C 0.23087 0.42813 0.50504
 C8 C 0.24326 0.42168 0.54995
 C9 C 0.27238 0.42589 0.54778
 C10 C 0.28865 0.43513 0.49913
 C11 C 0.27681 0.44133 0.45351
 C12 C 0.24826 0.43840 0.45722
 H13 H 0.12136 0.41763 0.51581
 H14 H 0.19080 0.41621 0.42327
 H15 H 0.20231 0.43324 0.59385
 H16 H 0.23035 0.41325 0.58685
 H17 H 0.31100 0.43813 0.49713
 H18 H 0.23996 0.44470 0.42286
 C19 C 0.55381 -0.28426 0.47291
 C20 C 0.55665 -0.27046 0.42293
 C21 C 0.55898 -0.24288 0.42238
 C22 C 0.56069 -0.22812 0.47083
 C23 C 0.55890 -0.24235 0.52029
 C24 C 0.55404 -0.27092 0.52183
 C25 C 0.56392 -0.19825 0.47001
 C26 C 0.55539 -0.18799 0.51535
 C27 C 0.55916 -0.15988 0.51593
 C28 C 0.57016 -0.14232 0.46955
 C29 C 0.57708 -0.15244 0.42284
 C30 C 0.57485 -0.17990 0.42375
 H31 H 0.55100 -0.30590 0.47374
 H32 H 0.55914 -0.23324 0.38389
 H33 H 0.56132 -0.23134 0.55809
 H34 H 0.54515 -0.20187 0.55024
 H35 H 0.57195 -0.12111 0.46884
 H36 H 0.58179 -0.18651 0.38804
 C37 C 1.28561 0.84084 0.50668
 C38 C 1.27453 0.82384 0.45968
 C39 C 1.24595 0.79808 0.46176
 C40 C 1.22765 0.79016 0.50838
 C41 C 1.23918 0.80809 0.55437
 C42 C 1.26842 0.83288 0.55444
 C43 C 1.19688 0.76303 0.50900
 C44 C 1.18405 0.74746 0.55746
 C45 C 1.15532 0.72176 0.55834
 C46 C 1.13996 0.71108 0.50919
 C47 C 1.15272 0.72550 0.46017
 C48 C 1.18051 0.75194 0.46075
 H49 H 1.30793 0.86026 0.50642
 H50 H 1.23813 0.78397 0.42688
 H51 H 1.22547 0.80296 0.59036
 H52 H 1.19671 0.75491 0.59452
 H53 H 1.11837 0.69079 0.50865
 H54 H 1.18934 0.76366 0.42310
 C55 C 0.85615 0.57262 0.51027
 C56 C 0.84599 0.57777 0.46130
 C57 C 0.82185 0.58285 0.46199
 C58 C 0.80668 0.58116 0.51057
 C59 C 0.81655 0.57449 0.55873
 C60 C 0.84170 0.57103 0.55925
 C61 C 0.78040 0.58586 0.51125
 C62 C 0.77296 0.59549 0.55861
 C63 C 0.74699 0.59763 0.56162
 C64 C 0.72997 0.59287 0.51457
 C65 C 0.73703 0.58377 0.46651
 C66 C 0.76189 0.57976 0.46551
 H67 H 0.87494 0.56901 0.51010
 H68 H 0.81513 0.58825 0.42449
 H69 H 0.80454 0.57158 0.59616
 H70 H 0.78718 0.60104 0.59376
 H71 H 0.71020 0.59494 0.51588
 H72 H 0.76627 0.57124 0.42931
 C73 C 0.44042 0.29365 0.48071
 C74 C 0.44131 0.27961 0.43379
 C75 C 0.44139 0.25342 0.43831
 C76 C 0.43813 0.23966 0.48884
 C77 C 0.43766 0.25457 0.53579
 C78 C 0.43996 0.28218 0.53217
 C79 C 0.43557 0.21013 0.49152
 C80 C 0.44308 0.20016 0.53865
 C81 C 0.44117 0.17269 0.54003
 C82 C 0.43313 0.15592 0.49255
 C83 C 0.42657 0.16568 0.44497
 C84 C 0.42629 0.19185 0.44563
 H85 H 0.44132 0.31438 0.47686
 H86 H 0.44418 0.24404 0.40181
 H87 H 0.43534 0.24483 0.57517
 H88 H 0.45097 0.21385 0.57404
 H89 H 0.43290 0.13544 0.49185
 H90 H 0.41894 0.19777 0.40954
 C91 C 0.71858 0.13202 0.52431
 C92 C 0.72710 0.14773 0.47552
 C93 C 0.75417 0.17498 0.47323
 C94 C 0.77338 0.18612 0.51842
 C95 C 0.76425 0.16949 0.56674
 C96 C 0.73647 0.14309 0.57048
 C97 C 0.80217 0.21540 0.51588
 C98 C 0.81448 0.23213 0.56307
 C99 C 0.84165 0.25940 0.56179
 C100 C 0.85580 0.27060 0.51161
 C101 C 0.84334 0.25515 0.46364
 C102 C 0.81715 0.22726 0.46631
 H103 H 0.69716 0.11162 0.52707
 H104 H 0.75974 0.18767 0.43637
 H105 H 0.77846 0.17691 0.60201
 H106 H 0.80262 0.22430 0.60104
 H107 H 0.87614 0.29199 0.50946
 H108 H 0.80868 0.21498 0.42939
 O109 O 0.95982 0.48535 -0.09092
 O110 O 1.03257 0.52163 0.11970
 O111 O 0.94067 0.48569 0.07105
 O112 O 1.05183 0.54046 -0.04239
 O113 O 0.98332 0.51702 0.10639
 O114 O 1.00941 0.52968 -0.07854
 O115 O 1.04753 0.54679 0.04938
 O116 O 0.94493 0.49589 -0.02102
 C117 C 0.94708 0.49724 -0.07046
 C118 C 1.04503 0.54617 0.09871
 C119 C 0.95644 0.50869 0.09806
 C120 C 1.03650 0.54780 -0.07076
 O121 O 1.03351 0.49695 -0.09003
 O122 O 0.95833 0.46005 0.11930
 O123 O 0.94104 0.44174 -0.04274
 O124 O 1.05085 0.49617 0.07266
 O125 O 1.00783 0.46473 0.10782
 O126 O 0.98386 0.45262 -0.07769
 O127 O 1.04786 0.48637 -0.01943
 O128 O 0.94444 0.43516 0.04917
 Co129 Co 0.99658 0.49113 -0.07403
 Co130 Co 0.99556 0.49086 0.10325
 Co131 Co 0.94750 0.46695 0.01423
 Co132 Co 1.04476 0.51510 0.01509
 O133 O 0.99610 0.49100 0.01462
 C134 C 1.04623 0.48519 -0.06890
 C135 C 0.94621 0.43557 0.09857
 C136 C 0.95669 0.43448 -0.07035
 C137 C 1.03486 0.47323 0.10024
 O138 O 0.51975 0.49060 -0.12117
 O139 O 0.45381 0.48603 0.05047
 O140 O 0.51610 0.45850 0.04175
 O141 O 0.45237 0.49683 -0.04847
 O142 O 0.47529 0.45755 0.06154
 O143 O 0.47923 0.50127 -0.11798
 O144 O 0.46002 0.52715 0.03550
 O145 O 0.51381 0.45899 -0.05877
 C146 C 0.51182 0.46474 -0.10685
 C147 C 0.44505 0.50336 0.05892
 C148 C 0.49010 0.44529 0.06078
 C149 C 0.45383 0.49043 -0.09608
 O150 O 0.51932 0.55661 -0.08247
 O151 O 0.52738 0.50352 0.10072
 O152 O 0.56451 0.50976 -0.06033
 O153 O 0.51492 0.56102 0.01402
 O154 O 0.50603 0.53523 0.08788
 O155 O 0.55764 0.54515 -0.07997
 O156 O 0.47691 0.55215 -0.05926
 O157 O 0.56245 0.51092 0.04149
 Co158 Co 0.51791 0.52194 -0.09303
 Co159 Co 0.49189 0.49665 0.06860
 Co160 Co 0.53623 0.48669 -0.00948
 Co161 Co 0.48487 0.52835 -0.01888
 O162 O 0.50790 0.50666 -0.01083
 C163 C 0.49958 0.56330 -0.09234
 C164 C 0.55463 0.51210 0.08895
 C165 C 0.57464 0.53526 -0.07757
 C166 C 0.51775 0.55991 0.06412
 O167 O 0.53572 0.01199 -0.07636
 O168 O 0.49616 -0.02831 0.09953
 O169 O 0.54772 0.05480 0.05569
 O170 O 0.50297 -0.03958 -0.07128
 O171 O 0.51485 0.02362 0.11524
 O172 O 0.49358 -0.01898 -0.13887
 O173 O 0.51190 -0.03925 0.02618
 O174 O 0.54886 0.05520 -0.04679
 C175 C 0.55536 0.03832 -0.07084
 C176 C 0.51262 -0.03641 0.07642
 C177 C 0.54112 0.04444 0.10283
 C178 C 0.49727 -0.04017 -0.12135
 O179 O 0.45595 -0.01259 -0.08511
 O180 O 0.46173 0.01645 0.08460
 O181 O 0.49602 0.05458 -0.04417
 O182 O 0.45462 -0.06330 0.04628
 O183 O 0.44221 -0.03278 0.06259
 O184 O 0.50365 0.03332 -0.11021
 O185 O 0.44541 -0.05379 -0.04931
 O186 O 0.49920 0.05743 0.05546
 Co187 Co 0.49539 -0.00065 -0.07691
 Co188 Co 0.47966 -0.00525 0.08358
 Co189 Co 0.52040 0.05059 0.00401
 Co190 Co 0.47989 -0.04392 -0.01105
 O191 O 0.49417 0.00261 0.00343
 C192 C 0.43733 -0.03895 -0.07645
 C193 C 0.47483 0.04352 0.08090
 C194 C 0.49679 0.05127 -0.09361
 C195 C 0.43586 -0.05821 0.06599
 N196 N 1.09959 0.41769 0.37263
 C197 C 1.11222 0.41956 0.32374
 N198 N 1.13837 0.41946 0.32102
 N199 N 1.15161 0.41786 0.36599
 C200 C 1.13933 0.41650 0.41540
 N201 N 1.11283 0.41615 0.41749
 C202 C 1.09942 0.42453 0.27642
 C203 C 1.08830 0.43009 0.23895
 C204 C 1.07456 0.43821 0.19745
 N205 N 1.04418 0.42576 0.19641
 N206 N 1.03145 0.43608 0.16336
 C207 C 1.04865 0.45925 0.13026
 N208 N 1.07907 0.47140 0.13075
 N209 N 1.09181 0.46109 0.16388
 N210 N 0.55936 0.71424 0.28037
 C211 C 0.55763 0.68791 0.28328
 N212 N 0.55548 0.67563 0.33219
 N213 N 0.55518 0.68917 0.37693
 C214 C 0.55690 0.71555 0.37480
 N215 N 0.55912 0.72786 0.32538
 C216 C 0.55633 0.67188 0.23597
 C217 C 0.55385 0.65554 0.20013
 C218 C 0.54891 0.63298 0.16277
 N219 N 0.54522 0.60750 0.18227
 N220 N 0.53673 0.58470 0.14991
 C221 C 0.53171 0.58658 0.09677
 N222 N 0.53595 0.61232 0.07691
 N223 N 0.54436 0.63517 0.10947
 N224 N 0.33454 -0.13330 0.36314
 C225 C 0.32325 -0.14900 0.31735
 N226 N 0.29599 -0.17411 0.31905
 N227 N 0.28047 -0.18313 0.36520
 C228 C 0.29153 -0.16738 0.41137
 N229 N 0.31901 -0.14232 0.40921
 C230 C 0.33941 -0.13809 0.26736
 C231 C 0.35368 -0.12728 0.22654
 C232 C 0.37168 -0.11222 0.17998
 N233 N 0.39008 -0.12045 0.15713
 N234 N 0.40952 -0.10409 0.11836
 C235 C 0.41120 -0.07896 0.10132
 N236 N 0.39242 -0.07108 0.12375
 N237 N 0.37299 -0.08743 0.16233
 N238 N 0.89675 0.57137 0.36450
 C239 C 0.88268 0.56833 0.31687
 N240 N 0.85715 0.56964 0.31601
 N241 N 0.84594 0.57361 0.36163
 C242 C 0.85981 0.57629 0.40968
 N243 N 0.88554 0.57526 0.40998
 C244 C 0.89367 0.56144 0.26924
 C245 C 0.90385 0.55464 0.23198
 C246 C 0.91714 0.54554 0.19131
 N247 N 0.89967 0.52183 0.16014
 N248 N 0.91222 0.51083 0.12818
 C249 C 0.94265 0.52309 0.12658
 N250 N 0.96004 0.54706 0.15726
 N251 N 0.94752 0.55807 0.18908
 N252 N 0.45008 0.29490 0.28673
 C253 C 0.44630 0.31828 0.28334
 N254 N 0.44068 0.32872 0.32882
 N255 N 0.43886 0.31622 0.37633
 C256 C 0.44274 0.29287 0.38029
 N257 N 0.44820 0.28232 0.33441
 C258 C 0.45041 0.33355 0.23348
 C259 C 0.45475 0.34876 0.19444
 C260 C 0.46111 0.36957 0.15217
 N261 N 0.44292 0.38074 0.14535
 N262 N 0.45147 0.40403 0.11367
 C263 C 0.47857 0.41701 0.08801
 N264 N 0.49648 0.40542 0.09406
 N265 N 0.48793 0.38214 0.12578
 N266 N 0.69444 0.14109 0.33960
 C267 C 0.66883 0.11442 0.34289
 N268 N 0.66254 0.09865 0.38911
 N269 N 0.68120 0.10923 0.43087
 C270 C 0.70686 0.13598 0.42812
 N271 N 0.71315 0.15168 0.38148
 C272 C 0.64807 0.10309 0.29879
 C273 C 0.62981 0.09291 0.26304
 C274 C 0.60736 0.08027 0.22175
 N275 N 0.57931 0.05767 0.23371
 N276 N 0.55821 0.04611 0.19571
 C277 C 0.56447 0.05679 0.14448
 N278 N 0.59262 0.07939 0.13259
 N279 N 0.61372 0.09095 0.17061
 N280 N 0.46258 0.16709 -0.32233
 C281 C 0.46041 0.14054 -0.32362
 N282 N 0.45187 0.12495 -0.36982
 N283 N 0.44569 0.13546 -0.41346
 C284 C 0.44779 0.16203 -0.41296
 N285 N 0.45633 0.17763 -0.36623
 C286 C 0.46745 0.12871 -0.27766
 C287 C 0.47308 0.11673 -0.24213
 C288 C 0.47956 0.10058 -0.20345
 N289 N 0.48666 0.08072 -0.22089
 N290 N 0.49209 0.06500 -0.18576
 C291 C 0.49052 0.06855 -0.13191
 N292 N 0.48339 0.08847 -0.11442
 N293 N 0.47794 0.10422 -0.14964
 N294 N 0.69862 0.60283 -0.33865
 C295 C 0.71157 0.60178 -0.29196
 N296 N 0.73761 0.60145 -0.29392
 N297 N 0.74998 0.60166 -0.34133
 C298 C 0.73659 0.60182 -0.38850
 N299 N 0.71091 0.60292 -0.38591
 C300 C 0.69505 0.59618 -0.24248
 C301 C 0.67844 0.58918 -0.20400
 C302 C 0.65572 0.57847 -0.16274
 N303 N 0.64670 0.55229 -0.13854
 N304 N 0.62166 0.53919 -0.10862
 C305 C 0.60469 0.55177 -0.10224
 N306 N 0.61411 0.57826 -0.12563
 N307 N 0.63914 0.59134 -0.15551
 N308 N 0.89200 0.31747 -0.34738
 C309 C 0.87815 0.30711 -0.29910
 N310 N 0.85214 0.28076 -0.29690
 N311 N 0.84041 0.26526 -0.34174
 C312 C 0.85413 0.27555 -0.39051
 N313 N 0.88027 0.30199 -0.39213
 C314 C 0.89043 0.32465 -0.25161
 C315 C 0.90149 0.34078 -0.21362
 C316 C 0.91550 0.36179 -0.17117
 N317 N 0.94596 0.37872 -0.16917
 N318 N 0.95915 0.40100 -0.13482
 C319 C 0.94233 0.40714 -0.10126
 N320 N 0.91181 0.38984 -0.10267
 N321 N 0.89861 0.36755 -0.13711
 N322 N 0.53129 -0.15554 -0.34836
 C323 C 0.53516 -0.12829 -0.34964
 N324 N 0.54691 -0.11155 -0.39448
 N325 N 0.55455 -0.12166 -0.43685
 C326 C 0.55073 -0.14892 -0.43613
 N327 N 0.53897 -0.16567 -0.39089
 C328 C 0.52666 -0.11701 -0.30495
 C329 C 0.52001 -0.10575 -0.26979
 C330 C 0.51267 -0.09043 -0.23098
 N331 N 0.50354 -0.07201 -0.24819
 N332 N 0.49829 -0.05629 -0.21299
 C333 C 0.50205 -0.05841 -0.15937
 N334 N 0.51105 -0.07700 -0.14207
 N335 N 0.51635 -0.09273 -0.17737
 N336 N 0.29131 0.42346 -0.30912
 C337 C 0.31733 0.42318 -0.31375
 N338 N 0.32762 0.42220 -0.36354
 N339 N 0.31263 0.42185 -0.40739
 C340 C 0.28680 0.42255 -0.40320
 N341 N 0.27624 0.42302 -0.35309
 C342 C 0.33617 0.42814 -0.26779
 C343 C 0.35425 0.43446 -0.23208
 C344 C 0.37827 0.44452 -0.19372
 N345 N 0.40577 0.45039 -0.21069
 N346 N 0.42954 0.46383 -0.17836
 C347 C 0.42669 0.47191 -0.12785
 N348 N 0.39901 0.46557 -0.11043
 N349 N 0.37518 0.45217 -0.14295
 N350 N 1.14535 0.70073 -0.29972
 C351 C 1.11786 0.67585 -0.30013
 N352 N 1.10283 0.66648 -0.34735
 N353 N 1.11486 0.68147 -0.39280
 C354 C 1.14248 0.70639 -0.39302
 N355 N 1.15739 0.71575 -0.34529
 C356 C 1.10525 0.65849 -0.25214
 C357 C 1.09376 0.64232 -0.21396
 C358 C 1.07913 0.62113 -0.17150
 N359 N 1.09551 0.61520 -0.13659
 N360 N 1.08181 0.59268 -0.10222
 C361 C 1.05128 0.57531 -0.10176
 N362 N 1.03495 0.58161 -0.13618
 N363 N 1.04864 0.60412 -0.17045
 N364 N 0.88842 0.55887 -0.34357
 C365 C 0.87317 0.55445 -0.29660
 N366 N 0.84751 0.55552 -0.29651
 N367 N 0.83754 0.56096 -0.34215
 C368 C 0.85274 0.56530 -0.38950
 N369 N 0.87844 0.56424 -0.38906
 C370 C 0.88358 0.54703 -0.24884
 C371 C 0.89386 0.53992 -0.21221
 C372 C 0.90785 0.53026 -0.17407
 N373 N 0.90288 0.52953 -0.12003
 N374 N 0.91562 0.51945 -0.08612
 C375 C 0.93364 0.50979 -0.10542
 N376 N 0.93857 0.51076 -0.15936
 N377 N 0.92594 0.52082 -0.19301
 N378 N 0.45223 0.30836 -0.32925
 C379 C 0.45462 0.33486 -0.33574
 N380 N 0.45077 0.34301 -0.38537
 N381 N 0.44518 0.32551 -0.42739
 C382 C 0.44319 0.29910 -0.42177
 N383 N 0.44654 0.29075 -0.37149
 C384 C 0.46319 0.35526 -0.29210
 C385 C 0.47118 0.37388 -0.25795
 C386 C 0.48131 0.39706 -0.21924
 N387 N 0.48895 0.42448 -0.23530
 N388 N 0.49879 0.44620 -0.19965
 C389 C 0.50139 0.44118 -0.14676
 N390 N 0.49369 0.41368 -0.13086
 N391 N 0.48387 0.39199 -0.16648
 N392 N 0.68635 0.08884 -0.32809
 C393 C 0.69578 0.10443 -0.28183
 N394 N 0.72010 0.13204 -0.28333
 N395 N 0.73422 0.14382 -0.32994
 C396 C 0.72437 0.12848 -0.37670
 N397 N 0.70039 0.10062 -0.37460
 C398 C 0.67719 0.09341 -0.23442
 C399 C 0.65929 0.08379 -0.19768
 C400 C 0.63561 0.07194 -0.15804
 N401 N 0.62992 0.09004 -0.12857
 N402 N 0.60498 0.07921 -0.09852
 C403 C 0.58480 0.04991 -0.09724
 N404 N 0.59080 0.03182 -0.12615
 N405 N 0.61573 0.04266 -0.15613
 N406 N 1.10942 0.42708 -0.33950
 C407 C 1.12589 0.43385 -0.29376
 N408 N 1.15369 0.43711 -0.29578
 N409 N 1.16457 0.43367 -0.34229
 C410 C 1.14821 0.42712 -0.38859
 N411 N 1.12031 0.42372 -0.38584
 C412 C 1.11460 0.43992 -0.24557
 C413 C 1.10339 0.44595 -0.20888
 C414 C 1.08816 0.45438 -0.17103
 N415 N 1.09313 0.45554 -0.11699
 N416 N 1.07941 0.46477 -0.08350
 C417 C 1.06041 0.47314 -0.10321
 N418 N 1.05548 0.47172 -0.15713
 N419 N 1.06906 0.46250 -0.19036
 N420 N 0.54075 0.70973 -0.33541
 C421 C 0.53540 0.68193 -0.33602
 N422 N 0.53700 0.67026 -0.38343
 N423 N 0.54343 0.68571 -0.42894
 C424 C 0.54865 0.71353 -0.42908
 N425 N 0.54721 0.72523 -0.38112
 C426 C 0.52841 0.66472 -0.28756
 C427 C 0.52290 0.64877 -0.24908
 C428 C 0.51731 0.62846 -0.20598
 N429 N 0.53788 0.62055 -0.19550
 N430 N 0.53218 0.60004 -0.15868
 C431 C 0.50565 0.58660 -0.13114
 N432 N 0.48504 0.59460 -0.14143
 N433 N 0.49075 0.61515 -0.17846
 N434 N 0.32190 -0.11062 -0.35128
 C435 C 0.30842 -0.12132 -0.30282
 N436 N 0.28121 -0.14655 -0.30111
 N437 N 0.26803 -0.16067 -0.34654
 C438 C 0.28163 -0.15018 -0.39528
 N439 N 0.30876 -0.12475 -0.39660
 C440 C 0.32438 -0.10743 -0.25417
 C441 C 0.33982 -0.09544 -0.21531
 C442 C 0.36069 -0.08079 -0.17210
 N443 N 0.36682 -0.09643 -0.13640
 N444 N 0.39007 -0.08287 -0.10278
 C445 C 0.40803 -0.05320 -0.10375
 N446 N 0.40139 -0.03758 -0.13869
 N447 N 0.37814 -0.05113 -0.17227
 N448 N 0.57397 -0.13467 0.28000
 C449 C 0.58334 -0.10572 0.28273
 N450 N 0.59339 -0.09168 0.33038
 N451 N 0.59336 -0.10622 0.37423
 C452 C 0.58324 -0.13538 0.37219
 N453 N 0.57405 -0.14922 0.32392
 C454 C 0.57705 -0.09155 0.23965
 C455 C 0.56947 -0.07972 0.20704
 C456 C 0.55792 -0.06607 0.17243
 N457 N 0.54466 -0.05221 0.19470
 N458 N 0.53104 -0.04197 0.16379
 C459 C 0.53019 -0.04525 0.10944
 N460 N 0.54380 -0.05885 0.08704
 N461 N 0.55738 -0.06918 0.11806
 N462 N 0.29842 0.46260 0.31034
 C463 C 0.32664 0.46684 0.30884
 N464 N 0.33856 0.46312 0.35463
 N465 N 0.32282 0.45535 0.40049
 C466 C 0.29451 0.45096 0.40242
 N467 N 0.28266 0.45483 0.35635
 C468 C 0.34352 0.47398 0.25932
 C469 C 0.35885 0.47931 0.21930
 C470 C 0.37840 0.48477 0.17388
 N471 N 0.39340 0.51156 0.14979
 N472 N 0.41391 0.51728 0.11145
 C473 C 0.42012 0.49641 0.09614
 N474 N 0.40485 0.46957 0.11999
 N475 N 0.38436 0.46386 0.15817
 N476 N 1.09795 0.67292 0.36248
 C477 C 1.11410 0.68112 0.31593
 N478 N 1.14235 0.70499 0.31589
 N479 N 1.15414 0.71997 0.36123
 C480 C 1.13821 0.71150 0.40831
 N481 N 1.10975 0.68783 0.40775
 C482 C 1.10287 0.66212 0.26999
 C483 C 1.09277 0.64389 0.23492
 C484 C 1.07988 0.61959 0.19834
 N485 N 1.08502 0.62325 0.14427
 N486 N 1.07376 0.59998 0.11178
 C487 C 1.05718 0.57240 0.13254
 N488 N 1.05210 0.56899 0.18652
 N489 N 1.06324 0.59212 0.21879
 N490 N 0.42000 0.10997 0.34854
 C491 C 0.42433 0.12391 0.30057
 N492 N 0.42743 0.15083 0.29953
 N493 N 0.42664 0.16355 0.34528
 C494 C 0.42287 0.14988 0.39368
 N495 N 0.41928 0.12270 0.39420
 C496 C 0.42924 0.11164 0.25294
 C497 C 0.43477 0.10071 0.21551
 C498 C 0.44265 0.08678 0.17456
 N499 N 0.46864 0.10235 0.14592
 N500 N 0.47831 0.08872 0.11392
 C501 C 0.46239 0.05904 0.10980
 N502 N 0.43619 0.04358 0.13796
 N503 N 0.42652 0.05720 0.16984
 N504 N 0.67531 0.57508 0.37839
 C505 C 0.67977 0.56361 0.33312
 N506 N 0.70330 0.55907 0.33094
 N507 N 0.72175 0.56574 0.37296
 C508 C 0.71728 0.57712 0.41868
 N509 N 0.69372 0.58171 0.42030
 C510 C 0.65912 0.55558 0.28894
 C511 C 0.64113 0.54866 0.25289
 C512 C 0.61920 0.54013 0.21078
 N513 N 0.62697 0.53955 0.15873
 N514 N 0.60642 0.53096 0.11985
 C515 C 0.57742 0.52268 0.13169
 N516 N 0.56973 0.52340 0.18385
 N517 N 0.59029 0.53199 0.22274
 N518 N 0.89545 0.30856 0.36273
 C519 C 0.87862 0.29990 0.31727
 N520 N 0.85076 0.27546 0.31895
 N521 N 0.84001 0.26038 0.36491
 C522 C 0.85664 0.26933 0.41090
 N523 N 0.88469 0.29357 0.40860
 C524 C 0.88884 0.31888 0.27079
 C525 C 0.89836 0.33722 0.23549
 C526 C 0.91083 0.36174 0.19883
 N527 N 0.92619 0.38915 0.21931
 N528 N 0.93740 0.41243 0.18688
 C529 C 0.93368 0.40920 0.13269
 N530 N 0.91835 0.38168 0.11191
 N531 N 0.90703 0.35827 0.14456
   
