data_POSCAR
  _audit_creation_date              2014-09-24
  _audit_creation_method            'ToBaCCo'
  _symmetry_space_group_name_H-M    'P1'
  _symmetry_Int_Tables_number       1
  _symmetry_cell_setting            triclinic
  loop_
  _symmetry_equiv_pos_as_xyz
 x,y,z
_cell_length_a 54.7270
_cell_length_b 54.8066
_cell_length_c 54.7085
_cell_angle_alpha 90.006600
_cell_angle_beta 89.977000
_cell_angle_gamma 89.953800
loop_
  _atom_site_label
  _atom_site_type_symbol
  _atom_site_fract_x
  _atom_site_fract_y
  _atom_site_fract_z
C1 C 0.15353 0.17087 0.18970
 C2 C 0.15361 0.18924 0.17184
 C3 C 0.17201 0.18994 0.15455
 C4 C 0.19053 0.17223 0.15482
 C5 C 0.19038 0.15418 0.17233
 C6 C 0.17175 0.15352 0.18994
 C7 C 0.13834 0.16606 0.20912
 N8 N 0.14680 0.14608 0.22147
 C9 C 0.16735 0.13841 0.20950
 C10 C 0.21051 0.13972 0.16829
 N11 N 0.22315 0.14840 0.14855
 C12 C 0.21073 0.16846 0.14037
 C13 C 0.16775 0.20991 0.13993
 N14 N 0.14715 0.22139 0.14784
 C15 C 0.13842 0.20874 0.16739
 H16 H 0.12239 0.17676 0.21362
 H17 H 0.17891 0.12324 0.21452
 H18 H 0.21523 0.12407 0.17930
 H19 H 0.21563 0.17984 0.12502
 H20 H 0.17923 0.21585 0.12497
 H21 H 0.12209 0.21318 0.17763
 C22 C -0.15302 0.82862 0.18953
 C23 C -0.15338 0.81031 0.17162
 C24 C -0.17194 0.80974 0.15454
 C25 C -0.19036 0.82755 0.15506
 C26 C -0.18997 0.84555 0.17263
 C27 C -0.17115 0.84607 0.19005
 C28 C -0.13762 0.83326 0.20881
 N29 N -0.14583 0.85323 0.22134
 C30 C -0.16646 0.86107 0.20963
 C31 C -0.21008 0.86010 0.16883
 N32 N -0.22293 0.85152 0.14920
 C33 C -0.21068 0.83144 0.14083
 C34 C -0.16790 0.78983 0.13978
 N35 N -0.14725 0.77825 0.14740
 C36 C -0.13829 0.79078 0.16692
 H37 H -0.12176 0.82235 0.21315
 H38 H -0.17780 0.87636 0.21478
 H39 H -0.21455 0.87586 0.17980
 H40 H -0.21587 0.82001 0.12562
 H41 H -0.17953 0.78401 0.12490
 H42 H -0.12186 0.78627 0.17694
 C43 C -0.15431 0.17199 -0.19079
 C44 C -0.15393 0.18988 -0.17245
 C45 C -0.17111 0.18938 -0.15396
 C46 C -0.18898 0.17104 -0.15359
 C47 C -0.18935 0.15351 -0.17163
 C48 C -0.17184 0.15397 -0.19038
 C49 C -0.13998 0.16802 -0.21104
 N50 N -0.14824 0.14787 -0.22322
 C51 C -0.16790 0.13933 -0.21040
 C52 C -0.20890 0.13848 -0.16694
 N53 N -0.22072 0.14638 -0.14638
 C54 C -0.20830 0.16642 -0.13822
 C55 C -0.16654 0.20899 -0.13895
 N56 N -0.14702 0.22151 -0.14790
 C57 C -0.13925 0.20984 -0.16845
 H58 H -0.12468 0.17936 -0.21613
 H59 H -0.17891 0.12362 -0.21490
 H60 H -0.21391 0.12310 -0.17820
 H61 H -0.21276 0.17740 -0.12245
 H62 H -0.17666 0.21356 -0.12259
 H63 H -0.12432 0.21563 -0.18005
 C64 C 0.15655 0.82688 -0.19092
 C65 C 0.15631 0.80906 -0.17251
 C66 C 0.17361 0.80964 -0.15415
 C67 C 0.19146 0.82800 -0.15398
 C68 C 0.19170 0.84545 -0.17209
 C69 C 0.17406 0.84491 -0.19070
 C70 C 0.14207 0.83076 -0.21106
 N71 N 0.15022 0.85089 -0.22337
 C72 C 0.16997 0.85948 -0.21073
 C73 C 0.21124 0.86054 -0.16761
 N74 N 0.22322 0.85275 -0.14711
 C75 C 0.21088 0.83272 -0.13878
 C76 C 0.16915 0.79008 -0.13904
 N77 N 0.14956 0.77752 -0.14779
 C78 C 0.14166 0.78911 -0.16833
 H79 H 0.12672 0.81942 -0.21598
 H80 H 0.18097 0.87516 -0.21539
 H81 H 0.21613 0.87590 -0.17895
 H82 H 0.21548 0.82181 -0.12300
 H83 H 0.17937 0.78557 -0.12273
 H84 H 0.12667 0.78327 -0.17980
 C85 C 0.17114 1.15301 0.81077
 C86 C 0.18960 1.15328 0.82855
 C87 C 0.19021 1.17169 0.84578
 C88 C 0.17232 1.19002 0.84555
 C89 C 0.15418 1.18972 0.82810
 C90 C 0.15361 1.17106 0.81053
 C91 C 0.16643 1.13779 0.79138
 N92 N 0.14634 1.14605 0.77904
 C93 C 0.13849 1.16652 0.79099
 C94 C 0.13960 1.20975 0.83216
 N95 N 0.14830 1.22246 0.85182
 C96 C 0.16849 1.21020 0.85996
 C97 C 0.21027 1.16761 0.86036
 N98 N 0.22189 1.14710 0.85248
 C99 C 0.20924 1.13825 0.83298
 H100 H 0.17741 1.12207 0.78679
 H101 H 0.12310 1.17783 0.78606
 H102 H 0.12373 1.21425 0.82134
 H103 H 0.18005 1.21532 0.87510
 H104 H 0.21616 1.17914 0.87529
 H105 H 0.21376 1.12195 0.82279
 C106 C 0.82882 0.84536 0.80984
 C107 C 0.81108 0.84571 0.82835
 C108 C 0.81174 0.82848 0.84676
 C109 C 0.83009 0.81060 0.84687
 C110 C 0.84747 0.81026 0.82866
 C111 C 0.84685 0.82782 0.81000
 C112 C 0.83260 0.85972 0.78959
 N113 N 0.85264 0.85145 0.77717
 C114 C 0.86131 0.83176 0.78984
 C115 C 0.86253 0.79067 0.83307
 N116 N 0.85480 0.77877 0.85363
 C117 C 0.83482 0.79120 0.86206
 C118 C 0.79221 0.83300 0.86194
 N119 N 0.77959 0.85255 0.85319
 C120 C 0.79112 0.86038 0.83258
 H121 H 0.82123 0.87506 0.78468
 H122 H 0.87694 0.82069 0.78511
 H123 H 0.87779 0.78565 0.82160
 H124 H 0.82398 0.78670 0.87793
 H125 H 0.78774 0.82282 0.87828
 H126 H 0.78521 0.87532 0.82109
 C127 C 0.17354 0.84462 1.19090
 C128 C 0.19012 0.84597 1.17138
 C129 C 0.18889 0.82922 1.15255
 C130 C 0.17114 0.81077 1.15302
 C131 C 0.15503 0.80929 1.17246
 C132 C 0.15617 0.82646 1.19143
 C133 C 0.17028 0.85861 1.21150
 N134 N 0.15112 0.84958 1.22475
 C135 C 0.14260 0.82968 1.21232
 C136 C 0.14049 0.78919 1.16860
 N137 N 0.14730 0.77856 1.14723
 C138 C 0.16598 0.79168 1.13752
 C139 C 0.20750 0.83457 1.13651
 N140 N 0.22014 0.85412 1.14518
 C141 C 0.20949 0.86119 1.16653
 H142 H 0.18123 0.87437 1.21598
 H143 H 0.12751 0.81814 1.21757
 H144 H 0.12604 0.78275 1.18047
 H145 H 0.17549 0.78728 1.12073
 H146 H 0.21146 0.82481 1.11978
 H147 H 0.21576 0.87584 1.17819
 C148 C 0.82996 1.15334 1.18972
 C149 C 0.81098 1.15414 1.17250
 C150 C 0.81011 1.17277 1.15553
 C151 C 0.82827 1.19080 1.15544
 C152 C 0.84702 1.18993 1.17232
 C153 C 0.84780 1.17106 1.18965
 C154 C 0.83492 1.13784 1.20882
 N155 N 0.85544 1.14563 1.22073
 C156 C 0.86334 1.16606 1.20875
 C157 C 0.86186 1.20972 1.16799
 N158 N 0.85259 1.22264 1.14886
 C159 C 0.83197 1.21111 1.14116
 C160 C 0.78968 1.16909 1.14139
 N161 N 0.77809 1.14858 1.14927
 C162 C 0.79110 1.13938 1.16836
 H163 H 0.82370 1.12239 1.21367
 H164 H 0.87910 1.17698 1.21334
 H165 H 0.87839 1.21409 1.17790
 H166 H 0.82018 1.21716 1.12650
 H167 H 0.78360 1.18079 1.12667
 H168 H 0.78673 1.12293 1.17838
 N169 N 0.52650 1.04344 0.97428
 N170 N 0.54572 1.05779 0.97200
 N171 N 0.47517 1.02661 0.95698
 N172 N 0.45617 1.02917 0.94235
 N173 N 0.47501 1.04347 0.97403
 N174 N 0.45583 1.05786 0.97154
 N175 N 0.52660 1.02651 0.95731
 N176 N 0.54589 1.02889 0.94301
 C177 C 0.55762 1.04855 0.95234
 C178 C 0.44430 1.04879 0.95162
 N179 N 0.47502 0.95713 0.97403
 N180 N 0.45590 0.94270 0.97148
 N181 N 0.52660 0.97404 0.95737
 N182 N 0.54584 0.97159 0.94303
 N183 N 0.52645 0.95703 0.97426
 N184 N 0.54551 0.94247 0.97179
 N185 N 0.47511 0.97405 0.95704
 N186 N 0.45604 0.97158 0.94248
 Mn187 Mn 0.50087 1.00030 0.95686
 C188 C 0.44425 0.95188 0.95166
 C189 C 0.55743 0.95175 0.95218
 N190 N 0.47473 1.04354 1.02661
 N191 N 0.45573 1.05818 1.02913
 N192 N 0.52603 1.02658 1.04391
 N193 N 0.54491 1.02923 1.05868
 N194 N 0.52620 1.04343 1.02685
 N195 N 0.54526 1.05792 1.02948
 N196 N 0.47461 1.02661 1.04357
 N197 N 0.45554 1.02926 1.05809
 Mn198 Mn 0.50061 1.04378 1.00044
 C199 C 0.44394 1.04908 1.04891
 C200 C 0.55672 1.04891 1.04947
 N201 N 0.52615 0.95709 1.02691
 N202 N 0.54509 0.94244 1.02969
 N203 N 0.47454 0.97415 1.04352
 N204 N 0.45511 0.97195 1.05763
 N205 N 0.47472 0.95712 1.02664
 N206 N 0.45546 0.94281 1.02890
 N207 N 0.52603 0.97402 1.04389
 N208 N 0.54489 0.97134 1.05868
 Mn209 Mn 0.50059 0.95678 1.00046
 Mn210 Mn 0.50031 1.00033 1.04403
 Cl211 Cl 0.50060 1.00030 1.00045
 C212 C 0.55660 0.95151 1.04963
 C213 C 0.44343 0.95224 1.04837
 N214 N 0.02646 0.47429 0.04308
 N215 N 0.02887 0.45530 0.05773
 N216 N 0.04374 0.52539 0.02611
 N217 N 0.05836 0.54435 0.02872
 N218 N 0.02646 0.52570 0.04276
 N219 N 0.02873 0.54499 0.05702
 N220 N 0.04343 0.47405 0.02611
 N221 N 0.05776 0.45485 0.02868
 C222 C 0.04853 0.44336 0.04855
 C223 C 0.04879 0.55639 0.04812
 N224 N 0.02713 0.52546 -0.04355
 N225 N 0.02973 0.54457 -0.05799
 N226 N 0.04387 0.47396 -0.02648
 N227 N 0.05838 0.45488 -0.02896
 N228 N 0.02705 0.47406 -0.04358
 N229 N 0.02967 0.45505 -0.05815
 N230 N 0.04409 0.52532 -0.02658
 N231 N 0.05875 0.54427 -0.02910
 Mn232 Mn 0.04409 0.49967 -0.00020
 C233 C 0.04959 0.55609 -0.04882
 C234 C 0.04935 0.44327 -0.04885
 N235 N -0.02612 0.52574 0.04253
 N236 N -0.02875 0.54483 0.05701
 N237 N -0.04292 0.47430 0.02556
 N238 N -0.05749 0.45528 0.02810
 N239 N -0.02617 0.47444 0.04273
 N240 N -0.02895 0.45560 0.05748
 N241 N -0.04290 0.52576 0.02540
 N242 N -0.05733 0.54493 0.02768
 Mn243 Mn 0.00017 0.50005 0.04309
 C244 C -0.04834 0.55662 0.04756
 C245 C -0.04860 0.44382 0.04817
 N246 N -0.02548 0.47415 -0.04388
 N247 N -0.02781 0.45498 -0.05830
 N248 N -0.04254 0.52560 -0.02712
 N249 N -0.05687 0.54482 -0.02957
 N250 N -0.02545 0.52559 -0.04396
 N251 N -0.02770 0.54481 -0.05832
 N252 N -0.04262 0.47425 -0.02709
 N253 N -0.05716 0.45523 -0.02971
 Mn254 Mn 0.00081 0.49983 -0.04406
 Mn255 Mn -0.04306 0.49996 -0.00081
 Cl256 Cl 0.00050 0.49987 -0.00050
 C257 C -0.04773 0.44340 -0.04931
 C258 C -0.04746 0.55660 -0.04918
 N259 N 0.97447 0.04255 0.47416
 N260 N 0.97220 0.05685 0.45488
 N261 N 0.95726 0.02561 0.52555
 N262 N 0.94255 0.02818 0.54451
 N263 N 0.97416 0.04259 0.52563
 N264 N 0.97140 0.05718 0.54463
 N265 N 0.95758 0.02556 0.47406
 N266 N 0.94337 0.02783 0.45471
 C267 C 0.95264 0.04751 0.44295
 C268 C 0.95155 0.04801 0.55622
 N269 N 0.97445 -0.04380 0.52568
 N270 N 0.97179 -0.05838 0.54469
 N271 N 0.95774 -0.02694 0.47412
 N272 N 0.94344 -0.02941 0.45486
 N273 N 0.97476 -0.04384 0.47421
 N274 N 0.97250 -0.05824 0.45500
 N275 N 0.95743 -0.02691 0.52558
 N276 N 0.94272 -0.02955 0.54452
 Mn277 Mn 0.95719 -0.00067 0.49983
 C278 C 0.95187 -0.04931 0.55626
 C279 C 0.95281 -0.04907 0.44313
 N280 N 1.02676 0.04271 0.52592
 N281 N 1.02905 0.05711 0.54512
 N282 N 1.04404 0.02576 0.47452
 N283 N 1.05850 0.02815 0.45535
 N284 N 1.02705 0.04268 0.47444
 N285 N 1.02949 0.05703 0.45523
 N286 N 1.04377 0.02581 0.52600
 N287 N 1.05807 0.02825 0.54526
 Mn288 Mn 1.00061 0.04295 0.50004
 C289 C 1.04873 0.04792 0.55698
 C290 C 1.04926 0.04781 0.44352
 N291 N 1.02735 -0.04374 0.47453
 N292 N 1.03031 -0.05855 0.45574
 N293 N 1.04396 -0.02669 0.52603
 N294 N 1.05856 -0.02931 0.54504
 N295 N 1.02705 -0.04367 0.52598
 N296 N 1.02972 -0.05831 0.54496
 N297 N 1.04425 -0.02676 0.47458
 N298 N 1.05916 -0.02955 0.45582
 Mn299 Mn 1.00090 -0.04407 0.50010
 Mn300 Mn 1.04431 -0.00046 0.50028
 Cl301 Cl 1.00075 -0.00057 0.50007
 C302 C 1.05026 -0.04950 0.44424
 C303 C 1.04950 -0.04915 0.55667
 C304 C 1.11687 0.11549 0.28573
 C305 C 1.10645 0.13634 0.27516
 C306 C 1.11621 0.14641 0.25382
 C307 C 1.13683 0.13591 0.24225
 C308 C 1.14695 0.11469 0.25298
 C309 C 1.13714 0.10473 0.27434
 C310 C 1.10680 0.10514 0.30870
 C311 C 1.12251 0.09672 0.32718
 C312 C 1.11308 0.08723 0.34893
 C313 C 1.08771 0.08592 0.35270
 C314 C 1.07198 0.09427 0.33418
 C315 C 1.08142 0.10378 0.31243
 C316 C 1.07772 0.07602 0.37592
 C317 C 1.05745 0.08707 0.38721
 C318 C 1.04821 0.07790 0.40918
 C319 C 1.05905 0.05751 0.42032
 C320 C 1.07922 0.04638 0.40903
 C321 C 1.08847 0.05554 0.38706
 H322 H 1.09096 0.14523 0.28369
 H323 H 1.10747 0.16262 0.24688
 H324 H 1.16244 0.10538 0.24513
 H325 H 1.14534 0.08837 0.28184
 H326 H 1.14215 0.09789 0.32502
 H327 H 1.12568 0.08132 0.36300
 H328 H 1.05235 0.09315 0.33637
 H329 H 1.06885 0.10979 0.29839
 H330 H 1.04895 0.10305 0.37925
 H331 H 1.03262 0.08685 0.41748
 H332 H 1.08784 0.03054 0.41714
 H333 H 1.10388 0.04641 0.37864
 C334 C 0.88505 -0.11678 0.28543
 C335 C 0.89569 -0.13714 0.27412
 C336 C 0.88563 -0.14697 0.25282
 C337 C 0.86443 -0.13679 0.24207
 C338 C 0.85406 -0.11609 0.25356
 C339 C 0.86421 -0.10631 0.27484
 C340 C 0.89550 -0.10668 0.30835
 C341 C 0.89694 -0.08134 0.31200
 C342 C 0.90651 -0.07188 0.33370
 C343 C 0.91484 -0.08755 0.35227
 C344 C 0.91347 -0.11289 0.34857
 C345 C 0.90392 -0.12234 0.32687
 C346 C 0.92473 -0.07753 0.37547
 C347 C 0.94521 -0.08826 0.38668
 C348 C 0.95434 -0.07901 0.40866
 C349 C 0.94317 -0.05884 0.41990
 C350 C 0.92279 -0.04802 0.40869
 C351 C 0.91366 -0.05726 0.38670
 H352 H 0.91201 -0.14541 0.28166
 H353 H 0.89477 -0.16263 0.24514
 H354 H 0.83796 -0.10718 0.24651
 H355 H 0.85543 -0.09073 0.28329
 H356 H 0.89095 -0.06880 0.29792
 H357 H 0.90768 -0.05227 0.33583
 H358 H 0.91936 -0.12544 0.36268
 H359 H 0.90268 -0.14195 0.32478
 H360 H 0.95435 -0.10367 0.37830
 H361 H 0.97017 -0.08763 0.41682
 H362 H 0.91383 -0.03244 0.41694
 H363 H 0.89769 -0.04877 0.37869
 C364 C 0.88134 0.11780 0.71205
 C365 C 0.86091 0.10718 0.72326
 C366 C 0.85110 0.11707 0.74467
 C367 C 0.86140 0.13806 0.75565
 C368 C 0.88200 0.14858 0.74410
 C369 C 0.89176 0.13859 0.72272
 C370 C 0.89171 0.10728 0.68927
 C371 C 0.91714 0.10578 0.68595
 C372 C 0.92690 0.09601 0.66446
 C373 C 0.91146 0.08750 0.64579
 C374 C 0.88603 0.08895 0.64914
 C375 C 0.87627 0.09871 0.67063
 C376 C 0.92182 0.07728 0.62287
 C377 C 0.91128 0.05665 0.61183
 C378 C 0.92095 0.04713 0.59018
 C379 C 0.94134 0.05806 0.57911
 C380 C 0.95195 0.07861 0.59013
 C381 C 0.94229 0.08813 0.61178
 H382 H 0.85265 0.09093 0.71564
 H383 H 0.83544 0.10791 0.75232
 H384 H 0.89091 0.16461 0.75123
 H385 H 0.90734 0.14741 0.71431
 H386 H 0.92951 0.11186 0.70013
 H387 H 0.94656 0.09479 0.66260
 H388 H 0.87365 0.08291 0.63494
 H389 H 0.85661 0.09996 0.67248
 H390 H 0.89572 0.04767 0.62010
 H391 H 0.91248 0.03118 0.58215
 H392 H 0.96768 0.08741 0.58199
 H393 H 0.95064 0.10421 0.61966
 C394 C 1.12021 -0.11929 0.71203
 C395 C 1.11006 -0.14023 0.72266
 C396 C 1.11996 -0.15014 0.74401
 C397 C 1.14043 -0.13938 0.75555
 C398 C 1.15044 -0.11823 0.74462
 C399 C 1.14049 -0.10841 0.72325
 C400 C 1.10971 -0.10884 0.68929
 C401 C 1.12505 -0.10003 0.67068
 C402 C 1.11519 -0.09025 0.64926
 C403 C 1.08975 -0.08904 0.64594
 C404 C 1.07440 -0.09784 0.66456
 C405 C 1.08426 -0.10763 0.68598
 C406 C 1.07929 -0.07870 0.62313
 C407 C 1.05890 -0.08960 0.61196
 C408 C 1.04919 -0.07998 0.59038
 C409 C 1.05968 -0.05928 0.57952
 C410 C 1.07997 -0.04828 0.59070
 C411 C 1.08968 -0.05790 0.61227
 H412 H 1.09459 -0.14923 0.71425
 H413 H 1.11129 -0.16633 0.75109
 H414 H 1.16595 -0.10884 0.75230
 H415 H 1.14853 -0.09203 0.71567
 H416 H 1.14473 -0.10106 0.67251
 H417 H 1.12751 -0.08399 0.63509
 H418 H 1.05472 -0.09682 0.66272
 H419 H 1.07196 -0.11393 0.70014
 H420 H 1.05066 -0.10581 0.61971
 H421 H 1.03353 -0.08883 0.58215
 H422 H 1.08834 -0.03221 0.58281
 H423 H 1.10517 -0.04887 0.62062
 C424 C 0.28800 1.11892 1.11872
 C425 C 0.27728 1.13980 1.10851
 C426 C 0.25584 1.14960 1.11835
 C427 C 0.24430 1.13878 1.13881
 C428 C 0.25533 1.11769 1.14887
 C429 C 0.27678 1.10799 1.13898
 C430 C 0.31086 1.10860 1.10832
 C431 C 0.32944 1.09992 1.12376
 C432 C 0.35094 1.09020 1.11400
 C433 C 0.35436 1.08891 1.08857
 C434 C 0.33578 1.09761 1.07312
 C435 C 0.31427 1.10735 1.08288
 C436 C 0.37724 1.07858 1.07823
 C437 C 0.38848 1.08944 1.05785
 C438 C 0.41015 1.07984 1.04829
 C439 C 0.42100 1.05919 1.05892
 C440 C 0.40973 1.04823 1.07919
 C441 C 0.38808 1.05782 1.08875
 H442 H 0.28568 1.14884 1.09305
 H443 H 0.24868 1.16574 1.10965
 H444 H 0.24767 1.10826 1.16437
 H445 H 0.28445 1.09165 1.14707
 H446 H 0.32753 1.10100 1.14343
 H447 H 0.36508 1.08403 1.12639
 H448 H 0.33770 1.09653 1.05345
 H449 H 0.30013 1.11355 1.07051
 H450 H 0.38074 1.10560 1.04950
 H451 H 0.41844 1.08865 1.03264
 H452 H 0.41762 1.03219 1.08766
 H453 H 0.37967 1.04882 1.10423
 C454 C 0.28737 0.88314 0.88317
 C455 C 0.27675 0.89329 0.86219
 C456 C 0.25545 0.88337 0.85223
 C457 C 0.24398 0.86285 0.86294
 C458 C 0.25477 0.85299 0.88427
 C459 C 0.27609 0.86296 0.89413
 C460 C 0.31028 0.89342 0.89346
 C461 C 0.32881 0.87790 0.90211
 C462 C 0.35044 0.88751 0.91164
 C463 C 0.35405 0.91287 0.91276
 C464 C 0.33551 0.92841 0.90413
 C465 C 0.31387 0.91879 0.89457
 C466 C 0.37709 0.92304 0.92284
 C467 C 0.38841 0.94324 0.91176
 C468 C 0.41023 0.95263 0.92112
 C469 C 0.42119 0.94200 0.94175
 C470 C 0.40986 0.92191 0.95291
 C471 C 0.38805 0.91252 0.94356
 H472 H 0.28518 0.90872 0.85315
 H473 H 0.24841 0.89199 0.83597
 H474 H 0.24708 0.83753 0.89369
 H475 H 0.28365 0.85495 0.91058
 H476 H 0.32676 0.85827 0.90112
 H477 H 0.36453 0.87505 0.91776
 H478 H 0.33758 0.94803 0.90508
 H479 H 0.29979 0.93122 0.88838
 H480 H 0.38058 0.95157 0.89561
 H481 H 0.41857 0.96814 0.91215
 H482 H 0.41782 0.91345 0.96894
 H483 H 0.37960 0.89719 0.95273
 C484 C 0.71208 0.88127 1.11999
 C485 C 0.72331 0.86109 1.10894
 C486 C 0.74481 0.85123 1.11855
 C487 C 0.75586 0.86123 1.13968
 C488 C 0.74430 0.88159 1.15063
 C489 C 0.72282 0.89140 1.14091
 C490 C 0.68922 0.89168 1.10971
 C491 C 0.68580 0.91708 1.10853
 C492 C 0.66432 0.92686 1.09877
 C493 C 0.64576 0.91147 1.08999
 C494 C 0.64916 0.88607 1.09123
 C495 C 0.67064 0.87630 1.10097
 C496 C 0.62293 0.92183 1.07959
 C497 C 0.61216 0.91137 1.05874
 C498 C 0.59061 0.92103 1.04902
 C499 C 0.57938 0.94133 1.05993
 C500 C 0.59013 0.95186 1.08070
 C501 C 0.61168 0.94221 1.09043
 H502 H 0.71566 0.85308 1.09255
 H503 H 0.75256 0.83587 1.10897
 H504 H 0.75141 0.89016 1.16688
 H505 H 0.71438 0.90678 1.15006
 H506 H 0.69993 0.92941 1.11477
 H507 H 0.66241 0.94650 1.09773
 H508 H 0.63503 0.87373 1.08501
 H509 H 0.67256 0.85666 1.10200
 H510 H 0.62057 0.89589 1.04975
 H511 H 0.58280 0.91262 1.03290
 H512 H 0.58185 0.96753 1.08949
 H513 H 0.61936 0.95050 1.10667
 C514 C 0.71523 1.11630 0.88449
 C515 C 0.72580 1.10592 0.86358
 C516 C 0.74706 1.11573 0.85342
 C517 C 0.75856 1.13637 0.86387
 C518 C 0.74783 1.14645 0.88514
 C519 C 0.72655 1.13659 0.89519
 C520 C 0.69232 1.10617 0.89493
 C521 C 0.67381 1.12181 0.90343
 C522 C 0.65213 1.11233 0.91299
 C523 C 0.64845 1.08699 0.91429
 C524 C 0.66700 1.07134 0.90587
 C525 C 0.68868 1.08082 0.89629
 C526 C 0.62527 1.07695 0.92422
 C527 C 0.61402 1.05673 0.91313
 C528 C 0.59205 1.04749 0.92228
 C529 C 0.58087 1.05828 0.94271
 C530 C 0.59213 1.07839 0.95391
 C531 C 0.61410 1.08763 0.94476
 H532 H 0.71734 1.09039 0.85473
 H533 H 0.75407 1.10692 0.83725
 H534 H 0.75554 1.16204 0.89436
 H535 H 0.71903 1.14478 0.91157
 H536 H 0.67590 1.14142 0.90226
 H537 H 0.63804 1.12487 0.91895
 H538 H 0.66487 1.05173 0.90698
 H539 H 0.70275 1.06830 0.89023
 H540 H 0.62200 1.04828 0.89711
 H541 H 0.58377 1.03196 0.91329
 H542 H 0.58400 1.08697 0.96979
 H543 H 0.62249 1.10300 0.95393
 C544 C 0.11668 0.28657 0.11761
 C545 C 0.13211 0.27168 0.10353
 C546 C 0.14190 0.25025 0.11333
 C547 C 0.13668 0.24332 0.13755
 C548 C 0.12118 0.25831 0.15159
 C549 C 0.11121 0.27961 0.14169
 C550 C 0.10649 0.30941 0.10727
 C551 C 0.08175 0.31536 0.11062
 C552 C 0.07218 0.33692 0.10090
 C553 C 0.08720 0.35315 0.08781
 C554 C 0.11200 0.34716 0.08458
 C555 C 0.12149 0.32548 0.09409
 C556 C 0.07711 0.37624 0.07765
 C557 C 0.08527 0.38522 0.05498
 C558 C 0.07605 0.40708 0.04560
 C559 C 0.05830 0.42032 0.05855
 C560 C 0.04993 0.41132 0.08106
 C561 C 0.05932 0.38958 0.09057
 H562 H 0.13636 0.27647 0.08480
 H563 H 0.15334 0.23903 0.10178
 H564 H 0.11704 0.25389 0.17040
 H565 H 0.09960 0.29093 0.15303
 H566 H 0.06973 0.30312 0.12046
 H567 H 0.05292 0.34071 0.10336
 H568 H 0.12421 0.35942 0.07503
 H569 H 0.14071 0.32148 0.09154
 H570 H 0.09859 0.37522 0.04431
 H571 H 0.08266 0.41349 0.02808
 H572 H 0.03631 0.42122 0.09146
 H573 H 0.05290 0.38344 0.10825
 C574 C -0.11637 0.28664 -0.11779
 C575 C -0.10246 0.27168 -0.13331
 C576 C -0.11240 0.25028 -0.14300
 C577 C -0.13661 0.24346 -0.13762
 C578 C -0.15050 0.25856 -0.12209
 C579 C -0.14045 0.27982 -0.11221
 C580 C -0.10587 0.30938 -0.10758
 C581 C -0.10915 0.31527 -0.08282
 C582 C -0.09940 0.33679 -0.07322
 C583 C -0.08635 0.35305 -0.08824
 C584 C -0.08310 0.34708 -0.11304
 C585 C -0.09265 0.32544 -0.12257
 C586 C -0.07634 0.37619 -0.07813
 C587 C -0.05371 0.38531 -0.08623
 C588 C -0.04448 0.40720 -0.07695
 C589 C -0.05755 0.42034 -0.05921
 C590 C -0.08003 0.41122 -0.05094
 C591 C -0.08939 0.38945 -0.06038
 H592 H -0.08373 0.27637 -0.13765
 H593 H -0.10096 0.23898 -0.15448
 H594 H -0.16929 0.25424 -0.11784
 H595 H -0.15169 0.29120 -0.10055
 H596 H -0.11900 0.30304 -0.07079
 H597 H -0.10186 0.34055 -0.05395
 H598 H -0.07355 0.35935 -0.12525
 H599 H -0.09012 0.32147 -0.14180
 H600 H -0.04296 0.37539 -0.09954
 H601 H -0.02698 0.41372 -0.08350
 H602 H -0.09053 0.42103 -0.03732
 H603 H -0.10704 0.38321 -0.05401
 C604 C 0.11908 0.71247 -0.11738
 C605 C 0.14318 0.71931 -0.11192
 C606 C 0.15317 0.74055 -0.12189
 C607 C 0.13921 0.75561 -0.13737
 C608 C 0.11497 0.74879 -0.14259
 C609 C 0.10508 0.72742 -0.13281
 C610 C 0.10863 0.68971 -0.10715
 C611 C 0.09534 0.67369 -0.12212
 C612 C 0.08573 0.65208 -0.11258
 C613 C 0.08898 0.64610 -0.08778
 C614 C 0.10215 0.66229 -0.07279
 C615 C 0.11196 0.68379 -0.08240
 C616 C 0.07879 0.62305 -0.07765
 C617 C 0.09171 0.60970 -0.05987
 C618 C 0.08216 0.58802 -0.05042
 C619 C 0.05962 0.57907 -0.05871
 C620 C 0.04668 0.59229 -0.07646
 C621 C 0.05609 0.61410 -0.08574
 H622 H 0.15447 0.70793 -0.10032
 H623 H 0.17199 0.74489 -0.11775
 H624 H 0.10347 0.76007 -0.15401
 H625 H 0.08633 0.72272 -0.13704
 H626 H 0.09279 0.67767 -0.14134
 H627 H 0.07611 0.63985 -0.12477
 H628 H 0.10462 0.65853 -0.05353
 H629 H 0.12187 0.69598 -0.07040
 H630 H 0.10940 0.61581 -0.05350
 H631 H 0.09256 0.57813 -0.03680
 H632 H 0.02914 0.58591 -0.08302
 H633 H 0.04543 0.62410 -0.09906
 C634 C -0.11694 0.71335 0.11638
 C635 C -0.11127 0.72015 0.14045
 C636 C -0.12122 0.74134 0.15062
 C637 C -0.13690 0.75638 0.13686
 C638 C -0.14236 0.74959 0.11266
 C639 C -0.13260 0.72826 0.10259
 C640 C -0.10668 0.69067 0.10576
 C641 C -0.12167 0.67457 0.09259
 C642 C -0.11212 0.65296 0.08296
 C643 C -0.08729 0.64706 0.08609
 C644 C -0.07227 0.66336 0.09907
 C645 C -0.08189 0.68486 0.10890
 C646 C -0.07716 0.62391 0.07607
 C647 C -0.05933 0.61073 0.08907
 C648 C -0.04989 0.58894 0.07973
 C649 C -0.05825 0.57971 0.05732
 C650 C -0.07605 0.59277 0.04429
 C651 C -0.08533 0.61469 0.05350
 H652 H -0.09950 0.70880 0.15159
 H653 H -0.11689 0.74564 0.16941
 H654 H -0.15396 0.76085 0.10132
 H655 H -0.13702 0.72359 0.08387
 H656 H -0.14092 0.67848 0.09017
 H657 H -0.12432 0.64065 0.07347
 H658 H -0.05298 0.65966 0.10143
 H659 H -0.06987 0.69712 0.11870
 H660 H -0.05290 0.61704 0.10668
 H661 H -0.03621 0.57920 0.09020
 H662 H -0.08267 0.58617 0.02684
 H663 H -0.09871 0.62455 0.04278
 C664 C 1.11620 0.11578 0.71474
 C665 C 1.13638 0.10486 0.72611
 C666 C 1.14625 0.11470 0.74748
 C667 C 1.13628 0.13598 0.75826
 C668 C 1.11574 0.14664 0.74672
 C669 C 1.10591 0.13668 0.72536
 C670 C 1.10609 0.10555 0.69173
 C671 C 1.08071 0.10436 0.68796
 C672 C 1.07126 0.09486 0.66621
 C673 C 1.08698 0.08637 0.64774
 C674 C 1.11235 0.08757 0.65153
 C675 C 1.12179 0.09704 0.67326
 C676 C 1.07700 0.07638 0.62456
 C677 C 1.08770 0.05580 0.61355
 C678 C 1.07850 0.04656 0.59161
 C679 C 1.05841 0.05770 0.58020
 C680 C 1.04759 0.07818 0.59121
 C681 C 1.05679 0.08743 0.61317
 H682 H 1.14448 0.08847 0.71856
 H683 H 1.16173 0.10531 0.75523
 H684 H 1.10703 0.16284 0.75375
 H685 H 1.09047 0.14569 0.71687
 H686 H 1.06815 0.11045 0.70198
 H687 H 1.05163 0.09384 0.66400
 H688 H 1.12495 0.08156 0.63749
 H689 H 1.14143 0.09810 0.67545
 H690 H 1.10305 0.04666 0.62206
 H691 H 1.08710 0.03064 0.58360
 H692 H 1.03207 0.08713 0.58282
 H693 H 1.04833 0.10348 0.62103
 C694 C 0.88209 -0.11902 0.71219
 C695 C 0.89305 -0.13923 0.72345
 C696 C 0.88336 -0.14902 0.74495
 C697 C 0.86225 -0.13892 0.75597
 C698 C 0.85139 -0.11853 0.74437
 C699 C 0.86118 -0.10879 0.72290
 C700 C 0.89240 -0.10869 0.68932
 C701 C 0.89367 -0.08331 0.68589
 C702 C 0.90338 -0.07360 0.66436
 C703 C 0.91203 -0.08906 0.64576
 C704 C 0.91075 -0.11444 0.64919
 C705 C 0.90106 -0.12414 0.67072
 C706 C 0.92232 -0.07877 0.62285
 C707 C 0.94311 -0.08925 0.61199
 C708 C 0.95271 -0.07967 0.59036
 C709 C 0.94171 -0.05941 0.57913
 C710 C 0.92100 -0.04885 0.58998
 C711 C 0.91139 -0.05843 0.61162
 H712 H 0.90940 -0.14733 0.71580
 H713 H 0.89281 -0.16447 0.75266
 H714 H 0.83523 -0.10981 0.75151
 H715 H 0.85212 -0.09337 0.71445
 H716 H 0.88750 -0.07093 0.70004
 H717 H 0.90447 -0.05397 0.66242
 H718 H 0.91689 -0.12683 0.63504
 H719 H 0.89997 -0.14378 0.67266
 H720 H 0.95215 -0.10470 0.62039
 H721 H 0.96879 -0.08809 0.58247
 H722 H 0.91214 -0.03322 0.58171
 H723 H 0.89519 -0.05012 0.61938
 C724 C 1.12214 -0.12108 0.29005
 C725 C 1.14251 -0.11037 0.27882
 C726 C 1.15223 -0.12012 0.25731
 C727 C 1.14187 -0.14103 0.24622
 C728 C 1.12147 -0.15177 0.25793
 C729 C 1.11181 -0.14192 0.27941
 C730 C 1.11160 -0.11047 0.31270
 C731 C 1.08614 -0.10898 0.31579
 C732 C 1.07619 -0.09900 0.33708
 C733 C 1.09146 -0.09027 0.35578
 C734 C 1.11692 -0.09172 0.35268
 C735 C 1.12688 -0.10169 0.33138
 C736 C 1.08086 -0.07976 0.37846
 C737 C 1.09124 -0.05894 0.38929
 C738 C 1.08129 -0.04909 0.41066
 C739 C 1.06078 -0.05988 0.42165
 C740 C 1.05035 -0.08064 0.41084
 C741 C 1.06029 -0.09048 0.38947
 H742 H 1.15075 -0.09411 0.28646
 H743 H 1.16782 -0.11087 0.24961
 H744 H 1.11258 -0.16780 0.25078
 H745 H 1.09630 -0.15082 0.28786
 H746 H 1.07390 -0.11521 0.30156
 H747 H 1.05651 -0.09777 0.33875
 H748 H 1.12916 -0.08549 0.36691
 H749 H 1.14655 -0.10291 0.32969
 H750 H 1.10688 -0.05006 0.38106
 H751 H 1.08962 -0.03299 0.41853
 H752 H 1.03454 -0.08935 0.41894
 H753 H 1.05207 -0.10671 0.38175
 C754 C 0.88597 0.11475 0.28455
 C755 C 0.86605 0.10367 0.27291
 C756 C 0.85611 0.11368 0.25164
 C757 C 0.86572 0.13530 0.24127
 C758 C 0.88609 0.14605 0.25301
 C759 C 0.89599 0.13592 0.27426
 C760 C 0.89600 0.10445 0.30757
 C761 C 0.92135 0.10355 0.31159
 C762 C 0.93071 0.09406 0.33338
 C763 C 0.91493 0.08530 0.35166
 C764 C 0.88959 0.08617 0.34761
 C765 C 0.88024 0.09562 0.32582
 C766 C 0.92481 0.07543 0.37495
 C767 C 0.91425 0.05475 0.38588
 C768 C 0.92330 0.04568 0.40797
 C769 C 0.94310 0.05709 0.41959
 C770 C 0.95378 0.07766 0.40865
 C771 C 0.94472 0.08675 0.38656
 H772 H 0.85820 0.08705 0.28017
 H773 H 0.84090 0.10411 0.24360
 H774 H 0.89447 0.16254 0.24631
 H775 H 0.91123 0.14504 0.28297
 H776 H 0.93397 0.10989 0.29773
 H777 H 0.95034 0.09329 0.33580
 H778 H 0.87693 0.07996 0.36149
 H779 H 0.86061 0.09645 0.32344
 H780 H 0.89913 0.04540 0.37721
 H781 H 0.91482 0.02968 0.41591
 H782 H 0.96907 0.08682 0.41721
 H783 H 0.95306 0.10288 0.37877
 C784 C 0.11873 0.28720 -0.11840
 C785 C 0.13886 0.27580 -0.10742
 C786 C 0.14865 0.25437 -0.11721
 C787 C 0.13863 0.24357 -0.13845
 C788 C 0.11830 0.25528 -0.14931
 C789 C 0.10856 0.27669 -0.13942
 C790 C 0.10842 0.31003 -0.10799
 C791 C 0.08301 0.31359 -0.10683
 C792 C 0.07333 0.33509 -0.09707
 C793 C 0.08884 0.35353 -0.08826
 C794 C 0.11425 0.34996 -0.08940
 C795 C 0.12393 0.32845 -0.09914
 C796 C 0.07858 0.37646 -0.07802
 C797 C 0.08902 0.38728 -0.05720
 C798 C 0.07950 0.40898 -0.04770
 C799 C 0.05936 0.42031 -0.05884
 C800 C 0.04882 0.40948 -0.07957
 C801 C 0.05833 0.38778 -0.08907
 H802 H 0.14689 0.28328 -0.09096
 H803 H 0.16397 0.24647 -0.10767
 H804 H 0.10973 0.24836 -0.16565
 H805 H 0.09321 0.28526 -0.14852
 H806 H 0.07059 0.29957 -0.11315
 H807 H 0.05367 0.33713 -0.09609
 H808 H 0.12669 0.36398 -0.08314
 H809 H 0.14359 0.32641 -0.10013
 H810 H 0.10439 0.37882 -0.04806
 H811 H 0.08789 0.41685 -0.03161
 H812 H 0.03327 0.41782 -0.08852
 H813 H 0.05006 0.38007 -0.10529
 C814 C -0.11755 0.28798 0.11846
 C815 C -0.13322 0.27319 0.10459
 C816 C -0.14285 0.25174 0.11447
 C817 C -0.13723 0.24469 0.13857
 C818 C -0.12155 0.25961 0.15242
 C819 C -0.11174 0.28094 0.14244
 C820 C -0.10736 0.31074 0.10796
 C821 C -0.08256 0.31652 0.11102
 C822 C -0.07295 0.33797 0.10109
 C823 C -0.08800 0.35424 0.08808
 C824 C -0.11285 0.34842 0.08510
 C825 C -0.12239 0.32686 0.09484
 C826 C -0.07784 0.37723 0.07776
 C827 C -0.08603 0.38619 0.05509
 C828 C -0.07663 0.40789 0.04553
 C829 C -0.05869 0.42099 0.05832
 C830 C -0.05036 0.41204 0.08086
 C831 C -0.05991 0.39046 0.09054
 H832 H -0.13773 0.27803 0.08594
 H833 H -0.15444 0.24057 0.10305
 H834 H -0.11710 0.25508 0.17113
 H835 H -0.09993 0.29219 0.15363
 H836 H -0.07050 0.30424 0.12078
 H837 H -0.05365 0.34162 0.10335
 H838 H -0.12507 0.36072 0.07559
 H839 H -0.14165 0.32299 0.09248
 H840 H -0.09949 0.37627 0.04455
 H841 H -0.08324 0.41429 0.02800
 H842 H -0.03660 0.42183 0.09115
 H843 H -0.05347 0.38435 0.10821
 C844 C -0.11500 0.71444 -0.11636
 C845 C -0.13532 0.72562 -0.10549
 C846 C -0.14522 0.74700 -0.11525
 C847 C -0.13514 0.75797 -0.13638
 C848 C -0.11445 0.74662 -0.14699
 C849 C -0.10461 0.72525 -0.13712
 C850 C -0.10486 0.69142 -0.10623
 C851 C -0.07948 0.68773 -0.10487
 C852 C -0.06999 0.66598 -0.09548
 C853 C -0.08569 0.64742 -0.08725
 C854 C -0.11107 0.65112 -0.08861
 C855 C -0.12054 0.67286 -0.09799
 C856 C -0.07568 0.62424 -0.07735
 C857 C -0.08647 0.61310 -0.05687
 C858 C -0.07728 0.59114 -0.04773
 C859 C -0.05711 0.57984 -0.05887
 C860 C -0.04619 0.59099 -0.07923
 C861 C -0.05538 0.61297 -0.08838
 H862 H -0.14352 0.71791 -0.08921
 H863 H -0.16085 0.75458 -0.10594
 H864 H -0.10561 0.75383 -0.16305
 H865 H -0.08905 0.71691 -0.14608
 H866 H -0.06693 0.70183 -0.11076
 H867 H -0.05036 0.66382 -0.09433
 H868 H -0.12364 0.63701 -0.08281
 H869 H -0.14018 0.67498 -0.09918
 H870 H -0.10188 0.62151 -0.04774
 H871 H -0.08595 0.58303 -0.03190
 H872 H -0.03060 0.58268 -0.08816
 H873 H -0.04684 0.62095 -0.10434
 C874 C 0.11702 0.71353 0.11704
 C875 C 0.12089 0.71573 0.14239
 C876 C 0.13054 0.73715 0.15228
 C877 C 0.13700 0.75670 0.13704
 C878 C 0.13341 0.75456 0.11175
 C879 C 0.12331 0.73332 0.10186
 C880 C 0.10660 0.69070 0.10652
 C881 C 0.11397 0.68230 0.08336
 C882 C 0.10427 0.66084 0.07358
 C883 C 0.08723 0.64692 0.08686
 C884 C 0.07992 0.65528 0.11005
 C885 C 0.08930 0.67696 0.11964
 C886 C 0.07727 0.62373 0.07668
 C887 C 0.05313 0.61646 0.08181
 C888 C 0.04398 0.59447 0.07271
 C889 C 0.05856 0.57948 0.05789
 C890 C 0.08250 0.58678 0.05241
 C891 C 0.09184 0.60854 0.06189
 H892 H 0.11685 0.70076 0.15463
 H893 H 0.13349 0.73829 0.17181
 H894 H 0.13802 0.76954 0.09971
 H895 H 0.12016 0.73257 0.08235
 H896 H 0.12751 0.69213 0.07283
 H897 H 0.11007 0.65527 0.05551
 H898 H 0.06715 0.64495 0.12102
 H899 H 0.08282 0.68299 0.13733
 H900 H 0.04114 0.62786 0.09264
 H901 H 0.02534 0.58936 0.07698
 H902 H 0.09416 0.57545 0.04112
 H903 H 0.11064 0.61321 0.05790
 C904 C 0.28723 1.11694 0.88281
 C905 C 0.28030 1.11141 0.85874
 C906 C 0.25896 1.12130 0.84880
 C907 C 0.24390 1.13677 0.86279
 C908 C 0.25082 1.14206 0.88699
 C909 C 0.27229 1.13236 0.89683
 C910 C 0.31008 1.10677 0.89320
 C911 C 0.32617 1.12177 0.90636
 C912 C 0.34789 1.11230 0.91588
 C913 C 0.35389 1.08754 0.91265
 C914 C 0.33763 1.07252 0.89961
 C915 C 0.31603 1.08207 0.88989
 C916 C 0.37705 1.07747 0.92273
 C917 C 0.39037 1.05972 0.90976
 C918 C 0.41216 1.05032 0.91920
 C919 C 0.42123 1.05864 0.94169
 C920 C 0.40803 1.07637 0.95469
 C921 C 0.38613 1.08561 0.94537
 H922 H 0.29167 1.09981 0.84743
 H923 H 0.25455 1.11711 0.83000
 H924 H 0.23954 1.15348 0.89851
 H925 H 0.27706 1.13665 0.91556
 H926 H 0.32217 1.14096 0.90889
 H927 H 0.36017 1.12450 0.92540
 H928 H 0.34142 1.05328 0.89717
 H929 H 0.30377 1.07005 0.88007
 H930 H 0.38417 1.05332 0.89210
 H931 H 0.42202 1.03671 0.90876
 H932 H 0.41451 1.08295 0.97219
 H933 H 0.37615 1.09891 0.95608
 C934 C 0.28459 0.88536 1.11414
 C935 C 0.27760 0.86145 1.10817
 C936 C 0.25644 0.85127 1.11819
 C937 C 0.24165 0.86485 1.13427
 C938 C 0.24851 0.88895 1.13988
 C939 C 0.26980 0.89903 1.13002
 C940 C 0.30749 0.89582 1.10417
 C941 C 0.32364 0.90856 1.11949
 C942 C 0.34553 0.91790 1.11029
 C943 C 0.35168 0.91492 1.08549
 C944 C 0.33533 0.90238 1.07014
 C945 C 0.31354 0.89284 1.07941
 C946 C 0.37515 0.92463 1.07579
 C947 C 0.38844 0.91156 1.05807
 C948 C 0.41057 0.92058 1.04909
 C949 C 0.42001 0.94274 1.05780
 C950 C 0.40682 0.95584 1.07548
 C951 C 0.38458 0.94694 1.08430
 H952 H 0.28885 0.85040 1.09621
 H953 H 0.25205 0.83257 1.11373
 H954 H 0.23740 0.90015 1.15177
 H955 H 0.27460 0.91764 1.13465
 H956 H 0.31957 0.91082 1.13873
 H957 H 0.35787 0.92705 1.12274
 H958 H 0.33925 0.90014 1.05087
 H959 H 0.30126 0.88335 1.06715
 H960 H 0.38195 0.89414 1.05138
 H961 H 0.42041 0.91009 1.03550
 H962 H 0.41358 0.97309 1.08235
 H963 H 0.37465 0.95770 1.09760
 C964 C 0.71255 1.11853 1.11938
 C965 C 0.71969 1.11291 1.14337
 C966 C 0.74106 1.12282 1.15319
 C967 C 0.75593 1.13841 1.13916
 C968 C 0.74876 1.14387 1.11507
 C969 C 0.72726 1.13414 1.10535
 C970 C 0.68977 1.10819 1.10904
 C971 C 0.67351 1.12306 1.09590
 C972 C 0.65196 1.11337 1.08626
 C973 C 0.64628 1.08853 1.08934
 C974 C 0.66268 1.07366 1.10241
 C975 C 0.68412 1.08341 1.11224
 C976 C 0.62335 1.07822 1.07903
 C977 C 0.61015 1.06028 1.09184
 C978 C 0.58857 1.05067 1.08217
 C979 C 0.57960 1.05894 1.05962
 C980 C 0.59269 1.07685 1.04679
 C981 C 0.61439 1.08631 1.05633
 H982 H 0.70850 1.10117 1.15469
 H983 H 0.74568 1.11851 1.17191
 H984 H 0.75988 1.15539 1.10353
 H985 H 0.72233 1.13851 1.08668
 H986 H 0.67728 1.14230 1.09345
 H987 H 0.63956 1.12547 1.07672
 H988 H 0.65913 1.05437 1.10476
 H989 H 0.69650 1.07149 1.12203
 H990 H 0.61629 1.05391 1.10953
 H991 H 0.57879 1.03692 1.09248
 H992 H 0.58629 1.08340 1.02924
 H993 H 0.62429 1.09975 1.04576
 C994 C 0.71445 0.88299 0.88371
 C995 C 0.72936 0.89697 0.86824
 C996 C 0.75078 0.88709 0.85842
 C997 C 0.75766 0.86290 0.86365
 C998 C 0.74263 0.84895 0.87917
 C999 C 0.72135 0.85893 0.88917
 C1000 C 0.69164 0.89340 0.89396
 C1001 C 0.68573 0.89005 0.91871
 C1002 C 0.66415 0.89977 0.92834
 C1003 C 0.64788 0.91286 0.91335
 C1004 C 0.65384 0.91613 0.88855
 C1005 C 0.67553 0.90661 0.87900
 C1006 C 0.62473 0.92294 0.92349
 C1007 C 0.61567 0.94558 0.91541
 C1008 C 0.59376 0.95488 0.92466
 C1009 C 0.58054 0.94187 0.94236
 C1010 C 0.58962 0.91939 0.95066
 C1011 C 0.61142 0.90997 0.94124
 H1012 H 0.72461 0.91568 0.86399
 H1013 H 0.76203 0.89857 0.84696
 H1014 H 0.74701 0.83017 0.88331
 H1015 H 0.71000 0.84766 0.90080
 H1016 H 0.69799 0.88019 0.93071
 H1017 H 0.66039 0.89729 0.94760
 H1018 H 0.64154 0.92570 0.87637
 H1019 H 0.67950 0.90917 0.85978
 H1020 H 0.62565 0.95629 0.90211
 H1021 H 0.58728 0.97237 0.91811
 H1022 H 0.57975 0.90895 0.96425
 H1023 H 0.61762 0.89232 0.94760
   
