data_POSCAR
  _audit_creation_date              2014-09-24
  _audit_creation_method            'ToBaCCo'
  _symmetry_space_group_name_H-M    'P1'
  _symmetry_Int_Tables_number       1
  _symmetry_cell_setting            triclinic
  loop_
  _symmetry_equiv_pos_as_xyz
 x,y,z
_cell_length_a 41.0680
_cell_length_b 42.8502
_cell_length_c 38.9001
_cell_angle_alpha 92.353100
_cell_angle_beta 88.201000
_cell_angle_gamma 92.842000
loop_
  _atom_site_label
  _atom_site_type_symbol
  _atom_site_fract_x
  _atom_site_fract_y
  _atom_site_fract_z
C1 C 0.17336 0.22122 0.20748
 C2 C 0.17703 0.24438 0.18291
 C3 C 0.20241 0.24349 0.15846
 C4 C 0.22444 0.21945 0.15829
 C5 C 0.22084 0.19684 0.18272
 C6 C 0.19532 0.19772 0.20729
 C7 C 0.15012 0.21486 0.23309
 N8 N 0.15795 0.18825 0.24799
 C9 C 0.18538 0.17759 0.23250
 C10 C 0.24427 0.17556 0.17575
 N11 N 0.26195 0.18470 0.14772
 C12 C 0.25025 0.21143 0.13660
 C13 C 0.19906 0.26787 0.13704
 N14 N 0.17250 0.28338 0.14805
 C15 C 0.15874 0.26931 0.17588
 H16 H 0.12887 0.22808 0.23979
 H17 H 0.19678 0.15630 0.23858
 H18 H 0.24769 0.15452 0.18948
 H19 H 0.25925 0.22359 0.11409
 H20 H 0.21430 0.27352 0.11472
 H21 H 0.13669 0.27630 0.18945
 C22 C -0.20426 0.77700 0.23671
 C23 C -0.20468 0.75367 0.21023
 C24 C -0.22732 0.75402 0.18448
 C25 C -0.24976 0.77770 0.18485
 C26 C -0.24943 0.80047 0.21115
 C27 C -0.22671 0.80010 0.23711
 C28 C -0.18309 0.78465 0.26301
 N29 N -0.19258 0.81158 0.27900
 C30 C -0.21905 0.82127 0.26344
 C31 C -0.27147 0.82207 0.20356
 N32 N -0.28509 0.81291 0.17338
 C33 C -0.27214 0.78591 0.16147
 C34 C -0.22055 0.73017 0.16094
 N35 N -0.19461 0.71543 0.17192
 C36 C -0.18454 0.72955 0.20181
 H37 H -0.16159 0.77248 0.26892
 H38 H -0.23081 0.84295 0.26967
 H39 H -0.27613 0.84360 0.21806
 H40 H -0.27746 0.77401 0.13704
 H41 H -0.23288 0.72452 0.13712
 H42 H -0.16356 0.72330 0.21576
 C43 C -0.22089 0.23498 -0.26874
 C44 C -0.22288 0.25922 -0.24344
 C45 C -0.24899 0.25935 -0.21990
 C46 C -0.27340 0.23527 -0.22136
 C47 C -0.27154 0.21159 -0.24657
 C48 C -0.24524 0.21144 -0.27030
 C49 C -0.19620 0.22620 -0.29152
 N50 N -0.20538 0.19819 -0.30661
 C51 C -0.23514 0.18889 -0.29386
 C52 C -0.29540 0.18907 -0.23899
 N53 N -0.31160 0.19855 -0.20990
 C54 C -0.29846 0.22664 -0.19871
 C55 C -0.24270 0.28340 -0.19606
 N56 N -0.21370 0.29781 -0.20479
 C57 C -0.20122 0.28324 -0.23347
 H58 H -0.17258 0.23821 -0.29511
 H59 H -0.24751 0.16644 -0.29956
 H60 H -0.29897 0.16639 -0.25205
 H61 H -0.30490 0.23864 -0.17458
 H62 H -0.25735 0.28913 -0.17326
 H63 H -0.17751 0.28884 -0.24523
 C64 C 0.19915 0.77752 -0.26225
 C65 C 0.20194 0.75244 -0.24056
 C66 C 0.22894 0.75136 -0.22013
 C67 C 0.25350 0.77529 -0.22118
 C68 C 0.25083 0.79983 -0.24284
 C69 C 0.22360 0.80096 -0.26338
 C70 C 0.17421 0.78659 -0.28206
 N71 N 0.18335 0.81473 -0.29493
 C72 C 0.21332 0.82379 -0.28371
 C73 C 0.27584 0.82143 -0.23584
 N74 N 0.29353 0.81055 -0.21055
 C75 C 0.28021 0.78247 -0.20118
 C76 C 0.22368 0.72621 -0.19939
 N77 N 0.19441 0.71210 -0.20697
 C78 C 0.18077 0.72788 -0.23187
 H79 H 0.15077 0.77437 -0.28562
 H80 H 0.22605 0.84596 -0.28876
 H81 H 0.27963 0.84424 -0.24673
 H82 H 0.28810 0.76928 -0.18004
 H83 H 0.23929 0.71941 -0.17935
 H84 H 0.15670 0.72263 -0.24184
 C85 C 0.23418 1.19619 0.78013
 C86 C 0.25520 1.19575 0.80791
 C87 C 0.25268 1.21765 0.83508
 C88 C 0.22905 1.24025 0.83481
 C89 C 0.20858 1.24070 0.80723
 C90 C 0.21116 1.21870 0.77987
 C91 C 0.22881 1.17622 0.75186
 N92 N 0.20330 1.18646 0.73484
 C93 C 0.19228 1.21227 0.75167
 C94 C 0.18658 1.26329 0.81458
 N95 N 0.19321 1.27654 0.84588
 C96 C 0.21901 1.26279 0.85873
 C97 C 0.27477 1.21050 0.85918
 N98 N 0.29051 1.18505 0.84714
 C99 C 0.27877 1.17571 0.81602
 H100 H 0.24140 1.15510 0.74515
 H101 H 0.17108 1.22451 0.74487
 H102 H 0.16652 1.26894 0.79888
 H103 H 0.22893 1.26802 0.88390
 H104 H 0.27864 1.22243 0.88390
 H105 H 0.28635 1.15547 0.80081
 C106 C 0.78993 0.80556 0.76548
 C107 C 0.76523 0.80514 0.79131
 C108 C 0.76457 0.78274 0.81612
 C109 C 0.78858 0.76052 0.81545
 C110 C 0.81284 0.76093 0.78988
 C111 C 0.81352 0.78349 0.76481
 C112 C 0.79826 0.82589 0.73966
 N113 N 0.82607 0.81640 0.72364
 C114 C 0.83571 0.79064 0.73874
 C115 C 0.83404 0.73830 0.79675
 N116 N 0.82314 0.72427 0.82573
 C117 C 0.79547 0.73754 0.83758
 C118 C 0.73930 0.78911 0.83908
 N119 N 0.72476 0.81464 0.82866
 C120 C 0.74033 0.82476 0.79967
 H121 H 0.78576 0.84663 0.73384
 H122 H 0.85785 0.77874 0.73211
 H123 H 0.85629 0.73310 0.78240
 H124 H 0.78204 0.73162 0.86101
 H125 H 0.73258 0.77671 0.86214
 H126 H 0.73453 0.84534 0.78627
 C127 C 0.23867 0.77999 1.26970
 C128 C 0.26280 0.77901 1.24333
 C129 C 0.26234 0.75445 1.21894
 C130 C 0.23775 0.73057 1.22065
 C131 C 0.21409 0.73150 1.24682
 C132 C 0.21454 0.75629 1.27141
 C133 C 0.23034 0.80301 1.29374
 N134 N 0.20198 0.79358 1.30979
 C135 C 0.19200 0.76520 1.29637
 C136 C 0.19096 0.70803 1.23960
 N137 N 0.20008 0.69298 1.20987
 C138 C 0.22852 0.70647 1.19789
 C139 C 0.28615 0.76144 1.19431
 N140 N 0.30096 0.78937 1.20338
 C141 C 0.28690 0.80046 1.23309
 H142 H 0.24276 0.82572 1.29764
 H143 H 0.16900 0.75296 1.30266
 H144 H 0.16810 0.70361 1.25360
 H145 H 0.24032 0.70058 1.17336
 H146 H 0.29129 0.74799 1.17076
 H147 H 0.29273 0.82309 1.24538
 C148 C 0.78692 1.20174 1.26984
 C149 C 0.76096 1.20208 1.24719
 C150 C 0.75912 1.22663 1.22529
 C151 C 0.78315 1.25104 1.22569
 C152 C 0.80869 1.25071 1.24806
 C153 C 0.81058 1.22598 1.27025
 C154 C 0.79667 1.17970 1.29176
 N155 N 0.82541 1.19025 1.30525
 C156 C 0.83426 1.21836 1.29230
 C157 C 0.83006 1.27539 1.24045
 N158 N 0.81797 1.29053 1.21416
 C159 C 0.78942 1.27595 1.20479
 C160 C 0.73328 1.21959 1.20417
 N161 N 0.71947 1.19156 1.21284
 C162 C 0.73611 1.18049 1.23893
 H163 H 0.78448 1.15722 1.29649
 H164 H 0.85681 1.23166 1.29750
 H165 H 0.85346 1.28094 1.25188
 H166 H 0.77525 1.28203 1.18324
 H167 H 0.72588 1.23318 1.18314
 H168 H 0.73130 1.15791 1.25006
 O169 O 0.51899 0.95790 0.95683
 O170 O 0.46693 0.96879 1.07369
 O171 O 0.56800 0.98931 1.03951
 O172 O 0.46027 0.95710 0.96508
 O173 O 0.52847 0.96904 1.07306
 O174 O 0.47813 0.98356 0.92152
 O175 O 0.45924 0.94597 1.02451
 O176 O 0.56382 0.98031 0.97634
 C177 C 0.54903 0.95734 0.96122
 C178 C 0.45815 0.94501 1.05624
 C179 C 0.55774 0.97052 1.06234
 C180 C 0.45725 0.96299 0.93375
 O181 O 0.48412 1.03439 0.95782
 O182 O 0.53103 1.02874 1.07862
 O183 O 0.54517 1.04176 0.97358
 O184 O 0.43456 1.00285 1.04128
 O185 O 0.47063 1.03017 1.07103
 O186 O 0.53482 1.01051 0.93245
 O187 O 0.43981 1.01572 0.98109
 O188 O 0.55006 1.04892 1.03233
 Co189 Co 0.50046 0.99595 0.95941
 Co190 Co 0.49929 0.99917 1.06811
 Co191 Co 0.55247 1.01357 1.00558
 Co192 Co 0.45306 0.98211 1.00366
 O193 O 0.50284 0.99892 1.01149
 C194 C 0.45476 1.03699 0.96512
 C195 C 0.54727 1.04973 1.06396
 C196 C 0.54878 1.03519 0.94255
 C197 C 0.44262 1.02672 1.05960
 O198 O 0.03310 0.48418 0.04207
 O199 O 0.02781 0.52941 -0.07801
 O200 O -0.00031 0.43691 -0.04255
 O201 O 0.04113 0.54226 0.02749
 O202 O 0.02828 0.47138 -0.07176
 O203 O 0.00826 0.53291 0.06802
 O204 O 0.04909 0.54685 -0.03106
 O205 O 0.01340 0.44188 0.01781
 C206 C 0.03559 0.45601 0.03434
 C207 C 0.05000 0.54438 -0.06274
 C208 C 0.02446 0.44447 -0.06081
 C209 C 0.03402 0.54626 0.05837
 O210 O -0.04645 0.51802 0.04248
 O211 O -0.03573 0.46876 -0.07479
 O212 O -0.04744 0.46165 0.03384
 O213 O -0.01254 0.56513 -0.03907
 O214 O -0.03459 0.52787 -0.07329
 O215 O -0.01974 0.47874 0.07773
 O216 O -0.02268 0.56088 0.02375
 O217 O -0.05932 0.46081 -0.02586
 Co218 Co -0.00688 0.50015 0.04022
 Co219 Co -0.00359 0.49936 -0.06848
 Co220 Co -0.02164 0.45472 -0.00478
 Co221 Co 0.01214 0.54971 -0.00494
 O222 O -0.00378 0.50239 -0.01180
 C223 C -0.04682 0.54682 0.03832
 C224 C -0.06027 0.45968 -0.05762
 C225 C -0.04084 0.45845 0.06504
 C226 C -0.03223 0.55591 -0.06232
 O227 O 1.06595 0.03956 0.46805
 O228 O 0.93620 0.01319 0.53677
 O229 O 0.98030 0.02314 0.43620
 O230 O 1.03033 0.05361 0.55317
 O231 O 0.95870 0.03934 0.48398
 O232 O 1.07430 0.03559 0.53137
 O233 O 0.97466 0.04511 0.54853
 O234 O 1.03784 0.01294 0.42932
 C235 C 1.05545 0.03661 0.43831
 C236 C 0.94537 0.03766 0.55217
 C237 C 0.96457 0.04315 0.45301
 C238 C 1.06027 0.05531 0.54979
 O239 O 1.07058 -0.02396 0.52625
 O240 O 0.92572 -0.01252 0.47610
 O241 O 1.02431 -0.04571 0.45360
 O242 O 0.97880 -0.01695 0.56567
 O243 O 0.96044 -0.03825 0.51790
 O244 O 1.07014 -0.02129 0.46149
 O245 O 1.03881 -0.00664 0.56936
 O246 O 0.96775 -0.03676 0.45603
 Co247 Co 1.06453 0.00727 0.49693
 Co248 Co 0.96157 0.00048 0.49969
 Co249 Co 1.00327 -0.01005 0.44867
 Co250 Co 1.00577 0.01745 0.55457
 O251 O 1.01093 0.00509 0.50160
 C252 C 1.06094 -0.02415 0.55733
 C253 C 0.93777 -0.03201 0.45339
 C254 C 1.05440 -0.04573 0.45293
 C255 C 0.96460 -0.03966 0.54950
 C256 C 1.06716 0.12102 0.34626
 C257 C 1.09246 0.14851 0.35331
 C258 C 1.11175 0.13838 0.32061
 C259 C 1.08673 0.11128 0.31312
 C260 C 1.08770 0.09975 0.36685
 C261 C 1.10700 0.08973 0.33413
 C262 C 1.11272 0.12684 0.37434
 C263 C 1.13218 0.11706 0.34127
 C264 C 1.12683 0.15854 0.29442
 C265 C 1.14103 0.17338 0.27244
 C266 C 1.07540 0.07756 0.39240
 C267 C 1.06605 0.05892 0.41334
 H268 H 1.04025 0.12235 0.34862
 H269 H 1.08662 0.17290 0.36087
 H270 H 1.07615 0.10514 0.28767
 H271 H 1.11289 0.06535 0.32650
 H272 H 1.12331 0.13297 0.39979
 H273 H 1.15909 0.11565 0.33899
 C274 C 0.85033 -0.08939 0.37729
 C275 C 0.86321 -0.09916 0.34078
 C276 C 0.85461 -0.13355 0.34843
 C277 C 0.84144 -0.12413 0.38459
 C278 C 0.88447 -0.09323 0.39104
 C279 C 0.87590 -0.12761 0.39875
 C280 C 0.89760 -0.10269 0.35487
 C281 C 0.88876 -0.13739 0.36218
 C282 C 0.83787 -0.15511 0.32386
 C283 C 0.82363 -0.17154 0.30278
 C284 C 0.90193 -0.07076 0.41407
 C285 C 0.91749 -0.05265 0.43237
 H286 H 0.83472 -0.06943 0.38373
 H287 H 0.85786 -0.08770 0.31665
 H288 H 0.81818 -0.13326 0.39656
 H289 H 0.88128 -0.13903 0.42290
 H290 H 0.92085 -0.09357 0.34286
 H291 H 0.90437 -0.15735 0.35573
 C292 C 0.86173 0.11998 0.58651
 C293 C 0.83608 0.11235 0.61543
 C294 C 0.85018 0.14028 0.63719
 C295 C 0.87548 0.14828 0.60859
 C296 C 0.88549 0.09899 0.60325
 C297 C 0.89956 0.12692 0.62501
 C298 C 0.86018 0.09101 0.63185
 C299 C 0.87395 0.11926 0.65388
 C300 C 0.83035 0.16265 0.65686
 C301 C 0.81357 0.18004 0.67393
 C302 C 0.90572 0.07621 0.58477
 C303 C 0.92323 0.05809 0.56982
 H304 H 0.85689 0.11996 0.55859
 H305 H 0.80974 0.10664 0.61167
 H306 H 0.88157 0.17206 0.59926
 H307 H 0.92590 0.13264 0.62878
 H308 H 0.85409 0.06724 0.64119
 H309 H 0.87882 0.11925 0.68179
 C310 C 1.09018 -0.09906 0.65197
 C311 C 1.09663 -0.13303 0.63917
 C312 C 1.13172 -0.12851 0.65168
 C313 C 1.12554 -0.09494 0.66480
 C314 C 1.10231 -0.08740 0.61678
 C315 C 1.13738 -0.08295 0.62933
 C316 C 1.10847 -0.12097 0.60365
 C317 C 1.14378 -0.11681 0.61649
 C318 C 1.14929 -0.15058 0.67105
 C319 C 1.16506 -0.16759 0.68714
 C320 C 1.08680 -0.06441 0.59670
 C321 C 1.07472 -0.04573 0.57929
 H322 H 1.06798 -0.09145 0.66633
 H323 H 1.08010 -0.15389 0.64341
 H324 H 1.13275 -0.08449 0.69019
 H325 H 1.15396 -0.06211 0.62511
 H326 H 1.10127 -0.13140 0.57825
 H327 H 1.16597 -0.12438 0.60207
 C328 C 0.35886 1.11264 1.06364
 C329 C 0.32534 1.10415 1.08120
 C330 C 0.33137 1.13119 1.10776
 C331 C 0.36446 1.14008 1.09044
 C332 C 0.37495 1.09083 1.08776
 C333 C 0.38098 1.11787 1.11430
 C334 C 0.34185 1.08203 1.10507
 C335 C 0.34754 1.10935 1.13177
 C336 C 0.30657 1.15247 1.12056
 C337 C 0.28553 1.16844 1.13288
 C338 C 0.39902 1.06793 1.07750
 C339 C 0.41884 1.04898 1.06941
 H340 H 0.36383 1.11366 1.03548
 H341 H 0.30220 1.09881 1.06767
 H342 H 0.37344 1.16419 1.08453
 H343 H 0.40412 1.12321 1.12784
 H344 H 0.33282 1.05795 1.11101
 H345 H 0.34265 1.10825 1.15993
 C346 C 0.40839 0.87126 0.85944
 C347 C 0.37552 0.85703 0.87376
 C348 C 0.35947 0.86452 0.84014
 C349 C 0.39195 0.87841 0.82547
 C350 C 0.39917 0.90348 0.87444
 C351 C 0.38311 0.91097 0.84083
 C352 C 0.36668 0.88956 0.88905
 C353 C 0.35031 0.89674 0.85517
 C354 C 0.33640 0.84357 0.82140
 C355 C 0.31635 0.82740 0.80617
 C356 C 0.42056 0.92519 0.89435
 C357 C 0.43757 0.94276 0.91174
 H358 H 0.43257 0.86109 0.86142
 H359 H 0.37216 0.83462 0.88706
 H360 H 0.40208 0.87352 0.79911
 H361 H 0.38646 0.93338 0.82753
 H362 H 0.35650 0.89442 0.91539
 H363 H 0.32615 0.90697 0.85323
 C364 C 0.63788 0.88408 1.07909
 C365 C 0.66809 0.89275 1.10108
 C366 C 0.65614 0.86800 1.12666
 C367 C 0.62629 0.85894 1.10495
 C368 C 0.61872 0.90838 1.10041
 C369 C 0.60678 0.88362 1.12598
 C370 C 0.64857 0.91738 1.12212
 C371 C 0.63694 0.89233 1.14790
 C372 C 0.67720 0.84643 1.14245
 C373 C 0.69497 0.82994 1.15673
 C374 C 0.59762 0.93097 1.08647
 C375 C 0.57976 0.94933 1.07539
 H376 H 0.63803 0.88102 1.05061
 H377 H 0.69354 0.89620 1.09098
 H378 H 0.61740 0.83467 1.09807
 H379 H 0.58133 0.88017 1.13609
 H380 H 0.65749 0.94164 1.12903
 H381 H 0.63675 0.89544 1.17638
 C382 C 0.63284 1.10929 0.88722
 C383 C 0.64052 1.10607 0.84809
 C384 C 0.63082 1.13994 0.84446
 C385 C 0.62341 1.14347 0.88332
 C386 C 0.59738 1.09817 0.88061
 C387 C 0.58763 1.13202 0.87703
 C388 C 0.60477 1.09461 0.84175
 C389 C 0.59535 1.12885 0.83778
 C390 C 0.65058 1.16253 0.82456
 C391 C 0.66813 1.18012 0.80820
 C392 C 0.57948 1.07502 0.90149
 C393 C 0.56528 1.05643 0.91965
 H394 H 0.64808 1.10096 0.90773
 H395 H 0.66250 1.09566 0.83597
 H396 H 0.63125 1.16382 0.90017
 H397 H 0.56563 1.14238 0.88917
 H398 H 0.59693 1.07424 0.82492
 H399 H 0.58016 1.13721 0.81726
 C400 C 0.12264 0.40451 0.10433
 C401 C 0.10656 0.37481 0.12032
 C402 C 0.13236 0.35508 0.10158
 C403 C 0.14882 0.38438 0.08578
 C404 C 0.10087 0.39888 0.07306
 C405 C 0.12665 0.37918 0.05421
 C406 C 0.08459 0.36951 0.08890
 C407 C 0.11057 0.34951 0.07032
 C408 C 0.14816 0.32988 0.11801
 C409 C 0.15979 0.30854 0.13184
 C410 C 0.08078 0.42180 0.05802
 C411 C 0.06156 0.43872 0.04660
 H412 H 0.12744 0.42740 0.11810
 H413 H 0.09838 0.37275 0.14765
 H414 H 0.17547 0.39017 0.08471
 H415 H 0.13475 0.38128 0.02687
 H416 H 0.05796 0.36359 0.09005
 H417 H 0.10570 0.32665 0.05650
 C418 C -0.15073 0.41431 -0.13900
 C419 C -0.13742 0.38723 -0.16215
 C420 C -0.16425 0.36497 -0.14727
 C421 C -0.17796 0.39165 -0.12443
 C422 C -0.12845 0.40554 -0.11027
 C423 C -0.15526 0.38328 -0.09535
 C424 C -0.11487 0.37880 -0.13316
 C425 C -0.14193 0.35628 -0.11854
 C426 C -0.18298 0.34151 -0.16804
 C427 C -0.19744 0.32152 -0.18510
 C428 C -0.10661 0.42687 -0.09027
 C429 C -0.08659 0.44286 -0.07471
 H430 H -0.15416 0.43842 -0.14715
 H431 H -0.13022 0.38860 -0.18981
 H432 H -0.20416 0.39666 -0.12109
 H433 H -0.16241 0.38191 -0.06768
 H434 H -0.08870 0.37369 -0.13658
 H435 H -0.13843 0.33218 -0.11035
 C436 C 0.09881 0.62595 -0.13850
 C437 C 0.12435 0.65003 -0.12345
 C438 C 0.14760 0.64232 -0.15399
 C439 C 0.12228 0.61852 -0.16931
 C440 C 0.11377 0.60033 -0.11838
 C441 C 0.13699 0.59251 -0.14892
 C442 C 0.13908 0.62413 -0.10306
 C443 C 0.16268 0.61674 -0.13392
 C444 C 0.16532 0.66665 -0.17350
 C445 C 0.17901 0.68743 -0.18914
 C446 C 0.09324 0.57829 -0.09842
 C447 C 0.07451 0.56178 -0.08201
 H448 H 0.07233 0.62953 -0.14019
 H449 H 0.11929 0.67391 -0.11318
 H450 H 0.11553 0.61649 -0.19675
 H451 H 0.14198 0.56860 -0.15913
 H452 H 0.14581 0.62617 -0.07561
 H453 H 0.18918 0.61325 -0.13229
 C454 C -0.14605 0.59709 0.10363
 C455 C -0.13434 0.61749 0.13515
 C456 C -0.14730 0.64637 0.11901
 C457 C -0.15938 0.62642 0.08778
 C458 C -0.11299 0.60412 0.08528
 C459 C -0.12595 0.63301 0.06914
 C460 C -0.10103 0.62413 0.11652
 C461 C -0.11424 0.65329 0.10063
 C462 C -0.16519 0.67065 0.13806
 C463 C -0.17902 0.69118 0.15377
 C464 C -0.09195 0.58175 0.06722
 C465 C -0.07251 0.56482 0.05335
 H466 H -0.15892 0.57374 0.10461
 H467 H -0.13793 0.61138 0.16251
 H468 H -0.18361 0.62766 0.07618
 H469 H -0.12234 0.63913 0.04178
 H470 H -0.07681 0.62297 0.12819
 H471 H -0.10129 0.67661 0.09960
 C472 C 1.14697 0.13352 0.60439
 C473 C 1.13514 0.15818 0.63173
 C474 C 1.15374 0.14208 0.65919
 C475 C 1.16590 0.11774 0.63233
 C476 C 1.11673 0.11245 0.61313
 C477 C 1.13536 0.09643 0.64063
 C478 C 1.10459 0.13678 0.64002
 C479 C 1.12349 0.12098 0.66782
 C480 C 1.17338 0.15818 0.68593
 C481 C 1.18820 0.17150 0.70892
 C482 C 1.09600 0.09445 0.58873
 C483 C 1.07926 0.07773 0.57006
 H484 H 1.15634 0.13854 0.57802
 H485 H 1.13533 0.18379 0.62837
 H486 H 1.19129 0.11006 0.62947
 H487 H 1.13521 0.07083 0.64408
 H488 H 1.07920 0.14446 0.64291
 H489 H 1.11406 0.11591 0.69417
 C490 C 0.89028 -0.12988 0.59876
 C491 C 0.90362 -0.15071 0.62633
 C492 C 0.87931 -0.13689 0.65297
 C493 C 0.86568 -0.11643 0.62583
 C494 C 0.91542 -0.10377 0.60932
 C495 C 0.89108 -0.09007 0.63601
 C496 C 0.92908 -0.12422 0.63646
 C497 C 0.90445 -0.11077 0.66345
 C498 C 0.85926 -0.15444 0.67813
 C499 C 0.84320 -0.16837 0.69958
 C500 C 0.93472 -0.08347 0.58615
 C501 C 0.94932 -0.06466 0.56849
 H502 H 0.88473 -0.13758 0.57189
 H503 H 0.90851 -0.17589 0.62263
 H504 H 0.83942 -0.11335 0.62175
 H505 H 0.88611 -0.06491 0.63980
 H506 H 0.95534 -0.12726 0.64055
 H507 H 0.91004 -0.10301 0.69029
 C508 C 1.13174 -0.13506 0.42113
 C509 C 1.11988 -0.16254 0.39668
 C510 C 1.14578 -0.15194 0.36967
 C511 C 1.15796 -0.12486 0.39376
 C512 C 1.10753 -0.11410 0.40501
 C513 C 1.13346 -0.10361 0.37798
 C514 C 1.09533 -0.14118 0.38091
 C515 C 1.12156 -0.13096 0.35363
 C516 C 1.16696 -0.17229 0.34886
 C517 C 1.18391 -0.18860 0.33062
 C518 C 1.08698 -0.09163 0.42356
 C519 C 1.07125 -0.07156 0.43764
 H520 H 1.13562 -0.13653 0.44912
 H521 H 1.11459 -0.18705 0.40414
 H522 H 1.18392 -0.11834 0.39880
 H523 H 1.13882 -0.07913 0.37044
 H524 H 1.06937 -0.14766 0.37586
 H525 H 1.11763 -0.12942 0.32566
 C526 C 0.92642 0.11764 0.36399
 C527 C 0.89112 0.10851 0.35328
 C528 C 0.88109 0.14166 0.36401
 C529 C 0.91613 0.15114 0.37443
 C530 C 0.91747 0.10752 0.40066
 C531 C 0.90749 0.14066 0.41148
 C532 C 0.88243 0.09813 0.39019
 C533 C 0.87214 0.13153 0.40068
 C534 C 0.86051 0.15985 0.34304
 C535 C 0.84365 0.17436 0.32523
 C536 C 0.93649 0.08684 0.42041
 C537 C 0.95046 0.06795 0.43584
 H538 H 0.94898 0.11178 0.34915
 H539 H 0.88414 0.09543 0.32919
 H540 H 0.92975 0.17318 0.36769
 H541 H 0.91449 0.15367 0.43560
 H542 H 0.86874 0.07610 0.39687
 H543 H 0.84958 0.13738 0.41552
 C544 C 0.11286 0.36276 -0.06619
 C545 C 0.10506 0.33194 -0.08729
 C546 C 0.13457 0.33955 -0.11129
 C547 C 0.14279 0.36997 -0.09043
 C548 C 0.09145 0.38001 -0.09017
 C549 C 0.12096 0.38760 -0.11414
 C550 C 0.08330 0.34959 -0.11102
 C551 C 0.11311 0.35687 -0.13515
 C552 C 0.15758 0.31679 -0.12491
 C553 C 0.17513 0.29774 -0.13812
 C554 C 0.06724 0.40264 -0.07939
 C555 C 0.04746 0.42153 -0.07095
 H556 H 0.11239 0.36545 -0.03767
 H557 H 0.09884 0.30880 -0.07634
 H558 H 0.16750 0.37806 -0.08208
 H559 H 0.12719 0.41073 -0.12511
 H560 H 0.05860 0.34146 -0.11939
 H561 H 0.11347 0.35424 -0.16367
 C562 C -0.12313 0.37578 0.10995
 C563 C -0.10913 0.34916 0.12983
 C564 C -0.13140 0.35773 0.16091
 C565 C -0.14571 0.38403 0.14133
 C566 C -0.09652 0.39849 0.12473
 C567 C -0.11877 0.40713 0.15579
 C568 C -0.08225 0.37219 0.14432
 C569 C -0.10479 0.38044 0.17571
 C570 C -0.15030 0.33434 0.18057
 C571 C -0.16524 0.31436 0.19628
 C572 C -0.07682 0.42057 0.10408
 C573 C -0.06044 0.43816 0.08654
 H574 H -0.13043 0.37412 0.08268
 H575 H -0.10538 0.32507 0.11936
 H576 H -0.17202 0.38862 0.14034
 H577 H -0.12248 0.43124 0.16621
 H578 H -0.05594 0.36757 0.14531
 H579 H -0.09749 0.38209 0.20299
 C580 C -0.11367 0.64061 -0.08161
 C581 C -0.10055 0.66858 -0.10289
 C582 C -0.12688 0.66035 -0.12942
 C583 C -0.14034 0.63275 -0.10840
 C584 C -0.09059 0.61938 -0.10246
 C585 C -0.11691 0.61114 -0.12898
 C586 C -0.07718 0.64699 -0.12348
 C587 C -0.10378 0.63910 -0.15022
 C588 C -0.14626 0.68343 -0.14511
 C589 C -0.16121 0.70276 -0.15874
 C590 C -0.06997 0.59668 -0.08788
 C591 C -0.05277 0.57806 -0.07615
 H592 H -0.11746 0.64096 -0.05321
 H593 H -0.09406 0.69246 -0.09232
 H594 H -0.16653 0.62718 -0.10238
 H595 H -0.12338 0.58726 -0.13955
 H596 H -0.05100 0.65260 -0.12953
 H597 H -0.09995 0.63872 -0.17860
 C598 C 0.08793 0.62245 0.14748
 C599 C 0.11305 0.61029 0.17201
 C600 C 0.13938 0.63254 0.15618
 C601 C 0.11459 0.64498 0.13199
 C602 C 0.09748 0.59717 0.12042
 C603 C 0.12382 0.61944 0.10465
 C604 C 0.12224 0.58466 0.14458
 C605 C 0.14895 0.60727 0.12911
 C606 C 0.16217 0.65320 0.17567
 C607 C 0.18010 0.67120 0.19151
 C608 C 0.07425 0.57824 0.09962
 C609 C 0.05552 0.56332 0.08142
 H610 H 0.06259 0.62847 0.15481
 H611 H 0.10893 0.60676 0.19995
 H612 H 0.11172 0.67000 0.12698
 H613 H 0.12797 0.62301 0.07671
 H614 H 0.12506 0.55962 0.14953
 H615 H 0.17429 0.60127 0.12178
 C616 C 0.38459 1.09571 0.89064
 C617 C 0.35037 1.10324 0.90542
 C618 C 0.35731 1.13767 0.89691
 C619 C 0.39129 1.13038 0.88191
 C620 C 0.39866 1.10290 0.92642
 C621 C 0.40572 1.13733 0.91797
 C622 C 0.36468 1.11019 0.94142
 C623 C 0.37131 1.14497 0.93271
 C624 C 0.33369 1.15576 0.87962
 C625 C 0.31384 1.16961 0.86478
 C626 C 0.42061 1.08172 0.94173
 C627 C 0.43720 1.06235 0.95312
 H628 H 0.39027 1.07525 0.87345
 H629 H 0.32741 1.08935 0.90010
 H630 H 0.40199 1.13884 0.85724
 H631 H 0.42872 1.15112 0.92332
 H632 H 0.35398 1.10171 0.96609
 H633 H 0.36555 1.16544 0.94985
 C634 C 0.41701 0.85547 1.13535
 C635 C 0.38912 0.86655 1.15998
 C636 C 0.36640 0.84026 1.14490
 C637 C 0.39390 0.82879 1.12056
 C638 C 0.40563 0.87705 1.10799
 C639 C 0.38290 0.85078 1.09286
 C640 C 0.37808 0.88838 1.13236
 C641 C 0.35509 0.86186 1.11753
 C642 C 0.34364 0.82093 1.16581
 C643 C 0.32416 0.80604 1.18317
 C644 C 0.42624 0.89920 1.08819
 C645 C 0.44173 0.91917 1.07292
 H646 H 0.44271 0.85304 1.14242
 H647 H 0.39144 0.87287 1.18779
 H648 H 0.40015 0.80402 1.11596
 H649 H 0.38060 0.84449 1.06504
 H650 H 0.37173 0.91312 1.13704
 H651 H 0.32941 0.86435 1.11042
 C652 C 0.62966 1.13551 1.10756
 C653 C 0.62133 1.15739 1.13903
 C654 C 0.64849 1.14333 1.15890
 C655 C 0.65714 1.12177 1.12776
 C656 C 0.60551 1.11039 1.12185
 C657 C 0.63270 1.09641 1.14177
 C658 C 0.59677 1.13191 1.15299
 C659 C 0.62435 1.11820 1.17320
 C660 C 0.67330 1.16102 1.17905
 C661 C 0.69442 1.17519 1.19497
 C662 C 0.58280 1.09068 1.10104
 C663 C 0.56563 1.07291 1.08396
 H664 H 0.63159 1.14246 1.08037
 H665 H 0.61694 1.18270 1.13814
 H666 H 0.68220 1.11772 1.11759
 H667 H 0.63717 1.07112 1.14269
 H668 H 0.57168 1.13591 1.16311
 H669 H 0.62244 1.11123 1.20039
 C670 C 0.61251 0.89059 0.87472
 C671 C 0.64985 0.89583 0.87796
 C672 C 0.65264 0.86042 0.88083
 C673 C 0.61561 0.85486 0.87733
 C674 C 0.60858 0.89363 0.91413
 C675 C 0.61127 0.85821 0.91710
 C676 C 0.64563 0.89910 0.91756
 C677 C 0.64875 0.86343 0.92024
 C678 C 0.67798 0.84308 0.86205
 C679 C 0.69942 0.82970 0.84656
 C680 C 0.58527 0.91393 0.93207
 C681 C 0.56768 0.93264 0.94597
 H682 H 0.59733 0.90193 0.85617
 H683 H 0.66593 0.91116 0.86171
 H684 H 0.60353 0.83648 0.86055
 H685 H 0.59515 0.84296 0.93339
 H686 H 0.65777 0.91747 0.93431
 H687 H 0.66395 0.85210 0.93878
   
