data_POSCAR
  _audit_creation_date              2014-09-24
  _audit_creation_method            'ToBaCCo'
  _symmetry_space_group_name_H-M    'P1'
  _symmetry_Int_Tables_number       1
  _symmetry_cell_setting            triclinic
  loop_
  _symmetry_equiv_pos_as_xyz
 x,y,z
_cell_length_a 27.0553
_cell_length_b 30.6755
_cell_length_c 25.1460
_cell_angle_alpha 91.011200
_cell_angle_beta 89.602700
_cell_angle_gamma 87.972700
loop_
  _atom_site_label
  _atom_site_type_symbol
  _atom_site_fract_x
  _atom_site_fract_y
  _atom_site_fract_z
C1 C 0.29242 0.28730 0.23449
 C2 C 0.24427 0.27316 0.24244
 C3 C 0.20752 0.30289 0.26129
 C4 C 0.21856 0.34630 0.27264
 C5 C 0.26655 0.36055 0.26351
 C6 C 0.30355 0.33114 0.24364
 C7 C 0.23156 0.22813 0.22763
 C8 C 0.26039 0.19250 0.24523
 C9 C 0.24952 0.14983 0.22935
 C10 C 0.20957 0.14315 0.19504
 C11 C 0.18033 0.17867 0.17695
 C12 C 0.19136 0.22098 0.19413
 H13 H 0.32043 0.26471 0.21801
 H14 H 0.17025 0.29208 0.26768
 H15 H 0.29163 0.19823 0.27082
 H16 H 0.16928 0.24877 0.18096
 H17 H 0.27476 0.39445 0.27079
 H18 H 0.20154 0.11033 0.18226
 C19 C 0.80213 0.78576 0.21921
 C20 C 0.77015 0.77849 0.26185
 C21 C 0.74299 0.81336 0.28553
 C22 C 0.74794 0.85614 0.26734
 C23 C 0.78086 0.86292 0.22474
 C24 C 0.80837 0.82808 0.20006
 C25 C 0.76853 0.73447 0.28399
 C26 C 0.79297 0.72554 0.33180
 C27 C 0.79884 0.68250 0.34909
 C28 C 0.77838 0.64867 0.31914
 C29 C 0.75284 0.65728 0.27188
 C30 C 0.74814 0.70041 0.25437
 H31 H 0.82301 0.75799 0.20278
 H32 H 0.71936 0.80682 0.31915
 H33 H 0.81011 0.75175 0.35352
 H34 H 0.73027 0.70740 0.21688
 H35 H 0.78361 0.89529 0.20946
 H36 H 0.78221 0.61550 0.33296
 C37 C 0.76869 0.27892 0.71796
 C38 C 0.72517 0.27160 0.74654
 C39 C 0.70005 0.30650 0.77327
 C40 C 0.71762 0.34915 0.77055
 C41 C 0.76102 0.35571 0.74080
 C42 C 0.78684 0.32101 0.71466
 C43 C 0.70475 0.22762 0.74534
 C44 C 0.73069 0.19264 0.76888
 C45 C 0.71404 0.14965 0.76400
 C46 C 0.67066 0.14302 0.73451
 C47 C 0.64527 0.17754 0.70923
 C48 C 0.66210 0.22001 0.71583
 H49 H 0.78727 0.25188 0.69689
 H50 H 0.66622 0.30029 0.79468
 H51 H 0.76409 0.19956 0.79031
 H52 H 0.64389 0.24701 0.69581
 H53 H 0.77661 0.38758 0.73993
 H54 H 0.65634 0.11089 0.73011
 C55 C 0.29226 0.77601 0.71109
 C56 C 0.25991 0.76973 0.75385
 C57 C 0.23021 0.80461 0.77394
 C58 C 0.23280 0.84598 0.75147
 C59 C 0.26490 0.85179 0.70828
 C60 C 0.29577 0.81731 0.68791
 C61 C 0.26035 0.72720 0.78001
 C62 C 0.29206 0.71964 0.82293
 C63 C 0.29612 0.67823 0.84549
 C64 C 0.26729 0.64464 0.82529
 C65 C 0.23432 0.65201 0.78310
 C66 C 0.23151 0.69355 0.76025
 H67 H 0.31540 0.74851 0.69766
 H68 H 0.20645 0.79971 0.80801
 H69 H 0.31484 0.74564 0.83728
 H70 H 0.20695 0.70004 0.72730
 H71 H 0.26528 0.88358 0.69068
 H72 H 0.27088 0.61269 0.84258
 C73 C 0.01873 0.08745 -0.02604
 H74 H 0.01260 0.09179 -0.06811
 C75 C 0.04330 0.11902 0.00307
 H76 H 0.05560 0.14764 -0.01701
 C77 C 0.01330 0.04318 0.04995
 H78 H 0.00244 0.01312 0.06773
 C79 C 0.03840 0.07370 0.08041
 H80 H 0.04597 0.06716 0.12178
 N81 N 0.00459 0.05025 -0.00247
 C82 C 0.02348 -0.05594 -0.11997
 H83 H -0.01174 -0.07138 -0.11961
 C84 C 0.06242 -0.07450 -0.15067
 H85 H 0.05635 -0.10340 -0.17475
 C86 C 0.07526 -0.00097 -0.08763
 H87 H 0.08114 0.02687 -0.06208
 C88 C 0.11473 -0.01795 -0.11821
 H89 H 0.15007 -0.00258 -0.11572
 Zn90 Zn -0.02169 0.00524 -0.04535
 N91 N 0.03034 -0.01956 -0.08938
 C92 C -0.09749 0.00014 -0.12128
 N93 N -0.07521 0.02773 -0.08680
 C94 C -0.09297 0.06951 -0.07926
 C95 C -0.13376 0.08519 -0.10786
 C96 C -0.13852 0.01438 -0.15043
 C97 C -0.02407 -0.07765 0.00371
 C98 C -0.04473 -0.10913 0.03569
 C99 C -0.11154 -0.05759 0.05817
 C100 C -0.08967 -0.02717 0.02574
 N101 N -0.04697 -0.03774 -0.00096
 H102 H -0.08413 -0.03327 -0.12555
 H103 H -0.07664 0.09054 -0.04995
 H104 H -0.14758 0.11833 -0.10065
 H105 H -0.15523 -0.00821 -0.17787
 H106 H 0.01038 -0.08506 -0.01705
 H107 H -0.02568 -0.14054 0.03917
 H108 H -0.14601 -0.04860 0.07821
 H109 H -0.10698 0.00488 0.02134
 C110 C 0.10857 -0.05508 -0.15032
 C111 C 0.05417 0.11195 0.05675
 C112 C -0.08921 -0.09934 0.06323
 C113 C -0.15724 0.05741 -0.14383
 C114 C 0.09555 0.55387 0.58149
 H115 H 0.09684 0.56567 0.54123
 C116 C 0.12576 0.57182 0.62051
 H117 H 0.15071 0.59701 0.60958
 C118 C 0.06096 0.50696 0.64443
 H119 H 0.03492 0.48240 0.65406
 C120 C 0.09035 0.52395 0.68455
 H121 H 0.08615 0.51192 0.72442
 N122 N 0.06438 0.52167 0.59390
 C123 C 0.03144 0.44864 0.44901
 H124 H -0.00802 0.44666 0.45518
 C125 C 0.05361 0.42921 0.40398
 H126 H 0.03078 0.41161 0.37642
 C127 C 0.10863 0.47358 0.47856
 H128 H 0.12987 0.49095 0.50773
 C129 C 0.13249 0.45431 0.43398
 H130 H 0.17201 0.45724 0.42918
 Zn131 Zn 0.02236 0.49898 0.54098
 N132 N 0.05877 0.47112 0.48458
 C133 C -0.01837 0.55159 0.46015
 N134 N -0.01706 0.54572 0.51360
 C135 C -0.04440 0.57215 0.54747
 C136 C -0.07666 0.60450 0.52754
 C137 C -0.05042 0.58297 0.43861
 C138 C 0.00292 0.41855 0.58728
 C139 C -0.02565 0.38640 0.60967
 C140 C -0.09846 0.43254 0.59605
 C141 C -0.06857 0.46368 0.57376
 N142 N -0.01873 0.45657 0.57062
 H143 H 0.00472 0.53150 0.43379
 H144 H -0.04219 0.56722 0.58990
 H145 H -0.09942 0.62431 0.55481
 H146 H -0.05157 0.58642 0.39586
 H147 H 0.04258 0.41345 0.58367
 H148 H -0.00742 0.35691 0.62378
 H149 H -0.13800 0.43905 0.59818
 H150 H -0.08537 0.49348 0.55905
 C151 C 0.10467 0.43242 0.39554
 C152 C 0.12355 0.55668 0.67289
 C153 C -0.07705 0.39340 0.61478
 C154 C -0.08073 0.60932 0.47235
 C155 C 0.49067 0.08623 0.49732
 H156 H 0.47345 0.09652 0.46078
 C157 C 0.50798 0.11756 0.53306
 H158 H 0.50353 0.15175 0.52364
 C159 C 0.52038 0.02920 0.55223
 H160 H 0.52554 -0.00536 0.55908
 C161 C 0.53849 0.05931 0.58875
 H162 H 0.55700 0.04748 0.62396
 N163 N 0.49715 0.04297 0.50751
 C164 C 0.53573 -0.06236 0.39582
 H165 H 0.50209 -0.08036 0.39420
 C166 C 0.57790 -0.07821 0.36841
 H167 H 0.57637 -0.10841 0.34565
 C168 C 0.57801 -0.00030 0.42584
 H169 H 0.57779 0.03026 0.44788
 C170 C 0.62068 -0.01458 0.39833
 H171 H 0.65319 0.00496 0.40002
 Zn172 Zn 0.47851 -0.00128 0.45887
 N173 N 0.53651 -0.02404 0.42388
 C174 C 0.43973 0.00952 0.35534
 N175 N 0.43357 0.02138 0.40745
 C176 C 0.39548 0.04887 0.42332
 C177 C 0.36203 0.06568 0.38622
 C178 C 0.40661 0.02491 0.31710
 C179 C 0.47313 -0.08395 0.50771
 C180 C 0.45070 -0.11654 0.53644
 C181 C 0.37760 -0.06951 0.54572
 C182 C 0.40133 -0.03793 0.51668
 N183 N 0.44808 -0.04571 0.49782
 H184 H 0.47020 -0.01205 0.34313
 H185 H 0.39136 0.05828 0.46478
 H186 H 0.33204 0.08756 0.39962
 H187 H 0.41235 0.01520 0.27586
 H188 H 0.51091 -0.08902 0.49426
 H189 H 0.47159 -0.14642 0.54439
 H190 H 0.34018 -0.06265 0.55970
 H191 H 0.38228 -0.00719 0.50928
 C192 C 0.62085 -0.05389 0.36901
 C193 C 0.53277 0.10417 0.57920
 C194 C 0.40229 -0.10950 0.55587
 C195 C 0.36727 0.05345 0.33240
 C196 C 0.58104 0.57306 0.09264
 H197 H 0.55822 0.59472 0.06903
 C198 C 0.61756 0.59040 0.12513
 H199 H 0.62177 0.62534 0.12651
 C200 C 0.60529 0.50136 0.11712
 H201 H 0.60109 0.46664 0.11334
 C202 C 0.64202 0.51721 0.15004
 H203 H 0.66452 0.49405 0.17200
 N204 N 0.57526 0.52917 0.08961
 C205 C 0.55544 0.43423 -0.03147
 H206 H 0.52688 0.41518 -0.01399
 C207 C 0.58317 0.41718 -0.07491
 H208 H 0.57587 0.38488 -0.09027
 C209 C 0.59845 0.50009 -0.03428
 H210 H 0.60405 0.53252 -0.01837
 C211 C 0.62676 0.48448 -0.07736
 H212 H 0.65468 0.50510 -0.09324
 Zn213 Zn 0.52783 0.50343 0.04439
 N214 N 0.56365 0.47509 -0.01218
 C215 C 0.47492 0.54302 -0.03835
 N216 N 0.48454 0.54657 0.01454
 C217 C 0.46270 0.57902 0.04507
 C218 C 0.43042 0.60990 0.02225
 C219 C 0.44240 0.57270 -0.06254
 C220 C 0.51173 0.42459 0.09816
 C221 C 0.48655 0.39648 0.13104
 C222 C 0.41787 0.44880 0.13479
 C223 C 0.44430 0.47581 0.10163
 N224 N 0.49064 0.46366 0.08444
 H225 H 0.49199 0.51673 -0.06190
 H226 H 0.47016 0.58080 0.08725
 H227 H 0.41319 0.63534 0.04715
 H228 H 0.43544 0.56922 -0.10471
 H229 H 0.54826 0.41507 0.08357
 H230 H 0.50443 0.36562 0.14073
 H231 H 0.38149 0.45979 0.14848
 H232 H 0.42792 0.50687 0.09053
 C233 C 0.61914 0.44266 -0.09870
 C234 C 0.64874 0.56229 0.15437
 C235 C 0.43905 0.40857 0.15038
 C236 C 0.41976 0.60672 -0.03220
 N237 N 0.18691 -0.04870 -0.20200
 N238 N 0.21928 -0.07452 -0.22778
 C239 C 0.20434 -0.11594 -0.22564
 C240 C 0.16015 -0.11635 -0.19724
 C241 C 0.15046 -0.07295 -0.18291
 H242 H 0.13862 -0.14423 -0.18755
 H243 H 0.19003 -0.01498 -0.19784
 H244 H 0.25167 -0.06370 -0.24519
 N245 N 0.10359 0.40194 0.30257
 N246 N 0.13395 0.37980 0.26995
 C247 C 0.17879 0.37625 0.29256
 C248 C 0.17707 0.39709 0.34191
 C249 C 0.12830 0.41246 0.34718
 H250 H 0.20582 0.39725 0.37160
 H251 H 0.06631 0.40854 0.29451
 H252 H 0.12349 0.36590 0.23369
 N253 N 0.69602 -0.04090 0.31448
 N254 N 0.73081 -0.06596 0.28510
 C255 C 0.72071 -0.10845 0.29121
 C256 C 0.67932 -0.11101 0.32424
 C257 C 0.66491 -0.06829 0.33748
 H258 H 0.66087 -0.14000 0.33619
 H259 H 0.69400 -0.00684 0.31584
 H260 H 0.76017 -0.05277 0.26447
 N261 N 0.67298 0.45302 -0.17813
 N262 N 0.70082 0.42704 -0.21390
 C263 C 0.69318 0.38485 -0.20294
 C264 C 0.65971 0.38332 -0.16045
 C265 C 0.64888 0.42660 -0.14538
 H266 H 0.64738 0.35459 -0.14065
 H267 H 0.67171 0.48705 -0.17810
 H268 H 0.72193 0.43956 -0.24456
 N269 N -0.23602 0.04606 -0.19255
 N270 N -0.27203 0.07172 -0.21769
 C271 C -0.25919 0.11391 -0.21360
 C272 C -0.21496 0.11549 -0.18533
 C273 C -0.20170 0.07262 -0.17323
 H274 H -0.19404 0.14383 -0.17546
 H275 H -0.23717 0.01227 -0.18888
 H276 H -0.30270 0.05867 -0.23610
 N277 N -0.13340 0.67850 0.47172
 N278 N -0.16495 0.69797 0.43902
 C279 C -0.17028 0.67206 0.39571
 C280 C -0.14050 0.63486 0.40086
 C281 C -0.11753 0.64020 0.44937
 H282 H -0.13566 0.60790 0.37275
 H283 H -0.12231 0.69180 0.50806
 H284 H -0.18248 0.72835 0.44652
 N285 N 0.32064 0.04988 0.24677
 N286 N 0.28925 0.07498 0.21999
 C287 C 0.28064 0.11251 0.24775
 C288 C 0.30743 0.11096 0.29452
 C289 C 0.33235 0.07075 0.29235
 H290 H 0.30922 0.13586 0.32539
 H291 H 0.33349 0.01897 0.23384
 H292 H 0.27514 0.06672 0.18275
 N293 N 0.37682 0.68006 -0.04134
 N294 N 0.34480 0.69901 -0.07389
 C295 C 0.33144 0.66950 -0.11098
 C296 C 0.35636 0.63019 -0.10178
 C297 C 0.38490 0.63822 -0.05738
 H298 H 0.35432 0.60004 -0.12452
 H299 H 0.39338 0.69594 -0.00938
 H300 H 0.33216 0.73150 -0.07024
 N301 N -0.10352 -0.17571 0.09201
 N302 N -0.13234 -0.19588 0.12994
 C303 C -0.15831 -0.16444 0.15768
 C304 C -0.14630 -0.12399 0.13760
 C305 C -0.11223 -0.13236 0.09688
 H306 H -0.15953 -0.09205 0.15114
 H307 H -0.08074 -0.19230 0.06414
 H308 H -0.13306 -0.22962 0.13386
 N309 N -0.09539 0.31820 0.64636
 N310 N -0.13120 0.29918 0.67231
 C311 C -0.16749 0.32922 0.68387
 C312 C -0.15409 0.36898 0.66384
 C313 C -0.10812 0.36076 0.64048
 H314 H -0.17462 0.39984 0.66655
 H315 H -0.06299 0.30195 0.63294
 H316 H -0.12995 0.26637 0.68273
 N317 N 0.39069 -0.18583 0.58679
 N318 N 0.36071 -0.20621 0.62353
 C319 C 0.33030 -0.17535 0.64666
 C320 C 0.34034 -0.13517 0.62459
 C321 C 0.37812 -0.14298 0.58781
 H322 H 0.32407 -0.10350 0.63506
 H323 H 0.41753 -0.20189 0.56288
 H324 H 0.36288 -0.23962 0.63052
 N325 N 0.43061 0.34229 0.20702
 N326 N 0.39506 0.32232 0.23210
 C327 C 0.35265 0.34627 0.22807
 C328 C 0.36157 0.38317 0.19911
 C329 C 0.41152 0.37929 0.18573
 H330 H 0.33443 0.40744 0.18632
 H331 H 0.46694 0.32987 0.20408
 H332 H 0.39976 0.29223 0.25056
 N333 N 0.08749 0.18569 0.07520
 N334 N 0.12068 0.20311 0.10658
 C335 C 0.13949 0.17205 0.13883
 C336 C 0.11667 0.13318 0.12751
 C337 C 0.08417 0.14319 0.08677
 H338 H 0.12394 0.10161 0.14487
 H339 H 0.06808 0.20281 0.04600
 H340 H 0.13118 0.23543 0.10411
 N341 N 0.16454 0.55538 0.76204
 N342 N 0.19332 0.58026 0.79081
 C343 C 0.20325 0.61629 0.76323
 C344 C 0.17942 0.61400 0.71453
 C345 C 0.15517 0.57484 0.71532
 H346 H 0.17953 0.63756 0.68306
 H347 H 0.15218 0.52538 0.77461
 H348 H 0.20500 0.57252 0.82907
 N349 N 0.54066 0.17886 0.62074
 N350 N 0.57000 0.19811 0.65515
 C351 C 0.60350 0.16830 0.67305
 C352 C 0.59468 0.12836 0.64887
 C353 C 0.55472 0.13635 0.61596
 H354 H 0.61603 0.09809 0.65234
 H355 H 0.51161 0.19486 0.60108
 H356 H 0.56682 0.23114 0.66578
 N357 N 0.72603 0.55504 0.20857
 N358 N 0.75303 0.57987 0.23941
 C359 C 0.73323 0.62079 0.24015
 C360 C 0.69179 0.62208 0.20796
 C361 C 0.68812 0.57948 0.18898
 H362 H 0.66696 0.64979 0.20105
 H363 H 0.73425 0.52201 0.20106
 H364 H 0.78485 0.56874 0.25897
   
