data_POSCAR
  _audit_creation_date              2014-09-24
  _audit_creation_method            'ToBaCCo'
  _symmetry_space_group_name_H-M    'P1'
  _symmetry_Int_Tables_number       1
  _symmetry_cell_setting            triclinic
  loop_
  _symmetry_equiv_pos_as_xyz
 x,y,z
_cell_length_a 33.4182
_cell_length_b 31.1366
_cell_length_c 29.1282
_cell_angle_alpha 90.251000
_cell_angle_beta 90.040400
_cell_angle_gamma 90.255900
loop_
  _atom_site_label
  _atom_site_type_symbol
  _atom_site_fract_x
  _atom_site_fract_y
  _atom_site_fract_z
O1 O 0.39685 0.37589 -0.05661
 O2 O 0.34092 0.43164 0.02980
 O3 O 0.40043 0.37627 0.03064
 O4 O 0.33002 0.41539 -0.05787
 O5 O 0.29582 0.35498 -0.05026
 O6 O 0.36208 0.31949 0.04286
 O7 O 0.29981 0.37682 0.03968
 O8 O 0.36371 0.31560 -0.04314
 Cu9 Cu 0.37001 0.40565 -0.01375
 Cu10 Cu 0.32546 0.33714 -0.00057
 C11 C 0.39201 0.33618 -0.06290
 C12 C 0.31049 0.41540 0.04838
 C13 C 0.39439 0.34005 0.04976
 C14 C 0.30163 0.39053 -0.07023
 O15 O 0.66011 0.56652 0.03544
 O16 O 0.60496 0.62732 -0.04744
 O17 O 0.67160 0.58736 -0.05073
 O18 O 0.60046 0.62164 0.03951
 O19 O 0.63855 0.67778 0.05605
 O20 O 0.70588 0.64715 -0.03853
 O21 O 0.63831 0.68662 -0.02958
 O22 O 0.70114 0.62067 0.04965
 Cu23 Cu 0.63129 0.59489 -0.00653
 Cu24 Cu 0.67583 0.66247 0.01202
 C25 C 0.69044 0.58168 0.05543
 C26 C 0.61012 0.66726 -0.05108
 C27 C 0.70019 0.61268 -0.06096
 C28 C 0.60624 0.65679 0.06118
 O29 O 0.60223 0.37149 1.05180
 O30 O 0.65912 0.43165 0.96974
 O31 O 0.59860 0.37732 0.96472
 O32 O 0.66986 0.41021 1.05575
 O33 O 0.70298 0.35002 1.04346
 O34 O 0.63580 0.32086 0.94815
 O35 O 0.69899 0.37691 0.95542
 O36 O 0.63428 0.31179 1.03355
 Cu37 Cu 0.62956 0.40352 1.01128
 Cu38 Cu 0.67281 0.33539 0.99273
 C39 C 0.60634 0.33143 1.05488
 C40 C 0.68909 0.41604 0.94973
 C41 C 0.60394 0.34226 0.94282
 C42 C 0.69792 0.38448 1.06598
 O43 O 0.39859 0.62542 1.05574
 O44 O 0.34209 0.57052 0.96845
 O45 O 0.40325 0.62454 0.96864
 O46 O 0.33094 0.58667 1.05608
 O47 O 0.29823 0.64766 1.04813
 O48 O 0.36642 0.68203 0.95598
 O49 O 0.30224 0.62595 0.95818
 O50 O 0.36681 0.68620 1.04201
 Cu51 Cu 0.37154 0.59587 1.01250
 Cu52 Cu 0.32868 0.66509 0.99876
 C53 C 0.39449 0.66519 1.06212
 C54 C 0.31209 0.58719 0.94960
 C55 C 0.39833 0.66091 0.94955
 C56 C 0.30300 0.61196 1.06809
 O57 O -0.04548 0.38373 0.36562
 O58 O 0.03223 0.33113 0.42756
 O59 O 0.03107 0.39349 0.36778
 O60 O -0.04093 0.31016 0.40643
 O61 O -0.02830 0.27463 0.34234
 O62 O 0.04947 0.35227 0.30972
 O63 O 0.04554 0.28761 0.36950
 O64 O -0.02803 0.35163 0.30090
 Cu65 Cu -0.00682 0.35796 0.39758
 Cu66 Cu 0.01092 0.31248 0.32471
 C67 C -0.04857 0.37964 0.32280
 C68 C 0.05082 0.29965 0.41110
 C69 C 0.05174 0.38746 0.33150
 C70 C -0.04695 0.27810 0.37995
 O71 O 0.02642 0.66729 0.56895
 O72 O -0.04320 0.60439 0.63360
 O73 O -0.04932 0.67503 0.59025
 O74 O 0.03260 0.60443 0.62869
 O75 O 0.04344 0.64593 0.68918
 O76 O -0.04084 0.71367 0.65333
 O77 O -0.03184 0.64237 0.69670
 O78 O 0.03695 0.71156 0.62713
 Cu79 Cu -0.00874 0.63446 0.59918
 Cu80 Cu 0.00394 0.68371 0.67130
 C81 C 0.04284 0.70028 0.58551
 C82 C -0.04858 0.61086 0.67584
 C83 C -0.05987 0.70560 0.61662
 C84 C 0.05029 0.61178 0.66672
 O85 O 0.97191 0.66756 0.42483
 O86 O 1.04498 0.60702 0.36257
 O87 O 1.04720 0.67921 0.40430
 O88 O 0.96965 0.60052 0.37008
 O89 O 0.95320 0.64025 0.31039
 O90 O 1.03458 0.71560 0.34107
 O91 O 1.02978 0.64045 0.29806
 O92 O 0.95866 0.70898 0.36541
 Cu93 Cu 1.00918 0.63550 0.39682
 Cu94 Cu 0.99268 0.68062 0.32266
 C95 C 0.95362 0.69875 0.40739
 C96 C 1.04868 0.61132 0.31983
 C97 C 1.05479 0.71020 0.37740
 C98 C 0.94967 0.60592 0.33334
 O99 O 0.97231 0.33161 0.57313
 O100 O 1.04265 0.39468 0.63728
 O101 O 1.04742 0.32206 0.59594
 O102 O 0.96672 0.39630 0.63095
 O103 O 0.95184 0.35560 0.69052
 O104 O 1.03440 0.28370 0.65773
 O105 O 1.02877 0.35953 0.70116
 O106 O 0.95809 0.29039 0.63248
 Cu107 Cu 1.00795 0.36432 0.60320
 Cu108 Cu 0.99232 0.31787 0.67634
 C109 C 0.95359 0.30047 0.59031
 C110 C 1.04669 0.38991 0.67990
 C111 C 1.05514 0.29055 0.62208
 C112 C 0.94698 0.38973 0.66772
 O113 O 0.41180 0.04543 0.34155
 O114 O 0.35563 -0.02870 0.41202
 O115 O 0.41324 -0.03551 0.35441
 O116 O 0.35686 0.05284 0.40208
 O117 O 0.30893 0.04448 0.35050
 O118 O 0.37053 -0.04323 0.29701
 O119 O 0.31035 -0.03804 0.35749
 O120 O 0.36725 0.04013 0.28571
 Cu121 Cu 0.38869 0.00929 0.38277
 Cu122 Cu 0.33467 0.00032 0.31665
 C123 C 0.40015 0.05465 0.30155
 C124 C 0.32327 -0.04526 0.39779
 C125 C 0.40297 -0.05346 0.31726
 C126 C 0.32261 0.06213 0.38691
 O127 O 0.64497 -0.04756 0.59421
 O128 O 0.58597 0.03622 0.64765
 O129 O 0.63866 0.03325 0.58363
 O130 O 0.58710 -0.04575 0.65307
 O131 O 0.63165 -0.03961 0.70879
 O132 O 0.68556 0.04235 0.63637
 O133 O 0.63037 0.04407 0.70331
 O134 O 0.69235 -0.03956 0.64653
 Cu135 Cu 0.60975 -0.00690 0.61460
 Cu136 Cu 0.66470 0.00232 0.67951
 C137 C 0.67960 -0.05582 0.60919
 C138 C 0.59711 0.05357 0.68491
 C139 C 0.67101 0.05048 0.59680
 C140 C 0.59893 -0.05509 0.69295
 O141 O 0.35193 1.02409 0.59298
 O142 O 0.41388 0.95511 0.66212
 O143 O 0.35753 0.94272 0.60458
 O144 O 0.40951 1.03571 0.65011
 O145 O 0.36806 1.03952 0.70903
 O146 O 0.30975 0.94842 0.65656
 O147 O 0.36990 0.95633 0.71874
 O148 O 0.30756 1.03121 0.64868
 Cu149 Cu 0.38733 0.98903 0.62196
 Cu150 Cu 0.33420 0.99415 0.68931
 C151 C 0.31930 1.03893 0.60797
 C152 C 0.40343 0.94462 0.70217
 C153 C 0.32403 0.93115 0.62041
 C154 C 0.39943 1.05214 0.68807
 O155 O 0.59387 0.96554 0.35354
 O156 O 0.64873 1.05864 0.39770
 O157 O 0.58951 1.04631 0.34190
 O158 O 0.65452 0.97622 0.40673
 O159 O 0.69691 0.96972 0.34905
 O160 O 0.62952 1.04242 0.28165
 O161 O 0.69004 1.05408 0.33870
 O162 O 0.63362 0.96027 0.29317
 Cu163 Cu 0.61793 1.01201 0.38100
 Cu164 Cu 0.66723 1.00604 0.30987
 C165 C 0.60283 0.94838 0.31545
 C166 C 0.67861 1.07244 0.37550
 C167 C 0.59736 1.05541 0.30058
 C168 C 0.68643 0.96116 0.39002
 C169 C 0.89666 0.75725 0.51449
 C170 C 0.88982 0.77479 0.47064
 C171 C 0.86184 0.80809 0.46582
 C172 C 0.83825 0.82128 0.50380
 C173 C 0.84323 0.79919 0.54589
 C174 C 0.87343 0.76917 0.55197
 C175 C 0.80855 0.85746 0.50084
 C176 C 0.79459 0.87697 0.54206
 C177 C 0.76362 0.90640 0.54115
 C178 C 0.75006 0.92150 0.49929
 C179 C 0.76320 0.90441 0.45742
 C180 C 0.79248 0.87195 0.45815
 H181 H 0.91956 0.73325 0.51939
 H182 H 0.85868 0.82298 0.43259
 H183 H 0.82401 0.80481 0.57500
 H184 H 0.80643 0.86910 0.57541
 H185 H 0.72779 0.94667 0.49989
 H186 H 0.80137 0.85760 0.42593
 C187 C 0.10092 0.23821 0.52093
 C188 C 0.10983 0.22218 0.47688
 C189 C 0.13823 0.18960 0.47198
 C190 C 0.16077 0.17548 0.51025
 C191 C 0.15264 0.19444 0.55363
 C192 C 0.12204 0.22442 0.55933
 C193 C 0.19321 0.14231 0.50518
 C194 C 0.20840 0.12076 0.54451
 C195 C 0.24101 0.09315 0.54099
 C196 C 0.25624 0.08367 0.49760
 C197 C 0.24198 0.10341 0.45797
 C198 C 0.21053 0.13282 0.46156
 H199 H 0.07774 0.26204 0.52527
 H200 H 0.14266 0.17631 0.43810
 H201 H 0.17000 0.18683 0.58372
 H202 H 0.19576 0.12524 0.57824
 H203 H 0.27990 0.06020 0.49436
 H204 H 0.20114 0.14883 0.43062
 C205 C 0.09601 0.76465 0.47889
 C206 C 0.10481 0.77893 0.52370
 C207 C 0.13532 0.80935 0.53049
 C208 C 0.15955 0.82290 0.49329
 C209 C 0.15149 0.80523 0.44928
 C210 C 0.11932 0.77748 0.44173
 C211 C 0.19410 0.85354 0.49977
 C212 C 0.21106 0.87453 0.46105
 C213 C 0.24614 0.89853 0.46501
 C214 C 0.26257 0.90513 0.50841
 C215 C 0.24572 0.88733 0.54790
 C216 C 0.21155 0.86129 0.54375
 H217 H 0.07148 0.74249 0.47306
 H218 H 0.14021 0.82117 0.56494
 H219 H 0.17037 0.81182 0.42010
 H220 H 0.19767 0.87259 0.42738
 H221 H 0.28830 0.92615 0.51196
 H222 H 0.19988 0.84670 0.57452
 C223 C 0.90489 0.23054 0.48456
 C224 C 0.88755 0.22490 0.52839
 C225 C 0.85194 0.20082 0.53246
 C226 C 0.83427 0.18200 0.49304
 C227 C 0.85436 0.18571 0.45056
 C228 C 0.88804 0.21160 0.44569
 C229 C 0.79388 0.16101 0.49372
 C230 C 0.76991 0.16368 0.45400
 C231 C 0.73569 0.13879 0.44882
 C232 C 0.72177 0.11470 0.48594
 C233 C 0.74246 0.11508 0.52831
 C234 C 0.77932 0.13721 0.53154
 H235 H 0.93182 0.24960 0.48052
 H236 H 0.83744 0.19848 0.56557
 H237 H 0.84303 0.16978 0.42008
 H238 H 0.77866 0.18373 0.42541
 H239 H 0.69459 0.09604 0.48179
 H240 H 0.79658 0.13522 0.56291
 C241 C 0.50357 0.91206 0.77385
 C242 C 0.46716 0.89591 0.78998
 C243 C 0.46717 0.86171 0.82080
 C244 C 0.50339 0.84055 0.83226
 C245 C 0.53982 0.85646 0.81287
 C246 C 0.53988 0.89225 0.78384
 C247 C 0.50297 0.80067 0.86158
 C248 C 0.53885 0.78568 0.88165
 C249 C 0.53988 0.74649 0.90451
 C250 C 0.50438 0.72324 0.91111
 C251 C 0.46775 0.73840 0.89499
 C252 C 0.46724 0.77652 0.86936
 H253 H 0.50342 0.93972 0.75140
 H254 H 0.43860 0.85131 0.83398
 H255 H 0.56801 0.84040 0.81793
 H256 H 0.56646 0.80368 0.87957
 H257 H 0.50513 0.69412 0.93127
 H258 H 0.43873 0.78643 0.85579
 C259 C 0.49705 0.08718 0.22539
 C260 C 0.46034 0.10353 0.21078
 C261 C 0.45971 0.13781 0.17991
 C262 C 0.49587 0.15854 0.16675
 C263 C 0.53256 0.14257 0.18499
 C264 C 0.53312 0.10693 0.21398
 C265 C 0.49562 0.19823 0.13716
 C266 C 0.53164 0.21295 0.11698
 C267 C 0.53352 0.25259 0.09533
 C268 C 0.49858 0.27648 0.08924
 C269 C 0.46158 0.26130 0.10462
 C270 C 0.46026 0.22270 0.12951
 H271 H 0.49735 0.05955 0.24789
 H272 H 0.43088 0.14862 0.16812
 H273 H 0.56082 0.15849 0.17925
 H274 H 0.55888 0.19454 0.11821
 H275 H 0.50006 0.30607 0.06990
 H276 H 0.43154 0.21266 0.14258
 C277 C 0.49900 0.09855 0.75146
 C278 C 0.53578 0.11515 0.76587
 C279 C 0.53652 0.14889 0.79776
 C280 C 0.50032 0.16843 0.81269
 C281 C 0.46344 0.15154 0.79529
 C282 C 0.46285 0.11653 0.76517
 C283 C 0.50073 0.20700 0.84442
 C284 C 0.46479 0.22112 0.86522
 C285 C 0.46344 0.25951 0.88971
 C286 C 0.49873 0.28270 0.89766
 C287 C 0.53554 0.26798 0.88149
 C288 C 0.53639 0.23077 0.85400
 H289 H 0.49852 0.07064 0.72914
 H290 H 0.56544 0.15955 0.80973
 H291 H 0.43489 0.16565 0.80323
 H292 H 0.43719 0.20323 0.86267
 H293 H 0.49767 0.31116 0.91911
 H294 H 0.56509 0.22117 0.84071
 C295 C 0.50282 0.89805 0.25594
 C296 C 0.53941 0.88281 0.23979
 C297 C 0.53977 0.84983 0.20700
 C298 C 0.50351 0.82969 0.19273
 C299 C 0.46680 0.84560 0.21119
 C300 C 0.46644 0.88009 0.24211
 C301 C 0.50376 0.79185 0.16003
 C302 C 0.46788 0.77845 0.13825
 C303 C 0.46637 0.74075 0.11245
 C304 C 0.50151 0.71763 0.10441
 C305 C 0.53831 0.73158 0.12186
 C306 C 0.53923 0.76807 0.15052
 H307 H 0.50271 0.92548 0.27891
 H308 H 0.56843 0.84035 0.19342
 H309 H 0.43825 0.83121 0.20311
 H310 H 0.44049 0.79645 0.14110
 H311 H 0.50039 0.68977 0.08206
 H312 H 0.56779 0.77709 0.16498
 C313 C 0.74818 0.51680 0.88957
 C314 C 0.76412 0.47545 0.88251
 C315 C 0.79758 0.47045 0.85386
 C316 C 0.81344 0.50608 0.82981
 C317 C 0.79446 0.54641 0.83510
 C318 C 0.76320 0.55223 0.86611
 C319 C 0.84935 0.50226 0.79914
 C320 C 0.87300 0.53921 0.79038
 C321 C 0.90268 0.53847 0.75703
 C322 C 0.91200 0.49976 0.73527
 C323 C 0.89118 0.46187 0.74485
 C324 C 0.85955 0.46308 0.77675
 H325 H 0.72352 0.52148 0.91307
 H326 H 0.81084 0.43897 0.85066
 H327 H 0.80378 0.57404 0.81543
 H328 H 0.86779 0.56931 0.80794
 H329 H 0.93645 0.49921 0.71088
 H330 H 0.84267 0.43397 0.78282
 C331 C 0.25309 0.51454 0.11309
 C332 C 0.23607 0.47326 0.11796
 C333 C 0.20201 0.46803 0.14572
 C334 C 0.18646 0.50333 0.17065
 C335 C 0.20636 0.54344 0.16747
 C336 C 0.23841 0.54956 0.13761
 C337 C 0.14976 0.49959 0.19998
 C338 C 0.12590 0.53643 0.20740
 C339 C 0.09563 0.53616 0.24007
 C340 C 0.08610 0.49795 0.26258
 C341 C 0.10715 0.46005 0.25410
 C342 C 0.13926 0.46086 0.22277
 H343 H 0.27827 0.51952 0.09037
 H344 H 0.18789 0.43675 0.14750
 H345 H 0.19697 0.57069 0.18786
 H346 H 0.13169 0.56619 0.18953
 H347 H 0.06148 0.49790 0.28676
 H348 H 0.15642 0.43189 0.21750
 C349 C 0.74770 0.47976 0.11538
 C350 C 0.76488 0.52079 0.12175
 C351 C 0.79924 0.52508 0.14926
 C352 C 0.81490 0.48911 0.17274
 C353 C 0.79494 0.44915 0.16798
 C354 C 0.76262 0.44400 0.13820
 C355 C 0.85137 0.49229 0.20267
 C356 C 0.87477 0.45519 0.21053
 C357 C 0.90470 0.45536 0.24378
 C358 C 0.91421 0.49367 0.26660
 C359 C 0.89386 0.53183 0.25726
 C360 C 0.86214 0.53105 0.22551
 H361 H 0.72223 0.47556 0.09284
 H362 H 0.81338 0.55629 0.15203
 H363 H 0.80432 0.42130 0.18715
 H364 H 0.86907 0.42542 0.19241
 H365 H 0.93854 0.49373 0.29121
 H366 H 0.84554 0.56030 0.21991
 C367 C 0.25353 0.48845 0.88441
 C368 C 0.23656 0.52966 0.88014
 C369 C 0.20193 0.53473 0.85319
 C370 C 0.18581 0.49937 0.82845
 C371 C 0.20580 0.45947 0.83088
 C372 C 0.23830 0.45346 0.86004
 C373 C 0.14855 0.50274 0.79993
 C374 C 0.12481 0.46550 0.79248
 C375 C 0.09424 0.46537 0.76007
 C376 C 0.08430 0.50361 0.73800
 C377 C 0.10520 0.54184 0.74657
 C378 C 0.13753 0.54145 0.77763
 H379 H 0.27910 0.48348 0.90653
 H380 H 0.18781 0.56589 0.85191
 H381 H 0.19609 0.43223 0.81053
 H382 H 0.13095 0.43573 0.81007
 H383 H 0.05948 0.50350 0.71405
 H384 H 0.15458 0.57067 0.78288
 N385 N 0.28828 0.44332 0.07728
 N386 N 0.25351 0.43750 0.09382
 N387 N 0.71254 0.55228 0.08255
 N388 N 0.74731 0.55736 0.09948
 N389 N 0.71167 0.44505 0.92256
 N390 N 0.74601 0.43920 0.90498
 N391 N 0.28939 0.55952 0.92055
 N392 N 0.25450 0.56536 0.90432
 N393 N 0.07555 0.27730 0.44240
 N394 N 0.09016 0.24000 0.43752
 N395 N 0.06682 0.72439 0.55471
 N396 N 0.08412 0.76018 0.56200
 N397 N 0.92847 0.72190 0.43785
 N398 N 0.91107 0.75763 0.43170
 N399 N 0.92957 0.27635 0.55919
 N400 N 0.90556 0.24564 0.56761
 N401 N 0.42773 0.07797 0.27414
 N402 N 0.42459 0.08721 0.23181
 N403 N 0.56880 0.08037 0.70725
 N404 N 0.57166 0.09670 0.74726
 N405 N 0.43258 0.92257 0.72845
 N406 N 0.43073 0.91205 0.77052
 N407 N 0.57442 0.91925 0.29632
 N408 N 0.57546 0.90305 0.25613
 N409 N 0.42241 0.31510 0.91185
 N410 N 0.42658 0.27475 0.90853
 N411 N 0.58015 0.68976 0.92451
 N412 N 0.57654 0.73027 0.92287
 N413 N 0.42501 0.68577 0.08808
 N414 N 0.42953 0.72604 0.09265
 N415 N 0.57553 0.30912 0.07826
 N416 N 0.57061 0.26871 0.07788
 N417 N 0.29572 0.06213 0.57599
 N418 N 0.25985 0.07491 0.58085
 N419 N 0.69794 0.10607 0.39080
 N420 N 0.71643 0.13783 0.40484
 N421 N 0.70524 0.92147 0.57893
 N422 N 0.74318 0.91998 0.58185
 N423 N 0.30097 0.93040 0.43008
 N424 N 0.26494 0.91769 0.42565
 N425 N 0.06901 0.42247 0.70279
 N426 N 0.07547 0.42608 0.74558
 N427 N 0.07154 0.57933 0.29730
 N428 N 0.07669 0.57510 0.25437
 N429 N 0.92791 0.41119 0.30048
 N430 N 0.92392 0.41644 0.25754
 N431 N 0.92881 0.57910 0.69904
 N432 N 0.92154 0.57722 0.74172
 N433 N 0.72419 0.60307 0.90507
 N434 N 0.74720 0.59450 0.87321
 N435 N 0.27798 0.40165 0.89610
 N436 N 0.25518 0.41134 0.86449
 N437 N 0.27874 0.60114 0.10139
 N438 N 0.25545 0.59174 0.13269
 N439 N 0.72216 0.39374 0.09991
 N440 N 0.74547 0.40204 0.13163
 N441 N 0.90904 0.72889 0.60600
 N442 N 0.87966 0.75106 0.59665
 N443 N 0.92756 0.24803 0.39145
 N444 N 0.90355 0.21906 0.40048
 N445 N 0.08509 0.26507 0.61250
 N446 N 0.11345 0.24089 0.60443
 N447 N 0.08397 0.73680 0.38717
 N448 N 0.11164 0.76184 0.39609
 N449 N 0.57132 0.92107 0.72041
 N450 N 0.57560 0.90771 0.76138
 N451 N 0.43178 0.91855 0.29721
 N452 N 0.42980 0.89878 0.25892
 N453 N 0.56689 0.07702 0.27545
 N454 N 0.56949 0.09198 0.23494
 N455 N 0.42771 0.08080 0.70840
 N456 N 0.42623 0.09780 0.74817
 N457 N 0.57356 0.67490 0.08640
 N458 N 0.57472 0.71168 0.10595
 N459 N 0.42683 0.32040 0.07384
 N460 N 0.42540 0.28240 0.09008
 N461 N 0.57120 0.32462 0.91713
 N462 N 0.57200 0.28771 0.89789
 N463 N 0.43152 0.67997 0.92595
 N464 N 0.43106 0.71787 0.90936
 N465 N 0.71061 0.93743 0.42109
 N466 N 0.74469 0.91986 0.41574
 N467 N 0.30108 0.90380 0.59123
 N468 N 0.26319 0.89948 0.59123
 N469 N 0.29842 0.08711 0.41696
 N470 N 0.26066 0.09195 0.41519
 N471 N 0.69091 0.07737 0.56435
 N472 N 0.72662 0.09160 0.56689
 N473 N 0.92739 0.57033 0.31531
 N474 N 0.90766 0.57136 0.27782
 N475 N 0.92374 0.42413 0.68615
 N476 N 0.90468 0.42245 0.72408
 N477 N 0.07339 0.57805 0.68656
 N478 N 0.09157 0.58070 0.72504
 N479 N 0.07338 0.42292 0.31257
 N480 N 0.09389 0.42092 0.27564
   
