data_POSCAR
  _audit_creation_date              2014-09-24
  _audit_creation_method            'ToBaCCo'
  _symmetry_space_group_name_H-M    'P1'
  _symmetry_Int_Tables_number       1
  _symmetry_cell_setting            triclinic
  loop_
  _symmetry_equiv_pos_as_xyz
 x,y,z
_cell_length_a 54.5852
_cell_length_b 28.3145
_cell_length_c 21.4437
_cell_angle_alpha 89.917600
_cell_angle_beta 89.886300
_cell_angle_gamma 90.211200
loop_
  _atom_site_label
  _atom_site_type_symbol
  _atom_site_fract_x
  _atom_site_fract_y
  _atom_site_fract_z
O1 O 0.72154 0.24007 0.43307
 O2 O 0.76085 0.19119 0.55681
 O3 O 0.71751 0.23011 0.55280
 O4 O 0.76451 0.20030 0.43628
 O5 O 0.78173 0.27020 0.44921
 O6 O 0.73475 0.29986 0.56602
 O7 O 0.77803 0.26118 0.56905
 O8 O 0.73874 0.31001 0.44566
 Cu9 Cu 0.73941 0.20839 0.49350
 Cu10 Cu 0.75999 0.29234 0.50882
 C11 C 0.72331 0.28347 0.41844
 C12 C 0.77637 0.21780 0.58369
 C13 C 0.71791 0.27029 0.57912
 C14 C 0.78124 0.22999 0.42303
 O15 O 0.23318 0.79324 0.55758
 O16 O 0.27507 0.75140 0.43401
 O17 O 0.23167 0.78940 0.43660
 O18 O 0.27772 0.75893 0.55400
 O19 O 0.26206 0.68724 0.56190
 O20 O 0.21532 0.71827 0.44460
 O21 O 0.25872 0.68022 0.44118
 O22 O 0.21751 0.72162 0.56487
 Cu23 Cu 0.25598 0.78040 0.49493
 Cu24 Cu 0.23685 0.69466 0.50410
 C25 C 0.21778 0.76462 0.58164
 C26 C 0.27408 0.70848 0.41670
 C27 C 0.21548 0.75945 0.42084
 C28 C 0.27813 0.71772 0.57723
 O29 O 0.26059 0.30957 -0.56331
 O30 O 0.21971 0.26599 -0.43923
 O31 O 0.26145 0.31082 -0.44178
 O32 O 0.21874 0.26430 -0.55985
 O33 O 0.23865 0.19676 -0.56027
 O34 O 0.28098 0.24276 -0.44131
 O35 O 0.23926 0.19794 -0.43871
 O36 O 0.28049 0.24202 -0.56189
 Cu37 Cu 0.23819 0.29450 -0.50122
 Cu38 Cu 0.26177 0.21303 -0.50063
 C39 C 0.27782 0.28356 -0.58333
 C40 C 0.22237 0.22444 -0.41799
 C41 C 0.27858 0.28474 -0.42144
 C42 C 0.22120 0.22236 -0.57997
 O43 O -0.27949 0.76326 -0.44263
 O44 O -0.23704 0.80714 -0.56346
 O45 O -0.27921 0.76380 -0.56352
 O46 O -0.23725 0.80673 -0.44187
 O47 O -0.21819 0.73818 -0.44241
 O48 O -0.26014 0.69526 -0.56418
 O49 O -0.21794 0.73872 -0.56328
 O50 O -0.26045 0.69469 -0.44254
 Cu51 Cu -0.26011 0.79213 -0.50280
 Cu52 Cu -0.23731 0.70981 -0.50309
 C53 C -0.27735 0.72135 -0.42219
 C54 C -0.22010 0.78060 -0.58399
 C55 C -0.27694 0.72211 -0.58450
 C56 C -0.22042 0.77993 -0.42162
 O57 O 0.03719 0.92614 -0.11668
 O58 O 0.06265 0.97026 -0.05471
 C59 C 0.05880 0.94039 -0.09946
 O60 O -0.03527 1.08813 -0.10723
 O61 O -0.06157 1.03860 -0.05501
 C62 C -0.05711 1.07301 -0.09346
 O63 O 0.03347 1.08984 -0.10996
 O64 O 0.06118 1.04868 -0.05087
 C65 C 0.05572 1.07936 -0.09363
 O66 O -0.03135 0.91539 -0.11354
 O67 O -0.05976 0.95691 -0.05712
 C68 C -0.05379 0.92558 -0.09845
 Zr69 Zr 0.00217 0.94452 -0.08154
 O70 O 0.00012 0.94608 -0.18009
 O71 O 0.00673 0.87030 -0.08297
 Zr72 Zr -0.00064 1.06366 -0.07735
 O73 O -0.00271 1.06524 -0.17593
 O74 O 0.00038 1.13838 -0.07489
 O75 O 0.02268 1.00649 -0.09084
 O76 O -0.02041 1.00232 -0.09190
 O77 O -0.03270 0.91087 0.10354
 O78 O -0.06037 0.95480 0.04805
 C79 C -0.05494 0.92197 0.08791
 O80 O 0.03147 1.08529 0.11802
 O81 O 0.05993 1.04662 0.05839
 C82 C 0.05392 1.07540 0.10283
 O83 O -0.03714 1.08262 0.10878
 O84 O -0.06250 1.03602 0.04974
 C85 C -0.05873 1.06824 0.09158
 O86 O 0.03566 0.92097 0.11161
 O87 O 0.06192 0.96753 0.05477
 C88 C 0.05748 0.93566 0.09682
 Zr89 Zr 0.00117 0.94111 0.07555
 O90 O -0.00209 0.93842 0.17389
 O91 O 0.00566 0.86691 0.07169
 Zr92 Zr -0.00186 1.06034 0.07970
 O93 O -0.00533 1.05856 0.17802
 O94 O -0.00093 1.13511 0.08103
 Zr95 Zr 0.03678 1.00607 0.00065
 Zr96 Zr -0.03628 0.99888 -0.00250
 O97 O -0.02163 0.99841 0.08823
 O98 O 0.02140 1.00261 0.09087
 O99 O -0.02004 0.93143 -0.00420
 O100 O 0.01989 1.07273 0.00245
 O101 O 0.02325 0.93640 -0.00244
 O102 O -0.02338 1.06913 0.00050
 H103 H -0.03117 1.00212 -0.12905
 H104 H 0.03033 1.10141 0.00396
 H105 H -0.03284 0.99666 0.12457
 H106 H 0.03501 0.90982 -0.00306
 H107 H -0.01345 1.14896 -0.04862
 H108 H -0.01537 1.14654 0.05775
 H109 H 0.00822 1.03907 0.19434
 H110 H 0.01086 0.95894 0.19148
 H111 H -0.00809 0.85384 0.04710
 H112 H -0.00714 0.85613 -0.05971
 H113 H 0.01304 0.96786 -0.19518
 H114 H 0.01177 1.04842 -0.19235
 O115 O 0.46818 0.41767 0.11659
 O116 O 0.44030 0.45801 0.05714
 C117 C 0.44588 0.42831 0.10094
 O118 O 0.53394 0.59067 0.10778
 O119 O 0.56158 0.54715 0.05170
 C120 C 0.55616 0.57958 0.09200
 O121 O 0.46567 0.58187 0.11463
 O122 O 0.43918 0.53667 0.05698
 C123 C 0.44379 0.56803 0.09954
 O124 O 0.53679 0.41738 0.10879
 O125 O 0.56298 0.46505 0.05312
 C126 C 0.55860 0.43154 0.09309
 Zr127 Zr 0.50211 0.44196 0.08012
 O128 O 0.50485 0.44054 0.17856
 O129 O 0.50209 0.36744 0.07461
 Zr130 Zr 0.50008 0.56136 0.07883
 O131 O 0.50298 0.56218 0.17727
 O132 O 0.49605 0.63570 0.07716
 O133 O 0.47932 0.50015 0.09239
 O134 O 0.52237 0.50327 0.09069
 O135 O 0.53689 0.41695 -0.10648
 O136 O 0.56290 0.46517 -0.05165
 C137 C 0.55868 0.43179 -0.09153
 O138 O 0.46434 0.57906 -0.11344
 O139 O 0.43858 0.53479 -0.05195
 C140 C 0.44262 0.56482 -0.09647
 O141 O 0.53328 0.58931 -0.10953
 O142 O 0.56127 0.54653 -0.05341
 C143 C 0.55562 0.57839 -0.09444
 O144 O 0.46823 0.41601 -0.11201
 O145 O 0.44049 0.45692 -0.05279
 C146 C 0.44598 0.42692 -0.09632
 Zr147 Zr 0.50199 0.44112 -0.07671
 O148 O 0.50458 0.43994 -0.17520
 O149 O 0.50110 0.36639 -0.07393
 Zr150 Zr 0.49948 0.56049 -0.07840
 O151 O 0.50194 0.56074 -0.17694
 O152 O 0.49520 0.63478 -0.07815
 Zr153 Zr 0.46439 0.49845 0.00188
 Zr154 Zr 0.53743 0.50417 0.00037
 O155 O 0.52194 0.50243 -0.08946
 O156 O 0.47893 0.49895 -0.08936
 O157 O 0.52417 0.43424 0.00152
 O158 O 0.47827 0.56788 0.00064
 O159 O 0.48073 0.43133 0.00219
 O160 O 0.52153 0.57193 -0.00042
 H161 H 0.53345 0.50414 0.12721
 H162 H 0.46661 0.59463 0.00038
 H163 H 0.53284 0.50293 -0.12647
 H164 H 0.47005 0.40294 0.00262
 H165 H 0.50964 0.64885 0.05189
 H166 H 0.50920 0.64839 -0.05501
 H167 H 0.48884 0.53981 -0.19290
 H168 H 0.49116 0.45967 -0.19171
 H169 H 0.51362 0.35616 -0.04351
 H170 H 0.50229 0.35580 0.11822
 H171 H 0.49193 0.46146 0.19516
 H172 H 0.48979 0.54178 0.19409
 C173 C 0.29141 0.34666 0.34630
 C174 C 0.30875 0.36512 0.30474
 C175 C 0.32946 0.33892 0.28854
 C176 C 0.33224 0.29308 0.31249
 C177 C 0.31479 0.27424 0.35333
 C178 C 0.29435 0.30112 0.37186
 N179 N 0.34779 0.36015 0.24958
 N180 N 0.36881 0.34159 0.24254
 C181 C 0.38749 0.36279 0.20476
 C182 C 0.41127 0.34474 0.20775
 C183 C 0.43024 0.36584 0.17380
 C184 C 0.42563 0.40512 0.13541
 C185 C 0.40156 0.42245 0.13126
 C186 C 0.38267 0.40170 0.16601
 H187 H 0.27590 0.36843 0.35893
 H188 H 0.30638 0.40046 0.28639
 H189 H 0.34803 0.27199 0.30021
 H190 H 0.31773 0.23902 0.37158
 H191 H 0.41518 0.31471 0.23739
 H192 H 0.44851 0.35140 0.17771
 H193 H 0.39738 0.45247 0.10192
 H194 H 0.36438 0.41612 0.16273
 C195 C -0.20602 0.84367 0.34614
 C196 C -0.18902 0.86126 0.30305
 C197 C -0.16909 0.83383 0.28426
 C198 C -0.16663 0.78781 0.30791
 C199 C -0.18373 0.76988 0.35050
 C200 C -0.20353 0.79778 0.37095
 N201 N -0.15125 0.85404 0.24286
 N202 N -0.13118 0.83336 0.23023
 C203 C -0.11301 0.85412 0.19028
 C204 C -0.08981 0.83343 0.18707
 C205 C -0.07105 0.85478 0.15251
 C206 C -0.07532 0.89700 0.11973
 C207 C -0.09895 0.91671 0.12102
 C208 C -0.11759 0.89564 0.15633
 H209 H -0.22100 0.86627 0.36027
 H210 H -0.19112 0.89679 0.28511
 H211 H -0.15140 0.76582 0.29388
 H212 H -0.18113 0.73439 0.36817
 H213 H -0.08607 0.80138 0.21290
 H214 H -0.05310 0.83859 0.15222
 H215 H -0.10282 0.94924 0.09642
 H216 H -0.13543 0.91219 0.15784
 C217 C 0.70949 0.66067 0.33869
 C218 C 0.69246 0.64322 0.29580
 C219 C 0.67134 0.66895 0.28178
 C220 C 0.66769 0.71314 0.30998
 C221 C 0.68479 0.73082 0.35244
 C222 C 0.70572 0.70451 0.36787
 N223 N 0.65347 0.64873 0.24081
 N224 N 0.63272 0.66795 0.23200
 C225 C 0.61441 0.64730 0.19277
 C226 C 0.59088 0.66666 0.19283
 C227 C 0.57204 0.64532 0.15894
 C228 C 0.57653 0.60439 0.12370
 C229 C 0.60044 0.58605 0.12182
 C230 C 0.61920 0.60713 0.15639
 H231 H 0.72548 0.63964 0.34940
 H232 H 0.69547 0.60911 0.27437
 H233 H 0.65153 0.73377 0.29979
 H234 H 0.68135 0.76469 0.37409
 H235 H 0.58700 0.69767 0.22060
 H236 H 0.55388 0.66051 0.16107
 H237 H 0.60452 0.55463 0.09509
 H238 H 0.63731 0.59166 0.15541
 C239 C 0.20715 1.15807 0.35242
 C240 C 0.18971 1.13906 0.31179
 C241 C 0.16894 1.16498 0.29539
 C242 C 0.16612 1.21101 0.31861
 C243 C 0.18369 1.23041 0.35853
 C244 C 0.20430 1.20395 0.37687
 N245 N 0.15076 1.14347 0.25640
 N246 N 0.12979 1.16197 0.24826
 C247 C 0.11138 1.14054 0.20998
 C248 C 0.08759 1.15871 0.21150
 C249 C 0.06893 1.13770 0.17656
 C250 C 0.07385 1.09837 0.13860
 C251 C 0.09791 1.08079 0.13612
 C252 C 0.11649 1.10146 0.17183
 H253 H 0.22276 1.13656 0.36496
 H254 H 0.19213 1.10359 0.29405
 H255 H 0.15028 1.23189 0.30623
 H256 H 0.18077 1.26583 0.37601
 H257 H 0.08344 1.18887 0.24062
 H258 H 0.05065 1.15230 0.17926
 H259 H 0.10231 1.05061 0.10733
 H260 H 0.13478 1.08690 0.16968
 C261 C 0.67966 0.25139 -0.36631
 C262 C 0.66062 0.26460 -0.32636
 C263 C 0.66106 0.30850 -0.29666
 C264 C 0.68098 0.33914 -0.30684
 C265 C 0.69991 0.32630 -0.34726
 C266 C 0.69945 0.28236 -0.37805
 N267 N 0.64070 0.32199 -0.25849
 N268 N 0.64117 0.35935 -0.22562
 C269 C 0.62059 0.37461 -0.18954
 C270 C 0.62343 0.41351 -0.15018
 C271 C 0.60345 0.43123 -0.11702
 C272 C 0.58009 0.41058 -0.12329
 C273 C 0.57737 0.37092 -0.16215
 C274 C 0.59748 0.35295 -0.19487
 H275 H 0.67856 0.21726 -0.38892
 H276 H 0.64534 0.24072 -0.31896
 H277 H 0.68170 0.37340 -0.28455
 H278 H 0.71478 0.35113 -0.35474
 H279 H 0.64113 0.43056 -0.14585
 H280 H 0.60625 0.46180 -0.08757
 H281 H 0.55966 0.35413 -0.16790
 H282 H 0.59484 0.32288 -0.22526
 C283 C 0.18205 0.74983 -0.35219
 C284 C 0.16347 0.76641 -0.31321
 C285 C 0.16300 0.81368 -0.29474
 C286 C 0.18169 0.84438 -0.31491
 C287 C 0.20019 0.82806 -0.35471
 C288 C 0.20044 0.78061 -0.37463
 N289 N 0.14275 0.82986 -0.25810
 N290 N 0.14239 0.87036 -0.23246
 C291 C 0.12144 0.88654 -0.19831
 C292 C 0.12368 0.92644 -0.16036
 C293 C 0.10344 0.94346 -0.12734
 C294 C 0.08041 0.92141 -0.13289
 C295 C 0.07821 0.88138 -0.17125
 C296 C 0.09857 0.86389 -0.20332
 H297 H 0.18150 0.71308 -0.36612
 H298 H 0.14915 0.74244 -0.29796
 H299 H 0.18165 0.88119 -0.30132
 H300 H 0.21400 0.85288 -0.37065
 H301 H 0.14118 0.94429 -0.15619
 H302 H 0.10579 0.97420 -0.09805
 H303 H 0.06077 0.86345 -0.17636
 H304 H 0.09634 0.83313 -0.23272
 C305 C 0.31852 0.73485 -0.37264
 C306 C 0.33820 0.72164 -0.33504
 C307 C 0.33771 0.67876 -0.30272
 C308 C 0.31707 0.64914 -0.30791
 C309 C 0.29745 0.66206 -0.34613
 C310 C 0.29804 0.70496 -0.37920
 N311 N 0.35867 0.66551 -0.26676
 N312 N 0.35850 0.62969 -0.23090
 C313 C 0.37969 0.61546 -0.19654
 C314 C 0.37719 0.58012 -0.15144
 C315 C 0.39754 0.56446 -0.11812
 C316 C 0.42099 0.58335 -0.13013
 C317 C 0.42344 0.61909 -0.17535
 C318 C 0.40294 0.63520 -0.20810
 H319 H 0.31962 0.76801 -0.39773
 H320 H 0.35401 0.74469 -0.33150
 H321 H 0.31632 0.61568 -0.28349
 H322 H 0.28194 0.63830 -0.35027
 H323 H 0.35938 0.56463 -0.14215
 H324 H 0.39490 0.53714 -0.08339
 H325 H 0.44119 0.63446 -0.18567
 H326 H 0.40533 0.66249 -0.24302
 C327 C -0.20958 1.15119 -0.34772
 C328 C -0.19279 1.13193 -0.30556
 C329 C -0.17298 1.15889 -0.28416
 C330 C -0.17054 1.20601 -0.30399
 C331 C -0.18738 1.22540 -0.34566
 C332 C -0.20690 1.19803 -0.36872
 N333 N -0.15508 1.13729 -0.24454
 N334 N -0.13527 1.15850 -0.23036
 C335 C -0.11667 1.13748 -0.19250
 C336 C -0.09416 1.16079 -0.18692
 C337 C -0.07495 1.14018 -0.15386
 C338 C -0.07804 1.09595 -0.12496
 C339 C -0.10096 1.07323 -0.12885
 C340 C -0.12010 1.09367 -0.16275
 H341 H -0.22445 1.12923 -0.36447
 H342 H -0.19489 1.09559 -0.29065
 H343 H -0.15544 1.22768 -0.28799
 H344 H -0.18478 1.26156 -0.36086
 H345 H -0.09133 1.19460 -0.20954
 H346 H -0.05760 1.15877 -0.15137
 H347 H -0.10389 1.03913 -0.10714
 H348 H -0.13740 1.07507 -0.16628
 C349 C 0.70871 0.65917 -0.34629
 C350 C 0.69153 0.64135 -0.30377
 C351 C 0.67032 0.66688 -0.28975
 C352 C 0.66672 0.71121 -0.31776
 C353 C 0.68397 0.72927 -0.35986
 C354 C 0.70504 0.70323 -0.37513
 N355 N 0.65245 0.64648 -0.24858
 N356 N 0.63168 0.66558 -0.23932
 C357 C 0.61345 0.64489 -0.19950
 C358 C 0.58996 0.66445 -0.19857
 C359 C 0.57126 0.64346 -0.16346
 C360 C 0.57584 0.60266 -0.12791
 C361 C 0.59970 0.58396 -0.12730
 C362 C 0.61832 0.60471 -0.16307
 H363 H 0.72477 0.63831 -0.35688
 H364 H 0.69453 0.60715 -0.28249
 H365 H 0.65050 0.73171 -0.30759
 H366 H 0.68058 0.76328 -0.38128
 H367 H 0.58600 0.69546 -0.22634
 H368 H 0.55315 0.65890 -0.16472
 H369 H 0.60384 0.55254 -0.10053
 H370 H 0.63637 0.58903 -0.16284
 C371 C 0.20967 1.16331 -0.33939
 C372 C 0.19279 1.14548 -0.29612
 C373 C 0.17124 1.17017 -0.28301
 C374 C 0.16705 1.21382 -0.31230
 C375 C 0.18398 1.23191 -0.35502
 C376 C 0.20531 1.20654 -0.36973
 N377 N 0.15346 1.14949 -0.24196
 N378 N 0.13218 1.16710 -0.23582
 C379 C 0.11381 1.14645 -0.19659
 C380 C 0.08985 1.16334 -0.20069
 C381 C 0.07105 1.14207 -0.16643
 C382 C 0.07599 1.10373 -0.12665
 C383 C 0.10029 1.08798 -0.12080
 C384 C 0.11905 1.10889 -0.15591
 H385 H 0.22598 1.14305 -0.34955
 H386 H 0.19623 1.11181 -0.27383
 H387 H 0.15056 1.23370 -0.30276
 H388 H 0.18009 1.26529 -0.37757
 H389 H 0.08564 1.19237 -0.23177
 H390 H 0.05259 1.15539 -0.17169
 H391 H 0.10475 1.05892 -0.09010
 H392 H 0.13752 1.09548 -0.15169
 C393 C 0.29221 0.34743 -0.34624
 C394 C 0.30936 0.36569 -0.30418
 C395 C 0.33080 0.34073 -0.29075
 C396 C 0.33467 0.29656 -0.31885
 C397 C 0.31746 0.27808 -0.36040
 C398 C 0.29616 0.30351 -0.37509
 N399 N 0.34865 0.36138 -0.24999
 N400 N 0.36967 0.34294 -0.24250
 C401 C 0.38801 0.36325 -0.20302
 C402 C 0.41167 0.34458 -0.20475
 C403 C 0.43042 0.36484 -0.16944
 C404 C 0.42573 0.40397 -0.13094
 C405 C 0.40173 0.42182 -0.12783
 C406 C 0.38304 0.40186 -0.16394
 H407 H 0.27595 0.36780 -0.35643
 H408 H 0.30616 0.39975 -0.28282
 H409 H 0.35106 0.27648 -0.30910
 H410 H 0.32107 0.24419 -0.38183
 H411 H 0.41569 0.31475 -0.23457
 H412 H 0.44863 0.34999 -0.17266
 H413 H 0.39749 0.45176 -0.09851
 H414 H 0.36482 0.41675 -0.16161
 C415 C -0.20698 0.84124 -0.34452
 C416 C -0.18984 0.85904 -0.30218
 C417 C -0.16835 0.83406 -0.28944
 C418 C -0.16445 0.79021 -0.31833
 C419 C -0.18166 0.77214 -0.36021
 C420 C -0.20297 0.79775 -0.37439
 N421 N -0.15048 0.85465 -0.24883
 N422 N -0.12938 0.83650 -0.24142
 C423 C -0.11119 0.85756 -0.20222
 C424 C -0.08738 0.83952 -0.20338
 C425 C -0.06877 0.86108 -0.16885
 C426 C -0.07378 0.90089 -0.13188
 C427 C -0.09792 0.91803 -0.12926
 C428 C -0.11645 0.89674 -0.16441
 H429 H -0.22325 0.86171 -0.35428
 H430 H -0.19306 0.89286 -0.28017
 H431 H -0.14800 0.77015 -0.30909
 H432 H -0.17803 0.73857 -0.38246
 H433 H -0.08312 0.80929 -0.23227
 H434 H -0.05041 0.84682 -0.17162
 H435 H -0.10241 0.94858 -0.10123
 H436 H -0.13476 0.91121 -0.16256
 C437 C 0.28795 0.64596 0.34204
 C438 C 0.30518 0.62786 0.30016
 C439 C 0.32621 0.65385 0.28503
 C440 C 0.32943 0.69914 0.31065
 C441 C 0.31208 0.71752 0.35199
 C442 C 0.29136 0.69079 0.36895
 N443 N 0.34445 0.63283 0.24584
 N444 N 0.36540 0.65186 0.23829
 C445 C 0.38424 0.63109 0.20089
 C446 C 0.40764 0.65115 0.20243
 C447 C 0.42688 0.63077 0.16922
 C448 C 0.42299 0.59003 0.13302
 C449 C 0.39927 0.57056 0.13018
 C450 C 0.38005 0.59072 0.16425
 H451 H 0.27212 0.62460 0.35396
 H452 H 0.30246 0.59296 0.28069
 H453 H 0.34549 0.72004 0.29946
 H454 H 0.31525 0.75211 0.37196
 H455 H 0.41107 0.68229 0.23041
 H456 H 0.44485 0.64698 0.17207
 H457 H 0.39564 0.53941 0.10247
 H458 H 0.36203 0.57471 0.16218
 C459 C -0.17852 1.24594 0.37058
 C460 C -0.15958 1.23245 0.33050
 C461 C -0.16128 1.19044 0.29653
 C462 C -0.18236 1.16214 0.30240
 C463 C -0.20123 1.17537 0.34282
 C464 C -0.19942 1.21724 0.37774
 N465 N -0.14095 1.17632 0.25870
 N466 N -0.14187 1.14015 0.22362
 C467 C -0.12116 1.12474 0.18813
 C468 C -0.12395 1.08673 0.14717
 C469 C -0.10379 1.06908 0.11450
 C470 C -0.08036 1.08896 0.12289
 C471 C -0.07771 1.12771 0.16332
 C472 C -0.09793 1.14555 0.19553
 H473 H -0.17654 1.27833 0.39693
 H474 H -0.14339 1.25446 0.32649
 H475 H -0.18405 1.12939 0.27674
 H476 H -0.21711 1.15257 0.34721
 H477 H -0.14175 1.07034 0.14119
 H478 H -0.10651 1.03926 0.08371
 H479 H -0.05997 1.14397 0.17067
 H480 H -0.09531 1.17493 0.22708
 C481 C 0.70997 0.35016 0.34922
 C482 C 0.69355 0.36970 0.30638
 C483 C 0.67372 0.34315 0.28434
 C484 C 0.67087 0.29612 0.30427
 C485 C 0.68734 0.27643 0.34666
 C486 C 0.70688 0.30343 0.37033
 N487 N 0.65615 0.36515 0.24417
 N488 N 0.63634 0.34428 0.22920
 C489 C 0.61796 0.36570 0.19108
 C490 C 0.59541 0.34267 0.18499
 C491 C 0.57631 0.36376 0.15216
 C492 C 0.57954 0.40820 0.12393
 C493 C 0.60252 0.43061 0.12808
 C494 C 0.62157 0.40968 0.16186
 H495 H 0.72488 0.37183 0.36639
 H496 H 0.69596 0.40597 0.29142
 H497 H 0.65572 0.27476 0.28779
 H498 H 0.68445 0.24036 0.36192
 H499 H 0.59244 0.30874 0.20719
 H500 H 0.55890 0.34539 0.14937
 H501 H 0.60554 0.46485 0.10685
 H502 H 0.63892 0.42805 0.16581
 C503 C 0.17523 0.74547 0.36766
 C504 C 0.15631 0.76081 0.32878
 C505 C 0.15828 0.80387 0.29699
 C506 C 0.17965 0.83118 0.30354
 C507 C 0.19847 0.81611 0.34273
 C508 C 0.19635 0.77336 0.37577
 N509 N 0.13797 0.82014 0.26076
 N510 N 0.13923 0.85766 0.22815
 C511 C 0.11870 0.87539 0.19406
 C512 C 0.12210 0.91411 0.15439
 C513 C 0.10230 0.93338 0.12212
 C514 C 0.07860 0.91452 0.12973
 C515 C 0.07527 0.87543 0.16948
 C516 C 0.09516 0.85591 0.20120
 H517 H 0.17303 0.71245 0.39265
 H518 H 0.13990 0.73950 0.32418
 H519 H 0.18160 0.86464 0.27952
 H520 H 0.21453 0.83832 0.34783
 H521 H 0.14016 0.92951 0.14869
 H522 H 0.10554 0.96333 0.09174
 H523 H 0.05730 0.85990 0.17622
 H524 H 0.09206 0.82608 0.23189
   
