data_POSCAR
  _audit_creation_date              2014-09-24
  _audit_creation_method            'ToBaCCo'
  _symmetry_space_group_name_H-M    'P1'
  _symmetry_Int_Tables_number       1
  _symmetry_cell_setting            triclinic
  loop_
  _symmetry_equiv_pos_as_xyz
 x,y,z
_cell_length_a 28.8439
_cell_length_b 28.7152
_cell_length_c 28.8301
_cell_angle_alpha 89.860300
_cell_angle_beta 89.846400
_cell_angle_gamma 89.750700
loop_
  _atom_site_label
  _atom_site_type_symbol
  _atom_site_fract_x
  _atom_site_fract_y
  _atom_site_fract_z
C1 C 0.69260 0.67433 0.95992
 H2 H 0.72223 0.69709 0.96255
 C3 C 0.65174 0.69011 0.93814
 H4 H 0.65025 0.72514 0.92427
 C5 C 0.65904 0.60013 0.97173
 H6 H 0.66212 0.56460 0.98376
 C7 C 0.61799 0.61441 0.95110
 H8 H 0.58968 0.58987 0.94899
 N9 N 0.69538 0.62977 0.97604
 C10 C 0.82923 0.60079 1.04255
 H11 H 0.82495 0.56423 1.03477
 C12 C 0.86975 0.61559 1.06346
 H13 H 0.89648 0.58994 1.07018
 C14 C 0.79979 0.67783 1.03994
 H15 H 0.77230 0.70177 1.03067
 C16 C 0.83990 0.69425 1.06233
 H17 H 0.84260 0.73091 1.07040
 Zn18 Zn 0.74737 0.59766 1.00122
 N19 N 0.79550 0.63160 1.03049
 C20 C 0.81352 0.58463 0.93288
 N21 N 0.77546 0.56421 0.95195
 C22 C 0.75938 0.52281 0.93583
 C23 C 0.78446 0.49834 0.90212
 C24 C 0.83894 0.56197 0.89860
 C25 C 0.70062 0.58353 1.08175
 C26 C 0.67597 0.56087 1.11653
 C27 C 0.69931 0.48731 1.08319
 C28 C 0.72456 0.51170 1.04962
 N29 N 0.72324 0.55897 1.04855
 H30 H 0.82460 0.61846 0.94473
 H31 H 0.72749 0.50850 0.94931
 H32 H 0.77228 0.46478 0.89031
 H33 H 0.86980 0.57821 0.88460
 H34 H 0.70019 0.62118 1.07998
 H35 H 0.65613 0.58263 1.13990
 H36 H 0.70200 0.44974 1.08301
 H37 H 0.74479 0.49265 1.02445
 C38 C 0.87565 0.66275 1.07451
 C39 C 0.61400 0.65950 0.93290
 C40 C 0.67355 0.51164 1.11744
 C41 C 0.82504 0.51789 0.88372
 C42 C 0.69788 0.32371 0.53908
 H43 H 0.72512 0.29910 0.53087
 C44 C 0.65692 0.30842 0.56105
 H45 H 0.65338 0.27197 0.56990
 C46 C 0.66980 0.40128 0.53948
 H47 H 0.67490 0.43763 0.53110
 C48 C 0.62850 0.38759 0.55992
 H49 H 0.60209 0.41383 0.56568
 N50 N 0.70335 0.36970 0.52890
 C51 C 0.83639 0.40176 0.46159
 H52 H 0.83108 0.43799 0.47036
 C53 C 0.87766 0.38837 0.44075
 H54 H 0.90389 0.41464 0.43519
 C55 C 0.80869 0.32430 0.46079
 H56 H 0.78152 0.29965 0.46851
 C57 C 0.84962 0.30935 0.43837
 H58 H 0.85328 0.27312 0.42878
 Zn59 Zn 0.75281 0.40240 0.50004
 N60 N 0.80299 0.37010 0.47169
 C61 C 0.81147 0.41486 0.57295
 N62 N 0.77976 0.43877 0.54739
 C63 C 0.77036 0.48445 0.55590
 C64 C 0.79555 0.50845 0.58959
 C65 C 0.83713 0.43728 0.60690
 C66 C 0.69292 0.41349 0.42768
 C67 C 0.66687 0.43530 0.39337
 C68 C 0.70896 0.50637 0.40787
 C69 C 0.73455 0.48297 0.44192
 N70 N 0.72502 0.43771 0.45208
 H71 H 0.81765 0.37835 0.56602
 H72 H 0.74339 0.50230 0.53690
 H73 H 0.78813 0.54489 0.59591
 H74 H 0.86324 0.41785 0.62583
 H75 H 0.68676 0.37723 0.43576
 H76 H 0.64042 0.41572 0.37543
 H77 H 0.71637 0.54255 0.40034
 H78 H 0.76189 0.50095 0.45994
 C79 C 0.88475 0.34186 0.42776
 C80 C 0.62150 0.34079 0.57195
 C81 C 0.67421 0.48250 0.38362
 C82 C 0.82979 0.48481 0.61514
 C83 C 0.17342 -0.16506 0.00574
 H84 H 0.18116 -0.17331 -0.02992
 C85 C 0.13100 -0.17921 0.02488
 H86 H 0.10659 -0.19802 0.00354
 C87 C 0.19405 -0.12865 0.07621
 H88 H 0.21788 -0.10801 0.09618
 C89 C 0.15219 -0.14187 0.09652
 H90 H 0.14493 -0.13189 0.13202
 N91 N 0.20285 -0.13793 0.03073
 C92 C 0.32698 -0.09791 -0.04813
 H93 H 0.32023 -0.06134 -0.04202
 C94 C 0.36783 -0.11124 -0.06988
 H95 H 0.39215 -0.08415 -0.07890
 C96 C 0.30420 -0.17645 -0.03876
 H97 H 0.27947 -0.20154 -0.02576
 C98 C 0.34442 -0.19151 -0.06227
 H99 H 0.34947 -0.22839 -0.06794
 Zn100 Zn 0.24877 -0.09963 0.00153
 N101 N 0.29671 -0.13017 -0.03191
 C102 C 0.32124 -0.08051 0.06197
 N103 N 0.27897 -0.06421 0.04839
 C104 C 0.25933 -0.02646 0.06934
 C105 C 0.28400 -0.00156 0.10274
 C106 C 0.34653 -0.05736 0.09573
 C107 C 0.20090 -0.08579 -0.07960
 C108 C 0.17516 -0.06350 -0.11385
 C109 C 0.18747 0.00925 -0.07428
 C110 C 0.21322 -0.01475 -0.04079
 N111 N 0.21803 -0.06177 -0.04308
 H112 H 0.33536 -0.11196 0.04695
 H113 H 0.22435 -0.01603 0.06079
 H114 H 0.26854 0.02882 0.11885
 H115 H 0.38025 -0.07057 0.10594
 H116 H 0.20716 -0.12276 -0.08222
 H117 H 0.16001 -0.08563 -0.13992
 H118 H 0.18622 0.04673 -0.07135
 H119 H 0.22979 0.00465 -0.01362
 C120 C 0.37742 -0.15860 -0.07779
 C121 C 0.11903 -0.16540 0.07007
 C122 C 0.16695 -0.01489 -0.11182
 C123 C 0.32818 -0.01710 0.11582
 C124 C 0.19690 0.17677 0.46212
 H125 H 0.22504 0.20071 0.46820
 C126 C 0.15627 0.19222 0.43965
 H127 H 0.15374 0.22812 0.42843
 C128 C 0.16666 0.10039 0.46671
 H129 H 0.17095 0.06433 0.47676
 C130 C 0.12565 0.11436 0.44588
 H131 H 0.09853 0.08880 0.44170
 N132 N 0.20121 0.13127 0.47488
 C133 C 0.33556 0.09974 0.53898
 H134 H 0.33042 0.06344 0.53061
 C135 C 0.37726 0.11341 0.55820
 H136 H 0.40395 0.08724 0.56291
 C137 C 0.30704 0.17715 0.54009
 H138 H 0.27942 0.20168 0.53299
 C139 C 0.34840 0.19236 0.56108
 H140 H 0.35190 0.22867 0.57034
 Zn141 Zn 0.25134 0.09859 0.50269
 N142 N 0.30157 0.13125 0.52974
 C143 C 0.30990 0.08596 0.42911
 N144 N 0.27795 0.06241 0.45465
 C145 C 0.26802 0.01704 0.44568
 C146 C 0.29312 -0.00717 0.41178
 C147 C 0.33549 0.06333 0.39495
 C148 C 0.19345 0.08715 0.57706
 C149 C 0.16769 0.06489 0.61133
 C150 C 0.20884 -0.00652 0.59413
 C151 C 0.23414 0.01732 0.56015
 N152 N 0.22486 0.06298 0.55129
 H153 H 0.31639 0.12231 0.43625
 H154 H 0.24078 -0.00043 0.46457
 H155 H 0.28535 -0.04342 0.40519
 H156 H 0.36186 0.08239 0.37611
 H157 H 0.18739 0.12366 0.56988
 H158 H 0.14162 0.08446 0.63020
 H159 H 0.21598 -0.04303 0.60050
 H160 H 0.26093 -0.00072 0.54102
 C161 C 0.38418 0.16002 0.57072
 C162 C 0.12005 0.16051 0.43085
 C163 C 0.17461 0.01727 0.61964
 C164 C 0.32781 0.01598 0.38648
 C165 C 0.17571 0.46432 0.19327
 H166 H 0.19973 0.47145 0.22104
 C167 C 0.19107 0.44085 0.15310
 H168 H 0.22699 0.43011 0.15052
 C169 C 0.09932 0.46702 0.16360
 H170 H 0.06331 0.47674 0.16794
 C171 C 0.11314 0.44497 0.12310
 H172 H 0.08748 0.43948 0.09637
 N173 N 0.13026 0.47668 0.19765
 C174 C 0.09950 0.54245 0.33199
 H175 H 0.06330 0.53417 0.32719
 C176 C 0.11359 0.56189 0.37357
 H177 H 0.08781 0.56703 0.40042
 C178 C 0.17631 0.54285 0.30297
 H179 H 0.20049 0.53539 0.27525
 C180 C 0.19198 0.56382 0.34423
 H181 H 0.22825 0.57265 0.34753
 Zn182 Zn 0.09774 0.50508 0.24777
 N183 N 0.13051 0.53280 0.29778
 C184 C 0.08676 0.43095 0.30627
 N185 N 0.06249 0.45674 0.27499
 C186 C 0.01711 0.44775 0.26599
 C187 C -0.00626 0.41342 0.29128
 C188 C 0.06497 0.39635 0.33201
 C189 C 0.08297 0.57834 0.18800
 C190 C 0.05935 0.61269 0.16334
 C191 C -0.00899 0.59656 0.20919
 C192 C 0.01620 0.56258 0.23336
 N193 N 0.06094 0.55317 0.22136
 H194 H 0.12305 0.43821 0.31207
 H195 H -0.00101 0.46699 0.23935
 H196 H -0.04250 0.40682 0.28426
 H197 H 0.08464 0.37735 0.35786
 H198 H 0.11884 0.57085 0.17978
 H199 H 0.07718 0.63122 0.13587
 H200 H -0.04476 0.60334 0.21855
 H201 H -0.00006 0.54389 0.26154
 C202 C 0.16018 0.57388 0.38024
 C203 C 0.15929 0.43043 0.11744
 C204 C 0.01257 0.62166 0.17330
 C205 C 0.01771 0.38770 0.32520
 C206 C -0.16617 0.01110 0.17610
 H207 H -0.17387 -0.02490 0.18401
 C208 C -0.18296 0.03128 0.13493
 H209 H -0.20385 0.01012 0.11215
 C210 C -0.12535 0.08000 0.19384
 H211 H -0.10162 0.09880 0.21565
 C212 C -0.14030 0.10096 0.15295
 H213 H -0.12952 0.13637 0.14603
 N214 N -0.13677 0.03520 0.20389
 C215 C -0.09741 -0.03582 0.33275
 H216 H -0.06144 -0.02628 0.32839
 C217 C -0.11126 -0.05735 0.37357
 H218 H -0.08563 -0.06256 0.40043
 C219 C -0.17385 -0.03793 0.30321
 H220 H -0.19800 -0.02990 0.27566
 C221 C -0.18921 -0.06096 0.34363
 H222 H -0.22520 -0.07106 0.34642
 Zn223 Zn -0.09831 0.00469 0.24834
 N224 N -0.12835 -0.02633 0.29852
 C225 C -0.08484 0.07826 0.30671
 N226 N -0.06112 0.04992 0.27730
 C227 C -0.01429 0.05271 0.27263
 C228 C 0.01048 0.08566 0.29816
 C229 C -0.06161 0.11120 0.33298
 C230 C -0.03851 -0.02516 0.17655
 C231 C -0.01568 -0.05798 0.14875
 C232 C -0.04060 -0.11821 0.20177
 C233 C -0.06301 -0.08446 0.22829
 N234 N -0.06186 -0.03896 0.21527
 H235 H -0.12200 0.07459 0.31021
 H236 H 0.00385 0.02925 0.24954
 H237 H 0.04768 0.08803 0.29375
 H238 H -0.08124 0.13264 0.35690
 H239 H -0.03878 0.01119 0.16657
 H240 H 0.00173 -0.04666 0.11740
 H241 H -0.04187 -0.15419 0.21301
 H242 H -0.08224 -0.09497 0.25871
 C243 C -0.15747 -0.07127 0.37949
 C244 C -0.16779 0.07606 0.12134
 C245 C -0.01728 -0.10534 0.16092
 C246 C -0.01333 0.11541 0.32886
 C247 C 0.32373 0.53763 0.69454
 H248 H 0.29911 0.52968 0.72171
 C249 C 0.30868 0.55935 0.65326
 H250 H 0.27242 0.56833 0.64947
 C251 C 0.40108 0.53774 0.66697
 H252 H 0.43727 0.52945 0.67239
 C253 C 0.38759 0.55768 0.62531
 H254 H 0.41384 0.56302 0.59899
 N255 N 0.36952 0.52746 0.70045
 C256 C 0.40010 0.45986 0.83397
 H257 H 0.43620 0.46874 0.82924
 C258 C 0.38620 0.43913 0.87512
 H259 H 0.41197 0.43373 0.90181
 C260 C 0.32340 0.45897 0.80504
 H261 H 0.29922 0.46671 0.77748
 C262 C 0.30795 0.43661 0.84583
 H263 H 0.27184 0.42703 0.84898
 Zn264 Zn 0.40182 0.49879 0.75048
 N265 N 0.36905 0.46989 0.80002
 C266 C 0.41288 0.57178 0.81006
 N267 N 0.43714 0.54654 0.77831
 C268 C 0.48271 0.55521 0.76970
 C269 C 0.50626 0.58858 0.79579
 C270 C 0.43483 0.60553 0.83651
 C271 C 0.41547 0.42688 0.68997
 C272 C 0.43852 0.39343 0.66374
 C273 C 0.50801 0.40848 0.70780
 C274 C 0.48338 0.44166 0.73354
 N275 N 0.43832 0.45121 0.72313
 H276 H 0.37648 0.56473 0.81565
 H277 H 0.50086 0.53655 0.74268
 H278 H 0.54263 0.59500 0.78903
 H279 H 0.41514 0.62435 0.86250
 H280 H 0.37938 0.43443 0.68306
 H281 H 0.41999 0.37553 0.63650
 H282 H 0.54399 0.40142 0.71595
 H283 H 0.50029 0.45953 0.76168
 C284 C 0.33981 0.42609 0.88154
 C285 C 0.34103 0.56989 0.61790
 C286 C 0.48555 0.38439 0.67202
 C287 C 0.48224 0.61377 0.83001
 C288 C 0.67873 0.95768 0.69257
 H289 H 0.70326 0.96513 0.71977
 C290 C 0.69375 0.93562 0.65151
 H291 H 0.72987 0.92593 0.64787
 C292 C 0.60169 0.95927 0.66457
 H293 H 0.56566 0.96847 0.66966
 C294 C 0.61514 0.93878 0.62319
 H295 H 0.58907 0.93379 0.59677
 N296 N 0.63312 0.96884 0.69817
 C297 C 0.60112 1.04215 0.82801
 H298 H 0.56477 1.03697 0.82068
 C299 C 0.61371 1.06279 0.86943
 H300 H 0.58589 1.07105 0.89320
 C301 C 0.67951 1.03179 0.80632
 H302 H 0.70493 1.01950 0.78159
 C303 C 0.69400 1.05312 0.84782
 H304 H 0.73077 1.05765 0.85313
 Zn305 Zn 0.60101 0.99818 0.74789
 N306 N 0.63350 1.02676 0.79746
 C307 C 0.58533 0.92848 0.81102
 N308 N 0.56403 0.95162 0.77579
 C309 C 0.51995 0.94109 0.76286
 C310 C 0.49466 0.90786 0.78773
 C311 C 0.56164 0.89488 0.83637
 C312 C 0.58935 1.07172 0.68833
 C313 C 0.56691 1.10591 0.66245
 C314 C 0.49612 1.08886 0.70411
 C315 C 0.52007 1.05490 0.72940
 N316 N 0.56558 1.04623 0.72018
 H317 H 0.62076 0.93667 0.81990
 H318 H 0.50432 0.95830 0.73341
 H319 H 0.45945 0.89998 0.77757
 H320 H 0.57890 0.87764 0.86502
 H321 H 0.62569 1.06451 0.68220
 H322 H 0.58616 1.12478 0.63620
 H323 H 0.45984 1.09532 0.71150
 H324 H 0.50227 1.03572 0.75628
 C325 C 0.66080 1.06952 0.88047
 C326 C 0.66151 0.92566 0.61612
 C327 C 0.51956 1.11438 0.66974
 C328 C 0.51557 0.88466 0.82521
 C329 C 0.03849 0.19626 -0.17028
 H330 H 0.03575 0.22628 -0.19282
 C331 C 0.06037 0.15527 -0.18619
 H332 H 0.07436 0.15414 -0.22104
 C333 C 0.02664 0.16169 -0.09659
 H334 H 0.01459 0.16439 -0.06119
 C335 C 0.04697 0.12041 -0.11112
 H336 H 0.04871 0.09158 -0.08690
 N337 N 0.02237 0.19861 -0.12587
 C338 C -0.04475 0.33288 -0.09607
 H339 H -0.03727 0.32794 -0.05963
 C340 C -0.06517 0.37413 -0.11067
 H341 H -0.07188 0.40072 -0.08497
 C342 C -0.04180 0.30439 -0.17299
 H343 H -0.03254 0.27701 -0.19699
 C344 C -0.06370 0.34530 -0.18923
 H345 H -0.07146 0.34866 -0.22578
 Zn346 Zn -0.00391 0.24996 -0.09335
 N347 N -0.03282 0.29921 -0.12690
 C348 C 0.06559 0.31412 -0.08101
 N349 N 0.04485 0.27768 -0.05909
 C350 C 0.05938 0.26319 -0.01651
 C351 C 0.09340 0.28826 0.00720
 C352 C 0.10019 0.33941 -0.05911
 C353 C -0.08305 0.20050 -0.08216
 C354 C -0.11715 0.17362 -0.06109
 C355 C -0.08742 0.19685 0.01352
 C356 C -0.05438 0.22419 -0.00929
 N357 N -0.05174 0.22402 -0.05633
 H358 H 0.05485 0.32396 -0.11557
 H359 H 0.04483 0.23231 -0.00089
 H360 H 0.10415 0.27719 0.04148
 H361 H 0.11563 0.36890 -0.07674
 H362 H -0.08007 0.20095 -0.11958
 H363 H -0.13877 0.15321 -0.08380
 H364 H -0.08858 0.19870 0.05097
 H365 H -0.03088 0.24510 0.01079
 C366 C -0.07585 0.38093 -0.15768
 C367 C 0.06545 0.11688 -0.15596
 C368 C -0.11954 0.17002 -0.01217
 C369 C 0.11374 0.32712 -0.01416
 C370 C 0.46108 0.19355 0.17671
 H371 H 0.46920 0.22103 0.20085
 C372 C 0.43820 0.15310 0.19231
 H373 H 0.42872 0.15011 0.22853
 C374 C 0.46133 0.16458 0.09991
 H375 H 0.47014 0.16919 0.06372
 C376 C 0.44000 0.12378 0.11394
 H377 H 0.43412 0.09715 0.08815
 N378 N 0.47200 0.19834 0.13095
 C379 C 0.53976 0.33150 0.09912
 H380 H 0.53063 0.32713 0.06305
 C381 C 0.56078 0.37246 0.11304
 H382 H 0.56613 0.39946 0.08736
 C383 C 0.54124 0.30177 0.17575
 H384 H 0.53375 0.27392 0.19987
 C385 C 0.56374 0.34234 0.19121
 H386 H 0.57355 0.34513 0.22730
 Zn387 Zn 0.50115 0.24751 0.09789
 N388 N 0.52991 0.29727 0.13015
 C389 C 0.42806 0.30729 0.08542
 N390 N 0.45362 0.27522 0.06185
 C391 C 0.44464 0.26528 0.01663
 C392 C 0.41044 0.29024 -0.00730
 C393 C 0.39354 0.33271 0.06305
 C394 C 0.57250 0.18534 0.08526
 C395 C 0.60603 0.15882 0.06259
 C396 C 0.59166 0.20342 -0.00713
 C397 C 0.55841 0.22943 0.01709
 N398 N 0.54854 0.21897 0.06210
 H399 H 0.43531 0.31384 0.12160
 H400 H 0.46363 0.23802 -0.00090
 H401 H 0.40382 0.28241 -0.04340
 H402 H 0.37458 0.35909 0.08216
 H403 H 0.56468 0.17838 0.12132
 H404 H 0.62371 0.13130 0.08134
 H405 H 0.59900 0.21171 -0.04307
 H406 H 0.54071 0.25782 -0.00008
 C407 C 0.57412 0.37833 0.15940
 C408 C 0.42709 0.11755 0.16047
 C409 C 0.61545 0.16722 0.01562
 C410 C 0.38481 0.32480 0.01595
 C411 C 0.96208 0.69606 0.67696
 H412 H 0.96907 0.72375 0.70122
 C413 C 0.94007 0.65499 0.69223
 H414 H 0.93005 0.65178 0.72828
 C415 C 0.96428 0.66711 0.60019
 H416 H 0.97349 0.67195 0.56413
 C417 C 0.94391 0.62568 0.61393
 H418 H 0.93910 0.59889 0.58808
 N419 N 0.97351 0.70119 0.63136
 C420 C 1.03945 0.83583 0.60100
 H421 H 1.03109 0.83131 0.56475
 C422 C 1.05965 0.87707 0.61529
 H423 H 1.06524 0.90407 0.58966
 C424 C 1.03980 0.80617 0.67767
 H425 H 1.03221 0.77825 0.70167
 C426 C 1.06150 0.84704 0.69352
 H427 H 1.07066 0.84991 0.72977
 Zn428 Zn 1.00194 0.75137 0.59897
 N429 N 1.02945 0.80147 0.63185
 C430 C 0.92898 0.81108 0.58501
 N431 N 0.95461 0.77846 0.56228
 C432 C 0.94619 0.76791 0.51708
 C433 C 0.91264 0.79285 0.49225
 C434 C 0.89505 0.83644 0.56176
 C435 C 1.07465 0.69095 0.58650
 C436 C 1.10834 0.66483 0.56366
 C437 C 1.09314 0.70927 0.49400
 C438 C 1.05975 0.73489 0.51840
 N439 N 1.05015 0.72420 0.56342
 H440 H 0.93574 0.81812 0.62120
 H441 H 0.96524 0.74024 0.50023
 H442 H 0.90646 0.78457 0.45617
 H443 H 0.87594 0.86319 0.58021
 H444 H 1.06698 0.68379 0.62256
 H445 H 1.12633 0.63743 0.58230
 H446 H 1.10014 0.71758 0.45800
 H447 H 1.04159 0.76302 0.50131
 C448 C 1.07204 0.88315 0.66188
 C449 C 0.93040 0.61913 0.66025
 C450 C 1.11736 0.67330 0.51662
 C451 C 0.88700 0.82791 0.51464
 C452 C 0.53959 0.69338 0.32157
 H453 H 0.53156 0.72069 0.29701
 C454 C 0.56149 0.65212 0.30640
 H455 H 0.57052 0.64844 0.27014
 C456 C 0.53967 0.66535 0.39884
 H457 H 0.53127 0.67055 0.43503
 C458 C 0.55994 0.62375 0.38525
 H459 H 0.56554 0.59723 0.41140
 N460 N 0.52936 0.69906 0.36737
 C461 C 0.45642 0.82940 0.40017
 H462 H 0.46272 0.82233 0.43648
 C463 C 0.43484 0.87070 0.38763
 H464 H 0.42700 0.89475 0.41534
 C465 C 0.46459 0.80700 0.32177
 H466 H 0.47628 0.78198 0.29634
 C467 C 0.44237 0.84838 0.30734
 H468 H 0.43662 0.85336 0.27064
 Zn469 Zn 0.50059 0.74890 0.39991
 N470 N 0.47109 0.79854 0.36774
 C471 C 0.57124 0.81095 0.41243
 N472 N 0.54782 0.77699 0.43546
 C473 C 0.55866 0.76538 0.47993
 C474 C 0.59254 0.79042 0.50378
 C475 C 0.60553 0.83638 0.43466
 C476 C 0.42810 0.68917 0.41253
 C477 C 0.39433 0.66309 0.43508
 C478 C 0.41159 0.70434 0.50590
 C479 C 0.44516 0.72985 0.48182
 N480 N 0.45353 0.72091 0.43622
 H481 H 0.56270 0.81879 0.37675
 H482 H 0.54134 0.73674 0.49693
 H483 H 0.60063 0.78132 0.53934
 H484 H 0.62300 0.86405 0.41604
 H485 H 0.43496 0.68332 0.37610
 H486 H 0.37552 0.63696 0.41582
 H487 H 0.40532 0.71154 0.54224
 H488 H 0.46417 0.75673 0.49956
 C489 C 0.42654 0.88127 0.34058
 C490 C 0.57222 0.61664 0.33870
 C491 C 0.38612 0.67010 0.48249
 C492 C 0.61605 0.82667 0.48108
 C493 C 0.36427 -0.01426 0.19350
 C494 C 0.39023 0.00848 0.22733
 C495 C 0.40969 0.05240 0.21769
 C496 C 0.40255 0.07382 0.17419
 C497 C 0.37320 0.05163 0.14205
 C498 C 0.35507 0.00750 0.15123
 C499 C 0.39024 -0.01108 0.27451
 C500 C 0.40964 -0.05513 0.28411
 C501 C 0.40396 -0.07608 0.32829
 C502 C 0.37532 -0.05256 0.36087
 C503 C 0.35618 -0.00867 0.35135
 C504 C 0.36452 0.01212 0.30839
 H505 H 0.34917 -0.04800 0.20094
 H506 H 0.43061 0.06922 0.24383
 H507 H 0.43014 -0.07163 0.25729
 H508 H 0.34866 0.04545 0.30022
 H509 H 0.36512 0.06796 0.10914
 H510 H 0.36679 -0.06823 0.39389
 C511 C 0.13588 1.01377 0.69702
 C512 C 0.10812 0.99131 0.72986
 C513 C 0.08812 0.94795 0.71939
 C514 C 0.09603 0.92700 0.67589
 C515 C 0.12614 0.94933 0.64430
 C516 C 0.14546 0.99286 0.65428
 C517 C 0.10688 1.01024 0.77724
 C518 C 0.08596 1.05334 0.78691
 C519 C 0.09104 1.07359 0.83085
 C520 C 0.11942 1.05117 0.86397
 C521 C 0.14052 1.00742 0.85532
 C522 C 0.13310 0.98752 0.81119
 H523 H 0.15199 1.04663 0.70579
 H524 H 0.06633 0.93107 0.74497
 H525 H 0.06549 1.07059 0.76046
 H526 H 0.15106 0.95617 0.80059
 H527 H 0.13411 0.93330 0.61127
 H528 H 0.12275 1.06748 0.89746
 C529 C 0.63570 0.51017 0.19236
 C530 C 0.60884 0.48742 0.22570
 C531 C 0.58986 0.44360 0.21606
 C532 C 0.59838 0.42213 0.17309
 C533 C 0.62869 0.44409 0.14136
 C534 C 0.64679 0.48904 0.14961
 C535 C 0.60845 0.50675 0.27291
 C536 C 0.58851 0.55056 0.28243
 C537 C 0.59617 0.57230 0.32550
 C538 C 0.62609 0.55035 0.35755
 C539 C 0.64517 0.50635 0.34858
 C540 C 0.63571 0.48458 0.30637
 H541 H 0.65174 0.54258 0.20254
 H542 H 0.56834 0.42673 0.24189
 H543 H 0.56713 0.56725 0.25637
 H544 H 0.65188 0.45139 0.29835
 H545 H 0.63562 0.42683 0.10884
 H546 H 0.63413 0.56704 0.39015
 C547 C 0.86634 0.48784 0.69320
 C548 C 0.89265 0.51024 0.72698
 C549 C 0.91270 0.55384 0.71726
 C550 C 0.90620 0.57506 0.67356
 C551 C 0.87723 0.55281 0.64108
 C552 C 0.85798 0.50905 0.65036
 C553 C 0.89152 0.49100 0.77430
 C554 C 0.91002 0.44663 0.78457
 C555 C 0.90090 0.42535 0.82781
 C556 C 0.87058 0.44820 0.85892
 C557 C 0.85335 0.49278 0.84924
 C558 C 0.86455 0.51427 0.80727
 H559 H 0.85006 0.45484 0.70139
 H560 H 0.93338 0.57071 0.74356
 H561 H 0.93157 0.42930 0.75906
 H562 H 0.84998 0.54820 0.79914
 H563 H 0.87007 0.56909 0.60795
 H564 H 0.86101 0.43198 0.89148
 C565 C 0.19190 0.36297 -0.01197
 C566 C 0.22585 0.38955 0.00990
 C567 C 0.21630 0.41050 0.05304
 C568 C 0.17267 0.40454 0.07442
 C569 C 0.14019 0.37491 0.05301
 C570 C 0.14931 0.35493 0.00967
 C571 C 0.27296 0.38889 -0.00979
 C572 C 0.28273 0.40884 -0.05339
 C573 C 0.32630 0.40168 -0.07457
 C574 C 0.35860 0.37214 -0.05227
 C575 C 0.34936 0.35305 -0.00846
 C576 C 0.30659 0.36200 0.01269
 H577 H 0.19951 0.34655 -0.04498
 H578 H 0.24258 0.43171 0.06930
 H579 H 0.25663 0.43015 -0.07019
 H580 H 0.29847 0.34605 0.04585
 H581 H 0.10708 0.36805 0.06939
 H582 H 0.39166 0.36456 -0.06849
 C583 C 0.69270 0.12851 1.01183
 C584 C 0.72646 0.10254 0.98855
 C585 C 0.71699 0.08411 0.94437
 C586 C 0.67312 0.09109 0.92333
 C587 C 0.64085 0.12012 0.94695
 C588 C 0.65017 0.13820 0.99099
 C589 C 0.77360 0.10206 1.00813
 C590 C 0.78195 0.08370 1.05248
 C591 C 0.82300 0.09451 1.07645
 C592 C 0.85551 0.12414 1.05442
 C593 C 0.84856 0.14181 1.00905
 C594 C 0.80707 0.12951 0.98640
 H595 H 0.70076 0.14373 1.04522
 H596 H 0.74367 0.06347 0.92775
 H597 H 0.75482 0.06385 1.06934
 H598 H 0.79761 0.14540 0.95367
 H599 H 0.60825 0.12984 0.93124
 H600 H 0.88852 0.12962 1.07111
 C601 C 0.19435 0.63403 0.51257
 C602 C 0.22750 0.60706 0.48950
 C603 C 0.21741 0.58830 0.44557
 C604 C 0.17400 0.59676 0.42469
 C605 C 0.14224 0.62640 0.44767
 C606 C 0.15187 0.64438 0.49172
 C607 C 0.27477 0.60621 0.50854
 C608 C 0.28442 0.58646 0.55227
 C609 C 0.32786 0.59353 0.57343
 C610 C 0.36017 0.62271 0.55084
 C611 C 0.35105 0.64156 0.50691
 C612 C 0.30844 0.63267 0.48586
 H613 H 0.20280 0.64930 0.54585
 H614 H 0.24322 0.56708 0.42819
 H615 H 0.25817 0.56566 0.56932
 H616 H 0.30027 0.64876 0.45279
 H617 H 0.10938 0.63508 0.43172
 H618 H 0.39304 0.63047 0.56702
 C619 C 0.69382 0.86392 0.48382
 C620 C 0.72755 0.89014 0.50645
 C621 C 0.71799 0.90939 0.55034
 C622 C 0.67467 0.90201 0.57181
 C623 C 0.64236 0.87294 0.54945
 C624 C 0.65135 0.85466 0.50533
 C625 C 0.77479 0.89011 0.48711
 C626 C 0.78486 0.91030 0.44370
 C627 C 0.82888 0.90396 0.42315
 C628 C 0.86137 0.87495 0.44591
 C629 C 0.85171 0.85564 0.48955
 C630 C 0.80852 0.86380 0.51003
 H631 H 0.70170 0.84846 0.45042
 H632 H 0.74418 0.93020 0.56725
 H633 H 0.75865 0.93125 0.42662
 H634 H 0.80020 0.84766 0.54305
 H635 H 0.60953 0.86503 0.56589
 H636 H 0.89481 0.86795 0.43024
 C637 C -0.00881 0.19468 0.36355
 C638 C 0.01335 0.22840 0.39016
 C639 C 0.05617 0.21824 0.41120
 C640 C 0.07667 0.17393 0.40578
 C641 C 0.05433 0.14101 0.37725
 C642 C 0.01136 0.15085 0.35671
 C643 C -0.00623 0.27573 0.38995
 C644 C -0.04960 0.28534 0.41035
 C645 C -0.07131 0.32883 0.40325
 C646 C -0.04964 0.36134 0.37353
 C647 C -0.00603 0.35221 0.35390
 C648 C 0.01557 0.30942 0.36267
 H649 H -0.04109 0.20352 0.34640
 H650 H 0.07287 0.24459 0.43205
 H651 H -0.06592 0.25908 0.43181
 H652 H 0.04847 0.30126 0.34623
 H653 H 0.06996 0.10719 0.37148
 H654 H -0.06623 0.39439 0.36612
 C655 C 1.00711 0.69920 0.13449
 C656 C 0.98381 0.73183 0.10693
 C657 C 0.93999 0.72109 0.08855
 C658 C 0.91939 0.67761 0.09794
 C659 C 0.94253 0.64645 0.12810
 C660 C 0.98668 0.65651 0.14548
 C661 C 1.00392 0.77870 0.10241
 C662 C 1.04863 0.78491 0.08396
 C663 C 1.07134 0.82786 0.08854
 C664 C 1.04884 0.86443 0.11228
 C665 C 1.00438 0.85831 0.13130
 C666 C 0.98174 0.81568 0.12490
 H667 H 1.04062 0.70790 0.14898
 H668 H 0.92278 0.74619 0.06635
 H669 H 1.06636 0.75578 0.06783
 H670 H 0.94765 0.81021 0.13980
 H671 H 0.92689 0.61347 0.13722
 H672 H 1.06644 0.89732 0.11699
 C673 C 0.51609 0.19250 0.63224
 C674 C 0.49327 0.22643 0.60599
 C675 C 0.44954 0.21687 0.58668
 C676 C 0.42855 0.17319 0.59395
 C677 C 0.45124 0.14059 0.62287
 C678 C 0.49514 0.14968 0.64133
 C679 C 0.51230 0.27382 0.60645
 C680 C 0.55609 0.28381 0.58727
 C681 C 0.57717 0.32724 0.59536
 C682 C 0.55444 0.35920 0.62498
 C683 C 0.51042 0.34969 0.64329
 C684 C 0.48946 0.30711 0.63341
 H685 H 0.54919 0.20062 0.64798
 H686 H 0.43237 0.24332 0.56605
 H687 H 0.57320 0.25786 0.56601
 H688 H 0.45625 0.29870 0.64897
 H689 H 0.43513 0.10751 0.63070
 H690 H 0.57051 0.39210 0.63336
 C691 C 0.48509 0.69252 0.86564
 C692 C 0.50724 0.72669 0.89178
 C693 C 0.55028 0.71696 0.91265
 C694 C 0.57085 0.67268 0.90761
 C695 C 0.54883 0.63949 0.87927
 C696 C 0.50591 0.64908 0.85860
 C697 C 0.48802 0.77416 0.89035
 C698 C 0.44387 0.78436 0.90869
 C699 C 0.42232 0.82764 0.89948
 C700 C 0.44534 0.85918 0.86962
 C701 C 0.49006 0.84976 0.85290
 C702 C 0.51124 0.80732 0.86372
 H703 H 0.45259 0.70076 0.84859
 H704 H 0.56718 0.74356 0.93302
 H705 H 0.42696 0.75855 0.93017
 H706 H 0.54501 0.79900 0.84925
 H707 H 0.56471 0.60569 0.87376
 H708 H 0.42917 0.89176 0.85978
   
