data_POSCAR
  _audit_creation_date              2014-09-24
  _audit_creation_method            'ToBaCCo'
  _symmetry_space_group_name_H-M    'P1'
  _symmetry_Int_Tables_number       1
  _symmetry_cell_setting            triclinic
  loop_
  _symmetry_equiv_pos_as_xyz
 x,y,z
_cell_length_a 48.9544
_cell_length_b 54.2986
_cell_length_c 50.6091
_cell_angle_alpha 89.606300
_cell_angle_beta 91.139500
_cell_angle_gamma 88.535000
loop_
  _atom_site_label
  _atom_site_type_symbol
  _atom_site_fract_x
  _atom_site_fract_y
  _atom_site_fract_z
C1 C 0.20788 0.19402 0.22284
 C2 C 0.22093 0.20325 0.20048
 C3 C 0.24089 0.18903 0.18837
 C4 C 0.24779 0.16542 0.19803
 C5 C 0.23478 0.15625 0.21980
 C6 C 0.21483 0.17067 0.23235
 C7 C 0.18838 0.20379 0.23937
 N8 N 0.18349 0.18688 0.25859
 C9 C 0.19953 0.16663 0.25433
 C10 C 0.24577 0.13309 0.22497
 N11 N 0.26514 0.12802 0.20672
 C12 C 0.26655 0.14775 0.19027
 C13 C 0.25066 0.20262 0.16781
 N14 N 0.23697 0.22461 0.16681
 C15 C 0.21874 0.22529 0.18676
 H16 H 0.17877 0.22189 0.23749
 H17 H 0.20019 0.15018 0.26658
 H18 H 0.24031 0.12118 0.24113
 H19 H 0.28037 0.14917 0.17392
 H20 H 0.26659 0.19693 0.15444
 H21 H 0.20529 0.24075 0.19130
 C22 C 0.69499 0.70319 0.72345
 C23 C 0.70993 0.71352 0.70288
 C24 C 0.73324 0.70139 0.69413
 C25 C 0.74168 0.67877 0.70534
 C26 C 0.72679 0.66844 0.72527
 C27 C 0.70339 0.68076 0.73445
 C28 C 0.67197 0.71092 0.73664
 N29 N 0.66639 0.69369 0.75532
 C30 C 0.68538 0.67517 0.75392
 C31 C 0.73964 0.64647 0.73228
 N32 N 0.76194 0.64324 0.71694
 C33 C 0.76339 0.66298 0.70053
 C34 C 0.74383 0.71544 0.67439
 N35 N 0.72742 0.73566 0.67055
 C36 C 0.70661 0.73480 0.68794
 H37 H 0.66026 0.72777 0.73280
 H38 H 0.68620 0.65892 0.76648
 H39 H 0.73326 0.63404 0.74764
 H40 H 0.77909 0.66558 0.68607
 H41 H 0.76200 0.71113 0.66328
 H42 H 0.69042 0.74859 0.68974
 C43 C 0.31538 0.79128 0.71732
 C44 C 0.30121 0.78135 0.69568
 C45 C 0.28183 0.79561 0.68196
 C46 C 0.27642 0.81998 0.68955
 C47 C 0.29052 0.82986 0.71072
 C48 C 0.31012 0.81539 0.72475
 C49 C 0.33507 0.78165 0.73450
 N50 N 0.34181 0.79934 0.75223
 C51 C 0.32673 0.82003 0.74630
 C52 C 0.28078 0.85365 0.71381
 N53 N 0.26092 0.85837 0.69504
 C54 C 0.25824 0.83783 0.68016
 C55 C 0.27130 0.78135 0.66207
 N56 N 0.28386 0.75871 0.66335
 C57 C 0.30218 0.75860 0.68385
 H58 H 0.34391 0.76321 0.73381
 H59 H 0.32775 0.83720 0.75698
 H60 H 0.28742 0.86613 0.72905
 H61 H 0.24382 0.83591 0.66383
 H62 H 0.25587 0.78733 0.64768
 H63 H 0.31531 0.74307 0.68966
 C64 C 0.85138 0.29776 0.22318
 C65 C 0.83579 0.29390 0.20028
 C66 C 0.81156 0.30702 0.19574
 C67 C 0.80319 0.32501 0.21397
 C68 C 0.81870 0.32878 0.23678
 C69 C 0.84287 0.31480 0.24159
 C70 C 0.87474 0.28630 0.23290
 N71 N 0.88068 0.29559 0.25705
 C72 C 0.86134 0.31326 0.26258
 C73 C 0.80571 0.34712 0.25077
 N74 N 0.78306 0.35492 0.23692
 C75 C 0.78116 0.34131 0.21449
 C76 C 0.79997 0.29778 0.17283
 N77 N 0.81691 0.27963 0.16368
 C78 C 0.83890 0.27738 0.18018
 H79 H 0.88615 0.27157 0.22342
 H80 H 0.86032 0.32392 0.28052
 H81 H 0.81253 0.35464 0.26946
 H82 H 0.76505 0.34306 0.19960
 H83 H 0.78061 0.30353 0.16378
 H84 H 0.85544 0.26393 0.17821
 C85 C 0.80796 0.73775 0.27530
 C86 C 0.79643 0.73864 0.30036
 C87 C 0.77657 0.72219 0.30729
 C88 C 0.76844 0.70412 0.28910
 C89 C 0.77992 0.70341 0.26428
 C90 C 0.79969 0.72037 0.25732
 C91 C 0.82754 0.75153 0.26347
 N92 N 0.83138 0.74300 0.23863
 C93 C 0.81435 0.72383 0.23469
 C94 C 0.76866 0.68417 0.25083
 N95 N 0.75086 0.67286 0.26677
 C96 C 0.75042 0.68497 0.29026
 C97 C 0.76897 0.72798 0.33275
 N98 N 0.78397 0.74732 0.34111
 C99 C 0.80088 0.75374 0.32153
 H100 H 0.83828 0.76670 0.27233
 H101 H 0.81266 0.71293 0.21697
 H102 H 0.77337 0.67851 0.23091
 H103 H 0.73799 0.68032 0.30692
 H104 H 0.75396 0.71867 0.34434
 H105 H 0.81519 0.76861 0.32255
 C106 C 0.31607 0.25447 -0.22678
 C107 C 0.30281 0.25983 -0.20316
 C108 C 0.28171 0.24544 -0.19503
 C109 C 0.27353 0.22549 -0.21041
 C110 C 0.28660 0.22000 -0.23375
 C111 C 0.30817 0.23472 -0.24208
 C112 C 0.33732 0.26542 -0.23918
 N113 N 0.34275 0.25300 -0.26172
 C114 C 0.32497 0.23410 -0.26373
 C115 C 0.27428 0.19946 -0.24413
 N116 N 0.25412 0.19257 -0.22755
 C117 C 0.25365 0.20848 -0.20701
 C118 C 0.27273 0.25478 -0.17143
 N119 N 0.28800 0.27455 -0.16504
 C120 C 0.30637 0.27778 -0.18441
 H121 H 0.34817 0.28133 -0.23221
 H122 H 0.32418 0.22078 -0.27950
 H123 H 0.27975 0.19042 -0.26232
 H124 H 0.23983 0.20766 -0.19058
 H125 H 0.25620 0.24766 -0.16003
 H126 H 0.32130 0.29215 -0.18478
 C127 C 0.66810 0.27279 -0.20630
 C128 C 0.68154 0.26380 -0.18341
 C129 C 0.70644 0.27307 -0.17590
 C130 C 0.71822 0.29148 -0.19103
 C131 C 0.70506 0.30051 -0.21366
 C132 C 0.67969 0.29096 -0.22147
 C133 C 0.64390 0.26674 -0.21837
 N134 N 0.64034 0.28053 -0.24067
 C135 C 0.66214 0.29554 -0.24275
 C136 C 0.72144 0.31842 -0.22398
 N137 N 0.74407 0.32029 -0.20799
 C138 C 0.74216 0.30377 -0.18795
 C139 C 0.71489 0.26102 -0.15312
 N140 N 0.69567 0.24449 -0.14664
 C141 C 0.67514 0.24616 -0.16502
 H142 H 0.63000 0.25294 -0.21159
 H143 H 0.66536 0.30867 -0.25848
 H144 H 0.71693 0.32920 -0.24165
 H145 H 0.75707 0.30106 -0.17202
 H146 H 0.73355 0.26441 -0.14211
 H147 H 0.65693 0.23524 -0.16503
 C148 C 0.15933 0.76412 0.27595
 C149 C 0.17514 0.75932 0.29904
 C150 C 0.19914 0.77183 0.30329
 C151 C 0.20776 0.78905 0.28473
 C152 C 0.19227 0.79373 0.26214
 C153 C 0.16797 0.78124 0.25774
 C154 C 0.13483 0.75538 0.26637
 N155 N 0.12852 0.76691 0.24302
 C156 C 0.14885 0.78267 0.23762
 C157 C 0.20499 0.81176 0.24812
 N158 N 0.22793 0.81816 0.26165
 C159 C 0.22981 0.80426 0.28416
 C160 C 0.20991 0.76433 0.32731
 N161 N 0.19329 0.74747 0.33789
 C162 C 0.17187 0.74423 0.32078
 H163 H 0.12239 0.74178 0.27576
 H164 H 0.15007 0.79425 0.22024
 H165 H 0.19788 0.81989 0.22954
 H166 H 0.24554 0.80523 0.29938
 H167 H 0.22848 0.77080 0.33660
 H168 H 0.15492 0.73224 0.32399
 C169 C 0.45431 0.46105 0.45187
 C170 C 0.46454 0.47604 0.43174
 C171 C 0.45157 0.49838 0.42571
 C172 C 0.42830 0.50600 0.43936
 C173 C 0.41819 0.49132 0.45907
 C174 C 0.43129 0.46870 0.46537
 C175 C 0.46284 0.43866 0.46264
 N176 N 0.44552 0.43268 0.48229
 C177 C 0.42624 0.45095 0.48400
 C178 C 0.39551 0.50344 0.46887
 N179 N 0.39172 0.52512 0.45543
 C180 C 0.41170 0.52675 0.43738
 C181 C 0.46596 0.50939 0.40610
 N182 N 0.48730 0.49435 0.39978
 C183 C 0.48672 0.47383 0.41537
 H184 H 0.48054 0.42788 0.45673
 H185 H 0.40985 0.45140 0.49806
 H186 H 0.38273 0.49672 0.48439
 H187 H 0.41392 0.54197 0.42372
 H188 H 0.46134 0.52720 0.39709
 H189 H 0.50152 0.45868 0.41526
 C190 C -0.00807 -0.02218 0.94793
 C191 C 0.00115 -0.00455 0.92996
 C192 C -0.01014 0.01903 0.92987
 C193 C -0.03076 0.02533 0.94756
 C194 C -0.03997 0.00802 0.96521
 C195 C -0.02851 -0.01597 0.96539
 C196 C -0.00104 -0.04658 0.95236
 N197 N -0.01665 -0.05543 0.97202
 C198 C -0.03361 -0.03674 0.98008
 C199 C -0.06069 0.01920 0.97925
 N200 N -0.06421 0.04286 0.97035
 C201 C -0.04588 0.04666 0.95107
 C202 C 0.00205 0.03208 0.91017
 N203 N 0.02045 0.01705 0.89814
 C204 C 0.02011 -0.00546 0.91018
 H205 H 0.01435 -0.05719 0.94197
 H206 H -0.04854 -0.03783 0.99547
 H207 H -0.07247 0.01041 0.99433
 H208 H -0.04404 0.06365 0.93997
 H209 H -0.00238 0.05110 0.90469
 H210 H 0.03248 -0.02142 0.90500
 C211 C 1.02199 0.57599 0.97219
 C212 C 1.01185 0.55917 0.95375
 C213 C 1.02339 0.53571 0.95227
 C214 C 1.04538 0.52877 0.96918
 C215 C 1.05529 0.54534 0.98740
 C216 C 1.04349 0.56906 0.98895
 C217 C 1.01466 0.59995 0.97811
 N218 N 1.03120 0.60768 0.99823
 C219 C 1.04887 0.58885 1.00487
 C220 C 1.07676 0.53384 1.00086
 N221 N 1.08029 0.51071 0.99125
 C222 C 1.06103 0.50743 0.97182
 C223 C 1.00956 0.52353 0.93252
 N224 N 0.98990 0.53909 0.92208
 C225 C 0.99126 0.56090 0.93490
 H226 H 0.99823 0.61057 0.96858
 H227 H 1.06444 0.58946 1.02035
 H228 H 1.08918 0.54185 1.01636
 H229 H 1.05849 0.49102 0.96015
 H230 H 1.01389 0.50490 0.92612
 H231 H 0.97823 0.57692 0.93069
 C232 C 0.52203 0.07461 0.45100
 C233 C 0.51590 0.05812 0.43076
 C234 C 0.53020 0.03597 0.42911
 C235 C 0.55099 0.03010 0.44771
 C236 C 0.55724 0.04641 0.46772
 C237 C 0.54260 0.06898 0.46938
 C238 C 0.51039 0.09685 0.45778
 N239 N 0.52337 0.10512 0.47973
 C240 C 0.54318 0.08824 0.48708
 C241 C 0.57789 0.03543 0.48296
 N242 N 0.58425 0.01295 0.47271
 C243 C 0.56777 0.00963 0.45107
 C244 C 0.51946 0.02348 0.40786
 N245 N 0.49900 0.03768 0.39666
 C246 C 0.49679 0.05889 0.41051
 H247 H 0.49333 0.10623 0.44773
 H248 H 0.55639 0.08940 0.50441
 H249 H 0.58749 0.04320 0.50037
 H250 H 0.56759 -0.00635 0.43846
 H251 H 0.52623 0.00553 0.40111
 H252 H 0.48212 0.07372 0.40625
 C253 C -0.03874 0.03938 0.51701
 C254 C -0.03144 0.02562 0.53965
 C255 C -0.04701 0.00602 0.54736
 C256 C -0.07033 -0.00005 0.53226
 C257 C -0.07750 0.01374 0.50992
 C258 C -0.06163 0.03356 0.50226
 C259 C -0.02764 0.05971 0.50549
 N260 N -0.04329 0.06639 0.48398
 C261 C -0.06418 0.05051 0.48193
 C262 C -0.10103 0.00429 0.49943
 N263 N -0.10847 -0.01496 0.51462
 C264 C -0.08984 -0.01780 0.53486
 C265 C -0.03501 -0.00347 0.57033
 N266 N -0.01276 0.00999 0.57663
 C267 C -0.01047 0.02777 0.55780
 H268 H -0.00988 0.06915 0.51282
 H269 H -0.08023 0.05143 0.46690
 H270 H -0.11209 0.01100 0.48197
 H271 H -0.09044 -0.03146 0.55047
 H272 H -0.04207 -0.01890 0.58177
 H273 H 0.00522 0.04137 0.55700
 C274 C 0.45853 0.55377 0.03112
 C275 C 0.46541 0.53973 0.05387
 C276 C 0.44949 0.52006 0.06084
 C277 C 0.42657 0.51411 0.04530
 C278 C 0.41991 0.52790 0.02298
 C279 C 0.43596 0.54775 0.01585
 C280 C 0.46991 0.57402 0.01933
 N281 N 0.45466 0.58022 -0.00270
 C282 C 0.43397 0.56417 -0.00485
 C283 C 0.39673 0.51827 0.01184
 N284 N 0.38910 0.49889 0.02677
 C285 C 0.40727 0.49617 0.04738
 C286 C 0.46080 0.50981 0.08357
 N287 N 0.48318 0.52262 0.09065
 C288 C 0.48619 0.54103 0.07259
 H289 H 0.48788 0.58331 0.02641
 H290 H 0.41841 0.56449 -0.02039
 H291 H 0.38608 0.52491 -0.00587
 H292 H 0.40655 0.48243 0.06290
 H293 H 0.45331 0.49407 0.09421
 H294 H 0.50218 0.55441 0.07286
 C295 C 0.55440 -0.07097 0.03228
 C296 C 0.54552 -0.05723 0.05403
 C297 C 0.55904 -0.03619 0.06124
 C298 C 0.58149 -0.02855 0.04688
 C299 C 0.59033 -0.04208 0.02553
 C300 C 0.57670 -0.06346 0.01820
 C301 C 0.54543 -0.09231 0.02085
 N302 N 0.56178 -0.09786 0.00016
 C303 C 0.58097 -0.08037 -0.00148
 C304 C 0.61258 -0.03041 0.01558
 N305 N 0.61732 -0.01010 0.03030
 C306 C 0.59841 -0.00889 0.04960
 C307 C 0.54645 -0.02677 0.08310
 N308 N 0.52556 -0.04148 0.08940
 C309 C 0.52480 -0.06025 0.07171
 H310 H 0.52854 -0.10307 0.02746
 H311 H 0.59693 -0.08002 -0.01598
 H312 H 0.62447 -0.03621 -0.00119
 H313 H 0.59701 0.00501 0.06475
 H314 H 0.55216 -0.01043 0.09382
 H315 H 0.51061 -0.07518 0.07174
 C316 C 1.07480 0.39733 0.57053
 C317 C 1.05974 0.41096 0.58893
 C318 C 1.06556 0.43542 0.59348
 C319 C 1.08665 0.44656 0.57969
 C320 C 1.10160 0.43294 0.56180
 C321 C 1.09564 0.40828 0.55716
 C322 C 1.07169 0.37425 0.55993
 N323 N 1.09012 0.37112 0.54035
 C324 C 1.10493 0.39180 0.53873
 C325 C 1.11935 0.44851 0.55000
 N326 N 1.11558 0.47140 0.56004
 C327 C 1.09559 0.47043 0.57837
 C328 C 1.04673 0.44431 0.61114
 N329 N 1.02972 0.42580 0.61740
 C330 C 1.03755 0.40542 0.60387
 H331 H 1.05610 0.36146 0.56521
 H332 H 1.12025 0.39516 0.52408
 H333 H 1.13346 0.44368 0.53452
 H334 H 1.08754 0.48583 0.58950
 H335 H 1.04560 0.46291 0.61862
 H336 H 1.02754 0.38787 0.60462
 C337 C 0.41366 -0.02888 0.20436
 H338 H 0.41356 -0.01181 0.21527
 C339 C 0.43019 -0.03163 0.18238
 H340 H 0.44218 -0.01621 0.17634
 C341 C 0.39739 -0.06931 0.19908
 H342 H 0.38494 -0.08410 0.20589
 C343 C 0.41366 -0.07287 0.17702
 H344 H 0.41334 -0.09037 0.16687
 N345 N 0.39752 -0.04748 0.21212
 C346 C 0.33244 -0.01221 0.25691
 H347 H 0.33327 -0.02387 0.27434
 C348 C 0.31346 0.00736 0.25509
 H349 H 0.29970 0.01072 0.27124
 C350 C 0.34953 -0.00241 0.21475
 H351 H 0.36334 -0.00649 0.19890
 C352 C 0.33090 0.01742 0.21212
 H353 H 0.33057 0.02816 0.19404
 Zn354 Zn 0.37643 -0.04238 0.24258
 N355 N 0.35043 -0.01634 0.23720
 C356 C 0.39759 -0.01283 0.28360
 N357 N 0.40073 -0.03453 0.27063
 C358 C 0.42172 -0.05056 0.27684
 C359 C 0.44037 -0.04514 0.29712
 C360 C 0.41565 -0.00673 0.30401
 C361 C 0.33764 -0.07794 0.23288
 C362 C 0.32146 -0.09809 0.23812
 C363 C 0.34471 -0.10293 0.28047
 C364 C 0.36058 -0.08276 0.27432
 N365 N 0.35681 -0.07078 0.25081
 H366 H 0.38109 -0.00012 0.27817
 H367 H 0.42393 -0.06758 0.26601
 H368 H 0.45693 -0.05813 0.30189
 H369 H 0.41197 0.01032 0.31440
 H370 H 0.33492 -0.06788 0.21445
 H371 H 0.30685 -0.10349 0.22312
 H372 H 0.34780 -0.11215 0.29939
 H373 H 0.37553 -0.07647 0.28855
 C374 C 0.31295 0.02283 0.23279
 C375 C 0.43053 -0.05402 0.16853
 C376 C 0.32462 -0.11071 0.26243
 C377 C 0.43762 -0.02289 0.31085
 C378 C 0.10562 0.00881 0.69390
 H379 H 0.10804 -0.00735 0.70643
 C380 C 0.08587 0.00941 0.67351
 H381 H 0.07360 -0.00662 0.67053
 C382 C 0.11914 0.04911 0.68294
 H383 H 0.13181 0.06471 0.68686
 C384 C 0.09971 0.05051 0.66240
 H385 H 0.09791 0.06717 0.65053
 N386 N 0.12198 0.02836 0.69801
 C387 C 0.19489 -0.00138 0.73892
 H388 H 0.19591 0.01147 0.75514
 C389 C 0.21420 -0.02060 0.73736
 H390 H 0.23007 -0.02246 0.75251
 C391 C 0.17265 -0.01460 0.69972
 H392 H 0.15658 -0.01202 0.68495
 C393 C 0.19162 -0.03411 0.69733
 H394 H 0.18980 -0.04608 0.68046
 Zn395 Zn 0.14816 0.02651 0.72618
 N396 N 0.17423 0.00088 0.72066
 C397 C 0.13424 -0.00148 0.77113
 N398 N 0.12912 0.01999 0.75771
 C399 C 0.10927 0.03618 0.76552
 C400 C 0.09401 0.03125 0.78795
 C401 C 0.11951 -0.00714 0.79358
 C402 C 0.18387 0.06192 0.70795
 C403 C 0.20025 0.08259 0.70898
 C404 C 0.18403 0.09070 0.75289
 C405 C 0.16786 0.06989 0.75097
 N406 N 0.16793 0.05607 0.72866
 H407 H 0.14939 -0.01457 0.76422
 H408 H 0.10507 0.05282 0.75410
 H409 H 0.07801 0.04425 0.79329
 H410 H 0.12385 -0.02439 0.80390
 H411 H 0.18403 0.05030 0.69066
 H412 H 0.21283 0.08686 0.69227
 H413 H 0.18393 0.10081 0.77119
 H414 H 0.15576 0.06452 0.76756
 C415 C 0.21240 -0.03763 0.71674
 C416 C 0.08275 0.03054 0.65737
 C417 C 0.20051 0.09739 0.73159
 C418 C 0.09919 0.00930 0.80240
 C419 C 0.59610 0.49822 0.20826
 H420 H 0.59591 0.48030 0.21774
 C421 C 0.57882 0.50333 0.18650
 H422 H 0.56592 0.48890 0.17924
 C423 C 0.61397 0.53828 0.20618
 H424 H 0.62741 0.55200 0.21406
 C425 C 0.59703 0.54419 0.18437
 H426 H 0.59783 0.56239 0.17555
 N427 N 0.61345 0.51549 0.21748
 C428 C 0.67971 0.47312 0.25746
 H429 H 0.68015 0.48184 0.27662
 C430 C 0.69795 0.45358 0.25222
 H431 H 0.71245 0.44783 0.26755
 C432 C 0.66061 0.47096 0.21423
 H433 H 0.64630 0.47791 0.19931
 C434 C 0.67842 0.45141 0.20815
 H435 H 0.67740 0.44344 0.18861
 Zn436 Zn 0.63601 0.50694 0.24735
 N437 N 0.66116 0.48109 0.23873
 C438 C 0.61582 0.47439 0.28677
 N439 N 0.61253 0.49665 0.27445
 C440 C 0.59159 0.51236 0.28058
 C441 C 0.57342 0.50630 0.30036
 C442 C 0.59815 0.46761 0.30678
 C443 C 0.67468 0.54415 0.24228
 C444 C 0.68911 0.56505 0.24948
 C445 C 0.66586 0.56533 0.29110
 C446 C 0.65184 0.54448 0.28308
 N447 N 0.65603 0.53462 0.25881
 H448 H 0.63211 0.46182 0.28117
 H449 H 0.58904 0.52969 0.27002
 H450 H 0.55673 0.51907 0.30431
 H451 H 0.60120 0.44992 0.31657
 H452 H 0.67813 0.53563 0.22334
 H453 H 0.70394 0.57205 0.23598
 H454 H 0.66200 0.57310 0.31037
 H455 H 0.63752 0.53632 0.29629
 C456 C 0.69715 0.44217 0.22732
 C457 C 0.57904 0.52671 0.17430
 C458 C 0.68437 0.57622 0.27406
 C459 C 0.57688 0.48379 0.31414
 C460 C 0.91850 0.48916 0.72943
 H461 H 0.91685 0.50442 0.74299
 C462 C 0.93950 0.48832 0.71118
 H463 H 0.95395 0.50309 0.71070
 C464 C 0.90195 0.45113 0.71402
 H465 H 0.88746 0.43653 0.71538
 C466 C 0.92265 0.44953 0.69546
 H467 H 0.92316 0.43392 0.68233
 N468 N 0.90021 0.47078 0.73047
 C469 C 0.82818 0.50225 0.76773
 H470 H 0.82572 0.48865 0.78316
 C471 C 0.80949 0.52194 0.76503
 H472 H 0.79267 0.52348 0.77855
 C473 C 0.85304 0.51653 0.73121
 H474 H 0.86975 0.51407 0.71779
 C475 C 0.83481 0.53657 0.72779
 H476 H 0.83778 0.54913 0.71150
 Zn477 Zn 0.87352 0.47267 0.75692
 N478 N 0.84967 0.50013 0.75123
 C479 C 0.88799 0.49627 0.80470
 N480 N 0.89237 0.47587 0.78976
 C481 C 0.91185 0.45863 0.79680
 C482 C 0.92816 0.46178 0.81946
 C483 C 0.90372 0.50010 0.82751
 C484 C 0.83511 0.44175 0.73456
 C485 C 0.81606 0.42307 0.73372
 C486 C 0.83068 0.41075 0.77783
 C487 C 0.84954 0.42965 0.77779
 N488 N 0.85134 0.44469 0.75636
 H489 H 0.87275 0.50999 0.79867
 H490 H 0.91516 0.44272 0.78440
 H491 H 0.94393 0.44810 0.82453
 H492 H 0.89945 0.51637 0.83906
 H493 H 0.83656 0.45435 0.71803
 H494 H 0.80306 0.42125 0.71631
 H495 H 0.82911 0.39975 0.79558
 H496 H 0.86204 0.43280 0.79521
 C497 C 0.81287 0.53963 0.74514
 C498 C 0.94202 0.46819 0.69412
 C499 C 0.81352 0.40730 0.75553
 C500 C 0.92464 0.48301 0.83482
 C501 C 0.19160 0.40255 0.02590
 H502 H 0.20266 0.40364 0.04456
 C503 C 0.16949 0.41872 0.02045
 H504 H 0.16348 0.43180 0.03539
 C505 C 0.18608 0.38376 -0.01590
 H506 H 0.19283 0.37046 -0.03027
 C507 C 0.16386 0.39948 -0.02213
 H508 H 0.15358 0.39789 -0.04117
 N509 N 0.19934 0.38541 0.00787
 C510 C 0.24267 0.32576 0.05026
 H511 H 0.26055 0.32425 0.03810
 C512 C 0.23943 0.30924 0.07112
 H513 H 0.25492 0.29495 0.07422
 C514 C 0.20036 0.34572 0.05938
 H515 H 0.18499 0.35972 0.05449
 C516 C 0.19635 0.32965 0.08059
 H517 H 0.17791 0.33158 0.09196
 Zn518 Zn 0.23011 0.36458 0.01583
 N519 N 0.22344 0.34368 0.04495
 C520 C 0.27396 0.38257 0.04717
 N521 N 0.26014 0.38482 0.02367
 C522 C 0.26713 0.40187 0.00537
 C523 C 0.28928 0.41707 0.01007
 C524 C 0.29619 0.39743 0.05272
 C525 C 0.21909 0.32697 -0.02000
 C526 C 0.22327 0.31151 -0.04155
 C527 C 0.26647 0.33079 -0.04860
 C528 C 0.26147 0.34587 -0.02687
 N529 N 0.23783 0.34405 -0.01339
 H530 H 0.26783 0.36926 0.06170
 H531 H 0.25564 0.40340 -0.01308
 H532 H 0.29473 0.42984 -0.00529
 H533 H 0.30707 0.39524 0.07148
 H534 H 0.20071 0.32557 -0.00862
 H535 H 0.20794 0.29824 -0.04673
 H536 H 0.28558 0.33248 -0.05871
 H537 H 0.27656 0.35894 -0.02080
 C538 C 0.21611 0.31124 0.08690
 C539 C 0.15543 0.41739 -0.00401
 C540 C 0.24695 0.31358 -0.05646
 C541 C 0.30414 0.41499 0.03413
 C542 C 0.72424 0.10086 0.01624
 H543 H 0.73745 0.10023 -0.00064
 C544 C 0.70401 0.08344 0.01894
 H545 H 0.70162 0.06991 0.00358
 C546 C 0.71139 0.11997 0.05622
 H547 H 0.71459 0.13402 0.07089
 C548 C 0.69092 0.10287 0.05976
 H549 H 0.67831 0.10409 0.07707
 N550 N 0.72738 0.11877 0.03459
 C551 C 0.76806 0.17711 -0.00699
 H552 H 0.78512 0.17958 0.00657
 C553 C 0.76523 0.19183 -0.02956
 H554 H 0.78026 0.20566 -0.03332
 C555 C 0.72771 0.15607 -0.01834
 H556 H 0.71302 0.14224 -0.01376
 C557 C 0.72406 0.17043 -0.04121
 H558 H 0.70682 0.16690 -0.05417
 Zn559 Zn 0.75584 0.14095 0.02933
 N560 N 0.74964 0.15946 -0.00197
 C561 C 0.80243 0.12194 0.00363
 N562 N 0.78864 0.12189 0.02669
 C563 C 0.79656 0.10667 0.04704
 C564 C 0.81930 0.09076 0.04464
 C565 C 0.82524 0.10644 0.00042
 C566 C 0.73593 0.17966 0.05996
 C567 C 0.73716 0.19906 0.07788
 C568 C 0.78362 0.18624 0.08907
 C569 C 0.78141 0.16694 0.07112
 N570 N 0.75788 0.16414 0.05688
 H571 H 0.79526 0.13338 -0.01273
 H572 H 0.78484 0.10654 0.06494
 H573 H 0.82516 0.07851 0.06088
 H574 H 0.83506 0.10630 -0.01853
 H575 H 0.71764 0.17726 0.04800
 H576 H 0.71963 0.21143 0.07991
 H577 H 0.80250 0.18807 0.10027
 H578 H 0.79876 0.15467 0.06805
 C579 C 0.74302 0.18868 -0.04699
 C580 C 0.68711 0.08421 0.04110
 C581 C 0.76143 0.20291 0.09219
 C582 C 0.83402 0.09058 0.02115
 C583 C 0.18118 0.59394 0.50914
 H584 H 0.19037 0.59212 0.48996
 C585 C 0.16378 0.57596 0.51813
 H586 H 0.15910 0.56072 0.50529
 C587 C 0.17647 0.61617 0.54901
 H588 H 0.18208 0.63154 0.56124
 C589 C 0.15895 0.59851 0.55884
 H590 H 0.15096 0.60053 0.57854
 N591 N 0.18739 0.61340 0.52466
 C592 C 0.22135 0.66532 0.46899
 H593 H 0.24098 0.66812 0.47855
 C594 C 0.21470 0.67741 0.44522
 H595 H 0.22981 0.68900 0.43657
 C596 C 0.17860 0.64584 0.46862
 H597 H 0.16448 0.63371 0.47794
 C598 C 0.17106 0.65763 0.44484
 H599 H 0.15120 0.65429 0.43593
 Zn600 Zn 0.21474 0.63405 0.51213
 N601 N 0.20352 0.64967 0.48001
 C602 C 0.25734 0.61085 0.48292
 N603 N 0.24594 0.61340 0.50707
 C604 C 0.25519 0.59972 0.52816
 C605 C 0.27703 0.58294 0.52554
 C606 C 0.27927 0.59430 0.47942
 C607 C 0.20218 0.67557 0.54226
 C608 C 0.20679 0.69458 0.56010
 C609 C 0.25325 0.67923 0.56628
 C610 C 0.24776 0.66054 0.54827
 N611 N 0.22246 0.65889 0.53693
 H612 H 0.24907 0.62117 0.46616
 H613 H 0.24533 0.60168 0.54700
 H614 H 0.28406 0.57213 0.54254
 H615 H 0.28739 0.59221 0.45983
 H616 H 0.18239 0.67407 0.53258
 H617 H 0.19038 0.70769 0.56417
 H618 H 0.27370 0.68037 0.57456
 H619 H 0.26386 0.64758 0.54315
 C620 C 0.18910 0.67376 0.43288
 C621 C 0.15312 0.57773 0.54366
 C622 C 0.23246 0.69644 0.57260
 C623 C 0.28950 0.58015 0.50101
 C624 C 0.69093 0.90126 0.51334
 H625 H 0.70183 0.90226 0.53209
 C626 C 0.67100 0.91925 0.50651
 H627 H 0.66652 0.93368 0.52049
 C628 C 0.68374 0.88092 0.47264
 H629 H 0.68902 0.86625 0.45925
 C630 C 0.66371 0.89842 0.46505
 H631 H 0.65358 0.89679 0.44594
 N632 N 0.69675 0.88248 0.49653
 C633 C 0.73279 0.82187 0.54312
 H634 H 0.75039 0.81795 0.53111
 C635 C 0.72807 0.80742 0.56533
 H636 H 0.74199 0.79210 0.56976
 C637 C 0.69268 0.84596 0.55060
 H638 H 0.67879 0.86082 0.54458
 C639 C 0.68717 0.83194 0.57309
 H640 H 0.66910 0.83621 0.58435
 Zn641 Zn 0.72473 0.85912 0.50607
 N642 N 0.71546 0.84093 0.53643
 C643 C 0.77027 0.87457 0.53692
 N644 N 0.75717 0.87660 0.51300
 C645 C 0.76638 0.89177 0.49384
 C646 C 0.78991 0.90534 0.49818
 C647 C 0.79385 0.88779 0.54210
 C648 C 0.70921 0.82054 0.47285
 C649 C 0.71172 0.80322 0.45268
 C650 C 0.75704 0.81771 0.44462
 C651 C 0.75368 0.83471 0.46499
 N652 N 0.72990 0.83606 0.47839
 H653 H 0.76240 0.86285 0.55215
 H654 H 0.75547 0.89322 0.47507
 H655 H 0.79707 0.91671 0.48227
 H656 H 0.80402 0.88591 0.56125
 H657 H 0.69062 0.82178 0.48402
 H658 H 0.69487 0.79124 0.44836
 H659 H 0.77587 0.81781 0.43388
 H660 H 0.77007 0.84689 0.46990
 C661 C 0.70525 0.81269 0.58098
 C662 C 0.65715 0.91798 0.48193
 C663 C 0.73584 0.80157 0.43823
 C664 C 0.80388 0.90358 0.52275
 C665 C 0.04194 0.19262 0.42734
 H666 H 0.06171 0.20098 0.42917
 C667 C 0.03748 0.17010 0.43965
 H668 H 0.05404 0.16112 0.45086
 C669 C -0.00382 0.19474 0.41120
 H670 H -0.02004 0.20476 0.40067
 C671 C -0.00924 0.17220 0.42329
 H672 H -0.02972 0.16536 0.42170
 N673 N 0.02147 0.20441 0.41340
 C674 C 0.06607 0.25435 0.36303
 H675 H 0.05763 0.27202 0.36898
 C676 C 0.08532 0.25311 0.34302
 H677 H 0.09184 0.26998 0.33379
 C678 C 0.06703 0.21086 0.36717
 H679 H 0.05921 0.19437 0.37598
 C680 C 0.08619 0.20877 0.34721
 H681 H 0.09257 0.19052 0.34111
 Zn682 Zn 0.02944 0.23586 0.39993
 N683 N 0.05751 0.23340 0.37480
 C684 C 0.06459 0.26547 0.43157
 N685 N 0.03984 0.25482 0.42933
 C686 C 0.02134 0.25647 0.44894
 C687 C 0.02693 0.27012 0.47152
 C688 C 0.07109 0.27932 0.45391
 C689 C -0.01143 0.23921 0.36092
 C690 C -0.03307 0.24988 0.34621
 C691 C -0.03372 0.28412 0.37646
 C692 C -0.01204 0.27275 0.39063
 N693 N -0.00139 0.25069 0.38266
 H694 H 0.07935 0.26321 0.41613
 H695 H 0.00204 0.24735 0.44683
 H696 H 0.01168 0.27163 0.48669
 H697 H 0.09098 0.28744 0.45523
 H698 H -0.00244 0.22176 0.35494
 H699 H -0.04099 0.24004 0.32933
 H700 H -0.04183 0.30179 0.38287
 H701 H -0.00341 0.28187 0.40764
 C702 C 0.09576 0.23014 0.33491
 C703 C 0.01165 0.15959 0.43786
 C704 C -0.04416 0.27292 0.35367
 C705 C 0.05182 0.28215 0.47406
 C706 C -0.03580 0.74726 0.04317
 H707 H -0.05461 0.75808 0.04133
 C708 C -0.03121 0.72727 0.02646
 H709 H -0.04662 0.72279 0.01173
 C710 C 0.00685 0.73967 0.06500
 H711 H 0.02180 0.74470 0.07985
 C712 C 0.01235 0.71962 0.04864
 H713 H 0.03171 0.70979 0.05113
 N714 N -0.01729 0.75251 0.06259
 C715 C -0.06567 0.78447 0.12575
 H716 H -0.05520 0.80153 0.12896
 C717 C -0.08711 0.77810 0.14205
 H718 H -0.09332 0.79083 0.15726
 C719 C -0.06994 0.74737 0.10184
 H720 H -0.06278 0.73506 0.08668
 C721 C -0.09146 0.74029 0.11765
 H722 H -0.10087 0.72273 0.11419
 Zn723 Zn -0.02628 0.77775 0.08687
 N724 N -0.05752 0.76916 0.10610
 C725 C -0.05614 0.82098 0.06980
 N726 N -0.03237 0.80768 0.06777
 C727 C -0.01188 0.81562 0.05234
 C728 C -0.01435 0.83827 0.03911
 C729 C -0.05949 0.84372 0.05690
 C730 C 0.00842 0.76178 0.12860
 C731 C 0.02924 0.76327 0.14778
 C732 C 0.03683 0.80497 0.13326
 C733 C 0.01591 0.80266 0.11439
 N734 N 0.00244 0.78117 0.11214
 H735 H -0.07242 0.81419 0.08171
 H736 H 0.00676 0.80461 0.05095
 H737 H 0.00281 0.84442 0.02795
 H738 H -0.07835 0.85429 0.05919
 H739 H -0.00288 0.74500 0.12661
 H740 H 0.03391 0.74730 0.16004
 H741 H 0.04749 0.82217 0.13459
 H742 H 0.01045 0.81812 0.10167
 C743 C -0.10000 0.75548 0.13836
 C744 C -0.00728 0.71267 0.02961
 C745 C 0.04380 0.78517 0.15027
 C746 C -0.03841 0.85278 0.04146
 C747 C 0.49685 0.23284 0.55723
 H748 H 0.47812 0.24280 0.55180
 C749 C 0.50454 0.21165 0.54347
 H750 H 0.49162 0.20597 0.52719
 C751 C 0.53666 0.22927 0.58447
 H752 H 0.54936 0.23633 0.60021
 C753 C 0.54506 0.20793 0.57134
 H754 H 0.56407 0.19866 0.57734
 N755 N 0.51259 0.24094 0.57765
 C756 C 0.45656 0.27953 0.63026
 H757 H 0.46572 0.29743 0.63128
 C758 C 0.43376 0.27455 0.64543
 H759 H 0.42528 0.28910 0.65748
 C760 C 0.45666 0.23914 0.61289
 H761 H 0.46590 0.22518 0.60062
 C762 C 0.43386 0.23339 0.62770
 H763 H 0.42565 0.21509 0.62642
 Zn764 Zn 0.49993 0.26920 0.59605
 N765 N 0.46753 0.26192 0.61438
 C766 C 0.46899 0.30697 0.56858
 N767 N 0.49365 0.29495 0.57095
 C768 C 0.51467 0.30073 0.55507
 C769 C 0.51170 0.31990 0.53662
 C770 C 0.46511 0.32629 0.55038
 C771 C 0.53190 0.26254 0.64191
 C772 C 0.55194 0.26766 0.66093
 C773 C 0.55990 0.30608 0.63837
 C774 C 0.53970 0.30019 0.61973
 N775 N 0.52650 0.27851 0.62157
 H776 H 0.45226 0.30163 0.58080
 H777 H 0.53392 0.29058 0.55701
 H778 H 0.52882 0.32447 0.52444
 H779 H 0.44520 0.33531 0.54879
 H780 H 0.52099 0.24549 0.64298
 H781 H 0.55647 0.25402 0.67615
 H782 H 0.57050 0.32324 0.63641
 H783 H 0.53479 0.31289 0.60373
 C784 C 0.42233 0.25102 0.64456
 C785 C 0.52872 0.19854 0.55089
 C786 C 0.56629 0.28975 0.65931
 C787 C 0.48687 0.33329 0.53440
 C788 C 0.52273 0.70886 0.92736
 H789 H 0.54066 0.72010 0.92733
 C790 C 0.52140 0.68896 0.94492
 H791 H 0.53851 0.68484 0.95826
 C792 C 0.47835 0.70102 0.91050
 H793 H 0.46130 0.70617 0.89760
 C794 C 0.47610 0.68107 0.92778
 H795 H 0.45706 0.67143 0.92781
 N796 N 0.50152 0.71430 0.91037
 C797 C 0.53518 0.75702 0.84584
 H798 H 0.52082 0.77251 0.84568
 C799 C 0.55562 0.75570 0.82705
 H800 H 0.55696 0.77032 0.81250
 C801 C 0.55050 0.71901 0.86484
 H802 H 0.54825 0.70463 0.87942
 C803 C 0.57127 0.71692 0.84636
 H804 H 0.58516 0.70114 0.84764
 Zn805 Zn 0.50371 0.74224 0.88790
 N806 N 0.53310 0.73894 0.86435
 C807 C 0.53030 0.78459 0.90703
 N808 N 0.50827 0.77010 0.90964
 C809 C 0.48938 0.77469 0.92842
 C810 C 0.49204 0.79479 0.94527
 C811 C 0.53372 0.80493 0.92337
 C812 C 0.46692 0.72789 0.84867
 C813 C 0.44497 0.73014 0.83074
 C814 C 0.43326 0.76964 0.84969
 C815 C 0.45543 0.76659 0.86735
 N816 N 0.47174 0.74597 0.86648
 H817 H 0.54537 0.78042 0.89233
 H818 H 0.47221 0.76269 0.93028
 H819 H 0.47674 0.79819 0.96006
 H820 H 0.55121 0.81622 0.92025
 H821 H 0.48045 0.71184 0.84817
 H822 H 0.44160 0.71564 0.81654
 H823 H 0.42047 0.78610 0.85101
 H824 H 0.45983 0.78092 0.88138
 C825 C 0.57386 0.73539 0.82695
 C826 C 0.49799 0.67459 0.94515
 C827 C 0.42808 0.75138 0.83076
 C828 C 0.51445 0.81023 0.94298
 C829 C 0.16511 0.18886 0.28032
 C830 C 0.14991 0.20909 0.28518
 C831 C 0.13139 0.20949 0.30780
 C832 C 0.11539 0.22918 0.31290
 H833 H 0.15085 0.22520 0.27258
 H834 H 0.13118 0.19335 0.32044
 H835 H 0.16364 0.17305 0.29340
 H836 H 0.11694 0.24547 0.30056
 C837 C 0.64463 0.69401 0.77396
 C838 C 0.63006 0.71441 0.77951
 C839 C 0.60888 0.71391 0.79978
 C840 C 0.59535 0.73452 0.80668
 H841 H 0.63418 0.73166 0.76971
 H842 H 0.60434 0.69642 0.80882
 H843 H 0.64076 0.67716 0.78474
 H844 H 0.59971 0.75156 0.79647
 C845 C 0.36177 0.79760 0.77344
 C846 C 0.37314 0.77613 0.78157
 C847 C 0.39405 0.77519 0.80293
 C848 C 0.40564 0.75368 0.81071
 H849 H 0.36717 0.75907 0.77248
 H850 H 0.40056 0.79233 0.81149
 H851 H 0.36752 0.81440 0.78334
 H852 H 0.39940 0.73699 0.80086
 C853 C -0.09793 0.28694 0.27230
 C854 C -0.09322 0.29376 0.29731
 C855 C -0.07041 0.28185 0.31239
 C856 C -0.06652 0.28555 0.33825
 H857 H -0.10639 0.30707 0.30696
 H858 H -0.05661 0.26966 0.30191
 H859 H -0.08444 0.27298 0.26394
 H860 H -0.07962 0.29873 0.34829
 C861 C -0.15027 0.75256 0.22172
 C862 C -0.14680 0.74442 0.19704
 C863 C -0.12583 0.75505 0.18019
 C864 C -0.12200 0.74686 0.15563
 H865 H -0.15903 0.72980 0.18911
 H866 H -0.11286 0.76897 0.18850
 H867 H -0.13774 0.76752 0.22865
 H868 H -0.13460 0.73213 0.14834
 C869 C 0.36307 0.25940 0.72171
 C870 C 0.36894 0.24751 0.69931
 C871 C 0.39180 0.25569 0.68306
 C872 C 0.39868 0.24411 0.66079
 H873 H 0.35733 0.23186 0.69295
 H874 H 0.40362 0.27098 0.69007
 H875 H 0.37533 0.27506 0.72706
 H876 H 0.38732 0.22811 0.65486
 C877 C 0.61847 0.27818 0.74256
 C878 C 0.61520 0.29058 0.71969
 C879 C 0.59159 0.28550 0.70221
 C880 C 0.58870 0.29579 0.67819
 H881 H 0.63003 0.30369 0.71333
 H882 H 0.57658 0.27285 0.70921
 H883 H 0.60309 0.26502 0.74776
 H884 H 0.60334 0.30924 0.67208
 C885 C 0.10452 0.76259 0.22696
 C886 C 0.09706 0.77747 0.20672
 C887 C 0.07312 0.77273 0.18956
 C888 C 0.06680 0.78814 0.16942
 H889 H 0.10876 0.79358 0.20246
 H890 H 0.06103 0.75679 0.19353
 H891 H 0.09214 0.74692 0.23157
 H892 H 0.07925 0.80420 0.16681
 C893 C 0.28243 0.10633 0.20492
 C894 C 0.27833 0.08588 0.21902
 C895 C 0.29719 0.06442 0.21729
 C896 C 0.29356 0.04425 0.23200
 H897 H 0.26118 0.08489 0.23210
 H898 H 0.31473 0.06571 0.20471
 H899 H 0.29938 0.10665 0.19145
 H900 H 0.27649 0.04402 0.24533
 C901 C 0.78149 0.62305 0.71755
 C902 C 0.77704 0.60193 0.73027
 C903 C 0.79761 0.58169 0.73054
 C904 C 0.79286 0.56051 0.74306
 H905 H 0.75808 0.59934 0.74042
 H906 H 0.81688 0.58457 0.72103
 H907 H 0.80028 0.62497 0.70680
 H908 H 0.77372 0.55872 0.75326
 C909 C 0.76540 0.33577 0.79001
 C910 C 0.76719 0.35309 0.77120
 C911 C 0.79042 0.36987 0.77173
 C912 C 0.79171 0.38876 0.75473
 H913 H 0.75145 0.35554 0.75604
 H914 H 0.80636 0.36672 0.78655
 H915 H 0.78164 0.33434 0.80492
 H916 H 0.77588 0.39087 0.73953
 C917 C 0.24484 -0.16390 0.25346
 C918 C 0.26766 -0.15787 0.26669
 C919 C 0.28432 -0.13754 0.25728
 C920 C 0.30753 -0.13173 0.26992
 H921 H 0.27417 -0.16759 0.28453
 H922 H 0.27684 -0.12696 0.24036
 H923 H 0.23948 -0.15393 0.23535
 H924 H 0.31384 -0.14239 0.28730
 C925 C 0.24508 -0.12082 0.69150
 C926 C 0.24816 -0.10042 0.70589
 C927 C 0.22904 -0.07918 0.70248
 C928 C 0.23223 -0.05877 0.71677
 H929 H 0.26434 -0.09929 0.72065
 H930 H 0.21169 -0.08097 0.68915
 H931 H 0.22898 -0.12086 0.67643
 H932 H 0.24953 -0.05810 0.73045
 C933 C 0.76501 0.37456 0.24526
 C934 C 0.74805 0.38680 0.22845
 C935 C 0.73072 0.40762 0.23746
 C936 C 0.71544 0.42106 0.22016
 H937 H 0.74742 0.38195 0.20774
 H938 H 0.73051 0.41162 0.25835
 H939 H 0.76626 0.38037 0.26569
 H940 H 0.71587 0.41595 0.19948
 C941 C 0.73573 0.65172 0.25878
 C942 C 0.72348 0.63688 0.27584
 C943 C 0.70962 0.61473 0.26619
 C944 C 0.69857 0.59870 0.28285
 H945 H 0.72429 0.64058 0.29682
 H946 H 0.70833 0.61180 0.24508
 H947 H 0.73539 0.64704 0.23797
 H948 H 0.69914 0.60264 0.30383
 C949 C 0.23679 0.17339 0.77035
 C950 C 0.23733 0.15691 0.75075
 C951 C 0.21794 0.13649 0.75064
 C952 C 0.21894 0.11878 0.73236
 H953 H 0.25205 0.15803 0.73515
 H954 H 0.20275 0.13622 0.76583
 H955 H 0.22181 0.17118 0.78567
 H956 H 0.23397 0.12009 0.71699
 C957 C 0.24242 0.24356 0.14788
 C958 C 0.22411 0.26128 0.14107
 C959 C 0.23041 0.27902 0.12004
 C960 C 0.21115 0.29411 0.10926
 H961 H 0.20419 0.26198 0.15001
 H962 H 0.25118 0.27921 0.11321
 H963 H 0.26163 0.24244 0.13758
 H964 H 0.19072 0.29389 0.11715
 C965 C 0.73243 0.75417 0.65101
 C966 C 0.71275 0.76912 0.64087
 C967 C 0.71899 0.78559 0.61868
 C968 C 0.69940 0.79790 0.60487
 H969 H 0.69198 0.76815 0.64769
 H970 H 0.74017 0.78709 0.61325
 H971 H 0.75272 0.75466 0.64282
 H972 H 0.67843 0.79717 0.61127
 C973 C 0.78335 0.75959 0.36613
 C974 C 0.76087 0.76138 0.38062
 C975 C 0.76074 0.77719 0.40423
 C976 C 0.73747 0.78373 0.41608
 H977 H 0.74226 0.75270 0.37411
 H978 H 0.78006 0.78410 0.41126
 H979 H 0.80122 0.76971 0.37218
 H980 H 0.71856 0.77590 0.40896
 C981 C 0.28573 0.29016 -0.14229
 C982 C 0.26922 0.28531 -0.12225
 C983 C 0.26737 0.30197 -0.09946
 C984 C 0.25062 0.29723 -0.07956
 H985 H 0.25698 0.26901 -0.12244
 H986 H 0.27928 0.31848 -0.09950
 H987 H 0.29813 0.30641 -0.14138
 H988 H 0.23810 0.28107 -0.08075
 C989 C 0.69603 0.22804 -0.12426
 C990 C 0.71835 0.22429 -0.10898
 C991 C 0.71831 0.20765 -0.08594
 C992 C 0.74095 0.20447 -0.07096
 H993 H 0.73708 0.23345 -0.11344
 H994 H 0.69960 0.19862 -0.08112
 H995 H 0.67764 0.21818 -0.11993
 H996 H 0.75893 0.21462 -0.07609
 C997 C 0.19847 0.73630 0.36336
 C998 C 0.18476 0.71711 0.37242
 C999 C 0.19243 0.70621 0.39835
 C1000 C 0.18094 0.68578 0.40737
 H1001 H 0.16867 0.70906 0.36062
 H1002 H 0.20785 0.71524 0.41012
 H1003 H 0.21500 0.74344 0.37542
 H1004 H 0.16466 0.67769 0.39577
 C1005 C 0.27968 0.73811 0.64615
 C1006 C 0.26017 0.73819 0.62725
 C1007 C 0.25685 0.71693 0.60969
 C1008 C 0.23697 0.71701 0.59115
 H1009 H 0.24647 0.75397 0.62450
 H1010 H 0.27059 0.70113 0.61229
 H1011 H 0.29290 0.72191 0.64875
 H1012 H 0.22279 0.73268 0.58990
 C1013 C 0.81292 0.26390 0.14141
 C1014 C 0.78837 0.25576 0.13431
 C1015 C 0.78642 0.23575 0.11491
 C1016 C 0.76304 0.22422 0.11020
 H1017 H 0.77025 0.26230 0.14432
 H1018 H 0.80479 0.22990 0.10487
 H1019 H 0.83094 0.25594 0.13230
 H1020 H 0.74445 0.23091 0.11931
 C1021 C 0.44671 0.41150 0.49957
 C1022 C 0.46533 0.39317 0.49755
 C1023 C 0.46578 0.37236 0.51650
 C1024 C 0.48455 0.35406 0.51514
 H1025 H 0.48038 0.39346 0.48220
 H1026 H 0.45105 0.37262 0.53215
 H1027 H 0.43178 0.41054 0.51507
 H1028 H 0.49977 0.35491 0.49989
 C1029 C -0.01452 0.92095 -0.01863
 C1030 C -0.03017 0.91216 0.00058
 C1031 C -0.02618 0.88663 0.01042
 C1032 C -0.04190 0.87778 0.02948
 H1033 H -0.04578 0.92364 0.00946
 H1034 H -0.01024 0.87524 0.00190
 H1035 H 0.00072 0.90864 -0.02710
 H1036 H -0.05833 0.88949 0.03678
 C1037 C 0.03066 0.62980 0.01083
 C1038 C 0.01353 0.64855 0.00401
 C1039 C 0.01298 0.67135 0.01965
 C1040 C -0.00394 0.69030 0.01315
 H1041 H -0.00046 0.64720 -0.01269
 H1042 H 0.02573 0.67195 0.03732
 H1043 H 0.04470 0.63227 0.02741
 H1044 H -0.01725 0.68867 -0.00410
 C1045 C 0.51517 0.12731 0.49299
 C1046 C 0.53122 0.13876 0.51041
 C1047 C 0.52136 0.16174 0.52276
 C1048 C 0.53780 0.17537 0.53782
 H1049 H 0.55160 0.13159 0.51507
 H1050 H 0.50018 0.16722 0.51949
 H1051 H 0.49533 0.13552 0.48781
 H1052 H 0.55871 0.16891 0.54136
 C1053 C -0.03990 0.08719 0.46672
 C1054 C -0.01750 0.10077 0.46757
 C1055 C -0.01499 0.12277 0.45072
 C1056 C 0.00740 0.13634 0.45263
 H1057 H -0.00079 0.09591 0.48106
 H1058 H -0.03162 0.12777 0.43720
 H1059 H -0.05619 0.09200 0.45264
 H1060 H 0.02370 0.13014 0.46611
 C1061 C 0.45807 0.59892 0.97968
 C1062 C 0.47766 0.61564 0.98188
 C1063 C 0.47904 0.63551 0.96195
 C1064 C 0.49673 0.65380 0.96434
 H1065 H 0.49218 0.61516 0.99828
 H1066 H 0.46519 0.63493 0.94506
 H1067 H 0.44379 0.60057 0.96303
 H1068 H 0.51116 0.65339 0.98088
 C1069 C 0.56040 0.88133 0.98284
 C1070 C 0.53899 0.86651 0.98185
 C1071 C 0.53855 0.84561 0.96346
 C1072 C 0.51657 0.83154 0.96114
 H1073 H 0.52155 0.86993 0.99422
 H1074 H 0.55658 0.84190 0.95203
 H1075 H 0.57725 0.87794 0.96963
 H1076 H 0.49920 0.83568 0.97346
 C1077 C 0.09198 0.35149 0.52152
 C1078 C 0.07526 0.33244 0.52147
 C1079 C 0.07498 0.31517 0.49917
 C1080 C 0.05630 0.29768 0.49765
 H1081 H 0.06056 0.33029 0.53693
 H1082 H 0.08882 0.31818 0.48315
 H1083 H 0.10651 0.35313 0.50573
 H1084 H 0.04212 0.29594 0.51373
 C1085 C 0.37039 0.54353 0.45838
 C1086 C 0.35196 0.54269 0.47750
 C1087 C 0.33029 0.56193 0.47918
 C1088 C 0.31206 0.56160 0.49852
 H1089 H 0.35265 0.52789 0.49192
 H1090 H 0.32961 0.57657 0.46454
 H1091 H 0.36939 0.55880 0.44444
 H1092 H 0.31407 0.54735 0.51360
 C1093 C 0.91695 0.06028 -0.02234
 C1094 C 0.89811 0.05661 -0.00394
 C1095 C 0.87707 0.07588 0.00085
 C1096 C 0.85707 0.07261 0.01808
 H1097 H 0.89737 0.03939 0.00684
 H1098 H 0.87776 0.09285 -0.01045
 H1099 H 0.91679 0.07798 -0.03247
 H1100 H 0.85745 0.05608 0.03025
 C1101 C 0.63909 0.00658 0.02568
 C1102 C 0.64110 0.02804 0.03832
 C1103 C 0.66359 0.04472 0.03298
 C1104 C 0.66512 0.06640 0.04529
 H1105 H 0.62598 0.03364 0.05252
 H1106 H 0.67902 0.03886 0.01921
 H1107 H 0.65414 0.00165 0.01106
 H1108 H 0.64978 0.07114 0.05972
 C1109 C 0.12952 0.49118 0.55146
 C1110 C 0.12498 0.51426 0.55979
 C1111 C 0.14076 0.53430 0.54838
 C1112 C 0.13673 0.55787 0.55507
 H1113 H 0.10972 0.51856 0.57432
 H1114 H 0.15644 0.52942 0.53440
 H1115 H 0.14489 0.48808 0.53658
 H1116 H 0.12218 0.56253 0.57023
 C1117 C 0.10043 0.49466 -0.00004
 C1118 C 0.10428 0.47205 -0.00998
 C1119 C 0.12718 0.45598 -0.00045
 C1120 C 0.13195 0.43398 -0.01143
 H1121 H 0.09100 0.46528 -0.02547
 H1122 H 0.14068 0.46273 0.01491
 H1123 H 0.11430 0.50064 0.01550
 H1124 H 0.11872 0.42831 -0.02760
 C1125 C 0.60384 0.99709 0.48304
 C1126 C 0.60931 0.97482 0.47277
 C1127 C 0.63081 0.95812 0.48407
 C1128 C 0.63564 0.93612 0.47301
 H1129 H 0.59800 0.96847 0.45569
 H1130 H 0.64279 0.96417 0.50087
 H1131 H 0.61549 1.00272 0.50033
 H1132 H 0.62352 0.93127 0.45573
 C1133 C 0.86744 0.97119 0.50922
 C1134 C 0.86093 0.95106 0.52285
 C1135 C 0.83591 0.93780 0.51582
 C1136 C 0.82899 0.91744 0.52885
 H1137 H 0.87396 0.94420 0.53893
 H1138 H 0.82286 0.94524 0.50005
 H1139 H 0.85409 0.97733 0.49298
 H1140 H 0.84184 0.91104 0.54533
 C1141 C 0.36539 0.48466 0.02088
 C1142 C 0.35897 0.46456 0.03462
 C1143 C 0.33451 0.45064 0.02734
 C1144 C 0.32827 0.43010 0.04044
 H1145 H 0.37178 0.45811 0.05103
 H1146 H 0.32154 0.45760 0.01129
 H1147 H 0.35235 0.49046 0.00429
 H1148 H 0.34130 0.42421 0.05701
 C1149 C 0.50699 0.50073 0.38039
 C1150 C 0.52426 0.48433 0.36968
 C1151 C 0.54291 0.49237 0.34897
 C1152 C 0.55844 0.47632 0.33559
 H1153 H 0.52407 0.46511 0.37545
 H1154 H 0.54378 0.51190 0.34480
 H1155 H 0.50693 0.51967 0.37340
 H1156 H 0.55804 0.45695 0.34090
 C1157 C 0.03654 0.02469 0.87621
 C1158 C 0.05252 0.00914 0.86269
 C1159 C 0.06786 0.01786 0.83979
 C1160 C 0.08336 0.00221 0.82588
 H1161 H 0.05405 -0.01016 0.86809
 H1162 H 0.06646 0.03722 0.83460
 H1163 H 0.03509 0.04387 0.87009
 H1164 H 0.08497 -0.01688 0.83232
 C1165 C 0.00493 0.00567 0.59940
 C1166 C 0.02485 0.02108 0.60609
 C1167 C 0.04320 0.01663 0.62921
 C1168 C 0.06276 0.03274 0.63492
 H1169 H 0.02787 0.03751 0.59446
 H1170 H 0.04046 0.00040 0.64126
 H1171 H 0.00182 -0.01050 0.61156
 H1172 H 0.06417 0.04889 0.62234
 C1173 C 0.50000 0.51663 0.11356
 C1174 C 0.52249 0.52886 0.12023
 C1175 C 0.53896 0.52142 0.14385
 C1176 C 0.56155 0.53338 0.15085
 H1177 H 0.52898 0.54418 0.10834
 H1178 H 0.53211 0.50620 0.15568
 H1179 H 0.49414 0.50128 0.12587
 H1180 H 0.56719 0.54923 0.13921
 C1181 C 0.50839 -0.03725 0.11169
 C1182 C 0.48656 -0.05070 0.11668
 C1183 C 0.46991 -0.04538 0.13997
 C1184 C 0.44776 -0.05835 0.14515
 H1185 H 0.48077 -0.06549 0.10368
 H1186 H 0.47640 -0.03099 0.15319
 H1187 H 0.51338 -0.02228 0.12488
 H1188 H 0.44250 -0.07338 0.13216
 C1189 C 1.00705 0.42652 0.63504
 C1190 C 0.99772 0.44729 0.64614
 C1191 C 0.97443 0.44685 0.66412
 C1192 C 0.96485 0.46752 0.67527
 H1193 H 1.00704 0.46470 0.64200
 H1194 H 0.96564 0.42927 0.66864
 H1195 H 0.99697 0.40940 0.63922
 H1196 H 0.97492 0.48467 0.67123
 C1197 C 0.97104 0.53461 0.90062
 C1198 C 0.96729 0.51223 0.89043
 C1199 C 0.94784 0.50904 0.86819
 C1200 C 0.94321 0.48682 0.85792
 H1201 H 0.97834 0.49626 0.89843
 H1202 H 0.93788 0.52536 0.85975
 H1203 H 0.95912 0.55014 0.89262
 H1204 H 0.95445 0.47092 0.86595
 C1205 C 0.48203 0.03227 0.37409
 C1206 C 0.48043 0.00971 0.36385
 C1207 C 0.46152 0.00525 0.34153
 C1208 C 0.45743 -0.01749 0.33248
 H1209 H 0.49223 -0.00560 0.37237
 H1210 H 0.45083 0.02097 0.33258
 H1211 H 0.46921 0.04706 0.36571
 H1212 H 0.46931 -0.03278 0.34106
   
