data_POSCAR
  _audit_creation_date              2014-09-24
  _audit_creation_method            'ToBaCCo'
  _symmetry_space_group_name_H-M    'P1'
  _symmetry_Int_Tables_number       1
  _symmetry_cell_setting            triclinic
  loop_
  _symmetry_equiv_pos_as_xyz
 x,y,z
_cell_length_a 34.1254
_cell_length_b 34.1068
_cell_length_c 34.1169
_cell_angle_alpha 89.978900
_cell_angle_beta 89.977100
_cell_angle_gamma 89.983200
loop_
  _atom_site_label
  _atom_site_type_symbol
  _atom_site_fract_x
  _atom_site_fract_y
  _atom_site_fract_z
C1 C 0.42841 0.25705 -0.01962
 C2 C 0.42825 0.25719 0.02053
 C3 C 0.39446 0.27671 0.03200
 N4 N 0.37388 0.28820 0.00013
 C5 C 0.39468 0.27648 -0.03153
 C6 C 0.38214 0.28136 0.07128
 C7 C 0.35014 0.30489 0.08289
 C8 C 0.33368 0.30516 0.12008
 C9 C 0.30523 0.33383 0.12004
 C10 C 0.30514 0.35024 0.08284
 N11 N 0.33276 0.33262 0.06054
 C12 C 0.28179 0.38234 0.07111
 C13 C 0.27731 0.39443 0.03174
 C14 C 0.25796 0.42822 0.02000
 C15 C 0.25798 0.42811 -0.02016
 C16 C 0.27734 0.39422 -0.03180
 N17 N 0.28885 0.37359 0.00004
 C18 C 0.28179 0.38178 -0.07114
 C19 C 0.30514 0.34951 -0.08270
 C20 C 0.30508 0.33270 -0.11976
 C21 C 0.33362 0.30415 -0.11972
 C22 C 0.35036 0.30426 -0.08264
 N23 N 0.33297 0.33215 -0.06044
 C24 C 0.38252 0.28085 -0.07096
 H25 H 0.45070 0.24384 -0.03795
 H26 H 0.45039 0.24413 0.03913
 H27 H 0.34266 0.34194 -0.03333
 H28 H 0.34167 0.28695 0.14480
 H29 H 0.28704 0.34199 0.14473
 H30 H 0.24490 0.45052 0.03841
 H31 H 0.24491 0.45033 -0.03867
 H32 H 0.34150 0.28574 -0.14433
 H33 H 0.34238 0.34208 0.03329
 H34 H 0.28673 0.34055 -0.14441
 C35 C 0.74390 0.57290 0.01909
 C36 C 0.74370 0.57321 -0.02107
 C37 C 0.72390 0.60691 -0.03240
 N38 N 0.71231 0.62727 -0.00044
 C39 C 0.72422 0.60640 0.03109
 C40 C 0.71908 0.61938 -0.07161
 C41 C 0.69551 0.65144 -0.08302
 C42 C 0.69529 0.66814 -0.12009
 C43 C 0.66665 0.69660 -0.11991
 C44 C 0.65014 0.69648 -0.08270
 N45 N 0.66776 0.66868 -0.06059
 C46 C 0.61797 0.71979 -0.07080
 C47 C 0.60593 0.72399 -0.03131
 C48 C 0.57218 0.74326 -0.01920
 C49 C 0.57242 0.74289 0.02096
 C50 C 0.60629 0.72340 0.03223
 N51 N 0.62683 0.71216 0.00024
 C52 C 0.61870 0.71854 0.07146
 C53 C 0.65086 0.69514 0.08287
 C54 C 0.66740 0.69478 0.12001
 C55 C 0.69603 0.66630 0.11976
 C56 C 0.69615 0.65010 0.08247
 N57 N 0.66836 0.66766 0.06034
 C58 C 0.71970 0.61824 0.07052
 H59 H 0.75728 0.55064 0.03734
 H60 H 0.75690 0.55123 -0.03976
 H61 H 0.65872 0.65828 0.03308
 H62 H 0.71354 0.66032 -0.14484
 H63 H 0.65856 0.71496 -0.14449
 H64 H 0.54981 0.75650 -0.03740
 H65 H 0.55028 0.75577 0.03968
 H66 H 0.71434 0.65814 0.14434
 H67 H 0.65829 0.65885 -0.03341
 H68 H 0.65935 0.71281 0.14484
 C69 C 0.57297 0.25743 0.98163
 C70 C 0.57315 0.25762 1.02180
 C71 C 0.60687 0.27726 1.03321
 N72 N 0.62737 0.28879 1.00130
 C73 C 0.60657 0.27699 0.96971
 C74 C 0.61926 0.28198 1.07246
 C75 C 0.65145 0.30532 1.08389
 C76 C 0.66815 0.30535 1.12095
 C77 C 0.69685 0.33373 1.12076
 C78 C 0.69687 0.35029 1.08356
 N79 N 0.66893 0.33294 1.06146
 C80 C 0.72043 0.38228 1.07169
 C81 C 0.72471 0.39444 1.03224
 C82 C 0.74420 0.42812 1.02024
 C83 C 0.74382 0.42804 0.98008
 C84 C 0.72412 0.39434 0.96870
 N85 N 0.71275 0.37374 1.00062
 C86 C 0.71917 0.38212 0.92942
 C87 C 0.69563 0.35008 0.91798
 C88 C 0.69521 0.33358 0.88082
 C89 C 0.66667 0.30503 0.88107
 C90 C 0.65047 0.30492 0.91837
 N91 N 0.66811 0.33264 0.94051
 C92 C 0.61854 0.28146 0.93030
 H93 H 0.55073 0.24415 0.96333
 H94 H 0.55109 0.24448 1.04044
 H95 H 0.65876 0.34226 0.96780
 H96 H 0.66018 0.28713 1.14568
 H97 H 0.71527 0.34162 1.14533
 H98 H 0.75758 0.45033 1.03851
 H99 H 0.75684 0.45017 0.96143
 H100 H 0.65846 0.28678 0.85646
 H101 H 0.65921 0.34255 1.03429
 H102 H 0.71327 0.34160 0.85598
 C103 C 0.25752 0.57209 1.02178
 C104 C 0.25764 0.57209 0.98162
 C105 C 0.27708 0.60587 0.97001
 N106 N 0.28856 0.62659 1.00179
 C107 C 0.27691 0.60590 1.03354
 C108 C 0.28169 0.61806 0.93068
 C109 C 0.30500 0.65019 0.91901
 C110 C 0.30508 0.66668 0.88183
 C111 C 0.33356 0.69529 0.88181
 C112 C 0.35006 0.69543 0.91896
 N113 N 0.33266 0.66769 0.94129
 C114 C 0.38211 0.71884 0.93056
 C115 C 0.39446 0.72325 0.96984
 C116 C 0.42831 0.74256 0.98137
 C117 C 0.42848 0.74247 1.02152
 C118 C 0.39467 0.72313 1.03337
 N119 N 0.37383 0.71167 1.00167
 C120 C 0.38246 0.71866 1.07278
 C121 C 0.35021 0.69538 1.08447
 C122 C 0.33349 0.69550 1.12157
 C123 C 0.30484 0.66708 1.12161
 C124 C 0.30481 0.65033 1.08453
 N125 N 0.33271 0.66760 1.06225
 C126 C 0.28130 0.61821 1.07292
 H127 H 0.24437 0.54985 1.04021
 H128 H 0.24461 0.54986 0.96312
 H129 H 0.34238 0.65785 1.03511
 H130 H 0.28685 0.65861 0.85716
 H131 H 0.34156 0.71354 0.85711
 H132 H 0.45049 0.75563 0.96282
 H133 H 0.45081 0.75550 1.03989
 H134 H 0.28646 0.65927 1.14627
 H135 H 0.34227 0.65809 0.96849
 H136 H 0.34145 0.71385 1.14620
 C137 C 0.01934 0.23097 0.40250
 C138 C -0.02081 0.23085 0.40220
 C139 C -0.03248 0.26378 0.38127
 N140 N -0.00067 0.28399 0.36897
 C141 C 0.03105 0.26392 0.38175
 C142 C -0.07178 0.27628 0.37683
 C143 C -0.08334 0.30797 0.35269
 C144 C -0.12011 0.32540 0.35311
 C145 C -0.11990 0.35386 0.32451
 C146 C -0.08302 0.35308 0.30733
 N147 N -0.06114 0.32473 0.32440
 C148 C -0.07108 0.37696 0.27559
 C149 C -0.03168 0.38093 0.26325
 C150 C -0.01965 0.40148 0.23022
 C151 C 0.02049 0.40151 0.23061
 C152 C 0.03183 0.38097 0.26381
 N153 N -0.00011 0.36856 0.28377
 C154 C 0.07095 0.37703 0.27676
 C155 C 0.08247 0.35314 0.30855
 C156 C 0.11914 0.35386 0.32608
 C157 C 0.11896 0.32538 0.35470
 C158 C 0.08219 0.30808 0.35386
 N159 N 0.06035 0.32484 0.32534
 C160 C 0.07031 0.27649 0.37785
 H161 H 0.03778 0.20955 0.41694
 H162 H -0.03931 0.20932 0.41638
 H163 H 0.03342 0.31489 0.31529
 H164 H -0.14459 0.31827 0.37199
 H165 H -0.14420 0.37287 0.31710
 H166 H -0.03792 0.41563 0.20847
 H167 H 0.03917 0.41565 0.20921
 H168 H 0.14319 0.31818 0.37386
 H169 H -0.03410 0.31472 0.31466
 H170 H 0.14353 0.37284 0.31892
 C171 C -0.01946 0.57180 0.74377
 C172 C 0.02069 0.57186 0.74377
 C173 C 0.03229 0.60565 0.72433
 N174 N 0.00051 0.62635 0.71278
 C175 C -0.03124 0.60560 0.72435
 C176 C 0.07161 0.61782 0.71969
 C177 C 0.08336 0.64979 0.69617
 C178 C 0.12064 0.66600 0.69580
 C179 C 0.12071 0.69452 0.66719
 C180 C 0.08346 0.69491 0.65093
 N181 N 0.06106 0.66739 0.66857
 C182 C 0.07176 0.71849 0.61900
 C183 C 0.03241 0.72349 0.60715
 C184 C 0.02068 0.74345 0.57372
 C185 C -0.01946 0.74371 0.57396
 C186 C -0.03105 0.72388 0.60753
 N187 N 0.00072 0.71184 0.62791
 C188 C -0.07033 0.71933 0.61981
 C189 C -0.08204 0.69571 0.65171
 C190 C -0.11921 0.69562 0.66818
 C191 C -0.11933 0.66686 0.69653
 C192 C -0.08222 0.65015 0.69656
 N193 N -0.05985 0.66777 0.66898
 C194 C -0.07063 0.61782 0.71979
 H195 H -0.03787 0.54952 0.75687
 H196 H 0.03919 0.54964 0.75684
 H197 H -0.03269 0.65814 0.65929
 H198 H 0.14536 0.65781 0.71391
 H199 H 0.14547 0.71258 0.65899
 H200 H 0.03910 0.75675 0.55156
 H201 H -0.03795 0.75723 0.55201
 H202 H -0.14407 0.65881 0.71470
 H203 H 0.03373 0.65799 0.65916
 H204 H -0.14381 0.71403 0.66028
 C205 C 0.98028 0.76894 0.40274
 C206 C 1.02042 0.76916 0.40271
 C207 C 1.03234 0.73627 0.38188
 N208 N 1.00067 0.71598 0.36937
 C209 C 0.96881 0.73598 0.38192
 C210 C 1.07172 0.72387 0.37771
 C211 C 1.08357 0.69220 0.35368
 C212 C 1.12039 0.67490 0.35437
 C213 C 1.12051 0.64642 0.32580
 C214 C 1.08376 0.64707 0.30837
 N215 N 1.06165 0.67535 0.32527
 C216 C 1.07214 0.62311 0.27657
 C217 C 1.03285 0.61908 0.26394
 C218 C 1.02113 0.59852 0.23083
 C219 C 0.98099 0.59847 0.23090
 C220 C 0.96934 0.61900 0.26399
 N221 N 1.00108 0.63142 0.28420
 C222 C 0.93009 0.62291 0.27661
 C223 C 0.91824 0.64673 0.30832
 C224 C 0.88141 0.64592 0.32554
 C225 C 0.88127 0.67437 0.35417
 C226 C 0.91801 0.69174 0.35364
 N227 N 0.94015 0.67504 0.32530
 C228 C 0.92960 0.72332 0.37774
 H229 H 0.96168 0.79031 0.41704
 H230 H 1.03877 0.79073 0.41701
 H231 H 0.96715 0.68504 0.31547
 H232 H 1.14471 0.68213 0.37341
 H233 H 1.14493 0.62750 0.31858
 H234 H 1.03960 0.58441 0.20923
 H235 H 0.96250 0.58433 0.20935
 H236 H 0.85685 0.68151 0.37312
 H237 H 1.03465 0.68526 0.31534
 H238 H 0.85711 0.62691 0.31816
 C239 C 0.98081 0.42630 0.74354
 C240 C 1.02097 0.42612 0.74370
 C241 C 1.03258 0.39242 0.72410
 N242 N 1.00081 0.37192 0.71227
 C243 C 0.96910 0.39271 0.72383
 C244 C 1.07186 0.38010 0.71959
 C245 C 1.08349 0.34797 0.69626
 C246 C 1.12059 0.33133 0.69637
 C247 C 1.12064 0.30274 0.66788
 C248 C 1.08356 0.30274 0.65113
 N249 N 1.06128 0.33056 0.66847
 C250 C 1.07195 0.27934 0.61897
 C251 C 1.03261 0.27495 0.60659
 C252 C 1.02093 0.25546 0.57281
 C253 C 0.98080 0.25574 0.57261
 C254 C 0.96911 0.27541 0.60622
 N255 N 1.00082 0.28682 0.62707
 C256 C 0.92974 0.28036 0.61809
 C257 C 0.91800 0.30383 0.65007
 C258 C 0.88069 0.30429 0.66620
 C259 C 0.88070 0.33277 0.69483
 C260 C 0.91802 0.34888 0.69534
 N261 N 0.94040 0.33127 0.66780
 C262 C 0.92975 0.38077 0.71894
 H263 H 0.96238 0.44854 0.75668
 H264 H 1.03947 0.44819 0.75701
 H265 H 0.96777 0.34062 0.65847
 H266 H 1.14519 0.33928 0.71474
 H267 H 1.14531 0.28440 0.66001
 H268 H 1.03940 0.24212 0.55073
 H269 H 0.96238 0.24269 0.55035
 H270 H 0.85593 0.34100 0.71287
 H271 H 1.03418 0.34029 0.65872
 H272 H 0.85591 0.28631 0.65790
 C273 C 0.40121 0.01940 0.23099
 C274 C 0.40100 -0.02078 0.23097
 C275 C 0.37972 -0.03237 0.26363
 N276 N 0.36711 -0.00057 0.28364
 C277 C 0.38005 0.03114 0.26366
 C278 C 0.37533 -0.07160 0.27617
 C279 C 0.35110 -0.08330 0.30760
 C280 C 0.35174 -0.12007 0.32498
 C281 C 0.32304 -0.12008 0.35332
 C282 C 0.30561 -0.08330 0.35246
 N283 N 0.32260 -0.06129 0.32418
 C284 C 0.27378 -0.07150 0.37627
 C285 C 0.26123 -0.03216 0.38009
 C286 C 0.22811 -0.02023 0.40051
 C287 C 0.22837 0.01993 0.40050
 C288 C 0.26161 0.03136 0.38006
 N289 N 0.28169 -0.00052 0.36775
 C290 C 0.27455 0.07050 0.37627
 C291 C 0.30636 0.08218 0.35253
 C292 C 0.32387 0.11887 0.35350
 C293 C 0.35256 0.11885 0.32513
 C294 C 0.35178 0.08214 0.30765
 N295 N 0.32321 0.06020 0.32419
 C296 C 0.37597 0.07038 0.27621
 H297 H 0.41588 0.03784 0.20973
 H298 H 0.41549 -0.03933 0.20969
 H299 H 0.31318 0.03330 0.31410
 H300 H 0.37086 -0.14441 0.31793
 H301 H 0.31575 -0.14444 0.37232
 H302 H 0.20640 -0.03858 0.41462
 H303 H 0.20690 0.03857 0.41458
 H304 H 0.37176 0.14313 0.31814
 H305 H 0.31274 -0.03431 0.31409
 H306 H 0.31666 0.14317 0.37258
 C307 C 0.59923 -0.02004 0.76940
 C308 C 0.59898 0.02014 0.76935
 C309 C 0.61959 0.03189 0.73633
 N310 N 0.63224 0.00018 0.71616
 C311 C 0.61997 -0.03162 0.73639
 C312 C 0.62344 0.07117 0.72373
 C313 C 0.64720 0.08299 0.69194
 C314 C 0.64634 0.11982 0.67470
 C315 C 0.67460 0.11988 0.64588
 C316 C 0.69193 0.08308 0.64632
 N317 N 0.67539 0.06100 0.67478
 C318 C 0.72333 0.07142 0.62199
 C319 C 0.73600 0.03219 0.61767
 C320 C 0.76878 0.02075 0.59651
 C321 C 0.76910 -0.01942 0.59654
 C322 C 0.73646 -0.03139 0.61772
 N323 N 0.71622 0.00027 0.63042
 C324 C 0.72429 -0.07083 0.62215
 C325 C 0.69289 -0.08264 0.64654
 C326 C 0.67572 -0.11955 0.64626
 C327 C 0.64742 -0.11952 0.67502
 C328 C 0.64805 -0.08262 0.69210
 N329 N 0.67614 -0.06054 0.67490
 C330 C 0.62421 -0.07087 0.72386
 H331 H 0.58513 -0.03859 0.79094
 H332 H 0.58467 0.03857 0.79085
 H333 H 0.68596 -0.03343 0.68460
 H334 H 0.62740 0.14416 0.68216
 H335 H 0.68165 0.14429 0.62685
 H336 H 0.78997 0.03938 0.58200
 H337 H 0.79057 -0.03774 0.58204
 H338 H 0.62861 -0.14393 0.68256
 H339 H 0.68544 0.03397 0.68452
 H340 H 0.68290 -0.14400 0.62735
 C341 C 0.23110 0.97961 0.59744
 C342 C 0.23078 1.01977 0.59746
 C343 C 0.26361 1.03173 0.61831
 N344 N 0.28395 1.00007 0.63086
 C345 C 0.26406 0.96817 0.61829
 C346 C 0.27589 1.07115 0.62253
 C347 C 0.30739 1.08297 0.64673
 C348 C 0.32460 1.11986 0.64630
 C349 C 0.35298 1.11985 0.67496
 C350 C 0.35236 1.08299 0.69214
 N351 N 0.32420 1.06091 0.67509
 C352 C 0.37627 1.07125 0.72383
 C353 C 0.38054 1.03200 0.73636
 C354 C 0.40135 1.02040 0.76931
 C355 C 0.40159 0.98022 0.76928
 C356 C 0.38091 0.96848 0.73631
 N357 N 0.36824 1.00020 0.71617
 C358 C 0.37703 0.92921 0.72374
 C359 C 0.35321 0.91739 0.69203
 C360 C 0.35408 0.88059 0.67475
 C361 C 0.32572 0.88053 0.64605
 C362 C 0.30833 0.91730 0.64660
 N363 N 0.32493 0.93936 0.67501
 C364 C 0.27682 0.92896 0.62244
 H365 H 0.20979 0.96098 0.58314
 H366 H 0.20919 1.03810 0.58315
 H367 H 0.31487 0.96635 0.68483
 H368 H 0.31738 1.14428 0.62736
 H369 H 0.37184 1.14426 0.68237
 H370 H 0.41549 1.03893 0.79081
 H371 H 0.41594 0.96178 0.79074
 H372 H 0.31864 0.85615 0.62703
 H373 H 0.31437 1.03382 0.68490
 H374 H 0.37308 0.85627 0.68211
 C375 C 0.57247 1.02061 0.25709
 C376 C 0.57259 0.98045 0.25715
 C377 C 0.60638 0.96891 0.27656
 N378 N 0.62704 1.00074 0.28804
 C379 C 0.60625 1.03245 0.27646
 C380 C 0.61857 0.92958 0.28123
 C381 C 0.65073 0.91796 0.30450
 C382 C 0.66709 0.88072 0.30478
 C383 C 0.69582 0.88081 0.33314
 C384 C 0.69618 0.91810 0.34935
 N385 N 0.66845 0.94039 0.33192
 C386 C 0.71980 0.92989 0.38118
 C387 C 0.72454 0.96924 0.39319
 C388 C 0.74431 0.98088 0.42674
 C389 C 0.74432 1.02103 0.42674
 C390 C 0.72456 1.03277 0.39314
 N391 N 0.71279 1.00101 0.37256
 C392 C 0.71986 1.07217 0.38096
 C393 C 0.69620 1.08376 0.34896
 C394 C 0.69595 1.12090 0.33230
 C395 C 0.66722 1.12082 0.30397
 C396 C 0.65068 1.08363 0.30409
 N397 N 0.66837 1.06141 0.33175
 C398 C 0.61838 1.07189 0.28094
 H399 H 0.55018 1.03899 0.24397
 H400 H 0.55041 0.96191 0.24412
 H401 H 0.65883 1.03422 0.34150
 H402 H 0.65886 0.85594 0.28677
 H403 H 0.71402 0.85611 0.34123
 H404 H 0.75762 0.96241 0.44885
 H405 H 0.75766 1.03947 0.44883
 H406 H 0.65908 1.14547 0.28572
 H407 H 0.65902 0.96770 0.34140
 H408 H 0.71424 1.14562 0.34009
 O409 O 0.86807 0.81428 0.46292
 O410 O 0.81433 0.86853 0.53860
 O411 O 0.86768 0.81377 0.53859
 O412 O 0.81366 0.86787 0.46293
 O413 O 0.76758 0.82229 0.46283
 O414 O 0.82189 0.76789 0.53899
 O415 O 0.76807 0.82314 0.53902
 O416 O 0.82246 0.76822 0.46280
 Cu417 Cu 0.84552 0.84568 0.50076
 Cu418 Cu 0.79033 0.79073 0.50094
 C419 C 0.85479 0.78193 0.45040
 C420 C 0.78194 0.85547 0.55122
 C421 C 0.85430 0.78145 0.55115
 C422 C 0.78129 0.85458 0.45047
 O423 O 0.13133 0.18563 0.46372
 O424 O 0.18561 0.13139 0.53905
 O425 O 0.13221 0.18605 0.53933
 O426 O 0.18507 0.13157 0.46329
 O427 O 0.23143 0.17687 0.46248
 O428 O 0.17812 0.23181 0.53904
 O429 O 0.23202 0.17664 0.53881
 O430 O 0.17720 0.23142 0.46289
 Cu431 Cu 0.15397 0.15408 0.50145
 Cu432 Cu 0.20942 0.20879 0.50080
 C433 C 0.14471 0.21783 0.45088
 C434 C 0.21813 0.14444 0.55133
 C435 C 0.14576 0.21839 0.55156
 C436 C 0.21727 0.14472 0.45026
 O437 O 0.18507 0.86811 0.46156
 O438 O 0.13271 0.81283 0.53747
 O439 O 0.18593 0.86753 0.53731
 O440 O 0.13157 0.81371 0.46185
 O441 O 0.17760 0.76806 0.46053
 O442 O 0.23250 0.82243 0.53658
 O443 O 0.17878 0.76721 0.53670
 O444 O 0.23159 0.82296 0.46026
 Cu445 Cu 0.15421 0.84510 0.49967
 Cu446 Cu 0.20986 0.79057 0.49843
 C447 C 0.21731 0.85520 0.44836
 C448 C 0.14647 0.78047 0.54951
 C449 C 0.21852 0.85446 0.54941
 C450 C 0.14499 0.78162 0.44879
 O451 O 0.86746 0.18701 0.53597
 O452 O 0.81300 0.13297 0.46064
 O453 O 0.86761 0.18639 0.46030
 O454 O 0.81375 0.13279 0.53630
 O455 O 0.76774 0.17847 0.53663
 O456 O 0.82225 0.23272 0.46007
 O457 O 0.76713 0.17879 0.46042
 O458 O 0.82194 0.23319 0.53628
 Cu459 Cu 0.84502 0.15519 0.49828
 Cu460 Cu 0.79012 0.21048 0.49833
 C461 C 0.85426 0.21942 0.54850
 C462 C 0.78064 0.14634 0.44823
 C463 C 0.85450 0.21880 0.44773
 C464 C 0.78150 0.14614 0.54897
 O465 O 0.46280 0.86789 0.81461
 O466 O 0.53830 0.81341 0.86848
 O467 O 0.53862 0.86774 0.81470
 O468 O 0.46281 0.81345 0.86827
 O469 O 0.46263 0.76766 0.82239
 O470 O 0.53894 0.82242 0.76836
 O471 O 0.53861 0.76760 0.82261
 O472 O 0.46259 0.82257 0.76826
 Cu473 Cu 0.50063 0.84524 0.84606
 Cu474 Cu 0.50070 0.79049 0.79065
 C475 C 0.45020 0.85478 0.78222
 C476 C 0.55070 0.78101 0.85514
 C477 C 0.55131 0.85459 0.78235
 C478 C 0.45043 0.78110 0.85487
 O479 O 0.53878 0.18734 0.13435
 O480 O 0.46276 0.13237 0.18680
 O481 O 0.46327 0.18722 0.13367
 O482 O 0.53846 0.13298 0.18810
 O483 O 0.53788 0.17815 0.23459
 O484 O 0.46217 0.23279 0.17979
 O485 O 0.46165 0.17746 0.23336
 O486 O 0.53818 0.23301 0.18036
 Cu487 Cu 0.50093 0.15540 0.15613
 Cu488 Cu 0.49992 0.20993 0.21179
 C489 C 0.55082 0.21973 0.14797
 C490 C 0.44964 0.14526 0.21907
 C491 C 0.45046 0.21941 0.14712
 C492 C 0.55050 0.14601 0.22073
 O493 O 0.53756 0.13252 0.81460
 O494 O 0.46195 0.18713 0.86829
 O495 O 0.46173 0.13268 0.81464
 O496 O 0.53745 0.18691 0.86830
 O497 O 0.53778 0.23269 0.82238
 O498 O 0.46155 0.17798 0.76825
 O499 O 0.46179 0.23291 0.82236
 O500 O 0.53791 0.17783 0.76822
 Cu501 Cu 0.49966 0.15520 0.84601
 Cu502 Cu 0.49977 0.20992 0.79054
 C503 C 0.55024 0.14561 0.78221
 C504 C 0.44961 0.21953 0.85489
 C505 C 0.44913 0.14581 0.78226
 C506 C 0.54990 0.21925 0.85489
 O507 O 0.46226 0.81190 0.13336
 O508 O 0.53727 0.86666 0.18753
 O509 O 0.53778 0.81239 0.13375
 O510 O 0.46159 0.86665 0.18650
 O511 O 0.46101 0.82150 0.23305
 O512 O 0.53771 0.76663 0.17970
 O513 O 0.53723 0.82141 0.23398
 O514 O 0.46169 0.76627 0.17944
 Cu515 Cu 0.49978 0.84398 0.15569
 Cu516 Cu 0.49942 0.78936 0.21130
 C517 C 0.44973 0.77961 0.14684
 C518 C 0.54954 0.85367 0.22011
 C519 C 0.55011 0.78008 0.14729
 C520 C 0.44871 0.85362 0.21881
 O521 O 0.86763 0.53807 0.81241
 O522 O 0.81314 0.46286 0.86650
 O523 O 0.86721 0.46246 0.81251
 O524 O 0.81317 0.53846 0.86601
 O525 O 0.76734 0.53871 0.82019
 O526 O 0.82178 0.46220 0.76628
 O527 O 0.76723 0.46261 0.82076
 O528 O 0.82228 0.53831 0.76611
 Cu529 Cu 0.84486 0.50046 0.84397
 Cu530 Cu 0.79001 0.50046 0.78864
 C531 C 0.85463 0.55045 0.77990
 C532 C 0.78075 0.45048 0.85324
 C533 C 0.85405 0.44993 0.78011
 C534 C 0.78088 0.55097 0.85259
 O535 O 0.13266 0.53909 0.18682
 O536 O 0.18729 0.46352 0.13315
 O537 O 0.13274 0.46322 0.18666
 O538 O 0.18743 0.53906 0.13346
 O539 O 0.23295 0.53913 0.17958
 O540 O 0.17778 0.46277 0.23324
 O541 O 0.23283 0.46309 0.17926
 O542 O 0.17768 0.53919 0.23342
 Cu543 Cu 0.15544 0.50126 0.15545
 Cu544 Cu 0.20985 0.50104 0.21115
 C545 C 0.14557 0.55162 0.21931
 C546 C 0.21956 0.45103 0.14665
 C547 C 0.14568 0.45044 0.21906
 C548 C 0.21973 0.55138 0.14702
 O549 O 0.86889 0.46128 0.18571
 O550 O 0.81438 0.53704 0.13225
 O551 O 0.86880 0.53713 0.18584
 O552 O 0.81431 0.46152 0.13223
 O553 O 0.76867 0.46121 0.17827
 O554 O 0.82361 0.53733 0.23233
 O555 O 0.76872 0.53722 0.17828
 O556 O 0.82373 0.46095 0.23221
 Cu557 Cu 0.84620 0.49924 0.15444
 Cu558 Cu 0.79163 0.49916 0.21004
 C559 C 0.85589 0.44860 0.21812
 C560 C 0.78207 0.54944 0.14575
 C561 C 0.85574 0.54974 0.21826
 C562 C 0.78199 0.44912 0.14570
 O563 O 0.18805 0.53667 0.86793
 O564 O 0.13433 0.46099 0.81379
 O565 O 0.18848 0.46107 0.86769
 O566 O 0.13419 0.53660 0.81375
 O567 O 0.17984 0.53707 0.76770
 O568 O 0.23456 0.46105 0.82207
 O569 O 0.17994 0.46097 0.76770
 O570 O 0.23417 0.53713 0.82235
 Cu571 Cu 0.15667 0.49881 0.84538
 Cu572 Cu 0.21179 0.49908 0.79029
 C573 C 0.22043 0.54924 0.85475
 C574 C 0.14759 0.44865 0.78135
 C575 C 0.22094 0.44876 0.85445
 C576 C 0.14741 0.54915 0.78137
 C577 C 0.26060 0.40428 0.10073
 C578 C 0.24220 0.42452 0.12313
 C579 C 0.74100 0.59626 0.09999
 C580 C 0.75945 0.57599 0.12230
 C581 C 0.74008 0.40389 0.89954
 C582 C 0.75828 0.42405 0.87693
 C583 C 0.26077 0.59611 0.90097
 C584 C 0.24266 0.57583 0.87844
 C585 C 0.09940 0.25698 0.40195
 C586 C 0.12144 0.23966 0.42350
 C587 C 0.10138 0.73944 0.59692
 C588 C 0.12351 0.75778 0.57639
 C589 C 0.90026 0.74275 0.40163
 C590 C 0.87808 0.76004 0.42307
 C591 C 0.90010 0.25962 0.59588
 C592 C 0.87775 0.24158 0.57532
 C593 C 0.40026 0.09954 0.25707
 C594 C 0.42199 0.12173 0.24022
 C595 C 0.59936 0.10026 0.74330
 C596 C 0.57775 0.12228 0.76057
 C597 C 0.40112 0.90011 0.74326
 C598 C 0.42272 0.87808 0.76053
 C599 C 0.59654 0.89984 0.26042
 C600 C 0.57616 0.87736 0.24234
 C601 C 0.40316 0.26068 0.90102
 C602 C 0.42322 0.24221 0.87849
 C603 C 0.59719 0.73996 0.90129
 C604 C 0.57709 0.75839 0.87879
 C605 C 0.40317 0.73867 0.10080
 C606 C 0.42330 0.75703 0.12329
 C607 C 0.59755 0.26090 0.10228
 C608 C 0.57738 0.24249 0.12470
 C609 C 0.25733 0.09878 0.59991
 C610 C 0.24001 0.12103 0.57857
 C611 C 0.73984 0.10029 0.40157
 C612 C 0.75815 0.12281 0.42171
 C613 C 0.74286 0.90145 0.59963
 C614 C 0.76014 0.87905 0.57839
 C615 C 0.25543 0.90099 0.39914
 C616 C 0.23849 0.87876 0.42076
 C617 C 0.10155 0.40190 0.74069
 C618 C 0.12402 0.42211 0.75895
 C619 C 0.09982 0.60044 0.25814
 C620 C 0.12210 0.57901 0.24095
 C621 C 0.90145 0.39969 0.25698
 C622 C 0.87929 0.42116 0.23973
 C623 C 0.90121 0.59702 0.73953
 C624 C 0.87848 0.57688 0.75760
 C625 C 0.74015 0.59776 0.89854
 C626 C 0.75845 0.57758 0.87606
 C627 C 0.26177 0.40233 0.90073
 C628 C 0.24344 0.42235 0.87811
 C629 C 0.26107 0.59772 0.10100
 C630 C 0.24252 0.57774 0.12352
 C631 C 0.74074 0.40284 0.09962
 C632 C 0.75928 0.42281 0.12211
 C633 C 0.90006 0.74062 0.59807
 C634 C 0.87774 0.75902 0.57780
 C635 C 0.90039 0.25781 0.39926
 C636 C 0.87798 0.24057 0.42049
 C637 C 0.10003 0.25933 0.59836
 C638 C 0.12247 0.24098 0.57819
 C639 C 0.09932 0.74247 0.40027
 C640 C 0.12157 0.75981 0.42156
 C641 C 0.60033 0.89993 0.74343
 C642 C 0.57880 0.87786 0.76071
 C643 C 0.39942 0.89916 0.25701
 C644 C 0.42108 0.87698 0.24010
 C645 C 0.59746 0.09993 0.26117
 C646 C 0.57713 0.12244 0.24305
 C647 C 0.40015 0.10047 0.74334
 C648 C 0.42166 0.12254 0.76060
 C649 C 0.59694 0.73938 0.10136
 C650 C 0.57672 0.75757 0.12389
 C651 C 0.40386 0.26022 0.10100
 C652 C 0.42401 0.24188 0.12348
 C653 C 0.59661 0.26020 0.90080
 C654 C 0.57639 0.24179 0.87843
 C655 C 0.40383 0.74009 0.90087
 C656 C 0.42396 0.75851 0.87842
 C657 C 0.74082 0.90027 0.40318
 C658 C 0.75903 0.87798 0.42365
 C659 C 0.25754 0.89970 0.59840
 C660 C 0.24034 0.87763 0.57684
 C661 C 0.25542 0.09958 0.40057
 C662 C 0.23851 0.12155 0.42244
 C663 C 0.74259 0.10075 0.59799
 C664 C 0.75975 0.12291 0.57645
 C665 C 0.90102 0.59886 0.25710
 C666 C 0.87902 0.57725 0.23986
 C667 C 0.90008 0.40280 0.73984
 C668 C 0.87764 0.42320 0.75794
 C669 C 0.10127 0.59593 0.74077
 C670 C 0.12374 0.57569 0.75902
 C671 C 0.10020 0.40114 0.25753
 C672 C 0.12232 0.42282 0.24048
   
