data_POSCAR
  _audit_creation_date              2014-09-24
  _audit_creation_method            'ToBaCCo'
  _symmetry_space_group_name_H-M    'P1'
  _symmetry_Int_Tables_number       1
  _symmetry_cell_setting            triclinic
  loop_
  _symmetry_equiv_pos_as_xyz
 x,y,z
_cell_length_a 20.2518
_cell_length_b 20.2518
_cell_length_c 34.5560
_cell_angle_alpha 89.877500
_cell_angle_beta 89.875900
_cell_angle_gamma 89.998400
loop_
  _atom_site_label
  _atom_site_type_symbol
  _atom_site_fract_x
  _atom_site_fract_y
  _atom_site_fract_z
O1 O 0.05416 0.56534 1.03710
 O2 O 0.05425 0.43668 0.96191
 O3 O 0.05424 0.56552 0.96183
 O4 O 0.05415 0.43657 1.03717
 O5 O -0.05505 0.43658 1.03726
 O6 O -0.05495 0.56552 0.96193
 O7 O -0.05496 0.43669 0.96200
 O8 O -0.05505 0.56534 1.03719
 Cu9 Cu 0.06522 0.50103 0.99948
 Cu10 Cu -0.06602 0.50104 0.99960
 C11 C -0.00046 0.58722 1.04974
 C12 C -0.00034 0.41476 0.94940
 C13 C -0.00034 0.58750 0.94928
 C14 C -0.00046 0.41464 1.04983
 O15 O 0.43664 0.05409 0.53717
 O16 O 0.56559 0.05418 0.46184
 O17 O 0.43675 0.05418 0.46191
 O18 O 0.56540 0.05409 0.53710
 O19 O 0.56541 -0.05512 0.53719
 O20 O 0.43676 -0.05502 0.46200
 O21 O 0.56559 -0.05501 0.46192
 O22 O 0.43664 -0.05512 0.53726
 Cu23 Cu 0.50110 0.06515 0.49949
 Cu24 Cu 0.50110 -0.06608 0.49959
 C25 C 0.41470 -0.00053 0.54983
 C26 C 0.58757 -0.00040 0.44928
 C27 C 0.41483 -0.00040 0.44940
 C28 C 0.58728 -0.00053 0.54974
 C29 C -0.00042 0.00014 0.25039
 C30 C 0.00020 -0.00050 0.75039
 C31 C -0.00052 -0.26492 0.12949
 N32 N -0.05828 -0.23865 0.14209
 N33 N -0.05827 -0.18809 0.16672
 C34 C -0.00051 -0.16230 0.17950
 N35 N 0.05724 -0.18863 0.16694
 N36 N 0.05724 -0.23918 0.14231
 C37 C -0.00051 -0.31786 0.10197
 C38 C -0.00049 -0.36161 0.07837
 C39 C -0.00049 -0.10640 0.20493
 C40 C -0.00046 -0.05869 0.22576
 C41 C -0.00053 0.26626 0.12963
 N42 N -0.05829 0.23986 0.14220
 N43 N -0.05828 0.18910 0.16681
 C44 C -0.00052 0.16322 0.17959
 N45 N 0.05724 0.18968 0.16706
 N46 N 0.05723 0.24044 0.14245
 C47 C -0.00052 0.31940 0.10210
 C48 C -0.00050 0.36330 0.07849
 C49 C -0.00050 0.10710 0.20499
 C50 C -0.00047 0.05920 0.22579
 C51 C 0.26632 -0.00061 0.62963
 N52 N 0.23990 -0.05836 0.64218
 N53 N 0.18914 -0.05836 0.66679
 C54 C 0.16328 -0.00060 0.67959
 N55 N 0.18976 0.05716 0.66708
 N56 N 0.24052 0.05716 0.64247
 C57 C 0.31947 -0.00059 0.60210
 C58 C 0.36337 -0.00057 0.57849
 C59 C 0.10715 -0.00057 0.70499
 C60 C 0.05925 -0.00055 0.72579
 C61 C -0.26486 -0.00060 0.62949
 N62 N -0.23916 0.05716 0.64234
 N63 N -0.18860 0.05716 0.66697
 C64 C -0.16224 -0.00060 0.67950
 N65 N -0.18800 -0.05836 0.66669
 N66 N -0.23855 -0.05836 0.64207
 C67 C -0.31780 -0.00059 0.60197
 C68 C -0.36154 -0.00057 0.57837
 C69 C -0.10635 -0.00057 0.70493
 C70 C -0.05864 -0.00055 0.72576
 C71 C -0.00020 -0.26662 0.87118
 N72 N 0.05759 -0.24074 0.85829
 N73 N 0.05765 -0.18991 0.83373
 C74 C -0.00007 -0.16341 0.82133
 N75 N -0.05786 -0.18934 0.83417
 N76 N -0.05793 -0.24018 0.85873
 C77 C -0.00026 -0.31985 0.89865
 C78 C -0.00030 -0.36382 0.92223
 C79 C 0.00001 -0.10728 0.79593
 C80 C 0.00009 -0.05943 0.77509
 C81 C -0.00021 0.26607 0.87016
 N82 N -0.05794 0.23955 0.85784
 N83 N -0.05787 0.18863 0.83347
 C84 C -0.00008 0.16269 0.82070
 N85 N 0.05765 0.18926 0.83298
 N86 N 0.05758 0.24018 0.85735
 C87 C -0.00026 0.31937 0.89746
 C88 C -0.00030 0.36337 0.92089
 C89 C 0.00001 0.10646 0.79552
 C90 C 0.00009 0.05852 0.77486
 C91 C -0.26655 -0.00026 0.37118
 N92 N -0.24065 0.05753 0.35831
 N93 N -0.18981 0.05760 0.33375
 C94 C -0.16333 -0.00013 0.32133
 N95 N -0.18928 -0.05792 0.33416
 N96 N -0.24012 -0.05799 0.35872
 C97 C -0.31978 -0.00032 0.39865
 C98 C -0.36375 -0.00036 0.42223
 C99 C -0.10720 -0.00004 0.29593
 C100 C -0.05935 0.00004 0.27509
 C101 C 0.26614 -0.00026 0.37016
 N102 N 0.23968 -0.05799 0.35780
 N103 N 0.18876 -0.05792 0.33343
 C104 C 0.16276 -0.00013 0.32070
 N105 N 0.18928 0.05760 0.33302
 N106 N 0.24021 0.05753 0.35739
 C107 C 0.31944 -0.00032 0.39745
 C108 C 0.36344 -0.00036 0.42089
 C109 C 0.10653 -0.00004 0.29552
 C110 C 0.05860 0.00004 0.27486
   
