data_POSCAR
  _audit_creation_date              2014-09-24
  _audit_creation_method            'ToBaCCo'
  _symmetry_space_group_name_H-M    'P1'
  _symmetry_Int_Tables_number       1
  _symmetry_cell_setting            triclinic
  loop_
  _symmetry_equiv_pos_as_xyz
 x,y,z
_cell_length_a 29.4967
_cell_length_b 34.1390
_cell_length_c 26.9705
_cell_angle_alpha 89.930600
_cell_angle_beta 90.403500
_cell_angle_gamma 90.215800
loop_
  _atom_site_label
  _atom_site_type_symbol
  _atom_site_fract_x
  _atom_site_fract_y
  _atom_site_fract_z
C1 C 0.27827 0.29422 0.22094
 C2 C 0.24690 0.27281 0.24895
 C3 C 0.21639 0.29240 0.27966
 C4 C 0.21830 0.33329 0.28409
 C5 C 0.25052 0.35445 0.25682
 C6 C 0.28013 0.33535 0.22410
 C7 C 0.24745 0.22975 0.24780
 C8 C 0.28172 0.20956 0.27312
 C9 C 0.28229 0.16842 0.27397
 C10 C 0.24865 0.14780 0.24735
 C11 C 0.21443 0.16774 0.22090
 C12 C 0.21378 0.20892 0.22208
 H13 H 0.30053 0.27859 0.19616
 H14 H 0.19215 0.27574 0.30123
 H15 H 0.30782 0.22615 0.29235
 H16 H 0.18719 0.22492 0.20305
 H17 H 0.25208 0.38597 0.26097
 H18 H 0.24905 0.11611 0.24723
 C19 C 0.78022 0.79363 0.22357
 C20 C 0.74946 0.77369 0.25377
 C21 C 0.71915 0.79452 0.28321
 C22 C 0.71937 0.83582 0.28373
 C23 C 0.75047 0.85542 0.25249
 C24 C 0.78093 0.83492 0.22167
 C25 C 0.74840 0.73060 0.25387
 C26 C 0.78091 0.70949 0.28082
 C27 C 0.77999 0.66834 0.28116
 C28 C 0.74645 0.64868 0.25337
 C29 C 0.71372 0.66954 0.22599
 C30 C 0.71479 0.71068 0.22690
 H31 H 0.80165 0.77634 0.19975
 H32 H 0.69707 0.77793 0.30733
 H33 H 0.80692 0.72520 0.30134
 H34 H 0.68950 0.72738 0.20672
 H35 H 0.75085 0.88696 0.25204
 H36 H 0.74586 0.61697 0.25307
 C37 C 0.78229 0.29194 0.72588
 C38 C 0.75138 0.27114 0.75494
 C39 C 0.72073 0.29126 0.78499
 C40 C 0.72048 0.33264 0.78668
 C41 C 0.75136 0.35294 0.75592
 C42 C 0.78234 0.33299 0.72578
 C43 C 0.75125 0.22805 0.75406
 C44 C 0.78502 0.20717 0.77928
 C45 C 0.78590 0.16578 0.77842
 C46 C 0.75224 0.14625 0.74992
 C47 C 0.71817 0.16705 0.72437
 C48 C 0.71775 0.20806 0.72727
 H49 H 0.80626 0.27599 0.70338
 H50 H 0.69885 0.27401 0.80857
 H51 H 0.81120 0.22379 0.79820
 H52 H 0.69147 0.22467 0.70857
 H53 H 0.75009 0.38450 0.75302
 H54 H 0.75133 0.11465 0.74840
 C55 C 0.28143 0.79256 0.71491
 C56 C 0.25211 0.77130 0.74548
 C57 C 0.22174 0.79089 0.77620
 C58 C 0.22021 0.83196 0.77658
 C59 C 0.24926 0.85307 0.74498
 C60 C 0.28057 0.83392 0.71382
 C61 C 0.25329 0.72825 0.74502
 C62 C 0.28708 0.70838 0.77157
 C63 C 0.28899 0.66731 0.77068
 C64 C 0.25695 0.64643 0.74228
 C65 C 0.22275 0.66602 0.71558
 C66 C 0.22110 0.70714 0.71741
 H67 H 0.30327 0.77620 0.69047
 H68 H 0.20008 0.77398 0.80051
 H69 H 0.31194 0.72497 0.79269
 H70 H 0.19477 0.72286 0.69757
 H71 H 0.24812 0.88466 0.74623
 H72 H 0.25857 0.61476 0.74122
 C73 C 0.06661 0.05221 0.01960
 H74 H 0.07140 0.05127 -0.02011
 C75 C 0.09417 0.07630 0.04886
 H76 H 0.12059 0.09330 0.03123
 C77 C 0.02714 0.02997 0.09050
 H78 H 0.00053 0.01234 0.10653
 C79 C 0.05366 0.05396 0.12115
 H80 H 0.04699 0.05443 0.16056
 N81 N 0.03463 0.02895 0.04081
 C82 C 0.02230 -0.06005 -0.07480
 H83 H -0.01371 -0.05932 -0.08261
 C84 C 0.05075 -0.08307 -0.10390
 H85 H 0.03623 -0.09927 -0.13463
 C86 C 0.08470 -0.03866 -0.02612
 H87 H 0.09778 -0.02185 0.00474
 C88 C 0.11423 -0.06176 -0.05364
 H89 H 0.14974 -0.06235 -0.04330
 Zn90 Zn 0.00048 -0.00406 -0.00202
 N91 N 0.03983 -0.03735 -0.03791
 C92 C -0.02749 0.02853 -0.09535
 N93 N -0.03289 0.02915 -0.04529
 C94 C -0.06268 0.05409 -0.02372
 C95 C -0.09026 0.07818 -0.05280
 C96 C -0.05442 0.05216 -0.12588
 C97 C -0.02200 -0.05997 0.07049
 C98 C -0.05053 -0.08271 0.10014
 C99 C -0.11468 -0.05799 0.05377
 C100 C -0.08498 -0.03560 0.02524
 N101 N -0.03965 -0.03622 0.03479
 H102 H -0.00245 0.00974 -0.11185
 H103 H -0.06580 0.05447 0.01622
 H104 H -0.11492 0.09670 -0.03486
 H105 H -0.04989 0.05106 -0.16566
 H106 H 0.01426 -0.06044 0.07676
 H107 H -0.03591 -0.10023 0.12962
 H108 H -0.15064 -0.05698 0.04556
 H109 H -0.09831 -0.01773 -0.00448
 C110 C 0.09763 -0.08370 -0.09400
 C111 C 0.08819 0.07719 0.10051
 C112 C -0.09767 -0.08145 0.09243
 C113 C -0.08679 0.07702 -0.10468
 C114 C 0.06987 0.55030 0.51785
 H115 H 0.07362 0.54844 0.47805
 C116 C 0.09982 0.57331 0.54573
 H117 H 0.12689 0.58874 0.52702
 C118 C 0.03106 0.53094 0.59052
 H119 H 0.00464 0.51404 0.60802
 C120 C 0.06000 0.55381 0.61976
 H121 H 0.05471 0.55477 0.65942
 N122 N 0.03617 0.52987 0.54046
 C123 C 0.02896 0.46301 0.41103
 H124 H 0.00177 0.47866 0.39294
 C125 C 0.05768 0.43966 0.38278
 H126 H 0.05231 0.43753 0.34310
 C127 C 0.07016 0.44744 0.48418
 H128 H 0.07473 0.45074 0.52379
 C129 C 0.10017 0.42436 0.45720
 H130 H 0.12778 0.40971 0.47620
 Zn131 Zn -0.00216 0.49840 0.50017
 N132 N 0.03543 0.46623 0.46087
 C133 C -0.07232 0.51290 0.43194
 N134 N -0.03947 0.53048 0.45978
 C135 C -0.03451 0.57012 0.46018
 C136 C -0.06261 0.59364 0.43090
 C137 C -0.10101 0.53529 0.40193
 C138 C -0.03649 0.42735 0.54018
 C139 C -0.06487 0.40449 0.56983
 C140 C -0.10129 0.46366 0.59790
 C141 C -0.07247 0.48534 0.56748
 N142 N -0.04041 0.46704 0.54001
 H143 H -0.07620 0.48139 0.43314
 H144 H -0.00887 0.58366 0.48329
 H145 H -0.05776 0.62510 0.43120
 H146 H -0.12711 0.52077 0.38023
 H147 H -0.01128 0.41332 0.51749
 H148 H -0.06082 0.37298 0.57016
 H149 H -0.12658 0.47874 0.61956
 H150 H -0.07537 0.51690 0.56593
 C151 C 0.09395 0.42023 0.40587
 C152 C 0.09509 0.57533 0.59748
 C153 C -0.09754 0.42269 0.59950
 C154 C -0.09627 0.57623 0.40110
 C155 C 0.56490 0.05912 0.52091
 H156 H 0.56916 0.05903 0.48110
 C157 C 0.59314 0.08230 0.55056
 H158 H 0.61946 0.09949 0.53305
 C159 C 0.52647 0.03528 0.59165
 H160 H 0.50012 0.01727 0.60751
 C161 C 0.55362 0.05840 0.62271
 H162 H 0.54762 0.05789 0.66225
 N163 N 0.53330 0.03532 0.54182
 C164 C 0.52203 -0.05411 0.42671
 H165 H 0.48589 -0.05414 0.41955
 C166 C 0.55055 -0.07752 0.39820
 H167 H 0.53610 -0.09510 0.36864
 C168 C 0.58469 -0.03046 0.47336
 H169 H 0.59788 -0.01279 0.50335
 C170 C 0.61436 -0.05348 0.44596
 H171 H 0.65014 -0.05302 0.45517
 Zn172 Zn 0.49967 0.00236 0.49842
 N173 N 0.53957 -0.03038 0.46255
 C174 C 0.47307 0.03549 0.40519
 N175 N 0.46626 0.03531 0.45502
 C176 C 0.43484 0.05898 0.47605
 C177 C 0.40679 0.08227 0.44651
 C178 C 0.44611 0.05876 0.37424
 C179 C 0.47717 -0.05432 0.57002
 C180 C 0.44866 -0.07787 0.59866
 C181 C 0.38473 -0.05370 0.55148
 C182 C 0.41440 -0.03055 0.52392
 N183 N 0.45959 -0.03049 0.53436
 H184 H 0.49928 0.01756 0.38926
 H185 H 0.43060 0.05872 0.51586
 H186 H 0.38060 0.09933 0.46413
 H187 H 0.45214 0.05847 0.33470
 H188 H 0.51335 -0.05434 0.57692
 H189 H 0.46318 -0.09556 0.62805
 H190 H 0.34889 -0.05324 0.54255
 H191 H 0.40115 -0.01277 0.49408
 C192 C 0.59752 -0.07694 0.40722
 C193 C 0.58815 0.08182 0.60236
 C194 C 0.40164 -0.07733 0.58998
 C195 C 0.41180 0.08209 0.39471
 C196 C 0.56812 0.55552 0.02221
 H197 H 0.57429 0.55384 -0.01722
 C198 C 0.59535 0.57948 0.05195
 H199 H 0.62293 0.59552 0.03504
 C200 C 0.52543 0.53549 0.09191
 H201 H 0.49783 0.51865 0.10730
 C202 C 0.55158 0.55940 0.12298
 H203 H 0.54360 0.56067 0.16206
 N204 N 0.53454 0.53347 0.04260
 C205 C 0.52282 0.43944 -0.06748
 H206 H 0.48674 0.43715 -0.07317
 C207 C 0.55161 0.41584 -0.09538
 H208 H 0.53716 0.39683 -0.12349
 C209 C 0.58533 0.46615 -0.02360
 H210 H 0.59857 0.48482 0.00531
 C211 C 0.61531 0.44296 -0.05039
 H212 H 0.65120 0.44454 -0.04191
 Zn213 Zn 0.50017 0.49979 0.00039
 N214 N 0.54005 0.46517 -0.03368
 C215 C 0.43878 0.51401 -0.07971
 N216 N 0.46654 0.53129 -0.04556
 C217 C 0.46913 0.57104 -0.04209
 C218 C 0.44344 0.59484 -0.07358
 C219 C 0.41244 0.53669 -0.11183
 C220 C 0.47815 0.44396 0.07270
 C221 C 0.45001 0.42174 0.10338
 C222 C 0.38504 0.45069 0.06276
 C223 C 0.41439 0.47300 0.03375
 N224 N 0.46003 0.46928 0.03911
 H225 H 0.43535 0.48262 -0.08083
 H226 H 0.49037 0.58459 -0.01424
 H227 H 0.44614 0.62636 -0.07015
 H228 H 0.38961 0.52220 -0.13757
 H229 H 0.51459 0.44169 0.07633
 H230 H 0.46539 0.40292 0.13101
 H231 H 0.34892 0.45363 0.05675
 H232 H 0.40051 0.49347 0.00722
 C233 C 0.59867 0.41804 -0.08773
 C234 C 0.58754 0.58143 0.10321
 C235 C 0.40261 0.42490 0.09874
 C236 C 0.41437 0.57770 -0.10886
 C237 C 0.14513 -0.16157 -0.18013
 C238 C 0.18892 -0.14702 -0.18952
 C239 C 0.20262 -0.11201 -0.16636
 C240 C 0.17308 -0.09166 -0.13555
 C241 C 0.12921 -0.10606 -0.12621
 C242 C 0.11574 -0.14147 -0.14868
 H243 H 0.13326 -0.18826 -0.19764
 H244 H 0.23636 -0.10028 -0.17180
 H245 H 0.18455 -0.06423 -0.11969
 H246 H 0.08252 -0.15383 -0.14187
 C247 C 0.20287 0.38162 0.35145
 C248 C 0.18655 0.35414 0.31692
 C249 C 0.13965 0.34763 0.31280
 C250 C 0.10949 0.36900 0.34189
 C251 C 0.12581 0.39666 0.37622
 C252 C 0.17278 0.40245 0.38117
 H253 H 0.23894 0.38695 0.35537
 H254 H 0.12635 0.32672 0.28621
 H255 H 0.07340 0.36393 0.33765
 H256 H 0.18611 0.42380 0.40718
 C257 C 0.70050 -0.10491 0.33190
 C258 C 0.68932 -0.14290 0.31477
 C259 C 0.64718 -0.15887 0.32954
 C260 C 0.61755 -0.13764 0.35946
 C261 C 0.62901 -0.09988 0.37586
 C262 C 0.67083 -0.08385 0.36175
 H263 H 0.73293 -0.09150 0.32416
 H264 H 0.63572 -0.18720 0.31655
 H265 H 0.58562 -0.15093 0.36991
 H266 H 0.68064 -0.05469 0.37353
 C267 C 0.64911 0.33654 -0.16561
 C268 C 0.69037 0.35335 -0.18174
 C269 C 0.70085 0.39164 -0.16518
 C270 C 0.67130 0.41223 -0.13468
 C271 C 0.63033 0.39538 -0.11923
 C272 C 0.61965 0.35725 -0.13491
 H273 H 0.63811 0.30793 -0.17800
 H274 H 0.73263 0.40577 -0.17406
 H275 H 0.68049 0.44170 -0.12360
 H276 H 0.58842 0.34329 -0.12342
 C277 C -0.16043 0.16054 -0.15103
 C278 C -0.18089 0.14449 -0.19408
 C279 C -0.16789 0.10624 -0.20802
 C280 C -0.13684 0.08482 -0.17963
 C281 C -0.11768 0.10075 -0.13635
 C282 C -0.12948 0.13898 -0.12269
 H283 H -0.16972 0.18908 -0.13718
 H284 H -0.18049 0.09273 -0.24165
 H285 H -0.12850 0.05536 -0.19116
 H286 H -0.11501 0.15223 -0.08970
 C287 C -0.17448 0.65799 0.35907
 C288 C -0.18661 0.64574 0.31102
 C289 C -0.16776 0.61102 0.29238
 C290 C -0.13821 0.58867 0.32145
 C291 C -0.12664 0.60060 0.36975
 C292 C -0.14477 0.63569 0.38809
 H293 H -0.18891 0.68429 0.37475
 H294 H -0.17576 0.60118 0.25517
 H295 H -0.12413 0.56213 0.30601
 H296 H -0.13689 0.64539 0.42539
 C297 C 0.33523 0.11146 0.28693
 C298 C 0.31721 0.14714 0.30361
 C299 C 0.33201 0.16194 0.34963
 C300 C 0.36350 0.14143 0.37845
 C301 C 0.38061 0.10523 0.36243
 C302 C 0.36632 0.09067 0.31608
 H303 H 0.32526 0.09945 0.25135
 H304 H 0.31852 0.18905 0.36405
 H305 H 0.37426 0.15395 0.41347
 H306 H 0.37829 0.06271 0.30270
 C307 C 0.34592 0.61339 -0.21951
 C308 C 0.32353 0.64600 -0.19967
 C309 C 0.33290 0.65712 -0.15052
 C310 C 0.36308 0.63544 -0.12138
 C311 C 0.38466 0.60222 -0.14082
 C312 C 0.37618 0.59176 -0.19043
 H313 H 0.33990 0.60455 -0.25755
 H314 H 0.31570 0.68182 -0.13406
 H315 H 0.36834 0.64394 -0.08310
 H316 H 0.39288 0.56675 -0.20674
 C317 C -0.14763 -0.16140 0.17404
 C318 C -0.18906 -0.14468 0.18933
 C319 C -0.19970 -0.10690 0.17118
 C320 C -0.17019 -0.08674 0.13990
 C321 C -0.12908 -0.10351 0.12524
 C322 C -0.11818 -0.14109 0.14261
 H323 H -0.13657 -0.18961 0.18765
 H324 H -0.23164 -0.09295 0.17920
 H325 H -0.17957 -0.05769 0.12747
 H326 H -0.08682 -0.15497 0.13179
 C327 C -0.16533 0.38996 0.71108
 C328 C -0.18584 0.35529 0.69374
 C329 C -0.17636 0.34257 0.64534
 C330 C -0.14740 0.36423 0.61488
 C331 C -0.12750 0.39917 0.63205
 C332 C -0.13662 0.41171 0.68053
 H333 H -0.17123 0.40017 0.74847
 H334 H -0.19212 0.31633 0.63060
 H335 H -0.14135 0.35411 0.57748
 H336 H -0.12114 0.43817 0.69503
 C337 C 0.35235 -0.16002 0.66734
 C338 C 0.31031 -0.14441 0.68258
 C339 C 0.29907 -0.10636 0.66590
 C340 C 0.32854 -0.08492 0.63593
 C341 C 0.37025 -0.10062 0.62134
 C342 C 0.38177 -0.13843 0.63732
 H343 H 0.36396 -0.18833 0.68002
 H344 H 0.26676 -0.09315 0.67419
 H345 H 0.31871 -0.05573 0.62449
 H346 H 0.41360 -0.15148 0.62651
 C347 C 0.35469 0.34330 0.17968
 C348 C 0.31207 0.35838 0.19273
 C349 C 0.29984 0.39563 0.17486
 C350 C 0.32939 0.41728 0.14525
 C351 C 0.37167 0.40197 0.13142
 C352 C 0.38387 0.36462 0.14905
 H353 H 0.36576 0.31505 0.19326
 H354 H 0.26707 0.40807 0.18313
 H355 H 0.31897 0.44620 0.13350
 H356 H 0.41577 0.35148 0.13880
 C357 C 0.16272 0.10965 0.20856
 C358 C 0.18009 0.14556 0.19137
 C359 C 0.16547 0.15956 0.14491
 C360 C 0.13494 0.13787 0.11600
 C361 C 0.11852 0.10145 0.13258
 C362 C 0.13250 0.08780 0.17946
 H363 H 0.17261 0.09828 0.24451
 H364 H 0.17845 0.18689 0.13024
 H365 H 0.12436 0.14965 0.08049
 H366 H 0.12098 0.05972 0.19328
 C367 C 0.17179 0.60765 0.70352
 C368 C 0.18905 0.64343 0.68583
 C369 C 0.17450 0.65702 0.63916
 C370 C 0.14377 0.63516 0.61069
 C371 C 0.12701 0.59910 0.62811
 C372 C 0.14135 0.58569 0.67495
 H373 H 0.18172 0.59659 0.73962
 H374 H 0.18747 0.68426 0.62421
 H375 H 0.13298 0.64664 0.57510
 H376 H 0.12963 0.55784 0.68931
 C377 C 0.66516 0.11004 0.71031
 C378 C 0.68335 0.14596 0.69420
 C379 C 0.66860 0.16131 0.64847
 C380 C 0.63700 0.14103 0.61931
 C381 C 0.61965 0.10462 0.63481
 C382 C 0.63393 0.08954 0.68088
 H383 H 0.67506 0.09766 0.74571
 H384 H 0.68217 0.18869 0.63462
 H385 H 0.62627 0.15392 0.58448
 H386 H 0.62178 0.06141 0.69385
 C387 C 0.66639 0.66218 0.14871
 C388 C 0.67920 0.64825 0.19581
 C389 C 0.65993 0.61312 0.21310
 C390 C 0.62970 0.59182 0.18343
 C391 C 0.61761 0.60531 0.13588
 C392 C 0.63583 0.64106 0.11920
 H393 H 0.68085 0.68895 0.13404
 H394 H 0.66842 0.60187 0.24953
 H395 H 0.61675 0.56423 0.19732
 H396 H 0.62670 0.65268 0.08314
   
