data_POSCAR
  _audit_creation_date              2014-09-24
  _audit_creation_method            'ToBaCCo'
  _symmetry_space_group_name_H-M    'P1'
  _symmetry_Int_Tables_number       1
  _symmetry_cell_setting            triclinic
  loop_
  _symmetry_equiv_pos_as_xyz
 x,y,z
_cell_length_a 36.4034
_cell_length_b 41.2310
_cell_length_c 36.0443
_cell_angle_alpha 89.221500
_cell_angle_beta 91.789200
_cell_angle_gamma 86.347700
loop_
  _atom_site_label
  _atom_site_type_symbol
  _atom_site_fract_x
  _atom_site_fract_y
  _atom_site_fract_z
C1 C 1.23754 0.22104 0.19449
 C2 C 1.26251 0.24651 0.17985
 C3 C 1.27649 0.26589 0.20647
 C4 C 1.26480 0.25744 0.24597
 C5 C 1.26205 0.20204 0.22388
 C6 C 1.27598 0.22101 0.25084
 C7 C 1.20861 0.24035 0.21661
 C8 C 1.22250 0.25961 0.24320
 H9 H 1.26924 0.24839 0.15088
 H10 H 1.27643 0.27287 0.26783
 H11 H 1.26950 0.17628 0.22292
 H12 H 1.17932 0.23891 0.21121
 C13 C 0.74976 -0.28092 0.20817
 C14 C 0.77756 -0.25761 0.19371
 C15 C 0.79083 -0.23758 0.22026
 C16 C 0.77539 -0.24303 0.25902
 C17 C 0.77007 -0.29902 0.24074
 C18 C 0.78337 -0.27944 0.26720
 C19 C 0.72040 -0.25820 0.22571
 C20 C 0.73356 -0.23862 0.25226
 H21 H 0.78300 -0.25424 0.16467
 H22 H 0.78641 -0.22722 0.28086
 H23 H 0.77468 -0.32525 0.24206
 H24 H 0.69158 -0.25716 0.21701
 C25 C 0.69243 0.24796 -0.29267
 C26 C 0.71277 0.26635 -0.31895
 C27 C 0.73984 0.28615 -0.30216
 C28 C 0.74095 0.28321 -0.26112
 C29 C 0.72025 0.22946 -0.27012
 C30 C 0.74678 0.24837 -0.25170
 C31 C 0.67662 0.27279 -0.26848
 C32 C 0.70303 0.29189 -0.24986
 H33 H 0.70760 0.26517 -0.34856
 H34 H 0.76131 0.29799 -0.24743
 H35 H 0.72154 0.20314 -0.26883
 H36 H 0.64755 0.28022 -0.26965
 C37 C 1.20351 -0.25031 -0.29546
 C38 C 1.23607 -0.23833 -0.31697
 C39 C 1.26154 -0.22371 -0.29533
 C40 C 1.25215 -0.22266 -0.25404
 C41 C 1.22119 -0.27209 -0.26422
 C42 C 1.24638 -0.25770 -0.24272
 C43 C 1.18819 -0.21970 -0.27591
 C44 C 1.21348 -0.20576 -0.25367
 H45 H 1.23740 -0.23919 -0.34687
 H46 H 1.27235 -0.21082 -0.23586
 H47 H 1.21356 -0.29668 -0.25894
 H48 H 1.15947 -0.21106 -0.27736
 C49 C 0.25546 0.21107 0.81027
 C50 C 0.27791 0.23559 0.82614
 C51 C 0.29859 0.25268 0.79978
 C52 C 0.29354 0.24092 0.76191
 C53 C 0.23209 0.22867 0.77915
 C54 C 0.25168 0.24464 0.75390
 C55 C 0.28310 0.18843 0.79015
 C56 C 0.30279 0.20398 0.76462
 H57 H 0.28416 0.23660 0.85558
 H58 H 0.30935 0.25304 0.74067
 H59 H 0.20234 0.22858 0.77777
 H60 H 0.28706 0.16256 0.79584
 C61 C 0.74470 0.71458 0.79819
 C62 C 0.77419 0.73366 0.81228
 C63 C 0.79455 0.74881 0.78402
 C64 C 0.78243 0.73987 0.74638
 C65 C 0.72281 0.73737 0.77356
 C66 C 0.74312 0.75119 0.74411
 C67 C 0.76197 0.69088 0.77398
 C68 C 0.78261 0.70427 0.74517
 H69 H 0.77766 0.73899 0.84148
 H70 H 0.79928 0.74942 0.72438
 H71 H 0.69668 0.74847 0.78173
 H72 H 0.75937 0.66496 0.77747
 C73 C 0.71552 0.22972 0.28919
 C74 C 0.73679 0.25039 0.31628
 C75 C 0.76014 0.27023 0.29971
 C76 C 0.76052 0.26719 0.25699
 C77 C 0.69654 0.25495 0.26223
 C78 C 0.71970 0.27432 0.24445
 C79 C 0.74475 0.21153 0.26671
 C80 C 0.76844 0.23062 0.24969
 H81 H 0.73136 0.25155 0.34561
 H82 H 0.78029 0.28277 0.24387
 H83 H 0.66693 0.25916 0.26068
 H84 H 0.74456 0.18559 0.26241
 C85 C 0.20605 0.73282 0.28735
 C86 C 0.22275 0.75607 0.31540
 C87 C 0.24779 0.77560 0.30082
 C88 C 0.25349 0.77043 0.25908
 C89 C 0.18987 0.75568 0.25595
 C90 C 0.21456 0.77536 0.24133
 C91 C 0.23931 0.71458 0.27060
 C92 C 0.26397 0.73396 0.25585
 H93 H 0.21545 0.75672 0.34427
 H94 H 0.27351 0.78622 0.24652
 H95 H 0.16075 0.75948 0.24919
 H96 H 0.24276 0.68829 0.26998
 N97 N 0.92818 0.05007 -0.06619
 N98 N 0.90022 0.06040 -0.08825
 N99 N 1.00939 0.06931 -0.04994
 N100 N 1.03769 0.08723 -0.05540
 N101 N 1.00396 0.05059 -0.07849
 N102 N 1.02839 0.05503 -0.10391
 N103 N 0.93313 0.07071 -0.03923
 N104 N 0.90884 0.09597 -0.04285
 C105 C 0.88808 0.08872 -0.07313
 C106 C 1.04912 0.07805 -0.08942
 N107 N 1.02828 0.03376 0.05137
 N108 N 1.05789 0.03557 0.07297
 N109 N 0.94749 0.06027 0.04011
 N110 N 0.92665 0.08316 0.05603
 N111 N 0.95219 0.03430 0.06188
 N112 N 0.93465 0.03914 0.09306
 N113 N 1.02355 0.05939 0.02928
 N114 N 1.04982 0.07951 0.03565
 Mn115 Mn 0.97847 0.06532 -0.00489
 C116 C 1.07125 0.06409 0.06280
 C117 C 0.91834 0.06950 0.08883
 N118 N 1.00773 -0.01760 -0.08872
 N119 N 1.02827 -0.01926 -0.11813
 N120 N 0.93971 -0.04498 -0.05480
 N121 N 0.91773 -0.06829 -0.06246
 N122 N 0.93241 -0.01983 -0.07714
 N123 N 0.90563 -0.02583 -0.10136
 N124 N 1.01565 -0.04252 -0.06629
 N125 N 1.04202 -0.06193 -0.07984
 Mn126 Mn 0.96771 0.01594 -0.07781
 C127 C 1.04976 -0.04684 -0.11206
 C128 C 0.89637 -0.05594 -0.09111
 N129 N 0.95627 -0.03660 0.05197
 N130 N 0.94274 -0.05134 0.08102
 N131 N 1.02994 -0.05362 0.01243
 N132 N 1.05261 -0.07982 0.01617
 N133 N 1.03236 -0.03545 0.04197
 N134 N 1.05704 -0.04889 0.06623
 N135 N 0.95417 -0.05510 0.02261
 N136 N 0.93894 -0.08222 0.03079
 Mn137 Mn 0.99206 -0.00089 0.05210
 Mn138 Mn 0.98505 -0.04907 -0.02163
 Cl139 Cl 0.98059 0.00782 -0.01289
 C140 C 0.93133 -0.07952 0.06696
 C141 C 1.07001 -0.07629 0.04941
 N142 N 1.08646 0.51193 0.55006
 N143 N 1.11067 0.53424 0.55062
 N144 N 1.05175 0.45199 0.58163
 N145 N 1.05464 0.43164 0.61024
 N146 N 1.07804 0.44524 0.55830
 N147 N 1.09978 0.42028 0.57066
 N148 N 1.05959 0.51940 0.57243
 N149 N 1.06498 0.54730 0.58894
 C150 C 1.09723 0.55609 0.57501
 C151 C 1.08453 0.41182 0.60293
 N152 N 0.94882 0.46249 0.54692
 N153 N 0.92188 0.44374 0.55521
 N154 N 0.98047 0.52986 0.56558
 N155 N 0.97552 0.55538 0.58696
 N156 N 0.95475 0.53007 0.53915
 N157 N 0.93123 0.55563 0.54230
 N158 N 0.97314 0.46258 0.57466
 N159 N 0.96364 0.44377 0.60217
 Mn160 Mn 1.01624 0.49113 0.57395
 C161 C 0.93174 0.43193 0.58977
 C162 C 0.94501 0.57145 0.57189
 N163 N 1.08246 0.43872 0.47872
 N164 N 1.10767 0.41480 0.47396
 N165 N 1.06603 0.50893 0.44448
 N166 N 1.07374 0.53277 0.42159
 N167 N 1.09057 0.50582 0.47192
 N168 N 1.11552 0.52737 0.46857
 N169 N 1.05910 0.44125 0.45019
 N170 N 1.06775 0.41898 0.42543
 Mn171 Mn 1.08460 0.47513 0.51485
 C172 C 1.09777 0.40229 0.44088
 C173 C 1.10490 0.54399 0.43703
 N174 N 0.95930 0.52379 0.45951
 N175 N 0.93778 0.54931 0.44818
 N176 N 0.98059 0.45167 0.44319
 N177 N 0.97429 0.42859 0.41942
 N178 N 0.95311 0.45606 0.46581
 N179 N 0.92702 0.43611 0.45735
 N180 N 0.98682 0.51892 0.43709
 N181 N 0.98468 0.54074 0.40996
 Mn182 Mn 0.95341 0.49298 0.50279
 Mn183 Mn 1.02309 0.48030 0.44342
 Cl184 Cl 1.01918 0.48475 0.50876
 C185 C 0.95418 0.55974 0.41728
 C186 C 0.94099 0.41884 0.42851
 N187 N 0.57571 0.01112 0.54736
 N188 N 0.60027 0.03295 0.55092
 N189 N 0.53599 -0.04982 0.57085
 N190 N 0.53747 -0.07136 0.59849
 N191 N 0.56413 -0.05514 0.54937
 N192 N 0.58557 -0.08008 0.56184
 N193 N 0.54780 0.01766 0.56880
 N194 N 0.55279 0.04464 0.58748
 C195 C 0.58602 0.05366 0.57610
 C196 C 0.56844 -0.09028 0.59215
 N197 N 0.43630 -0.03038 0.52717
 N198 N 0.40864 -0.04935 0.52777
 N199 N 0.46978 0.03173 0.55606
 N200 N 0.46216 0.05426 0.58072
 N201 N 0.44808 0.03620 0.52637
 N202 N 0.42505 0.06197 0.53027
 N203 N 0.45768 -0.03502 0.55707
 N204 N 0.44485 -0.05749 0.57892
 Mn205 Mn 0.50273 -0.00891 0.56374
 C206 C 0.41416 -0.06618 0.56007
 C207 C 0.43458 0.07325 0.56418
 N208 N 0.57393 -0.05816 0.47111
 N209 N 0.59753 -0.08350 0.46827
 N210 N 0.56399 0.01250 0.43950
 N211 N 0.57440 0.03643 0.41844
 N212 N 0.58570 0.00845 0.46914
 N213 N 0.61156 0.02945 0.46905
 N214 N 0.55284 -0.05426 0.44098
 N215 N 0.56189 -0.07682 0.41664
 Mn216 Mn 0.57507 -0.02353 0.50931
 C217 C 0.58940 -0.09522 0.43440
 C218 C 0.60424 0.04666 0.43718
 N219 N 0.45845 0.03346 0.44706
 N220 N 0.43754 0.05860 0.43384
 N221 N 0.47488 -0.03944 0.42765
 N222 N 0.46849 -0.06253 0.40376
 N223 N 0.44628 -0.03340 0.44836
 N224 N 0.41961 -0.05236 0.43906
 N225 N 0.48648 0.02722 0.42564
 N226 N 0.48527 0.04789 0.39729
 Mn227 Mn 0.44691 0.00163 0.48720
 Mn228 Mn 0.51960 -0.01355 0.43307
 Cl229 Cl 0.51098 -0.01110 0.49835
 C230 C 0.45493 0.06767 0.40305
 C231 C 0.43393 -0.07050 0.41122
 N232 N 0.54867 0.53963 0.04525
 N233 N 0.57630 0.55725 0.05522
 N234 N 0.51625 0.47451 0.06959
 N235 N 0.52044 0.45092 0.09481
 N236 N 0.54323 0.47232 0.04610
 N237 N 0.56667 0.44751 0.05501
 N238 N 0.52276 0.54193 0.06988
 N239 N 0.53202 0.56115 0.09700
 C240 C 0.56521 0.57086 0.08734
 C241 C 0.55187 0.43424 0.08514
 N242 N 0.41159 0.49054 0.03858
 N243 N 0.38538 0.47024 0.04134
 N244 N 0.44378 0.55330 0.06575
 N245 N 0.43845 0.57673 0.09014
 N246 N 0.42016 0.55761 0.03758
 N247 N 0.39832 0.58393 0.04188
 N248 N 0.43639 0.48550 0.06555
 N249 N 0.42742 0.46155 0.08773
 Mn250 Mn 0.47980 0.51363 0.06819
 C251 C 0.39539 0.45228 0.07201
 C252 C 0.41015 0.59586 0.07460
 N253 N 0.54501 0.47157 -0.03412
 N254 N 0.56886 0.44687 -0.04053
 N255 N 0.52509 0.54097 -0.06250
 N256 N 0.53109 0.56439 -0.08621
 N257 N 0.55017 0.53931 -0.03548
 N258 N 0.57441 0.56146 -0.04049
 N259 N 0.51855 0.47355 -0.05983
 N260 N 0.52328 0.45012 -0.08403
 Mn261 Mn 0.54726 0.50580 0.00547
 C262 C 0.55451 0.43354 -0.07150
 C263 C 0.56185 0.57700 -0.07232
 N264 N 0.42188 0.55669 -0.04217
 N265 N 0.40213 0.58410 -0.04950
 N266 N 0.43937 0.48422 -0.06406
 N267 N 0.43316 0.45826 -0.08396
 N268 N 0.41336 0.48956 -0.04013
 N269 N 0.38897 0.46745 -0.04278
 N270 N 0.44744 0.55184 -0.06664
 N271 N 0.44631 0.57604 -0.09099
 Mn272 Mn 0.41647 0.52384 -0.00157
 Mn273 Mn 0.48260 0.51242 -0.06363
 Cl274 Cl 0.48162 0.51387 0.00221
 C275 C 0.41799 0.59601 -0.07990
 C276 C 0.40139 0.44819 -0.07031
 C277 C 1.21317 0.16869 0.16839
 C278 C 1.19056 0.15307 0.14295
 C279 C 1.17327 0.17080 0.11267
 C280 C 1.17982 0.20362 0.10770
 C281 C 1.20201 0.21907 0.13331
 C282 C 1.21892 0.20198 0.16411
 C283 C 1.14841 0.15589 0.08889
 C284 C 1.14003 0.12364 0.09550
 C285 C 1.15824 0.10561 0.12511
 C286 C 1.18362 0.12033 0.14840
 C287 C 1.14979 0.07346 0.13182
 C288 C 1.12234 0.05972 0.11054
 C289 C 1.10299 0.07781 0.08202
 C290 C 1.11266 0.10951 0.07394
 H291 H 1.22432 0.15509 0.19244
 H292 H 1.16667 0.21767 0.08478
 H293 H 1.20481 0.24491 0.12979
 H294 H 1.13457 0.16975 0.06614
 H295 H 1.19696 0.10664 0.17154
 H296 H 1.16365 0.05923 0.15422
 H297 H 1.11561 0.03513 0.11709
 H298 H 1.09798 0.12359 0.05190
 C299 C 1.18621 0.71119 0.65344
 C300 C 1.16339 0.68767 0.63973
 C301 C 1.12878 0.68395 0.65541
 C302 C 1.11702 0.70472 0.68365
 C303 C 1.14019 0.72764 0.69769
 C304 C 1.17522 0.73116 0.68298
 C305 C 1.10748 0.65840 0.64412
 C306 C 1.12085 0.63610 0.61794
 C307 C 1.15498 0.64061 0.60143
 C308 C 1.17578 0.66651 0.61211
 C309 C 1.16847 0.61850 0.57533
 C310 C 1.14910 0.59147 0.56659
 C311 C 1.11578 0.58599 0.58368
 C312 C 1.10133 0.60877 0.60886
 H313 H 1.21361 0.71208 0.64283
 H314 H 1.09072 0.70208 0.69627
 H315 H 1.13136 0.74122 0.72163
 H316 H 1.08129 0.65513 0.65677
 H317 H 1.20230 0.66942 0.59997
 H318 H 1.19441 0.62173 0.56223
 H319 H 1.16065 0.57452 0.54672
 H320 H 1.07551 0.60488 0.62190
 C321 C 0.67566 0.20735 0.66014
 C322 C 0.65365 0.18262 0.64786
 C323 C 0.62154 0.17601 0.66683
 C324 C 0.61180 0.19458 0.69759
 C325 C 0.63403 0.21887 0.71004
 C326 C 0.66620 0.22631 0.69125
 C327 C 0.60056 0.15013 0.65567
 C328 C 0.61171 0.13043 0.62605
 C329 C 0.64364 0.13753 0.60682
 C330 C 0.66417 0.16361 0.61764
 C331 C 0.65513 0.11802 0.57745
 C332 C 0.63584 0.09120 0.56769
 C333 C 0.60444 0.08328 0.58687
 C334 C 0.59208 0.10334 0.61579
 H335 H 0.70123 0.21066 0.64639
 H336 H 0.58763 0.18952 0.71295
 H337 H 0.62647 0.23076 0.73551
 H338 H 0.57617 0.14483 0.67060
 H339 H 0.68885 0.16864 0.60303
 H340 H 0.67940 0.12321 0.56233
 H341 H 0.64584 0.07646 0.54504
 H342 H 0.56787 0.09752 0.63067
 C343 C 0.70350 0.67821 0.19447
 C344 C 0.68348 0.65900 0.17073
 C345 C 0.69343 0.65561 0.13338
 C346 C 0.72362 0.67163 0.12065
 C347 C 0.74284 0.69177 0.14437
 C348 C 0.73235 0.69588 0.18140
 C349 C 0.67265 0.63674 0.10945
 C350 C 0.64150 0.62215 0.12236
 C351 C 0.63153 0.62614 0.15975
 C352 C 0.65289 0.64405 0.18377
 C353 C 0.59998 0.61252 0.17255
 C354 C 0.57829 0.59506 0.14859
 C355 C 0.58806 0.59045 0.11156
 C356 C 0.61981 0.60395 0.09853
 H357 H 0.69565 0.68056 0.22315
 H358 H 0.73193 0.66911 0.09218
 H359 H 0.76563 0.70390 0.13337
 H360 H 0.68024 0.63396 0.08075
 H361 H 0.64518 0.64700 0.21243
 H362 H 0.59195 0.61551 0.20107
 H363 H 0.55405 0.58475 0.15928
 H364 H 0.62737 0.60059 0.06991
 C365 C 0.83903 -0.21339 0.18298
 C366 C 0.85623 -0.18636 0.16964
 C367 C 0.84814 -0.15537 0.18479
 C368 C 0.82367 -0.15231 0.21406
 C369 C 0.80611 -0.17939 0.22682
 C370 C 0.81300 -0.20995 0.21072
 C371 C 0.86360 -0.12795 0.16954
 C372 C 0.88618 -0.13118 0.13868
 C373 C 0.89457 -0.16249 0.12425
 C374 C 0.88010 -0.18981 0.14017
 C375 C 0.91629 -0.16604 0.09315
 C376 C 0.92845 -0.13880 0.07540
 C377 C 0.91980 -0.10744 0.08871
 C378 C 0.89944 -0.10369 0.12105
 H379 H 0.84494 -0.23699 0.17081
 H380 H 0.81713 -0.12882 0.22617
 H381 H 0.78592 -0.17605 0.24809
 H382 H 0.85700 -0.10408 0.18075
 H383 H 0.88624 -0.21363 0.12860
 H384 H 0.92306 -0.18984 0.08190
 H385 H 0.94459 -0.14235 0.05087
 H386 H 0.89266 -0.07955 0.13139
 C387 C 0.79422 0.31916 0.69000
 C388 C 0.81480 0.33935 0.66766
 C389 C 0.80153 0.34860 0.63155
 C390 C 0.76813 0.33765 0.61834
 C391 C 0.74813 0.31744 0.64027
 C392 C 0.76067 0.30742 0.67646
 C393 C 0.82179 0.36861 0.60905
 C394 C 0.85557 0.37942 0.62198
 C395 C 0.86910 0.37004 0.65802
 C396 C 0.84866 0.35019 0.68063
 C397 C 0.90293 0.38069 0.67086
 C398 C 0.92309 0.40049 0.64842
 C399 C 0.90995 0.41022 0.61258
 C400 C 0.87605 0.39945 0.59948
 H401 H 0.80549 0.31168 0.71711
 H402 H 0.75730 0.34479 0.59088
 H403 H 0.72196 0.31086 0.62872
 H404 H 0.81131 0.37565 0.58141
 H405 H 0.85917 0.34312 0.70825
 H406 H 0.91383 0.37374 0.69835
 H407 H 0.94908 0.40833 0.65931
 H408 H 0.86556 0.40672 0.57193
 C409 C 0.28803 -0.19006 0.65489
 C410 C 0.31548 -0.17078 0.64207
 C411 C 0.34789 -0.16748 0.66396
 C412 C 0.35261 -0.18436 0.69798
 C413 C 0.32505 -0.20351 0.71062
 C414 C 0.29228 -0.20620 0.68949
 C415 C 0.37458 -0.14690 0.65181
 C416 C 0.36907 -0.12948 0.61811
 C417 C 0.33689 -0.13351 0.59599
 C418 C 0.31044 -0.15412 0.60804
 C419 C 0.33129 -0.11648 0.56229
 C420 C 0.35687 -0.09510 0.55079
 C421 C 0.38860 -0.09018 0.57273
 C422 C 0.39481 -0.10774 0.60630
 H423 H 0.26271 -0.19127 0.63851
 H424 H 0.37736 -0.18238 0.71507
 H425 H 0.32936 -0.21603 0.73712
 H426 H 0.39924 -0.14405 0.66881
 H427 H 0.28563 -0.15678 0.59118
 H428 H 0.30689 -0.11942 0.54497
 H429 H 0.35147 -0.08205 0.52471
 H430 H 0.41928 -0.10425 0.62331
 C431 C 0.29193 0.31071 0.16388
 C432 C 0.31412 0.33544 0.15330
 C433 C 0.34414 0.34341 0.17647
 C434 C 0.35106 0.32638 0.21026
 C435 C 0.32879 0.30142 0.22054
 C436 C 0.29935 0.29313 0.19716
 C437 C 0.36663 0.36808 0.16528
 C438 C 0.35933 0.38465 0.13118
 C439 C 0.32905 0.37640 0.10836
 C440 C 0.30671 0.35201 0.11958
 C441 C 0.32141 0.39263 0.07447
 C442 C 0.34334 0.41703 0.06311
 C443 C 0.37350 0.42574 0.08529
 C444 C 0.38157 0.40935 0.11937
 H445 H 0.26870 0.30514 0.14605
 H446 H 0.37389 0.33210 0.22851
 H447 H 0.33515 0.28812 0.24629
 H448 H 0.38974 0.37426 0.18294
 H449 H 0.28361 0.34578 0.10189
 H450 H 0.29837 0.38650 0.05671
 H451 H 0.33653 0.42914 0.03671
 H452 H 0.40475 0.41593 0.13665
 C453 C 0.76429 0.20518 -0.20575
 C454 C 0.78861 0.19040 -0.17884
 C455 C 0.82141 0.20498 -0.16887
 C456 C 0.82870 0.23474 -0.18566
 C457 C 0.80415 0.24947 -0.21264
 C458 C 0.77180 0.23460 -0.22378
 C459 C 0.84643 0.18925 -0.14280
 C460 C 0.83910 0.15887 -0.12725
 C461 C 0.80576 0.14478 -0.13708
 C462 C 0.78062 0.16083 -0.16230
 C463 C 0.79866 0.11413 -0.12276
 C464 C 0.82507 0.09672 -0.10035
 C465 C 0.85847 0.11004 -0.09083
 C466 C 0.86509 0.14153 -0.10345
 H467 H 0.73884 0.19376 -0.21155
 H468 H 0.85372 0.24640 -0.17837
 H469 H 0.81169 0.27175 -0.22566
 H470 H 0.87192 0.20017 -0.13542
 H471 H 0.75530 0.14972 -0.17003
 H472 H 0.77328 0.10305 -0.13013
 H473 H 0.81987 0.07235 -0.09118
 H474 H 0.89129 0.15151 -0.09678
 C475 C 0.83986 0.69057 0.29244
 C476 C 0.85852 0.67185 0.32068
 C477 C 0.84297 0.66956 0.35602
 C478 C 0.80988 0.68758 0.36295
 C479 C 0.79140 0.70618 0.33450
 C480 C 0.80586 0.70699 0.29895
 C481 C 0.85998 0.64835 0.38320
 C482 C 0.89210 0.62930 0.37525
 C483 C 0.90836 0.63290 0.34039
 C484 C 0.89159 0.65422 0.31346
 C485 C 0.94060 0.61433 0.33248
 C486 C 0.95591 0.59139 0.35817
 C487 C 0.93923 0.58643 0.39226
 C488 C 0.90768 0.60598 0.40103
 H489 H 0.85084 0.69118 0.26482
 H490 H 0.79763 0.68632 0.38990
 H491 H 0.76496 0.71854 0.33968
 H492 H 0.84761 0.64593 0.41001
 H493 H 0.90363 0.65628 0.28644
 H494 H 0.95355 0.61702 0.30604
 H495 H 0.98037 0.57687 0.35084
 H496 H 0.89481 0.60252 0.42738
 C497 C 0.33247 0.18834 0.27288
 C498 C 0.35356 0.17181 0.30128
 C499 C 0.34224 0.17404 0.33840
 C500 C 0.31108 0.19416 0.34663
 C501 C 0.29043 0.21077 0.31815
 C502 C 0.30048 0.20728 0.28114
 C503 C 0.36155 0.15538 0.36641
 C504 C 0.39197 0.13454 0.35771
 C505 C 0.40433 0.13365 0.32088
 C506 C 0.38507 0.15230 0.29292
 C507 C 0.43516 0.11333 0.31238
 C508 C 0.45262 0.09296 0.33968
 C509 C 0.43939 0.09236 0.37586
 C510 C 0.40956 0.11380 0.38495
 H511 H 0.34033 0.18586 0.24423
 H512 H 0.30214 0.19635 0.37493
 H513 H 0.26566 0.22511 0.32484
 H514 H 0.35231 0.15642 0.39471
 H515 H 0.39400 0.15093 0.26452
 H516 H 0.44520 0.11259 0.28440
 H517 H 0.47565 0.07676 0.33206
 H518 H 0.39942 0.11371 0.41291
 C519 C 0.30238 0.72232 -0.20634
 C520 C 0.31915 0.70338 -0.17720
 C521 C 0.29708 0.68953 -0.15027
 C522 C 0.25872 0.69526 -0.15263
 C523 C 0.24225 0.71313 -0.18249
 C524 C 0.26397 0.72623 -0.20968
 C525 C 0.31346 0.66881 -0.12258
 C526 C 0.35130 0.66031 -0.12269
 C527 C 0.37347 0.67436 -0.14936
 C528 C 0.35737 0.69652 -0.17583
 C529 C 0.41102 0.66464 -0.15034
 C530 C 0.42594 0.63981 -0.12666
 C531 C 0.40377 0.62510 -0.10097
 C532 C 0.36686 0.63634 -0.09807
 H533 H 0.31898 0.73232 -0.22761
 H534 H 0.24143 0.68489 -0.13224
 H535 H 0.21249 0.71639 -0.18472
 H536 H 0.29646 0.65782 -0.10229
 H537 H 0.37424 0.70694 -0.19662
 H538 H 0.42844 0.67518 -0.17051
 H539 H 0.45461 0.63155 -0.12904
 H540 H 0.34960 0.62488 -0.07842
 C541 C 1.17864 -0.15457 -0.23692
 C542 C 1.16278 -0.13455 -0.20994
 C543 C 1.17098 -0.14139 -0.17188
 C544 C 1.19681 -0.16682 -0.16161
 C545 C 1.21258 -0.18659 -0.18872
 C546 C 1.20255 -0.18124 -0.22631
 C547 C 1.15201 -0.12370 -0.14478
 C548 C 1.12482 -0.09948 -0.15533
 C549 C 1.11835 -0.09131 -0.19335
 C550 C 1.13748 -0.10883 -0.22042
 C551 C 1.09179 -0.06654 -0.20375
 C552 C 1.07053 -0.05111 -0.17690
 C553 C 1.07525 -0.06049 -0.13937
 C554 C 1.10303 -0.08412 -0.12857
 H555 H 1.17121 -0.15032 -0.26604
 H556 H 1.20369 -0.17222 -0.13263
 H557 H 1.23094 -0.20721 -0.18012
 H558 H 1.15739 -0.12963 -0.11561
 H559 H 1.13164 -0.10329 -0.24960
 H560 H 1.08677 -0.05973 -0.23270
 H561 H 1.04934 -0.03273 -0.18570
 H562 H 1.10706 -0.09105 -0.09953
 C563 C 1.20692 0.28788 0.30257
 C564 C 1.18319 0.30829 0.32330
 C565 C 1.15103 0.32347 0.30597
 C566 C 1.14315 0.31809 0.26840
 C567 C 1.16664 0.29760 0.24816
 C568 C 1.19854 0.28206 0.26501
 C569 C 1.12728 0.34391 0.32635
 C570 C 1.13522 0.34953 0.36389
 C571 C 1.16720 0.33430 0.38142
 C572 C 1.19097 0.31369 0.36104
 C573 C 1.17504 0.34030 0.41897
 C574 C 1.15191 0.36178 0.43865
 C575 C 1.12041 0.37741 0.42122
 C576 C 1.11194 0.37072 0.38395
 H577 H 1.23141 0.27610 0.31584
 H578 H 1.11877 0.32970 0.25465
 H579 H 1.15994 0.29416 0.21906
 H580 H 1.10274 0.35562 0.31291
 H581 H 1.21556 0.30206 0.37444
 H582 H 1.19937 0.32881 0.43293
 H583 H 1.15899 0.36656 0.46738
 H584 H 1.08776 0.38270 0.37019
 C585 C 0.71157 -0.21073 0.30906
 C586 C 0.68636 -0.18933 0.32660
 C587 C 0.65949 -0.17049 0.30500
 C588 C 0.65834 -0.17326 0.26633
 C589 C 0.68306 -0.19499 0.24922
 C590 C 0.70953 -0.21405 0.27045
 C591 C 0.63405 -0.14932 0.32233
 C592 C 0.63506 -0.14668 0.36101
 C593 C 0.66177 -0.16557 0.38270
 C594 C 0.68724 -0.18681 0.36535
 C595 C 0.66285 -0.16254 0.42137
 C596 C 0.63839 -0.14033 0.43830
 C597 C 0.61223 -0.12110 0.41687
 C598 C 0.61021 -0.12486 0.37829
 H599 H 0.73188 -0.22556 0.32546
 H600 H 0.63806 -0.15893 0.24937
 H601 H 0.68144 -0.19702 0.21929
 H602 H 0.61358 -0.13482 0.30571
 H603 H 0.70775 -0.20127 0.38196
 H604 H 0.68304 -0.17686 0.43845
 H605 H 0.64037 -0.13780 0.46815
 H606 H 0.59025 -0.10995 0.36155
 C607 C 0.65815 0.31310 -0.20543
 C608 C 0.64644 0.33545 -0.17875
 C609 C 0.66943 0.36001 -0.16755
 C610 C 0.70404 0.36151 -0.18335
 C611 C 0.71547 0.33925 -0.21041
 C612 C 0.69253 0.31477 -0.22232
 C613 C 0.65712 0.38285 -0.14127
 C614 C 0.62168 0.38174 -0.12695
 C615 C 0.59883 0.35698 -0.13844
 C616 C 0.61160 0.33373 -0.16367
 C617 C 0.56294 0.35648 -0.12559
 C618 C 0.54915 0.38104 -0.10272
 C619 C 0.57138 0.40578 -0.09124
 C620 C 0.60797 0.40570 -0.10261
 H621 H 0.64028 0.29387 -0.21210
 H622 H 0.72206 0.38029 -0.17525
 H623 H 0.74174 0.34241 -0.22264
 H624 H 0.67465 0.40190 -0.13277
 H625 H 0.59391 0.31488 -0.17249
 H626 H 0.54510 0.33775 -0.13429
 H627 H 0.52080 0.38105 -0.09439
 H628 H 0.62486 0.42526 -0.09434
 C629 C 1.21367 0.16626 -0.17504
 C630 C 1.18674 0.15261 -0.15388
 C631 C 1.17671 0.16668 -0.11983
 C632 C 1.19406 0.19404 -0.10745
 C633 C 1.22033 0.20792 -0.12903
 C634 C 1.23084 0.19409 -0.16306
 C635 C 1.14858 0.15393 -0.09942
 C636 C 1.12985 0.12766 -0.11308
 C637 C 1.14021 0.11346 -0.14705
 C638 C 1.16877 0.12580 -0.16701
 C639 C 1.12132 0.08751 -0.16097
 C640 C 1.09195 0.07607 -0.14189
 C641 C 1.08100 0.09019 -0.10837
 C642 C 1.10038 0.11578 -0.09381
 H643 H 1.22018 0.15602 -0.20177
 H644 H 1.18637 0.20545 -0.08167
 H645 H 1.23104 0.23024 -0.11938
 H646 H 1.14067 0.16495 -0.07346
 H647 H 1.17639 0.11504 -0.19320
 H648 H 1.12895 0.07631 -0.18689
 H649 H 1.07765 0.05616 -0.15358
 H650 H 1.09216 0.12678 -0.06795
 C651 C 1.19219 0.69141 0.33672
 C652 C 1.17149 0.66675 0.35096
 C653 C 1.13842 0.65916 0.33247
 C654 C 1.12650 0.67665 0.30025
 C655 C 1.14741 0.70101 0.28606
 C656 C 1.18048 0.70898 0.30420
 C657 C 1.11829 0.63374 0.34597
 C658 C 1.13100 0.61568 0.37768
 C659 C 1.16392 0.62365 0.39635
 C660 C 1.18386 0.64911 0.38295
 C661 C 1.17662 0.60582 0.42805
 C662 C 1.15719 0.58012 0.44101
 C663 C 1.12468 0.57158 0.42257
 C664 C 1.11157 0.58961 0.39091
 H665 H 1.21813 0.69636 0.35042
 H666 H 1.10141 0.67095 0.28545
 H667 H 1.13794 0.71257 0.26016
 H668 H 1.09306 0.62776 0.33157
 H669 H 1.20924 0.65494 0.39720
 H670 H 1.20170 0.61167 0.44276
 H671 H 1.16782 0.56679 0.46556
 H672 H 1.08642 0.58337 0.37658
 C673 C 0.69881 0.19092 0.34066
 C674 C 0.67736 0.16657 0.35424
 C675 C 0.64668 0.15716 0.33292
 C676 C 0.63798 0.17213 0.29846
 C677 C 0.65970 0.19596 0.28494
 C678 C 0.68991 0.20628 0.30611
 C679 C 0.62580 0.13223 0.34576
 C680 C 0.63551 0.11621 0.37945
 C681 C 0.66606 0.12563 0.40101
 C682 C 0.68671 0.15089 0.38835
 C683 C 0.67566 0.10931 0.43464
 C684 C 0.65547 0.08362 0.44652
 C685 C 0.62535 0.07395 0.42500
 C686 C 0.61536 0.09053 0.39163
 H687 H 0.72311 0.19703 0.35649
 H688 H 0.61496 0.16478 0.28148
 H689 H 0.65325 0.20565 0.25730
 H690 H 0.60242 0.12491 0.32921
 H691 H 0.71029 0.15801 0.40473
 H692 H 0.69892 0.11623 0.45158
 H693 H 0.66353 0.07125 0.47248
 H694 H 0.59207 0.08330 0.37492
 C695 C 0.68662 0.69413 -0.17753
 C696 C 0.66855 0.67514 -0.15224
 C697 C 0.68851 0.65931 -0.12226
 C698 C 0.72621 0.66348 -0.11760
 C699 C 0.74413 0.68245 -0.14290
 C700 C 0.72471 0.69854 -0.17321
 C701 C 0.67077 0.63854 -0.09842
 C702 C 0.63343 0.63306 -0.10470
 C703 C 0.61338 0.64973 -0.13422
 C704 C 0.63096 0.67079 -0.15754
 C705 C 0.57626 0.64425 -0.14085
 C706 C 0.55948 0.62133 -0.11962
 C707 C 0.57936 0.60367 -0.09112
 C708 C 0.61610 0.61028 -0.08299
 H709 H 0.67091 0.70401 -0.20152
 H710 H 0.74212 0.65125 -0.09502
 H711 H 0.77366 0.68367 -0.13934
 H712 H 0.68626 0.62587 -0.07582
 H713 H 0.61560 0.68304 -0.18052
 H714 H 0.56047 0.65699 -0.16316
 H715 H 0.53099 0.61692 -0.12610
 H716 H 0.63157 0.59674 -0.06104
 C717 C 0.80263 -0.20241 -0.17919
 C718 C 0.82015 -0.17386 -0.17179
 C719 C 0.84991 -0.16543 -0.19330
 C720 C 0.86033 -0.18514 -0.22319
 C721 C 0.84190 -0.21324 -0.23115
 C722 C 0.81342 -0.22282 -0.20863
 C723 C 0.86886 -0.13773 -0.18420
 C724 C 0.85815 -0.11850 -0.15389
 C725 C 0.82713 -0.12634 -0.13365
 C726 C 0.80830 -0.15381 -0.14284
 C727 C 0.81641 -0.10748 -0.10330
 C728 C 0.83764 -0.08240 -0.09141
 C729 C 0.86930 -0.07525 -0.11018
 C730 C 0.87895 -0.09266 -0.14210
 H731 H 0.77936 -0.20771 -0.16266
 H732 H 0.88290 -0.17894 -0.24028
 H733 H 0.85111 -0.22810 -0.25401
 H734 H 0.89237 -0.13164 -0.20004
 H735 H 0.78507 -0.16015 -0.12669
 H736 H 0.79268 -0.11318 -0.08761
 H737 H 0.83045 -0.06964 -0.06630
 H738 H 0.90403 -0.08767 -0.15598
 C739 C 0.81561 0.30046 0.31757
 C740 C 0.83283 0.32298 0.34026
 C741 C 0.81188 0.34164 0.36574
 C742 C 0.77411 0.33760 0.36799
 C743 C 0.75741 0.31483 0.34591
 C744 C 0.77799 0.29583 0.32084
 C745 C 0.82900 0.36382 0.38879
 C746 C 0.86695 0.36752 0.38696
 C747 C 0.88787 0.34877 0.36153
 C748 C 0.87072 0.32674 0.33835
 C749 C 0.92570 0.35243 0.35954
 C750 C 0.94263 0.37475 0.38201
 C751 C 0.92224 0.39385 0.40716
 C752 C 0.88434 0.38985 0.40984
 H753 H 0.83163 0.28579 0.29838
 H754 H 0.75756 0.35174 0.38719
 H755 H 0.72823 0.31195 0.34849
 H756 H 0.81282 0.37810 0.40823
 H757 H 0.88691 0.31244 0.31894
 H758 H 0.94219 0.33823 0.34033
 H759 H 0.97188 0.37723 0.37943
 H760 H 0.86832 0.40454 0.42899
 C761 C 0.30387 -0.19400 0.31553
 C762 C 0.32245 -0.17111 0.33630
 C763 C 0.30420 -0.15414 0.36493
 C764 C 0.26772 -0.16044 0.37233
 C765 C 0.24947 -0.18329 0.35160
 C766 C 0.26729 -0.20028 0.32299
 C767 C 0.32265 -0.13115 0.38565
 C768 C 0.35918 -0.12489 0.37809
 C769 C 0.37741 -0.14200 0.34952
 C770 C 0.35898 -0.16498 0.32887
 C771 C 0.41384 -0.13578 0.34194
 C772 C 0.43204 -0.11270 0.36224
 C773 C 0.41426 -0.09535 0.39057
 C774 C 0.37776 -0.10169 0.39849
 H775 H 0.31815 -0.20727 0.29396
 H776 H 0.25324 -0.14762 0.39409
 H777 H 0.22115 -0.18728 0.35762
 H778 H 0.30858 -0.11811 0.40755
 H779 H 0.37304 -0.17801 0.30694
 H780 H 0.42824 -0.14869 0.32019
 H781 H 0.46013 -0.10834 0.35559
 H782 H 0.36377 -0.08849 0.42030
 C783 C 0.31362 0.29510 -0.15649
 C784 C 0.33385 0.32132 -0.14585
 C785 C 0.36187 0.33171 -0.16852
 C786 C 0.36911 0.31538 -0.20162
 C787 C 0.34858 0.28924 -0.21228
 C788 C 0.32041 0.27859 -0.18986
 C789 C 0.38178 0.35839 -0.15781
 C790 C 0.37348 0.37493 -0.12494
 C791 C 0.34522 0.36429 -0.10250
 C792 C 0.32583 0.33754 -0.11298
 C793 C 0.33639 0.38075 -0.07001
 C794 C 0.35497 0.40786 -0.05988
 C795 C 0.38300 0.41892 -0.08182
 C796 C 0.39249 0.40216 -0.11424
 H797 H 0.29136 0.28876 -0.13912
 H798 H 0.39067 0.32283 -0.21933
 H799 H 0.35596 0.27702 -0.23755
 H800 H 0.40331 0.36647 -0.17520
 H801 H 0.30416 0.32955 -0.09567
 H802 H 0.31486 0.37283 -0.05254
 H803 H 0.34731 0.42019 -0.03467
 H804 H 0.41405 0.41059 -0.13132
 C805 C 1.18184 -0.20263 0.18344
 C806 C 1.16721 -0.17631 0.16130
 C807 C 1.17283 -0.14413 0.17224
 C808 C 1.19477 -0.13896 0.20407
 C809 C 1.20988 -0.16535 0.22554
 C810 C 1.20276 -0.19726 0.21590
 C811 C 1.15587 -0.11776 0.15162
 C812 C 1.13383 -0.12318 0.11986
 C813 C 1.13003 -0.15538 0.10790
 C814 C 1.14646 -0.18169 0.12879
 C815 C 1.10921 -0.16084 0.07552
 C816 C 1.09121 -0.13482 0.05580
 C817 C 1.09312 -0.10282 0.06833
 C818 C 1.11498 -0.09707 0.10018
 H819 H 1.17656 -0.22730 0.17582
 H820 H 1.19970 -0.11451 0.21274
 H821 H 1.22585 -0.16079 0.25058
 H822 H 1.15940 -0.09311 0.16057
 H823 H 1.14266 -0.20636 0.12004
 H824 H 1.10631 -0.18532 0.06577
 H825 H 1.07459 -0.13995 0.03139
 H826 H 1.11686 -0.07244 0.10988
 C827 C 1.19945 0.28235 0.72973
 C828 C 1.18264 0.30319 0.70234
 C829 C 1.20047 0.30817 0.66868
 C830 C 1.23469 0.29171 0.66288
 C831 C 1.25121 0.27078 0.69033
 C832 C 1.23384 0.26594 0.72407
 C833 C 1.18399 0.32978 0.64166
 C834 C 1.14998 0.34649 0.64808
 C835 C 1.13202 0.34099 0.68163
 C836 C 1.14842 0.31939 0.70847
 C837 C 1.09810 0.35757 0.68809
 C838 C 1.08243 0.38002 0.66200
 C839 C 1.10031 0.38627 0.62892
 C840 C 1.13390 0.36905 0.62184
 H841 H 1.18599 0.27965 0.75587
 H842 H 1.24874 0.29510 0.63719
 H843 H 1.27746 0.25827 0.68490
 H844 H 1.19780 0.33387 0.61594
 H845 H 1.13472 0.31544 0.73430
 H846 H 1.08394 0.35351 0.71358
 H847 H 1.05647 0.39287 0.66801
 H848 H 1.14787 0.37369 0.59637
 C849 C 0.68805 -0.21964 0.71505
 C850 C 0.67153 -0.19576 0.69074
 C851 C 0.69373 -0.17774 0.66784
 C852 C 0.73202 -0.18338 0.67024
 C853 C 0.74840 -0.20648 0.69530
 C854 C 0.72685 -0.22522 0.71830
 C855 C 0.67735 -0.15415 0.64315
 C856 C 0.63904 -0.14774 0.64184
 C857 C 0.61675 -0.16515 0.66543
 C858 C 0.63310 -0.18944 0.68934
 C859 C 0.57854 -0.15765 0.66494
 C860 C 0.56261 -0.13304 0.64135
 C861 C 0.58456 -0.11618 0.61735
 C862 C 0.62273 -0.12380 0.61762
 H863 H 0.67003 -0.23402 0.73079
 H864 H 0.74947 -0.16946 0.65312
 H865 H 0.77807 -0.20841 0.69674
 H866 H 0.69445 -0.14049 0.62533
 H867 H 0.61601 -0.20301 0.70725
 H868 H 0.56106 -0.17061 0.68300
 H869 H 0.53314 -0.12744 0.64151
 H870 H 0.63992 -0.11055 0.59950
 C871 C 0.67009 0.29968 0.20112
 C872 C 0.65461 0.32566 0.17930
 C873 C 0.67567 0.35234 0.17143
 C874 C 0.71171 0.35274 0.18639
 C875 C 0.72630 0.32740 0.20983
 C876 C 0.70557 0.30064 0.21782
 C877 C 0.66004 0.37837 0.14944
 C878 C 0.62306 0.37863 0.13688
 C879 C 0.60168 0.35238 0.14612
 C880 C 0.61788 0.32570 0.16637
 C881 C 0.56417 0.35353 0.13563
 C882 C 0.54784 0.38056 0.11632
 C883 C 0.56907 0.40618 0.10604
 C884 C 0.60674 0.40504 0.11602
 H885 H 0.65388 0.27893 0.20535
 H886 H 0.72822 0.37311 0.18088
 H887 H 0.75345 0.32940 0.22224
 H888 H 0.67628 0.39876 0.14299
 H889 H 0.60154 0.30544 0.17310
 H890 H 0.54736 0.33376 0.14284
 H891 H 0.51876 0.38124 0.10877
 H892 H 0.62296 0.42515 0.10849
 C893 C 0.81072 0.18466 0.22825
 C894 C 0.83091 0.16903 0.20040
 C895 C 0.83739 0.18598 0.16717
 C896 C 0.82404 0.21860 0.16284
 C897 C 0.80305 0.23377 0.19043
 C898 C 0.79543 0.21672 0.22303
 C899 C 0.85630 0.16982 0.13862
 C900 C 0.86823 0.13678 0.14276
 C901 C 0.86181 0.12002 0.17621
 C902 C 0.84353 0.13631 0.20487
 C903 C 0.87347 0.08708 0.18038
 C904 C 0.89138 0.07074 0.15175
 C905 C 0.89804 0.08697 0.11835
 C906 C 0.88630 0.12009 0.11401
 H907 H 0.80589 0.17139 0.25361
 H908 H 0.82878 0.23205 0.13759
 H909 H 0.79145 0.25832 0.18543
 H910 H 0.86115 0.18276 0.11302
 H911 H 0.83843 0.12331 0.23038
 H912 H 0.86871 0.07391 0.20582
 H913 H 0.90019 0.04532 0.15585
 H914 H 0.89139 0.13291 0.08842
 C915 C 0.82909 0.69117 0.69810
 C916 C 0.84373 0.66938 0.67161
 C917 C 0.82384 0.64247 0.66084
 C918 C 0.79031 0.63732 0.67699
 C919 C 0.77711 0.65776 0.70464
 C920 C 0.79623 0.68487 0.71591
 C921 C 0.83835 0.62024 0.63520
 C922 C 0.87369 0.62318 0.62185
 C923 C 0.89424 0.64952 0.63321
 C924 C 0.87869 0.67302 0.65711
 C925 C 0.93063 0.65100 0.62181
 C926 C 0.94689 0.62594 0.60083
 C927 C 0.92653 0.59984 0.58945
 C928 C 0.88961 0.59905 0.59913
 H929 H 0.84473 0.71142 0.70673
 H930 H 0.77468 0.61688 0.66898
 H931 H 0.75104 0.65268 0.71639
 H932 H 0.82287 0.59971 0.62708
 H933 H 0.89446 0.69319 0.66578
 H934 H 0.94699 0.67079 0.63041
 H935 H 0.97557 0.62666 0.59388
 H936 H 0.87416 0.57848 0.59115
 C937 C 0.32757 0.18743 0.70351
 C938 C 0.35206 0.16805 0.68249
 C939 C 0.38081 0.14869 0.70081
 C940 C 0.38466 0.14909 0.73961
 C941 C 0.35952 0.16762 0.76026
 C942 C 0.33077 0.18665 0.74241
 C943 C 0.40449 0.12836 0.68024
 C944 C 0.39902 0.12613 0.64173
 C945 C 0.37037 0.14538 0.62325
 C946 C 0.34743 0.16669 0.64370
 C947 C 0.36450 0.14216 0.58482
 C948 C 0.38593 0.11924 0.56518
 C949 C 0.41398 0.09965 0.58356
 C950 C 0.42091 0.10386 0.62169
 H951 H 0.30500 0.20180 0.68982
 H952 H 0.40649 0.13436 0.75403
 H953 H 0.36226 0.16692 0.79028
 H954 H 0.42633 0.11338 0.69438
 H955 H 0.32526 0.18131 0.62963
 H956 H 0.34269 0.15671 0.57015
 H957 H 0.38018 0.11646 0.53578
 H958 H 0.44241 0.08881 0.63622
 C959 C 0.29851 0.71997 0.19915
 C960 C 0.32523 0.69990 0.18165
 C961 C 0.35147 0.68051 0.20340
 C962 C 0.35126 0.68236 0.24222
 C963 C 0.32388 0.70156 0.25934
 C964 C 0.29700 0.71992 0.23796
 C965 C 0.37616 0.65835 0.18614
 C966 C 0.37407 0.65444 0.14751
 C967 C 0.34839 0.67439 0.12577
 C968 C 0.32464 0.69737 0.14288
 C969 C 0.34572 0.67007 0.08733
 C970 C 0.36688 0.64518 0.07078
 C971 C 0.39158 0.62443 0.09217
 C972 C 0.39592 0.62984 0.13045
 H973 H 0.27728 0.73371 0.18270
 H974 H 0.37112 0.66773 0.25934
 H975 H 0.32272 0.70111 0.28934
 H976 H 0.39575 0.64307 0.20291
 H977 H 0.30450 0.71215 0.12618
 H978 H 0.32635 0.68521 0.07022
 H979 H 0.36328 0.64170 0.04118
 H980 H 0.41482 0.61390 0.14720
   
