data_POSCAR
  _audit_creation_date              2014-09-24
  _audit_creation_method            'ToBaCCo'
  _symmetry_space_group_name_H-M    'P1'
  _symmetry_Int_Tables_number       1
  _symmetry_cell_setting            triclinic
  loop_
  _symmetry_equiv_pos_as_xyz
 x,y,z
_cell_length_a 47.9220
_cell_length_b 47.3497
_cell_length_c 47.9417
_cell_angle_alpha 89.871000
_cell_angle_beta 90.021600
_cell_angle_gamma 89.989300
loop_
  _atom_site_label
  _atom_site_type_symbol
  _atom_site_fract_x
  _atom_site_fract_y
  _atom_site_fract_z
C1 C 0.60492 0.64477 0.62529
 N2 N 0.62493 0.64478 0.60527
 C3 C 0.64510 0.62465 0.60544
 N4 N 0.64525 0.60451 0.62562
 C5 C 0.62523 0.60450 0.64565
 N6 N 0.60507 0.62463 0.64548
 C7 C 0.89607 0.35455 0.12528
 N8 N 0.89596 0.37469 0.14538
 C9 C 0.87583 0.39485 0.14545
 N10 N 0.85581 0.39487 0.12543
 C11 C 0.85591 0.37474 0.10533
 N12 N 0.87605 0.35458 0.10526
 C13 C 0.39506 0.14510 -0.12509
 N14 N 0.39491 0.12501 -0.14523
 C15 C 0.37475 0.10488 -0.14534
 N16 N 0.35474 0.10485 -0.12532
 C17 C 0.35489 0.12494 -0.10518
 N18 N 0.37505 0.14507 -0.10506
 C19 C 0.10392 0.85480 0.37445
 N20 N 0.12394 0.85478 0.39447
 C21 C 0.14407 0.87494 0.39436
 N22 N 0.14417 0.89513 0.37422
 C23 C 0.12415 0.89515 0.35419
 N24 N 0.10403 0.87499 0.35430
 N25 N 0.09217 0.16993 0.11287
 N26 N 0.08123 0.15836 0.13533
 C27 C 0.05861 0.17335 0.14302
 C28 C 0.05541 0.19531 0.12438
 C29 C 0.07692 0.19264 0.10552
 H30 H 0.04546 0.16874 0.16078
 H31 H 0.08113 0.20619 0.08782
 Cu32 Cu 0.09769 0.12486 0.15220
 Cu33 Cu 0.12532 0.15471 0.09485
 Cu34 Cu 0.15498 0.09498 0.12462
 N35 N 0.11450 0.09137 0.16872
 N36 N 0.13693 0.07979 0.15780
 C37 C 0.14424 0.05708 0.17310
 C38 C 0.12538 0.05442 0.19462
 C39 C 0.10677 0.07638 0.19137
 H40 H 0.16191 0.04352 0.16891
 H41 H 0.08903 0.08101 0.20452
 N42 N 0.17017 0.11346 0.09102
 N43 N 0.15888 0.13621 0.07968
 C44 C 0.17393 0.14373 0.05712
 C45 C 0.19556 0.12482 0.05430
 C46 C 0.19271 0.10592 0.07597
 H47 H 0.16956 0.16159 0.04372
 H48 H 0.20607 0.08805 0.08037
 H49 H 0.11969 0.11343 0.10777
 H50 H 0.14215 0.13626 0.13016
 N51 N 0.40713 0.82998 0.61244
 N52 N 0.41804 0.84151 0.63489
 C53 C 0.44071 0.82656 0.64261
 C54 C 0.44398 0.80468 0.62399
 C55 C 0.42245 0.80734 0.60512
 H56 H 0.45386 0.83116 0.66036
 H57 H 0.41828 0.79384 0.58744
 Cu58 Cu 0.40147 0.87489 0.65172
 Cu59 Cu 0.37392 0.84514 0.59439
 Cu60 Cu 0.34407 0.90467 0.62409
 N61 N 0.38456 0.90826 0.66821
 N62 N 0.36209 0.91981 0.65727
 C63 C 0.35471 0.94244 0.67254
 C64 C 0.37358 0.94508 0.69406
 C65 C 0.39225 0.92320 0.69084
 H66 H 0.33700 0.95595 0.66833
 H67 H 0.41002 0.91859 0.70400
 N68 N 0.32893 0.88626 0.59051
 N69 N 0.34030 0.86358 0.57920
 C70 C 0.32525 0.85608 0.55665
 C71 C 0.30355 0.87493 0.55380
 C72 C 0.30636 0.89377 0.57545
 H73 H 0.32967 0.83828 0.54327
 H74 H 0.29293 0.91157 0.57983
 H75 H 0.37942 0.88640 0.60728
 H76 H 0.35704 0.86341 0.62968
 N77 N 0.90782 0.67022 0.38730
 N78 N 0.91875 0.65871 0.36486
 C79 C 0.94136 0.67373 0.35712
 C80 C 0.94457 0.69563 0.37573
 C81 C 0.92308 0.69291 0.39461
 H82 H 0.95451 0.66916 0.33937
 H83 H 0.91887 0.70641 0.41229
 Cu84 Cu 0.90230 0.62526 0.34807
 Cu85 Cu 0.87469 0.65495 0.40538
 Cu86 Cu 0.84505 0.59529 0.37574
 N87 N 0.88551 0.59180 0.33162
 N88 N 0.86309 0.58018 0.34258
 C89 C 0.85579 0.55750 0.32733
 C90 C 0.87464 0.55491 0.30581
 C91 C 0.89323 0.57687 0.30900
 H92 H 0.83814 0.54393 0.33157
 H93 H 0.91096 0.58153 0.29583
 N94 N 0.82987 0.61368 0.40931
 N95 N 0.84116 0.63641 0.42060
 C96 C 0.82611 0.64387 0.44315
 C97 C 0.80449 0.62494 0.44603
 C98 C 0.80735 0.60609 0.42439
 H99 H 0.83048 0.66169 0.45652
 H100 H 0.79399 0.58824 0.42003
 H101 H 0.88035 0.61371 0.39253
 H102 H 0.85785 0.63659 0.37011
 N103 N 0.59284 0.33023 -0.11263
 N104 N 0.58193 0.34180 -0.13511
 C105 C 0.55925 0.32688 -0.14279
 C106 C 0.55598 0.30497 -0.12411
 C107 C 0.57751 0.30758 -0.10525
 H108 H 0.54611 0.33152 -0.16056
 H109 H 0.58168 0.29405 -0.08753
 Cu110 Cu 0.59850 0.37520 -0.15203
 Cu111 Cu 0.62606 0.34533 -0.09463
 Cu112 Cu 0.65592 0.40489 -0.12449
 N113 N 0.61542 0.40860 -0.16860
 N114 N 0.63790 0.42011 -0.15770
 C115 C 0.64527 0.44277 -0.17303
 C116 C 0.62640 0.44547 -0.19455
 C117 C 0.60773 0.42359 -0.19127
 H118 H 0.66299 0.45627 -0.16886
 H119 H 0.58995 0.41901 -0.20441
 N120 N 0.67107 0.38640 -0.09087
 N121 N 0.65969 0.36371 -0.07949
 C122 C 0.67474 0.35616 -0.05692
 C123 C 0.69645 0.37498 -0.05413
 C124 C 0.69365 0.39386 -0.07583
 H125 H 0.67031 0.33834 -0.04350
 H126 H 0.70708 0.41166 -0.08027
 H127 H 0.62057 0.38661 -0.10762
 H128 H 0.64293 0.36365 -0.12997
 C129 C -0.04412 0.29471 0.12502
 C130 C -0.03858 0.28167 0.15385
 C131 C -0.01835 0.26144 0.15374
 C132 C -0.00564 0.25623 0.12482
 C133 C 0.00462 0.28529 0.11496
 C134 C -0.01561 0.30552 0.11506
 C135 C -0.05080 0.26955 0.10601
 C136 C -0.03057 0.24932 0.10590
 C137 C -0.06590 0.31649 0.12513
 C138 C -0.08379 0.33439 0.12521
 C139 C 0.01614 0.23446 0.12469
 C140 C 0.03405 0.21658 0.12456
 H141 H -0.04958 0.28779 0.17268
 H142 H -0.01202 0.25023 0.17248
 H143 H 0.02590 0.28960 0.10846
 H144 H -0.01166 0.32716 0.10866
 H145 H -0.06975 0.26779 0.09372
 H146 H -0.03219 0.23022 0.09352
 C147 C 0.54383 0.70561 0.62482
 C148 C 0.52398 0.70381 0.64989
 C149 C 0.50369 0.72397 0.64974
 C150 C 0.50522 0.74396 0.62453
 C151 C 0.50451 0.72457 0.59893
 C152 C 0.52481 0.70440 0.59908
 C153 C 0.55523 0.73590 0.62529
 C154 C 0.53493 0.75606 0.62514
 C155 C 0.56567 0.68389 0.62498
 C156 C 0.58360 0.66604 0.62512
 C157 C 0.48337 0.76566 0.62436
 C158 C 0.46540 0.78348 0.62421
 H159 H 0.52572 0.68808 0.66631
 H160 H 0.48804 0.72552 0.66603
 H161 H 0.48940 0.72650 0.58215
 H162 H 0.52708 0.68907 0.58243
 H163 H 0.57730 0.74105 0.62570
 H164 H 0.53962 0.77849 0.62543
 C165 C 1.04412 0.79497 0.37485
 C166 C 1.03603 0.78497 0.40423
 C167 C 1.01580 0.76475 0.40439
 C168 C 1.00563 0.75652 0.37515
 C169 C 1.03208 0.74778 0.35930
 C170 C 1.05232 0.76799 0.35915
 C171 C 1.01664 0.80459 0.36138
 C172 C 0.99640 0.78437 0.36154
 C173 C 1.06590 0.81674 0.37469
 C174 C 1.08379 0.83464 0.37457
 C175 C 0.98384 0.73476 0.37533
 C176 C 0.96593 0.71690 0.37550
 H177 H 1.04537 0.79305 0.42324
 H178 H 1.00780 0.75552 0.42354
 H179 H 1.03468 0.72750 0.34911
 H180 H 1.07225 0.76503 0.34881
 H181 H 1.01336 0.82544 0.35250
 H182 H 0.97579 0.78791 0.35280
 C183 C 0.45615 0.20592 -0.12475
 C184 C 0.45719 0.22359 -0.15162
 C185 C 0.47748 0.24375 -0.15150
 C186 C 0.49474 0.24427 -0.12453
 C187 C 0.50601 0.21410 -0.12123
 C188 C 0.48572 0.19394 -0.12134
 C189 C 0.45299 0.22753 -0.10113
 C190 C 0.47328 0.24769 -0.10101
 C191 C 0.43431 0.18422 -0.12487
 C192 C 0.41638 0.16636 -0.12496
 C193 C 0.51659 0.26596 -0.12440
 C194 C 0.53456 0.28377 -0.12428
 H195 H 0.44322 0.22053 -0.16919
 H196 H 0.48089 0.25796 -0.16897
 H197 H 0.52799 0.20901 -0.11900
 H198 H 0.49032 0.17158 -0.11921
 H199 H 0.43629 0.22703 -0.08584
 H200 H 0.47396 0.26446 -0.08563
 C201 C 0.12453 -0.04497 0.29431
 C202 C 0.10415 -0.02060 0.29985
 C203 C 0.10430 -0.00037 0.27959
 C204 C 0.12481 -0.00649 0.25577
 C205 C 0.11673 -0.03591 0.24508
 C206 C 0.11658 -0.05614 0.26535
 C207 C 0.15306 -0.03079 0.29033
 C208 C 0.15321 -0.01056 0.27006
 C209 C 0.12437 -0.06675 0.31612
 C210 C 0.12426 -0.08467 0.33403
 C211 C 0.12499 0.01528 0.23395
 C212 C 0.12515 0.03315 0.21601
 H213 H 0.09078 -0.01935 0.31808
 H214 H 0.09105 0.01821 0.28046
 H215 H 0.11158 -0.04046 0.22350
 H216 H 0.11130 -0.07801 0.26112
 H217 H 0.17151 -0.03616 0.30236
 H218 H 0.17179 0.00140 0.26474
 C219 C 0.62566 0.54473 -0.29438
 C220 C 0.63861 0.51664 -0.30373
 C221 C 0.63875 0.49644 -0.28343
 C222 C 0.62593 0.50630 -0.25578
 C223 C 0.59658 0.51678 -0.26342
 C224 C 0.59644 0.53698 -0.28371
 C225 C 0.64212 0.55322 -0.26824
 C226 C 0.64226 0.53302 -0.24794
 C227 C 0.62551 0.56647 -0.31622
 C228 C 0.62538 0.58435 -0.33416
 C229 C 0.62608 0.48457 -0.23393
 C230 C 0.62622 0.46672 -0.21596
 H231 H 0.64694 0.51295 -0.32446
 H232 H 0.64720 0.47545 -0.28678
 H233 H 0.57758 0.50902 -0.25374
 H234 H 0.57732 0.54652 -0.29142
 H235 H 0.65273 0.57333 -0.26587
 H236 H 0.65300 0.53583 -0.22820
 C237 C 0.37432 1.04411 0.79367
 C238 C 0.38201 1.05545 0.76465
 C239 C 0.38187 1.03530 0.74440
 C240 C 0.37405 1.00578 0.75515
 C241 C 0.34571 1.00960 0.76959
 C242 C 0.34585 1.02976 0.78984
 C243 C 0.39489 1.01986 0.79911
 C244 C 0.39475 0.99971 0.77886
 C245 C 0.37447 1.06581 0.81547
 C246 C 0.37459 1.08364 0.83337
 C247 C 0.37389 0.98410 0.73335
 C248 C 0.37375 0.96629 0.71542
 H249 H 0.38712 1.07737 0.76039
 H250 H 0.38686 1.03996 0.72279
 H251 H 0.32717 0.99755 0.76437
 H252 H 0.32744 1.03496 0.80197
 H253 H 0.40838 1.01862 0.81727
 H254 H 0.40811 0.98121 0.77968
 C255 C 0.87546 0.45573 0.20634
 C256 C 0.89453 0.44884 0.23117
 C257 C 0.89439 0.46902 0.25139
 C258 C 0.87520 0.49412 0.24480
 C259 C 0.84641 0.48100 0.23939
 C260 C 0.84655 0.46082 0.21917
 C261 C 0.88511 0.48485 0.19604
 C262 C 0.88497 0.50504 0.21626
 C263 C 0.87560 0.43400 0.18458
 C264 C 0.87571 0.41613 0.16671
 C265 C 0.87503 0.51584 0.26657
 C266 C 0.87487 0.53368 0.28447
 H267 H 0.90704 0.42978 0.23274
 H268 H 0.90678 0.46725 0.27028
 H269 H 0.82758 0.48703 0.25046
 H270 H 0.82784 0.44957 0.21292
 H271 H 0.89150 0.48924 0.17474
 H272 H 0.89124 0.52671 0.21228
 C273 C 0.29434 0.12486 -0.04458
 C274 C 0.28657 0.09520 -0.03419
 C275 C 0.26648 0.09518 -0.01408
 C276 C 0.25612 0.12483 -0.00633
 C277 C 0.24658 0.13808 -0.03399
 C278 C 0.26667 0.13810 -0.05410
 C279 C 0.30258 0.14126 -0.01825
 C280 C 0.28249 0.14124 0.00186
 C281 C 0.31597 0.12488 -0.06623
 C282 C 0.33375 0.12490 -0.08401
 C283 C 0.23450 0.12481 0.01532
 C284 C 0.21673 0.12480 0.03311
 H285 H 0.29601 0.07591 -0.04194
 H286 H 0.25871 0.07588 -0.00460
 H287 H 0.22587 0.14670 -0.03747
 H288 H 0.26317 0.14673 -0.07480
 H289 H 0.32245 0.15194 -0.01563
 H290 H 0.28515 0.15191 0.02170
 C291 C 0.70567 0.62472 0.54486
 C292 C 0.73162 0.60740 0.55267
 C293 C 0.75172 0.60743 0.53257
 C294 C 0.74391 0.62478 0.50663
 C295 C 0.73687 0.65433 0.51772
 C296 C 0.71677 0.65429 0.53781
 C297 C 0.69583 0.61250 0.51690
 C298 C 0.71594 0.61254 0.49680
 C299 C 0.68403 0.62468 0.56649
 C300 C 0.66625 0.62466 0.58427
 C301 C 0.76555 0.62483 0.48500
 C302 C 0.78333 0.62487 0.46722
 H303 H 0.73399 0.59610 0.57226
 H304 H 0.77131 0.59617 0.53495
 H305 H 0.74680 0.67358 0.51043
 H306 H 0.70948 0.67352 0.54773
 H307 H 0.67492 0.60453 0.51321
 H308 H 0.71224 0.60460 0.47590
 C309 C 0.79532 0.37480 0.04473
 C310 C 0.76580 0.36963 0.05608
 C311 C 0.74570 0.36966 0.03597
 C312 C 0.75708 0.37486 0.00647
 C313 C 0.77949 0.35210 0.00224
 C314 C 0.79960 0.35207 0.02235
 C315 C 0.79335 0.40274 0.02854
 C316 C 0.77324 0.40277 0.00843
 C317 C 0.81696 0.37476 0.06638
 C318 C 0.83474 0.37475 0.08417
 C319 C 0.73544 0.37489 -0.01517
 C320 C 0.71765 0.37492 -0.03296
 H321 H 0.76111 0.36624 0.07799
 H322 H 0.72379 0.36629 0.04065
 H323 H 0.77957 0.33732 -0.01504
 H324 H 0.81689 0.33726 0.02230
 H325 H 0.80658 0.42090 0.03253
 H326 H 0.76925 0.42096 -0.00482
 C327 C 0.20466 0.87492 0.45496
 C328 C 0.19342 0.88103 0.48432
 C329 C 0.21353 0.88103 0.50442
 C330 C 0.24292 0.87492 0.49320
 C331 C 0.24769 0.89704 0.47024
 C332 C 0.22758 0.89704 0.45014
 C333 C 0.22020 0.84668 0.45764
 C334 C 0.24031 0.84669 0.47774
 C335 C 0.18302 0.87491 0.43332
 C336 C 0.16523 0.87492 0.41553
 C337 C 0.26456 0.87492 0.51485
 C338 C 0.28236 0.87493 0.53262
 H339 H 0.17159 0.88500 0.48891
 H340 H 0.20893 0.88501 0.52623
 H341 H 0.26531 0.91145 0.46981
 H342 H 0.22798 0.91144 0.43248
 H343 H 0.21580 0.82831 0.44487
 H344 H 0.25313 0.82831 0.48220
   
