data_POSCAR
  _audit_creation_date              2014-09-24
  _audit_creation_method            'ToBaCCo'
  _symmetry_space_group_name_H-M    'P1'
  _symmetry_Int_Tables_number       1
  _symmetry_cell_setting            triclinic
  loop_
  _symmetry_equiv_pos_as_xyz
 x,y,z
_cell_length_a 45.2953
_cell_length_b 45.3488
_cell_length_c 46.0548
_cell_angle_alpha 88.789500
_cell_angle_beta 91.022000
_cell_angle_gamma 90.891800
loop_
  _atom_site_label
  _atom_site_type_symbol
  _atom_site_fract_x
  _atom_site_fract_y
  _atom_site_fract_z
N1 N 0.13865 0.13519 0.20872
 N2 N 0.16482 0.12847 0.21945
 C3 C 0.16130 0.11424 0.24532
 C4 C 0.13111 0.11159 0.25075
 C5 C 0.11771 0.12490 0.22661
 H6 H 0.17932 0.10671 0.25915
 H7 H 0.09450 0.12908 0.22302
 Cu8 Cu 0.20020 0.13975 0.19753
 Cu9 Cu 0.13308 0.16112 0.17495
 Cu10 Cu 0.19472 0.20284 0.15820
 N11 N 0.23129 0.15238 0.17063
 N12 N 0.22931 0.17771 0.15637
 C13 C 0.25287 0.18144 0.13933
 C14 C 0.27078 0.15690 0.14244
 C15 C 0.25620 0.13887 0.16272
 H16 H 0.25574 0.20029 0.12488
 H17 H 0.26286 0.11742 0.17089
 N18 N 0.15439 0.21605 0.14872
 N19 N 0.13106 0.19898 0.15338
 C20 C 0.10662 0.21351 0.14496
 C21 C 0.11480 0.24132 0.13456
 C22 C 0.14542 0.24202 0.13712
 H23 H 0.08447 0.20476 0.14748
 H24 H 0.16010 0.26029 0.13179
 H25 H 0.17451 0.16341 0.15611
 H26 H 0.16890 0.18282 0.19082
 N27 N -0.15178 0.83756 0.21865
 N28 N -0.17430 0.85490 0.22349
 C29 C -0.16494 0.87712 0.24057
 C30 C -0.13507 0.87372 0.24658
 C31 C -0.12758 0.84844 0.23226
 H32 H -0.17887 0.89429 0.24839
 H33 H -0.10628 0.83800 0.23281
 Cu34 Cu -0.21484 0.84645 0.20846
 Cu35 Cu -0.15537 0.80035 0.19692
 Cu36 Cu -0.22447 0.78024 0.17933
 N37 N -0.25079 0.83651 0.18588
 N38 N -0.25464 0.80979 0.17594
 C39 C -0.28034 0.80805 0.16122
 C40 C -0.29387 0.83530 0.16150
 C41 C -0.27433 0.85289 0.17767
 H42 H -0.28758 0.78848 0.15003
 H43 H -0.27666 0.87592 0.18266
 N44 N -0.19142 0.75653 0.16882
 N45 N -0.16405 0.76440 0.17512
 C46 C -0.14563 0.74577 0.16216
 C47 C -0.16259 0.72563 0.14654
 C48 C -0.19148 0.73313 0.15146
 H49 H -0.12182 0.74798 0.16234
 H50 H -0.21112 0.72335 0.14173
 H51 H -0.19152 0.82270 0.17998
 H52 H -0.19555 0.80558 0.21687
 N53 N -0.12777 0.14546 -0.21491
 N54 N -0.13527 0.12008 -0.20268
 C55 C -0.13099 0.09835 -0.22152
 C56 C -0.12008 0.11081 -0.24695
 C57 C -0.11816 0.14077 -0.24188
 H58 H -0.13638 0.07535 -0.21734
 H59 H -0.11172 0.15803 -0.25716
 Cu60 Cu -0.15295 0.11802 -0.16464
 Cu61 Cu -0.13374 0.18268 -0.19591
 Cu62 Cu -0.16270 0.17957 -0.12680
 N63 N -0.18163 0.11970 -0.13399
 N64 N -0.18703 0.14406 -0.12021
 C65 C -0.20966 0.13893 -0.10200
 C66 C -0.21865 0.10953 -0.10432
 C67 C -0.20011 0.09821 -0.12486
 H68 H -0.21857 0.15530 -0.08800
 H69 H -0.20079 0.07639 -0.13384
 N70 N -0.14336 0.21541 -0.14314
 N71 N -0.13279 0.21637 -0.16967
 C72 C -0.11809 0.24199 -0.17384
 C73 C -0.11923 0.25806 -0.14874
 C74 C -0.13574 0.24066 -0.12974
 H75 H -0.10613 0.24780 -0.19329
 H76 H -0.14014 0.24517 -0.10727
 H77 H -0.12938 0.16519 -0.15412
 H78 H -0.16812 0.16908 -0.16851
 N79 N 0.12718 0.83887 -0.20953
 N80 N 0.13867 0.86560 -0.21133
 C81 C 0.12739 0.87967 -0.23487
 C82 C 0.10774 0.86072 -0.24876
 C83 C 0.10816 0.83497 -0.23197
 H84 H 0.13346 0.90190 -0.24156
 H85 H 0.09622 0.81462 -0.23609
 Cu86 Cu 0.16888 0.87897 -0.18417
 Cu87 Cu 0.13925 0.81077 -0.17920
 Cu88 Cu 0.18125 0.84007 -0.12275
 N89 N 0.20392 0.88587 -0.16029
 N90 N 0.20873 0.87072 -0.13613
 C91 C 0.23421 0.88011 -0.12378
 C92 C 0.24628 0.90243 -0.14129
 C93 C 0.22619 0.90541 -0.16430
 H94 H 0.24306 0.87112 -0.10359
 H95 H 0.22753 0.92038 -0.18280
 N96 N 0.16077 0.80164 -0.11976
 N97 N 0.14553 0.79010 -0.14150
 C98 C 0.13495 0.76345 -0.13304
 C99 C 0.14410 0.75779 -0.10458
 C100 C 0.16045 0.78263 -0.09694
 H101 H 0.12160 0.74927 -0.14671
 H102 H 0.17143 0.78670 -0.07635
 H103 H 0.14411 0.84425 -0.15086
 H104 H 0.17918 0.82956 -0.16502
 N105 N 0.16530 1.14087 0.79227
 N106 N 0.14318 1.15932 0.79060
 C107 C 0.12310 1.14958 0.77095
 C108 C 0.13303 1.12344 0.75997
 C109 C 0.15985 1.11858 0.77403
 H110 H 0.10262 1.16044 0.76538
 H111 H 0.17464 1.10053 0.77066
 Cu112 Cu 0.14202 1.19392 0.81469
 Cu113 Cu 0.20048 1.14818 0.81634
 Cu114 Cu 0.19581 1.20487 0.86474
 N115 N 0.13717 1.22052 0.84679
 N116 N 0.15840 1.22494 0.86607
 C117 C 0.14959 1.24473 0.88532
 C118 C 0.12120 1.25318 0.87782
 C119 C 0.11400 1.23728 0.85321
 H120 H 0.16288 1.25233 0.90348
 H121 H 0.09371 1.23824 0.84053
 N122 N 0.23174 1.18198 0.86030
 N123 N 0.23361 1.15977 0.84243
 C124 C 0.26097 1.14847 0.84490
 C125 C 0.27705 1.16463 0.86515
 C126 C 0.25768 1.18557 0.87442
 H127 H 0.26878 1.13022 0.83257
 H128 H 0.26203 1.20204 0.89062
 H129 H 0.17547 1.16746 0.84717
 H130 H 0.19549 1.19265 0.82107
 N131 N 0.81455 0.86199 0.75931
 N132 N 0.84060 0.84964 0.75972
 C133 C 0.85474 0.85700 0.73509
 C134 C 0.83647 0.87481 0.71806
 C135 C 0.81113 0.87753 0.73431
 H136 H 0.87657 0.84957 0.73000
 H137 H 0.79162 0.88989 0.72853
 Cu138 Cu 0.85427 0.82524 0.79240
 Cu139 Cu 0.78776 0.85656 0.79163
 Cu140 Cu 0.79865 0.79939 0.83739
 N141 N 0.85906 0.79161 0.81973
 N142 N 0.83753 0.78110 0.83602
 C143 C 0.84740 0.75787 0.85180
 C144 C 0.87667 0.75340 0.84507
 C145 C 0.88322 0.77523 0.82453
 H146 H 0.83429 0.74560 0.86742
 H147 H 0.90387 0.77887 0.81356
 N148 N 0.76937 0.82912 0.84467
 N149 N 0.76525 0.85197 0.82715
 C150 C 0.74404 0.86887 0.83796
 C151 C 0.73434 0.85583 0.86371
 C152 C 0.75091 0.83051 0.86708
 H153 H 0.73644 0.88918 0.82790
 H154 H 0.74982 0.81417 0.88445
 H155 H 0.82393 0.83412 0.82469
 H156 H 0.81258 0.80905 0.79473
 N157 N 0.16316 0.86874 1.21917
 N158 N 0.14064 0.85070 1.22332
 C159 C 0.12543 0.85975 1.24628
 C160 C 0.13918 0.88495 1.25688
 C161 C 0.16313 0.88983 1.23915
 H162 H 0.10552 0.84919 1.25424
 H163 H 0.17920 0.90762 1.24031
 Cu164 Cu 0.13309 0.81779 1.19778
 Cu165 Cu 0.18920 0.86566 1.18672
 Cu166 Cu 0.17669 0.80777 1.14004
 N167 N 0.12857 0.78376 1.17317
 N168 N 0.14524 0.77988 1.15055
 C169 C 0.13689 0.75461 1.13764
 C170 C 0.11368 0.74198 1.15304
 C171 C 0.10918 0.76116 1.17548
 H172 H 0.14690 0.74620 1.11842
 H173 H 0.09312 0.75883 1.19244
 N174 N 0.20758 0.83836 1.13382
 N175 N 0.21308 0.85940 1.15260
 C176 C 0.23503 0.87690 1.14273
 C177 C 0.24373 0.86667 1.11633
 C178 C 0.22587 0.84218 1.11122
 H179 H 0.24317 0.89656 1.15325
 H180 H 0.22604 0.82837 1.09237
 H181 H 0.15938 0.84415 1.15923
 H182 H 0.18411 0.82016 1.18219
 N183 N 0.88414 1.12640 1.19339
 N184 N 0.90343 1.14644 1.18465
 C185 C 0.92358 1.15091 1.20607
 C186 C 0.91647 1.13255 1.22953
 C187 C 0.89130 1.11736 1.22049
 H188 H 0.94161 1.16675 1.20480
 H189 H 0.87852 1.10136 1.23283
 Cu190 Cu 0.89896 1.16583 1.14682
 Cu191 Cu 0.85041 1.11400 1.16986
 Cu192 Cu 0.84295 1.14709 1.10172
 N193 N 0.88666 1.19154 1.11463
 N194 N 0.86499 1.18390 1.09687
 C195 C 0.86082 1.20556 1.07689
 C196 C 0.88076 1.22827 1.08257
 C197 C 0.89687 1.21851 1.10673
 H198 H 0.84380 1.20508 1.06014
 H199 H 0.91453 1.23015 1.11794
 N200 N 0.81537 1.11665 1.11654
 N201 N 0.81797 1.10434 1.14264
 C202 C 0.79455 1.08633 1.14724
 C203 C 0.77614 1.08753 1.12297
 C204 C 0.79012 1.10696 1.10390
 H205 H 0.79049 1.07432 1.16732
 H206 H 0.78209 1.11437 1.08278
 H207 H 0.86950 1.12277 1.13085
 H208 H 0.84683 1.15283 1.14556
 N209 N 0.54990 1.05647 0.98040
 N210 N 0.57742 1.06628 0.98381
 N211 N 0.48779 1.05280 0.94959
 N212 N 0.46798 1.06251 0.93039
 N213 N 0.49009 1.07069 0.97160
 N214 N 0.47225 1.09318 0.96783
 N215 N 0.54783 1.03878 0.95820
 N216 N 0.57375 1.03576 0.94626
 C217 C 0.59191 1.05324 0.96212
 C218 C 0.45871 1.08789 0.94202
 N219 N 0.46707 0.96903 0.95946
 N220 N 0.44147 0.95723 0.95157
 N221 N 0.53418 0.97738 0.95078
 N222 N 0.55927 0.97154 0.93796
 N223 N 0.52695 0.95586 0.96890
 N224 N 0.54683 0.93499 0.96910
 N225 N 0.47410 0.99118 0.94204
 N226 N 0.45347 0.99503 0.92173
 Mn227 Mn 0.51095 1.01515 0.94976
 C228 C 0.43327 0.97357 0.92796
 C229 C 0.56676 0.94490 0.94957
 N230 N 0.47994 1.06399 1.03301
 N231 N 0.46210 1.08649 1.03546
 N232 N 0.53174 1.02809 1.05968
 N233 N 0.55327 1.02209 1.07851
 N234 N 0.53968 1.04982 1.04203
 N235 N 0.56663 1.05922 1.04850
 N236 N 0.47174 1.04204 1.05028
 N237 N 0.44812 1.04911 1.06496
 Mn238 Mn 0.51503 1.06061 1.00683
 C239 C 0.44234 1.07697 1.05546
 C240 C 0.57475 1.04194 1.07146
 N241 N 0.51684 0.94910 1.03010
 N242 N 0.53393 0.92617 1.03472
 N243 N 0.45772 0.97993 1.04264
 N244 N 0.43159 0.97923 1.05518
 N245 N 0.45738 0.96260 1.02016
 N246 N 0.43132 0.95004 1.01648
 N247 N 0.51808 0.96668 1.05237
 N248 N 0.53651 0.95637 1.07262
 Mn249 Mn 0.49208 0.95888 0.99463
 Mn250 Mn 0.49465 1.00419 1.05169
 Cl251 Cl 0.50316 1.00975 1.00075
 C252 C 0.54614 0.93099 1.06126
 C253 C 0.41542 0.96047 1.03835
 N254 N 0.05254 0.46982 -0.01644
 N255 N 0.06286 0.44261 -0.01484
 N256 N 0.04323 0.53587 -0.03494
 N257 N 0.05230 0.56062 -0.04764
 N258 N 0.05659 0.53195 -0.00969
 N259 N 0.07512 0.55410 -0.00448
 N260 N 0.03958 0.47459 -0.04185
 N261 N 0.04082 0.45105 -0.05793
 C262 C 0.05575 0.43148 -0.04120
 C263 C 0.07228 0.57175 -0.02848
 N264 N -0.04291 0.54018 -0.04296
 N265 N -0.05736 0.56458 -0.04967
 N266 N -0.02036 0.47973 -0.06203
 N267 N -0.01805 0.45830 -0.08069
 N268 N -0.04611 0.47832 -0.04942
 N269 N -0.06186 0.45561 -0.05899
 N270 N -0.01678 0.54088 -0.05485
 N271 N -0.01269 0.56557 -0.06987
 Mn272 Mn 0.01155 0.50788 -0.04863
 C273 C -0.03812 0.58018 -0.06650
 C274 C -0.04407 0.44348 -0.07870
 N275 N 0.03650 0.52521 0.04909
 N276 N 0.05278 0.54727 0.05925
 N277 N 0.00707 0.46289 0.05501
 N278 N 0.00312 0.43791 0.06977
 N279 N 0.03304 0.46352 0.04277
 N280 N 0.04751 0.43908 0.04906
 N281 N 0.01056 0.52436 0.06144
 N282 N 0.00858 0.54554 0.08037
 Mn283 Mn 0.04513 0.49759 0.01655
 C284 C 0.03507 0.55958 0.07896
 C285 C 0.02857 0.42330 0.06596
 N286 N -0.06607 0.47138 0.00929
 N287 N -0.08210 0.44777 0.00280
 N288 N -0.04986 0.52969 0.04124
 N289 N -0.05814 0.55046 0.05901
 N290 N -0.06300 0.53296 0.01576
 N291 N -0.08057 0.55584 0.01550
 N292 N -0.05311 0.46788 0.03485
 N293 N -0.05999 0.44184 0.04633
 Mn294 Mn -0.05492 0.50573 -0.01694
 Mn295 Mn -0.02145 0.49621 0.04849
 Cl296 Cl -0.00493 0.50185 -0.00009
 C297 C -0.07835 0.42966 0.02628
 C298 C -0.07735 0.56664 0.04256
 N299 N 0.94681 0.04201 0.52019
 N300 N 0.92685 0.04006 0.54065
 N301 N 0.98172 0.06930 0.46912
 N302 N 0.98648 0.08931 0.44838
 N303 N 0.96036 0.05108 0.46125
 N304 N 0.95013 0.05815 0.43510
 N305 N 0.96885 0.05939 0.52828
 N306 N 0.96421 0.06979 0.55439
 C307 C 0.93771 0.05777 0.56165
 C308 C 0.96648 0.08217 0.42738
 N309 N 1.06125 0.03896 0.48207
 N310 N 1.07742 0.03944 0.45836
 N311 N 1.03130 0.05222 0.54144
 N312 N 1.03207 0.06502 0.56708
 N313 N 1.04908 0.02965 0.54166
 N314 N 1.06203 0.02617 0.56725
 N315 N 1.04359 0.06175 0.48180
 N316 N 1.04752 0.07788 0.45798
 Mn317 Mn 1.00639 0.06107 0.50540
 C318 C 1.06907 0.06422 0.44379
 C319 C 1.05142 0.04833 0.58292
 N320 N 0.95351 -0.01170 0.45180
 N321 N 0.94051 -0.01074 0.42579
 N322 N 0.95784 -0.04222 0.51355
 N323 N 0.94781 -0.06140 0.53326
 N324 N 0.93988 -0.01989 0.51056
 N325 N 0.91709 -0.02336 0.52767
 N326 N 0.97128 -0.03426 0.45406
 N327 N 0.97144 -0.04882 0.42962
 Mn328 Mn 0.94986 0.01554 0.48573
 C329 C 0.95213 -0.03407 0.41224
 C330 C 0.92216 -0.04928 0.54165
 N331 N 1.04220 -0.03228 0.53307
 N332 N 1.05427 -0.04042 0.55822
 N333 N 1.03271 -0.04169 0.46715
 N334 N 1.03729 -0.05356 0.44169
 N335 N 1.05455 -0.02364 0.47399
 N336 N 1.07450 -0.02282 0.45356
 N337 N 1.01990 -0.04984 0.52641
 N338 N 1.01623 -0.07042 0.54674
 Mn339 Mn 1.05210 0.00320 0.50773
 Mn340 Mn 0.99537 -0.04241 0.49036
 Cl341 Cl 1.00092 0.00935 0.49728
 C342 C 1.03790 -0.06432 0.56643
 C343 C 1.06360 -0.04169 0.43368
 C344 C 1.11595 0.08551 0.32683
 C345 C 1.08565 0.08409 0.32542
 C346 C 1.06952 0.08967 0.30015
 C347 C 1.08510 0.09772 0.27523
 C348 C 1.11653 0.10051 0.27573
 C349 C 1.13215 0.09345 0.30204
 O350 O 1.12664 0.08037 0.35360
 C351 C 1.10245 0.07578 0.36925
 C352 C 1.07687 0.07795 0.35284
 C353 C 1.04890 0.07566 0.36458
 C354 C 1.04710 0.07104 0.39459
 C355 C 1.07292 0.06871 0.41227
 C356 C 1.10112 0.07064 0.39941
 H357 H 1.04563 0.08833 0.29971
 H358 H 1.07218 0.10185 0.25568
 H359 H 1.15595 0.09538 0.30370
 H360 H 1.02915 0.07778 0.35117
 H361 H 1.02548 0.06906 0.40412
 H362 H 1.12115 0.06911 0.41250
 C363 C 0.89250 -0.07805 0.30801
 C364 C 0.92249 -0.07994 0.30451
 C365 C 0.93488 -0.09521 0.28202
 C366 C 0.91562 -0.10952 0.26253
 C367 C 0.88454 -0.10852 0.26584
 C368 C 0.87286 -0.09200 0.28869
 O369 O 0.88541 -0.06415 0.33201
 C370 C 0.91150 -0.05728 0.34396
 C371 C 0.93487 -0.06654 0.32794
 C372 C 0.96406 -0.06409 0.33753
 C373 C 0.96939 -0.05217 0.36500
 C374 C 0.94576 -0.04257 0.38205
 C375 C 0.91641 -0.04456 0.37112
 H376 H 0.95858 -0.09663 0.27992
 H377 H 0.92504 -0.12172 0.24510
 H378 H 0.84933 -0.09125 0.29222
 H379 H 0.98201 -0.07212 0.32482
 H380 H 0.99189 -0.05103 0.37334
 H381 H 0.89795 -0.03827 0.38415
 C382 C 0.90799 0.09452 0.67844
 C383 C 0.89208 0.06926 0.67234
 C384 C 0.87266 0.05604 0.69188
 C385 C 0.86931 0.06954 0.71874
 C386 C 0.88502 0.09596 0.72536
 C387 C 0.90474 0.10851 0.70486
 O388 O 0.92536 0.10341 0.65693
 C389 C 0.92016 0.08340 0.63676
 C390 C 0.89981 0.06215 0.64506
 C391 C 0.89057 0.03948 0.62704
 C392 C 0.90291 0.03859 0.59936
 C393 C 0.92428 0.06000 0.59042
 C394 C 0.93304 0.08270 0.60947
 H395 H 0.86039 0.03614 0.68658
 H396 H 0.85391 0.05979 0.73399
 H397 H 0.91717 0.12854 0.70929
 H398 H 0.87441 0.02310 0.63399
 H399 H 0.89614 0.02094 0.58510
 H400 H 0.94922 0.09936 0.60319
 C401 C 1.08365 -0.10484 0.67945
 C402 C 1.06088 -0.12354 0.67152
 C403 C 1.05216 -0.14764 0.68865
 C404 C 1.06759 -0.15266 0.71499
 C405 C 1.09124 -0.13364 0.72365
 C406 C 1.09920 -0.10935 0.70546
 O407 O 1.08875 -0.08342 0.66006
 C408 C 1.06872 -0.08868 0.63939
 C409 C 1.05107 -0.11295 0.64532
 C410 C 1.02873 -0.12241 0.62644
 C411 C 1.02448 -0.10619 0.60042
 C412 C 1.04253 -0.08114 0.59383
 C413 C 1.06493 -0.07231 0.61371
 H414 H 1.03418 -0.16211 0.68195
 H415 H 1.06095 -0.17124 0.72859
 H416 H 1.11726 -0.09451 0.71098
 H417 H 1.01510 -0.14158 0.63153
 H418 H 1.00719 -0.11318 0.58544
 H419 H 1.07904 -0.05329 0.60936
 C420 C 0.33739 1.11976 1.11406
 C421 C 0.34766 1.14148 1.09545
 C422 C 0.33409 1.16851 1.09180
 C423 C 0.30869 1.17344 1.10780
 C424 C 0.29702 1.15147 1.12724
 C425 C 0.31206 1.12419 1.13042
 O426 O 0.35363 1.09554 1.11395
 C427 C 0.37454 1.10225 1.09484
 C428 C 0.37179 1.13015 1.08295
 C429 C 0.39099 1.14178 1.06234
 C430 C 0.41407 1.12397 1.05355
 C431 C 0.41763 1.09506 1.06538
 C432 C 0.39747 1.08406 1.08640
 H433 H 0.34271 1.18526 1.07702
 H434 H 0.29845 1.19463 1.10472
 H435 H 0.30425 1.10668 1.14476
 H436 H 0.38826 1.16381 1.05327
 H437 H 0.42917 1.13278 1.03747
 H438 H 0.39953 1.06208 1.09580
 C439 C 0.31819 0.92707 0.89079
 C440 C 0.32601 0.94926 0.87153
 C441 C 0.30843 0.95708 0.84767
 C442 C 0.28176 0.94138 0.84350
 C443 C 0.27300 0.91826 0.86314
 C444 C 0.29181 0.91129 0.88722
 O445 O 0.33809 0.92269 0.91183
 C446 C 0.35894 0.94258 0.90574
 C447 C 0.35267 0.95950 0.88134
 C448 C 0.37173 0.98160 0.87112
 C449 C 0.39833 0.98632 0.88667
 C450 C 0.40528 0.96890 0.91176
 C451 C 0.38515 0.94680 0.92138
 H452 H 0.31507 0.97457 0.83270
 H453 H 0.26816 0.94756 0.82491
 H454 H 0.28658 0.89393 0.90279
 H455 H 0.36635 0.99469 0.85188
 H456 H 0.41349 1.00339 0.87912
 H457 H 0.38974 0.93315 0.94045
 C458 C 0.64324 0.87888 1.13003
 C459 C 0.62872 0.85714 1.11486
 C460 C 0.63776 0.82814 1.11510
 C461 C 0.66311 0.82109 1.13137
 C462 C 0.67950 0.84301 1.14689
 C463 C 0.66886 0.87243 1.14641
 O464 O 0.63091 0.90520 1.12620
 C465 C 0.60828 0.89976 1.10812
 C466 C 0.60620 0.87065 1.10050
 C467 C 0.58525 0.86004 1.08081
 C468 C 0.56558 0.88030 1.06824
 C469 C 0.56684 0.91044 1.07581
 C470 C 0.58839 0.92032 1.09628
 H471 H 0.62582 0.81146 1.10296
 H472 H 0.66969 0.79833 1.13132
 H473 H 0.68037 0.88996 1.15773
 H474 H 0.58439 0.83705 1.07494
 H475 H 0.54928 0.87247 1.05261
 H476 H 0.59015 0.94332 1.10205
 C477 C 0.71143 1.09375 0.93509
 C478 C 0.70967 1.06367 0.93230
 C479 C 0.73121 1.04759 0.91901
 C480 C 0.75543 1.06310 0.90762
 C481 C 0.75793 1.09437 0.90955
 C482 C 0.73575 1.10974 0.92435
 O483 O 0.68717 1.10492 0.94616
 C484 C 0.66978 1.08132 0.95026
 C485 C 0.68269 1.05557 0.94214
 C486 C 0.66779 1.02858 0.94195
 C487 C 0.63811 1.02815 0.94982
 C488 C 0.62402 1.05437 0.95790
 C489 C 0.64025 1.08127 0.95885
 H490 H 0.72905 1.02394 0.91676
 H491 H 0.77205 1.05038 0.89721
 H492 H 0.73628 1.13351 0.92589
 H493 H 0.67831 1.00876 0.93490
 H494 H 0.62583 1.00747 0.94896
 H495 H 0.62971 1.10169 0.96415
 C496 C 0.08660 0.31410 0.10366
 C497 C 0.05711 0.31149 0.10995
 C498 C 0.04504 0.28664 0.12361
 C499 C 0.06415 0.26356 0.13125
 C500 C 0.09484 0.26566 0.12532
 C501 C 0.10608 0.29144 0.11116
 O502 O 0.09359 0.33967 0.09074
 C503 C 0.06795 0.35350 0.08895
 C504 C 0.04494 0.33723 0.10046
 C505 C 0.01628 0.34772 0.10137
 C506 C 0.01113 0.37620 0.09002
 C507 C 0.03446 0.39342 0.07789
 C508 C 0.06326 0.38175 0.07726
 H509 H 0.02176 0.28513 0.12842
 H510 H 0.05488 0.24436 0.14223
 H511 H 0.12923 0.29393 0.10614
 H512 H -0.00146 0.33451 0.11060
 H513 H -0.01104 0.38474 0.09055
 H514 H 0.08153 0.39438 0.06827
 C515 C -0.09551 0.33100 -0.11642
 C516 C -0.07074 0.33721 -0.13241
 C517 C -0.06069 0.31875 -0.15362
 C518 C -0.07694 0.29282 -0.15877
 C519 C -0.10266 0.28570 -0.14268
 C520 C -0.11192 0.30507 -0.12099
 O521 O -0.10124 0.35178 -0.09748
 C522 C -0.07958 0.37146 -0.10166
 C523 C -0.06032 0.36345 -0.12275
 C524 C -0.03593 0.38054 -0.13061
 C525 C -0.03110 0.40704 -0.11609
 C526 C -0.05061 0.41599 -0.09427
 C527 C -0.07528 0.39790 -0.08701
 H528 H -0.04105 0.32413 -0.16581
 H529 H -0.06909 0.27814 -0.17505
 H530 H -0.13145 0.30034 -0.10841
 H531 H -0.02106 0.37364 -0.14721
 H532 H -0.01205 0.42052 -0.12180
 H533 H -0.09038 0.40400 -0.07026
 C534 C 0.11236 0.68425 -0.07902
 C535 C 0.12684 0.68048 -0.05274
 C536 C 0.14707 0.70110 -0.04207
 C537 C 0.15260 0.72656 -0.05919
 C538 C 0.13794 0.73096 -0.08648
 C539 C 0.11748 0.70930 -0.09634
 O540 O 0.09403 0.66215 -0.08534
 C541 C 0.09699 0.64398 -0.06258
 C542 C 0.11677 0.65408 -0.04195
 C543 C 0.12309 0.63829 -0.01638
 C544 C 0.10838 0.61104 -0.01196
 C545 C 0.08793 0.60023 -0.03304
 C546 C 0.08224 0.61708 -0.05868
 H547 H 0.15829 0.69770 -0.02135
 H548 H 0.16848 0.74259 -0.05115
 H549 H 0.10565 0.71170 -0.11683
 H550 H 0.13875 0.64663 -0.00042
 H551 H 0.11289 0.59844 0.00781
 H552 H 0.06673 0.60953 -0.07519
 C553 C -0.12112 0.66513 0.10981
 C554 C -0.13792 0.66258 0.08478
 C555 C -0.16220 0.68006 0.07852
 C556 C -0.16973 0.70091 0.09900
 C557 C -0.15289 0.70418 0.12505
 C558 C -0.12792 0.68627 0.13036
 O559 O -0.09967 0.64542 0.11185
 C560 C -0.10306 0.63022 0.08756
 C561 C -0.12608 0.64006 0.07026
 C562 C -0.13390 0.62736 0.04400
 C563 C -0.11736 0.60343 0.03511
 C564 C -0.09370 0.59241 0.05260
 C565 C -0.08641 0.60610 0.07926
 H566 H -0.17516 0.67744 0.05874
 H567 H -0.18871 0.71460 0.09449
 H568 H -0.11488 0.68809 0.15019
 H569 H -0.15218 0.63552 0.03084
 H570 H -0.12329 0.59327 0.01471
 H571 H -0.06846 0.59824 0.09304
 C572 C 1.08987 0.09941 0.69323
 C573 C 1.09516 0.06963 0.69426
 C574 C 1.11177 0.05611 0.71629
 C575 C 1.12368 0.07405 0.73812
 C576 C 1.11869 0.10486 0.73765
 C577 C 1.10112 0.11763 0.71506
 O578 O 1.07540 0.10805 0.66921
 C579 C 1.07153 0.08315 0.65477
 C580 C 1.08316 0.05905 0.66932
 C581 C 1.08337 0.03111 0.65764
 C582 C 1.07169 0.02791 0.62953
 C583 C 1.06006 0.05242 0.61366
 C584 C 1.05939 0.08038 0.62673
 H585 H 1.11599 0.03269 0.71632
 H586 H 1.13693 0.06395 0.75530
 H587 H 1.09746 0.14116 0.71380
 H588 H 1.09296 0.01259 0.66940
 H589 H 1.07232 0.00636 0.61988
 H590 H 1.05122 0.09955 0.61491
 C591 C 0.87518 -0.10260 0.64843
 C592 C 0.85301 -0.08757 0.63414
 C593 C 0.82527 -0.08398 0.64580
 C594 C 0.82004 -0.09652 0.67335
 C595 C 0.84247 -0.11222 0.68880
 C596 C 0.87050 -0.11524 0.67593
 O597 O 0.90022 -0.10267 0.63377
 C598 C 0.89364 -0.08729 0.60969
 C599 C 0.86499 -0.07759 0.60896
 C600 C 0.85358 -0.06013 0.58648
 C601 C 0.87260 -0.05187 0.56400
 C602 C 0.90235 -0.06125 0.56423
 C603 C 0.91294 -0.07965 0.58722
 H604 H 0.80825 -0.07183 0.63415
 H605 H 0.79844 -0.09386 0.68242
 H606 H 0.88833 -0.12673 0.68695
 H607 H 0.83103 -0.05260 0.58655
 H608 H 0.86421 -0.03776 0.54657
 H609 H 0.93569 -0.08664 0.58824
 C610 C 1.10144 -0.08963 0.32418
 C611 C 1.11517 -0.06269 0.32785
 C612 C 1.13619 -0.05131 0.30897
 C613 C 1.14360 -0.06855 0.28539
 C614 C 1.13013 -0.09672 0.28125
 C615 C 1.10848 -0.10718 0.30090
 O616 O 1.08276 -0.09669 0.34518
 C617 C 1.08491 -0.07373 0.36252
 C618 C 1.10451 -0.05237 0.35286
 C619 C 1.11126 -0.02707 0.36825
 C620 C 1.09746 -0.02381 0.39491
 C621 C 1.07719 -0.04556 0.40538
 C622 C 1.07049 -0.07067 0.38874
 H623 H 1.14669 -0.03004 0.31238
 H624 H 1.15989 -0.05977 0.27055
 H625 H 1.09790 -0.12858 0.29869
 H626 H 1.12691 -0.01069 0.36025
 H627 H 1.10256 -0.00432 0.40736
 H628 H 1.05526 -0.08764 0.39637
 C629 C 0.93393 0.10819 0.30671
 C630 C 0.95641 0.12745 0.31412
 C631 C 0.96748 0.14857 0.29462
 C632 C 0.95460 0.14996 0.26656
 C633 C 0.93111 0.13041 0.25860
 C634 C 0.92104 0.10907 0.27915
 O635 O 0.92614 0.09001 0.32819
 C636 C 0.94404 0.09793 0.34976
 C637 C 0.96309 0.12071 0.34244
 C638 C 0.98356 0.13235 0.36219
 C639 C 0.98437 0.11991 0.39046
 C640 C 0.96489 0.09633 0.39827
 C641 C 0.94445 0.08536 0.37752
 H642 H 0.98515 0.16360 0.30085
 H643 H 0.96274 0.16651 0.25133
 H644 H 0.90342 0.09354 0.27424
 H645 H 0.99843 0.15023 0.35604
 H646 H 1.00032 0.12839 0.40609
 H647 H 0.92936 0.06732 0.38268
 C648 C 0.09950 0.31844 -0.07793
 C649 C 0.06976 0.31949 -0.08426
 C650 C 0.05535 0.29911 -0.10189
 C651 C 0.07234 0.27687 -0.11373
 C652 C 0.10318 0.27549 -0.10791
 C653 C 0.11676 0.29643 -0.08932
 O654 O 0.10931 0.34117 -0.06256
 C655 C 0.08525 0.35702 -0.05924
 C656 C 0.06047 0.34464 -0.07213
 C657 C 0.03343 0.35867 -0.07365
 C658 C 0.03204 0.38686 -0.06196
 C659 C 0.05735 0.40030 -0.04895
 C660 C 0.08419 0.38491 -0.04689
 H661 H 0.03197 0.30066 -0.10689
 H662 H 0.06145 0.26100 -0.12766
 H663 H 0.14029 0.29654 -0.08485
 H664 H 0.01441 0.34880 -0.08444
 H665 H 0.01143 0.39862 -0.06373
 H666 H 0.10397 0.39512 -0.03787
 C667 C -0.10008 0.30809 0.06541
 C668 C -0.11397 0.31191 0.03884
 C669 C -0.12952 0.28930 0.02518
 C670 C -0.13094 0.26171 0.03961
 C671 C -0.11689 0.25724 0.06718
 C672 C -0.10112 0.28092 0.08007
 O673 O -0.08653 0.33232 0.07474
 C674 C -0.09197 0.35188 0.05359
 C675 C -0.10866 0.34058 0.03107
 C676 C -0.11674 0.35739 0.00665
 C677 C -0.10706 0.38698 0.00536
 C678 C -0.08971 0.39903 0.02832
 C679 C -0.08222 0.38114 0.05280
 H680 H -0.14023 0.29276 0.00422
 H681 H -0.14290 0.24393 0.02915
 H682 H -0.09032 0.27858 0.10111
 H683 H -0.12985 0.34802 -0.01084
 H684 H -0.11283 0.40036 -0.01359
 H685 H -0.06890 0.38960 0.07061
 C686 C -0.09509 0.68589 -0.11411
 C687 C -0.06576 0.68713 -0.12120
 C688 C -0.05379 0.70932 -0.13880
 C689 C -0.07286 0.73118 -0.14960
 C690 C -0.10336 0.73044 -0.14280
 C691 C -0.11446 0.70738 -0.12459
 O692 O -0.10214 0.66244 -0.09777
 C693 C -0.07668 0.64855 -0.09453
 C694 C -0.05374 0.66280 -0.10845
 C695 C -0.02533 0.65174 -0.10871
 C696 C -0.02042 0.62470 -0.09430
 C697 C -0.04376 0.60934 -0.08003
 C698 C -0.07224 0.62168 -0.07986
 H699 H -0.03063 0.70970 -0.14421
 H700 H -0.06367 0.74853 -0.16328
 H701 H -0.13752 0.70575 -0.11902
 H702 H -0.00769 0.66330 -0.11995
 H703 H 0.00154 0.61562 -0.09456
 H704 H -0.09051 0.61040 -0.06933
 C705 C 0.08971 0.66892 0.12087
 C706 C 0.06464 0.66300 0.13645
 C707 C 0.05446 0.68163 0.15745
 C708 C 0.07081 0.70748 0.16271
 C709 C 0.09689 0.71433 0.14704
 C710 C 0.10638 0.69459 0.12573
 O711 O 0.09519 0.64840 0.10158
 C712 C 0.07304 0.62917 0.10513
 C713 C 0.05377 0.63717 0.12622
 C714 C 0.02870 0.62069 0.13320
 C715 C 0.02310 0.59493 0.11767
 C716 C 0.04251 0.58612 0.09570
 C717 C 0.06799 0.60345 0.08947
 H718 H 0.03452 0.67652 0.16928
 H719 H 0.06272 0.72216 0.17884
 H720 H 0.12606 0.69892 0.11329
 H721 H 0.01383 0.62756 0.14981
 H722 H 0.00350 0.58196 0.12267
 H723 H 0.08303 0.59746 0.07264
 C724 C 0.35063 1.13029 0.88499
 C725 C 0.36417 1.15339 0.89912
 C726 C 0.35120 1.18069 0.90175
 C727 C 0.32288 1.18431 0.88965
 C728 C 0.30795 1.16073 0.87546
 C729 C 0.32236 1.13342 0.87270
 O730 O 0.36638 1.10578 0.88625
 C731 C 0.39026 1.11363 0.90160
 C732 C 0.38987 1.14254 0.91002
 C733 C 0.41155 1.15497 0.92784
 C734 C 0.43452 1.13678 0.93767
 C735 C 0.43553 1.10688 0.92937
 C736 C 0.41328 1.09523 0.91070
 H737 H 0.36228 1.19845 0.91313
 H738 H 0.31261 1.20552 0.89167
 H739 H 0.31151 1.11485 0.86241
 H740 H 0.41043 1.17765 0.93455
 H741 H 0.45133 1.14589 0.95205
 H742 H 0.41318 1.07230 0.90458
 C743 C 0.30909 0.91200 1.09108
 C744 C 0.30671 0.90860 1.06156
 C745 C 0.28479 0.89127 1.04856
 C746 C 0.26422 0.87711 1.06678
 C747 C 0.26597 0.88065 1.09728
 C748 C 0.28881 0.89836 1.10951
 O749 O 0.33263 0.92778 1.09921
 C750 C 0.34547 0.93452 1.07423
 C751 C 0.33035 0.92342 1.05055
 C752 C 0.34064 0.92626 1.02242
 C753 C 0.36810 0.94026 1.01865
 C754 C 0.38461 0.95104 1.04281
 C755 C 0.37275 0.94890 1.07093
 H756 H 0.28371 0.88854 1.02527
 H757 H 0.24681 0.86376 1.05710
 H758 H 0.29118 0.90099 1.13274
 H759 H 0.32849 0.91711 1.00418
 H760 H 0.37699 0.94177 0.99698
 H761 H 0.38522 0.95627 1.08977
 C762 C 0.69799 1.07218 1.09709
 C763 C 0.68993 1.04936 1.11559
 C764 C 0.70920 1.03746 1.13638
 C765 C 0.73779 1.04979 1.13833
 C766 C 0.74653 1.07358 1.11964
 C767 C 0.72624 1.08464 1.09854
 O768 O 0.67634 1.08070 1.07924
 C769 C 0.65411 1.06291 1.08663
 C770 C 0.66119 1.04328 1.10874
 C771 C 0.64090 1.02286 1.11994
 C772 C 0.61222 1.02266 1.10775
 C773 C 0.60452 1.04272 1.08489
 C774 C 0.62587 1.06312 1.07428
 H775 H 0.70239 1.01953 1.15075
 H776 H 0.75299 1.04080 1.15446
 H777 H 0.73184 1.10297 1.08416
 H778 H 0.64694 1.00763 1.13737
 H779 H 0.59614 1.00684 1.11601
 H780 H 0.62075 1.07867 1.05681
 C781 C 0.67069 0.89829 0.89373
 C782 C 0.66762 0.88437 0.92032
 C783 C 0.68571 0.86161 0.92993
 C784 C 0.70784 0.85265 0.91129
 C785 C 0.71138 0.86633 0.88346
 C786 C 0.69251 0.88969 0.87477
 O787 O 0.65067 0.91895 0.88856
 C788 C 0.63457 0.91793 0.91239
 C789 C 0.64404 0.89707 0.93244
 C790 C 0.62972 0.89130 0.95841
 C791 C 0.60442 0.90753 0.96385
 C792 C 0.59410 0.92915 0.94354
 C793 C 0.60965 0.93468 0.91757
 H794 H 0.68280 0.85099 0.95097
 H795 H 0.72207 0.83503 0.91873
 H796 H 0.69423 0.90049 0.85369
 H797 H 0.63745 0.87459 0.97372
 H798 H 0.59283 0.90319 0.98389
 H799 H 0.60208 0.95080 0.90156
   
