data_POSCAR
  _audit_creation_date              2014-09-24
  _audit_creation_method            'ToBaCCo'
  _symmetry_space_group_name_H-M    'P1'
  _symmetry_Int_Tables_number       1
  _symmetry_cell_setting            triclinic
  loop_
  _symmetry_equiv_pos_as_xyz
 x,y,z
_cell_length_a 17.1207
_cell_length_b 16.7892
_cell_length_c 41.3436
_cell_angle_alpha 89.668200
_cell_angle_beta 89.903700
_cell_angle_gamma 121.322600
loop_
  _atom_site_label
  _atom_site_type_symbol
  _atom_site_fract_x
  _atom_site_fract_y
  _atom_site_fract_z
C1 C -0.05031 -0.10762 0.47853
 C2 C 0.01443 -0.06383 0.50297
 C3 C 0.01957 -0.11669 0.52818
 C4 C -0.04344 -0.21284 0.53019
 C5 C -0.11087 -0.25583 0.50620
 C6 C -0.11595 -0.20374 0.48019
 C7 C 0.06921 0.03846 0.50401
 C8 C 0.05240 0.08497 0.52856
 C9 C 0.09677 0.18228 0.52822
 C10 C 0.16092 0.23359 0.50385
 C11 C 0.17899 0.18736 0.47948
 C12 C 0.13189 0.08973 0.47931
 H13 H -0.04945 -0.06578 0.45832
 H14 H 0.06969 -0.08204 0.54713
 H15 H 0.00185 0.04528 0.54714
 H16 H 0.14388 0.05384 0.46002
 H17 H -0.16043 -0.32989 0.50831
 H18 H 0.19532 0.30901 0.50350
 C19 C 1.09890 0.05683 0.13581
 C20 C 1.05408 0.06981 0.16183
 C21 C 1.10513 0.12879 0.18719
 C22 C 1.20056 0.17509 0.18654
 C23 C 1.24512 0.16040 0.16089
 C24 C 1.19504 0.10203 0.13493
 C25 C 0.95353 0.01804 0.16322
 C26 C 0.90752 -0.04726 0.18810
 C27 C 0.81187 -0.10089 0.18864
 C28 C 0.76203 -0.08663 0.16486
 C29 C 0.80749 -0.01984 0.14036
 C30 C 0.90333 0.03144 0.13929
 H31 H 1.05829 0.00763 0.11711
 H32 H 1.07069 0.13917 0.20729
 H33 H 0.94611 -0.05847 0.20643
 H34 H 0.93863 0.08167 0.11997
 H35 H 1.31919 0.19684 0.16079
 H36 H 0.68793 -0.12773 0.16537
 C37 C 0.03952 0.92782 0.86261
 C38 C -0.02583 0.90941 0.83888
 C39 C -0.03950 0.84833 0.81368
 C40 C 0.01384 0.80755 0.81154
 C41 C 0.08247 0.82978 0.83449
 C42 C 0.09681 0.89139 0.85993
 C43 C -0.07174 0.96277 0.83848
 C44 C -0.05077 1.02859 0.81388
 C45 C -0.08840 1.08513 0.81432
 C46 C -0.15028 1.07298 0.83896
 C47 C -0.17092 1.00805 0.86430
 C48 C -0.13138 0.95259 0.86354
 H49 H 0.05068 0.97666 0.88170
 H50 H -0.09029 0.83408 0.79535
 H51 H -0.00290 1.03777 0.79490
 H52 H -0.14854 0.89968 0.88196
 H53 H 0.12461 0.79922 0.83251
 H54 H -0.17932 1.11699 0.83901
 O55 O 0.44820 0.09023 0.02437
 O56 O 0.58894 0.05884 -0.03457
 O57 O 0.43478 0.05386 -0.03738
 O58 O 0.59200 0.07367 0.02790
 O59 O 0.50833 -0.07860 0.03532
 O60 O 0.35217 -0.09815 -0.02850
 O61 O 0.50743 -0.09400 -0.02721
 O62 O 0.36574 -0.06188 0.03325
 Cu63 Cu 0.52393 0.08426 -0.00564
 Cu64 Cu 0.42501 -0.09826 0.00394
 C65 C 0.38347 0.02034 0.03886
 C66 C 0.57306 -0.02192 -0.04087
 C67 C 0.36670 -0.02638 -0.04399
 C68 C 0.57661 0.00008 0.04271
 O69 O -0.09329 0.33014 0.69850
 O70 O -0.09510 0.48436 0.63679
 O71 O -0.06658 0.34699 0.63572
 O72 O -0.09256 0.48620 0.69964
 O73 O 0.05812 0.57532 0.70222
 O74 O 0.08321 0.43745 0.64000
 O75 O 0.05419 0.57792 0.64037
 O76 O 0.05647 0.42061 0.70337
 Cu77 Cu -0.10140 0.40263 0.66734
 Cu78 Cu 0.07793 0.51064 0.67147
 C79 C -0.01946 0.34948 0.71212
 C80 C -0.02264 0.55923 0.62890
 C81 C 0.01381 0.37022 0.62675
 C82 C -0.02054 0.55578 0.71126
 O83 O 0.55482 0.64062 0.30436
 O84 O 0.40398 0.47191 0.36519
 O85 O 0.57122 0.62030 0.36773
 O86 O 0.41171 0.47723 0.30305
 O87 O 0.48505 0.40146 0.29911
 O88 O 0.65108 0.55356 0.35919
 O89 O 0.48439 0.40320 0.36378
 O90 O 0.62764 0.56486 0.29835
 Cu91 Cu 0.48025 0.56084 0.33613
 Cu92 Cu 0.56741 0.47220 0.33031
 C93 C 0.61452 0.63027 0.29014
 C94 C 0.41966 0.41057 0.37561
 C95 C 0.63941 0.61210 0.37426
 C96 C 0.42229 0.41497 0.28990
 C97 C 0.09221 0.29183 0.60663
 C98 C 0.11328 0.24742 0.58287
 C99 C 0.07199 0.22964 0.55251
 C100 C 0.00730 0.25607 0.54602
 C101 C -0.01419 0.30156 0.57019
 C102 C 0.02850 0.31892 0.60087
 C103 C -0.07558 0.33060 0.56227
 N104 N -0.11459 0.31233 0.53259
 N105 N -0.09596 0.26774 0.51022
 C106 C -0.03636 0.23907 0.51588
 H107 H 0.12604 0.30521 0.62983
 H108 H 0.16263 0.22720 0.58813
 H109 H -0.09246 0.36838 0.57910
 H110 H -0.02340 0.20365 0.49676
 C111 C 0.71328 0.79081 0.26975
 C112 C 0.76108 0.85587 0.24532
 C113 C 0.76379 0.82695 0.21390
 C114 C 0.71918 0.73046 0.20706
 C115 C 0.67087 0.66403 0.23198
 C116 C 0.66815 0.69498 0.26359
 C117 C 0.62466 0.56882 0.22401
 N118 N 0.62879 0.54265 0.19339
 N119 N 0.67569 0.60503 0.17020
 C120 C 0.72106 0.69793 0.17597
 H121 H 0.71122 0.81546 0.29373
 H122 H 0.79489 0.92949 0.25082
 H123 H 0.58466 0.51485 0.24161
 H124 H 0.75811 0.74538 0.15621
 C125 C 0.21044 -0.07629 -0.06117
 C126 C 0.14468 -0.09572 -0.08454
 C127 C 0.16759 -0.08252 -0.11757
 C128 C 0.26107 -0.04157 -0.12682
 C129 C 0.32856 -0.01821 -0.10270
 C130 C 0.30227 -0.03790 -0.06976
 C131 C 0.42045 0.02382 -0.11243
 N132 N 0.44337 0.04266 -0.14414
 N133 N 0.38066 0.02287 -0.16672
 C134 C 0.29069 -0.01779 -0.15919
 H135 H 0.18918 -0.09220 -0.03608
 H136 H 0.07423 -0.12594 -0.07679
 H137 H 0.47445 0.04320 -0.09513
 H138 H 0.24384 -0.02915 -0.17856
 C139 C 0.04619 0.67997 0.58568
 C140 C 0.04125 0.73588 0.56174
 C141 C -0.04003 0.73527 0.55640
 C142 C -0.11475 0.68460 0.57809
 C143 C -0.10778 0.63181 0.60370
 C144 C -0.02850 0.62472 0.60610
 C145 C -0.17897 0.59164 0.62688
 N146 N -0.25313 0.59999 0.62360
 N147 N -0.26056 0.64744 0.59917
 C148 C -0.19382 0.69069 0.57656
 H149 H 0.10825 0.67797 0.58761
 H150 H 0.09993 0.77590 0.54599
 H151 H -0.17557 0.55695 0.64837
 H152 H -0.20230 0.73173 0.55826
 C153 C 0.32019 0.26058 0.26613
 C154 C 0.26661 0.20240 0.24124
 C155 C 0.25436 0.23972 0.21273
 C156 C 0.29558 0.33748 0.20937
 C157 C 0.34987 0.39693 0.23477
 C158 C 0.36199 0.35763 0.26340
 C159 C 0.39260 0.49390 0.23001
 N160 N 0.37979 0.52809 0.20203
 N161 N 0.32756 0.47211 0.17846
 C162 C 0.28507 0.37807 0.18114
 H163 H 0.32944 0.22958 0.28773
 H164 H 0.23559 0.12769 0.24400
 H165 H 0.43678 0.54307 0.24797
 H166 H 0.24372 0.33595 0.16118
 C167 C 0.61904 -0.02405 -0.09697
 C168 C 0.68432 -0.01060 -0.11992
 C169 C 0.76693 -0.00349 -0.11090
 C170 C 0.78335 -0.00914 -0.07730
 C171 C 0.71571 -0.02376 -0.05407
 C172 C 0.63397 -0.02964 -0.06410
 C173 C 0.73360 -0.02818 -0.02114
 N174 N 0.81523 -0.01540 -0.01194
 N175 N 0.88048 0.00274 -0.03344
 C176 C 0.86795 0.00749 -0.06561
 H177 H 0.55704 -0.02812 -0.10499
 H178 H 0.66887 -0.00773 -0.14516
 H179 H 0.68355 -0.04116 -0.00267
 H180 H 0.92544 0.02703 -0.08144
 C181 C 0.35049 0.03963 0.09518
 C182 C 0.30775 0.06403 0.11838
 C183 C 0.24023 0.08432 0.10981
 C184 C 0.21917 0.08361 0.07636
 C185 C 0.26322 0.05865 0.05283
 C186 C 0.32876 0.03622 0.06251
 C187 C 0.24177 0.05900 0.02003
 N188 N 0.18240 0.08559 0.01127
 N189 N 0.14396 0.11287 0.03306
 C190 C 0.16102 0.11390 0.06512
 H191 H 0.40209 0.02456 0.10276
 H192 H 0.32551 0.06351 0.14349
 H193 H 0.27246 0.03937 0.00128
 H194 H 0.13081 0.14094 0.08125
 C195 C 0.74234 0.62300 0.41786
 C196 C 0.79851 0.66507 0.44431
 C197 C 0.81749 0.75222 0.45554
 C198 C 0.77324 0.79451 0.44003
 C199 C 0.72031 0.75405 0.41168
 C200 C 0.70288 0.66597 0.40099
 C201 C 0.68721 0.80404 0.39508
 N202 N 0.69701 0.88268 0.40801
 N203 N 0.73790 0.91502 0.43631
 C204 C 0.77527 0.87320 0.45290
 H205 H 0.72974 0.55547 0.41052
 H206 H 0.83066 0.63026 0.45502
 H207 H 0.65477 0.78278 0.37179
 H208 H 0.80474 0.90109 0.47625
 C209 C -0.07038 0.19164 0.73231
 C210 C -0.08856 0.12756 0.75703
 C211 C -0.06250 0.15720 0.78886
 C212 C -0.01353 0.25400 0.79566
 C213 C 0.00499 0.31948 0.77045
 C214 C -0.02441 0.28750 0.73854
 C215 C 0.04978 0.41461 0.77840
 N216 N 0.07681 0.44195 0.80924
 N217 N 0.06172 0.38074 0.83268
 C218 C 0.01767 0.28786 0.82696
 H219 H -0.09415 0.16601 0.70813
 H220 H -0.12552 0.05388 0.75143
 H221 H 0.06353 0.46761 0.76054
 H222 H 0.00774 0.24154 0.84691
 C223 C 0.65466 -0.07160 0.06880
 C224 C 0.71051 -0.07661 0.09203
 C225 C 0.75384 -0.00693 0.11518
 C226 C 0.74061 0.06964 0.11495
 C227 C 0.68244 0.07442 0.09148
 C228 C 0.63967 0.00309 0.06793
 C229 C 0.66651 0.14852 0.09351
 N230 N 0.70843 0.21428 0.11664
 N231 N 0.76432 0.21064 0.13814
 C232 C 0.78154 0.14046 0.13818
 H233 H 0.62251 -0.12724 0.05129
 H234 H 0.71953 -0.13590 0.09210
 H235 H 0.62010 0.15446 0.07750
 H236 H 0.82645 0.14030 0.15651
 C237 C 0.26757 0.29838 0.39800
 C238 C 0.20930 0.24468 0.42312
 C239 C 0.24436 0.24115 0.45328
 C240 C 0.34012 0.29068 0.45804
 C241 C 0.39966 0.34502 0.43241
 C242 C 0.36254 0.34878 0.40219
 C243 C 0.49431 0.39620 0.43840
 N244 N 0.52647 0.39092 0.46779
 N245 N 0.47055 0.33850 0.49163
 C246 C 0.37855 0.28827 0.48779
 H247 H 0.23827 0.30138 0.37514
 H248 H 0.13609 0.20711 0.41925
 H249 H 0.54310 0.44069 0.42018
 H250 H 0.33636 0.24703 0.50799
 C251 C -0.04572 0.58745 0.76729
 C252 C -0.03303 0.64995 0.79175
 C253 C -0.00024 0.74397 0.78457
 C254 C 0.01833 0.77526 0.75199
 C255 C 0.00472 0.71153 0.72717
 C256 C -0.02577 0.61753 0.73508
 C257 C 0.02336 0.74444 0.69503
 N258 N 0.05504 0.83549 0.68845
 N259 N 0.06974 0.89586 0.71184
 C260 C 0.05292 0.86909 0.74334
 H261 H -0.06745 0.51616 0.77371
 H262 H -0.04756 0.62517 0.81656
 H263 H 0.01250 0.69855 0.67510
 H264 H 0.06747 0.92162 0.76125
   
