data_POSCAR
  _audit_creation_date              2014-09-24
  _audit_creation_method            'ToBaCCo'
  _symmetry_space_group_name_H-M    'P1'
  _symmetry_Int_Tables_number       1
  _symmetry_cell_setting            triclinic
  loop_
  _symmetry_equiv_pos_as_xyz
 x,y,z
_cell_length_a 46.9002
_cell_length_b 44.7072
_cell_length_c 42.9656
_cell_angle_alpha 90.006100
_cell_angle_beta 89.649800
_cell_angle_gamma 89.988000
loop_
  _atom_site_label
  _atom_site_type_symbol
  _atom_site_fract_x
  _atom_site_fract_y
  _atom_site_fract_z
C1 C 1.25186 0.24923 0.25040
 C2 C 0.75008 -0.25040 0.24959
 C3 C 0.75015 0.24708 -0.25007
 C4 C 1.25159 -0.25197 -0.25078
 C5 C 0.25322 0.25172 0.74968
 C6 C 0.74863 0.75163 0.75083
 C7 C 0.74805 0.25018 0.24980
 C8 C 0.25101 0.75095 0.25038
 N9 N 0.97285 0.05329 0.03408
 N10 N 0.95466 0.07482 0.04101
 N11 N 1.03238 0.03222 0.05496
 N12 N 1.05113 0.03880 0.07672
 N13 N 1.03261 0.05266 0.03302
 N14 N 1.05155 0.07363 0.03926
 N15 N 0.97240 0.03241 0.05559
 N16 N 0.95361 0.03909 0.07757
 C17 C 0.94251 0.06548 0.06794
 C18 C 1.06320 0.06451 0.06641
 N19 N 1.03214 -0.05311 0.03355
 N20 N 1.05070 -0.07437 0.04007
 N21 N 0.97240 -0.03229 0.05598
 N22 N 0.95367 -0.03865 0.07807
 N23 N 0.97223 -0.05301 0.03431
 N24 N 0.95325 -0.07387 0.04099
 N25 N 1.03226 -0.03241 0.05524
 N26 N 1.05095 -0.03908 0.07705
 Mn27 Mn 1.00233 -0.00001 0.05573
 C28 C 1.06257 -0.06517 0.06707
 C29 C 0.94161 -0.06446 0.06819
 N30 N 1.03207 0.05225 -0.03413
 N31 N 1.05123 0.07291 -0.04095
 N32 N 0.97157 0.03199 -0.05459
 N33 N 0.95219 0.03804 -0.07581
 N34 N 0.97193 0.05287 -0.03309
 N35 N 0.95260 0.07357 -0.03904
 N36 N 1.03126 0.03178 -0.05603
 N37 N 1.04952 0.03822 -0.07855
 Mn38 Mn 1.00240 0.05302 -0.00005
 C39 C 1.06213 0.06368 -0.06856
 C40 C 0.94026 0.06387 -0.06565
 N41 N 0.97190 -0.05348 -0.03275
 N42 N 0.95375 -0.07506 -0.03934
 N43 N 1.03118 -0.03287 -0.05563
 N44 N 1.04962 -0.03958 -0.07792
 N45 N 1.03166 -0.05327 -0.03364
 N46 N 1.05046 -0.07430 -0.04036
 N47 N 0.97122 -0.03258 -0.05422
 N48 N 0.95232 -0.03929 -0.07580
 Mn49 Mn 1.00201 -0.05344 0.00038
 Mn50 Mn 1.00128 -0.00042 -0.05538
 Cl51 Cl 1.00201 -0.00021 0.00018
 C52 C 0.94136 -0.06570 -0.06597
 C53 C 1.06176 -0.06531 -0.06788
 N54 N 0.97028 0.53219 0.44556
 N55 N 0.95124 0.53905 0.42418
 N56 N 1.03160 0.55107 0.46638
 N57 N 1.05086 0.57159 0.45937
 N58 N 1.03012 0.53089 0.44422
 N59 N 1.04805 0.53739 0.42140
 N60 N 0.97173 0.55339 0.46668
 N61 N 0.95391 0.57528 0.46009
 C62 C 0.94099 0.56586 0.43378
 C63 C 1.06119 0.56253 0.43144
 N64 N 1.03002 0.53118 0.55583
 N65 N 1.04861 0.53737 0.57790
 N66 N 0.97154 0.55364 0.53374
 N67 N 0.95367 0.57557 0.54033
 N68 N 0.97006 0.53263 0.55506
 N69 N 0.95095 0.53962 0.57656
 N70 N 1.03128 0.55136 0.53366
 N71 N 1.05071 0.57175 0.54005
 Mn72 Mn 1.00163 0.55259 0.50011
 C73 C 1.06162 0.56257 0.56753
 C74 C 0.94069 0.56634 0.56686
 N75 N 1.02902 0.46634 0.44468
 N76 N 1.04770 0.45958 0.42265
 N77 N 0.96956 0.44642 0.46709
 N78 N 0.95141 0.42491 0.46027
 N79 N 0.96904 0.46743 0.44572
 N80 N 0.95032 0.46079 0.42392
 N81 N 1.02932 0.44604 0.46678
 N82 N 1.04817 0.42497 0.46036
 Mn83 Mn 0.99952 0.49921 0.44477
 C84 C 1.05972 0.43387 0.43292
 C85 C 0.93923 0.43436 0.43356
 N86 N 0.96872 0.46787 0.55541
 N87 N 0.94877 0.46227 0.57647
 N88 N 1.02919 0.44636 0.53409
 N89 N 1.04811 0.42543 0.54058
 N90 N 1.02851 0.46668 0.55617
 N91 N 1.04669 0.45994 0.57841
 N92 N 0.96912 0.44689 0.53402
 N93 N 0.94938 0.42659 0.53987
 Mn94 Mn 0.99924 0.49960 0.55591
 Mn95 Mn 0.99939 0.44619 0.50052
 Cl96 Cl 0.99995 0.49940 0.50032
 C97 C 0.93665 0.43657 0.56627
 C98 C 1.05905 0.43439 0.56814
 N99 N 0.55120 0.03079 0.53107
 N100 N 0.57258 0.04886 0.53754
 N101 N 0.53096 -0.03090 0.55513
 N102 N 0.53702 -0.05045 0.57718
 N103 N 0.55032 -0.03180 0.53294
 N104 N 0.57000 -0.05190 0.53926
 N105 N 0.53165 0.03200 0.55305
 N106 N 0.53921 0.05118 0.57493
 C107 C 0.56463 0.06184 0.56466
 C108 C 0.56130 -0.06363 0.56675
 N109 N 0.44961 -0.03082 0.53459
 N110 N 0.43020 -0.05123 0.54111
 N111 N 0.46999 0.03267 0.55383
 N112 N 0.46454 0.05392 0.57440
 N113 N 0.45001 0.03182 0.53256
 N114 N 0.43038 0.05224 0.53819
 N115 N 0.46938 -0.03028 0.55608
 N116 N 0.46391 -0.05040 0.57783
 Mn117 Mn 0.50047 0.00090 0.55487
 C118 C 0.43948 -0.06347 0.56801
 C119 C 0.43986 0.06610 0.56412
 N120 N 0.54970 -0.03383 0.46609
 N121 N 0.56930 -0.05428 0.46040
 N122 N 0.53046 0.02847 0.44261
 N123 N 0.53583 0.04868 0.42095
 N124 N 0.55026 0.02895 0.46407
 N125 N 0.56957 0.04951 0.45766
 N126 N 0.52992 -0.03436 0.44463
 N127 N 0.53557 -0.05524 0.42373
 Mn128 Mn 0.55057 -0.00148 0.49850
 C129 C 0.56007 -0.06773 0.43411
 C130 C 0.56019 0.06182 0.43081
 N131 N 0.44945 0.02985 0.46564
 N132 N 0.42999 0.05027 0.45948
 N133 N 0.46846 -0.03384 0.44566
 N134 N 0.46221 -0.05462 0.42494
 N135 N 0.44889 -0.03285 0.46761
 N136 N 0.42873 -0.05276 0.46232
 N137 N 0.46893 0.02907 0.44359
 N138 N 0.46324 0.04901 0.42182
 Mn139 Mn 0.44925 -0.00051 0.50012
 Mn140 Mn 0.49944 -0.00267 0.44378
 Cl141 Cl 0.49994 -0.00092 0.49934
 C142 C 0.43899 0.06228 0.43222
 C143 C 0.43748 -0.06645 0.43583
 N144 N 0.55097 0.53258 0.03329
 N145 N 0.57105 0.55246 0.03881
 N146 N 0.53117 0.47022 0.05628
 N147 N 0.53715 0.45014 0.07784
 N148 N 0.55060 0.46985 0.03416
 N149 N 0.57025 0.44959 0.04003
 N150 N 0.53150 0.53310 0.05537
 N151 N 0.53787 0.55344 0.07652
 C152 C 0.56247 0.56557 0.06565
 C153 C 0.56147 0.43721 0.06717
 N154 N 0.44982 0.47049 0.03561
 N155 N 0.43028 0.45014 0.04189
 N156 N 0.46993 0.53358 0.05624
 N157 N 0.46428 0.55422 0.07741
 N158 N 0.45005 0.53322 0.03485
 N159 N 0.43033 0.55344 0.04096
 N160 N 0.46960 0.47063 0.05710
 N161 N 0.46401 0.45032 0.07860
 Mn162 Mn 0.50054 0.50189 0.05660
 C163 C 0.43952 0.43751 0.06863
 C164 C 0.43961 0.56663 0.06738
 N165 N 0.55026 0.46890 -0.03274
 N166 N 0.57062 0.44955 -0.03955
 N167 N 0.53071 0.53172 -0.05505
 N168 N 0.53620 0.55210 -0.07649
 N169 N 0.55052 0.53181 -0.03360
 N170 N 0.56997 0.55229 -0.03981
 N171 N 0.53073 0.46904 -0.05451
 N172 N 0.53754 0.45007 -0.07692
 Mn173 Mn 0.55081 0.50077 0.00028
 C174 C 0.56222 0.43769 -0.06697
 C175 C 0.56064 0.56496 -0.06649
 N176 N 0.44971 0.53242 -0.03219
 N177 N 0.43010 0.55272 -0.03825
 N178 N 0.46910 0.46906 -0.05326
 N179 N 0.46315 0.44833 -0.07413
 N180 N 0.44939 0.46975 -0.03142
 N181 N 0.42944 0.44972 -0.03696
 N182 N 0.46926 0.53201 -0.05418
 N183 N 0.46348 0.55209 -0.07576
 Mn184 Mn 0.44950 0.50147 0.00172
 Mn185 Mn 0.49992 0.50044 -0.05456
 Cl186 Cl 0.50020 0.50113 0.00101
 C187 C 0.43912 0.56506 -0.06534
 C188 C 0.43845 0.43627 -0.06346
 C189 C 1.19353 0.19471 0.19464
 C190 C 1.20757 0.21922 0.18111
 C191 C 1.22605 0.23690 0.19866
 C192 C 1.23165 0.23009 0.23016
 C193 C 1.21573 0.20679 0.24405
 C194 C 1.19746 0.18896 0.22642
 C195 C 1.17486 0.17519 0.17567
 C196 C 1.17638 0.14393 0.17855
 C197 C 1.15917 0.12546 0.16033
 C198 C 1.13986 0.13784 0.13896
 C199 C 1.13829 0.16916 0.13624
 C200 C 1.15566 0.18761 0.15430
 C201 C 1.12122 0.11824 0.11984
 C202 C 1.11477 0.12583 0.08889
 C203 C 1.09633 0.10807 0.07136
 C204 C 1.08408 0.08222 0.08428
 C205 C 1.09101 0.07417 0.11490
 C206 C 1.10929 0.09203 0.13253
 H207 H 1.20454 0.22453 0.15676
 H208 H 1.23569 0.25600 0.18735
 H209 H 1.21795 0.20198 0.26861
 H210 H 1.18616 0.17080 0.23773
 H211 H 1.19129 0.13375 0.19452
 H212 H 1.16128 0.10146 0.16268
 H213 H 1.12328 0.17948 0.12050
 H214 H 1.15377 0.21164 0.15189
 H215 H 1.12401 0.14551 0.07817
 H216 H 1.09150 0.11471 0.04773
 H217 H 1.08177 0.05442 0.12552
 H218 H 1.11347 0.08570 0.15639
 C219 C 1.19343 0.69245 0.69434
 C220 C 1.19734 0.68725 0.72622
 C221 C 1.21564 0.70535 0.74352
 C222 C 1.23157 0.72843 0.72923
 C223 C 1.22609 0.73461 0.69757
 C224 C 1.20761 0.71664 0.68034
 C225 C 1.17451 0.67280 0.67578
 C226 C 1.15558 0.68508 0.65404
 C227 C 1.13798 0.66655 0.63635
 C228 C 1.13901 0.63527 0.63982
 C229 C 1.15795 0.62302 0.66164
 C230 C 1.17543 0.64159 0.67948
 C231 C 1.12027 0.61563 0.62086
 C232 C 1.10756 0.58999 0.63392
 C233 C 1.08907 0.57226 0.61636
 C234 C 1.08277 0.57988 0.58546
 C235 C 1.09589 0.60510 0.57218
 C236 C 1.11449 0.62271 0.58963
 H237 H 1.18596 0.66937 0.73789
 H238 H 1.21781 0.70098 0.76817
 H239 H 1.23578 0.75350 0.68590
 H240 H 1.20464 0.72152 0.65588
 H241 H 1.15408 0.70907 0.65103
 H242 H 1.12323 0.67679 0.62025
 H243 H 1.15960 0.59904 0.66460
 H244 H 1.19009 0.63149 0.69578
 H245 H 1.11128 0.58406 0.65798
 H246 H 1.07917 0.55299 0.62723
 H247 H 1.09159 0.61140 0.54833
 H248 H 1.12436 0.64192 0.57863
 C249 C 0.69797 0.18734 0.69237
 C250 C 0.71456 0.20947 0.67806
 C251 C 0.73239 0.22778 0.69573
 C252 C 0.73303 0.22544 0.72858
 C253 C 0.71731 0.20177 0.74236
 C254 C 0.70008 0.18303 0.72452
 C255 C 0.67799 0.16922 0.67382
 C256 C 0.68021 0.13793 0.67335
 C257 C 0.66143 0.12091 0.65543
 C258 C 0.63973 0.13492 0.63841
 C259 C 0.63718 0.16617 0.63933
 C260 C 0.65641 0.18323 0.65662
 C261 C 0.62021 0.11694 0.61915
 C262 C 0.59064 0.11781 0.62434
 C263 C 0.57238 0.09995 0.60658
 C264 C 0.58343 0.08159 0.58287
 C265 C 0.61298 0.08135 0.57727
 C266 C 0.63123 0.09860 0.59551
 H267 H 0.71379 0.21251 0.65307
 H268 H 0.74526 0.24367 0.68311
 H269 H 0.71756 0.19856 0.76734
 H270 H 0.68761 0.16581 0.73597
 H271 H 0.69674 0.12676 0.68647
 H272 H 0.66367 0.09680 0.65500
 H273 H 0.62064 0.17734 0.62623
 H274 H 0.65429 0.20736 0.65687
 H275 H 0.58178 0.13184 0.64254
 H276 H 0.54967 0.10051 0.61130
 H277 H 0.62207 0.06728 0.55925
 H278 H 0.65398 0.09776 0.59108
 C279 C 0.69195 0.69616 0.19259
 C280 C 0.69334 0.72732 0.18948
 C281 C 0.71228 0.74393 0.20749
 C282 C 0.73069 0.72989 0.22894
 C283 C 0.72824 0.69858 0.23267
 C284 C 0.70948 0.68199 0.21441
 C285 C 0.67218 0.67840 0.17324
 C286 C 0.68161 0.65194 0.15892
 C287 C 0.66310 0.63509 0.14064
 C288 C 0.63471 0.64422 0.13651
 C289 C 0.62520 0.67061 0.15096
 C290 C 0.64383 0.68766 0.16902
 C291 C 0.61519 0.62597 0.11736
 C292 C 0.58760 0.61904 0.12807
 C293 C 0.57006 0.59994 0.11092
 C294 C 0.57976 0.58769 0.08267
 C295 C 0.60693 0.59552 0.07147
 C296 C 0.62451 0.61438 0.08869
 H297 H 0.67998 0.73883 0.17287
 H298 H 0.71272 0.76799 0.20462
 H299 H 0.74014 0.68658 0.25011
 H300 H 0.70818 0.65802 0.21787
 H301 H 0.70342 0.64443 0.16164
 H302 H 0.67088 0.61466 0.13004
 H303 H 0.60345 0.67818 0.14801
 H304 H 0.63600 0.70787 0.18003
 H305 H 0.57998 0.62759 0.15019
 H306 H 0.54917 0.59428 0.12005
 H307 H 0.61493 0.58653 0.04969
 H308 H 0.64553 0.61973 0.07971
 C309 C 0.80966 -0.19476 0.19575
 C310 C 0.79395 -0.21718 0.18081
 C311 C 0.77496 -0.23512 0.19760
 C312 C 0.77066 -0.23078 0.22989
 C313 C 0.78803 -0.20946 0.24494
 C314 C 0.80676 -0.19127 0.22804
 C315 C 0.82902 -0.17514 0.17759
 C316 C 0.84740 -0.18732 0.15500
 C317 C 0.86514 -0.16878 0.13729
 C318 C 0.86469 -0.13758 0.14152
 C319 C 0.84635 -0.12544 0.16428
 C320 C 0.82881 -0.14405 0.18222
 C321 C 0.88338 -0.11789 0.12232
 C322 C 0.89630 -0.09242 0.13533
 C323 C 0.91463 -0.07456 0.11750
 C324 C 0.92065 -0.08196 0.08639
 C325 C 0.90742 -0.10703 0.07317
 C326 C 0.88888 -0.12471 0.09088
 H327 H 0.79613 -0.22065 0.15596
 H328 H 0.76414 -0.25259 0.18497
 H329 H 0.78656 -0.20648 0.26992
 H330 H 0.81924 -0.17468 0.24027
 H331 H 0.84826 -0.21127 0.15128
 H332 H 0.87944 -0.17898 0.12051
 H333 H 0.84514 -0.10151 0.16786
 H334 H 0.81458 -0.13408 0.19924
 H335 H 0.89286 -0.08669 0.15954
 H336 H 0.92466 -0.05542 0.12831
 H337 H 0.91152 -0.11311 0.04916
 H338 H 0.87883 -0.14374 0.07988
 C339 C 0.80279 0.30944 0.69469
 C340 C 0.77293 0.31090 0.69406
 C341 C 0.75648 0.29115 0.71196
 C342 C 0.76930 0.26889 0.73069
 C343 C 0.79943 0.26912 0.73255
 C344 C 0.81578 0.28871 0.71454
 C345 C 0.82058 0.32906 0.67452
 C346 C 0.84439 0.31719 0.65880
 C347 C 0.86165 0.33544 0.64025
 C348 C 0.85562 0.36607 0.63701
 C349 C 0.83174 0.37799 0.65261
 C350 C 0.81429 0.35962 0.67105
 C351 C 0.87464 0.38535 0.61782
 C352 C 0.88323 0.41366 0.62852
 C353 C 0.90292 0.43070 0.61145
 C354 C 0.91426 0.41981 0.58331
 C355 C 0.90494 0.39198 0.57213
 C356 C 0.88540 0.37493 0.58921
 H357 H 0.76226 0.32685 0.67916
 H358 H 0.73347 0.29270 0.71062
 H359 H 0.81096 0.25455 0.74800
 H360 H 0.83879 0.28784 0.71641
 H361 H 0.84961 0.29367 0.66075
 H362 H 0.88007 0.32565 0.62885
 H363 H 0.82647 0.40147 0.65039
 H364 H 0.79618 0.36941 0.68303
 H365 H 0.87546 0.42219 0.65058
 H366 H 0.90969 0.45210 0.62061
 H367 H 0.91316 0.38307 0.55042
 H368 H 0.87884 0.35343 0.58012
 C369 C 0.31381 -0.20014 0.69489
 C370 C 0.29824 -0.18640 0.71894
 C371 C 0.27819 -0.20255 0.73624
 C372 C 0.27229 -0.23281 0.72930
 C373 C 0.28906 -0.24674 0.70605
 C374 C 0.30918 -0.23060 0.68883
 C375 C 0.33477 -0.18272 0.67620
 C376 C 0.33714 -0.18716 0.64390
 C377 C 0.35582 -0.16977 0.62606
 C378 C 0.37251 -0.14745 0.64007
 C379 C 0.37065 -0.14350 0.67247
 C380 C 0.35204 -0.16097 0.69033
 C381 C 0.39071 -0.12739 0.62081
 C382 C 0.41749 -0.11776 0.63146
 C383 C 0.43370 -0.09742 0.61404
 C384 C 0.42345 -0.08638 0.58564
 C385 C 0.39704 -0.09653 0.57464
 C386 C 0.38083 -0.11674 0.59205
 H387 H 0.30144 -0.16300 0.72441
 H388 H 0.26787 -0.19119 0.75543
 H389 H 0.28652 -0.27035 0.70119
 H390 H 0.32146 -0.24212 0.67111
 H391 H 0.32401 -0.20358 0.63226
 H392 H 0.35703 -0.17365 0.60121
 H393 H 0.38300 -0.12632 0.68396
 H394 H 0.35108 -0.15731 0.71522
 H395 H 0.42588 -0.12586 0.65331
 H396 H 0.45407 -0.09007 0.62298
 H397 H 0.38856 -0.08836 0.55285
 H398 H 0.36013 -0.12333 0.58338
 C399 C 0.31385 0.30127 0.19600
 C400 C 0.29860 0.31486 0.22040
 C401 C 0.27869 0.29863 0.23780
 C402 C 0.27261 0.26846 0.23063
 C403 C 0.28913 0.25465 0.20708
 C404 C 0.30911 0.27087 0.18977
 C405 C 0.33459 0.31877 0.17712
 C406 C 0.33650 0.31456 0.14476
 C407 C 0.35507 0.33193 0.12677
 C408 C 0.37212 0.35399 0.14070
 C409 C 0.37067 0.35775 0.17315
 C410 C 0.35215 0.34032 0.19115
 C411 C 0.39038 0.37389 0.12136
 C412 C 0.41740 0.38302 0.13176
 C413 C 0.43371 0.40323 0.11432
 C414 C 0.42334 0.41464 0.08613
 C415 C 0.39670 0.40496 0.07534
 C416 C 0.38037 0.38487 0.09278
 H417 H 0.30193 0.33820 0.22602
 H418 H 0.26856 0.30985 0.25720
 H419 H 0.28646 0.23110 0.20202
 H420 H 0.32117 0.25946 0.17178
 H421 H 0.32311 0.29831 0.13320
 H422 H 0.35596 0.32820 0.10188
 H423 H 0.38329 0.37474 0.18458
 H424 H 0.35153 0.34380 0.21609
 H425 H 0.42588 0.37463 0.15345
 H426 H 0.45425 0.41021 0.12311
 H427 H 0.38814 0.41344 0.05371
 H428 H 0.35951 0.37865 0.08430
 C429 C 0.80335 0.18812 -0.19214
 C430 C 0.78518 0.20917 -0.17800
 C431 C 0.76775 0.22773 -0.19590
 C432 C 0.76854 0.22660 -0.22880
 C433 C 0.78614 0.20458 -0.24268
 C434 C 0.80320 0.18576 -0.22474
 C435 C 0.82260 0.16898 -0.17307
 C436 C 0.84981 0.16097 -0.18433
 C437 C 0.86798 0.14316 -0.16653
 C438 C 0.85962 0.13327 -0.13685
 C439 C 0.83262 0.14137 -0.12536
 C440 C 0.81422 0.15881 -0.14336
 C441 C 0.87919 0.11469 -0.11799
 C442 C 0.88464 0.12188 -0.08674
 C443 C 0.90431 0.10521 -0.06954
 C444 C 0.91850 0.08076 -0.08315
 C445 C 0.91244 0.07312 -0.11413
 C446 C 0.89316 0.09005 -0.13144
 H447 H 0.78466 0.21171 -0.15295
 H448 H 0.75383 0.24276 -0.18341
 H449 H 0.78695 0.20229 -0.26777
 H450 H 0.81621 0.16923 -0.23654
 H451 H 0.85735 0.16887 -0.20671
 H452 H 0.88886 0.13756 -0.17574
 H453 H 0.82558 0.13377 -0.10264
 H454 H 0.79329 0.16401 -0.13409
 H455 H 0.87424 0.14088 -0.07591
 H456 H 0.90855 0.11155 -0.04569
 H457 H 0.92306 0.05439 -0.12522
 H458 H 0.88913 0.08390 -0.15540
 C459 C 0.80802 0.69511 0.30647
 C460 C 0.80874 0.69397 0.27378
 C461 C 0.79012 0.71136 0.25612
 C462 C 0.77008 0.73063 0.27040
 C463 C 0.77078 0.73305 0.30316
 C464 C 0.78884 0.71504 0.32084
 C465 C 0.82725 0.67580 0.32547
 C466 C 0.83711 0.68545 0.35465
 C467 C 0.85464 0.66718 0.37268
 C468 C 0.86360 0.63901 0.36173
 C469 C 0.85398 0.62947 0.33239
 C470 C 0.83580 0.64742 0.31472
 C471 C 0.88313 0.61996 0.38062
 C472 C 0.88210 0.58848 0.37877
 C473 C 0.90097 0.57082 0.39594
 C474 C 0.92070 0.58419 0.41597
 C475 C 0.92150 0.61544 0.41838
 C476 C 0.90326 0.63313 0.40060
 H477 H 0.82387 0.67984 0.26164
 H478 H 0.79117 0.70962 0.23100
 H479 H 0.75766 0.74888 0.31567
 H480 H 0.78747 0.71673 0.34592
 H481 H 0.83159 0.70730 0.36366
 H482 H 0.86098 0.67523 0.39535
 H483 H 0.86068 0.60823 0.32276
 H484 H 0.82832 0.63881 0.29270
 H485 H 0.86658 0.57735 0.36429
 H486 H 0.89989 0.54670 0.39388
 H487 H 0.93682 0.62628 0.43339
 H488 H 0.90542 0.65716 0.40219
 C489 C 0.31321 0.19735 0.30507
 C490 C 0.30823 0.22772 0.31132
 C491 C 0.28840 0.24387 0.29398
 C492 C 0.27229 0.23003 0.27034
 C493 C 0.27857 0.19988 0.26320
 C494 C 0.29830 0.18371 0.28065
 C495 C 0.33389 0.17995 0.32389
 C496 C 0.35160 0.15841 0.30983
 C497 C 0.37009 0.14111 0.32776
 C498 C 0.37141 0.14503 0.36019
 C499 C 0.35420 0.16708 0.37415
 C500 C 0.33563 0.18430 0.35623
 C501 C 0.38971 0.12530 0.37947
 C502 C 0.37975 0.11461 0.40832
 C503 C 0.39613 0.09472 0.42576
 C504 C 0.42277 0.08494 0.41468
 C505 C 0.43308 0.09605 0.38620
 C506 C 0.41672 0.11608 0.36878
 H507 H 0.32003 0.23919 0.32932
 H508 H 0.28558 0.26741 0.29904
 H509 H 0.26877 0.18863 0.24375
 H510 H 0.30179 0.16038 0.27502
 H511 H 0.35113 0.15483 0.28491
 H512 H 0.38282 0.12412 0.31630
 H513 H 0.35498 0.17095 0.39900
 H514 H 0.32213 0.20053 0.36783
 H515 H 0.35889 0.12088 0.41704
 H516 H 0.38761 0.08647 0.44761
 H517 H 0.45362 0.08899 0.37719
 H518 H 0.42519 0.12426 0.34688
 C519 C 0.31281 0.69736 -0.19479
 C520 C 0.30769 0.72779 -0.18911
 C521 C 0.28795 0.74357 -0.20692
 C522 C 0.27205 0.72928 -0.23045
 C523 C 0.27850 0.69905 -0.23703
 C524 C 0.29817 0.68325 -0.21913
 C525 C 0.33340 0.68037 -0.17549
 C526 C 0.35147 0.65888 -0.18908
 C527 C 0.36997 0.64204 -0.17071
 C528 C 0.37093 0.64637 -0.13833
 C529 C 0.35331 0.66831 -0.12483
 C530 C 0.33473 0.68509 -0.14318
 C531 C 0.38938 0.62719 -0.11864
 C532 C 0.37934 0.61648 -0.08983
 C533 C 0.39587 0.59693 -0.07214
 C534 C 0.42274 0.58756 -0.08293
 C535 C 0.43315 0.59880 -0.11131
 C536 C 0.41665 0.61846 -0.12898
 H537 H 0.31929 0.73959 -0.17119
 H538 H 0.28499 0.76718 -0.20228
 H539 H 0.26886 0.68744 -0.25635
 H540 H 0.30181 0.65986 -0.22432
 H541 H 0.35128 0.65502 -0.21395
 H542 H 0.38303 0.62510 -0.18182
 H543 H 0.35379 0.67245 -0.10001
 H544 H 0.32094 0.70130 -0.13196
 H545 H 0.35830 0.62242 -0.08138
 H546 H 0.38729 0.58857 -0.05036
 H547 H 0.45387 0.59207 -0.12009
 H548 H 0.42518 0.62670 -0.15082
 C549 C 1.19180 -0.19703 -0.19653
 C550 C 1.19627 -0.19177 -0.22837
 C551 C 1.21496 -0.20977 -0.24553
 C552 C 1.23077 -0.23274 -0.23109
 C553 C 1.22460 -0.23910 -0.19954
 C554 C 1.20570 -0.22126 -0.18247
 C555 C 1.17279 -0.17726 -0.17799
 C556 C 1.15343 -0.18939 -0.15637
 C557 C 1.13596 -0.17071 -0.13846
 C558 C 1.13760 -0.13943 -0.14158
 C559 C 1.15694 -0.12733 -0.16333
 C560 C 1.17427 -0.14604 -0.18139
 C561 C 1.11913 -0.11959 -0.12228
 C562 C 1.10713 -0.09347 -0.13495
 C563 C 1.08904 -0.07540 -0.11704
 C564 C 1.08241 -0.08316 -0.08617
 C565 C 1.09475 -0.10892 -0.07330
 C566 C 1.11298 -0.12688 -0.09111
 H567 H 1.18510 -0.17384 -0.24008
 H568 H 1.21765 -0.20531 -0.27014
 H569 H 1.23414 -0.25797 -0.18782
 H570 H 1.20228 -0.22619 -0.15805
 H571 H 1.15155 -0.21339 -0.15359
 H572 H 1.12090 -0.18082 -0.12243
 H573 H 1.15906 -0.10335 -0.16601
 H574 H 1.18928 -0.13607 -0.19759
 H575 H 1.11114 -0.08737 -0.15896
 H576 H 1.07973 -0.05572 -0.12760
 H577 H 1.09016 -0.11534 -0.04949
 H578 H 1.12229 -0.14647 -0.08041
 C579 C 1.19233 0.30371 0.30552
 C580 C 1.19682 0.30938 0.27376
 C581 C 1.21550 0.29158 0.25635
 C582 C 1.23124 0.26836 0.27044
 C583 C 1.22511 0.26164 0.30192
 C584 C 1.20623 0.27930 0.31925
 C585 C 1.17319 0.32319 0.32425
 C586 C 1.15374 0.31075 0.34559
 C587 C 1.13594 0.32916 0.36342
 C588 C 1.13732 0.36048 0.36051
 C589 C 1.15684 0.37288 0.33915
 C590 C 1.17450 0.35444 0.32116
 C591 C 1.11831 0.38004 0.37951
 C592 C 1.10633 0.40610 0.36668
 C593 C 1.08780 0.42397 0.38426
 C594 C 1.08070 0.41609 0.41497
 C595 C 1.09297 0.39036 0.42801
 C596 C 1.11163 0.37259 0.41052
 H597 H 1.18566 0.32745 0.26229
 H598 H 1.21816 0.29634 0.23180
 H599 H 1.23462 0.24261 0.31338
 H600 H 1.20279 0.27405 0.34359
 H601 H 1.15199 0.28672 0.34814
 H602 H 1.12077 0.31881 0.37917
 H603 H 1.15881 0.39689 0.33666
 H604 H 1.18959 0.36466 0.30521
 H605 H 1.11070 0.41231 0.34277
 H606 H 1.07856 0.44362 0.37357
 H607 H 1.08801 0.38385 0.45171
 H608 H 1.12090 0.35304 0.42134
 C609 C 0.68778 -0.19872 0.30408
 C610 C 0.70562 -0.18412 0.28266
 C611 C 0.72534 -0.20020 0.26489
 C612 C 0.72864 -0.23140 0.26890
 C613 C 0.70925 -0.24602 0.28914
 C614 C 0.68935 -0.22991 0.30670
 C615 C 0.66795 -0.18125 0.32391
 C616 C 0.63956 -0.19046 0.32836
 C617 C 0.62101 -0.17363 0.34703
 C618 C 0.63068 -0.14757 0.36189
 C619 C 0.65910 -0.13852 0.35752
 C620 C 0.67750 -0.15512 0.33866
 C621 C 0.61132 -0.12945 0.38165
 C622 C 0.62084 -0.11827 0.41029
 C623 C 0.60368 -0.09906 0.42782
 C624 C 0.57671 -0.09047 0.41697
 C625 C 0.56670 -0.10248 0.38887
 C626 C 0.58385 -0.12192 0.37139
 H627 H 0.70402 -0.16016 0.27933
 H628 H 0.73743 -0.18786 0.24775
 H629 H 0.70998 -0.27010 0.29179
 H630 H 0.67561 -0.24180 0.32282
 H631 H 0.63166 -0.21044 0.31707
 H632 H 0.59922 -0.18111 0.35014
 H633 H 0.66700 -0.11833 0.36841
 H634 H 0.69934 -0.14769 0.33583
 H635 H 0.64176 -0.12410 0.41893
 H636 H 0.61188 -0.09030 0.44950
 H637 H 0.54596 -0.09627 0.38002
 H638 H 0.57608 -0.13015 0.34930
 C639 C 0.69327 0.30609 -0.19564
 C640 C 0.72304 0.30979 -0.19526
 C641 C 0.74083 0.29072 -0.21241
 C642 C 0.72958 0.26727 -0.23070
 C643 C 0.69954 0.26464 -0.23182
 C644 C 0.68189 0.28319 -0.21412
 C645 C 0.67404 0.32589 -0.17700
 C646 C 0.64649 0.33285 -0.18762
 C647 C 0.62791 0.35017 -0.16960
 C648 C 0.63654 0.36183 -0.14075
 C649 C 0.66434 0.35549 -0.13044
 C650 C 0.68270 0.33753 -0.14815
 C651 C 0.61670 0.38057 -0.12166
 C652 C 0.61810 0.38040 -0.08891
 C653 C 0.60017 0.39874 -0.07113
 C654 C 0.57992 0.41705 -0.08560
 C655 C 0.57782 0.41673 -0.11813
 C656 C 0.59623 0.39900 -0.13598
 H657 H 0.73271 0.32764 -0.18200
 H658 H 0.76365 0.29419 -0.21135
 H659 H 0.68895 0.24854 -0.24638
 H660 H 0.65914 0.27926 -0.21490
 H661 H 0.63912 0.32500 -0.20999
 H662 H 0.60662 0.35405 -0.17828
 H663 H 0.67211 0.36450 -0.10872
 H664 H 0.70356 0.33245 -0.13890
 H665 H 0.63297 0.36604 -0.07687
 H666 H 0.60205 0.39852 -0.04602
 H667 H 0.56260 0.43098 -0.12985
 H668 H 0.59478 0.40039 -0.16106
 C669 C 1.19463 0.19376 -0.19739
 C670 C 1.21218 0.18158 -0.22085
 C671 C 1.23034 0.19975 -0.23844
 C672 C 1.23298 0.23059 -0.23197
 C673 C 1.21450 0.24286 -0.20929
 C674 C 1.19565 0.22483 -0.19237
 C675 C 1.17537 0.17420 -0.17841
 C676 C 1.16819 0.18179 -0.14754
 C677 C 1.15011 0.16358 -0.12983
 C678 C 1.13930 0.13668 -0.14204
 C679 C 1.14684 0.12887 -0.17274
 C680 C 1.16417 0.14755 -0.19078
 C681 C 1.12005 0.11710 -0.12305
 C682 C 1.09924 0.09914 -0.13744
 C683 C 1.08109 0.08103 -0.11971
 C684 C 1.08266 0.08116 -0.08716
 C685 C 1.10317 0.09900 -0.07257
 C686 C 1.12198 0.11639 -0.09031
 H687 H 1.21221 0.15784 -0.22567
 H688 H 1.24202 0.18923 -0.25719
 H689 H 1.21481 0.26666 -0.20457
 H690 H 1.18173 0.23548 -0.17554
 H691 H 1.17669 0.20172 -0.13676
 H692 H 1.14449 0.17091 -0.10660
 H693 H 1.13957 0.10816 -0.18301
 H694 H 1.16852 0.14100 -0.21457
 H695 H 1.09636 0.09946 -0.16239
 H696 H 1.06514 0.06770 -0.13144
 H697 H 1.10483 0.09925 -0.04744
 H698 H 1.13809 0.12912 -0.07821
 C699 C 1.19192 0.69424 0.30155
 C700 C 1.19609 0.72437 0.30976
 C701 C 1.21522 0.74239 0.29323
 C702 C 1.23123 0.73111 0.26772
 C703 C 1.22453 0.70173 0.25773
 C704 C 1.20619 0.68338 0.27496
 C705 C 1.17283 0.67438 0.32054
 C706 C 1.15892 0.64968 0.30711
 C707 C 1.14186 0.63067 0.32514
 C708 C 1.13722 0.63627 0.35703
 C709 C 1.15072 0.66129 0.37033
 C710 C 1.16858 0.67968 0.35255
 C711 C 1.11823 0.61642 0.37617
 C712 C 1.12214 0.61345 0.40857
 C713 C 1.10359 0.59597 0.42656
 C714 C 1.08139 0.58011 0.41248
 C715 C 1.07782 0.58214 0.38020
 C716 C 1.09567 0.60046 0.36233
 H717 H 1.18445 0.73436 0.32892
 H718 H 1.21773 0.76537 0.30068
 H719 H 1.23360 0.69245 0.23664
 H720 H 1.20360 0.66051 0.26735
 H721 H 1.16091 0.64490 0.28253
 H722 H 1.13252 0.61143 0.31385
 H723 H 1.14741 0.66704 0.39453
 H724 H 1.17923 0.69793 0.36422
 H725 H 1.13960 0.62447 0.42023
 H726 H 1.10679 0.59453 0.45147
 H727 H 1.06053 0.57038 0.36893
 H728 H 1.09119 0.60253 0.33777
 C729 C 0.68612 0.19778 0.30415
 C730 C 0.68713 0.22903 0.30637
 C731 C 0.70709 0.24532 0.28912
 C732 C 0.72729 0.23088 0.26968
 C733 C 0.72538 0.19942 0.26693
 C734 C 0.70532 0.18319 0.28413
 C735 C 0.66510 0.18034 0.32261
 C736 C 0.65063 0.15609 0.30918
 C737 C 0.63182 0.13881 0.32695
 C738 C 0.62714 0.14535 0.35856
 C739 C 0.64116 0.16999 0.37182
 C740 C 0.65990 0.18735 0.35401
 C741 C 0.60876 0.12566 0.37789
 C742 C 0.61750 0.11709 0.40782
 C743 C 0.60132 0.09687 0.42527
 C744 C 0.57605 0.08484 0.41320
 C745 C 0.56683 0.09401 0.38366
 C746 C 0.58308 0.11418 0.36614
 H747 H 0.67215 0.24096 0.32110
 H748 H 0.70696 0.26948 0.29102
 H749 H 0.73878 0.18690 0.25113
 H750 H 0.70495 0.15907 0.28183
 H751 H 0.65395 0.15040 0.28493
 H752 H 0.62154 0.11980 0.31616
 H753 H 0.63775 0.17573 0.39605
 H754 H 0.67088 0.20580 0.36503
 H755 H 0.63734 0.12528 0.41735
 H756 H 0.60892 0.09021 0.44799
 H757 H 0.54737 0.08515 0.37385
 H758 H 0.57566 0.12067 0.34330
 C759 C 0.68716 0.69943 -0.19407
 C760 C 0.68832 0.73067 -0.19182
 C761 C 0.70811 0.74688 -0.20936
 C762 C 0.72800 0.73237 -0.22911
 C763 C 0.72593 0.70093 -0.23191
 C764 C 0.70603 0.68477 -0.21442
 C765 C 0.66631 0.68211 -0.17530
 C766 C 0.65145 0.65804 -0.18857
 C767 C 0.63263 0.64098 -0.17059
 C768 C 0.62834 0.64757 -0.13893
 C769 C 0.64282 0.67197 -0.12579
 C770 C 0.66157 0.68911 -0.14382
 C771 C 0.60980 0.62820 -0.11945
 C772 C 0.61862 0.61940 -0.08963
 C773 C 0.60224 0.59941 -0.07211
 C774 C 0.57669 0.58787 -0.08402
 C775 C 0.56740 0.59735 -0.11342
 C776 C 0.58383 0.61728 -0.13100
 H777 H 0.67358 0.74265 -0.17685
 H778 H 0.70812 0.77103 -0.20740
 H779 H 0.73907 0.68839 -0.24795
 H780 H 0.70550 0.66066 -0.21675
 H781 H 0.65442 0.65236 -0.21288
 H782 H 0.62200 0.62213 -0.18127
 H783 H 0.63973 0.67772 -0.10152
 H784 H 0.67287 0.70742 -0.13293
 H785 H 0.63867 0.62719 -0.08026
 H786 H 0.60990 0.59249 -0.04950
 H787 H 0.54772 0.58889 -0.12310
 H788 H 0.57635 0.62400 -0.15375
 C789 C 0.80791 -0.19412 -0.19355
 C790 C 0.80882 -0.19388 -0.22626
 C791 C 0.78978 -0.21115 -0.24354
 C792 C 0.76911 -0.22939 -0.22883
 C793 C 0.76953 -0.23079 -0.19598
 C794 C 0.78802 -0.21292 -0.17874
 C795 C 0.82763 -0.17507 -0.17490
 C796 C 0.83696 -0.18443 -0.14539
 C797 C 0.85465 -0.16627 -0.12747
 C798 C 0.86436 -0.13854 -0.13883
 C799 C 0.85541 -0.12935 -0.16855
 C800 C 0.83705 -0.14719 -0.18615
 C801 C 0.88388 -0.11955 -0.11987
 C802 C 0.88339 -0.08809 -0.12224
 C803 C 0.90212 -0.07051 -0.10481
 C804 C 0.92116 -0.08392 -0.08401
 C805 C 0.92144 -0.11515 -0.08114
 C806 C 0.90335 -0.13277 -0.09915
 H807 H 0.82442 -0.18056 -0.23869
 H808 H 0.79098 -0.21016 -0.26870
 H809 H 0.75588 -0.24571 -0.18298
 H810 H 0.78641 -0.21381 -0.15363
 H811 H 0.83080 -0.20594 -0.13601
 H812 H 0.86047 -0.17403 -0.10453
 H813 H 0.86272 -0.10847 -0.17849
 H814 H 0.83007 -0.13885 -0.20848
 H815 H 0.86839 -0.07692 -0.13733
 H816 H 0.90148 -0.04641 -0.10727
 H817 H 0.93624 -0.12604 -0.06555
 H818 H 0.90509 -0.15682 -0.09715
 C819 C 0.80656 0.30508 0.30578
 C820 C 0.80791 0.30495 0.27308
 C821 C 0.78914 0.28743 0.25571
 C822 C 0.76830 0.26931 0.27029
 C823 C 0.76828 0.26827 0.30317
 C824 C 0.78651 0.28638 0.32049
 C825 C 0.82602 0.32439 0.32450
 C826 C 0.83499 0.31539 0.35425
 C827 C 0.85255 0.33373 0.37214
 C828 C 0.86248 0.36128 0.36053
 C829 C 0.85381 0.37015 0.33061
 C830 C 0.83559 0.35214 0.31302
 C831 C 0.88198 0.38037 0.37944
 C832 C 0.88171 0.41181 0.37671
 C833 C 0.90039 0.42946 0.39417
 C834 C 0.91917 0.41613 0.41531
 C835 C 0.91926 0.38493 0.41845
 C836 C 0.90123 0.36724 0.40044
 H837 H 0.82365 0.31816 0.26074
 H838 H 0.79067 0.28818 0.23056
 H839 H 0.75445 0.25349 0.31611
 H840 H 0.78458 0.28576 0.34558
 H841 H 0.82870 0.29400 0.36384
 H842 H 0.85813 0.32622 0.39525
 H843 H 0.86127 0.39090 0.32049
 H844 H 0.82886 0.36022 0.29049
 H845 H 0.86690 0.42292 0.36136
 H846 H 0.89988 0.45354 0.39148
 H847 H 0.93386 0.37408 0.43430
 H848 H 0.90283 0.34321 0.40272
 C849 C 0.31018 -0.20025 0.30844
 C850 C 0.30306 -0.18992 0.27864
 C851 C 0.28387 -0.20566 0.26013
 C852 C 0.26970 -0.23160 0.27125
 C853 C 0.27818 -0.24249 0.30081
 C854 C 0.29774 -0.22693 0.31910
 C855 C 0.33061 -0.18333 0.32818
 C856 C 0.32686 -0.18193 0.36065
 C857 C 0.34540 -0.16513 0.37904
 C858 C 0.36796 -0.14892 0.36544
 C859 C 0.37198 -0.15072 0.33303
 C860 C 0.35370 -0.16787 0.31469
 C861 C 0.38646 -0.12926 0.38472
 C862 C 0.41547 -0.12515 0.37720
 C863 C 0.43223 -0.10508 0.39409
 C864 C 0.42047 -0.08904 0.41913
 C865 C 0.39182 -0.09378 0.42732
 C866 C 0.37495 -0.11346 0.41019
 H867 H 0.31220 -0.16948 0.26950
 H868 H 0.27995 -0.19727 0.23692
 H869 H 0.27025 -0.26353 0.30979
 H870 H 0.30361 -0.23627 0.34140
 H871 H 0.30921 -0.19329 0.37187
 H872 H 0.34191 -0.16475 0.40397
 H873 H 0.38886 -0.13830 0.32161
 H874 H 0.35766 -0.16888 0.28987
 H875 H 0.42525 -0.13735 0.35817
 H876 H 0.45435 -0.10199 0.38745
 H877 H 0.38215 -0.08157 0.44643
 H878 H 0.35264 -0.11555 0.41638
 C879 C 0.31353 0.30023 -0.19101
 C880 C 0.30978 0.30796 -0.22241
 C881 C 0.29059 0.29230 -0.24097
 C882 C 0.27325 0.26940 -0.22848
 C883 C 0.27799 0.26095 -0.19724
 C884 C 0.29770 0.27619 -0.17885
 C885 C 0.33369 0.31729 -0.17103
 C886 C 0.32780 0.32165 -0.13922
 C887 C 0.34602 0.33868 -0.12073
 C888 C 0.37032 0.35245 -0.13366
 C889 C 0.37650 0.34765 -0.16535
 C890 C 0.35860 0.33007 -0.18368
 C891 C 0.38837 0.37274 -0.11456
 C892 C 0.41789 0.37536 -0.12021
 C893 C 0.43432 0.39584 -0.10346
 C894 C 0.42169 0.41364 -0.08029
 C895 C 0.39248 0.41049 -0.07397
 C896 C 0.37595 0.39055 -0.09111
 H897 H 0.32142 0.32638 -0.23275
 H898 H 0.28887 0.29845 -0.26526
 H899 H 0.26724 0.24200 -0.18692
 H900 H 0.30087 0.26866 -0.15519
 H901 H 0.30872 0.31251 -0.12860
 H902 H 0.34083 0.34124 -0.09630
 H903 H 0.39479 0.35809 -0.17632
 H904 H 0.36430 0.32669 -0.20787
 H905 H 0.42837 0.36163 -0.13759
 H906 H 0.45689 0.39774 -0.10858
 H907 H 0.38216 0.42416 -0.05640
 H908 H 0.35326 0.38979 -0.08648
 C909 C 1.19278 -0.19465 0.19660
 C910 C 1.19999 -0.22371 0.18702
 C911 C 1.21847 -0.24129 0.20469
 C912 C 1.23157 -0.22999 0.23194
 C913 C 1.22206 -0.20161 0.24260
 C914 C 1.20353 -0.18412 0.22495
 C915 C 1.17405 -0.17534 0.17726
 C916 C 1.17962 -0.14455 0.17436
 C917 C 1.16216 -0.12632 0.15614
 C918 C 1.13875 -0.13846 0.14027
 C919 C 1.13318 -0.16925 0.14312
 C920 C 1.15059 -0.18747 0.16141
 C921 C 1.12011 -0.11910 0.12097
 C922 C 1.11006 -0.12921 0.09206
 C923 C 1.09186 -0.11139 0.07428
 C924 C 1.08323 -0.08312 0.08506
 C925 C 1.09361 -0.07276 0.11369
 C926 C 1.11190 -0.09055 0.13144
 H927 H 1.19171 -0.23277 0.16553
 H928 H 1.22309 -0.26373 0.19660
 H929 H 1.22882 -0.19267 0.26475
 H930 H 1.19728 -0.16238 0.23378
 H931 H 1.19780 -0.13458 0.18581
 H932 H 1.16725 -0.10278 0.15407
 H933 H 1.11503 -0.17918 0.13159
 H934 H 1.14540 -0.21098 0.16354
 H935 H 1.11634 -0.15090 0.08314
 H936 H 1.08428 -0.11994 0.05225
 H937 H 1.08727 -0.05108 0.12260
 H938 H 1.11908 -0.08224 0.15373
 C939 C 1.19378 0.30761 0.69623
 C940 C 1.21061 0.32042 0.71971
 C941 C 1.22904 0.30290 0.73745
 C942 C 1.23270 0.27215 0.73111
 C943 C 1.21499 0.25923 0.70832
 C944 C 1.19586 0.27658 0.69127
 C945 C 1.17408 0.32645 0.67722
 C946 C 1.16735 0.31853 0.64641
 C947 C 1.14881 0.33605 0.62873
 C948 C 1.13705 0.36259 0.64092
 C949 C 1.14418 0.37076 0.67155
 C950 C 1.16196 0.35274 0.68956
 C951 C 1.11731 0.38147 0.62201
 C952 C 1.09602 0.39890 0.63656
 C953 C 1.07767 0.41670 0.61901
 C954 C 1.07946 0.41675 0.58646
 C955 C 1.10029 0.39924 0.57167
 C956 C 1.11933 0.38219 0.58924
 H957 H 1.20986 0.34416 0.72447
 H958 H 1.24010 0.31385 0.75623
 H959 H 1.21612 0.23545 0.70366
 H960 H 1.18252 0.26543 0.67441
 H961 H 1.17655 0.29887 0.63565
 H962 H 1.14357 0.32846 0.60556
 H963 H 1.13623 0.39124 0.68179
 H964 H 1.16592 0.35951 0.71330
 H965 H 1.09300 0.39849 0.66153
 H966 H 1.06146 0.42975 0.63088
 H967 H 1.10211 0.39913 0.54652
 H968 H 1.13575 0.36982 0.57701
 C969 C 0.68925 -0.19411 0.69593
 C970 C 0.68883 -0.22540 0.69443
 C971 C 0.70804 -0.24227 0.71182
 C972 C 0.72860 -0.22843 0.73101
 C973 C 0.72787 -0.19688 0.73331
 C974 C 0.70879 -0.18005 0.71569
 C975 C 0.66949 -0.17607 0.67680
 C976 C 0.67958 -0.15084 0.66071
 C977 C 0.66119 -0.13389 0.64239
 C978 C 0.63228 -0.14169 0.63992
 C979 C 0.62208 -0.16678 0.65621
 C980 C 0.64058 -0.18393 0.67436
 C981 C 0.61298 -0.12350 0.62039
 C982 C 0.58596 -0.11482 0.63145
 C983 C 0.56872 -0.09588 0.61373
 C984 C 0.57817 -0.08551 0.58459
 C985 C 0.60475 -0.09507 0.57311
 C986 C 0.62200 -0.11379 0.59086
 H987 H 0.67392 -0.23685 0.67942
 H988 H 0.70712 -0.26642 0.71009
 H989 H 0.74145 -0.18474 0.74906
 H990 H 0.70894 -0.15592 0.71797
 H991 H 0.70181 -0.14443 0.66199
 H992 H 0.66953 -0.11445 0.63036
 H993 H 0.59991 -0.17333 0.65458
 H994 H 0.63223 -0.20315 0.68675
 H995 H 0.57858 -0.12189 0.65422
 H996 H 0.54830 -0.08886 0.62309
 H997 H 0.61252 -0.08758 0.55064
 H998 H 0.64254 -0.12054 0.58158
 C999 C 0.68907 0.30439 0.19423
 C1000 C 0.68864 0.27308 0.19279
 C1001 C 0.70773 0.25622 0.21038
 C1002 C 0.72818 0.27007 0.22970
 C1003 C 0.72745 0.30163 0.23192
 C1004 C 0.70850 0.31845 0.21411
 C1005 C 0.66941 0.32246 0.17501
 C1006 C 0.67956 0.34776 0.15908
 C1007 C 0.66121 0.36494 0.14094
 C1008 C 0.63226 0.35730 0.13846
 C1009 C 0.62202 0.33207 0.15450
 C1010 C 0.64047 0.31470 0.17247
 C1011 C 0.61296 0.37589 0.11932
 C1012 C 0.58600 0.38451 0.13065
 C1013 C 0.56882 0.40392 0.11339
 C1014 C 0.57825 0.41483 0.08446
 C1015 C 0.60474 0.40533 0.07269
 C1016 C 0.62194 0.38613 0.08997
 H1017 H 0.67380 0.26162 0.17771
 H1018 H 0.70679 0.23206 0.20872
 H1019 H 0.74092 0.31382 0.24775
 H1020 H 0.70866 0.34258 0.21636
 H1021 H 0.70181 0.35410 0.16043
 H1022 H 0.66960 0.38447 0.12911
 H1023 H 0.59982 0.32563 0.15285
 H1024 H 0.63207 0.29542 0.18473
 H1025 H 0.57864 0.37705 0.15329
 H1026 H 0.54846 0.41087 0.12298
 H1027 H 0.61251 0.41323 0.05037
 H1028 H 0.64242 0.37945 0.08048
 C1029 C 0.80662 0.19408 0.19438
 C1030 C 0.80718 0.19404 0.22709
 C1031 C 0.78828 0.21180 0.24428
 C1032 C 0.76817 0.23046 0.22950
 C1033 C 0.76875 0.23145 0.19663
 C1034 C 0.78708 0.21307 0.17948
 C1035 C 0.82645 0.17477 0.17584
 C1036 C 0.83617 0.18388 0.14628
 C1037 C 0.85423 0.16565 0.12862
 C1038 C 0.86394 0.13808 0.14030
 C1039 C 0.85450 0.12908 0.17002
 C1040 C 0.83578 0.14698 0.18736
 C1041 C 0.88402 0.11912 0.12167
 C1042 C 0.88386 0.08768 0.12435
 C1043 C 0.90300 0.07015 0.10709
 C1044 C 0.92214 0.08361 0.08618
 C1045 C 0.92218 0.11482 0.08312
 C1046 C 0.90368 0.13238 0.10095
 H1047 H 0.82246 0.18056 0.23960
 H1048 H 0.78925 0.21096 0.26945
 H1049 H 0.75537 0.24644 0.18356
 H1050 H 0.78569 0.21376 0.15437
 H1051 H 0.83010 0.20530 0.13667
 H1052 H 0.86038 0.17326 0.10565
 H1053 H 0.86175 0.10832 0.18019
 H1054 H 0.82848 0.13880 0.20973
 H1055 H 0.86876 0.07646 0.13947
 H1056 H 0.90253 0.04606 0.10969
 H1057 H 0.93704 0.12575 0.06744
 H1058 H 0.90523 0.15643 0.09875
 C1059 C 0.80661 0.69575 0.69450
 C1060 C 0.80734 0.69536 0.72720
 C1061 C 0.78862 0.71306 0.74470
 C1062 C 0.76851 0.73195 0.73022
 C1063 C 0.76896 0.73329 0.69736
 C1064 C 0.78712 0.71500 0.67991
 C1065 C 0.82617 0.67645 0.67564
 C1066 C 0.83590 0.68581 0.64616
 C1067 C 0.85364 0.66754 0.62817
 C1068 C 0.86298 0.63967 0.63942
 C1069 C 0.85357 0.63045 0.66907
 C1070 C 0.83518 0.64841 0.68675
 C1071 C 0.88264 0.62058 0.62044
 C1072 C 0.88189 0.58913 0.62271
 C1073 C 0.90079 0.57143 0.60537
 C1074 C 0.92030 0.58473 0.58476
 C1075 C 0.92083 0.61596 0.58196
 C1076 C 0.90254 0.63369 0.59988
 H1077 H 0.82260 0.68165 0.73947
 H1078 H 0.78972 0.71198 0.76985
 H1079 H 0.75561 0.74851 0.68454
 H1080 H 0.78563 0.71597 0.65482
 H1081 H 0.83006 0.70743 0.63688
 H1082 H 0.85983 0.67534 0.60527
 H1083 H 0.86058 0.60946 0.67893
 H1084 H 0.82787 0.64006 0.70904
 H1085 H 0.86655 0.57804 0.63766
 H1086 H 0.89992 0.54733 0.60777
 H1087 H 0.93598 0.62676 0.56650
 H1088 H 0.90447 0.65773 0.59794
 C1089 C 0.31568 0.20479 0.69080
 C1090 C 0.31171 0.19709 0.72223
 C1091 C 0.29192 0.21233 0.74068
 C1092 C 0.27418 0.23470 0.72803
 C1093 C 0.27924 0.24326 0.69683
 C1094 C 0.29956 0.22849 0.67856
 C1095 C 0.33617 0.18786 0.67082
 C1096 C 0.33051 0.18329 0.63907
 C1097 C 0.34880 0.16603 0.62066
 C1098 C 0.37293 0.15221 0.63362
 C1099 C 0.37899 0.15737 0.66518
 C1100 C 0.36102 0.17520 0.68344
 C1101 C 0.39075 0.13133 0.61472
 C1102 C 0.42022 0.12829 0.62009
 C1103 C 0.43637 0.10724 0.60352
 C1104 C 0.42348 0.08927 0.58085
 C1105 C 0.39432 0.09279 0.57484
 C1106 C 0.37809 0.11330 0.59178
 H1107 H 0.32356 0.17895 0.73266
 H1108 H 0.28996 0.20617 0.76497
 H1109 H 0.26819 0.26192 0.68642
 H1110 H 0.30289 0.23603 0.65489
 H1111 H 0.31150 0.19233 0.62846
 H1112 H 0.34374 0.16324 0.59629
 H1113 H 0.39717 0.14695 0.67615
 H1114 H 0.36656 0.17878 0.70756
 H1115 H 0.43087 0.14213 0.63710
 H1116 H 0.45890 0.10505 0.60839
 H1117 H 0.38380 0.07899 0.55766
 H1118 H 0.35542 0.11433 0.58742
 C1119 C 0.31460 0.70408 0.19521
 C1120 C 0.30672 0.69386 0.22492
 C1121 C 0.28644 0.70921 0.24267
 C1122 C 0.27177 0.73444 0.23072
 C1123 C 0.28161 0.74574 0.20171
 C1124 C 0.30226 0.73062 0.18419
 C1125 C 0.33528 0.68693 0.17566
 C1126 C 0.33205 0.68558 0.14317
 C1127 C 0.35042 0.66822 0.12492
 C1128 C 0.37228 0.65130 0.13866
 C1129 C 0.37594 0.65317 0.17107
 C1130 C 0.35782 0.67091 0.18929
 C1131 C 0.39026 0.63079 0.11947
 C1132 C 0.41905 0.62555 0.12686
 C1133 C 0.43528 0.60495 0.10975
 C1134 C 0.42318 0.58949 0.08466
 C1135 C 0.39471 0.59521 0.07677
 C1136 C 0.37839 0.61540 0.09408
 H1137 H 0.31588 0.67366 0.23447
 H1138 H 0.28178 0.70085 0.26580
 H1139 H 0.27367 0.76661 0.19243
 H1140 H 0.30885 0.74007 0.16210
 H1141 H 0.31482 0.69731 0.13180
 H1142 H 0.34726 0.66787 0.09998
 H1143 H 0.39232 0.64028 0.18258
 H1144 H 0.36141 0.67185 0.21413
 H1145 H 0.42909 0.63733 0.14588
 H1146 H 0.45726 0.60108 0.11620
 H1147 H 0.38476 0.58345 0.05766
 H1148 H 0.35619 0.61828 0.08803
   
