data_POSCAR
  _audit_creation_date              2014-09-24
  _audit_creation_method            'ToBaCCo'
  _symmetry_space_group_name_H-M    'P1'
  _symmetry_Int_Tables_number       1
  _symmetry_cell_setting            triclinic
  loop_
  _symmetry_equiv_pos_as_xyz
 x,y,z
_cell_length_a 42.1258
_cell_length_b 43.5083
_cell_length_c 27.0695
_cell_angle_alpha 89.950700
_cell_angle_beta 89.978100
_cell_angle_gamma 119.948100
loop_
  _atom_site_label
  _atom_site_type_symbol
  _atom_site_fract_x
  _atom_site_fract_y
  _atom_site_fract_z
C1 C 0.45449 0.90558 0.49683
 C2 C 0.45830 0.92252 0.54262
 C3 C 0.47429 0.95987 0.54265
 C4 C 0.48917 0.98021 0.49929
 C5 C 0.48641 0.96212 0.45492
 C6 C 0.46793 0.92501 0.45303
 C7 C 0.50774 1.02010 0.50018
 C8 C 0.51072 1.03939 0.45680
 C9 C 0.52954 1.07686 0.45599
 C10 C 0.54239 1.09483 0.50134
 C11 C 0.53850 1.07629 0.54541
 C12 C 0.52255 1.03928 0.54415
 H13 H 0.43922 0.87694 0.49442
 H14 H 0.47641 0.97332 0.57685
 H15 H 0.49886 0.97659 0.42131
 H16 H 0.49694 1.02518 0.42373
 H17 H 0.55651 1.12345 0.50286
 H18 H 0.52238 1.02591 0.57787
 C19 C 0.09771 0.54967 0.49953
 C20 C 0.07943 0.53569 0.54474
 C21 C 0.04087 0.51410 0.54368
 C22 C 0.02050 0.50898 0.50002
 C23 C 0.03988 0.52503 0.45629
 C24 C 0.07825 0.54398 0.45530
 C25 C -0.02068 0.48678 0.49991
 C26 C -0.03998 0.47138 0.45579
 C27 C -0.07863 0.45164 0.45429
 C28 C -0.09774 0.44484 0.49939
 C29 C -0.07925 0.45842 0.54411
 C30 C -0.04108 0.48044 0.54380
 H31 H 0.12719 0.56591 0.49822
 H32 H 0.02691 0.49988 0.57669
 H33 H 0.02548 0.52327 0.42244
 H34 H -0.02487 0.47334 0.42264
 H35 H -0.12736 0.43048 0.50022
 H36 H -0.02758 0.49204 0.57831
 C37 C 0.46156 0.55798 0.50054
 C38 C 0.47318 0.55071 0.54565
 C39 C 0.49053 0.53010 0.54419
 C40 C 0.49317 0.51406 0.50020
 C41 C 0.47982 0.52097 0.45627
 C42 C 0.46545 0.54392 0.45588
 C43 C 0.51005 0.49058 0.50044
 C44 C 0.52355 0.48348 0.45667
 C45 C 0.53828 0.46075 0.45681
 C46 C 0.54211 0.44696 0.50179
 C47 C 0.52998 0.45431 0.54604
 C48 C 0.51275 0.47481 0.54472
 H49 H 0.44751 0.57306 0.49966
 H50 H 0.50345 0.52792 0.57734
 H51 H 0.48082 0.50911 0.42177
 H52 H 0.52248 0.49508 0.42194
 H53 H 0.55546 0.43118 0.50239
 H54 H 0.50116 0.47782 0.57872
 O55 O 0.39414 0.66491 -0.04189
 O56 O 0.39087 0.72223 -0.05883
 C57 C 0.37294 0.73780 -0.06839
 O58 O 0.34572 0.73335 -0.04254
 O59 O 0.28647 0.67282 -0.05829
 C60 C 0.27040 0.63985 -0.06739
 O61 O 0.27512 0.61814 -0.04127
 O62 O 0.33756 0.62117 -0.05789
 C63 C 0.37155 0.63843 -0.06745
 O64 O 0.39232 0.67561 0.05621
 O65 O 0.39263 0.73472 0.03923
 C66 C 0.36944 0.73833 0.06500
 O67 O 0.33539 0.72155 0.05581
 O68 O 0.27427 0.66267 0.04010
 C69 C 0.27087 0.63686 0.06622
 O70 O 0.28813 0.62059 0.05688
 O71 O 0.34880 0.62009 0.04027
 C72 C 0.37567 0.64269 0.06586
 Cr73 Cr 0.39059 0.69842 -0.00131
 Cr74 Cr 0.31144 0.69670 -0.00122
 Cr75 Cr 0.31331 0.62184 -0.00052
 O76 O 0.33845 0.67232 -0.00101
 O77 O 0.60631 0.33644 -0.04050
 O78 O 0.60830 0.27839 -0.05650
 C79 C 0.62570 0.26223 -0.06565
 O80 O 0.65260 0.26621 -0.03955
 O81 O 0.71257 0.32603 -0.05616
 C82 C 0.72927 0.35896 -0.06573
 O83 O 0.72503 0.38119 -0.04017
 O84 O 0.66323 0.37945 -0.05677
 C85 C 0.62923 0.36266 -0.06626
 O86 O 0.60792 0.32614 0.05778
 O87 O 0.60630 0.26633 0.04184
 C88 C 0.62920 0.26250 0.06797
 O89 O 0.66324 0.27866 0.05861
 O90 O 0.72503 0.33667 0.04194
 C91 C 0.72917 0.36293 0.06753
 O92 O 0.71238 0.37962 0.05802
 O93 O 0.65232 0.38127 0.04141
 C94 C 0.62522 0.35909 0.06716
 Cr95 Cr 0.60911 0.30274 0.00066
 Cr96 Cr 0.68740 0.30281 0.00120
 Cr97 Cr 0.68729 0.37854 0.00063
 O98 O 0.66127 0.32804 0.00083
 C99 C 0.42764 0.86347 -0.32319
 C100 C 0.43692 0.85061 -0.36468
 C101 C 0.44642 0.86973 -0.40887
 C102 C 0.44698 0.90247 -0.41273
 C103 C 0.43705 0.91480 -0.37029
 C104 C 0.42751 0.89546 -0.32613
 C105 C 0.41870 0.84382 -0.27762
 C106 C 0.41143 0.82679 -0.23998
 C107 C 0.40278 0.80578 -0.19569
 C108 C 0.42287 0.78918 -0.18338
 C109 C 0.41361 0.76753 -0.14151
 C110 C 0.38403 0.76217 -0.11136
 C111 C 0.36431 0.77938 -0.12375
 C112 C 0.37364 0.80101 -0.16564
 H113 H 0.43737 0.82595 -0.36271
 H114 H 0.45509 0.85935 -0.43904
 H115 H 0.43531 0.93875 -0.37102
 H116 H 0.41997 0.90549 -0.29426
 H117 H 0.44544 0.79264 -0.20648
 H118 H 0.42931 0.75466 -0.13316
 H119 H 0.34135 0.77580 -0.10146
 H120 H 0.35786 0.81367 -0.17490
 C121 C 0.13917 0.56395 -0.32031
 C122 C 0.15617 0.56309 -0.36416
 C123 C 0.13647 0.55303 -0.40840
 C124 C 0.09909 0.54362 -0.40987
 C125 C 0.08221 0.54380 -0.36467
 C126 C 0.10210 0.55395 -0.32057
 C127 C 0.16008 0.57608 -0.27538
 C128 C 0.17800 0.58673 -0.23812
 C129 C 0.19990 0.59982 -0.19412
 C130 C 0.20483 0.57663 -0.16351
 C131 C 0.22724 0.58954 -0.12180
 C132 C 0.24509 0.62593 -0.11013
 C133 C 0.23956 0.64896 -0.14083
 C134 C 0.21712 0.63596 -0.18254
 H135 H 0.18482 0.57040 -0.36426
 H136 H 0.15069 0.55187 -0.44095
 H137 H 0.05412 0.53809 -0.36321
 H138 H 0.08870 0.55472 -0.28680
 H139 H 0.19169 0.54861 -0.17219
 H140 H 0.23094 0.57106 -0.09909
 H141 H 0.25292 0.67710 -0.13304
 H142 H 0.21353 0.65417 -0.20605
 C143 C 0.44795 0.58339 -0.31897
 C144 C 0.45281 0.60295 -0.36203
 C145 C 0.46209 0.59291 -0.40634
 C146 C 0.46661 0.56281 -0.40867
 C147 C 0.46265 0.54406 -0.36416
 C148 C 0.45331 0.55422 -0.31999
 C149 C 0.43605 0.59244 -0.27423
 C150 C 0.42541 0.59981 -0.23718
 C151 C 0.41216 0.60861 -0.19349
 C152 C 0.43629 0.63699 -0.16372
 C153 C 0.42318 0.64635 -0.12227
 C154 C 0.38568 0.62741 -0.11004
 C155 C 0.36172 0.59863 -0.13993
 C156 C 0.37491 0.58934 -0.18136
 H157 H 0.44911 0.62587 -0.36151
 H158 H 0.46642 0.60947 -0.43831
 H159 H 0.46453 0.52017 -0.36342
 H160 H 0.44938 0.53872 -0.28685
 H161 H 0.46516 0.65213 -0.17283
 H162 H 0.44239 0.66868 -0.10019
 H163 H 0.33271 0.58354 -0.13168
 H164 H 0.35599 0.56735 -0.20423
 C165 C 0.56988 0.13412 -0.31785
 C166 C 0.59304 0.14718 -0.35898
 C167 C 0.58338 0.12805 -0.40321
 C168 C 0.55033 0.09558 -0.40685
 C169 C 0.52761 0.08233 -0.36497
 C170 C 0.53732 0.10151 -0.32081
 C171 C 0.57890 0.15470 -0.27318
 C172 C 0.58631 0.17229 -0.23609
 C173 C 0.59522 0.19373 -0.19225
 C174 C 0.62395 0.19798 -0.16178
 C175 C 0.63347 0.21978 -0.12013
 C176 C 0.61435 0.23770 -0.10839
 C177 C 0.58520 0.23289 -0.13898
 C178 C 0.57574 0.21105 -0.18061
 H179 H 0.61836 0.17236 -0.35705
 H180 H 0.60166 0.13870 -0.43460
 H181 H 0.50180 0.05763 -0.36681
 H182 H 0.51913 0.09120 -0.28924
 H183 H 0.63925 0.18473 -0.17049
 H184 H 0.65609 0.22293 -0.09752
 H185 H 0.56997 0.24632 -0.13113
 H186 H 0.55348 0.20798 -0.20401
 C187 C 0.86071 0.42916 -0.31915
 C188 C 0.88830 0.46434 -0.32692
 C189 C 0.90786 0.47411 -0.37144
 C190 C 0.89993 0.44874 -0.40870
 C191 C 0.87212 0.41350 -0.40042
 C192 C 0.85267 0.40382 -0.35600
 C193 C 0.84031 0.41877 -0.27364
 C194 C 0.82254 0.40918 -0.23612
 C195 C 0.80054 0.39693 -0.19206
 C196 C 0.79590 0.42072 -0.16242
 C197 C 0.77321 0.40849 -0.12083
 C198 C 0.75478 0.37220 -0.10836
 C199 C 0.76004 0.34858 -0.13809
 C200 C 0.78276 0.36090 -0.17964
 H201 H 0.89465 0.48420 -0.29866
 H202 H 0.92886 0.50150 -0.37693
 H203 H 0.86576 0.39327 -0.42809
 H204 H 0.83143 0.37651 -0.35033
 H205 H 0.80947 0.44866 -0.17178
 H206 H 0.76974 0.42740 -0.09887
 H207 H 0.74625 0.32050 -0.12966
 H208 H 0.78609 0.34224 -0.20243
 C209 C 0.55504 0.42075 -0.31724
 C210 C 0.54208 0.39751 -0.35750
 C211 C 0.53297 0.40796 -0.40166
 C212 C 0.53678 0.44187 -0.40608
 C213 C 0.54908 0.46473 -0.36502
 C214 C 0.55817 0.45423 -0.32095
 C215 C 0.56656 0.41088 -0.27287
 C216 C 0.57689 0.40293 -0.23603
 C217 C 0.58978 0.39356 -0.19250
 C218 C 0.56530 0.36528 -0.16276
 C219 C 0.57803 0.35554 -0.12128
 C220 C 0.61552 0.37398 -0.10900
 C221 C 0.63986 0.40263 -0.13891
 C222 C 0.62703 0.41231 -0.18036
 H223 H 0.53952 0.37151 -0.35500
 H224 H 0.52319 0.38963 -0.43242
 H225 H 0.55280 0.49118 -0.36747
 H226 H 0.56833 0.47249 -0.29009
 H227 H 0.53641 0.35056 -0.17186
 H228 H 0.55855 0.33332 -0.09918
 H229 H 0.66887 0.41735 -0.13063
 H230 H 0.64623 0.43422 -0.20320
 C231 C 0.86243 0.41955 0.31892
 C232 C 0.89816 0.44825 0.31985
 C233 C 0.91796 0.45824 0.36403
 C234 C 0.90226 0.43979 0.40863
 C235 C 0.86636 0.41018 0.40642
 C236 C 0.84677 0.40031 0.36211
 C237 C 0.84130 0.41053 0.27411
 C238 C 0.82308 0.40304 0.23705
 C239 C 0.80073 0.39395 0.19338
 C240 C 0.78262 0.41256 0.18146
 C241 C 0.75976 0.40288 0.14009
 C242 C 0.75470 0.37437 0.11007
 C243 C 0.77342 0.35611 0.12210
 C244 C 0.79625 0.36585 0.16348
 H245 H 0.91049 0.46348 0.28659
 H246 H 0.94477 0.48176 0.36321
 H247 H 0.85333 0.39383 0.43847
 H248 H 0.81920 0.37774 0.36167
 H249 H 0.78585 0.43431 0.20444
 H250 H 0.74573 0.41745 0.13199
 H251 H 0.77012 0.33401 0.09991
 H252 H 0.81008 0.35122 0.17244
 C253 C 0.55467 0.13497 0.32132
 C254 C 0.55143 0.15015 0.36509
 C255 C 0.54226 0.13088 0.40924
 C256 C 0.53618 0.09581 0.41067
 C257 C 0.53861 0.08067 0.36551
 C258 C 0.54785 0.10010 0.32153
 C259 C 0.56631 0.15560 0.27657
 C260 C 0.57670 0.17317 0.23938
 C261 C 0.58963 0.19454 0.19538
 C262 C 0.56515 0.19872 0.16511
 C263 C 0.57791 0.22037 0.12321
 C264 C 0.61543 0.23818 0.11101
 C265 C 0.63976 0.23345 0.14143
 C266 C 0.62691 0.21178 0.18331
 H267 H 0.55629 0.17706 0.36522
 H268 H 0.53917 0.14356 0.44175
 H269 H 0.53556 0.05449 0.36401
 H270 H 0.55053 0.08815 0.28784
 H271 H 0.53624 0.18553 0.17415
 H272 H 0.55843 0.22346 0.10073
 H273 H 0.66880 0.24680 0.13325
 H274 H 0.64611 0.20874 0.20654
 C275 C 0.56745 0.43015 0.32071
 C276 C 0.57682 0.46554 0.32814
 C277 C 0.56759 0.47573 0.37247
 C278 C 0.54892 0.45058 0.40990
 C279 C 0.53973 0.41512 0.40201
 C280 C 0.54894 0.40502 0.35775
 C281 C 0.57682 0.41937 0.27532
 C282 C 0.58449 0.40959 0.23783
 C283 C 0.59364 0.39723 0.19372
 C284 C 0.62263 0.42098 0.16372
 C285 C 0.63250 0.40869 0.12204
 C286 C 0.61349 0.37238 0.10982
 C287 C 0.58404 0.34879 0.13991
 C288 C 0.57424 0.36117 0.18156
 H289 H 0.59127 0.48524 0.29974
 H290 H 0.57537 0.50328 0.37767
 H291 H 0.52489 0.39505 0.42981
 H292 H 0.54150 0.37755 0.35236
 H293 H 0.63789 0.44894 0.17286
 H294 H 0.65535 0.42758 0.09981
 H295 H 0.56887 0.32070 0.13169
 H296 H 0.55179 0.34254 0.20462
 C297 C 0.13809 0.57831 0.31871
 C298 C 0.14959 0.60105 0.35957
 C299 C 0.12971 0.59038 0.40374
 C300 C 0.09806 0.55676 0.40758
 C301 C 0.08632 0.53443 0.36594
 C302 C 0.10623 0.54514 0.32187
 C303 C 0.15967 0.58836 0.27420
 C304 C 0.17804 0.59640 0.23718
 C305 C 0.20034 0.60581 0.19337
 C306 C 0.20418 0.63359 0.16322
 C307 C 0.22667 0.64335 0.12143
 C308 C 0.24569 0.62542 0.10922
 C309 C 0.24132 0.59726 0.13954
 C310 C 0.21880 0.58755 0.18130
 H311 H 0.17419 0.62681 0.35749
 H312 H 0.13916 0.60833 0.43493
 H313 H 0.06235 0.50823 0.36793
 H314 H 0.09716 0.52728 0.29054
 H315 H 0.19004 0.64792 0.17225
 H316 H 0.22946 0.66520 0.09903
 H317 H 0.25559 0.58294 0.13133
 H318 H 0.21604 0.56601 0.20443
 C319 C 0.44281 0.86822 0.31561
 C320 C 0.44081 0.89928 0.31933
 C321 C 0.44995 0.91827 0.36364
 C322 C 0.46114 0.90636 0.40490
 C323 C 0.46384 0.87553 0.40044
 C324 C 0.45470 0.85659 0.35607
 C325 C 0.43126 0.84752 0.27101
 C326 C 0.42098 0.82972 0.23408
 C327 C 0.40825 0.80794 0.19053
 C328 C 0.37091 0.78990 0.17882
 C329 C 0.35828 0.76767 0.13755
 C330 C 0.38290 0.76318 0.10739
 C331 C 0.42047 0.78181 0.11920
 C332 C 0.43301 0.80401 0.16049
 H333 H 0.43150 0.90844 0.28830
 H334 H 0.44714 0.94164 0.36611
 H335 H 0.47276 0.86594 0.43137
 H336 H 0.45639 0.83259 0.35356
 H337 H 0.35150 0.79271 0.20191
 H338 H 0.32920 0.75369 0.12963
 H339 H 0.44018 0.77894 0.09690
 H340 H 0.46196 0.81780 0.16927
 C341 C 0.43615 0.57386 0.31929
 C342 C 0.45518 0.59927 0.35573
 C343 C 0.46452 0.58939 0.40009
 C344 C 0.45492 0.55389 0.40870
 C345 C 0.43582 0.52847 0.37182
 C346 C 0.42646 0.53843 0.32739
 C347 C 0.42644 0.58437 0.27393
 C348 C 0.41843 0.59390 0.23647
 C349 C 0.40878 0.60589 0.19241
 C350 C 0.42743 0.64196 0.18016
 C351 C 0.41711 0.65393 0.13854
 C352 C 0.38791 0.62991 0.10858
 C353 C 0.36966 0.59360 0.12091
 C354 C 0.38004 0.58172 0.16255
 H355 H 0.46287 0.62676 0.34983
 H356 H 0.47968 0.60964 0.42747
 H357 H 0.42774 0.50089 0.37759
 H358 H 0.41160 0.51853 0.29946
 H359 H 0.44967 0.66092 0.20313
 H360 H 0.43169 0.68204 0.13022
 H361 H 0.34704 0.57438 0.09876
 H362 H 0.36537 0.55374 0.17177
   
