data_POSCAR
  _audit_creation_date              2014-09-24
  _audit_creation_method            'ToBaCCo'
  _symmetry_space_group_name_H-M    'P1'
  _symmetry_Int_Tables_number       1
  _symmetry_cell_setting            triclinic
  loop_
  _symmetry_equiv_pos_as_xyz
 x,y,z
_cell_length_a 38.5649
_cell_length_b 38.5649
_cell_length_c 38.5649
_cell_angle_alpha 89.999500
_cell_angle_beta 89.987600
_cell_angle_gamma 90.000600
loop_
  _atom_site_label
  _atom_site_type_symbol
  _atom_site_fract_x
  _atom_site_fract_y
  _atom_site_fract_z
Zn1 Zn 0.77746 0.72266 0.77741
 Zn2 Zn 0.77747 0.77747 0.72261
 Zn3 Zn 0.72267 0.72267 0.72261
 Zn4 Zn 0.72265 0.77747 0.77742
 O5 O 0.75006 0.75007 0.75001
 O6 O 0.82282 0.72977 0.77031
 O7 O 0.77038 0.77038 0.67725
 O8 O 0.72976 0.67731 0.72970
 O9 O 0.82283 0.77037 0.72971
 O10 O 0.77036 0.67730 0.77030
 O11 O 0.72978 0.72977 0.67725
 O12 O 0.67729 0.77037 0.77031
 O13 O 0.77037 0.82283 0.72971
 O14 O 0.67730 0.72977 0.72971
 O15 O 0.72976 0.82283 0.77032
 O16 O 0.72974 0.77036 0.82278
 O17 O 0.77034 0.72975 0.82277
 C18 C 0.83889 0.75007 0.75001
 C19 C 0.75008 0.75008 0.66118
 C20 C 0.75006 0.66124 0.75000
 C21 C 0.66123 0.75007 0.75001
 C22 C 0.75006 0.83890 0.75002
 C23 C 0.75004 0.75005 0.83884
 Zn24 Zn 0.22267 0.72266 0.72262
 Zn25 Zn 0.22265 0.77748 0.77741
 Zn26 Zn 0.27746 0.72268 0.77742
 Zn27 Zn 0.27747 0.77746 0.72260
 O28 O 0.25006 0.75007 0.75001
 O29 O 0.17730 0.72976 0.72972
 O30 O 0.22974 0.77039 0.82277
 O31 O 0.27037 0.67731 0.77033
 O32 O 0.17729 0.77038 0.77031
 O33 O 0.22977 0.67730 0.72973
 O34 O 0.27034 0.72978 0.82278
 O35 O 0.32283 0.77036 0.72970
 O36 O 0.22976 0.82284 0.77030
 O37 O 0.32282 0.72978 0.77032
 O38 O 0.27037 0.82283 0.72969
 O39 O 0.27038 0.77035 0.67724
 O40 O 0.22977 0.72975 0.67726
 C41 C 0.16123 0.75007 0.75001
 C42 C 0.25003 0.75008 0.83884
 C43 C 0.25007 0.66124 0.75003
 C44 C 0.33889 0.75007 0.75001
 C45 C 0.25007 0.83890 0.74999
 C46 C 0.25007 0.75005 0.66118
 Zn47 Zn 0.72266 0.22267 0.77741
 Zn48 Zn 0.77747 0.22266 0.72260
 Zn49 Zn 0.72267 0.27747 0.72260
 Zn50 Zn 0.77746 0.27747 0.77741
 O51 O 0.75007 0.25007 0.75001
 O52 O 0.72976 0.17731 0.77031
 O53 O 0.77038 0.22975 0.67724
 O54 O 0.67731 0.27037 0.72971
 O55 O 0.77037 0.17730 0.72971
 O56 O 0.67730 0.22977 0.77031
 O57 O 0.72977 0.27036 0.67724
 O58 O 0.77036 0.32284 0.77030
 O59 O 0.82283 0.22977 0.72970
 O60 O 0.72977 0.32283 0.72969
 O61 O 0.82283 0.27037 0.77030
 O62 O 0.77036 0.27037 0.82277
 O63 O 0.72975 0.22977 0.82277
 C64 C 0.75007 0.16124 0.75002
 C65 C 0.75007 0.25005 0.66117
 C66 C 0.66123 0.25007 0.75001
 C67 C 0.75007 0.33890 0.74999
 C68 C 0.83890 0.25007 0.75000
 C69 C 0.75005 0.25007 0.83884
 Zn70 Zn 0.27748 0.22268 0.72260
 Zn71 Zn 0.22266 0.22265 0.77740
 Zn72 Zn 0.27746 0.27746 0.77742
 Zn73 Zn 0.22267 0.27748 0.72261
 O74 O 0.25007 0.25007 0.75001
 O75 O 0.27038 0.17731 0.72969
 O76 O 0.22975 0.22974 0.82276
 O77 O 0.32283 0.27037 0.77032
 O78 O 0.22976 0.17730 0.77029
 O79 O 0.32283 0.22978 0.72969
 O80 O 0.27035 0.27035 0.82278
 O81 O 0.22977 0.32284 0.72972
 O82 O 0.17730 0.22976 0.77030
 O83 O 0.27036 0.32283 0.77033
 O84 O 0.17731 0.27038 0.72972
 O85 O 0.22977 0.27038 0.67725
 O86 O 0.27037 0.22978 0.67724
 C87 C 0.25008 0.16124 0.74998
 C88 C 0.25004 0.25004 0.83884
 C89 C 0.33890 0.25008 0.75000
 C90 C 0.25007 0.33890 0.75003
 C91 C 0.16123 0.25007 0.75001
 C92 C 0.25007 0.25008 0.66117
 Zn93 Zn 0.72254 0.72255 0.22261
 Zn94 Zn 0.77734 0.77735 0.22261
 Zn95 Zn 0.72253 0.77734 0.27742
 Zn96 Zn 0.77734 0.72253 0.27740
 O97 O 0.74994 0.74994 0.25001
 O98 O 0.72964 0.72966 0.17725
 O99 O 0.77024 0.82271 0.22972
 O100 O 0.67717 0.77024 0.27033
 O101 O 0.77024 0.77026 0.17725
 O102 O 0.67718 0.72964 0.22972
 O103 O 0.72963 0.82270 0.27033
 O104 O 0.77024 0.72963 0.32277
 O105 O 0.82270 0.77025 0.22970
 O106 O 0.72964 0.77024 0.32278
 O107 O 0.82270 0.72964 0.27030
 O108 O 0.77024 0.67717 0.27030
 O109 O 0.72964 0.67718 0.22970
 C110 C 0.74994 0.74996 0.16118
 C111 C 0.74994 0.83877 0.25003
 C112 C 0.66110 0.74994 0.25003
 C113 C 0.74995 0.74994 0.33884
 C114 C 0.83877 0.74994 0.25000
 C115 C 0.74994 0.66111 0.24999
 Zn116 Zn 0.27734 0.77735 0.22261
 Zn117 Zn 0.22253 0.72255 0.22261
 Zn118 Zn 0.27733 0.72254 0.27741
 Zn119 Zn 0.22253 0.77735 0.27742
 O120 O 0.24993 0.74994 0.25001
 O121 O 0.27024 0.77025 0.17725
 O122 O 0.22962 0.67718 0.22971
 O123 O 0.32269 0.72963 0.27030
 O124 O 0.22963 0.72965 0.17725
 O125 O 0.32270 0.77025 0.22970
 O126 O 0.27022 0.67718 0.27031
 O127 O 0.22964 0.77025 0.32278
 O128 O 0.17717 0.72965 0.22972
 O129 O 0.27024 0.72965 0.32277
 O130 O 0.17717 0.77024 0.27033
 O131 O 0.22962 0.82271 0.27031
 O132 O 0.27023 0.82271 0.22971
 C133 C 0.24994 0.74995 0.16118
 C134 C 0.24992 0.66111 0.25001
 C135 C 0.33877 0.74994 0.25000
 C136 C 0.24994 0.74995 0.33884
 C137 C 0.16110 0.74995 0.25003
 C138 C 0.24993 0.83878 0.25001
 Zn139 Zn 0.72253 0.27734 0.22261
 Zn140 Zn 0.77734 0.22253 0.22260
 Zn141 Zn 0.77735 0.27735 0.27739
 Zn142 Zn 0.72254 0.22254 0.27742
 O143 O 0.74994 0.24994 0.25001
 O144 O 0.72964 0.27024 0.17725
 O145 O 0.82270 0.22963 0.22969
 O146 O 0.77025 0.32271 0.27028
 O147 O 0.77024 0.22963 0.17724
 O148 O 0.72964 0.32270 0.22970
 O149 O 0.82271 0.27024 0.27029
 O150 O 0.72964 0.22965 0.32278
 O151 O 0.77024 0.17717 0.22971
 O152 O 0.77025 0.27025 0.32276
 O153 O 0.72964 0.17718 0.27033
 O154 O 0.67718 0.22963 0.27033
 O155 O 0.67717 0.27023 0.22972
 C156 C 0.74994 0.24994 0.16117
 C157 C 0.83877 0.24993 0.24999
 C158 C 0.74995 0.33877 0.24999
 C159 C 0.74995 0.24995 0.33884
 C160 C 0.74994 0.16111 0.25002
 C161 C 0.66111 0.24993 0.25003
 Zn162 Zn 0.22253 0.27734 0.22261
 Zn163 Zn 0.27734 0.22254 0.22260
 Zn164 Zn 0.27734 0.27735 0.27740
 Zn165 Zn 0.22254 0.22254 0.27742
 O166 O 0.24994 0.24994 0.25001
 O167 O 0.22964 0.27025 0.17725
 O168 O 0.32270 0.22963 0.22969
 O169 O 0.27024 0.32271 0.27030
 O170 O 0.27024 0.22965 0.17724
 O171 O 0.22962 0.32270 0.22972
 O172 O 0.32270 0.27024 0.27029
 O173 O 0.22964 0.22964 0.32278
 O174 O 0.27023 0.17718 0.22969
 O175 O 0.27025 0.27024 0.32276
 O176 O 0.22963 0.17718 0.27031
 O177 O 0.17718 0.22964 0.27033
 O178 O 0.17717 0.27023 0.22972
 C179 C 0.24994 0.24995 0.16117
 C180 C 0.33877 0.24993 0.24999
 C181 C 0.24992 0.33877 0.25002
 C182 C 0.24995 0.24994 0.33884
 C183 C 0.24992 0.16111 0.25000
 C184 C 0.16110 0.24993 0.25003
 N185 N -0.07057 0.72862 0.77145
 C186 C -0.05277 0.75006 0.75001
 N187 N -0.07056 0.77151 0.72857
 N188 N -0.10512 0.77151 0.72857
 C189 C -0.12303 0.75007 0.75001
 N190 N -0.10513 0.72862 0.77145
 C191 C -0.01557 0.75005 0.75000
 C192 C 0.01569 0.75004 0.75001
 C193 C 0.05290 0.75005 0.75001
 N194 N 0.07068 0.77150 0.77144
 N195 N 0.10524 0.77151 0.77145
 C196 C 0.12316 0.75006 0.75001
 N197 N 0.10525 0.72860 0.72858
 N198 N 0.07070 0.72860 0.72858
 N199 N 0.77150 -0.07056 0.72858
 C200 C 0.75006 -0.05277 0.75002
 N201 N 0.72862 -0.07056 0.77147
 N202 N 0.72862 -0.10512 0.77147
 C203 C 0.75006 -0.12303 0.75002
 N204 N 0.77151 -0.10512 0.72858
 C205 C 0.75005 -0.01556 0.75002
 C206 C 0.75005 0.01570 0.75003
 C207 C 0.75006 0.05290 0.75003
 N208 N 0.72861 0.07070 0.77147
 N209 N 0.72861 0.10526 0.77147
 C210 C 0.75006 0.12316 0.75002
 N211 N 0.77151 0.10525 0.72858
 N212 N 0.77151 0.07069 0.72859
 N213 N 0.72856 0.77146 -0.07062
 C214 C 0.74999 0.75001 -0.05283
 N215 N 0.77144 0.72858 -0.07062
 N216 N 0.77146 0.72859 -0.10518
 C217 C 0.75002 0.75004 -0.12308
 N218 N 0.72857 0.77148 -0.10517
 C219 C 0.74996 0.74998 -0.01562
 C220 C 0.74995 0.74997 0.01564
 C221 C 0.74994 0.74998 0.05285
 N222 N 0.77138 0.77142 0.07064
 N223 N 0.77138 0.77142 0.10519
 C224 C 0.74994 0.74997 0.12311
 N225 N 0.72849 0.72853 0.10520
 N226 N 0.72850 0.72854 0.07064
 N227 N 0.57068 0.77149 0.77145
 C228 C 0.55290 0.75005 0.75001
 N229 N 0.57070 0.72861 0.72856
 N230 N 0.60526 0.72862 0.72856
 C231 C 0.62316 0.75006 0.75001
 N232 N 0.60524 0.77150 0.77145
 C233 C 0.51569 0.75004 0.75000
 C234 C 0.48443 0.75005 0.75000
 C235 C 0.44723 0.75006 0.75001
 N236 N 0.42943 0.72863 0.77146
 N237 N 0.39487 0.72863 0.77147
 C238 C 0.37697 0.75007 0.75001
 N239 N 0.39488 0.77150 0.72856
 N240 N 0.42944 0.77149 0.72856
 N241 N 0.27151 -0.07057 0.72852
 C242 C 0.25007 -0.05277 0.74996
 N243 N 0.22863 -0.07055 0.77141
 N244 N 0.22863 -0.10511 0.77142
 C245 C 0.25007 -0.12303 0.74998
 N246 N 0.27152 -0.10512 0.72853
 C247 C 0.25007 -0.01556 0.74995
 C248 C 0.25008 0.01570 0.74994
 C249 C 0.25008 0.05291 0.74995
 N250 N 0.22863 0.07069 0.77140
 N251 N 0.22863 0.10525 0.77141
 C252 C 0.25008 0.12316 0.74997
 N253 N 0.27153 0.10526 0.72853
 N254 N 0.27153 0.07071 0.72852
 N255 N 0.22854 0.77149 -0.07062
 C256 C 0.24997 0.75004 -0.05282
 N257 N 0.27142 0.72861 -0.07062
 N258 N 0.27145 0.72863 -0.10517
 C259 C 0.25002 0.75008 -0.12308
 N260 N 0.22856 0.77151 -0.10517
 C261 C 0.24993 0.75001 -0.01562
 C262 C 0.24992 0.75000 0.01564
 C263 C 0.24992 0.74999 0.05285
 N264 N 0.27137 0.77142 0.07064
 N265 N 0.27138 0.77142 0.10519
 C266 C 0.24993 0.74997 0.12311
 N267 N 0.22848 0.72853 0.10520
 N268 N 0.22848 0.72855 0.07064
 N269 N -0.07056 0.22862 0.72856
 C270 C -0.05277 0.25006 0.74999
 N271 N -0.07056 0.27150 0.77143
 N272 N -0.10512 0.27151 0.77144
 C273 C -0.12303 0.25007 0.75000
 N274 N -0.10512 0.22862 0.72856
 C275 C -0.01556 0.25006 0.74999
 C276 C 0.01570 0.25005 0.75000
 C277 C 0.05290 0.25006 0.75001
 N278 N 0.07070 0.27151 0.72858
 N279 N 0.10525 0.27152 0.72858
 C280 C 0.12316 0.25007 0.75001
 N281 N 0.10525 0.22861 0.77145
 N282 N 0.07069 0.22861 0.77144
 N283 N 0.72862 0.57071 0.72853
 C284 C 0.75005 0.55290 0.74996
 N285 N 0.77149 0.57069 0.77141
 N286 N 0.77150 0.60524 0.77142
 C287 C 0.75006 0.62316 0.74998
 N288 N 0.72862 0.60526 0.72854
 C289 C 0.75004 0.51570 0.74995
 C290 C 0.75004 0.48444 0.74996
 C291 C 0.75005 0.44723 0.74997
 N292 N 0.77149 0.42945 0.77142
 N293 N 0.77150 0.39489 0.77143
 C294 C 0.75007 0.37697 0.74998
 N295 N 0.72863 0.39487 0.72853
 N296 N 0.72862 0.42943 0.72853
 N297 N 0.72858 0.22860 -0.07063
 C298 C 0.75002 0.25003 -0.05283
 N299 N 0.77146 0.27148 -0.07061
 N300 N 0.77148 0.27150 -0.10517
 C301 C 0.75004 0.25006 -0.12309
 N302 N 0.72859 0.22861 -0.10519
 C303 C 0.75000 0.25002 -0.01562
 C304 C 0.74998 0.25000 0.01563
 C305 C 0.74997 0.24998 0.05284
 N306 N 0.77141 0.22853 0.07063
 N307 N 0.77140 0.22851 0.10518
 C308 C 0.74995 0.24995 0.12310
 N309 N 0.72851 0.27140 0.10520
 N310 N 0.72853 0.27142 0.07064
 N311 N 0.57070 0.27150 0.72858
 C312 C 0.55290 0.25006 0.75002
 N313 N 0.57069 0.22863 0.77146
 N314 N 0.60525 0.22863 0.77146
 C315 C 0.62316 0.25007 0.75002
 N316 N 0.60525 0.27151 0.72857
 C317 C 0.51570 0.25004 0.75001
 C318 C 0.48444 0.25004 0.75001
 C319 C 0.44723 0.25006 0.75000
 N320 N 0.42944 0.22864 0.72855
 N321 N 0.39488 0.22864 0.72854
 C322 C 0.37697 0.25008 0.75000
 N323 N 0.39488 0.27151 0.77145
 N324 N 0.42944 0.27150 0.77145
 N325 N 0.22865 0.57069 0.72860
 C326 C 0.25009 0.55291 0.75003
 N327 N 0.27153 0.57070 0.77147
 N328 N 0.27152 0.60526 0.77148
 C329 C 0.25008 0.62316 0.75003
 N330 N 0.22864 0.60525 0.72859
 C331 C 0.25010 0.51570 0.75003
 C332 C 0.25009 0.48444 0.75004
 C333 C 0.25009 0.44723 0.75004
 N334 N 0.27152 0.42943 0.77148
 N335 N 0.27151 0.39488 0.77148
 C336 C 0.25008 0.37697 0.75003
 N337 N 0.22864 0.39489 0.72859
 N338 N 0.22865 0.42944 0.72859
 N339 N 0.22856 0.22856 -0.07064
 C340 C 0.24999 0.25000 -0.05283
 N341 N 0.27144 0.27144 -0.07061
 N342 N 0.27146 0.27146 -0.10516
 C343 C 0.25002 0.25002 -0.12309
 N344 N 0.22857 0.22857 -0.10519
 C345 C 0.24997 0.24998 -0.01562
 C346 C 0.24996 0.24996 0.01564
 C347 C 0.24996 0.24997 0.05284
 N348 N 0.27140 0.22852 0.07063
 N349 N 0.27140 0.22852 0.10519
 C350 C 0.24995 0.24996 0.12310
 N351 N 0.22851 0.27140 0.10520
 N352 N 0.22852 0.27140 0.07064
 N353 N -0.07070 0.72850 0.27143
 C354 C -0.05290 0.74995 0.25000
 N355 N -0.07069 0.77140 0.22857
 N356 N -0.10524 0.77140 0.22857
 C357 C -0.12316 0.74995 0.25000
 N358 N -0.10525 0.72849 0.27143
 C359 C -0.01569 0.74995 0.25000
 C360 C 0.01556 0.74994 0.25001
 C361 C 0.05277 0.74995 0.25002
 N362 N 0.07056 0.77138 0.27146
 N363 N 0.10511 0.77139 0.27147
 C364 C 0.12303 0.74995 0.25003
 N365 N 0.10512 0.72851 0.22858
 N366 N 0.07057 0.72851 0.22858
 N367 N 0.77141 -0.07069 0.22862
 C368 C 0.74997 -0.05290 0.25007
 N369 N 0.72851 -0.07069 0.27150
 N370 N 0.72850 -0.10525 0.27149
 C371 C 0.74995 -0.12315 0.25004
 N372 N 0.77140 -0.10524 0.22861
 C373 C 0.74996 -0.01569 0.25006
 C374 C 0.74997 0.01557 0.25005
 C375 C 0.74997 0.05278 0.25006
 N376 N 0.72853 0.07057 0.27150
 N377 N 0.72852 0.10512 0.27149
 C378 C 0.74995 0.12303 0.25004
 N379 N 0.77140 0.10512 0.22859
 N380 N 0.77141 0.07057 0.22860
 N381 N 0.72864 0.72862 0.57065
 C382 C 0.75008 0.75006 0.55285
 N383 N 0.77153 0.77150 0.57063
 N384 N 0.77153 0.77151 0.60519
 C385 C 0.75008 0.75007 0.62311
 N386 N 0.72864 0.72863 0.60520
 C387 C 0.75008 0.75005 0.51564
 C388 C 0.75006 0.75004 0.48438
 C389 C 0.75003 0.75001 0.44717
 N390 N 0.77146 0.72856 0.42937
 N391 N 0.77143 0.72853 0.39482
 C392 C 0.74997 0.74996 0.37692
 N393 N 0.72854 0.77141 0.39483
 N394 N 0.72858 0.77144 0.42939
 N395 N 0.57056 0.77138 0.27146
 C396 C 0.55277 0.74995 0.25001
 N397 N 0.57057 0.72852 0.22857
 N398 N 0.60513 0.72851 0.22857
 C399 C 0.62303 0.74994 0.25002
 N400 N 0.60511 0.77138 0.27147
 C401 C 0.51556 0.74995 0.25001
 C402 C 0.48431 0.74993 0.25001
 C403 C 0.44710 0.74994 0.25001
 N404 N 0.42930 0.72850 0.27144
 N405 N 0.39474 0.72849 0.27144
 C406 C 0.37684 0.74994 0.25000
 N407 N 0.39476 0.77139 0.22856
 N408 N 0.42931 0.77139 0.22857
 N409 N 0.27134 -0.07069 0.22854
 C410 C 0.24989 -0.05289 0.24997
 N411 N 0.22845 -0.07069 0.27142
 N412 N 0.22846 -0.10524 0.27143
 C413 C 0.24991 -0.12315 0.25000
 N414 N 0.27136 -0.10524 0.22855
 C415 C 0.24987 -0.01569 0.24995
 C416 C 0.24987 0.01557 0.24995
 C417 C 0.24988 0.05278 0.24996
 N418 N 0.22845 0.07057 0.27142
 N419 N 0.22847 0.10513 0.27144
 C420 C 0.24991 0.12304 0.24999
 N421 N 0.27135 0.10512 0.22853
 N422 N 0.27133 0.07057 0.22852
 N423 N 0.22862 0.72859 0.57066
 C424 C 0.25005 0.75002 0.55285
 N425 N 0.27150 0.77147 0.57063
 N426 N 0.27151 0.77148 0.60518
 C427 C 0.25007 0.75004 0.62311
 N428 N 0.22862 0.72859 0.60521
 C429 C 0.25004 0.75001 0.51564
 C430 C 0.25002 0.74999 0.48438
 C431 C 0.25001 0.74999 0.44717
 N432 N 0.27144 0.72854 0.42937
 N433 N 0.27142 0.72853 0.39482
 C434 C 0.24996 0.74996 0.37692
 N435 N 0.22853 0.77141 0.39484
 N436 N 0.22856 0.77142 0.42939
 N437 N -0.07069 0.22845 0.22856
 C438 C -0.05290 0.24989 0.24999
 N439 N -0.07069 0.27135 0.27142
 N440 N -0.10524 0.27136 0.27142
 C441 C -0.12316 0.24992 0.24999
 N442 N -0.10525 0.22845 0.22855
 C443 C -0.01569 0.24988 0.24999
 C444 C 0.01557 0.24988 0.25000
 C445 C 0.05277 0.24989 0.25001
 N446 N 0.07057 0.27134 0.22857
 N447 N 0.10512 0.27136 0.22858
 C448 C 0.12303 0.24992 0.25003
 N449 N 0.10512 0.22847 0.27147
 N450 N 0.07057 0.22846 0.27146
 N451 N 0.72852 0.57058 0.22852
 C452 C 0.74996 0.55278 0.24995
 N453 N 0.77139 0.57056 0.27139
 N454 N 0.77139 0.60512 0.27141
 C455 C 0.74995 0.62304 0.24998
 N456 N 0.72851 0.60513 0.22853
 C457 C 0.74995 0.51557 0.24994
 C458 C 0.74997 0.48431 0.24993
 C459 C 0.74997 0.44710 0.24994
 N460 N 0.77141 0.42932 0.27138
 N461 N 0.77141 0.39476 0.27140
 C462 C 0.74995 0.37684 0.24997
 N463 N 0.72851 0.39475 0.22853
 N464 N 0.72852 0.42931 0.22852
 N465 N 0.72861 0.27145 0.57064
 C466 C 0.75005 0.25000 0.55284
 N467 N 0.77149 0.22857 0.57063
 N468 N 0.77151 0.22858 0.60519
 C469 C 0.75007 0.25004 0.62310
 N470 N 0.72862 0.27147 0.60519
 C471 C 0.75003 0.24997 0.51563
 C472 C 0.75001 0.24996 0.48438
 C473 C 0.74999 0.24996 0.44717
 N474 N 0.77142 0.27140 0.42936
 N475 N 0.77141 0.27140 0.39481
 C476 C 0.74996 0.24996 0.37691
 N477 N 0.72853 0.22851 0.39484
 N478 N 0.72854 0.22852 0.42939
 N479 N 0.57057 0.27133 0.22857
 C480 C 0.55278 0.24989 0.25002
 N481 N 0.57057 0.22846 0.27147
 N482 N 0.60512 0.22847 0.27148
 C483 C 0.62303 0.24992 0.25003
 N484 N 0.60512 0.27135 0.22857
 C485 C 0.51557 0.24987 0.25000
 C486 C 0.48431 0.24987 0.25000
 C487 C 0.44710 0.24989 0.25000
 N488 N 0.42930 0.22845 0.22856
 N489 N 0.39475 0.22846 0.22855
 C490 C 0.37684 0.24992 0.24999
 N491 N 0.39476 0.27136 0.27143
 N492 N 0.42931 0.27134 0.27143
 N493 N 0.22845 0.57058 0.22858
 C494 C 0.24988 0.55278 0.25002
 N495 N 0.27133 0.57057 0.27146
 N496 N 0.27134 0.60512 0.27146
 C497 C 0.24991 0.62304 0.25002
 N498 N 0.22846 0.60513 0.22858
 C499 C 0.24988 0.51557 0.25002
 C500 C 0.24987 0.48431 0.25003
 C501 C 0.24988 0.44710 0.25003
 N502 N 0.27133 0.42932 0.27146
 N503 N 0.27135 0.39476 0.27146
 C504 C 0.24991 0.37685 0.25002
 N505 N 0.22845 0.39475 0.22859
 N506 N 0.22844 0.42931 0.22860
 N507 N 0.22858 0.27148 0.57064
 C508 C 0.25001 0.25002 0.55284
 N509 N 0.27147 0.22860 0.57063
 N510 N 0.27149 0.22862 0.60519
 C511 C 0.25006 0.25007 0.62310
 N512 N 0.22860 0.27150 0.60520
 C513 C 0.24998 0.24999 0.51564
 C514 C 0.24996 0.24997 0.48438
 C515 C 0.24996 0.24996 0.44717
 N516 N 0.27140 0.27140 0.42937
 N517 N 0.27140 0.27139 0.39481
 C518 C 0.24996 0.24995 0.37691
 N519 N 0.22851 0.22850 0.39483
 N520 N 0.22852 0.22852 0.42939
   
