data_POSCAR
  _audit_creation_date              2014-09-24
  _audit_creation_method            'ToBaCCo'
  _symmetry_space_group_name_H-M    'P1'
  _symmetry_Int_Tables_number       1
  _symmetry_cell_setting            triclinic
  loop_
  _symmetry_equiv_pos_as_xyz
 x,y,z
_cell_length_a 54.9654
_cell_length_b 54.4539
_cell_length_c 55.8806
_cell_angle_alpha 90.875900
_cell_angle_beta 90.360000
_cell_angle_gamma 90.911900
loop_
  _atom_site_label
  _atom_site_type_symbol
  _atom_site_fract_x
  _atom_site_fract_y
  _atom_site_fract_z
N1 N 0.59630 0.66257 0.61639
 N2 N 0.58513 0.65042 0.63338
 C3 C 0.56420 0.66175 0.63873
 C4 C 0.56228 0.68219 0.62448
 C5 C 0.58301 0.68218 0.61057
 H6 H 0.55144 0.65583 0.65219
 H7 H 0.58776 0.69515 0.59684
 Cu8 Cu 0.59942 0.62144 0.64739
 Cu9 Cu 0.62647 0.65133 0.60207
 Cu10 Cu 0.65169 0.59916 0.62608
 N11 N 0.61416 0.59249 0.66104
 N12 N 0.63479 0.58416 0.65273
 C13 C 0.64155 0.56473 0.66558
 C14 C 0.62424 0.56046 0.68311
 C15 C 0.60704 0.57854 0.67953
 H16 H 0.65801 0.55467 0.66236
 H17 H 0.59081 0.58171 0.68985
 N18 N 0.66617 0.61681 0.59909
 N19 N 0.65681 0.63683 0.59003
 C20 C 0.67041 0.64387 0.57126
 C21 C 0.68915 0.62739 0.56831
 C22 C 0.68587 0.61057 0.58636
 H23 H 0.66645 0.65928 0.55999
 H24 H 0.69685 0.59471 0.58977
 H25 H 0.62152 0.61479 0.61022
 H26 H 0.63908 0.63430 0.63226
 N27 N 0.90437 0.33523 0.11277
 N28 N 0.91379 0.34472 0.13257
 C29 C 0.93323 0.33150 0.13898
 C30 C 0.93637 0.31277 0.12214
 C31 C 0.91757 0.31585 0.10577
 H32 H 0.94449 0.33560 0.15448
 H33 H 0.91354 0.30483 0.08997
 Cu34 Cu 0.90018 0.37400 0.14742
 Cu35 Cu 0.87562 0.34851 0.09742
 Cu36 Cu 0.85049 0.39994 0.12411
 N37 N 0.88567 0.40278 0.16238
 N38 N 0.86621 0.41269 0.15309
 C39 C 0.85969 0.43202 0.16670
 C40 C 0.87592 0.43450 0.18566
 C41 C 0.89225 0.41560 0.18229
 H42 H 0.84430 0.44348 0.16295
 H43 H 0.90753 0.41132 0.19367
 N44 N 0.83716 0.38439 0.09474
 N45 N 0.84652 0.36464 0.08467
 C46 C 0.83333 0.35851 0.06499
 C47 C 0.81488 0.37532 0.06249
 C48 C 0.81791 0.39143 0.08169
 H49 H 0.83714 0.34326 0.05307
 H50 H 0.80679 0.40708 0.08591
 H51 H 0.88108 0.38419 0.10940
 H52 H 0.86134 0.36399 0.12809
 N53 N 0.40088 0.16356 -0.11396
 N54 N 0.41427 0.15099 -0.12904
 C55 C 0.43393 0.16460 -0.13491
 C56 C 0.43274 0.18699 -0.12295
 C57 C 0.41147 0.18569 -0.10984
 H58 H 0.44788 0.15874 -0.14721
 H59 H 0.40451 0.19959 -0.09780
 Cu60 Cu 0.40476 0.11825 -0.14003
 Cu61 Cu 0.37154 0.14964 -0.09981
 Cu62 Cu 0.35010 0.09481 -0.12451
 N63 N 0.38972 0.09086 -0.15748
 N64 N 0.36830 0.08186 -0.15158
 C65 C 0.36220 0.06340 -0.16687
 C66 C 0.38084 0.06065 -0.18326
 C67 C 0.39801 0.07844 -0.17668
 H68 H 0.34551 0.05270 -0.16599
 H69 H 0.41509 0.08239 -0.18540
 N70 N 0.33447 0.11115 -0.09704
 N71 N 0.34236 0.13233 -0.08794
 C72 C 0.32828 0.13856 -0.06925
 C73 C 0.31073 0.12035 -0.06632
 C74 C 0.31523 0.10327 -0.08430
 H75 H 0.33110 0.15474 -0.05808
 H76 H 0.30531 0.08627 -0.08777
 H77 H 0.37812 0.11270 -0.10583
 H78 H 0.36343 0.12981 -0.13081
 N79 N 0.09731 0.83697 0.38014
 N80 N 0.08436 0.85063 0.36587
 C81 C 0.06364 0.83852 0.35987
 C82 C 0.06353 0.81581 0.37089
 C83 C 0.08539 0.81553 0.38354
 H84 H 0.04987 0.84577 0.34817
 H85 H 0.09187 0.80126 0.39507
 Cu86 Cu 0.09555 0.88293 0.35616
 Cu87 Cu 0.12757 0.84898 0.39482
 Cu88 Cu 0.15178 0.90273 0.37224
 N89 N 0.11190 0.90967 0.33982
 N90 N 0.13395 0.91717 0.34587
 C91 C 0.14076 0.93567 0.33154
 C92 C 0.12191 0.94005 0.31564
 C93 C 0.10388 0.92314 0.32148
 H94 H 0.15802 0.94541 0.33283
 H95 H 0.08633 0.92057 0.31289
 N96 N 0.16684 0.88518 0.39894
 N97 N 0.15782 0.86446 0.40735
 C98 C 0.17146 0.85757 0.42612
 C99 C 0.18991 0.87486 0.42981
 C100 C 0.18640 0.89207 0.41218
 H101 H 0.16763 0.84171 0.43695
 H102 H 0.19702 0.90864 0.40943
 H103 H 0.12304 0.88630 0.39039
 H104 H 0.13617 0.86859 0.36459
 N105 N 0.09914 0.16544 0.11459
 N106 N 0.09004 0.15731 0.13472
 C107 C 0.07095 0.17120 0.14092
 C108 C 0.06781 0.18884 0.12363
 C109 C 0.08606 0.18461 0.10719
 H110 H 0.05970 0.16831 0.15645
 H111 H 0.08959 0.19474 0.09105
 Cu112 Cu 0.10330 0.12854 0.15003
 Cu113 Cu 0.12713 0.15052 0.09934
 Cu114 Cu 0.15130 0.09942 0.12655
 N115 N 0.11684 0.09974 0.16504
 N116 N 0.13567 0.08850 0.15586
 C117 C 0.14105 0.06908 0.16945
 C118 C 0.12460 0.06797 0.18812
 C119 C 0.10951 0.08777 0.18470
 H120 H 0.15551 0.05639 0.16569
 H121 H 0.09432 0.09305 0.19571
 N122 N 0.16451 0.11335 0.09683
 N123 N 0.15543 0.13294 0.08666
 C124 C 0.16841 0.13808 0.06695
 C125 C 0.18647 0.12085 0.06446
 C126 C 0.18341 0.10542 0.08372
 H127 H 0.16477 0.15307 0.05506
 H128 H 0.19433 0.08974 0.08801
 H129 H 0.12092 0.11548 0.11206
 H130 H 0.14195 0.13584 0.13000
 N131 N 0.40053 0.83162 0.61385
 N132 N 0.41258 0.84306 0.63120
 C133 C 0.43242 0.83006 0.63674
 C134 C 0.43269 0.80927 0.62223
 C135 C 0.41213 0.81082 0.60795
 H136 H 0.44549 0.83505 0.65059
 H137 H 0.40631 0.79800 0.59401
 Cu138 Cu 0.40046 0.87319 0.64559
 Cu139 Cu 0.37142 0.84517 0.59940
 Cu140 Cu 0.35017 0.89956 0.62408
 N141 N 0.38802 0.90331 0.65970
 N142 N 0.36810 0.91330 0.65148
 C143 C 0.36296 0.93322 0.66498
 C144 C 0.38065 0.93592 0.68264
 C145 C 0.39628 0.91659 0.67867
 H146 H 0.34748 0.94484 0.66213
 H147 H 0.41211 0.91216 0.68921
 N148 N 0.33459 0.88280 0.59631
 N149 N 0.34242 0.86190 0.58718
 C150 C 0.32846 0.85552 0.56811
 C151 C 0.31105 0.87330 0.56498
 C152 C 0.31550 0.89029 0.58325
 H153 H 0.33130 0.83957 0.55679
 H154 H 0.30570 0.90702 0.58663
 H155 H 0.37897 0.88151 0.60839
 H156 H 0.35990 0.86367 0.62975
 N157 N 0.90290 0.66296 0.38561
 N158 N 0.91580 0.64906 0.37120
 C159 C 0.93599 0.66157 0.36474
 C160 C 0.93555 0.68463 0.37549
 C161 C 0.91427 0.68486 0.38857
 H162 H 0.94973 0.65459 0.35277
 H163 H 0.90781 0.69969 0.39982
 Cu164 Cu 0.90476 0.61628 0.36147
 Cu165 Cu 0.87314 0.65114 0.40060
 Cu166 Cu 0.84927 0.59636 0.37846
 N167 N 0.88832 0.58864 0.34546
 N168 N 0.86659 0.58115 0.35209
 C169 C 0.85912 0.56248 0.33770
 C170 C 0.87710 0.55794 0.32104
 C171 C 0.89546 0.57490 0.32658
 H172 H 0.84178 0.55302 0.33925
 H173 H 0.91243 0.57754 0.31721
 N174 N 0.83451 0.61462 0.40511
 N175 N 0.84336 0.63574 0.41343
 C176 C 0.82967 0.64325 0.43200
 C177 C 0.81137 0.62591 0.43559
 C178 C 0.81503 0.60808 0.41813
 H179 H 0.83326 0.65965 0.44266
 H180 H 0.80446 0.59139 0.41525
 H181 H 0.87830 0.61392 0.39622
 H182 H 0.86422 0.63051 0.37055
 N183 N 0.59472 0.34056 -0.11589
 N184 N 0.58239 0.35397 -0.13094
 C185 C 0.56136 0.34223 -0.13667
 C186 C 0.56052 0.32020 -0.12465
 C187 C 0.58204 0.31974 -0.11166
 H188 H 0.54784 0.34910 -0.14889
 H189 H 0.58780 0.30559 -0.09960
 Cu190 Cu 0.59485 0.38534 -0.14206
 Cu191 Cu 0.62555 0.35174 -0.10186
 Cu192 Cu 0.65179 0.40332 -0.12662
 N193 N 0.61218 0.41094 -0.15923
 N194 N 0.63454 0.41758 -0.15335
 C195 C 0.64238 0.43498 -0.16840
 C196 C 0.62395 0.43958 -0.18465
 C197 C 0.60499 0.42399 -0.17822
 H198 H 0.66018 0.44369 -0.16750
 H199 H 0.58748 0.42187 -0.18701
 N200 N 0.66632 0.38624 -0.09945
 N201 N 0.65656 0.36629 -0.09016
 C202 C 0.67031 0.35942 -0.07144
 C203 C 0.68956 0.37597 -0.06874
 C204 C 0.68643 0.39267 -0.08687
 H205 H 0.66611 0.34408 -0.06004
 H206 H 0.69779 0.40855 -0.09048
 H207 H 0.62239 0.38888 -0.10781
 H208 H 0.63474 0.36954 -0.13289
 C209 C -0.00824 0.26007 0.12037
 C210 C -0.02463 0.26141 0.10114
 C211 C -0.04310 0.27866 0.10181
 C212 C -0.04530 0.29491 0.12151
 C213 C -0.02850 0.29270 0.14049
 N214 N -0.01084 0.27552 0.13950
 C215 C 0.01146 0.24193 0.12055
 N216 N 0.01875 0.23243 0.14177
 C217 C 0.03662 0.21552 0.14319
 C218 C 0.04854 0.20746 0.12243
 C219 C 0.04162 0.21736 0.10043
 C220 C 0.02306 0.23450 0.09940
 H221 H -0.05538 0.27923 0.08665
 H222 H -0.02937 0.30434 0.15628
 H223 H 0.04162 0.20858 0.16055
 H224 H 0.05027 0.21164 0.08396
 H225 H -0.02350 0.24901 0.08588
 H226 H 0.01813 0.24207 0.08228
 C227 C 0.50490 0.73414 0.62295
 C228 C 0.49981 0.70990 0.62973
 C229 C 0.51858 0.69295 0.63043
 C230 C 0.54228 0.70001 0.62403
 C231 C 0.54659 0.72440 0.61730
 N232 N 0.52811 0.74070 0.61717
 C233 C 0.48583 0.75290 0.62257
 N234 N 0.49175 0.77648 0.62894
 C235 C 0.47509 0.79466 0.62910
 C236 C 0.45094 0.78963 0.62212
 C237 C 0.44452 0.76555 0.61507
 C238 C 0.46186 0.74709 0.61544
 H239 H 0.51449 0.67430 0.63570
 H240 H 0.56469 0.73064 0.61253
 H241 H 0.48084 0.81307 0.63436
 H242 H 0.42606 0.76091 0.60960
 H243 H 0.48165 0.70421 0.63489
 H244 H 0.45666 0.72862 0.60984
 C245 C 1.00803 0.76150 0.37011
 C246 C 1.00373 0.78429 0.35970
 C247 C 1.02222 0.80211 0.35954
 C248 C 1.04502 0.79756 0.37009
 C249 C 1.04855 0.77425 0.38004
 N250 N 1.03032 0.75707 0.37965
 C251 C 0.98889 0.74221 0.37093
 N252 N 0.99520 0.71820 0.36876
 C253 C 0.97846 0.69957 0.36973
 C254 C 0.95385 0.70467 0.37365
 C255 C 0.94701 0.72927 0.37620
 C256 C 0.96443 0.74808 0.37468
 H257 H 1.01826 0.81957 0.35156
 H258 H 1.06576 0.76941 0.38799
 H259 H 0.98448 0.68081 0.36793
 H260 H 0.92820 0.73397 0.37919
 H261 H 0.98634 0.78824 0.35155
 H262 H 0.95887 0.76695 0.37697
 C263 C 0.48476 0.24611 -0.12487
 C264 C 0.46056 0.25099 -0.11876
 C265 C 0.44356 0.23169 -0.11809
 C266 C 0.45054 0.20763 -0.12369
 C267 C 0.47490 0.20356 -0.12976
 N268 N 0.49120 0.22258 -0.12998
 C269 C 0.50367 0.26570 -0.12512
 N270 N 0.52704 0.25993 -0.11964
 C271 C 0.54538 0.27697 -0.11933
 C272 C 0.54074 0.30145 -0.12513
 C273 C 0.51686 0.30771 -0.13128
 C274 C 0.49828 0.28994 -0.13120
 H275 H 0.42495 0.23565 -0.11335
 H276 H 0.48114 0.18525 -0.13391
 H277 H 0.56359 0.27127 -0.11482
 H278 H 0.51247 0.32637 -0.13584
 H279 H 0.45488 0.26936 -0.11404
 H280 H 0.48003 0.29509 -0.13620
 C281 C 0.11992 -0.00527 0.26140
 C282 C 0.09818 -0.01669 0.26873
 C283 C 0.09883 -0.03455 0.28634
 C284 C 0.12105 -0.04115 0.29674
 C285 C 0.14240 -0.02949 0.28873
 N286 N 0.14132 -0.01220 0.27146
 C287 C 0.12035 0.01371 0.24271
 N288 N 0.14093 0.01700 0.22963
 C289 C 0.14270 0.03407 0.21218
 C290 C 0.12302 0.04934 0.20717
 C291 C 0.10175 0.04651 0.22070
 C292 C 0.10034 0.02879 0.23842
 H293 H 0.08188 -0.04300 0.29190
 H294 H 0.15998 -0.03419 0.29596
 H295 H 0.15958 0.03578 0.20247
 H296 H 0.08609 0.05781 0.21753
 H297 H 0.08084 -0.01226 0.26074
 H298 H 0.08388 0.02730 0.24885
 C299 C 0.62578 0.50755 -0.26257
 C300 C 0.64492 0.50897 -0.27896
 C301 C 0.64428 0.52625 -0.29707
 C302 C 0.62459 0.54234 -0.29909
 C303 C 0.60547 0.53981 -0.28256
 N304 N 0.60655 0.52274 -0.26507
 C305 C 0.62594 0.48988 -0.24271
 N306 N 0.60442 0.48146 -0.23382
 C307 C 0.60329 0.46533 -0.21548
 C308 C 0.62474 0.45699 -0.20475
 C309 C 0.64710 0.46570 -0.21346
 C310 C 0.64779 0.48208 -0.23237
 H311 H 0.65945 0.52690 -0.30925
 H312 H 0.58965 0.55130 -0.28332
 H313 H 0.58565 0.45934 -0.20915
 H314 H 0.66413 0.45978 -0.20582
 H315 H 0.66019 0.49671 -0.27807
 H316 H 0.66527 0.48884 -0.23844
 C317 C 0.38421 1.00834 0.75888
 C318 C 0.40549 1.02086 0.76649
 C319 C 0.40438 1.03794 0.78531
 C320 C 0.38217 1.04268 0.79660
 C321 C 0.36127 1.02999 0.78825
 N322 N 0.36280 1.01348 0.76984
 C323 C 0.38426 0.98997 0.73908
 N324 N 0.36330 0.98551 0.72653
 C325 C 0.36179 0.96866 0.70835
 C326 C 0.38215 0.95479 0.70202
 C327 C 0.40390 0.95895 0.71485
 C328 C 0.40505 0.97646 0.73333
 H329 H 0.42099 1.04725 0.79106
 H330 H 0.34368 1.03327 0.79613
 H331 H 0.34456 0.96590 0.69919
 H332 H 0.42009 0.94875 0.71064
 H333 H 0.42277 1.01787 0.75787
 H334 H 0.42189 0.97889 0.74325
 C335 C 0.87442 0.48750 0.24302
 C336 C 0.85393 0.48409 0.22815
 C337 C 0.85448 0.46687 0.20948
 C338 C 0.87540 0.45301 0.20539
 C339 C 0.89566 0.45723 0.22045
 N340 N 0.89470 0.47418 0.23856
 C341 C 0.87456 0.50543 0.26321
 N342 N 0.89602 0.51596 0.27059
 C343 C 0.89734 0.53271 0.28891
 C344 C 0.87619 0.53962 0.30112
 C345 C 0.85397 0.52867 0.29399
 C346 C 0.85308 0.51161 0.27517
 H347 H 0.83838 0.46435 0.19843
 H348 H 0.91229 0.44723 0.21780
 H349 H 0.91491 0.54044 0.29397
 H350 H 0.83715 0.53336 0.30276
 H351 H 0.83769 0.49479 0.23061
 H352 H 0.83576 0.50315 0.27038
 C353 C 0.25747 0.11691 -0.01084
 C354 C 0.26346 0.09541 -0.02354
 C355 C 0.28068 0.09653 -0.04176
 C356 C 0.29201 0.11897 -0.04739
 C357 C 0.28528 0.14008 -0.03446
 N358 N 0.26838 0.13855 -0.01688
 C359 C 0.23927 0.11696 0.00857
 N360 N 0.22731 0.13811 0.01357
 C361 C 0.21046 0.13973 0.03118
 C362 C 0.20490 0.11928 0.04527
 C363 C 0.21727 0.09738 0.04068
 C364 C 0.23441 0.09612 0.02238
 H365 H 0.28527 0.07976 -0.05121
 H366 H 0.29325 0.15784 -0.03838
 H367 H 0.20168 0.15712 0.03428
 H368 H 0.21361 0.08114 0.05106
 H369 H 0.25475 0.07795 -0.01978
 H370 H 0.24398 0.07914 0.01946
 C371 C 0.74144 0.62503 0.51191
 C372 C 0.73713 0.60411 0.52570
 C373 C 0.72025 0.60498 0.54416
 C374 C 0.70760 0.62664 0.54907
 C375 C 0.71273 0.64732 0.53514
 N376 N 0.72936 0.64605 0.51722
 C377 C 0.75901 0.62479 0.49196
 N378 N 0.77090 0.64596 0.48607
 C379 C 0.78753 0.64684 0.46815
 C380 C 0.79290 0.62554 0.45482
 C381 C 0.78045 0.60367 0.46032
 C382 C 0.76354 0.60322 0.47877
 H383 H 0.71696 0.58852 0.55432
 H384 H 0.70368 0.66451 0.53849
 H385 H 0.79642 0.66419 0.46433
 H386 H 0.78391 0.58675 0.45063
 H387 H 0.74687 0.58726 0.52254
 H388 H 0.75397 0.58618 0.48240
 C389 C 0.76161 0.37796 0.00649
 C390 C 0.76674 0.39909 0.02043
 C391 C 0.78404 0.39819 0.03873
 C392 C 0.79631 0.37632 0.04323
 C393 C 0.79047 0.35552 0.02904
 N394 N 0.77342 0.35681 0.01137
 C395 C 0.74339 0.37802 -0.01309
 N396 N 0.73090 0.35691 -0.01874
 C397 C 0.71373 0.35578 -0.03638
 C398 C 0.70848 0.37671 -0.04972
 C399 C 0.72149 0.39852 -0.04446
 C400 C 0.73890 0.39927 -0.02621
 H401 H 0.78793 0.41471 0.04915
 H402 H 0.79922 0.33818 0.03210
 H403 H 0.70438 0.33848 -0.04004
 H404 H 0.71807 0.41516 -0.05418
 H405 H 0.75727 0.41607 0.01756
 H406 H 0.74890 0.41623 -0.02271
 C407 C 0.24175 0.87711 0.48738
 C408 C 0.23748 0.89843 0.47427
 C409 C 0.22078 0.89764 0.45536
 C410 C 0.20825 0.87571 0.44941
 C411 C 0.21334 0.85471 0.46272
 N412 N 0.22976 0.85590 0.48102
 C413 C 0.25926 0.87688 0.50762
 N414 N 0.27004 0.85539 0.51332
 C415 C 0.28642 0.85377 0.53154
 C416 C 0.29272 0.87463 0.54548
 C417 C 0.28143 0.89686 0.54022
 C418 C 0.26475 0.89808 0.52138
 H419 H 0.21754 0.91432 0.44565
 H420 H 0.20441 0.83731 0.45857
 H421 H 0.29435 0.83615 0.53514
 H422 H 0.28564 0.91344 0.55044
 H423 H 0.24712 0.91549 0.47825
 H424 H 0.25608 0.91537 0.51793
   
