data_POSCAR
  _audit_creation_date              2014-09-24
  _audit_creation_method            'ToBaCCo'
  _symmetry_space_group_name_H-M    'P1'
  _symmetry_Int_Tables_number       1
  _symmetry_cell_setting            triclinic
  loop_
  _symmetry_equiv_pos_as_xyz
 x,y,z
_cell_length_a 19.5937
_cell_length_b 18.9003
_cell_length_c 52.2437
_cell_angle_alpha 82.340300
_cell_angle_beta 90.482000
_cell_angle_gamma 119.976900
loop_
  _atom_site_label
  _atom_site_type_symbol
  _atom_site_fract_x
  _atom_site_fract_y
  _atom_site_fract_z
C1 C -0.05264 0.13721 0.51878
 H2 H -0.01041 0.17740 0.50291
 C3 C -0.06634 0.17181 0.53867
 H4 H -0.03466 0.23839 0.53761
 C5 C -0.13810 0.00239 0.54076
 H6 H -0.16280 -0.06361 0.54195
 C7 C -0.15283 0.03448 0.56132
 H8 H -0.18922 -0.00842 0.57792
 N9 N -0.08670 0.05390 0.52048
 C10 C -0.05194 -0.13938 0.51905
 H11 H -0.09097 -0.16482 0.50392
 C12 C -0.04337 -0.19258 0.53824
 H13 H -0.07607 -0.25828 0.53745
 C14 C 0.03030 -0.02470 0.54000
 H15 H 0.05581 0.04039 0.54112
 C16 C 0.04014 -0.07589 0.55976
 H17 H 0.07303 -0.04853 0.57587
 Zn18 Zn -0.04618 0.00946 0.49861
 N19 N -0.01643 -0.05731 0.52048
 C20 C 0.11556 0.11231 0.47829
 N21 N 0.03979 0.09594 0.47704
 C22 C 0.01894 0.13610 0.45792
 C23 C 0.07483 0.19482 0.43886
 C24 C 0.17399 0.17165 0.45962
 C25 C -0.19681 -0.07509 0.47594
 C26 C -0.24420 -0.11849 0.45684
 C27 C -0.13106 -0.11724 0.43823
 C28 C -0.08678 -0.07513 0.45763
 N29 N -0.11979 -0.05488 0.47596
 H30 H 0.13023 0.07757 0.49319
 H31 H -0.04225 0.11997 0.45697
 H32 H 0.05504 0.22198 0.42313
 H33 H 0.23304 0.18095 0.46032
 H34 H -0.22105 -0.05613 0.49036
 H35 H -0.30417 -0.13054 0.45692
 H36 H -0.10156 -0.12942 0.42342
 H37 H -0.02486 -0.05659 0.45780
 C38 C 0.00219 -0.16163 0.55926
 C39 C -0.11483 0.12069 0.56082
 C40 C -0.21187 -0.14163 0.43760
 C41 C 0.15416 0.21467 0.43960
 C42 C 1.22272 0.14614 0.12705
 H43 H 1.23643 0.20887 0.12763
 C44 C 1.26750 0.13115 0.11032
 H45 H 1.31695 0.18314 0.09870
 C46 C 1.13991 0.00272 0.14084
 H47 H 1.08938 -0.04719 0.15257
 C48 C 1.18223 -0.01514 0.12392
 H49 H 1.16457 -0.07906 0.12370
 N50 N 1.15897 0.08220 0.14140
 C51 C 0.95797 0.11945 0.14189
 H52 H 0.94226 0.11083 0.16231
 C53 C 0.90362 0.11634 0.12385
 H54 H 0.84704 0.10542 0.13094
 C55 C 1.04603 0.13195 0.10858
 H56 H 1.09972 0.13442 0.10256
 C57 C 0.99385 0.12940 0.08998
 H58 H 1.00868 0.12935 0.07007
 Zn59 Zn 1.08891 0.10439 0.15897
 N60 N 1.02689 0.12519 0.13409
 C61 C 1.10555 0.22353 0.18970
 N62 N 1.14555 0.19389 0.17786
 C63 C 1.22155 0.21732 0.18289
 C64 C 1.25927 0.27044 0.20093
 C65 C 1.14077 0.27608 0.20820
 C66 C 0.95042 -0.04908 0.17586
 C67 C 0.89353 -0.11030 0.19448
 C68 C 0.98234 -0.04865 0.22755
 C69 C 1.03722 0.01119 0.20836
 N70 N 1.01980 0.01114 0.18315
 H71 H 1.04454 0.20242 0.18600
 H72 H 1.25151 0.19043 0.17437
 H73 H 1.31846 0.28487 0.20551
 H74 H 1.10525 0.29416 0.21815
 H75 H 0.93760 -0.04724 0.15568
 H76 H 0.83717 -0.15383 0.18813
 H77 H 0.99597 -0.04435 0.24760
 H78 H 1.09250 0.05987 0.21378
 C79 C 0.92075 0.12031 0.09739
 C80 C 1.24446 0.04952 0.10723
 C81 C 0.90869 -0.11025 0.22089
 C82 C 1.21835 0.29874 0.21458
 C83 C 0.06841 0.84440 0.87511
 H84 H 0.01849 0.78270 0.87557
 C85 C 0.12858 0.85780 0.89160
 H86 H 0.12553 0.80533 0.90391
 C87 C 0.13056 0.98739 0.85928
 H88 H 0.13025 1.03788 0.84691
 C89 C 0.19107 1.00385 0.87605
 H90 H 0.23791 1.06704 0.87554
 N91 N 0.06930 0.90901 0.85983
 C92 C -0.17417 0.85897 0.86275
 H93 H -0.18966 0.85717 0.84289
 C94 C -0.22476 0.85971 0.88141
 H95 H -0.27786 0.85860 0.87505
 C96 C -0.08108 0.87443 0.89377
 H97 H -0.02369 0.88441 0.89860
 C98 C -0.12965 0.87471 0.91296
 H99 H -0.10763 0.88496 0.93200
 Zn100 Zn -0.02355 0.88995 0.84305
 N101 N -0.10281 0.86834 0.86903
 C102 C -0.11698 0.78696 0.80758
 N103 N -0.05548 0.80341 0.82273
 C104 C -0.00853 0.77067 0.81976
 C105 C -0.02137 0.72129 0.80065
 C106 C -0.13139 0.73855 0.78795
 C107 C -0.03596 1.03065 0.82364
 C108 C -0.03302 1.08971 0.80383
 C109 C 0.04148 1.05575 0.77629
 C110 C 0.03716 0.99743 0.79664
 N111 N -0.00290 0.98449 0.81948
 H112 H -0.15134 0.81651 0.80934
 H113 H 0.04270 0.78743 0.83076
 H114 H 0.01937 0.69953 0.79786
 H115 H -0.17768 0.73157 0.77542
 H116 H -0.06772 1.01932 0.84191
 H117 H -0.06416 1.12185 0.80711
 H118 H 0.06871 1.05989 0.75784
 H119 H 0.06164 0.95873 0.79370
 C120 C -0.20274 0.86847 0.90715
 C121 C 0.18813 0.93894 0.89368
 C122 C 0.00561 1.10282 0.77959
 C123 C -0.08199 0.70633 0.78384
 C124 C 0.35423 -0.00474 0.00047
 C125 C 0.38352 -0.01543 -0.02219
 C126 C 0.45664 -0.01248 -0.02208
 C127 C 0.49580 -0.00816 0.00103
 C128 C 0.46158 -0.00264 0.02387
 C129 C 0.39311 0.00367 0.02345
 C130 C 0.57195 -0.00946 0.00140
 C131 C 0.62601 0.02613 0.02030
 C132 C 0.69595 0.02268 0.02152
 C133 C 0.71466 -0.01057 0.00209
 C134 C 0.66373 -0.04461 -0.01750
 C135 C 0.59126 -0.04587 -0.01715
 H136 H 0.29955 -0.00344 0.00026
 H137 H 0.48363 -0.01192 -0.04003
 H138 H 0.48729 -0.00496 0.04204
 H139 H 0.61417 0.05783 0.03368
 H140 H 0.77036 -0.00983 0.00220
 H141 H 0.54997 -0.07462 -0.03130
 C142 C -0.05069 0.62786 0.67063
 C143 C -0.06636 0.57515 0.69414
 C144 C -0.07422 0.49735 0.69354
 C145 C -0.05875 0.47560 0.67041
 C146 C -0.03891 0.53184 0.64735
 C147 C -0.03702 0.60737 0.64706
 C148 C -0.06228 0.39457 0.67057
 C149 C -0.08494 0.35308 0.64883
 C150 C -0.08492 0.27872 0.64851
 C151 C -0.06679 0.24369 0.67111
 C152 C -0.04681 0.28197 0.69346
 C153 C -0.04171 0.35913 0.69251
 H154 H -0.04830 0.68640 0.67069
 H155 H -0.09347 0.45270 0.71088
 H156 H -0.02473 0.51625 0.62987
 H157 H -0.10174 0.37972 0.63226
 H158 H -0.06718 0.18610 0.67119
 H159 H -0.01997 0.39332 0.70846
 C160 C 0.70239 0.74720 0.32756
 C161 C 0.68012 0.71067 0.30498
 C162 C 0.60536 0.63984 0.30537
 C163 C 0.55116 0.60918 0.32721
 C164 C 0.57419 0.65044 0.34909
 C165 C 0.65011 0.71933 0.34965
 C166 C 0.47120 0.53368 0.32716
 C167 C 0.43086 0.48144 0.35044
 C168 C 0.35503 0.41204 0.35058
 C169 C 0.32054 0.39460 0.32687
 C170 C 0.36171 0.44081 0.30322
 C171 C 0.43503 0.51289 0.30370
 H172 H 0.76193 0.79844 0.32778
 H173 H 0.58968 0.60731 0.28897
 H174 H 0.53359 0.62799 0.36590
 H175 H 0.45796 0.49541 0.36849
 H176 H 0.26127 0.34288 0.32662
 H177 H 0.46326 0.55393 0.28594
 C178 C -0.11329 0.16034 0.58456
 C179 C -0.03148 0.19634 0.59551
 C180 C -0.02340 0.23650 0.61595
 C181 C -0.09794 0.23728 0.62432
 C182 C -0.11929 0.27424 0.59943
 C183 C -0.12740 0.23385 0.57885
 C184 C -0.17177 0.10557 0.60800
 C185 C -0.16351 0.14582 0.62864
 H186 H 0.01657 0.19080 0.58772
 H187 H 0.03168 0.26553 0.62538
 H188 H -0.13110 0.32471 0.59781
 H189 H -0.14518 0.25089 0.56039
 H190 H -0.21934 0.04268 0.60816
 H191 H -0.20281 0.11628 0.64605
 C192 C 0.84464 0.83515 0.24237
 C193 C 0.81287 0.88492 0.25357
 C194 C 0.75748 0.84191 0.27350
 C195 C 0.73793 0.75201 0.28107
 C196 C 0.71445 0.71490 0.25558
 C197 C 0.77030 0.75811 0.23547
 C198 C 0.87340 0.80059 0.26568
 C199 C 0.81802 0.75765 0.28579
 H200 H 0.83147 0.94876 0.24605
 H201 H 0.72893 0.86925 0.28285
 H202 H 0.66119 0.65807 0.25325
 H203 H 0.76336 0.73559 0.21705
 H204 H 0.93148 0.80668 0.26599
 H205 H 0.82931 0.72777 0.30319
 C206 C 0.24326 -0.04612 -0.08429
 C207 C 0.19976 -0.10168 -0.05864
 C208 C 0.24733 -0.09342 -0.03893
 C209 C 0.33474 -0.02780 -0.04583
 C210 C 0.35727 -0.05541 -0.06933
 C211 C 0.30949 -0.06478 -0.08931
 C212 C 0.28601 0.04173 -0.07692
 C213 C 0.33370 0.05103 -0.05705
 H214 H 0.13643 -0.14362 -0.05596
 H215 H 0.22436 -0.13009 -0.01994
 H216 H 0.40384 -0.07026 -0.07013
 H217 H 0.31696 -0.08562 -0.10691
 H218 H 0.27705 0.09179 -0.08534
 H219 H 0.36603 0.10895 -0.04939
 C220 C -0.00280 0.77763 0.58249
 C221 C 0.05865 0.81181 0.60282
 C222 C 0.04794 0.75450 0.62357
 C223 C -0.02284 0.66764 0.62242
 C224 C -0.09374 0.68067 0.61827
 C225 C -0.08319 0.73785 0.59770
 C226 C 0.00355 0.70434 0.57554
 C227 C -0.00725 0.64671 0.59624
 H228 H 0.10986 0.87341 0.60050
 H229 H 0.08885 0.76861 0.63880
 H230 H -0.14831 0.64703 0.63049
 H231 H -0.12858 0.75315 0.59255
 H232 H 0.01784 0.69939 0.55607
 H233 H -0.00212 0.59371 0.59363
 C234 C 0.25565 0.34184 0.23782
 C235 C 0.33937 0.41674 0.23142
 C236 C 0.37635 0.45125 0.25243
 C237 C 0.32585 0.40837 0.27830
 C238 C 0.24872 0.40930 0.27359
 C239 C 0.21208 0.37501 0.25252
 C240 C 0.26599 0.28284 0.25857
 C241 C 0.30302 0.31739 0.27934
 H242 H 0.36765 0.44011 0.21199
 H243 H 0.43645 0.50251 0.25031
 H244 H 0.22640 0.43762 0.28531
 H245 H 0.15965 0.37630 0.24657
 H246 H 0.24636 0.21887 0.25692
 H247 H 0.31553 0.28288 0.29514
 C248 C 0.75583 -0.11428 -0.07385
 C249 C 0.67389 -0.13572 -0.07816
 C250 C 0.63913 -0.11311 -0.05890
 C251 C 0.69274 -0.07366 -0.03887
 C252 C 0.71649 -0.13328 -0.02841
 C253 C 0.75075 -0.15588 -0.04755
 C254 C 0.79755 -0.02605 -0.07214
 C255 C 0.76306 -0.00395 -0.05314
 H256 H 0.63707 -0.17795 -0.09112
 H257 H 0.57594 -0.13777 -0.05747
 H258 H 0.70351 -0.16348 -0.00844
 H259 H 0.76441 -0.20504 -0.04296
 H260 H 0.84863 0.02009 -0.08476
 H261 H 0.78612 0.05995 -0.05046
 C262 C 0.28419 0.03436 0.08526
 C263 C 0.36747 0.05009 0.09079
 C264 C 0.40563 0.04079 0.07090
 C265 C 0.35686 0.01609 0.04696
 C266 C 0.27879 -0.06192 0.05748
 C267 C 0.24065 -0.05266 0.07726
 C268 C 0.29603 0.09214 0.05985
 C269 C 0.33498 0.08378 0.04021
 H270 H 0.39494 0.06914 0.10866
 H271 H 0.46601 0.05401 0.07205
 H272 H 0.25417 -0.11920 0.04940
 H273 H 0.18284 -0.10207 0.08513
 H274 H 0.27511 0.13590 0.05735
 H275 H 0.34861 0.12192 0.02141
 C276 C 0.74568 0.81962 0.41585
 C277 C 0.76050 0.75456 0.41001
 C278 C 0.72627 0.72114 0.38723
 C279 C 0.68152 0.75675 0.37445
 C280 C 0.62374 0.74570 0.39459
 C281 C 0.65901 0.77977 0.41754
 C282 C 0.77142 0.88020 0.39228
 C283 C 0.73584 0.84606 0.36971
 H284 H 0.78911 0.72840 0.42269
 H285 H 0.72887 0.66951 0.38131
 H286 H 0.56080 0.71831 0.39259
 H287 H 0.62276 0.77200 0.43439
 H288 H 0.80853 0.94644 0.39200
 H289 H 0.74274 0.88520 0.35157
 C290 C -0.00405 0.15531 0.75667
 C291 C -0.00140 0.23385 0.76303
 C292 C -0.01581 0.27693 0.74278
 C293 C -0.03035 0.23860 0.71748
 C294 C 0.04254 0.23015 0.71294
 C295 C 0.05664 0.18730 0.73331
 C296 C -0.08476 0.10642 0.74558
 C297 C -0.09860 0.14961 0.72538
 H298 H 0.01151 0.25462 0.78179
 H299 H -0.01716 0.33209 0.74532
 H300 H 0.08220 0.25929 0.69560
 H301 H 0.10943 0.18236 0.73321
 H302 H -0.12806 0.04299 0.75327
 H303 H -0.15392 0.12298 0.71601
 C304 C 0.85802 0.09879 0.07773
 C305 C 0.82221 0.00813 0.07394
 C306 C 0.76750 -0.01594 0.05609
 C307 C 0.75282 0.05261 0.04295
 C308 C 0.73098 0.08343 0.06585
 C309 C 0.78613 0.10789 0.08388
 C310 C 0.88947 0.14869 0.05048
 C311 C 0.83492 0.12437 0.03243
 H312 H 0.83747 -0.03442 0.08492
 H313 H 0.73613 -0.07905 0.05200
 H314 H 0.67837 0.08777 0.06796
 H315 H 0.77994 0.13445 0.10025
 H316 H 0.94875 0.20104 0.04594
 H317 H 0.84818 0.15556 0.01258
 C318 C 0.21246 0.27058 0.41682
 C319 C 0.20666 0.22113 0.39506
 C320 C 0.25573 0.26712 0.37378
 C321 C 0.30613 0.35995 0.37558
 C322 C 0.24694 0.38614 0.38262
 C323 C 0.19888 0.34053 0.40412
 C324 C 0.30090 0.31575 0.42203
 C325 C 0.34991 0.36190 0.40048
 H326 H 0.16930 0.15452 0.39671
 H327 H 0.26069 0.23901 0.35760
 H328 H 0.24570 0.43918 0.37222
 H329 H 0.15820 0.35636 0.41214
 H330 H 0.32356 0.31246 0.44089
 H331 H 0.41351 0.39400 0.40134
 C332 C -0.08353 0.66705 0.76003
 C333 C -0.00871 0.72380 0.74209
 C334 C -0.00300 0.69155 0.72108
 C335 C -0.07335 0.60528 0.71915
 C336 C -0.07749 0.55319 0.74520
 C337 C -0.08342 0.58525 0.76639
 C338 C -0.15233 0.64655 0.74225
 C339 C -0.14658 0.61474 0.72098
 H340 H 0.03679 0.78438 0.74579
 H341 H 0.04777 0.72446 0.70716
 H342 H -0.07330 0.49777 0.74741
 H343 H -0.08633 0.55568 0.78596
 H344 H -0.20381 0.65137 0.74632
 H345 H -0.19198 0.59475 0.70719
   
