data_POSCAR
  _audit_creation_date              2014-09-24
  _audit_creation_method            'ToBaCCo'
  _symmetry_space_group_name_H-M    'P1'
  _symmetry_Int_Tables_number       1
  _symmetry_cell_setting            triclinic
  loop_
  _symmetry_equiv_pos_as_xyz
 x,y,z
_cell_length_a 21.0444
_cell_length_b 20.8435
_cell_length_c 35.9518
_cell_angle_alpha 84.986700
_cell_angle_beta 88.828200
_cell_angle_gamma 84.653400
loop_
  _atom_site_label
  _atom_site_type_symbol
  _atom_site_fract_x
  _atom_site_fract_y
  _atom_site_fract_z
C1 C 0.02735 0.29831 0.97656
 C2 C 0.03420 0.29034 1.01456
 C3 C 0.01710 0.35022 1.02778
 N4 N 0.00032 0.39448 0.99912
 C5 C 0.00682 0.36284 0.96779
 C6 C 0.01447 0.36259 1.06591
 C7 C 0.00538 0.42611 1.07745
 C8 C -0.01599 0.44125 1.11265
 C9 C -0.01510 0.50696 1.11335
 C10 C 0.00753 0.53023 1.07868
 N11 N 0.01942 0.48060 1.05684
 C12 C 0.01972 0.59540 1.06867
 C13 C 0.02424 0.62028 1.03082
 C14 C 0.04519 0.67986 1.01863
 C15 C 0.03748 0.68753 0.98069
 C16 C 0.01302 0.63204 0.97086
 N17 N 0.00482 0.59104 1.00150
 C18 C -0.00574 0.62216 0.93450
 C19 C -0.02019 0.56160 0.92394
 C20 C -0.04792 0.55172 0.89049
 C21 C -0.04868 0.48593 0.88962
 C22 C -0.02172 0.45768 0.92265
 N23 N -0.00426 0.50406 0.94331
 C24 C -0.00894 0.39057 0.93157
 H25 H 0.03636 0.26086 0.95757
 H26 H 0.04986 0.24551 1.03063
 H27 H 0.02398 0.49650 0.96693
 H28 H -0.03054 0.40826 1.13550
 H29 H -0.02890 0.53442 1.13688
 H30 H 0.06361 0.71447 1.03539
 H31 H 0.04836 0.72926 0.96242
 H32 H -0.06610 0.46160 0.86700
 H33 H 0.04257 0.48266 1.03096
 H34 H -0.06469 0.58805 0.86866
 C35 C 0.67997 0.04839 0.51376
 C36 C 0.68387 0.03603 0.47693
 C37 C 0.62913 0.00726 0.46941
 N38 N 0.59141 0.00304 0.50022
 C39 C 0.62242 0.02818 0.52727
 C40 C 0.61715 -0.01966 0.43561
 C41 C 0.55465 -0.03269 0.42609
 C42 C 0.54008 -0.06843 0.39705
 C43 C 0.47462 -0.06660 0.39595
 C44 C 0.45096 -0.03128 0.42491
 N45 N 0.49984 -0.01042 0.44297
 C46 C 0.38551 -0.01632 0.43269
 C47 C 0.36179 0.00307 0.46740
 C48 C 0.29799 0.01996 0.47531
 C49 C 0.29414 0.03013 0.51248
 C50 C 0.35581 0.01972 0.52600
 N51 N 0.39698 0.00250 0.49846
 C52 C 0.37244 0.02195 0.56375
 C53 C 0.43613 0.01651 0.57620
 C54 C 0.45442 0.00630 0.61327
 C55 C 0.51970 0.00713 0.61360
 C56 C 0.53932 0.01847 0.57677
 N57 N 0.48812 0.02470 0.55422
 C58 C 0.60260 0.02664 0.56499
 H59 H 0.71567 0.06917 0.52902
 H60 H 0.72321 0.04572 0.45804
 H61 H 0.48804 0.04058 0.52602
 H62 H 0.57309 -0.09310 0.37841
 H63 H 0.44756 -0.08922 0.37629
 H64 H 0.25810 0.02327 0.45649
 H65 H 0.25069 0.04290 0.52781
 H66 H 0.54919 0.00099 0.63820
 H67 H 0.49547 0.02288 0.46300
 H68 H 0.42402 -0.00057 0.63765
 C69 C 0.13743 -0.03654 0.26792
 H70 H 0.14095 -0.02631 0.23799
 C71 C 0.19065 -0.03288 0.28995
 H72 H 0.23548 -0.02142 0.27684
 C73 C 0.07417 -0.06042 0.32179
 H74 H 0.02853 -0.07006 0.33421
 C75 C 0.12603 -0.05660 0.34486
 H76 H 0.12002 -0.06355 0.37489
 N77 N 0.08058 -0.05014 0.28404
 C78 C -0.04240 -0.14655 0.21783
 H79 H -0.08737 -0.12712 0.22916
 C80 C -0.04125 -0.19817 0.19547
 H81 H -0.08523 -0.21882 0.19022
 C82 C 0.06894 -0.14146 0.20903
 H83 H 0.11163 -0.11868 0.21380
 C84 C 0.07206 -0.19239 0.18609
 H85 H 0.11714 -0.20804 0.17316
 Zn86 Zn 0.00811 -0.04659 0.25314
 N87 N 0.01231 -0.11960 0.22449
 C88 C 0.00699 0.02522 0.18281
 N89 N 0.00853 0.02960 0.22030
 C90 C 0.01346 0.08727 0.23458
 C91 C 0.01560 0.14380 0.21082
 C92 C 0.01062 0.08023 0.15807
 C93 C -0.08168 -0.10066 0.30279
 C94 C -0.13430 -0.10121 0.32707
 C95 C -0.15518 0.01399 0.31256
 C96 C -0.10360 0.01197 0.28750
 N97 N -0.06707 -0.04454 0.28367
 H98 H 0.00348 -0.02106 0.17199
 H99 H 0.01573 0.08931 0.26448
 H100 H 0.01802 0.18962 0.22255
 H101 H 0.01000 0.07588 0.12828
 H102 H -0.05205 -0.14506 0.29934
 H103 H -0.14582 -0.14647 0.34160
 H104 H -0.18245 0.05977 0.31617
 H105 H -0.09216 0.05599 0.27184
 C106 C 0.01658 -0.22178 0.17940
 C107 C 0.18470 -0.04149 0.32893
 C108 C -0.17027 -0.04289 0.33332
 C109 C 0.01552 0.14037 0.17201
 C110 C -0.02317 0.16397 0.76230
 H111 H -0.02105 0.17301 0.73223
 C112 C -0.02243 0.21525 0.78484
 H113 H -0.01992 0.26403 0.77214
 C114 C -0.02898 0.08946 0.81573
 H115 H -0.03259 0.04065 0.82777
 C116 C -0.02810 0.13913 0.83923
 H117 H -0.02994 0.12807 0.86922
 N118 N -0.02465 0.10231 0.77804
 C119 C 0.06354 -0.01203 0.69162
 H120 H 0.02783 -0.04558 0.68937
 C121 C 0.11570 -0.01251 0.66706
 H122 H 0.11988 -0.04637 0.64575
 C123 C 0.10083 0.07369 0.72176
 H124 H 0.09511 0.10680 0.74333
 C125 C 0.15472 0.07367 0.69840
 H126 H 0.19032 0.10679 0.70215
 Zn127 Zn -0.02018 0.03377 0.74652
 N128 N 0.05570 0.03239 0.71727
 C129 C -0.08462 0.05533 0.67743
 N130 N -0.09255 0.04574 0.71512
 C131 C -0.15175 0.04261 0.73082
 C132 C -0.20514 0.04310 0.70823
 C133 C -0.13653 0.05607 0.65390
 C134 C 0.03206 -0.06115 0.79946
 C135 C 0.03436 -0.11647 0.82440
 C136 C -0.06366 -0.14356 0.79834
 C137 C -0.06423 -0.08756 0.77395
 N138 N -0.01790 -0.04655 0.77582
 H139 H -0.03790 0.06094 0.66538
 H140 H -0.15701 0.03664 0.76089
 H141 H -0.25162 0.03712 0.72085
 H142 H -0.12929 0.06070 0.62390
 H143 H 0.06897 -0.02838 0.79981
 H144 H 0.07308 -0.12638 0.84406
 H145 H -0.10155 -0.17514 0.79736
 H146 H -0.10218 -0.07664 0.75403
 C147 C 0.16121 0.03189 0.66970
 C148 C -0.02325 0.20254 0.82379
 C149 C -0.01492 -0.15724 0.82462
 C150 C -0.19707 0.04791 0.66937
 C151 C -0.02230 -0.26160 0.12210
 C152 C -0.02069 -0.30508 0.09486
 C153 C 0.02174 -0.36151 0.09708
 C154 C 0.06337 -0.37375 0.12820
 C155 C 0.06011 -0.33017 0.15664
 C156 C 0.01786 -0.27287 0.15299
 C157 C 0.09926 -0.34574 0.18799
 N158 N 0.14165 -0.39898 0.18953
 N159 N 0.14745 -0.43775 0.16190
 C160 C 0.11027 -0.42676 0.13125
 H161 H -0.05485 -0.21810 0.11875
 H162 H -0.05370 -0.29479 0.07189
 H163 H 0.09646 -0.31634 0.21139
 H164 H 0.11807 -0.45939 0.10950
 C165 C -0.02993 0.21249 0.11903
 C166 C -0.03018 0.26602 0.09312
 C167 C 0.01696 0.30938 0.09334
 C168 C 0.06627 0.29725 0.12025
 C169 C 0.06733 0.24151 0.14615
 C170 C 0.01806 0.19936 0.14579
 C171 C 0.11945 0.22845 0.17046
 N172 N 0.16609 0.26925 0.16950
 N173 N 0.16485 0.32169 0.14550
 C174 C 0.11701 0.33679 0.12070
 H175 H -0.06786 0.18088 0.11821
 H176 H -0.06830 0.27430 0.07295
 H177 H 0.12452 0.18563 0.18973
 H178 H 0.11987 0.37893 0.10120
 C179 C 0.25295 -0.02514 0.63832
 C180 C 0.30378 -0.02772 0.61296
 C181 C 0.31999 0.02821 0.59193
 C182 C 0.28406 0.08797 0.59640
 C183 C 0.23071 0.09033 0.62119
 C184 C 0.21578 0.03319 0.64286
 C185 C 0.19302 0.14962 0.62234
 N186 N 0.20988 0.20304 0.60159
 N187 N 0.26137 0.20117 0.57944
 C188 C 0.29897 0.14549 0.57609
 H189 H 0.24227 -0.06931 0.65444
 H190 H 0.33071 -0.07378 0.60959
 H191 H 0.14984 0.15411 0.63900
 H192 H 0.33987 0.14658 0.55740
 C193 C -0.29703 0.09029 0.63695
 C194 C -0.34527 0.08521 0.61162
 C195 C -0.34783 0.02854 0.59363
 C196 C -0.30216 -0.02479 0.60215
 C197 C -0.25309 -0.01956 0.62776
 C198 C -0.25019 0.03888 0.64476
 C199 C -0.20847 -0.07341 0.63567
 N200 N -0.21305 -0.12850 0.61882
 N201 N -0.25924 -0.13344 0.59476
 C202 C -0.30398 -0.08362 0.58590
 H203 H -0.29528 0.13512 0.64988
 H204 H -0.38014 0.12616 0.60539
 H205 H -0.17030 -0.07244 0.65524
 H206 H -0.34071 -0.09066 0.56644
 C207 C 0.03361 -0.26297 0.85215
 C208 C 0.03560 -0.31632 0.87842
 C209 C -0.01176 -0.32131 0.90616
 C210 C -0.06254 -0.27189 0.90728
 C211 C -0.06429 -0.21724 0.88080
 C212 C -0.01590 -0.21322 0.85285
 C213 C -0.11387 -0.16769 0.88381
 N214 N -0.15941 -0.17387 0.91079
 N215 N -0.15856 -0.22597 0.93507
 C216 C -0.11176 -0.27516 0.93425
 H217 H 0.07104 -0.26037 0.83107
 H218 H 0.07473 -0.35381 0.87738
 H219 H -0.11673 -0.12390 0.86523
 H220 H -0.11346 -0.31627 0.95468
 C221 C -0.06967 0.26799 0.87344
 C222 C -0.06638 0.31330 0.89941
 C223 C -0.01204 0.34668 0.90138
 C224 C 0.03970 0.33496 0.87637
 C225 C 0.03668 0.28844 0.85009
 C226 C -0.01868 0.25473 0.84873
 C227 C 0.09034 0.27573 0.82696
 N228 N 0.14246 0.30868 0.82955
 N229 N 0.14486 0.35298 0.85390
 C230 C 0.09541 0.36710 0.87747
 H231 H -0.11204 0.24227 0.87293
 H232 H -0.10606 0.32167 0.91860
 H233 H 0.09180 0.23960 0.80710
 H234 H 0.10024 0.40304 0.89693
 C235 C -0.28343 -0.01073 0.34896
 C236 C -0.33551 -0.00607 0.37339
 C237 C -0.33091 -0.03291 0.41059
 C238 C -0.27224 -0.06776 0.42247
 C239 C -0.21803 -0.06880 0.39826
 C240 C -0.22412 -0.04099 0.36084
 C241 C -0.15919 -0.09669 0.41283
 N242 N -0.15649 -0.12707 0.44775
 N243 N -0.20842 -0.13096 0.46926
 C244 C -0.26615 -0.10286 0.45776
 H245 H -0.28930 0.01056 0.32051
 H246 H -0.37920 0.02103 0.36341
 H247 H -0.11512 -0.09432 0.39709
 H248 H -0.30674 -0.10814 0.47633
 C249 C 0.26191 -0.08610 0.37771
 C250 C 0.31089 -0.08055 0.40240
 C251 C 0.33856 -0.02218 0.40313
 C252 C 0.31698 0.03148 0.37829
 C253 C 0.26644 0.02629 0.35355
 C254 C 0.23893 -0.03334 0.35323
 C255 C 0.24372 0.08194 0.33094
 N256 N 0.27138 0.13790 0.33233
 N257 N 0.31973 0.14225 0.35501
 C258 C 0.34335 0.09108 0.37810
 H259 H 0.24114 -0.13180 0.37799
 H260 H 0.32660 -0.12167 0.42160
 H261 H 0.20385 0.08197 0.31250
 H262 H 0.38235 0.09749 0.39616
   
