data_POSCAR
  _audit_creation_date              2014-09-24
  _audit_creation_method            'ToBaCCo'
  _symmetry_space_group_name_H-M    'P1'
  _symmetry_Int_Tables_number       1
  _symmetry_cell_setting            triclinic
  loop_
  _symmetry_equiv_pos_as_xyz
 x,y,z
_cell_length_a 27.8492
_cell_length_b 23.1384
_cell_length_c 25.2430
_cell_angle_alpha 92.589200
_cell_angle_beta 87.619600
_cell_angle_gamma 88.947100
loop_
  _atom_site_label
  _atom_site_type_symbol
  _atom_site_fract_x
  _atom_site_fract_y
  _atom_site_fract_z
C1 C 0.33154 0.32401 0.22361
 H2 H 0.33496 0.32505 0.26618
 C3 C 0.35879 0.36099 0.19262
 H4 H 0.38328 0.39048 0.21153
 C5 C 0.29533 0.28452 0.14716
 H6 H 0.27105 0.25424 0.12936
 C7 C 0.32163 0.32087 0.11478
 H8 H 0.31750 0.31737 0.07233
 N9 N 0.29974 0.28771 0.20068
 C10 C 0.18005 0.26341 0.31367
 H11 H 0.17786 0.21673 0.31152
 C12 C 0.14727 0.29640 0.34630
 H13 H 0.11995 0.27493 0.36956
 C14 C 0.21862 0.34817 0.28630
 H15 H 0.24601 0.36832 0.26237
 C16 C 0.18681 0.38276 0.31861
 H17 H 0.19007 0.42931 0.31883
 Zn18 Zn 0.26048 0.24191 0.24468
 N19 N 0.21557 0.28955 0.28555
 C20 C 0.29027 0.20359 0.34338
 N21 N 0.30005 0.20067 0.29006
 C22 C 0.33766 0.16808 0.26841
 C23 C 0.36567 0.13450 0.30049
 C24 C 0.31715 0.17057 0.37681
 C25 C 0.18942 0.21239 0.17394
 C26 C 0.16288 0.17649 0.14079
 C27 C 0.20933 0.09454 0.16792
 C28 C 0.23477 0.13196 0.20080
 N29 N 0.22506 0.18985 0.20245
 H30 H 0.26131 0.23110 0.36021
 H31 H 0.34526 0.16732 0.22600
 H32 H 0.39491 0.10786 0.28257
 H33 H 0.30866 0.17381 0.41907
 H34 H 0.18230 0.25858 0.17624
 H35 H 0.13598 0.19582 0.11703
 H36 H 0.21814 0.04868 0.16616
 H37 H 0.26260 0.11465 0.22438
 C38 C 0.15133 0.35669 0.35018
 C39 C 0.35304 0.36076 0.13768
 C40 C 0.17294 0.11665 0.13739
 C41 C 0.35471 0.13431 0.35521
 C42 C 0.84080 0.79949 0.21749
 H43 H 0.85838 0.77745 0.24835
 C44 C 0.86733 0.83619 0.18555
 H45 H 0.90530 0.84105 0.19206
 C46 C 0.77015 0.82115 0.17287
 H47 H 0.73216 0.81573 0.16834
 C48 C 0.79514 0.85825 0.14009
 H49 H 0.77487 0.87911 0.11064
 N50 N 0.79313 0.79215 0.21030
 C51 C 0.67502 0.76202 0.32282
 H52 H 0.67013 0.71597 0.31668
 C53 C 0.64358 0.79463 0.35752
 H54 H 0.61433 0.77340 0.37794
 C55 C 0.71944 0.84559 0.30410
 H56 H 0.74926 0.86522 0.28341
 C57 C 0.68894 0.87976 0.33840
 H58 H 0.69515 0.92572 0.34237
 Zn59 Zn 0.75639 0.74228 0.25321
 N60 N 0.71230 0.78779 0.29734
 C61 C 0.78988 0.70315 0.34984
 N62 N 0.79790 0.70018 0.29626
 C63 C 0.83529 0.66812 0.27327
 C64 C 0.86535 0.63597 0.30430
 C65 C 0.81892 0.67157 0.38230
 C66 C 0.68292 0.71180 0.18402
 C67 C 0.65865 0.67688 0.14772
 C68 C 0.71294 0.59792 0.16442
 C69 C 0.73611 0.63432 0.20039
 N70 N 0.72165 0.69063 0.20862
 H71 H 0.76083 0.72989 0.36765
 H72 H 0.84164 0.66733 0.23067
 H73 H 0.89455 0.61007 0.28533
 H74 H 0.81197 0.67517 0.42482
 H75 H 0.67102 0.75615 0.19220
 H76 H 0.62926 0.69582 0.12735
 H77 H 0.72572 0.55361 0.15757
 H78 H 0.76612 0.61746 0.22088
 C79 C 0.65084 0.85407 0.36644
 C80 C 0.84479 0.86642 0.14599
 C81 C 0.67394 0.61906 0.13716
 C82 C 0.85669 0.63644 0.35940
 C83 C 0.82970 0.33199 0.73004
 H84 H 0.83171 0.33387 0.77280
 C85 C 0.85945 0.36666 0.69952
 H86 H 0.88417 0.39544 0.71896
 C87 C 0.79524 0.29210 0.65266
 H88 H 0.77053 0.26263 0.63442
 C89 C 0.82404 0.32626 0.62070
 H90 H 0.82143 0.32198 0.57805
 N91 N 0.79795 0.29613 0.70637
 C92 C 0.67269 0.27502 0.81305
 H93 H 0.66627 0.22948 0.80581
 C94 C 0.64066 0.30841 0.84633
 H95 H 0.61011 0.28801 0.86514
 C96 C 0.71931 0.35724 0.79632
 H97 H 0.74952 0.37659 0.77636
 C98 C 0.68825 0.39220 0.82934
 H99 H 0.69503 0.43803 0.83346
 Zn100 Zn 0.75666 0.25078 0.74879
 N101 N 0.71187 0.29941 0.78986
 C102 C 0.76967 0.17682 0.83230
 N103 N 0.79355 0.20678 0.79479
 C104 C 0.84228 0.20359 0.78908
 C105 C 0.86887 0.17004 0.82245
 C106 C 0.79465 0.14269 0.86650
 C107 C 0.68500 0.21823 0.67748
 C108 C 0.66143 0.18060 0.64274
 C109 C 0.71637 0.10397 0.66428
 C110 C 0.73877 0.14293 0.69856
 N111 N 0.72296 0.19889 0.70438
 H112 H 0.73095 0.17894 0.83560
 H113 H 0.86075 0.22623 0.75806
 H114 H 0.90769 0.16844 0.81677
 H115 H 0.77326 0.12079 0.89564
 H116 H 0.67358 0.26316 0.68234
 H117 H 0.63229 0.19757 0.62067
 H118 H 0.72983 0.05972 0.65971
 H119 H 0.76943 0.12865 0.71974
 C120 C 0.64891 0.36748 0.85594
 C121 C 0.85607 0.36494 0.64426
 C122 C 0.67713 0.12244 0.63590
 C123 C 0.84540 0.13851 0.86204
 C124 C 0.31975 0.83014 0.73053
 H125 H 0.32321 0.83067 0.77308
 C126 C 0.34927 0.86466 0.69947
 H127 H 0.37541 0.89191 0.71837
 C128 C 0.28173 0.79369 0.65410
 H129 H 0.25600 0.76526 0.63632
 C130 C 0.31035 0.82757 0.62164
 H131 H 0.30635 0.82409 0.57917
 N132 N 0.28617 0.79637 0.70762
 C133 C 0.16871 0.77355 0.82389
 H134 H 0.16557 0.72701 0.82035
 C135 C 0.13664 0.80631 0.85751
 H136 H 0.10894 0.78474 0.88012
 C137 C 0.20848 0.85820 0.79828
 H138 H 0.23593 0.87835 0.77440
 C139 C 0.17729 0.89263 0.83161
 H140 H 0.18111 0.93911 0.83255
 Zn141 Zn 0.24583 0.75146 0.75135
 N142 N 0.20424 0.79969 0.79583
 C143 C 0.27822 0.70730 0.84683
 N144 N 0.28506 0.70516 0.79309
 C145 C 0.32046 0.67118 0.76852
 C146 C 0.34974 0.63630 0.79814
 C147 C 0.30636 0.67285 0.87786
 C148 C 0.17106 0.73228 0.68304
 C149 C 0.14057 0.70083 0.65061
 C150 C 0.18193 0.61306 0.67290
 C151 C 0.21144 0.64619 0.70522
 N152 N 0.20615 0.70479 0.70881
 H153 H 0.25103 0.73583 0.86593
 H154 H 0.32577 0.67105 0.72581
 H155 H 0.37756 0.60915 0.77802
 H156 H 0.30049 0.67586 0.92055
 H157 H 0.16711 0.77888 0.68738
 H158 H 0.11331 0.72345 0.62968
 H159 H 0.18667 0.56648 0.67072
 H160 H 0.23859 0.62500 0.72721
 C161 C 0.14128 0.86648 0.86247
 C162 C 0.34408 0.86457 0.64443
 C163 C 0.14649 0.64063 0.64432
 C164 C 0.34224 0.63604 0.85341
 C165 C -0.06740 -0.02578 0.04034
 C166 C -0.04252 0.00815 0.00421
 C167 C -0.06758 0.04013 -0.03188
 C168 C -0.11815 0.03889 -0.03219
 C169 C -0.14254 0.00438 0.00430
 C170 C -0.11795 -0.02837 0.04068
 C171 C 0.01021 0.01057 0.00426
 C172 C 0.03835 -0.02056 -0.03496
 C173 C 0.08877 -0.01766 -0.03557
 C174 C 0.11039 0.01771 0.00282
 C175 C 0.08245 0.04866 0.04264
 C176 C 0.03227 0.04504 0.04289
 H177 H -0.04646 -0.04998 0.06710
 H178 H -0.04675 0.06605 -0.05849
 H179 H 0.02069 -0.04600 -0.06521
 H180 H 0.01027 0.06933 0.07290
 H181 H -0.18149 0.00289 0.00434
 H182 H 0.14912 0.02151 0.00109
 C183 C -0.04978 0.46584 0.53412
 C184 C -0.02459 0.50297 0.50107
 C185 C -0.04974 0.53967 0.46872
 C186 C -0.10027 0.53939 0.46924
 C187 C -0.12500 0.50198 0.50247
 C188 C -0.10026 0.46508 0.53496
 C189 C 0.02828 0.50241 0.49952
 C190 C 0.05417 0.47255 0.45767
 C191 C 0.10466 0.47055 0.45652
 C192 C 0.12879 0.49989 0.49690
 C193 C 0.10337 0.53040 0.53867
 C194 C 0.05282 0.53096 0.54014
 H195 H -0.02977 0.43666 0.55776
 H196 H -0.02976 0.56885 0.44419
 H197 H 0.03483 0.45126 0.42622
 H198 H 0.03239 0.55293 0.57276
 H199 H -0.16395 0.50144 0.50293
 H200 H 0.16777 0.49885 0.49588
 C201 C 0.44036 -0.03659 0.53451
 C202 C 0.46636 0.00074 0.50241
 C203 C 0.44221 0.03703 0.46894
 C204 C 0.39187 0.03597 0.46693
 C205 C 0.36617 -0.00133 0.49950
 C206 C 0.38990 -0.03758 0.53359
 C207 C 0.51900 0.00259 0.50421
 C208 C 0.54791 -0.03193 0.46821
 C209 C 0.59832 -0.02882 0.46850
 C210 C 0.61911 0.00996 0.50499
 C211 C 0.59032 0.04438 0.54174
 C212 C 0.54019 0.04056 0.54068
 H213 H 0.45974 -0.06509 0.55935
 H214 H 0.46286 0.06663 0.44553
 H215 H 0.53070 -0.05963 0.43930
 H216 H 0.51747 0.06743 0.56810
 H217 H 0.32730 -0.00206 0.49841
 H218 H 0.65780 0.01387 0.50379
 C219 C 0.44053 0.46864 0.02750
 C220 C 0.46398 0.50787 -0.00484
 C221 C 0.43739 0.54279 -0.03736
 C222 C 0.38707 0.53870 -0.03769
 C223 C 0.36395 0.49950 -0.00480
 C224 C 0.39023 0.46434 0.02798
 C225 C 0.51655 0.51229 -0.00435
 C226 C 0.54565 0.48066 -0.04228
 C227 C 0.59604 0.48326 -0.04116
 C228 C 0.61665 0.51911 -0.00217
 C229 C 0.58764 0.55070 0.03647
 C230 C 0.53752 0.54717 0.03475
 H231 H 0.46185 0.44102 0.05129
 H232 H 0.45601 0.57377 -0.06122
 H233 H 0.52863 0.45486 -0.07273
 H234 H 0.51466 0.57137 0.06403
 H235 H 0.32514 0.49636 -0.00470
 H236 H 0.65537 0.52261 -0.00248
 C237 C 0.10798 -0.09967 -0.10026
 C238 C 0.12009 -0.04951 -0.07625
 H239 H 0.07416 -0.11911 -0.08923
 H240 H 0.15584 -0.03315 -0.08338
 C241 C 0.11910 0.39096 0.38819
 C242 C 0.13366 0.43914 0.41369
 H243 H 0.08465 0.37301 0.39918
 H244 H 0.17010 0.45338 0.40651
 C245 C 0.61782 -0.11213 0.40433
 C246 C 0.63046 -0.06289 0.42986
 H247 H 0.58313 -0.13041 0.41341
 H248 H 0.66683 -0.04789 0.42438
 C249 C 0.61560 0.40171 -0.10689
 C250 C 0.62829 0.45044 -0.08054
 H251 H 0.58068 0.38370 -0.09845
 H252 H 0.66479 0.46525 -0.08524
 C253 C -0.12758 0.10618 -0.10643
 C254 C -0.14591 0.07084 -0.06664
 H255 H -0.08910 0.10754 -0.11319
 H256 H -0.18428 0.06657 -0.06152
 C257 C -0.11255 0.60023 0.39175
 C258 C -0.12888 0.57834 0.43721
 H259 H -0.07700 0.58803 0.37562
 H260 H -0.16608 0.58614 0.45018
 C261 C 0.38317 0.09668 0.38867
 C262 C 0.36468 0.07472 0.43324
 H263 H 0.41914 0.08399 0.37423
 H264 H 0.32713 0.08295 0.44441
 C265 C 0.37296 0.59848 -0.11538
 C266 C 0.35727 0.57645 -0.06969
 H267 H 0.40836 0.58635 -0.13204
 H268 H 0.32018 0.58398 -0.05611
 C269 C -0.12719 -0.09729 0.11411
 C270 C -0.14546 -0.06255 0.07500
 H271 H -0.08925 -0.09647 0.12119
 H272 H -0.18375 -0.06101 0.07031
 C273 C -0.11373 0.40351 0.61230
 C274 C -0.12851 0.42473 0.56708
 H275 H -0.08028 0.41776 0.62839
 H276 H -0.16421 0.41484 0.55428
 C277 C 0.37468 -0.09753 0.61197
 C278 C 0.36075 -0.07696 0.56603
 H279 H 0.40813 -0.08350 0.62819
 H280 H 0.32516 -0.08655 0.55278
 C281 C 0.38047 0.40182 0.10538
 C282 C 0.36405 0.42233 0.06049
 H283 H 0.41346 0.41816 0.12097
 H284 H 0.32869 0.41023 0.04812
 C285 C 0.14867 0.07685 0.10013
 C286 C 0.10471 0.08724 0.08258
 H287 H 0.16752 0.03684 0.08771
 H288 H 0.08358 0.12405 0.09895
 C289 C 0.11568 0.60822 0.60744
 C290 C 0.13117 0.55995 0.58022
 H291 H 0.08133 0.62762 0.59891
 H292 H 0.16751 0.54410 0.58497
 C293 C 0.65555 0.08055 0.59798
 C294 C 0.61117 0.08656 0.57998
 H295 H 0.67670 0.04202 0.58625
 H296 H 0.58813 0.12210 0.59543
 C297 C 0.65218 0.58045 0.09653
 C298 C 0.60832 0.58918 0.07791
 H299 H 0.67289 0.54225 0.08274
 H300 H 0.58550 0.62409 0.09504
   
