data_POSCAR
  _audit_creation_date              2014-09-24
  _audit_creation_method            'ToBaCCo'
  _symmetry_space_group_name_H-M    'P1'
  _symmetry_Int_Tables_number       1
  _symmetry_cell_setting            triclinic
  loop_
  _symmetry_equiv_pos_as_xyz
 x,y,z
_cell_length_a 40.7240
_cell_length_b 41.6172
_cell_length_c 39.3978
_cell_angle_alpha 91.922400
_cell_angle_beta 89.971400
_cell_angle_gamma 94.293900
loop_
  _atom_site_label
  _atom_site_type_symbol
  _atom_site_fract_x
  _atom_site_fract_y
  _atom_site_fract_z
C1 C 0.26941 0.44293 0.99156
 C2 C 0.24822 0.44305 1.02386
 C3 C 0.23072 0.46960 1.02828
 C4 C 0.23619 0.49390 0.99972
 C5 C 0.24460 0.44709 0.96300
 C6 C 0.22731 0.47379 0.96701
 C7 C 0.29067 0.47471 0.99369
 C8 C 0.27366 0.50137 0.99782
 H9 H 0.24590 0.42311 1.04078
 H10 H 0.22212 0.51560 1.00292
 H11 H 0.24081 0.43012 0.94169
 H12 H 0.31732 0.47583 0.99250
 C13 C 0.73120 0.55680 0.01002
 C14 C 0.75577 0.55317 0.03895
 C15 C 0.77257 0.52604 0.03603
 C16 C 0.76351 0.50510 0.00394
 C17 C 0.75246 0.55531 -0.02219
 C18 C 0.76933 0.52826 -0.02551
 C19 C 0.70943 0.52529 0.00889
 C20 C 0.72603 0.49829 0.00575
 H21 H 0.75958 0.57066 0.05979
 H22 H 0.77690 0.48291 0.00126
 H23 H 0.75650 0.57519 -0.03906
 H24 H 0.68278 0.52460 0.00951
 C25 C 0.05069 0.22743 0.50726
 C26 C 0.04696 0.24592 0.47699
 C27 C 0.01703 0.26226 0.47547
 C28 C -0.00344 0.25684 0.50580
 C29 C 0.04762 0.25221 0.53671
 C30 C 0.01923 0.26766 0.53617
 C31 C 0.01943 0.20495 0.50909
 C32 C -0.00894 0.22001 0.50845
 H33 H 0.06750 0.25070 0.46010
 H34 H -0.02714 0.26805 0.50675
 H35 H 0.06731 0.25902 0.55455
 H36 H 0.01989 0.17899 0.51017
 C37 C 0.94983 0.77370 0.49581
 C38 C 0.95230 0.74807 0.46715
 C39 C 0.98105 0.73298 0.46669
 C40 C 1.00444 0.74471 0.49631
 C41 C 0.95492 0.75509 0.52814
 C42 C 0.98346 0.73993 0.52872
 C43 C 0.98089 0.79621 0.49257
 C44 C 1.00942 0.78140 0.49275
 H45 H 0.93185 0.74113 0.45033
 H46 H 1.02816 0.73341 0.49692
 H47 H 0.93605 0.75143 0.54725
 H48 H 0.98020 0.82210 0.49099
 C49 C 0.49914 0.05676 0.21693
 C50 C 0.46974 0.05497 0.24150
 C51 C 0.46803 0.02849 0.26106
 C52 C 0.49622 0.00634 0.25444
 C53 C 0.52905 0.05524 0.24042
 C54 C 0.52775 0.02881 0.26004
 C55 C 0.49663 0.02633 0.19788
 C56 C 0.49471 -0.00177 0.21801
 H57 H 0.45332 0.07405 0.24518
 H58 H 0.49449 -0.01445 0.27122
 H59 H 0.54901 0.07392 0.24202
 H60 H 0.49863 0.02545 0.17048
 C61 C 0.50229 -0.05791 0.78035
 C62 C 0.47253 -0.05770 0.75643
 C63 C 0.47314 -0.03164 0.73633
 C64 C 0.50392 -0.00822 0.74155
 C65 C 0.53197 -0.05541 0.75623
 C66 C 0.53293 -0.02951 0.73587
 C67 C 0.50352 -0.02539 0.79970
 C68 C 0.50413 0.00064 0.77972
 H69 H 0.45271 -0.07655 0.75562
 H70 H 0.50446 0.01276 0.72491
 H71 H 0.54965 -0.07344 0.75389
 H72 H 0.50398 -0.02338 0.82718
 C73 C 0.30532 0.02513 0.46644
 H74 H 0.30729 0.04227 0.48773
 C75 C 0.32812 0.02754 0.44007
 H76 H 0.34766 0.04671 0.44089
 C77 C 0.27786 -0.02127 0.43970
 H78 H 0.25863 -0.04059 0.43999
 C79 C 0.30022 -0.01973 0.41275
 H80 H 0.29794 -0.03765 0.39214
 N81 N 0.28068 0.00116 0.46570
 C82 C 0.20662 0.03940 0.53287
 H83 H 0.20401 0.02093 0.55157
 C84 C 0.18727 0.06577 0.53511
 H85 H 0.16971 0.06767 0.55562
 C86 C 0.23184 0.05907 0.48262
 H87 H 0.24865 0.05608 0.46176
 C88 C 0.21299 0.08577 0.48393
 H89 H 0.21558 0.10333 0.46422
 Zn90 Zn 0.25264 -0.00064 0.50395
 N91 N 0.22848 0.03660 0.50698
 C92 C 0.28201 0.01949 0.56793
 N93 N 0.28047 -0.00301 0.54196
 C94 C 0.30089 -0.02743 0.54079
 C95 C 0.32384 -0.03016 0.56657
 C96 C 0.30471 0.01765 0.59431
 C97 C 0.19993 -0.03917 0.47492
 C98 C 0.17635 -0.06527 0.47184
 C99 C 0.19862 -0.08705 0.52229
 C100 C 0.22182 -0.06055 0.52442
 N101 N 0.22220 -0.03738 0.50078
 H102 H 0.26612 0.03914 0.56795
 H103 H 0.29952 -0.04461 0.51952
 H104 H 0.34009 -0.04962 0.56532
 H105 H 0.30604 0.03570 0.61482
 H106 H 0.20043 -0.02018 0.45680
 H107 H 0.15857 -0.06638 0.45131
 H108 H 0.19827 -0.10521 0.54137
 H109 H 0.23915 -0.05834 0.54526
 C110 C 0.19046 0.08912 0.51035
 C111 C 0.32556 0.00491 0.41302
 C112 C 0.17569 -0.08941 0.49576
 C113 C 0.32585 -0.00737 0.59349
 C114 C 0.69907 0.02355 0.53551
 H115 H 0.69921 0.04275 0.51766
 C116 C 0.67620 0.02225 0.56195
 H117 H 0.65876 0.04058 0.56466
 C118 C 0.72072 -0.02459 0.55309
 H119 H 0.73748 -0.04325 0.54908
 C120 C 0.69828 -0.02679 0.57986
 H121 H 0.69810 -0.04694 0.59658
 N122 N 0.72077 0.00037 0.53162
 C123 C 0.80070 0.04333 0.47019
 H124 H 0.80095 0.02550 0.44959
 C125 C 0.82389 0.06983 0.47107
 H126 H 0.84216 0.07239 0.45115
 C127 C 0.77739 0.06123 0.52201
 H128 H 0.75968 0.05748 0.54217
 C129 C 0.80018 0.08808 0.52388
 H130 H 0.79989 0.10493 0.54542
 Zn131 Zn 0.74856 0.00203 0.49314
 N132 N 0.77799 0.03957 0.49537
 C133 C 0.72285 0.02732 0.43338
 N134 N 0.72058 0.00235 0.45490
 C135 C 0.69622 -0.02179 0.45151
 C136 C 0.67280 -0.02136 0.42569
 C137 C 0.69994 0.02866 0.40720
 C138 C 0.79650 -0.03658 0.51629
 C139 C 0.81584 -0.06288 0.51675
 C140 C 0.78926 -0.08372 0.46490
 C141 C 0.77036 -0.05700 0.46540
 N142 N 0.77402 -0.03430 0.49111
 H143 H 0.74180 0.04670 0.43700
 H144 H 0.69460 -0.04098 0.46943
 H145 H 0.65315 -0.04036 0.42352
 H146 H 0.70153 0.04891 0.39055
 H147 H 0.79918 -0.01800 0.53618
 H148 H 0.83353 -0.06457 0.53702
 H149 H 0.78616 -0.10175 0.44445
 H150 H 0.75286 -0.05445 0.44527
 C151 C 0.82369 0.09236 0.49821
 C152 C 0.67573 -0.00326 0.58420
 C153 C 0.81208 -0.08675 0.49092
 C154 C 0.67455 0.00424 0.40352
 C155 C 0.48748 0.20594 1.00891
 H156 H 0.46977 0.20190 0.98846
 C157 C 0.48583 0.18592 1.03664
 H158 H 0.46682 0.16632 1.03764
 C159 C 0.53416 0.23622 1.03251
 H160 H 0.55323 0.25553 1.03060
 C161 C 0.53340 0.21674 1.06071
 H162 H 0.55174 0.22123 1.08056
 N163 N 0.51108 0.23080 1.00757
 C164 C 0.46767 0.29956 0.94326
 H165 H 0.48591 0.30236 0.92339
 C166 C 0.43987 0.31732 0.94296
 H167 H 0.43661 0.33390 0.92282
 C168 C 0.45001 0.27539 0.99447
 H169 H 0.45433 0.25967 1.01498
 C170 C 0.42193 0.29264 0.99513
 H171 H 0.40467 0.28990 1.01595
 Zn172 Zn 0.51100 0.25670 0.96908
 N173 N 0.47210 0.27894 0.96868
 C174 C 0.48803 0.22517 0.90752
 N175 N 0.51295 0.22855 0.93069
 C176 C 0.53829 0.20903 0.92940
 C177 C 0.53889 0.18447 0.90449
 C178 C 0.48766 0.20083 0.88219
 C179 C 0.54708 0.31039 0.99649
 C180 C 0.57322 0.33379 1.00049
 C181 C 0.59920 0.31069 0.95116
 C182 C 0.57248 0.28759 0.94808
 N183 N 0.54735 0.28766 0.97090
 H184 H 0.46766 0.24031 0.90954
 H185 H 0.55734 0.21176 0.94864
 H186 H 0.55853 0.16828 0.90442
 H187 H 0.46711 0.19745 0.86465
 H188 H 0.52660 0.31006 1.01401
 H189 H 0.57285 0.35169 1.02107
 H190 H 0.61920 0.31054 0.93304
 H191 H 0.57191 0.26969 0.92756
 C192 C 0.41685 0.31381 0.96919
 C193 C 0.50890 0.19150 1.06283
 C194 C 0.59958 0.33384 0.97777
 C195 C 0.51308 0.18002 0.88103
 C196 C 0.46694 0.78857 -0.01402
 H197 H 0.44775 0.78983 0.00487
 C198 C 0.46735 0.80849 -0.04182
 H199 H 0.44840 0.82518 -0.04447
 C200 C 0.51560 0.76584 -0.03331
 H201 H 0.53474 0.74971 -0.02959
 C202 C 0.51693 0.78536 -0.06149
 H203 H 0.53690 0.78398 -0.07954
 N204 N 0.49065 0.76756 -0.01046
 C205 C 0.44477 0.69339 0.05349
 H206 H 0.46186 0.69424 0.07456
 C207 C 0.41789 0.67042 0.05227
 H208 H 0.41427 0.65344 0.07241
 C209 C 0.42947 0.71326 0.00048
 H210 H 0.43452 0.72928 -0.02017
 C211 C 0.40234 0.69073 -0.00171
 H212 H 0.38657 0.68965 -0.02393
 Zn213 Zn 0.48869 0.74248 0.02873
 N214 N 0.45008 0.71415 0.02775
 C215 C 0.46380 0.77196 0.08908
 N216 N 0.48891 0.77188 0.06625
 C217 C 0.51426 0.79509 0.06746
 C218 C 0.51496 0.81986 0.09219
 C219 C 0.46348 0.79648 0.11423
 C220 C 0.52816 0.69456 0.00501
 C221 C 0.55567 0.67649 0.00338
 C222 C 0.57670 0.70484 0.05431
 C223 C 0.54878 0.72242 0.05498
 N224 N 0.52555 0.71746 0.03013
 H225 H 0.44348 0.75375 0.08712
 H226 H 0.53351 0.79478 0.04854
 H227 H 0.53483 0.83870 0.09237
 H228 H 0.44297 0.79705 0.13171
 H229 H 0.50913 0.69086 -0.01418
 H230 H 0.55784 0.65868 -0.01704
 H231 H 0.59533 0.70921 0.07387
 H232 H 0.54592 0.74017 0.07517
 C233 C 0.39665 0.66897 0.02426
 C234 C 0.49256 0.80682 -0.06576
 C235 C 0.58031 0.68195 0.02805
 C236 C 0.48918 0.82077 0.11552
 C237 C 1.03913 0.46120 0.20529
 H238 H 1.01899 0.44269 0.20456
 C239 C 1.06462 0.45997 0.18175
 H240 H 1.06427 0.44034 0.16295
 C241 C 1.06364 0.50998 0.22999
 H242 H 1.06273 0.52977 0.24833
 C243 C 1.08967 0.50968 0.20679
 H244 H 1.10897 0.52906 0.20757
 N245 N 1.03910 0.48586 0.22885
 C246 C 0.97295 0.44640 0.30723
 H247 H 0.95428 0.46359 0.30786
 C248 C 0.97121 0.42103 0.32975
 H249 H 0.95109 0.41856 0.34770
 C250 C 1.02270 0.42920 0.28405
 H251 H 1.04318 0.43283 0.26684
 C252 C 1.02188 0.40354 0.30606
 H253 H 1.04155 0.38739 0.30543
 Zn254 Zn 1.00131 0.48630 0.25684
 N255 N 0.99840 0.44998 0.28491
 C256 C 0.93898 0.46345 0.22691
 N257 N 0.96508 0.48591 0.22673
 C258 C 0.96734 0.50939 0.20347
 C259 C 0.94245 0.51146 0.17958
 C260 C 0.91338 0.46467 0.20333
 C261 C 1.02712 0.52930 0.30889
 C262 C 1.02802 0.55643 0.33096
 C263 C 0.97837 0.57204 0.30455
 C264 C 0.97837 0.54471 0.28305
 N265 N 1.00265 0.52409 0.28536
 H266 H 0.93796 0.44463 0.24519
 H267 H 0.98857 0.52666 0.20366
 H268 H 0.94441 0.53046 0.16139
 H269 H 0.89251 0.44696 0.20368
 H270 H 1.04580 0.51227 0.31061
 H271 H 1.04748 0.56037 0.34970
 H272 H 0.95884 0.58819 0.30260
 H273 H 0.95864 0.53981 0.26490
 C274 C 0.99600 0.39947 0.32922
 C275 C 1.09002 0.48449 0.18237
 C276 C 1.00338 0.57798 0.32872
 C277 C 0.91518 0.48900 0.17954
 C278 C -0.04158 0.48899 0.79769
 H279 H -0.02397 0.47077 0.79773
 C280 C -0.06710 0.48827 0.82143
 H281 H -0.06930 0.46936 0.83971
 C282 C -0.05953 0.53666 0.77473
 H283 H -0.05605 0.55591 0.75707
 C284 C -0.08540 0.53683 0.79804
 H285 H -0.10194 0.55604 0.79802
 N286 N -0.03829 0.51290 0.77492
 C287 C 0.02141 0.47588 0.69239
 H288 H 0.04042 0.49542 0.69139
 C289 C 0.02217 0.44937 0.66980
 H290 H 0.04185 0.44844 0.65136
 C291 C -0.02746 0.45316 0.71766
 H292 H -0.04690 0.45484 0.73615
 C293 C -0.02762 0.42616 0.69550
 H294 H -0.04704 0.40702 0.69716
 Zn295 Zn -0.00106 0.51386 0.74599
 N296 N -0.00287 0.47710 0.71604
 C297 C 0.05669 0.48964 0.77221
 N298 N 0.03644 0.51421 0.77456
 C299 C 0.04062 0.53768 0.79943
 C300 C 0.06583 0.53683 0.82342
 C301 C 0.08218 0.48793 0.79559
 C302 C -0.02397 0.55195 0.69560
 C303 C -0.02404 0.57766 0.67376
 C304 C 0.02662 0.60034 0.69973
 C305 C 0.02575 0.57414 0.72118
 N306 N 0.00056 0.55071 0.71884
 H307 H 0.05251 0.47073 0.75295
 H308 H 0.02375 0.55655 0.80117
 H309 H 0.06856 0.55519 0.84357
 H310 H 0.09771 0.46791 0.79394
 H311 H -0.04341 0.53277 0.69396
 H312 H -0.04365 0.57836 0.65528
 H313 H 0.04679 0.61883 0.70158
 H314 H 0.04534 0.57239 0.73934
 C315 C -0.00244 0.42419 0.67150
 C316 C -0.08910 0.51251 0.82171
 C317 C 0.00149 0.60207 0.67579
 C318 C 0.08660 0.51153 0.82162
 C319 C 0.12913 0.16245 0.50974
 C320 C 0.11564 0.17023 0.47872
 C321 C 0.09157 0.19241 0.47777
 C322 C 0.08092 0.20781 0.50785
 C323 C 0.09486 0.19974 0.53894
 C324 C 0.11893 0.17748 0.53980
 C325 C 0.15154 0.13730 0.51076
 C326 C 0.16957 0.11558 0.51098
 H327 H 0.12289 0.15830 0.45533
 H328 H 0.08036 0.19648 0.45354
 H329 H 0.08623 0.20942 0.56285
 H330 H 0.12875 0.17117 0.56404
 C331 C 0.66059 0.62908 0.02121
 C332 C 0.67392 0.62243 -0.01074
 C333 C 0.69820 0.60054 -0.01432
 C334 C 0.70997 0.58527 0.01420
 C335 C 0.69655 0.59261 0.04631
 C336 C 0.67229 0.61450 0.04978
 C337 C 0.63296 0.64856 0.02418
 C338 C 0.60915 0.66405 0.02623
 H339 H 0.66458 0.63315 -0.03313
 H340 H 0.70629 0.59447 -0.03970
 H341 H 0.70364 0.58026 0.06859
 H342 H 0.66172 0.61904 0.07457
 C343 C 0.87138 -0.16162 0.49270
 C344 C 0.88305 -0.17539 0.46260
 C345 C 0.90703 -0.19770 0.46370
 C346 C 0.91944 -0.20706 0.49501
 C347 C 0.90720 -0.19311 0.52514
 C348 C 0.88321 -0.17084 0.52394
 C349 C 0.84950 -0.13603 0.49155
 C350 C 0.83207 -0.11386 0.49099
 H351 H 0.87453 -0.16798 0.43822
 H352 H 0.91691 -0.20645 0.43993
 H353 H 0.91720 -0.19808 0.54966
 H354 H 0.87483 -0.15985 0.54740
 C355 C 0.33929 0.37013 0.97712
 C356 C 0.32728 0.38544 0.94917
 C357 C 0.30355 0.40778 0.95372
 C358 C 0.29095 0.41480 0.98629
 C359 C 0.30337 0.39911 1.01420
 C360 C 0.32706 0.37677 1.00956
 C361 C 0.36598 0.34960 0.97311
 C362 C 0.38896 0.33304 0.97072
 H363 H 0.33707 0.38097 0.92402
 H364 H 0.29609 0.42051 0.93185
 H365 H 0.29612 0.40501 1.03991
 H366 H 0.33673 0.36554 1.03148
 C367 C 0.89964 0.16186 0.50717
 C368 C 0.90334 0.18904 0.48703
 C369 C 0.93261 0.20909 0.48853
 C370 C 0.95847 0.20180 0.50988
 C371 C 0.95393 0.17522 0.53094
 C372 C 0.92476 0.15543 0.52956
 C373 C 0.87142 0.13900 0.50354
 C374 C 0.84906 0.11835 0.50092
 H375 H 0.88407 0.19419 0.46952
 H376 H 0.93561 0.22931 0.47192
 H377 H 0.97328 0.16935 0.54801
 H378 H 0.92218 0.13452 0.54530
 C379 C 0.32896 0.59267 0.00932
 C380 C 0.33677 0.57066 -0.01647
 C381 C 0.31778 0.54157 -0.02113
 C382 C 0.29065 0.53404 -0.00000
 C383 C 0.28195 0.55688 0.02481
 C384 C 0.30116 0.58605 0.02960
 C385 C 0.35102 0.62081 0.01590
 C386 C 0.37114 0.64329 0.02038
 H387 H 0.35816 0.57557 -0.03238
 H388 H 0.32476 0.52457 -0.04078
 H389 H 0.26139 0.55157 0.04156
 H390 H 0.29494 0.60292 0.04970
 C391 C 0.10014 -0.15957 0.48998
 C392 C 0.09730 -0.18612 0.51107
 C393 C 0.06825 -0.20648 0.51091
 C394 C 0.04175 -0.20016 0.48994
 C395 C 0.04542 -0.17424 0.46791
 C396 C 0.07438 -0.15412 0.46796
 C397 C 0.12815 -0.13634 0.49230
 C398 C 0.15038 -0.11549 0.49397
 H399 H 0.11707 -0.19049 0.52831
 H400 H 0.06592 -0.22616 0.52826
 H401 H 0.02556 -0.16913 0.45112
 H402 H 0.07630 -0.13372 0.45151
 C403 C 0.66964 0.40780 0.99340
 C404 C 0.66163 0.43002 1.01890
 C405 C 0.68095 0.45884 1.02389
 C406 C 0.70864 0.46587 1.00340
 C407 C 0.71760 0.44282 0.97891
 C408 C 0.69800 0.41391 0.97377
 C409 C 0.64706 0.38017 0.98636
 C410 C 0.62621 0.35837 0.98169
 H411 H 0.63979 0.42551 1.03428
 H412 H 0.67380 0.47605 1.04324
 H413 H 0.73872 0.44784 0.96270
 H414 H 0.70436 0.39687 0.95389
 C415 C 0.50497 0.13142 1.14253
 C416 C 0.53342 0.11763 1.15279
 C417 C 0.53161 0.09444 1.17764
 C418 C 0.50135 0.08503 1.19321
 C419 C 0.47282 0.09903 1.18236
 C420 C 0.47472 0.12223 1.15746
 C421 C 0.50648 0.15329 1.11505
 C422 C 0.50768 0.17098 1.09145
 H423 H 0.55686 0.12411 1.14088
 H424 H 0.55380 0.08308 1.18381
 H425 H 0.44875 0.09130 1.19197
 H426 H 0.45242 0.13229 1.14914
 C427 C -0.00002 0.67375 0.60752
 C428 C 0.01152 0.66795 0.57460
 C429 C 0.00720 0.69002 0.54930
 C430 C -0.00887 0.71820 0.55642
 C431 C -0.01940 0.72436 0.58994
 C432 C -0.01507 0.70224 0.61526
 C433 C 0.00157 0.64940 0.63252
 C434 C 0.00200 0.62822 0.65267
 H435 H 0.02302 0.64589 0.56823
 H436 H 0.01521 0.68419 0.52395
 H437 H -0.03141 0.74606 0.59650
 H438 H -0.02413 0.70702 0.64065
 C439 C 0.49664 0.86809 -0.14446
 C440 C 0.52661 0.87613 -0.16050
 C441 C 0.52858 0.89930 -0.18543
 C442 C 0.50034 0.91444 -0.19518
 C443 C 0.47042 0.90629 -0.17842
 C444 C 0.46854 0.88313 -0.15352
 C445 C 0.49513 0.84587 -0.11729
 C446 C 0.49393 0.82780 -0.09401
 H447 H 0.54867 0.86509 -0.15312
 H448 H 0.55254 0.90594 -0.19589
 H449 H 0.44855 0.91844 -0.18396
 H450 H 0.44533 0.87752 -0.14078
 C451 C 1.00026 0.32846 0.39799
 C452 C 0.97932 0.32630 0.42601
 C453 C 0.98391 0.30387 0.45096
 C454 C 1.01013 0.28330 0.44885
 C455 C 1.02992 0.28493 0.41926
 C456 C 1.02516 0.30734 0.39442
 C457 C 0.99727 0.35315 0.37359
 C458 C 0.99601 0.37414 0.35330
 H459 H 0.95971 0.34239 0.42893
 H460 H 0.96705 0.30395 0.47198
 H461 H 1.04923 0.26897 0.41457
 H462 H 1.04128 0.30842 0.37252
 C463 C 0.48705 0.90400 0.17234
 C464 C 0.47856 0.93034 0.15419
 C465 C 0.48058 0.96111 0.16943
 C466 C 0.49137 0.96646 0.20342
 C467 C 0.49881 0.93924 0.22179
 C468 C 0.49688 0.90838 0.20625
 C469 C 0.48722 0.87308 0.15499
 C470 C 0.48782 0.84845 0.13814
 H471 H 0.47063 0.92717 0.12795
 H472 H 0.47283 0.98037 0.15432
 H473 H 0.50758 0.94135 0.24763
 H474 H 0.50370 0.88807 0.22050
 C475 C 0.00317 0.34585 0.60693
 C476 C 0.01850 0.31895 0.61767
 C477 C 0.02315 0.29322 0.59485
 C478 C 0.01255 0.29406 0.56092
 C479 C -0.00336 0.32092 0.55055
 C480 C -0.00797 0.34666 0.57339
 C481 C 0.00024 0.37319 0.62986
 C482 C -0.00143 0.39633 0.64891
 H483 H 0.02725 0.31805 0.64356
 H484 H 0.03515 0.27271 0.60374
 H485 H -0.01126 0.32264 0.52457
 H486 H -0.01966 0.36745 0.56470
 C487 C 0.50546 0.09623 0.82433
 C488 C 0.52241 0.09087 0.79399
 C489 C 0.52127 0.05990 0.77881
 C490 C 0.50349 0.03397 0.79405
 C491 C 0.48572 0.03990 0.82396
 C492 C 0.48677 0.07078 0.83897
 C493 C 0.50851 0.12711 0.84194
 C494 C 0.51080 0.15190 0.85873
 H495 H 0.53705 0.11042 0.78250
 H496 H 0.53520 0.05613 0.75589
 H497 H 0.47114 0.02063 0.83591
 H498 H 0.47348 0.07468 0.86241
 C499 C 0.99799 0.65601 0.39372
 C500 C 1.01686 0.65986 0.42338
 C501 C 1.01213 0.68530 0.44658
 C502 C 0.98803 0.70715 0.44081
 C503 C 0.97020 0.70367 0.41000
 C504 C 0.97502 0.67826 0.38686
 C505 C 1.00123 0.62867 0.37086
 C506 C 1.00285 0.60560 0.35172
 H507 H 1.03495 0.64293 0.42886
 H508 H 1.02717 0.68711 0.46908
 H509 H 0.95243 0.72048 0.40344
 H510 H 0.96050 0.67576 0.36374
 C511 C 1.16058 0.47948 0.10912
 C512 C 1.17741 0.50689 0.09606
 C513 C 1.20020 0.50373 0.06976
 C514 C 1.20657 0.47309 0.05627
 C515 C 1.18928 0.44572 0.06952
 C516 C 1.16654 0.44893 0.09574
 C517 C 1.13649 0.48244 0.13558
 C518 C 1.11570 0.48391 0.15727
 H519 H 1.17287 0.53070 0.10611
 H520 H 1.21296 0.52529 0.06034
 H521 H 1.19273 0.42178 0.05925
 H522 H 1.15338 0.42755 0.10538
 C523 C 0.60601 -0.01423 0.65812
 C524 C 0.59462 -0.04556 0.66624
 C525 C 0.57077 -0.05054 0.69138
 C526 C 0.55801 -0.02418 0.70888
 C527 C 0.56935 0.00722 0.70024
 C528 C 0.59327 0.01217 0.67507
 C529 C 0.63069 -0.00941 0.63231
 C530 C 0.65131 -0.00618 0.61050
 H531 H 0.60413 -0.06617 0.65308
 H532 H 0.56205 -0.07505 0.69671
 H533 H 0.56023 0.02798 0.71322
 H534 H 0.60189 0.03654 0.66893
 C535 C -0.16006 0.51645 0.89479
 C536 C -0.15442 0.50499 0.92712
 C537 C -0.17763 0.50836 0.95293
 C538 C -0.20677 0.52333 0.94673
 C539 C -0.21243 0.53437 0.91402
 C540 C -0.18921 0.53095 0.88825
 C541 C -0.13543 0.51440 0.86871
 C542 C -0.11450 0.51326 0.84711
 H543 H -0.13184 0.49390 0.93252
 H544 H -0.17226 0.50010 0.97794
 H545 H -0.23482 0.54564 0.90835
 H546 H -0.19384 0.53990 0.86333
 C547 C 0.39388 0.01297 0.33744
 C548 C 0.42595 0.00439 0.34316
 C549 C 0.45007 0.00917 0.31820
 C550 C 0.44236 0.02268 0.28723
 C551 C 0.41000 0.03099 0.28160
 C552 C 0.38593 0.02616 0.30657
 C553 C 0.36946 0.00934 0.36367
 C554 C 0.34923 0.00696 0.38595
 H555 H 0.43241 -0.00561 0.36709
 H556 H 0.47488 0.00306 0.32353
 H557 H 0.40327 0.04109 0.25783
 H558 H 0.36120 0.03292 0.30190
 C559 C 0.15484 0.49693 0.89427
 C560 C 0.15856 0.46480 0.90181
 C561 C 0.18185 0.45732 0.92571
 C562 C 0.20188 0.48192 0.94245
 C563 C 0.19772 0.51421 0.93512
 C564 C 0.17435 0.52167 0.91108
 C565 C 0.13117 0.50400 0.86896
 C566 C 0.11103 0.50831 0.84745
 H567 H 0.14349 0.44547 0.88910
 H568 H 0.18400 0.43226 0.93123
 H569 H 0.21302 0.53364 0.94733
 H570 H 0.17172 0.54664 0.90541
 C571 C 0.60269 0.01389 0.33329
 C572 C 0.58667 -0.01253 0.31563
 C573 C 0.56207 -0.00773 0.29193
 C574 C 0.55332 0.02355 0.28558
 C575 C 0.56938 0.04989 0.30372
 C576 C 0.59389 0.04505 0.32736
 C577 C 0.62810 0.00933 0.35761
 C578 C 0.64938 0.00651 0.37831
 H579 H 0.59330 -0.03677 0.32004
 H580 H 0.55044 -0.02840 0.27813
 H581 H 0.56278 0.07423 0.29994
 H582 H 0.60597 0.06565 0.34106
 C583 C 0.84411 0.50303 0.10980
 C584 C 0.82437 0.47830 0.09327
 C585 C 0.80119 0.48574 0.06905
 C586 C 0.79748 0.51800 0.06119
 C587 C 0.81762 0.54259 0.07779
 C588 C 0.84072 0.53513 0.10190
 C589 C 0.86826 0.49595 0.13461
 C590 C 0.88921 0.49178 0.15529
 H591 H 0.82682 0.45336 0.09917
 H592 H 0.78577 0.46631 0.05700
 H593 H 0.81583 0.56762 0.07188
 H594 H 0.85604 0.55445 0.11433
 C595 C 0.39630 -0.01706 0.66517
 C596 C 0.41248 0.00939 0.68261
 C597 C 0.43756 0.00466 0.70578
 C598 C 0.44668 -0.02659 0.71174
 C599 C 0.43025 -0.05299 0.69407
 C600 C 0.40525 -0.04821 0.67095
 C601 C 0.37102 -0.01247 0.64072
 C602 C 0.35015 -0.00960 0.61959
 H603 H 0.40574 0.03361 0.67830
 H604 H 0.44942 0.02540 0.71937
 H605 H 0.43704 -0.07729 0.69769
 H606 H 0.39304 -0.06883 0.65739
   
