data_POSCAR
  _audit_creation_date              2014-09-24
  _audit_creation_method            'ToBaCCo'
  _symmetry_space_group_name_H-M    'P1'
  _symmetry_Int_Tables_number       1
  _symmetry_cell_setting            triclinic
  loop_
  _symmetry_equiv_pos_as_xyz
 x,y,z
_cell_length_a 20.4992
_cell_length_b 20.4992
_cell_length_c 34.8900
_cell_angle_alpha 89.893100
_cell_angle_beta 89.892900
_cell_angle_gamma 90.000100
loop_
  _atom_site_label
  _atom_site_type_symbol
  _atom_site_fract_x
  _atom_site_fract_y
  _atom_site_fract_z
O1 O -0.05406 0.56279 0.96347
 O2 O -0.05408 0.43541 1.03802
 O3 O -0.05413 0.56264 1.03798
 O4 O -0.05406 0.43562 0.96350
 O5 O 0.05352 0.43562 0.96342
 O6 O 0.05345 0.56264 1.03790
 O7 O 0.05340 0.43542 1.03793
 O8 O 0.05352 0.56279 0.96339
 Cu9 Cu -0.06485 0.49911 1.00076
 Cu10 Cu 0.06424 0.49912 1.00066
 C11 C -0.00026 0.58482 0.95077
 C12 C -0.00035 0.41319 1.05068
 C13 C -0.00035 0.58466 1.05057
 C14 C -0.00026 0.41365 0.95081
 O15 O 0.56458 0.05408 0.46198
 O16 O 0.43721 0.05406 0.53652
 O17 O 0.56438 0.05406 0.53649
 O18 O 0.43735 0.05413 0.46201
 O19 O 0.43736 -0.05345 0.46209
 O20 O 0.56438 -0.05353 0.53657
 O21 O 0.43721 -0.05353 0.53660
 O22 O 0.56458 -0.05340 0.46206
 Cu23 Cu 0.50088 0.06485 0.49923
 Cu24 Cu 0.50088 -0.06424 0.49933
 C25 C 0.58680 0.00035 0.44931
 C26 C 0.41518 0.00025 0.54923
 C27 C 0.58635 0.00025 0.54918
 C28 C 0.41534 0.00035 0.44943
 C29 C -0.00038 0.00038 0.25000
 C30 C 0.00010 -0.00010 0.75000
 C31 C 0.05865 -0.28618 0.12004
 C32 C -0.00042 -0.26033 0.13325
 C33 C -0.05947 -0.28616 0.12013
 C34 C -0.05952 -0.33720 0.09359
 C35 C -0.00038 -0.36302 0.07978
 C36 C 0.05874 -0.33721 0.09351
 C37 C -0.00043 -0.20609 0.15938
 C38 C -0.00044 -0.15999 0.18078
 C39 C -0.00043 -0.10529 0.20527
 C40 C -0.00041 -0.05793 0.22573
 H41 H 0.10465 -0.26645 0.12995
 H42 H -0.10548 -0.26642 0.13011
 H43 H -0.10585 -0.35593 0.08361
 H44 H 0.10510 -0.35596 0.08346
 C45 C 0.05862 0.28653 0.11911
 C46 C -0.00042 0.26072 0.13239
 C47 C -0.05943 0.28652 0.11921
 C48 C -0.05954 0.33748 0.09252
 C49 C -0.00037 0.36345 0.07849
 C50 C 0.05877 0.33749 0.09243
 C51 C -0.00043 0.20656 0.15870
 C52 C -0.00044 0.16053 0.18025
 C53 C -0.00043 0.10591 0.20493
 C54 C -0.00041 0.05861 0.22554
 H55 H 0.10460 0.26683 0.12911
 H56 H -0.10543 0.26681 0.12928
 H57 H -0.10610 0.35597 0.08266
 H58 H 0.10534 0.35598 0.08250
 C59 C 0.28621 -0.05888 0.61919
 C60 C 0.26043 0.00016 0.63241
 C61 C 0.28619 0.05924 0.61910
 C62 C 0.33710 0.05934 0.59237
 C63 C 0.36288 0.00022 0.57857
 C64 C 0.33712 -0.05892 0.59247
 C65 C 0.20634 0.00013 0.65877
 C66 C 0.16036 0.00009 0.68036
 C67 C 0.10576 0.00003 0.70504
 C68 C 0.05843 -0.00002 0.72563
 H69 H 0.26653 -0.10490 0.62926
 H70 H 0.26650 0.10523 0.62909
 H71 H 0.35580 0.10570 0.58226
 H72 H 0.35583 -0.10526 0.58243
 C73 C -0.28510 -0.05888 0.61913
 C74 C -0.25941 0.00016 0.63235
 C75 C -0.28508 0.05924 0.61903
 C76 C -0.33582 0.05934 0.59231
 C77 C -0.36151 0.00022 0.57850
 C78 C -0.33584 -0.05892 0.59240
 C79 C -0.20550 0.00013 0.65872
 C80 C -0.15968 0.00009 0.68032
 C81 C -0.10525 0.00003 0.70502
 C82 C -0.05807 -0.00002 0.72562
 H83 H -0.26549 -0.10490 0.62919
 H84 H -0.26545 0.10523 0.62903
 H85 H -0.35446 0.10569 0.58220
 H86 H -0.35449 -0.10526 0.58237
 C87 C -0.05924 -0.28619 0.88089
 C88 C -0.00017 -0.26043 0.86758
 C89 C 0.05888 -0.28621 0.88080
 C90 C 0.05892 -0.33712 0.90752
 C91 C -0.00023 -0.36288 0.92142
 C92 C -0.05934 -0.33710 0.90762
 C93 C -0.00013 -0.20634 0.84122
 C94 C -0.00009 -0.16036 0.81964
 C95 C -0.00004 -0.10576 0.79495
 C96 C 0.00002 -0.05843 0.77436
 H97 H -0.10523 -0.26650 0.87090
 H98 H 0.10490 -0.26653 0.87073
 H99 H 0.10525 -0.35583 0.91756
 H100 H -0.10570 -0.35580 0.91773
 C101 C 0.05888 0.28509 0.88086
 C102 C -0.00016 0.25940 0.86764
 C103 C -0.05924 0.28507 0.88096
 C104 C -0.05934 0.33582 0.90768
 C105 C -0.00023 0.36151 0.92149
 C106 C 0.05892 0.33584 0.90759
 C107 C -0.00013 0.20550 0.84127
 C108 C -0.00009 0.15967 0.81967
 C109 C -0.00004 0.10525 0.79497
 C110 C 0.00002 0.05807 0.77437
 H111 H 0.10490 0.26548 0.87080
 H112 H -0.10523 0.26545 0.87097
 H113 H -0.10570 0.35445 0.91779
 H114 H 0.10525 0.35449 0.91762
 C115 C -0.28653 -0.05862 0.38088
 C116 C -0.26072 0.00041 0.36760
 C117 C -0.28652 0.05943 0.38079
 C118 C -0.33748 0.05954 0.40747
 C119 C -0.36345 0.00037 0.42151
 C120 C -0.33749 -0.05877 0.40756
 C121 C -0.20656 0.00043 0.34129
 C122 C -0.16053 0.00044 0.31974
 C123 C -0.10591 0.00043 0.29506
 C124 C -0.05861 0.00041 0.27445
 H125 H -0.26683 -0.10460 0.37088
 H126 H -0.26681 0.10543 0.37072
 H127 H -0.35597 0.10610 0.41733
 H128 H -0.35598 -0.10534 0.41749
 C129 C 0.28616 0.05947 0.37986
 C130 C 0.26033 0.00042 0.36674
 C131 C 0.28618 -0.05865 0.37995
 C132 C 0.33721 -0.05875 0.40648
 C133 C 0.36302 0.00038 0.42021
 C134 C 0.33719 0.05952 0.40640
 C135 C 0.20608 0.00043 0.34061
 C136 C 0.15999 0.00044 0.31921
 C137 C 0.10529 0.00043 0.29472
 C138 C 0.05793 0.00041 0.27426
 H139 H 0.26642 0.10548 0.36988
 H140 H 0.26645 -0.10465 0.37004
 H141 H 0.35596 -0.10510 0.41653
 H142 H 0.35593 0.10585 0.41638
   
