data_POSCAR
  _audit_creation_date              2014-09-24
  _audit_creation_method            'ToBaCCo'
  _symmetry_space_group_name_H-M    'P1'
  _symmetry_Int_Tables_number       1
  _symmetry_cell_setting            triclinic
  loop_
  _symmetry_equiv_pos_as_xyz
 x,y,z
_cell_length_a 24.3532
_cell_length_b 24.3533
_cell_length_c 24.3533
_cell_angle_alpha 75.133000
_cell_angle_beta 104.864400
_cell_angle_gamma 75.130200
loop_
  _atom_site_label
  _atom_site_type_symbol
  _atom_site_fract_x
  _atom_site_fract_y
  _atom_site_fract_z
O1 O 0.59221 0.47586 0.05602
 O2 O 0.43363 0.49720 0.04356
 O3 O 0.52534 0.40675 0.05672
 O4 O 0.50020 0.56611 0.04268
 O5 O 0.47367 0.59227 -0.05659
 O6 O 0.49888 0.43294 -0.04255
 O7 O 0.40685 0.52308 -0.05560
 O8 O 0.56545 0.50183 -0.04325
 Cu9 Cu 0.51548 0.48391 0.05967
 Cu10 Cu 0.48356 0.51511 -0.05943
 C11 C 0.60578 0.48627 0.00828
 C12 C 0.39315 0.51267 -0.00789
 C13 C 0.51534 0.39276 0.00923
 C14 C 0.48376 0.60628 -0.00911
 O15 O -0.05570 0.59375 0.47605
 O16 O -0.04333 0.43517 0.49735
 O17 O -0.04246 0.50174 0.56623
 O18 O -0.05651 0.52690 0.40687
 O19 O 0.04276 0.50041 0.43304
 O20 O 0.05681 0.47523 0.59238
 O21 O 0.05593 0.40839 0.52327
 O22 O 0.04347 0.56699 0.50197
 Cu23 Cu -0.05943 0.51705 0.48403
 Cu24 Cu 0.05967 0.48512 0.51522
 C25 C -0.00800 0.60746 0.48654
 C26 C 0.00818 0.39483 0.51294
 C27 C 0.00933 0.48528 0.60639
 C28 C -0.00902 0.51686 0.39287
 O29 O 0.49750 0.04320 0.56687
 O30 O 0.47618 0.05566 0.40828
 O31 O 0.40708 0.05644 0.47512
 O32 O 0.56642 0.04240 0.50027
 O33 O 0.59259 -0.05687 0.52678
 O34 O 0.43325 -0.04283 0.50160
 O35 O 0.50213 -0.04360 0.43505
 O36 O 0.52340 -0.05596 0.59364
 Cu37 Cu 0.48423 0.05935 0.48501
 Cu38 Cu 0.51544 -0.05975 0.51693
 C39 C 0.51294 -0.00826 0.60734
 C40 C 0.48655 0.00792 0.39471
 C41 C 0.39307 0.00895 0.48512
 C42 C 0.60659 -0.00939 0.51670
 C43 C 0.50515 -0.01036 -0.05348
 C44 C 0.49404 -0.05323 -0.01067
 C45 C 0.48941 -0.04323 0.04237
 C46 C 0.49550 0.00900 0.05331
 C47 C 0.50659 0.05188 0.01050
 C48 C 0.51126 0.04186 -0.04253
 H49 H 0.51944 0.07513 -0.07569
 H50 H 0.48118 -0.07647 0.07552
 C51 C -0.01028 0.50724 1.05224
 C52 C -0.05306 0.49611 1.00938
 C53 C -0.04213 0.49005 0.95714
 C54 C 0.01090 0.49469 0.94713
 C55 C 0.05373 0.50576 0.99002
 C56 C 0.04277 0.51188 1.04223
 H57 H 0.07592 0.52007 1.07550
 H58 H -0.07527 0.48182 0.92389
 C59 C 0.05203 0.01047 0.49347
 C60 C 0.00915 0.05328 0.50454
 C61 C -0.04308 0.04234 0.51064
 C62 C -0.05308 -0.01071 0.50602
 C63 C -0.01021 -0.05350 0.49489
 C64 C 0.04201 -0.04256 0.48880
 H65 H 0.07529 -0.07571 0.48061
 H66 H -0.07633 0.07549 0.51887
 C67 C -0.21521 0.48452 1.01764
 C68 C -0.22972 0.47310 1.07049
 C69 C -0.28754 0.47200 1.06789
 C70 C -0.33154 0.48250 1.01228
 C71 C -0.31601 0.49285 0.95969
 C72 C -0.25829 0.49381 0.96244
 C73 C -0.15676 0.48789 1.01895
 C74 C -0.10888 0.49147 1.01661
 H75 H -0.19669 0.46582 1.11348
 H76 H -0.29813 0.46413 1.10915
 H77 H -0.34873 0.50116 0.91619
 H78 H -0.24750 0.50259 0.92126
 C79 C 0.21654 0.51576 0.98245
 C80 C 0.26049 0.50327 1.03816
 C81 C 0.31844 0.50360 1.04121
 C82 C 0.33360 0.51642 0.98834
 C83 C 0.28844 0.53027 0.93219
 C84 C 0.23041 0.52977 0.92938
 C85 C 0.15779 0.51312 0.98080
 C86 C 0.10971 0.51001 0.98294
 H87 H 0.25016 0.49255 1.07951
 H88 H 0.35153 0.49284 1.08527
 H89 H 0.29810 0.54041 0.89045
 H90 H 0.19664 0.53964 0.88597
 C91 C -0.01776 -0.21612 0.48423
 C92 C -0.07081 -0.22998 0.47003
 C93 C -0.06797 -0.28794 0.46924
 C94 C -0.01180 -0.33303 0.48298
 C95 C 0.04106 -0.31785 0.49597
 C96 C 0.03797 -0.25998 0.49659
 C97 C -0.01945 -0.15745 0.48716
 C98 C -0.01732 -0.10942 0.49047
 H99 H -0.11424 -0.19627 0.46025
 H100 H -0.10970 -0.29761 0.45897
 H101 H 0.08514 -0.35090 0.50666
 H102 H 0.07931 -0.24965 0.50745
 C103 C 0.01744 0.21562 0.51550
 C104 C -0.03773 0.25879 0.50615
 C105 C -0.04044 0.31658 0.50681
 C106 C 0.01215 0.33210 0.51692
 C107 C 0.06773 0.28803 0.52746
 C108 C 0.07030 0.23014 0.52665
 C109 C 0.01870 0.15709 0.51241
 C110 C 0.01635 0.10916 0.50903
 H111 H -0.07891 0.24800 0.49756
 H112 H -0.08392 0.34936 0.49849
 H113 H 0.10899 0.29862 0.53515
 H114 H 0.11326 0.19704 0.53397
 C115 C 0.51555 -0.01795 -0.21617
 C116 C 0.50315 0.03777 -0.26007
 C117 C 0.50366 0.04083 -0.31797
 C118 C 0.51657 -0.01204 -0.33313
 C119 C 0.53035 -0.06820 -0.28801
 C120 C 0.52968 -0.07101 -0.23003
 C121 C 0.51274 -0.01961 -0.15746
 C122 C 0.50950 -0.01747 -0.10942
 H123 H 0.49235 0.07912 -0.24974
 H124 H 0.49294 0.08490 -0.35104
 H125 H 0.54057 -0.10993 -0.29767
 H126 H 0.53949 -0.11443 -0.19629
 C127 C 0.48430 0.01726 0.21558
 C128 C 0.49365 -0.03794 0.25871
 C129 C 0.49287 -0.04067 0.31647
 C130 C 0.48265 0.01192 0.33200
 C131 C 0.47211 0.06751 0.28797
 C132 C 0.47303 0.07011 0.23010
 C133 C 0.48750 0.01855 0.15707
 C134 C 0.49096 0.01621 0.10916
 H135 H 0.50232 -0.07911 0.24791
 H136 H 0.50119 -0.08417 0.34923
 H137 H 0.46433 0.10877 0.29856
 H138 H 0.46571 0.11309 0.19703
 C139 C 0.48006 -0.21415 -0.01980
 C140 C 0.48862 -0.25675 0.03541
 C141 C 0.48803 -0.31460 0.03852
 C142 C 0.47878 -0.33073 -0.01371
 C143 C 0.46872 -0.28712 -0.06941
 C144 C 0.46949 -0.22916 -0.07237
 C145 C 0.48393 -0.15591 -0.02120
 C146 C 0.48824 -0.10838 -0.01860
 H147 H 0.49676 -0.24553 0.07636
 H148 H 0.49593 -0.34703 0.08206
 H149 H 0.46172 -0.29822 -0.11038
 H150 H 0.46282 -0.19648 -0.11534
 C151 C 0.51985 0.21301 0.01972
 C152 C 0.53006 0.22802 0.07230
 C153 C 0.53052 0.28606 0.06941
 C154 C 0.52051 0.32973 0.01378
 C155 C 0.51161 0.31362 -0.03846
 C156 C 0.51132 0.25569 -0.03542
 C157 C 0.51629 0.15469 0.02103
 C158 C 0.51220 0.10710 0.01840
 H159 H 0.53669 0.19528 0.11521
 H160 H 0.53726 0.29715 0.11038
 H161 H 0.50376 0.34610 -0.08195
 H162 H 0.50345 0.24448 -0.07638
 C163 C -0.21391 -0.01996 0.52020
 C164 C -0.25649 0.03521 0.51175
 C165 C -0.31432 0.03828 0.51241
 C166 C -0.33043 -0.01396 0.52162
 C167 C -0.28683 -0.06963 0.53158
 C168 C -0.22890 -0.07254 0.53074
 C169 C -0.15570 -0.02131 0.51624
 C170 C -0.10820 -0.01868 0.51188
 H171 H -0.24529 0.07617 0.50363
 H172 H -0.34674 0.08180 0.50459
 H173 H -0.29792 -0.11061 0.53855
 H174 H -0.19622 -0.11549 0.53733
 C175 C 0.21326 0.01956 0.48041
 C176 C 0.22828 0.07212 0.47018
 C177 C 0.28635 0.06919 0.46980
 C178 C 0.33003 0.01353 0.47991
 C179 C 0.31391 -0.03870 0.48884
 C180 C 0.25595 -0.03562 0.48905
 C181 C 0.15490 0.02093 0.48390
 C182 C 0.10728 0.01833 0.48792
 H183 H 0.19553 0.11507 0.46347
 H184 H 0.29745 0.11016 0.46302
 H185 H 0.34640 -0.08222 0.49677
 H186 H 0.24472 -0.07656 0.49695
 C187 C -0.01953 0.52090 1.21324
 C188 C -0.07211 0.53125 1.22824
 C189 C -0.06922 0.53189 1.28623
 C190 C -0.01358 0.52192 1.32986
 C191 C 0.03866 0.51288 1.31375
 C192 C 0.03562 0.51242 1.25587
 C193 C -0.02085 0.51716 1.15497
 C194 C -0.01820 0.51295 1.10742
 H195 H -0.11503 0.53785 1.19553
 H196 H -0.11020 0.53873 1.29732
 H197 H 0.08216 0.50506 1.34620
 H198 H 0.07658 0.50445 1.24467
 C199 C 0.02001 0.48112 0.78608
 C200 C -0.03519 0.48971 0.74345
 C201 C -0.03830 0.48930 0.68554
 C202 C 0.01392 0.48020 0.66941
 C203 C 0.06961 0.47012 0.71303
 C204 C 0.07257 0.47070 0.77105
 C205 C 0.02141 0.48481 0.84437
 C206 C 0.01881 0.48899 0.89195
 H207 H -0.07613 0.49774 0.75468
 H208 H -0.08183 0.49721 0.65310
 H209 H 0.11058 0.46322 0.70193
 H210 H 0.11553 0.46401 0.80375
   
