data_POSCAR
  _audit_creation_date              2014-09-24
  _audit_creation_method            'ToBaCCo'
  _symmetry_space_group_name_H-M    'P1'
  _symmetry_Int_Tables_number       1
  _symmetry_cell_setting            triclinic
  loop_
  _symmetry_equiv_pos_as_xyz
 x,y,z
_cell_length_a 35.2269
_cell_length_b 35.2488
_cell_length_c 35.1565
_cell_angle_alpha 89.998700
_cell_angle_beta 89.982300
_cell_angle_gamma 89.898900
loop_
  _atom_site_label
  _atom_site_type_symbol
  _atom_site_fract_x
  _atom_site_fract_y
  _atom_site_fract_z
C1 C 0.16869 0.16687 0.21584
 N2 N 0.20026 0.15119 0.20018
 C3 C 0.21599 0.16687 0.16864
 N4 N 0.20021 0.19829 0.15285
 C5 C 0.16865 0.21396 0.16851
 N6 N 0.15293 0.19828 0.20003
 C7 C -0.16831 0.83284 0.21586
 N8 N -0.19980 0.84858 0.20013
 C9 C -0.21554 0.83286 0.16863
 N10 N -0.19985 0.80134 0.15294
 C11 C -0.16837 0.78561 0.16866
 N12 N -0.15264 0.80133 0.20015
 C13 C -0.16943 0.16772 -0.21611
 N14 N -0.20091 0.15206 -0.20037
 C15 C -0.21666 0.16778 -0.16884
 N16 N -0.20099 0.19924 -0.15312
 C17 C -0.16951 0.21490 -0.16886
 N18 N -0.15378 0.19917 -0.20038
 C19 C 0.16953 0.83210 -0.21438
 N20 N 0.15389 0.80063 -0.19870
 C21 C 0.16965 0.78482 -0.16725
 N22 N 0.20114 0.80043 -0.15152
 C23 C 0.21681 0.83192 -0.16720
 N24 N 0.20103 0.84772 -0.19866
 C25 C 0.16707 1.16842 0.78411
 N26 N 0.19856 1.15271 0.79983
 C27 C 0.21428 1.16841 0.83134
 N28 N 0.19857 1.19990 0.84706
 C29 C 0.16708 1.21563 0.83135
 N30 N 0.15136 1.19992 0.79984
 C31 C 0.83307 0.83108 0.78384
 N32 N 0.80161 0.84680 0.79965
 C33 C 0.78592 0.83108 0.83117
 N34 N 0.80161 0.79955 0.84682
 C35 C 0.83307 0.78380 0.83104
 N36 N 0.84877 0.79954 0.79950
 C37 C 0.16777 0.83196 1.21599
 N38 N 0.15213 0.80047 1.20029
 C39 C 0.16792 0.78470 1.16881
 N40 N 0.19941 0.80034 1.15311
 C41 C 0.21505 0.83181 1.16880
 N42 N 0.19926 0.84758 1.20028
 C43 C 0.83248 1.16930 1.21589
 N44 N 0.80105 1.15361 1.20013
 C45 C 0.78532 1.16930 1.16860
 N46 N 0.80096 1.20077 1.15288
 C47 C 0.83239 1.21649 1.16861
 N48 N 0.84812 1.20078 1.20016
 N49 N 0.54000 1.06727 0.95901
 N50 N 0.56928 1.09018 0.95466
 N51 N 0.46013 1.04075 0.93279
 N52 N 0.43073 1.04492 0.90990
 N53 N 0.46007 1.06711 0.95916
 N54 N 0.43064 1.08994 0.95492
 N55 N 0.54006 1.04089 0.93266
 N56 N 0.56937 1.04514 0.90967
 C57 C 0.58733 1.07608 0.92369
 C58 C 0.41261 1.07580 0.92400
 N59 N 0.46056 0.93278 0.95936
 N60 N 0.43126 0.90986 0.95521
 N61 N 0.54036 0.95922 0.93279
 N62 N 0.56971 0.95496 0.90982
 N63 N 0.54047 0.93294 0.95925
 N64 N 0.56988 0.91009 0.95500
 N65 N 0.46042 0.95907 0.93292
 N66 N 0.43103 0.95475 0.91006
 Mn67 Mn 0.50024 0.99998 0.93230
 C68 C 0.41311 0.92386 0.92427
 C69 C 0.58785 0.92412 0.92399
 N70 N 0.46015 1.06723 1.04105
 N71 N 0.43067 1.09000 1.04532
 N72 N 0.54021 1.04110 1.06734
 N73 N 0.56959 1.04542 1.09021
 N74 N 0.54008 1.06739 1.04090
 N75 N 0.56937 1.09032 1.04507
 N76 N 0.46031 1.04092 1.06748
 N77 N 0.43095 1.04509 1.09044
 Mn78 Mn 0.50007 1.06773 1.00003
 C79 C 0.41274 1.07589 1.07633
 C80 C 0.58750 1.07631 1.07602
 N81 N 0.54061 0.93307 1.04111
 N82 N 0.57004 0.91024 1.04539
 N83 N 0.46062 0.95928 1.06759
 N84 N 0.43124 0.95507 1.09050
 N85 N 0.46069 0.93291 1.04122
 N86 N 0.43137 0.91005 1.04547
 N87 N 0.54054 0.95944 1.06747
 N88 N 0.56991 0.95528 1.09039
 Mn89 Mn 0.50059 0.93245 1.00024
 Mn90 Mn 0.50042 1.00019 1.06795
 Cl91 Cl 0.50033 1.00009 1.00013
 C92 C 0.58805 0.92441 1.07632
 C93 C 0.41328 0.92416 1.07640
 N94 N -0.04114 0.45991 -0.06755
 N95 N -0.04545 0.43057 -0.09047
 N96 N -0.06729 0.53990 -0.04113
 N97 N -0.09009 0.56935 -0.04544
 N98 N -0.04089 0.53978 -0.06750
 N99 N -0.04502 0.56912 -0.09045
 N100 N -0.06751 0.46002 -0.04116
 N101 N -0.09046 0.43077 -0.04540
 C102 C -0.07640 0.41268 -0.07635
 C103 C -0.07589 0.58731 -0.07640
 N104 N -0.04104 0.53968 0.06719
 N105 N -0.04521 0.56904 0.09012
 N106 N -0.06757 0.45991 0.04075
 N107 N -0.09048 0.43062 0.04502
 N108 N -0.04122 0.45983 0.06715
 N109 N -0.04548 0.43050 0.09008
 N110 N -0.06736 0.53981 0.04077
 N111 N -0.09016 0.56926 0.04501
 Mn112 Mn -0.06792 0.49991 -0.00019
 C113 C -0.07605 0.58722 0.07598
 C114 C -0.07640 0.41256 0.07599
 N115 N 0.04083 0.53943 -0.06743
 N116 N 0.04519 0.56886 -0.09023
 N117 N 0.06690 0.45939 -0.04109
 N118 N 0.08971 0.42995 -0.04536
 N119 N 0.04058 0.45954 -0.06751
 N120 N 0.04476 0.43021 -0.09047
 N121 N 0.06714 0.53924 -0.04099
 N122 N 0.09009 0.56849 -0.04508
 Mn123 Mn -0.00016 0.49967 -0.06798
 C124 C 0.07612 0.58670 -0.07599
 C125 C 0.07560 0.41202 -0.07636
 N126 N 0.04048 0.45944 0.06717
 N127 N 0.04468 0.43006 0.09008
 N128 N 0.06705 0.53922 0.04086
 N129 N 0.08993 0.56852 0.04510
 N130 N 0.04066 0.53931 0.06723
 N131 N 0.04488 0.56866 0.09013
 N132 N 0.06683 0.45936 0.04077
 N133 N 0.08967 0.42995 0.04499
 Mn134 Mn -0.00028 0.49956 0.06766
 Mn135 Mn 0.06745 0.49930 -0.00011
 Cl136 Cl -0.00023 0.49961 -0.00016
 C137 C 0.07555 0.41195 0.07593
 C138 C 0.07581 0.58661 0.07604
 N139 N 0.93246 0.04115 0.53996
 N140 N 0.90949 0.04536 0.56933
 N141 N 0.95886 0.06756 0.45993
 N142 N 0.95464 0.09050 0.43057
 N143 N 0.93253 0.04125 0.45987
 N144 N 0.90968 0.04559 0.43043
 N145 N 0.95875 0.06749 0.54001
 N146 N 0.95437 0.09035 0.56944
 C147 C 0.92346 0.07624 0.58745
 C148 C 0.92378 0.07651 0.41243
 N149 N 1.06696 0.04116 0.46000
 N150 N 1.08989 0.04532 0.43062
 N151 N 1.04047 0.06749 0.54004
 N152 N 1.04465 0.09036 0.56945
 N153 N 1.06687 0.04115 0.54006
 N154 N 1.08972 0.04541 0.56949
 N155 N 1.04059 0.06753 0.45994
 N156 N 1.04489 0.09035 0.43048
 Mn157 Mn 0.99967 0.06800 0.49998
 C158 C 1.07584 0.07619 0.41248
 C159 C 1.07556 0.07629 0.58755
 N160 N 0.93265 -0.04043 0.45984
 N161 N 0.90976 -0.04465 0.43044
 N162 N 0.95903 -0.06686 0.53988
 N163 N 0.95487 -0.08980 0.56923
 N164 N 0.93261 -0.04055 0.53994
 N165 N 0.90974 -0.04490 0.56938
 N166 N 0.95904 -0.06677 0.45981
 N167 N 0.95482 -0.08963 0.43038
 Mn168 Mn 0.93208 0.00036 0.49990
 C169 C 0.92389 -0.07553 0.41234
 C170 C 0.92394 -0.07582 0.58737
 N171 N 1.06700 -0.04049 0.53996
 N172 N 1.08990 -0.04470 0.56936
 N173 N 1.04075 -0.06678 0.45988
 N174 N 1.04503 -0.08966 0.43047
 N175 N 1.06707 -0.04047 0.45990
 N176 N 1.08998 -0.04474 0.43048
 N177 N 1.04072 -0.06684 0.53996
 N178 N 1.04504 -0.08971 0.56938
 Mn179 Mn 1.06745 0.00034 0.49998
 Mn180 Mn 0.99989 -0.06729 0.49988
 Cl181 Cl 0.99976 0.00035 0.49994
 C182 C 1.07591 -0.07559 0.58743
 C183 C 1.07592 -0.07561 0.41241
 C184 C 1.12314 0.12230 0.31004
 C185 C 1.09110 0.13913 0.32655
 C186 C 1.07558 0.12409 0.35991
 C187 C 1.15317 0.15151 0.24765
 C188 C 1.12407 0.07519 0.36026
 C189 C 1.13953 0.09027 0.32692
 C190 C 1.13942 0.13810 0.27602
 C191 C 1.09200 0.09203 0.37713
 H192 H 1.07819 0.16394 0.31371
 H193 H 1.05082 0.13757 0.37223
 H194 H 1.13724 0.05041 0.37286
 H195 H 1.16433 0.07702 0.31438
 C196 C 0.87697 -0.12214 0.30997
 C197 C 0.90905 -0.13877 0.32658
 C198 C 0.92443 -0.12355 0.35990
 C199 C 0.84718 -0.15171 0.24764
 C200 C 0.87573 -0.07485 0.36003
 C201 C 0.86040 -0.09012 0.32672
 C202 C 0.86083 -0.13815 0.27598
 C203 C 0.90784 -0.09150 0.37700
 H204 H 0.92210 -0.16357 0.31384
 H205 H 0.94922 -0.13689 0.37230
 H206 H 0.86243 -0.05010 0.37254
 H207 H 0.83557 -0.07703 0.31410
 C208 C 0.87611 0.12277 0.68976
 C209 C 0.90815 0.13944 0.67321
 C210 C 0.92367 0.12425 0.63990
 C211 C 0.84610 0.15227 0.75210
 C212 C 0.87520 0.07551 0.63967
 C213 C 0.85972 0.09074 0.67297
 C214 C 0.85984 0.13873 0.72375
 C215 C 0.90726 0.09219 0.62276
 H216 H 0.92106 0.16424 0.68598
 H217 H 0.94843 0.13762 0.62755
 H218 H 0.86203 0.05075 0.62713
 H219 H 0.83492 0.07762 0.68555
 C220 C 1.12311 -0.12205 0.68978
 C221 C 1.09113 -0.13877 0.67320
 C222 C 1.07564 -0.12360 0.63988
 C223 C 1.15311 -0.15153 0.75208
 C224 C 1.12405 -0.07479 0.63970
 C225 C 1.13949 -0.09000 0.67301
 C226 C 1.13937 -0.13800 0.72376
 C227 C 1.09204 -0.09153 0.62277
 H228 H 1.07823 -0.16359 0.68596
 H229 H 1.05092 -0.13700 0.62750
 H230 H 1.13721 -0.05001 0.62718
 H231 H 1.16425 -0.07684 0.68562
 C232 C 0.31027 1.12214 1.12340
 C233 C 0.32678 1.13883 1.09129
 C234 C 0.36014 1.12373 1.07586
 C235 C 0.24783 1.15148 1.15321
 C236 C 0.36051 1.07505 1.12459
 C237 C 0.32716 1.09019 1.13997
 C238 C 0.27622 1.13801 1.13957
 C239 C 0.37738 1.09175 1.09245
 H240 H 0.31394 1.16356 1.07824
 H241 H 0.37246 1.13711 1.05104
 H242 H 0.37312 1.05035 1.13789
 H243 H 0.31461 1.07705 1.16482
 C244 C 0.31088 0.87696 0.87778
 C245 C 0.32743 0.90895 0.86105
 C246 C 0.36071 0.92431 0.87623
 C247 C 0.24858 0.84730 0.84825
 C248 C 0.36094 0.87577 0.92509
 C249 C 0.32766 0.86045 0.90986
 C250 C 0.27691 0.86087 0.86181
 C251 C 0.37783 0.90779 0.90834
 H252 H 0.31467 0.92195 0.83621
 H253 H 0.37305 0.94904 0.86281
 H254 H 0.37347 0.86252 0.94990
 H255 H 0.31509 0.83569 0.92303
 C256 C 0.69038 0.87788 1.12333
 C257 C 0.67362 0.90991 1.13987
 C258 C 0.64031 0.92516 1.12450
 C259 C 0.75269 0.84832 1.15314
 C260 C 0.64049 0.87641 1.07585
 C261 C 0.67379 0.86121 1.09126
 C262 C 0.72436 0.86188 1.13949
 C263 C 0.62338 0.90847 1.09241
 H264 H 0.68622 0.92304 1.16469
 H265 H 0.62780 0.94992 1.13778
 H266 H 0.62811 0.86304 1.05106
 H267 H 0.68654 0.83641 1.07823
 C268 C 0.68939 1.12280 0.87653
 C269 C 0.67272 1.13944 0.90861
 C270 C 0.63950 1.12419 0.92407
 C271 C 0.75160 1.15237 0.84667
 C272 C 0.63955 1.07544 0.87542
 C273 C 0.67277 1.09074 0.86001
 C274 C 0.72331 1.13881 0.86035
 C275 C 0.62255 1.09209 0.90754
 H276 H 0.68535 1.16426 0.92163
 H277 H 0.62707 1.13754 0.94887
 H278 H 0.62716 1.05065 0.86216
 H279 H 0.68543 1.07763 0.83518
 C280 C 0.12242 0.30968 0.12255
 C281 C 0.13893 0.32635 0.09043
 C282 C 0.12360 0.35963 0.07517
 C283 C 0.15225 0.24745 0.15213
 C284 C 0.07503 0.35963 0.12404
 C285 C 0.09041 0.32634 0.13927
 C286 C 0.13857 0.27574 0.13856
 C287 C 0.09157 0.37664 0.09191
 H288 H 0.16372 0.31368 0.07727
 H289 H 0.13687 0.37207 0.05034
 H290 H 0.05028 0.37207 0.13745
 H291 H 0.07741 0.31366 0.16413
 C292 C -0.12343 0.31062 -0.12299
 C293 C -0.13996 0.32741 -0.09092
 C294 C -0.12460 0.36063 -0.07565
 C295 C -0.15319 0.24842 -0.15252
 C296 C -0.07596 0.36034 -0.12446
 C297 C -0.09137 0.32711 -0.13968
 C298 C -0.13956 0.27670 -0.13898
 C299 C -0.09251 0.37746 -0.09235
 H300 H -0.16478 0.31487 -0.07778
 H301 H -0.13787 0.37315 -0.05085
 H302 H -0.05117 0.37264 -0.13784
 H303 H -0.07835 0.31435 -0.16451
 C304 C 0.12338 0.68895 -0.12191
 C305 C 0.09139 0.67256 -0.13883
 C306 C 0.07589 0.63926 -0.12385
 C307 C 0.15332 0.75126 -0.15103
 C308 C 0.12430 0.63872 -0.07483
 C309 C 0.13975 0.67201 -0.08986
 C310 C 0.13962 0.72293 -0.13766
 C311 C 0.09228 0.62198 -0.09176
 H312 H 0.07850 0.68546 -0.16366
 H313 H 0.05117 0.62703 -0.13740
 H314 H 0.13745 0.62607 -0.05004
 H315 H 0.16451 0.68446 -0.07655
 C316 C -0.12255 0.68963 0.12273
 C317 C -0.13916 0.67303 0.09065
 C318 C -0.12397 0.63969 0.07533
 C319 C -0.15207 0.75201 0.15235
 C320 C -0.07534 0.63951 0.12412
 C321 C -0.09058 0.67285 0.13939
 C322 C -0.13853 0.72365 0.13878
 C323 C -0.09197 0.62256 0.09200
 H324 H -0.16391 0.68579 0.07753
 H325 H -0.13730 0.62731 0.05052
 H326 H -0.05062 0.62697 0.13748
 H327 H -0.07750 0.68546 0.16423
 C328 C 1.12209 0.12320 0.68996
 C329 C 1.13878 0.09117 0.67333
 C330 C 1.12358 0.07579 0.64000
 C331 C 1.15163 0.15296 0.75232
 C332 C 1.07480 0.12440 0.63988
 C333 C 1.09004 0.13973 0.67321
 C334 C 1.13808 0.13933 0.72396
 C335 C 1.09150 0.09234 0.62290
 H336 H 1.16360 0.07815 0.68606
 H337 H 1.13697 0.05103 0.62758
 H338 H 1.05002 0.13767 0.62738
 H339 H 1.07690 0.16452 0.68585
 C340 C 0.87773 -0.12328 0.68970
 C341 C 0.90983 -0.13960 0.67283
 C342 C 0.92494 -0.12408 0.63953
 C343 C 0.84846 -0.15338 0.75205
 C344 C 0.87594 -0.07569 0.63990
 C345 C 0.86086 -0.09127 0.67322
 C346 C 0.86189 -0.13961 0.72370
 C347 C 0.90807 -0.09204 0.62269
 H348 H 0.92310 -0.16437 0.68536
 H349 H 0.94977 -0.13720 0.62694
 H350 H 0.86243 -0.05095 0.62759
 H351 H 0.83601 -0.07841 0.68605
 C352 C 1.12264 -0.12263 0.31005
 C353 C 1.09060 -0.13909 0.32679
 C354 C 1.07530 -0.12372 0.36010
 C355 C 1.15227 -0.15251 0.24775
 C356 C 1.12400 -0.07519 0.35999
 C357 C 1.13926 -0.09062 0.32667
 C358 C 1.13868 -0.13881 0.27608
 C359 C 1.09194 -0.09169 0.37707
 H360 H 1.07752 -0.16387 0.31416
 H361 H 1.05053 -0.13694 0.37260
 H362 H 1.13733 -0.05046 0.37240
 H363 H 1.16407 -0.07765 0.31394
 C364 C 0.87735 0.12382 0.31006
 C365 C 0.90937 0.14020 0.32690
 C366 C 0.92456 0.12473 0.36022
 C367 C 0.84793 0.15380 0.24769
 C368 C 0.87580 0.07628 0.35991
 C369 C 0.86064 0.09180 0.32659
 C370 C 0.86143 0.14008 0.27606
 C371 C 0.90785 0.09268 0.37710
 H372 H 0.92252 0.16498 0.31435
 H373 H 0.94932 0.13790 0.37278
 H374 H 0.86241 0.05153 0.37225
 H375 H 0.83585 0.07889 0.31379
 C376 C 0.12211 0.30971 -0.12338
 C377 C 0.13872 0.32623 -0.09124
 C378 C 0.12353 0.35953 -0.07583
 C379 C 0.15164 0.24740 -0.15317
 C380 C 0.07489 0.35984 -0.12462
 C381 C 0.09013 0.32654 -0.13998
 C382 C 0.13809 0.27573 -0.13952
 C383 C 0.09153 0.37671 -0.09246
 H384 H 0.16347 0.31344 -0.07816
 H385 H 0.13686 0.37185 -0.05099
 H386 H 0.05018 0.37241 -0.13795
 H387 H 0.07705 0.31399 -0.16486
 C388 C -0.12289 0.31046 0.12315
 C389 C -0.09083 0.32713 0.13962
 C390 C -0.07562 0.36036 0.12421
 C391 C -0.15225 0.24823 0.15309
 C392 C -0.12446 0.36031 0.07562
 C393 C -0.13962 0.32707 0.09109
 C394 C -0.13879 0.27653 0.13937
 C395 C -0.09236 0.37732 0.09212
 H396 H -0.07765 0.31451 0.16444
 H397 H -0.05083 0.37280 0.13744
 H398 H -0.13787 0.37271 0.05084
 H399 H -0.16444 0.31439 0.07812
 C400 C -0.12216 0.68965 -0.12362
 C401 C -0.09013 0.67279 -0.14009
 C402 C -0.07498 0.63948 -0.12466
 C403 C -0.15151 0.75200 -0.15351
 C404 C -0.12382 0.63983 -0.07605
 C405 C -0.13892 0.67314 -0.09153
 C406 C -0.13804 0.72365 -0.13984
 C407 C -0.09176 0.62263 -0.09255
 H408 H -0.07692 0.68532 -0.16492
 H409 H -0.05021 0.62690 -0.13789
 H410 H -0.13726 0.62752 -0.05126
 H411 H -0.16372 0.68596 -0.07855
 C412 C 0.12228 0.68884 0.12282
 C413 C 0.13898 0.67215 0.09078
 C414 C 0.12381 0.63886 0.07545
 C415 C 0.15168 0.75114 0.15249
 C416 C 0.07504 0.63892 0.12412
 C417 C 0.09025 0.67221 0.13941
 C418 C 0.13820 0.72282 0.13889
 C419 C 0.09175 0.62188 0.09206
 H420 H 0.16378 0.68480 0.07772
 H421 H 0.13720 0.62639 0.05068
 H422 H 0.05027 0.62651 0.13744
 H423 H 0.07710 0.68490 0.16421
 C424 C 0.31021 1.12243 0.87729
 C425 C 0.32692 1.09042 0.86065
 C426 C 0.36025 1.07513 0.87591
 C427 C 0.24786 1.15206 0.84767
 C428 C 0.36020 1.12379 0.92465
 C429 C 0.32687 1.13903 0.90935
 C430 C 0.27621 1.13847 0.86124
 C431 C 0.37726 1.09175 0.90800
 H432 H 0.31425 1.07735 0.83583
 H433 H 0.37273 1.05038 0.86257
 H434 H 0.37264 1.13712 0.94944
 H435 H 0.31417 1.16382 0.92245
 C436 C 0.31096 0.87759 1.12299
 C437 C 0.32754 0.90959 1.13965
 C438 C 0.36086 0.92485 1.12444
 C439 C 0.24862 0.84806 1.15250
 C440 C 0.36105 0.87618 1.07570
 C441 C 0.32773 0.86096 1.09096
 C442 C 0.27696 0.86160 1.13897
 C443 C 0.37798 0.90821 1.09238
 H444 H 0.31478 0.92267 1.16445
 H445 H 0.37324 0.94959 1.13780
 H446 H 0.37357 0.86284 1.05093
 H447 H 0.31512 0.83619 1.07784
 C448 C 0.68962 1.12325 1.12264
 C449 C 0.67309 1.09123 1.13932
 C450 C 0.63985 1.07585 1.12409
 C451 C 0.75182 1.15296 1.15224
 C452 C 0.63962 1.12444 1.07528
 C453 C 0.67286 1.13978 1.09055
 C454 C 0.72354 1.13936 1.13866
 C455 C 0.62274 1.09239 1.09198
 H456 H 0.68584 1.07822 1.16416
 H457 H 0.62752 1.05110 1.13748
 H458 H 0.62710 1.13770 1.05047
 H459 H 0.68543 1.16456 1.07742
 C460 C 0.69011 0.87723 0.87721
 C461 C 0.67350 0.86077 0.90938
 C462 C 0.64022 0.87610 0.92470
 C463 C 0.75239 0.84745 0.84756
 C464 C 0.64011 0.92457 0.87576
 C465 C 0.67340 0.90919 0.86048
 C466 C 0.72407 0.86110 0.86116
 C467 C 0.62315 0.90808 0.90796
 H468 H 0.68621 0.83603 0.92255
 H469 H 0.62782 0.86288 0.94957
 H470 H 0.62762 0.94927 0.86234
 H471 H 0.68603 0.92215 0.83557
   
