data_POSCAR
  _audit_creation_date              2014-09-24
  _audit_creation_method            'ToBaCCo'
  _symmetry_space_group_name_H-M    'P1'
  _symmetry_Int_Tables_number       1
  _symmetry_cell_setting            triclinic
  loop_
  _symmetry_equiv_pos_as_xyz
 x,y,z
_cell_length_a 44.0797
_cell_length_b 43.6382
_cell_length_c 44.1426
_cell_angle_alpha 89.607000
_cell_angle_beta 89.711200
_cell_angle_gamma 89.952300
loop_
  _atom_site_label
  _atom_site_type_symbol
  _atom_site_fract_x
  _atom_site_fract_y
  _atom_site_fract_z
C1 C 0.24906 0.24711 0.24868
 C2 C 0.74835 0.75165 0.25019
 C3 C 0.74894 0.25024 0.75203
 C4 C 0.25037 0.74625 0.74709
 C5 C 0.04856 0.04078 0.00947
 H6 H 0.05085 0.04227 -0.01491
 C7 C 0.06666 0.05911 0.02785
 H8 H 0.08287 0.07459 0.01742
 C9 C 0.02526 0.01821 0.05263
 H10 H 0.00917 0.00223 0.06230
 C11 C 0.04299 0.03600 0.07183
 H12 H 0.03999 0.03377 0.09611
 N13 N 0.02803 0.02109 0.02202
 C14 C 0.01235 -0.04560 -0.05016
 H15 H -0.01210 -0.04565 -0.05128
 C16 C 0.02901 -0.06436 -0.06963
 H17 H 0.01719 -0.07837 -0.08592
 C18 C 0.05750 -0.02771 -0.02742
 H19 H 0.06858 -0.01401 -0.01051
 C20 C 0.07505 -0.04584 -0.04671
 H21 H 0.09951 -0.04572 -0.04455
 Zn22 Zn 0.00271 -0.00293 -0.00342
 N23 N 0.02670 -0.02764 -0.02963
 C24 C -0.04798 0.00949 -0.03969
 N25 N -0.02328 0.02267 -0.02681
 C26 C -0.01812 0.05329 -0.02971
 C27 C -0.03767 0.07167 -0.04674
 C28 C -0.06831 0.02707 -0.05664
 C29 C -0.01685 -0.05915 0.02251
 C30 C -0.03556 -0.07799 0.04016
 C31 C -0.06486 -0.03341 0.05417
 C32 C -0.04560 -0.01542 0.03625
 N33 N -0.02218 -0.02849 0.02089
 H34 H -0.05232 -0.01466 -0.03625
 H35 H 0.00111 0.06370 -0.01891
 H36 H -0.03260 0.09582 -0.04930
 H37 H -0.08808 0.01612 -0.06616
 H38 H 0.00197 -0.06903 0.01018
 H39 H -0.03118 -0.10240 0.04089
 H40 H -0.08314 -0.02252 0.06655
 H41 H -0.04925 0.00905 0.03458
 C42 C 0.06078 -0.06449 -0.06813
 C43 C 0.06388 0.05696 0.05949
 C44 C -0.05996 -0.06516 0.05629
 C45 C -0.06323 0.05864 -0.06050
 C46 C 0.04401 0.54457 0.51111
 H47 H 0.04566 0.54660 0.48671
 C48 C 0.06188 0.56322 0.52939
 H49 H 0.07760 0.57915 0.51886
 C50 C 0.02150 0.52141 0.55436
 H51 H 0.00544 0.50543 0.56410
 C52 C 0.03898 0.53955 0.57349
 H53 H 0.03606 0.53732 0.59777
 N54 N 0.02439 0.52402 0.52375
 C55 C 0.01053 0.45000 0.45878
 H56 H -0.01352 0.44623 0.46169
 C57 C 0.02723 0.43065 0.43990
 H58 H 0.01565 0.41265 0.42779
 C59 C 0.05492 0.47743 0.47154
 H60 H 0.06591 0.49520 0.48427
 C61 C 0.07245 0.45876 0.45275
 H62 H 0.09669 0.46254 0.45125
 Zn63 Zn -0.00016 0.49919 0.49829
 N64 N 0.02439 0.47325 0.47373
 C65 C -0.04394 0.51114 0.45314
 N66 N -0.02485 0.52461 0.47318
 C67 C -0.02410 0.55562 0.47610
 C68 C -0.04266 0.57428 0.45825
 C69 C -0.06323 0.52889 0.43519
 C70 C -0.01276 0.45051 0.53842
 C71 C -0.03074 0.43144 0.55663
 C72 C -0.07471 0.46075 0.54149
 C73 C -0.05587 0.47941 0.52384
 N74 N -0.02551 0.47398 0.52257
 H75 H -0.04489 0.48650 0.45161
 H76 H -0.00940 0.56609 0.49252
 H77 H -0.04113 0.59889 0.46067
 H78 H -0.07881 0.51748 0.42014
 H79 H 0.01148 0.44677 0.53706
 H80 H -0.02001 0.41331 0.56955
 H81 H -0.09887 0.46521 0.54168
 H82 H -0.06556 0.49831 0.51126
 C83 C 0.05857 0.43517 0.43642
 C84 C 0.05953 0.56079 0.56106
 C85 C -0.06223 0.43642 0.55833
 C86 C -0.06277 0.56099 0.43754
 C87 C 0.54237 0.04945 0.51168
 H88 H 0.54370 0.04909 0.48720
 C89 C 0.56018 0.06998 0.52792
 H90 H 0.57515 0.08551 0.51582
 C91 C 0.52089 0.02987 0.55716
 H92 H 0.50536 0.01442 0.56848
 C93 C 0.53804 0.05025 0.57428
 H94 H 0.53596 0.04986 0.59873
 N95 N 0.52376 0.02944 0.52647
 C96 C 0.51505 -0.04677 0.46355
 H97 H 0.49063 -0.04907 0.46271
 C98 C 0.53345 -0.06633 0.44655
 H99 H 0.52298 -0.08337 0.43229
 C100 C 0.55825 -0.02149 0.48298
 H101 H 0.56794 -0.00445 0.49765
 C102 C 0.57748 -0.04051 0.46635
 H103 H 0.60179 -0.03774 0.46836
 Zn104 Zn 0.50119 0.00159 0.50279
 N105 N 0.52762 -0.02447 0.48082
 C106 C 0.47753 0.02096 0.44567
 N107 N 0.47682 0.02517 0.47616
 C108 C 0.45927 0.04735 0.48877
 C109 C 0.44123 0.06619 0.47058
 C110 C 0.45956 0.03903 0.42665
 C111 C 0.49075 -0.04254 0.54794
 C112 C 0.47383 -0.06216 0.56655
 C113 C 0.42817 -0.04341 0.54266
 C114 C 0.44595 -0.02391 0.52472
 N115 N 0.47664 -0.02368 0.52780
 H116 H 0.49201 0.00362 0.43595
 H117 H 0.45950 0.05054 0.51306
 H118 H 0.42793 0.08406 0.48115
 H119 H 0.45998 0.03474 0.40253
 H120 H 0.51524 -0.04230 0.54951
 H121 H 0.48544 -0.07710 0.58239
 H122 H 0.40376 -0.04317 0.54008
 H123 H 0.43521 -0.00918 0.50818
 C124 C 0.56513 -0.06309 0.44758
 C125 C 0.55827 0.07037 0.55966
 C126 C 0.44212 -0.06279 0.56396
 C127 C 0.44107 0.06210 0.43901
 C128 C 0.54215 0.54955 0.01042
 H129 H 0.54352 0.54904 -0.01405
 C130 C 0.56002 0.57009 0.02658
 H131 H 0.57507 0.58550 0.01441
 C132 C 0.52052 0.53030 0.05597
 H133 H 0.50493 0.51496 0.06735
 C134 C 0.53775 0.55068 0.07300
 H135 H 0.53564 0.55041 0.09746
 N136 N 0.52342 0.52970 0.02528
 C137 C 0.51478 0.45293 -0.03700
 H138 H 0.49037 0.45072 -0.03811
 C139 C 0.53330 0.43313 -0.05361
 H140 H 0.52292 0.41602 -0.06785
 C141 C 0.55786 0.47818 -0.01727
 H142 H 0.56745 0.49528 -0.00262
 C143 C 0.57720 0.45890 -0.03347
 H144 H 0.60149 0.46155 -0.03114
 Zn145 Zn 0.50080 0.50177 0.00174
 N146 N 0.52725 0.47533 -0.01979
 C147 C 0.47712 0.52047 -0.05564
 N148 N 0.47667 0.52525 -0.02523
 C149 C 0.45949 0.54788 -0.01291
 C150 C 0.44155 0.56660 -0.03131
 C151 C 0.45919 0.53839 -0.07486
 C152 C 0.48981 0.45799 0.04712
 C153 C 0.47264 0.43871 0.06584
 C154 C 0.42722 0.45801 0.04192
 C155 C 0.44525 0.47714 0.02384
 N156 N 0.47594 0.47693 0.02688
 H157 H 0.49129 0.50276 -0.06515
 H158 H 0.45993 0.55151 0.01131
 H159 H 0.42856 0.58483 -0.02096
 H160 H 0.45935 0.53360 -0.09888
 H161 H 0.51430 0.45790 0.04867
 H162 H 0.48406 0.42369 0.08174
 H163 H 0.40280 0.45861 0.03937
 H164 H 0.43469 0.49194 0.00724
 C165 C 0.56498 0.43621 -0.05221
 C166 C 0.55808 0.57065 0.05831
 C167 C 0.44091 0.43853 0.06331
 C168 C 0.44105 0.56190 -0.06279
 C169 C 0.18752 -0.19699 -0.20232
 C170 C 0.18988 -0.22853 -0.19654
 C171 C 0.21000 -0.24661 -0.21322
 C172 C 0.22924 -0.23372 -0.23583
 C173 C 0.22443 -0.20235 -0.24310
 C174 C 0.20454 -0.18427 -0.22617
 C175 C 0.16764 -0.17736 -0.18344
 N176 N 0.17058 -0.14638 -0.18424
 N177 N 0.15345 -0.12869 -0.16660
 C178 C 0.13255 -0.14121 -0.14750
 N179 N 0.12947 -0.17218 -0.14683
 N180 N 0.14672 -0.18989 -0.16437
 C181 C 0.11392 -0.12151 -0.12748
 C182 C 0.08812 -0.13331 -0.11263
 C183 C 0.07072 -0.11473 -0.09357
 C184 C 0.07896 -0.08408 -0.08866
 C185 C 0.10476 -0.07228 -0.10342
 C186 C 0.12195 -0.09073 -0.12277
 H187 H 0.17655 -0.23926 -0.17875
 H188 H 0.21115 -0.27085 -0.20791
 H189 H 0.23567 -0.19137 -0.26208
 H190 H 0.20232 -0.16023 -0.23201
 H191 H 0.08128 -0.15689 -0.11581
 H192 H 0.05106 -0.12446 -0.08228
 H193 H 0.11145 -0.04866 -0.10022
 H194 H 0.14172 -0.08094 -0.13378
 C195 C 0.18530 0.30401 0.30061
 C196 C 0.18689 0.27218 0.30516
 C197 C 0.20699 0.25437 0.28816
 C198 C 0.22678 0.26784 0.26660
 C199 C 0.22333 0.29952 0.26068
 C200 C 0.20332 0.31734 0.27777
 C201 C 0.16532 0.32329 0.31978
 N202 N 0.16666 0.35434 0.31790
 N203 N 0.14947 0.37175 0.33575
 C204 C 0.13015 0.35888 0.35625
 N205 N 0.12867 0.32782 0.35802
 N206 N 0.14593 0.31040 0.34021
 C207 C 0.11151 0.37835 0.37654
 C208 C 0.08925 0.36531 0.39558
 C209 C 0.07197 0.38372 0.41491
 C210 C 0.07670 0.41554 0.41580
 C211 C 0.09890 0.42858 0.39677
 C212 C 0.11604 0.41023 0.37731
 H213 H 0.17290 0.26100 0.32215
 H214 H 0.20771 0.22990 0.29238
 H215 H 0.23569 0.31091 0.24269
 H216 H 0.20196 0.34166 0.27296
 H217 H 0.08516 0.34085 0.39558
 H218 H 0.05520 0.37301 0.42952
 H219 H 0.10279 0.45308 0.39669
 H220 H 0.13296 0.42107 0.36298
 C221 C 0.69659 -0.19281 0.31502
 C222 C 0.69113 -0.22431 0.31193
 C223 C 0.70800 -0.24168 0.29142
 C224 C 0.73023 -0.22799 0.27256
 C225 C 0.73684 -0.19671 0.27727
 C226 C 0.72000 -0.17936 0.29784
 C227 C 0.67790 -0.17403 0.33587
 N228 N 0.68358 -0.14367 0.33928
 N229 N 0.66634 -0.12659 0.35738
 C230 C 0.64263 -0.13911 0.37285
 N231 N 0.63701 -0.16950 0.36954
 N232 N 0.65428 -0.18660 0.35144
 C233 C 0.62307 -0.11988 0.39247
 C234 C 0.59773 -0.13251 0.40747
 C235 C 0.57898 -0.11415 0.42544
 C236 C 0.58519 -0.08279 0.42888
 C237 C 0.61062 -0.07022 0.41405
 C238 C 0.62932 -0.08853 0.39606
 H239 H 0.67371 -0.23562 0.32527
 H240 H 0.70329 -0.26596 0.28973
 H241 H 0.75528 -0.18536 0.26557
 H242 H 0.72542 -0.15531 0.30027
 H243 H 0.59227 -0.15657 0.40527
 H244 H 0.55975 -0.12456 0.43687
 H245 H 0.61577 -0.04606 0.41593
 H246 H 0.64858 -0.07800 0.38480
 C247 C 0.69761 0.30525 -0.18240
 C248 C 0.69135 0.27402 -0.18644
 C249 C 0.70816 0.25674 -0.20709
 C250 C 0.73104 0.27032 -0.22521
 C251 C 0.73860 0.30116 -0.21931
 C252 C 0.72184 0.31843 -0.19861
 C253 C 0.67884 0.32409 -0.16167
 N254 N 0.68498 0.35430 -0.15778
 N255 N 0.66758 0.37151 -0.13995
 C256 C 0.64325 0.35929 -0.12526
 N257 N 0.63718 0.32904 -0.12902
 N258 N 0.65459 0.31181 -0.14686
 C259 C 0.62348 0.37872 -0.10604
 C260 C 0.59777 0.36635 -0.09145
 C261 C 0.57883 0.38493 -0.07390
 C262 C 0.58520 0.41626 -0.07048
 C263 C 0.61098 0.42857 -0.08492
 C264 C 0.62988 0.41004 -0.10247
 H265 H 0.67333 0.26287 -0.17378
 H266 H 0.70281 0.23266 -0.20952
 H267 H 0.75768 0.31220 -0.23027
 H268 H 0.72794 0.34220 -0.19537
 H269 H 0.59218 0.34232 -0.09365
 H270 H 0.55934 0.37470 -0.06276
 H271 H 0.61627 0.45271 -0.08308
 H272 H 0.64941 0.42039 -0.11343
 C273 C -0.19825 0.19071 -0.18748
 C274 C -0.19266 0.22231 -0.18938
 C275 C -0.20967 0.24088 -0.20876
 C276 C -0.23254 0.22845 -0.22728
 C277 C -0.23921 0.19695 -0.22379
 C278 C -0.22191 0.17830 -0.20465
 C279 C -0.17944 0.17085 -0.16776
 N280 N -0.17953 0.13993 -0.17110
 N281 N -0.16199 0.12214 -0.15388
 C282 C -0.14374 0.13453 -0.13249
 N283 N -0.14381 0.16543 -0.12903
 N284 N -0.16122 0.18322 -0.14635
 C285 C -0.12380 0.11487 -0.11371
 C286 C -0.11010 0.12654 -0.08754
 C287 C -0.09079 0.10822 -0.07012
 C288 C -0.08443 0.07787 -0.07862
 C289 C -0.09828 0.06618 -0.10475
 C290 C -0.11785 0.08441 -0.12199
 H291 H -0.17486 0.23272 -0.17615
 H292 H -0.20469 0.26516 -0.20967
 H293 H -0.25801 0.18643 -0.23536
 H294 H -0.22738 0.15416 -0.20299
 H295 H -0.11443 0.14982 -0.08037
 H296 H -0.08106 0.11781 -0.04982
 H297 H -0.09355 0.04309 -0.11225
 H298 H -0.12788 0.07478 -0.14214
 C299 C -0.19878 0.69226 0.31083
 C300 C -0.22127 0.67946 0.29246
 C301 C -0.23879 0.69803 0.27343
 C302 C -0.23338 0.72989 0.27121
 C303 C -0.21171 0.74261 0.29097
 C304 C -0.19461 0.72411 0.31034
 C305 C -0.17960 0.67252 0.33024
 N306 N -0.16456 0.68439 0.35423
 N307 N -0.14675 0.66675 0.37130
 C308 C -0.14303 0.63657 0.36493
 N309 N -0.15807 0.62470 0.34093
 N310 N -0.17607 0.64228 0.32400
 C311 C -0.12274 0.61716 0.38353
 C312 C -0.11084 0.58977 0.37190
 C313 C -0.09122 0.57172 0.38927
 C314 C -0.08341 0.58038 0.41888
 C315 C -0.09564 0.60770 0.43054
 C316 C -0.11487 0.62598 0.41299
 H317 H -0.22565 0.65505 0.29308
 H318 H -0.25668 0.68708 0.26090
 H319 H -0.20763 0.76708 0.29094
 H320 H -0.17768 0.73474 0.32451
 H321 H -0.11626 0.58252 0.34915
 H322 H -0.08184 0.55119 0.37927
 H323 H -0.09074 0.61482 0.45344
 H324 H -0.12391 0.64684 0.42267
 C325 C 0.31076 0.19395 0.30663
 C326 C 0.31003 0.18956 0.27519
 C327 C 0.29034 0.20674 0.25707
 C328 C 0.27039 0.22855 0.26982
 C329 C 0.27287 0.23417 0.30122
 C330 C 0.29226 0.21670 0.31936
 C331 C 0.33056 0.17487 0.32615
 N332 N 0.32555 0.17312 0.35650
 N333 N 0.34293 0.15554 0.37407
 C334 C 0.36617 0.13909 0.36206
 N335 N 0.37129 0.14094 0.33173
 N336 N 0.35378 0.15838 0.31412
 C337 C 0.38534 0.11942 0.38164
 C338 C 0.41376 0.10902 0.37146
 C339 C 0.43188 0.09061 0.39008
 C340 C 0.42185 0.08181 0.41918
 C341 C 0.39327 0.09207 0.42919
 C342 C 0.37534 0.11080 0.41074
 H343 H 0.32434 0.17251 0.26458
 H344 H 0.29023 0.20264 0.23291
 H345 H 0.26030 0.25227 0.31213
 H346 H 0.29304 0.22134 0.34341
 H347 H 0.42221 0.11546 0.34924
 H348 H 0.45397 0.08367 0.38177
 H349 H 0.38449 0.08531 0.45118
 H350 H 0.35342 0.11819 0.41915
 C351 C 0.31097 0.69315 -0.19599
 C352 C 0.30866 0.68739 -0.22709
 C353 C 0.28906 0.70469 -0.24518
 C354 C 0.27045 0.72808 -0.23277
 C355 C 0.27502 0.73508 -0.20175
 C356 C 0.29428 0.71743 -0.18364
 C357 C 0.33068 0.67403 -0.17643
 N358 N 0.32654 0.67349 -0.14592
 N359 N 0.34385 0.65594 -0.12827
 C360 C 0.36618 0.63831 -0.14036
 N361 N 0.37045 0.63894 -0.17087
 N362 N 0.35298 0.65635 -0.18855
 C363 C 0.38531 0.61872 -0.12067
 C364 C 0.41339 0.60761 -0.13103
 C365 C 0.43153 0.58937 -0.11226
 C366 C 0.42182 0.58142 -0.08282
 C367 C 0.39353 0.59235 -0.07264
 C368 C 0.37562 0.61095 -0.09124
 H369 H 0.32170 0.66918 -0.23745
 H370 H 0.28798 0.69944 -0.26910
 H371 H 0.26418 0.75447 -0.19109
 H372 H 0.29647 0.72321 -0.15993
 H373 H 0.42160 0.61341 -0.15352
 H374 H 0.45338 0.58190 -0.12073
 H375 H 0.38496 0.58623 -0.05039
 H376 H 0.35395 0.61889 -0.08269
 C377 C -0.19393 -0.19486 0.18807
 C378 C -0.22511 -0.18881 0.19078
 C379 C -0.24321 -0.20609 0.21055
 C380 C -0.23061 -0.22941 0.22896
 C381 C -0.19957 -0.23640 0.22472
 C382 C -0.18151 -0.21913 0.20496
 C383 C -0.17438 -0.17609 0.16778
 N384 N -0.14410 -0.18160 0.16585
 N385 N -0.12637 -0.16448 0.14807
 C386 C -0.13812 -0.14108 0.13142
 N387 N -0.16842 -0.13559 0.13327
 N388 N -0.18617 -0.15272 0.15108
 C389 C -0.11823 -0.12181 0.11193
 C390 C -0.13040 -0.09788 0.09430
 C391 C -0.11154 -0.07956 0.07621
 C392 C -0.08007 -0.08474 0.07533
 C393 C -0.06791 -0.10872 0.09288
 C394 C -0.08675 -0.12704 0.11095
 H395 H -0.23560 -0.17066 0.17767
 H396 H -0.26722 -0.20096 0.21192
 H397 H -0.18893 -0.25552 0.23614
 H398 H -0.15773 -0.22501 0.20284
 H399 H -0.15454 -0.09326 0.09442
 H400 H -0.12164 -0.06153 0.06263
 H401 H -0.04372 -0.11303 0.09302
 H402 H -0.07656 -0.14519 0.12431
 C403 C -0.19444 0.30427 0.68947
 C404 C -0.18220 0.27869 0.70448
 C405 C -0.19993 0.26133 0.72450
 C406 C -0.23041 0.26938 0.73062
 C407 C -0.24301 0.29383 0.71376
 C408 C -0.22517 0.31142 0.69403
 C409 C -0.17524 0.32339 0.66924
 N410 N -0.18457 0.35170 0.66029
 N411 N -0.16698 0.36922 0.64273
 C412 C -0.13938 0.35914 0.63325
 N413 N -0.13013 0.33076 0.64204
 N414 N -0.14765 0.31329 0.65974
 C415 C -0.11968 0.37880 0.61403
 C416 C -0.09453 0.36638 0.59874
 C417 C -0.07596 0.38499 0.58062
 C418 C -0.08193 0.41653 0.57761
 C419 C -0.10700 0.42894 0.59311
 C420 C -0.12574 0.41027 0.61095
 H421 H -0.15877 0.27211 0.70092
 H422 H -0.18958 0.24134 0.73468
 H423 H -0.26676 0.29968 0.71636
 H424 H -0.23554 0.33052 0.68220
 H425 H -0.08935 0.34217 0.60049
 H426 H -0.05718 0.37455 0.56863
 H427 H -0.11197 0.45321 0.59183
 H428 H -0.14476 0.42063 0.62266
 C429 C 0.31434 -0.20131 0.69277
 C430 C 0.29844 -0.22574 0.67987
 C431 C 0.27823 -0.24327 0.69719
 C432 C 0.27196 -0.23607 0.72792
 C433 C 0.29020 -0.21298 0.74113
 C434 C 0.31060 -0.19565 0.72380
 C435 C 0.33443 -0.18172 0.67383
 N436 N 0.35359 -0.16125 0.68667
 N437 N 0.37095 -0.14306 0.66952
 C438 C 0.36977 -0.14446 0.63881
 N439 N 0.35066 -0.16498 0.62599
 N440 N 0.33340 -0.18324 0.64313
 C441 C 0.38852 -0.12376 0.61966
 C442 C 0.38276 -0.12080 0.58847
 C443 C 0.40007 -0.10091 0.57045
 C444 C 0.42371 -0.08379 0.58315
 C445 C 0.42968 -0.08690 0.61425
 C446 C 0.41216 -0.10654 0.63236
 H447 H 0.30174 -0.23154 0.65627
 H448 H 0.26788 -0.26262 0.68615
 H449 H 0.28799 -0.20777 0.76499
 H450 H 0.32308 -0.17747 0.73469
 H451 H 0.36470 -0.13366 0.57796
 H452 H 0.39519 -0.09919 0.54648
 H453 H 0.44763 -0.07378 0.62465
 H454 H 0.41722 -0.10831 0.65628
 C455 C 0.31234 0.30122 0.19273
 C456 C 0.29521 0.27776 0.17958
 C457 C 0.27538 0.26001 0.19712
 C458 C 0.27111 0.26591 0.22830
 C459 C 0.28998 0.28819 0.24163
 C460 C 0.30999 0.30580 0.22409
 C461 C 0.33227 0.32089 0.17370
 N462 N 0.35222 0.34064 0.18646
 N463 N 0.36961 0.35875 0.16925
 C464 C 0.36767 0.35799 0.13855
 N465 N 0.34775 0.33822 0.12581
 N466 N 0.33046 0.32004 0.14301
 C467 C 0.38657 0.37850 0.11933
 C468 C 0.38062 0.38166 0.08819
 C469 C 0.39816 0.40124 0.07008
 C470 C 0.42223 0.41789 0.08262
 C471 C 0.42835 0.41462 0.11368
 C472 C 0.41062 0.39525 0.13188
 H473 H 0.29724 0.27289 0.15564
 H474 H 0.26385 0.24148 0.18592
 H475 H 0.28865 0.29241 0.26574
 H476 H 0.32329 0.32330 0.23511
 H477 H 0.36226 0.36915 0.07778
 H478 H 0.39314 0.40307 0.04615
 H479 H 0.44661 0.42738 0.12398
 H480 H 0.41585 0.39334 0.15576
 C481 C 0.18840 0.18945 0.19475
 C482 C 0.20524 0.17643 0.21849
 C483 C 0.22440 0.19447 0.23608
 C484 C 0.22796 0.22611 0.22998
 C485 C 0.20928 0.23928 0.20747
 C486 C 0.19023 0.22121 0.18981
 C487 C 0.16922 0.16999 0.17517
 N488 N 0.15491 0.18207 0.15065
 N489 N 0.13831 0.16443 0.13264
 C490 C 0.13530 0.13395 0.13836
 N491 N 0.14952 0.12190 0.16294
 N492 N 0.16615 0.13953 0.18092
 C493 C 0.11709 0.11423 0.11812
 C494 C 0.11242 0.08311 0.12520
 C495 C 0.09524 0.06454 0.10615
 C496 C 0.08244 0.07660 0.07953
 C497 C 0.08721 0.10765 0.07236
 C498 C 0.10428 0.12627 0.09146
 H499 H 0.20374 0.15215 0.22351
 H500 H 0.23599 0.18332 0.25462
 H501 H 0.21006 0.26371 0.20307
 H502 H 0.17704 0.23218 0.17218
 H503 H 0.12199 0.07304 0.14549
 H504 H 0.09225 0.04061 0.11210
 H505 H 0.07732 0.11768 0.05219
 H506 H 0.10740 0.15012 0.08529
 C507 C 0.18856 0.69114 0.69421
 C508 C 0.19270 0.72242 0.68795
 C509 C 0.21243 0.73998 0.70536
 C510 C 0.22984 0.72672 0.72904
 C511 C 0.22354 0.69564 0.73644
 C512 C 0.20374 0.67816 0.71903
 C513 C 0.16855 0.67214 0.67500
 N514 N 0.16406 0.64200 0.68147
 N515 N 0.14667 0.62475 0.66386
 C516 C 0.13305 0.63686 0.63896
 N517 N 0.13747 0.66702 0.63253
 N518 N 0.15485 0.68429 0.65016
 C519 C 0.11405 0.61748 0.61911
 C520 C 0.10093 0.62973 0.59269
 C521 C 0.08329 0.61136 0.57385
 C522 C 0.07830 0.58034 0.58102
 C523 C 0.09135 0.56810 0.60745
 C524 C 0.10903 0.58644 0.62625
 H525 H 0.18073 0.73345 0.66949
 H526 H 0.21467 0.76411 0.69988
 H527 H 0.23344 0.68451 0.75598
 H528 H 0.20031 0.65434 0.72517
 H529 H 0.10426 0.65355 0.58650
 H530 H 0.07323 0.62155 0.55385
 H531 H 0.08824 0.54419 0.61339
 H532 H 0.11883 0.57619 0.64636
 C533 C 0.69091 0.20090 0.68822
 C534 C 0.67867 0.22439 0.70607
 C535 C 0.69691 0.24055 0.72619
 C536 C 0.72782 0.23288 0.73005
 C537 C 0.74026 0.21057 0.71055
 C538 C 0.72206 0.19459 0.69024
 C539 C 0.67120 0.18297 0.66783
 N540 N 0.68334 0.16365 0.64704
 N541 N 0.66554 0.14695 0.62930
 C542 C 0.63485 0.14877 0.63170
 N543 N 0.62272 0.16815 0.65244
 N544 N 0.64051 0.18494 0.67009
 C545 C 0.61505 0.12951 0.61263
 C546 C 0.58395 0.12662 0.61932
 C547 C 0.56548 0.10758 0.60203
 C548 C 0.57762 0.09127 0.57748
 C549 C 0.60857 0.09452 0.57044
 C550 C 0.62712 0.11332 0.58791
 H551 H 0.65494 0.23056 0.70432
 H552 H 0.68653 0.25929 0.73828
 H553 H 0.76421 0.20511 0.71150
 H554 H 0.73239 0.17701 0.67639
 H555 H 0.57391 0.13874 0.63821
 H556 H 0.54163 0.10569 0.60776
 H557 H 0.61857 0.08198 0.55180
 H558 H 0.65095 0.11508 0.58210
 C559 C 0.69055 0.70193 0.18637
 C560 C 0.67803 0.72480 0.20479
 C561 C 0.69616 0.74108 0.22491
 C562 C 0.72732 0.73419 0.22816
 C563 C 0.74001 0.71253 0.20808
 C564 C 0.72189 0.69640 0.18780
 C565 C 0.67091 0.68383 0.16606
 N566 N 0.68311 0.66474 0.14508
 N567 N 0.66535 0.64791 0.12741
 C568 C 0.63466 0.64936 0.13006
 N569 N 0.62249 0.66851 0.15098
 N570 N 0.64023 0.68541 0.16856
 C571 C 0.61489 0.62998 0.11107
 C572 C 0.58379 0.62708 0.11779
 C573 C 0.56532 0.60798 0.10056
 C574 C 0.57746 0.59160 0.07606
 C575 C 0.60840 0.59485 0.06899
 C576 C 0.62696 0.61372 0.08640
 H577 H 0.65412 0.73038 0.20353
 H578 H 0.68542 0.75931 0.23744
 H579 H 0.76410 0.70767 0.20860
 H580 H 0.73243 0.67932 0.17351
 H581 H 0.57375 0.63925 0.13664
 H582 H 0.54148 0.60612 0.10631
 H583 H 0.61840 0.58226 0.05038
 H584 H 0.65078 0.61548 0.08056
   
