data_POSCAR
  _audit_creation_date              2014-09-24
  _audit_creation_method            'ToBaCCo'
  _symmetry_space_group_name_H-M    'P1'
  _symmetry_Int_Tables_number       1
  _symmetry_cell_setting            triclinic
  loop_
  _symmetry_equiv_pos_as_xyz
 x,y,z
_cell_length_a 52.6928
_cell_length_b 48.1680
_cell_length_c 49.4356
_cell_angle_alpha 88.807400
_cell_angle_beta 91.488800
_cell_angle_gamma 93.621000
loop_
  _atom_site_label
  _atom_site_type_symbol
  _atom_site_fract_x
  _atom_site_fract_y
  _atom_site_fract_z
C1 C 0.58438 0.62479 0.63106
 C2 C 0.56432 0.64261 0.62927
 C3 C 0.56530 0.66562 0.61136
 C4 C 0.58632 0.67036 0.59451
 C5 C 0.60631 0.65244 0.59570
 C6 C 0.60541 0.62966 0.61417
 C7 C 0.58383 0.60236 0.64964
 C8 C 0.60416 0.58475 0.65201
 C9 C 0.62486 0.58951 0.63453
 C10 C 0.62552 0.61171 0.61570
 C11 C 0.64607 0.61621 0.59833
 C12 C 0.64680 0.63846 0.57941
 C13 C 0.62711 0.65679 0.57860
 H14 H 0.54808 0.63891 0.64220
 H15 H 0.58691 0.68763 0.58009
 H16 H 0.56765 0.59894 0.66270
 H17 H 0.64048 0.57604 0.63494
 H18 H 0.66162 0.60254 0.59983
 H19 H 0.62776 0.67414 0.56424
 C20 C 0.90852 0.36810 0.14160
 C21 C 0.92777 0.34970 0.13836
 C22 C 0.92632 0.33051 0.11705
 C23 C 0.90561 0.33089 0.09848
 C24 C 0.88608 0.34894 0.10168
 C25 C 0.88740 0.36744 0.12348
 C26 C 0.91001 0.38710 0.16282
 C27 C 0.89038 0.40489 0.16663
 C28 C 0.86918 0.40389 0.14867
 C29 C 0.86759 0.38529 0.12715
 C30 C 0.84652 0.38429 0.10919
 C31 C 0.84522 0.36617 0.08727
 C32 C 0.86507 0.34851 0.08362
 H33 H 0.94388 0.35094 0.15235
 H34 H 0.90431 0.31654 0.08180
 H35 H 0.92636 0.38785 0.17664
 H36 H 0.85420 0.41798 0.15097
 H37 H 0.83116 0.39783 0.11208
 H38 H 0.86390 0.33391 0.06719
 C39 C 0.38466 0.13960 -0.13937
 C40 C 0.40422 0.16080 -0.13888
 C41 C 0.40466 0.18167 -0.11939
 C42 C 0.38551 0.18112 -0.10018
 C43 C 0.36612 0.15980 -0.10011
 C44 C 0.36542 0.13920 -0.12005
 C45 C 0.38405 0.11892 -0.15897
 C46 C 0.36430 0.09767 -0.15970
 C47 C 0.34494 0.09786 -0.14058
 C48 C 0.34553 0.11819 -0.12060
 C49 C 0.32676 0.11759 -0.10088
 C50 C 0.32789 0.13758 -0.08046
 C51 C 0.34755 0.15862 -0.08028
 H52 H 0.41876 0.16138 -0.15403
 H53 H 0.38591 0.19718 -0.08510
 H54 H 0.39874 0.12017 -0.17387
 H55 H 0.32957 0.08177 -0.14088
 H56 H 0.31187 0.10102 -0.10087
 H57 H 0.34838 0.17407 -0.06458
 C58 C 0.10298 0.86254 0.36658
 C59 C 0.08302 0.84185 0.36701
 C60 C 0.08509 0.81729 0.38283
 C61 C 0.10768 0.81381 0.39803
 C62 C 0.12749 0.83467 0.39836
 C63 C 0.12521 0.85907 0.38246
 C64 C 0.10112 0.88661 0.35034
 C65 C 0.12130 0.90705 0.34944
 C66 C 0.14316 0.90382 0.36586
 C67 C 0.14518 0.88003 0.38244
 C68 C 0.16678 0.87693 0.39912
 C69 C 0.16878 0.85306 0.41574
 C70 C 0.14940 0.83171 0.41467
 H71 H 0.06639 0.84480 0.35426
 H72 H 0.10963 0.79504 0.41023
 H73 H 0.08412 0.88925 0.33795
 H74 H 0.15845 0.91994 0.36609
 H75 H 0.18208 0.89306 0.39900
 H76 H 0.15105 0.81314 0.42723
 N77 N 0.09196 0.16144 0.11855
 N78 N 0.08809 0.15276 0.14358
 C79 C 0.06964 0.16709 0.15400
 C80 C 0.06145 0.18556 0.13445
 C81 C 0.07598 0.18145 0.11214
 H82 H 0.06290 0.16472 0.17445
 H83 H 0.07570 0.19288 0.09309
 Cu84 Cu 0.10803 0.12420 0.16043
 Cu85 Cu 0.11912 0.14820 0.09715
 Cu86 Cu 0.15635 0.09890 0.12763
 N87 N 0.12759 0.09479 0.17627
 N88 N 0.14692 0.08551 0.16365
 C89 C 0.15695 0.06521 0.17881
 C90 C 0.14302 0.06136 0.20200
 C91 C 0.12455 0.08052 0.19982
 H92 H 0.17272 0.05347 0.17306
 H93 H 0.10988 0.08366 0.21412
 N94 N 0.16263 0.11476 0.09119
 N95 N 0.14774 0.13248 0.07905
 C96 C 0.15653 0.13867 0.05413
 C97 C 0.17811 0.12448 0.05065
 C98 C 0.18144 0.10947 0.07447
 H99 H 0.14832 0.15301 0.03979
 H100 H 0.19633 0.09558 0.07916
 H101 H 0.12021 0.10953 0.11596
 H102 H 0.14225 0.13800 0.12970
 N103 N 0.41356 0.85146 0.60732
 N104 N 0.42841 0.86778 0.62276
 C105 C 0.45070 0.85612 0.62728
 C106 C 0.44972 0.83107 0.61416
 C107 C 0.42589 0.82868 0.60163
 H108 H 0.46640 0.86505 0.63943
 H109 H 0.41832 0.81203 0.58886
 Cu110 Cu 0.41721 0.90220 0.63658
 Cu111 Cu 0.38018 0.86208 0.59431
 Cu112 Cu 0.35902 0.92238 0.62066
 N113 N 0.40081 0.92842 0.65861
 N114 N 0.37766 0.93570 0.65277
 C115 C 0.37099 0.95408 0.67103
 C116 C 0.39113 0.95851 0.68929
 C117 C 0.40975 0.94198 0.68076
 H118 H 0.35313 0.96399 0.67054
 H119 H 0.42846 0.94011 0.68990
 N120 N 0.33950 0.90026 0.59339
 N121 N 0.34720 0.87701 0.58360
 C122 C 0.33015 0.86756 0.56459
 C123 C 0.31091 0.88584 0.56246
 C124 C 0.31743 0.90620 0.58100
 H125 H 0.33211 0.84942 0.55249
 H126 H 0.30712 0.92442 0.58464
 H127 H 0.38663 0.90411 0.59840
 H128 H 0.37354 0.88450 0.62843
 N129 N 0.88679 0.66245 0.39161
 N130 N 0.89999 0.64901 0.37432
 C131 C 0.92162 0.66432 0.36892
 C132 C 0.92188 0.68859 0.38336
 C133 C 0.89952 0.68684 0.39737
 H134 H 0.93585 0.65858 0.35507
 H135 H 0.89323 0.70212 0.41100
 Cu136 Cu 0.88769 0.61321 0.35864
 Cu137 Cu 0.85453 0.64687 0.40668
 Cu138 Cu 0.83295 0.58446 0.38320
 N139 N 0.87228 0.57809 0.34542
 N140 N 0.85064 0.56713 0.35465
 C141 C 0.84371 0.54404 0.34073
 C142 C 0.86198 0.54026 0.32191
 C143 C 0.87992 0.56224 0.32540
 H144 H 0.82638 0.53117 0.34359
 H145 H 0.89675 0.56692 0.31368
 N146 N 0.81504 0.60329 0.41058
 N147 N 0.82312 0.62796 0.41932
 C148 C 0.80726 0.63586 0.43827
 C149 C 0.78832 0.61489 0.44153
 C150 C 0.79386 0.59462 0.42371
 H151 H 0.80974 0.65501 0.44933
 H152 H 0.78330 0.57487 0.42083
 H153 H 0.87187 0.61136 0.39658
 H154 H 0.85363 0.62886 0.36894
 N155 N 0.60513 0.33481 -0.10712
 N156 N 0.59280 0.34769 -0.12659
 C157 C 0.57088 0.33289 -0.13244
 C158 C 0.56958 0.30943 -0.11576
 C159 C 0.59162 0.31127 -0.10001
 H160 H 0.55732 0.33839 -0.14814
 H161 H 0.59742 0.29658 -0.08455
 Cu162 Cu 0.60715 0.38179 -0.14345
 Cu163 Cu 0.63740 0.35010 -0.09217
 Cu164 Cu 0.67055 0.39507 -0.13608
 N165 N 0.62590 0.40716 -0.16777
 N166 N 0.65077 0.41121 -0.16556
 C167 C 0.65893 0.42893 -0.18533
 C168 C 0.63810 0.43646 -0.20063
 C169 C 0.61736 0.42225 -0.18897
 H170 H 0.67853 0.43626 -0.18812
 H171 H 0.59763 0.42258 -0.19548
 N172 N 0.68669 0.37701 -0.10444
 N173 N 0.67372 0.36098 -0.08701
 C174 C 0.68937 0.35377 -0.06644
 C175 C 0.71337 0.36588 -0.07123
 C176 C 0.71104 0.38028 -0.09550
 H177 H 0.68368 0.34069 -0.04934
 H178 H 0.72587 0.39297 -0.10537
 H179 H 0.64156 0.39024 -0.10950
 H180 H 0.64629 0.35994 -0.13133
 C181 C -0.05533 0.31094 0.11355
 C182 C -0.03658 0.30451 0.13285
 C183 C -0.01857 0.28305 0.12833
 N184 N -0.00517 0.27264 0.14960
 N185 N 0.01107 0.25304 0.14597
 C186 C 0.01464 0.24323 0.12088
 N187 N 0.00145 0.25384 0.09955
 N188 N -0.01494 0.27332 0.10321
 C189 C 0.03268 0.22174 0.11661
 C190 C 0.04268 0.20641 0.13812
 H191 H -0.03587 0.31367 0.15262
 H192 H 0.03774 0.21754 0.09607
 H193 H -0.05662 0.29885 0.09525
 H194 H 0.03633 0.20947 0.15845
 C195 C 0.54392 0.68408 0.61029
 C196 C 0.54739 0.71262 0.60512
 C197 C 0.52621 0.73109 0.60511
 N198 N 0.53117 0.75901 0.60640
 N199 N 0.51224 0.77606 0.60658
 C200 C 0.48763 0.76583 0.60526
 N201 N 0.48266 0.73792 0.60367
 N202 N 0.50160 0.72084 0.60370
 C203 C 0.46658 0.78450 0.60546
 C204 C 0.47043 0.81203 0.61350
 H205 H 0.56639 0.72203 0.60242
 H206 H 0.44759 0.77610 0.60022
 H207 H 0.52525 0.67532 0.61570
 H208 H 0.48914 0.81974 0.62058
 C209 C 1.06562 0.79589 0.38372
 C210 C 1.04059 0.79863 0.37441
 C211 C 1.02137 0.77515 0.37527
 N212 N 0.99627 0.78002 0.37445
 N213 N 0.97864 0.75896 0.37499
 C214 C 0.98547 0.73223 0.37608
 N215 N 1.01055 0.72735 0.37659
 N216 N 1.02820 0.74842 0.37633
 C217 C 0.96621 0.70879 0.37619
 C218 C 0.94123 0.71197 0.38353
 H219 H 1.03414 0.81862 0.36795
 H220 H 0.97211 0.68835 0.37142
 H221 H 1.06994 0.77628 0.39341
 H222 H 0.93591 0.73184 0.39068
 C223 C 0.42450 0.20473 -0.11923
 C224 C 0.44969 0.20094 -0.12540
 C225 C 0.46924 0.22408 -0.12519
 N226 N 0.49421 0.21879 -0.12317
 N227 N 0.51213 0.23959 -0.12305
 C228 C 0.50572 0.26644 -0.12523
 N229 N 0.48076 0.27171 -0.12757
 N230 N 0.46283 0.25093 -0.12741
 C231 C 0.52530 0.28956 -0.12551
 C232 C 0.54985 0.28645 -0.11530
 H233 H 0.45549 0.18024 -0.12925
 H234 H 0.51995 0.30975 -0.13288
 H235 H 0.41947 0.22485 -0.11240
 H236 H 0.55454 0.26695 -0.10572
 C237 C 0.11885 -0.06832 0.33141
 C238 C 0.13971 -0.05431 0.31926
 C239 C 0.13686 -0.03104 0.29990
 N240 N 0.15687 -0.02160 0.28481
 N241 N 0.15447 -0.00094 0.26676
 C242 C 0.13198 0.01115 0.26326
 N243 N 0.11206 0.00192 0.27856
 N244 N 0.11442 -0.01884 0.29651
 C245 C 0.12883 0.03358 0.24303
 C246 C 0.14690 0.04030 0.22346
 H247 H 0.15857 -0.06155 0.32272
 H248 H 0.11125 0.04406 0.24279
 H249 H 0.09988 -0.06241 0.32585
 H250 H 0.16389 0.02881 0.22293
 C251 C 0.60296 0.56325 -0.32815
 C252 C 0.62282 0.54622 -0.32126
 C253 C 0.62083 0.52500 -0.29945
 N254 N 0.64188 0.51218 -0.29097
 N255 N 0.64069 0.49331 -0.27090
 C256 C 0.61834 0.48644 -0.25862
 N257 N 0.59721 0.49906 -0.26726
 N258 N 0.59843 0.51804 -0.28728
 C259 C 0.61694 0.46601 -0.23606
 C260 C 0.63878 0.45585 -0.22402
 H261 H 0.64103 0.54902 -0.33075
 H262 H 0.59843 0.45971 -0.22820
 H263 H 0.58574 0.56031 -0.31662
 H264 H 0.65729 0.46309 -0.23131
 C265 C 0.36294 1.07649 0.82096
 C266 C 0.38270 1.07088 0.80388
 C267 C 0.37986 1.04929 0.78322
 N268 N 0.40075 1.04108 0.77087
 N269 N 0.39855 1.02202 0.75168
 C270 C 0.37534 1.01058 0.74398
 N271 N 0.35442 1.01888 0.75623
 N272 N 0.35663 1.03783 0.77556
 C273 C 0.37259 0.99014 0.72224
 C274 C 0.39347 0.97777 0.71204
 H275 H 0.40129 1.08148 0.80611
 H276 H 0.35366 0.98456 0.71428
 H277 H 0.34574 1.06291 0.81980
 H278 H 0.41217 0.98207 0.72117
 C279 C 0.89289 0.42486 0.18902
 C280 C 0.87197 0.43441 0.20190
 C281 C 0.87464 0.45475 0.22372
 N282 N 0.85393 0.46066 0.23774
 N283 N 0.85588 0.47935 0.25729
 C284 C 0.87861 0.49291 0.26348
 N285 N 0.89932 0.48707 0.24940
 N286 N 0.89739 0.46829 0.22991
 C287 C 0.88086 0.51404 0.28464
 C288 C 0.86079 0.51836 0.30155
 H289 H 0.85296 0.42627 0.19637
 H290 H 0.89869 0.52629 0.28697
 H291 H 0.91186 0.43126 0.19640
 H292 H 0.84341 0.50517 0.29993
 C293 C 0.30983 0.13600 -0.05806
 C294 C 0.28444 0.12636 -0.06113
 C295 C 0.26744 0.12440 -0.03794
 N296 N 0.24182 0.12343 -0.04197
 N297 N 0.22636 0.12174 -0.02099
 C298 C 0.23599 0.12068 0.00475
 N299 N 0.26157 0.12129 0.00873
 N300 N 0.27701 0.12325 -0.01221
 C301 C 0.21935 0.11857 0.02819
 C302 C 0.19416 0.12580 0.02667
 H303 H 0.27662 0.12122 -0.08101
 H304 H 0.22765 0.11262 0.04755
 H305 H 0.31655 0.14396 -0.03864
 H306 H 0.18644 0.13410 0.00789
 C307 C 0.66804 0.64305 0.56048
 C308 C 0.68095 0.62110 0.55066
 C309 C 0.70165 0.62513 0.53133
 N310 N 0.71054 0.60267 0.51949
 N311 N 0.72930 0.60572 0.50194
 C312 C 0.73999 0.63136 0.49566
 N313 N 0.73124 0.65385 0.50766
 N314 N 0.71235 0.65082 0.52514
 C315 C 0.76081 0.63479 0.47633
 C316 C 0.76732 0.61276 0.46062
 H317 H 0.67503 0.59990 0.55638
 H318 H 0.77081 0.65501 0.47416
 H319 H 0.67245 0.66394 0.55270
 H320 H 0.75639 0.59299 0.46202
 C321 C 0.82249 0.36538 0.06909
 C322 C 0.82343 0.35959 0.04163
 C323 C 0.80056 0.35892 0.02391
 N324 N 0.80287 0.35991 -0.00337
 N325 N 0.78228 0.35940 -0.01964
 C326 C 0.75863 0.35762 -0.00919
 N327 N 0.75633 0.35632 0.01808
 N328 N 0.77691 0.35705 0.03434
 C329 C 0.73569 0.35712 -0.02679
 C330 C 0.73655 0.36492 -0.05407
 H331 H 0.84153 0.35665 0.03257
 H332 H 0.71753 0.35186 -0.01763
 H333 H 0.80472 0.37113 0.07728
 H334 H 0.75451 0.37207 -0.06277
 C335 C 0.19077 0.85007 0.43456
 C336 C 0.20311 0.87291 0.44728
 C337 C 0.22379 0.87025 0.46753
 N338 N 0.23209 0.89271 0.48211
 N339 N 0.25071 0.89086 0.50065
 C340 C 0.26183 0.86647 0.50526
 N341 N 0.25366 0.84400 0.49055
 N342 N 0.23491 0.84582 0.47207
 C343 C 0.28268 0.86444 0.52549
 C344 C 0.28915 0.88602 0.54323
 H345 H 0.19654 0.89350 0.44345
 H346 H 0.29302 0.84571 0.52640
 H347 H 0.19591 0.82930 0.44032
 H348 H 0.27795 0.90413 0.54295
   
