data_POSCAR
  _audit_creation_date              2014-09-24
  _audit_creation_method            'ToBaCCo'
  _symmetry_space_group_name_H-M    'P1'
  _symmetry_Int_Tables_number       1
  _symmetry_cell_setting            triclinic
  loop_
  _symmetry_equiv_pos_as_xyz
 x,y,z
_cell_length_a 33.5472
_cell_length_b 33.5335
_cell_length_c 45.1963
_cell_angle_alpha 89.886500
_cell_angle_beta 90.341500
_cell_angle_gamma 92.223700
loop_
  _atom_site_label
  _atom_site_type_symbol
  _atom_site_fract_x
  _atom_site_fract_y
  _atom_site_fract_z
O1 O -0.03335 0.46086 1.02687
 O2 O -0.03388 0.53817 0.96926
 O3 O -0.03180 0.46046 0.96940
 O4 O -0.03379 0.53859 1.02678
 O5 O 0.03200 0.54165 1.02760
 O6 O 0.03397 0.46468 0.97002
 O7 O 0.03182 0.54239 0.97009
 O8 O 0.03244 0.46391 1.02750
 Cu9 Cu -0.03978 0.49917 0.99799
 Cu10 Cu 0.03913 0.50353 0.99887
 C11 C -0.00048 0.44887 1.03693
 C12 C -0.00126 0.55390 0.95990
 C13 C 0.00155 0.44909 0.96001
 C14 C -0.00111 0.55355 1.03695
 O15 O 0.46345 0.03111 0.52916
 O16 O 0.53965 0.03120 0.47123
 O17 O 0.46187 0.03029 0.47168
 O18 O 0.54111 0.03033 0.52871
 O19 O 0.53806 -0.03549 0.52889
 O20 O 0.45996 -0.03552 0.47161
 O21 O 0.53780 -0.03455 0.47139
 O22 O 0.46033 -0.03470 0.52913
 Cu23 Cu 0.50177 0.03731 0.50018
 Cu24 Cu 0.49878 -0.04165 0.50025
 C25 C 0.44858 -0.00168 0.53896
 C26 C 0.55219 -0.00152 0.46149
 C27 C 0.44725 -0.00273 0.46198
 C28 C 0.55322 -0.00269 0.53848
 C29 C -0.05570 0.00921 0.26451
 C30 C -0.01890 0.01590 0.25053
 C31 C -0.01049 0.05227 0.23616
 C32 C -0.03889 0.08195 0.23527
 C33 C -0.07555 0.07507 0.24971
 C34 C -0.08412 0.03890 0.26459
 C35 C 0.01096 -0.01516 0.25099
 C36 C 0.00295 -0.05165 0.23672
 C37 C 0.03157 -0.08113 0.23641
 C38 C 0.06802 -0.07398 0.25140
 C39 C 0.07618 -0.03766 0.26618
 C40 C 0.04756 -0.00818 0.26549
 H41 H -0.06158 -0.01871 0.27610
 H42 H 0.01817 0.05728 0.22557
 H43 H -0.02553 -0.05685 0.22566
 H44 H 0.05362 0.02026 0.27628
 H45 H -0.09789 0.09751 0.24872
 H46 H 0.09011 -0.09668 0.25151
 C47 C -0.00658 -0.05184 0.76384
 C48 C -0.01214 -0.01493 0.75017
 C49 C -0.04840 -0.00774 0.73599
 C50 C -0.07908 -0.03743 0.73495
 C51 C -0.07333 -0.07418 0.74909
 C52 C -0.03728 -0.08157 0.76380
 C53 C 0.01999 0.01629 0.75078
 C54 C 0.05661 0.00961 0.73729
 C55 C 0.08714 0.03949 0.73716
 C56 C 0.08086 0.07587 0.75152
 C57 C 0.04441 0.08275 0.76549
 C58 C 0.01391 0.05286 0.76465
 H59 H 0.02125 -0.05681 0.77531
 H60 H -0.05253 0.02100 0.72564
 H61 H 0.06070 -0.01843 0.72603
 H62 H -0.01425 0.05747 0.77551
 H63 H -0.09657 -0.09748 0.74802
 H64 H 0.10437 0.09893 0.75176
 C65 C 0.03486 -0.36700 0.09140
 C66 C -0.00112 -0.35139 0.10052
 C67 C -0.03731 -0.36759 0.08948
 C68 C -0.03748 -0.39900 0.06912
 C69 C -0.00138 -0.41448 0.05950
 C70 C 0.03478 -0.39831 0.07107
 C71 C -0.00051 -0.31783 0.12034
 C72 C 0.00100 -0.28921 0.13646
 C73 C 0.00381 -0.25515 0.15476
 C74 C 0.00696 -0.22560 0.16987
 C75 C 0.01151 -0.18978 0.18725
 C76 C -0.00046 -0.15346 0.17555
 C77 C 0.00561 -0.11824 0.19171
 C78 C 0.02382 -0.11886 0.21983
 C79 C 0.03535 -0.15561 0.23156
 C80 C 0.02923 -0.19083 0.21534
 H81 H 0.06304 -0.35463 0.09975
 H82 H -0.06534 -0.35565 0.09634
 H83 H -0.06579 -0.41076 0.06062
 H84 H 0.06309 -0.40952 0.06416
 H85 H -0.01396 -0.15226 0.15375
 H86 H -0.00307 -0.09038 0.18189
 H87 H 0.04899 -0.15711 0.25328
 H88 H 0.03865 -0.21879 0.22460
 C89 C 0.03439 0.36936 0.08999
 C90 C -0.00207 0.35309 0.10020
 C91 C -0.03780 0.36889 0.09039
 C92 C -0.03721 0.40045 0.07017
 C93 C -0.00077 0.41669 0.05942
 C94 C 0.03507 0.40102 0.06975
 C95 C -0.00320 0.31927 0.11988
 C96 C -0.00517 0.29045 0.13586
 C97 C -0.00853 0.25621 0.15401
 C98 C -0.01216 0.22654 0.16901
 C99 C -0.01731 0.19064 0.18630
 C100 C -0.00530 0.15429 0.17490
 C101 C -0.01189 0.11903 0.19098
 C102 C -0.03067 0.11966 0.21872
 C103 C -0.04227 0.15643 0.23015
 C104 C -0.03563 0.19168 0.21402
 H105 H 0.06223 0.35727 0.09739
 H106 H -0.06619 0.35647 0.09810
 H107 H -0.06533 0.41180 0.06271
 H108 H 0.06359 0.41283 0.06189
 H109 H 0.00867 0.15310 0.15338
 H110 H -0.00313 0.09116 0.18139
 H111 H -0.05636 0.15794 0.25159
 H112 H -0.04508 0.21967 0.22304
 C113 C 0.36669 -0.03573 0.59198
 C114 C 0.35428 0.00088 0.60272
 C115 C 0.37346 0.03640 0.59329
 C116 C 0.40454 0.03546 0.57291
 C117 C 0.41690 -0.00111 0.56162
 C118 C 0.39787 -0.03676 0.57157
 C119 C 0.32095 0.00249 0.62253
 C120 C 0.29265 0.00506 0.63862
 C121 C 0.25910 0.00936 0.65687
 C122 C 0.23010 0.01400 0.67191
 C123 C 0.19507 0.02056 0.68920
 C124 C 0.17735 0.05762 0.68804
 C125 C 0.14257 0.06392 0.70394
 C126 C 0.12498 0.03316 0.72125
 C127 C 0.14323 -0.00391 0.72252
 C128 C 0.17807 -0.01015 0.70658
 H129 H 0.35195 -0.06341 0.59908
 H130 H 0.36405 0.06490 0.60140
 H131 H 0.41855 0.06345 0.56575
 H132 H 0.40666 -0.06537 0.56328
 H133 H 0.19016 0.08153 0.67455
 H134 H 0.12893 0.09257 0.70213
 H135 H 0.13063 -0.02802 0.73590
 H136 H 0.19156 -0.03895 0.70766
 C137 C -0.36939 -0.04044 0.59196
 C138 C -0.35031 -0.00480 0.60131
 C139 C -0.36351 0.03174 0.59080
 C140 C -0.39537 0.03259 0.57070
 C141 C -0.41433 -0.00317 0.56083
 C142 C -0.40117 -0.03968 0.57189
 C143 C -0.31631 -0.00606 0.62082
 C144 C -0.28741 -0.00798 0.63665
 C145 C -0.25311 -0.01109 0.65461
 C146 C -0.22342 -0.01435 0.66943
 C147 C -0.18750 -0.01885 0.68649
 C148 C -0.15079 -0.00512 0.67508
 C149 C -0.11561 -0.01082 0.69098
 C150 C -0.11666 -0.03040 0.71855
 C151 C -0.15376 -0.04379 0.72997
 C152 C -0.18895 -0.03805 0.71401
 H153 H -0.35936 -0.06889 0.59991
 H154 H -0.34887 0.05952 0.59784
 H155 H -0.40476 0.06117 0.56259
 H156 H -0.41510 -0.06775 0.56477
 H157 H -0.14930 0.00955 0.65371
 H158 H -0.08749 -0.00068 0.68139
 H159 H -0.15558 -0.05855 0.75127
 H160 H -0.21721 -0.04882 0.72304
 C161 C 0.03257 -0.36514 0.90804
 C162 C -0.00405 -0.35205 0.89762
 C163 C -0.03955 -0.37094 0.90720
 C164 C -0.03861 -0.40240 0.92745
 C165 C -0.00197 -0.41555 0.93856
 C166 C 0.03368 -0.39670 0.92832
 C167 C -0.00559 -0.31835 0.87792
 C168 C -0.00792 -0.28972 0.86193
 C169 C -0.01172 -0.25576 0.84378
 C170 C -0.01574 -0.22639 0.82880
 C171 C -0.02137 -0.19090 0.81155
 C172 C -0.05799 -0.17234 0.81235
 C173 C -0.06331 -0.13710 0.79651
 C174 C -0.03200 -0.11988 0.77964
 C175 C 0.00460 -0.13900 0.77870
 C176 C 0.00985 -0.17428 0.79458
 H177 H 0.06025 -0.35065 0.90079
 H178 H -0.06808 -0.36100 0.89930
 H179 H -0.06673 -0.41604 0.93462
 H180 H 0.06246 -0.40587 0.93623
 H181 H -0.08231 -0.18485 0.82553
 H182 H -0.09163 -0.12283 0.79802
 H183 H 0.02911 -0.12673 0.76564
 H184 H 0.03832 -0.18843 0.79378
 C185 C 0.04143 0.37310 0.90699
 C186 C 0.00629 0.35321 0.89741
 C187 C -0.03063 0.36548 0.90754
 C188 C -0.03236 0.39720 0.92752
 C189 C 0.00290 0.41693 0.93766
 C190 C 0.03980 0.40473 0.92695
 C191 C 0.00854 0.31931 0.87809
 C192 C 0.01143 0.29054 0.86241
 C193 C 0.01586 0.25645 0.84465
 C194 C 0.02040 0.22702 0.82997
 C195 C 0.02661 0.19151 0.81303
 C196 C -0.00398 0.17497 0.79519
 C197 C 0.00187 0.13981 0.77946
 C198 C 0.03846 0.12075 0.78140
 C199 C 0.06911 0.13783 0.79920
 C200 C 0.06319 0.17295 0.81490
 H201 H 0.07017 0.36380 0.89935
 H202 H -0.05802 0.35021 0.90031
 H203 H -0.06121 0.40584 0.93536
 H204 H 0.06749 0.41927 0.93428
 H205 H -0.03240 0.18912 0.79355
 H206 H -0.02212 0.12764 0.76567
 H207 H 0.09739 0.12358 0.80150
 H208 H 0.08701 0.18540 0.82875
 C209 C -0.37006 0.03650 0.40900
 C210 C -0.35450 0.00091 0.39902
 C211 C -0.37072 -0.03569 0.40910
 C212 C -0.40208 -0.03668 0.42942
 C213 C -0.41756 -0.00094 0.44007
 C214 C -0.40129 0.03567 0.42929
 C215 C -0.32095 0.00237 0.37929
 C216 C -0.29235 0.00482 0.36327
 C217 C -0.25835 0.00899 0.34512
 C218 C -0.22892 0.01353 0.33012
 C219 C -0.19333 0.01997 0.31285
 C220 C -0.17838 -0.01098 0.29598
 C221 C -0.14309 -0.00479 0.27998
 C222 C -0.12231 0.03249 0.28070
 C223 C -0.13782 0.06348 0.29753
 C224 C -0.17306 0.05723 0.31348
 H225 H -0.35768 0.06500 0.40137
 H226 H -0.35882 -0.06344 0.40153
 H227 H -0.41372 -0.06544 0.43706
 H228 H -0.41228 0.06386 0.43677
 H229 H -0.19386 -0.03993 0.29531
 H230 H -0.13215 -0.02909 0.26696
 H231 H -0.12225 0.09232 0.29888
 H232 H -0.18427 0.08134 0.32658
 C233 C 0.36629 0.03161 0.40984
 C234 C 0.35028 -0.00494 0.39943
 C235 C 0.36675 -0.04056 0.40876
 C236 C 0.39871 -0.03977 0.42873
 C237 C 0.41468 -0.00325 0.43969
 C238 C 0.39835 0.03249 0.42983
 C239 C 0.31604 -0.00624 0.38007
 C240 C 0.28688 -0.00819 0.36434
 C241 C 0.25224 -0.01134 0.34650
 C242 C 0.22224 -0.01464 0.33175
 C243 C 0.18595 -0.01918 0.31473
 C244 C 0.15009 -0.00649 0.32647
 C245 C 0.11449 -0.01218 0.31055
 C246 C 0.11426 -0.03072 0.28264
 C247 C 0.15052 -0.04309 0.27091
 C248 C 0.18612 -0.03735 0.28688
 H249 H 0.35369 0.05937 0.40282
 H250 H 0.35453 -0.06902 0.40090
 H251 H 0.41058 -0.06782 0.43584
 H252 H 0.40993 0.06108 0.43787
 H253 H 0.14957 0.00739 0.34808
 H254 H 0.08701 -0.00282 0.32036
 H255 H 0.15138 -0.05699 0.24933
 H256 H 0.21372 -0.04731 0.27759
   
