data_POSCAR
  _audit_creation_date              2014-09-24
  _audit_creation_method            'ToBaCCo'
  _symmetry_space_group_name_H-M    'P1'
  _symmetry_Int_Tables_number       1
  _symmetry_cell_setting            triclinic
  loop_
  _symmetry_equiv_pos_as_xyz
 x,y,z
_cell_length_a 33.1769
_cell_length_b 32.4210
_cell_length_c 30.4676
_cell_angle_alpha 92.254400
_cell_angle_beta 89.131100
_cell_angle_gamma 119.348100
loop_
  _atom_site_label
  _atom_site_type_symbol
  _atom_site_fract_x
  _atom_site_fract_y
  _atom_site_fract_z
C1 C 0.53074 0.07379 0.04858
 H2 H 0.56450 0.07741 0.04239
 C3 C 0.52674 0.10818 0.07418
 H4 H 0.55784 0.13845 0.08708
 C5 C 0.44969 0.03091 0.03705
 H6 H 0.41985 0.00103 0.02202
 C7 C 0.44402 0.06434 0.06288
 H8 H 0.40956 0.05925 0.06810
 N9 N 0.49258 0.03613 0.03065
 C10 C 0.52711 -0.07623 0.00797
 H11 H 0.52305 -0.08136 -0.02733
 C12 C 0.53567 -0.10680 0.03227
 H13 H 0.53790 -0.13559 0.01533
 C14 C 0.52593 -0.03424 0.07298
 H15 H 0.52111 -0.00658 0.08882
 C16 C 0.53470 -0.06382 0.09851
 H17 H 0.53748 -0.05788 0.13382
 Zn18 Zn 0.50316 -0.00617 -0.00574
 N19 N 0.52188 -0.04120 0.02860
 C20 C 0.59276 0.03486 -0.04345
 N21 N 0.55027 0.03138 -0.04540
 C22 C 0.54176 0.05848 -0.07257
 C23 C 0.57641 0.09007 -0.09980
 C24 C 0.62892 0.06713 -0.06920
 C25 C 0.41425 -0.08368 -0.01094
 C26 C 0.37358 -0.11911 -0.03053
 C27 C 0.40290 -0.08487 -0.10077
 C28 C 0.44343 -0.05085 -0.07981
 N29 N 0.44818 -0.05046 -0.03559
 H30 H 0.59920 0.01405 -0.02062
 H31 H 0.50803 0.05600 -0.07261
 H32 H 0.56807 0.11021 -0.12181
 H33 H 0.66289 0.07073 -0.06549
 H34 H 0.41896 -0.08273 0.02423
 H35 H 0.34725 -0.14341 -0.00889
 H36 H 0.40206 -0.08447 -0.13620
 H37 H 0.47137 -0.02544 -0.09929
 C38 C 0.53880 -0.10130 0.07828
 C39 C 0.48292 0.10377 0.08177
 C40 C 0.36671 -0.12063 -0.07650
 C41 C 0.62120 0.09573 -0.09771
 C42 C -0.07676 0.47400 0.60441
 H43 H -0.07426 0.44208 0.59972
 C44 C -0.10998 0.47895 0.58141
 H45 H -0.13175 0.45111 0.55800
 C46 C -0.05069 0.54880 0.64065
 H47 H -0.02806 0.57537 0.66455
 C48 C -0.08438 0.55473 0.61907
 H49 H -0.08729 0.58602 0.62681
 N50 N -0.04781 0.50870 0.63314
 C51 C 0.06195 0.47308 0.64796
 H52 H 0.06202 0.47073 0.68328
 C53 C 0.09560 0.46939 0.62268
 H54 H 0.12158 0.46443 0.63900
 C55 C 0.03005 0.48626 0.58450
 H56 H 0.00562 0.49453 0.56977
 C57 C 0.06265 0.48221 0.55794
 H58 H 0.06171 0.48589 0.52287
 Zn59 Zn -0.00856 0.49474 0.66610
 N60 N 0.03036 0.48187 0.62869
 C61 C -0.05160 0.39837 0.69141
 N62 N -0.04837 0.44154 0.69868
 C63 C -0.07736 0.44753 0.72685
 C64 C -0.11072 0.40952 0.74973
 C65 C -0.08549 0.35888 0.71281
 C66 C 0.06438 0.58553 0.68393
 C67 C 0.09820 0.62323 0.70913
 C68 C 0.06109 0.58143 0.77457
 C69 C 0.02866 0.54407 0.74808
 N70 N 0.03084 0.54672 0.70359
 H71 H -0.02906 0.39416 0.66785
 H72 H -0.07478 0.48202 0.73120
 H73 H -0.13233 0.41589 0.77281
 H74 H -0.08862 0.32454 0.70525
 H75 H 0.06584 0.58635 0.64846
 H76 H 0.12574 0.65256 0.69243
 H77 H 0.05817 0.57855 0.80987
 H78 H 0.00258 0.51261 0.76327
 C79 C 0.09671 0.47468 0.57702
 C80 C -0.11504 0.51920 0.58926
 C81 C 0.09720 0.62141 0.75523
 C82 C -0.11602 0.36404 0.74222
 C83 C 0.54156 0.48416 0.40581
 H84 H 0.50741 0.45349 0.40676
 C85 C 0.57648 0.48729 0.43296
 H86 H 0.56808 0.45944 0.45571
 C87 C 0.59322 0.55733 0.37468
 H88 H 0.59981 0.58391 0.35106
 C89 C 0.62957 0.56128 0.40041
 H90 H 0.66381 0.59103 0.39596
 N91 N 0.55032 0.51901 0.37763
 C92 C 0.41239 0.49358 0.34338
 H93 H 0.41542 0.49424 0.30798
 C94 C 0.37203 0.48837 0.36321
 H95 H 0.34380 0.48445 0.34285
 C96 C 0.44598 0.49900 0.41294
 H97 H 0.47534 0.50472 0.43234
 C98 C 0.40608 0.49344 0.43413
 H99 H 0.40507 0.49458 0.46968
 Zn100 Zn 0.50268 0.50901 0.33812
 N101 N 0.44826 0.49854 0.36830
 C102 C 0.44928 0.41675 0.29743
 N103 N 0.49178 0.45582 0.30188
 C104 C 0.52971 0.45727 0.28274
 C105 C 0.52595 0.41821 0.25840
 C106 C 0.44384 0.37701 0.27278
 C107 C 0.52805 0.60324 0.32577
 C108 C 0.53665 0.64293 0.30248
 C109 C 0.53128 0.59893 0.23487
 C110 C 0.52267 0.55998 0.25949
 N111 N 0.52083 0.56273 0.30408
 H112 H 0.41972 0.41590 0.31363
 H113 H 0.56315 0.48862 0.28719
 H114 H 0.55660 0.41982 0.24370
 H115 H 0.41000 0.34585 0.27001
 H116 H 0.52593 0.60423 0.36123
 H117 H 0.54182 0.67472 0.32033
 H118 H 0.53108 0.59565 0.19936
 H119 H 0.51595 0.52715 0.24288
 C120 C 0.36859 0.48834 0.40918
 C121 C 0.62164 0.52570 0.42985
 C122 C 0.53760 0.64085 0.25637
 C123 C 0.48266 0.37732 0.25347
 C124 C 0.20938 0.47984 0.49968
 C125 C 0.19086 0.44848 0.53472
 C126 C 0.15348 0.44603 0.55910
 C127 C 0.13465 0.47526 0.54983
 C128 C 0.15349 0.50660 0.51531
 C129 C 0.19009 0.50879 0.49047
 C130 C 0.24949 0.48169 0.47466
 C131 C 0.26929 0.51043 0.43828
 C132 C 0.30741 0.51191 0.41685
 C133 C 0.32692 0.48494 0.43108
 C134 C 0.30697 0.45549 0.46672
 C135 C 0.26831 0.45338 0.48831
 C136 C 0.21028 0.42039 0.54574
 C137 C 0.24843 0.42313 0.52333
 H138 H 0.19620 0.39642 0.57261
 H139 H 0.26259 0.40116 0.53358
 H140 H 0.13916 0.42139 0.58544
 H141 H 0.14066 0.53052 0.50799
 H142 H 0.32233 0.53506 0.38953
 H143 H 0.32142 0.43393 0.47745
 H144 H 0.20324 0.53403 0.46480
 H145 H 0.25604 0.53215 0.42585
 C146 C 0.54781 0.79349 0.15402
 C147 C 0.52032 0.81363 0.16860
 C148 C 0.51830 0.84837 0.14418
 C149 C 0.54343 0.86387 0.10511
 C150 C 0.57139 0.84457 0.09114
 C151 C 0.57367 0.80993 0.11520
 C152 C 0.54748 0.75508 0.18030
 C153 C 0.57223 0.73141 0.16794
 C154 C 0.56948 0.69482 0.19286
 C155 C 0.54230 0.68107 0.23086
 C156 C 0.51804 0.70483 0.24371
 C157 C 0.52021 0.74131 0.21877
 C158 C 0.49444 0.79861 0.20717
 C159 C 0.49452 0.76337 0.23179
 H160 H 0.47354 0.81417 0.21842
 H161 H 0.47367 0.75283 0.26126
 H162 H 0.49598 0.86238 0.15505
 H163 H 0.59167 0.85635 0.06146
 H164 H 0.58880 0.67727 0.18243
 H165 H 0.49623 0.69392 0.27257
 H166 H 0.59565 0.79638 0.10271
 H167 H 0.59352 0.74024 0.13898
 C168 C 0.24848 0.76980 0.85915
 C169 C 0.27341 0.81462 0.84049
 C170 C 0.31270 0.85093 0.86196
 C171 C 0.32747 0.84444 0.90326
 C172 C 0.30016 0.80013 0.92255
 C173 C 0.26180 0.76358 0.90084
 C174 C 0.20863 0.73105 0.83382
 C175 C 0.18534 0.68381 0.84694
 C176 C 0.14927 0.64871 0.82163
 C177 C 0.13474 0.65963 0.78278
 C178 C 0.15774 0.70682 0.76961
 C179 C 0.19507 0.74213 0.79415
 C180 C 0.25860 0.82323 0.80074
 C181 C 0.21973 0.78805 0.77854
 H182 H 0.27719 0.85784 0.78665
 H183 H 0.20958 0.79661 0.74804
 H184 H 0.33003 0.88505 0.84697
 H185 H 0.30955 0.79167 0.95338
 H186 H 0.13358 0.61260 0.83213
 H187 H 0.14701 0.71620 0.73996
 H188 H 0.24313 0.73058 0.91731
 H189 H 0.19526 0.67292 0.87598
 C190 C 0.77459 0.52879 0.52465
 C191 C 0.76916 0.48441 0.53579
 C192 C 0.80459 0.48195 0.55793
 C193 C 0.84693 0.52292 0.56751
 C194 C 0.85259 0.56689 0.55564
 C195 C 0.81689 0.56990 0.53476
 C196 C 0.73542 0.52967 0.50146
 C197 C 0.73545 0.57188 0.49196
 C198 C 0.69835 0.57060 0.46953
 C199 C 0.66043 0.52728 0.45544
 C200 C 0.66005 0.48512 0.46539
 C201 C 0.69645 0.48597 0.48892
 C202 C 0.72886 0.44251 0.52392
 C203 C 0.69371 0.44323 0.50021
 H204 H 0.72486 0.40850 0.53223
 H205 H 0.66363 0.40977 0.49101
 H206 H 0.79897 0.44773 0.56758
 H207 H 0.88501 0.59910 0.56174
 H208 H 0.69935 0.60377 0.46354
 H209 H 0.63167 0.45126 0.45433
 H210 H 0.82344 0.60456 0.52597
 H211 H 0.76352 0.60616 0.50201
 C212 C 0.47342 0.21504 0.15623
 C213 C 0.50582 0.20089 0.16806
 C214 C 0.50752 0.16363 0.14466
 C215 C 0.47833 0.14074 0.10840
 C216 C 0.44614 0.15475 0.09678
 C217 C 0.44353 0.19122 0.12039
 C218 C 0.47343 0.25567 0.18167
 C219 C 0.44165 0.27164 0.17370
 C220 C 0.44418 0.31064 0.19747
 C221 C 0.47861 0.33485 0.22943
 C222 C 0.50968 0.31860 0.23832
 C223 C 0.50712 0.27916 0.21510
 C224 C 0.53714 0.22465 0.20252
 C225 C 0.53810 0.26325 0.22521
 H226 H 0.56195 0.21382 0.21156
 H227 H 0.56358 0.28098 0.25109
 H228 H 0.53205 0.15276 0.15454
 H229 H 0.42365 0.13837 0.06858
 H230 H 0.41975 0.32254 0.19024
 H231 H 0.53576 0.33660 0.26369
 H232 H 0.41859 0.20084 0.10944
 H233 H 0.41469 0.25464 0.14927
 C234 C -0.26540 0.20483 0.83033
 C235 C -0.30373 0.21017 0.84339
 C236 C -0.33992 0.17493 0.86714
 C237 C -0.34012 0.13273 0.87661
 C238 C -0.30292 0.12668 0.86187
 C239 C -0.26593 0.16227 0.83935
 C240 C -0.22632 0.24463 0.80704
 C241 C -0.18438 0.24541 0.79677
 C242 C -0.14871 0.28394 0.77583
 C243 C -0.15407 0.32244 0.76400
 C244 C -0.19609 0.32145 0.77373
 C245 C -0.23140 0.28383 0.79605
 C246 C -0.30608 0.25045 0.83235
 C247 C -0.27118 0.28597 0.80833
 H248 H -0.33571 0.25429 0.84192
 H249 H -0.27490 0.31619 0.80018
 H250 H -0.36769 0.18098 0.87868
 H251 H -0.30239 0.09418 0.86739
 H252 H -0.11653 0.28385 0.76970
 H253 H -0.20155 0.35016 0.76412
 H254 H -0.23842 0.15556 0.82879
 H255 H -0.17806 0.21715 0.80553
   
