data_POSCAR
  _audit_creation_date              2014-09-24
  _audit_creation_method            'ToBaCCo'
  _symmetry_space_group_name_H-M    'P1'
  _symmetry_Int_Tables_number       1
  _symmetry_cell_setting            triclinic
  loop_
  _symmetry_equiv_pos_as_xyz
 x,y,z
_cell_length_a 14.7312
_cell_length_b 16.2174
_cell_length_c 25.0608
_cell_angle_alpha 95.812200
_cell_angle_beta 97.103400
_cell_angle_gamma 92.673100
loop_
  _atom_site_label
  _atom_site_type_symbol
  _atom_site_fract_x
  _atom_site_fract_y
  _atom_site_fract_z
O1 O -0.00584 0.58684 0.94493
 O2 O -0.09298 0.42160 1.01728
 O3 O -0.06983 0.58318 1.03700
 O4 O -0.00883 0.42289 0.93315
 O5 O 0.12971 0.42428 0.97866
 O6 O 0.06635 0.57542 1.08374
 O7 O 0.04389 0.41593 1.06354
 O8 O 0.13110 0.58611 0.99189
 Cu9 Cu -0.05773 0.50437 0.97833
 Cu10 Cu 0.10639 0.50012 1.03390
 C11 C 0.07653 0.61566 0.95620
 C12 C -0.04000 0.38985 1.05226
 C13 C -0.01152 0.60548 1.07849
 C14 C 0.07127 0.39587 0.93899
 O15 O 0.59399 -0.04968 0.55647
 O16 O 0.39035 -0.09116 0.45513
 O17 O 0.56548 -0.08918 0.45221
 O18 O 0.41775 -0.04243 0.55867
 O19 O 0.42360 0.08949 0.54385
 O20 O 0.56991 0.04283 0.43733
 O21 O 0.39460 0.04080 0.44024
 O22 O 0.60154 0.08168 0.54055
 Cu23 Cu 0.49129 -0.08116 0.50740
 Cu24 Cu 0.49759 0.07714 0.48943
 C25 C 0.63405 0.02237 0.56489
 C26 C 0.35822 -0.03272 0.43004
 C27 C 0.59266 -0.03095 0.42658
 C28 C 0.39492 0.03159 0.56903
 C29 C -0.07669 -0.04669 0.18313
 C30 C -0.15242 -0.03916 0.21958
 C31 C -0.13955 0.02844 0.25731
 C32 C -0.05253 0.08308 0.25444
 C33 C -0.07257 0.03583 0.15856
 C34 C -0.05893 0.10383 0.19584
 C35 C 0.01302 -0.04418 0.22215
 C36 C 0.02513 0.02371 0.25975
 H37 H -0.21068 -0.08358 0.21546
 H38 H -0.04250 0.13865 0.28486
 H39 H -0.07004 0.03927 0.11582
 H40 H 0.06323 -0.09046 0.21880
 C41 C 0.13120 -0.03502 0.74007
 C42 C 0.12486 -0.10081 0.77952
 C43 C 0.04900 -0.09790 0.80548
 C44 C -0.01387 -0.02909 0.78947
 C45 C 0.04077 -0.04735 0.70188
 C46 C -0.03496 -0.04407 0.72780
 C47 C 0.12464 0.04804 0.77425
 C48 C 0.04781 0.05163 0.79980
 H49 H 0.17381 -0.14817 0.78386
 H50 H -0.07624 -0.02676 0.81029
 H51 H 0.03717 -0.05764 0.65825
 H52 H 0.17398 0.09977 0.77513
 C53 C -0.03169 -0.33240 0.12142
 C54 C -0.08053 -0.26742 0.11111
 C55 C -0.08091 -0.19797 0.15363
 C56 C -0.09096 -0.12073 0.14088
 H57 H -0.11084 -0.26122 0.07012
 H58 H -0.06356 -0.20854 0.19563
 H59 H 0.00489 -0.33428 0.16156
 H60 H -0.10652 -0.11041 0.09872
 C61 C -0.07544 0.32416 0.07661
 C62 C -0.02878 0.29000 0.11706
 C63 C -0.06620 0.21338 0.13498
 C64 C -0.03329 0.18720 0.18193
 H65 H 0.03811 0.31631 0.13560
 H66 H -0.11965 0.17619 0.10825
 H67 H -0.14430 0.29903 0.06107
 H68 H 0.01568 0.22668 0.21032
 C69 C 0.33224 0.05099 0.60942
 C70 C 0.30723 -0.00431 0.64170
 C71 C 0.23622 0.01283 0.67720
 C72 C 0.21411 -0.04202 0.71051
 H73 H 0.33693 -0.06432 0.64049
 H74 H 0.19830 0.06822 0.67405
 H75 H 0.30393 0.11158 0.61154
 H76 H 0.25129 -0.09807 0.71221
 C77 C -0.28379 0.03664 0.59963
 C78 C -0.24788 -0.02145 0.62889
 C79 C -0.15547 -0.00827 0.65929
 C80 C -0.12890 -0.05358 0.69939
 H81 H -0.28564 -0.08028 0.62962
 H82 H -0.10820 0.03870 0.64851
 H83 H -0.24693 0.09663 0.60184
 H84 H -0.17776 -0.09594 0.71323
 C85 C 0.10927 -0.31613 0.92739
 C86 C 0.05074 -0.27228 0.89807
 C87 C 0.08281 -0.20722 0.86663
 C88 C 0.02308 -0.15939 0.84153
 H89 H -0.02248 -0.28531 0.89650
 H90 H 0.15532 -0.19945 0.86357
 H91 H 0.18240 -0.30150 0.93050
 H92 H -0.04849 -0.16549 0.84740
 C93 C 0.09810 0.32963 0.90064
 C94 C 0.03908 0.26829 0.87634
 C95 C 0.07194 0.19664 0.84467
 C96 C 0.01905 0.12657 0.83077
 H97 H -0.03241 0.26837 0.88271
 H98 H 0.14123 0.20091 0.83467
 H99 H 0.17047 0.32617 0.89707
 H100 H -0.04887 0.12322 0.84311
 C101 C -0.34900 -0.05003 0.38388
 C102 C -0.30895 0.00950 0.36002
 C103 C -0.25102 -0.01144 0.31741
 C104 C -0.20074 0.04747 0.29875
 H105 H -0.31802 0.07431 0.37238
 H106 H -0.24763 -0.07611 0.30240
 H107 H -0.33778 -0.11463 0.37230
 H108 H -0.20028 0.11128 0.31652
 C109 C 0.27856 -0.05203 0.38830
 C110 C 0.23575 0.00647 0.36286
 C111 C 0.15731 -0.01590 0.32063
 C112 C 0.10600 0.04260 0.30096
 H113 H 0.25816 0.07135 0.37347
 H114 H 0.14012 -0.08084 0.30670
 H115 H 0.25440 -0.11658 0.37825
 H116 H 0.12084 0.10683 0.31759
   
