data_POSCAR
  _audit_creation_date              2014-09-24
  _audit_creation_method            'ToBaCCo'
  _symmetry_space_group_name_H-M    'P1'
  _symmetry_Int_Tables_number       1
  _symmetry_cell_setting            triclinic
  loop_
  _symmetry_equiv_pos_as_xyz
 x,y,z
_cell_length_a 28.1765
_cell_length_b 27.7289
_cell_length_c 27.4149
_cell_angle_alpha 89.667600
_cell_angle_beta 90.028300
_cell_angle_gamma 89.925200
loop_
  _atom_site_label
  _atom_site_type_symbol
  _atom_site_fract_x
  _atom_site_fract_y
  _atom_site_fract_z
C1 C 0.16445 0.16255 0.22400
 C2 C 0.14560 0.20499 0.20343
 C3 C 0.16766 0.22811 0.16392
 C4 C 0.21008 0.20929 0.14524
 C5 C 0.22974 0.16645 0.16435
 C6 C 0.20699 0.14414 0.20442
 H7 H 0.11422 0.22135 0.21895
 H8 H 0.22516 0.22579 0.11306
 H9 H 0.22205 0.11167 0.22004
 C10 C -0.16077 0.83722 0.22393
 C11 C -0.20419 0.85644 0.20704
 C12 C -0.22760 0.83699 0.16656
 C13 C -0.20827 0.79667 0.14320
 C14 C -0.16540 0.77663 0.15962
 C15 C -0.14158 0.79707 0.19939
 H16 H -0.21940 0.88797 0.22423
 H17 H -0.22616 0.78129 0.11195
 H18 H -0.10896 0.78034 0.21181
 C19 C -0.16626 0.16358 -0.22808
 C20 C -0.21125 0.14816 -0.21195
 C21 C -0.23296 0.16900 -0.17071
 C22 C -0.21058 0.20873 -0.14867
 C23 C -0.16589 0.22447 -0.16422
 C24 C -0.14322 0.20070 -0.20257
 H25 H -0.22710 0.11705 -0.22906
 H26 H -0.22672 0.22695 -0.11831
 H27 H -0.10868 0.21333 -0.21443
 C28 C 0.16891 0.83512 -0.22648
 C29 C 0.15396 0.78992 -0.20831
 C30 C 0.17537 0.76941 -0.16700
 C31 C 0.21449 0.79179 -0.14558
 C32 C 0.23093 0.83593 -0.16384
 C33 C 0.20717 0.85804 -0.20304
 H34 H 0.12301 0.77233 -0.22343
 H35 H 0.23094 0.77574 -0.11362
 H36 H 0.22091 0.89172 -0.21667
 C37 C 0.16596 1.16640 0.77192
 C38 C 0.20792 1.14700 0.79270
 C39 C 0.22754 1.16637 0.83544
 C40 C 0.20579 1.20596 0.85771
 C41 C 0.16557 1.22688 0.83674
 C42 C 0.14620 1.20768 0.79409
 H43 H 0.22429 1.11506 0.77767
 H44 H 0.22053 1.22093 0.89086
 H45 H 0.11594 1.22614 0.77853
 C46 C 0.83358 0.83920 0.77593
 C47 C 0.79031 0.85696 0.79472
 C48 C 0.76674 0.83303 0.83272
 C49 C 0.78458 0.78933 0.85073
 C50 C 0.82931 0.77292 0.83586
 C51 C 0.85398 0.79860 0.79941
 H52 H 0.77362 0.88862 0.77923
 H53 H 0.76611 0.77111 0.88024
 H54 H 0.88899 0.78608 0.78945
 C55 C 0.16629 0.83421 1.22719
 C56 C 0.14683 0.79206 1.20711
 C57 C 0.16456 0.77277 1.16379
 C58 C 0.20346 0.79431 1.14070
 C59 C 0.22507 0.83492 1.16126
 C60 C 0.20616 0.85497 1.20400
 H61 H 0.11530 0.77598 1.22252
 H62 H 0.21721 0.77914 1.10720
 H63 H 0.22314 0.88651 1.21917
 C64 C 0.83933 1.16149 1.22074
 C65 C 0.79589 1.14375 1.20223
 C66 C 0.77218 1.16788 1.16425
 C67 C 0.79095 1.21068 1.14499
 C68 C 0.83569 1.22696 1.16000
 C69 C 0.86004 1.20148 1.19681
 H70 H 0.77945 1.11195 1.21780
 H71 H 0.77240 1.22902 1.11558
 H72 H 0.89496 1.21395 1.20726
 O73 O 0.43366 1.09262 1.08279
 O74 O 0.38189 1.04372 1.04137
 C75 C 0.39122 1.07822 1.07148
 O76 O 0.56760 1.08101 0.90859
 O77 O 0.61925 1.04061 0.95936
 C78 C 0.60996 1.06984 0.92343
 O79 O 0.43429 1.08685 0.91264
 O80 O 0.38197 1.04400 0.96013
 C81 C 0.39163 1.07566 0.92668
 O82 O 0.56736 1.08752 1.08812
 O83 O 0.61904 1.04232 1.04263
 C84 C 0.60997 1.07478 1.07518
 Zr85 Zr 0.50039 1.06395 1.06144
 O86 O 0.50584 1.14006 1.05981
 O87 O 0.49481 1.06469 1.13846
 Zr88 Zr 0.50094 1.06093 0.93796
 O89 O 0.50682 1.13708 0.93799
 O90 O 0.49625 1.06128 0.86094
 O91 O 0.45841 1.07222 0.99911
 O92 O 0.54184 1.07093 0.99963
 O93 O 0.56573 0.91770 1.09243
 O94 O 0.61855 0.96162 1.04636
 C95 C 0.60853 0.93020 1.08009
 O96 O 0.43398 0.91124 0.91967
 O97 O 0.38192 0.96079 0.95975
 C98 C 0.39146 0.92596 0.93002
 O99 O 0.56683 0.91372 0.91679
 O100 O 0.61889 0.95919 0.96150
 C101 C 0.60940 0.92638 0.92939
 O102 O 0.43177 0.91592 1.08806
 O103 O 0.38078 0.96041 1.04033
 C104 C 0.38947 0.92776 1.07308
 Zr105 Zr 0.49931 0.94204 1.06530
 O106 O 0.50334 0.86590 1.06932
 O107 O 0.49402 0.94590 1.14223
 Zr108 Zr 0.50037 0.93911 0.94181
 O109 O 0.50479 0.86291 0.94258
 O110 O 0.49578 0.93917 0.86469
 Zr111 Zr 0.42985 1.00199 1.00097
 Zr112 Zr 0.57077 1.00091 1.00217
 O113 O 0.54083 0.93142 1.00417
 O114 O 0.45761 0.93139 1.00340
 O115 O 0.54224 1.00284 1.07323
 O116 O 0.45957 1.00009 0.93061
 O117 O 0.45854 1.00348 1.07187
 O118 O 0.54313 0.99940 0.93071
 H119 H 0.56346 1.09907 0.99867
 H120 H 0.43837 0.99962 0.90177
 H121 H 0.56182 0.90274 1.00519
 H122 H 0.43673 1.00400 1.10021
 H123 H 0.51828 1.03625 0.84894
 H124 H 0.52503 0.95426 0.85179
 H125 H 0.48021 0.85091 0.96532
 H126 H 0.47819 0.85292 1.04795
 H127 H 0.52260 0.96276 1.15427
 H128 H 0.52210 1.04635 1.15173
 H129 H 0.48106 1.15224 1.03732
 H130 H 0.47784 1.15014 0.95344
 O131 O 0.08534 0.43348 -0.08717
 O132 O 0.04061 0.38074 -0.04181
 C133 C 0.07311 0.39020 -0.07388
 O134 O 0.08112 0.56962 0.08561
 O135 O 0.03807 0.62242 0.03830
 C136 C 0.06857 0.61289 0.07256
 O137 O 0.08836 0.43483 0.08106
 O138 O 0.04072 0.38174 0.03989
 C139 C 0.07473 0.39161 0.07003
 O140 O 0.08232 0.56836 -0.09194
 O141 O 0.03880 0.62187 -0.04659
 C142 C 0.07087 0.61183 -0.07919
 Zr143 Zr 0.05833 0.50125 -0.06480
 O144 O 0.13329 0.50608 -0.06650
 O145 O 0.05608 0.49633 -0.14181
 Zr146 Zr 0.05924 0.50178 0.05867
 O147 O 0.13410 0.50813 0.05958
 O148 O 0.05825 0.49601 0.13571
 O149 O 0.06841 0.45866 -0.00274
 O150 O 0.06738 0.54329 -0.00344
 O151 O -0.08864 0.56873 -0.08834
 O152 O -0.04236 0.62137 -0.04497
 C153 C -0.07593 0.61201 -0.07585
 O154 O -0.08902 0.43295 0.08031
 O155 O -0.04148 0.38038 0.03831
 C156 C -0.07563 0.38966 0.06842
 O157 O -0.08424 0.56898 0.08555
 O158 O -0.04149 0.62181 0.03826
 C159 C -0.07275 0.61231 0.07164
 O160 O -0.08866 0.43236 -0.08494
 O161 O -0.04049 0.38027 -0.04229
 C162 C -0.07443 0.38923 -0.07282
 Zr163 Zr -0.06150 0.50097 -0.06416
 O164 O -0.13641 0.50437 -0.06816
 O165 O -0.05757 0.49679 -0.14117
 Zr166 Zr -0.06054 0.50107 0.05958
 O167 O -0.13533 0.50620 0.06396
 O168 O -0.05676 0.49516 0.13655
 Zr169 Zr -0.00069 0.42974 -0.00196
 Zr170 Zr -0.00133 0.57306 -0.00342
 O171 O -0.06982 0.54247 -0.00242
 O172 O -0.07015 0.45826 -0.00193
 O173 O -0.00183 0.54449 -0.07448
 O174 O -0.00041 0.45939 0.06848
 O175 O -0.00143 0.45913 -0.07294
 O176 O -0.00088 0.54465 0.06815
 H177 H 0.09530 0.56497 -0.00341
 H178 H -0.00035 0.43720 0.09695
 H179 H -0.09844 0.56323 -0.00184
 H180 H -0.00145 0.43707 -0.10125
 H181 H 0.03957 0.52349 0.14828
 H182 H -0.04263 0.52533 0.14899
 H183 H -0.14846 0.48489 0.03853
 H184 H -0.14899 0.48167 -0.04344
 H185 H -0.04639 0.52843 -0.15343
 H186 H 0.03736 0.52408 -0.15408
 H187 H 0.14599 0.48017 -0.04524
 H188 H 0.14691 0.48370 0.03698
 O189 O 1.08433 -0.08700 0.57057
 O190 O 1.04149 -0.03933 0.62285
 C191 C 1.07230 -0.07286 0.61395
 O192 O 1.08462 0.08548 0.42970
 O193 O 1.03993 0.03991 0.37720
 C194 C 1.07149 0.07247 0.38630
 O195 O 1.08823 0.08478 0.56614
 O196 O 1.04274 0.04174 0.62063
 C197 C 1.07557 0.07292 0.60998
 O198 O 1.08243 -0.09078 0.43342
 O199 O 1.04121 -0.04327 0.37898
 C200 C 1.07151 -0.07691 0.38949
 Zr201 Zr 1.06027 -0.06231 0.50138
 O202 O 1.13532 -0.06096 0.49721
 O203 O 1.06104 -0.13846 0.50697
 Zr204 Zr 1.06198 0.05939 0.49878
 O205 O 1.13690 0.05372 0.49455
 O206 O 1.06796 0.13542 0.49745
 O207 O 1.07023 -0.00098 0.54389
 O208 O 1.06978 -0.00206 0.45764
 O209 O 0.91622 -0.08668 0.43202
 O210 O 0.96297 -0.04419 0.37832
 C211 C 0.93067 -0.07588 0.38829
 O212 O 0.91345 0.08310 0.56701
 O213 O 0.96007 0.04143 0.62143
 C214 C 0.92645 0.07165 0.61109
 O215 O 0.91905 0.08778 0.43002
 O216 O 0.96107 0.03998 0.37726
 C217 C 0.93071 0.07385 0.38655
 O218 O 0.91264 -0.08151 0.56933
 O219 O 0.95891 -0.03851 0.62286
 C220 C 0.92543 -0.06907 0.61298
 Zr221 Zr 0.94058 -0.06112 0.50066
 O222 O 0.86565 -0.06647 0.50071
 O223 O 0.94480 -0.13726 0.50643
 Zr224 Zr 0.94147 0.06093 0.49878
 O225 O 0.86652 0.06185 0.49367
 O226 O 0.94266 0.13714 0.50277
 Zr227 Zr 1.00079 0.00051 0.57251
 Zr228 Zr 1.00109 -0.00137 0.42744
 O229 O 0.93238 -0.00039 0.45730
 O230 O 0.93163 0.00051 0.54297
 O231 O 1.00048 -0.07157 0.45755
 O232 O 1.00162 0.06977 0.54091
 O233 O 1.00005 -0.06974 0.54370
 O234 O 1.00181 0.06934 0.45538
 H235 H 1.09762 -0.00254 0.43558
 H236 H 1.00130 0.09804 0.56283
 H237 H 0.90486 -0.00010 0.43483
 H238 H 0.99927 -0.09779 0.56623
 H239 H 1.03764 0.14880 0.50933
 H240 H 0.96249 0.14900 0.47543
 H241 H 0.85432 0.03847 0.51802
 H242 H 0.85288 -0.03804 0.48321
 H243 H 0.95692 -0.14979 0.47509
 H244 H 1.03862 -0.15092 0.48232
 H245 H 1.14729 -0.04543 0.52718
 H246 H 1.14838 0.03844 0.52506
 C247 C 1.16476 0.10704 0.29453
 C248 C 1.14048 0.13800 0.26220
 C249 C 1.09058 0.14172 0.26872
 C250 C 1.06790 0.11972 0.30880
 C251 C 1.09455 0.09481 0.34415
 C252 C 1.14243 0.08644 0.33462
 C253 C 1.18468 0.09246 0.36665
 C254 C 1.20939 0.11516 0.32293
 H255 H 1.06856 0.16117 0.24293
 H256 H 1.02988 0.12375 0.31313
 H257 H 1.20027 0.05722 0.37775
 H258 H 1.17834 0.11820 0.39691
 H259 H 1.23942 0.09305 0.30918
 H260 H 1.21747 0.15409 0.32780
 C261 C 0.83750 -0.11459 0.29872
 C262 C 0.86285 -0.14113 0.26377
 C263 C 0.91293 -0.14252 0.26917
 C264 C 0.93526 -0.12097 0.30962
 C265 C 0.90808 -0.09960 0.34675
 C266 C 0.85942 -0.09521 0.33933
 C267 C 0.81892 -0.10689 0.37214
 C268 C 0.79457 -0.12829 0.32776
 H269 H 0.93523 -0.15918 0.24192
 H270 H 0.97358 -0.12236 0.31265
 H271 H 0.80112 -0.07388 0.38593
 H272 H 0.82824 -0.13419 0.40045
 H273 H 0.76255 -0.10769 0.31629
 H274 H 0.78962 -0.16801 0.33031
 C275 C 0.90535 0.13606 0.73032
 C276 C 0.85595 0.14220 0.73135
 C277 C 0.83006 0.12723 0.68989
 C278 C 0.85319 0.10553 0.65008
 C279 C 0.90218 0.09556 0.65193
 C280 C 0.92779 0.11221 0.69223
 C281 C 0.95949 0.08514 0.72666
 C282 C 0.93557 0.11184 0.76793
 H283 H 0.79210 0.13300 0.68771
 H284 H 0.83242 0.09465 0.61878
 H285 H 0.99736 0.09464 0.72314
 H286 H 0.95277 0.04579 0.72740
 H287 H 0.95946 0.13774 0.78661
 H288 H 0.91493 0.08787 0.79269
 C289 C 1.13441 -0.09280 0.73373
 C290 C 1.14419 -0.14263 0.73451
 C291 C 1.12332 -0.17024 0.69670
 C292 C 1.09965 -0.14774 0.65734
 C293 C 1.09377 -0.09737 0.65610
 C294 C 1.10798 -0.07140 0.69691
 C295 C 1.13392 -0.02495 0.70027
 C296 C 1.16394 -0.04835 0.73989
 H297 H 1.12818 -0.20894 0.69535
 H298 H 1.08682 -0.16957 0.62748
 H299 H 1.11073 0.00438 0.71413
 H300 H 1.15407 -0.01649 0.66645
 H301 H 1.15905 -0.03153 0.77627
 H302 H 1.20135 -0.05290 0.72788
 C303 C 0.30481 1.17090 1.11753
 C304 C 0.26957 1.14460 1.14208
 C305 C 0.27605 1.09358 1.14194
 C306 C 0.31541 1.07201 1.11841
 C307 C 0.35073 1.10053 1.09598
 C308 C 0.34392 1.15003 1.09737
 C309 C 0.36558 1.19643 1.08208
 C310 C 0.32191 1.22056 1.10531
 H311 H 0.24985 1.06972 1.15778
 H312 H 0.31837 1.03305 1.11812
 H313 H 0.36706 1.20036 1.04173
 H314 H 0.39931 1.20380 1.10168
 H315 H 0.29915 1.23925 1.07801
 H316 H 0.33047 1.24182 1.13841
 C317 C 0.27456 0.90875 0.86565
 C318 C 0.27326 0.85902 0.85750
 C319 C 0.31459 0.83215 0.86806
 C320 C 0.35374 0.85409 0.89085
 C321 C 0.35176 0.90298 0.90450
 C322 C 0.31261 0.93009 0.88900
 C323 C 0.28141 0.96449 0.91577
 C324 C 0.23954 0.94097 0.89014
 H325 H 0.31621 0.79406 0.85972
 H326 H 0.38453 0.83235 0.89978
 H327 H 0.28737 1.00244 0.90404
 H328 H 0.28161 0.95834 0.95588
 H329 H 0.22144 0.96547 0.86380
 H330 H 0.21557 0.92103 0.91536
 C331 C 0.72671 0.91043 1.14213
 C332 C 0.72859 0.86037 1.14835
 C333 C 0.68699 0.83397 1.13834
 C334 C 0.64682 0.85710 1.11801
 C335 C 0.64814 0.90668 1.10604
 C336 C 0.68783 0.93289 1.12103
 C337 C 0.71811 0.96853 1.09462
 C338 C 0.76085 0.94376 1.11768
 H339 H 0.68601 0.79544 1.14492
 H340 H 0.61592 0.83572 1.10901
 H341 H 0.71258 1.00556 1.10854
 H342 H 0.71652 0.96465 1.05430
 H343 H 0.77992 0.96688 1.14424
 H344 H 0.78390 0.92507 1.09080
 C345 C 0.71874 1.14594 0.90333
 C346 C 0.72452 1.14581 0.85230
 C347 C 0.69270 1.11703 0.82505
 C348 C 0.65585 1.09126 0.84806
 C349 C 0.65021 1.09300 0.89891
 C350 C 0.68256 1.11982 0.92596
 C351 C 0.67130 1.15934 0.96066
 C352 C 0.71022 1.18803 0.93634
 H353 H 0.69517 1.11532 0.78574
 H354 H 0.63132 1.07060 0.82608
 H355 H 0.67965 1.14982 0.99892
 H356 H 0.63531 1.17489 0.95487
 H357 H 0.74090 1.19485 0.96089
 H358 H 0.69656 1.22037 0.91664
 C359 C 0.16882 0.30943 0.12165
 C360 C 0.14401 0.26985 0.14022
 C361 C 0.09391 0.27175 0.13508
 C362 C 0.07139 0.31177 0.11268
 C363 C 0.09807 0.35087 0.09433
 C364 C 0.14694 0.34808 0.10057
 C365 C 0.19209 0.37398 0.09070
 C366 C 0.21707 0.33048 0.11488
 H367 H 0.07198 0.24228 0.14795
 H368 H 0.03314 0.31273 0.11078
 H369 H 0.19503 0.40785 0.11197
 H370 H 0.19940 0.37751 0.05100
 H371 H 0.23436 0.33922 0.15018
 H372 H 0.23916 0.30947 0.08901
 C373 C -0.16540 0.30932 -0.13259
 C374 C -0.14240 0.26547 -0.14000
 C375 C -0.09473 0.26280 -0.12379
 C376 C -0.07262 0.30296 -0.10134
 C377 C -0.09721 0.34727 -0.09562
 C378 C -0.14378 0.34823 -0.11238
 C379 C -0.18644 0.37953 -0.11754
 C380 C -0.21086 0.33556 -0.14085
 H381 H -0.07472 0.22972 -0.12808
 H382 H -0.03616 0.29946 -0.08923
 H383 H -0.18052 0.40988 -0.14348
 H384 H -0.20161 0.38970 -0.08162
 H385 H -0.21878 0.34051 -0.18029
 H386 H -0.24034 0.32062 -0.11849
 C387 C 0.11505 0.73756 -0.10981
 C388 C 0.15248 0.72884 -0.14182
 C389 C 0.16655 0.68086 -0.14938
 C390 C 0.13998 0.64264 -0.12904
 C391 C 0.09875 0.65182 -0.10102
 C392 C 0.08854 0.69999 -0.09026
 C393 C 0.04353 0.72757 -0.09713
 C394 C 0.07277 0.76909 -0.11678
 H395 H 0.19667 0.67294 -0.17252
 H396 H 0.15108 0.60601 -0.13643
 H397 H 0.02593 0.73618 -0.06205
 H398 H 0.02073 0.71115 -0.12565
 H399 H 0.07339 0.80075 -0.09210
 H400 H 0.06511 0.77755 -0.15566
 C401 C -0.12120 0.73819 0.09120
 C402 C -0.14564 0.73392 0.13531
 C403 C -0.15093 0.68754 0.15573
 C404 C -0.12804 0.64750 0.13464
 C405 C -0.09874 0.65335 0.09323
 C406 C -0.09805 0.69894 0.07086
 C407 C -0.05713 0.72915 0.05453
 C408 C -0.08259 0.77215 0.07674
 H409 H -0.17123 0.68262 0.18892
 H410 H -0.13160 0.61253 0.15203
 H411 H -0.05448 0.73123 0.01412
 H412 H -0.02357 0.71963 0.07368
 H413 H -0.09473 0.79890 0.04907
 H414 H -0.06373 0.78764 0.10865
 C415 C 1.16684 0.10838 0.70375
 C416 C 1.14338 0.14369 0.73164
 C417 C 1.09518 0.15291 0.71907
 C418 C 1.07376 0.13061 0.67880
 C419 C 1.09891 0.09749 0.65047
 C420 C 1.14523 0.08618 0.66415
 C421 C 1.18936 0.08708 0.63432
 C422 C 1.21327 0.11131 0.67732
 H423 H 1.07294 0.17678 0.74002
 H424 H 1.03772 0.14016 0.66897
 H425 H 1.18626 0.11083 0.60164
 H426 H 1.20320 0.05026 0.62710
 H427 H 1.22426 0.14910 0.66962
 H428 H 1.24104 0.08832 0.69452
 C429 C 0.84117 -0.09314 0.71706
 C430 C 0.85513 -0.13906 0.73431
 C431 C 0.88937 -0.16368 0.70554
 C432 C 0.91175 -0.14091 0.66572
 C433 C 0.90103 -0.09293 0.65353
 C434 C 0.86337 -0.07089 0.67767
 C435 C 0.86039 -0.02219 0.69989
 C436 C 0.83648 -0.04613 0.74332
 H437 H 0.89913 -0.20070 0.71284
 H438 H 0.93848 -0.16039 0.64532
 H439 H 0.83645 0.00228 0.67909
 H440 H 0.89582 -0.00727 0.70849
 H441 H 0.79890 -0.03469 0.74760
 H442 H 0.85807 -0.04490 0.77726
 C443 C 1.11865 -0.16955 0.30291
 C444 C 1.14461 -0.14363 0.26781
 C445 C 1.14569 -0.09273 0.27478
 C446 C 1.12121 -0.07081 0.31406
 C447 C 1.09663 -0.09904 0.34879
 C448 C 1.09737 -0.14842 0.34188
 C449 C 1.08073 -0.19442 0.36371
 C450 C 1.10504 -0.21899 0.32017
 H451 H 1.16324 -0.06922 0.24886
 H452 H 1.12185 -0.03190 0.31745
 H453 H 1.04139 -0.19741 0.36330
 H454 H 1.09806 -0.20224 0.39931
 H455 H 1.07924 -0.23711 0.29574
 H456 H 1.13642 -0.24104 0.33072
 C457 C 0.84906 0.09415 0.27933
 C458 C 0.86071 0.14084 0.26298
 C459 C 0.89237 0.16735 0.29312
 C460 C 0.91452 0.14588 0.33395
 C461 C 0.90651 0.09719 0.34537
 C462 C 0.87153 0.07297 0.31916
 C463 C 0.87228 0.02440 0.29640
 C464 C 0.84822 0.04734 0.25239
 H465 H 0.90005 0.20493 0.28608
 H466 H 0.93915 0.16685 0.35551
 H467 H 0.84889 -0.00117 0.31625
 H468 H 0.90880 0.01114 0.28886
 H469 H 0.81156 0.03375 0.24657
 H470 H 0.87093 0.04796 0.21923
 C471 C 0.10600 0.26234 -0.10710
 C472 C 0.14265 0.26873 -0.14075
 C473 C 0.15248 0.31579 -0.15719
 C474 C 0.12965 0.35566 -0.13587
 C475 C 0.09630 0.34898 -0.09798
 C476 C 0.08355 0.30154 -0.08604
 C477 C 0.08057 0.27713 -0.03744
 C478 C 0.10525 0.23414 -0.06057
 H479 H 0.17866 0.32173 -0.18551
 H480 H 0.13905 0.39156 -0.14819
 H481 H 0.04328 0.26951 -0.02666
 H482 H 0.10236 0.29526 -0.00912
 H483 H 0.08215 0.20179 -0.06308
 H484 H 0.14138 0.22729 -0.04571
 C485 C -0.09591 0.26577 0.12271
 C486 C -0.14328 0.26754 0.13817
 C487 C -0.16835 0.31124 0.13163
 C488 C -0.14618 0.35162 0.11010
 C489 C -0.09962 0.34819 0.09165
 C490 C -0.07519 0.30466 0.09842
 C491 C -0.05395 0.27268 0.06041
 C492 C -0.07507 0.23035 0.08782
 H493 H -0.20466 0.31454 0.14417
 H494 H -0.16603 0.38489 0.10630
 H495 H -0.01464 0.27238 0.06047
 H496 H -0.07010 0.27840 0.02378
 H497 H -0.04791 0.20701 0.10558
 H498 H -0.10243 0.21063 0.06655
 C499 C -0.17354 0.69123 -0.12918
 C500 C -0.14909 0.73420 -0.13955
 C501 C -0.10254 0.73849 -0.12126
 C502 C -0.08050 0.69940 -0.09773
 C503 C -0.10212 0.65381 -0.09596
 C504 C -0.15003 0.65149 -0.10930
 C505 C -0.17582 0.61671 -0.14085
 C506 C -0.20170 0.65995 -0.16265
 H507 H -0.08344 0.77226 -0.12437
 H508 H -0.04596 0.70433 -0.08217
 H509 H -0.19939 0.59251 -0.11937
 H510 H -0.15205 0.59826 -0.16722
 H511 H -0.24018 0.66057 -0.15375
 H512 H -0.19314 0.66643 -0.20174
 C513 C 0.10744 0.73945 0.10381
 C514 C 0.13973 0.73185 0.14169
 C515 C 0.14234 0.68543 0.16253
 C516 C 0.11814 0.64656 0.14096
 C517 C 0.09022 0.65376 0.09869
 C518 C 0.08329 0.70131 0.08282
 C519 C 0.08721 0.72273 0.03302
 C520 C 0.11368 0.76456 0.05599
 H521 H 0.16447 0.67895 0.19422
 H522 H 0.12263 0.61082 0.15638
 H523 H 0.05196 0.73321 0.01832
 H524 H 0.10970 0.70060 0.00848
 H525 H 0.09368 0.79910 0.05421
 H526 H 0.15143 0.76682 0.04442
 C527 C 0.27069 1.12946 0.90616
 C528 C 0.27006 1.14432 0.85764
 C529 C 0.31248 1.13686 0.83097
 C530 C 0.35292 1.11549 0.85350
 C531 C 0.35136 1.09996 0.90283
 C532 C 0.30884 1.10790 0.92729
 C533 C 0.28422 1.10072 0.97483
 C534 C 0.24079 1.12485 0.95070
 H535 H 0.31448 1.14777 0.79303
 H536 H 0.38480 1.11024 0.83213
 H537 H 0.30023 1.12266 1.00431
 H538 H 0.27879 1.06196 0.98372
 H539 H 0.23163 1.16046 0.96659
 H540 H 0.21045 1.09986 0.94531
 C541 C 0.30865 0.86603 1.16314
 C542 C 0.26686 0.85701 1.13765
 C543 C 0.26663 0.87083 1.08783
 C544 C 0.30665 0.89387 1.06649
 C545 C 0.34836 0.90247 1.09410
 C546 C 0.34746 0.88670 1.14231
 C547 C 0.37495 0.88679 1.18867
 C548 C 0.33111 0.86295 1.21224
 H549 H 0.23529 0.86494 1.06578
 H550 H 0.30496 0.90477 1.02853
 H551 H 0.38180 0.92393 1.20198
 H552 H 0.40650 0.86275 1.18707
 H553 H 0.31307 0.88631 1.23935
 H554 H 0.33723 0.82504 1.22404
 C555 C 0.68438 1.15356 1.15843
 C556 C 0.73039 1.14610 1.14091
 C557 C 0.73587 1.11922 1.09797
 C558 C 0.69670 1.09624 1.07650
 C559 C 0.65091 1.10022 1.09703
 C560 C 0.64547 1.13124 1.13686
 C561 C 0.62247 1.12203 1.18505
 C562 C 0.66499 1.14638 1.20856
 H563 H 0.77074 1.11454 1.08205
 H564 H 0.70257 1.07451 1.04434
 H565 H 0.61978 1.08292 1.19387
 H566 H 0.58896 1.14278 1.18925
 H567 H 0.68694 1.12139 1.23106
 H568 H 0.65591 1.18115 1.22627
 C569 C 0.73301 0.89721 0.88559
 C570 C 0.72622 0.85587 0.85738
 C571 C 0.68146 0.83348 0.85920
 C572 C 0.64323 0.85599 0.88322
 C573 C 0.64954 0.90064 0.90693
 C574 C 0.69569 0.91881 0.91004
 C575 C 0.71407 0.96837 0.90032
 C576 C 0.75503 0.94476 0.87330
 H577 H 0.67563 0.79969 0.84051
 H578 H 0.60866 0.83903 0.88220
 H579 H 0.72523 0.98681 0.93434
 H580 H 0.69022 0.98978 0.87617
 H581 H 0.78982 0.94974 0.89170
 H582 H 0.75480 0.95294 0.83358
   
