data_POSCAR
  _audit_creation_date              2014-09-24
  _audit_creation_method            'ToBaCCo'
  _symmetry_space_group_name_H-M    'P1'
  _symmetry_Int_Tables_number       1
  _symmetry_cell_setting            triclinic
  loop_
  _symmetry_equiv_pos_as_xyz
 x,y,z
_cell_length_a 30.2630
_cell_length_b 29.9878
_cell_length_c 30.1728
_cell_angle_alpha 89.965900
_cell_angle_beta 89.852500
_cell_angle_gamma 89.919400
loop_
  _atom_site_label
  _atom_site_type_symbol
  _atom_site_fract_x
  _atom_site_fract_y
  _atom_site_fract_z
N1 N 0.10397 0.11461 0.22187
 N2 N 0.13920 0.08882 0.22074
 C3 C 0.14256 0.06680 0.25956
 C4 C 0.10735 0.07882 0.28627
 C5 C 0.08382 0.10978 0.26162
 H6 H 0.17104 0.04748 0.26962
 H7 H 0.05690 0.13051 0.27329
 Cu8 Cu 0.18163 0.09220 0.17185
 Cu9 Cu 0.09100 0.15694 0.17362
 Cu10 Cu 0.18144 0.18201 0.10686
 N11 N 0.22462 0.09834 0.12359
 N12 N 0.22321 0.13316 0.09712
 C13 C 0.25995 0.13377 0.07186
 C14 C 0.28604 0.09760 0.08300
 C15 C 0.26274 0.07603 0.11628
 H16 H 0.27016 0.16200 0.05199
 H17 H 0.27551 0.05008 0.13765
 N18 N 0.12833 0.22022 0.11015
 N19 N 0.09269 0.20941 0.13327
 C20 C 0.06147 0.24105 0.12695
 C21 C 0.07904 0.27341 0.09946
 C22 C 0.12127 0.25940 0.08934
 H23 H 0.02912 0.24125 0.14226
 H24 H 0.14465 0.27605 0.06783
 H25 H 0.13437 0.13667 0.12290
 H26 H 0.15637 0.16945 0.17034
 N27 N -0.11900 0.86220 0.23238
 N28 N -0.13925 0.90003 0.22326
 C29 C -0.12683 0.93144 0.25252
 C30 C -0.09824 0.91174 0.28203
 C31 C -0.09398 0.86777 0.26890
 H32 H -0.13920 0.96526 0.25344
 H33 H -0.07400 0.84211 0.28418
 Cu34 Cu -0.18388 0.90328 0.17743
 Cu35 Cu -0.12672 0.80909 0.19523
 Cu36 Cu -0.18226 0.82797 0.09657
 N37 N -0.23504 0.89485 0.13940
 N38 N -0.23424 0.86556 0.10692
 C39 C -0.27488 0.86276 0.08893
 C40 C -0.30208 0.89207 0.11135
 C41 C -0.27620 0.91153 0.14352
 H42 H -0.28469 0.83842 0.06440
 H43 H -0.28716 0.93304 0.17017
 N44 N -0.14200 0.77737 0.10511
 N45 N -0.12372 0.76778 0.14375
 C46 C -0.10117 0.72904 0.13987
 C47 C -0.10538 0.71463 0.09657
 C48 C -0.13091 0.74593 0.07531
 H49 H -0.08200 0.71355 0.16589
 H50 H -0.14155 0.74537 0.04113
 H51 H -0.13379 0.85015 0.14232
 H52 H -0.18536 0.82322 0.16305
 N53 N -0.13609 0.15144 -0.25391
 N54 N -0.16456 0.11886 -0.24766
 C55 C -0.15418 0.08478 -0.27505
 C56 C -0.11813 0.09769 -0.30002
 C57 C -0.10748 0.14006 -0.28617
 H58 H -0.17230 0.05386 -0.27778
 H59 H -0.08087 0.16085 -0.29825
 Cu60 Cu -0.21453 0.12637 -0.20707
 Cu61 Cu -0.13757 0.20611 -0.21965
 Cu62 Cu -0.21251 0.20957 -0.13282
 N63 N -0.26192 0.13413 -0.16348
 N64 N -0.26171 0.16765 -0.13536
 C65 C -0.29262 0.16046 -0.10398
 C66 C -0.31328 0.12036 -0.11265
 C67 C -0.29289 0.10453 -0.15061
 H68 H -0.29481 0.17897 -0.07330
 H69 H -0.29560 0.07102 -0.16356
 N70 N -0.16496 0.25403 -0.14023
 N71 N -0.13519 0.25098 -0.17223
 C72 C -0.10350 0.28175 -0.16570
 C73 C -0.11479 0.30596 -0.12874
 C74 C -0.15381 0.28802 -0.11316
 H75 H -0.07422 0.28578 -0.18592
 H76 H -0.17124 0.29740 -0.08325
 H77 H -0.16355 0.17329 -0.16602
 H78 H -0.20376 0.20687 -0.19902
 N79 N 0.12575 0.85775 -0.22608
 N80 N 0.13973 0.89808 -0.21599
 C81 C 0.12675 0.92704 -0.24743
 C82 C 0.10443 0.90342 -0.27930
 C83 C 0.10424 0.85945 -0.26527
 H84 H 0.13434 0.96226 -0.24790
 H85 H 0.08916 0.83126 -0.28165
 Cu86 Cu 0.17764 0.90870 -0.16543
 Cu87 Cu 0.13614 0.80692 -0.18623
 Cu88 Cu 0.18662 0.83194 -0.08618
 N89 N 0.22591 0.91077 -0.12297
 N90 N 0.23009 0.88019 -0.09203
 C91 C 0.26970 0.88522 -0.07220
 C92 C 0.29113 0.92114 -0.09157
 C93 C 0.26254 0.93621 -0.12391
 H94 H 0.28393 0.86142 -0.04932
 H95 H 0.27019 0.95991 -0.14988
 N96 N 0.15292 0.77651 -0.09566
 N97 N 0.13589 0.76553 -0.13451
 C98 C 0.11549 0.72561 -0.13057
 C99 C 0.11978 0.71156 -0.08710
 C100 C 0.14317 0.74456 -0.06577
 H101 H 0.09690 0.70937 -0.15651
 H102 H 0.15199 0.74554 -0.03109
 H103 H 0.13617 0.84778 -0.13206
 H104 H 0.19164 0.82976 -0.15271
 N105 N 0.15506 1.11621 0.76435
 N106 N 0.12131 1.14287 0.77208
 C107 C 0.08864 1.13352 0.74327
 C108 C 0.10346 1.09999 0.71592
 C109 C 0.14565 1.08969 0.72965
 H110 H 0.05743 1.15098 0.74102
 H111 H 0.16766 1.06503 0.71551
 Cu112 Cu 0.12510 1.18975 0.81634
 Cu113 Cu 0.20826 1.11738 0.80035
 Cu114 Cu 0.21469 1.19864 0.88172
 N115 N 0.12988 1.23624 0.86087
 N116 N 0.16384 1.23788 0.88804
 C117 C 0.15811 1.27173 0.91680
 C118 C 0.11920 1.29272 0.90602
 C119 C 0.10189 1.26985 0.87050
 H120 H 0.18109 1.28124 0.94249
 H121 H 0.07129 1.27691 0.85345
 N122 N 0.26270 1.15584 0.86986
 N123 N 0.25935 1.12379 0.84002
 C124 C 0.29461 1.09661 0.84345
 C125 C 0.32189 1.11339 0.87573
 C126 C 0.30085 1.15063 0.89229
 H127 H 0.29915 1.06578 0.82545
 H128 H 0.31071 1.16995 0.92083
 H129 H 0.17978 1.14570 0.85621
 H130 H 0.20548 1.18485 0.81546
 N131 N 0.84255 0.86639 0.74801
 N132 N 0.87853 0.84403 0.75836
 C133 C 0.91176 0.85641 0.73145
 C134 C 0.89517 0.88730 0.70233
 C135 C 0.85117 0.89301 0.71306
 H136 H 0.94487 0.84277 0.73204
 H137 H 0.82759 0.91497 0.69728
 Cu138 Cu 0.87831 0.79798 0.80314
 Cu139 Cu 0.78807 0.85935 0.78168
 Cu140 Cu 0.80296 0.80772 0.88370
 N141 N 0.88509 0.76766 0.85902
 N142 N 0.85695 0.77381 0.89171
 C143 C 0.86888 0.74830 0.92639
 C144 C 0.90600 0.72481 0.91409
 C145 C 0.91526 0.73712 0.87106
 H146 H 0.84967 0.74385 0.95633
 H147 H 0.94045 0.72337 0.84953
 N148 N 0.75037 0.84287 0.86881
 N149 N 0.74364 0.86118 0.82951
 C150 C 0.70463 0.88300 0.83007
 C151 C 0.68680 0.87807 0.87181
 C152 C 0.71633 0.85287 0.89567
 H153 H 0.69151 0.90269 0.80308
 H154 H 0.71353 0.84340 0.93015
 H155 H 0.82763 0.85130 0.83612
 H156 H 0.79834 0.80041 0.81643
 N157 N 0.14710 0.88317 1.22890
 N158 N 0.13621 0.84284 1.24241
 C159 C 0.11804 0.84577 1.28323
 C160 C 0.11775 0.89039 1.29473
 C161 C 0.13591 0.91314 1.25989
 H162 H 0.10470 0.81815 1.30203
 H163 H 0.14048 0.94883 1.25718
 Cu164 Cu 0.14308 0.79125 1.20358
 Cu165 Cu 0.17468 0.89557 1.17255
 Cu166 Cu 0.20099 0.80507 1.10968
 N167 N 0.13790 0.74988 1.15369
 N168 N 0.15907 0.75759 1.11630
 C169 C 0.14752 0.72737 1.08582
 C170 C 0.11853 0.69860 1.10551
 C171 C 0.11262 0.71319 1.14860
 H172 H 0.15944 0.72646 1.05201
 H173 H 0.09052 0.69962 1.17340
 N174 N 0.22655 0.86314 1.09889
 N175 N 0.21500 0.89879 1.12169
 C176 C 0.24078 0.93320 1.10935
 C177 C 0.26980 0.91773 1.07768
 C178 C 0.26021 0.87329 1.07177
 H179 H 0.24186 0.96521 1.12582
 H180 H 0.27851 0.84947 1.05201
 H181 H 0.15151 0.84032 1.14090
 H182 H 0.20383 0.83551 1.17418
 N183 N 0.85958 1.11007 1.23834
 N184 N 0.88782 1.14326 1.24125
 C185 C 0.91858 1.13357 1.27184
 C186 C 0.90925 1.09169 1.28798
 C187 C 0.87191 1.07743 1.26633
 H188 H 0.94469 1.15569 1.28243
 H189 H 0.85311 1.04761 1.27332
 Cu190 Cu 0.88111 1.19670 1.20630
 Cu191 Cu 0.80429 1.11664 1.20635
 Cu192 Cu 0.79325 1.21020 1.13987
 N193 N 0.88220 1.23749 1.15674
 N194 N 0.84695 1.24459 1.13227
 C195 C 0.85520 1.27801 1.10369
 C196 C 0.89826 1.29121 1.11033
 C197 C 0.91475 1.26509 1.14381
 H198 H 0.83181 1.29159 1.08021
 H199 H 0.94692 1.26757 1.15913
 N200 N 0.74878 1.16248 1.14257
 N201 N 0.75323 1.12631 1.16728
 C202 C 0.71820 1.09948 1.16070
 C203 C 0.69081 1.12024 1.13066
 C204 C 0.71098 1.15965 1.11937
 H205 H 0.71354 1.06702 1.17561
 H206 H 0.69979 1.18360 1.09504
 H207 H 0.83157 1.15664 1.15757
 H208 H 0.80073 1.18493 1.20311
 O209 O 0.44192 1.08202 1.08297
 O210 O 0.39378 1.04767 1.03537
 C211 C 0.40293 1.07640 1.06638
 O212 O 0.58676 1.07067 0.94599
 O213 O 0.62236 1.02163 0.99225
 C214 C 0.62238 1.05295 0.96285
 O215 O 0.46304 1.09087 0.93341
 O216 O 0.40503 1.05034 0.96135
 C217 C 0.42112 1.08218 0.93731
 O218 O 0.56185 1.06251 1.10426
 O219 O 0.61065 1.01769 1.06685
 C220 C 0.60115 1.04669 1.09702
 Zr221 Zr 0.50184 1.04840 1.07079
 O222 O 0.51326 1.11710 1.08148
 O223 O 0.48590 1.04025 1.13872
 Zr224 Zr 0.51867 1.05644 0.96009
 O225 O 0.53171 1.12551 0.96639
 O226 O 0.52388 1.06145 0.89026
 O227 O 0.47255 1.06604 1.01065
 O228 O 0.54867 1.05568 1.02142
 O229 O 0.54317 0.90632 1.09327
 O230 O 0.60189 0.94269 1.06181
 C231 C 0.58516 0.91336 1.08860
 O232 O 0.44699 0.92916 0.91865
 O233 O 0.39646 0.97249 0.95557
 C234 C 0.40711 0.94302 0.92572
 O235 O 0.56964 0.92189 0.93072
 O236 O 0.61423 0.94865 0.98595
 C237 C 0.60773 0.92630 0.94995
 O238 O 0.42236 0.91732 1.06872
 O239 O 0.38533 0.97040 1.02846
 C240 C 0.38649 0.93560 1.05382
 Zr241 Zr 0.48905 0.93727 1.06132
 O242 O 0.48622 0.86685 1.05794
 O243 O 0.47279 0.93504 1.12958
 Zr244 Zr 0.50651 0.94505 0.95093
 O245 O 0.50479 0.87447 0.94815
 O246 O 0.51144 0.94739 0.88106
 Zr247 Zr 0.43902 1.00503 1.00144
 Zr248 Zr 0.56852 0.98831 1.02025
 O249 O 0.53460 0.92798 1.01083
 O250 O 0.45817 0.93737 0.99967
 O251 O 0.53301 0.98724 1.08037
 O252 O 0.47589 1.00598 0.94212
 O253 O 0.45616 0.99728 1.06858
 O254 O 0.55252 0.99645 0.95265
 H255 H 0.57089 1.07945 1.02601
 H256 H 0.46027 1.00999 0.91357
 H257 H 0.55168 0.89977 1.01122
 H258 H 0.43224 0.99824 1.09106
 H259 H 0.54985 1.04371 0.88089
 H260 H 0.53364 0.97040 0.87373
 H261 H 0.47490 0.86484 0.95740
 H262 H 0.46743 0.85909 1.03233
 H263 H 0.49784 0.94810 1.14608
 H264 H 0.51084 1.02448 1.15299
 H265 H 0.50188 1.13306 1.05521
 H266 H 0.50567 1.13937 0.98071
 O267 O 0.07216 0.43556 -0.08291
 O268 O 0.02829 0.38755 -0.04307
 C269 C 0.05857 0.39589 -0.07233
 O270 O 0.07648 0.55063 0.08636
 O271 O 0.04281 0.60472 0.04458
 C272 C 0.06878 0.59191 0.07624
 O273 O 0.07492 0.42608 0.07094
 O274 O 0.02719 0.38302 0.03053
 C275 C 0.05940 0.38772 0.05840
 O276 O 0.07656 0.56143 -0.08073
 O277 O 0.04283 0.61034 -0.03299
 C278 C 0.06913 0.60145 -0.06586
 Zr279 Zr 0.05355 0.49867 -0.05700
 O280 O 0.12348 0.49863 -0.05457
 O281 O 0.05599 0.49758 -0.12702
 Zr282 Zr 0.05415 0.49193 0.05466
 O283 O 0.12407 0.49347 0.05157
 O284 O 0.05728 0.48136 0.12387
 O285 O 0.05949 0.45495 -0.00355
 O286 O 0.06471 0.53362 0.00100
 O287 O -0.07291 0.57232 -0.07776
 O288 O -0.03071 0.61574 -0.03182
 C289 C -0.05903 0.61059 -0.06351
 O290 O -0.08762 0.43916 0.07275
 O291 O -0.04731 0.38940 0.03135
 C292 C -0.07768 0.39905 0.06008
 O293 O -0.07338 0.56322 0.08537
 O294 O -0.03104 0.61118 0.04415
 C295 C -0.05993 0.60294 0.07485
 O296 O -0.08994 0.44805 -0.07701
 O297 O -0.04858 0.39362 -0.04345
 C298 C -0.08032 0.40665 -0.06924
 Zr299 Zr -0.05789 0.50697 -0.05570
 O300 O -0.12680 0.51896 -0.05654
 O301 O -0.05774 0.50402 -0.12584
 Zr302 Zr -0.05751 0.50070 0.05615
 O303 O -0.12663 0.51175 0.05754
 O304 O -0.05724 0.49091 0.12567
 Zr305 Zr -0.00687 0.43360 -0.00407
 Zr306 Zr 0.00283 0.56566 0.00322
 O307 O -0.06297 0.54298 0.00238
 O308 O -0.06928 0.46498 -0.00181
 O309 O 0.00062 0.54280 -0.06285
 O310 O -0.00448 0.45746 0.06148
 O311 O -0.00516 0.46464 -0.06662
 O312 O 0.00121 0.53521 0.06625
 H313 H 0.09162 0.55239 0.00197
 H314 H -0.00574 0.43595 0.08638
 H315 H -0.08736 0.56502 0.00361
 H316 H -0.00720 0.44588 -0.09356
 H317 H 0.03464 0.50078 0.13754
 H318 H -0.03881 0.51466 0.13882
 H319 H -0.14047 0.48900 0.03838
 H320 H -0.14056 0.49739 -0.03593
 H321 H -0.04030 0.52961 -0.13687
 H322 H 0.03394 0.51939 -0.13771
 H323 H 0.13299 0.46923 -0.04315
 H324 H 0.13373 0.46740 0.03393
 O325 O 0.93749 0.08403 0.55807
 O326 O 0.96743 0.03609 0.60913
 C327 C 0.94279 0.06977 0.59832
 O328 O 0.92962 -0.07755 0.43276
 O329 O 0.97642 -0.03876 0.38698
 C330 C 0.94465 -0.06696 0.39385
 O331 O 0.91447 -0.06981 0.55623
 O332 O 0.95995 -0.03796 0.60796
 C333 C 0.92590 -0.06150 0.59678
 O334 O 0.95114 0.08721 0.43412
 O335 O 0.98508 0.03689 0.38789
 C336 C 0.96125 0.07206 0.39511
 Zr337 Zr 0.96153 0.05799 0.49719
 O338 O 0.89234 0.06216 0.48748
 O339 O 0.96373 0.12833 0.50004
 Zr340 Zr 0.94746 -0.05353 0.49639
 O341 O 0.87899 -0.04417 0.48560
 O342 O 0.93744 -0.12315 0.50221
 O343 O 0.94307 0.00352 0.53573
 O344 O 0.94923 0.00315 0.45767
 O345 O 1.09942 0.06608 0.44394
 O346 O 1.05811 0.02962 0.39169
 C347 C 1.08919 0.05719 0.40317
 O348 O 1.07390 -0.09313 0.56869
 O349 O 1.03603 -0.04509 0.61424
 C350 C 1.06256 -0.07847 0.60764
 O351 O 1.07636 -0.09905 0.44402
 O352 O 1.04922 -0.04909 0.39327
 C353 C 1.07096 -0.08485 0.40377
 O354 O 1.09661 0.05943 0.56831
 O355 O 1.04390 0.02895 0.61367
 C356 C 1.07969 0.05168 0.60703
 Zr357 Zr 1.07224 0.04334 0.50458
 O358 O 1.14165 0.03446 0.50338
 O359 O 1.08109 0.11310 0.51073
 Zr360 Zr 1.05813 -0.06811 0.50451
 O361 O 1.12801 -0.07232 0.50347
 O362 O 1.05506 -0.13832 0.50912
 Zr363 Zr 1.00505 -0.00471 0.56654
 Zr364 Zr 1.01456 -0.00514 0.43486
 O365 O 1.07594 -0.01361 0.46627
 O366 O 1.07082 -0.01328 0.54473
 O367 O 1.02079 0.05942 0.46175
 O368 O 0.99894 -0.06879 0.53876
 O369 O 1.01532 0.05911 0.53924
 O370 O 1.00449 -0.06967 0.46121
 H371 H 0.92518 0.00622 0.43565
 H372 H 0.99416 -0.09474 0.55850
 H373 H 1.10255 -0.01696 0.44734
 H374 H 1.01750 0.08517 0.55930
 H375 H 0.95473 -0.13784 0.47847
 H376 H 1.02550 -0.14706 0.49847
 H377 H 1.13887 -0.06391 0.53321
 H378 H 1.14906 0.01261 0.52677
 H379 H 1.06777 0.12736 0.48435
 H380 H 0.99525 0.13669 0.49920
 H381 H 0.87768 0.05357 0.51556
 H382 H 0.86809 -0.02312 0.50839
 N383 N 1.10909 0.07812 0.32969
 N384 N 1.11458 0.08017 0.37014
 N385 N 0.92101 -0.06720 0.31974
 N386 N 0.92459 -0.08774 0.35643
 N387 N 0.90258 0.07302 0.66516
 N388 N 0.92037 0.09333 0.63269
 N389 N 1.08592 -0.07781 0.68136
 N390 N 1.08127 -0.09981 0.64563
 N391 N 0.32923 1.09938 1.08166
 N392 N 0.36946 1.10527 1.08376
 N393 N 0.33409 0.92424 0.90470
 N394 N 0.37416 0.92439 0.89739
 N395 N 0.65479 0.88987 1.11245
 N396 N 0.61426 0.88652 1.11463
 N397 N 0.67308 1.09394 0.91897
 N398 N 0.66513 1.06823 0.94978
 N399 N 0.05757 0.31317 0.08416
 N400 N 0.07967 0.34842 0.07615
 N401 N -0.08862 0.33981 -0.10853
 N402 N -0.10655 0.37361 -0.09054
 N403 N 0.09947 0.67378 -0.06627
 N404 N 0.09126 0.63788 -0.08724
 N405 N -0.08617 0.67621 0.07621
 N406 N -0.07956 0.64002 0.09722
 N407 N 1.08076 0.08258 0.67842
 N408 N 1.10205 0.06964 0.64443
 N409 N 0.91916 -0.09283 0.66692
 N410 N 0.90030 -0.08097 0.63127
 N411 N 1.09873 -0.08891 0.33255
 N412 N 1.09108 -0.10928 0.36864
 N413 N 0.92821 0.07094 0.32577
 N414 N 0.94285 0.09406 0.35779
 N415 N 0.10113 0.33109 -0.07282
 N416 N 0.07810 0.35899 -0.09448
 N417 N -0.07963 0.32780 0.09031
 N418 N -0.10052 0.36317 0.08048
 N419 N -0.07751 0.68642 -0.06387
 N420 N -0.07637 0.64937 -0.08419
 N421 N 0.09668 0.66339 0.08320
 N422 N 0.09089 0.62548 0.10092
 N423 N 0.35664 1.08931 0.89661
 N424 N 0.39035 1.10845 0.91293
 N425 N 0.31019 0.93863 1.06587
 N426 N 0.34573 0.91606 1.06642
 N427 N 0.65245 1.10227 1.11016
 N428 N 0.63712 1.06448 1.12128
 N429 N 0.64838 0.89945 0.88894
 N430 N 0.64530 0.90576 0.93046
   
