data_POSCAR
  _audit_creation_date              2014-09-24
  _audit_creation_method            'ToBaCCo'
  _symmetry_space_group_name_H-M    'P1'
  _symmetry_Int_Tables_number       1
  _symmetry_cell_setting            triclinic
  loop_
  _symmetry_equiv_pos_as_xyz
 x,y,z
_cell_length_a 33.9454
_cell_length_b 33.5161
_cell_length_c 34.4708
_cell_angle_alpha 87.850200
_cell_angle_beta 87.394100
_cell_angle_gamma 90.763500
loop_
  _atom_site_label
  _atom_site_type_symbol
  _atom_site_fract_x
  _atom_site_fract_y
  _atom_site_fract_z
C1 C 0.75036 0.60709 0.98962
 C2 C 0.75304 0.36566 0.51083
 C3 C 0.24889 -0.11869 0.00624
 C4 C 0.24751 0.11736 0.49035
 C5 C 0.12217 0.50287 0.25515
 C6 C -0.13316 -0.00605 0.24342
 C7 C 0.36887 0.51826 0.74290
 C8 C 0.61097 1.01024 0.75644
 C9 C 0.01536 0.25002 -0.11276
 C10 C 0.50214 0.25633 0.11867
 C11 C 0.99678 0.76278 0.61545
 C12 C 0.51851 0.74158 0.37541
 C13 C 0.43723 -0.05037 0.29241
 H14 H 0.43724 -0.02251 0.30726
 C15 C 0.45725 -0.08311 0.30760
 H16 H 0.47222 -0.07982 0.33436
 C17 C 0.41450 -0.08890 0.24154
 H18 H 0.39681 -0.09147 0.21648
 C19 C 0.43470 -0.12226 0.25535
 H20 H 0.43313 -0.14969 0.23986
 N21 N 0.41591 -0.05392 0.26030
 C22 C 0.38825 0.06477 0.21417
 H23 H 0.35664 0.05998 0.21491
 C24 C 0.40432 0.10105 0.19983
 H25 H 0.38478 0.12360 0.18873
 C26 C 0.45169 0.04013 0.22684
 H27 H 0.46982 0.01624 0.23761
 C28 C 0.46914 0.07635 0.21287
 H29 H 0.50085 0.08005 0.21315
 Zn30 Zn 0.38322 -0.01066 0.24661
 N31 N 0.41184 0.03525 0.22732
 C32 C 0.36902 0.03699 0.30892
 N33 N 0.35444 0.00403 0.29243
 C34 C 0.32335 -0.01707 0.30969
 C35 C 0.30363 -0.00292 0.34307
 C36 C 0.35090 0.05157 0.34221
 C37 C 0.37141 -0.02897 0.17106
 C38 C 0.35164 -0.03819 0.13795
 C39 C 0.29010 -0.03719 0.17598
 C40 C 0.31110 -0.02741 0.20839
 N41 N 0.35114 -0.02446 0.20553
 H42 H 0.39513 0.05211 0.29647
 H43 H 0.31348 -0.04445 0.29737
 H44 H 0.27785 -0.01885 0.35555
 H45 H 0.36326 0.07798 0.35450
 H46 H 0.40319 -0.02567 0.16946
 H47 H 0.36846 -0.04287 0.11109
 H48 H 0.25830 -0.04036 0.17871
 H49 H 0.29534 -0.02224 0.23557
 C50 C 0.44527 0.10747 0.19914
 C51 C 0.45591 -0.11997 0.28931
 C52 C 0.31053 -0.04292 0.14029
 C53 C 0.31690 0.03256 0.35902
 C54 C 0.07382 1.03483 0.80655
 H55 H 0.07241 1.00583 0.82147
 C56 C 0.05624 1.06760 0.82386
 H57 H 0.04069 1.06342 0.85188
 C58 C 0.09764 1.07590 0.75286
 H59 H 0.11501 1.07937 0.72588
 C60 C 0.08029 1.10939 0.76900
 H61 H 0.08446 1.13828 0.75414
 N62 N 0.09471 1.03968 0.77207
 C63 C 0.11570 0.92436 0.72209
 H64 H 0.14738 0.92779 0.71807
 C65 C 0.09690 0.89118 0.70803
 H66 H 0.11443 0.86962 0.69257
 C67 C 0.05467 0.94999 0.74532
 H68 H 0.03850 0.97334 0.75950
 C69 C 0.03449 0.91695 0.73168
 H70 H 0.00272 0.91494 0.73581
 Zn71 Zn 0.12565 0.99670 0.75473
 N72 N 0.09460 0.95293 0.74025
 C73 C 0.15075 0.94188 0.81087
 N74 N 0.15682 0.97983 0.79633
 C75 C 0.18073 1.00586 0.81397
 C76 C 0.19976 0.99375 0.84764
 C77 C 0.16923 0.92858 0.84394
 C78 C 0.13322 1.01637 0.67761
 C79 C 0.15004 1.02845 0.64158
 C80 C 0.21344 1.03308 0.67041
 C81 C 0.19529 1.02014 0.70623
 N82 N 0.15563 1.01305 0.70917
 H83 H 0.13052 0.92196 0.79772
 H84 H 0.18421 1.03625 0.80248
 H85 H 0.21862 1.01463 0.86160
 H86 H 0.16325 0.89842 0.85529
 H87 H 0.10189 1.01001 0.68066
 H88 H 0.13133 1.03120 0.61702
 H89 H 0.24463 1.04043 0.66860
 H90 H 0.21261 1.01670 0.73167
 C91 C 0.05573 0.88706 0.71257
 C92 C 0.06022 1.10568 0.80548
 C93 C 0.19038 1.03820 0.63775
 C94 C 0.19409 0.95451 0.86282
 C95 C 0.58524 0.52699 0.30157
 H96 H 0.58078 0.49857 0.31716
 C97 C 0.56803 0.56121 0.31633
 H98 H 0.54933 0.55847 0.34261
 C99 C 0.61681 0.56531 0.24970
 H100 H 0.63695 0.56705 0.22448
 C101 C 0.60027 0.60034 0.26355
 H102 H 0.60783 0.62860 0.24865
 N103 N 0.60989 0.52970 0.26932
 C104 C 0.62829 0.40909 0.22846
 H105 H 0.65964 0.41176 0.22199
 C106 C 0.60780 0.37637 0.21531
 H107 H 0.62408 0.35410 0.19953
 C108 C 0.56888 0.43759 0.25199
 H109 H 0.55361 0.46211 0.26508
 C110 C 0.54705 0.40519 0.23913
 H111 H 0.51525 0.40487 0.24329
 Zn112 Zn 0.64081 0.48477 0.25593
 N113 N 0.60887 0.43904 0.24635
 C114 C 0.69518 0.43856 0.29794
 N115 N 0.67452 0.47304 0.29758
 C116 C 0.67404 0.49702 0.32870
 C117 C 0.69116 0.48456 0.36316
 C118 C 0.71257 0.42495 0.33175
 C119 C 0.64682 0.49531 0.17714
 C120 C 0.66252 0.50613 0.14034
 C121 C 0.72500 0.52017 0.16831
 C122 C 0.70812 0.50816 0.20494
 N123 N 0.66934 0.49710 0.20860
 H124 H 0.69650 0.42040 0.27281
 H125 H 0.65872 0.52502 0.32767
 H126 H 0.68814 0.50268 0.38846
 H127 H 0.72699 0.39631 0.33218
 H128 H 0.61610 0.48641 0.18086
 H129 H 0.64364 0.50527 0.11587
 H130 H 0.75516 0.53124 0.16586
 H131 H 0.72540 0.50928 0.23049
 C132 C 0.56654 0.37421 0.22002
 C133 C 0.57646 0.59873 0.29798
 C134 C 0.70158 0.52028 0.13568
 C135 C 0.70901 0.44718 0.36542
 C136 C 0.94986 0.46058 0.79273
 H137 H 0.94744 0.48971 0.80505
 C138 C 0.97154 0.43094 0.81123
 H139 H 0.98567 0.43726 0.83791
 C140 C 0.93139 0.41561 0.74507
 H141 H 0.91422 0.40901 0.72045
 C142 C 0.95342 0.38532 0.76221
 H143 H 0.95301 0.35574 0.75059
 N144 N 0.92948 0.45222 0.76087
 C145 C 0.89495 0.56635 0.70974
 H146 H 0.86362 0.55997 0.70983
 C147 C 0.90954 0.60345 0.69603
 H148 H 0.88929 0.62518 0.68469
 C149 C 0.95922 0.54506 0.72402
 H150 H 0.97824 0.52219 0.73527
 C151 C 0.97520 0.58199 0.71041
 H152 H 1.00667 0.58732 0.71123
 Zn153 Zn 0.89361 0.49142 0.74381
 N154 N 0.91966 0.53825 0.72368
 C155 C 0.87202 0.54079 0.80347
 N156 N 0.86198 0.50563 0.78791
 C157 C 0.83295 0.48163 0.80508
 C158 C 0.81113 0.49418 0.83790
 C159 C 0.85154 0.55411 0.83610
 C160 C 0.88466 0.46294 0.67045
 C161 C 0.86574 0.44893 0.63853
 C162 C 0.80300 0.45892 0.67249
 C163 C 0.82326 0.47217 0.70423
 N164 N 0.86344 0.47300 0.70294
 H165 H 0.89651 0.55852 0.79099
 H166 H 0.82647 0.45303 0.79313
 H167 H 0.78729 0.47551 0.85060
 H168 H 0.86053 0.58213 0.84790
 H169 H 0.91651 0.46518 0.66969
 H170 H 0.88311 0.43965 0.61340
 H171 H 0.77108 0.45725 0.67408
 H172 H 0.80686 0.48181 0.72968
 C173 C 0.95010 0.61184 0.69647
 C174 C 0.97273 0.39258 0.79636
 C175 C 0.82448 0.44645 0.63953
 C176 C 0.81997 0.53135 0.85327
 C177 C 0.30078 0.45166 -0.03880
 H178 H 0.31844 0.45103 -0.01345
 C179 C 0.31412 0.47311 -0.07253
 H180 H 0.34231 0.48871 -0.07316
 C181 C 0.24448 0.42906 -0.07030
 H182 H 0.21821 0.41060 -0.07010
 C183 C 0.25638 0.45069 -0.10438
 H184 H 0.23932 0.44840 -0.13003
 N185 N 0.26706 0.42927 -0.03859
 C186 C 0.22633 0.39800 0.08035
 H187 H 0.22580 0.36591 0.07785
 C188 C 0.21379 0.41463 0.11508
 H189 H 0.20273 0.39500 0.13889
 C190 C 0.24002 0.46221 0.05131
 H191 H 0.25030 0.48045 0.02625
 C192 C 0.22774 0.48022 0.08574
 H193 H 0.22872 0.51244 0.08691
 Zn194 Zn 0.25517 0.39387 0.00497
 N195 N 0.23904 0.42175 0.04939
 C196 C 0.32042 0.37671 0.04937
 N197 N 0.30203 0.36539 0.01712
 C198 C 0.31795 0.33692 -0.00583
 C199 C 0.35223 0.31703 0.00482
 C200 C 0.35507 0.35849 0.06038
 C201 C 0.17654 0.37908 -0.00891
 C202 C 0.14330 0.35874 -0.02081
 C203 C 0.18200 0.29900 -0.02465
 C204 C 0.21455 0.32051 -0.01244
 N205 N 0.21164 0.36023 -0.00621
 H206 H 0.30856 0.40037 0.06657
 H207 H 0.30405 0.32948 -0.03227
 H208 H 0.36412 0.29371 -0.01300
 H209 H 0.36897 0.36767 0.08635
 H210 H 0.17482 0.41058 -0.00333
 H211 H 0.11632 0.37498 -0.02470
 H212 H 0.18513 0.26769 -0.03065
 H213 H 0.24218 0.30557 -0.00896
 C214 C 0.21428 0.45627 0.11821
 C215 C 0.29220 0.47194 -0.10606
 C216 C 0.14601 0.31838 -0.02988
 C217 C 0.37105 0.32796 0.03834
 C218 C 0.78389 0.05284 1.03498
 H219 H 0.79734 0.04863 1.00640
 C220 C 0.79736 0.03111 1.06695
 H221 H 0.82074 0.00981 1.06267
 C222 C 0.74010 0.08850 1.07595
 H223 H 0.71914 0.11217 1.07967
 C224 C 0.75237 0.06707 1.10867
 H225 H 0.74066 0.07445 1.13722
 N226 N 0.75692 0.08206 1.04015
 C227 C 0.72078 0.11840 0.92422
 H228 H 0.72193 0.15025 0.92739
 C229 C 0.70489 0.10336 0.89120
 H230 H 0.69504 0.12400 0.86885
 C231 C 0.72920 0.05300 0.95067
 H232 H 0.73739 0.03346 0.97448
 C233 C 0.71332 0.03654 0.91784
 H234 H 0.70952 0.00449 0.91666
 Zn235 Zn 0.74811 0.11934 0.99849
 N236 N 0.73240 0.09340 0.95333
 C237 C 0.79557 0.18082 0.96000
 N238 N 0.79573 0.14978 0.98656
 C239 C 0.82986 0.13892 1.00318
 C240 C 0.86580 0.15721 0.99097
 C241 C 0.83064 0.20054 0.94766
 C242 C 0.67008 0.13368 1.01903
 C243 C 0.63649 0.15496 1.02948
 C244 C 0.67604 0.21550 1.02615
 C245 C 0.70916 0.19283 1.01644
 N246 N 0.70558 0.15264 1.01311
 H247 H 0.76830 0.19035 0.94802
 H248 H 0.82981 0.11519 1.02512
 H249 H 0.89266 0.14624 1.00302
 H250 H 0.82947 0.22506 0.92642
 H251 H 0.66806 0.10170 1.01614
 H252 H 0.60910 0.13858 1.03563
 H253 H 0.67960 0.24746 1.02817
 H254 H 0.73763 0.20742 1.01175
 C255 C 0.70015 0.06202 0.88804
 C256 C 0.78256 0.03924 1.10446
 C257 C 0.63897 0.19656 1.03322
 C258 C 0.86672 0.18779 0.96198
 C259 C 0.29161 0.58299 0.53284
 H260 H 0.30684 0.58071 0.50477
 C261 C 0.30684 0.56432 0.56575
 H262 H 0.33359 0.54725 0.56263
 C263 C 0.23959 0.60987 0.57134
 H264 H 0.21425 0.62887 0.57382
 C265 C 0.25364 0.59142 0.60496
 H266 H 0.23885 0.59641 0.63282
 N267 N 0.25890 0.60581 0.53621
 C268 C 0.20869 0.62595 0.42299
 H269 H 0.20436 0.65769 0.42547
 C270 C 0.19608 0.60699 0.39047
 H271 H 0.18123 0.62430 0.36852
 C272 C 0.23272 0.56512 0.44927
 H273 H 0.24715 0.54907 0.47227
 C274 C 0.22040 0.54479 0.41700
 H275 H 0.22556 0.51308 0.41539
 Zn276 Zn 0.24428 0.63694 0.49188
 N277 N 0.22709 0.60513 0.45134
 C278 C 0.30165 0.66325 0.43520
 N279 N 0.28928 0.66749 0.47287
 C280 C 0.31116 0.68882 0.49728
 C281 C 0.34802 0.70509 0.48436
 C282 C 0.33781 0.67907 0.42118
 C283 C 0.16709 0.64859 0.51512
 C284 C 0.13279 0.66862 0.52535
 C285 C 0.16838 0.73124 0.51429
 C286 C 0.20234 0.70981 0.50443
 N287 N 0.20108 0.66921 0.50559
 H288 H 0.28450 0.64595 0.41614
 H289 H 0.30099 0.69137 0.52727
 H290 H 0.36612 0.72020 0.50450
 H291 H 0.34745 0.67425 0.39136
 H292 H 0.16692 0.61630 0.51529
 H293 H 0.10668 0.65121 0.53446
 H294 H 0.16984 0.76354 0.51343
 H295 H 0.22959 0.72553 0.49595
 C296 C 0.20219 0.56596 0.38685
 C297 C 0.28830 0.56918 0.60255
 C298 C 0.13299 0.71054 0.52526
 C299 C 0.36218 0.69900 0.44616
 C300 C 0.78797 0.95242 0.46341
 H301 H 0.80429 0.95458 0.48950
 C302 C 0.80285 0.97087 0.42868
 H303 H 0.83060 0.98726 0.42814
 C304 C 0.73464 0.92444 0.43099
 H305 H 0.70891 0.90509 0.43157
 C306 C 0.74806 0.94301 0.39584
 H307 H 0.73280 0.93752 0.36959
 N308 N 0.75560 0.92800 0.46348
 C309 C 0.70512 0.89768 0.57921
 H310 H 0.69995 0.86622 0.57533
 C311 C 0.68904 0.91531 0.61209
 H312 H 0.67182 0.89719 0.63352
 C313 C 0.73220 0.95984 0.55528
 H314 H 0.74858 0.97715 0.53276
 C315 C 0.71700 0.97871 0.58826
 H316 H 0.72147 1.01053 0.59087
 Zn317 Zn 0.74371 0.89239 0.50680
 N318 N 0.72583 0.91999 0.55132
 C319 C 0.78869 0.84003 0.55224
 N320 N 0.78954 0.86289 0.51877
 C321 C 0.82262 0.86532 0.49481
 C322 C 0.85712 0.84620 0.50531
 C323 C 0.82237 0.82019 0.56368
 C324 C 0.66505 0.86633 0.49881
 C325 C 0.63523 0.84247 0.48477
 C326 C 0.68515 0.79876 0.45890
 C327 C 0.71402 0.82318 0.47388
 N328 N 0.70356 0.85646 0.49299
 H329 H 0.76210 0.83778 0.57060
 H330 H 0.82252 0.88218 0.46753
 H331 H 0.88330 0.84900 0.48621
 H332 H 0.82136 0.80331 0.59113
 H333 H 0.65751 0.89354 0.51312
 H334 H 0.60482 0.85152 0.48844
 H335 H 0.69396 0.77297 0.44280
 H336 H 0.74487 0.81639 0.46903
 C337 C 0.69456 0.95632 0.61671
 C338 C 0.78345 0.96498 0.39426
 C339 C 0.64522 0.80868 0.46382
 C340 C 0.85739 0.82371 0.54044
 C341 C -0.03997 0.28413 0.42874
 H342 H -0.01232 0.30057 0.42634
 C343 C -0.07155 0.29913 0.45066
 H344 H -0.06763 0.32655 0.46579
 C345 C -0.08016 0.23102 0.40873
 H346 H -0.08410 0.20552 0.39106
 C347 C -0.11246 0.24482 0.43060
 H348 H -0.14080 0.22975 0.42956
 N349 N -0.04502 0.25128 0.40740
 C350 C 0.06367 0.19485 0.37365
 H351 H 0.05364 0.18410 0.34657
 C352 C 0.09861 0.18051 0.38790
 H353 H 0.11491 0.15825 0.37209
 C354 C 0.05512 0.23721 0.42684
 H355 H 0.03806 0.25915 0.44202
 C356 C 0.09040 0.22394 0.44198
 H357 H 0.10001 0.23532 0.46904
 Zn358 Zn -0.00465 0.23845 0.37017
 N359 N 0.04223 0.22211 0.39347
 C360 C 0.04306 0.28466 0.31751
 N361 N 0.00780 0.28405 0.33782
 C362 C -0.01532 0.31690 0.33873
 C363 C -0.00188 0.35298 0.32090
 C364 C 0.05759 0.31999 0.29926
 C365 C -0.02725 0.15993 0.36089
 C366 C -0.04072 0.12665 0.34220
 C367 C -0.04244 0.16710 0.28273
 C368 C -0.02893 0.19978 0.30269
 N369 N -0.02217 0.19564 0.34117
 H370 H 0.06090 0.25820 0.31718
 H371 H -0.04361 0.31561 0.35443
 H372 H -0.02012 0.37914 0.32285
 H373 H 0.08675 0.32029 0.28514
 H374 H -0.02140 0.15759 0.39148
 H375 H -0.04591 0.09892 0.35888
 H376 H -0.04804 0.17082 0.25215
 H377 H -0.02425 0.22846 0.28763
 C378 C 0.11207 0.19478 0.42263
 C379 C -0.10864 0.28012 0.45063
 C380 C -0.04884 0.13002 0.30268
 C381 C 0.03555 0.35507 0.30179
 C382 C 1.03066 0.79258 0.06134
 H383 H 1.00202 0.80598 0.05887
 C384 C 1.06381 0.81044 0.04195
 H385 H 1.06047 0.83747 0.02428
 C386 C 1.07038 0.74266 0.08947
 H387 H 1.07336 0.71737 0.10934
 C388 C 1.10414 0.75919 0.07021
 H389 H 1.13257 0.74624 0.07543
 N390 N 1.03458 0.75973 0.08514
 C391 C 0.91868 0.70494 0.11081
 H392 H 0.92036 0.70334 0.14209
 C393 C 0.88553 0.68992 0.09375
 H394 H 0.86208 0.67597 0.11206
 C395 C 0.94805 0.72436 0.04911
 H396 H 0.97254 0.73787 0.03203
 C397 C 0.91534 0.70944 0.03072
 H398 H 0.91483 0.71157 -0.00067
 Zn399 Zn 0.99032 0.74187 0.11710
 N400 N 0.94888 0.72201 0.08851
 C401 C 0.93482 0.79927 0.13687
 N402 N 0.97131 0.78589 0.14489
 C403 C 0.99426 0.80522 0.16981
 C404 C 0.98009 0.83895 0.18850
 C405 C 0.91955 0.83242 0.15491
 C406 C 1.01592 0.66577 0.13126
 C407 C 1.02814 0.63211 0.15191
 C408 C 1.01425 0.66590 0.21160
 C409 C 1.00286 0.69941 0.18957
 N410 N 1.00470 0.69889 0.15010
 H411 H 0.91755 0.78487 0.11578
 H412 H 1.02359 0.79458 0.17498
 H413 H 0.99838 0.85395 0.20854
 H414 H 0.89055 0.84268 0.14771
 H415 H 1.01640 0.66603 0.09984
 H416 H 1.03907 0.60718 0.13575
 H417 H 1.01264 0.66686 0.24297
 H418 H 0.99268 0.72571 0.20397
 C419 C 0.88351 0.69207 0.05323
 C420 C 1.10125 0.79413 0.04698
 C421 C 1.02776 0.63177 0.19271
 C422 C 0.94206 0.85257 0.18129
 C423 C 0.53090 0.30409 0.57611
 H424 H 0.50592 0.32378 0.57592
 C425 C 0.56757 0.31759 0.56063
 H426 H 0.57050 0.34756 0.54786
 C427 C 0.55806 0.24191 0.59506
 H428 H 0.55443 0.21288 0.60962
 C429 C 0.59523 0.25408 0.57954
 H430 H 0.62000 0.23429 0.58221
 N431 N 0.52711 0.26729 0.59389
 C432 C 0.40541 0.22639 0.61506
 H433 H 0.40406 0.22825 0.64636
 C434 C 0.37316 0.21155 0.59640
 H435 H 0.34723 0.20140 0.61362
 C436 C 0.44199 0.23580 0.55505
 H437 H 0.46905 0.24511 0.53931
 C438 C 0.41032 0.22084 0.53512
 H439 H 0.41314 0.21876 0.50384
 Zn440 Zn 0.48057 0.25547 0.62436
 N441 N 0.43896 0.23798 0.59435
 C442 C 0.42982 0.31909 0.63774
 N443 N 0.46466 0.30343 0.64843
 C444 C 0.48853 0.32370 0.67190
 C445 C 0.47643 0.35994 0.68732
 C446 C 0.41679 0.35494 0.65221
 C447 C 0.48087 0.17530 0.64981
 C448 C 0.49485 0.14169 0.66955
 C449 C 0.52939 0.18534 0.71105
 C450 C 0.51471 0.21821 0.69051
 N451 N 0.49150 0.21272 0.65997
 H452 H 0.41217 0.30445 0.61716
 H453 H 0.51722 0.31228 0.67819
 H454 H 0.49520 0.37526 0.70672
 H455 H 0.38894 0.36662 0.64312
 H456 H 0.46376 0.17121 0.62458
 H457 H 0.48791 0.11235 0.65940
 H458 H 0.54896 0.19027 0.73442
 H459 H 0.52365 0.24788 0.69774
 C460 C 0.37548 0.20821 0.55597
 C461 C 0.60051 0.29286 0.56332
 C462 C 0.52051 0.14649 0.69976
 C463 C 0.43972 0.37552 0.67795
 C464 C 0.46295 0.79475 0.95352
 H465 H 0.49111 0.81025 0.94987
 C466 C 0.43186 0.81202 0.97450
 H467 H 0.43633 0.84073 0.98716
 C468 C 0.42145 0.74086 0.93772
 H469 H 0.41680 0.71422 0.92182
 C470 C 0.38973 0.75678 0.95892
 H471 H 0.36104 0.74223 0.95897
 N472 N 0.45684 0.76061 0.93442
 C473 C 0.56101 0.70014 0.89255
 H474 H 0.55055 0.69476 0.86404
 C475 C 0.59599 0.68311 0.90365
 H476 H 0.61191 0.66399 0.88392
 C477 C 0.55376 0.73282 0.95229
 H478 H 0.53722 0.75255 0.97080
 C479 C 0.58922 0.71669 0.96443
 H480 H 0.59964 0.72339 0.99272
 Zn481 Zn 0.49533 0.74698 0.89585
 N482 N 0.54037 0.72399 0.91695
 C483 C 0.55104 0.80264 0.86414
 N484 N 0.51169 0.79441 0.86759
 C485 C 0.48498 0.82066 0.85365
 C486 C 0.49779 0.85680 0.83512
 C487 C 0.56500 0.83799 0.84577
 C488 C 0.46835 0.67130 0.87916
 C489 C 0.45559 0.64035 0.85673
 C490 C 0.45529 0.68682 0.80140
 C491 C 0.46839 0.71694 0.82493
 N492 N 0.47432 0.70872 0.86313
 H493 H 0.57191 0.78197 0.87587
 H494 H 0.45379 0.81371 0.85732
 H495 H 0.47640 0.87738 0.82386
 H496 H 0.59649 0.84393 0.84360
 H497 H 0.47392 0.66549 0.90949
 H498 H 0.45034 0.61098 0.87027
 H499 H 0.45057 0.69373 0.77104
 H500 H 0.47409 0.74672 0.81264
 C501 C 0.61039 0.69124 0.93995
 C502 C 0.39435 0.79370 0.97603
 C503 C 0.44883 0.64790 0.81732
 C504 C 0.53836 0.86553 0.83079
 C505 C 0.52375 -0.18424 0.34897
 C506 C 0.50651 -0.22292 0.34801
 C507 C 0.47361 -0.22718 0.32468
 C508 C 0.45791 -0.19432 0.30471
 C509 C 0.47484 -0.15596 0.30684
 C510 C 0.50871 -0.15181 0.32822
 H511 H 0.54806 -0.17761 0.36681
 H512 H 0.45887 -0.25592 0.32335
 H513 H 0.43142 -0.19885 0.28903
 H514 H 0.52326 -0.12304 0.32992
 C515 C 0.97862 0.31571 0.87776
 C516 C 1.00626 0.28832 0.86284
 C517 C 1.02754 0.29963 0.82789
 C518 C 1.01711 0.33370 0.80594
 C519 C 0.98737 0.35877 0.82002
 C520 C 0.96918 0.35011 0.85659
 H521 H 0.96350 0.31029 0.90581
 H522 H 1.05155 0.28164 0.81701
 H523 H 1.03220 0.34054 0.77808
 H524 H 0.94656 0.36938 0.86828
 C525 C 0.04404 1.18038 0.88397
 C526 C 0.02752 1.21315 0.86386
 C527 C 0.01803 1.20800 0.82484
 C528 C 0.02843 1.17317 0.80584
 C529 C 0.04692 1.14178 0.82574
 C530 C 0.05405 1.14560 0.86516
 H531 H 0.04961 1.18190 0.91457
 H532 H 0.00188 1.23029 0.80894
 H533 H 0.02145 1.17047 0.77570
 H534 H 0.06814 1.12194 0.88141
 C535 C 0.55048 0.67318 0.37467
 C536 C 0.53540 0.70571 0.35295
 C537 C 0.53680 0.70345 0.31205
 C538 C 0.55008 0.66890 0.29410
 C539 C 0.56289 0.63594 0.31636
 C540 C 0.56366 0.63894 0.35678
 H541 H 0.55076 0.67384 0.40605
 H542 H 0.52756 0.72790 0.29352
 H543 H 0.54970 0.66774 0.26277
 H544 H 0.57463 0.61473 0.37476
 C545 C 0.49443 0.32213 0.15713
 C546 C 0.51373 0.28570 0.15040
 C547 C 0.54466 0.27555 0.17487
 C548 C 0.56022 0.30336 0.19941
 C549 C 0.54460 0.34187 0.20127
 C550 C 0.51022 0.35016 0.18148
 H551 H 0.46771 0.33003 0.14310
 H552 H 0.55875 0.24686 0.17284
 H553 H 0.58565 0.29526 0.21570
 H554 H 0.49657 0.37908 0.18313
 C555 C 0.03940 0.78638 0.66968
 C556 C 0.00745 0.79391 0.64573
 C557 C -0.01375 0.82940 0.65169
 C558 C 0.00072 0.85897 0.67504
 C559 C 0.03568 0.85319 0.69455
 C560 C 0.05354 0.81568 0.69337
 H561 H 0.05514 0.75856 0.66805
 H562 H -0.04102 0.83541 0.63786
 H563 H -0.01451 0.88711 0.67620
 H564 H 0.07952 0.80950 0.70954
 C565 C 0.95624 0.72200 0.66787
 C566 C 0.98794 0.72346 0.63986
 C567 C 1.01144 0.68899 0.63698
 C568 C 1.00003 0.65318 0.65652
 C569 C 0.96569 0.65099 0.68064
 C570 C 0.94484 0.68616 0.68740
 H571 H 0.93889 0.74835 0.67296
 H572 H 1.03855 0.68888 0.61939
 H573 H 1.01735 0.62682 0.65148
 H574 H 0.91907 0.68575 0.70713
 C575 C 0.45611 0.21713 0.16779
 C576 C 0.48951 0.21719 0.14188
 C577 C 0.51155 0.18162 0.14049
 C578 C 0.49780 0.14644 0.15980
 C579 C 0.46246 0.14584 0.18250
 C580 C 0.44255 0.18198 0.18740
 H581 H 0.43964 0.24425 0.17171
 H582 H 0.53953 0.18024 0.12447
 H583 H 0.51440 0.11941 0.15592
 H584 H 0.41606 0.18303 0.20603
 C585 C 0.36200 0.47643 -0.19352
 C586 C 0.34541 0.50520 -0.21891
 C587 C 0.31197 0.52567 -0.20459
 C588 C 0.29390 0.51491 -0.16805
 C589 C 0.31045 0.48533 -0.14412
 C590 C 0.34474 0.46660 -0.15711
 H591 H 0.38916 0.46161 -0.20136
 H592 H 0.30004 0.55023 -0.22135
 H593 H 0.26764 0.53020 -0.15810
 H594 H 0.35817 0.44391 -0.13901
 C595 C 0.81099 1.00973 0.29384
 C596 C 0.84239 0.98500 0.28188
 C597 C 0.85567 0.95653 0.30950
 C598 C 0.83664 0.95090 0.34591
 C599 C 0.80410 0.97384 0.35638
 C600 C 0.79124 1.00337 0.33024
 H601 H 0.80180 1.03414 0.27507
 H602 H 0.88154 0.93888 0.30356
 H603 H 0.84726 0.92830 0.36601
 H604 H 0.76646 1.02184 0.33825
 C605 C 0.80178 -0.00311 1.20558
 C606 C 0.84271 0.00433 1.20748
 C607 C 0.86342 0.01898 1.17331
 C608 C 0.84387 0.02883 1.13978
 C609 C 0.80290 0.02408 1.13898
 C610 C 0.78197 0.00769 1.17200
 H611 H 0.78488 -0.01735 1.22967
 H612 H 0.89506 0.02363 1.17289
 H613 H 0.86075 0.04152 1.11476
 H614 H 0.75035 0.00307 1.17170
 C615 C 0.36636 0.55026 0.67534
 C616 C 0.34504 0.53230 0.70774
 C617 C 0.30451 0.52417 0.70392
 C618 C 0.28579 0.53618 0.66993
 C619 C 0.30741 0.55503 0.63841
 C620 C 0.34791 0.56164 0.64155
 H621 H 0.39783 0.55560 0.67628
 H622 H 0.28731 0.50778 0.72650
 H623 H 0.25457 0.53001 0.66791
 H624 H 0.36540 0.57628 0.61796
 C625 C 0.14952 0.49307 0.32471
 C626 C 0.14787 0.51523 0.28905
 C627 C 0.17195 0.54990 0.28421
 C628 C 0.19112 0.56532 0.31545
 C629 C 0.18797 0.54587 0.35228
 C630 C 0.16862 0.50861 0.35609
 H631 H 0.13558 0.46407 0.32927
 H632 H 0.17374 0.56659 0.25664
 H633 H 0.20739 0.59326 0.31108
 H634 H 0.16671 0.49220 0.38378
 C635 C 0.62132 0.05327 0.81540
 C636 C 0.63564 0.02351 0.79060
 C637 C 0.66947 0.00266 0.80189
 C638 C 0.69061 0.01453 0.83375
 C639 C 0.67768 0.04673 0.85569
 C640 C 0.64231 0.06512 0.84672
 H641 H 0.59345 0.06763 0.81101
 H642 H 0.67974 -0.02264 0.78585
 H643 H 0.71727 -0.00098 0.84086
 H644 H 0.63054 0.08866 0.86436
 C645 C 0.67505 1.00966 0.71086
 C646 C 0.63464 1.00041 0.71860
 C647 C 0.61391 0.98236 0.68909
 C648 C 0.63342 0.96933 0.65572
 C649 C 0.67412 0.97526 0.64986
 C650 C 0.69467 0.99683 0.67687
 H651 H 0.69171 1.02640 0.73087
 H652 H 0.58248 0.97653 0.69288
 H653 H 0.61678 0.95370 0.63474
 H654 H 0.72604 1.00255 0.67230
 C655 C 0.15167 0.51930 0.18488
 C656 C 0.15189 0.49665 0.22034
 C657 C 0.18050 0.46667 0.22348
 C658 C 0.20270 0.45511 0.19078
 C659 C 0.19777 0.47398 0.15426
 C660 C 0.17367 0.50757 0.15214
 H661 H 0.13358 0.54532 0.18141
 H662 H 0.18337 0.45004 0.25073
 H663 H 0.22245 0.43018 0.19377
 H664 H 0.16997 0.52356 0.12471
 C665 C -0.20569 0.29997 0.50520
 C666 C -0.21276 0.34017 0.49352
 C667 C -0.18293 0.35996 0.46972
 C668 C -0.14963 0.34033 0.45613
 C669 C -0.14400 0.30020 0.46643
 C670 C -0.17232 0.28000 0.49097
 H671 H -0.22425 0.28440 0.52726
 H672 H -0.18442 0.39136 0.46210
 H673 H -0.12809 0.35671 0.43737
 H674 H -0.16787 0.24922 0.50025
 C675 C 0.29431 0.82104 1.02063
 C676 C 0.28707 0.85711 0.99979
 C677 C 0.31859 0.87418 0.97625
 C678 C 0.35372 0.85410 0.97016
 C679 C 0.35910 0.81648 0.98785
 C680 C 0.32938 0.80020 1.01360
 H681 H 0.27273 0.80860 1.04194
 H682 H 0.31603 0.90321 0.96184
 H683 H 0.37630 0.86749 0.95037
 H684 H 0.33336 0.77149 1.02825
 C685 C 1.20510 0.81666 0.00529
 C686 C 1.21029 0.85686 0.01509
 C687 C 1.17692 0.87696 0.03011
 C688 C 1.14134 0.85684 0.03903
 C689 C 1.13753 0.81603 0.03254
 C690 C 1.16948 0.79622 0.01494
 H691 H 1.22829 0.80082 -0.00981
 H692 H 1.17874 0.90842 0.03598
 H693 H 1.11719 0.87299 0.05238
 H694 H 1.16680 0.76492 0.00861
 C695 C 0.70381 0.30425 0.51684
 C696 C 0.71594 0.34241 0.52882
 C697 C 0.68855 0.36290 0.55272
 C698 C 0.65187 0.34638 0.56433
 C699 C 0.64049 0.30881 0.55218
 C700 C 0.66704 0.28749 0.52894
 H701 H 0.72093 0.28825 0.49552
 H702 H 0.69421 0.39277 0.56158
 H703 H 0.63197 0.36347 0.58248
 H704 H 0.65853 0.25871 0.51844
 C705 C 0.32132 0.13747 0.49385
 C706 C 0.28114 0.14449 0.50401
 C707 C 0.27294 0.17356 0.53173
 C708 C 0.30330 0.19552 0.54740
 C709 C 0.34290 0.18852 0.53644
 C710 C 0.35147 0.15955 0.50929
 H711 H 0.33029 0.11378 0.47513
 H712 H 0.24285 0.17883 0.54179
 H713 H 0.29584 0.21750 0.56865
 H714 H 0.38175 0.15242 0.50141
 C715 C 0.77929 0.65745 0.03534
 C716 C 0.78507 0.63306 0.00309
 C717 C 0.82425 0.62945 -0.01239
 C718 C 0.85557 0.64999 0.00285
 C719 C 0.84935 0.67400 0.03477
 C720 C 0.81084 0.67783 0.05073
 H721 H 0.75019 0.66012 0.04914
 H722 H 0.83187 0.60953 -0.03533
 H723 H 0.88511 0.64546 -0.00926
 H724 H 0.80520 0.69611 0.07557
 C725 C 0.71284 0.67380 0.97589
 C726 C 0.71508 0.63173 0.97536
 C727 C 0.68293 0.61051 0.96094
 C728 C 0.64920 0.62999 0.94978
 C729 C 0.64642 0.67139 0.95235
 C730 C 0.67848 0.69328 0.96522
 H731 H 0.73718 0.69204 0.98434
 H732 H 0.68360 0.57829 0.95953
 H733 H 0.62487 0.61255 0.93967
 H734 H 0.67717 0.72549 0.96629
 C735 C 0.21205 0.18206 0.46588
 C736 C 0.21300 0.14019 0.47230
 C737 C 0.18085 0.11723 0.46033
 C738 C 0.14839 0.13518 0.44442
 C739 C 0.14694 0.17672 0.43968
 C740 C 0.17892 0.20014 0.45043
 H741 H 0.23668 0.20106 0.47218
 H742 H 0.18073 0.08498 0.46403
 H743 H 0.12405 0.11654 0.43621
 H744 H 0.17857 0.23230 0.44607
 C745 C 0.60366 0.08220 0.73306
 C746 C 0.58491 0.04504 0.74266
 C747 C 0.54427 0.04131 0.73630
 C748 C 0.52293 0.07440 0.72337
 C749 C 0.54180 0.11169 0.71579
 C750 C 0.58245 0.11500 0.72047
 H751 H 0.63517 0.08587 0.73572
 H752 H 0.52892 0.01293 0.74040
 H753 H 0.49171 0.07078 0.71904
 H754 H 0.59821 0.14280 0.71330
 C755 C 1.08797 0.57181 0.26357
 C756 C 1.09150 0.53513 0.24484
 C757 C 1.06576 0.52818 0.21467
 C758 C 1.04260 0.55864 0.19978
 C759 C 1.04439 0.59713 0.21449
 C760 C 1.06567 0.60271 0.24792
 H761 H 1.10335 0.57786 0.28946
 H762 H 1.06567 0.49978 0.20071
 H763 H 1.02473 0.55242 0.17544
 H764 H 1.06696 0.63154 0.26095
 C765 C 0.86814 0.92037 0.22875
 C766 C 0.88951 0.95657 0.23077
 C767 C 0.92923 0.95769 0.21654
 C768 C 0.94703 0.92345 0.20211
 C769 C 0.92529 0.88769 0.20051
 C770 C 0.88585 0.88644 0.21444
 H771 H 0.83720 0.91856 0.23792
 H772 H 0.94630 0.98520 0.21501
 H773 H 0.97722 0.92541 0.19054
 H774 H 0.86835 0.85926 0.21352
 C775 C 0.36752 0.44662 0.72269
 C776 C 0.39037 0.48154 0.72688
 C777 C 0.43036 0.48143 0.71369
 C778 C 0.44707 0.44675 0.69869
 C779 C 0.42390 0.41199 0.69563
 C780 C 0.38408 0.41241 0.70804
 H781 H 0.33642 0.44574 0.73125
 H782 H 0.44856 0.50811 0.71406
 H783 H 0.47770 0.44743 0.68843
 H784 H 0.36546 0.38610 0.70630
 C785 C 0.42774 0.54542 0.77908
 C786 C 0.39534 0.55285 0.75573
 C787 C 0.38237 0.59275 0.75205
 C788 C 0.40121 0.62366 0.77019
 C789 C 0.43283 0.61578 0.79383
 C790 C 0.44638 0.57646 0.79759
 H791 H 0.43764 0.51529 0.78459
 H792 H 0.35613 0.60017 0.73682
 H793 H 0.38938 0.65345 0.76763
 H794 H 0.47068 0.56951 0.81586
 C795 C -0.11783 0.06933 0.24441
 C796 C -0.10665 0.02964 0.25329
 C797 C -0.07506 0.02395 0.27804
 C798 C -0.05490 0.05645 0.29237
 C799 C -0.06648 0.09569 0.28342
 C800 C -0.09774 0.10172 0.25881
 H801 H -0.14346 0.07572 0.22787
 H802 H -0.06667 -0.00581 0.28734
 H803 H -0.03091 0.05082 0.31139
 H804 H -0.10824 0.13152 0.25241
 C805 C 0.06980 0.46335 0.29738
 C806 C 0.09724 0.46433 0.26529
 C807 C 0.09800 0.43070 0.24162
 C808 C 0.07681 0.39592 0.25272
 C809 C 0.05314 0.39383 0.28711
 C810 C 0.04872 0.42838 0.30864
 H811 H 0.06618 0.48933 0.31490
 H812 H 0.11469 0.43065 0.21422
 H813 H 0.07924 0.37039 0.23445
 H814 H 0.03024 0.42798 0.33509
 C815 C 0.60340 0.93400 0.76592
 C816 C 0.58849 0.97238 0.77312
 C817 C 0.55670 0.97480 0.80084
 C818 C 0.53900 0.94016 0.81842
 C819 C 0.55374 0.90236 0.80997
 C820 C 0.58588 0.89978 0.78335
 H821 H 0.62959 0.92998 0.74753
 H822 H 0.54596 1.00356 0.80942
 H823 H 0.51489 0.94298 0.83976
 H824 H 0.59818 0.87106 0.77661
 C825 C 0.76302 0.55467 0.04465
 C826 C 0.73661 0.58067 0.02601
 C827 C 0.69979 0.58691 0.04574
 C828 C 0.68914 0.56690 0.08056
 C829 C 0.71482 0.54028 0.09815
 C830 C 0.75219 0.53456 0.08020
 H831 H 0.79242 0.55065 0.03203
 H832 H 0.67899 0.60866 0.03586
 H833 H 0.66084 0.57341 0.09455
 H834 H 0.77293 0.51470 0.09364
 C835 C 0.25587 1.06593 0.54736
 C836 C 0.23202 1.09371 0.52774
 C837 C 0.19641 1.10465 0.54728
 C838 C 0.18377 1.08663 0.58254
 C839 C 0.20629 1.05736 0.60067
 C840 C 0.24294 1.04757 0.58319
 H841 H 0.28471 1.05873 0.53508
 H842 H 0.17820 1.12839 0.53642
 H843 H 0.15636 1.09640 0.59618
 H844 H 0.26140 1.02569 0.59705
 C845 C 0.22447 0.94371 0.96740
 C846 C 0.23980 0.90473 0.96833
 C847 C 0.24140 0.88400 0.93341
 C848 C 0.22907 0.90143 0.89899
 C849 C 0.21314 0.93973 0.89829
 C850 C 0.21167 0.96117 0.93259
 H851 H 0.22065 0.96007 0.99372
 H852 H 0.25138 0.85346 0.93295
 H853 H 0.23061 0.88420 0.87300
 H854 H 0.19866 0.99048 0.93292
 C855 C 0.71617 0.37128 0.44786
 C856 C 0.73830 0.39098 0.47547
 C857 C 0.75147 0.43049 0.46506
 C858 C 0.74131 0.44943 0.42992
 C859 C 0.71921 0.42894 0.40340
 C860 C 0.70650 0.38991 0.41302
 H861 H 0.70729 0.34045 0.45190
 H862 H 0.77209 0.44611 0.48216
 H863 H 0.75227 0.47940 0.42266
 H864 H 0.68929 0.37334 0.39316
 C865 C 0.76036 0.42814 0.55425
 C866 C 0.77130 0.38899 0.54431
 C867 C 0.79693 0.36882 0.56950
 C868 C 0.81409 0.38783 0.59978
 C869 C 0.80477 0.42715 0.60773
 C870 C 0.77705 0.44701 0.58544
 H871 H 0.73786 0.44396 0.53899
 H872 H 0.80414 0.33789 0.56633
 H873 H 0.83441 0.37147 0.61755
 H874 H 0.76852 0.47713 0.59200
 C875 C 0.28357 -0.05936 0.03652
 C876 C 0.25837 -0.09320 0.04114
 C877 C 0.24932 -0.10836 0.07943
 C878 C 0.26411 -0.09021 0.11151
 C879 C 0.28984 -0.05731 0.10651
 C880 C 0.29899 -0.04160 0.06878
 H881 H 0.29297 -0.04773 0.00785
 H882 H 0.23237 -0.13572 0.08484
 H883 H 0.25752 -0.10365 0.14019
 H884 H 0.31917 -0.01640 0.06420
 C885 C 0.26293 0.04980 0.45648
 C886 C 0.26302 0.09198 0.45640
 C887 C 0.27673 0.11300 0.42206
 C888 C 0.29227 0.09333 0.39040
 C889 C 0.29533 0.05169 0.39167
 C890 C 0.27946 0.02988 0.42453
 H891 H 0.25048 0.03199 0.48086
 H892 H 0.27622 0.14533 0.42016
 H893 H 0.30269 0.11103 0.36496
 H894 H 0.28071 -0.00240 0.42593
 C895 C 0.77343 0.60632 0.91880
 C896 C 0.76404 0.58375 0.95351
 C897 C 0.76802 0.54186 0.95272
 C898 C 0.78480 0.52411 0.91965
 C899 C 0.79682 0.54769 0.88649
 C900 C 0.78912 0.58864 0.88598
 H901 H 0.77007 0.63844 0.91764
 H902 H 0.75923 0.52265 0.97749
 H903 H 0.78973 0.49224 0.92056
 H904 H 0.79658 0.60749 0.86042
 C905 C 0.02673 0.72872 0.55615
 C906 C 0.03111 0.75715 0.58489
 C907 C 0.06773 0.77776 0.58506
 C908 C 0.10057 0.76439 0.56362
 C909 C 0.09721 0.73150 0.53989
 C910 C 0.05938 0.71583 0.53421
 H911 H -0.00141 0.71377 0.55325
 H912 H 0.07214 0.80295 0.60306
 H913 H 0.12898 0.77822 0.56775
 H914 H 0.05532 0.69186 0.51450
 C915 C 0.53258 0.22067 1.06041
 C916 C 0.53724 0.24875 1.08945
 C917 C 0.57486 0.26696 1.09138
 C918 C 0.60775 0.25143 1.07163
 C919 C 0.60369 0.21892 1.04745
 C920 C 0.56534 0.20577 1.03994
 H921 H 0.50385 0.20758 1.05609
 H922 H 0.57987 0.29190 1.10952
 H923 H 0.63650 0.26357 1.07732
 H924 H 0.56064 0.18246 1.01969
 C925 C 0.97463 0.22211 0.94888
 C926 C 0.97704 0.23478 0.90933
 C927 C 0.94311 0.22992 0.88768
 C928 C 0.90785 0.21512 0.90490
 C929 C 0.90484 0.20435 0.94463
 C930 C 0.93879 0.20775 0.96643
 H931 H 1.00032 0.22262 0.96627
 H932 H 0.94394 0.23758 0.85686
 H933 H 0.88313 0.21131 0.88657
 H934 H 0.93778 0.19925 0.99706
 C935 C 0.46247 0.69013 0.39619
 C936 C 0.47988 0.72849 0.39916
 C937 C 0.45761 0.75685 0.42000
 C938 C 0.42007 0.74723 0.43690
 C939 C 0.40334 0.70924 0.43270
 C940 C 0.42539 0.68072 0.41302
 H941 H 0.47593 0.66710 0.37935
 H942 H 0.46889 0.78704 0.42206
 H943 H 0.40345 0.76994 0.45172
 H944 H 0.41330 0.65104 0.40955
 C945 C 0.59002 0.76297 0.38356
 C946 C 0.55222 0.75490 0.40138
 C947 C 0.54753 0.75986 0.44186
 C948 C 0.57804 0.77633 0.46249
 C949 C 0.61448 0.78670 0.44367
 C950 C 0.62052 0.77868 0.40430
 H951 H 0.59532 0.75903 0.35273
 H952 H 0.52044 0.75191 0.45799
 H953 H 0.57304 0.78138 0.49316
 H954 H 0.64827 0.78645 0.38896
 C955 C 0.04208 0.28776 -0.05520
 C956 C 0.04924 0.26343 -0.08728
 C957 C 0.08903 0.25817 -0.09987
 C958 C 0.12005 0.27434 -0.08009
 C959 C 0.11265 0.29784 -0.04786
 C960 C 0.07328 0.30429 -0.03553
 H961 H 0.01226 0.29490 -0.04579
 H962 H 0.09656 0.24264 -0.12608
 H963 H 0.14995 0.27010 -0.09133
 H964 H 0.06656 0.32279 -0.01108
 C965 C 0.47353 0.30999 0.07314
 C966 C 0.46863 0.27261 0.09331
 C967 C 0.43359 0.25065 0.08739
 C968 C 0.40272 0.26785 0.06735
 C969 C 0.40624 0.30703 0.05196
 C970 C 0.44228 0.32756 0.05396
 H971 H 0.50088 0.32678 0.07454
 H972 H 0.42931 0.22027 0.09848
 H973 H 0.37538 0.25116 0.06534
 H974 H 0.44583 0.35766 0.04162
 C975 C 0.96325 0.81184 0.56897
 C976 C 0.96102 0.77579 0.59161
 C977 C 0.92621 0.75234 0.59000
 C978 C 0.89310 0.76736 0.57222
 C979 C 0.89417 0.80547 0.55400
 C980 C 0.93009 0.82685 0.55104
 H981 H 0.99016 0.82968 0.56731
 H982 H 0.92375 0.72244 0.60268
 H983 H 0.86635 0.74930 0.57317
 H984 H 0.93208 0.85607 0.53651
   
