data_POSCAR
  _audit_creation_date              2014-09-24
  _audit_creation_method            'ToBaCCo'
  _symmetry_space_group_name_H-M    'P1'
  _symmetry_Int_Tables_number       1
  _symmetry_cell_setting            triclinic
  loop_
  _symmetry_equiv_pos_as_xyz
 x,y,z
_cell_length_a 24.9901
_cell_length_b 25.0059
_cell_length_c 24.9009
_cell_angle_alpha 89.989300
_cell_angle_beta 89.963500
_cell_angle_gamma 120.016700
loop_
  _atom_site_label
  _atom_site_type_symbol
  _atom_site_fract_x
  _atom_site_fract_y
  _atom_site_fract_z
C1 C 0.53895 0.09391 0.07186
 H2 H 0.58332 0.09681 0.06672
 C3 C 0.53392 0.13634 0.10460
 H4 H 0.57511 0.17215 0.12390
 C5 C 0.43264 0.04568 0.04976
 H6 H 0.39357 0.01098 0.02752
 C7 C 0.42531 0.08685 0.08276
 H8 H 0.38007 0.08234 0.08640
 N9 N 0.48883 0.04978 0.04521
 C10 C 0.52822 -0.09819 0.01219
 H11 H 0.52659 -0.09945 -0.03123
 C12 C 0.53554 -0.14234 0.04051
 H13 H 0.54050 -0.17696 0.01853
 C14 C 0.52210 -0.05236 0.09354
 H15 H 0.51522 -0.01827 0.11413
 C16 C 0.52948 -0.09547 0.12342
 H17 H 0.52808 -0.09401 0.16683
 Zn18 Zn 0.50421 -0.00081 -0.00141
 N19 N 0.52144 -0.05455 0.03894
 C20 C 0.62367 0.04785 -0.05048
 N21 N 0.57248 0.05333 -0.04437
 C22 C 0.56927 0.10151 -0.06611
 C23 C 0.61930 0.14750 -0.09432
 C24 C 0.67451 0.09238 -0.07950
 C25 C 0.38203 -0.09353 -0.02169
 C26 C 0.33160 -0.13460 -0.05283
 C27 C 0.39168 -0.08612 -0.13241
 C28 C 0.44052 -0.04560 -0.09959
 N29 N 0.43509 -0.05026 -0.04534
 H30 H 0.62561 0.00968 -0.03222
 H31 H 0.52815 0.10488 -0.06029
 H32 H 0.61643 0.18615 -0.11066
 H33 H 0.71539 0.08817 -0.08373
 H34 H 0.37949 -0.09729 0.02164
 H35 H 0.29207 -0.16990 -0.03141
 H36 H 0.39829 -0.07861 -0.17520
 H37 H 0.48327 -0.01102 -0.11770
 C38 C 0.53560 -0.14170 0.09693
 C39 C 0.47651 0.13327 0.11057
 C40 C 0.33555 -0.13286 -0.10971
 C41 C 0.67281 0.14339 -0.10092
 C42 C -0.10283 0.46697 0.60307
 H43 H -0.10563 0.42274 0.60875
 C44 C -0.14925 0.47037 0.57504
 H45 H -0.18759 0.42863 0.55868
 C46 C -0.05010 0.57499 0.61868
 H47 H -0.01220 0.61537 0.63687
 C48 C -0.09509 0.58067 0.58988
 H49 H -0.09137 0.62552 0.58574
 N50 N -0.05474 0.51868 0.62453
 C51 C 0.09609 0.48064 0.64497
 H52 H 0.10229 0.48520 0.68806
 C53 C 0.13697 0.47154 0.61327
 H54 H 0.17480 0.46949 0.63238
 C55 C 0.04129 0.48167 0.56772
 H56 H 0.00462 0.48674 0.55003
 C57 C 0.08101 0.47245 0.53451
 H58 H 0.07368 0.46941 0.49152
 Zn59 Zn 0.00070 0.50545 0.66651
 N60 N 0.04963 0.48582 0.62185
 C61 C -0.04376 0.38791 0.71786
 N62 N -0.04862 0.43955 0.71358
 C63 C -0.09269 0.44506 0.74087
 C64 C -0.13459 0.39735 0.77375
 C65 C -0.08440 0.33915 0.75101
 C66 C 0.09572 0.62871 0.68008
 C67 C 0.13959 0.68029 0.70850
 C68 C 0.09910 0.62325 0.79102
 C69 C 0.05570 0.57306 0.76109
 N70 N 0.05485 0.57653 0.70663
 H71 H -0.00888 0.38415 0.69526
 H72 H -0.09606 0.48627 0.73602
 H73 H -0.17052 0.40226 0.79341
 H74 H -0.07942 0.29870 0.75433
 H75 H 0.09486 0.62987 0.63667
 H76 H 0.17141 0.72145 0.68653
 H77 H 0.10018 0.61847 0.83415
 H78 H 0.02399 0.53069 0.78143
 C79 C 0.13014 0.46804 0.55715
 C80 C -0.14578 0.52767 0.56842
 C81 C 0.14222 0.67779 0.76481
 C82 C -0.13098 0.34329 0.77927
 C83 C 0.55488 0.46047 0.40613
 H84 H 0.51436 0.41570 0.39968
 C85 C 0.60210 0.46583 0.43937
 H86 H 0.59754 0.42451 0.45771
 C87 C 0.61086 0.56760 0.38682
 H88 H 0.61437 0.60689 0.36555
 C89 C 0.65909 0.57524 0.42039
 H90 H 0.69886 0.62089 0.42537
 N91 N 0.56004 0.51081 0.38052
 C92 C 0.37339 0.47172 0.34459
 H93 H 0.37476 0.47456 0.30122
 C94 C 0.32155 0.46439 0.37240
 H95 H 0.28266 0.46062 0.35005
 C96 C 0.42332 0.47507 0.42643
 H97 H 0.46366 0.48090 0.44747
 C98 C 0.37243 0.46758 0.45579
 H99 H 0.37437 0.46786 0.49923
 Zn100 Zn 0.49513 0.49542 0.33270
 N101 N 0.42304 0.47724 0.37186
 C102 C 0.42578 0.37743 0.28142
 N103 N 0.48249 0.42792 0.28948
 C104 C 0.53453 0.43088 0.26946
 C105 C 0.53104 0.38136 0.24089
 C106 C 0.42006 0.32712 0.25203
 C107 C 0.51924 0.61580 0.31272
 C108 C 0.52802 0.66594 0.28144
 C109 C 0.53052 0.61124 0.20237
 C110 C 0.52152 0.56211 0.23514
 N111 N 0.51569 0.56506 0.28920
 H112 H 0.38511 0.37567 0.29830
 H113 H 0.57902 0.47144 0.27679
 H114 H 0.57301 0.38413 0.22578
 H115 H 0.37488 0.28684 0.24620
 H116 H 0.51335 0.61645 0.35572
 H117 H 0.52857 0.70497 0.30079
 H118 H 0.53477 0.60785 0.15941
 H119 H 0.51780 0.52109 0.21712
 C120 C 0.32095 0.46293 0.42881
 C121 C 0.65529 0.52379 0.44698
 C122 C 0.53293 0.66371 0.22535
 C123 C 0.47335 0.32859 0.23220
 C124 C 0.20128 0.42638 0.53791
 C125 C 0.17586 0.46306 0.52241
 C126 C 0.19640 0.49714 0.47446
 C127 C 0.24224 0.49572 0.44339
 C128 C 0.26877 0.46030 0.45959
 C129 C 0.24727 0.42507 0.50687
 H130 H 0.18576 0.39881 0.57416
 H131 H 0.17860 0.52670 0.46182
 H132 H 0.25852 0.52417 0.40767
 H133 H 0.26623 0.39666 0.51998
 C134 C 0.57274 0.82322 0.17598
 C135 C 0.53851 0.80918 0.12811
 C136 C 0.50461 0.74729 0.11144
 C137 C 0.50383 0.70038 0.14248
 C138 C 0.53706 0.71421 0.19090
 C139 C 0.57206 0.77627 0.20701
 H140 H 0.59997 0.87058 0.18948
 H141 H 0.47690 0.73484 0.07528
 H142 H 0.47548 0.65301 0.12938
 H143 H 0.59889 0.78853 0.24367
 C144 C 0.22684 0.78984 0.87866
 C145 C 0.28818 0.82446 0.85892
 C146 C 0.29864 0.81162 0.80565
 C147 C 0.25131 0.76517 0.77514
 C148 C 0.19137 0.73021 0.79595
 C149 C 0.17954 0.74396 0.84769
 H150 H 0.21365 0.79905 0.91738
 H151 H 0.34416 0.83367 0.78786
 H152 H 0.26258 0.75503 0.73585
 H153 H 0.13337 0.71931 0.86440
 C154 C 0.74246 0.49174 0.55515
 C155 C 0.80412 0.53119 0.54013
 C156 C 0.81713 0.57154 0.49664
 C157 C 0.76894 0.57036 0.46705
 C158 C 0.70688 0.52941 0.48098
 C159 C 0.69442 0.49128 0.52628
 H160 H 0.73149 0.46090 0.58913
 H161 H 0.86446 0.60215 0.48430
 H162 H 0.78037 0.59988 0.43212
 H163 H 0.64740 0.46044 0.53919
 C164 C 0.43197 0.20239 0.12925
 C165 C 0.47119 0.17960 0.14428
 C166 C 0.50777 0.20371 0.19062
 C167 C 0.50746 0.25130 0.21957
 C168 C 0.46971 0.27512 0.20356
 C169 C 0.43093 0.24942 0.15890
 H170 H 0.40371 0.18554 0.09352
 H171 H 0.53721 0.18623 0.20435
 H172 H 0.53705 0.26988 0.25443
 H173 H 0.40165 0.26739 0.14577
 C174 C -0.24956 0.25480 0.88770
 C175 C -0.27314 0.19346 0.87120
 C176 C -0.24686 0.18090 0.82665
 C177 C -0.19956 0.22937 0.79742
 C178 C -0.17711 0.29121 0.81283
 C179 C -0.20167 0.30307 0.85922
 H180 H -0.26868 0.26534 0.92249
 H181 H -0.26466 0.13380 0.81321
 H182 H -0.18235 0.21840 0.76166
 H183 H -0.18445 0.34982 0.87328
   
