data_POSCAR
  _audit_creation_date              2014-09-24
  _audit_creation_method            'ToBaCCo'
  _symmetry_space_group_name_H-M    'P1'
  _symmetry_Int_Tables_number       1
  _symmetry_cell_setting            triclinic
  loop_
  _symmetry_equiv_pos_as_xyz
 x,y,z
_cell_length_a 43.8784
_cell_length_b 53.7923
_cell_length_c 43.6795
_cell_angle_alpha 89.942500
_cell_angle_beta 90.064900
_cell_angle_gamma 89.856100
loop_
  _atom_site_label
  _atom_site_type_symbol
  _atom_site_fract_x
  _atom_site_fract_y
  _atom_site_fract_z
Si1 Si 1.24964 0.24991 0.24965
 Si2 Si 0.74985 -0.25056 0.24837
 Si3 Si 0.75006 0.25021 -0.25146
 Si4 Si 1.24960 -0.24934 -0.25024
 Si5 Si 0.24993 0.24932 0.75069
 Si6 Si 0.75009 0.74953 0.75087
 Si7 Si 0.75036 0.25023 0.25125
 Si8 Si 0.25027 0.75004 0.25061
 N9 N 1.05368 0.02530 0.03430
 N10 N 1.07359 0.04320 0.03936
 N11 N 1.03215 -0.02698 0.05517
 N12 N 1.03720 -0.04477 0.07541
 N13 N 1.05340 -0.02700 0.03401
 N14 N 1.07351 -0.04482 0.03928
 N15 N 1.03243 0.02531 0.05546
 N16 N 1.03727 0.04322 0.07551
 C17 C 1.06286 0.05423 0.06498
 C18 C 1.06289 -0.05581 0.06498
 N19 N 0.94535 -0.02623 0.03339
 N20 N 0.92557 -0.04433 0.03782
 N21 N 0.96678 0.02577 0.05514
 N22 N 0.96194 0.04366 0.07524
 N23 N 0.94569 0.02605 0.03377
 N24 N 0.92591 0.04414 0.03873
 N25 N 0.96646 -0.02651 0.05473
 N26 N 0.96165 -0.04479 0.07430
 Mn27 Mn 0.99945 -0.00060 0.05546
 C28 C 0.93622 -0.05573 0.06328
 C29 C 0.93654 0.05499 0.06451
 N30 N 1.05354 -0.02662 -0.03198
 N31 N 1.07327 -0.04474 -0.03686
 N32 N 1.03282 0.02591 -0.05303
 N33 N 1.03797 0.04389 -0.07295
 N34 N 1.05392 0.02565 -0.03167
 N35 N 1.07402 0.04345 -0.03645
 N36 N 1.03245 -0.02637 -0.05336
 N37 N 1.03724 -0.04431 -0.07339
 Mn38 Mn 1.05397 -0.00067 0.00116
 C39 C 1.06262 -0.05563 -0.06260
 C40 C 1.06358 0.05470 -0.06210
 N41 N 0.94588 0.02641 -0.03223
 N42 N 0.92594 0.04437 -0.03733
 N43 N 0.96677 -0.02593 -0.05372
 N44 N 0.96184 -0.04381 -0.07382
 N45 N 0.94553 -0.02589 -0.03256
 N46 N 0.92554 -0.04372 -0.03766
 N47 N 0.96713 0.02637 -0.05340
 N48 N 0.96224 0.04430 -0.07349
 Mn49 Mn 0.94528 0.00009 0.00060
 Mn50 Mn 0.99980 -0.00001 -0.05371
 Cl51 Cl 0.99962 -0.00030 0.00087
 C52 C 0.93665 0.05541 -0.06296
 C53 C 0.93620 -0.05476 -0.06330
 N54 N 1.05477 0.52657 0.53300
 N55 N 1.07452 0.54459 0.53799
 N56 N 1.03373 0.47420 0.55394
 N57 N 1.03866 0.45618 0.57390
 N58 N 1.05496 0.47430 0.53276
 N59 N 1.07494 0.45634 0.53772
 N60 N 1.03356 0.52647 0.55420
 N61 N 1.03828 0.54442 0.57422
 C62 C 1.06374 0.55558 0.56361
 C63 C 1.06428 0.44518 0.56328
 N64 N 0.94692 0.47428 0.53243
 N65 N 0.92697 0.45637 0.53729
 N66 N 0.96791 0.52648 0.55402
 N67 N 0.96293 0.54437 0.57410
 N68 N 0.94678 0.52658 0.53270
 N69 N 0.92683 0.54455 0.53766
 N70 N 0.96805 0.47418 0.55376
 N71 N 0.96307 0.45621 0.57374
 Mn72 Mn 1.00082 0.50033 0.55432
 C73 C 0.93754 0.44522 0.56297
 C74 C 0.93740 0.55550 0.56340
 N75 N 1.05511 0.47460 0.46680
 N76 N 1.07499 0.45657 0.46196
 N77 N 1.03391 0.52699 0.44567
 N78 N 1.03911 0.54480 0.42550
 N79 N 1.05502 0.52690 0.46701
 N80 N 1.07517 0.54463 0.46197
 N81 N 1.03400 0.47469 0.44546
 N82 N 1.03890 0.45672 0.42549
 Mn83 Mn 1.05530 0.50059 0.49990
 C84 C 1.06438 0.44556 0.43628
 C85 C 1.06474 0.55570 0.43618
 N86 N 0.94698 0.52686 0.46673
 N87 N 0.92708 0.54489 0.46188
 N88 N 0.96832 0.47468 0.44524
 N89 N 0.96351 0.45678 0.42515
 N90 N 0.94712 0.47458 0.46644
 N91 N 0.92729 0.45663 0.46139
 N92 N 0.96820 0.52696 0.44554
 N93 N 0.96335 0.54505 0.42568
 Mn94 Mn 0.94661 0.50058 0.49957
 Mn95 Mn 1.00110 0.50083 0.44514
 Cl96 Cl 1.00096 0.50058 0.49973
 C97 C 0.93780 0.55609 0.43637
 C98 C 0.93800 0.44566 0.43572
 N99 N 0.55355 0.02568 0.53245
 N100 N 0.57360 0.04348 0.53748
 N101 N 0.53217 -0.02643 0.55407
 N102 N 0.53696 -0.04428 0.57429
 N103 N 0.55345 -0.02662 0.53294
 N104 N 0.57332 -0.04460 0.53818
 N105 N 0.53227 0.02587 0.55358
 N106 N 0.53725 0.04380 0.57359
 C107 C 0.56294 0.05467 0.56303
 C108 C 0.56254 -0.05548 0.56388
 N109 N 0.44546 -0.02628 0.53216
 N110 N 0.42562 -0.04426 0.53701
 N111 N 0.46658 0.02605 0.55309
 N112 N 0.46151 0.04405 0.57299
 N113 N 0.44552 0.02599 0.53170
 N114 N 0.42551 0.04396 0.53644
 N115 N 0.46651 -0.02622 0.55357
 N116 N 0.46159 -0.04416 0.57360
 Mn117 Mn 0.49938 -0.00018 0.55391
 C118 C 0.43617 -0.05526 0.56277
 C119 C 0.43600 0.05509 0.56210
 N120 N 0.55378 -0.02696 0.46698
 N121 N 0.57398 -0.04474 0.46208
 N122 N 0.53284 0.02524 0.44505
 N123 N 0.53792 0.04306 0.42489
 N124 N 0.55386 0.02530 0.46647
 N125 N 0.57385 0.04316 0.46151
 N126 N 0.53273 -0.02704 0.44557
 N127 N 0.53801 -0.04486 0.42550
 Mn128 Mn 0.55399 -0.00065 0.49971
 C129 C 0.56360 -0.05581 0.43635
 C130 C 0.56342 0.05410 0.43566
 N131 N 0.44589 0.02561 0.46573
 N132 N 0.42623 0.04379 0.46069
 N133 N 0.46702 -0.02688 0.44505
 N134 N 0.46194 -0.04475 0.42497
 N135 N 0.44573 -0.02669 0.46617
 N136 N 0.42559 -0.04441 0.46105
 N137 N 0.46717 0.02542 0.44461
 N138 N 0.46261 0.04346 0.42459
 Mn139 Mn 0.44531 -0.00034 0.49894
 Mn140 Mn 0.49994 -0.00082 0.44473
 Cl141 Cl 0.49965 -0.00050 0.49932
 C142 C 0.43714 0.05475 0.43511
 C143 C 0.43620 -0.05557 0.43546
 N144 N 0.55263 0.52551 0.03359
 N145 N 0.57267 0.54335 0.03836
 N146 N 0.53048 0.47364 0.05514
 N147 N 0.53512 0.45586 0.07549
 N148 N 0.55176 0.47324 0.03402
 N149 N 0.57149 0.45518 0.03940
 N150 N 0.53131 0.52591 0.05468
 N151 N 0.53624 0.54403 0.07441
 C152 C 0.56196 0.55476 0.06374
 C153 C 0.56060 0.44446 0.06515
 N154 N 0.44379 0.47472 0.03317
 N155 N 0.42383 0.45679 0.03780
 N156 N 0.46563 0.52682 0.05426
 N157 N 0.46056 0.54465 0.07441
 N158 N 0.44461 0.52702 0.03283
 N159 N 0.42464 0.54498 0.03780
 N160 N 0.46482 0.47453 0.05460
 N161 N 0.45977 0.45646 0.07442
 Mn162 Mn 0.49806 0.50023 0.05501
 C163 C 0.43427 0.44557 0.06347
 C164 C 0.43511 0.55588 0.06363
 N165 N 0.55227 0.47293 -0.03198
 N166 N 0.57247 0.45520 -0.03717
 N167 N 0.53213 0.52541 -0.05381
 N168 N 0.53761 0.54312 -0.07401
 N169 N 0.55314 0.52521 -0.03236
 N170 N 0.57350 0.54277 -0.03735
 N171 N 0.53126 0.47313 -0.05342
 N172 N 0.53658 0.45553 -0.07380
 Mn173 Mn 0.55278 0.49921 0.00083
 C174 C 0.56213 0.44441 -0.06311
 C175 C 0.56332 0.55383 -0.06323
 N176 N 0.44516 0.52668 -0.03317
 N177 N 0.42568 0.54496 -0.03832
 N178 N 0.46556 0.47401 -0.05386
 N179 N 0.46057 0.45593 -0.07365
 N180 N 0.44424 0.47441 -0.03278
 N181 N 0.42414 0.45661 -0.03762
 N182 N 0.46646 0.52628 -0.05427
 N183 N 0.46209 0.54428 -0.07437
 Mn184 Mn 0.44411 0.50071 0.00000
 Mn185 Mn 0.49884 0.49971 -0.05418
 Cl186 Cl 0.49845 0.49996 0.00041
 C187 C 0.43674 0.55579 -0.06392
 C188 C 0.43482 0.44523 -0.06304
 C189 C 1.22578 0.22974 0.22673
 C190 C 1.21012 0.21586 0.21194
 C191 C 1.19164 0.19883 0.19470
 C192 C 1.18474 0.20368 0.16398
 C193 C 1.16733 0.18676 0.14714
 C194 C 1.15660 0.16479 0.16089
 C195 C 1.16354 0.16020 0.19184
 C196 C 1.18095 0.17711 0.20860
 C197 C 1.13875 0.14647 0.14296
 C198 C 1.11372 0.13422 0.15623
 C199 C 1.09770 0.11621 0.13979
 C200 C 1.10643 0.11022 0.10989
 C201 C 1.13101 0.12254 0.09632
 C202 C 1.14706 0.14058 0.11271
 C203 C 1.09079 0.09086 0.09358
 C204 C 1.07792 0.07430 0.08031
 H205 H 1.19289 0.22047 0.15302
 H206 H 1.16208 0.19093 0.12346
 H207 H 1.15601 0.14329 0.20294
 H208 H 1.18629 0.17314 0.23234
 H209 H 1.10653 0.13859 0.17932
 H210 H 1.07868 0.10679 0.15050
 H211 H 1.13803 0.11795 0.07323
 H212 H 1.16644 0.14946 0.10201
 C213 C 1.22626 0.73076 0.72598
 C214 C 1.21104 0.71715 0.71037
 C215 C 1.19317 0.70052 0.69195
 C216 C 1.16136 0.70068 0.69413
 C217 C 1.14409 0.68390 0.67696
 C218 C 1.15847 0.66676 0.65738
 C219 C 1.19046 0.66693 0.65514
 C220 C 1.20767 0.68370 0.67235
 C221 C 1.14032 0.64832 0.63993
 C222 C 1.14813 0.64223 0.60961
 C223 C 1.13179 0.62411 0.59366
 C224 C 1.10747 0.61187 0.60779
 C225 C 1.09926 0.61802 0.63778
 C226 C 1.11555 0.63615 0.65377
 C227 C 1.09161 0.59239 0.59191
 C228 C 1.07869 0.57575 0.57885
 H229 H 1.14992 0.71365 0.70924
 H230 H 1.11949 0.68440 0.67889
 H231 H 1.20222 0.65373 0.64063
 H232 H 1.23230 0.68335 0.67062
 H233 H 1.16684 0.65150 0.59822
 H234 H 1.13832 0.61947 0.57044
 H235 H 1.08056 0.60856 0.64897
 H236 H 1.10925 0.64019 0.67720
 C237 C 0.72655 0.23024 0.72486
 C238 C 0.71137 0.21646 0.70937
 C239 C 0.69364 0.19955 0.69111
 C240 C 0.66181 0.20128 0.69068
 C241 C 0.64463 0.18433 0.67363
 C242 C 0.65911 0.16541 0.65677
 C243 C 0.69114 0.16397 0.65718
 C244 C 0.70824 0.18091 0.67424
 C245 C 0.64095 0.14692 0.63931
 C246 C 0.65072 0.13868 0.61035
 C247 C 0.63422 0.12061 0.59445
 C248 C 0.60774 0.11054 0.60722
 C249 C 0.59762 0.11882 0.63583
 C250 C 0.61407 0.13691 0.65177
 C251 C 0.59151 0.09118 0.59139
 C252 C 0.57827 0.07467 0.57833
 H253 H 0.65026 0.21565 0.70364
 H254 H 0.62005 0.18611 0.67349
 H255 H 0.70295 0.14941 0.64483
 H256 H 0.73287 0.17932 0.67454
 H257 H 0.67108 0.14625 0.59997
 H258 H 0.64226 0.11435 0.57231
 H259 H 0.57723 0.11107 0.64600
 H260 H 0.60617 0.14261 0.67416
 C261 C 0.72610 0.72959 0.22494
 C262 C 0.71072 0.71600 0.20946
 C263 C 0.69276 0.69938 0.19112
 C264 C 0.66091 0.70058 0.19201
 C265 C 0.64353 0.68388 0.17485
 C266 C 0.65783 0.66576 0.15658
 C267 C 0.68987 0.66488 0.15564
 C268 C 0.70719 0.68158 0.17282
 C269 C 0.63952 0.64742 0.13916
 C270 C 0.64823 0.64025 0.10945
 C271 C 0.63172 0.62217 0.09361
 C272 C 0.60632 0.61105 0.10723
 C273 C 0.59721 0.61831 0.13658
 C274 C 0.61367 0.63640 0.15246
 C275 C 0.59027 0.59158 0.09155
 C276 C 0.57717 0.57493 0.07870
 H277 H 0.64953 0.71433 0.20609
 H278 H 0.61892 0.68519 0.17577
 H279 H 0.70155 0.65092 0.14216
 H280 H 0.73183 0.68044 0.17209
 H281 H 0.66779 0.64863 0.09847
 H282 H 0.63895 0.61668 0.07089
 H283 H 0.57766 0.60972 0.14738
 H284 H 0.60663 0.64129 0.17543
 C285 C 0.77366 -0.23153 0.22401
 C286 C 0.78910 -0.21833 0.20808
 C287 C 0.80715 -0.20205 0.18937
 C288 C 0.83890 -0.20180 0.19237
 C289 C 0.85628 -0.18511 0.17518
 C290 C 0.84206 -0.16845 0.15479
 C291 C 0.81015 -0.16911 0.15164
 C292 C 0.79284 -0.18580 0.16886
 C293 C 0.86024 -0.14988 0.13760
 C294 C 0.85312 -0.14411 0.10698
 C295 C 0.86933 -0.12573 0.09134
 C296 C 0.89284 -0.11290 0.10608
 C297 C 0.90040 -0.11876 0.13636
 C298 C 0.88425 -0.13714 0.15204
 C299 C 0.90847 -0.09312 0.09055
 C300 C 0.92128 -0.07621 0.07791
 H301 H 0.85019 -0.21432 0.20820
 H302 H 0.88082 -0.18523 0.17783
 H303 H 0.79851 -0.15629 0.13648
 H304 H 0.76826 -0.18576 0.16650
 H305 H 0.83501 -0.15381 0.09514
 H306 H 0.86331 -0.12133 0.06788
 H307 H 0.91847 -0.10884 0.14802
 H308 H 0.88999 -0.14090 0.17571
 C309 C 0.77397 0.26956 0.72448
 C310 C 0.78946 0.28299 0.70884
 C311 C 0.80759 0.29955 0.69048
 C312 C 0.83898 0.30154 0.69563
 C313 C 0.85632 0.31844 0.67868
 C314 C 0.84246 0.33360 0.65633
 C315 C 0.81095 0.33122 0.65109
 C316 C 0.79366 0.31432 0.66807
 C317 C 0.86057 0.35228 0.63914
 C318 C 0.85518 0.35650 0.60778
 C319 C 0.87147 0.37475 0.59195
 C320 C 0.89336 0.38901 0.60720
 C321 C 0.89914 0.38478 0.63828
 C322 C 0.88290 0.36653 0.65416
 C323 C 0.90926 0.40849 0.59124
 C324 C 0.92231 0.42510 0.57817
 H325 H 0.85000 0.29019 0.71292
 H326 H 0.88058 0.31961 0.68300
 H327 H 0.79952 0.34284 0.63438
 H328 H 0.76935 0.31304 0.66401
 H329 H 0.83842 0.34563 0.59549
 H330 H 0.86682 0.37785 0.56787
 H331 H 0.91593 0.39579 0.65036
 H332 H 0.88730 0.36400 0.67836
 C333 C 0.27295 -0.22961 0.72577
 C334 C 0.28820 -0.21613 0.71002
 C335 C 0.30611 -0.19964 0.69144
 C336 C 0.33794 -0.20011 0.69335
 C337 C 0.35526 -0.18346 0.67605
 C338 C 0.34091 -0.16613 0.65661
 C339 C 0.30890 -0.16601 0.65462
 C340 C 0.29164 -0.18266 0.67195
 C341 C 0.35913 -0.14779 0.63909
 C342 C 0.35112 -0.14150 0.60884
 C343 C 0.36752 -0.12343 0.59286
 C344 C 0.39212 -0.11145 0.60685
 C345 C 0.40054 -0.11781 0.63676
 C346 C 0.38419 -0.13588 0.65278
 C347 C 0.40805 -0.09201 0.59096
 C348 C 0.42106 -0.07540 0.57793
 H349 H 0.34935 -0.21321 0.70836
 H350 H 0.37987 -0.18418 0.67779
 H351 H 0.29718 -0.15267 0.64022
 H352 H 0.26700 -0.18208 0.67042
 H353 H 0.33219 -0.15057 0.59756
 H354 H 0.36083 -0.11864 0.56970
 H355 H 0.41946 -0.10854 0.64785
 H356 H 0.39066 -0.14007 0.67616
 C357 C 0.27271 0.26934 0.22502
 C358 C 0.28779 0.28276 0.20900
 C359 C 0.30553 0.29925 0.19026
 C360 C 0.33734 0.29931 0.19257
 C361 C 0.35447 0.31616 0.17536
 C362 C 0.33996 0.33318 0.15563
 C363 C 0.30798 0.33272 0.15318
 C364 C 0.29091 0.31587 0.17041
 C365 C 0.35794 0.35185 0.13839
 C366 C 0.35023 0.35803 0.10803
 C367 C 0.36640 0.37640 0.09231
 C368 C 0.39046 0.38880 0.10670
 C369 C 0.39856 0.38257 0.13674
 C370 C 0.38245 0.36421 0.15249
 C371 C 0.40620 0.40848 0.09106
 C372 C 0.41914 0.42527 0.07829
 H373 H 0.34888 0.28651 0.20787
 H374 H 0.37906 0.31587 0.17746
 H375 H 0.29612 0.34580 0.13853
 H376 H 0.26628 0.31606 0.16859
 H377 H 0.33172 0.34863 0.09644
 H378 H 0.35996 0.38108 0.06905
 H379 H 0.41706 0.39216 0.14813
 H380 H 0.38867 0.36012 0.17596
 C381 C 0.77363 0.23079 -0.22699
 C382 C 0.78902 0.21737 -0.21112
 C383 C 0.80714 0.20085 -0.19256
 C384 C 0.83813 0.19750 -0.19891
 C385 C 0.85542 0.18061 -0.18176
 C386 C 0.84191 0.16682 -0.15800
 C387 C 0.81082 0.17058 -0.15154
 C388 C 0.79357 0.18746 -0.16873
 C389 C 0.85990 0.14810 -0.14058
 C390 C 0.85585 0.14522 -0.10881
 C391 C 0.87207 0.12700 -0.09268
 C392 C 0.89255 0.11143 -0.10807
 C393 C 0.89697 0.11431 -0.13959
 C394 C 0.88080 0.13251 -0.15575
 C395 C 0.90840 0.09204 -0.09175
 C396 C 0.92144 0.07549 -0.07843
 H397 H 0.84887 0.20777 -0.21730
 H398 H 0.87938 0.17837 -0.18704
 H399 H 0.79964 0.16002 -0.13369
 H400 H 0.76956 0.18981 -0.16372
 H401 H 0.84022 0.15712 -0.09641
 H402 H 0.86849 0.12495 -0.06828
 H403 H 0.91264 0.10228 -0.15177
 H404 H 0.88412 0.13400 -0.18024
 C405 C 0.77351 0.73019 0.27281
 C406 C 0.78905 0.71699 0.28876
 C407 C 0.80739 0.70081 0.30745
 C408 C 0.83862 0.69838 0.30174
 C409 C 0.85620 0.68180 0.31902
 C410 C 0.84270 0.66741 0.34224
 C411 C 0.81135 0.67026 0.34808
 C412 C 0.79383 0.68684 0.33076
 C413 C 0.86098 0.64893 0.35964
 C414 C 0.85644 0.64562 0.39127
 C415 C 0.87280 0.62745 0.40731
 C416 C 0.89388 0.61241 0.39197
 C417 C 0.89883 0.61578 0.36061
 C418 C 0.88253 0.63392 0.34453
 C419 C 0.90969 0.59296 0.40809
 C420 C 0.92267 0.57630 0.42121
 H421 H 0.84933 0.70913 0.28375
 H422 H 0.88033 0.68024 0.31424
 H423 H 0.80022 0.65921 0.36550
 H424 H 0.76963 0.68850 0.33526
 H425 H 0.84028 0.65708 0.40359
 H426 H 0.86881 0.62499 0.43160
 H427 H 0.91498 0.60414 0.34849
 H428 H 0.88622 0.63578 0.32013
 C429 C 0.27398 0.23081 0.27361
 C430 C 0.28982 0.21760 0.28924
 C431 C 0.30840 0.20131 0.30757
 C432 C 0.33875 0.19681 0.29945
 C433 C 0.35635 0.18000 0.31637
 C434 C 0.34376 0.16745 0.34164
 C435 C 0.31335 0.17241 0.34989
 C436 C 0.29580 0.18921 0.33292
 C437 C 0.36187 0.14865 0.35871
 C438 C 0.35981 0.14689 0.39079
 C439 C 0.37590 0.12846 0.40664
 C440 C 0.39424 0.11158 0.39065
 C441 C 0.39674 0.11338 0.35879
 C442 C 0.38070 0.13179 0.34291
 C443 C 0.40973 0.09191 0.40672
 C444 C 0.42240 0.07511 0.41985
 H445 H 0.34872 0.20609 0.27986
 H446 H 0.37979 0.17680 0.30970
 H447 H 0.30288 0.16280 0.36894
 H448 H 0.27227 0.19247 0.33929
 H449 H 0.34579 0.15978 0.40361
 H450 H 0.37383 0.12723 0.43131
 H451 H 0.41076 0.10032 0.34619
 H452 H 0.38242 0.13243 0.31819
 C453 C 0.27372 0.73139 -0.22628
 C454 C 0.28950 0.71812 -0.21067
 C455 C 0.30808 0.70183 -0.19236
 C456 C 0.33826 0.69698 -0.20082
 C457 C 0.35588 0.68021 -0.18386
 C458 C 0.34348 0.66806 -0.15820
 C459 C 0.31325 0.67336 -0.14963
 C460 C 0.29568 0.69012 -0.16663
 C461 C 0.36162 0.64934 -0.14104
 C462 C 0.36001 0.64802 -0.10890
 C463 C 0.37613 0.62968 -0.09293
 C464 C 0.39404 0.61246 -0.10886
 C465 C 0.39609 0.61382 -0.14077
 C466 C 0.38002 0.63214 -0.15678
 C467 C 0.40951 0.59287 -0.09263
 C468 C 0.42212 0.57611 -0.07935
 H469 H 0.34807 0.70596 -0.22070
 H470 H 0.37918 0.67675 -0.19080
 H471 H 0.30293 0.66406 -0.13026
 H472 H 0.27228 0.69366 -0.15999
 H473 H 0.34633 0.66118 -0.09613
 H474 H 0.37441 0.62878 -0.06821
 H475 H 0.40977 0.60049 -0.15332
 H476 H 0.38138 0.63245 -0.18153
 C477 C 1.22546 -0.22992 -0.22659
 C478 C 1.20964 -0.21660 -0.21116
 C479 C 1.19100 -0.20028 -0.19302
 C480 C 1.19474 -0.19938 -0.16123
 C481 C 1.17746 -0.18277 -0.14377
 C482 C 1.15623 -0.16682 -0.15794
 C483 C 1.15239 -0.16810 -0.18989
 C484 C 1.16970 -0.18471 -0.20729
 C485 C 1.13880 -0.14840 -0.13967
 C486 C 1.10794 -0.14355 -0.14619
 C487 C 1.09197 -0.12541 -0.12980
 C488 C 1.10661 -0.11194 -0.10671
 C489 C 1.13717 -0.11686 -0.09978
 C490 C 1.15318 -0.13498 -0.11611
 C491 C 1.09065 -0.09247 -0.09083
 C492 C 1.07765 -0.07582 -0.07780
 H493 H 1.21117 -0.21138 -0.14997
 H494 H 1.18066 -0.18242 -0.11919
 H495 H 1.13656 -0.15583 -0.20152
 H496 H 1.16675 -0.18518 -0.23192
 H497 H 1.09616 -0.15378 -0.16393
 H498 H 1.06830 -0.12175 -0.13533
 H499 H 1.14875 -0.10643 -0.08205
 H500 H 1.17701 -0.13804 -0.11084
 C501 C 1.22594 0.26969 0.27331
 C502 C 1.21038 0.28325 0.28870
 C503 C 1.19202 0.29985 0.30674
 C504 C 1.19616 0.30119 0.33846
 C505 C 1.17910 0.31803 0.35580
 C506 C 1.15767 0.33377 0.34158
 C507 C 1.15344 0.33207 0.30971
 C508 C 1.17053 0.31522 0.29243
 C509 C 1.14039 0.35238 0.35971
 C510 C 1.10943 0.35708 0.35347
 C511 C 1.09356 0.37534 0.36974
 C512 C 1.10840 0.38911 0.39244
 C513 C 1.13907 0.38436 0.39908
 C514 C 1.15498 0.36611 0.38286
 C515 C 1.09250 0.40866 0.40823
 C516 C 1.07949 0.42535 0.42118
 H517 H 1.21273 0.28935 0.34976
 H518 H 1.18260 0.31871 0.38033
 H519 H 1.13744 0.34417 0.29804
 H520 H 1.16726 0.31442 0.26786
 H521 H 1.09749 0.34661 0.33604
 H522 H 1.06981 0.37887 0.36444
 H523 H 1.15080 0.39501 0.41651
 H524 H 1.17888 0.36317 0.38790
 C525 C 0.72634 -0.23024 0.27149
 C526 C 0.71121 -0.21610 0.28652
 C527 C 0.69367 -0.19862 0.30410
 C528 C 0.67484 -0.20680 0.32788
 C529 C 0.65821 -0.18961 0.34515
 C530 C 0.66030 -0.16401 0.33884
 C531 C 0.67916 -0.15603 0.31475
 C532 C 0.69572 -0.17323 0.29753
 C533 C 0.64305 -0.14562 0.35731
 C534 C 0.65674 -0.12309 0.36604
 C535 C 0.64036 -0.10547 0.38278
 C536 C 0.61012 -0.11010 0.39106
 C537 C 0.59635 -0.13255 0.38277
 C538 C 0.61272 -0.15025 0.36602
 C539 C 0.59318 -0.09149 0.40746
 C540 C 0.57943 -0.07543 0.42085
 H541 H 0.67317 -0.22643 0.33319
 H542 H 0.64412 -0.19628 0.36375
 H543 H 0.68088 -0.13649 0.30904
 H544 H 0.71016 -0.16671 0.27910
 H545 H 0.68018 -0.11915 0.36006
 H546 H 0.65124 -0.08816 0.38914
 H547 H 0.57290 -0.13627 0.38898
 H548 H 0.60149 -0.16731 0.35936
 C549 C 0.72620 0.27042 -0.22836
 C550 C 0.71082 0.28451 -0.21347
 C551 C 0.69291 0.30196 -0.19611
 C552 C 0.67825 0.29454 -0.16917
 C553 C 0.66142 0.31177 -0.15211
 C554 C 0.65913 0.33668 -0.16176
 C555 C 0.67378 0.34387 -0.18900
 C556 C 0.69054 0.32663 -0.20601
 C557 C 0.64182 0.35520 -0.14345
 C558 C 0.65318 0.37943 -0.13954
 C559 C 0.63678 0.39702 -0.12271
 C560 C 0.60882 0.39068 -0.10952
 C561 C 0.59737 0.36658 -0.11308
 C562 C 0.61377 0.34892 -0.12990
 C563 C 0.59185 0.40911 -0.09273
 C564 C 0.57805 0.42498 -0.07902
 H565 H 0.68002 0.27550 -0.16124
 H566 H 0.65068 0.30572 -0.13108
 H567 H 0.67207 0.36280 -0.19730
 H568 H 0.70173 0.33257 -0.22687
 H569 H 0.67490 0.38473 -0.14927
 H570 H 0.64590 0.41559 -0.12004
 H571 H 0.57569 0.36150 -0.10304
 H572 H 0.60427 0.33052 -0.13276
 C573 C 1.22670 0.22952 -0.22520
 C574 C 1.21160 0.21592 -0.20942
 C575 C 1.19388 0.19926 -0.19084
 C576 C 1.16202 0.20025 -0.19165
 C577 C 1.14486 0.18345 -0.17437
 C578 C 1.15939 0.16543 -0.15604
 C579 C 1.19145 0.16478 -0.15516
 C580 C 1.20854 0.18157 -0.17246
 C581 C 1.14129 0.14700 -0.13848
 C582 C 1.15020 0.13984 -0.10878
 C583 C 1.13380 0.12178 -0.09276
 C584 C 1.10828 0.11064 -0.10618
 C585 C 1.09901 0.11785 -0.13554
 C586 C 1.11536 0.13592 -0.15159
 C587 C 1.09220 0.09128 -0.09025
 C588 C 1.07899 0.07474 -0.07722
 H589 H 1.15044 0.21388 -0.20578
 H590 H 1.12023 0.18462 -0.17524
 H591 H 1.20332 0.15092 -0.14164
 H592 H 1.23320 0.18057 -0.17179
 H593 H 1.16982 0.14825 -0.09791
 H594 H 1.14117 0.11635 -0.07003
 H595 H 1.07937 0.10926 -0.14620
 H596 H 1.10815 0.14077 -0.17455
 C597 C 1.22833 0.73121 0.27347
 C598 C 1.21325 0.71748 0.28917
 C599 C 1.19559 0.70058 0.30758
 C600 C 1.16372 0.70184 0.30737
 C601 C 1.14661 0.68484 0.32445
 C602 C 1.16118 0.66632 0.34199
 C603 C 1.19325 0.66537 0.34224
 C604 C 1.21029 0.68237 0.32515
 C605 C 1.14309 0.64775 0.35945
 C606 C 1.15255 0.63987 0.38872
 C607 C 1.13607 0.62179 0.40467
 C608 C 1.10991 0.61133 0.39166
 C609 C 1.10013 0.61922 0.36272
 C610 C 1.11656 0.63731 0.34672
 C611 C 1.09361 0.59204 0.40762
 C612 C 1.08026 0.57561 0.42078
 H613 H 1.15208 0.71586 0.29387
 H614 H 1.12200 0.68627 0.32405
 H615 H 1.20516 0.65114 0.35512
 H616 H 1.23494 0.68112 0.32535
 H617 H 1.17263 0.64776 0.39932
 H618 H 1.14385 0.61586 0.42707
 H619 H 1.08000 0.61118 0.35234
 H620 H 1.10889 0.64270 0.32410
 C621 C 0.72722 0.23016 0.27513
 C622 C 0.71208 0.21639 0.29064
 C623 C 0.69423 0.19954 0.30883
 C624 C 0.70873 0.18233 0.32800
 C625 C 0.69153 0.16533 0.34489
 C626 C 0.65952 0.16530 0.34280
 C627 C 0.64513 0.18284 0.32366
 C628 C 0.66240 0.19984 0.30680
 C629 C 0.64133 0.14668 0.35996
 C630 C 0.61623 0.13495 0.34609
 C631 C 0.59978 0.11677 0.36185
 C632 C 0.60813 0.11010 0.39168
 C633 C 0.63283 0.12185 0.40582
 C634 C 0.64932 0.14002 0.39010
 C635 C 0.59194 0.09068 0.40741
 C636 C 0.57873 0.07413 0.42040
 H637 H 0.73337 0.18185 0.32961
 H638 H 0.70331 0.15185 0.35906
 H639 H 0.62053 0.18348 0.32184
 H640 H 0.65093 0.21309 0.29203
 H641 H 0.60975 0.13941 0.32279
 H642 H 0.58079 0.10770 0.35063
 H643 H 0.63948 0.11683 0.42891
 H644 H 0.66828 0.14893 0.40154
 C645 C 0.72721 0.72913 -0.22543
 C646 C 0.71241 0.71503 -0.21002
 C647 C 0.69513 0.69772 -0.19192
 C648 C 0.66583 0.70389 -0.18175
 C649 C 0.64894 0.68679 -0.16464
 C650 C 0.66119 0.66328 -0.15747
 C651 C 0.69070 0.65732 -0.16772
 C652 C 0.70752 0.67442 -0.18483
 C653 C 0.64320 0.64488 -0.13971
 C654 C 0.65735 0.63002 -0.11726
 C655 C 0.64065 0.61215 -0.10124
 C656 C 0.60962 0.60888 -0.10739
 C657 C 0.59524 0.62375 -0.12942
 C658 C 0.61189 0.64166 -0.14547
 C659 C 0.59281 0.58983 -0.09162
 C660 C 0.57913 0.57356 -0.07858
 H661 H 0.65603 0.72189 -0.18709
 H662 H 0.62643 0.69202 -0.15678
 H663 H 0.70059 0.63925 -0.16299
 H664 H 0.73011 0.66941 -0.19271
 H665 H 0.68130 0.63228 -0.11200
 H666 H 0.65201 0.60076 -0.08420
 H667 H 0.57125 0.62130 -0.13446
 H668 H 0.60043 0.65260 -0.16286
 C669 C 0.77354 -0.23069 -0.22518
 C670 C 0.78876 -0.21705 -0.20956
 C671 C 0.80658 -0.20029 -0.19119
 C672 C 0.79202 -0.18349 -0.17158
 C673 C 0.80914 -0.16656 -0.15452
 C674 C 0.84113 -0.16616 -0.15687
 C675 C 0.85558 -0.18330 -0.17643
 C676 C 0.83839 -0.20024 -0.19347
 C677 C 0.85920 -0.14756 -0.13954
 C678 C 0.88396 -0.13539 -0.15342
 C679 C 0.90022 -0.11717 -0.13752
 C680 C 0.89203 -0.11091 -0.10755
 C681 C 0.86769 -0.12312 -0.09339
 C682 C 0.85138 -0.14133 -0.10925
 C683 C 0.90799 -0.09144 -0.09167
 C684 C 0.92104 -0.07484 -0.07860
 H685 H 0.76740 -0.18328 -0.16976
 H686 H 0.79731 -0.15339 -0.14002
 H687 H 0.88016 -0.18366 -0.17847
 H688 H 0.84990 -0.21317 -0.20858
 H689 H 0.89029 -0.13951 -0.17682
 H690 H 0.91894 -0.10775 -0.14875
 H691 H 0.86116 -0.11843 -0.07018
 H692 H 0.83269 -0.15058 -0.09780
 C693 C 0.77416 0.26985 0.27504
 C694 C 0.78960 0.28342 0.29054
 C695 C 0.80766 0.30009 0.30876
 C696 C 0.79340 0.31646 0.32912
 C697 C 0.81073 0.33336 0.34603
 C698 C 0.84262 0.33414 0.34277
 C699 C 0.85678 0.31743 0.32245
 C700 C 0.83939 0.30053 0.30557
 C701 C 0.86086 0.35273 0.35994
 C702 C 0.88498 0.36538 0.34557
 C703 C 0.90136 0.38360 0.36134
 C704 C 0.89392 0.38938 0.39166
 C705 C 0.87025 0.37668 0.40628
 C706 C 0.85382 0.35847 0.39056
 C707 C 0.90992 0.40889 0.40742
 C708 C 0.92295 0.42552 0.42043
 H709 H 0.76884 0.31638 0.33164
 H710 H 0.79910 0.34620 0.36113
 H711 H 0.88130 0.31738 0.31971
 H712 H 0.85066 0.28793 0.28987
 H713 H 0.89070 0.36164 0.32191
 H714 H 0.91955 0.39341 0.34975
 H715 H 0.86431 0.38100 0.42976
 H716 H 0.83565 0.34884 0.40236
 C717 C 0.27314 -0.23140 0.27290
 C718 C 0.28884 -0.21784 0.28819
 C719 C 0.30726 -0.20112 0.30610
 C720 C 0.30189 -0.19837 0.33750
 C721 C 0.31890 -0.18134 0.35461
 C722 C 0.34156 -0.16680 0.34052
 C723 C 0.34700 -0.16994 0.30901
 C724 C 0.32995 -0.18696 0.29195
 C725 C 0.35891 -0.14802 0.35841
 C726 C 0.39024 -0.14436 0.35318
 C727 C 0.40627 -0.12614 0.36937
 C728 C 0.39126 -0.11134 0.39098
 C729 C 0.36018 -0.11499 0.39654
 C730 C 0.34411 -0.13320 0.38041
 C731 C 0.40749 -0.09199 0.40692
 C732 C 0.42077 -0.07552 0.42006
 H733 H 0.28438 -0.20923 0.34872
 H734 H 0.31441 -0.17961 0.37889
 H735 H 0.36395 -0.15881 0.29737
 H736 H 0.33419 -0.18882 0.26763
 H737 H 0.40238 -0.15565 0.33669
 H738 H 0.43033 -0.12350 0.36488
 H739 H 0.34828 -0.10357 0.41311
 H740 H 0.31995 -0.13529 0.38467
 C741 C 0.27395 0.26888 -0.22568
 C742 C 0.28952 0.28237 -0.21023
 C743 C 0.30775 0.29895 -0.19204
 C744 C 0.30121 0.30232 -0.16097
 C745 C 0.31805 0.31928 -0.14362
 C746 C 0.34165 0.33312 -0.15717
 C747 C 0.34829 0.32934 -0.18834
 C748 C 0.33142 0.31238 -0.20563
 C749 C 0.35871 0.35192 -0.13915
 C750 C 0.39034 0.35484 -0.14304
 C751 C 0.40612 0.37319 -0.12688
 C752 C 0.39052 0.38884 -0.10663
 C753 C 0.35914 0.38589 -0.10234
 C754 C 0.34332 0.36756 -0.11845
 C755 C 0.40648 0.40838 -0.09092
 C756 C 0.41957 0.42505 -0.07804
 H757 H 0.28294 0.29202 -0.15021
 H758 H 0.31264 0.32155 -0.11960
 H759 H 0.36602 0.33994 -0.19954
 H760 H 0.33656 0.31001 -0.22971
 H761 H 0.40288 0.34290 -0.15852
 H762 H 0.43042 0.37530 -0.13035
 H763 H 0.34682 0.39798 -0.08683
 H764 H 0.31893 0.36602 -0.11527
 C765 C 1.22725 -0.23113 0.22867
 C766 C 1.21141 -0.21736 0.21368
 C767 C 1.19280 -0.20038 0.19621
 C768 C 1.17885 -0.18018 0.21075
 C769 C 1.16151 -0.16319 0.19381
 C770 C 1.15787 -0.16615 0.16200
 C771 C 1.17183 -0.18664 0.14761
 C772 C 1.18916 -0.20363 0.16462
 C773 C 1.14009 -0.14768 0.14392
 C774 C 1.15036 -0.13978 0.11499
 C775 C 1.13419 -0.12175 0.09848
 C776 C 1.10751 -0.11139 0.11059
 C777 C 1.09690 -0.11933 0.13917
 C778 C 1.11304 -0.13734 0.15572
 C779 C 1.09149 -0.09213 0.09412
 C780 C 1.07831 -0.07571 0.08065
 H781 H 1.18165 -0.17740 0.23516
 H782 H 1.15147 -0.14745 0.20552
 H783 H 1.16918 -0.18961 0.12324
 H784 H 1.19984 -0.21920 0.15311
 H785 H 1.17129 -0.14710 0.10543
 H786 H 1.14271 -0.11567 0.07644
 H787 H 1.07626 -0.11147 0.14877
 H788 H 1.10430 -0.14325 0.17772
 C789 C 1.22574 0.26911 0.72736
 C790 C 1.21002 0.28274 0.71213
 C791 C 1.19158 0.29947 0.69422
 C792 C 1.17285 0.31686 0.70884
 C793 C 1.15577 0.33379 0.69157
 C794 C 1.15725 0.33356 0.65938
 C795 C 1.17593 0.31583 0.64489
 C796 C 1.19298 0.29890 0.66223
 C797 C 1.13997 0.35217 0.64112
 C798 C 1.15343 0.36366 0.61555
 C799 C 1.13761 0.38189 0.59907
 C800 C 1.10815 0.38884 0.60787
 C801 C 1.09440 0.37729 0.63303
 C802 C 1.11018 0.35907 0.64955
 C803 C 1.09242 0.40836 0.59172
 C804 C 1.07946 0.42501 0.57853
 H805 H 1.17173 0.31755 0.73360
 H806 H 1.14197 0.34743 0.70342
 H807 H 1.17727 0.31500 0.62016
 H808 H 1.20741 0.28550 0.65068
 H809 H 1.17646 0.35901 0.60873
 H810 H 1.14853 0.39080 0.57973
 H811 H 1.07159 0.38253 0.64003
 H812 H 1.09906 0.35035 0.66888
 C813 C 0.72555 -0.23087 0.72764
 C814 C 0.70958 -0.21733 0.71253
 C815 C 0.69084 -0.20068 0.69480
 C816 C 0.69098 -0.20193 0.66280
 C817 C 0.67367 -0.18509 0.64560
 C818 C 0.65599 -0.16675 0.66023
 C819 C 0.65576 -0.16585 0.69243
 C820 C 0.67309 -0.18269 0.70956
 C821 C 0.63848 -0.14822 0.64205
 C822 C 0.60923 -0.14059 0.65140
 C823 C 0.59331 -0.12243 0.63492
 C824 C 0.60636 -0.11166 0.60889
 C825 C 0.63527 -0.11933 0.59918
 C826 C 0.65123 -0.13750 0.61560
 C827 C 0.59054 -0.09220 0.59270
 C828 C 0.57760 -0.07559 0.57940
 H829 H 0.70463 -0.21580 0.65115
 H830 H 0.67404 -0.18645 0.62088
 H831 H 0.64275 -0.15174 0.70436
 H832 H 0.67295 -0.18148 0.73432
 H833 H 0.59865 -0.14871 0.67143
 H834 H 0.57093 -0.11663 0.64263
 H835 H 0.64565 -0.11103 0.57914
 H836 H 0.67385 -0.14271 0.60805
 C837 C 0.72591 0.27002 0.22817
 C838 C 0.70989 0.28370 0.21333
 C839 C 0.69099 0.30053 0.19604
 C840 C 0.67919 0.32183 0.21009
 C841 C 0.66147 0.33861 0.19328
 C842 C 0.65533 0.33432 0.16210
 C843 C 0.66714 0.31275 0.14822
 C844 C 0.68485 0.29596 0.16511
 C845 C 0.63724 0.35257 0.14408
 C846 C 0.64594 0.35892 0.11407
 C847 C 0.62965 0.37687 0.09759
 C848 C 0.60444 0.38866 0.11082
 C849 C 0.59535 0.38223 0.14048
 C850 C 0.61161 0.36430 0.15701
 C851 C 0.58855 0.40795 0.09439
 C852 C 0.57560 0.42444 0.08090
 H853 H 0.68393 0.32560 0.23399
 H854 H 0.65312 0.35521 0.20451
 H855 H 0.66252 0.30878 0.12436
 H856 H 0.69386 0.27951 0.15402
 H857 H 0.66578 0.35046 0.10363
 H858 H 0.63697 0.38179 0.07470
 H859 H 0.57586 0.39124 0.15094
 H860 H 0.60411 0.35959 0.17989
 C861 C 0.77400 0.23095 0.22682
 C862 C 0.78946 0.21760 0.21102
 C863 C 0.80767 0.20115 0.19256
 C864 C 0.79434 0.18816 0.16827
 C865 C 0.81163 0.17126 0.15124
 C866 C 0.84252 0.16708 0.15834
 C867 C 0.85581 0.18049 0.18255
 C868 C 0.83848 0.19740 0.19954
 C869 C 0.86049 0.14828 0.14115
 C870 C 0.88070 0.13227 0.15666
 C871 C 0.89678 0.11394 0.14072
 C872 C 0.89294 0.11137 0.10908
 C873 C 0.87316 0.12737 0.09336
 C874 C 0.85703 0.14572 0.10927
 C875 C 0.90863 0.09184 0.09297
 C876 C 0.92151 0.07517 0.07980
 H877 H 0.77047 0.19082 0.16279
 H878 H 0.80062 0.16100 0.13303
 H879 H 0.87962 0.17792 0.18832
 H880 H 0.84903 0.20735 0.21830
 H881 H 0.88353 0.13352 0.18124
 H882 H 0.91191 0.10158 0.15313
 H883 H 0.87003 0.12555 0.06885
 H884 H 0.84193 0.15794 0.09663
 C885 C 0.77406 0.73051 0.72646
 C886 C 0.78966 0.71729 0.71061
 C887 C 0.80796 0.70098 0.69206
 C888 C 0.79467 0.68803 0.66772
 C889 C 0.81203 0.67124 0.65058
 C890 C 0.84294 0.66715 0.65762
 C891 C 0.85620 0.68053 0.68188
 C892 C 0.83879 0.69732 0.69898
 C893 C 0.86098 0.64845 0.64034
 C894 C 0.88129 0.63246 0.65576
 C895 C 0.89740 0.61421 0.63972
 C896 C 0.89351 0.61168 0.60808
 C897 C 0.87365 0.62767 0.59245
 C898 C 0.85748 0.64594 0.60845
 C899 C 0.90925 0.59223 0.59189
 C900 C 0.92222 0.57562 0.57869
 H901 H 0.77077 0.69062 0.66227
 H902 H 0.80105 0.66099 0.63234
 H903 H 0.88002 0.67803 0.68762
 H904 H 0.84931 0.70726 0.71778
 H905 H 0.88416 0.63366 0.68033
 H906 H 0.91261 0.60185 0.65207
 H907 H 0.87048 0.62589 0.56795
 H908 H 0.84231 0.65815 0.59588
 C909 C 0.27332 0.22981 0.72629
 C910 C 0.28853 0.21639 0.71034
 C911 C 0.30638 0.19991 0.69158
 C912 C 0.33808 0.19895 0.69496
 C913 C 0.35528 0.18220 0.67758
 C914 C 0.34095 0.16618 0.65660
 C915 C 0.30909 0.16752 0.65313
 C916 C 0.29196 0.18427 0.67053
 C917 C 0.35898 0.14766 0.63902
 C918 C 0.35207 0.14264 0.60817
 C919 C 0.36833 0.12451 0.59204
 C920 C 0.39170 0.11118 0.60651
 C921 C 0.39898 0.11623 0.63707
 C922 C 0.38277 0.13436 0.65323
 C923 C 0.40758 0.09178 0.59037
 C924 C 0.42067 0.07520 0.57724
 H925 H 0.34948 0.21099 0.71118
 H926 H 0.37978 0.18182 0.68050
 H927 H 0.29734 0.15521 0.63750
 H928 H 0.26741 0.18478 0.66785
 H929 H 0.33415 0.15278 0.59649
 H930 H 0.36252 0.12075 0.56838
 H931 H 0.41691 0.10593 0.64853
 H932 H 0.38835 0.13752 0.67705
 C933 C 0.27238 0.73152 0.22745
 C934 C 0.28759 0.71799 0.21158
 C935 C 0.30547 0.70132 0.19301
 C936 C 0.29123 0.68644 0.17100
 C937 C 0.30831 0.66947 0.15382
 C938 C 0.33994 0.66711 0.15846
 C939 C 0.35410 0.68237 0.18042
 C940 C 0.33697 0.69934 0.19756
 C941 C 0.35789 0.64839 0.14101
 C942 C 0.38077 0.63431 0.15562
 C943 C 0.39697 0.61613 0.13950
 C944 C 0.39061 0.61176 0.10856
 C945 C 0.36813 0.62583 0.09373
 C946 C 0.35187 0.64402 0.10981
 C947 C 0.40659 0.59239 0.09234
 C948 C 0.41974 0.57589 0.07906
 H949 H 0.26684 0.68770 0.16739
 H950 H 0.29664 0.65778 0.13743
 H951 H 0.37845 0.68124 0.18428
 H952 H 0.34825 0.71077 0.21453
 H953 H 0.38568 0.63696 0.17969
 H954 H 0.41422 0.60528 0.15127
 H955 H 0.36301 0.62263 0.06979
 H956 H 0.33469 0.65473 0.09781
   
