data_POSCAR
  _audit_creation_date              2014-09-24
  _audit_creation_method            'ToBaCCo'
  _symmetry_space_group_name_H-M    'P1'
  _symmetry_Int_Tables_number       1
  _symmetry_cell_setting            triclinic
  loop_
  _symmetry_equiv_pos_as_xyz
 x,y,z
_cell_length_a 33.4126
_cell_length_b 34.3171
_cell_length_c 33.7173
_cell_angle_alpha 90.286200
_cell_angle_beta 90.325700
_cell_angle_gamma 89.864300
loop_
  _atom_site_label
  _atom_site_type_symbol
  _atom_site_fract_x
  _atom_site_fract_y
  _atom_site_fract_z
C1 C 0.29767 0.34359 0.02357
 C2 C 0.29612 0.34204 -0.01860
 C3 C 0.32242 0.31662 -0.03847
 C4 C 0.34958 0.29193 -0.01831
 C5 C 0.35000 0.29291 0.02384
 C6 C 0.32470 0.31918 0.04375
 H7 H 0.32811 0.32263 0.07549
 H8 H 0.31952 0.31470 -0.07037
 C9 C 0.71699 0.66866 0.02091
 C10 C 0.71812 0.66887 -0.02100
 C11 C 0.69466 0.69597 -0.04198
 C12 C 0.66917 0.72270 -0.02249
 C13 C 0.66870 0.72272 0.01976
 C14 C 0.69263 0.69602 0.04058
 H15 H 0.69027 0.69551 0.07256
 H16 H 0.69827 0.69736 -0.07378
 C17 C 0.70842 0.33962 0.97635
 C18 C 0.70419 0.34163 1.01829
 C19 C 0.67672 0.31587 1.03622
 C20 C 0.65392 0.28922 1.01362
 C21 C 0.65878 0.28782 0.97203
 C22 C 0.68570 0.31299 0.95408
 H23 H 0.68934 0.31153 0.92215
 H24 H 0.67099 0.31746 1.06756
 C25 C 0.28414 0.66669 0.98254
 C26 C 0.28314 0.66624 1.02471
 C27 C 0.30962 0.69081 1.04556
 C28 C 0.33514 0.71741 1.02656
 C29 C 0.33626 0.71763 0.98429
 C30 C 0.31058 0.69226 0.96331
 H31 H 0.31377 0.68974 0.93149
 H32 H 0.30923 0.69028 1.07777
 C33 C 0.01914 0.28295 0.32737
 C34 C -0.02311 0.28442 0.33063
 C35 C -0.04466 0.31035 0.30636
 C36 C -0.02550 0.33483 0.27929
 C37 C 0.01688 0.33385 0.27626
 C38 C 0.03830 0.30712 0.29963
 H39 H 0.07056 0.30568 0.29665
 H40 H -0.07705 0.31103 0.30778
 C41 C 0.01972 0.70437 0.65894
 C42 C -0.02269 0.70394 0.66017
 C43 C -0.04109 0.67853 0.68720
 C44 C -0.01919 0.65110 0.70978
 C45 C 0.02328 0.65146 0.70758
 C46 C 0.04185 0.67832 0.68239
 H47 H 0.07412 0.67859 0.68004
 H48 H -0.07265 0.68159 0.69252
 C49 C 0.98004 0.71239 0.33305
 C50 C 1.02213 0.71439 0.32979
 C51 C 1.04201 0.68776 0.30513
 C52 C 1.02147 0.65816 0.28418
 C53 C 0.97887 0.65745 0.28599
 C54 C 0.95904 0.68468 0.31047
 H55 H 0.92686 0.68317 0.31382
 H56 H 1.07381 0.69166 0.30115
 C57 C 0.98164 0.28146 0.66669
 C58 C 1.02367 0.28882 0.66441
 C59 C 1.03940 0.32025 0.68648
 C60 C 1.01575 0.34226 0.71276
 C61 C 0.97466 0.33315 0.71654
 C62 C 0.95829 0.30321 0.69331
 H63 H 0.92639 0.29765 0.69502
 H64 H 1.07071 0.32766 0.68315
 C65 C 0.33791 0.01596 0.29207
 C66 C 0.33853 -0.02533 0.29372
 C67 C 0.31191 -0.04394 0.31948
 C68 C 0.28407 -0.02315 0.34290
 C69 C 0.28249 0.01816 0.33922
 C70 C 0.30899 0.03680 0.31345
 H71 H 0.30925 0.06841 0.31244
 H72 H 0.31158 -0.07547 0.31915
 C73 C 0.65727 0.01662 0.70600
 C74 C 0.65590 -0.02458 0.70364
 C75 C 0.68183 -0.04365 0.67703
 C76 C 0.70871 -0.02284 0.65326
 C77 C 0.70940 0.01844 0.65508
 C78 C 0.68400 0.03735 0.68220
 H79 H 0.68473 0.06878 0.68507
 H80 H 0.68027 -0.07496 0.67334
 C81 C 0.32569 0.97711 0.72161
 C82 C 0.32574 1.01855 0.72034
 C83 C 0.29807 1.03712 0.69458
 C84 C 0.27354 1.01603 0.66776
 C85 C 0.27427 0.97471 0.66971
 C86 C 0.29992 0.95610 0.69647
 H87 H 0.29984 0.92451 0.69760
 H88 H 0.29475 1.06819 0.69601
 C89 C 0.67097 0.97705 0.28351
 C90 C 0.67445 1.01822 0.28243
 C91 C 0.70201 1.03660 0.30784
 C92 C 0.72506 1.01583 0.33578
 C93 C 0.72147 0.97439 0.33636
 C94 C 0.69491 0.95598 0.31003
 H95 H 0.69236 0.92445 0.31062
 H96 H 0.70407 1.06817 0.30696
 O97 O 0.89714 0.82916 0.46503
 O98 O 0.83979 0.88840 0.53680
 O99 O 0.89543 0.83527 0.54144
 O100 O 0.84477 0.88566 0.45919
 O101 O 0.79643 0.84189 0.45981
 O102 O 0.84866 0.78990 0.54031
 O103 O 0.79276 0.84329 0.53696
 O104 O 0.84829 0.78586 0.46338
 Cu105 Cu 0.87394 0.86424 0.50055
 Cu106 Cu 0.81669 0.81088 0.50024
 C107 C 0.88237 0.79736 0.45211
 C108 C 0.80650 0.87558 0.54931
 C109 C 0.88113 0.80364 0.55439
 C110 C 0.81201 0.87242 0.44548
 O111 O 0.17267 0.12271 0.54139
 O112 O 0.10970 0.16423 0.46155
 O113 O 0.16900 0.11347 0.46543
 O114 O 0.11189 0.16959 0.53899
 O115 O 0.15372 0.21888 0.53292
 O116 O 0.21108 0.16248 0.45856
 O117 O 0.15226 0.21294 0.45594
 O118 O 0.21477 0.17183 0.53540
 Cu119 Cu 0.13645 0.13764 0.50217
 Cu120 Cu 0.18714 0.19641 0.49494
 C121 C 0.20446 0.14035 0.55197
 C122 C 0.12014 0.19603 0.44543
 C123 C 0.20018 0.12794 0.45010
 C124 C 0.12323 0.20357 0.54889
 O125 O 0.09270 0.83994 0.53693
 O126 O 0.14902 0.90019 0.46662
 O127 O 0.09530 0.84515 0.46027
 O128 O 0.14813 0.89285 0.54392
 O129 O 0.19534 0.84779 0.54100
 O130 O 0.14290 0.80046 0.45806
 O131 O 0.19607 0.85497 0.46433
 O132 O 0.14003 0.79496 0.53436
 Cu133 Cu 0.11661 0.87421 0.50219
 Cu134 Cu 0.17340 0.82013 0.49920
 C135 C 0.10659 0.80708 0.54731
 C136 C 0.18214 0.88770 0.45337
 C137 C 0.11006 0.81432 0.44523
 C138 C 0.18075 0.87826 0.55671
 O139 O 0.89753 0.16442 0.53680
 O140 O 0.84186 0.10388 0.46471
 O141 O 0.89749 0.15749 0.46031
 O142 O 0.84549 0.10727 0.54124
 O143 O 0.79543 0.14917 0.53670
 O144 O 0.85144 0.20374 0.46078
 O145 O 0.79593 0.15006 0.45990
 O146 O 0.84717 0.20625 0.53800
 Cu147 Cu 0.87545 0.12887 0.50099
 Cu148 Cu 0.81775 0.18180 0.49865
 C149 C 0.88158 0.19563 0.54975
 C150 C 0.80926 0.11678 0.45012
 C151 C 0.88404 0.18966 0.44748
 C152 C 0.81102 0.11875 0.55180
 O153 O 0.45943 0.90378 0.85135
 O154 O 0.54183 0.85296 0.90260
 O155 O 0.53691 0.90449 0.84611
 O156 O 0.46398 0.85057 0.90691
 O157 O 0.46047 0.80498 0.86060
 O158 O 0.53640 0.85688 0.80180
 O159 O 0.53897 0.80562 0.85810
 O160 O 0.45874 0.85799 0.80512
 Cu161 Cu 0.50064 0.88255 0.88132
 Cu162 Cu 0.49832 0.82658 0.82700
 C163 C 0.44564 0.89003 0.81906
 C164 C 0.55445 0.82065 0.88911
 C165 C 0.54928 0.88974 0.81377
 C166 C 0.44951 0.81874 0.89391
 O167 O 0.54804 0.16275 0.11481
 O168 O 0.46592 0.09914 0.14720
 O169 O 0.47271 0.15788 0.09995
 O170 O 0.54460 0.09936 0.15717
 O171 O 0.53511 0.13694 0.20965
 O172 O 0.46303 0.19594 0.15209
 O173 O 0.45783 0.13686 0.19984
 O174 O 0.53961 0.19994 0.16784
 Cu175 Cu 0.50894 0.12567 0.12476
 Cu176 Cu 0.49792 0.17113 0.18761
 C177 C 0.55745 0.19237 0.13568
 C178 C 0.44761 0.10761 0.17905
 C179 C 0.45573 0.18689 0.11608
 C180 C 0.55256 0.10840 0.19289
 O181 O 0.53729 0.09766 0.83995
 O182 O 0.46394 0.15307 0.89933
 O183 O 0.45924 0.09775 0.84562
 O184 O 0.54143 0.15353 0.89241
 O185 O 0.53715 0.19726 0.84470
 O186 O 0.45507 0.14201 0.79848
 O187 O 0.46027 0.19706 0.85189
 O188 O 0.53271 0.14177 0.79265
 Cu189 Cu 0.50082 0.12097 0.87405
 Cu190 Cu 0.49572 0.17382 0.81711
 C191 C 0.54763 0.11052 0.80626
 C192 C 0.45011 0.18489 0.88589
 C193 C 0.44320 0.11044 0.81396
 C194 C 0.55313 0.18501 0.87651
 O195 O 0.46188 0.83914 0.11135
 O196 O 0.53972 0.89151 0.16762
 O197 O 0.53935 0.83730 0.11114
 O198 O 0.46279 0.89123 0.16745
 O199 O 0.46324 0.84501 0.21280
 O200 O 0.54088 0.79182 0.15728
 O201 O 0.54079 0.84488 0.21260
 O202 O 0.46302 0.79243 0.15618
 Cu203 Cu 0.50121 0.86942 0.13474
 Cu204 Cu 0.50195 0.81384 0.18920
 C205 C 0.44935 0.80667 0.12413
 C206 C 0.55270 0.87764 0.20012
 C207 C 0.55268 0.80512 0.12435
 C208 C 0.45028 0.87744 0.19999
 O209 O 0.90268 0.53374 0.84623
 O210 O 0.84422 0.46233 0.90241
 O211 O 0.89662 0.45777 0.84579
 O212 O 0.84762 0.53787 0.90104
 O213 O 0.79987 0.53977 0.85556
 O214 O 0.84896 0.46071 0.80023
 O215 O 0.79667 0.46449 0.85670
 O216 O 0.85469 0.53596 0.80101
 Cu217 Cu 0.87769 0.49776 0.87840
 Cu218 Cu 0.82029 0.50055 0.82379
 C219 C 0.88867 0.54688 0.81391
 C220 C 0.81047 0.45136 0.88917
 C221 C 0.88099 0.44564 0.81352
 C222 C 0.81501 0.55207 0.88788
 O223 O 0.10164 0.53744 0.15299
 O224 O 0.15606 0.46092 0.09897
 O225 O 0.10230 0.46211 0.15647
 O226 O 0.15765 0.53695 0.10003
 O227 O 0.20482 0.53643 0.14617
 O228 O 0.15064 0.46115 0.20143
 O229 O 0.20326 0.46070 0.14510
 O230 O 0.14845 0.53700 0.19952
 Cu231 Cu 0.12475 0.49905 0.12240
 Cu232 Cu 0.18151 0.49887 0.17763
 C233 C 0.11567 0.55016 0.18553
 C234 C 0.18897 0.44802 0.11252
 C235 C 0.11698 0.44929 0.18884
 C236 C 0.19078 0.54948 0.11380
 O237 O 0.89343 0.45684 0.15142
 O238 O 0.84555 0.53667 0.09594
 O239 O 0.89989 0.53245 0.15210
 O240 O 0.83921 0.46103 0.09627
 O241 O 0.79220 0.46479 0.14192
 O242 O 0.85221 0.53748 0.19695
 O243 O 0.79845 0.54087 0.14147
 O244 O 0.84670 0.46157 0.19727
 Cu245 Cu 0.87424 0.49644 0.11936
 Cu246 Cu 0.81762 0.50155 0.17393
 C247 C 0.87814 0.44557 0.18379
 C248 C 0.81396 0.55245 0.10931
 C249 C 0.88629 0.54733 0.18387
 C250 C 0.80560 0.45041 0.10979
 O251 O 0.15818 0.53590 0.89885
 O252 O 0.11889 0.45689 0.83493
 O253 O 0.16564 0.46040 0.89730
 O254 O 0.10595 0.53111 0.84084
 O255 O 0.15567 0.53864 0.79868
 O256 O 0.21693 0.47000 0.85754
 O257 O 0.17085 0.46363 0.79531
 O258 O 0.20703 0.54515 0.85606
 Cu259 Cu 0.13213 0.49523 0.87211
 Cu260 Cu 0.19260 0.50508 0.82271
 C261 C 0.18924 0.55421 0.88792
 C262 C 0.13852 0.44674 0.80433
 C263 C 0.20155 0.45344 0.88745
 C264 C 0.12038 0.54679 0.81016
 C265 C 0.27578 0.37353 0.04700
 C266 C 0.26133 0.36658 0.08331
 C267 C 0.23930 0.39624 0.10609
 C268 C 0.21098 0.41858 0.08955
 H269 H 0.26649 0.33882 0.09756
 H270 H 0.24475 0.39777 0.13776
 H271 H 0.27146 0.40209 0.03412
 H272 H 0.20304 0.41456 0.05859
 C273 C 0.73859 0.63777 0.04354
 C274 C 0.74960 0.64109 0.08173
 C275 C 0.76910 0.60902 0.10361
 C276 C 0.79519 0.58432 0.08685
 H277 H 0.74292 0.66717 0.09851
 H278 H 0.76306 0.60705 0.13507
 H279 H 0.74481 0.61062 0.02829
 H280 H 0.80412 0.58823 0.05630
 C281 C 0.73676 0.36469 0.95474
 C282 C 0.72516 0.38465 0.92261
 C283 C 0.75101 0.41124 0.90010
 C284 C 0.78714 0.42343 0.91226
 H285 H 0.69464 0.38172 0.91198
 H286 H 0.73861 0.42220 0.87257
 H287 H 0.76693 0.36679 0.96618
 H288 H 0.79991 0.41393 0.94008
 C289 C 0.26377 0.63644 0.95817
 C290 C 0.24811 0.64373 0.92231
 C291 C 0.22948 0.61303 0.89788
 C292 C 0.20531 0.58579 0.91289
 H293 H 0.25091 0.67235 0.90929
 H294 H 0.23482 0.61392 0.86623
 H295 H 0.26209 0.60717 0.96993
 H296 H 0.19698 0.58682 0.94389
 C297 C 0.04372 0.25760 0.35377
 C298 C 0.07796 0.27034 0.37025
 C299 C 0.10323 0.24839 0.39866
 C300 C 0.09420 0.21382 0.41482
 H301 H 0.08815 0.29951 0.36359
 H302 H 0.13056 0.26292 0.40776
 H303 H 0.03271 0.22895 0.36072
 H304 H 0.06690 0.19874 0.40697
 C305 C 0.04185 0.73225 0.63391
 C306 C 0.07206 0.72076 0.61062
 C307 C 0.09508 0.74702 0.58482
 C308 C 0.08313 0.78286 0.57438
 H309 H 0.08094 0.69037 0.61044
 H310 H 0.12257 0.73526 0.57275
 H311 H 0.03278 0.76246 0.63512
 H312 H 0.05496 0.79468 0.58454
 C313 C 0.95638 0.73832 0.35947
 C314 C 0.96783 0.74744 0.39656
 C315 C 0.94468 0.77366 0.42247
 C316 C 0.90472 0.77304 0.42393
 H317 H 0.99579 0.73651 0.40841
 H318 H 0.96132 0.79170 0.44322
 H319 H 0.92781 0.74874 0.34841
 H320 H 0.88810 0.75220 0.40612
 C321 C 0.95914 0.25467 0.64008
 C322 C 0.96480 0.25331 0.60081
 C323 C 0.94268 0.22622 0.57480
 C324 C 0.90329 0.22041 0.57812
 H325 H 0.98806 0.27069 0.58745
 H326 H 0.95879 0.21315 0.55028
 H327 H 0.93556 0.23734 0.65308
 H328 H 0.88617 0.23684 0.59972
 C329 C 0.37186 0.03852 0.27676
 C330 C 0.36939 0.05879 0.24323
 C331 C 0.40377 0.08166 0.23003
 C332 C 0.41374 0.08364 0.19182
 H333 H 0.34271 0.05713 0.22485
 H334 H 0.42220 0.09591 0.25234
 H335 H 0.39955 0.03817 0.29367
 H336 H 0.39736 0.06682 0.16983
 C337 C 0.62914 0.03994 0.73015
 C338 C 0.62335 0.03387 0.76896
 C339 C 0.59451 0.05619 0.79344
 C340 C 0.57708 0.08955 0.78194
 H341 H 0.63948 0.01048 0.78348
 H342 H 0.58772 0.04442 0.82237
 H343 H 0.61410 0.06341 0.71489
 H344 H 0.58439 0.10276 0.75392
 C345 C 0.35210 0.95488 0.74904
 C346 C 0.37328 0.92390 0.73664
 C347 C 0.40144 0.90120 0.76155
 C348 C 0.41479 0.91230 0.79745
 H349 H 0.37048 0.91452 0.70603
 H350 H 0.41317 0.87475 0.74829
 H351 H 0.35408 0.96471 0.77945
 H352 H 0.40475 0.93922 0.81087
 C353 C 0.64373 0.95395 0.25788
 C354 C 0.60478 0.96202 0.25344
 C355 C 0.57850 0.93883 0.22727
 C356 C 0.58117 0.89999 0.22437
 H357 H 0.59201 0.98751 0.26759
 H358 H 0.55446 0.95404 0.21212
 H359 H 0.65611 0.92816 0.24385
 H360 H 0.60215 0.88408 0.24283
 C361 C 0.37479 0.26595 0.96034
 C362 C 0.38360 0.26979 0.92160
 C363 C 0.41029 0.24364 0.89890
 C364 C 0.42247 0.20816 0.91040
 H365 H 0.37369 0.29498 0.90518
 H366 H 0.41992 0.25465 0.87045
 H367 H 0.38893 0.24244 0.97627
 H368 H 0.41277 0.19589 0.93819
 C369 C 0.64555 0.74938 0.95557
 C370 C 0.63314 0.74311 0.91797
 C371 C 0.60316 0.76722 0.89669
 C372 C 0.58700 0.80046 0.91039
 H373 H 0.64165 0.71676 0.90246
 H374 H 0.59297 0.75573 0.86841
 H375 H 0.63465 0.77482 0.97086
 H376 H 0.59695 0.81342 0.93795
 C377 C 0.35895 0.74107 0.05178
 C378 C 0.37448 0.77589 0.04238
 C379 C 0.40180 0.79845 0.06853
 C380 C 0.41952 0.78432 0.10132
 H381 H 0.36617 0.78992 0.01493
 H382 H 0.40903 0.82763 0.05885
 H383 H 0.36240 0.73131 0.08204
 H384 H 0.41369 0.75508 0.11142
 C385 C 0.62271 0.26515 0.03264
 C386 C 0.62559 0.25121 0.06942
 C387 C 0.59511 0.22408 0.08368
 C388 C 0.58901 0.21865 0.12223
 H389 H 0.65066 0.25850 0.08852
 H390 H 0.57632 0.20916 0.06210
 H391 H 0.59677 0.25709 0.01501
 H392 H 0.60556 0.23557 0.14402
 C393 C 0.24940 0.03514 0.63895
 C394 C 0.25109 0.07309 0.62955
 C395 C 0.22444 0.08888 0.59850
 C396 C 0.23004 0.12446 0.58370
 H397 H 0.27269 0.09261 0.64284
 H398 H 0.20043 0.07078 0.58701
 H399 H 0.22885 0.01798 0.62135
 H400 H 0.25474 0.14212 0.59441
 C401 C 0.74962 0.03857 0.36120
 C402 C 0.76192 0.02877 0.39783
 C403 C 0.78801 0.05391 0.42241
 C404 C 0.78574 0.09287 0.42232
 H405 H 0.75269 0.00201 0.41154
 H406 H 0.80734 0.03951 0.44373
 H407 H 0.75733 0.06746 0.35092
 H408 H 0.76358 0.10751 0.40415
 C409 C 0.73209 0.95453 0.62399
 C410 C 0.77219 0.95335 0.62458
 C411 C 0.79615 0.93050 0.59588
 C412 C 0.78270 0.89800 0.57813
 H413 H 0.78837 0.97106 0.64595
 H414 H 0.82645 0.94018 0.59050
 H415 H 0.71531 0.93712 0.60290
 H416 H 0.75348 0.88662 0.58537
 C417 C 0.25747 0.95664 0.36801
 C418 C 0.26522 0.92091 0.38261
 C419 C 0.23954 0.89918 0.41022
 C420 C 0.20462 0.91161 0.42507
 H421 H 0.29329 0.90653 0.37636
 H422 H 0.25105 0.87099 0.41914
 H423 H 0.23054 0.97139 0.37721
 H424 H 0.19206 0.93951 0.41699
 C425 C 0.03341 0.37591 0.73446
 C426 C 0.07096 0.37621 0.74832
 C427 C 0.08505 0.40840 0.77364
 C428 C 0.12403 0.41494 0.77887
 H429 H 0.09108 0.35210 0.74243
 H430 H 0.06326 0.42737 0.78772
 H431 H 0.01433 0.40066 0.74104
 H432 H 0.14579 0.39778 0.76260
 C433 C 0.04295 0.63078 0.26092
 C434 C 0.08214 0.62265 0.26606
 C435 C 0.10441 0.59326 0.24280
 C436 C 0.09300 0.58021 0.20702
 H437 H 0.09877 0.63524 0.29051
 H438 H 0.13207 0.58266 0.25579
 H439 H 0.02676 0.61404 0.23900
 H440 H 0.06637 0.59151 0.19274
 C441 C 0.94857 0.36133 0.25611
 C442 C 0.95097 0.36459 0.21660
 C443 C 0.92886 0.39416 0.19331
 C444 C 0.89698 0.41402 0.20666
 H445 H 0.97253 0.34687 0.20074
 H446 H 0.94005 0.39998 0.16385
 H447 H 0.92713 0.37826 0.27280
 H448 H 0.88398 0.40745 0.23512
 C449 C 0.96062 0.62475 0.73494
 C450 C 0.92185 0.61496 0.73027
 C451 C 0.90010 0.58720 0.75542
 C452 C 0.91239 0.57488 0.79112
 H453 H 0.90489 0.62513 0.70496
 H454 H 0.87169 0.57710 0.74368
 H455 H 0.97752 0.61041 0.75798
 H456 H 0.94007 0.58515 0.80417
 C457 C 0.74512 0.64197 0.95691
 C458 C 0.73426 0.62528 0.92242
 C459 C 0.75850 0.59668 0.89983
 C460 C 0.79436 0.58261 0.91101
 H461 H 0.70502 0.63176 0.91007
 H462 H 0.74494 0.58595 0.87265
 H463 H 0.77361 0.63503 0.97040
 H464 H 0.80867 0.59232 0.93809
 C465 C 0.27091 0.36517 0.95706
 C466 C 0.23540 0.38037 0.96754
 C467 C 0.21131 0.40630 0.94170
 C468 C 0.22618 0.42630 0.91098
 H469 H 0.22156 0.37204 0.99509
 H470 H 0.18028 0.41038 0.94988
 H471 H 0.27981 0.36847 0.92643
 H472 H 0.25743 0.42388 0.90315
 C473 C 0.25852 0.64166 0.04795
 C474 C 0.22345 0.62583 0.03639
 C475 C 0.19998 0.59777 0.06029
 C476 C 0.21415 0.57893 0.09225
 H477 H 0.20960 0.63461 0.00883
 H478 H 0.17007 0.59123 0.04968
 H479 H 0.26766 0.63745 0.07846
 H480 H 0.24416 0.58425 0.10305
 C481 C 0.72579 0.37013 0.04049
 C482 C 0.72544 0.37468 0.08023
 C483 C 0.74859 0.40529 0.10137
 C484 C 0.78253 0.42089 0.08754
 H485 H 0.70710 0.35682 0.09897
 H486 H 0.73804 0.41372 0.13051
 H487 H 0.74351 0.39078 0.02424
 H488 H 0.79499 0.41091 0.05973
 C489 C 0.95430 0.72771 0.63413
 C490 C 0.91450 0.72440 0.62798
 C491 C 0.89182 0.74772 0.59866
 C492 C 0.90338 0.78267 0.58549
 H493 H 0.89738 0.70160 0.64173
 H494 H 0.86392 0.73537 0.58801
 H495 H 0.96990 0.74822 0.61572
 H496 H 0.93019 0.79631 0.59706
 C497 C 0.95493 0.25895 0.35884
 C498 C 0.92191 0.27093 0.37807
 C499 C 0.89845 0.24722 0.40635
 C500 C 0.90744 0.21073 0.41745
 H501 H 0.91127 0.30042 0.37372
 H502 H 0.87258 0.26143 0.41923
 H503 H 0.96652 0.23006 0.36379
 H504 H 0.93338 0.19589 0.40576
 C505 C 0.05108 0.26750 0.64083
 C506 C 0.04659 0.23004 0.62995
 C507 C 0.07285 0.20907 0.60167
 C508 C 0.10066 0.22590 0.57883
 H509 H 0.02259 0.21298 0.64232
 H510 H 0.06721 0.17816 0.59827
 H511 H 0.07887 0.28178 0.63345
 H512 H 0.10700 0.25668 0.58124
 C513 C 0.04583 0.74440 0.35130
 C514 C 0.08016 0.73515 0.36980
 C515 C 0.10257 0.76100 0.39705
 C516 C 0.08807 0.79379 0.41343
 H517 H 0.09214 0.70595 0.36659
 H518 H 0.13162 0.75027 0.40644
 H519 H 0.03307 0.77322 0.35436
 H520 H 0.05874 0.80471 0.40552
 C521 C 0.62542 0.95302 0.72632
 C522 C 0.63021 0.91585 0.73765
 C523 C 0.59991 0.89469 0.76099
 C524 C 0.57857 0.91154 0.79000
 H525 H 0.65658 0.89961 0.72913
 H526 H 0.59724 0.86363 0.75579
 H527 H 0.59797 0.96781 0.73433
 H528 H 0.58364 0.94185 0.79757
 C529 C 0.36448 0.95040 0.27148
 C530 C 0.38041 0.95978 0.23629
 C531 C 0.40744 0.93450 0.21277
 C532 C 0.42126 0.89947 0.22403
 H533 H 0.37203 0.98655 0.22199
 H534 H 0.41705 0.94634 0.18467
 H535 H 0.36885 0.92110 0.28228
 H536 H 0.41266 0.88674 0.25191
 C537 C 0.64803 0.04408 0.25872
 C538 C 0.63805 0.03759 0.22071
 C539 C 0.60819 0.06116 0.19856
 C540 C 0.58228 0.08596 0.21573
 H541 H 0.65181 0.01355 0.20492
 H542 H 0.60672 0.05656 0.16679
 H543 H 0.63778 0.07024 0.27353
 H544 H 0.58253 0.09063 0.24743
 C545 C 0.35407 0.04020 0.74320
 C546 C 0.36086 0.07878 0.73988
 C547 C 0.39269 0.10012 0.76160
 C548 C 0.41077 0.08786 0.79494
 H549 H 0.34532 0.09618 0.71817
 H550 H 0.40099 0.12805 0.74931
 H551 H 0.37360 0.02447 0.76299
 H552 H 0.40190 0.06096 0.80892
 C553 C 0.64310 0.74889 0.04424
 C554 C 0.60393 0.75414 0.03726
 C555 C 0.57874 0.78028 0.06144
 C556 C 0.58139 0.78213 0.10102
 H557 H 0.58987 0.74031 0.01187
 H558 H 0.55482 0.79570 0.04634
 H559 H 0.65667 0.76229 0.07017
 H560 H 0.60222 0.76342 0.11672
 C561 C 0.37951 0.26990 0.04753
 C562 C 0.37196 0.25689 0.08425
 C563 C 0.40146 0.23497 0.10815
 C564 C 0.42755 0.20993 0.09207
 H565 H 0.34358 0.26315 0.09822
 H566 H 0.39963 0.23768 0.14011
 H567 H 0.40866 0.26441 0.03483
 H568 H 0.42716 0.20466 0.06037
 C569 C 0.63448 0.26243 0.94570
 C570 C 0.63060 0.22400 0.95172
 C571 C 0.60248 0.19871 0.92940
 C572 C 0.58474 0.20870 0.89516
 H573 H 0.64645 0.21076 0.97634
 H574 H 0.59543 0.17092 0.94273
 H575 H 0.61968 0.27655 0.92108
 H576 H 0.59242 0.23553 0.88043
 C577 C 0.36808 0.73848 0.96173
 C578 C 0.36252 0.75241 0.92493
 C579 C 0.39428 0.77197 0.90207
 C580 C 0.41981 0.79778 0.91809
 H581 H 0.33416 0.74823 0.90989
 H582 H 0.39427 0.76728 0.87027
 H583 H 0.39723 0.74178 0.97551
 H584 H 0.41752 0.80530 0.94925
 C585 C 0.74376 0.94824 0.36324
 C586 C 0.78382 0.94719 0.36518
 C587 C 0.80608 0.92395 0.39493
 C588 C 0.79089 0.89267 0.41317
 H589 H 0.80090 0.96682 0.34679
 H590 H 0.83612 0.93353 0.40219
 H591 H 0.72589 0.92933 0.38154
 H592 H 0.76193 0.88130 0.40463
 C593 C 0.25182 0.94939 0.64179
 C594 C 0.21171 0.94845 0.64075
 C595 C 0.18852 0.92717 0.61007
 C596 C 0.20295 0.89678 0.58952
 H597 H 0.19509 0.96698 0.66094
 H598 H 0.15834 0.93733 0.60430
 H599 H 0.26940 0.93168 0.62178
 H600 H 0.23207 0.88478 0.59660
 C601 C 0.25624 0.04392 0.36344
 C602 C 0.25278 0.04023 0.40281
 C603 C 0.22660 0.06536 0.42701
 C604 C 0.22451 0.10412 0.42288
 H605 H 0.26788 0.01661 0.41795
 H606 H 0.21114 0.05159 0.45136
 H607 H 0.24162 0.06812 0.34871
 H608 H 0.24314 0.11868 0.40136
 C609 C 0.73537 0.04188 0.62828
 C610 C 0.72569 0.07799 0.61611
 C611 C 0.75012 0.10183 0.58888
 C612 C 0.78892 0.09548 0.58108
 H613 H 0.69716 0.09048 0.62434
 H614 H 0.73499 0.12617 0.57494
 H615 H 0.76210 0.02850 0.61680
 H616 H 0.80498 0.07196 0.59532
 C617 C 0.95500 0.62661 0.26527
 C618 C 0.91777 0.63247 0.25137
 C619 C 0.89436 0.60177 0.23103
 C620 C 0.91064 0.57632 0.20548
 H621 H 0.90304 0.66025 0.25570
 H622 H 0.86221 0.60225 0.23500
 H623 H 0.96812 0.59795 0.26180
 H624 H 0.94222 0.57807 0.19859
 C625 C 0.94688 0.35640 0.74150
 C626 C 0.95526 0.36617 0.77926
 C627 C 0.93204 0.39445 0.80336
 C628 C 0.90017 0.41448 0.79016
 H629 H 0.98215 0.35459 0.79293
 H630 H 0.94344 0.40037 0.83292
 H631 H 0.91898 0.36504 0.72779
 H632 H 0.88784 0.40911 0.76098
 C633 C 0.04843 0.62219 0.72895
 C634 C 0.08583 0.62942 0.74180
 C635 C 0.11062 0.60009 0.76244
 C636 C 0.09528 0.57450 0.78798
 H637 H 0.09962 0.65738 0.73659
 H638 H 0.14274 0.60173 0.75865
 H639 H 0.03613 0.59343 0.73350
 H640 H 0.06358 0.57514 0.79454
 C641 C 0.04056 0.35945 0.24955
 C642 C 0.03248 0.39735 0.24382
 C643 C 0.05504 0.42212 0.21606
 C644 C 0.09492 0.42079 0.21283
 H645 H 0.00728 0.41082 0.25851
 H646 H 0.03851 0.44479 0.20078
 H647 H 0.06650 0.34672 0.23528
 H648 H 0.11206 0.40112 0.23141
   
