data_POSCAR
  _audit_creation_date              2014-09-24
  _audit_creation_method            'ToBaCCo'
  _symmetry_space_group_name_H-M    'P1'
  _symmetry_Int_Tables_number       1
  _symmetry_cell_setting            triclinic
  loop_
  _symmetry_equiv_pos_as_xyz
 x,y,z
_cell_length_a 35.2569
_cell_length_b 33.5940
_cell_length_c 25.7493
_cell_angle_alpha 90.289500
_cell_angle_beta 91.216600
_cell_angle_gamma 86.592200
loop_
  _atom_site_label
  _atom_site_type_symbol
  _atom_site_fract_x
  _atom_site_fract_y
  _atom_site_fract_z
C1 C 1.23446 0.22245 0.20703
 C2 C 1.26426 0.24220 0.17480
 C3 C 1.28421 0.26915 0.20246
 C4 C 1.27235 0.27427 0.25952
 C5 C 1.25678 0.20469 0.25398
 C6 C 1.27666 0.23174 0.28127
 C7 C 1.20937 0.25699 0.22933
 C8 C 1.22907 0.28403 0.25698
 H9 H 1.27073 0.23370 0.13505
 H10 H 1.28839 0.29640 0.28185
 H11 H 1.25900 0.17297 0.26253
 H12 H 1.17853 0.25862 0.22616
 C13 C 0.72557 -0.27114 0.17256
 C14 C 0.74894 -0.23768 0.15321
 C15 C 0.76477 -0.21635 0.19247
 C16 C 0.75583 -0.23079 0.24781
 C17 C 0.75232 -0.29669 0.20803
 C18 C 0.76796 -0.27582 0.24775
 C19 C 0.69656 -0.25106 0.20872
 C20 C 0.71213 -0.23018 0.24809
 H21 H 0.75234 -0.23115 0.11234
 H22 H 0.76875 -0.21351 0.27981
 H23 H 0.75621 -0.32893 0.20444
 H24 H 0.66601 -0.25282 0.20332
 C25 C 0.72418 0.22981 -0.32729
 C26 C 0.74512 0.26253 -0.34643
 C27 C 0.76293 0.28437 -0.30540
 C28 C 0.75625 0.26899 -0.25296
 C29 C 0.75127 0.20502 -0.29642
 C30 C 0.76887 0.22643 -0.25500
 C31 C 0.69735 0.24746 -0.29060
 C32 C 0.71478 0.26889 -0.24962
 H33 H 0.74795 0.26928 -0.38738
 H34 H 0.76996 0.28584 -0.22109
 H35 H 0.75507 0.17279 -0.30069
 H36 H 0.66660 0.24646 -0.29496
 C37 C 1.23691 -0.27837 -0.29240
 C38 C 1.26726 -0.25910 -0.32421
 C39 C 1.28692 -0.23199 -0.29638
 C40 C 1.27432 -0.22629 -0.23979
 C41 C 1.25851 -0.29578 -0.24468
 C42 C 1.27814 -0.26856 -0.21734
 C43 C 1.21168 -0.24351 -0.27125
 C44 C 1.23118 -0.21636 -0.24357
 H45 H 1.27414 -0.26785 -0.36373
 H46 H 1.29016 -0.20403 -0.21737
 H47 H 1.26075 -0.32746 -0.23585
 H48 H 1.18086 -0.24178 -0.27505
 C49 C 0.23099 0.21122 0.78566
 C50 C 0.25431 0.23260 0.82237
 C51 C 0.27658 0.26105 0.79785
 C52 C 0.27146 0.26315 0.74170
 C53 C 0.20705 0.24338 0.75554
 C54 C 0.22838 0.27060 0.73243
 C55 C 0.25872 0.19280 0.74596
 C56 C 0.28019 0.22010 0.72322
 H57 H 0.25668 0.22589 0.86361
 H58 H 0.28860 0.28541 0.72252
 H59 H 0.17617 0.24511 0.75383
 H60 H 0.26474 0.16082 0.74196
 C61 C 0.71418 0.72956 0.81856
 C62 C 0.73486 0.76059 0.84428
 C63 C 0.75827 0.78100 0.80920
 C64 C 0.75641 0.76614 0.75522
 C65 C 0.69280 0.74912 0.77613
 C66 C 0.71590 0.76901 0.74112
 C67 C 0.74279 0.70301 0.79408
 C68 C 0.76602 0.72307 0.75878
 H69 H 0.73293 0.76772 0.88541
 H70 H 0.77447 0.78199 0.72811
 H71 H 0.66226 0.74751 0.76983
 H72 H 0.74404 0.67070 0.79777
 C73 C 0.71584 0.22823 0.32099
 C74 C 0.73771 0.26092 0.34727
 C75 C 0.75958 0.28039 0.31365
 C76 C 0.75761 0.26507 0.25676
 C77 C 0.69329 0.24878 0.27652
 C78 C 0.71495 0.26765 0.24272
 C79 C 0.74573 0.20062 0.29446
 C80 C 0.76739 0.21976 0.26040
 H81 H 0.73573 0.26837 0.38826
 H82 H 0.77544 0.28096 0.22952
 H83 H 0.66282 0.24669 0.27055
 H84 H 0.74691 0.16834 0.29808
 C85 C 0.22903 0.71050 0.28342
 C86 C 0.25463 0.73247 0.32153
 C87 C 0.27614 0.75916 0.29774
 C88 C 0.27001 0.76183 0.23859
 C89 C 0.20544 0.74334 0.25425
 C90 C 0.22691 0.77019 0.23075
 C91 C 0.25611 0.69182 0.24322
 C92 C 0.27783 0.71867 0.22013
 H93 H 0.25687 0.72618 0.36286
 H94 H 0.28739 0.78377 0.21928
 H95 H 0.17456 0.74560 0.25311
 H96 H 0.26158 0.65978 0.23907
 O97 O 1.05066 0.07305 0.09105
 O98 O 1.09238 0.03556 0.04074
 C99 C 1.08474 0.06252 0.07620
 O100 O 0.94625 -0.06429 0.09196
 O101 O 0.90164 -0.02559 0.04566
 C102 C 0.91137 -0.05333 0.07951
 O103 O 1.05110 -0.06587 0.09550
 O104 O 1.09250 -0.03436 0.04423
 C105 C 1.08510 -0.05880 0.08126
 O106 O 0.94564 0.08335 0.08687
 O107 O 0.90119 0.04738 0.04385
 C108 C 0.91086 0.07603 0.07487
 Zr109 Zr 0.99748 0.05508 0.06421
 O110 O 0.99797 0.04939 0.14592
 O111 O 1.00052 0.11771 0.06897
 Zr112 Zr 0.99781 -0.04376 0.06626
 O113 O 0.99821 -0.03664 0.14788
 O114 O 1.00098 -0.10672 0.07092
 O115 O 1.03249 0.00385 0.07448
 O116 O 0.96381 0.00786 0.07517
 O117 O 0.94166 0.08384 -0.08453
 O118 O 0.89912 0.04709 -0.04206
 C119 C 0.90742 0.07643 -0.07203
 O120 O 1.04681 -0.06806 -0.09530
 O121 O 1.09078 -0.03569 -0.04642
 C122 C 1.08158 -0.06071 -0.08268
 O123 O 0.94164 -0.06705 -0.08807
 O124 O 0.89938 -0.02730 -0.04131
 C125 C 0.90742 -0.05602 -0.07444
 O126 O 1.04608 0.07016 -0.09593
 O127 O 1.09033 0.03286 -0.04747
 C128 C 1.08087 0.05910 -0.08306
 Zr129 Zr 0.99388 0.05300 -0.06739
 O130 O 0.98620 0.04574 -0.14868
 O131 O 0.99682 0.11483 -0.07993
 Zr132 Zr 0.99438 -0.04612 -0.06479
 O133 O 0.98829 -0.04795 -0.14674
 O134 O 0.99693 -0.10898 -0.05908
 Zr135 Zr 1.05316 0.00147 -0.00173
 Zr136 Zr 0.93825 0.00807 0.00062
 O137 O 0.95988 0.00543 -0.07487
 O138 O 1.02831 0.00139 -0.07706
 O139 O 0.96226 0.06411 -0.00096
 O140 O 1.02931 -0.05438 0.00020
 O141 O 1.02833 0.05998 -0.00248
 O142 O 0.96225 -0.05088 0.00156
 H143 H 0.94707 0.00949 0.10564
 H144 H 1.04633 -0.07894 0.00045
 H145 H 0.94124 0.00638 -0.10426
 H146 H 1.04450 0.08308 -0.00326
 H147 H 0.98738 -0.11655 0.03984
 H148 H 0.99670 -0.11932 -0.09519
 H149 H 1.00770 -0.03129 -0.16117
 H150 H 1.01135 0.03840 -0.16348
 H151 H 0.99702 0.12756 -0.04526
 H152 H 0.98473 0.12931 0.03999
 H153 H 0.99744 0.07693 0.15994
 H154 H 0.99827 -0.06386 0.16255
 O155 O 1.05200 0.57229 0.59722
 O156 O 1.09295 0.53525 0.54528
 C157 C 1.08584 0.56189 0.58127
 O158 O 0.94732 0.43446 0.59776
 O159 O 0.90226 0.47397 0.55351
 C160 C 0.91228 0.44540 0.58610
 O161 O 1.05225 0.43382 0.59973
 O162 O 1.09300 0.46553 0.54764
 C163 C 1.08604 0.44102 0.58475
 O164 O 0.94698 0.58301 0.59574
 O165 O 0.90194 0.54775 0.55294
 C166 C 0.91202 0.57619 0.58410
 Zr167 Zr 0.99838 0.55469 0.57149
 O168 O 0.99989 0.54792 0.65306
 O169 O 1.00166 0.61724 0.57762
 Zr170 Zr 0.99857 0.45586 0.57187
 O171 O 0.99966 0.46215 0.65360
 O172 O 1.00205 0.39287 0.57561
 O173 O 1.03343 0.50335 0.58001
 O174 O 0.96472 0.50740 0.58245
 O175 O 0.94063 0.58475 0.42424
 O176 O 0.89867 0.54751 0.46713
 C177 C 0.90657 0.57700 0.43725
 O178 O 1.04555 0.43281 0.40891
 O179 O 1.09011 0.46489 0.45702
 C180 C 1.08049 0.43996 0.42084
 O181 O 0.94050 0.43475 0.41799
 O182 O 0.89892 0.47387 0.46674
 C183 C 0.90652 0.44582 0.43259
 O184 O 1.04490 0.57152 0.41032
 O185 O 1.08978 0.53375 0.45710
 C186 C 1.07984 0.56030 0.42206
 Zr187 Zr 0.99314 0.55403 0.43989
 O188 O 0.98448 0.54781 0.35861
 O189 O 0.99597 0.61602 0.42854
 Zr190 Zr 0.99361 0.45489 0.44082
 O191 O 0.98671 0.45385 0.35895
 O192 O 0.99588 0.39198 0.44559
 Zr193 Zr 1.05315 0.50178 0.50325
 Zr194 Zr 0.93834 0.50844 0.50846
 O195 O 0.95910 0.50657 0.43243
 O196 O 1.02739 0.50250 0.42850
 O197 O 0.96238 0.56448 0.50723
 O198 O 1.02928 0.44593 0.50494
 O199 O 1.02838 0.56031 0.50414
 O200 O 0.96228 0.44946 0.50778
 H201 H 0.94821 0.50867 0.61318
 H202 H 1.04627 0.42135 0.50449
 H203 H 0.94020 0.50790 0.40335
 H204 H 1.04454 0.58342 0.50331
 H205 H 0.98845 0.38324 0.54443
 H206 H 0.99501 0.38198 0.40933
 H207 H 1.00598 0.47064 0.34443
 H208 H 1.00936 0.54025 0.34318
 H209 H 0.99583 0.62838 0.46342
 H210 H 0.98576 0.62926 0.54903
 H211 H 0.99971 0.57527 0.66766
 H212 H 0.99995 0.43476 0.66780
 O213 O 0.58329 -0.06776 0.56662
 O214 O 0.54115 -0.10960 0.52930
 C215 C 0.57256 -0.10280 0.55437
 O216 O 0.44766 0.04902 0.61069
 O217 O 0.47444 0.09332 0.55685
 C218 C 0.45355 0.08493 0.59567
 O219 O 0.45150 -0.06178 0.60877
 O220 O 0.47541 -0.10623 0.54791
 C221 C 0.45646 -0.09753 0.58971
 O222 O 0.58637 0.04136 0.56277
 O223 O 0.54198 0.08980 0.53561
 C224 C 0.57529 0.07825 0.55430
 Zr225 Zr 0.55779 -0.01119 0.55048
 O226 O 0.56412 -0.01153 0.63225
 O227 O 0.61750 -0.01714 0.54351
 Zr228 Zr 0.46642 -0.00659 0.57893
 O229 O 0.48656 -0.00850 0.65678
 O230 O 0.40911 -0.00587 0.60168
 O231 O 0.51401 -0.04574 0.57254
 O232 O 0.51385 0.02659 0.57573
 O233 O 0.55674 0.04793 0.40006
 O234 O 0.52735 0.09298 0.45536
 C235 C 0.55079 0.08370 0.41858
 O236 O 0.42031 -0.05448 0.42440
 O237 O 0.46124 -0.10304 0.46003
 C238 C 0.43134 -0.09146 0.43234
 O239 O 0.41605 0.05566 0.44000
 O240 O 0.46028 0.09685 0.47325
 C241 C 0.42784 0.09065 0.45077
 O242 O 0.55029 -0.06149 0.38718
 O243 O 0.52671 -0.10647 0.44307
 C244 C 0.54583 -0.09749 0.40267
 Zr245 Zr 0.53437 -0.00628 0.42167
 O246 O 0.51356 0.00233 0.34450
 O247 O 0.58991 -0.01215 0.39220
 Zr248 Zr 0.44288 -0.00144 0.45113
 O249 O 0.42830 0.00669 0.37153
 O250 O 0.38515 -0.00127 0.47191
 Zr251 Zr 0.50080 -0.06656 0.49720
 Zr252 Zr 0.50057 0.05339 0.50351
 O253 O 0.48705 0.03201 0.42895
 O254 O 0.48700 -0.03979 0.42460
 O255 O 0.55371 0.02522 0.48553
 O256 O 0.44779 -0.03824 0.51505
 O257 O 0.55351 -0.04306 0.48208
 O258 O 0.44729 0.03155 0.51916
 H259 H 0.51939 0.04438 0.60543
 H260 H 0.42551 -0.05429 0.52032
 H261 H 0.48207 0.05195 0.40102
 H262 H 0.57632 -0.06056 0.47442
 H263 H 0.39364 0.00539 0.57217
 H264 H 0.37002 0.00075 0.43904
 H265 H 0.44151 -0.01525 0.35198
 H266 H 0.50674 -0.02392 0.33073
 H267 H 0.60745 -0.00815 0.42197
 H268 H 0.62282 -0.01190 0.50673
 H269 H 0.59177 -0.01106 0.63958
 H270 H 0.46364 -0.00692 0.67847
 O271 O 0.42203 0.44527 -0.08125
 O272 O 0.46210 0.39629 -0.04487
 C273 C 0.43254 0.40819 -0.07300
 O274 O 0.55913 0.54718 -0.10061
 O275 O 0.52996 0.59168 -0.04428
 C276 C 0.55347 0.58272 -0.08119
 O277 O 0.55275 0.43817 -0.11510
 O278 O 0.52865 0.39273 -0.06013
 C279 C 0.54838 0.40204 -0.09998
 O280 O 0.41852 0.55504 -0.06440
 O281 O 0.46218 0.59577 -0.02866
 C282 C 0.43010 0.58985 -0.05218
 Zr283 Zr 0.44519 0.49773 -0.05400
 O284 O 0.43856 0.50375 -0.13538
 O285 O 0.38573 0.49743 -0.04458
 Zr286 Zr 0.53718 0.49271 -0.07902
 O287 O 0.51802 0.49913 -0.15698
 O288 O 0.59469 0.48737 -0.10108
 O289 O 0.48959 0.45930 -0.07876
 O290 O 0.48990 0.53137 -0.07332
 O291 O 0.44590 0.54690 0.10627
 O292 O 0.47432 0.59160 0.05490
 C293 C 0.45226 0.58292 0.09232
 O294 O 0.58158 0.42902 0.06679
 O295 O 0.54031 0.38797 0.02583
 C296 C 0.57098 0.39424 0.05278
 O297 O 0.58585 0.53904 0.06574
 O298 O 0.54257 0.58782 0.03631
 C299 C 0.57531 0.57597 0.05651
 O300 O 0.44975 0.43646 0.10344
 O301 O 0.47446 0.39218 0.04301
 C302 C 0.45483 0.40080 0.08428
 Zr303 Zr 0.46600 0.49156 0.07528
 O304 O 0.48660 0.48895 0.15289
 O305 O 0.40933 0.49311 0.10078
 Zr306 Zr 0.55805 0.48656 0.04988
 O307 O 0.56867 0.48741 0.13113
 O308 O 0.61680 0.48094 0.03409
 Zr309 Zr 0.50135 0.43209 -0.00603
 Zr310 Zr 0.50167 0.55191 0.00217
 O311 O 0.51361 0.52435 0.07425
 O312 O 0.51345 0.45221 0.06998
 O313 O 0.44796 0.52988 0.01513
 O314 O 0.55456 0.45508 -0.01876
 O315 O 0.44822 0.46083 0.01004
 O316 O 0.55503 0.52387 -0.01412
 H317 H 0.48568 0.55154 -0.10115
 H318 H 0.57730 0.43732 -0.02588
 H319 H 0.51859 0.54182 0.10448
 H320 H 0.42565 0.44503 0.01420
 H321 H 0.61004 0.49128 -0.06902
 H322 H 0.63049 0.47898 0.06813
 H323 H 0.55813 0.46328 0.14568
 H324 H 0.46383 0.49086 0.17484
 H325 H 0.39296 0.49125 0.06938
 H326 H 0.37980 0.51226 -0.01219
 H327 H 0.41081 0.50670 -0.14247
 H328 H 0.54124 0.50006 -0.17782
 C329 C 1.16851 0.13811 0.13977
 C330 C 1.17638 0.11610 0.09436
 C331 C 1.15021 0.08948 0.07475
 C332 C 1.21270 0.19248 0.17920
 C333 C 1.10905 0.10607 0.14678
 C334 C 1.13512 0.13230 0.16629
 C335 C 1.19356 0.16748 0.15957
 C336 C 1.11578 0.08493 0.10017
 H337 H 1.20224 0.12015 0.07354
 H338 H 1.15616 0.07379 0.03879
 H339 H 1.08300 0.10316 0.16763
 H340 H 1.12875 0.14881 0.20162
 C341 C 1.17070 0.63712 0.64207
 C342 C 1.17778 0.61508 0.59649
 C343 C 1.15125 0.58854 0.57781
 C344 C 1.21529 0.69155 0.67997
 C345 C 1.11135 0.60525 0.65113
 C346 C 1.13779 0.63140 0.66973
 C347 C 1.19602 0.66648 0.66088
 C348 C 1.11726 0.58412 0.60436
 H349 H 1.20327 0.61908 0.57481
 H350 H 1.15655 0.57283 0.54167
 H351 H 1.08564 0.60243 0.67279
 H352 H 1.13206 0.64797 0.70521
 C353 C 0.65866 0.16325 0.58471
 C354 C 0.62028 0.17630 0.57937
 C355 C 0.59282 0.14888 0.56858
 C356 C 0.70511 0.20853 0.63527
 C357 C 0.64244 0.09570 0.56697
 C358 C 0.66972 0.12309 0.57747
 C359 C 0.68507 0.18874 0.60863
 C360 C 0.60362 0.10814 0.56375
 H361 H 0.61140 0.20730 0.58607
 H362 H 0.56319 0.15928 0.56581
 H363 H 0.65178 0.06461 0.56237
 H364 H 0.69923 0.11260 0.58253
 C365 C 0.65956 0.66013 0.08450
 C366 C 0.62143 0.67371 0.07779
 C367 C 0.59362 0.64647 0.06836
 C368 C 0.70613 0.70601 0.13318
 C369 C 0.64244 0.59242 0.07118
 C370 C 0.67006 0.61960 0.08030
 C371 C 0.68609 0.68588 0.10725
 C372 C 0.60385 0.60546 0.06628
 H373 H 0.61301 0.70506 0.08227
 H374 H 0.56418 0.65731 0.06418
 H375 H 0.65136 0.56107 0.06865
 H376 H 0.69937 0.60880 0.08659
 C377 C 0.83002 -0.12571 0.14981
 C378 C 0.86647 -0.12354 0.17147
 C379 C 0.89206 -0.09852 0.14985
 C380 C 0.78707 -0.18284 0.18103
 C381 C 0.84438 -0.07578 0.08588
 C382 C 0.81873 -0.10121 0.10751
 C383 C 0.80601 -0.15594 0.16789
 C384 C 0.88176 -0.07511 0.10587
 H385 H 0.87565 -0.14232 0.20402
 H386 H 0.92043 -0.09848 0.16681
 H387 H 0.83548 -0.05798 0.05241
 H388 H 0.79059 -0.10273 0.09019
 C389 C 0.83038 0.37117 0.65342
 C390 C 0.86795 0.36994 0.67200
 C391 C 0.89383 0.39522 0.65138
 C392 C 0.78533 0.31521 0.68368
 C393 C 0.84455 0.42477 0.59443
 C394 C 0.81858 0.39911 0.61505
 C395 C 0.80530 0.34149 0.67090
 C396 C 0.88282 0.42242 0.61146
 H397 H 0.87761 0.34854 0.70147
 H398 H 0.92289 0.39263 0.66602
 H399 H 0.83499 0.44546 0.56416
 H400 H 0.78959 0.40036 0.60008
 C401 C 0.37983 -0.17753 0.65254
 C402 C 0.39650 -0.18619 0.60455
 C403 C 0.42432 -0.16216 0.58579
 C404 C 0.31995 -0.21404 0.68408
 C405 C 0.42023 -0.12215 0.66424
 C406 C 0.39268 -0.14627 0.68298
 C407 C 0.34757 -0.19825 0.66916
 C408 C 0.43539 -0.12893 0.61461
 H409 H 0.38682 -0.21036 0.58064
 H410 H 0.43523 -0.16801 0.54736
 H411 H 0.42817 -0.09688 0.68748
 H412 H 0.38014 -0.13935 0.72026
 C413 C 0.37715 0.32230 0.14825
 C414 C 0.39185 0.31440 0.09882
 C415 C 0.41998 0.33778 0.07933
 C416 C 0.31717 0.28693 0.18218
 C417 C 0.42005 0.37556 0.15970
 C418 C 0.39222 0.35211 0.17915
 C419 C 0.34476 0.30228 0.16620
 C420 C 0.43334 0.36958 0.10890
 H421 H 0.38045 0.29138 0.07449
 H422 H 0.42934 0.33271 0.03998
 H423 H 0.42977 0.39976 0.18350
 H424 H 0.38125 0.35844 0.21749
 C425 C 0.82767 0.15906 -0.14872
 C426 C 0.86145 0.17180 -0.12684
 C427 C 0.88601 0.14511 -0.09922
 C428 C 0.78847 0.20585 -0.21611
 C429 C 0.84229 0.09282 -0.11215
 C430 C 0.81768 0.11971 -0.14033
 C431 C 0.80573 0.18517 -0.18412
 C432 C 0.87731 0.10504 -0.09285
 H433 H 0.86965 0.20197 -0.13299
 H434 H 0.91268 0.15548 -0.08438
 H435 H 0.83504 0.06213 -0.10812
 H436 H 0.79167 0.10936 -0.15734
 C437 C 0.82660 0.65785 0.35914
 C438 C 0.85947 0.67154 0.38255
 C439 C 0.88400 0.64543 0.41104
 C440 C 0.78827 0.70322 0.28968
 C441 C 0.84184 0.59195 0.39607
 C442 C 0.81728 0.61824 0.36705
 C443 C 0.80514 0.68317 0.32254
 C444 C 0.87611 0.60509 0.41669
 H445 H 0.86710 0.70195 0.37674
 H446 H 0.91015 0.65639 0.42684
 H447 H 0.83532 0.56099 0.39951
 H448 H 0.79197 0.60721 0.34884
 C449 C 0.35187 0.18163 0.38687
 C450 C 0.39104 0.18693 0.38769
 C451 C 0.41621 0.15879 0.41238
 C452 C 0.30403 0.21885 0.32085
 C453 C 0.36280 0.12129 0.43712
 C454 C 0.33782 0.14955 0.41323
 C455 C 0.32645 0.20415 0.35218
 C456 C 0.40222 0.12489 0.43526
 H457 H 0.40224 0.21143 0.36683
 H458 H 0.44653 0.16197 0.41029
 H459 H 0.35139 0.09551 0.45489
 H460 H 0.30764 0.14495 0.41250
 C461 C 0.35370 0.68166 -0.11240
 C462 C 0.39287 0.68685 -0.11255
 C463 C 0.41827 0.65835 -0.08908
 C464 C 0.30547 0.71877 -0.17774
 C465 C 0.36509 0.62075 -0.06359
 C466 C 0.33989 0.64938 -0.08621
 C467 C 0.32803 0.70420 -0.14658
 C468 C 0.40446 0.62424 -0.06656
 H469 H 0.40384 0.71149 -0.13336
 H470 H 0.44857 0.66141 -0.09190
 H471 H 0.35389 0.59480 -0.04597
 H472 H 0.30970 0.64488 -0.08628
 C473 C 1.16644 -0.13179 -0.16526
 C474 C 1.17671 -0.11220 -0.11923
 C475 C 1.14960 -0.08779 -0.09277
 C476 C 1.21147 -0.18476 -0.21458
 C477 C 1.10236 -0.10220 -0.15883
 C478 C 1.12934 -0.12617 -0.18515
 C479 C 1.19244 -0.15977 -0.19123
 C480 C 1.11188 -0.08317 -0.11187
 H481 H 1.20533 -0.11643 -0.10327
 H482 H 1.15781 -0.07359 -0.05675
 H483 H 1.07374 -0.09908 -0.17504
 H484 H 1.12096 -0.14113 -0.22060
 C485 C 1.16456 0.36823 0.33696
 C486 C 1.17539 0.38855 0.38220
 C487 C 1.14854 0.41310 0.40903
 C488 C 1.20947 0.31547 0.28663
 C489 C 1.10035 0.39740 0.34499
 C490 C 1.12706 0.37326 0.31831
 C491 C 1.19048 0.34033 0.31043
 C492 C 1.11047 0.41723 0.39114
 H493 H 1.20430 0.38484 0.39726
 H494 H 1.15727 0.42785 0.44442
 H495 H 1.07146 0.40004 0.32968
 H496 H 1.11819 0.35778 0.28349
 C497 C 0.63003 -0.17241 0.33145
 C498 C 0.60772 -0.14510 0.30142
 C499 C 0.57721 -0.12342 0.32340
 C500 C 0.68743 -0.20909 0.28371
 C501 C 0.58932 -0.15847 0.40477
 C502 C 0.62012 -0.18013 0.38264
 C503 C 0.66251 -0.19246 0.30822
 C504 C 0.56855 -0.12892 0.37574
 H505 H 0.61477 -0.13950 0.26145
 H506 H 0.56180 -0.10059 0.30045
 H507 H 0.58367 -0.16262 0.44552
 H508 H 0.63694 -0.20170 0.40590
 C509 C 0.63503 0.32826 -0.16885
 C510 C 0.61323 0.35580 -0.19921
 C511 C 0.58205 0.37706 -0.17817
 C512 C 0.69208 0.29019 -0.21611
 C513 C 0.59253 0.34135 -0.09705
 C514 C 0.62398 0.32007 -0.11825
 C515 C 0.66754 0.30769 -0.19165
 C516 C 0.57209 0.37097 -0.12640
 H517 H 0.62103 0.36173 -0.23879
 H518 H 0.56700 0.39996 -0.20141
 H519 H 0.58597 0.33674 -0.05668
 H520 H 0.64028 0.29824 -0.09475
 C521 C 1.16360 0.12910 -0.15219
 C522 C 1.12739 0.12745 -0.17476
 C523 C 1.10121 0.10303 -0.15362
 C524 C 1.20824 0.18152 -0.19032
 C525 C 1.14799 0.08006 -0.08839
 C526 C 1.17423 0.10484 -0.10958
 C527 C 1.18873 0.15715 -0.17210
 C528 C 1.11084 0.07982 -0.10938
 H529 H 1.11899 0.14591 -0.20793
 H530 H 1.07300 0.10327 -0.17113
 H531 H 1.15627 0.06237 -0.05457
 H532 H 1.20235 0.10582 -0.09200
 C533 C 1.16161 0.62970 0.34904
 C534 C 1.12484 0.62837 0.32819
 C535 C 1.09896 0.60430 0.35072
 C536 C 1.20612 0.68123 0.30818
 C537 C 1.14699 0.58110 0.41411
 C538 C 1.17295 0.60553 0.39150
 C539 C 1.18663 0.65727 0.32751
 C540 C 1.10939 0.58107 0.39470
 H541 H 1.11584 0.64676 0.29519
 H542 H 1.07038 0.60473 0.33436
 H543 H 1.15589 0.56342 0.44769
 H544 H 1.20148 0.60626 0.40780
 C545 C 0.63570 0.16319 0.38258
 C546 C 0.60964 0.17380 0.42114
 C547 C 0.57974 0.14941 0.43036
 C548 C 0.69013 0.20700 0.35280
 C549 C 0.60131 0.10509 0.36092
 C550 C 0.63095 0.12943 0.35178
 C551 C 0.66587 0.18788 0.37048
 C552 C 0.57594 0.11422 0.40119
 H553 H 0.61269 0.20045 0.44436
 H554 H 0.56068 0.15718 0.46171
 H555 H 0.59919 0.07831 0.33771
 H556 H 0.65054 0.12163 0.32095
 C557 C 0.63696 0.66412 -0.11878
 C558 C 0.61089 0.67432 -0.08002
 C559 C 0.58174 0.64909 -0.06990
 C560 C 0.68991 0.70927 -0.15091
 C561 C 0.60413 0.60455 -0.13859
 C562 C 0.63303 0.62969 -0.14859
 C563 C 0.66626 0.68973 -0.13215
 C564 C 0.57860 0.61347 -0.09841
 H565 H 0.61328 0.70140 -0.05746
 H566 H 0.56257 0.65674 -0.03863
 H567 H 0.60261 0.57745 -0.16132
 H568 H 0.65261 0.62206 -0.17949
 C569 C 0.82405 -0.13197 -0.13982
 C570 C 0.81511 -0.10848 -0.09589
 C571 C 0.84118 -0.08192 -0.07565
 C572 C 0.77995 -0.18851 -0.17432
 C573 C 0.88456 -0.10157 -0.14401
 C574 C 0.85859 -0.12771 -0.16420
 C575 C 0.79936 -0.16219 -0.15863
 C576 C 0.87670 -0.07896 -0.09876
 H577 H 0.78845 -0.11143 -0.07653
 H578 H 0.83420 -0.06498 -0.04097
 H579 H 0.91141 -0.09988 -0.16332
 H580 H 0.86597 -0.14546 -0.19817
 C581 C 0.82366 0.37093 0.36584
 C582 C 0.81620 0.39051 0.41322
 C583 C 0.84190 0.41711 0.43405
 C584 C 0.78152 0.31324 0.33080
 C585 C 0.88167 0.40549 0.35930
 C586 C 0.85602 0.37931 0.33853
 C587 C 0.80007 0.34009 0.34664
 C588 C 0.87550 0.42391 0.40794
 H589 H 0.79124 0.38423 0.43485
 H590 H 0.83647 0.43071 0.47153
 H591 H 0.90711 0.41033 0.33791
 H592 H 0.86216 0.36452 0.30190
 C593 C 0.35616 -0.17462 0.36634
 C594 C 0.35406 -0.13494 0.35043
 C595 C 0.37926 -0.10853 0.37110
 C596 C 0.30485 -0.21965 0.32462
 C597 C 0.40993 -0.16162 0.42319
 C598 C 0.38434 -0.18821 0.40236
 C599 C 0.32879 -0.20043 0.34498
 C600 C 0.40718 -0.12130 0.40829
 H601 H 0.33257 -0.12422 0.32230
 H602 H 0.37648 -0.07784 0.35817
 H603 H 0.43122 -0.17233 0.45149
 H604 H 0.38627 -0.21906 0.41466
 C605 C 0.35587 0.32550 -0.13614
 C606 C 0.38506 0.31165 -0.10183
 C607 C 0.41117 0.33811 -0.08215
 C608 C 0.30396 0.28077 -0.17663
 C609 C 0.37902 0.39158 -0.13208
 C610 C 0.35328 0.36529 -0.15161
 C611 C 0.32815 0.29978 -0.15660
 C612 C 0.40795 0.37855 -0.09650
 H613 H 0.38740 0.28069 -0.09001
 H614 H 0.43326 0.32717 -0.05513
 H615 H 0.37581 0.42238 -0.14450
 H616 H 0.33101 0.37618 -0.17851
 C617 C 1.16946 -0.13591 0.15808
 C618 C 1.13733 -0.12105 0.18437
 C619 C 1.11110 -0.09418 0.16007
 C620 C 1.20971 -0.19572 0.20322
 C621 C 1.14996 -0.09472 0.08354
 C622 C 1.17620 -0.12210 0.10794
 C623 C 1.19289 -0.16791 0.18160
 C624 C 1.11657 -0.08149 0.10894
 H625 H 1.13171 -0.13147 0.22307
 H626 H 1.08576 -0.08434 0.18072
 H627 H 1.15469 -0.08567 0.04401
 H628 H 1.20089 -0.13355 0.08704
 C629 C 1.17107 0.36447 0.66027
 C630 C 1.17699 0.37745 0.60951
 C631 C 1.15054 0.40472 0.58543
 C632 C 1.21115 0.30458 0.70498
 C633 C 1.11323 0.40682 0.66350
 C634 C 1.13967 0.38008 0.68750
 C635 C 1.19440 0.33241 0.68350
 C636 C 1.11781 0.41860 0.61181
 H637 H 1.20111 0.36537 0.58795
 H638 H 1.15452 0.41311 0.54544
 H639 H 1.08838 0.41724 0.68483
 H640 H 1.13474 0.37025 0.72668
 C641 C 0.65438 -0.18421 0.62316
 C642 C 0.66585 -0.15483 0.58983
 C643 C 0.63859 -0.13081 0.56290
 C644 C 0.69974 -0.21495 0.69697
 C645 C 0.58828 -0.16769 0.59890
 C646 C 0.61571 -0.19177 0.62603
 C647 C 0.68080 -0.20142 0.66112
 C648 C 0.59961 -0.13581 0.56931
 H649 H 0.69557 -0.14857 0.58755
 H650 H 0.64781 -0.10632 0.54003
 H651 H 0.55841 -0.17170 0.60472
 H652 H 0.60658 -0.21432 0.65218
 C653 C 0.65207 0.31273 0.12150
 C654 C 0.61334 0.30581 0.12543
 C655 C 0.58599 0.32982 0.09818
 C656 C 0.69764 0.28360 0.19585
 C657 C 0.63647 0.36514 0.05985
 C658 C 0.66367 0.34118 0.08690
 C659 C 0.67849 0.29630 0.15981
 C660 C 0.59754 0.36093 0.06742
 H661 H 0.60416 0.28399 0.15260
 H662 H 0.55611 0.32653 0.10486
 H663 H 0.64576 0.38913 0.03612
 H664 H 0.69345 0.34693 0.08386
 C665 C 0.83165 0.15301 0.15771
 C666 C 0.86625 0.16658 0.14208
 C667 C 0.89092 0.14190 0.11297
 C668 C 0.79011 0.19735 0.22309
 C669 C 0.84584 0.09017 0.11241
 C670 C 0.82109 0.11502 0.14203
 C671 C 0.80860 0.17730 0.19265
 C672 C 0.88148 0.10307 0.09889
 H673 H 0.87473 0.19584 0.15376
 H674 H 0.91801 0.15290 0.10261
 H675 H 0.83794 0.06040 0.10226
 H676 H 0.79431 0.10419 0.15400
 C677 C 0.83179 0.65583 0.66268
 C678 C 0.86855 0.66687 0.65335
 C679 C 0.89382 0.64125 0.62644
 C680 C 0.78820 0.70166 0.72425
 C681 C 0.84543 0.59342 0.61585
 C682 C 0.82004 0.61924 0.64329
 C683 C 0.80755 0.68108 0.69522
 C684 C 0.88293 0.60385 0.60820
 H685 H 0.87806 0.69496 0.66802
 H686 H 0.92229 0.65061 0.62065
 H687 H 0.83622 0.56492 0.60232
 H688 H 0.79162 0.61026 0.65043
 C689 C 0.37801 0.17167 0.66460
 C690 C 0.39301 0.13937 0.69406
 C691 C 0.42015 0.11253 0.67301
 C692 C 0.31520 0.20725 0.69939
 C693 C 0.41982 0.15221 0.59448
 C694 C 0.39224 0.17887 0.61545
 C695 C 0.34443 0.19308 0.68234
 C696 C 0.43270 0.11791 0.62232
 H697 H 0.38197 0.13353 0.73207
 H698 H 0.42973 0.08639 0.69522
 H699 H 0.42880 0.15675 0.55508
 H700 H 0.38050 0.20363 0.59225
 C701 C 0.37487 0.66874 0.16019
 C702 C 0.38969 0.63630 0.18952
 C703 C 0.41728 0.60977 0.16882
 C704 C 0.31248 0.70512 0.19564
 C705 C 0.41764 0.64988 0.09074
 C706 C 0.38959 0.67624 0.11138
 C707 C 0.34144 0.69048 0.17815
 C708 C 0.43054 0.61558 0.11857
 H709 H 0.37834 0.63020 0.22727
 H710 H 0.42682 0.58360 0.19099
 H711 H 0.42710 0.65472 0.05165
 H712 H 0.37804 0.70113 0.08825
   
