data_POSCAR
  _audit_creation_date              2014-09-24
  _audit_creation_method            'ToBaCCo'
  _symmetry_space_group_name_H-M    'P1'
  _symmetry_Int_Tables_number       1
  _symmetry_cell_setting            triclinic
  loop_
  _symmetry_equiv_pos_as_xyz
 x,y,z
_cell_length_a 32.2977
_cell_length_b 32.3716
_cell_length_c 32.0508
_cell_angle_alpha 89.978000
_cell_angle_beta 89.932200
_cell_angle_gamma 89.957100
loop_
  _atom_site_label
  _atom_site_type_symbol
  _atom_site_fract_x
  _atom_site_fract_y
  _atom_site_fract_z
C1 C 0.15458 0.18732 0.21394
 C2 C 0.15798 0.22008 0.18553
 C3 C 0.18963 0.22033 0.15635
 C4 C 0.21777 0.18736 0.15473
 C5 C 0.21349 0.15438 0.18172
 C6 C 0.18172 0.15444 0.21171
 C7 C 0.12758 0.17952 0.24622
 N8 N 0.13730 0.14238 0.26375
 C9 C 0.17027 0.12675 0.24222
 C10 C 0.24376 0.12614 0.17163
 N11 N 0.26686 0.14127 0.13936
 C12 C 0.25086 0.17892 0.12907
 C13 C 0.18388 0.25447 0.13134
 N14 N 0.14923 0.27434 0.14436
 C15 C 0.13316 0.25369 0.17744
 H16 H 0.10214 0.19932 0.25536
 H17 H 0.18618 0.09813 0.24904
 H18 H 0.24887 0.09716 0.18763
 H19 H 0.26121 0.19843 0.10372
 H20 H 0.20195 0.26283 0.10414
 H21 H 0.10451 0.26155 0.19312
 C22 C -0.15515 0.81291 0.21788
 C23 C -0.15537 0.78304 0.18617
 C24 C -0.18313 0.78639 0.15342
 C25 C -0.21191 0.81892 0.15270
 C26 C -0.21224 0.84772 0.18442
 C27 C -0.18297 0.84528 0.21663
 C28 C -0.12964 0.81937 0.25164
 N29 N -0.14051 0.85559 0.27045
 C30 C -0.17349 0.87128 0.24912
 C31 C -0.24394 0.87497 0.17632
 N32 N -0.26301 0.86374 0.14011
 C33 C -0.24297 0.82958 0.12533
 C34 C -0.17471 0.75462 0.12612
 N35 N -0.14294 0.73196 0.14181
 C36 C -0.13094 0.74899 0.17853
 H37 H -0.10339 0.80027 0.25991
 H38 H -0.18975 0.89962 0.25636
 H39 H -0.25172 0.90150 0.19528
 H40 H -0.25126 0.81231 0.09770
 H41 H -0.19028 0.74854 0.09686
 H42 H -0.10552 0.73806 0.19757
 C43 C -0.15532 0.18099 -0.21321
 C44 C -0.15419 0.21040 -0.18107
 C45 C -0.18612 0.21229 -0.15230
 C46 C -0.21902 0.18412 -0.15472
 C47 C -0.22061 0.15589 -0.18695
 C48 C -0.18865 0.15452 -0.21661
 C49 C -0.12800 0.17104 -0.24458
 N50 N -0.14403 0.13935 -0.26750
 C51 C -0.18140 0.12937 -0.25044
 C52 C -0.25491 0.13151 -0.18046
 N53 N -0.27372 0.14338 -0.14428
 C54 C -0.25187 0.17594 -0.12869
 C55 C -0.17738 0.24419 -0.12531
 N56 N -0.14086 0.26144 -0.13693
 C57 C -0.12618 0.24077 -0.17071
 H58 H -0.09894 0.18659 -0.25049
 H59 H -0.20129 0.10439 -0.26043
 H60 H -0.26348 0.10519 -0.19935
 H61 H -0.25889 0.19263 -0.10031
 H62 H -0.19619 0.25428 -0.09924
 H63 H -0.09777 0.24805 -0.18708
 C64 C 0.15256 0.82100 -0.21249
 C65 C 0.15184 0.78920 -0.18279
 C66 C 0.18400 0.78520 -0.15452
 C67 C 0.21674 0.81375 -0.15491
 C68 C 0.21704 0.84526 -0.18395
 C69 C 0.18523 0.84838 -0.21351
 C70 C 0.12571 0.83218 -0.24378
 N71 N 0.14158 0.86538 -0.26457
 C72 C 0.17815 0.87537 -0.24592
 C73 C 0.25049 0.86993 -0.17531
 N74 N 0.27091 0.85450 -0.14146
 C75 C 0.25050 0.81956 -0.12932
 C76 C 0.17511 0.75159 -0.12970
 N77 N 0.13828 0.73550 -0.14208
 C78 C 0.12373 0.75838 -0.17438
 H79 H 0.09746 0.81599 -0.25155
 H80 H 0.19791 0.90105 -0.25428
 H81 H 0.25888 0.89725 -0.19278
 H82 H 0.25776 0.80091 -0.10229
 H83 H 0.19371 0.73999 -0.10416
 H84 H 0.09499 0.75270 -0.19076
 C85 C 0.18060 1.15165 0.78904
 C86 C 0.21119 1.15123 0.82004
 C87 C 0.21408 1.18371 0.84800
 C88 C 0.18560 1.21640 0.84604
 C89 C 0.15523 1.21641 0.81582
 C90 C 0.15328 1.18432 0.78655
 C91 C 0.17067 1.12456 0.75757
 N92 N 0.13833 1.14033 0.73529
 C93 C 0.12760 1.17701 0.75320
 C94 C 0.13018 1.24993 0.82313
 N95 N 0.14435 1.27060 0.85734
 C96 C 0.17883 1.25032 0.87102
 C97 C 0.24668 1.17522 0.87429
 N98 N 0.26320 1.13828 0.86310
 C99 C 0.24167 1.12325 0.83013
 H100 H 0.18711 1.09623 0.75073
 H101 H 0.10225 1.19670 0.74367
 H102 H 0.10349 1.25817 0.80458
 H103 H 0.19640 1.25773 0.89873
 H104 H 0.25734 1.19416 0.89995
 H105 H 0.24806 1.09432 0.81445
 C106 C 0.82083 0.84838 0.78815
 C107 C 0.79043 0.84894 0.81934
 C108 C 0.78751 0.81649 0.84728
 C109 C 0.81563 0.78353 0.84489
 C110 C 0.84507 0.78265 0.81365
 C111 C 0.84745 0.81518 0.78482
 C112 C 0.83128 0.87606 0.75742
 N113 N 0.86341 0.86034 0.73482
 C114 C 0.87328 0.82287 0.75156
 C115 C 0.86903 0.74808 0.81993
 N116 N 0.85557 0.72814 0.85493
 C117 C 0.82248 0.74978 0.86998
 C118 C 0.75477 0.82492 0.87348
 N119 N 0.73805 0.86173 0.86211
 C120 C 0.75984 0.87683 0.82927
 H121 H 0.81553 0.90497 0.75147
 H122 H 0.89837 0.80305 0.74153
 H123 H 0.89598 0.73995 0.80162
 H124 H 0.80443 0.74207 0.89732
 H125 H 0.74384 0.80575 0.89890
 H126 H 0.75322 0.90552 0.81321
 C127 C 0.18405 0.84483 1.21497
 C128 C 0.21706 0.84167 1.18674
 C129 C 0.21734 0.81063 1.15703
 C130 C 0.18408 0.78292 1.15470
 C131 C 0.15086 0.78695 1.18175
 C132 C 0.15098 0.81804 1.21216
 C133 C 0.17626 0.87110 1.24772
 N134 N 0.13896 0.86119 1.26498
 C135 C 0.12322 0.82886 1.24282
 C136 C 0.12247 0.75702 1.17140
 N137 N 0.13788 0.73475 1.13906
 C138 C 0.17553 0.75028 1.12861
 C139 C 0.25194 0.81643 1.13255
 N140 N 0.27202 0.85054 1.14641
 C141 C 0.25105 0.86618 1.17951
 H142 H 0.19619 0.89616 1.25741
 H143 H 0.09451 0.81291 1.24934
 H144 H 0.09296 0.75153 1.18647
 H145 H 0.19495 0.73894 1.10355
 H146 H 0.26053 0.79877 1.10518
 H147 H 0.25905 0.89433 1.19586
 C148 C 0.81563 1.15340 1.21393
 C149 C 0.78287 1.15534 1.18542
 C150 C 0.78140 1.18670 1.15610
 C151 C 0.81325 1.21612 1.15449
 C152 C 0.84632 1.21327 1.18181
 C153 C 0.84744 1.18171 1.21177
 C154 C 0.82425 1.12701 1.24634
 N155 N 0.86091 1.13827 1.26401
 C156 C 0.87543 1.17160 1.24245
 C157 C 0.87349 1.24446 1.17192
 N158 N 0.85752 1.26633 1.13957
 C159 C 0.82066 1.24934 1.12870
 C160 C 0.74727 1.17963 1.13140
 N161 N 0.72866 1.14442 1.14472
 C162 C 0.75007 1.12943 1.17781
 H163 H 0.80539 1.10091 1.25548
 H164 H 0.90338 1.18863 1.24943
 H165 H 0.90277 1.25080 1.18703
 H166 H 0.80126 1.25980 1.10327
 H167 H 0.73787 1.19747 1.10444
 H168 H 0.74297 1.10107 1.19424
 O169 O 0.44003 1.07506 1.07055
 O170 O 0.39544 1.03127 1.03655
 C171 C 0.40317 1.06182 1.06150
 O172 O 0.55503 1.06967 0.92238
 O173 O 0.60182 1.03560 0.96392
 C174 C 0.59248 1.06104 0.93416
 O175 O 0.43890 1.07114 0.92865
 O176 O 0.39496 1.02948 0.96599
 C177 C 0.40215 1.05880 0.93941
 O178 O 0.55625 1.07403 1.07433
 O179 O 0.60264 1.03551 1.03629
 C180 C 0.59366 1.06329 1.06400
 Zr181 Zr 0.49859 1.05096 1.05313
 O182 O 0.49796 1.11607 1.05843
 O183 O 0.49751 1.04523 1.11878
 Zr184 Zr 0.49786 1.04927 0.94754
 O185 O 0.50052 1.11461 0.94642
 O186 O 0.49235 1.04794 0.88175
 O187 O 0.46124 1.05723 1.00047
 O188 O 0.53391 1.05884 0.99985
 O189 O 0.56047 0.92970 1.07895
 O190 O 0.60440 0.96669 1.03671
 C191 C 0.59716 0.94055 1.06641
 O192 O 0.44364 0.91906 0.93091
 O193 O 0.39722 0.95908 0.96733
 C194 C 0.40629 0.93002 0.94105
 O195 O 0.55999 0.92555 0.92707
 O196 O 0.60424 0.96677 0.96453
 C197 C 0.59679 0.93838 0.93708
 O198 O 0.44421 0.92170 1.07496
 O199 O 0.39751 0.95998 1.03732
 C200 C 0.40666 0.93169 1.06441
 Zr201 Zr 0.50163 0.94678 1.05493
 O202 O 0.50848 0.88173 1.05618
 O203 O 0.49760 0.94828 1.12083
 Zr204 Zr 0.50115 0.94481 0.94946
 O205 O 0.50742 0.87972 0.94968
 O206 O 0.49642 0.94489 0.88356
 Zr207 Zr 0.43826 0.99627 1.00173
 Zr208 Zr 0.56134 0.99991 1.00067
 O209 O 0.53753 0.93938 1.00209
 O210 O 0.46470 0.93667 1.00261
 O211 O 0.53717 1.00016 1.06179
 O212 O 0.46355 0.99588 0.94116
 O213 O 0.46396 0.99806 1.06197
 O214 O 0.53636 0.99799 0.93997
 H215 H 0.55196 1.08356 0.99906
 H216 H 0.44472 0.99501 0.91679
 H217 H 0.55686 0.91560 1.00251
 H218 H 0.44510 0.99806 1.08638
 H219 H 0.51495 1.03031 0.87092
 H220 H 0.52091 0.95956 0.87241
 H221 H 0.48592 0.86857 0.96856
 H222 H 0.48572 0.86981 1.03946
 H223 H 0.51796 0.96888 1.13074
 H224 H 0.49614 1.07378 1.12981
 H225 H 0.50394 1.12729 1.03042
 H226 H 0.47764 1.12501 0.96411
 O227 O -0.07324 0.55700 0.07456
 O228 O -0.03834 0.60255 0.03246
 C229 C -0.06413 0.59419 0.06228
 O230 O 0.07761 0.44454 0.06985
 O231 O 0.03762 0.39787 0.03430
 C232 C 0.06700 0.40704 0.06024
 O233 O 0.07112 0.56034 0.07181
 O234 O 0.03089 0.60438 0.03290
 C235 C 0.05888 0.59702 0.06093
 O236 O -0.07552 0.44055 0.07031
 O237 O -0.03347 0.39581 0.03418
 C238 C -0.06314 0.40364 0.06034
 Zr239 Zr -0.05273 0.49902 0.05120
 O240 O -0.05128 0.49448 0.11709
 O241 O -0.11815 0.50259 0.05272
 Zr242 Zr 0.05182 0.50157 0.05030
 O243 O 0.05041 0.49771 0.11625
 O244 O 0.11706 0.50763 0.05145
 O245 O -0.00132 0.53729 0.05853
 O246 O 0.00051 0.46443 0.05874
 O247 O -0.07594 0.43873 -0.07254
 O248 O -0.03388 0.39506 -0.03535
 C249 C -0.06345 0.40207 -0.06170
 O250 O 0.07062 0.55892 -0.07810
 O251 O 0.03050 0.60354 -0.03975
 C252 C 0.05841 0.59578 -0.06779
 O253 O 0.07678 0.44308 -0.07384
 O254 O 0.03743 0.39706 -0.03633
 C255 C 0.06612 0.40592 -0.06314
 O256 O -0.07411 0.55489 -0.07919
 O257 O -0.03869 0.60158 -0.03877
 C258 C -0.06488 0.59224 -0.06785
 Zr259 Zr -0.05352 0.49775 -0.05436
 O260 O -0.05403 0.49199 -0.12014
 O261 O -0.11899 0.50126 -0.05360
 Zr262 Zr 0.05116 0.50051 -0.05531
 O263 O 0.04841 0.49543 -0.12113
 O264 O 0.11636 0.50640 -0.05801
 Zr265 Zr -0.00243 0.56108 -0.00271
 Zr266 Zr 0.00092 0.43834 -0.00141
 O267 O -0.00026 0.46317 -0.06209
 O268 O -0.00217 0.53593 -0.06339
 O269 O -0.06020 0.46142 -0.00111
 O270 O 0.05812 0.53696 -0.00292
 O271 O -0.06167 0.53399 -0.00194
 O272 O 0.06068 0.46448 -0.00217
 H273 H 0.00106 0.44584 0.08330
 H274 H 0.08212 0.55601 -0.00325
 H275 H 0.00002 0.44409 -0.08626
 H276 H -0.08647 0.55202 -0.00196
 H277 H 0.12856 0.48649 0.03242
 H278 H 0.12813 0.48627 -0.03806
 H279 H 0.03514 0.52080 -0.13197
 H280 H -0.03599 0.51398 -0.13147
 H281 H -0.12930 0.47785 -0.03670
 H282 H -0.12887 0.48068 0.03416
 H283 H -0.03528 0.51832 0.12765
 H284 H 0.03609 0.52264 0.12681
 O285 O 1.08075 -0.06539 0.55886
 O286 O 1.03815 -0.03044 0.60414
 C287 C 1.06827 -0.05560 0.59612
 O288 O 1.06796 0.08045 0.44005
 O289 O 1.03393 0.03703 0.39497
 C290 C 1.05873 0.06745 0.40283
 O291 O 1.07170 0.07817 0.55784
 O292 O 1.03402 0.03878 0.60388
 C293 C 1.06141 0.06668 0.59530
 O294 O 1.07667 -0.07042 0.44146
 O295 O 1.03553 -0.03444 0.39560
 C296 C 1.06418 -0.06113 0.40409
 Zr297 Zr 1.05575 -0.04808 0.50007
 O298 O 1.12114 -0.04673 0.49585
 O299 O 1.05510 -0.11331 0.50261
 Zr300 Zr 1.05050 0.05616 0.49914
 O301 O 1.11589 0.05761 0.49441
 O302 O 1.04884 0.12139 0.50278
 O303 O 1.06120 0.00481 0.53687
 O304 O 1.06060 0.00405 0.46331
 O305 O 0.93349 -0.07936 0.44264
 O306 O 0.96690 -0.03663 0.39637
 C307 C 0.94231 -0.06705 0.40513
 O308 O 0.92067 0.06923 0.55771
 O309 O 0.96352 0.03552 0.60362
 C310 C 0.93317 0.06029 0.59514
 O311 O 0.92442 0.07181 0.44028
 O312 O 0.96572 0.03529 0.39499
 C313 C 0.93696 0.06198 0.40307
 O314 O 0.93047 -0.07491 0.55954
 O315 O 0.96750 -0.03407 0.60466
 C316 C 0.94067 -0.06269 0.59671
 Zr317 Zr 0.95103 -0.05328 0.50058
 O318 O 0.88559 -0.05428 0.49648
 O319 O 0.95280 -0.11847 0.50460
 Zr320 Zr 0.94566 0.05091 0.49929
 O321 O 0.88034 0.04847 0.49489
 O322 O 0.94343 0.11618 0.50322
 Zr323 Zr 1.00078 0.00205 0.56175
 Zr324 Zr 1.00066 0.00084 0.43786
 O325 O 0.94079 -0.00195 0.46366
 O326 O 0.94030 -0.00124 0.53729
 O327 O 1.00376 -0.05906 0.46330
 O328 O 0.99767 0.06148 0.53522
 O329 O 1.00394 -0.05788 0.53656
 O330 O 0.99765 0.06132 0.46206
 H331 H 1.08481 0.00496 0.44432
 H332 H 0.99630 0.08596 0.55373
 H333 H 0.91655 -0.00333 0.44479
 H334 H 1.00545 -0.08205 0.55547
 H335 H 1.02816 0.13104 0.48224
 H336 H 0.95746 0.12739 0.47821
 H337 H 0.87054 0.02881 0.51635
 H338 H 0.87444 -0.04198 0.52243
 H339 H 0.97734 -0.12767 0.48859
 H340 H 1.08449 -0.12209 0.50252
 H341 H 1.13098 -0.02579 0.51597
 H342 H 1.12728 0.04487 0.52001
 C343 C 1.12143 0.08151 0.30473
 C344 C 1.11794 0.12437 0.29728
 C345 C 1.09420 0.14816 0.32557
 C346 C 1.07556 0.12988 0.36043
 C347 C 1.07889 0.08728 0.36697
 C348 C 1.10152 0.06319 0.33873
 H349 H 1.13833 0.06163 0.28365
 H350 H 1.09116 0.18122 0.32193
 H351 H 1.05810 0.14888 0.38200
 H352 H 1.10425 0.03012 0.34334
 C353 C 0.90483 -0.14917 0.33059
 C354 C 0.87949 -0.12599 0.30328
 C355 C 0.87583 -0.08308 0.31034
 C356 C 0.89717 -0.06406 0.34293
 C357 C 0.92150 -0.08751 0.37017
 C358 C 0.92496 -0.13018 0.36414
 H359 H 0.90812 -0.18222 0.32710
 H360 H 0.85779 -0.06357 0.28989
 H361 H 0.89420 -0.03099 0.34728
 H362 H 0.94361 -0.14869 0.38511
 C363 C 0.85086 0.09758 0.66991
 C364 C 0.87444 0.12038 0.69903
 C365 C 0.91766 0.12286 0.69285
 C366 C 0.93658 0.10263 0.65941
 C367 C 0.91275 0.08073 0.63045
 C368 C 0.86979 0.07863 0.63559
 H369 H 0.81757 0.09540 0.67261
 H370 H 0.93738 0.13905 0.71461
 H371 H 0.96990 0.10449 0.65582
 H372 H 0.85098 0.06182 0.61337
 C373 C 1.08135 -0.11907 0.69342
 C374 C 1.12407 -0.11515 0.70176
 C375 C 1.14821 -0.09084 0.67429
 C376 C 1.13036 -0.07206 0.63930
 C377 C 1.08788 -0.07590 0.63189
 C378 C 1.06345 -0.09909 0.65933
 H379 H 1.06116 -0.13635 0.71391
 H380 H 1.18120 -0.08741 0.67871
 H381 H 1.14957 -0.05408 0.61835
 H382 H 1.03044 -0.10213 0.65405
 C383 C 0.32863 1.14474 1.09632
 C384 C 0.29985 1.12207 1.12047
 C385 C 0.30610 1.07905 1.12455
 C386 C 0.33933 1.05952 1.10473
 C387 C 0.36780 1.08248 1.08137
 C388 C 0.36252 1.12520 1.07760
 H389 H 0.32606 1.17785 1.09287
 H390 H 0.28475 1.05993 1.14192
 H391 H 0.34327 1.02650 1.10827
 H392 H 0.38444 1.14340 1.05977
 C393 C 0.31450 0.91413 0.87109
 C394 C 0.30429 0.87223 0.87809
 C395 C 0.32908 0.84952 0.90635
 C396 C 0.36279 0.86802 0.92648
 C397 C 0.37177 0.90974 0.91967
 C398 C 0.34749 0.93262 0.89198
 H399 H 0.29631 0.93350 0.85068
 H400 H 0.32334 0.81717 0.91232
 H401 H 0.38154 0.84993 0.94773
 H402 H 0.35433 0.96489 0.88626
 C403 C 0.67678 0.90829 1.14616
 C404 C 0.70330 0.88269 1.12233
 C405 C 0.69384 0.87687 1.07972
 C406 C 0.65960 0.89627 1.06165
 C407 C 0.63316 0.92076 1.08589
 C408 C 0.64173 0.92649 1.12824
 H409 H 0.68197 0.91319 1.17910
 H410 H 0.71353 0.85848 1.05971
 H411 H 0.65344 0.89180 1.02873
 H412 H 0.62155 0.94545 1.14731
 C413 C 0.68611 1.12815 0.91768
 C414 C 0.69321 1.12422 0.87436
 C415 C 0.66589 1.09917 0.85104
 C416 C 0.63257 1.07919 0.87033
 C417 C 0.62670 1.08259 0.91344
 C418 C 0.65372 1.10692 0.93701
 H419 H 0.70652 1.14609 0.93727
 H420 H 0.66935 1.09581 0.81766
 H421 H 0.61176 1.06054 0.85172
 H422 H 0.64949 1.10979 0.97044
 C423 C 0.09084 0.30101 0.10380
 C424 C 0.12931 0.30751 0.12276
 C425 C 0.14810 0.34640 0.12015
 C426 C 0.12791 0.37894 0.09980
 C427 C 0.08915 0.37261 0.08083
 C428 C 0.07122 0.33308 0.08245
 H429 H 0.07630 0.27091 0.10526
 H430 H 0.17796 0.35162 0.13452
 H431 H 0.14269 0.40894 0.09874
 H432 H 0.04177 0.32704 0.06769
 C433 C -0.14455 0.33268 -0.11024
 C434 C -0.12166 0.29655 -0.11770
 C435 C -0.07971 0.29525 -0.10663
 C436 C -0.06101 0.32939 -0.08777
 C437 C -0.08364 0.36589 -0.08095
 C438 C -0.12554 0.36733 -0.09257
 H439 H -0.17693 0.33420 -0.11884
 H440 H -0.06167 0.26756 -0.11209
 H441 H -0.02869 0.32746 -0.07905
 H442 H -0.14369 0.39502 -0.08744
 C443 C 0.14060 0.66422 -0.11537
 C444 C 0.11805 0.70025 -0.12410
 C445 C 0.07551 0.70144 -0.11512
 C446 C 0.05600 0.66742 -0.09678
 C447 C 0.07852 0.63126 -0.08827
 C448 C 0.12088 0.62978 -0.09813
 H449 H 0.17337 0.66269 -0.12236
 H450 H 0.05767 0.72904 -0.12155
 H451 H 0.02327 0.66920 -0.08950
 H452 H 0.13892 0.60232 -0.09156
 C453 C -0.11155 0.69964 0.07999
 C454 C -0.12375 0.69716 0.12190
 C455 C -0.11638 0.66063 0.14428
 C456 C -0.09762 0.62674 0.12477
 C457 C -0.08481 0.62941 0.08295
 C458 C -0.09165 0.66631 0.06087
 H459 H -0.11671 0.72774 0.06240
 H460 H -0.12565 0.65827 0.17667
 H461 H -0.09245 0.59876 0.14256
 H462 H -0.08194 0.66929 0.02867
 C463 C 1.12413 0.07995 0.69312
 C464 C 1.12012 0.12268 0.70104
 C465 C 1.09679 0.14670 0.67268
 C466 C 1.07866 0.12869 0.63753
 C467 C 1.08226 0.08621 0.63068
 C468 C 1.10478 0.06189 0.65874
 H469 H 1.14079 0.05990 0.71423
 H470 H 1.09346 0.17969 0.67665
 H471 H 1.06115 0.14778 0.61609
 H472 H 1.10752 0.02886 0.65391
 C473 C 0.87951 -0.07794 0.69538
 C474 C 0.88232 -0.12107 0.70145
 C475 C 0.90505 -0.14451 0.67212
 C476 C 0.92337 -0.12557 0.63755
 C477 C 0.92069 -0.08275 0.63234
 C478 C 0.89913 -0.05898 0.66161
 H479 H 0.86345 -0.05835 0.71741
 H480 H 0.90752 -0.17770 0.67478
 H481 H 0.94011 -0.14425 0.61512
 H482 H 0.89705 -0.02575 0.65801
 C483 C 1.07793 -0.12364 0.30616
 C484 C 1.12092 -0.12020 0.29884
 C485 C 1.14484 -0.09722 0.32751
 C486 C 1.12650 -0.07897 0.36244
 C487 C 1.08378 -0.08206 0.36876
 C488 C 1.05954 -0.10413 0.34033
 H489 H 1.05797 -0.14004 0.28479
 H490 H 1.17799 -0.09433 0.32399
 H491 H 1.14554 -0.06180 0.38416
 H492 H 1.02635 -0.10649 0.34478
 C493 C 0.92214 0.12467 0.30534
 C494 C 0.87935 0.11990 0.29775
 C495 C 0.85598 0.09583 0.32604
 C496 C 0.87462 0.07783 0.36089
 C497 C 0.91715 0.08224 0.36750
 C498 C 0.94091 0.10537 0.33942
 H499 H 0.94166 0.14198 0.28422
 H500 H 0.82295 0.09195 0.32233
 H501 H 0.85595 0.05991 0.38239
 H502 H 0.97396 0.10877 0.34413
 C503 C 0.08416 0.31421 -0.13248
 C504 C 0.12589 0.30406 -0.12402
 C505 C 0.14769 0.32889 -0.09515
 C506 C 0.12845 0.36252 -0.07573
 C507 C 0.08690 0.37144 -0.08392
 C508 C 0.06487 0.34719 -0.11227
 H509 H 0.06549 0.29597 -0.15347
 H510 H 0.17992 0.32324 -0.08814
 H511 H 0.14584 0.38129 -0.05394
 H512 H 0.03271 0.35398 -0.11895
 C513 C -0.14565 0.33631 0.10944
 C514 C -0.12287 0.30071 0.11939
 C515 C -0.08058 0.29907 0.10957
 C516 C -0.06140 0.33234 0.08973
 C517 C -0.08389 0.36827 0.08039
 C518 C -0.12616 0.37011 0.09061
 H519 H -0.17828 0.33814 0.11697
 H520 H -0.06259 0.27176 0.11681
 H521 H -0.02881 0.33029 0.08234
 H522 H -0.14418 0.39746 0.08354
 C523 C -0.13409 0.68410 -0.08475
 C524 C -0.12633 0.69419 -0.12695
 C525 C -0.09852 0.66888 -0.14957
 C526 C -0.07914 0.63511 -0.13059
 C527 C -0.08636 0.62640 -0.08850
 C528 C -0.11392 0.65093 -0.06573
 H529 H -0.15438 0.70259 -0.06551
 H530 H -0.09215 0.67437 -0.18221
 H531 H -0.05798 0.61616 -0.14857
 H532 H -0.11993 0.64428 -0.03316
 C533 C 0.14044 0.66432 0.11058
 C534 C 0.11792 0.70030 0.11946
 C535 C 0.07573 0.70220 0.10914
 C536 C 0.05648 0.66875 0.08957
 C537 C 0.07893 0.63253 0.08119
 C538 C 0.12098 0.63048 0.09209
 H539 H 0.17294 0.66227 0.11858
 H540 H 0.05796 0.72983 0.11566
 H541 H 0.02397 0.67090 0.08156
 H542 H 0.13894 0.60292 0.08570
 C543 C 0.29533 1.07695 0.89473
 C544 C 0.29783 1.11850 0.88264
 C545 C 0.33461 1.14046 0.88948
 C546 C 0.36878 1.12087 0.90747
 C547 C 0.36624 1.07934 0.91999
 C548 C 0.32905 1.05769 0.91391
 H549 H 0.26705 1.05970 0.88981
 H550 H 0.33699 1.17252 0.88015
 H551 H 0.39701 1.13831 0.91210
 H552 H 0.32624 1.02573 0.92345
 C553 C 0.34394 0.85018 1.12114
 C554 C 0.30583 0.87040 1.12570
 C555 C 0.30075 0.91029 1.10958
 C556 C 0.33334 0.92977 1.08886
 C557 C 0.37199 0.91015 1.08508
 C558 C 0.37707 0.87017 1.10148
 H559 H 0.34809 0.81928 1.13339
 H560 H 0.27130 0.92602 1.11263
 H561 H 0.32844 0.96042 1.07629
 H562 H 0.40644 0.85425 1.09868
 C563 C 0.65892 1.14641 1.11397
 C564 C 0.69462 1.12417 1.12470
 C565 C 0.69698 1.08189 1.11534
 C566 C 0.66427 1.06218 1.09506
 C567 C 0.62826 1.08426 1.08489
 C568 C 0.62566 1.12645 1.09475
 H569 H 0.65669 1.17904 1.12105
 H570 H 0.72448 1.06438 1.12314
 H571 H 0.66681 1.02957 1.08786
 H572 H 0.59820 1.14406 1.08694
 C573 C 0.66708 0.85762 0.88987
 C574 C 0.70254 0.88098 0.88074
 C575 C 0.70276 0.92343 0.88951
 C576 C 0.66830 0.94214 0.90791
 C577 C 0.63267 0.91886 0.91672
 C578 C 0.63217 0.87654 0.90722
 H579 H 0.66630 0.82489 0.88299
 H580 H 0.72991 0.94186 0.88273
 H581 H 0.66931 0.97486 0.91493
 H582 H 0.60512 0.85795 0.91406
   
