data_POSCAR
  _audit_creation_date              2014-09-24
  _audit_creation_method            'ToBaCCo'
  _symmetry_space_group_name_H-M    'P1'
  _symmetry_Int_Tables_number       1
  _symmetry_cell_setting            triclinic
  loop_
  _symmetry_equiv_pos_as_xyz
 x,y,z
_cell_length_a 21.0113
_cell_length_b 20.9218
_cell_length_c 20.9218
_cell_angle_alpha 90.159500
_cell_angle_beta 89.906700
_cell_angle_gamma 90.093300
loop_
  _atom_site_label
  _atom_site_type_symbol
  _atom_site_fract_x
  _atom_site_fract_y
  _atom_site_fract_z
C1 C 1.25141 0.25011 0.25100
 C2 C 0.75007 -0.25076 0.25073
 C3 C 0.75024 0.24980 -0.24983
 C4 C 1.25141 -0.25103 -0.25014
 C5 C 0.25001 0.25105 0.74892
 C6 C 0.74889 0.75010 0.74950
 C7 C 0.74889 0.25047 0.24987
 C8 C 0.24957 0.75011 0.24986
 N9 N 0.93405 0.11280 0.06984
 N10 N 0.89310 0.15849 0.08419
 N11 N 1.06780 0.06861 0.11402
 N12 N 1.10861 0.08321 0.15973
 N13 N 1.06771 0.11299 0.06966
 N14 N 1.10847 0.15890 0.08410
 N15 N 0.93410 0.06855 0.11433
 N16 N 0.89315 0.08310 0.16010
 C17 C 0.86727 0.13863 0.13992
 C18 C 1.13428 0.13893 0.13968
 N19 N 1.06803 -0.11431 0.06978
 N20 N 1.10829 -0.16044 0.08460
 N21 N 0.93422 -0.06972 0.11418
 N22 N 0.89328 -0.08407 0.15992
 N23 N 0.93422 -0.11421 0.06969
 N24 N 0.89328 -0.15994 0.08404
 N25 N 1.06803 -0.06981 0.11428
 N26 N 1.10829 -0.08463 0.16041
 Mn27 Mn 1.00104 -0.00057 0.11466
 C28 C 1.13382 -0.14062 0.14059
 C29 C 0.86744 -0.13975 0.13973
 N30 N 1.06771 0.11301 -0.06855
 N31 N 1.10803 0.15918 -0.08336
 N32 N 0.93395 0.06835 -0.11286
 N33 N 0.89344 0.08293 -0.15880
 N34 N 0.93395 0.11283 -0.06838
 N35 N 0.89344 0.15877 -0.08296
 N36 N 1.06771 0.06852 -0.11303
 N37 N 1.10803 0.08333 -0.15921
 Mn38 Mn 1.00086 0.11334 0.00067
 C39 C 1.13354 0.13929 -0.13932
 C40 C 0.86781 0.13877 -0.13880
 N41 N 0.93410 -0.11436 -0.06858
 N42 N 0.89315 -0.16013 -0.08313
 N43 N 1.06771 -0.06968 -0.11302
 N44 N 1.10847 -0.08412 -0.15893
 N45 N 1.06780 -0.11405 -0.06863
 N46 N 1.10861 -0.15976 -0.08324
 N47 N 0.93405 -0.06987 -0.11283
 N48 N 0.89310 -0.08422 -0.15851
 Mn49 Mn 1.00104 -0.11469 0.00055
 Mn50 Mn 1.00086 -0.00070 -0.11336
 Cl51 Cl 1.00097 -0.00067 0.00064
 C52 C 0.86727 -0.13994 -0.13866
 C53 C 1.13428 -0.13970 -0.13896
 N54 N 0.93473 0.56972 0.38578
 N55 N 0.89344 0.58362 0.34044
 N56 N 1.06843 0.61413 0.43033
 N57 N 1.10897 0.66020 0.41560
 N58 N 1.06843 0.56964 0.38584
 N59 N 1.10897 0.58437 0.33978
 N60 N 0.93473 0.61420 0.43025
 N61 N 0.89344 0.65953 0.41635
 C62 C 0.86746 0.63905 0.36092
 C63 C 1.13467 0.64028 0.35969
 N64 N 1.06692 0.56941 0.61287
 N65 N 1.10797 0.58328 0.65854
 N66 N 0.93389 0.61439 0.56826
 N67 N 0.89279 0.65999 0.58248
 N68 N 0.93338 0.56989 0.61248
 N69 N 0.89196 0.58404 0.65785
 N70 N 1.06750 0.61380 0.56855
 N71 N 1.10895 0.65905 0.58293
 Mn72 Mn 1.00115 0.61464 0.49937
 C73 C 1.13444 0.63857 0.63846
 C74 C 0.86635 0.63965 0.63779
 N75 N 1.06750 0.43142 0.38617
 N76 N 1.10895 0.41704 0.34092
 N77 N 0.93338 0.38750 0.43008
 N78 N 0.89196 0.34212 0.41594
 N79 N 0.93389 0.43171 0.38559
 N80 N 0.89279 0.41749 0.33998
 N81 N 1.06692 0.38710 0.43056
 N82 N 1.10797 0.34144 0.41669
 Mn83 Mn 1.00115 0.50061 0.38533
 C84 C 1.13444 0.36152 0.36140
 C85 C 0.86635 0.36219 0.36032
 N86 N 0.93266 0.43193 0.61251
 N87 N 0.89206 0.41734 0.65849
 N88 N 1.06629 0.38713 0.56838
 N89 N 1.10712 0.34145 0.58264
 N90 N 1.06629 0.43159 0.61284
 N91 N 1.10712 0.41734 0.65852
 N92 N 0.93266 0.38746 0.56804
 N93 N 0.89206 0.34148 0.58263
 Mn94 Mn 0.99981 0.50074 0.61314
 Mn95 Mn 0.99981 0.38683 0.49923
 Cl96 Cl 1.00049 0.50072 0.49925
 C97 C 0.86638 0.36153 0.63844
 C98 C 1.13287 0.36169 0.63828
 N99 N 0.61206 0.06743 0.56807
 N100 N 0.65812 0.10784 0.58280
 N101 N 0.56823 -0.06658 0.61302
 N102 N 0.58282 -0.10704 0.65902
 N103 N 0.61243 -0.06665 0.56853
 N104 N 0.65825 -0.10716 0.58309
 N105 N 0.56787 0.06753 0.61257
 N106 N 0.58276 0.10800 0.65875
 C107 C 0.63843 0.13350 0.63873
 C108 C 0.63838 -0.13265 0.63894
 N109 N 0.38684 -0.06788 0.56847
 N110 N 0.34159 -0.10920 0.58294
 N111 N 0.43050 0.06678 0.61241
 N112 N 0.41611 0.10814 0.65793
 N113 N 0.38624 0.06616 0.56810
 N114 N 0.34059 0.10710 0.58235
 N115 N 0.43101 -0.06723 0.61287
 N116 N 0.41697 -0.10812 0.65870
 Mn117 Mn 0.49936 0.00013 0.61320
 C118 C 0.36183 -0.13455 0.63859
 C119 C 0.36063 0.13357 0.63777
 N120 N 0.61229 -0.06748 0.43081
 N121 N 0.65812 -0.10820 0.41673
 N122 N 0.56789 0.06591 0.38570
 N123 N 0.58224 0.10684 0.33992
 N124 N 0.61190 0.06649 0.43025
 N125 N 0.65727 0.10779 0.41600
 N126 N 0.56819 -0.06815 0.38634
 N127 N 0.58291 -0.10932 0.34079
 Mn128 Mn 0.61261 -0.00005 0.49938
 C129 C 0.63837 -0.13456 0.36123
 C130 C 0.63740 0.13325 0.36026
 N131 N 0.38632 0.06516 0.43029
 N132 N 0.34107 0.10647 0.41637
 N133 N 0.43054 -0.06908 0.38587
 N134 N 0.41540 -0.10937 0.33953
 N135 N 0.38635 -0.06900 0.43042
 N136 N 0.34011 -0.10922 0.41548
 N137 N 0.43052 0.06511 0.38580
 N138 N 0.41652 0.10639 0.34040
 Mn139 Mn 0.38596 -0.00141 0.49934
 Mn140 Mn 0.49930 -0.00157 0.38541
 Cl141 Cl 0.49930 -0.00075 0.49931
 C142 C 0.36132 0.13241 0.36090
 C143 C 0.35958 -0.13483 0.35938
 N144 N 0.43101 0.38710 0.06720
 N145 N 0.41697 0.34127 0.10809
 N146 N 0.38624 0.43187 -0.06618
 N147 N 0.34059 0.41763 -0.10713
 N148 N 0.43050 0.38756 -0.06681
 N149 N 0.41611 0.34204 -0.10817
 N150 N 0.38684 0.43150 0.06785
 N151 N 0.34159 0.41704 0.10917
 C152 C 0.36183 0.36139 0.13452
 C153 C 0.36063 0.36220 -0.13360
 N154 N 0.43052 0.61417 -0.06514
 N155 N 0.41652 0.65957 -0.10642
 N156 N 0.38635 0.56956 0.06897
 N157 N 0.34011 0.58449 0.10919
 N158 N 0.43054 0.61410 0.06906
 N159 N 0.41540 0.66044 0.10935
 N160 N 0.38632 0.56968 -0.06519
 N161 N 0.34107 0.58360 -0.10649
 Mn162 Mn 0.38596 0.50063 0.00138
 C163 C 0.36132 0.63907 -0.13244
 C164 C 0.35958 0.64059 0.13480
 N165 N 0.56787 0.38740 -0.06755
 N166 N 0.58276 0.34122 -0.10803
 N167 N 0.61243 0.43144 0.06663
 N168 N 0.65825 0.41688 0.10713
 N169 N 0.56823 0.38695 0.06656
 N170 N 0.58282 0.34096 0.10702
 N171 N 0.61206 0.43191 -0.06746
 N172 N 0.65812 0.41718 -0.10786
 Mn173 Mn 0.49936 0.38678 -0.00016
 C174 C 0.63843 0.36124 -0.13353
 C175 C 0.63838 0.36104 0.13263
 N176 N 0.56819 0.61363 0.06812
 N177 N 0.58291 0.65918 0.10929
 N178 N 0.61190 0.56972 -0.06652
 N179 N 0.65727 0.58398 -0.10782
 N180 N 0.56789 0.61427 -0.06594
 N181 N 0.58224 0.66005 -0.10687
 N182 N 0.61229 0.56916 0.06746
 N183 N 0.65812 0.58324 0.10817
 Mn184 Mn 0.49930 0.61456 0.00154
 Mn185 Mn 0.61261 0.50059 0.00002
 Cl186 Cl 0.49930 0.50066 0.00072
 C187 C 0.63837 0.63874 0.13454
 C188 C 0.63740 0.63972 -0.13328
 C189 C 1.21090 0.20982 0.21048
 C190 C 1.17666 0.17708 0.17769
 C191 C 1.21124 0.70858 0.70944
 C192 C 1.17701 0.67609 0.67656
 C193 C 0.70990 0.20924 0.70986
 C194 C 0.67689 0.17530 0.67705
 C195 C 0.70982 0.70899 0.21045
 C196 C 0.67676 0.67646 0.17652
 C197 C 0.79053 -0.21037 0.21035
 C198 C 0.82487 -0.17769 0.17766
 C199 C 0.79039 0.29037 0.70961
 C200 C 0.82433 0.32327 0.67670
 C201 C 0.29163 -0.21080 0.70960
 C202 C 0.32420 -0.17676 0.67676
 C203 C 0.29163 0.29037 0.21077
 C204 C 0.32420 0.32322 0.17674
 C205 C 0.79096 0.20949 -0.20952
 C206 C 0.82535 0.17683 -0.17686
 C207 C 0.79031 0.70904 0.29093
 C208 C 0.82469 0.67658 0.32339
 C209 C 0.29135 0.20957 0.29103
 C210 C 0.32379 0.17514 0.32340
 C211 C 0.29135 0.70894 -0.20960
 C212 C 0.32379 0.67657 -0.17516
 C213 C 1.21090 -0.21051 -0.20985
 C214 C 1.17666 -0.17771 -0.17711
 C215 C 1.21124 0.29053 0.29139
 C216 C 1.17701 0.32341 0.32388
 C217 C 0.70982 -0.21048 0.29098
 C218 C 0.67676 -0.17655 0.32351
 C219 C 0.70990 0.29011 -0.20926
 C220 C 0.67689 0.32292 -0.17533
 C221 C 1.20959 0.21055 -0.21057
 C222 C 1.17555 0.17764 -0.17767
 C223 C 1.21133 0.71155 0.28842
 C224 C 1.17709 0.67860 0.32137
 C225 C 0.70832 0.21012 0.29005
 C226 C 0.67538 0.17583 0.32246
 C227 C 0.70832 0.70992 -0.21015
 C228 C 0.67538 0.67751 -0.17586
 C229 C 0.78975 -0.20995 -0.20975
 C230 C 0.82439 -0.17768 -0.17677
 C231 C 0.78907 0.29129 0.29020
 C232 C 0.82348 0.32425 0.32262
 C233 C 0.28790 -0.21114 0.28813
 C234 C 0.32099 -0.17692 0.32097
 C235 C 0.29016 0.29153 -0.21056
 C236 C 0.32273 0.32430 -0.17621
 C237 C 1.21080 -0.21162 0.21159
 C238 C 1.17633 -0.17885 0.17882
 C239 C 1.20963 0.29130 0.70868
 C240 C 1.17535 0.32388 0.67610
 C241 C 0.70895 -0.20904 0.70951
 C242 C 0.67635 -0.17479 0.67694
 C243 C 0.70895 0.29046 0.20901
 C244 C 0.67635 0.32303 0.17477
 C245 C 0.78975 0.20973 0.20992
 C246 C 0.82439 0.17675 0.17765
 C247 C 0.78907 0.70977 0.70868
 C248 C 0.82348 0.67736 0.67572
 C249 C 0.29016 0.21054 0.70844
 C250 C 0.32273 0.17618 0.67567
 C251 C 0.28790 0.71184 0.21111
 C252 C 0.32099 0.67900 0.17689
   
