data_POSCAR
  _audit_creation_date              2014-09-24
  _audit_creation_method            'ToBaCCo'
  _symmetry_space_group_name_H-M    'P1'
  _symmetry_Int_Tables_number       1
  _symmetry_cell_setting            triclinic
  loop_
  _symmetry_equiv_pos_as_xyz
 x,y,z
_cell_length_a 33.3496
_cell_length_b 34.0977
_cell_length_c 37.1194
_cell_angle_alpha 90.133200
_cell_angle_beta 89.851900
_cell_angle_gamma 126.057500
loop_
  _atom_site_label
  _atom_site_type_symbol
  _atom_site_fract_x
  _atom_site_fract_y
  _atom_site_fract_z
O1 O 0.05119 0.57205 1.28748
 O2 O -0.04374 0.52976 1.21804
 O3 O -0.04571 0.51604 1.28722
 O4 O 0.05163 0.57658 1.21729
 O5 O 0.04692 0.50940 1.21241
 O6 O -0.04989 0.44931 1.28083
 O7 O -0.04885 0.46257 1.21181
 O8 O 0.04662 0.50501 1.28241
 Cu9 Cu 0.00383 0.55530 1.25331
 Cu10 Cu -0.00169 0.47497 1.24624
 C11 C 0.06529 0.54623 1.29689
 C12 C -0.06234 0.48922 1.20273
 C13 C -0.06448 0.47225 1.29576
 C14 C 0.06546 0.55253 1.20277
 O15 O 0.44891 0.48893 1.27431
 O16 O 0.50800 0.46286 1.20504
 O17 O 0.50456 0.45849 1.27524
 O18 O 0.46441 0.50619 1.20541
 O19 O 0.53405 0.57908 1.21361
 O20 O 0.57502 0.53163 1.28010
 O21 O 0.57831 0.53597 1.21046
 O22 O 0.51893 0.56132 1.28295
 Cu23 Cu 0.47463 0.47198 1.23923
 Cu24 Cu 0.55828 0.55926 1.24733
 C25 C 0.47353 0.52901 1.29102
 C26 C 0.55272 0.49408 1.19585
 C27 C 0.54732 0.48746 1.28926
 C28 C 0.49276 0.55125 1.19789
 O29 O 0.50554 0.94645 1.29399
 O30 O 0.55664 1.03998 1.22348
 O31 O 0.55570 1.04092 1.29405
 O32 O 0.50338 0.94612 1.22346
 O33 O 0.43419 0.94086 1.22474
 O34 O 0.48716 1.03678 1.29364
 O35 O 0.48759 1.03500 1.22333
 O36 O 0.43714 0.94253 1.29513
 Cu37 Cu 0.53720 0.99388 1.25884
 Cu38 Cu 0.45465 0.98828 1.25933
 C39 C 0.46270 0.92860 1.30682
 C40 C 0.53070 1.05290 1.21092
 C41 C 0.53035 1.05516 1.30586
 C42 C 0.45981 0.92763 1.21187
 O43 O 0.95188 0.51884 0.70915
 O44 O 1.05040 0.57758 0.77805
 O45 O 1.04792 0.56809 0.70801
 O46 O 0.95387 0.52770 0.77906
 O47 O 0.94749 0.45982 0.78471
 O48 O 1.04274 0.50087 0.71359
 O49 O 1.04386 0.50959 0.78371
 O50 O 0.94661 0.45147 0.71444
 Cu51 Cu 1.00167 0.55482 0.74302
 Cu52 Cu 0.99455 0.47368 0.74977
 C53 C 0.93287 0.47535 0.69977
 C54 C 1.06368 0.55332 0.79279
 C55 C 1.06126 0.54153 0.69833
 C56 C 0.93459 0.48683 0.79409
 O57 O 0.48779 0.44407 0.72692
 O58 O 0.46405 0.50634 0.79377
 O59 O 0.46169 0.50252 0.72352
 O60 O 0.50363 0.45903 0.79576
 O61 O 0.57988 0.52531 0.78898
 O62 O 0.53812 0.56933 0.71955
 O63 O 0.54079 0.57269 0.78960
 O64 O 0.56385 0.51051 0.71957
 Cu65 Cu 0.47178 0.47159 0.76070
 Cu66 Cu 0.56325 0.55089 0.75385
 C67 C 0.52953 0.46659 0.71141
 C68 C 0.49754 0.54948 0.80332
 C69 C 0.49328 0.54392 0.70942
 C70 C 0.54935 0.48515 0.80450
 O71 O 0.55740 0.04264 0.70863
 O72 O 0.50385 -0.05060 0.77936
 O73 O 0.50120 -0.05220 0.70930
 O74 O 0.55729 0.04299 0.77859
 O75 O 0.48947 0.04029 0.77953
 O76 O 0.43360 -0.05466 0.70991
 O77 O 0.43621 -0.05299 0.78006
 O78 O 0.48985 0.04035 0.70932
 Cu79 Cu 0.53670 -0.00412 0.74368
 Cu80 Cu 0.45547 -0.00696 0.74451
 C81 C 0.53293 0.05777 0.69716
 C82 C 0.46134 -0.06711 0.79219
 C83 C 0.45772 -0.07003 0.69793
 C84 C 0.53253 0.05730 0.79128
 O85 O 0.41200 0.65436 0.96705
 O86 O 0.42039 0.73482 0.95868
 C87 C 0.39978 0.75532 0.95116
 O88 O 0.36283 0.74768 0.96844
 O89 O 0.27655 0.66613 0.95730
 C90 C 0.25051 0.62124 0.95009
 O91 O 0.25377 0.59142 0.96768
 O92 O 0.33264 0.59522 0.95509
 C93 C 0.37855 0.61799 0.94863
 O94 O 0.41035 0.66438 1.03940
 O95 O 0.42258 0.74667 1.03084
 C96 C 0.39413 0.75327 1.04828
 O97 O 0.34889 0.73224 1.04031
 O98 O 0.26136 0.65193 1.02949
 C99 C 0.25118 0.61477 1.04658
 O100 O 0.26930 0.59204 1.03856
 O101 O 0.34463 0.58996 1.02584
 C102 C 0.38286 0.61897 1.04459
 Cr103 Cr 0.41361 0.69877 0.99895
 Cr104 Cr 0.31359 0.69821 0.99888
 Cr105 Cr 0.30170 0.59491 0.99684
 O106 O 0.34304 0.66411 0.99821
 O107 O 0.57996 0.31664 0.96115
 O108 O 0.56895 0.23568 0.97294
 C109 C 0.59735 0.22970 0.95484
 O110 O 0.64294 0.25185 0.96174
 O111 O 0.73055 0.33143 0.97158
 C112 C 0.74242 0.36845 0.95357
 O113 O 0.72494 0.39216 0.96028
 O114 O 0.64719 0.39274 0.96921
 C115 C 0.60674 0.36126 0.95304
 O116 O 0.58037 0.33147 1.03213
 O117 O 0.57367 0.25287 1.04453
 C118 C 0.59364 0.23179 1.05194
 O119 O 0.62942 0.23815 1.03382
 O120 O 0.71541 0.32038 1.04295
 C121 C 0.74165 0.36530 1.04997
 O122 O 0.73795 0.39553 1.03296
 O123 O 0.65893 0.39412 1.04165
 C124 C 0.61300 0.37011 1.04873
 Cr125 Cr 0.57861 0.28559 1.00268
 Cr126 Cr 0.67834 0.28680 1.00252
 Cr127 Cr 0.69066 0.39087 1.00107
 O128 O 0.64929 0.32125 1.00217
 O129 O 0.63805 0.41011 0.52299
 O130 O 0.71830 0.41626 0.53679
 C131 C 0.73975 0.39675 0.54525
 O132 O 0.73210 0.35987 0.52897
 O133 O 0.64823 0.27529 0.54064
 C134 C 0.60275 0.25146 0.54898
 O135 O 0.57241 0.25606 0.53265
 O136 O 0.57934 0.33563 0.54169
 C137 C 0.60499 0.38132 0.54537
 O138 O 0.64987 0.40243 0.45293
 O139 O 0.73351 0.41559 0.46652
 C140 C 0.73977 0.38771 0.44921
 O141 O 0.71667 0.34317 0.45669
 O142 O 0.63361 0.25857 0.46890
 C143 C 0.59399 0.24647 0.45302
 O144 O 0.57057 0.26426 0.46094
 O145 O 0.57266 0.34183 0.46894
 C146 C 0.60333 0.37653 0.44810
 Cr147 Cr 0.68349 0.40838 0.49494
 Cr148 Cr 0.68139 0.31037 0.49879
 Cr149 Cr 0.57636 0.30096 0.50093
 O150 O 0.64707 0.33958 0.49818
 O151 O 0.34724 0.57514 0.53067
 O152 O 0.26617 0.56989 0.53788
 C153 C 0.24735 0.59205 0.54631
 O154 O 0.25869 0.63041 0.53059
 O155 O 0.34291 0.71319 0.54336
 C156 C 0.38794 0.73605 0.55247
 O157 O 0.41812 0.73059 0.53683
 O158 O 0.41046 0.65062 0.54540
 C159 C 0.38391 0.60513 0.55054
 O160 O 0.34312 0.58242 0.45815
 O161 O 0.25975 0.57297 0.46548
 C162 C 0.25388 0.60225 0.44976
 O163 O 0.27631 0.64613 0.45916
 O164 O 0.35972 0.72965 0.47182
 C165 C 0.39938 0.74114 0.45646
 O166 O 0.42209 0.72296 0.46503
 O167 O 0.41903 0.64551 0.47375
 C168 C 0.38980 0.60990 0.45334
 Cr169 Cr 0.30565 0.57794 0.49817
 Cr170 Cr 0.31074 0.67849 0.50123
 Cr171 Cr 0.41446 0.68578 0.50513
 O172 O 0.34353 0.64742 0.50155
 C173 C 0.45627 0.58676 0.36628
 C174 C 0.40595 0.55202 0.37469
 N175 N 0.37897 0.51069 0.35493
 C176 C 0.39995 0.50238 0.32730
 C177 C 0.45055 0.53713 0.31873
 N178 N 0.47728 0.57866 0.33858
 N179 N 0.48350 0.62783 0.38619
 C180 C 0.46288 0.63581 0.41421
 C181 C 0.41240 0.60116 0.42290
 N182 N 0.38506 0.55999 0.40266
 H183 H 0.37722 0.46884 0.31228
 H184 H 0.48580 0.66913 0.42944
 C185 C 0.45478 0.84505 0.37269
 C186 C 0.40857 0.82593 0.38863
 N187 N 0.38091 0.84070 0.37698
 C188 C 0.39738 0.87393 0.35012
 C189 C 0.44401 0.89369 0.33413
 N190 N 0.47148 0.87848 0.34599
 N191 N 0.48221 0.82990 0.38420
 C192 C 0.46552 0.79646 0.41101
 C193 C 0.41929 0.77743 0.42726
 N194 N 0.39202 0.79282 0.41548
 H195 H 0.37434 0.88491 0.34158
 H196 H 0.48819 0.78509 0.41959
 C197 C 0.14975 0.55101 0.36489
 C198 C 0.17358 0.59816 0.37865
 N199 N 0.16216 0.62744 0.36531
 C200 C 0.12776 0.61170 0.33889
 C201 C 0.10352 0.56439 0.32504
 N202 N 0.11535 0.53520 0.33840
 N203 N 0.16092 0.52164 0.37862
 C204 C 0.19465 0.53719 0.40562
 C205 C 0.21843 0.58437 0.41961
 N206 N 0.20724 0.61369 0.40553
 H207 H 0.11940 0.63593 0.32889
 H208 H 0.20259 0.51285 0.41613
 C209 C 0.54956 0.41405 0.36183
 C210 C 0.60013 0.44293 0.37090
 N211 N 0.63229 0.48452 0.35259
 C212 C 0.61618 0.49896 0.32577
 C213 C 0.56549 0.47052 0.31674
 N214 N 0.53332 0.42838 0.33491
 N215 N 0.51744 0.37283 0.38073
 C216 C 0.53356 0.35939 0.40844
 C217 C 0.58419 0.38856 0.41771
 N218 N 0.61618 0.42953 0.39843
 H219 H 0.64275 0.53256 0.31180
 H220 H 0.50709 0.32646 0.42314
 C221 C 0.53892 0.14056 0.37046
 C222 C 0.58538 0.16041 0.38612
 N223 N 0.61309 0.14551 0.37464
 C224 C 0.59641 0.11148 0.34824
 C225 C 0.54950 0.09098 0.33261
 N226 N 0.52205 0.10636 0.34429
 N227 N 0.51136 0.15574 0.38172
 C228 C 0.52811 0.18987 0.40804
 C229 C 0.57455 0.20966 0.42410
 N230 N 0.60202 0.19425 0.41257
 H231 H 0.61947 0.10040 0.33983
 H232 H 0.50523 0.20115 0.41644
 C233 C 0.84671 0.45237 0.36609
 C234 C 0.82487 0.40405 0.37626
 N235 N 0.83923 0.37868 0.35965
 C236 C 0.87455 0.39952 0.33346
 C237 C 0.89662 0.44803 0.32343
 N238 N 0.88191 0.47313 0.34005
 N239 N 0.83277 0.47799 0.38263
 C240 C 0.79814 0.45768 0.40912
 C241 C 0.77632 0.40938 0.41973
 N242 N 0.79015 0.38357 0.40283
 H243 H 0.88538 0.37846 0.32074
 H244 H 0.78794 0.47927 0.42180
 C245 C 0.56054 0.41879 1.12842
 C246 C 0.61013 0.44908 1.11707
 N247 N 0.64059 0.49433 1.13150
 C248 C 0.62362 0.51050 1.15676
 C249 C 0.57385 0.47996 1.16814
 N250 N 0.54381 0.43483 1.15351
 N251 N 0.52972 0.37376 1.11423
 C252 C 0.54602 0.35742 1.08894
 C253 C 0.59566 0.38744 1.07714
 N254 N 0.62673 0.43278 1.09168
 H255 H 0.64867 0.54657 1.16788
 H256 H 0.52027 0.32124 1.07818
 C257 C 0.84729 0.41358 1.13330
 C258 C 0.83395 0.44332 1.12088
 N259 N 0.85479 0.48751 1.13617
 C260 C 0.88846 0.50339 1.16324
 C261 C 0.90242 0.47385 1.17552
 N262 N 0.88121 0.42954 1.16004
 N263 N 0.82607 0.36915 1.11850
 C264 C 0.79202 0.35294 1.09181
 C265 C 0.77865 0.38266 1.07898
 N266 N 0.80018 0.42739 1.09389
 H267 H 0.90441 0.53890 1.17475
 H268 H 0.77585 0.31727 1.08055
 C269 C 0.54031 0.13568 1.14077
 C270 C 0.58482 0.15111 1.12348
 N271 N 0.61133 0.13522 1.13548
 C272 C 0.59525 0.10434 1.16393
 C273 C 0.55031 0.08822 1.18111
 N274 N 0.52395 0.10447 1.16900
 N275 N 0.51408 0.15197 1.12892
 C276 C 0.53029 0.18297 1.10050
 C277 C 0.57466 0.19816 1.08284
 N278 N 0.60081 0.18170 1.09493
 H279 H 0.61707 0.09207 1.17271
 H280 H 0.50856 0.19534 1.09169
 C281 C 0.42158 0.56017 1.12584
 C282 C 0.45191 0.61014 1.11843
 N283 N 0.49446 0.63982 1.13724
 C284 C 0.50823 0.62182 1.16308
 C285 C 0.47808 0.57171 1.17052
 N286 N 0.43528 0.54209 1.15165
 N287 N 0.37913 0.53049 1.10689
 C288 C 0.36567 0.54845 1.08075
 C289 C 0.39608 0.59852 1.07311
 N290 N 0.43853 0.62815 1.09234
 H291 H 0.54249 0.64645 1.17757
 H292 H 0.33159 0.52379 1.06608
 C293 C 0.15108 0.56343 1.13375
 C294 C 0.16904 0.60812 1.11763
 N295 N 0.15388 0.63487 1.13027
 C296 C 0.12123 0.61868 1.15821
 C297 C 0.10274 0.57354 1.17399
 N298 N 0.11839 0.54723 1.16128
 N299 N 0.16613 0.53660 1.12144
 C300 C 0.19843 0.55237 1.09351
 C301 C 0.21628 0.59694 1.07693
 N302 N 0.20110 0.62383 1.08950
 H303 H 0.10937 0.64043 1.16759
 H304 H 0.20973 0.53010 1.08426
 C305 C 0.45134 0.85053 1.13685
 C306 C 0.40202 0.82690 1.12567
 N307 N 0.37228 0.83565 1.14321
 C308 C 0.38967 0.86724 1.17134
 C309 C 0.43920 0.89132 1.18258
 N310 N 0.46881 0.88213 1.16498
 N311 N 0.48113 0.84200 1.11906
 C312 C 0.46389 0.81096 1.09052
 C313 C 0.41445 0.78726 1.07913
 N314 N 0.38476 0.79591 1.09722
 H315 H 0.36509 0.87367 1.18461
 H316 H 0.48856 0.80493 1.07692
 C317 C 0.58498 0.44714 0.63332
 C318 C 0.55056 0.39711 0.62691
 N319 N 0.51056 0.37048 0.64889
 C320 C 0.50326 0.39167 0.67673
 C321 C 0.53762 0.44185 0.68298
 N322 N 0.57781 0.46822 0.66110
 N323 N 0.62461 0.47411 0.61128
 C324 C 0.63143 0.45352 0.58293
 C325 C 0.59704 0.40341 0.57614
 N326 N 0.55738 0.37624 0.59857
 H327 H 0.47080 0.36960 0.69362
 H328 H 0.66369 0.47623 0.56597
 C329 C 0.54532 0.14555 0.63107
 C330 C 0.59357 0.16755 0.61781
 N331 N 0.62128 0.15341 0.63072
 C332 C 0.60286 0.11818 0.65625
 C333 C 0.55445 0.09600 0.66952
 N334 N 0.52698 0.11049 0.65654
 N335 N 0.51734 0.15921 0.61802
 C336 C 0.53524 0.19370 0.59206
 C337 C 0.58348 0.21572 0.57843
 N338 N 0.61160 0.20212 0.59186
 H339 H 0.62580 0.10765 0.66603
 H340 H 0.51186 0.20361 0.58208
 C341 C 0.84338 0.45783 0.63073
 C342 C 0.82690 0.41276 0.61589
 N343 N 0.84443 0.38849 0.62915
 C344 C 0.87793 0.40735 0.65650
 C345 C 0.89507 0.45283 0.67115
 N346 N 0.87718 0.47691 0.65780
 N347 N 0.82553 0.48190 0.61771
 C348 C 0.79197 0.46303 0.59041
 C349 C 0.77572 0.41809 0.57513
 N350 N 0.79372 0.39406 0.58841
 H351 H 0.89146 0.38729 0.66636
 H352 H 0.77848 0.48315 0.58059
 C353 C 0.42085 0.55014 0.63643
 C354 C 0.45299 0.59904 0.62608
 N355 N 0.49691 0.62886 0.64332
 C356 C 0.51038 0.61203 0.67034
 C357 C 0.47841 0.56303 0.68086
 N358 N 0.43413 0.53325 0.66361
 N359 N 0.37725 0.52022 0.61875
 C360 C 0.36437 0.53690 0.59112
 C361 C 0.39649 0.58593 0.58064
 N362 N 0.44007 0.61580 0.59864
 H363 H 0.54578 0.63676 0.68347
 H364 H 0.32934 0.51210 0.57756
 C365 C 0.44512 0.84222 0.63438
 C366 C 0.39729 0.82093 0.62069
 N367 N 0.37008 0.83601 0.63303
 C368 C 0.38861 0.87155 0.65839
 C369 C 0.43677 0.89318 0.67207
 N370 N 0.46360 0.87760 0.65961
 N371 N 0.47264 0.82764 0.62196
 C372 C 0.45470 0.79291 0.59615
 C373 C 0.40694 0.77169 0.58198
 N374 N 0.37924 0.78617 0.59483
 H375 H 0.36596 0.88276 0.66762
 H376 H 0.47774 0.78229 0.58663
 C377 C 0.14385 0.54313 0.63213
 C378 C 0.16291 0.58714 0.61448
 N379 N 0.14865 0.61527 0.62511
 C380 C 0.11593 0.60145 0.65260
 C381 C 0.09608 0.55706 0.67045
 N382 N 0.11081 0.52897 0.65961
 N383 N 0.15873 0.51536 0.62142
 C384 C 0.19181 0.52967 0.59387
 C385 C 0.21078 0.57375 0.57601
 N386 N 0.19560 0.60124 0.58701
 H387 H 0.10540 0.62491 0.66018
 H388 H 0.20309 0.50689 0.58603
 C389 C 0.42159 0.56504 0.86563
 C390 C 0.45713 0.60866 0.88321
 N391 N 0.50571 0.63321 0.87378
 C392 C 0.52029 0.61585 0.84769
 C393 C 0.48466 0.57166 0.83058
 N394 N 0.43617 0.54760 0.84005
 N395 N 0.37307 0.54039 0.87465
 C396 C 0.35826 0.55715 0.90078
 C397 C 0.39368 0.60045 0.91905
 N398 N 0.44247 0.62531 0.90967
 H399 H 0.55920 0.63588 0.84081
 H400 H 0.31924 0.53641 0.90749
 C401 C 0.14592 0.56468 0.86529
 C402 C 0.17131 0.61342 0.87568
 N403 N 0.16149 0.64207 0.85852
 C404 C 0.12734 0.62409 0.83154
 C405 C 0.10183 0.57518 0.82118
 N406 N 0.11203 0.54684 0.83842
 N407 N 0.15515 0.53573 0.88241
 C408 C 0.18859 0.55318 0.90963
 C409 C 0.21424 0.60201 0.92036
 N410 N 0.20498 0.63109 0.90292
 H411 H 0.12013 0.64768 0.81844
 H412 H 0.19506 0.52902 0.92268
 C413 C 0.45265 0.85144 0.86268
 C414 C 0.40798 0.83563 0.87988
 N415 N 0.38096 0.85086 0.86768
 C416 C 0.39671 0.88148 0.83910
 C417 C 0.44174 0.89785 0.82201
 N418 N 0.46858 0.88226 0.83431
 N419 N 0.47948 0.83591 0.87473
 C420 C 0.46363 0.80517 0.90325
 C421 C 0.41898 0.78943 0.92071
 N422 N 0.39229 0.80520 0.90845
 H423 H 0.37456 0.89330 0.83014
 H424 H 0.48572 0.79326 0.91219
 C425 C 0.55443 0.40698 0.87118
 C426 C 0.60215 0.43924 0.88573
 N427 N 0.63155 0.48555 0.87350
 C428 C 0.61546 0.50112 0.84740
 C429 C 0.56751 0.46904 0.83291
 N430 N 0.53812 0.42259 0.84531
 N431 N 0.52524 0.36054 0.88310
 C432 C 0.54144 0.34484 0.90899
 C433 C 0.58907 0.37714 0.92399
 N434 N 0.61827 0.42375 0.91185
 H435 H 0.63983 0.53831 0.83824
 H436 H 0.51705 0.30758 0.91799
 C437 C 0.84613 0.41361 0.86837
 C438 C 0.82895 0.44122 0.87789
 N439 N 0.84619 0.48289 0.85976
 C440 C 0.87988 0.49829 0.83262
 C441 C 0.89728 0.47075 0.82299
 N442 N 0.87970 0.42889 0.84124
 N443 N 0.82925 0.37213 0.88657
 C444 C 0.79602 0.35693 0.91393
 C445 C 0.77856 0.38440 0.92373
 N446 N 0.79559 0.42604 0.90524
 H447 H 0.89296 0.53174 0.81877
 H448 H 0.78335 0.32363 0.92784
 C449 C 0.54047 0.13277 0.86669
 C450 C 0.58977 0.15644 0.87790
 N451 N 0.61979 0.14814 0.86026
 C452 C 0.60264 0.11693 0.83193
 C453 C 0.55320 0.09302 0.82066
 N454 N 0.52335 0.10172 0.83837
 N455 N 0.51036 0.14078 0.88459
 C456 C 0.52736 0.17149 0.91326
 C457 C 0.57682 0.19535 0.92452
 N458 N 0.60678 0.18716 0.90638
 H459 H 0.62731 0.11074 0.81851
 H460 H 0.50259 0.17733 0.92694
   
