data_POSCAR
  _audit_creation_date              2014-09-24
  _audit_creation_method            'ToBaCCo'
  _symmetry_space_group_name_H-M    'P1'
  _symmetry_Int_Tables_number       1
  _symmetry_cell_setting            triclinic
  loop_
  _symmetry_equiv_pos_as_xyz
 x,y,z
_cell_length_a 33.3819
_cell_length_b 33.3870
_cell_length_c 33.4194
_cell_angle_alpha 90.179200
_cell_angle_beta 89.778400
_cell_angle_gamma 89.792600
loop_
  _atom_site_label
  _atom_site_type_symbol
  _atom_site_fract_x
  _atom_site_fract_y
  _atom_site_fract_z
C1 C 0.57580 0.39678 0.00102
 C2 C 0.60475 0.42572 0.00293
 C3 C 0.58507 0.46242 0.00180
 N4 N 0.54512 0.45662 -0.00068
 C5 C 0.53928 0.41659 -0.00111
 C6 C 0.60431 0.50013 0.00138
 C7 C 0.58423 0.53759 -0.00083
 C8 C 0.60323 0.57384 -0.00796
 C9 C 0.57410 0.60292 -0.00800
 C10 C 0.53782 0.58392 -0.00090
 N11 N 0.54439 0.54414 0.00401
 C12 C 0.50030 0.60397 0.00123
 C13 C 0.46262 0.58465 0.00162
 C14 C 0.42587 0.60427 0.00267
 C15 C 0.39700 0.57525 0.00075
 C16 C 0.41690 0.53875 -0.00128
 N17 N 0.45692 0.54468 -0.00079
 C18 C 0.39774 0.50106 -0.00268
 C19 C 0.41764 0.46348 -0.00268
 C20 C 0.39830 0.42692 0.00093
 C21 C 0.42745 0.39782 0.00096
 C22 C 0.46401 0.41718 -0.00263
 N23 N 0.45765 0.45715 -0.00554
 C24 C 0.50163 0.39735 -0.00255
 H25 H 0.58110 0.36478 0.00135
 H26 H 0.63669 0.42033 0.00462
 H27 H 0.47909 0.47859 -0.01151
 H28 H 0.63488 0.57884 -0.01299
 H29 H 0.57910 0.63452 -0.01306
 H30 H 0.42040 0.63621 0.00428
 H31 H 0.36498 0.58049 0.00101
 H32 H 0.42224 0.36598 0.00397
 H33 H 0.52353 0.52332 0.01356
 H34 H 0.36645 0.42168 0.00390
 C35 C -0.00127 0.57534 0.60338
 C36 C 0.00087 0.60433 0.57453
 C37 C 0.00115 0.58466 0.53785
 N38 N -0.00068 0.54467 0.54357
 C39 C -0.00212 0.53879 0.58353
 C40 C 0.00172 0.60394 0.50018
 C41 C 0.00062 0.58388 0.46269
 C42 C -0.00501 0.60293 0.42623
 C43 C -0.00486 0.57372 0.39726
 C44 C 0.00085 0.53741 0.41656
 N45 N 0.00482 0.54397 0.45637
 C46 C 0.00223 0.49986 0.39674
 C47 C 0.00177 0.46220 0.41593
 C48 C 0.00165 0.42559 0.39617
 C49 C -0.00058 0.39663 0.42507
 C50 C -0.00164 0.41642 0.46162
 N51 N -0.00021 0.45642 0.45586
 C52 C -0.00270 0.39722 0.49924
 C53 C -0.00206 0.41717 0.53671
 C54 C 0.00282 0.39794 0.57314
 C55 C 0.00277 0.42711 0.60217
 C56 C -0.00214 0.46355 0.58288
 N57 N -0.00576 0.45712 0.54303
 C58 C -0.00295 0.50112 0.60269
 H59 H -0.00186 0.58062 0.63535
 H60 H 0.00183 0.63630 0.57996
 H61 H -0.01319 0.47838 0.52183
 H62 H -0.00930 0.63464 0.42101
 H63 H -0.00900 0.57872 0.36555
 H64 H 0.00275 0.42025 0.36422
 H65 H -0.00111 0.36465 0.41973
 H66 H 0.00653 0.42199 0.63391
 H67 H 0.01303 0.52287 0.47747
 H68 H 0.00663 0.36617 0.57832
 C69 C 0.39649 -0.00145 0.57577
 C70 C 0.42540 -0.00342 0.60472
 C71 C 0.46212 -0.00237 0.58510
 N72 N 0.45637 0.00011 0.54518
 C73 C 0.41634 0.00063 0.53929
 C74 C 0.49982 -0.00208 0.60438
 C75 C 0.53730 0.00001 0.58427
 C76 C 0.57359 0.00693 0.60323
 C77 C 0.60266 0.00695 0.57410
 C78 C 0.58361 0.00004 0.53785
 N79 N 0.54382 -0.00474 0.54445
 C80 C 0.60364 -0.00203 0.50034
 C81 C 0.58434 -0.00233 0.46267
 C82 C 0.60399 -0.00333 0.42597
 C83 C 0.57501 -0.00135 0.39710
 C84 C 0.53848 0.00069 0.41694
 N85 N 0.54437 0.00012 0.45694
 C86 C 0.50081 0.00215 0.39776
 C87 C 0.46323 0.00217 0.41768
 C88 C 0.42666 -0.00143 0.39840
 C89 C 0.39757 -0.00146 0.42755
 C90 C 0.41695 0.00213 0.46406
 N91 N 0.45692 0.00503 0.45766
 C92 C 0.39712 0.00208 0.50166
 H93 H 0.36447 -0.00172 0.58104
 H94 H 0.41996 -0.00510 0.63662
 H95 H 0.47834 0.01100 0.47909
 H96 H 0.57863 0.01185 0.63484
 H97 H 0.63429 0.01189 0.57907
 H98 H 0.63595 -0.00498 0.42054
 H99 H 0.58029 -0.00157 0.36512
 H100 H 0.36573 -0.00445 0.42237
 H101 H 0.52297 -0.01412 0.52357
 H102 H 0.42140 -0.00440 0.36659
 O103 O 0.46728 -0.00071 -0.05512
 O104 O 0.46727 -0.00002 0.05519
 O105 O 0.46736 0.05480 -0.00015
 O106 O 0.46732 -0.05554 0.00021
 O107 O 0.53357 -0.05579 -0.00004
 O108 O 0.53361 0.05452 -0.00040
 O109 O 0.53351 -0.00029 0.05494
 O110 O 0.53352 -0.00098 -0.05538
 Cu111 Cu 0.46063 -0.00034 0.00006
 Cu112 Cu 0.54023 -0.00067 -0.00025
 C113 C 0.50040 -0.00096 -0.07388
 C114 C 0.50038 -0.00003 0.07369
 C115 C 0.50050 0.07328 -0.00035
 C116 C 0.50044 -0.07429 0.00014
 O117 O -0.05540 0.53373 1.00029
 O118 O 0.05493 0.53362 0.99935
 O119 O -0.00051 0.53365 0.94477
 O120 O 0.00005 0.53366 1.05487
 O121 O 0.00023 0.46741 1.05466
 O122 O -0.00033 0.46740 0.94456
 O123 O 0.05511 0.46737 0.99914
 O124 O -0.05522 0.46748 1.00008
 Cu125 Cu -0.00025 0.54036 0.99984
 Cu126 Cu -0.00003 0.46072 0.99959
 C127 C -0.07393 0.50062 1.00033
 C128 C 0.07364 0.50048 0.99911
 C129 C -0.00052 0.50052 0.92609
 C130 C 0.00025 0.50053 1.07334
 O131 O -0.00016 -0.05581 0.46739
 O132 O -0.00104 0.05448 0.46749
 O133 O 0.05456 -0.00041 0.46756
 O134 O -0.05578 -0.00091 0.46743
 O135 O -0.05610 -0.00075 0.53361
 O136 O 0.05422 -0.00025 0.53373
 O137 O -0.00137 0.05466 0.53366
 O138 O -0.00049 -0.05567 0.53357
 Cu139 Cu -0.00058 -0.00068 0.46079
 Cu140 Cu -0.00097 -0.00049 0.54032
 C141 C -0.00018 -0.07435 0.50046
 C142 C -0.00134 0.07319 0.50058
 C143 C 0.07301 -0.00023 0.50067
 C144 C -0.07456 -0.00091 0.50051
 C145 C -0.27456 0.50059 1.00122
 C146 C -0.25620 0.50495 1.04304
 C147 C -0.21537 0.50498 1.04289
 C148 C -0.19693 0.50065 1.00094
 C149 C -0.21549 0.53476 0.97642
 C150 C -0.25631 0.53473 0.97657
 C151 C -0.25599 0.46214 0.98386
 C152 C -0.21517 0.46217 0.98371
 C153 C -0.31847 0.50052 1.00134
 C154 C -0.35459 0.50037 1.00137
 C155 C -0.15299 0.50067 1.00077
 C156 C -0.11688 0.50066 1.00060
 H157 H -0.27371 0.50777 1.07035
 H158 H -0.19791 0.50783 1.07008
 H159 H -0.19810 0.55700 0.96038
 H160 H -0.27391 0.55694 0.96067
 H161 H -0.27337 0.43708 0.97270
 H162 H -0.19757 0.43714 0.97241
 C163 C 0.27428 0.50062 0.99799
 C164 C 0.25597 0.47262 0.96652
 C165 C 0.21515 0.47256 0.96674
 C166 C 0.19664 0.50051 0.99840
 C167 C 0.21484 0.54181 0.98997
 C168 C 0.25566 0.54187 0.98976
 C169 C 0.25600 0.48729 1.03798
 C170 C 0.21518 0.48723 1.03820
 C171 C 0.31819 0.50071 0.99775
 C172 C 0.35430 0.50084 0.99756
 C173 C 0.15270 0.50046 0.99862
 C174 C 0.11659 0.50045 0.99883
 H175 H 0.27353 0.45442 0.94591
 H176 H 0.19773 0.45431 0.94630
 H177 H 0.19721 0.56865 0.98464
 H178 H 0.27301 0.56875 0.98425
 H179 H 0.27357 0.47863 1.06384
 H180 H 0.19778 0.47854 1.06425
 C181 C 0.00121 -0.27496 0.49997
 C182 C -0.02420 -0.25665 0.46645
 C183 C -0.02448 -0.21583 0.46658
 C184 C 0.00070 -0.19733 0.50020
 C185 C 0.04266 -0.21562 0.49493
 C186 C 0.04293 -0.25644 0.49481
 C187 C -0.01544 -0.25660 0.53881
 C188 C -0.01572 -0.21578 0.53893
 C189 C 0.00147 -0.31885 0.49989
 C190 C 0.00161 -0.35497 0.49996
 C191 C 0.00040 -0.15340 0.50033
 C192 C 0.00014 -0.11730 0.50041
 H193 H -0.04052 -0.27420 0.44454
 H194 H -0.04104 -0.19841 0.44477
 H195 H 0.06977 -0.19806 0.49160
 H196 H 0.07026 -0.27385 0.49136
 H197 H -0.02605 -0.27412 0.56400
 H198 H -0.02657 -0.19833 0.56423
 C199 C -0.00238 0.27379 0.49993
 C200 C 0.01667 0.25510 0.46236
 C201 C 0.01686 0.21429 0.46257
 C202 C -0.00203 0.19617 0.50032
 C203 C -0.04419 0.21456 0.50278
 C204 C -0.04437 0.25537 0.50257
 C205 C 0.02080 0.25570 0.53514
 C206 C 0.02099 0.21488 0.53534
 C207 C -0.00254 0.31769 0.49970
 C208 C -0.00263 0.35379 0.49949
 C209 C -0.00182 0.15223 0.50050
 C210 C -0.00162 0.11613 0.50058
 H211 H 0.02891 0.27241 0.43776
 H212 H 0.02927 0.19662 0.43814
 H213 H -0.07149 0.19706 0.50455
 H214 H -0.07183 0.27285 0.50417
 H215 H 0.03571 0.27339 0.55793
 H216 H 0.03608 0.19760 0.55830
 C217 C 0.50025 -0.00185 -0.27450
 C218 C 0.51037 -0.04272 -0.25611
 C219 C 0.51041 -0.04255 -0.21532
 C220 C 0.50033 -0.00154 -0.19689
 C221 C 0.45983 0.01024 -0.21512
 C222 C 0.45979 0.01007 -0.25591
 C223 C 0.53065 0.02730 -0.25627
 C224 C 0.53069 0.02747 -0.21548
 C225 C 0.50018 -0.00200 -0.31842
 C226 C 0.50005 -0.00205 -0.35453
 C227 C 0.50037 -0.00135 -0.15294
 C228 C 0.50039 -0.00118 -0.11684
 H229 H 0.51692 -0.06943 -0.27358
 H230 H 0.51700 -0.06913 -0.19787
 H231 H 0.43350 0.01801 -0.19754
 H232 H 0.43343 0.01769 -0.27326
 H233 H 0.55042 0.04614 -0.27386
 H234 H 0.55049 0.04647 -0.19814
 C235 C 0.50045 0.00141 0.27430
 C236 C 0.49979 0.04340 0.25571
 C237 C 0.49975 0.04309 0.21493
 C238 C 0.50039 0.00082 0.19670
 C239 C 0.46424 -0.02053 0.21538
 C240 C 0.46427 -0.02021 0.25617
 C241 C 0.53724 -0.01936 0.25582
 C242 C 0.53721 -0.01967 0.21503
 C243 C 0.50051 0.00172 0.31822
 C244 C 0.50061 0.00193 0.35432
 C245 C 0.50037 0.00050 0.15275
 C246 C 0.50037 0.00024 0.11665
 H247 H 0.49937 0.07095 0.27306
 H248 H 0.49931 0.07037 0.19735
 H249 H 0.44067 -0.03463 0.19809
 H250 H 0.44073 -0.03403 0.27382
 H251 H 0.56123 -0.03263 0.27324
 H252 H 0.56116 -0.03324 0.19752
 C253 C 0.50056 -0.27491 0.00088
 C254 C 0.46256 -0.25653 -0.01726
 C255 C 0.46254 -0.21571 -0.01743
 C256 C 0.50052 -0.19728 0.00056
 C257 C 0.53532 -0.21597 -0.02326
 C258 C 0.53534 -0.25679 -0.02309
 C259 C 0.50376 -0.25622 0.04276
 C260 C 0.50374 -0.21541 0.04260
 C261 C 0.50056 -0.31882 0.00104
 C262 C 0.50048 -0.35493 0.00114
 C263 C 0.50047 -0.15334 0.00039
 C264 C 0.50045 -0.11724 0.00028
 H265 H 0.43785 -0.27403 -0.02893
 H266 H 0.43780 -0.19825 -0.02926
 H267 H 0.55794 -0.19868 -0.03888
 H268 H 0.55799 -0.27447 -0.03855
 H269 H 0.50587 -0.27352 0.07013
 H270 H 0.50583 -0.19774 0.06983
 C271 C 0.50117 0.27390 -0.00167
 C272 C 0.50772 0.25500 -0.04312
 C273 C 0.50754 0.21418 -0.04281
 C274 C 0.50082 0.19627 -0.00108
 C275 C 0.46155 0.21516 0.01398
 C276 C 0.46173 0.25598 0.01366
 C277 C 0.53382 0.25552 0.02486
 C278 C 0.53363 0.21470 0.02518
 C279 C 0.50135 0.31780 -0.00200
 C280 C 0.50148 0.35391 -0.00225
 C281 C 0.50064 0.15233 -0.00077
 C282 C 0.50054 0.11623 -0.00055
 H283 H 0.51213 0.27216 -0.07032
 H284 H 0.51178 0.19638 -0.06975
 H285 H 0.43586 0.19800 0.02400
 H286 H 0.43620 0.27378 0.02341
 H287 H 0.55520 0.27302 0.04188
 H288 H 0.55485 0.19724 0.04249
 C289 C -0.27522 -0.00178 0.50054
 C290 C -0.25706 0.01098 0.54072
 C291 C -0.21623 0.01114 0.54070
 C292 C -0.19758 -0.00146 0.50050
 C293 C -0.21611 0.02692 0.46956
 C294 C -0.25693 0.02674 0.46958
 C295 C -0.25647 -0.04284 0.49130
 C296 C -0.21565 -0.04268 0.49129
 C297 C -0.31913 -0.00193 0.50055
 C298 C -0.35525 -0.00199 0.50049
 C299 C -0.15363 -0.00127 0.50048
 C300 C -0.11752 -0.00111 0.50048
 H301 H -0.27471 0.01913 0.56688
 H302 H -0.19890 0.01945 0.56685
 H303 H -0.19871 0.04549 0.44939
 H304 H -0.27450 0.04516 0.44941
 H305 H -0.27373 -0.06968 0.48529
 H306 H -0.19794 -0.06937 0.48526
 C307 C 0.27366 0.00126 0.50123
 C308 C 0.25580 -0.02504 0.46808
 C309 C 0.21498 -0.02537 0.46795
 C310 C 0.19602 0.00063 0.50097
 C311 C 0.21399 0.04246 0.49504
 C312 C 0.25481 0.04279 0.49518
 C313 C 0.25516 -0.01443 0.54025
 C314 C 0.21434 -0.01476 0.54011
 C315 C 0.31757 0.00159 0.50138
 C316 C 0.35368 0.00182 0.50151
 C317 C 0.15208 0.00028 0.50083
 C318 C 0.11597 0.00003 0.50074
 H319 H 0.27365 -0.04188 0.44659
 H320 H 0.19785 -0.04252 0.44634
 H321 H 0.19622 0.06945 0.49109
 H322 H 0.27201 0.07006 0.49134
 H323 H 0.27259 -0.02437 0.56575
 H324 H 0.19679 -0.02500 0.56550
 C325 C 0.00172 0.50022 1.27355
 C326 C -0.00701 0.54154 1.25552
 C327 C -0.00731 0.54164 1.21475
 C328 C 0.00116 0.50039 1.19606
 C329 C -0.03013 0.47239 1.21463
 C330 C -0.02983 0.47229 1.25540
 C331 C 0.04162 0.48694 1.25468
 C332 C 0.04133 0.48703 1.21392
 C333 C 0.00200 0.50011 1.31736
 C334 C 0.00214 0.50001 1.35340
 C335 C 0.00083 0.50048 1.15223
 C336 C 0.00055 0.50052 1.11619
 H337 H -0.01247 0.56836 1.27320
 H338 H -0.01303 0.56854 1.19749
 H339 H -0.05070 0.45422 1.19730
 H340 H -0.05013 0.45404 1.27300
 H341 H 0.06779 0.47822 1.27182
 H342 H 0.06724 0.47839 1.19611
 C343 C -0.00220 0.50072 0.72588
 C344 C 0.02069 0.46512 0.74377
 C345 C 0.02106 0.46505 0.78453
 C346 C -0.00150 0.50059 0.80337
 C347 C -0.04377 0.49883 0.78553
 C348 C -0.04414 0.49890 0.74476
 C349 C 0.01732 0.53804 0.74416
 C350 C 0.01770 0.53797 0.78492
 C351 C -0.00256 0.50081 0.68207
 C352 C -0.00277 0.50093 0.64603
 C353 C -0.00111 0.50054 0.84720
 C354 C -0.00082 0.50052 0.88324
 H355 H 0.03529 0.44199 0.72599
 H356 H 0.03599 0.44187 0.80170
 H357 H -0.07100 0.49763 0.80334
 H358 H -0.07168 0.49776 0.72764
 H359 H 0.02973 0.56239 0.72663
 H360 H 0.03044 0.56226 0.80234
   
