data_POSCAR
  _audit_creation_date              2014-09-24
  _audit_creation_method            'ToBaCCo'
  _symmetry_space_group_name_H-M    'P1'
  _symmetry_Int_Tables_number       1
  _symmetry_cell_setting            triclinic
  loop_
  _symmetry_equiv_pos_as_xyz
 x,y,z
_cell_length_a 33.9156
_cell_length_b 30.9079
_cell_length_c 25.4675
_cell_angle_alpha 89.689600
_cell_angle_beta 90.330000
_cell_angle_gamma 90.203100
loop_
  _atom_site_label
  _atom_site_type_symbol
  _atom_site_fract_x
  _atom_site_fract_y
  _atom_site_fract_z
C1 C 0.32026 0.28215 0.21470
 H2 H 0.33482 0.25782 0.23831
 C3 C 0.34279 0.31035 0.18401
 H4 H 0.37455 0.30693 0.18370
 C5 C 0.26137 0.31651 0.18666
 H6 H 0.22960 0.31898 0.18857
 C7 C 0.28273 0.34527 0.15530
 H8 H 0.26717 0.37003 0.13330
 N9 N 0.28028 0.28544 0.21508
 C10 C 0.17750 0.27987 0.29956
 H11 H 0.16350 0.25528 0.27583
 C12 C 0.15429 0.30821 0.32861
 H13 H 0.12250 0.30519 0.32675
 C14 C 0.23576 0.31515 0.32859
 H15 H 0.26756 0.31789 0.32777
 C16 C 0.21374 0.34405 0.35826
 H17 H 0.22895 0.36855 0.38096
 Zn18 Zn 0.24934 0.24842 0.25765
 N19 N 0.21746 0.28383 0.30011
 C20 C 0.28390 0.21686 0.35254
 N21 N 0.28220 0.21262 0.29945
 C22 C 0.30294 0.18136 0.27451
 C23 C 0.32682 0.15295 0.30307
 C24 C 0.30764 0.18932 0.38261
 C25 C 0.21476 0.21783 0.16271
 C26 C 0.19218 0.18959 0.13219
 C27 C 0.17667 0.14883 0.21069
 C28 C 0.19898 0.17828 0.23985
 N29 N 0.21754 0.21188 0.21558
 H30 H 0.26676 0.24143 0.37178
 H31 H 0.30056 0.17829 0.23231
 H32 H 0.34237 0.12774 0.28245
 H33 H 0.30900 0.19367 0.42473
 H34 H 0.23029 0.24415 0.14392
 H35 H 0.19046 0.19449 0.09009
 H36 H 0.16224 0.12206 0.23045
 H37 H 0.20200 0.17410 0.28188
 C38 C 0.17239 0.34108 0.35816
 C39 C 0.32401 0.34237 0.15370
 C40 C 0.17311 0.15442 0.15617
 C41 C 0.32941 0.15666 0.35795
 C42 C 0.82131 0.78737 0.19789
 H43 H 0.83488 0.76636 0.22676
 C44 C 0.84501 0.81478 0.16769
 H45 H 0.87659 0.81261 0.17303
 C46 C 0.76390 0.81410 0.15607
 H47 H 0.73208 0.81483 0.15305
 C48 C 0.78641 0.84180 0.12472
 H49 H 0.77079 0.86360 0.09867
 N50 N 0.78147 0.78780 0.19213
 C51 C 0.69569 0.77458 0.31961
 H52 H 0.69456 0.74002 0.32593
 C53 C 0.67394 0.80186 0.35211
 H54 H 0.65659 0.78764 0.38331
 C55 C 0.72172 0.83487 0.27376
 H56 H 0.74094 0.84812 0.24421
 C57 C 0.69979 0.86316 0.30432
 H58 H 0.70172 0.89745 0.29598
 Zn59 Zn 0.74989 0.75387 0.23857
 N60 N 0.71916 0.79135 0.28135
 C61 C 0.78768 0.72722 0.33364
 N62 N 0.78304 0.71925 0.28149
 C63 C 0.80079 0.68493 0.25843
 C64 C 0.82371 0.65643 0.28823
 C65 C 0.81039 0.69948 0.36498
 C66 C 0.71312 0.71772 0.14717
 C67 C 0.68975 0.68794 0.12000
 C68 C 0.67506 0.65254 0.20235
 C69 C 0.69808 0.68351 0.22810
 N70 N 0.71651 0.71542 0.20043
 H71 H 0.77366 0.75496 0.35108
 H72 H 0.79645 0.67928 0.21691
 H73 H 0.83666 0.62866 0.26930
 H74 H 0.81379 0.70633 0.40640
 H75 H 0.72897 0.74202 0.12529
 H76 H 0.68754 0.69008 0.07762
 H77 H 0.66085 0.62715 0.22489
 H78 H 0.70216 0.68130 0.27012
 C79 C 0.67574 0.84698 0.34471
 C80 C 0.82783 0.84333 0.13064
 C81 C 0.67062 0.65471 0.14764
 C82 C 0.82850 0.66329 0.34239
 C83 C 0.80217 0.32215 0.73025
 H84 H 0.80056 0.32682 0.77226
 C85 C 0.82374 0.35107 0.69942
 H86 H 0.83888 0.37796 0.71787
 C87 C 0.78429 0.28144 0.65515
 H88 H 0.76918 0.25404 0.63812
 C89 C 0.80621 0.30917 0.62289
 H90 H 0.80726 0.30337 0.58103
 N91 N 0.78194 0.28898 0.70766
 C92 C 0.69654 0.27210 0.83396
 H93 H 0.69988 0.23814 0.84341
 C94 C 0.67255 0.29814 0.86502
 H95 H 0.65764 0.28425 0.89864
 C96 C 0.71130 0.33156 0.77825
 H97 H 0.72590 0.34441 0.74396
 C98 C 0.68692 0.35845 0.80744
 H99 H 0.68364 0.39207 0.79604
 Zn100 Zn 0.75104 0.25407 0.75329
 N101 N 0.71649 0.28948 0.79264
 C102 C 0.78675 0.22582 0.85035
 N103 N 0.78666 0.22321 0.79716
 C104 C 0.81195 0.19663 0.77198
 C105 C 0.83699 0.16930 0.80025
 C106 C 0.81092 0.19867 0.88042
 C107 C 0.69700 0.22772 0.67451
 C108 C 0.67436 0.19823 0.64567
 C109 C 0.69647 0.14138 0.70406
 C110 C 0.71921 0.17175 0.73107
 N111 N 0.71968 0.21388 0.71543
 H112 H 0.76794 0.24871 0.86982
 H113 H 0.81148 0.19541 0.72952
 H114 H 0.85421 0.14692 0.77753
 H115 H 0.81026 0.20287 0.92249
 H116 H 0.69712 0.26160 0.66362
 H117 H 0.65790 0.20980 0.61192
 H118 H 0.69624 0.10823 0.71794
 H119 H 0.73613 0.16162 0.76501
 C120 C 0.66784 0.34195 0.85194
 C121 C 0.82556 0.34498 0.64498
 C122 C 0.67409 0.15420 0.66005
 C123 C 0.83630 0.16858 0.85592
 C124 C 0.32005 0.77770 0.70442
 H125 H 0.33344 0.75319 0.72898
 C126 C 0.34402 0.80470 0.67409
 H127 H 0.37565 0.80013 0.67497
 C128 C 0.26281 0.81401 0.67406
 H129 H 0.23113 0.81787 0.67511
 C130 C 0.28565 0.84164 0.64302
 H131 H 0.27129 0.86686 0.62037
 N132 N 0.28021 0.78265 0.70369
 C133 C 0.17760 0.78332 0.78997
 H134 H 0.16250 0.75904 0.76697
 C135 C 0.15575 0.81226 0.81995
 H136 H 0.12388 0.81006 0.81943
 C137 C 0.23728 0.81690 0.81674
 H138 H 0.26911 0.81857 0.81490
 C139 C 0.21664 0.84638 0.84734
 H140 H 0.23293 0.87029 0.86963
 Zn141 Zn 0.24772 0.74819 0.74742
 N142 N 0.21763 0.78597 0.78919
 C143 C 0.28115 0.71725 0.84320
 N144 N 0.27915 0.71172 0.79031
 C145 C 0.29858 0.67887 0.76653
 C146 C 0.32150 0.65019 0.79608
 C147 C 0.30398 0.68952 0.87422
 C148 C 0.21063 0.71707 0.65409
 C149 C 0.18667 0.68895 0.62520
 C150 C 0.17102 0.65087 0.70557
 C151 C 0.19472 0.68011 0.73303
 N152 N 0.21407 0.71228 0.70706
 H153 H 0.26503 0.74306 0.86158
 H154 H 0.29596 0.67482 0.72448
 H155 H 0.33608 0.62379 0.77640
 H156 H 0.30570 0.69500 0.91612
 H157 H 0.22673 0.74231 0.63399
 H158 H 0.18453 0.69280 0.58298
 H159 H 0.15608 0.62518 0.72672
 H160 H 0.19823 0.67686 0.77511
 C161 C 0.17527 0.84439 0.84914
 C162 C 0.32686 0.83727 0.64296
 C163 C 0.16688 0.65512 0.65097
 C164 C 0.32448 0.65532 0.85076
 C165 C -0.03960 -0.03050 0.01799
 C166 C -0.01784 0.00274 -0.00585
 C167 C -0.03745 0.03731 -0.03016
 C168 C -0.07880 0.03889 -0.03089
 C169 C -0.10036 0.00589 -0.00577
 C170 C -0.08101 -0.02899 0.01892
 C171 C 0.02553 0.00191 -0.00402
 C172 C 0.04633 -0.03029 -0.03063
 C173 C 0.08774 -0.03119 -0.02880
 C174 C 0.10795 -0.00047 0.00178
 C175 C 0.08733 0.03165 0.02888
 C176 C 0.04610 0.03313 0.02505
 H177 H -0.02409 -0.05729 0.03623
 H178 H -0.02044 0.06296 -0.04849
 H179 H 0.03025 -0.05376 -0.05394
 H180 H 0.02990 0.05770 0.04605
 H181 H -0.13225 0.00743 -0.00554
 H182 H 0.13984 -0.00138 0.00437
 C183 C -0.04736 0.46773 0.51866
 C184 C -0.02556 0.50006 0.49309
 C185 C -0.04516 0.53368 0.46675
 C186 C -0.08659 0.53519 0.46551
 C187 C -0.10809 0.50320 0.49263
 C188 C -0.08868 0.46953 0.51943
 C189 C 0.01782 0.49958 0.49571
 C190 C 0.03908 0.46700 0.47036
 C191 C 0.08048 0.46644 0.47294
 C192 C 0.10017 0.49781 0.50310
 C193 C 0.07916 0.53030 0.52893
 C194 C 0.03796 0.53151 0.52427
 H195 H -0.03207 0.44221 0.53977
 H196 H -0.02804 0.55870 0.44739
 H197 H 0.02338 0.44297 0.44743
 H198 H 0.02145 0.55642 0.54424
 H199 H -0.14003 0.50381 0.49201
 H200 H 0.13204 0.49713 0.50633
 C201 C 0.46098 -0.03709 0.52731
 C202 C 0.48186 -0.00344 0.50289
 C203 C 0.46135 0.02995 0.47736
 C204 C 0.41993 0.02966 0.47539
 C205 C 0.39936 -0.00418 0.50033
 C206 C 0.41956 -0.03748 0.52677
 C207 C 0.52526 -0.00316 0.50415
 C208 C 0.54633 -0.03320 0.47448
 C209 C 0.58780 -0.03332 0.47521
 C210 C 0.60769 -0.00291 0.50683
 C211 C 0.58693 0.02760 0.53668
 C212 C 0.54550 0.02719 0.53488
 H213 H 0.47708 -0.06283 0.54686
 H214 H 0.47778 0.05607 0.45909
 H215 H 0.53016 -0.05562 0.44983
 H216 H 0.52877 0.04978 0.55819
 H217 H 0.36745 -0.00455 0.49934
 H218 H 0.63956 -0.00278 0.50801
 C219 C 0.45431 0.46566 0.02920
 C220 C 0.47526 0.49778 0.00211
 C221 C 0.45488 0.53037 -0.02501
 C222 C 0.41343 0.53066 -0.02602
 C223 C 0.39276 0.49837 0.00171
 C224 C 0.41293 0.46600 0.02985
 C225 C 0.51862 0.49707 0.00238
 C226 C 0.53866 0.46438 -0.02429
 C227 C 0.57996 0.46239 -0.02259
 C228 C 0.60107 0.49289 0.00719
 C229 C 0.58126 0.52624 0.03332
 C230 C 0.53997 0.52837 0.03031
 H231 H 0.47037 0.44049 0.04989
 H232 H 0.47141 0.55534 -0.04535
 H233 H 0.52207 0.44055 -0.04645
 H234 H 0.52435 0.55365 0.05086
 H235 H 0.36084 0.49845 0.00150
 H236 H 0.63300 0.49169 0.00832
 C237 C 0.16471 -0.08039 -0.11738
 C238 C 0.15269 -0.12391 -0.11944
 C239 C 0.11896 -0.13676 -0.09142
 C240 C 0.09780 -0.10675 -0.06197
 C241 C 0.11003 -0.06332 -0.05976
 C242 C 0.14367 -0.05048 -0.08783
 H243 H 0.19006 -0.06922 -0.13933
 H244 H 0.10924 -0.17016 -0.09162
 H245 H 0.07221 -0.11762 -0.04028
 H246 H 0.15336 -0.01706 -0.08766
 C247 C 0.15962 0.41675 0.38834
 C248 C 0.14840 0.37295 0.38741
 C249 C 0.11414 0.36011 0.41429
 C250 C 0.09185 0.39040 0.44187
 C251 C 0.10345 0.43406 0.44323
 C252 C 0.13746 0.44690 0.41594
 H253 H 0.18530 0.42790 0.36706
 H254 H 0.10493 0.32654 0.41474
 H255 H 0.06595 0.37955 0.46292
 H256 H 0.14667 0.48048 0.41537
 C257 C 0.66812 -0.08128 0.38992
 C258 C 0.65328 -0.12286 0.37897
 C259 C 0.61676 -0.13495 0.40065
 C260 C 0.59578 -0.10628 0.43230
 C261 C 0.61036 -0.06442 0.44236
 C262 C 0.64676 -0.05234 0.42042
 H263 H 0.69648 -0.07086 0.37519
 H264 H 0.60398 -0.16638 0.39273
 H265 H 0.56821 -0.11715 0.44909
 H266 H 0.65877 -0.02023 0.42615
 C267 C 0.65112 0.37401 -0.06105
 C268 C 0.64370 0.37073 -0.11520
 C269 C 0.61435 0.39663 -0.13823
 C270 C 0.59294 0.42558 -0.10771
 C271 C 0.60108 0.42976 -0.05385
 C272 C 0.63026 0.40367 -0.03069
 H273 H 0.67385 0.35452 -0.04262
 H274 H 0.60814 0.39453 -0.17991
 H275 H 0.57073 0.44561 -0.12641
 H276 H 0.63691 0.40633 0.01082
 C277 C -0.10865 0.11827 -0.13747
 C278 C -0.14178 0.13936 -0.11556
 C279 C -0.15198 0.12771 -0.06334
 C280 C -0.13140 0.09556 -0.03588
 C281 C -0.09948 0.07441 -0.05890
 C282 C -0.08794 0.08658 -0.10955
 H283 H -0.09719 0.12681 -0.17564
 H284 H -0.17747 0.14088 -0.04397
 H285 H -0.14076 0.08691 0.00340
 H286 H -0.06317 0.07094 -0.12813
 C287 C -0.16201 0.61990 0.42522
 C288 C -0.14865 0.63215 0.37512
 C289 C -0.11398 0.61333 0.35585
 C290 C -0.09359 0.58242 0.38551
 C291 C -0.10735 0.56956 0.43518
 C292 C -0.14161 0.58894 0.45489
 H293 H -0.18881 0.63346 0.44102
 H294 H -0.10264 0.62244 0.31768
 H295 H -0.06750 0.56783 0.36898
 H296 H -0.15271 0.58012 0.49328
 C297 C 0.34049 0.11061 0.43823
 C298 C 0.35372 0.12586 0.38928
 C299 C 0.38981 0.11054 0.36995
 C300 C 0.41164 0.07995 0.39828
 C301 C 0.39799 0.06409 0.44673
 C302 C 0.36243 0.08026 0.46669
 H303 H 0.31266 0.12133 0.45410
 H304 H 0.40117 0.12209 0.33277
 H305 H 0.43874 0.06792 0.38158
 H306 H 0.35138 0.06926 0.50428
 C307 C 0.33494 0.61153 -0.06697
 C308 C 0.34811 0.62465 -0.11684
 C309 C 0.38366 0.60764 -0.13582
 C310 C 0.40510 0.57763 -0.10610
 C311 C 0.39162 0.56409 -0.05655
 C312 C 0.35651 0.58177 -0.03712
 H313 H 0.30749 0.62357 -0.05134
 H314 H 0.39497 0.61752 -0.17371
 H315 H 0.43181 0.56434 -0.12246
 H316 H 0.34560 0.57254 0.00122
 C317 C -0.16198 -0.10945 0.05309
 C318 C -0.14890 -0.12652 0.10176
 C319 C -0.11229 -0.11158 0.12151
 C320 C -0.09036 -0.08037 0.09450
 C321 C -0.10392 -0.06322 0.04660
 C322 C -0.13979 -0.07845 0.02599
 H323 H -0.18880 -0.12081 0.03453
 H324 H -0.10113 -0.12190 0.15938
 H325 H -0.06322 -0.06868 0.11209
 H326 H -0.15061 -0.06670 -0.01153
 C327 C -0.12523 0.36258 0.57480
 C328 C -0.15311 0.37650 0.61155
 C329 C -0.16032 0.42098 0.61680
 C330 C -0.13994 0.45105 0.58600
 C331 C -0.11148 0.43727 0.55001
 C332 C -0.10426 0.39277 0.54466
 H333 H -0.11912 0.32844 0.57025
 H334 H -0.18189 0.43242 0.64463
 H335 H -0.14579 0.48520 0.59108
 H336 H -0.08251 0.38143 0.51702
 C337 C 0.34020 -0.11953 0.56122
 C338 C 0.35178 -0.13256 0.61192
 C339 C 0.38681 -0.11561 0.63338
 C340 C 0.40927 -0.08552 0.60525
 C341 C 0.39722 -0.07174 0.55501
 C342 C 0.36270 -0.08951 0.53304
 H343 H 0.31371 -0.13259 0.54331
 H344 H 0.39623 -0.12459 0.67264
 H345 H 0.43540 -0.07197 0.62354
 H346 H 0.35302 -0.08011 0.49404
 C347 C 0.33440 0.38500 0.07078
 C348 C 0.34734 0.37307 0.12132
 C349 C 0.38246 0.39114 0.14101
 C350 C 0.40393 0.42089 0.11108
 C351 C 0.39080 0.43317 0.06074
 C352 C 0.35592 0.41468 0.04078
 H353 H 0.30776 0.37109 0.05427
 H354 H 0.39287 0.38304 0.18011
 H355 H 0.43034 0.43509 0.12788
 H356 H 0.34540 0.42295 0.00180
 C357 C 0.12272 0.13746 0.08700
 C358 C 0.15053 0.12306 0.12420
 C359 C 0.15719 0.07849 0.13010
 C360 C 0.13679 0.04883 0.09884
 C361 C 0.10889 0.06319 0.06179
 C362 C 0.10179 0.10772 0.05638
 H363 H 0.11702 0.17169 0.08198
 H364 H 0.17871 0.06669 0.15828
 H365 H 0.14252 0.01460 0.10389
 H366 H 0.08048 0.11947 0.02789
 C367 C 0.14910 0.57887 0.62877
 C368 C 0.14331 0.62338 0.62077
 C369 C 0.11560 0.63720 0.58310
 C370 C 0.09405 0.60695 0.55391
 C371 C 0.10048 0.56247 0.56124
 C372 C 0.12811 0.54870 0.59898
 H373 H 0.17051 0.56746 0.65732
 H374 H 0.11056 0.67139 0.57647
 H375 H 0.07299 0.61824 0.52484
 H376 H 0.13335 0.51453 0.60546
 C377 C 0.66522 0.07919 0.62377
 C378 C 0.65118 0.12171 0.62918
 C379 C 0.61535 0.13278 0.60451
 C380 C 0.59449 0.10236 0.57470
 C381 C 0.60861 0.05987 0.56933
 C382 C 0.64406 0.04864 0.59476
 H383 H 0.69295 0.06946 0.64134
 H384 H 0.60320 0.16492 0.60836
 H385 H 0.56757 0.11242 0.55521
 H386 H 0.65556 0.01609 0.59246
 C387 C 0.65360 0.57755 0.12835
 C388 C 0.64711 0.62182 0.11924
 C389 C 0.61860 0.63447 0.08207
 C390 C 0.59681 0.60337 0.05466
 C391 C 0.60371 0.55911 0.06321
 C392 C 0.63235 0.54645 0.10020
 H393 H 0.67565 0.56708 0.15656
 H394 H 0.61303 0.66844 0.07456
 H395 H 0.57500 0.61384 0.02611
 H396 H 0.63800 0.51248 0.10757
   
