data_POSCAR
  _audit_creation_date              2014-09-24
  _audit_creation_method            'ToBaCCo'
  _symmetry_space_group_name_H-M    'P1'
  _symmetry_Int_Tables_number       1
  _symmetry_cell_setting            triclinic
  loop_
  _symmetry_equiv_pos_as_xyz
 x,y,z
_cell_length_a 47.5431
_cell_length_b 48.7119
_cell_length_c 48.7949
_cell_angle_alpha 90.788900
_cell_angle_beta 89.489500
_cell_angle_gamma 89.082000
loop_
  _atom_site_label
  _atom_site_type_symbol
  _atom_site_fract_x
  _atom_site_fract_y
  _atom_site_fract_z
C1 C 0.20645 1.22736 0.18907
 C2 C 0.22826 1.20763 0.18794
 C3 C 0.23016 1.18792 0.20795
 C4 C 0.21024 1.18760 0.22931
 C5 C 0.18878 1.20693 0.23037
 C6 C 0.18686 1.22700 0.21006
 C7 C 0.19871 1.24818 0.17183
 N8 N 0.17467 1.26071 0.18164
 C9 C 0.16748 1.24757 0.20520
 C10 C 0.17176 1.20062 0.25226
 N11 N 0.18218 1.17767 0.26471
 C12 C 0.20595 1.16984 0.25051
 C13 C 0.25230 1.17065 0.20093
 N14 N 0.26391 1.17927 0.17702
 C15 C 0.24928 1.20198 0.16901
 H16 H 0.20968 1.25288 0.15303
 H17 H 0.14952 1.25225 0.21825
 H18 H 0.15272 1.21182 0.25778
 H19 H 0.21927 1.15221 0.25450
 H20 H 0.25918 1.15294 0.21237
 H21 H 0.25284 1.21302 0.15024
 C22 C 0.79248 0.77376 0.19358
 C23 C 0.77119 0.79397 0.19242
 C24 C 0.77080 0.81556 0.21107
 C25 C 0.79164 0.81723 0.23116
 C26 C 0.81250 0.79734 0.23232
 C27 C 0.81292 0.77539 0.21336
 C28 C 0.79903 0.75138 0.17715
 N29 N 0.82316 0.73910 0.18630
 C30 C 0.83155 0.75392 0.20868
 C31 C 0.83039 0.80487 0.25299
 N32 N 0.82105 0.82905 0.26468
 C33 C 0.79714 0.83652 0.25112
 C34 C 0.74882 0.83276 0.20424
 N35 N 0.73575 0.82217 0.18186
 C36 C 0.74939 0.79836 0.17456
 H37 H 0.78680 0.74502 0.15971
 H38 H 0.85040 0.75041 0.22041
 H39 H 0.84907 0.79336 0.25844
 H40 H 0.78446 0.85481 0.25479
 H41 H 0.74347 0.85210 0.21431
 H42 H 0.74406 0.78518 0.15741
 C43 C 0.78781 1.23468 -0.18468
 C44 C 0.76798 1.21367 -0.18509
 C45 C 0.77037 1.19263 -0.20436
 C46 C 0.79234 1.19260 -0.22374
 C47 C 0.81170 1.21334 -0.22337
 C48 C 0.80949 1.23448 -0.20361
 C49 C 0.79202 1.25646 -0.16704
 N50 N 0.81599 1.26967 -0.17455
 C51 C 0.82653 1.25612 -0.19721
 C52 C 0.83127 1.20739 -0.24357
 N53 N 0.82442 1.18341 -0.25655
 C54 C 0.80042 1.17438 -0.24421
 C55 C 0.74958 1.17415 -0.19871
 N56 N 0.73453 1.18359 -0.17664
 C57 C 0.74559 1.20778 -0.16821
 H58 H 0.77887 1.26120 -0.14939
 H59 H 0.84554 1.26088 -0.20831
 H60 H 0.84913 1.22004 -0.24808
 H61 H 0.78958 1.15561 -0.24894
 H62 H 0.74591 1.15504 -0.20960
 H63 H 0.73852 1.21966 -0.15046
 C64 C 0.20050 0.76944 -0.19041
 C65 C 0.22198 0.78884 -0.19092
 C66 C 0.22270 0.80816 -0.21138
 C67 C 0.20190 0.80838 -0.23160
 C68 C 0.18086 0.78928 -0.23108
 C69 C 0.18018 0.76962 -0.21035
 C70 C 0.19390 0.74900 -0.17242
 N71 N 0.16987 0.73648 -0.18081
 C72 C 0.16154 0.74927 -0.20421
 C73 C 0.16294 0.79517 -0.25221
 N74 N 0.17234 0.81765 -0.26580
 C75 C 0.19642 0.82563 -0.25305
 C76 C 0.24501 0.82502 -0.20605
 N77 N 0.25785 0.81648 -0.18277
 C78 C 0.24379 0.79431 -0.17345
 H79 H 0.20613 0.74398 -0.15457
 H80 H 0.14288 0.74500 -0.21588
 H81 H 0.14400 0.78399 -0.25643
 H82 H 0.20921 0.84293 -0.25830
 H83 H 0.25124 0.84231 -0.21825
 H84 H 0.24839 0.78342 -0.15480
 C85 C 0.54763 1.02491 -0.01297
 H86 H 0.55044 1.01939 0.00824
 C87 C 0.56792 1.04042 -0.02625
 H88 H 0.58630 1.04699 -0.01514
 C89 C 0.52056 1.02247 -0.05349
 H90 H 0.50237 1.01499 -0.06417
 C91 C 0.54009 1.03840 -0.06742
 H92 H 0.53679 1.04309 -0.08880
 N93 N 0.52468 1.01604 -0.02675
 C94 C 0.45411 1.00033 0.02765
 H95 H 0.45082 0.97884 0.02305
 C96 C 0.43536 1.01467 0.04496
 H97 H 0.41750 1.00405 0.05338
 C98 C 0.48087 1.04039 0.02118
 H99 H 0.49857 1.05033 0.01172
 C100 C 0.46269 1.05552 0.03849
 H101 H 0.46687 1.07698 0.04249
 Zn102 Zn 0.49998 0.99262 -0.00791
 N103 N 0.47635 1.01329 0.01624
 C104 C 0.51783 0.96404 0.03937
 N105 N 0.52231 0.96748 0.01207
 C106 C 0.54404 0.95445 -0.00126
 C107 C 0.56250 0.93735 0.01298
 C108 C 0.53564 0.94696 0.05435
 C109 C 0.45548 0.98816 -0.04474
 C110 C 0.43647 0.97495 -0.06190
 C111 C 0.46165 0.93225 -0.05459
 C112 C 0.48006 0.94625 -0.03740
 N113 N 0.47670 0.97372 -0.03286
 H114 H 0.50067 0.97479 0.04969
 H115 H 0.54740 0.95789 -0.02289
 H116 H 0.58015 0.92789 0.00210
 H117 H 0.53155 0.94439 0.07602
 H118 H 0.45299 1.00990 -0.04039
 H119 H 0.41929 0.98675 -0.07051
 H120 H 0.46487 0.91044 -0.05812
 H121 H 0.49683 0.93505 -0.02752
 C122 C 0.43951 1.04268 0.05061
 C123 C 0.56429 1.04720 -0.05385
 C124 C 0.43931 0.94656 -0.06693
 C125 C 0.55857 0.93358 0.04125
 C126 C -0.01006 0.54125 1.04195
 H127 H 0.01264 0.54236 1.04249
 C128 C -0.02650 0.55961 1.05770
 H129 H -0.01623 0.57491 1.07023
 C130 C -0.05088 0.52085 1.02369
 H131 H -0.06032 0.50611 1.01001
 C132 C -0.06812 0.53878 1.03913
 H133 H -0.09074 0.53719 1.03756
 N134 N -0.02240 0.52237 1.02539
 C135 C 0.04094 0.45809 1.01031
 H136 H 0.04122 0.45783 0.98813
 C137 C 0.05756 0.43936 1.02459
 H138 H 0.07047 0.42459 1.01320
 C139 C 0.02278 0.47704 1.05194
 H140 H 0.00891 0.49151 1.06250
 C141 C 0.03905 0.45863 1.06706
 H142 H 0.03790 0.45950 1.08923
 Zn143 Zn 0.00147 0.50016 1.00279
 N144 N 0.02416 0.47655 1.02408
 C145 C 0.05263 0.52302 0.98350
 N146 N 0.02407 0.52419 0.98224
 C147 C 0.01059 0.54362 0.96727
 C148 C 0.02593 0.56266 0.95241
 C149 C 0.06880 0.54169 0.96897
 C150 C -0.03594 0.45806 0.99095
 C151 C -0.05142 0.44011 0.97469
 C152 C -0.03333 0.46245 0.93446
 C153 C -0.01821 0.48001 0.95150
 N154 N -0.01992 0.47764 0.97921
 H155 H 0.06297 0.50781 0.99597
 H156 H -0.01216 0.54441 0.96707
 H157 H 0.01477 0.57819 0.94093
 H158 H 0.09152 0.54026 0.96999
 H159 H -0.03648 0.45629 1.01302
 H160 H -0.06372 0.42441 0.98444
 H161 H -0.03190 0.46480 0.91246
 H162 H -0.00492 0.49529 0.94251
 C163 C 0.05675 0.43945 1.05337
 C164 C -0.05597 0.55866 1.05626
 C165 C -0.05019 0.44213 0.94602
 C166 C 0.05545 0.56187 0.95316
 C167 C 1.04144 -0.00331 0.54246
 H168 H 1.03963 0.01881 0.54427
 C169 C 1.05846 -0.01789 0.56053
 H170 H 1.06958 -0.00680 0.57634
 C171 C 1.02791 -0.04462 0.52041
 H172 H 1.01559 -0.05502 0.50509
 C173 C 1.04470 -0.06001 0.53804
 H174 H 1.04553 -0.08214 0.53566
 N175 N 1.02666 -0.01678 0.52285
 C176 C 1.00869 0.04343 0.45982
 H177 H 0.98605 0.04185 0.45888
 C178 C 1.02280 0.06057 0.44180
 H179 H 1.01083 0.07200 0.42689
 C180 C 1.05179 0.02935 0.47966
 H181 H 1.06305 0.01683 0.49414
 C182 C 1.06676 0.04623 0.46201
 H183 H 1.08945 0.04690 0.46350
 Zn184 Zn 1.00243 0.00443 0.50066
 N185 N 1.02326 0.02836 0.47833
 C186 C 0.97694 0.05253 0.52428
 N187 N 0.97806 0.02462 0.52459
 C188 C 0.96304 0.01028 0.54325
 C189 C 0.94582 0.02401 0.56247
 C190 C 0.96000 0.06710 0.54316
 C191 C 0.99647 -0.03287 0.45728
 C192 C 0.98255 -0.04959 0.43852
 C193 C 0.93842 -0.03617 0.46013
 C194 C 0.95322 -0.01971 0.47852
 N195 N 0.98175 -0.01854 0.47691
 H196 H 0.98946 0.06361 0.50969
 H197 H 0.96476 -0.01190 0.54338
 H198 H 0.93443 0.01222 0.57745
 H199 H 0.95925 0.08930 0.54248
 H200 H 1.01911 -0.03114 0.45615
 H201 H 0.99465 -0.06054 0.42284
 H202 H 0.91574 -0.03709 0.46192
 H203 H 0.94183 -0.00775 0.49389
 C204 C 1.05226 0.06207 0.44269
 C205 C 1.06014 -0.04667 0.55855
 C206 C 0.95311 -0.05139 0.43978
 C207 C 0.94423 0.05283 0.56267
 C208 C 0.13343 0.29090 1.17974
 C209 C 0.11845 0.31208 1.16711
 C210 C 0.12957 0.32513 1.14424
 C211 C 0.15615 0.31693 1.13418
 C212 C 0.17122 0.29573 1.14668
 C213 C 0.16013 0.28203 1.16968
 N214 N 0.11326 0.34622 1.13136
 N215 N 0.12226 0.35893 1.11051
 C216 C 0.10582 0.37964 1.09719
 C217 C 0.11718 0.39263 1.07433
 C218 C 0.10141 0.41229 1.06028
 C219 C 0.07387 0.41929 1.06890
 C220 C 0.06264 0.40643 1.09211
 C221 C 0.07845 0.38677 1.10614
 H222 H 0.12344 0.28135 1.19702
 H223 H 0.09791 0.31820 1.17504
 H224 H 0.16529 0.32681 1.11655
 H225 H 0.19167 0.29057 1.13815
 H226 H 0.13827 0.38737 1.06729
 H227 H 0.11080 0.42209 1.04273
 H228 H 0.04139 0.41111 1.09905
 H229 H 0.06917 0.37694 1.12372
 C230 C -0.13939 0.70445 1.18727
 C231 C -0.12477 0.68243 1.17479
 C232 C -0.13316 0.67202 1.14942
 C233 C -0.15682 0.68357 1.13674
 C234 C -0.17157 0.70553 1.14912
 C235 C -0.16300 0.71676 1.17456
 N236 N -0.11696 0.65024 1.13666
 N237 N -0.12304 0.64055 1.11313
 C238 C -0.10660 0.61925 1.09990
 C239 C -0.11408 0.61051 1.07358
 C240 C -0.09789 0.59059 1.05955
 C241 C -0.07384 0.57897 1.07170
 C242 C -0.06662 0.58751 1.09835
 C243 C -0.08283 0.60749 1.11234
 H244 H -0.13196 0.71142 1.20695
 H245 H -0.10662 0.67359 1.18486
 H246 H -0.16377 0.67585 1.11706
 H247 H -0.18923 0.71383 1.13806
 H248 H -0.13229 0.61951 1.06374
 H249 H -0.10380 0.58480 1.03891
 H250 H -0.04845 0.57870 1.10841
 H251 H -0.07668 0.61386 1.13273
 C252 C -0.14541 0.30149 0.83094
 C253 C -0.13263 0.32269 0.84556
 C254 C -0.14604 0.33470 0.86856
 C255 C -0.17259 0.32564 0.87634
 C256 C -0.18549 0.30442 0.86183
 C257 C -0.17200 0.29150 0.83898
 N258 N -0.13284 0.35553 0.88473
 N259 N -0.10840 0.36421 0.87902
 C260 C -0.09477 0.38447 0.89554
 C261 C -0.06775 0.39272 0.88807
 C262 C -0.05338 0.41167 0.90426
 C263 C -0.06585 0.42271 0.92832
 C264 C -0.09315 0.41461 0.93560
 C265 C -0.10751 0.39566 0.91936
 H266 H -0.13377 0.29284 0.81374
 H267 H -0.11206 0.32941 0.83906
 H268 H -0.18323 0.33488 0.89398
 H269 H -0.20602 0.29843 0.86889
 H270 H -0.05767 0.38415 0.86982
 H271 H -0.03225 0.41719 0.89828
 H272 H -0.10346 0.42301 0.95380
 H273 H -0.12842 0.38964 0.92554
 C274 C 0.13280 0.70260 0.82012
 C275 C 0.11871 0.68164 0.83355
 C276 C 0.12751 0.67279 0.85920
 C277 C 0.15093 0.68499 0.87133
 C278 C 0.16514 0.70594 0.85801
 C279 C 0.15629 0.71542 0.83212
 N280 N 0.11210 0.65173 0.87260
 N281 N 0.11877 0.64293 0.89614
 C282 C 0.10305 0.62215 0.90967
 C283 C 0.11135 0.61378 0.93573
 C284 C 0.09608 0.59404 0.94979
 C285 C 0.07214 0.58231 0.93795
 C286 C 0.06401 0.59059 0.91164
 C287 C 0.07931 0.61033 0.89761
 H288 H 0.12507 0.70828 0.80024
 H289 H 0.10072 0.67229 0.82392
 H290 H 0.15815 0.67849 0.89123
 H291 H 0.18272 0.71478 0.86859
 H292 H 0.12955 0.62280 0.94527
 H293 H 0.10268 0.58838 0.97015
 H294 H 0.04591 0.58167 0.90182
 H295 H 0.07252 0.61640 0.87743
 C296 C 1.18232 0.13963 0.29659
 C297 C 1.16967 0.12554 0.31806
 C298 C 1.14490 0.13557 0.33033
 C299 C 1.13302 0.16030 0.32122
 C300 C 1.14556 0.17450 0.29974
 C301 C 1.17037 0.16432 0.28662
 N302 N 1.13193 0.11988 0.35145
 N303 N 1.10924 0.12765 0.36346
 C304 C 1.09601 0.11144 0.38402
 C305 C 1.07105 0.12117 0.39636
 C306 C 1.05701 0.10536 0.41569
 C307 C 1.06774 0.07942 0.42301
 C308 C 1.09305 0.06987 0.41083
 C309 C 1.10706 0.08571 0.39151
 H310 H 1.20126 0.13055 0.28789
 H311 H 1.17907 0.10648 0.32496
 H312 H 1.11386 0.16855 0.33051
 H313 H 1.13537 0.19337 0.29365
 H314 H 1.06234 0.14099 0.39079
 H315 H 1.03777 0.11345 0.42496
 H316 H 1.10167 0.04984 0.41572
 H317 H 1.12628 0.07768 0.38219
 C318 C 1.13467 -0.18029 0.70076
 C319 C 1.12098 -0.16676 0.67950
 C320 C 1.13146 -0.14235 0.66920
 C321 C 1.15625 -0.13170 0.68011
 C322 C 1.17006 -0.14512 0.70140
 C323 C 1.15941 -0.16962 0.71251
 N324 N 1.11615 -0.12854 0.64818
 N325 N 1.12440 -0.10620 0.63780
 C326 C 1.10851 -0.09219 0.61730
 C327 C 1.11884 -0.06780 0.60658
 C328 C 1.10335 -0.05314 0.58725
 C329 C 1.07715 -0.06268 0.57833
 C330 C 1.06699 -0.08736 0.58895
 C331 C 1.08251 -0.10199 0.60824
 H332 H 1.12543 -0.19906 0.70770
 H333 H 1.10190 -0.17524 0.67115
 H334 H 1.16481 -0.11281 0.67242
 H335 H 1.18883 -0.13570 0.70912
 H336 H 1.13887 -0.06005 0.61337
 H337 H 1.11193 -0.03440 0.57922
 H338 H 1.04672 -0.09505 0.58283
 H339 H 1.07399 -0.12074 0.61630
 C340 C 0.82207 -0.13131 0.29563
 C341 C 0.83524 -0.11642 0.31641
 C342 C 0.86020 -0.12609 0.32790
 C343 C 0.87187 -0.15116 0.31856
 C344 C 0.85881 -0.16617 0.29777
 C345 C 0.83365 -0.15652 0.28561
 N346 N 0.87343 -0.10986 0.34866
 N347 N 0.89627 -0.11738 0.35994
 C348 C 0.90968 -0.10087 0.38037
 C349 C 0.93484 -0.11035 0.39180
 C350 C 0.94884 -0.09444 0.41126
 C351 C 0.93785 -0.06865 0.41965
 C352 C 0.91241 -0.05929 0.40831
 C353 C 0.89844 -0.07523 0.38884
 H354 H 0.80290 -0.12259 0.28764
 H355 H 0.82601 -0.09710 0.32350
 H356 H 0.89119 -0.15911 0.32719
 H357 H 0.86889 -0.18524 0.29145
 H358 H 0.94367 -0.13010 0.38549
 H359 H 0.96819 -0.10238 0.41987
 H360 H 0.90359 -0.03939 0.41407
 H361 H 0.87905 -0.06740 0.38024
 C362 C 0.86526 0.18063 0.71302
 C363 C 0.88030 0.16737 0.69182
 C364 C 0.86985 0.14383 0.67920
 C365 C 0.84391 0.13361 0.68791
 C366 C 0.82876 0.14676 0.70913
 C367 C 0.83913 0.17057 0.72231
 N368 N 0.88614 0.13058 0.65786
 N369 N 0.87795 0.10903 0.64545
 C370 C 0.89455 0.09571 0.62437
 C371 C 0.88438 0.07197 0.61170
 C372 C 0.90035 0.05813 0.59149
 C373 C 0.92686 0.06789 0.58359
 C374 C 0.93691 0.09189 0.59621
 C375 C 0.92093 0.10568 0.61642
 H376 H 0.87473 0.19851 0.72209
 H377 H 0.90034 0.17542 0.68529
 H378 H 0.83533 0.11542 0.67837
 H379 H 0.80883 0.13806 0.71472
 H380 H 0.86406 0.06411 0.61760
 H381 H 0.89188 0.03990 0.58193
 H382 H 0.95740 0.09971 0.59087
 H383 H 0.92930 0.12396 0.62597
 C384 C 0.30317 1.18049 0.14329
 C385 C 0.32465 1.16722 0.12818
 C386 C 0.33024 1.13921 0.13160
 C387 C 0.31411 1.12451 0.15049
 C388 C 0.29253 1.13768 0.16547
 C389 C 0.28669 1.16584 0.16202
 N390 N 0.35184 1.12602 0.11526
 N391 N 0.35904 1.10104 0.11873
 C392 C 0.37999 1.08735 0.10202
 C393 C 0.38791 1.06041 0.10826
 C394 C 0.40754 1.04604 0.09186
 C395 C 0.41950 1.05837 0.06870
 C396 C 0.41170 1.08561 0.06265
 C397 C 0.39215 1.10000 0.07919
 H398 H 0.29959 1.20223 0.14036
 H399 H 0.33696 1.17880 0.11371
 H400 H 0.31787 1.10277 0.15338
 H401 H 0.28006 1.12558 0.17931
 H402 H 0.37872 1.05047 0.12585
 H403 H 0.41341 1.02529 0.09737
 H404 H 0.42019 1.09559 0.04478
 H405 H 0.38623 1.12079 0.07386
 C406 C 0.68858 1.18428 -0.15273
 C407 C 0.66692 1.17062 -0.13926
 C408 C 0.66865 1.14220 -0.13559
 C409 C 0.69200 1.12738 -0.14620
 C410 C 0.71336 1.14094 -0.16015
 C411 C 0.71198 1.16954 -0.16330
 N412 N 0.64663 1.12886 -0.12092
 N413 N 0.65002 1.10483 -0.11145
 C414 C 0.62816 1.09098 -0.09709
 C415 C 0.63518 1.06770 -0.08197
 C416 C 0.61444 1.05369 -0.06761
 C417 C 0.58619 1.06248 -0.06865
 C418 C 0.57907 1.08564 -0.08412
 C419 C 0.59994 1.09998 -0.09805
 H420 H 0.68702 1.20631 -0.15511
 H421 H 0.64899 1.18225 -0.13126
 H422 H 0.69370 1.10536 -0.14376
 H423 H 0.73130 1.12919 -0.16794
 H424 H 0.65682 1.06052 -0.08118
 H425 H 0.62037 1.03572 -0.05604
 H426 H 0.55741 1.09278 -0.08515
 H427 H 0.59403 1.11784 -0.10977
 C428 C 0.29874 0.81436 -0.15169
 C429 C 0.32090 0.82706 -0.13811
 C430 C 0.32639 0.85481 -0.14227
 C431 C 0.30951 0.86982 -0.16040
 C432 C 0.28721 0.85722 -0.17386
 C433 C 0.28142 0.82933 -0.16957
 N434 N 0.34861 0.86740 -0.12725
 N435 N 0.35608 0.89197 -0.13144
 C436 C 0.37768 0.90476 -0.11571
 C437 C 0.38650 0.93099 -0.12285
 C438 C 0.40683 0.94442 -0.10734
 C439 C 0.41857 0.93187 -0.08419
 C440 C 0.40978 0.90539 -0.07722
 C441 C 0.38960 0.89192 -0.09287
 H442 H 0.29527 0.79280 -0.14821
 H443 H 0.33379 0.81526 -0.12422
 H444 H 0.31323 0.89138 -0.16382
 H445 H 0.27416 0.86953 -0.18711
 H446 H 0.37750 0.94108 -0.14044
 H447 H 0.41340 0.96460 -0.11354
 H448 H 0.41797 0.89529 -0.05928
 H449 H 0.38297 0.87171 -0.08681
 C450 C 0.69423 0.85353 0.18134
 C451 C 0.67242 0.86659 0.16731
 C452 C 0.66818 0.86103 0.13948
 C453 C 0.68595 0.84196 0.12575
 C454 C 0.70791 0.82900 0.13969
 C455 C 0.71246 0.83475 0.16765
 N456 N 0.64636 0.87566 0.12552
 N457 N 0.64004 0.87038 0.10073
 C458 C 0.61885 0.88580 0.08666
 C459 C 0.61123 0.87757 0.06021
 C460 C 0.59133 0.89276 0.04558
 C461 C 0.57884 0.91667 0.05714
 C462 C 0.58646 0.92474 0.08384
 C463 C 0.60619 0.90942 0.09849
 H464 H 0.69675 0.85814 0.20291
 H465 H 0.65882 0.88122 0.17813
 H466 H 0.68320 0.83746 0.10416
 H467 H 0.72169 0.81501 0.12835
 H468 H 0.62082 0.85938 0.05087
 H469 H 0.58568 0.88573 0.02525
 H470 H 0.57770 0.94329 0.09320
 H471 H 0.61189 0.91634 0.11884
   
