data_POSCAR
  _audit_creation_date              2014-09-24
  _audit_creation_method            'ToBaCCo'
  _symmetry_space_group_name_H-M    'P1'
  _symmetry_Int_Tables_number       1
  _symmetry_cell_setting            triclinic
  loop_
  _symmetry_equiv_pos_as_xyz
 x,y,z
_cell_length_a 53.0955
_cell_length_b 53.1037
_cell_length_c 38.8012
_cell_angle_alpha 90.083700
_cell_angle_beta 89.955300
_cell_angle_gamma 120.069500
loop_
  _atom_site_label
  _atom_site_type_symbol
  _atom_site_fract_x
  _atom_site_fract_y
  _atom_site_fract_z
C1 C 0.06837 0.54713 0.07043
 C2 C 0.06740 0.52089 0.07167
 C3 C 0.04546 0.50238 0.04934
 N4 N 0.03303 0.51656 0.03463
 C5 C 0.04694 0.54393 0.04744
 C6 C 0.03818 0.47333 0.04236
 C7 C 0.01652 0.45452 0.01879
 C8 C 0.01243 0.42768 0.00856
 C9 C -0.01003 0.41639 -0.01481
 C10 C -0.01919 0.43659 -0.01835
 N11 N -0.00318 0.45953 0.00270
 C12 C -0.04178 0.43322 -0.04075
 C13 C -0.04852 0.45531 -0.04836
 C14 C -0.07007 0.45209 -0.07121
 C15 C -0.06909 0.47830 -0.07247
 C16 C -0.04705 0.49691 -0.05026
 N17 N -0.03456 0.48273 -0.03564
 C18 C -0.03969 0.52606 -0.04336
 C19 C -0.01792 0.54491 -0.01980
 C20 C -0.01360 0.57187 -0.00958
 C21 C 0.00888 0.58307 0.01377
 C22 C 0.01780 0.56273 0.01733
 N23 N 0.00169 0.53978 -0.00368
 C24 C 0.04026 0.56599 0.03978
 H25 H 0.08312 0.56631 0.08501
 H26 H 0.08143 0.51612 0.08716
 H27 H 0.00522 0.52265 -0.00855
 H28 H 0.02463 0.41741 0.01672
 H29 H -0.01840 0.39576 -0.02805
 H30 H -0.08489 0.43288 -0.08572
 H31 H -0.08320 0.48302 -0.08789
 H32 H 0.01739 0.60372 0.02699
 H33 H -0.00688 0.47655 0.00768
 H34 H -0.02567 0.58228 -0.01776
 C35 C 0.52125 0.45299 -0.07281
 C36 C 0.54745 0.47831 -0.07138
 C37 C 0.54424 0.49636 -0.04810
 N38 N 0.51688 0.48271 -0.03526
 C39 C 0.50268 0.45616 -0.05026
 C40 C 0.56634 0.52510 -0.04012
 C41 C 0.56309 0.54423 -0.01751
 C42 C 0.58354 0.57348 -0.01349
 C43 C 0.57222 0.58471 0.00979
 C44 C 0.54511 0.56206 0.01947
 N45 N 0.53998 0.53737 0.00316
 C46 C 0.52610 0.56499 0.04262
 C47 C 0.49692 0.54327 0.04917
 C48 C 0.47819 0.54684 0.07094
 C49 C 0.45196 0.52152 0.06956
 C50 C 0.45538 0.50311 0.04705
 N51 N 0.48287 0.51652 0.03467
 C52 C 0.43343 0.47422 0.03955
 C53 C 0.43688 0.45493 0.01741
 C54 C 0.41677 0.42551 0.01423
 C55 C 0.42804 0.41423 -0.00904
 C56 C 0.45481 0.43704 -0.01958
 N57 N 0.45976 0.46185 -0.00372
 C58 C 0.47361 0.43421 -0.04328
 H59 H 0.51650 0.43427 -0.08856
 H60 H 0.56664 0.48290 -0.08605
 H61 H 0.47663 0.48263 -0.00898
 H62 H 0.60433 0.58565 -0.02639
 H63 H 0.58264 0.60715 0.01821
 H64 H 0.48283 0.56577 0.08618
 H65 H 0.43264 0.51715 0.08376
 H66 H 0.41781 0.39168 -0.01697
 H67 H 0.52266 0.51669 0.00761
 H68 H 0.39623 0.41328 0.02761
 C69 C 0.54775 1.07025 -0.07022
 C70 C 0.52151 1.06926 -0.07120
 C71 C 0.50298 1.04698 -0.04931
 N72 N 0.51717 1.03434 -0.03513
 C73 C 0.54457 1.04846 -0.04782
 C74 C 0.47385 1.03949 -0.04237
 C75 C 0.45501 1.01762 -0.01905
 C76 C 0.42796 1.01315 -0.00907
 C77 C 0.41681 0.99068 0.01428
 C78 C 0.43729 0.98195 0.01804
 N79 N 0.46026 0.99815 -0.00285
 C80 C 0.43421 0.95966 0.04065
 C81 C 0.45638 0.95313 0.04832
 C82 C 0.45341 0.93196 0.07155
 C83 C 0.47964 0.93292 0.07257
 C84 C 0.49794 0.95458 0.04986
 N85 N 0.48362 0.96686 0.03514
 C86 C 0.52687 0.96168 0.04245
 C87 C 0.54548 0.98316 0.01861
 C88 C 0.57208 0.98695 0.00783
 C89 C 0.58327 1.00939 -0.01553
 C90 C 0.56326 1.01884 -0.01852
 N91 N 0.54053 1.00302 0.00286
 C92 C 0.56663 1.04157 -0.04065
 H93 H 0.56695 1.08524 -0.08460
 H94 H 0.51674 1.08352 -0.08624
 H95 H 0.52375 1.00699 0.00837
 H96 H 0.41748 1.02511 -0.01735
 H97 H 0.39612 0.98208 0.02740
 H98 H 0.43436 0.91738 0.08643
 H99 H 0.48456 0.91904 0.08815
 H100 H 0.60372 1.01758 -0.02912
 H101 H 0.47756 0.99484 -0.00752
 H102 H 0.58226 0.97459 0.01565
 C103 C 1.07003 0.54721 0.42874
 C104 C 1.06912 0.52102 0.42765
 C105 C 1.04707 0.50250 0.44989
 N106 N 1.03453 0.51671 0.46436
 C107 C 1.04846 0.54406 0.45152
 C108 C 1.03976 0.47339 0.45694
 C109 C 1.01800 0.45464 0.48054
 C110 C 1.01371 0.42773 0.49088
 C111 C 0.99124 0.41662 0.51423
 C112 C 0.98227 0.43695 0.51767
 N113 N 0.99837 0.45981 0.49659
 C114 C 0.95980 0.43377 0.54009
 C115 C 0.95309 0.45584 0.54762
 C116 C 0.93167 0.45274 0.57058
 C117 C 0.93259 0.47895 0.57167
 C118 C 0.95449 0.49736 0.54926
 N119 N 0.96695 0.48314 0.53466
 C120 C 0.96170 0.52635 0.54210
 C121 C 0.98333 0.54505 0.51845
 C122 C 0.98733 0.57180 0.50805
 C123 C 1.00979 0.58301 0.48467
 C124 C 1.01903 0.56285 0.48130
 N125 N 1.00307 0.54002 0.50246
 C126 C 1.04165 0.56615 0.45896
 H127 H 1.08484 0.56635 0.41417
 H128 H 1.08327 0.51625 0.41232
 H129 H 1.00683 0.52306 0.50759
 H130 H 1.02580 0.41732 0.48279
 H131 H 0.98275 0.39604 0.52753
 H132 H 0.91695 0.43363 0.58526
 H133 H 0.91854 0.48378 0.58710
 H134 H 1.01812 0.60355 0.47132
 H135 H 0.99481 0.47691 0.49163
 H136 H 0.97509 0.58207 0.51610
 C137 C 0.52186 0.45287 0.57052
 C138 C 0.54717 0.47912 0.57185
 C139 C 0.54372 0.49767 0.54971
 N140 N 0.51705 0.48349 0.53503
 C141 C 0.50358 0.45609 0.54767
 C142 C 0.56550 0.52676 0.54288
 C143 C 0.56260 0.54561 0.51950
 C144 C 0.58533 0.57253 0.50939
 C145 C 0.57408 0.58378 0.48612
 C146 C 0.54473 0.56349 0.48254
 N147 N 0.53784 0.54054 0.50346
 C148 C 0.52551 0.56676 0.46016
 C149 C 0.49671 0.54469 0.45245
 C150 C 0.47844 0.54789 0.42958
 C151 C 0.45314 0.52163 0.42822
 C152 C 0.45660 0.50309 0.45038
 N153 N 0.48325 0.51729 0.46509
 C154 C 0.43482 0.47399 0.45719
 C155 C 0.43771 0.45516 0.48060
 C156 C 0.41497 0.42826 0.49073
 C157 C 0.42621 0.41701 0.51403
 C158 C 0.45556 0.43730 0.51760
 N159 N 0.46246 0.46024 0.49666
 C160 C 0.47477 0.43402 0.53998
 H161 H 0.51744 0.43366 0.58496
 H162 H 0.56603 0.48389 0.58728
 H163 H 0.48319 0.47733 0.49174
 H164 H 0.60783 0.58286 0.51754
 H165 H 0.58627 0.60442 0.47295
 H166 H 0.48286 0.56710 0.41513
 H167 H 0.43430 0.51686 0.41277
 H168 H 0.41401 0.39638 0.52721
 H169 H 0.51712 0.52344 0.50836
 H170 H 0.39247 0.41792 0.48257
 C171 C 0.45206 -0.06985 0.42873
 C172 C 0.47828 -0.06889 0.42745
 C173 C 0.49683 -0.04691 0.44977
 N174 N 0.48262 -0.03446 0.46449
 C175 C 0.45523 -0.04838 0.45171
 C176 C 0.52595 -0.03961 0.45672
 C177 C 0.54475 -0.01788 0.48035
 C178 C 0.57164 -0.01367 0.49069
 C179 C 0.58284 0.00883 0.51404
 C180 C 0.56257 0.01787 0.51747
 N181 N 0.53967 0.00181 0.49640
 C182 C 0.56587 0.04043 0.53984
 C183 C 0.54384 0.04719 0.54744
 C184 C 0.54709 0.06875 0.57028
 C185 C 0.52087 0.06781 0.57154
 C186 C 0.50231 0.04575 0.54935
 N187 N 0.51645 0.03323 0.53472
 C188 C 0.47324 0.03843 0.54247
 C189 C 0.45438 0.01667 0.51900
 C190 C 0.42748 0.01248 0.50893
 C191 C 0.41618 -0.01002 0.48558
 C192 C 0.43644 -0.01910 0.48189
 N193 N 0.45942 -0.00301 0.50284
 C194 C 0.43311 -0.04167 0.45942
 H195 H 0.43288 -0.08464 0.41416
 H196 H 0.48303 -0.08296 0.41195
 H197 H 0.47652 -0.00660 0.50766
 H198 H 0.58200 -0.02582 0.48259
 H199 H 0.60343 0.01728 0.52733
 H200 H 0.56630 0.08357 0.58478
 H201 H 0.51613 0.08193 0.58695
 H202 H 0.39551 -0.01847 0.47245
 H203 H 0.52262 0.00545 0.49139
 H204 H 0.41717 0.02464 0.51717
 O205 O 0.23293 0.41702 0.28321
 O206 O 0.18331 0.41693 0.21633
 O207 O 0.23275 0.41699 0.21606
 O208 O 0.18345 0.41690 0.28348
 O209 O 0.20771 0.46489 0.28337
 O210 O 0.25646 0.46498 0.21632
 O211 O 0.20756 0.46492 0.21661
 O212 O 0.25664 0.46501 0.28309
 Cu213 Cu 0.20568 0.41210 0.24977
 Cu214 Cu 0.23448 0.46971 0.24985
 C215 C 0.25342 0.44115 0.29442
 C216 C 0.18693 0.44103 0.20520
 C217 C 0.25318 0.44112 0.20482
 C218 C 0.18712 0.44100 0.29478
 O219 O 0.58283 0.76703 0.21662
 O220 O 0.58278 0.81665 0.28357
 O221 O 0.58275 0.76724 0.28378
 O222 O 0.58298 0.81652 0.21643
 O223 O 0.53498 0.79228 0.21648
 O224 O 0.53475 0.74350 0.28343
 O225 O 0.53478 0.79238 0.28324
 O226 O 0.53483 0.74334 0.21667
 Cu227 Cu 0.58769 0.79428 0.25011
 Cu228 Cu 0.53007 0.76550 0.24994
 C229 C 0.55871 0.74655 0.20537
 C230 C 0.55865 0.81301 0.29469
 C231 C 0.55859 0.74680 0.29496
 C232 C 0.55890 0.81287 0.20511
 O233 O 0.18413 0.76596 0.28418
 O234 O 0.23360 0.81564 0.21720
 O235 O 0.18413 0.76621 0.21701
 O236 O 0.23353 0.81547 0.28437
 O237 O 0.25728 0.79128 0.28392
 O238 O 0.20839 0.74252 0.21697
 O239 O 0.25731 0.79141 0.21715
 O240 O 0.20842 0.74232 0.28373
 Cu241 Cu 0.20642 0.79324 0.25072
 Cu242 Cu 0.23523 0.76451 0.25042
 C243 C 0.18780 0.74550 0.29525
 C244 C 0.25406 0.81204 0.20588
 C245 C 0.18778 0.74580 0.20563
 C246 C 0.25400 0.81183 0.29549
 O247 O 0.76736 0.58275 0.78381
 O248 O 0.81670 0.58295 0.71638
 O249 O 0.76728 0.58295 0.71666
 O250 O 0.81678 0.58277 0.78352
 O251 O 0.79248 0.53479 0.78306
 O252 O 0.74350 0.53496 0.71660
 O253 O 0.79237 0.53496 0.71629
 O254 O 0.74360 0.53476 0.78336
 Cu255 Cu 0.79446 0.58771 0.75011
 Cu256 Cu 0.76560 0.53010 0.74980
 C257 C 0.74690 0.55860 0.79496
 C258 C 0.81300 0.55886 0.70498
 C259 C 0.74677 0.55887 0.70537
 C260 C 0.81312 0.55863 0.79456
 O261 O 0.41722 0.23345 0.71634
 O262 O 0.41706 0.18421 0.78373
 O263 O 0.41717 0.23367 0.78350
 O264 O 0.41709 0.18398 0.71658
 O265 O 0.46508 0.20819 0.71683
 O266 O 0.46516 0.25737 0.78333
 O267 O 0.46506 0.20846 0.78358
 O268 O 0.46522 0.25712 0.71656
 Cu269 Cu 0.41228 0.20641 0.75004
 Cu270 Cu 0.46989 0.23517 0.75008
 C271 C 0.44137 0.25385 0.70509
 C272 C 0.44116 0.18788 0.79500
 C273 C 0.44130 0.25417 0.79469
 C274 C 0.44119 0.18756 0.70543
 O275 O 0.76629 0.18410 0.71677
 O276 O 0.81560 0.23352 0.78410
 O277 O 0.76611 0.18409 0.78394
 O278 O 0.81577 0.23353 0.71694
 O279 O 0.79156 0.25727 0.71706
 O280 O 0.74243 0.20835 0.78363
 O281 O 0.79137 0.25723 0.78383
 O282 O 0.74263 0.20838 0.71686
 Cu283 Cu 0.79336 0.20638 0.75045
 Cu284 Cu 0.76462 0.23519 0.75034
 C285 C 0.74589 0.18777 0.70546
 C286 C 0.81193 0.25397 0.79532
 C287 C 0.74564 0.18774 0.79508
 C288 C 0.81218 0.25400 0.70570
 C289 C 0.12160 0.41707 0.14640
 C290 C 0.12698 0.44387 0.13327
 C291 C 0.15242 0.46938 0.14254
 C292 C 0.17215 0.46830 0.16535
 C293 C 0.05527 0.46277 0.05977
 C294 C 0.14143 0.41591 0.16924
 C295 C 0.10602 0.44590 0.11171
 C296 C 0.08918 0.44943 0.09444
 C297 C 0.07041 0.45566 0.07523
 C298 C 0.16675 0.44160 0.17929
 H299 H 0.10190 0.39719 0.13949
 H300 H 0.15677 0.49025 0.13261
 H301 H 0.19145 0.48847 0.17245
 H302 H 0.13664 0.39503 0.17957
 C303 C 0.58255 0.70494 0.14677
 C304 C 0.55574 0.68356 0.13348
 C305 C 0.53027 0.68362 0.14256
 C306 C 0.53141 0.70451 0.16534
 C307 C 0.53664 0.59268 0.06007
 C308 C 0.58376 0.72601 0.16959
 C309 C 0.55364 0.66048 0.11197
 C310 C 0.55005 0.64004 0.09473
 C311 C 0.54377 0.61497 0.07554
 C312 C 0.55811 0.72576 0.17945
 H313 H 0.60239 0.70503 0.14001
 H314 H 0.50940 0.66713 0.13251
 H315 H 0.51127 0.70372 0.17230
 H316 H 0.60464 0.74205 0.18005
 C317 C 0.29526 0.87721 0.14684
 C318 C 0.31662 0.87180 0.13349
 C319 C 0.31672 0.84641 0.14276
 C320 C 0.29599 0.82676 0.16574
 C321 C 0.40673 0.94283 0.05860
 C322 C 0.27436 0.85746 0.16986
 C323 C 0.33948 0.89263 0.11165
 C324 C 0.35974 0.90933 0.09408
 C325 C 0.38461 0.92789 0.07446
 C326 C 0.27475 0.83218 0.17987
 H327 H 0.29506 0.89686 0.13993
 H328 H 0.33319 0.84204 0.13267
 H329 H 0.29689 0.80750 0.17281
 H330 H 0.25831 0.86226 0.18033
 C331 C 0.84723 0.53059 0.64165
 C332 C 0.87281 0.55606 0.63268
 C333 C 0.87834 0.58283 0.64618
 C334 C 0.85854 0.58400 0.66910
 C335 C 0.94458 0.53696 0.55940
 C336 C 0.82753 0.53167 0.66455
 C337 C 0.89378 0.55399 0.61114
 C338 C 0.91064 0.55042 0.59391
 C339 C 0.92942 0.54412 0.57478
 C340 C 0.83310 0.55833 0.67888
 H341 H 0.84277 0.50974 0.63144
 H342 H 0.89816 0.60268 0.63951
 H343 H 0.86346 0.60484 0.67975
 H344 H 0.80813 0.51152 0.67143
 C345 C 0.46998 0.31632 0.64179
 C346 C 0.44453 0.31626 0.63239
 C347 C 0.41768 0.29496 0.64567
 C348 C 0.41641 0.27409 0.66877
 C349 C 0.46401 0.40648 0.55775
 C350 C 0.46879 0.29562 0.66485
 C351 C 0.44668 0.33914 0.61055
 C352 C 0.45034 0.35942 0.59302
 C353 C 0.45675 0.38432 0.57349
 C354 C 0.44204 0.27446 0.67893
 H355 H 0.49088 0.33274 0.63175
 H356 H 0.39785 0.29479 0.63866
 H357 H 0.39551 0.25811 0.67920
 H358 H 0.48891 0.29649 0.67204
 C359 C 0.70481 0.12276 0.64601
 C360 C 0.68351 0.12822 0.63268
 C361 C 0.68342 0.15361 0.64207
 C362 C 0.70410 0.17320 0.66518
 C363 C 0.59339 0.05725 0.55771
 C364 C 0.72567 0.14245 0.66915
 C365 C 0.66067 0.10742 0.61076
 C366 C 0.64041 0.09074 0.59315
 C367 C 0.61554 0.07218 0.57353
 C368 C 0.72528 0.16772 0.67930
 H369 H 0.70501 0.10310 0.63901
 H370 H 0.66699 0.15802 0.63199
 H371 H 0.70321 0.19246 0.67234
 H372 H 0.74166 0.13760 0.67962
 C373 C 0.41720 0.12266 0.85386
 C374 C 0.44399 0.12818 0.86724
 C375 C 0.46947 0.15371 0.85817
 C376 C 0.46838 0.17339 0.83529
 C377 C 0.46318 0.05656 0.94039
 C378 C 0.41603 0.14243 0.83096
 C379 C 0.44607 0.10724 0.88875
 C380 C 0.44966 0.09042 0.90595
 C381 C 0.45598 0.07167 0.92505
 C382 C 0.44170 0.16783 0.82108
 H383 H 0.39735 0.10289 0.86061
 H384 H 0.49033 0.15817 0.86828
 H385 H 0.48853 0.19274 0.82833
 H386 H 0.39518 0.13752 0.82040
 C387 C 0.68429 0.52997 0.85816
 C388 C 0.68437 0.55541 0.86767
 C389 C 0.70572 0.58227 0.85450
 C390 C 0.72664 0.58355 0.83140
 C391 C 0.59395 0.53588 0.94218
 C392 C 0.70502 0.53116 0.83510
 C393 C 0.66144 0.55326 0.88950
 C394 C 0.64112 0.54959 0.90701
 C395 C 0.61616 0.54317 0.92649
 C396 C 0.72625 0.55791 0.82112
 H397 H 0.66781 0.50906 0.86812
 H398 H 0.70591 0.60210 0.86159
 H399 H 0.74267 0.60446 0.82105
 H400 H 0.70414 0.51104 0.82783
 C401 C 0.84600 0.31658 0.85859
 C402 C 0.87141 0.31655 0.86798
 C403 C 0.87691 0.29524 0.85470
 C404 C 0.85723 0.27431 0.83162
 C405 C 0.94228 0.40711 0.94244
 C406 C 0.82643 0.29583 0.83554
 C407 C 0.89221 0.33949 0.88981
 C408 C 0.90888 0.35985 0.90731
 C409 C 0.92740 0.38485 0.92677
 C410 C 0.83195 0.27464 0.82146
 H411 H 0.84157 0.33302 0.86863
 H412 H 0.89658 0.29509 0.86170
 H413 H 0.86211 0.25831 0.82118
 H414 H 0.80716 0.29667 0.82837
 C415 C 0.53011 0.84738 0.35748
 C416 C 0.55558 0.87288 0.36673
 C417 C 0.58242 0.87834 0.35355
 C418 C 0.58366 0.85854 0.33068
 C419 C 0.53603 0.94428 0.44020
 C420 C 0.53128 0.82768 0.33464
 C421 C 0.55344 0.89381 0.38830
 C422 C 0.54978 0.91059 0.40557
 C423 C 0.54335 0.92926 0.42477
 C424 C 0.55801 0.83316 0.32065
 H425 H 0.50922 0.84297 0.36744
 H426 H 0.60226 0.89809 0.36044
 H427 H 0.60456 0.86340 0.32030
 H428 H 0.51114 0.80834 0.32756
 C429 C 0.29492 0.41738 0.35311
 C430 C 0.31633 0.44421 0.36633
 C431 C 0.31635 0.46968 0.35715
 C432 C 0.29549 0.46851 0.33436
 C433 C 0.40713 0.46339 0.43978
 C434 C 0.27388 0.41614 0.33028
 C435 C 0.33938 0.44633 0.38787
 C436 C 0.35979 0.44993 0.40513
 C437 C 0.38484 0.45623 0.42433
 C438 C 0.27420 0.44179 0.32033
 H439 H 0.29478 0.39754 0.35994
 H440 H 0.33287 0.49057 0.36715
 H441 H 0.29633 0.48865 0.32733
 H442 H 0.25781 0.39525 0.31988
 C443 C 0.12275 0.70402 0.35446
 C444 C 0.12826 0.68268 0.36756
 C445 C 0.15368 0.68269 0.35808
 C446 C 0.17326 0.70351 0.33513
 C447 C 0.05755 0.59218 0.44205
 C448 C 0.14243 0.72501 0.33148
 C449 C 0.10749 0.65972 0.38935
 C450 C 0.09086 0.63937 0.40684
 C451 C 0.07240 0.61440 0.42633
 C452 C 0.16774 0.72473 0.32125
 H453 H 0.10307 0.70413 0.36154
 H454 H 0.15813 0.66624 0.36798
 H455 H 0.19255 0.70270 0.32790
 H456 H 0.13755 0.74103 0.32119
 C457 C 0.84747 0.53006 0.85713
 C458 C 0.87289 0.55553 0.86656
 C459 C 0.87831 0.58238 0.85353
 C460 C 0.85854 0.58362 0.83067
 C461 C 0.94422 0.53613 0.94011
 C462 C 0.82780 0.53122 0.83430
 C463 C 0.89379 0.55343 0.88815
 C464 C 0.91055 0.54980 0.90545
 C465 C 0.92921 0.54342 0.92467
 C466 C 0.83324 0.55797 0.82048
 H467 H 0.84309 0.50915 0.86697
 H468 H 0.89799 0.60224 0.86056
 H469 H 0.86336 0.60453 0.82043
 H470 H 0.80852 0.51107 0.82709
 C471 C 0.41749 0.29568 0.85349
 C472 C 0.44431 0.31712 0.86668
 C473 C 0.46979 0.31715 0.85744
 C474 C 0.46865 0.29628 0.83461
 C475 C 0.46360 0.40801 0.94019
 C476 C 0.41627 0.27464 0.83063
 C477 C 0.44641 0.34017 0.88825
 C478 C 0.45001 0.36060 0.90553
 C479 C 0.45636 0.38568 0.92474
 C480 C 0.44193 0.27497 0.82062
 H481 H 0.39764 0.29553 0.86037
 H482 H 0.49068 0.33369 0.86741
 H483 H 0.48880 0.29714 0.82754
 H484 H 0.39538 0.25854 0.82025
 C485 C 0.68280 0.15353 0.85799
 C486 C 0.68292 0.12820 0.86751
 C487 C 0.70433 0.12278 0.85439
 C488 C 0.72528 0.14246 0.83136
 C489 C 0.59263 0.05747 0.94236
 C490 C 0.70357 0.17311 0.83499
 C491 C 0.66002 0.10744 0.88938
 C492 C 0.63973 0.09080 0.90696
 C493 C 0.61482 0.07232 0.92655
 C494 C 0.72488 0.16768 0.82110
 H495 H 0.66628 0.15791 0.86790
 H496 H 0.70456 0.10318 0.86150
 H497 H 0.74137 0.13765 0.82107
 H498 H 0.70266 0.19232 0.82773
 C499 C 0.12189 0.41707 0.35376
 C500 C 0.12739 0.44386 0.36716
 C501 C 0.15290 0.46934 0.35804
 C502 C 0.17258 0.46824 0.33511
 C503 C 0.05589 0.46329 0.44053
 C504 C 0.14166 0.41589 0.33080
 C505 C 0.10644 0.44594 0.38875
 C506 C 0.08964 0.44956 0.40601
 C507 C 0.07093 0.45597 0.42516
 C508 C 0.16705 0.44156 0.32089
 H509 H 0.10212 0.39722 0.36055
 H510 H 0.15734 0.49020 0.36817
 H511 H 0.19193 0.48839 0.32812
 H512 H 0.13677 0.39503 0.32025
 C513 C 0.53001 0.68421 0.35810
 C514 C 0.55550 0.68441 0.36766
 C515 C 0.58235 0.70582 0.35452
 C516 C 0.58359 0.72667 0.33142
 C517 C 0.53625 0.59431 0.44241
 C518 C 0.53117 0.70489 0.33503
 C519 C 0.55340 0.66158 0.38954
 C520 C 0.54981 0.64133 0.40710
 C521 C 0.54347 0.61646 0.42665
 C522 C 0.55792 0.72618 0.32110
 H523 H 0.50910 0.66769 0.36803
 H524 H 0.60221 0.70610 0.36166
 H525 H 0.60450 0.74275 0.32110
 H526 H 0.51102 0.70391 0.32772
 C527 C 0.29515 0.87676 0.35504
 C528 C 0.31654 0.87135 0.36816
 C529 C 0.31668 0.84602 0.35861
 C530 C 0.29594 0.82642 0.33555
 C531 C 0.40700 0.94235 0.44264
 C532 C 0.27424 0.85707 0.33194
 C533 C 0.33945 0.89217 0.39001
 C534 C 0.35977 0.90887 0.40752
 C535 C 0.38475 0.92743 0.42699
 C536 C 0.27467 0.83186 0.32163
 H537 H 0.29492 0.89638 0.36216
 H538 H 0.33318 0.84165 0.36853
 H539 H 0.29687 0.80721 0.32825
 H540 H 0.25817 0.86189 0.32163
 C541 C 0.58304 0.87811 0.14623
 C542 C 0.55628 0.87269 0.13288
 C543 C 0.53074 0.84723 0.14199
 C544 C 0.53176 0.82752 0.16488
 C545 C 0.53748 0.94456 0.05967
 C546 C 0.58414 0.85830 0.16914
 C547 C 0.55430 0.89368 0.11134
 C548 C 0.55081 0.91056 0.09412
 C549 C 0.54460 0.92938 0.07500
 C550 C 0.55841 0.83297 0.17905
 H551 H 0.60293 0.89783 0.13945
 H552 H 0.50990 0.84286 0.13190
 H553 H 0.51157 0.80822 0.17187
 H554 H 0.60497 0.86313 0.17966
 C555 C 0.29426 0.41731 0.14530
 C556 C 0.31562 0.44414 0.13207
 C557 C 0.31575 0.46961 0.14155
 C558 C 0.29504 0.46847 0.16463
 C559 C 0.40586 0.46345 0.05732
 C560 C 0.27338 0.41609 0.16842
 C561 C 0.33849 0.44623 0.11019
 C562 C 0.35877 0.44984 0.09263
 C563 C 0.38368 0.45619 0.07307
 C564 C 0.27381 0.44175 0.17866
 H565 H 0.29403 0.39746 0.13824
 H566 H 0.33222 0.49050 0.13155
 H567 H 0.29597 0.48862 0.17187
 H568 H 0.25734 0.39520 0.17881
 C569 C 0.15351 0.68331 0.14218
 C570 C 0.12819 0.68351 0.13278
 C571 C 0.12280 0.70488 0.14615
 C572 C 0.14251 0.72569 0.16932
 C573 C 0.05710 0.59352 0.05766
 C574 C 0.17312 0.70396 0.16531
 C575 C 0.10737 0.66072 0.11082
 C576 C 0.09066 0.64050 0.09317
 C577 C 0.07206 0.61566 0.07351
 C578 C 0.16772 0.72520 0.17946
 H579 H 0.15786 0.66684 0.13207
 H580 H 0.10320 0.70515 0.13915
 H581 H 0.13772 0.74174 0.17981
 H582 H 0.19232 0.70299 0.17248
 C583 C 0.41715 0.12218 0.64659
 C584 C 0.44395 0.12747 0.63347
 C585 C 0.46950 0.15287 0.64278
 C586 C 0.46844 0.17265 0.66560
 C587 C 0.46269 0.05557 0.55988
 C588 C 0.41602 0.14205 0.66944
 C589 C 0.44594 0.10647 0.61189
 C590 C 0.44943 0.08958 0.59460
 C591 C 0.45561 0.07075 0.57536
 C592 C 0.44174 0.16734 0.67952
 H593 H 0.39725 0.10252 0.63965
 H594 H 0.49036 0.15715 0.63287
 H595 H 0.48863 0.19191 0.67272
 H596 H 0.39515 0.13733 0.67975
 C597 C 0.68387 0.53063 0.64261
 C598 C 0.68396 0.55615 0.63355
 C599 C 0.70542 0.58292 0.64685
 C600 C 0.72642 0.58405 0.66964
 C601 C 0.59321 0.53734 0.56024
 C602 C 0.70470 0.53168 0.66538
 C603 C 0.66094 0.55415 0.61205
 C604 C 0.64054 0.55065 0.59483
 C605 C 0.61550 0.54444 0.57566
 C606 C 0.72603 0.55834 0.67949
 H607 H 0.66732 0.50978 0.63256
 H608 H 0.70561 0.60281 0.64010
 H609 H 0.74253 0.60490 0.68011
 H610 H 0.70380 0.51150 0.67232
 C611 C 0.84664 0.31667 0.64268
 C612 C 0.87194 0.31643 0.63320
 C613 C 0.87726 0.29500 0.64640
 C614 C 0.85752 0.27415 0.66946
 C615 C 0.94299 0.40631 0.55806
 C616 C 0.82699 0.29599 0.66571
 C617 C 0.89277 0.33922 0.61128
 C618 C 0.90947 0.35942 0.59364
 C619 C 0.92804 0.38423 0.57396
 C620 C 0.83232 0.27467 0.67968
 H621 H 0.84233 0.33319 0.63271
 H622 H 0.89685 0.29469 0.63932
 H623 H 0.86225 0.25805 0.67981
 H624 H 0.80780 0.29698 0.67293
   
