data_POSCAR
  _audit_creation_date              2014-09-24
  _audit_creation_method            'ToBaCCo'
  _symmetry_space_group_name_H-M    'P1'
  _symmetry_Int_Tables_number       1
  _symmetry_cell_setting            triclinic
  loop_
  _symmetry_equiv_pos_as_xyz
 x,y,z
_cell_length_a 50.9548
_cell_length_b 50.8879
_cell_length_c 50.8540
_cell_angle_alpha 89.993000
_cell_angle_beta 90.087500
_cell_angle_gamma 90.031900
loop_
  _atom_site_label
  _atom_site_type_symbol
  _atom_site_fract_x
  _atom_site_fract_y
  _atom_site_fract_z
C1 C 0.17075 0.17138 0.20166
 N2 N 0.15996 0.19293 0.19010
 C3 C 0.17064 0.20352 0.16805
 N4 N 0.19239 0.19231 0.15749
 C5 C 0.20354 0.17076 0.16868
 N6 N 0.19254 0.16047 0.19076
 C7 C -0.16814 0.83066 0.20434
 N8 N -0.15765 0.80884 0.19307
 C9 C -0.16890 0.79771 0.17155
 N10 N -0.19094 0.80865 0.16122
 C11 C -0.20180 0.83048 0.17215
 N12 N -0.19022 0.84130 0.19370
 C13 C -0.17273 0.16799 -0.20291
 N14 N -0.19426 0.15680 -0.19182
 C15 C -0.20555 0.16739 -0.17004
 N16 N -0.19492 0.18950 -0.15940
 C17 C -0.17340 0.20096 -0.17023
 N18 N -0.16243 0.19006 -0.19197
 C19 C 0.17112 0.83088 -0.20326
 N20 N 0.15983 0.80905 -0.19278
 C21 C 0.17001 0.79741 -0.17100
 N22 N 0.19179 0.80785 -0.15962
 C23 C 0.20344 0.82967 -0.16974
 N24 N 0.19292 0.84100 -0.19156
 C25 C 0.17138 1.17047 0.79860
 N26 N 0.16047 1.19224 0.80959
 C27 C 0.17077 1.20321 0.83170
 N28 N 0.19235 1.19206 0.84283
 C29 C 0.20356 1.17033 0.83217
 N30 N 0.19295 1.15968 0.81009
 C31 C 0.83019 0.83285 0.79505
 N32 N 0.84085 0.81080 0.80576
 C33 C 0.83002 0.79933 0.82731
 N34 N 0.80824 0.81016 0.83821
 C35 C 0.79728 0.83217 0.82781
 N36 N 0.80838 0.84336 0.80627
 C37 C 0.16841 0.82776 1.20362
 N38 N 0.15731 0.80616 1.19246
 C39 C 0.16790 0.79483 1.17070
 N40 N 0.18997 0.80547 1.16011
 C41 C 0.20139 0.82703 1.17095
 N42 N 0.19048 0.83804 1.19267
 C43 C 0.83102 1.17108 1.20325
 N44 N 0.80914 1.15986 1.19280
 C45 C 0.79745 1.17013 1.17109
 N46 N 0.80789 1.19191 1.15974
 C47 C 0.82976 1.20349 1.16982
 N48 N 0.84114 1.19289 1.19158
 O49 O 0.46286 1.04534 1.04831
 O50 O 0.43416 1.02010 1.02441
 C51 C 0.43927 1.03840 1.04140
 O52 O 0.53667 1.04312 0.95469
 O53 O 0.56544 1.01934 0.97994
 C54 C 0.56028 1.03628 0.96160
 O55 O 0.46277 1.04550 0.95715
 O56 O 0.43417 1.01974 0.98050
 C57 C 0.43921 1.03828 0.96376
 O58 O 0.53674 1.04313 1.05084
 O59 O 0.56540 1.01984 1.02516
 C60 C 0.56032 1.03657 1.04368
 Zr61 Zr 0.49985 1.03068 1.03598
 O62 O 0.50273 1.07219 1.03593
 O63 O 0.49696 1.03063 1.07751
 Zr64 Zr 0.49974 1.03081 0.96954
 O65 O 0.50266 1.07232 0.96986
 O66 O 0.49673 1.03108 0.92802
 O67 O 0.47636 1.03581 1.00278
 O68 O 0.52257 1.03559 1.00276
 O69 O 0.53691 0.95173 1.05060
 O70 O 0.56548 0.97526 1.02499
 C71 C 0.56046 0.95844 1.04346
 O72 O 0.46292 0.94957 0.95682
 O73 O 0.43425 0.97500 0.98040
 C74 C 0.43933 0.95663 0.96351
 O75 O 0.53682 0.95231 0.95441
 O76 O 0.56551 0.97606 0.97982
 C77 C 0.56041 0.95922 0.96137
 O78 O 0.46309 0.94929 1.04832
 O79 O 0.43434 0.97494 1.02498
 C80 C 0.43948 0.95643 1.04173
 Zr81 Zr 0.49996 0.96407 1.03579
 O82 O 0.50295 0.92258 1.03529
 O83 O 0.49716 0.96374 1.07732
 Zr84 Zr 0.49983 0.96438 0.96929
 O85 O 0.50288 0.92289 0.96925
 O86 O 0.49681 0.96449 0.92777
 Zr87 Zr 0.46088 0.99737 1.00272
 Zr88 Zr 0.53878 0.99757 1.00272
 O89 O 0.52267 0.95948 1.00251
 O90 O 0.47646 0.95900 1.00254
 O91 O 0.52329 0.99741 1.04112
 O92 O 0.47704 0.99756 0.96464
 O93 O 0.47720 0.99733 1.04076
 O94 O 0.52315 0.99766 0.96430
 H95 H 0.53444 1.05102 1.00273
 H96 H 0.46521 0.99758 0.94915
 H97 H 0.53460 0.94411 1.00239
 H98 H 0.46536 0.99734 1.05619
 H99 H 0.51122 1.02018 0.92107
 H100 H 0.51140 0.97532 0.92090
 H101 H 0.48820 0.91594 0.97988
 H102 H 0.48795 0.91575 1.02499
 H103 H 0.51152 0.97484 1.08423
 H104 H 0.51156 1.01981 1.08437
 H105 H 0.48797 1.07904 1.02531
 H106 H 0.48778 1.07913 0.98030
 O107 O 0.04314 0.53689 -0.05030
 O108 O 0.01940 0.56566 -0.02508
 C109 C 0.03633 0.56052 -0.04338
 O110 O -0.05049 0.46310 -0.04809
 O111 O -0.02493 0.43434 -0.02468
 C112 C -0.04341 0.43947 -0.04145
 O113 O -0.04790 0.53705 -0.05033
 O114 O -0.02445 0.56568 -0.02459
 C115 C -0.04122 0.56064 -0.04312
 O116 O 0.04554 0.46283 -0.04768
 O117 O 0.02018 0.43414 -0.02395
 C118 C 0.03855 0.43922 -0.04082
 Zr119 Zr 0.03078 0.49988 -0.03551
 O120 O 0.03068 0.49690 -0.07704
 O121 O 0.07223 0.50278 -0.03553
 Zr122 Zr -0.03552 0.50000 -0.03569
 O123 O -0.03506 0.49709 -0.07723
 O124 O -0.07695 0.50300 -0.03608
 O125 O -0.00231 0.52341 -0.04070
 O126 O -0.00242 0.47712 -0.04040
 O127 O 0.04548 0.46277 0.04322
 O128 O 0.02014 0.43410 0.01938
 C129 C 0.03850 0.43917 0.03633
 O130 O -0.04793 0.53696 0.04565
 O131 O -0.02444 0.56563 0.02009
 C132 C -0.04123 0.56056 0.03853
 O133 O -0.05045 0.46305 0.04334
 O134 O -0.02494 0.43431 0.01995
 C135 C -0.04337 0.43943 0.03672
 O136 O 0.04332 0.53673 0.04585
 O137 O 0.02006 0.56553 0.02018
 C138 C 0.03678 0.56037 0.03871
 Zr139 Zr 0.03078 0.49983 0.03101
 O140 O 0.03064 0.49681 0.07253
 O141 O 0.07223 0.50267 0.03112
 Zr142 Zr -0.03560 0.49997 0.03092
 O143 O -0.03548 0.49703 0.07244
 O144 O -0.07704 0.50298 0.03081
 Zr145 Zr -0.00225 0.53894 -0.00225
 Zr146 Zr -0.00257 0.46093 -0.00232
 O147 O -0.00247 0.47711 0.03576
 O148 O -0.00234 0.52336 0.03616
 O149 O 0.03582 0.47645 -0.00225
 O150 O -0.04028 0.52273 -0.00238
 O151 O 0.03568 0.52263 -0.00224
 O152 O -0.04085 0.47658 -0.00241
 H153 H -0.00238 0.46521 -0.05581
 H154 H -0.05572 0.53456 -0.00239
 H155 H -0.00243 0.46520 0.05117
 H156 H 0.05111 0.53450 -0.00227
 H157 H -0.08389 0.48872 -0.02488
 H158 H -0.08394 0.48828 0.02011
 H159 H -0.02486 0.51178 0.07933
 H160 H 0.02009 0.51159 0.07941
 H161 H 0.07906 0.48806 0.02028
 H162 H 0.07909 0.48822 -0.02462
 H163 H 0.02005 0.51163 -0.08393
 H164 H -0.02493 0.51221 -0.08403
 O165 O 0.95715 0.05028 0.46273
 O166 O 0.98063 0.02475 0.43405
 C167 C 0.96382 0.04318 0.43911
 O168 O 1.05067 0.04821 0.53688
 O169 O 1.02510 0.02473 0.56554
 C170 C 1.04353 0.04156 0.56049
 O171 O 1.04845 0.05044 0.46291
 O172 O 1.02513 0.02477 0.43414
 C173 C 1.04188 0.04326 0.43927
 O174 O 0.95469 0.04766 0.53677
 O175 O 0.98002 0.02396 0.56557
 C176 C 0.96161 0.04079 0.56042
 Zr177 Zr 0.96955 0.03552 0.49973
 O178 O 0.96954 0.07701 0.50273
 O179 O 0.92810 0.03543 0.49668
 Zr180 Zr 1.03592 0.03576 0.49988
 O181 O 1.03552 0.07726 0.50278
 O182 O 1.07737 0.03599 0.49709
 O183 O 1.00275 0.04081 0.47632
 O184 O 1.00270 0.04043 0.52262
 O185 O 0.95485 -0.04313 0.53677
 O186 O 0.98008 -0.01932 0.56557
 C187 C 0.96175 -0.03625 0.56042
 O188 O 1.04828 -0.04562 0.46284
 O189 O 1.02448 -0.02040 0.43404
 C190 C 1.04139 -0.03872 0.43919
 O191 O 1.05084 -0.04321 0.53686
 O192 O 1.02521 -0.01985 0.56554
 C193 C 1.04370 -0.03659 0.56048
 O194 O 0.95729 -0.04564 0.46273
 O195 O 0.98067 -0.01998 0.43404
 C196 C 0.96390 -0.03848 0.43911
 Zr197 Zr 0.96971 -0.03092 0.49976
 O198 O 0.97002 -0.07242 0.50274
 O199 O 0.92826 -0.03119 0.49675
 Zr200 Zr 1.03601 -0.03085 0.49988
 O201 O 1.03590 -0.07235 0.50285
 O202 O 1.07745 -0.03086 0.49697
 Zr203 Zr 1.00287 0.00242 0.46077
 Zr204 Zr 1.00286 0.00238 0.53883
 O205 O 1.00285 -0.03568 0.52265
 O206 O 1.00287 -0.03600 0.47634
 O207 O 0.96451 0.00229 0.52315
 O208 O 1.04083 0.00245 0.47713
 O209 O 0.96486 0.00230 0.47695
 O210 O 1.04118 0.00246 0.52332
 H211 H 1.00259 0.05583 0.53454
 H212 H 1.05623 0.00239 0.46526
 H213 H 1.00280 -0.05107 0.53458
 H214 H 0.94941 0.00227 0.46510
 H215 H 1.08424 0.02502 0.51160
 H216 H 1.08432 -0.01995 0.51154
 H217 H 1.02527 -0.07923 0.48809
 H218 H 0.98033 -0.07927 0.48778
 H219 H 0.92135 -0.02020 0.51120
 H220 H 0.92123 0.02465 0.51132
 H221 H 0.98021 0.08392 0.48804
 H222 H 1.02521 0.08406 0.48777
 C223 C 1.12522 0.16039 0.25801
 C224 C 1.13622 0.13800 0.26953
 C225 C 1.15882 0.12683 0.25871
 C226 C 1.17035 0.13789 0.23636
 C227 C 1.15940 0.16040 0.22440
 C228 C 1.13667 0.17153 0.23567
 C229 C 1.12411 0.12628 0.29224
 C230 C 1.11385 0.11633 0.31113
 C231 C 1.10171 0.10451 0.33308
 C232 C 1.09127 0.09424 0.35169
 C233 C 1.07870 0.08173 0.37372
 C234 C 1.05975 0.06230 0.36942
 C235 C 1.04769 0.04987 0.39073
 C236 C 1.05446 0.05672 0.41671
 C237 C 1.07346 0.07639 0.42081
 C238 C 1.08550 0.08879 0.39944
 H239 H 1.10771 0.16919 0.26624
 H240 H 1.16750 0.10947 0.26748
 H241 H 1.18779 0.12865 0.22848
 H242 H 1.12754 0.18881 0.22724
 H243 H 1.05433 0.05669 0.34959
 H244 H 1.03313 0.03486 0.38681
 H245 H 1.07914 0.08216 0.44051
 H246 H 1.10016 0.10382 0.40298
 C247 C 0.87880 -0.15707 0.25938
 C248 C 0.86806 -0.13444 0.27065
 C249 C 0.84521 -0.12350 0.26006
 C250 C 0.83314 -0.13505 0.23822
 C251 C 0.84380 -0.15782 0.22653
 C252 C 0.86682 -0.16869 0.23754
 C253 C 0.88063 -0.12233 0.29293
 C254 C 0.89122 -0.11212 0.31151
 C255 C 0.90366 -0.10005 0.33319
 C256 C 0.91429 -0.08965 0.35164
 C257 C 0.92696 -0.07707 0.37361
 C258 C 0.94588 -0.05762 0.36927
 C259 C 0.95800 -0.04514 0.39056
 C260 C 0.95132 -0.05197 0.41655
 C261 C 0.93236 -0.07167 0.42068
 C262 C 0.92027 -0.08411 0.39934
 H263 H 0.89651 -0.16570 0.26744
 H264 H 0.83673 -0.10597 0.26865
 H265 H 0.81550 -0.12598 0.23052
 H266 H 0.87574 -0.18616 0.22931
 H267 H 0.95121 -0.05202 0.34943
 H268 H 0.97252 -0.03011 0.38662
 H269 H 0.92675 -0.07743 0.44039
 H270 H 0.90565 -0.09915 0.40291
 C271 C 0.84084 0.12162 0.74024
 C272 C 0.86324 0.13300 0.72916
 C273 C 0.87377 0.15593 0.74010
 C274 C 0.86202 0.16740 0.76211
 C275 C 0.83954 0.15605 0.77351
 C276 C 0.82905 0.13304 0.76226
 C277 C 0.87558 0.12100 0.70674
 C278 C 0.88603 0.11088 0.68806
 C279 C 0.89841 0.09898 0.66630
 C280 C 0.90911 0.08878 0.64781
 C281 C 0.92206 0.07658 0.62585
 C282 C 0.91547 0.08378 0.60012
 C283 C 0.92824 0.07209 0.57879
 C284 C 0.94783 0.05304 0.58295
 C285 C 0.95423 0.04588 0.60894
 C286 C 0.94142 0.05758 0.63020
 H287 H 0.83254 0.10386 0.73193
 H288 H 0.89112 0.16490 0.73168
 H289 H 0.87063 0.18509 0.77023
 H290 H 0.81178 0.12377 0.77048
 H291 H 0.90050 0.09847 0.59654
 H292 H 0.92281 0.07807 0.55909
 H293 H 0.96916 0.03126 0.61289
 H294 H 0.94668 0.05186 0.65005
 C295 C 1.12662 -0.15517 0.74010
 C296 C 1.13816 -0.13253 0.72967
 C297 C 1.16077 -0.12215 0.74132
 C298 C 1.17177 -0.13426 0.76342
 C299 C 1.16028 -0.15705 0.77428
 C300 C 1.13754 -0.16736 0.76219
 C301 C 1.12662 -0.11981 0.70717
 C302 C 1.11676 -0.10916 0.68844
 C303 C 1.10500 -0.09668 0.66662
 C304 C 1.09477 -0.08604 0.64808
 C305 C 1.08230 -0.07336 0.62607
 C306 C 1.06290 -0.05440 0.63035
 C307 C 1.05044 -0.04234 0.60903
 C308 C 1.05722 -0.04911 0.58306
 C309 C 1.07688 -0.06810 0.57897
 C310 C 1.08930 -0.08014 0.60035
 H311 H 1.10910 -0.16337 0.73122
 H312 H 1.16986 -0.10460 0.73339
 H313 H 1.18924 -0.12561 0.77197
 H314 H 1.12800 -0.18481 0.76976
 H315 H 1.05732 -0.04901 0.65018
 H316 H 1.03544 -0.02779 0.61294
 H317 H 1.08260 -0.07378 0.55928
 H318 H 1.10430 -0.09480 0.59682
 C319 C 0.25938 1.15790 1.12307
 C320 C 0.27051 1.13553 1.13448
 C321 C 0.25958 1.12496 1.15737
 C322 C 0.23752 1.13662 1.16878
 C323 C 0.22596 1.15914 1.15742
 C324 C 0.23732 1.16964 1.13440
 C325 C 0.29297 1.12326 1.12253
 C326 C 0.31167 1.11291 1.11240
 C327 C 0.33344 1.10069 1.10041
 C328 C 0.35193 1.09014 1.09011
 C329 C 0.37388 1.07738 1.07774
 C330 C 0.39955 1.08407 1.08491
 C331 C 0.42087 1.07150 1.07304
 C332 C 0.41676 1.05201 1.05382
 C333 C 0.39083 1.04551 1.04669
 C334 C 0.36958 1.05812 1.05859
 H335 H 0.26768 1.16624 1.10533
 H336 H 0.26805 1.10761 1.16636
 H337 H 0.22955 1.12784 1.18645
 H338 H 0.22920 1.18690 1.12495
 H339 H 0.40310 1.09896 1.09972
 H340 H 0.44053 1.07700 1.07900
 H341 H 0.38691 1.03064 1.03196
 H342 H 0.34978 1.05279 1.05288
 C343 C 0.25885 0.83993 0.87723
 C344 C 0.27047 0.86256 0.86686
 C345 C 0.26001 0.87415 0.84423
 C346 C 0.23794 0.86326 0.83203
 C347 C 0.22588 0.84049 0.84233
 C348 C 0.23678 0.82895 0.86511
 C349 C 0.29294 0.87409 0.87960
 C350 C 0.31166 0.88391 0.89030
 C351 C 0.33345 0.89561 0.90284
 C352 C 0.35195 0.90580 0.91357
 C353 C 0.37391 0.91821 0.92636
 C354 C 0.36962 0.93753 0.94544
 C355 C 0.39088 0.94993 0.95762
 C356 C 0.41681 0.94316 0.95086
 C357 C 0.42091 0.92357 0.93175
 C358 C 0.39958 0.91121 0.91959
 H359 H 0.26680 0.83080 0.89476
 H360 H 0.26886 0.89170 0.83604
 H361 H 0.23034 0.87282 0.81458
 H362 H 0.22826 0.81146 0.87375
 H363 H 0.34983 0.94310 0.95083
 H364 H 0.38697 0.96488 0.97226
 H365 H 0.44057 0.91786 0.92608
 H366 H 0.40312 0.89627 0.90484
 C367 C 0.74116 0.84234 1.12760
 C368 C 0.73035 0.86499 1.13876
 C369 C 0.74188 0.87605 1.16114
 C370 C 0.76423 0.86462 1.17228
 C371 C 0.77548 0.84184 1.16117
 C372 C 0.76350 0.83083 1.13867
 C373 C 0.70763 0.87707 1.12703
 C374 C 0.68874 0.88726 1.11704
 C375 C 0.66677 0.89927 1.10513
 C376 C 0.64814 0.90960 1.09478
 C377 C 0.62609 0.92201 1.08216
 C378 C 0.60046 0.91502 1.08913
 C379 C 0.57906 0.92691 1.07664
 C380 C 0.58305 0.94596 1.05697
 C381 C 0.60893 0.95291 1.05021
 C382 C 0.63027 0.94100 1.06272
 H383 H 0.73238 0.83363 1.11025
 H384 H 0.73367 0.89361 1.16992
 H385 H 0.77267 0.87378 1.18956
 H386 H 0.77136 0.81336 1.12943
 H387 H 0.59701 0.90033 1.10416
 H388 H 0.55943 0.92110 1.08234
 H389 H 0.61276 0.96752 1.03520
 H390 H 0.65003 0.94657 1.05718
 C391 C 0.73875 1.15427 0.87569
 C392 C 0.72819 1.13137 0.86477
 C393 C 0.73946 1.12053 0.84220
 C394 C 0.76128 1.13245 0.83059
 C395 C 0.77227 1.15551 0.84144
 C396 C 0.76058 1.16628 0.86416
 C397 C 0.70593 1.11886 0.87688
 C398 C 0.68738 1.10833 0.88713
 C399 C 0.66576 1.09597 0.89926
 C400 C 0.64736 1.08542 0.90976
 C401 C 0.62549 1.07285 0.92247
 C402 C 0.59978 1.07991 0.91583
 C403 C 0.57853 1.06794 0.92843
 C404 C 0.58273 1.04873 0.94791
 C405 C 0.60869 1.04168 0.95434
 C406 C 0.62989 1.05368 0.94170
 H407 H 0.73017 1.16283 0.89318
 H408 H 0.73142 1.10278 0.83359
 H409 H 0.76952 1.12344 0.81317
 H410 H 0.76827 1.18395 0.87321
 H411 H 0.59616 1.09474 0.90097
 H412 H 0.55885 1.07384 0.92298
 H413 H 0.61268 1.02695 0.96919
 H414 H 0.64971 1.04806 0.94699
 C415 C 0.15777 0.25957 0.12048
 C416 C 0.13516 0.27081 0.13126
 C417 C 0.12425 0.26021 0.15416
 C418 C 0.13582 0.23840 0.16621
 C419 C 0.15852 0.22686 0.15548
 C420 C 0.16939 0.23776 0.13249
 C421 C 0.12303 0.29306 0.11870
 C422 C 0.11278 0.31162 0.10815
 C423 C 0.10064 0.33328 0.09580
 C424 C 0.09015 0.35172 0.08526
 C425 C 0.07747 0.37368 0.07274
 C426 C 0.08421 0.39938 0.07983
 C427 C 0.07165 0.42072 0.06792
 C428 C 0.05213 0.41661 0.04873
 C429 C 0.04561 0.39065 0.04165
 C430 C 0.05820 0.36937 0.05359
 H431 H 0.16638 0.26761 0.10275
 H432 H 0.10673 0.26876 0.16266
 H433 H 0.12691 0.23056 0.18387
 H434 H 0.18683 0.22941 0.12368
 H435 H 0.09910 0.40293 0.09465
 H436 H 0.07717 0.44040 0.07384
 H437 H 0.03072 0.38674 0.02694
 H438 H 0.05284 0.34954 0.04795
 C439 C -0.16179 0.25845 -0.12405
 C440 C -0.13939 0.26990 -0.13507
 C441 C -0.12825 0.25902 -0.15772
 C442 C -0.13938 0.23669 -0.16925
 C443 C -0.16183 0.22490 -0.15825
 C444 C -0.17296 0.23612 -0.13554
 C445 C -0.12761 0.29259 -0.12295
 C446 C -0.11756 0.31146 -0.11274
 C447 C -0.10557 0.33340 -0.10070
 C448 C -0.09514 0.35198 -0.09035
 C449 C -0.08242 0.37399 -0.07792
 C450 C -0.06296 0.36969 -0.05898
 C451 C -0.05034 0.39098 -0.04705
 C452 C -0.05702 0.41694 -0.05395
 C453 C -0.07671 0.42105 -0.07295
 C454 C -0.08930 0.39970 -0.08486
 H455 H -0.17055 0.26671 -0.10650
 H456 H -0.11090 0.26772 -0.16640
 H457 H -0.13029 0.22862 -0.18670
 H458 H -0.19022 0.22760 -0.12654
 H459 H -0.05748 0.34987 -0.05346
 H460 H -0.03532 0.38705 -0.03248
 H461 H -0.08235 0.44074 -0.07872
 H462 H -0.10434 0.40324 -0.09951
 C463 C 0.15545 0.73974 -0.12595
 C464 C 0.13281 0.72934 -0.13755
 C465 C 0.12244 0.74101 -0.16020
 C466 C 0.13459 0.76306 -0.17118
 C467 C 0.15732 0.77378 -0.15960
 C468 C 0.16765 0.76180 -0.13687
 C469 C 0.12005 0.70688 -0.12603
 C470 C 0.10932 0.68818 -0.11623
 C471 C 0.09674 0.66641 -0.10455
 C472 C 0.08600 0.64791 -0.09439
 C473 C 0.07322 0.62595 -0.08199
 C474 C 0.08020 0.60023 -0.08875
 C475 C 0.06809 0.57890 -0.07636
 C476 C 0.04883 0.58304 -0.05697
 C477 C 0.04184 0.60901 -0.05046
 C478 C 0.05397 0.63028 -0.06289
 H479 H 0.16363 0.73087 -0.10839
 H480 H 0.10489 0.73312 -0.16933
 H481 H 0.12608 0.77175 -0.18866
 H482 H 0.18509 0.76949 -0.12743
 H483 H 0.09509 0.59666 -0.10350
 H484 H 0.07395 0.55921 -0.08186
 H485 H 0.02708 0.61295 -0.03568
 H486 H 0.04842 0.65011 -0.05750
 C487 C -0.12277 0.74074 0.15808
 C488 C -0.13419 0.72960 0.13566
 C489 C -0.15707 0.74055 0.12508
 C490 C -0.16845 0.76262 0.13680
 C491 C -0.15707 0.77407 0.15930
 C492 C -0.13411 0.76281 0.16984
 C493 C -0.12225 0.70713 0.12335
 C494 C -0.11215 0.68841 0.11297
 C495 C -0.10021 0.66661 0.10071
 C496 C -0.08993 0.64809 0.09014
 C497 C -0.07761 0.62610 0.07736
 C498 C -0.05879 0.63038 0.05782
 C499 C -0.04690 0.60908 0.04524
 C500 C -0.05370 0.58313 0.05205
 C501 C -0.07259 0.57904 0.07181
 C502 C -0.08446 0.60040 0.08435
 H503 H -0.10504 0.73243 0.16642
 H504 H -0.16605 0.73209 0.10771
 H505 H -0.18611 0.77074 0.12815
 H506 H -0.12481 0.77107 0.18712
 H507 H -0.05333 0.65020 0.05226
 H508 H -0.03243 0.61299 0.03016
 H509 H -0.07829 0.55936 0.07755
 H510 H -0.09900 0.59687 0.09946
 C511 C 1.12680 0.15856 0.74153
 C512 C 1.13798 0.13598 0.73061
 C513 C 1.16038 0.12498 0.74209
 C514 C 1.17152 0.13641 0.76447
 C515 C 1.16039 0.15913 0.77583
 C516 C 1.13786 0.17008 0.76391
 C517 C 1.12627 0.12388 0.70786
 C518 C 1.11634 0.11362 0.68893
 C519 C 1.10455 0.10148 0.66693
 C520 C 1.09432 0.09101 0.64828
 C521 C 1.08185 0.07843 0.62620
 C522 C 1.06252 0.05937 0.63041
 C523 C 1.05014 0.04730 0.60905
 C524 C 1.05694 0.05415 0.58311
 C525 C 1.07652 0.07326 0.57909
 C526 C 1.08887 0.08532 0.60051
 H527 H 1.10943 0.16722 0.73280
 H528 H 1.16918 0.10747 0.73379
 H529 H 1.18882 0.12729 0.77285
 H530 H 1.12861 0.18750 0.77186
 H531 H 1.05695 0.05388 0.65022
 H532 H 1.03521 0.03265 0.61291
 H533 H 1.08224 0.07901 0.55941
 H534 H 1.10381 0.10006 0.59703
 C535 C 0.84242 -0.12034 0.73992
 C536 C 0.86502 -0.13112 0.72871
 C537 C 0.87596 -0.15396 0.73937
 C538 C 0.86444 -0.16596 0.76122
 C539 C 0.84168 -0.15527 0.77285
 C540 C 0.83081 -0.13226 0.76177
 C541 C 0.87712 -0.11861 0.70642
 C542 C 0.88735 -0.10809 0.68784
 C543 C 0.89947 -0.09575 0.66617
 C544 C 0.90996 -0.08522 0.64773
 C545 C 0.92266 -0.07268 0.62580
 C546 C 0.91603 -0.07979 0.60005
 C547 C 0.92861 -0.06786 0.57875
 C548 C 0.94807 -0.04865 0.58293
 C549 C 0.95448 -0.04155 0.60893
 C550 C 0.94186 -0.05350 0.63018
 H551 H 0.83379 -0.10264 0.73182
 H552 H 0.89348 -0.16246 0.73083
 H553 H 0.87351 -0.18358 0.76898
 H554 H 0.81337 -0.12331 0.76997
 H555 H 0.90119 -0.09463 0.59644
 H556 H 0.92318 -0.07380 0.55903
 H557 H 0.96931 -0.02682 0.61291
 H558 H 0.94714 -0.04785 0.65004
 C559 C 1.15689 -0.12625 0.25958
 C560 C 1.13401 -0.13679 0.27047
 C561 C 1.12266 -0.15921 0.25934
 C562 C 1.13406 -0.17102 0.23733
 C563 C 1.15708 -0.16055 0.22601
 C564 C 1.16837 -0.13798 0.23756
 C565 C 1.12202 -0.12444 0.29290
 C566 C 1.11189 -0.11400 0.31158
 C567 C 1.09995 -0.10165 0.33333
 C568 C 1.08970 -0.09098 0.35181
 C569 C 1.07744 -0.07808 0.37377
 C570 C 1.05840 -0.05875 0.36941
 C571 C 1.04662 -0.04601 0.39067
 C572 C 1.05373 -0.05244 0.41667
 C573 C 1.07283 -0.07199 0.42083
 C574 C 1.08459 -0.08470 0.39951
 H575 H 1.16583 -0.10886 0.26804
 H576 H 1.10492 -0.16752 0.26762
 H577 H 1.12466 -0.18831 0.22920
 H578 H 1.18603 -0.12922 0.22962
 H579 H 1.05271 -0.05348 0.34956
 H580 H 1.03197 -0.03111 0.38671
 H581 H 1.07877 -0.07744 0.44054
 H582 H 1.09932 -0.09963 0.40310
 C583 C 0.84506 0.12639 0.25971
 C584 C 0.86775 0.13786 0.27011
 C585 C 0.87815 0.16047 0.25848
 C586 C 0.86599 0.17156 0.23646
 C587 C 0.84314 0.16015 0.22564
 C588 C 0.83282 0.13739 0.23770
 C589 C 0.88049 0.12623 0.29255
 C590 C 0.89117 0.11632 0.31124
 C591 C 0.90366 0.10451 0.33302
 C592 C 0.91431 0.09423 0.35154
 C593 C 0.92699 0.08174 0.37354
 C594 C 0.92024 0.08877 0.39926
 C595 C 0.93229 0.07635 0.42063
 C596 C 0.95126 0.05667 0.41653
 C597 C 0.95799 0.04985 0.39056
 C598 C 0.94591 0.06231 0.36925
 H599 H 0.83685 0.10886 0.26857
 H600 H 0.89573 0.16950 0.26639
 H601 H 0.87465 0.18903 0.22793
 H602 H 0.81532 0.12792 0.23015
 H603 H 0.90560 0.10378 0.40279
 H604 H 0.92664 0.08209 0.44032
 H605 H 0.97252 0.03483 0.38665
 H606 H 0.95128 0.05671 0.34941
 C607 C 0.15796 0.25902 -0.12249
 C608 C 0.13558 0.27016 -0.13385
 C609 C 0.12498 0.25924 -0.15676
 C610 C 0.13663 0.23719 -0.16825
 C611 C 0.15916 0.22563 -0.15695
 C612 C 0.16969 0.23697 -0.13390
 C613 C 0.12334 0.29262 -0.12183
 C614 C 0.11302 0.31134 -0.11165
 C615 C 0.10082 0.33314 -0.09964
 C616 C 0.09030 0.35166 -0.08932
 C617 C 0.07756 0.37367 -0.07697
 C618 C 0.05830 0.36940 -0.05786
 C619 C 0.04569 0.39070 -0.04602
 C620 C 0.05219 0.41665 -0.05315
 C621 C 0.07170 0.42072 -0.07231
 C622 C 0.08427 0.39936 -0.08412
 H623 H 0.16632 0.26732 -0.10473
 H624 H 0.10763 0.26773 -0.16571
 H625 H 0.12783 0.22923 -0.18594
 H626 H 0.18696 0.22884 -0.12449
 H627 H 0.05297 0.34958 -0.05217
 H628 H 0.03082 0.38681 -0.03133
 H629 H 0.07720 0.44040 -0.07826
 H630 H 0.09916 0.40288 -0.09890
 C631 C -0.12571 0.26002 0.15586
 C632 C -0.13735 0.27055 0.13329
 C633 C -0.16004 0.25900 0.12297
 C634 C -0.17102 0.23692 0.13507
 C635 C -0.15942 0.22595 0.15778
 C636 C -0.13660 0.23794 0.16804
 C637 C -0.12584 0.29303 0.12057
 C638 C -0.11604 0.31175 0.10987
 C639 C -0.10436 0.33354 0.09731
 C640 C -0.09419 0.35204 0.08659
 C641 C -0.08180 0.37401 0.07379
 C642 C -0.06250 0.36967 0.05475
 C643 C -0.05011 0.39093 0.04258
 C644 C -0.05686 0.41691 0.04932
 C645 C -0.07642 0.42105 0.06839
 C646 C -0.08878 0.39972 0.08054
 H647 H -0.10812 0.26882 0.16401
 H648 H -0.16921 0.26701 0.10548
 H649 H -0.18854 0.22846 0.12646
 H650 H -0.12698 0.23028 0.18543
 H651 H -0.05694 0.34983 0.04937
 H652 H -0.03518 0.38698 0.02796
 H653 H -0.08211 0.44075 0.07406
 H654 H -0.10370 0.40330 0.09527
 C655 C -0.12377 0.74200 -0.16092
 C656 C -0.13479 0.73052 -0.13850
 C657 C -0.15744 0.74135 -0.12740
 C658 C -0.16898 0.76364 -0.13857
 C659 C -0.15798 0.77545 -0.16105
 C660 C -0.13526 0.76430 -0.17214
 C661 C -0.12268 0.70785 -0.12670
 C662 C -0.11246 0.68898 -0.11666
 C663 C -0.10042 0.66702 -0.10473
 C664 C -0.09008 0.64840 -0.09437
 C665 C -0.07767 0.62633 -0.08176
 C666 C -0.05876 0.63053 -0.06223
 C667 C -0.04684 0.60918 -0.04973
 C668 C -0.05370 0.58325 -0.05660
 C669 C -0.07266 0.57925 -0.07637
 C670 C -0.08456 0.60066 -0.08883
 H671 H -0.10622 0.73379 -0.16967
 H672 H -0.16613 0.73262 -0.11003
 H673 H -0.18645 0.77166 -0.12951
 H674 H -0.12626 0.77283 -0.18942
 H675 H -0.05327 0.65033 -0.05661
 H676 H -0.03231 0.61302 -0.03465
 H677 H -0.07841 0.55959 -0.08216
 H678 H -0.09918 0.59720 -0.10393
 C679 C 0.15487 0.73901 0.12492
 C680 C 0.13199 0.72844 0.13577
 C681 C 0.12113 0.73973 0.15833
 C682 C 0.13302 0.76160 0.16998
 C683 C 0.15606 0.77260 0.15919
 C684 C 0.16684 0.76088 0.13649
 C685 C 0.11951 0.70615 0.12360
 C686 C 0.10902 0.68758 0.11330
 C687 C 0.09670 0.66593 0.10109
 C688 C 0.08617 0.64752 0.09053
 C689 C 0.07360 0.62563 0.07776
 C690 C 0.05477 0.63006 0.05821
 C691 C 0.04272 0.60885 0.04557
 C692 C 0.04938 0.58285 0.05232
 C693 C 0.06828 0.57861 0.07210
 C694 C 0.08030 0.59988 0.08470
 H695 H 0.16344 0.73040 0.10744
 H696 H 0.10341 0.73168 0.16689
 H697 H 0.12401 0.76986 0.18739
 H698 H 0.18450 0.76857 0.12749
 H699 H 0.04945 0.64992 0.05268
 H700 H 0.02824 0.61286 0.03048
 H701 H 0.07387 0.55889 0.07780
 H702 H 0.09487 0.59623 0.09981
 C703 C 0.26030 1.12395 0.84582
 C704 C 0.27091 1.13484 0.86876
 C705 C 0.25968 1.15743 0.87963
 C706 C 0.23784 1.16906 0.86770
 C707 C 0.22692 1.15821 0.84467
 C708 C 0.23847 1.13553 0.83384
 C709 C 0.29318 1.12269 0.88125
 C710 C 0.31175 1.11242 0.89175
 C711 C 0.33341 1.10026 0.90406
 C712 C 0.35184 1.08977 0.91458
 C713 C 0.37378 1.07708 0.92712
 C714 C 0.39945 1.08413 0.92037
 C715 C 0.42077 1.07161 0.93234
 C716 C 0.41667 1.05181 0.95124
 C717 C 0.39075 1.04496 0.95796
 C718 C 0.36948 1.05752 0.94596
 H719 H 0.26884 1.10646 0.83724
 H720 H 0.26774 1.16602 0.89739
 H721 H 0.22950 1.18649 0.87658
 H722 H 0.23061 1.12665 0.81616
 H723 H 0.40299 1.09925 0.90580
 H724 H 0.44043 1.07738 0.92671
 H725 H 0.38684 1.02986 0.97244
 H726 H 0.34969 1.05192 0.95134
 C727 C 0.25882 0.83856 1.12488
 C728 C 0.27023 0.86103 1.13588
 C729 C 0.25934 0.87225 1.15848
 C730 C 0.23705 0.86113 1.17000
 C731 C 0.22530 0.83860 1.15901
 C732 C 0.23652 0.82740 1.13635
 C733 C 0.29288 0.87280 1.12376
 C734 C 0.31172 0.88281 1.11351
 C735 C 0.33361 0.89472 1.10140
 C736 C 0.35216 0.90507 1.09098
 C737 C 0.37413 0.91769 1.07846
 C738 C 0.36981 0.93717 1.05953
 C739 C 0.39105 0.94969 1.04752
 C740 C 0.41699 0.94289 1.05429
 C741 C 0.42112 0.92318 1.07327
 C742 C 0.39981 0.91069 1.08527
 H743 H 0.26708 0.82973 1.10737
 H744 H 0.26802 0.88967 1.16715
 H745 H 0.22897 0.87028 1.18742
 H746 H 0.22804 0.81007 1.12736
 H747 H 0.35001 0.94274 1.05411
 H748 H 0.38712 0.96473 1.03297
 H749 H 0.44079 0.91745 1.07895
 H750 H 0.40336 0.89562 1.09991
 C751 C 0.74092 1.12268 1.16031
 C752 C 0.72921 1.13314 1.13772
 C753 C 0.73961 1.15581 1.12617
 C754 C 0.76172 1.16793 1.13707
 C755 C 0.77376 1.15751 1.15972
 C756 C 0.76303 1.13476 1.17126
 C757 C 0.70671 1.12044 1.12621
 C758 C 0.68799 1.10975 1.11640
 C759 C 0.66619 1.09721 1.10472
 C760 C 0.64769 1.08648 1.09455
 C761 C 0.62573 1.07367 1.08215
 C762 C 0.63003 1.05466 1.06276
 C763 C 0.60877 1.04248 1.05036
 C764 C 0.58284 1.04918 1.05718
 C765 C 0.57874 1.06822 1.07684
 C766 C 0.60006 1.08037 1.08921
 H767 H 0.73303 1.10512 1.16941
 H768 H 0.73070 1.16406 1.10866
 H769 H 0.76941 1.18540 1.12766
 H770 H 0.77175 1.12619 1.18869
 H771 H 0.64983 1.04932 1.05715
 H772 H 0.61268 1.02789 1.03536
 H773 H 0.55908 1.07384 1.08259
 H774 H 0.59652 1.09508 1.10419
 C775 C 0.74032 0.87834 0.84110
 C776 C 0.72921 0.86697 0.86353
 C777 C 0.74017 0.84411 0.87417
 C778 C 0.76223 0.83270 0.86251
 C779 C 0.77365 0.84403 0.84000
 C780 C 0.76237 0.86697 0.82940
 C781 C 0.70675 0.87893 0.87579
 C782 C 0.68805 0.88904 0.88616
 C783 C 0.66628 0.90095 0.89844
 C784 C 0.64778 0.91117 0.90907
 C785 C 0.62582 0.92341 0.92194
 C786 C 0.63010 0.94246 0.94130
 C787 C 0.60884 0.95419 0.95405
 C788 C 0.58292 0.94699 0.94760
 C789 C 0.57883 0.92788 0.92799
 C790 C 0.60015 0.91618 0.91528
 H791 H 0.73200 0.89605 0.83271
 H792 H 0.73173 0.83516 0.89154
 H793 H 0.77036 0.81506 0.87121
 H794 H 0.77062 0.87624 0.81211
 H795 H 0.64989 0.94821 0.94661
 H796 H 0.61275 0.96884 0.96900
 H797 H 0.55918 0.92187 0.92252
 H798 H 0.59662 0.90144 0.90031
   
