data_POSCAR
  _audit_creation_date              2014-09-24
  _audit_creation_method            'ToBaCCo'
  _symmetry_space_group_name_H-M    'P1'
  _symmetry_Int_Tables_number       1
  _symmetry_cell_setting            triclinic
  loop_
  _symmetry_equiv_pos_as_xyz
 x,y,z
_cell_length_a 33.0285
_cell_length_b 33.0259
_cell_length_c 33.0261
_cell_angle_alpha 90.000000
_cell_angle_beta 90.000000
_cell_angle_gamma 90.000000
loop_
  _atom_site_label
  _atom_site_type_symbol
  _atom_site_fract_x
  _atom_site_fract_y
  _atom_site_fract_z
Si1 Si 0.24999 0.50000 1.00000
 Si2 Si 0.75000 0.50000 0.00000
 Si3 Si 0.00001 0.25000 0.50001
 Si4 Si 1.00001 0.75000 0.49999
 Si5 Si 0.50001 0.00001 0.25000
 Si6 Si 0.50001 -0.00001 0.75000
 C7 C 0.31177 0.03118 0.45167
 H8 H 0.31241 0.05432 0.47486
 C9 C 0.33970 0.03229 0.41997
 H10 H 0.36190 0.05640 0.41863
 C11 C 0.28305 -0.02940 0.42586
 H12 H 0.26157 -0.05387 0.42878
 C13 C 0.31051 -0.02945 0.39365
 H14 H 0.30988 -0.05378 0.37167
 N15 N 0.28414 0.00072 0.45400
 C16 C 0.18824 0.04834 0.53119
 H17 H 0.18760 0.02515 0.55432
 C18 C 0.16031 0.08003 0.53229
 H19 H 0.13811 0.08138 0.55640
 C20 C 0.21696 0.07414 0.47060
 H21 H 0.23845 0.07122 0.44613
 C22 C 0.18950 0.10635 0.47055
 H23 H 0.19014 0.12834 0.44622
 Zn24 Zn 0.25001 0.00000 0.50000
 N25 N 0.21588 0.04600 0.50072
 C26 C 0.28305 0.02940 0.57414
 N27 N 0.28414 -0.00072 0.54600
 C28 C 0.31177 -0.03118 0.54833
 C29 C 0.33970 -0.03229 0.58003
 C30 C 0.31051 0.02945 0.60635
 C31 C 0.18824 -0.04833 0.46882
 C32 C 0.16031 -0.08003 0.46771
 C33 C 0.18950 -0.10635 0.52945
 C34 C 0.21696 -0.07414 0.52940
 N35 N 0.21588 -0.04600 0.49928
 H36 H 0.26157 0.05387 0.57122
 H37 H 0.31241 -0.05431 0.52515
 H38 H 0.36190 -0.05640 0.58138
 H39 H 0.30988 0.05378 0.62834
 H40 H 0.18760 -0.02515 0.44569
 H41 H 0.13811 -0.08138 0.44360
 H42 H 0.19014 -0.12834 0.55379
 H43 H 0.23845 -0.07122 0.55387
 C44 C 0.16083 0.10918 0.50160
 C45 C 0.33918 0.00160 0.39082
 C46 C 0.16083 -0.10918 0.49840
 C47 C 0.33918 -0.00160 0.60918
 C48 C 0.68824 0.03118 0.54834
 H49 H 0.68760 0.05431 0.52516
 C50 C 0.66031 0.03227 0.58004
 H51 H 0.63811 0.05639 0.58139
 C52 C 0.71696 -0.02941 0.57414
 H53 H 0.73845 -0.05388 0.57121
 C54 C 0.68950 -0.02946 0.60635
 H55 H 0.69014 -0.05381 0.62833
 N56 N 0.71588 0.00071 0.54600
 C57 C 0.81177 0.04834 0.46882
 H58 H 0.81241 0.02516 0.44569
 C59 C 0.83970 0.08003 0.46773
 H60 H 0.86190 0.08139 0.44361
 C61 C 0.78305 0.07414 0.52941
 H62 H 0.76157 0.07121 0.55388
 C63 C 0.81051 0.10635 0.52947
 H64 H 0.80988 0.12833 0.55381
 Zn65 Zn 0.75001 0.00000 0.50000
 N66 N 0.78414 0.04600 0.49929
 C67 C 0.71696 0.02941 0.42587
 N68 N 0.71588 -0.00071 0.45400
 C69 C 0.68824 -0.03118 0.45166
 C70 C 0.66031 -0.03227 0.41997
 C71 C 0.68950 0.02947 0.39365
 C72 C 0.81177 -0.04834 0.53118
 C73 C 0.83970 -0.08003 0.53227
 C74 C 0.81051 -0.10635 0.47054
 C75 C 0.78305 -0.07413 0.47059
 N76 N 0.78414 -0.04600 0.50071
 H77 H 0.73845 0.05388 0.42879
 H78 H 0.68760 -0.05431 0.47485
 H79 H 0.63811 -0.05639 0.41861
 H80 H 0.69014 0.05381 0.37167
 H81 H 0.81241 -0.02516 0.55431
 H82 H 0.86190 -0.08139 0.55639
 H83 H 0.80988 -0.12833 0.44619
 H84 H 0.76157 -0.07121 0.44612
 C85 C 0.83918 0.10918 0.49842
 C86 C 0.66083 0.00158 0.60918
 C87 C 0.83918 -0.10918 0.50158
 C88 C 0.66083 -0.00158 0.39082
 C89 C 0.46869 0.18824 1.04827
 H90 H 0.44561 0.18758 1.02503
 C91 C 0.46754 0.16031 1.07996
 H92 H 0.44344 0.13809 1.08126
 C93 C 0.52920 0.21699 1.07419
 H94 H 0.55367 0.23849 1.07132
 C95 C 0.52920 0.18954 1.10641
 H96 H 0.55349 0.19019 1.12843
 N97 N 0.49914 0.21589 1.04599
 C98 C 0.45180 0.31180 0.96863
 H99 H 0.47510 0.31246 0.94561
 C100 C 0.42010 0.33972 0.96738
 H101 H 0.41886 0.36193 0.94327
 C102 C 0.42572 0.28304 1.02908
 H103 H 0.42853 0.26154 1.05355
 C104 C 0.39350 0.31049 1.02898
 H105 H 0.37140 0.30984 1.05321
 Zn106 Zn 0.49999 0.25002 0.99999
 N107 N 0.45400 0.28415 0.99909
 C108 C 0.47079 0.21699 0.92578
 N109 N 0.50085 0.21589 0.95399
 C110 C 0.53131 0.18824 0.95171
 C111 C 0.53246 0.16030 0.92002
 C112 C 0.47080 0.18953 0.89357
 C113 C 0.54818 0.31180 1.03134
 C114 C 0.57988 0.33972 1.03259
 C115 C 0.60649 0.31049 0.97100
 C116 C 0.57427 0.28305 0.97090
 N117 N 0.54598 0.28415 1.00088
 H118 H 0.44632 0.23848 0.92865
 H119 H 0.55438 0.18758 0.97495
 H120 H 0.55656 0.13809 0.91872
 H121 H 0.44650 0.19017 0.87155
 H122 H 0.52488 0.31246 1.05436
 H123 H 0.58112 0.36193 1.05670
 H124 H 0.62859 0.30984 0.94676
 H125 H 0.57146 0.26154 0.94642
 C126 C 0.39080 0.33917 0.99793
 C127 C 0.49817 0.16085 1.10918
 C128 C 0.60918 0.33917 1.00204
 C129 C 0.50183 0.16084 0.89081
 C130 C 0.46869 0.81176 -0.04827
 H131 H 0.44561 0.81242 -0.02503
 C132 C 0.46754 0.83969 -0.07996
 H133 H 0.44344 0.86191 -0.08126
 C134 C 0.52920 0.78301 -0.07419
 H135 H 0.55367 0.76151 -0.07132
 C136 C 0.52920 0.81046 -0.10641
 H137 H 0.55349 0.80982 -0.12843
 N138 N 0.49914 0.78411 -0.04599
 C139 C 0.45180 0.68820 0.03137
 H140 H 0.47510 0.68754 0.05439
 C141 C 0.42010 0.66028 0.03262
 H142 H 0.41886 0.63807 0.05673
 C143 C 0.42572 0.71696 -0.02908
 H144 H 0.42853 0.73846 -0.05355
 C145 C 0.39350 0.68951 -0.02898
 H146 H 0.37140 0.69017 -0.05321
 Zn147 Zn 0.49999 0.74998 0.00001
 N148 N 0.45400 0.71585 0.00091
 C149 C 0.47079 0.78301 0.07422
 N150 N 0.50085 0.78411 0.04602
 C151 C 0.53131 0.81176 0.04829
 C152 C 0.53246 0.83970 0.07998
 C153 C 0.47080 0.81047 0.10643
 C154 C 0.54818 0.68820 -0.03134
 C155 C 0.57988 0.66028 -0.03259
 C156 C 0.60649 0.68951 0.02901
 C157 C 0.57427 0.71696 0.02910
 N158 N 0.54598 0.71585 -0.00088
 H159 H 0.44632 0.76152 0.07135
 H160 H 0.55438 0.81242 0.02505
 H161 H 0.55656 0.86191 0.08128
 H162 H 0.44650 0.80983 0.12846
 H163 H 0.52488 0.68754 -0.05436
 H164 H 0.58112 0.63807 -0.05670
 H165 H 0.62859 0.69016 0.05324
 H166 H 0.57146 0.73846 0.05358
 C167 C 0.39080 0.66083 0.00207
 C168 C 0.49817 0.83915 -0.10917
 C169 C 0.60918 0.66083 -0.00204
 C170 C 0.50183 0.83916 0.10919
 C171 C 1.04819 0.46863 0.18820
 H172 H 1.02489 0.44561 0.18754
 C173 C 1.07988 0.46739 0.16028
 H174 H 1.08112 0.44327 0.13807
 C175 C 1.07427 0.52908 0.21696
 H176 H 1.07146 0.55355 0.23846
 C177 C 1.10649 0.52898 0.18951
 H178 H 1.12859 0.55321 0.19016
 N179 N 1.04599 0.49909 0.21585
 C180 C 0.96869 0.45171 0.31176
 H181 H 0.94561 0.47495 0.31242
 C182 C 0.96754 0.42002 0.33970
 H183 H 0.94344 0.41872 0.36191
 C184 C 1.02920 0.42578 0.28301
 H185 H 1.05367 0.42865 0.26152
 C186 C 1.02920 0.39357 0.31047
 H187 H 1.05349 0.37155 0.30983
 Zn188 Zn 1.00000 0.49999 0.24998
 N189 N 0.99914 0.45398 0.28411
 C190 C 0.92572 0.47090 0.21696
 N191 N 0.95400 0.50088 0.21585
 C192 C 0.95181 0.53134 0.18820
 C193 C 0.92011 0.53259 0.16028
 C194 C 0.89350 0.47100 0.18951
 C195 C 1.03131 0.54827 0.31176
 C196 C 1.03246 0.57996 0.33969
 C197 C 0.97080 0.60641 0.31047
 C198 C 0.97080 0.57419 0.28301
 N199 N 1.00085 0.54599 0.28411
 H200 H 0.92853 0.44642 0.23846
 H201 H 0.97510 0.55436 0.18754
 H202 H 0.91887 0.55670 0.13807
 H203 H 0.87140 0.44676 0.19016
 H204 H 1.05439 0.52503 0.31242
 H205 H 1.05656 0.58126 0.36191
 H206 H 0.94650 0.62843 0.30982
 H207 H 0.94633 0.57133 0.26152
 C208 C 0.99817 0.39081 0.33916
 C209 C 1.10918 0.49793 0.16083
 C210 C 1.00183 0.60917 0.33916
 C211 C 0.89081 0.50204 0.16083
 C212 C -0.04819 0.46866 0.81180
 H213 H -0.02490 0.44564 0.81246
 C214 C -0.07989 0.46741 0.83972
 H215 H -0.08113 0.44330 0.86193
 C216 C -0.07428 0.52910 0.78305
 H217 H -0.07147 0.55358 0.76154
 C218 C -0.10650 0.52900 0.81049
 H219 H -0.12860 0.55324 0.80984
 N220 N -0.04600 0.49912 0.78415
 C221 C 0.03131 0.45173 0.68824
 H222 H 0.05439 0.47497 0.68759
 C223 C 0.03246 0.42004 0.66031
 H224 H 0.05656 0.41874 0.63810
 C225 C -0.02920 0.42581 0.71699
 H226 H -0.05367 0.42868 0.73849
 C227 C -0.02920 0.39359 0.68954
 H228 H -0.05350 0.37157 0.69018
 Zn229 Zn -0.00000 0.50001 0.75002
 N230 N 0.00085 0.45401 0.71589
 C231 C 0.07427 0.47092 0.78305
 N232 N 0.04599 0.50091 0.78415
 C233 C 0.04819 0.53137 0.81180
 C234 C 0.07988 0.53262 0.83972
 C235 C 0.10649 0.47102 0.81049
 C236 C -0.03131 0.54829 0.68824
 C237 C -0.03246 0.57998 0.66031
 C238 C 0.02920 0.60643 0.68953
 C239 C 0.02920 0.57422 0.71699
 N240 N -0.00086 0.54602 0.71589
 H241 H 0.07146 0.44645 0.76155
 H242 H 0.02489 0.55439 0.81246
 H243 H 0.08112 0.55673 0.86193
 H244 H 0.12859 0.44679 0.80984
 H245 H -0.05439 0.52505 0.68758
 H246 H -0.05656 0.58128 0.63809
 H247 H 0.05349 0.62846 0.69018
 H248 H 0.05367 0.57135 0.73848
 C249 C 0.00183 0.39083 0.66085
 C250 C -0.10919 0.49796 0.83917
 C251 C -0.00183 0.60919 0.66084
 C252 C 0.10918 0.50207 0.83917
 C253 C 0.04432 0.21754 0.50004
 C254 C 0.07251 0.19439 0.50023
 C255 C 0.10437 0.16593 0.50059
 C256 C 0.13063 0.14058 0.50100
 C257 C 0.71754 0.54431 -0.00048
 C258 C 0.69439 0.57250 -0.00080
 C259 C 0.66592 0.60436 -0.00120
 C260 C 0.64058 0.63062 -0.00157
 C261 C 0.95569 -0.21754 0.50001
 C262 C 0.92751 -0.19439 0.50020
 C263 C 0.89564 -0.16593 0.50056
 C264 C 0.86939 -0.14058 0.50098
 C265 C 0.28245 0.45569 0.99951
 C266 C 0.30560 0.42750 0.99918
 C267 C 0.33406 0.39563 0.99878
 C268 C 0.35940 0.36938 0.99841
 C269 C 0.95569 0.21754 0.49999
 C270 C 0.92751 0.19439 0.49980
 C271 C 0.89564 0.16593 0.49944
 C272 C 0.86939 0.14058 0.49903
 C273 C 0.28245 0.54431 0.00049
 C274 C 0.30560 0.57250 0.00082
 C275 C 0.33406 0.60437 0.00122
 C276 C 0.35940 0.63062 0.00159
 C277 C 0.04432 -0.21754 0.49996
 C278 C 0.07251 -0.19439 0.49978
 C279 C 0.10437 -0.16593 0.49942
 C280 C 0.13063 -0.14058 0.49900
 C281 C 0.71754 0.45569 1.00048
 C282 C 0.69439 0.42750 1.00081
 C283 C 0.66592 0.39564 1.00120
 C284 C 0.64058 0.36938 1.00157
 C285 C 0.49986 0.04432 1.21753
 C286 C 0.49960 0.07251 1.19437
 C287 C 0.49918 0.10437 1.16591
 C288 C 0.49875 0.13063 1.14057
 C289 C -0.00014 0.71754 0.54430
 C290 C -0.00040 0.69438 0.57249
 C291 C -0.00082 0.66592 0.60436
 C292 C -0.00125 0.64058 0.63062
 C293 C 0.49986 0.95568 -0.21753
 C294 C 0.49960 0.92749 -0.19437
 C295 C 0.49919 0.89563 -0.16591
 C296 C 0.49875 0.86937 -0.14056
 C297 C 0.99986 0.28246 0.45570
 C298 C 0.99960 0.30562 0.42751
 C299 C 0.99918 0.33408 0.39565
 C300 C 0.99875 0.35942 0.36938
 C301 C 0.50015 0.95570 0.21754
 C302 C 0.50041 0.92751 0.19438
 C303 C 0.50082 0.89565 0.16592
 C304 C 0.50125 0.86938 0.14058
 C305 C 0.00015 0.28247 0.54432
 C306 C 0.00041 0.30563 0.57251
 C307 C 0.00082 0.33409 0.60437
 C308 C 0.00125 0.35944 0.63063
 C309 C 0.50015 0.04430 0.78246
 C310 C 0.50041 0.07249 0.80562
 C311 C 0.50082 0.10435 0.83408
 C312 C 0.50125 0.13062 0.85942
 C313 C 1.00015 0.71753 0.45568
 C314 C 1.00041 0.69437 0.42749
 C315 C 1.00082 0.66591 0.39563
 C316 C 1.00125 0.64056 0.36937
 C317 C 1.21754 0.49951 0.04431
 C318 C 1.19439 0.49918 0.07250
 C319 C 1.16593 0.49878 0.10436
 C320 C 1.14058 0.49841 0.13062
 C321 C 0.54432 0.00001 0.71754
 C322 C 0.57251 0.00020 0.69439
 C323 C 0.60437 0.00056 0.66593
 C324 C 0.63063 0.00098 0.64058
 C325 C -0.21755 0.49952 0.95569
 C326 C -0.19440 0.49920 0.92750
 C327 C -0.16594 0.49880 0.89564
 C328 C -0.14059 0.49843 0.86938
 C329 C 0.45569 0.00004 0.28246
 C330 C 0.42751 0.00023 0.30561
 C331 C 0.39565 0.00059 0.33408
 C332 C 0.36939 0.00100 0.35942
 C333 C 0.21754 0.50049 0.95569
 C334 C 0.19439 0.50082 0.92750
 C335 C 0.16593 0.50122 0.89564
 C336 C 0.14058 0.50159 0.86938
 C337 C 0.54432 -0.00001 0.28246
 C338 C 0.57251 -0.00020 0.30561
 C339 C 0.60437 -0.00056 0.33407
 C340 C 0.63063 -0.00098 0.35942
 C341 C 0.78245 0.50048 0.04431
 C342 C 0.80560 0.50081 0.07250
 C343 C 0.83406 0.50120 0.10436
 C344 C 0.85941 0.50157 0.13062
 C345 C 0.45569 -0.00004 0.71754
 C346 C 0.42751 -0.00023 0.69439
 C347 C 0.39565 -0.00059 0.66593
 C348 C 0.36939 -0.00100 0.64058
   
