data_POSCAR
  _audit_creation_date              2014-09-24
  _audit_creation_method            'ToBaCCo'
  _symmetry_space_group_name_H-M    'P1'
  _symmetry_Int_Tables_number       1
  _symmetry_cell_setting            triclinic
  loop_
  _symmetry_equiv_pos_as_xyz
 x,y,z
_cell_length_a 18.6636
_cell_length_b 19.0706
_cell_length_c 19.3480
_cell_angle_alpha 90.384400
_cell_angle_beta 89.953300
_cell_angle_gamma 90.195300
loop_
  _atom_site_label
  _atom_site_type_symbol
  _atom_site_fract_x
  _atom_site_fract_y
  _atom_site_fract_z
C1 C 0.25070 0.29738 0.19822
 C2 C 0.30269 0.29587 0.14596
 C3 C 0.35445 0.24267 0.14406
 C4 C 0.35441 0.19083 0.19535
 C5 C 0.30373 0.19260 0.24903
 C6 C 0.25140 0.24590 0.25030
 C7 C 0.19807 0.34963 0.19932
 C8 C 0.14718 0.35215 0.25272
 C9 C 0.14855 0.30146 0.30500
 C10 C 0.19977 0.24781 0.30366
 C11 C 0.20015 0.19599 0.35472
 C12 C 0.25259 0.14338 0.35419
 C13 C 0.30453 0.14218 0.30155
 H14 H 0.30247 0.33568 0.10619
 H15 H 0.39476 0.15005 0.19423
 H16 H 0.19725 0.38903 0.15916
 H17 H 0.10885 0.30309 0.34594
 H18 H 0.16037 0.19716 0.39559
 H19 H 0.34476 0.10129 0.30093
 C20 C 0.74846 -0.30314 0.19935
 C21 C 0.69558 -0.30219 0.14774
 C22 C 0.64617 -0.24662 0.14429
 C23 C 0.64988 -0.19227 0.19381
 C24 C 0.69866 -0.19562 0.24876
 C25 C 0.74819 -0.25126 0.25164
 C26 C 0.80175 -0.35493 0.19949
 C27 C 0.85104 -0.35918 0.25444
 C28 C 0.84667 -0.31036 0.30920
 C29 C 0.79754 -0.25491 0.30674
 C30 C 0.79747 -0.20256 0.35806
 C31 C 0.74792 -0.14741 0.35557
 C32 C 0.69843 -0.14439 0.30111
 H33 H 0.69459 -0.34336 0.10879
 H34 H 0.61216 -0.14918 0.19185
 H35 H 0.80329 -0.39340 0.15796
 H36 H 0.88434 -0.31296 0.35176
 H37 H 0.83550 -0.20494 0.40033
 H38 H 0.66040 -0.10157 0.29912
 C39 C 0.74984 0.30192 0.79989
 C40 C 0.69778 0.30029 0.85218
 C41 C 0.64857 0.24432 0.85627
 C42 C 0.65198 0.18989 0.80682
 C43 C 0.70036 0.19365 0.75140
 C44 C 0.74952 0.24993 0.74782
 C45 C 0.80228 0.35470 0.79897
 C46 C 0.85124 0.35957 0.74375
 C47 C 0.84714 0.31037 0.68924
 C48 C 0.79841 0.25416 0.69226
 C49 C 0.79826 0.20163 0.64111
 C50 C 0.74902 0.14588 0.64423
 C51 C 0.70001 0.14233 0.69916
 H52 H 0.69703 0.34164 0.89095
 H53 H 0.61437 0.14648 0.80922
 H54 H 0.80358 0.39331 0.84039
 H55 H 0.88459 0.31336 0.64645
 H56 H 0.83589 0.20437 0.59846
 H57 H 0.66224 0.09906 0.70157
 C58 C 0.24570 -0.29353 0.80519
 C59 C 0.29677 -0.29085 0.85821
 C60 C 0.35050 -0.23913 0.85844
 C61 C 0.35210 -0.18864 0.80592
 C62 C 0.30224 -0.19150 0.75163
 C63 C 0.24941 -0.24476 0.75079
 C64 C 0.19161 -0.34481 0.80523
 C65 C 0.14434 -0.35157 0.74888
 C66 C 0.15012 -0.30420 0.69354
 C67 C 0.20045 -0.24941 0.69544
 C68 C 0.20234 -0.19895 0.64306
 C69 C 0.25379 -0.14508 0.64432
 C70 C 0.30445 -0.14234 0.69797
 H71 H 0.29500 -0.32920 0.89933
 H72 H 0.39347 -0.14857 0.80626
 H73 H 0.18849 -0.38148 0.84776
 H74 H 0.11337 -0.30803 0.65026
 H75 H 0.16400 -0.20168 0.60102
 H76 H 0.34445 -0.10096 0.69871
 C77 C 0.75307 -0.29389 0.80471
 C78 C 0.70232 -0.29104 0.85805
 C79 C 0.64902 -0.23929 0.85843
 C80 C 0.64762 -0.18888 0.80590
 C81 C 0.69718 -0.19195 0.75135
 C82 C 0.74946 -0.24535 0.75019
 C83 C 0.80680 -0.34506 0.80461
 C84 C 0.85363 -0.35210 0.74792
 C85 C 0.84778 -0.30524 0.69229
 C86 C 0.79801 -0.25030 0.69445
 C87 C 0.79638 -0.19987 0.64210
 C88 C 0.74559 -0.14578 0.64386
 C89 C 0.69523 -0.14283 0.69777
 H90 H 0.70398 -0.32930 0.89924
 H91 H 0.60661 -0.14874 0.80641
 H92 H 0.80998 -0.38147 0.84734
 H93 H 0.88426 -0.30937 0.64878
 H94 H 0.83443 -0.20271 0.59978
 H95 H 0.65571 -0.10127 0.69878
 C96 C 0.25114 0.30272 0.79947
 C97 C 0.30355 0.30156 0.85141
 C98 C 0.35499 0.24803 0.85269
 C99 C 0.35457 0.19596 0.80102
 C100 C 0.30369 0.19742 0.74780
 C101 C 0.25140 0.25071 0.74716
 C102 C 0.19832 0.35484 0.79907
 C103 C 0.14689 0.35665 0.74617
 C104 C 0.14794 0.30544 0.69367
 C105 C 0.19929 0.25190 0.69432
 C106 C 0.19927 0.19936 0.64319
 C107 C 0.25177 0.14676 0.64326
 C108 C 0.30410 0.14635 0.69533
 H109 H 0.30364 0.34153 0.89154
 H110 H 0.39464 0.15492 0.80173
 H111 H 0.19771 0.39461 0.83939
 H112 H 0.10787 0.30654 0.65314
 H113 H 0.15909 0.19987 0.60274
 H114 H 0.34429 0.10541 0.69566
 C115 C 0.24982 -0.30233 0.19849
 C116 C 0.30299 -0.30153 0.14711
 C117 C 0.35305 -0.24618 0.14399
 C118 C 0.34980 -0.19196 0.19364
 C119 C 0.30071 -0.19521 0.24840
 C120 C 0.25041 -0.25054 0.25087
 C121 C 0.19603 -0.35398 0.19840
 C122 C 0.14637 -0.35801 0.25313
 C123 C 0.15080 -0.30908 0.30780
 C124 C 0.20067 -0.25401 0.30571
 C125 C 0.20117 -0.20196 0.35727
 C126 C 0.25156 -0.14723 0.35527
 C127 C 0.30139 -0.14424 0.30099
 H128 H 0.30371 -0.34262 0.10808
 H129 H 0.38810 -0.14908 0.19193
 H130 H 0.19445 -0.39253 0.15694
 H131 H 0.11289 -0.31151 0.35025
 H132 H 0.16283 -0.20427 0.39935
 H133 H 0.34001 -0.10166 0.29932
 C134 C 0.75415 0.29389 0.19689
 C135 C 0.70380 0.29083 0.14337
 C136 C 0.65088 0.23845 0.14233
 C137 C 0.64945 0.18758 0.19445
 C138 C 0.69873 0.19082 0.24919
 C139 C 0.75071 0.24483 0.25094
 C140 C 0.80735 0.34578 0.19750
 C141 C 0.85425 0.35283 0.25406
 C142 C 0.84871 0.30540 0.30932
 C143 C 0.79912 0.24991 0.30676
 C144 C 0.79749 0.19905 0.35874
 C145 C 0.74683 0.14449 0.35650
 C146 C 0.69675 0.14133 0.30242
 H147 H 0.70544 0.32949 0.10252
 H148 H 0.60862 0.14699 0.19350
 H149 H 0.81024 0.38257 0.15504
 H150 H 0.88522 0.30956 0.35277
 H151 H 0.83533 0.20197 0.40117
 H152 H 0.65739 0.09938 0.30104
 O153 O 0.19376 0.06692 0.43233
 O154 O 0.19450 -0.06891 0.56680
 O155 O 0.19261 0.06853 0.56621
 O156 O 0.19260 -0.07019 0.43308
 O157 O 0.31096 -0.06875 0.43179
 O158 O 0.31094 0.06834 0.56667
 O159 O 0.31283 -0.06746 0.56733
 O160 O 0.31209 0.06669 0.43118
 Cu161 Cu 0.18151 -0.00097 0.49971
 Cu162 Cu 0.32339 -0.00023 0.49927
 C163 C 0.25286 0.08966 0.40858
 C164 C 0.25378 -0.09121 0.59007
 C165 C 0.25175 0.09191 0.58929
 C166 C 0.25173 -0.09277 0.40948
 O167 O 0.80785 0.06825 0.56683
 O168 O 0.80725 -0.06987 0.43303
 O169 O 0.80585 0.06757 0.43332
 O170 O 0.80517 -0.06915 0.56669
 O171 O 0.68682 -0.06831 0.56742
 O172 O 0.68748 0.06677 0.43269
 O173 O 0.68890 -0.06888 0.43207
 O174 O 0.68948 0.06730 0.56793
 Cu175 Cu 0.81842 -0.00084 0.49995
 Cu176 Cu 0.67648 -0.00079 0.50003
 C177 C 0.74879 0.09115 0.59027
 C178 C 0.74804 -0.09272 0.40961
 C179 C 0.74669 0.09035 0.41026
 C180 C 0.74583 -0.09184 0.58989
 O181 O 0.43292 0.18454 0.06579
 O182 O 0.56826 0.18581 -0.07311
 O183 O 0.57167 0.18223 0.06312
 O184 O 0.43063 0.18755 -0.06972
 O185 O 0.43492 0.30330 -0.06832
 O186 O 0.57196 0.29802 0.06783
 O187 O 0.57596 0.30094 -0.06444
 O188 O 0.43255 0.30033 0.06603
 Cu189 Cu 0.50068 0.17352 -0.00371
 Cu190 Cu 0.50378 0.31234 0.00042
 C191 C 0.40929 0.24240 0.08919
 C192 C 0.59606 0.24357 -0.09190
 C193 C 0.59551 0.23938 0.08833
 C194 C 0.40939 0.24628 -0.09224
 O195 O 0.56835 0.81308 0.07309
 O196 O 0.43038 0.81738 -0.06300
 O197 O 0.43163 0.81335 0.07301
 O198 O 0.56976 0.81732 -0.06293
 O199 O 0.56937 0.70153 -0.06672
 O200 O 0.42805 0.69791 0.06594
 O201 O 0.42977 0.70159 -0.06679
 O202 O 0.57086 0.69764 0.06605
 Cu203 Cu 0.50009 0.82676 0.00518
 Cu204 Cu 0.49947 0.68798 -0.00044
 C205 C 0.59357 0.75469 0.09263
 C206 C 0.40625 0.76010 -0.08772
 C207 C 0.40582 0.75502 0.09249
 C208 C 0.59339 0.76000 -0.08764
 O209 O 0.06701 0.42901 0.19637
 O210 O -0.07211 0.56529 0.19717
 O211 O 0.07081 0.56403 0.19662
 O212 O -0.07264 0.43145 0.19744
 O213 O -0.06765 0.42801 0.31125
 O214 O 0.06682 0.56974 0.31043
 O215 O -0.07059 0.56713 0.31117
 O216 O 0.07011 0.43212 0.31050
 Cu217 Cu -0.00166 0.49783 0.18540
 Cu218 Cu -0.00045 0.49939 0.32227
 C219 C 0.09210 0.40721 0.25327
 C220 C -0.09561 0.58925 0.25428
 C221 C 0.09302 0.59013 0.25336
 C222 C -0.09369 0.40587 0.25441
 O223 O 0.07013 0.56893 0.80420
 O224 O -0.07459 0.43730 0.80151
 O225 O 0.06618 0.43338 0.80329
 O226 O -0.07120 0.57107 0.80408
 O227 O -0.07006 0.57222 0.69007
 O228 O 0.06985 0.43647 0.68924
 O229 O -0.06860 0.43303 0.68773
 O230 O 0.06659 0.57437 0.69044
 Cu231 Cu -0.00224 0.50259 0.81471
 Cu232 Cu -0.00058 0.50384 0.67791
 C233 C 0.09206 0.59545 0.74783
 C234 C -0.09573 0.41181 0.74419
 C235 C 0.09162 0.41160 0.74621
 C236 C -0.09423 0.59528 0.74728
   
