data_POSCAR
  _audit_creation_date              2014-09-24
  _audit_creation_method            'ToBaCCo'
  _symmetry_space_group_name_H-M    'P1'
  _symmetry_Int_Tables_number       1
  _symmetry_cell_setting            triclinic
  loop_
  _symmetry_equiv_pos_as_xyz
 x,y,z
_cell_length_a 33.4881
_cell_length_b 30.6719
_cell_length_c 32.3651
_cell_angle_alpha 85.086000
_cell_angle_beta 91.283500
_cell_angle_gamma 91.978500
loop_
  _atom_site_label
  _atom_site_type_symbol
  _atom_site_fract_x
  _atom_site_fract_y
  _atom_site_fract_z
C1 C 0.29464 0.30501 0.23626
 H2 H 0.29839 0.30769 0.26924
 C3 C 0.32087 0.32806 0.20856
 H4 H 0.34452 0.34879 0.22044
 C5 C 0.26098 0.27253 0.18091
 H6 H 0.23856 0.24992 0.17008
 C7 C 0.28655 0.29473 0.15228
 H8 H 0.28237 0.28983 0.11972
 N9 N 0.26560 0.27759 0.22211
 C10 C 0.17745 0.24828 0.31955
 H11 H 0.17543 0.21301 0.31930
 C12 C 0.15259 0.26929 0.34507
 H13 H 0.13143 0.24928 0.36360
 C14 C 0.20673 0.31615 0.29357
 H15 H 0.22749 0.33435 0.27306
 C16 C 0.18276 0.33852 0.31891
 H17 H 0.18589 0.37385 0.31762
 Zn18 Zn 0.23585 0.24019 0.26093
 N19 N 0.20401 0.27177 0.29472
 C20 C 0.27291 0.20148 0.33557
 N21 N 0.27353 0.20706 0.29341
 C22 C 0.30189 0.18868 0.27177
 C23 C 0.33028 0.16218 0.29227
 C24 C 0.30081 0.17493 0.35744
 C25 C 0.17232 0.21843 0.20662
 C26 C 0.15051 0.19146 0.18096
 C27 C 0.18756 0.13000 0.21099
 C28 C 0.20867 0.15807 0.23589
 N29 N 0.20190 0.20170 0.23213
 H30 H 0.25050 0.21699 0.35224
 H31 H 0.30209 0.19428 0.23831
 H32 H 0.35269 0.14843 0.27413
 H33 H 0.29945 0.17000 0.39092
 H34 H 0.16705 0.25316 0.20476
 H35 H 0.12846 0.20570 0.15934
 H36 H 0.19400 0.09553 0.21412
 H37 H 0.23121 0.14500 0.25741
 C38 C 0.15521 0.31521 0.34546
 C39 C 0.31764 0.32208 0.16606
 C40 C 0.15912 0.14690 0.18188
 C41 C 0.32948 0.15413 0.33566
 C42 C 0.81259 0.80102 0.21473
 H43 H 0.82597 0.77559 0.23506
 C44 C 0.83710 0.82913 0.18958
 H45 H 0.86905 0.82481 0.19195
 C46 C 0.75495 0.83559 0.18634
 H47 H 0.72271 0.83676 0.18412
 C48 C 0.77837 0.86499 0.16098
 H49 H 0.76300 0.88809 0.13976
 N50 N 0.77228 0.80455 0.21273
 C51 C 0.69092 0.76299 0.31297
 H52 H 0.69649 0.72833 0.31594
 C53 C 0.66739 0.78061 0.34205
 H54 H 0.65546 0.75883 0.36710
 C55 C 0.70278 0.83317 0.27830
 H56 H 0.71721 0.85385 0.25408
 C57 C 0.67913 0.85213 0.30638
 H58 H 0.67535 0.88717 0.30265
 Zn59 Zn 0.73992 0.76234 0.24428
 N60 N 0.70766 0.78918 0.28156
 C61 C 0.79553 0.73734 0.30774
 N62 N 0.77321 0.72287 0.27575
 C63 C 0.77512 0.68099 0.26540
 C64 C 0.80124 0.65216 0.28672
 C65 C 0.82223 0.70961 0.32983
 C66 C 0.71852 0.73245 0.16683
 C67 C 0.69829 0.70648 0.13930
 C68 C 0.65566 0.67768 0.19505
 C69 C 0.67679 0.70421 0.22160
 N70 N 0.70781 0.73065 0.20725
 H71 H 0.79323 0.77078 0.31544
 H72 H 0.75689 0.67003 0.24009
 H73 H 0.80190 0.61895 0.27797
 H74 H 0.84050 0.72205 0.35451
 H75 H 0.74361 0.75307 0.15605
 H76 H 0.70745 0.70863 0.10732
 H77 H 0.63164 0.65613 0.20726
 H78 H 0.66898 0.70279 0.25387
 C79 C 0.66068 0.82584 0.33871
 C80 C 0.82037 0.86189 0.16184
 C81 C 0.66690 0.67791 0.15350
 C82 C 0.82597 0.66663 0.31883
 C83 C 0.80253 0.32771 0.72264
 H84 H 0.80663 0.33191 0.75533
 C85 C 0.82759 0.35064 0.69375
 H86 H 0.85078 0.37268 0.70449
 C87 C 0.76883 0.29188 0.66932
 H88 H 0.74676 0.26808 0.65988
 C89 C 0.79324 0.31402 0.63946
 H90 H 0.78850 0.30785 0.60728
 N91 N 0.77411 0.29865 0.71011
 C92 C 0.69420 0.27545 0.81608
 H93 H 0.69619 0.24045 0.82301
 C94 C 0.66914 0.29917 0.83918
 H95 H 0.65214 0.28229 0.86413
 C96 C 0.71270 0.33974 0.77408
 H97 H 0.72922 0.35537 0.74830
 C98 C 0.68761 0.36455 0.79594
 H99 H 0.68589 0.39932 0.78726
 Zn100 Zn 0.74666 0.26238 0.75158
 N101 N 0.71554 0.29602 0.78439
 C102 C 0.78890 0.22558 0.82496
 N103 N 0.78676 0.23140 0.78290
 C104 C 0.81391 0.21377 0.75930
 C105 C 0.84423 0.18834 0.77748
 C106 C 0.81858 0.19971 0.84471
 C107 C 0.68167 0.23612 0.70096
 C108 C 0.65895 0.20682 0.67843
 C109 C 0.69744 0.14779 0.71115
 C110 C 0.71934 0.17810 0.73294
 N111 N 0.71219 0.22154 0.72638
 H112 H 0.76736 0.24033 0.84333
 H113 H 0.81142 0.21877 0.72586
 H114 H 0.86362 0.17452 0.75632
 H115 H 0.81889 0.19540 0.87828
 H116 H 0.67615 0.27079 0.69683
 H117 H 0.63602 0.21917 0.65683
 H118 H 0.70420 0.11348 0.71639
 H119 H 0.74271 0.16683 0.75435
 C120 C 0.66517 0.34420 0.82876
 C121 C 0.82382 0.34304 0.65165
 C122 C 0.66775 0.16221 0.68233
 C123 C 0.84718 0.18008 0.82117
 C124 C 0.31849 0.79854 0.73306
 H125 H 0.33143 0.77939 0.75920
 C126 C 0.34284 0.82832 0.70941
 H127 H 0.37439 0.83101 0.71725
 C128 C 0.26187 0.81926 0.69188
 H129 H 0.23032 0.81586 0.68516
 C130 C 0.28516 0.84977 0.66748
 H131 H 0.27119 0.86858 0.64162
 N132 N 0.27895 0.79352 0.72333
 C133 C 0.18314 0.75341 0.80802
 H134 H 0.17840 0.71938 0.80222
 C135 C 0.15718 0.77300 0.83353
 H136 H 0.13218 0.75363 0.84646
 C137 C 0.22077 0.81996 0.79620
 H138 H 0.24569 0.83806 0.78158
 C139 C 0.19577 0.84078 0.82167
 H140 H 0.20187 0.87491 0.82638
 Zn141 Zn 0.24810 0.74977 0.75518
 N142 N 0.21411 0.77705 0.78998
 C143 C 0.28141 0.70654 0.82950
 N144 N 0.28377 0.71309 0.78749
 C145 C 0.31195 0.69339 0.76661
 C146 C 0.33841 0.66492 0.78772
 C147 C 0.30749 0.67824 0.85197
 C148 C 0.18670 0.73262 0.69534
 C149 C 0.16492 0.70727 0.66809
 C150 C 0.20284 0.64491 0.69391
 C151 C 0.22366 0.67125 0.72061
 N152 N 0.21645 0.71471 0.71995
 H153 H 0.25908 0.72287 0.84557
 H154 H 0.31356 0.69962 0.73326
 H155 H 0.36071 0.65008 0.77026
 H156 H 0.30489 0.67281 0.88532
 H157 H 0.17966 0.76653 0.69685
 H158 H 0.14203 0.72228 0.64802
 H159 H 0.20938 0.61050 0.69512
 H160 H 0.24555 0.65656 0.74184
 C161 C 0.16348 0.81733 0.84096
 C162 C 0.32639 0.85404 0.67578
 C163 C 0.17375 0.66307 0.66637
 C164 C 0.33599 0.65640 0.83093
 C165 C 0.03554 -0.02616 -0.03734
 C166 C 0.05845 0.00383 -0.00903
 C167 C 0.03474 0.02621 0.01489
 C168 C -0.01029 0.01642 0.00815
 C169 C 0.00913 -0.05575 -0.00789
 C170 C -0.01467 -0.03360 0.01598
 C171 C 0.00632 0.00354 -0.06231
 C172 C -0.01773 0.02615 -0.03890
 H173 H 0.09079 0.00594 -0.00720
 H174 H -0.02956 0.03363 0.02833
 H175 H 0.00925 -0.09116 -0.00588
 H176 H 0.00512 0.00637 -0.09591
 C177 C 0.03382 0.48144 0.46325
 C178 C 0.05866 0.51134 0.49005
 C179 C 0.03681 0.53665 0.51306
 C180 C -0.00866 0.52945 0.50701
 C181 C 0.00605 0.45484 0.49376
 C182 C -0.01615 0.47980 0.51680
 C183 C 0.00594 0.51186 0.43732
 C184 C -0.01638 0.53718 0.45983
 H185 H 0.09102 0.51165 0.49110
 H186 H -0.02714 0.54917 0.52562
 H187 H 0.00368 0.41942 0.49650
 H188 H 0.00344 0.51224 0.40386
 C189 C 0.54147 -0.02582 0.47714
 C190 C 0.56376 0.00511 0.50500
 C191 C 0.53967 0.02667 0.52923
 C192 C 0.49484 0.01492 0.52342
 C193 C 0.51658 -0.05643 0.50714
 C194 C 0.49230 -0.03529 0.53147
 C195 C 0.51087 0.00237 0.45269
 C196 C 0.48636 0.02384 0.47649
 H197 H 0.59605 0.00873 0.50601
 H198 H 0.47480 0.03132 0.54356
 H199 H 0.51773 -0.09176 0.50877
 H200 H 0.50881 0.00475 0.41912
 C201 C 0.53136 0.45929 -0.01795
 C202 C 0.55566 0.48918 0.00939
 C203 C 0.53328 0.51473 0.03163
 C204 C 0.48798 0.50789 0.02431
 C205 C 0.50238 0.43315 0.01145
 C206 C 0.47982 0.45835 0.03389
 C207 C 0.50455 0.49029 -0.04489
 C208 C 0.48181 0.51585 -0.02304
 H209 H 0.58803 0.49020 0.01051
 H210 H 0.46906 0.52827 0.04183
 H211 H 0.49976 0.39773 0.01390
 H212 H 0.50321 0.49148 -0.07842
 C213 C 0.11165 -0.09342 -0.11291
 C214 C 0.08753 -0.11671 -0.08324
 N215 N 0.08865 -0.16101 -0.07830
 C216 C 0.11263 -0.18325 -0.10192
 C217 C 0.13663 -0.16014 -0.13228
 N218 N 0.13547 -0.11555 -0.13663
 N219 N 0.11096 -0.04904 -0.11746
 C220 C 0.08706 -0.02687 -0.09367
 C221 C 0.06248 -0.05010 -0.06405
 N222 N 0.06356 -0.09465 -0.05963
 H223 H 0.11325 -0.21844 -0.09628
 H224 H 0.08709 0.00852 -0.09782
 C225 C 0.10621 0.40798 0.38931
 C226 C 0.08249 0.38667 0.42047
 N227 N 0.08302 0.34246 0.42731
 C228 C 0.10596 0.31842 0.40422
 C229 C 0.12951 0.33952 0.37224
 N230 N 0.12888 0.38406 0.36605
 N231 N 0.10635 0.45227 0.38288
 C232 C 0.08365 0.47626 0.40618
 C233 C 0.05931 0.45506 0.43719
 N234 N 0.05955 0.41054 0.44360
 H235 H 0.10581 0.28345 0.41153
 H236 H 0.08441 0.51157 0.40053
 C237 C 0.61570 -0.08870 0.39646
 C238 C 0.58885 -0.11329 0.42241
 N239 N 0.58555 -0.15731 0.42083
 C240 C 0.60807 -0.17802 0.39457
 C241 C 0.63554 -0.15359 0.36859
 N242 N 0.63831 -0.10931 0.37039
 N243 N 0.61836 -0.04454 0.39729
 C244 C 0.59526 -0.02382 0.42300
 C245 C 0.56841 -0.04835 0.44938
 N246 N 0.56591 -0.09268 0.44822
 H247 H 0.60367 -0.21296 0.39370
 H248 H 0.59763 0.01149 0.42278
 C249 C 0.60810 0.38307 -0.08480
 C250 C 0.58595 0.41659 -0.10546
 N251 N 0.58981 0.42582 -0.14694
 C252 C 0.61503 0.40317 -0.16879
 C253 C 0.63743 0.36949 -0.14829
 N254 N 0.63310 0.36014 -0.10664
 N255 N 0.60472 0.37449 -0.04314
 C256 C 0.58017 0.39796 -0.02120
 C257 C 0.55757 0.43138 -0.04183
 N258 N 0.56128 0.43979 -0.08363
 H259 H 0.61708 0.41100 -0.20192
 H260 H 0.57843 0.39084 0.01206
 C261 C -0.10005 0.11516 -0.09749
 C262 C -0.07012 0.09751 -0.11969
 N263 N -0.06725 0.10850 -0.16088
 C264 C -0.09334 0.13595 -0.18139
 C265 C -0.12460 0.15366 -0.15969
 N266 N -0.12632 0.14267 -0.11781
 N267 N -0.10283 0.10383 -0.05612
 C268 C -0.07691 0.07555 -0.03601
 C269 C -0.04674 0.05761 -0.05838
 N270 N -0.04437 0.06940 -0.09981
 H271 H -0.08841 0.14367 -0.21397
 H272 H -0.08054 0.06692 -0.00324
 C273 C -0.10391 0.61881 0.40022
 C274 C -0.08707 0.58547 0.38005
 N275 N -0.09864 0.57899 0.34060
 C276 C -0.12658 0.60427 0.32029
 C277 C -0.14402 0.63772 0.34037
 N278 N -0.13185 0.64421 0.37998
 N279 N -0.09182 0.62541 0.43961
 C280 C -0.06376 0.59997 0.45983
 C281 C -0.04691 0.56625 0.43970
 N282 N -0.05915 0.56020 0.40012
 H283 H -0.13425 0.59874 0.28850
 H284 H -0.05449 0.60671 0.49088
 C285 C 0.39730 0.10423 0.41834
 C286 C 0.41349 0.07036 0.39834
 N287 N 0.40132 0.06342 0.35919
 C288 C 0.37402 0.08932 0.33867
 C289 C 0.35830 0.12431 0.35797
 N290 N 0.37012 0.13047 0.39777
 N291 N 0.40960 0.11074 0.45772
 C292 C 0.43757 0.08504 0.47785
 C293 C 0.45433 0.05147 0.45749
 N294 N 0.44152 0.04512 0.41818
 H295 H 0.36453 0.08220 0.30775
 H296 H 0.44722 0.09166 0.50884
 C297 C 0.40052 0.60344 -0.08519
 C298 C 0.41448 0.56769 -0.10423
 N299 N 0.40214 0.56089 -0.14338
 C300 C 0.37671 0.58854 -0.16470
 C301 C 0.36300 0.62503 -0.14615
 N302 N 0.37511 0.63124 -0.10647
 N303 N 0.41309 0.61007 -0.04596
 C304 C 0.43897 0.58251 -0.02489
 C305 C 0.45309 0.54659 -0.04397
 N306 N 0.44030 0.54035 -0.08334
 H307 H 0.36702 0.58166 -0.19564
 H308 H 0.44892 0.58939 0.00594
 C309 C -0.09039 -0.10070 0.10440
 C310 C -0.10355 -0.06374 0.08017
 N311 N -0.14157 -0.05092 0.08402
 C312 C -0.16727 -0.07372 0.11055
 C313 C -0.15438 -0.11147 0.13482
 N314 N -0.11579 -0.12318 0.13100
 N315 N -0.05276 -0.11438 0.10020
 C316 C -0.02770 -0.09297 0.07236
 C317 C -0.04079 -0.05605 0.04764
 N318 N -0.07842 -0.04196 0.05250
 H319 H -0.19694 -0.06160 0.11274
 H320 H 0.00219 -0.10462 0.06963
 C321 C -0.10214 0.42292 0.60113
 C322 C -0.09121 0.40148 0.56674
 N323 N -0.10834 0.36190 0.56025
 C324 C -0.13607 0.34268 0.58657
 C325 C -0.14726 0.36393 0.62127
 N326 N -0.12965 0.40364 0.62766
 N327 N -0.08481 0.46250 0.60759
 C328 C -0.05714 0.48173 0.58109
 C329 C -0.04607 0.46030 0.54653
 N330 N -0.06345 0.42047 0.54046
 H331 H -0.14835 0.31063 0.58089
 H332 H -0.04348 0.51293 0.58755
 C333 C 0.41663 -0.10631 0.61767
 C334 C 0.40379 -0.06776 0.59566
 N335 N 0.36602 -0.05461 0.60077
 C336 C 0.34039 -0.07854 0.62658
 C337 C 0.35312 -0.11751 0.64840
 N338 N 0.39120 -0.13001 0.64342
 N339 N 0.45404 -0.12006 0.61231
 C340 C 0.47916 -0.09731 0.58540
 C341 C 0.46634 -0.05896 0.56270
 N342 N 0.42895 -0.04479 0.56878
 H343 H 0.31060 -0.06704 0.63016
 H344 H 0.50887 -0.10909 0.58181
 C345 C 0.39257 0.40181 0.11697
 C346 C 0.40446 0.37999 0.08317
 N347 N 0.38788 0.34012 0.07682
 C348 C 0.35974 0.32102 0.10267
 C349 C 0.34754 0.34269 0.13672
 N350 N 0.36463 0.38263 0.14308
 N351 N 0.40927 0.44174 0.12317
 C352 C 0.43724 0.46093 0.09701
 C353 C 0.44932 0.43909 0.06308
 N354 N 0.43254 0.39893 0.05727
 H355 H 0.34773 0.28881 0.09711
 H356 H 0.45033 0.49242 0.10328
 C357 C 0.08525 0.10340 0.10652
 C358 C 0.10621 0.06930 0.09179
 N359 N 0.14342 0.06066 0.10688
 C360 C 0.16078 0.08455 0.13623
 C361 C 0.14004 0.11895 0.15129
 N362 N 0.10267 0.12761 0.13570
 N363 N 0.04800 0.11193 0.09111
 C364 C 0.03072 0.08777 0.06170
 C365 C 0.05178 0.05361 0.04679
 N366 N 0.08915 0.04548 0.06235
 H367 H 0.19091 0.07737 0.14673
 H368 H 0.00126 0.09581 0.04968
 C369 C 0.09458 0.61815 0.59738
 C370 C 0.11477 0.58482 0.58041
 N371 N 0.15354 0.57800 0.59107
 C372 C 0.17312 0.60278 0.61835
 C373 C 0.15304 0.63604 0.63604
 N374 N 0.11413 0.64312 0.62468
 N375 N 0.05573 0.62478 0.58638
 C376 C 0.03609 0.59941 0.55936
 C377 C 0.05627 0.56572 0.54244
 N378 N 0.09529 0.55967 0.55352
 H379 H 0.20425 0.59684 0.62565
 H380 H 0.00538 0.60609 0.55097
 C381 C 0.59113 0.11047 0.61495
 C382 C 0.61256 0.07646 0.60069
 N383 N 0.65085 0.07046 0.61370
 C384 C 0.66890 0.09699 0.64046
 C385 C 0.64781 0.13147 0.65485
 N386 N 0.60927 0.13743 0.64144
 N387 N 0.55274 0.11622 0.60161
 C388 C 0.53489 0.08954 0.57456
 C389 C 0.55659 0.05577 0.55980
 N390 N 0.59497 0.05029 0.57349
 H391 H 0.69981 0.09184 0.64937
 H392 H 0.50454 0.09542 0.56406
 C393 C 0.58875 0.60599 0.10790
 C394 C 0.60962 0.58891 0.07622
 N395 N 0.64840 0.60128 0.06992
 C396 C 0.66740 0.63014 0.09386
 C397 C 0.64670 0.64752 0.12582
 N398 N 0.60773 0.63466 0.13206
 N399 N 0.54996 0.59331 0.11419
 C400 C 0.53105 0.56431 0.09017
 C401 C 0.55196 0.54691 0.05841
 N402 N 0.59089 0.55985 0.05247
 H403 H 0.69860 0.63844 0.08851
 H404 H 0.50038 0.55456 0.09657
   
