data_POSCAR
  _audit_creation_date              2014-09-24
  _audit_creation_method            'ToBaCCo'
  _symmetry_space_group_name_H-M    'P1'
  _symmetry_Int_Tables_number       1
  _symmetry_cell_setting            triclinic
  loop_
  _symmetry_equiv_pos_as_xyz
 x,y,z
_cell_length_a 20.6003
_cell_length_b 20.3176
_cell_length_c 20.6522
_cell_angle_alpha 89.969100
_cell_angle_beta 89.962800
_cell_angle_gamma 90.252200
loop_
  _atom_site_label
  _atom_site_type_symbol
  _atom_site_fract_x
  _atom_site_fract_y
  _atom_site_fract_z
N1 N 0.53895 0.14313 0.03353
 N2 N 0.59218 0.17325 0.05447
 N3 N 0.40534 0.10914 -0.03159
 N4 N 0.35480 0.13896 -0.05687
 N5 N 0.40463 0.11370 0.03180
 N6 N 0.35391 0.14831 0.05127
 N7 N 0.53847 0.14142 -0.03011
 N8 N 0.59095 0.16992 -0.05349
 C9 C 0.62334 0.19072 -0.00069
 C10 C 0.32283 0.16251 -0.00484
 N11 N 0.44558 -0.05196 -0.12673
 N12 N 0.40492 -0.08702 -0.16193
 N13 N 0.56252 0.04342 -0.12569
 N14 N 0.60146 0.07838 -0.16295
 N15 N 0.57822 -0.01919 -0.12538
 N16 N 0.63075 -0.03065 -0.16699
 N17 N 0.42979 0.01048 -0.12802
 N18 N 0.37812 0.01982 -0.16483
 Mn19 Mn 0.48360 0.07647 -0.07899
 C20 C 0.36324 -0.04176 -0.18530
 C21 C 0.64371 0.03518 -0.18862
 N22 N 0.42444 0.01628 0.13306
 N23 N 0.37104 0.02686 0.16719
 N24 N 0.57261 -0.01512 0.13754
 N25 N 0.62463 -0.02416 0.17459
 N26 N 0.55728 0.04766 0.13388
 N27 N 0.60097 0.08623 0.16813
 N28 N 0.43935 -0.04656 0.13384
 N29 N 0.39637 -0.08041 0.16735
 Mn30 Mn 0.48097 0.08066 0.08364
 C31 C 0.35427 -0.03428 0.18791
 C32 C 0.64294 0.03731 0.19349
 N33 N 0.59825 -0.11454 -0.02348
 N34 N 0.65021 -0.14464 -0.04542
 N35 N 0.46149 -0.14608 0.03727
 N36 N 0.40777 -0.17662 0.05676
 N37 N 0.46513 -0.14682 -0.02636
 N38 N 0.41455 -0.17757 -0.05106
 N39 N 0.59609 -0.11689 0.04008
 N40 N 0.64620 -0.15025 0.06295
 Mn41 Mn 0.52226 -0.08363 -0.07566
 Mn42 Mn 0.51771 -0.08181 0.08787
 Cl43 Cl 0.50121 -0.00212 0.00429
 C44 C 0.67992 -0.16606 0.00878
 C45 C 0.37982 -0.19717 0.00082
 N46 N 0.13837 0.44598 0.03068
 N47 N 0.16690 0.39086 0.04961
 N48 N 0.11704 0.58568 -0.03021
 N49 N 0.15140 0.63479 -0.05411
 N50 N 0.12214 0.58380 0.03328
 N51 N 0.16148 0.63120 0.05385
 N52 N 0.13602 0.44870 -0.03301
 N53 N 0.16241 0.39584 -0.05842
 C54 C 0.18239 0.36082 -0.00685
 C55 C 0.17838 0.66310 -0.00141
 N56 N -0.04686 0.56139 -0.12351
 N57 N -0.08046 0.60434 -0.15713
 N58 N 0.03621 0.43531 -0.12936
 N59 N 0.06485 0.38624 -0.16018
 N60 N -0.02645 0.42448 -0.12484
 N61 N -0.04206 0.36749 -0.15107
 N62 N 0.01588 0.57254 -0.12718
 N63 N 0.02862 0.62641 -0.16786
 Mn64 Mn 0.07691 0.51101 -0.08030
 C65 C -0.03651 0.64477 -0.18456
 C66 C 0.01511 0.34464 -0.17356
 N67 N 0.02426 0.56888 0.13509
 N68 N 0.03792 0.62446 0.16602
 N69 N -0.02006 0.42109 0.13263
 N70 N -0.03447 0.36423 0.15997
 N71 N 0.04304 0.43129 0.13320
 N72 N 0.07301 0.38204 0.16234
 N73 N -0.03871 0.55792 0.13568
 N74 N -0.06933 0.60536 0.16598
 Mn75 Mn 0.08272 0.50775 0.08388
 C76 C -0.02145 0.64616 0.18500
 C77 C 0.02386 0.34093 0.17891
 N78 N -0.12090 0.40921 -0.02523
 N79 N -0.15404 0.35934 -0.04896
 N80 N -0.13932 0.54695 0.04026
 N81 N -0.16553 0.60205 0.06235
 N82 N -0.14037 0.54627 -0.02334
 N83 N -0.16670 0.60057 -0.04577
 N84 N -0.12258 0.40894 0.03817
 N85 N -0.15843 0.35912 0.05951
 Mn86 Mn -0.08384 0.48508 -0.07443
 Mn87 Mn -0.08050 0.48353 0.08742
 Cl88 Cl -0.00104 0.49701 0.00421
 C89 C -0.17673 0.32829 0.00416
 C90 C -0.18339 0.63426 0.00780
 N91 N 0.06208 0.12382 0.43593
 N92 N 0.09013 0.14686 0.38270
 N93 N -0.00383 0.13678 0.57077
 N94 N -0.02257 0.16876 0.62284
 N95 N 0.05863 0.12417 0.57316
 N96 N 0.08411 0.14789 0.62727
 N97 N -0.00041 0.13633 0.43506
 N98 N -0.01662 0.16764 0.38176
 C99 C 0.04019 0.17496 0.35017
 C100 C 0.03268 0.17640 0.65699
 N101 N -0.13657 -0.00141 0.56883
 N102 N -0.17840 -0.01421 0.61604
 N103 N -0.11807 0.06077 0.43224
 N104 N -0.14816 0.09209 0.38535
 N105 N -0.13336 -0.00198 0.43176
 N106 N -0.17447 -0.01512 0.38412
 N107 N -0.12170 0.06145 0.56790
 N108 N -0.15316 0.09326 0.61355
 Mn109 Mn -0.06111 0.09932 0.50148
 C110 C -0.18801 0.04570 0.64345
 C111 C -0.18282 0.04433 0.35549
 N112 N 0.13375 0.00362 0.57519
 N113 N 0.17610 0.01562 0.62201
 N114 N 0.12143 -0.05931 0.43896
 N115 N 0.14925 -0.09001 0.39026
 N116 N 0.13677 0.00353 0.43862
 N117 N 0.17584 0.01717 0.38947
 N118 N 0.11791 -0.05910 0.57454
 N119 N 0.14851 -0.09126 0.62048
 Mn120 Mn 0.09874 0.06449 0.50579
 C121 C 0.18414 -0.04427 0.65001
 C122 C 0.18293 -0.04192 0.35988
 N123 N -0.05819 -0.12081 0.43407
 N124 N -0.08548 -0.14672 0.38225
 N125 N 0.00002 -0.13500 0.57254
 N126 N 0.01223 -0.17552 0.62117
 N127 N -0.06202 -0.12074 0.57027
 N128 N -0.09377 -0.15093 0.61704
 N129 N 0.00378 -0.13545 0.43620
 N130 N 0.02027 -0.17232 0.38622
 Mn131 Mn -0.09818 -0.06182 0.50123
 Mn132 Mn 0.06121 -0.09776 0.50563
 Cl133 Cl 0.00020 0.00108 0.50359
 C134 C -0.03601 -0.17883 0.35314
 C135 C -0.04697 -0.18473 0.64845
 N136 N -0.21630 0.22963 -0.05184
 N137 N -0.27009 0.19450 -0.05418
 C138 C -0.30886 0.21254 -0.00489
 C139 C -0.27787 0.26077 0.03157
 C140 C -0.21945 0.27076 -0.00091
 H141 H -0.29820 0.28997 0.07035
 H142 H -0.18004 0.22845 -0.08721
 H143 H -0.28129 0.16116 -0.09106
 N144 N 0.22293 0.75969 -0.05819
 N145 N 0.27618 0.79578 -0.05786
 C146 C 0.31260 0.77899 -0.00642
 C147 C 0.28033 0.73024 0.02869
 C148 C 0.22378 0.71894 -0.00686
 H149 H 0.29850 0.70229 0.06939
 H150 H 0.18820 0.76076 -0.09502
 H151 H 0.28853 0.82953 -0.09404
 N152 N 0.19198 0.25629 -0.06605
 N153 N 0.22817 0.20305 -0.06487
 C154 C 0.26583 0.20474 -0.01170
 C155 C 0.25232 0.26142 0.02348
 C156 C 0.20583 0.29316 -0.01370
 H157 H 0.27817 0.28060 0.06504
 H158 H 0.16079 0.26864 -0.10401
 H159 H 0.22991 0.16834 -0.10214
 N160 N -0.18399 0.74311 -0.04419
 N161 N -0.21949 0.79685 -0.04323
 C162 C -0.26207 0.79264 0.00602
 C163 C -0.25265 0.73365 0.03885
 C164 C -0.20320 0.70337 0.00438
 H165 H -0.28319 0.71204 0.07592
 H166 H -0.14999 0.73219 -0.08014
 H167 H -0.21769 0.83347 -0.07874
 N168 N -0.09851 -0.21661 0.25813
 N169 N -0.09391 -0.26227 0.21310
 C170 C -0.03586 -0.29206 0.21845
 C171 C -0.00135 -0.26371 0.26891
 C172 C -0.04363 -0.21668 0.29330
 H173 H 0.04449 -0.27948 0.28908
 H174 H -0.13984 -0.18818 0.26631
 H175 H -0.13138 -0.27492 0.18131
 N176 N -0.01100 0.18276 0.76720
 N177 N -0.01740 0.22875 0.81172
 C178 C 0.02158 0.27970 0.79644
 C179 C 0.05512 0.26525 0.73996
 C180 C 0.03234 0.20329 0.72265
 H181 H 0.08364 0.29881 0.71068
 H182 H -0.04020 0.14069 0.76435
 H183 H -0.05148 0.22711 0.84919
 N184 N 0.00270 0.17803 0.23762
 N185 N -0.00379 0.22351 0.19254
 C186 C 0.03202 0.27630 0.20921
 C187 C 0.06330 0.26372 0.26737
 C188 C 0.04280 0.20077 0.28406
 H189 H 0.08843 0.29887 0.29784
 H190 H -0.02478 0.13472 0.23952
 H191 H -0.03604 0.22018 0.15364
 N192 N -0.12120 -0.23780 0.72128
 N193 N -0.11817 -0.28688 0.76799
 C194 C -0.05545 -0.30397 0.77509
 C195 C -0.01686 -0.26638 0.73374
 C196 C -0.06038 -0.22657 0.70007
 H197 H 0.03503 -0.27018 0.72643
 H198 H -0.16408 -0.21670 0.70423
 H199 H -0.15847 -0.30712 0.79157
 N200 N 0.24048 -0.12210 0.72209
 N201 N 0.28802 -0.12167 0.76471
 C202 C 0.30833 -0.05925 0.77305
 C203 C 0.27217 -0.01765 0.73390
 C204 C 0.22994 -0.06000 0.70201
 H205 H 0.27767 0.03496 0.72753
 H206 H 0.21700 -0.16467 0.70585
 H207 H 0.30687 -0.16378 0.78666
 N208 N -0.23538 0.11971 0.28383
 N209 N -0.28548 0.11764 0.23901
 C210 C -0.30432 0.05446 0.23223
 C211 C -0.26676 0.01444 0.27224
 C212 C -0.22520 0.05789 0.30473
 H213 H -0.27180 -0.03806 0.27975
 H214 H -0.21302 0.16284 0.30021
 H215 H -0.30509 0.15898 0.21627
 N216 N 0.22799 -0.11462 0.27560
 N217 N 0.27300 -0.11253 0.23029
 C218 C 0.29748 -0.05108 0.22736
 C219 C 0.26650 -0.01179 0.27272
 C220 C 0.22325 -0.05465 0.30279
 H221 H 0.27712 0.03886 0.28515
 H222 H 0.20270 -0.15717 0.28904
 H223 H 0.28793 -0.15319 0.20325
 N224 N -0.24418 0.12161 0.71221
 N225 N -0.29292 0.11874 0.75866
 C226 C -0.30753 0.05490 0.76881
 C227 C -0.26916 0.01547 0.72911
 C228 C -0.23098 0.05956 0.69370
 H229 H -0.27072 -0.03760 0.72466
 H230 H -0.22436 0.16512 0.69364
 H231 H -0.31389 0.15973 0.78074
   
