data_POSCAR
  _audit_creation_date              2014-09-24
  _audit_creation_method            'ToBaCCo'
  _symmetry_space_group_name_H-M    'P1'
  _symmetry_Int_Tables_number       1
  _symmetry_cell_setting            triclinic
  loop_
  _symmetry_equiv_pos_as_xyz
 x,y,z
_cell_length_a 34.6443
_cell_length_b 34.3160
_cell_length_c 34.6713
_cell_angle_alpha 73.279700
_cell_angle_beta 80.996100
_cell_angle_gamma 106.083700
loop_
  _atom_site_label
  _atom_site_type_symbol
  _atom_site_fract_x
  _atom_site_fract_y
  _atom_site_fract_z
C1 C 0.58848 0.54467 -0.00687
 C2 C 0.58233 0.58278 -0.00441
 C3 C 0.54281 0.58684 0.00219
 C4 C 0.50807 0.55259 0.00257
 C5 C 0.51354 0.51445 -0.00186
 C6 C 0.55366 0.51027 -0.00626
 C7 C 0.55822 0.47304 -0.01289
 C8 C 0.52422 0.43933 -0.01155
 C9 C 0.48433 0.44250 -0.00697
 C10 C 0.47888 0.48070 -0.00291
 C11 C 0.46841 0.55641 0.00474
 C12 C 0.43446 0.52280 0.00585
 C13 C 0.43888 0.48511 0.00043
 C14 C 0.40422 0.45079 0.00037
 C15 C 0.41046 0.41250 -0.00142
 C16 C 0.44974 0.40828 -0.00607
 H17 H 0.58825 0.46949 -0.01992
 H18 H 0.52997 0.41086 -0.01464
 H19 H 0.46278 0.58571 0.00512
 H20 H 0.40464 0.52708 0.01136
 H21 H 0.60835 0.60830 -0.00320
 H22 H 0.38481 0.38622 -0.00205
 C23 C -0.00640 0.59149 0.44910
 C24 C -0.00298 0.58680 0.41010
 C25 C 0.00002 0.54883 0.40397
 C26 C 0.00200 0.51516 0.43848
 C27 C -0.00088 0.51981 0.47828
 C28 C -0.00537 0.55792 0.48359
 C29 C -0.00767 0.56196 0.52308
 C30 C -0.00672 0.52897 0.55695
 C31 C -0.00136 0.49128 0.55249
 C32 C 0.00172 0.48668 0.51276
 C33 C 0.00967 0.47832 0.43392
 C34 C 0.01087 0.44544 0.46776
 C35 C 0.00735 0.44900 0.50743
 C36 C 0.00921 0.41585 0.54193
 C37 C 0.00524 0.42056 0.58097
 C38 C 0.00051 0.45784 0.58678
 H39 H -0.01005 0.59081 0.52841
 H40 H -0.01007 0.53361 0.58667
 H41 H 0.01578 0.47453 0.40396
 H42 H 0.01498 0.41731 0.46211
 H43 H -0.00514 0.61255 0.38459
 H44 H 0.00681 0.39508 0.60717
 C45 C 0.53257 0.00941 0.58124
 C46 C 0.56937 0.00100 0.57011
 C47 C 0.58048 -0.00724 0.53331
 C48 C 0.55253 -0.00924 0.50747
 C49 C 0.51622 0.00132 0.51696
 C50 C 0.50669 0.01169 0.55327
 C51 C 0.47301 0.02664 0.55920
 C52 C 0.44684 0.02702 0.53269
 C53 C 0.45362 0.01319 0.49868
 C54 C 0.48930 0.00151 0.48995
 C55 C 0.55850 -0.02407 0.47385
 C56 C 0.53208 -0.02407 0.44761
 C57 C 0.49810 -0.00998 0.45427
 C58 C 0.47196 -0.00826 0.42681
 C59 C 0.43616 0.00189 0.43664
 C60 C 0.42625 0.01185 0.47246
 H61 H 0.46691 0.03910 0.58396
 H62 H 0.42154 0.03892 0.53884
 H63 H 0.58325 -0.03671 0.46785
 H64 H 0.53828 -0.03588 0.42235
 H65 H 0.58994 0.00086 0.59067
 H66 H 0.41559 0.00200 0.41604
 O67 O 0.46813 -0.01067 -0.04276
 O68 O 0.46120 -0.03591 0.06910
 O69 O 0.45271 0.02630 0.01134
 O70 O 0.47647 -0.07279 0.01572
 O71 O 0.54349 -0.03616 0.00068
 O72 O 0.51976 0.06307 -0.00418
 O73 O 0.52810 0.00102 0.05435
 O74 O 0.53509 0.02588 -0.05720
 Cu75 Cu 0.45787 -0.02690 0.01473
 Cu76 Cu 0.53834 0.01711 -0.00298
 C77 C 0.50289 0.01170 -0.06911
 C78 C 0.49348 -0.02155 0.08084
 C79 C 0.48219 0.06161 0.00291
 C80 C 0.51402 -0.07143 0.00889
 O81 O -0.04340 0.53690 0.98785
 O82 O 0.06270 0.53244 0.98176
 O83 O 0.01381 0.53291 0.93187
 O84 O 0.00604 0.53700 1.03792
 O85 O -0.01994 0.46575 1.06435
 O86 O -0.01276 0.46166 0.95817
 O87 O 0.03673 0.46119 1.00816
 O88 O -0.06930 0.46567 1.01472
 Cu89 Cu 0.01231 0.54189 0.98230
 Cu90 Cu -0.01885 0.45649 1.01395
 C91 C -0.07453 0.50202 1.00225
 C92 C 0.06789 0.49603 0.99389
 C93 C 0.00177 0.49663 0.92683
 C94 C -0.00813 0.50211 1.06931
 O95 O 0.01001 -0.02679 0.45115
 O96 O 0.01359 0.07205 0.47449
 O97 O 0.06726 0.03522 0.45951
 O98 O -0.04443 0.01006 0.46664
 O99 O -0.05860 -0.02702 0.53376
 O100 O 0.05275 -0.00180 0.52668
 O101 O -0.00156 0.03503 0.54177
 O102 O -0.00501 -0.06381 0.51840
 Cu103 Cu 0.01297 0.02628 0.45615
 Cu104 Cu -0.00445 -0.01811 0.53691
 C105 C 0.00194 -0.06219 0.48079
 C106 C 0.00653 0.07043 0.51210
 C107 C 0.07908 0.02093 0.49195
 C108 C -0.07062 -0.01257 0.50152
 C109 C -0.33549 0.57783 0.96644
 C110 C -0.29549 0.57635 0.96595
 C111 C -0.28969 0.53951 0.99094
 C112 C -0.32467 0.50406 1.01708
 C113 C -0.36479 0.50555 1.01783
 C114 C -0.37100 0.54213 0.99181
 N115 N -0.24809 0.53927 0.98935
 N116 N -0.24028 0.50595 1.00891
 C117 C -0.19858 0.50599 1.00720
 C118 C -0.19234 0.46716 1.02638
 C119 C -0.15212 0.46585 1.02485
 C120 C -0.11721 0.50361 1.00431
 C121 C -0.12356 0.54271 0.98541
 C122 C -0.16384 0.54389 0.98669
 H123 H -0.33861 0.60670 0.94603
 H124 H -0.26883 0.60400 0.94579
 H125 H -0.32101 0.47547 1.03734
 H126 H -0.39094 0.47845 1.03971
 H127 H -0.21878 0.43772 1.04234
 H128 H -0.14840 0.43522 1.03982
 H129 H -0.09739 0.57236 0.96929
 H130 H -0.16778 0.57437 0.97170
 C131 C 0.32818 0.41783 1.02666
 C132 C 0.28825 0.41957 1.02721
 C133 C 0.28263 0.45648 1.00214
 C134 C 0.31768 0.49161 0.97564
 C135 C 0.35772 0.48983 0.97479
 C136 C 0.36378 0.45334 1.00116
 N137 N 0.24112 0.45719 1.00418
 N138 N 0.23348 0.49080 0.98510
 C139 C 0.19182 0.49117 0.98740
 C140 C 0.18574 0.53024 0.96882
 C141 C 0.14556 0.53189 0.97093
 C142 C 0.11054 0.49423 0.99147
 C143 C 0.11674 0.45491 1.00981
 C144 C 0.15696 0.45339 1.00794
 H145 H 0.33117 0.38900 1.04729
 H146 H 0.26152 0.39213 1.04760
 H147 H 0.31414 0.52020 0.95526
 H148 H 0.38394 0.51670 0.95272
 H149 H 0.21227 0.55960 0.95285
 H150 H 0.14194 0.56268 0.95637
 H151 H 0.09050 0.42532 1.02589
 H152 H 0.16077 0.42272 1.02250
 C153 C -0.04697 -0.36884 0.47877
 C154 C -0.05024 -0.33071 0.48357
 C155 C -0.01849 -0.29103 0.46133
 C156 C 0.01652 -0.28974 0.43363
 C157 C 0.02012 -0.32796 0.42933
 C158 C -0.01121 -0.36788 0.45251
 N159 N -0.02165 -0.25297 0.46881
 N160 N 0.00250 -0.21516 0.44549
 C161 C 0.00062 -0.17739 0.45441
 C162 C 0.02154 -0.13659 0.42368
 C163 C 0.02135 -0.09907 0.43194
 C164 C 0.00089 -0.10183 0.47150
 C165 C -0.02003 -0.14284 0.50234
 C166 C -0.02046 -0.18034 0.49379
 H167 H -0.07181 -0.39926 0.49629
 H168 H -0.07742 -0.33210 0.50490
 H169 H 0.04149 -0.25944 0.41616
 H170 H 0.04772 -0.32656 0.40858
 H171 H 0.03808 -0.13390 0.39329
 H172 H 0.03790 -0.06790 0.40766
 H173 H -0.03616 -0.14594 0.53305
 H174 H -0.03659 -0.21153 0.51815
 C175 C 0.05107 0.37701 0.51266
 C176 C 0.05520 0.33907 0.50813
 C177 C 0.02387 0.29909 0.53038
 C178 C -0.01160 0.29733 0.55779
 C179 C -0.01606 0.33534 0.56180
 C180 C 0.01487 0.37554 0.53864
 N181 N 0.02787 0.26117 0.52321
 N182 N 0.00415 0.22325 0.54669
 C183 C 0.00674 0.18554 0.53806
 C184 C -0.01395 0.14477 0.56888
 C185 C -0.01330 0.10727 0.56081
 C186 C 0.00738 0.11005 0.52133
 C187 C 0.02816 0.15105 0.49043
 C188 C 0.02813 0.18852 0.49880
 H189 H 0.07562 0.40767 0.49518
 H190 H 0.08271 0.34082 0.48702
 H191 H -0.03627 0.26680 0.57525
 H192 H -0.04398 0.33355 0.58235
 H193 H -0.03072 0.14207 0.59918
 H194 H -0.02975 0.07610 0.58512
 H195 H 0.04445 0.15414 0.45979
 H196 H 0.04408 0.21969 0.47438
 C197 C 0.48235 -0.00875 -0.35230
 C198 C 0.47351 -0.00712 -0.31219
 C199 C 0.50443 0.01670 -0.29827
 C200 C 0.54430 0.03971 -0.32520
 C201 C 0.55326 0.03804 -0.36518
 C202 C 0.52244 0.01380 -0.37945
 N203 N 0.49550 0.01497 -0.25600
 N204 N 0.52305 0.03517 -0.24169
 C205 C 0.51579 0.03197 -0.19901
 C206 C 0.54865 0.05329 -0.18553
 C207 C 0.54411 0.04763 -0.14340
 C208 C 0.50637 0.02051 -0.11401
 C209 C 0.47285 0.00035 -0.12783
 C210 C 0.47754 0.00593 -0.17004
 H211 H 0.45828 -0.02926 -0.36137
 H212 H 0.44282 -0.02548 -0.29147
 H213 H 0.56880 0.05836 -0.31514
 H214 H 0.58432 0.05623 -0.38517
 H215 H 0.57826 0.07339 -0.20764
 H216 H 0.57044 0.06378 -0.13377
 H217 H 0.44340 -0.02068 -0.10592
 H218 H 0.45168 -0.01086 -0.17984
 C219 C 0.51893 0.01222 0.35640
 C220 C 0.52660 0.00874 0.31703
 C221 C 0.49709 -0.02127 0.30710
 C222 C 0.46022 -0.04899 0.33750
 C223 C 0.45266 -0.04577 0.37700
 C224 C 0.48180 -0.01487 0.38659
 N225 N 0.50404 -0.02081 0.26523
 N226 N 0.47654 -0.04379 0.25291
 C227 C 0.48277 -0.04121 0.21039
 C228 C 0.44953 -0.06309 0.19769
 C229 C 0.45324 -0.05761 0.15562
 C230 C 0.49052 -0.03024 0.12563
 C231 C 0.52441 -0.00965 0.13872
 C232 C 0.52054 -0.01496 0.18074
 H233 H 0.54143 0.03676 0.36304
 H234 H 0.55496 0.03046 0.29371
 H235 H 0.43692 -0.07240 0.33045
 H236 H 0.42374 -0.06674 0.39986
 H237 H 0.42027 -0.08337 0.22030
 H238 H 0.42666 -0.07409 0.14650
 H239 H 0.55356 0.01155 0.11638
 H240 H 0.54674 0.00222 0.18987
 C241 C 0.50845 -0.37820 0.04282
 C242 C 0.50408 -0.34082 0.04850
 C243 C 0.53126 -0.29998 0.02199
 C244 C 0.56391 -0.29686 -0.00967
 C245 C 0.56810 -0.33421 -0.01567
 C246 C 0.53940 -0.37547 0.00947
 N247 N 0.52383 -0.26233 0.02659
 N248 N 0.54935 -0.22426 0.00635
 C249 C 0.54047 -0.18670 0.00931
 C250 C 0.57193 -0.14621 -0.00879
 C251 C 0.56365 -0.10873 -0.00817
 C252 C 0.52342 -0.11117 0.01004
 C253 C 0.49194 -0.15193 0.02845
 C254 C 0.50042 -0.18941 0.02832
 H255 H 0.48748 -0.40937 0.06455
 H256 H 0.47920 -0.34366 0.07346
 H257 H 0.58544 -0.26558 -0.03049
 H258 H 0.59269 -0.33062 -0.04133
 H259 H 0.60287 -0.14369 -0.02371
 H260 H 0.58848 -0.07777 -0.02274
 H261 H 0.46069 -0.15485 0.04283
 H262 H 0.47550 -0.22033 0.04230
 C263 C 0.47792 0.36827 -0.04714
 C264 C 0.48272 0.33011 -0.05035
 C265 C 0.46204 0.29063 -0.01764
 C266 C 0.43599 0.28958 0.01836
 C267 C 0.43176 0.32786 0.02188
 C268 C 0.45334 0.36759 -0.01050
 N269 N 0.46939 0.25252 -0.02096
 N270 N 0.44675 0.21475 0.00389
 C271 C 0.45561 0.17694 0.00178
 C272 C 0.42527 0.13618 0.02337
 C273 C 0.43354 0.09863 0.02301
 C274 C 0.47276 0.10131 0.00176
 C275 C 0.50320 0.14227 -0.01986
 C276 C 0.49461 0.17981 -0.02015
 H277 H 0.49412 0.39852 -0.07279
 H278 H 0.50275 0.33130 -0.07828
 H279 H 0.41975 0.25943 0.04408
 H280 H 0.41226 0.32666 0.05016
 H281 H 0.39517 0.13355 0.04056
 H282 H 0.40958 0.06747 0.04013
 H283 H 0.53365 0.14529 -0.03659
 H284 H 0.51868 0.21097 -0.03679
 C285 C -0.35332 0.01097 0.48279
 C286 C -0.31335 0.00897 0.47370
 C287 C -0.29932 -0.01536 0.50455
 C288 C -0.32595 -0.03838 0.54466
 C289 C -0.36580 -0.03633 0.55388
 C290 C -0.38022 -0.01172 0.52307
 N291 N -0.25722 -0.01413 0.49531
 N292 N -0.24287 -0.03506 0.52266
 C293 C -0.20031 -0.03229 0.51505
 C294 C -0.18668 -0.05427 0.54775
 C295 C -0.14460 -0.04886 0.54295
 C296 C -0.11544 -0.02133 0.50513
 C297 C -0.12944 -0.00058 0.47172
 C298 C -0.17159 -0.00591 0.47666
 H299 H -0.36253 0.03176 0.45873
 H300 H -0.29284 0.02736 0.44284
 H301 H -0.31576 -0.05737 0.56912
 H302 H -0.38559 -0.05459 0.58509
 H303 H -0.20861 -0.07464 0.57745
 H304 H -0.13483 -0.06548 0.56920
 H305 H -0.10771 0.02078 0.44220
 H306 H -0.18152 0.01139 0.45092
 C307 C 0.35597 -0.00881 0.51959
 C308 C 0.31641 -0.00562 0.52712
 C309 C 0.30611 0.02424 0.49730
 C310 C 0.33634 0.05223 0.46033
 C311 C 0.37603 0.04931 0.45293
 C312 C 0.38596 0.01845 0.48231
 N313 N 0.26405 0.02321 0.50393
 N314 N 0.25139 0.04568 0.47597
 C315 C 0.20871 0.04241 0.48188
 C316 C 0.19576 0.06378 0.44823
 C317 C 0.15363 0.05762 0.45168
 C318 C 0.12383 0.03007 0.48911
 C319 C 0.13713 0.00994 0.52336
 C320 C 0.17921 0.01594 0.51976
 H321 H 0.36288 -0.03333 0.54228
 H322 H 0.29323 -0.02753 0.55554
 H323 H 0.32900 0.07554 0.43681
 H324 H 0.39874 0.07042 0.42390
 H325 H 0.21827 0.08420 0.41889
 H326 H 0.14435 0.07375 0.42483
 H327 H 0.11494 -0.01136 0.55263
 H328 H 0.18853 -0.00086 0.54626
 C329 C 0.02389 0.58192 1.32757
 C330 C 0.02394 0.57985 1.28789
 C331 C 0.00021 0.54217 1.28309
 C332 C -0.02442 0.50652 1.31874
 C333 C -0.02474 0.50860 1.35858
 C334 C 0.00026 0.54599 1.36376
 N335 N 0.00173 0.54124 1.24176
 N336 N -0.01645 0.50728 1.23465
 C337 C -0.01449 0.50688 1.19308
 C338 C -0.03225 0.46768 1.18738
 C339 C -0.03027 0.46605 1.14725
 C340 C -0.01067 0.50385 1.11193
 C341 C 0.00680 0.54328 1.11777
 C342 C 0.00504 0.54479 1.15792
 H343 H 0.04353 0.61139 1.32986
 H344 H 0.04291 0.60766 1.26068
 H345 H -0.04372 0.47727 1.31585
 H346 H -0.04536 0.48120 1.38533
 H347 H -0.04742 0.43822 1.21415
 H348 H -0.04413 0.43518 1.14390
 H349 H 0.02216 0.57297 1.09129
 H350 H 0.01895 0.57555 1.16142
 C351 C -0.03395 0.42846 0.66327
 C352 C -0.03606 0.42949 0.70357
 C353 C -0.00679 0.46229 0.71065
 C354 C 0.02513 0.49403 0.67674
 C355 C 0.02754 0.49273 0.63644
 C356 C -0.00234 0.46026 0.62927
 N357 N -0.00999 0.46229 0.75243
 N358 N 0.01245 0.49355 0.76070
 C359 C 0.00945 0.49333 0.80254
 C360 C 0.03070 0.53116 0.80883
 C361 C 0.02813 0.53228 0.84915
 C362 C 0.00462 0.49523 0.88411
 C363 C -0.01632 0.45707 0.87774
 C364 C -0.01413 0.45616 0.83733
 H365 H -0.05699 0.40281 0.65853
 H366 H -0.06067 0.40471 0.72939
 H367 H 0.04840 0.51948 0.68144
 H368 H 0.05273 0.51699 0.61081
 H369 H 0.04906 0.55999 0.78234
 H370 H 0.04476 0.56213 0.85295
 H371 H -0.03474 0.42802 0.90399
 H372 H -0.03071 0.42644 0.83332
   
