data_POSCAR
  _audit_creation_date              2014-09-24
  _audit_creation_method            'ToBaCCo'
  _symmetry_space_group_name_H-M    'P1'
  _symmetry_Int_Tables_number       1
  _symmetry_cell_setting            triclinic
  loop_
  _symmetry_equiv_pos_as_xyz
 x,y,z
_cell_length_a 59.4417
_cell_length_b 59.4497
_cell_length_c 58.9524
_cell_angle_alpha 89.939300
_cell_angle_beta 89.998000
_cell_angle_gamma 89.979700
loop_
  _atom_site_label
  _atom_site_type_symbol
  _atom_site_fract_x
  _atom_site_fract_y
  _atom_site_fract_z
N1 N 0.15328 0.16959 0.21351
 N2 N 0.16953 0.15464 0.21417
 C3 C 0.16602 0.14068 0.23183
 C4 C 0.14646 0.14723 0.24299
 C5 C 0.13893 0.16573 0.23072
 H6 H 0.17695 0.12682 0.23614
 H7 H 0.12406 0.17568 0.23386
 Cu8 Cu 0.19365 0.15461 0.19179
 Cu9 Cu 0.15179 0.19290 0.19038
 Cu10 Cu 0.19322 0.19247 0.14917
 N11 N 0.21622 0.15420 0.16782
 N12 N 0.21591 0.16896 0.15125
 C13 C 0.23314 0.16481 0.13707
 C14 C 0.24506 0.14632 0.14507
 C15 C 0.23367 0.14008 0.16471
 H16 H 0.23655 0.17458 0.12201
 H17 H 0.23767 0.12631 0.17596
 N18 N 0.16891 0.21496 0.14992
 N19 N 0.15313 0.21513 0.16564
 C20 C 0.13916 0.23253 0.16172
 C21 C 0.14643 0.24396 0.14256
 C22 C 0.16538 0.23225 0.13558
 H23 H 0.12479 0.23658 0.17215
 H24 H 0.17594 0.23605 0.12118
 H25 H 0.16848 0.17436 0.16590
 H26 H 0.18578 0.19408 0.18335
 N27 N -0.15089 0.83194 0.21407
 N28 N -0.16588 0.84816 0.21362
 C29 C -0.16195 0.86227 0.23103
 C30 C -0.14345 0.85451 0.24309
 C31 C -0.13692 0.83517 0.23172
 H32 H -0.17180 0.87713 0.23458
 H33 H -0.12309 0.82415 0.23595
 Cu34 Cu -0.18918 0.84930 0.19040
 Cu35 Cu -0.15051 0.80787 0.19175
 Cu36 Cu -0.19251 0.80834 0.15107
 N37 N -0.21315 0.84871 0.16787
 N38 N -0.21440 0.83267 0.15263
 C39 C -0.23245 0.83626 0.13934
 C40 C -0.24330 0.85571 0.14656
 C41 C -0.23042 0.86308 0.16480
 H42 H -0.23717 0.82543 0.12544
 H43 H -0.23331 0.87775 0.17516
 N44 N -0.16885 0.78513 0.15225
 N45 N -0.15287 0.78497 0.16777
 C46 C -0.13927 0.76724 0.16407
 C47 C -0.14699 0.75556 0.14528
 C48 C -0.16582 0.76748 0.13827
 H49 H -0.12475 0.76323 0.17430
 H50 H -0.17652 0.76368 0.12398
 H51 H -0.16614 0.82549 0.16594
 H52 H -0.18471 0.80886 0.18527
 N53 N -0.15400 0.16758 -0.21375
 N54 N -0.17026 0.15265 -0.21441
 C55 C -0.16669 0.13865 -0.23199
 C56 C -0.14715 0.14518 -0.24304
 C57 C -0.13959 0.16365 -0.23090
 H58 H -0.17756 0.12477 -0.23640
 H59 H -0.12462 0.17346 -0.23412
 Cu60 Cu -0.19444 0.15258 -0.19209
 Cu61 Cu -0.15279 0.19105 -0.19080
 Cu62 Cu -0.19455 0.19075 -0.14986
 N63 N -0.21704 0.15211 -0.16816
 N64 N -0.21701 0.16704 -0.15177
 C65 C -0.23424 0.16279 -0.13760
 C66 C -0.24583 0.14402 -0.14541
 C67 C -0.23425 0.13774 -0.16491
 H68 H -0.23785 0.17268 -0.12268
 H69 H -0.23794 0.12374 -0.17597
 N70 N -0.17039 0.21342 -0.15073
 N71 N -0.15443 0.21347 -0.16626
 C72 C -0.14062 0.23102 -0.16244
 C73 C -0.14823 0.24268 -0.14357
 C74 C -0.16716 0.23093 -0.13662
 H75 H -0.12617 0.23505 -0.17277
 H76 H -0.17793 0.23487 -0.12243
 H77 H -0.16959 0.17267 -0.16623
 H78 H -0.18687 0.19215 -0.18405
 N79 N 0.15444 0.83275 -0.21429
 N80 N 0.17080 0.84758 -0.21391
 C81 C 0.16800 0.86209 -0.23126
 C82 C 0.14882 0.85604 -0.24321
 C83 C 0.14070 0.83728 -0.23185
 H84 H 0.17911 0.87601 -0.23488
 H85 H 0.12584 0.82764 -0.23588
 Cu86 Cu 0.19410 0.84656 -0.19069
 Cu87 Cu 0.15207 0.80866 -0.19204
 Cu88 Cu 0.19271 0.80692 -0.14992
 N89 N 0.21642 0.84569 -0.16649
 N90 N 0.21579 0.83016 -0.15065
 C91 C 0.23293 0.83345 -0.13611
 C92 C 0.24512 0.85218 -0.14312
 C93 C 0.23399 0.85944 -0.16255
 H94 H 0.23609 0.82295 -0.12150
 H95 H 0.23821 0.87370 -0.17308
 N96 N 0.16802 0.78488 -0.15203
 N97 N 0.15254 0.78555 -0.16804
 C98 C 0.13817 0.76830 -0.16499
 C99 C 0.14487 0.75609 -0.14611
 C100 C 0.16389 0.76718 -0.13837
 H101 H 0.12390 0.76490 -0.17579
 H102 H 0.17407 0.76273 -0.12388
 H103 H 0.16833 0.82574 -0.16629
 H104 H 0.18591 0.80682 -0.18432
 N105 N 0.17028 1.15294 0.78671
 N106 N 0.15534 1.16920 0.78594
 C107 C 0.14162 1.16580 0.76810
 C108 C 0.14833 1.14634 0.75702
 C109 C 0.16661 1.13867 0.76942
 H110 H 0.12782 1.17672 0.76353
 H111 H 0.17649 1.12374 0.76627
 Cu112 Cu 0.15511 1.19317 0.80841
 Cu113 Cu 0.19342 1.15144 0.80996
 Cu114 Cu 0.19285 1.19305 0.85100
 N115 N 0.15460 1.21588 0.83216
 N116 N 0.16937 1.21570 0.84872
 C117 C 0.16519 1.23301 0.86277
 C118 C 0.14674 1.24479 0.85465
 C119 C 0.14048 1.23335 0.83514
 H120 H 0.17481 1.23655 0.87790
 H121 H 0.12669 1.23740 0.82393
 N122 N 0.21528 1.16871 0.85042
 N123 N 0.21546 1.15284 0.83482
 C124 C 0.23284 1.13887 0.83886
 C125 C 0.24424 1.14628 0.85795
 C126 C 0.23254 1.16527 0.86479
 H127 H 0.23691 1.12444 0.82854
 H128 H 0.23633 1.17592 0.87911
 H129 H 0.17494 1.16821 0.83441
 H130 H 0.19456 1.18552 0.81681
 N131 N 0.83128 0.84893 0.78527
 N132 N 0.84622 0.83267 0.78454
 C133 C 0.86036 0.83645 0.76710
 C134 C 0.85392 0.85614 0.75625
 C135 C 0.83535 0.86355 0.76834
 H136 H 0.87428 0.82563 0.76268
 H137 H 0.82557 0.87857 0.76526
 Cu138 Cu 0.84606 0.80829 0.80659
 Cu139 Cu 0.80779 0.85006 0.80815
 Cu140 Cu 0.80791 0.80809 0.84891
 N141 N 0.84626 0.78539 0.83019
 N142 N 0.83144 0.78546 0.84671
 C143 C 0.83554 0.76800 0.86064
 C144 C 0.85399 0.75625 0.85247
 C145 C 0.86033 0.76787 0.83309
 H146 H 0.82583 0.76430 0.87568
 H147 H 0.87413 0.76389 0.82187
 N148 N 0.78543 0.83242 0.84822
 N149 N 0.78537 0.84835 0.83264
 C150 C 0.76791 0.86224 0.83649
 C151 C 0.75631 0.85476 0.85543
 C152 C 0.76799 0.83578 0.86240
 H153 H 0.76394 0.87671 0.82615
 H154 H 0.76406 0.82508 0.87668
 H155 H 0.82606 0.83303 0.83265
 H156 H 0.80654 0.81590 0.81478
 N157 N 0.16730 0.84665 1.21351
 N158 N 0.15186 0.83085 1.21367
 C159 C 0.13781 0.83439 1.23121
 C160 C 0.14479 0.85347 1.24275
 C161 C 0.16361 0.86077 1.23094
 H162 H 0.12357 0.82384 1.23522
 H163 H 0.17391 0.87528 1.23461
 Cu164 Cu 0.15155 0.80729 1.19082
 Cu165 Cu 0.19105 0.84774 1.19077
 Cu166 Cu 0.19089 0.80580 1.14992
 N167 N 0.15161 0.78392 1.16778
 N168 N 0.16702 0.78346 1.15184
 C169 C 0.16315 0.76583 1.13810
 C170 C 0.14422 0.75452 1.14581
 C171 C 0.13738 0.76657 1.16473
 H172 H 0.17337 0.76170 1.12354
 H173 H 0.12307 0.76307 1.17546
 N174 N 0.21360 0.82990 1.15087
 N175 N 0.21364 0.84588 1.16637
 C176 C 0.23121 0.85966 1.16254
 C177 C 0.24287 0.85203 1.14369
 C178 C 0.23113 0.83310 1.13677
 H179 H 0.23519 0.87415 1.17280
 H180 H 0.23505 0.82235 1.12256
 H181 H 0.17326 0.83146 1.16555
 H182 H 0.19151 0.81363 1.18408
 N183 N 0.83275 1.15379 1.21440
 N184 N 0.84714 1.17054 1.21420
 C185 C 0.86168 1.16796 1.23153
 C186 C 0.85608 1.14853 1.24329
 C187 C 0.83759 1.14002 1.23184
 H188 H 0.87528 1.17941 1.23530
 H189 H 0.82836 1.12485 1.23571
 Cu190 Cu 0.84564 1.19402 1.19121
 Cu191 Cu 0.80879 1.15101 1.19217
 Cu192 Cu 0.80644 1.19148 1.14998
 N193 N 0.84449 1.21603 1.16680
 N194 N 0.82923 1.21492 1.15072
 C195 C 0.83244 1.23196 1.13603
 C196 C 0.85076 1.24451 1.14322
 C197 C 0.85794 1.23382 1.16285
 H198 H 0.82225 1.23482 1.12113
 H199 H 0.87193 1.23857 1.17350
 N200 N 0.78485 1.16646 1.15215
 N201 N 0.78575 1.15105 1.16823
 C202 C 0.76866 1.13648 1.16535
 C203 C 0.75630 1.14299 1.14652
 C204 C 0.76715 1.16209 1.13861
 H205 H 0.76543 1.12227 1.17629
 H206 H 0.76248 1.17220 1.12413
 H207 H 0.82583 1.16775 1.16659
 H208 H 0.80621 1.18486 1.18437
 O209 O 0.53158 0.95973 0.95997
 O210 O 0.55614 0.98013 0.98174
 C211 C 0.55178 0.96559 0.96597
 O212 O 0.46828 1.04001 0.96240
 O213 O 0.44369 1.01826 0.98283
 C214 C 0.44807 1.03408 0.96832
 O215 O 0.53157 1.03796 0.96019
 O216 O 0.55612 1.01778 0.98223
 C217 C 0.55178 1.03223 0.96633
 O218 O 0.46825 0.95755 0.96218
 O219 O 0.44369 0.97916 0.98277
 C220 C 0.44803 0.96345 0.96817
 Zr221 Zr 0.49993 0.97032 0.97271
 O222 O 0.49732 0.97071 0.93690
 O223 O 0.50253 0.93481 0.97247
 Zr224 Zr 0.49992 1.02721 0.97287
 O225 O 0.49734 1.02705 0.93704
 O226 O 0.50245 1.06273 0.97278
 O227 O 0.52000 0.99878 0.96833
 O228 O 0.48038 0.99878 0.96865
 O229 O 0.46828 0.95729 1.04060
 O230 O 0.44371 0.97905 1.02014
 C231 C 0.44807 0.96323 1.03463
 O232 O 0.53155 1.03742 1.04313
 O233 O 0.55615 1.01712 1.02126
 C234 C 0.55176 1.03151 1.03717
 O235 O 0.46819 1.03968 1.04094
 O236 O 0.44367 1.01815 1.02026
 C237 C 0.44799 1.03378 1.03495
 O238 O 0.53167 0.95956 1.04295
 O239 O 0.55618 0.98003 1.02114
 C240 C 0.55188 0.96551 1.03697
 Zr241 Zr 0.49995 0.97015 1.03019
 O242 O 0.49730 0.97033 1.06601
 O243 O 0.50257 0.93464 1.03030
 Zr244 Zr 0.49988 1.02701 1.03029
 O245 O 0.49729 1.02682 1.06611
 O246 O 0.50247 1.06253 1.03036
 Zr247 Zr 0.53329 0.99865 1.00149
 Zr248 Zr 0.46657 0.99866 1.00150
 O249 O 0.48036 0.99855 1.03437
 O250 O 0.51996 0.99857 1.03464
 O251 O 0.47995 0.96582 1.00144
 O252 O 0.51940 1.03122 1.00161
 O253 O 0.51944 0.96610 1.00144
 O254 O 0.47989 1.03153 1.00158
 H255 H 0.47008 0.99882 0.95543
 H256 H 0.52959 1.04441 1.00170
 H257 H 0.47007 0.99849 1.04759
 H258 H 0.52969 0.95295 1.00143
 H259 H 0.49015 1.06861 0.98239
 H260 H 0.48986 1.06850 1.02120
 H261 H 0.50987 1.01764 1.07204
 H262 H 0.51012 0.97911 1.07197
 H263 H 0.49029 0.92872 1.02068
 H264 H 0.49014 0.92883 0.98192
 H265 H 0.51004 0.97970 0.93099
 H266 H 0.51020 1.01831 0.93108
 O267 O 0.03795 0.53152 -0.04226
 O268 O 0.01763 0.55608 -0.02041
 C269 C 0.03220 0.55173 -0.03618
 O270 O -0.04251 0.46815 -0.04081
 O271 O -0.02113 0.44356 -0.01996
 C272 C -0.03673 0.44793 -0.03470
 O273 O -0.04033 0.53153 -0.04312
 O274 O -0.02049 0.55607 -0.02081
 C275 C -0.03471 0.55174 -0.03689
 O276 O 0.03980 0.46821 -0.04032
 O277 O 0.01760 0.44366 -0.02035
 C278 C 0.03356 0.44801 -0.03468
 Zr279 Zr 0.02709 0.49986 -0.02970
 O280 O 0.02723 0.49742 -0.06553
 O281 O 0.06262 0.50229 -0.02937
 Zr282 Zr -0.02973 0.49985 -0.03037
 O283 O -0.02882 0.49723 -0.06618
 O284 O -0.06524 0.50239 -0.03124
 O285 O -0.00128 0.51999 -0.03446
 O286 O -0.00130 0.48031 -0.03415
 O287 O 0.03926 0.46808 0.03820
 O288 O 0.01787 0.44351 0.01739
 C289 C 0.03348 0.44786 0.03211
 O290 O -0.04135 0.53144 0.03959
 O291 O -0.02097 0.55605 0.01779
 C292 C -0.03564 0.55167 0.03347
 O293 O -0.04322 0.46819 0.03759
 O294 O -0.02091 0.44364 0.01778
 C295 C -0.03701 0.44798 0.03195
 O296 O 0.03706 0.53144 0.04047
 O297 O 0.01718 0.55605 0.01820
 C298 C 0.03144 0.55166 0.03425
 Zr299 Zr 0.02643 0.49978 0.02778
 O300 O 0.02543 0.49713 0.06359
 O301 O 0.06193 0.50228 0.02878
 Zr302 Zr -0.03035 0.49982 0.02714
 O303 O -0.03022 0.49727 0.06297
 O304 O -0.06588 0.50228 0.02710
 Zr305 Zr -0.00166 0.53325 -0.00130
 Zr306 Zr -0.00164 0.46648 -0.00129
 O307 O -0.00198 0.48023 0.03158
 O308 O -0.00201 0.51995 0.03188
 O309 O 0.03121 0.47982 -0.00093
 O310 O -0.03419 0.51926 -0.00167
 O311 O 0.03089 0.51926 -0.00091
 O312 O -0.03449 0.47985 -0.00164
 H313 H -0.00127 0.47009 -0.04741
 H314 H -0.04747 0.52934 -0.00184
 H315 H -0.00202 0.46995 0.04482
 H316 H 0.04416 0.52935 -0.00078
 H317 H -0.07131 0.49043 -0.02131
 H318 H -0.07170 0.49006 0.01736
 H319 H -0.02170 0.51027 0.06893
 H320 H 0.01702 0.51028 0.06941
 H321 H 0.06801 0.49057 0.01857
 H322 H 0.06842 0.48964 -0.02016
 H323 H 0.01835 0.51019 -0.07152
 H324 H -0.02028 0.51030 -0.07201
 O325 O 1.04038 -0.03952 0.46790
 O326 O 1.02000 -0.01779 0.44316
 C327 C 1.03445 -0.03355 0.44753
 O328 O 0.96056 -0.03710 0.53206
 O329 O 0.98231 -0.01675 0.55674
 C330 C 0.96658 -0.03122 0.55241
 O331 O 0.96249 -0.03925 0.46813
 O332 O 0.98289 -0.01770 0.44327
 C333 C 0.96834 -0.03334 0.44772
 O334 O 1.04287 -0.03739 0.53177
 O335 O 1.02098 -0.01737 0.55658
 C336 C 1.03685 -0.03167 0.55217
 Zr337 Zr 1.02999 -0.02687 0.49990
 O338 O 1.02960 -0.06239 0.50254
 O339 O 1.06550 -0.02722 0.49716
 Zr340 Zr 0.97314 -0.02661 0.50005
 O341 O 0.97306 -0.06214 0.50265
 O342 O 0.93760 -0.02643 0.49759
 O343 O 1.00150 -0.03110 0.47975
 O344 O 1.00162 -0.03084 0.51967
 O345 O 1.04295 0.04076 0.53167
 O346 O 1.02106 0.02074 0.55651
 C347 C 1.03687 0.03508 0.55207
 O348 O 0.96272 0.04307 0.46813
 O349 O 0.98255 0.02099 0.44332
 C350 C 0.96836 0.03696 0.44774
 O351 O 0.96070 0.04073 0.53202
 O352 O 0.98241 0.02031 0.55674
 C353 C 0.96669 0.03482 0.55239
 O354 O 1.04092 0.04264 0.46786
 O355 O 1.02066 0.02083 0.44319
 C356 C 1.03515 0.03655 0.44751
 Zr357 Zr 1.03024 0.03011 0.49982
 O358 O 1.03023 0.06563 0.50228
 O359 O 1.06576 0.02991 0.49726
 Zr360 Zr 0.97326 0.03024 0.50000
 O361 O 0.97327 0.06575 0.50259
 O362 O 0.93773 0.03022 0.49748
 Zr363 Zr 1.00159 0.00179 0.46629
 Zr364 Zr 1.00183 0.00174 0.53359
 O365 O 1.00181 0.03430 0.51955
 O366 O 1.00171 0.03464 0.47968
 O367 O 1.03464 0.00161 0.52006
 O368 O 0.96904 0.00183 0.48034
 O369 O 1.03418 0.00159 0.48021
 O370 O 0.96890 0.00182 0.52025
 H371 H 1.00159 -0.04402 0.52998
 H372 H 0.95583 0.00185 0.47009
 H373 H 1.00180 0.04748 0.52982
 H374 H 1.04736 0.00148 0.46991
 H375 H 0.93178 -0.01732 0.51034
 H376 H 0.93183 0.02119 0.51026
 H377 H 0.98270 0.07165 0.49011
 H378 H 1.02125 0.07154 0.48946
 H379 H 1.07164 0.02084 0.51003
 H380 H 1.07151 -0.01769 0.50949
 H381 H 1.02064 -0.06823 0.48969
 H382 H 0.98211 -0.06808 0.48991
 C383 C 1.13590 0.10823 0.29163
 C384 C 1.11620 0.11733 0.30075
 C385 C 1.10657 0.13637 0.29078
 C386 C 1.11653 0.14628 0.27177
 C387 C 1.13643 0.13730 0.26229
 C388 C 1.14596 0.11809 0.27262
 C389 C 1.10576 0.10706 0.32021
 C390 C 1.09695 0.09845 0.33646
 C391 C 1.08654 0.08832 0.35542
 C392 C 1.07759 0.07959 0.37154
 C393 C 1.06682 0.06902 0.39066
 C394 C 1.07307 0.07478 0.41280
 C395 C 1.06271 0.06434 0.43134
 C396 C 1.04595 0.04795 0.42796
 C397 C 1.03974 0.04237 0.40561
 C398 C 1.05011 0.05283 0.38713
 H399 H 1.14349 0.09343 0.29918
 H400 H 1.09128 0.14357 0.29770
 H401 H 1.10847 0.16099 0.26469
 H402 H 1.16115 0.11043 0.26616
 H403 H 1.08601 0.08728 0.41573
 H404 H 1.06793 0.06902 0.44829
 H405 H 1.02690 0.02986 0.40234
 H406 H 1.04515 0.04823 0.37007
 C407 C 0.89731 -0.13437 0.29151
 C408 C 0.88743 -0.11569 0.30193
 C409 C 0.86738 -0.10684 0.29327
 C410 C 0.85729 -0.11654 0.27422
 C411 C 0.86712 -0.13529 0.26350
 C412 C 0.88726 -0.14411 0.27246
 C413 C 0.89799 -0.10545 0.32133
 C414 C 0.90687 -0.09677 0.33749
 C415 C 0.91731 -0.08645 0.35632
 C416 C 0.92626 -0.07751 0.37229
 C417 C 0.93697 -0.06666 0.39126
 C418 C 0.95373 -0.05055 0.38752
 C419 C 0.96400 -0.03979 0.40587
 C420 C 0.95763 -0.04499 0.42829
 C421 C 0.94082 -0.06130 0.43186
 C422 C 0.93057 -0.07203 0.41346
 H423 H 0.91285 -0.14136 0.29806
 H424 H 0.85957 -0.09238 0.30121
 H425 H 0.84178 -0.10930 0.26802
 H426 H 0.89544 -0.15843 0.26476
 H427 H 0.95882 -0.04627 0.37041
 H428 H 0.97688 -0.02736 0.40246
 H429 H 0.93549 -0.06571 0.44886
 H430 H 0.91760 -0.08446 0.41655
 C431 C 0.86565 0.10385 0.70951
 C432 C 0.88366 0.11444 0.69858
 C433 C 0.89158 0.13509 0.70665
 C434 C 0.88157 0.14511 0.72559
 C435 C 0.86344 0.13460 0.73675
 C436 C 0.85561 0.11383 0.72844
 C437 C 0.89412 0.10403 0.67921
 C438 C 0.90293 0.09528 0.66304
 C439 C 0.91335 0.08499 0.64418
 C440 C 0.92235 0.07619 0.62815
 C441 C 0.93326 0.06566 0.60910
 C442 C 0.92771 0.07206 0.58694
 C443 C 0.93849 0.06199 0.56846
 C444 C 0.95502 0.04537 0.57191
 C445 C 0.96040 0.03900 0.59429
 C446 C 0.94959 0.04908 0.61272
 H447 H 0.85941 0.08783 0.70344
 H448 H 0.90550 0.14345 0.69831
 H449 H 0.88801 0.16113 0.73131
 H450 H 0.84184 0.10510 0.73658
 H451 H 0.91510 0.08489 0.58394
 H452 H 0.93393 0.06731 0.55150
 H453 H 0.97299 0.02624 0.59760
 H454 H 0.95401 0.04399 0.62980
 C455 C 1.13901 -0.10227 0.70876
 C456 C 1.12019 -0.11160 0.69807
 C457 C 1.11082 -0.13151 0.70644
 C458 C 1.12014 -0.14206 0.72544
 C459 C 1.13903 -0.13281 0.73644
 C460 C 1.14838 -0.11278 0.72780
 C461 C 1.11030 -0.10068 0.67867
 C462 C 1.10171 -0.09168 0.66250
 C463 C 1.09132 -0.08128 0.64367
 C464 C 1.08221 -0.07250 0.62767
 C465 C 1.07106 -0.06209 0.60869
 C466 C 1.05426 -0.04602 0.61240
 C467 C 1.04315 -0.03611 0.59404
 C468 C 1.04870 -0.04216 0.57162
 C469 C 1.06568 -0.05830 0.56807
 C470 C 1.07675 -0.06819 0.58649
 H471 H 1.14640 -0.08683 0.70244
 H472 H 1.09625 -0.13889 0.69829
 H473 H 1.11245 -0.15744 0.73140
 H474 H 1.16284 -0.10506 0.73572
 H475 H 1.04969 -0.04119 0.62951
 H476 H 1.03021 -0.02374 0.59743
 H477 H 1.07038 -0.06335 0.55108
 H478 H 1.08971 -0.08065 0.58342
 C479 C 0.29278 1.13458 1.10549
 C480 C 0.30246 1.11563 1.11560
 C481 C 0.29319 1.10689 1.13554
 C482 C 0.27430 1.11702 1.14535
 C483 C 0.26426 1.13614 1.13533
 C484 C 0.27390 1.14475 1.11521
 C485 C 0.32179 1.10511 1.10537
 C486 C 0.33792 1.09635 1.09667
 C487 C 0.35674 1.08610 1.08631
 C488 C 0.37271 1.07728 1.07737
 C489 C 0.39166 1.06662 1.06658
 C490 C 0.41362 1.07195 1.07327
 C491 C 0.43199 1.06141 1.06290
 C492 C 0.42862 1.04534 1.04570
 C493 C 0.40645 1.04020 1.03904
 C494 C 0.38814 1.05077 1.04941
 H495 H 0.29981 1.14149 1.09002
 H496 H 0.30052 1.09218 1.14350
 H497 H 0.26771 1.10966 1.16074
 H498 H 0.26705 1.15937 1.10677
 H499 H 0.41655 1.08418 1.08655
 H500 H 0.44879 1.06574 1.06847
 H501 H 0.40320 1.02796 1.02585
 H502 H 0.37122 1.04652 1.04410
 C503 C 0.29263 0.86182 0.89734
 C504 C 0.30259 0.88103 0.88805
 C505 C 0.29358 0.89061 0.86839
 C506 C 0.27468 0.88110 0.85804
 C507 C 0.26433 0.86173 0.86722
 C508 C 0.27372 0.85223 0.88706
 C509 C 0.32193 0.89104 0.89876
 C510 C 0.33806 0.89960 0.90768
 C511 C 0.35686 0.90983 0.91808
 C512 C 0.37282 0.91876 0.92692
 C513 C 0.39175 0.92969 0.93746
 C514 C 0.38821 0.94595 0.95423
 C515 C 0.40650 0.95687 0.96425
 C516 C 0.42867 0.95167 0.95764
 C517 C 0.43206 0.93520 0.94084
 C518 C 0.41372 0.92431 0.93083
 H519 H 0.29947 0.85424 0.91257
 H520 H 0.30115 0.90552 0.86104
 H521 H 0.26832 0.88913 0.84290
 H522 H 0.26660 0.83740 0.89487
 H523 H 0.37128 0.95026 0.95950
 H524 H 0.40322 0.96942 0.97714
 H525 H 0.44887 0.93078 0.93534
 H526 H 0.41666 0.91176 0.91785
 C527 C 0.70909 0.89584 1.13723
 C528 C 0.69827 0.88601 1.11867
 C529 C 0.70670 0.86605 1.10948
 C530 C 0.72591 0.85599 1.11870
 C531 C 0.73714 0.86574 1.13737
 C532 C 0.72831 0.88585 1.14652
 C533 C 0.67870 0.89651 1.10885
 C534 C 0.66241 0.90528 1.10043
 C535 C 0.64345 0.91555 1.09032
 C536 C 0.62738 0.92434 1.08146
 C537 C 0.60837 0.93485 1.07061
 C538 C 0.58643 0.92822 1.07612
 C539 C 0.56801 0.93823 1.06530
 C540 C 0.57130 0.95501 1.04875
 C541 C 0.59344 0.96161 1.04343
 C542 C 0.61180 0.95159 1.05428
 H543 H 0.70272 0.91132 1.14449
 H544 H 0.69845 0.85826 1.09510
 H545 H 0.73180 0.84060 1.11098
 H546 H 0.73613 0.89411 1.16081
 H547 H 0.58357 0.91526 1.08872
 H548 H 0.55123 0.93274 1.06981
 H549 H 0.59664 0.97449 1.03083
 H550 H 0.62870 0.95686 1.04987
 C551 C 0.70668 1.10391 0.86434
 C552 C 0.69698 1.11286 0.88395
 C553 C 0.70622 1.13212 0.89383
 C554 C 0.72506 1.14242 0.88418
 C555 C 0.73509 1.13365 0.86434
 C556 C 0.72552 1.11417 0.85459
 C557 C 0.67767 1.10222 0.89407
 C558 C 0.66155 1.09335 0.90269
 C559 C 0.64277 1.08299 0.91297
 C560 C 0.62683 1.07413 0.92193
 C561 C 0.60794 1.06350 0.93286
 C562 C 0.61157 1.04700 0.94939
 C563 C 0.59331 1.03679 0.96023
 C564 C 0.57111 1.04296 0.95467
 C565 C 0.56764 1.05953 0.93794
 C566 C 0.58595 1.06973 0.92714
 H567 H 0.69969 1.08896 0.85657
 H568 H 0.69884 1.13919 0.90905
 H569 H 0.73157 1.15729 0.89242
 H570 H 0.73246 1.10663 0.83946
 H571 H 0.62852 1.04205 0.95395
 H572 H 0.59664 1.02408 0.97297
 H573 H 0.55080 1.06470 0.93324
 H574 H 0.58295 1.08250 0.91437
 C575 C 0.13625 0.29312 0.10249
 C576 C 0.11691 0.30277 0.11187
 C577 C 0.10724 0.29329 0.13126
 C578 C 0.11679 0.27420 0.14124
 C579 C 0.13626 0.26429 0.13197
 C580 C 0.14585 0.27402 0.11243
 C581 C 0.10682 0.32222 0.10144
 C582 C 0.09816 0.33838 0.09268
 C583 C 0.08776 0.35713 0.08236
 C584 C 0.07866 0.37300 0.07352
 C585 C 0.06755 0.39182 0.06296
 C586 C 0.07263 0.41380 0.06972
 C587 C 0.06162 0.43205 0.05966
 C588 C 0.04533 0.42856 0.04269
 C589 C 0.04042 0.40637 0.03596
 C590 C 0.05147 0.38816 0.04604
 H591 H 0.14387 0.30031 0.08744
 H592 H 0.09224 0.30061 0.13865
 H593 H 0.10879 0.26728 0.15615
 H594 H 0.16073 0.26696 0.10467
 H595 H 0.08504 0.41682 0.08283
 H596 H 0.06582 0.44888 0.06526
 H597 H 0.02803 0.40303 0.02292
 H598 H 0.04741 0.37121 0.04067
 C599 C -0.13864 0.29223 -0.10392
 C600 C -0.11953 0.30215 -0.11348
 C601 C -0.10986 0.29277 -0.13292
 C602 C -0.11919 0.27351 -0.14273
 C603 C -0.13838 0.26328 -0.13323
 C604 C -0.14801 0.27296 -0.11369
 C605 C -0.10961 0.32174 -0.10319
 C606 C -0.10107 0.33802 -0.09457
 C607 C -0.09079 0.35692 -0.08445
 C608 C -0.08177 0.37291 -0.07578
 C609 C -0.07070 0.39181 -0.06535
 C610 C -0.07580 0.41377 -0.07223
 C611 C -0.06483 0.43206 -0.06223
 C612 C -0.04856 0.42862 -0.04522
 C613 C -0.04362 0.40645 -0.03840
 C614 C -0.05463 0.38821 -0.04840
 H615 H -0.14626 0.29934 -0.08884
 H616 H -0.09504 0.30030 -0.14046
 H617 H -0.11124 0.26673 -0.15773
 H618 H -0.16274 0.26571 -0.10581
 H619 H -0.08821 0.41674 -0.08535
 H620 H -0.06905 0.44887 -0.06790
 H621 H -0.03125 0.40314 -0.02533
 H622 H -0.05055 0.37128 -0.04294
 C623 C 0.13287 0.70613 -0.10761
 C624 C 0.11355 0.69711 -0.11761
 C625 C 0.10451 0.70723 -0.13700
 C626 C 0.11468 0.72634 -0.14632
 C627 C 0.13410 0.73565 -0.13635
 C628 C 0.14308 0.72523 -0.11687
 C629 C 0.10290 0.67765 -0.10778
 C630 C 0.09399 0.66147 -0.09932
 C631 C 0.08354 0.64265 -0.08916
 C632 C 0.07460 0.62671 -0.08028
 C633 C 0.06386 0.60785 -0.06942
 C634 C 0.06996 0.58584 -0.07518
 C635 C 0.05964 0.56755 -0.06445
 C636 C 0.04307 0.57105 -0.04775
 C637 C 0.03703 0.59327 -0.04213
 C638 C 0.04736 0.61150 -0.05289
 H639 H 0.14002 0.69845 -0.09257
 H640 H 0.08953 0.70039 -0.14489
 H641 H 0.10719 0.73374 -0.16127
 H642 H 0.15795 0.73175 -0.10864
 H643 H 0.08273 0.58282 -0.08794
 H644 H 0.06472 0.55071 -0.06919
 H645 H 0.02434 0.59661 -0.02939
 H646 H 0.04251 0.62846 -0.04828
 C647 C -0.13733 0.70611 0.10552
 C648 C -0.11794 0.69646 0.11480
 C649 C -0.10817 0.70593 0.13414
 C650 C -0.11765 0.72503 0.14410
 C651 C -0.13710 0.73503 0.13486
 C652 C -0.14686 0.72524 0.11545
 C653 C -0.10781 0.67706 0.10433
 C654 C -0.09908 0.66095 0.09557
 C655 C -0.08860 0.64223 0.08529
 C656 C -0.07948 0.62638 0.07646
 C657 C -0.06842 0.60760 0.06581
 C658 C -0.07425 0.58556 0.07175
 C659 C -0.06353 0.56734 0.06134
 C660 C -0.04680 0.57093 0.04481
 C661 C -0.04103 0.59319 0.03903
 C662 C -0.05177 0.61136 0.04946
 H663 H -0.14504 0.69892 0.09054
 H664 H -0.09314 0.69860 0.14147
 H665 H -0.10958 0.73191 0.15899
 H666 H -0.16179 0.73230 0.10778
 H667 H -0.08711 0.58245 0.08440
 H668 H -0.06841 0.55046 0.06620
 H669 H -0.02824 0.59660 0.02640
 H670 H -0.04711 0.62835 0.04475
 C671 C 1.13848 0.10718 0.70709
 C672 C 1.11847 0.11579 0.69812
 C673 C 1.10830 0.13448 0.70822
 C674 C 1.11803 0.14448 0.72729
 C675 C 1.13811 0.13590 0.73658
 C676 C 1.14825 0.11715 0.72615
 C677 C 1.10827 0.10533 0.67869
 C678 C 1.09964 0.09650 0.66249
 C679 C 1.08944 0.08611 0.64362
 C680 C 1.08061 0.07718 0.62760
 C681 C 1.06989 0.06646 0.60860
 C682 C 1.07569 0.07256 0.58642
 C683 C 1.06506 0.06229 0.56798
 C684 C 1.04845 0.04579 0.57152
 C685 C 1.04284 0.03971 0.59391
 C686 C 1.05350 0.04999 0.61230
 H687 H 1.14651 0.09272 0.69938
 H688 H 1.09279 0.14127 0.70141
 H689 H 1.10964 0.15881 0.73477
 H690 H 1.16376 0.11011 0.73260
 H691 H 1.08838 0.08529 0.58339
 H692 H 1.06979 0.06737 0.55099
 H693 H 1.03018 0.02704 0.59728
 H694 H 1.04890 0.04513 0.62940
 C695 C 0.86471 -0.10394 0.70706
 C696 C 0.88492 -0.11236 0.69841
 C697 C 0.89504 -0.13106 0.70859
 C698 C 0.88498 -0.14132 0.72737
 C699 C 0.86462 -0.13301 0.73626
 C700 C 0.85461 -0.11417 0.72583
 C701 C 0.89532 -0.10175 0.67914
 C702 C 0.90404 -0.09281 0.66303
 C703 C 0.91428 -0.08231 0.64422
 C704 C 0.92309 -0.07331 0.62820
 C705 C 0.93374 -0.06256 0.60915
 C706 C 0.92819 -0.06898 0.58702
 C707 C 0.93874 -0.05870 0.56852
 C708 C 0.95503 -0.04186 0.57194
 C709 C 0.96039 -0.03546 0.59429
 C710 C 0.94980 -0.04575 0.61274
 H711 H 0.85673 -0.08946 0.69930
 H712 H 0.91072 -0.13769 0.70204
 H713 H 0.89332 -0.15567 0.73491
 H714 H 0.83893 -0.10729 0.73201
 H715 H 0.91577 -0.08198 0.58407
 H716 H 0.93422 -0.06405 0.55157
 H717 H 0.97281 -0.02254 0.59757
 H718 H 0.95421 -0.04065 0.62981
 C719 C 1.13367 -0.10683 0.29203
 C720 C 1.11425 -0.11623 0.30148
 C721 C 1.10486 -0.13558 0.29191
 C722 C 1.11480 -0.14547 0.27288
 C723 C 1.13432 -0.13613 0.26312
 C724 C 1.14365 -0.11669 0.27300
 C725 C 1.10383 -0.10590 0.32089
 C726 C 1.09504 -0.09717 0.33706
 C727 C 1.08470 -0.08684 0.35590
 C728 C 1.07585 -0.07789 0.37191
 C729 C 1.06527 -0.06702 0.39093
 C730 C 1.07190 -0.07232 0.41307
 C731 C 1.06182 -0.06154 0.43153
 C732 C 1.04497 -0.04525 0.42805
 C733 C 1.03836 -0.04013 0.40569
 C734 C 1.04845 -0.05096 0.38728
 H735 H 1.14107 -0.09184 0.29932
 H736 H 1.08982 -0.14300 0.29910
 H737 H 1.10705 -0.16037 0.26590
 H738 H 1.15862 -0.10897 0.26611
 H739 H 1.08492 -0.08474 0.41607
 H740 H 1.06734 -0.06588 0.44848
 H741 H 1.02541 -0.02773 0.40236
 H742 H 1.04318 -0.04675 0.37021
 C743 C 0.89827 0.13870 0.29075
 C744 C 0.88875 0.12021 0.30187
 C745 C 0.86857 0.11107 0.29397
 C746 C 0.85793 0.12030 0.27499
 C747 C 0.86735 0.13886 0.26358
 C748 C 0.88766 0.14798 0.27175
 C749 C 0.89972 0.11041 0.32125
 C750 C 0.90871 0.10186 0.33742
 C751 C 0.91906 0.09151 0.35626
 C752 C 0.92778 0.08239 0.37226
 C753 C 0.93812 0.07122 0.39124
 C754 C 0.95410 0.05435 0.38752
 C755 C 0.96395 0.04322 0.40589
 C756 C 0.95792 0.04882 0.42829
 C757 C 0.94187 0.06587 0.43184
 C758 C 0.93203 0.07697 0.41341
 H759 H 0.91393 0.14589 0.29673
 H760 H 0.86104 0.09675 0.30246
 H761 H 0.84230 0.11284 0.26942
 H762 H 0.89553 0.16217 0.26344
 H763 H 0.95891 0.04975 0.37041
 H764 H 0.97628 0.03023 0.40251
 H765 H 0.93685 0.07063 0.44882
 H766 H 0.91965 0.09000 0.41646
 C767 C 0.13550 0.29464 -0.10670
 C768 C 0.11539 0.30300 -0.11565
 C769 C 0.10556 0.29250 -0.13442
 C770 C 0.11577 0.27365 -0.14416
 C771 C 0.13598 0.26499 -0.13523
 C772 C 0.14575 0.27580 -0.11640
 C773 C 0.10479 0.32223 -0.10543
 C774 C 0.09598 0.33829 -0.09668
 C775 C 0.08570 0.35701 -0.08628
 C776 C 0.07690 0.37293 -0.07729
 C777 C 0.06627 0.39181 -0.06644
 C778 C 0.04995 0.38822 -0.04975
 C779 C 0.03941 0.40649 -0.03932
 C780 C 0.04508 0.42868 -0.04547
 C781 C 0.06165 0.43211 -0.06218
 C782 C 0.07215 0.41378 -0.07260
 H783 H 0.14327 0.30266 -0.09218
 H784 H 0.08997 0.29884 -0.14148
 H785 H 0.10766 0.26585 -0.15856
 H786 H 0.16132 0.26985 -0.10908
 H787 H 0.04530 0.37128 -0.04482
 H788 H 0.02679 0.40321 -0.02649
 H789 H 0.06642 0.44894 -0.06732
 H790 H 0.08480 0.41673 -0.08550
 C791 C -0.10986 0.29313 0.13009
 C792 C -0.12040 0.30292 0.11132
 C793 C -0.14042 0.29375 0.10299
 C794 C -0.14985 0.27480 0.11336
 C795 C -0.13936 0.26474 0.13224
 C796 C -0.11924 0.27419 0.14049
 C797 C -0.11048 0.32224 0.10054
 C798 C -0.10188 0.33834 0.09163
 C799 C -0.09150 0.35707 0.08133
 C800 C -0.08239 0.37298 0.07261
 C801 C -0.07123 0.39184 0.06225
 C802 C -0.07688 0.41380 0.06859
 C803 C -0.06580 0.43211 0.05874
 C804 C -0.04886 0.42866 0.04241
 C805 C -0.04336 0.40648 0.03613
 C806 C -0.05448 0.38823 0.04600
 H807 H -0.09433 0.30008 0.13666
 H808 H -0.14873 0.30122 0.08845
 H809 H -0.16537 0.26817 0.10653
 H810 H -0.11055 0.26698 0.15486
 H811 H -0.08981 0.41677 0.08119
 H812 H -0.07045 0.44894 0.06398
 H813 H -0.03045 0.40318 0.02360
 H814 H -0.04996 0.37129 0.04098
 C815 C -0.13504 0.70571 -0.10957
 C816 C -0.11497 0.69739 -0.11865
 C817 C -0.10507 0.70817 -0.13723
 C818 C -0.11516 0.72726 -0.14667
 C819 C -0.13534 0.73586 -0.13763
 C820 C -0.14517 0.72479 -0.11897
 C821 C -0.10441 0.67794 -0.10872
 C822 C -0.09556 0.66175 -0.10024
 C823 C -0.08519 0.64290 -0.09011
 C824 C -0.07632 0.62692 -0.08125
 C825 C -0.06571 0.60800 -0.07040
 C826 C -0.07160 0.58604 -0.07653
 C827 C -0.06147 0.56769 -0.06573
 C828 C -0.04531 0.57109 -0.04862
 C829 C -0.03945 0.59327 -0.04267
 C830 C -0.04959 0.61156 -0.05350
 H831 H -0.14286 0.69748 -0.09518
 H832 H -0.08950 0.70188 -0.14438
 H833 H -0.10698 0.73526 -0.16092
 H834 H -0.16071 0.73072 -0.11156
 H835 H -0.08407 0.58311 -0.08959
 H836 H -0.06638 0.55087 -0.07073
 H837 H -0.02707 0.59654 -0.02961
 H838 H -0.04491 0.62849 -0.04862
 C839 C 0.13235 0.70503 0.10684
 C840 C 0.11286 0.69609 0.11657
 C841 C 0.10369 0.70606 0.13596
 C842 C 0.11390 0.72497 0.14553
 C843 C 0.13348 0.73424 0.13582
 C844 C 0.14261 0.72394 0.11637
 C845 C 0.10213 0.67685 0.10650
 C846 C 0.09313 0.66084 0.09789
 C847 C 0.08258 0.64220 0.08762
 C848 C 0.07356 0.62638 0.07867
 C849 C 0.06280 0.60761 0.06778
 C850 C 0.04673 0.61136 0.05086
 C851 C 0.03645 0.59317 0.04000
 C852 C 0.04214 0.57093 0.04595
 C853 C 0.05827 0.56736 0.06307
 C854 C 0.06852 0.58559 0.07389
 H855 H 0.13959 0.69744 0.09182
 H856 H 0.08858 0.69927 0.14363
 H857 H 0.10631 0.73228 0.16046
 H858 H 0.15762 0.73044 0.10837
 H859 H 0.04219 0.62835 0.04599
 H860 H 0.02411 0.59658 0.02693
 H861 H 0.06305 0.55049 0.06808
 H862 H 0.08095 0.58252 0.08697
 C863 C 0.29341 1.13649 0.89797
 C864 C 0.30316 1.11721 0.88862
 C865 C 0.29375 1.10743 0.86927
 C866 C 0.27462 1.11685 0.85929
 C867 C 0.26460 1.13626 0.86854
 C868 C 0.27428 1.14596 0.88803
 C869 C 0.32260 1.10723 0.89907
 C870 C 0.33876 1.09864 0.90785
 C871 C 0.35751 1.08832 0.91815
 C872 C 0.37339 1.07927 0.92698
 C873 C 0.39217 1.06820 0.93754
 C874 C 0.38846 1.05211 0.95446
 C875 C 0.40664 1.04105 0.96453
 C876 C 0.42882 1.04596 0.95779
 C877 C 0.43237 1.06228 0.94084
 C878 C 0.41414 1.07329 0.93078
 H879 H 0.30056 1.14417 0.91299
 H880 H 0.30116 1.09246 0.86192
 H881 H 0.26779 1.10882 0.84437
 H882 H 0.26716 1.16084 0.89573
 H883 H 0.37150 1.04805 0.95982
 H884 H 0.40328 1.02865 0.97756
 H885 H 0.44921 1.06647 0.93525
 H886 H 0.41718 1.08572 0.91767
 C887 C 0.29230 0.86160 1.10389
 C888 C 0.30212 0.88081 1.11331
 C889 C 0.29271 0.89058 1.13267
 C890 C 0.27350 0.88123 1.14258
 C891 C 0.26338 0.86192 1.13324
 C892 C 0.27309 0.85221 1.11376
 C893 C 0.32171 0.89067 1.10300
 C894 C 0.33801 0.89914 1.09436
 C895 C 0.35695 0.90932 1.08423
 C896 C 0.37297 0.91826 1.07554
 C897 C 0.39189 0.92924 1.06510
 C898 C 0.41382 0.92397 1.07189
 C899 C 0.43216 0.93493 1.06193
 C900 C 0.42875 0.95136 1.04507
 C901 C 0.40659 0.95644 1.03830
 C902 C 0.38832 0.94545 1.04826
 H903 H 0.29945 0.85392 1.08887
 H904 H 0.30017 0.90548 1.14009
 H905 H 0.26667 0.88924 1.15751
 H906 H 0.26591 0.83740 1.10599
 H907 H 0.41676 0.91144 1.08492
 H908 H 0.44896 0.93060 1.06753
 H909 H 0.40333 0.96894 1.02533
 H910 H 0.37141 0.94965 1.04287
 C911 C 0.70598 1.13063 1.10881
 C912 C 0.69721 1.11131 1.11903
 C913 C 0.70764 1.10233 1.13828
 C914 C 0.72681 1.11261 1.14726
 C915 C 0.73586 1.13206 1.13707
 C916 C 0.72514 1.14095 1.11773
 C917 C 0.67769 1.10057 1.10955
 C918 C 0.66145 1.09165 1.10130
 C919 C 0.64259 1.08128 1.09128
 C920 C 0.62663 1.07245 1.08240
 C921 C 0.60778 1.06193 1.07142
 C922 C 0.58581 1.06860 1.07669
 C923 C 0.56754 1.05866 1.06564
 C924 C 0.57104 1.04193 1.04912
 C925 C 0.59321 1.03529 1.04405
 C926 C 0.61143 1.04524 1.05514
 H927 H 0.69804 1.13771 1.09387
 H928 H 0.70099 1.08734 1.14632
 H929 H 0.73446 1.10519 1.16212
 H930 H 0.73146 1.15584 1.10936
 H931 H 0.58282 1.08154 1.08926
 H932 H 0.55071 1.06417 1.06996
 H933 H 0.59654 1.02243 1.03148
 H934 H 0.62838 1.03997 1.05093
 C935 C 0.70670 0.89365 0.86613
 C936 C 0.69721 0.88405 0.88555
 C937 C 0.70691 0.86482 0.89513
 C938 C 0.72608 0.85525 0.88535
 C939 C 0.73586 0.86480 0.86582
 C940 C 0.72585 0.88413 0.85632
 C941 C 0.67771 0.89415 0.89577
 C942 C 0.66149 0.90288 0.90429
 C943 C 0.64266 0.91335 0.91427
 C944 C 0.62671 0.92248 0.92288
 C945 C 0.60785 0.93352 0.93334
 C946 C 0.61150 0.95069 0.94912
 C947 C 0.59326 0.96126 0.95958
 C948 C 0.57107 0.95478 0.95439
 C949 C 0.56758 0.93762 0.93833
 C950 C 0.58588 0.92706 0.92790
 H951 H 0.69933 0.90856 0.85859
 H952 H 0.69970 0.85726 0.91020
 H953 H 0.73318 0.84043 0.89322
 H954 H 0.73272 0.89204 0.84134
 H955 H 0.62846 0.95585 0.95341
 H956 H 0.59659 0.97445 0.97180
 H957 H 0.55075 0.93221 0.93394
 H958 H 0.58288 0.91378 0.91569
   
