data_POSCAR
  _audit_creation_date              2014-09-24
  _audit_creation_method            'ToBaCCo'
  _symmetry_space_group_name_H-M    'P1'
  _symmetry_Int_Tables_number       1
  _symmetry_cell_setting            triclinic
  loop_
  _symmetry_equiv_pos_as_xyz
 x,y,z
_cell_length_a 40.8312
_cell_length_b 40.4526
_cell_length_c 41.0408
_cell_angle_alpha 90.066000
_cell_angle_beta 89.959100
_cell_angle_gamma 120.254700
loop_
  _atom_site_label
  _atom_site_type_symbol
  _atom_site_fract_x
  _atom_site_fract_y
  _atom_site_fract_z
C1 C -0.00039 0.49948 1.33522
 C2 C 0.03452 0.51536 1.31891
 C3 C 0.03456 0.50926 1.28516
 C4 C 0.00046 0.48596 1.26790
 C5 C -0.03354 0.46649 1.28619
 C6 C -0.03459 0.47449 1.31943
 C7 C -0.00021 0.48471 1.23103
 C8 C -0.03445 0.47268 1.21381
 C9 C -0.03495 0.47572 1.17985
 C10 C -0.00080 0.49256 1.16260
 C11 C 0.03358 0.50421 1.17865
 C12 C 0.03355 0.49880 1.21249
 H13 H -0.00077 0.50497 1.36101
 H14 H 0.06132 0.52443 1.27257
 H15 H -0.05972 0.44599 1.27461
 H16 H -0.06105 0.46249 1.22633
 H17 H -0.00107 0.49583 1.13641
 H18 H 0.06032 0.50700 1.22399
 C19 C 0.50241 0.50527 1.34206
 C20 C 0.48603 0.52341 1.32499
 C21 C 0.49125 0.52778 1.29106
 C22 C 0.51417 0.51635 1.27418
 C23 C 0.53363 0.50226 1.29290
 C24 C 0.52663 0.49491 1.32651
 C25 C 0.51507 0.51606 1.23729
 C26 C 0.52697 0.49340 1.22024
 C27 C 0.52313 0.48897 1.18631
 C28 C 0.50586 0.50584 1.16910
 C29 C 0.49463 0.52911 1.18493
 C30 C 0.50082 0.53553 1.21857
 H31 H 0.49762 0.50072 1.36805
 H32 H 0.47564 0.53851 1.27803
 H33 H 0.55340 0.49565 1.28141
 H34 H 0.53773 0.47746 1.23284
 H35 H 0.50201 0.50165 1.14298
 H36 H 0.49306 0.55475 1.22975
 C37 C 0.48844 0.99759 1.33391
 C38 C 0.47157 0.96343 1.31622
 C39 C 0.47698 0.96426 1.28253
 C40 C 0.50106 0.99890 1.26616
 C41 C 0.52120 1.03242 1.28523
 C42 C 0.51379 1.03247 1.31880
 C43 C 0.50262 1.00049 1.22946
 C44 C 0.51431 1.03525 1.21278
 C45 C 0.51114 1.03613 1.17885
 C46 C 0.49439 1.00191 1.16120
 C47 C 0.48380 0.96725 1.17686
 C48 C 0.48937 0.96687 1.21055
 H49 H 0.48328 0.99649 1.35990
 H50 H 0.46099 0.93761 1.26948
 H51 H 0.54177 1.05898 1.27398
 H52 H 0.52460 1.06192 1.22573
 H53 H 0.49103 1.00241 1.13503
 H54 H 0.48196 0.93983 1.22172
 C55 C 0.99626 0.50999 0.66507
 C56 C 0.96239 0.49208 0.68270
 C57 C 0.96326 0.49663 0.71657
 C58 C 0.99769 0.52055 0.73310
 C59 C 1.03097 0.54120 0.71415
 C60 C 1.03095 0.53466 0.68042
 C61 C 0.99943 0.52129 0.76984
 C62 C 1.03391 0.53225 0.78626
 C63 C 1.03502 0.52874 0.82016
 C64 C 1.00124 0.51254 0.83795
 C65 C 0.96675 0.50201 0.82258
 C66 C 0.96623 0.50791 0.78892
 H67 H 0.99521 0.50542 0.63898
 H68 H 0.93698 0.47991 0.72962
 H69 H 1.05738 0.56145 0.72561
 H70 H 1.06006 0.54195 0.77307
 H71 H 1.00192 0.50891 0.86405
 H72 H 0.93945 0.50063 0.77783
 C73 C 0.48274 0.48483 0.65842
 C74 C 0.49434 0.46187 0.67433
 C75 C 0.48877 0.45613 0.70806
 C76 C 0.47505 0.47603 0.72678
 C77 C 0.46281 0.49832 0.70982
 C78 C 0.46581 0.50204 0.67582
 C79 C 0.47693 0.47654 0.76354
 C80 C 0.45774 0.49078 0.78259
 C81 C 0.46515 0.49785 0.81605
 C82 C 0.48939 0.48769 0.83134
 C83 C 0.50631 0.47072 0.81372
 C84 C 0.50073 0.46594 0.78000
 H85 H 0.48621 0.48867 0.63226
 H86 H 0.49674 0.43718 0.71942
 H87 H 0.45246 0.51455 0.72258
 H88 H 0.43800 0.49785 0.77171
 H89 H 0.49442 0.49220 0.85733
 H90 H 0.51671 0.45552 0.76704
 C91 C 0.52018 -0.00016 0.66599
 C92 C 0.54386 0.03417 0.68210
 C93 C 0.55142 0.03363 0.71531
 C94 C 0.53262 -0.00076 0.73358
 C95 C 0.51017 -0.03535 0.71612
 C96 C 0.50431 -0.03538 0.68228
 C97 C 0.53306 0.00001 0.77052
 C98 C 0.51840 -0.03409 0.78915
 C99 C 0.51130 -0.03438 0.82286
 C100 C 0.52249 0.00064 0.83856
 C101 C 0.54027 0.03511 0.82139
 C102 C 0.54473 0.03463 0.78763
 H103 H 0.51527 0.00079 0.64015
 H104 H 0.57078 0.06062 0.72662
 H105 H 0.49520 -0.06240 0.72863
 H106 H 0.51102 -0.06089 0.77757
 H107 H 0.51837 0.00147 0.86457
 H108 H 0.55572 0.06160 0.77516
 O109 O 0.39001 0.65181 0.97415
 O110 O 0.39058 0.71552 0.96130
 C111 C 0.37483 0.73505 0.95559
 O112 O 0.34539 0.72993 0.97062
 O113 O 0.28251 0.66488 0.95938
 C114 C 0.26272 0.62890 0.95600
 O115 O 0.26702 0.60565 0.97377
 O116 O 0.33057 0.60613 0.96298
 C117 C 0.36602 0.62265 0.95805
 O118 O 0.38812 0.66522 1.03845
 O119 O 0.39128 0.72985 1.02580
 C120 C 0.36780 0.73655 1.04058
 O121 O 0.33250 0.71872 1.03467
 O122 O 0.26777 0.65517 1.02398
 C123 C 0.26205 0.62674 1.04150
 O124 O 0.28074 0.60967 1.03814
 O125 O 0.34217 0.60579 1.02748
 C126 C 0.37100 0.62958 1.04374
 Cr127 Cr 0.38800 0.68963 0.99988
 Cr128 Cr 0.30795 0.69108 0.99722
 Cr129 Cr 0.30618 0.60884 1.00056
 O130 O 0.33413 0.66329 0.99930
 O131 O 0.61320 0.33593 0.95892
 O132 O 0.61030 0.27109 0.97144
 C133 C 0.63462 0.26519 0.95741
 O134 O 0.66971 0.28395 0.96405
 O135 O 0.73283 0.34824 0.97620
 C136 C 0.73853 0.37738 0.95970
 O137 O 0.71955 0.39408 0.96368
 O138 O 0.65653 0.39521 0.97328
 C139 C 0.62961 0.37182 0.95511
 O140 O 0.60712 0.34654 1.02330
 O141 O 0.60746 0.28298 1.03512
 C142 C 0.62486 0.26543 1.04238
 O143 O 0.65557 0.27194 1.02873
 O144 O 0.71730 0.33686 1.04065
 C145 C 0.73613 0.37271 1.04492
 O146 O 0.73084 0.39589 1.02808
 O147 O 0.66539 0.39202 1.03792
 C148 C 0.62963 0.37451 1.04131
 Cr149 Cr 0.61156 0.31025 0.99728
 Cr150 Cr 0.69282 0.31121 1.00230
 Cr151 Cr 0.69204 0.39226 1.00074
 O152 O 0.66546 0.33774 1.00016
 O153 O 0.65778 0.38872 0.52698
 O154 O 0.72069 0.38710 0.53695
 C155 C 0.73976 0.37040 0.54038
 O156 O 0.73506 0.34259 0.52248
 O157 O 0.67225 0.27824 0.53399
 C158 C 0.63725 0.25957 0.54095
 O159 O 0.61259 0.26493 0.52680
 O160 O 0.61424 0.32903 0.53980
 C161 C 0.62969 0.36480 0.54384
 O162 O 0.66800 0.38751 0.46251
 O163 O 0.73338 0.39094 0.47241
 C164 C 0.73830 0.36815 0.45452
 O165 O 0.71933 0.33222 0.45796
 O166 O 0.65835 0.26685 0.46937
 C167 C 0.62776 0.26030 0.45562
 O168 O 0.61018 0.27764 0.46298
 O169 O 0.60944 0.34106 0.47564
 C170 C 0.63225 0.37038 0.45899
 Cr171 Cr 0.69401 0.38655 0.49969
 Cr172 Cr 0.69522 0.30593 0.49606
 Cr173 Cr 0.61363 0.30424 0.50119
 O174 O 0.66752 0.33208 0.49889
 O175 O 0.32652 0.61195 0.53851
 O176 O 0.26211 0.61096 0.52874
 C177 C 0.25861 0.63483 0.54634
 O178 O 0.27918 0.67062 0.54269
 O179 O 0.34115 0.73472 0.52873
 C180 C 0.37119 0.74010 0.54269
 O181 O 0.38732 0.72118 0.53577
 O182 O 0.38536 0.65652 0.52395
 C183 C 0.36233 0.62831 0.54151
 O184 O 0.33504 0.60815 0.47421
 O185 O 0.27367 0.61258 0.46417
 C186 C 0.25552 0.63025 0.46082
 O187 O 0.26126 0.65848 0.47864
 O188 O 0.32487 0.72135 0.46533
 C189 C 0.35959 0.73851 0.45742
 O190 O 0.38400 0.73227 0.47096
 O191 O 0.37971 0.66662 0.45947
 C192 C 0.36286 0.63059 0.45641
 Cr193 Cr 0.30032 0.61288 0.50140
 Cr194 Cr 0.30254 0.69521 0.50377
 Cr195 Cr 0.38217 0.69326 0.49767
 O196 O 0.32849 0.66730 0.50090
 C197 C 0.42744 0.56584 0.37538
 N198 N 0.43767 0.57598 0.34388
 N199 N 0.45576 0.56156 0.32731
 C200 C 0.46495 0.53701 0.34175
 N201 N 0.45460 0.52707 0.37332
 N202 N 0.43596 0.54091 0.38967
 C203 C 0.40840 0.58205 0.39437
 N204 N 0.38565 0.56195 0.41962
 N205 N 0.37023 0.57720 0.43853
 C206 C 0.37741 0.61337 0.43326
 N207 N 0.40016 0.63358 0.40794
 N208 N 0.41517 0.61805 0.38865
 C209 C 0.41525 0.86129 0.36881
 N210 N 0.43926 0.86540 0.34424
 N211 N 0.45601 0.89742 0.32667
 C212 C 0.44978 0.92667 0.33335
 N213 N 0.42567 0.92251 0.35788
 N214 N 0.40846 0.89025 0.37512
 C215 C 0.39913 0.82743 0.38980
 N216 N 0.36690 0.81685 0.40693
 N217 N 0.35367 0.78764 0.42770
 C218 C 0.37252 0.76838 0.43248
 N219 N 0.40474 0.77892 0.41532
 N220 N 0.41765 0.80777 0.39416
 C221 C 0.13280 0.57236 0.37300
 N222 N 0.09918 0.56540 0.38542
 N223 N 0.06772 0.54758 0.36769
 C224 C 0.06851 0.53648 0.33657
 N225 N 0.10252 0.54436 0.32388
 N226 N 0.13403 0.56165 0.34186
 C227 C 0.16649 0.58967 0.39389
 N228 N 0.16826 0.61174 0.41948
 N229 N 0.19715 0.62526 0.44027
 C230 C 0.22504 0.61665 0.43661
 N231 N 0.22339 0.59459 0.41096
 N232 N 0.19467 0.58147 0.38984
 C233 C 0.57186 0.44012 0.37895
 N234 N 0.54457 0.44581 0.39194
 N235 N 0.53052 0.46394 0.37512
 C236 C 0.54270 0.47676 0.34437
 N237 N 0.56998 0.47079 0.33133
 N238 N 0.58453 0.45313 0.34839
 C239 C 0.58718 0.42031 0.39808
 N240 N 0.62296 0.42713 0.39311
 N241 N 0.63728 0.41073 0.41210
 C242 C 0.61607 0.38645 0.43633
 N243 N 0.58014 0.37923 0.44089
 N244 N 0.56606 0.39602 0.42226
 C245 C 0.56228 0.13271 0.37199
 N246 N 0.53269 0.10020 0.38412
 N247 N 0.51749 0.06782 0.36707
 C248 C 0.53079 0.06668 0.33695
 N249 N 0.56030 0.09950 0.32478
 N250 N 0.57605 0.13179 0.34212
 C251 C 0.57934 0.16781 0.39145
 N252 N 0.61752 0.19129 0.39233
 N253 N 0.63307 0.22143 0.41226
 C254 C 0.61090 0.22955 0.43144
 N255 N 0.57270 0.20645 0.43007
 N256 N 0.55721 0.17593 0.41062
 C257 C 0.86512 0.42957 0.37111
 N258 N 0.89794 0.45802 0.38371
 N259 N 0.93014 0.47204 0.36705
 C260 C 0.93098 0.45864 0.33686
 N261 N 0.89786 0.43026 0.32412
 N262 N 0.86560 0.41573 0.34105
 C263 C 0.83027 0.41407 0.39047
 N264 N 0.80164 0.37738 0.38668
 N265 N 0.77170 0.36279 0.40655
 C266 C 0.76916 0.38457 0.43056
 N267 N 0.79746 0.42140 0.43386
 N268 N 0.82753 0.43579 0.41432
 C269 C 0.56563 0.43163 1.13131
 N270 N 0.58444 0.45185 1.15823
 N271 N 0.57025 0.46894 1.17653
 C272 C 0.53695 0.46674 1.16836
 N273 N 0.51810 0.44624 1.14160
 N274 N 0.53203 0.42883 1.12355
 C275 C 0.58209 0.41494 1.10961
 N276 N 0.56031 0.38939 1.08638
 N277 N 0.57544 0.37599 1.06512
 C278 C 0.61301 0.38795 1.06605
 N279 N 0.63485 0.41341 1.08938
 N280 N 0.61962 0.42657 1.11086
 C281 C 0.86326 0.43406 1.12819
 N282 N 0.86487 0.41573 1.15530
 N283 N 0.89703 0.42946 1.17217
 C284 C 0.92886 0.46171 1.16229
 N285 N 0.92717 0.47998 1.13518
 N286 N 0.89492 0.46654 1.11857
 C287 C 0.82854 0.41839 1.10857
 N288 N 0.82430 0.44088 1.08650
 N289 N 0.79411 0.42639 1.06708
 C290 C 0.76718 0.38880 1.06875
 N291 N 0.77126 0.36626 1.09096
 N292 N 0.80132 0.38087 1.11068
 C293 C 0.55731 0.13913 1.12741
 N294 N 0.57662 0.13492 1.15241
 N295 N 0.56133 0.10250 1.16943
 C296 C 0.52644 0.07292 1.16172
 N297 N 0.50712 0.07714 1.13670
 N298 N 0.52217 0.10980 1.12001
 C299 C 0.57504 0.17376 1.10733
 N300 N 0.55342 0.18451 1.09037
 N301 N 0.56950 0.21464 1.07053
 C302 C 0.60771 0.23471 1.06657
 N303 N 0.62934 0.22398 1.08356
 N304 N 0.61330 0.19422 1.10380
 C305 C 0.43754 0.57223 1.13049
 N306 N 0.46014 0.59279 1.15580
 N307 N 0.47810 0.57911 1.17349
 C308 C 0.47453 0.54466 1.16616
 N309 N 0.45191 0.52425 1.14088
 N310 N 0.43368 0.53768 1.12349
 C311 C 0.41846 0.58717 1.11000
 N312 N 0.39050 0.56334 1.08935
 N313 N 0.37461 0.57679 1.06902
 C314 C 0.38629 0.61467 1.06837
 N315 N 0.41410 0.63856 1.08920
 N316 N 0.42979 0.62502 1.10978
 C317 C 0.13473 0.56034 1.12495
 N318 N 0.13225 0.53917 1.15152
 N319 N 0.10026 0.52144 1.16885
 C320 C 0.06943 0.52379 1.15994
 N321 N 0.07206 0.54494 1.13335
 N322 N 0.10407 0.56295 1.11628
 C323 C 0.16938 0.57936 1.10508
 N324 N 0.17402 0.60634 1.08300
 N325 N 0.20420 0.62227 1.06352
 C326 C 0.23080 0.61162 1.06520
 N327 N 0.22632 0.58477 1.08743
 N328 N 0.19625 0.56907 1.10715
 C329 C 0.43131 0.86510 1.12357
 N330 N 0.42210 0.89255 1.11842
 N331 N 0.43908 0.92513 1.13524
 C332 C 0.46559 0.93130 1.15810
 N333 N 0.47456 0.90368 1.16350
 N334 N 0.45797 0.87129 1.14630
 C335 C 0.41359 0.83001 1.10397
 N336 N 0.43185 0.81027 1.09856
 N337 N 0.41685 0.77991 1.07889
 C338 C 0.38278 0.76784 1.06438
 N339 N 0.36424 0.78721 1.07025
 N340 N 0.37949 0.81789 1.08953
 C341 C 0.55464 0.41991 0.62301
 N342 N 0.53293 0.40036 0.64902
 N343 N 0.51353 0.41346 0.66536
 C344 C 0.51466 0.44623 0.65593
 N345 N 0.53621 0.46553 0.62980
 N346 N 0.55590 0.45269 0.61373
 C347 C 0.57600 0.40586 0.60457
 N348 N 0.60371 0.42957 0.58370
 N349 N 0.62182 0.41669 0.56537
 C350 C 0.61277 0.37954 0.56706
 N351 N 0.58523 0.35580 0.58813
 N352 N 0.56734 0.36881 0.60675
 C353 C 0.58472 0.13549 0.62838
 N354 N 0.60683 0.13260 0.65166
 N355 N 0.59383 0.10071 0.66933
 C356 C 0.55848 0.07046 0.66399
 N357 N 0.53651 0.07360 0.64082
 N358 N 0.54929 0.10550 0.62348
 C359 C 0.59877 0.16956 0.60767
 N360 N 0.57404 0.17434 0.58902
 N361 N 0.58638 0.20361 0.56844
 C362 C 0.62398 0.22908 0.56548
 N363 N 0.64882 0.22451 0.58428
 N364 N 0.63642 0.19532 0.60512
 C365 C 0.86200 0.43148 0.62910
 N366 N 0.89330 0.42974 0.62096
 N367 N 0.92488 0.44820 0.63855
 C368 C 0.92624 0.46871 0.66523
 N369 N 0.89467 0.46986 0.67379
 N370 N 0.86316 0.45173 0.65593
 C371 C 0.82852 0.41366 0.60785
 N372 N 0.80188 0.42433 0.60926
 N373 N 0.77318 0.41021 0.58809
 C374 C 0.77000 0.38472 0.56495
 N375 N 0.79635 0.37370 0.56389
 N376 N 0.82517 0.38805 0.58482
 C377 C 0.42398 0.56221 0.62416
 N378 N 0.40623 0.54261 0.65159
 N379 N 0.42004 0.52421 0.66850
 C380 C 0.45181 0.52437 0.65836
 N381 N 0.46952 0.54404 0.63096
 N382 N 0.45600 0.56279 0.61429
 C383 C 0.40824 0.58117 0.60449
 N384 N 0.43004 0.60722 0.58163
 N385 N 0.41549 0.62293 0.56228
 C386 C 0.37847 0.61291 0.56481
 N387 N 0.35661 0.58694 0.58778
 N388 N 0.37131 0.57148 0.60740
 C389 C 0.44314 0.86538 0.62884
 N390 N 0.45171 0.89978 0.61636
 N391 N 0.47128 0.93157 0.63375
 C392 C 0.48258 0.93039 0.66466
 N393 N 0.47337 0.89567 0.67738
 N394 N 0.45432 0.86378 0.65969
 C395 C 0.42256 0.83105 0.60858
 N396 N 0.42948 0.80158 0.61056
 N397 N 0.41294 0.77220 0.58982
 C398 C 0.38859 0.77114 0.56671
 N399 N 0.38133 0.80033 0.56517
 N400 N 0.39825 0.82986 0.58551
 C401 C 0.13038 0.57921 0.62765
 N402 N 0.09696 0.55241 0.61458
 N403 N 0.06493 0.53881 0.63145
 C404 C 0.06491 0.55099 0.66232
 N405 N 0.09857 0.57794 0.67540
 N406 N 0.13067 0.59205 0.65829
 C407 C 0.16527 0.59332 0.60859
 N408 N 0.19536 0.62910 0.61305
 N409 N 0.22575 0.64230 0.59378
 C410 C 0.22727 0.61989 0.56981
 N411 N 0.19745 0.58396 0.56584
 N412 N 0.16697 0.57100 0.58474
 C413 C 0.42211 0.55451 0.87146
 N414 N 0.45660 0.55886 0.87801
 N415 N 0.47000 0.54075 0.86030
 C416 C 0.44961 0.51777 0.83516
 N417 N 0.41520 0.51369 0.82829
 N418 N 0.40156 0.53156 0.84629
 C419 C 0.40739 0.57365 0.89218
 N420 N 0.36994 0.56241 0.89244
 N421 N 0.35667 0.57844 0.91303
 C422 C 0.38047 0.60645 0.93385
 N423 N 0.41793 0.61797 0.93320
 N424 N 0.43110 0.60177 0.91286
 C425 C 0.13675 0.56827 0.87140
 N426 N 0.10483 0.53596 0.88084
 N427 N 0.07269 0.52305 0.86420
 C428 C 0.07132 0.54170 0.83722
 N429 N 0.10344 0.57373 0.82745
 N430 N 0.13553 0.58691 0.84434
 C431 C 0.17120 0.58363 0.89135
 N432 N 0.19892 0.62094 0.88906
 N433 N 0.22863 0.63539 0.90916
 C434 C 0.23182 0.61291 0.93202
 N435 N 0.20439 0.57551 0.93391
 N436 N 0.17456 0.56119 0.91407
 C437 C 0.45225 0.86484 0.87483
 N438 N 0.45955 0.89868 0.88784
 N439 N 0.47921 0.93107 0.87122
 C440 C 0.49203 0.93111 0.84063
 N441 N 0.48456 0.89702 0.82757
 N442 N 0.46535 0.86455 0.84446
 C443 C 0.43027 0.82952 0.89372
 N444 N 0.43607 0.79943 0.89041
 N445 N 0.41783 0.76876 0.90958
 C446 C 0.39268 0.76688 0.93229
 N447 N 0.38649 0.79670 0.93511
 N448 N 0.40510 0.82750 0.91635
 C449 C 0.56828 0.43199 0.86611
 N450 N 0.54748 0.41218 0.83979
 N451 N 0.52877 0.42517 0.82236
 C452 C 0.52985 0.45817 0.83088
 N453 N 0.55090 0.47805 0.85705
 N454 N 0.56992 0.46531 0.87422
 C455 C 0.58659 0.41669 0.88702
 N456 N 0.61235 0.43955 0.90959
 N457 N 0.62682 0.42529 0.93058
 C458 C 0.61580 0.38756 0.93002
 N459 N 0.59023 0.36466 0.90726
 N460 N 0.57598 0.37902 0.88603
 C461 C 0.86625 0.44638 0.87699
 N462 N 0.86873 0.46807 0.85082
 N463 N 0.90058 0.48579 0.83334
 C464 C 0.93125 0.48287 0.84171
 N465 N 0.92863 0.46125 0.86793
 N466 N 0.89675 0.44326 0.88515
 C467 C 0.83166 0.42701 0.89680
 N468 N 0.82690 0.39935 0.91815
 N469 N 0.79662 0.38283 0.93746
 C470 C 0.77006 0.39354 0.93635
 N471 N 0.77466 0.42111 0.91487
 N472 N 0.80484 0.43742 0.89529
 C473 C 0.57952 0.13737 0.87357
 N474 N 0.54610 0.10578 0.88141
 N475 N 0.53346 0.07345 0.86458
 C476 C 0.55350 0.07159 0.83894
 N477 N 0.58673 0.10337 0.83079
 N478 N 0.59963 0.13562 0.84792
 C479 C 0.59396 0.17217 0.89348
 N480 N 0.63143 0.19909 0.89372
 N481 N 0.64456 0.22924 0.91362
 C482 C 0.62058 0.23371 0.93369
 N483 N 0.58311 0.20704 0.93304
 N484 N 0.57008 0.17677 0.91345
   
