data_POSCAR
  _audit_creation_date              2014-09-24
  _audit_creation_method            'ToBaCCo'
  _symmetry_space_group_name_H-M    'P1'
  _symmetry_Int_Tables_number       1
  _symmetry_cell_setting            triclinic
  loop_
  _symmetry_equiv_pos_as_xyz
 x,y,z
_cell_length_a 45.9767
_cell_length_b 45.9261
_cell_length_c 46.2673
_cell_angle_alpha 90.078900
_cell_angle_beta 90.110000
_cell_angle_gamma 89.962100
loop_
  _atom_site_label
  _atom_site_type_symbol
  _atom_site_fract_x
  _atom_site_fract_y
  _atom_site_fract_z
C1 C 0.34337 0.34096 1.37725
 C2 C 0.31844 0.35210 1.39083
 C3 C 0.30393 0.37699 1.38001
 C4 C 0.31568 0.39073 1.35529
 C5 C 0.34060 0.37983 1.34159
 C6 C 0.35452 0.35486 1.35260
 C7 C 0.35702 0.31580 1.38785
 C8 C 0.38185 0.30390 1.37417
 C9 C 0.39292 0.31849 1.34963
 C10 C 0.37944 0.34367 1.33881
 C11 C 0.39020 0.35748 1.31398
 C12 C 0.37638 0.38237 1.30275
 C13 C 0.35169 0.39349 1.31684
 H14 H 0.30967 0.34018 1.40899
 H15 H 0.30616 0.41057 1.34695
 H16 H 0.34857 0.30623 1.40746
 H17 H 0.41121 0.30970 1.33780
 H18 H 0.40899 0.34849 1.30301
 H19 H 0.34110 0.41286 1.30854
 C20 C 1.15473 0.65820 0.88034
 C21 C 1.17950 0.64721 0.89440
 C22 C 1.19453 0.62260 0.88364
 C23 C 1.18363 0.60909 0.85833
 C24 C 1.15896 0.61992 0.84405
 C25 C 1.14453 0.64463 0.85503
 C26 C 1.14031 0.68288 0.89113
 C27 C 1.11574 0.69469 0.87685
 C28 C 1.10583 0.68060 0.85148
 C29 C 1.12002 0.65590 0.84054
 C30 C 1.11012 0.64241 0.81515
 C31 C 1.12455 0.61792 0.80384
 C32 C 1.14889 0.60673 0.81853
 H33 H 1.18627 0.65751 0.91435
 H34 H 1.19500 0.59094 0.84858
 H35 H 1.14944 0.69357 0.90991
 H36 H 1.08644 0.68808 0.84046
 H37 H 1.09110 0.65096 0.80417
 H38 H 1.16037 0.58809 0.80976
 C39 C 0.65535 -0.15958 0.12137
 C40 C 0.68062 -0.14895 0.10805
 C41 C 0.69544 -0.12477 0.11952
 C42 C 0.68447 -0.11098 0.14438
 C43 C 0.65929 -0.12137 0.15794
 C44 C 0.64473 -0.14584 0.14646
 C45 C 0.64099 -0.18414 0.11030
 C46 C 0.61597 -0.19563 0.12395
 C47 C 0.60556 -0.18129 0.14897
 C48 C 0.61974 -0.15674 0.16025
 C49 C 0.60938 -0.14305 0.18534
 C50 C 0.62385 -0.11874 0.19704
 C51 C 0.64872 -0.10794 0.18307
 H52 H 0.68915 -0.15992 0.08912
 H53 H 0.69553 -0.09209 0.15316
 H54 H 0.65048 -0.19499 0.09181
 H55 H 0.58582 -0.18850 0.15945
 H56 H 0.59000 -0.15131 0.19580
 H57 H 0.66027 -0.08949 0.19215
 C58 C -0.15481 1.15934 -0.37895
 C59 C -0.17956 1.14850 -0.39311
 C60 C -0.19465 1.12390 -0.38251
 C61 C -0.18381 1.11026 -0.35726
 C62 C -0.15911 1.12092 -0.34288
 C63 C -0.14458 1.14558 -0.35371
 C64 C -0.14027 1.18397 -0.38955
 C65 C -0.11576 1.19521 -0.37512
 C66 C -0.10570 1.18131 -0.34996
 C67 C -0.11997 1.15665 -0.33914
 C68 C -0.11017 1.14308 -0.31380
 C69 C -0.12472 1.11864 -0.30264
 C70 C -0.14909 1.10760 -0.31743
 H71 H -0.18627 1.15893 -0.41299
 H72 H -0.19525 1.09213 -0.34763
 H73 H -0.14847 1.19484 -0.40869
 H74 H -0.08666 1.18964 -0.33884
 H75 H -0.09113 1.15151 -0.30277
 H76 H -0.16065 1.08900 -0.30877
 C77 C 0.65960 0.66140 0.62393
 C78 C 0.68468 0.64975 0.61106
 C79 C 0.69837 0.62503 0.62278
 C80 C 0.68651 0.61182 0.64749
 C81 C 0.66150 0.62324 0.66060
 C82 C 0.64805 0.64819 0.64884
 C83 C 0.64632 0.68640 0.61254
 C84 C 0.62144 0.69882 0.62568
 C85 C 0.61008 0.68502 0.65054
 C86 C 0.62320 0.66005 0.66214
 C87 C 0.61186 0.64686 0.68701
 C88 C 0.62519 0.62207 0.69897
 C89 C 0.64996 0.61031 0.68552
 H90 H 0.69391 0.66029 0.59225
 H91 H 0.69670 0.59254 0.65646
 H92 H 0.65649 0.69679 0.59418
 H93 H 0.59038 0.69294 0.66061
 H94 H 0.59256 0.65585 0.69707
 H95 H 0.66064 0.59147 0.69482
 C96 C 0.84072 0.33942 0.12348
 C97 C 0.81585 0.35116 0.11025
 C98 C 0.80176 0.37602 0.12170
 C99 C 0.81379 0.38904 0.14673
 C100 C 0.83866 0.37754 0.16008
 C101 C 0.85220 0.35265 0.14842
 C102 C 0.85400 0.31436 0.11221
 C103 C 0.87883 0.30193 0.12547
 C104 C 0.89022 0.31584 0.15035
 C105 C 0.87710 0.34089 0.16183
 C106 C 0.88823 0.35404 0.18693
 C107 C 0.87479 0.37884 0.19878
 C108 C 0.85011 0.39054 0.18508
 H109 H 0.80682 0.33975 0.09184
 H110 H 0.80456 0.40881 0.15557
 H111 H 0.84531 0.30529 0.09241
 H112 H 0.90850 0.30658 0.16190
 H113 H 0.90702 0.34464 0.19758
 H114 H 0.83983 0.40985 0.19388
 C115 C 0.33966 0.16033 0.87604
 C116 C 0.31478 0.14885 0.88928
 C117 C 0.30079 0.12376 0.87822
 C118 C 0.31291 0.11027 0.85348
 C119 C 0.33780 0.12157 0.84005
 C120 C 0.35124 0.14668 0.85134
 C121 C 0.35305 0.18543 0.88710
 C122 C 0.37775 0.19727 0.87364
 C123 C 0.38923 0.18345 0.84904
 C124 C 0.37614 0.15828 0.83780
 C125 C 0.38728 0.14480 0.81297
 C126 C 0.37385 0.11987 0.80138
 C127 C 0.34917 0.10834 0.81515
 H128 H 0.30709 0.15920 0.90886
 H129 H 0.30236 0.09174 0.84353
 H130 H 0.34428 0.19575 0.90628
 H131 H 0.40802 0.19265 0.83828
 H132 H 0.40606 0.15409 0.80227
 H133 H 0.33890 0.08893 0.80654
 C134 C 0.15929 0.83929 0.37679
 C135 C 0.18443 0.85081 0.38972
 C136 C 0.19835 0.87530 0.37789
 C137 C 0.18666 0.88842 0.35301
 C138 C 0.16159 0.87714 0.33983
 C139 C 0.14791 0.85241 0.35170
 C140 C 0.14578 0.81450 0.38828
 C141 C 0.12084 0.80221 0.37507
 C142 C 0.10965 0.81593 0.35004
 C143 C 0.12299 0.84068 0.33833
 C144 C 0.11182 0.85379 0.31329
 C145 C 0.12539 0.87836 0.30123
 C146 C 0.15022 0.88998 0.31475
 H147 H 0.19354 0.84032 0.40866
 H148 H 0.19702 0.90753 0.34395
 H149 H 0.15582 0.80416 0.40678
 H150 H 0.08991 0.80812 0.33990
 H151 H 0.09247 0.84490 0.30318
 H152 H 0.16108 0.90865 0.30537
 Zn153 Zn 0.00459 1.03460 -0.01727
 Zn154 Zn -0.02422 0.97634 -0.02278
 Zn155 Zn 0.03431 0.98175 0.00528
 Zn156 Zn -0.01803 1.00493 0.03515
 O157 O -0.00089 0.99936 0.00005
 O158 O -0.01385 1.03717 -0.05111
 O159 O -0.00658 0.94303 -0.03352
 O160 O 0.06408 1.00278 -0.00826
 O161 O -0.03517 0.99425 -0.05566
 O162 O 0.04199 1.04208 -0.02491
 O163 O 0.03649 0.94742 -0.01261
 O164 O 0.00340 0.99157 0.06465
 O165 O -0.05727 0.96573 -0.00484
 O166 O 0.04236 0.97451 0.04245
 O167 O -0.05228 0.98694 0.03782
 O168 O -0.02516 1.04244 0.04290
 O169 O -0.00838 1.06454 0.00397
 C170 C -0.02966 1.01955 -0.06529
 C171 C 0.01866 0.93314 -0.02806
 C172 C 0.06501 1.02747 -0.02051
 C173 C 0.02809 0.97923 0.06544
 C174 C -0.06678 0.97132 0.02034
 C175 C -0.02048 1.06552 0.02859
 Zn176 Zn 0.49559 -0.03417 0.48253
 Zn177 Zn 0.51852 -0.00419 0.53481
 Zn178 Zn 0.52413 0.02416 0.47680
 Zn179 Zn 0.46582 0.01865 0.50509
 O180 O 0.50106 0.00117 0.49976
 O181 O 0.50902 -0.06392 0.50367
 O182 O 0.55270 0.01397 0.53731
 O183 O 0.53485 0.00614 0.44389
 O184 O 0.52597 -0.04164 0.54254
 O185 O 0.51361 -0.03678 0.44856
 O186 O 0.55731 0.03495 0.49456
 O187 O 0.46333 0.05283 0.48700
 O188 O 0.49724 0.00917 0.56438
 O189 O 0.50626 0.05731 0.46598
 O190 O 0.45809 0.02608 0.54228
 O191 O 0.43600 -0.00266 0.49184
 O192 O 0.45816 -0.04195 0.47524
 C193 C 0.52137 -0.06477 0.52821
 C194 C 0.56704 0.02951 0.51972
 C195 C 0.52925 -0.01919 0.43429
 C196 C 0.48097 0.06708 0.47141
 C197 C 0.47251 0.02145 0.56524
 C198 C 0.43509 -0.02746 0.47973
 Zn199 Zn 0.96571 0.48230 0.49502
 Zn200 Zn 1.02429 0.47683 0.52305
 Zn201 Zn 1.01805 0.50556 0.46529
 Zn202 Zn 0.99540 0.53509 0.51784
 O203 O 1.00091 0.49989 0.50035
 O204 O 0.96351 0.44801 0.51294
 O205 O 1.05739 0.46626 0.50509
 O206 O 0.99673 0.49214 0.43573
 O207 O 1.00666 0.44353 0.53368
 O208 O 0.95783 0.47491 0.45781
 O209 O 1.05233 0.48763 0.46257
 O210 O 1.00852 0.56505 0.49685
 O211 O 1.03517 0.49464 0.55603
 O212 O 1.02518 0.54308 0.45773
 O213 O 1.01369 0.53752 0.55178
 O214 O 0.95798 0.54266 0.52530
 O215 O 0.93588 0.50344 0.50844
 C216 C 0.98138 0.43371 0.52831
 C217 C 1.06688 0.47197 0.47994
 C218 C 0.97213 0.47965 0.43486
 C219 C 1.02062 0.56610 0.47224
 C220 C 1.02954 0.51988 0.56585
 C221 C 0.93494 0.52815 0.52074
 Zn222 Zn 0.50532 0.46468 1.01661
 Zn223 Zn 0.47651 0.52289 1.02263
 Zn224 Zn 0.53475 0.51768 0.99419
 Zn225 Zn 0.48213 0.49470 0.96449
 O226 O 0.49963 0.50003 0.99953
 O227 O 0.48740 0.46194 1.05066
 O228 O 0.49413 0.55622 1.03332
 O229 O 0.56469 0.49655 1.00741
 O230 O 0.46613 0.50486 1.05557
 O231 O 0.54281 0.45711 1.02384
 O232 O 0.53705 0.55194 1.01223
 O233 O 0.50324 0.50826 0.93493
 O234 O 0.44315 0.53343 1.00506
 O235 O 0.54241 0.52511 0.95703
 O236 O 0.44777 0.51261 0.96218
 O237 O 0.47499 0.45723 0.95657
 O238 O 0.49209 0.43490 0.99531
 C239 C 0.47183 0.47953 1.06508
 C240 C 0.51930 0.56616 1.02778
 C241 C 0.56577 0.47175 1.01942
 C242 C 0.52793 0.52056 0.93408
 C243 C 0.43337 0.52799 0.97992
 C244 C 0.47977 0.43408 0.97075
 C245 C 1.22602 0.40792 0.41910
 C246 C 1.23152 0.41339 0.38995
 C247 C 1.25714 0.40342 0.37714
 C248 C 1.27804 0.38758 0.39324
 C249 C 1.27203 0.38239 0.42282
 C250 C 1.24632 0.39248 0.43553
 C251 C 1.19935 0.41814 0.43185
 C252 C 1.17669 0.42708 0.44149
 C253 C 1.14932 0.43832 0.45164
 C254 C 1.13264 0.45591 0.43337
 C255 C 1.10590 0.46682 0.44265
 C256 C 1.09537 0.46030 0.47044
 C257 C 1.11231 0.44261 0.48875
 C258 C 1.13914 0.43168 0.47937
 H259 H 1.21579 0.42513 0.37695
 H260 H 1.25962 0.40716 0.35421
 H261 H 1.28748 0.37148 0.43671
 H262 H 1.24238 0.38834 0.45823
 H263 H 1.14029 0.46116 0.41186
 H264 H 1.09348 0.48036 0.42798
 H265 H 1.10483 0.43719 0.51026
 H266 H 1.15189 0.41805 0.49369
 C267 C 0.27220 0.59149 0.92326
 C268 C 0.25452 0.57252 0.90748
 C269 C 0.22882 0.58257 0.89477
 C270 C 0.22013 0.61203 0.89751
 C271 C 0.23815 0.63072 0.91408
 C272 C 0.26388 0.62053 0.92669
 C273 C 0.29944 0.58131 0.93487
 C274 C 0.32248 0.57245 0.94374
 C275 C 0.35021 0.56141 0.95320
 C276 C 0.36676 0.54431 0.93436
 C277 C 0.39377 0.53350 0.94310
 C278 C 0.40468 0.53964 0.97090
 C279 C 0.38788 0.55686 0.98974
 C280 C 0.36080 0.56768 0.98091
 H281 H 0.26067 0.54989 0.90485
 H282 H 0.21550 0.56676 0.88357
 H283 H 0.23348 0.65369 0.91625
 H284 H 0.27759 0.63550 0.93864
 H285 H 0.35879 0.53933 0.91286
 H286 H 0.40608 0.52032 0.92803
 H287 H 0.39565 0.56198 1.01127
 H288 H 0.34816 0.58093 0.99567
 C289 C -0.22530 0.90561 0.08066
 C290 C -0.24876 0.89735 0.06315
 C291 C -0.27458 0.88742 0.07572
 C292 C -0.27723 0.88572 0.10598
 C293 C -0.25347 0.89399 0.12334
 C294 C -0.22772 0.90387 0.11074
 C295 C -0.19875 0.91622 0.06805
 C296 C -0.17620 0.92548 0.05850
 C297 C -0.14896 0.93704 0.04842
 C298 C -0.13245 0.95471 0.06680
 C299 C -0.10581 0.96586 0.05759
 C300 C -0.09521 0.95950 0.02976
 C301 C -0.11200 0.94175 0.01134
 C302 C -0.13873 0.93058 0.02065
 H303 H -0.24714 0.89871 0.03984
 H304 H -0.29259 0.88147 0.06182
 H305 H -0.25467 0.89250 0.14666
 H306 H -0.20968 0.91015 0.12450
 H307 H -0.14015 0.95983 0.08834
 H308 H -0.09350 0.97944 0.07233
 H309 H -0.10446 0.93644 -0.01019
 H310 H -0.15134 0.91689 0.00625
 C311 C 0.72777 0.09312 0.57743
 C312 C 0.74536 0.07406 0.59317
 C313 C 0.77103 0.08401 0.60603
 C314 C 0.77976 0.11345 0.60350
 C315 C 0.76182 0.13224 0.58698
 C316 C 0.73613 0.12216 0.57422
 C317 C 0.70058 0.08304 0.56563
 C318 C 0.67758 0.07423 0.55660
 C319 C 0.64990 0.06320 0.54698
 C320 C 0.63331 0.04606 0.56568
 C321 C 0.60640 0.03520 0.55677
 C322 C 0.59560 0.04131 0.52894
 C323 C 0.61242 0.05859 0.51023
 C324 C 0.63943 0.06947 0.51923
 H325 H 0.73918 0.05144 0.59563
 H326 H 0.78428 0.06813 0.61718
 H327 H 0.76653 0.15521 0.58497
 H328 H 0.72248 0.13720 0.56230
 H329 H 0.64120 0.04108 0.58720
 H330 H 0.59407 0.02197 0.57173
 H331 H 0.60475 0.06369 0.48868
 H332 H 0.65210 0.08274 0.50458
 C333 C 0.42075 0.22570 0.40510
 C334 C 0.39137 0.23136 0.41023
 C335 C 0.37861 0.25701 0.40016
 C336 C 0.39499 0.27782 0.38459
 C337 C 0.42475 0.27161 0.37961
 C338 C 0.43742 0.24586 0.38980
 C339 C 0.43346 0.19909 0.41564
 C340 C 0.44304 0.17651 0.42494
 C341 C 0.45307 0.14925 0.43661
 C342 C 0.43453 0.13304 0.45429
 C343 C 0.44369 0.10640 0.46562
 C344 C 0.47162 0.09551 0.45942
 C345 C 0.49020 0.11200 0.44167
 C346 C 0.48094 0.13872 0.43033
 H347 H 0.37817 0.21573 0.42184
 H348 H 0.35552 0.25961 0.40368
 H349 H 0.43884 0.28697 0.36883
 H350 H 0.46029 0.24179 0.38590
 H351 H 0.41291 0.14096 0.45929
 H352 H 0.42882 0.09433 0.47919
 H353 H 0.51182 0.10423 0.43649
 H354 H 0.49547 0.15110 0.41664
 C355 C 0.92455 0.27344 0.59344
 C356 C 0.92063 0.26937 0.62315
 C357 C 0.90790 0.24376 0.63341
 C358 C 0.89884 0.22189 0.61406
 C359 C 0.90323 0.22604 0.58425
 C360 C 0.91598 0.25166 0.57404
 C361 C 0.93612 0.30048 0.58276
 C362 C 0.94501 0.32335 0.57357
 C363 C 0.95455 0.35089 0.56221
 C364 C 0.98241 0.36155 0.56842
 C365 C 0.99128 0.38850 0.55741
 C366 C 0.97234 0.40511 0.54006
 C367 C 0.94442 0.39411 0.53396
 C368 C 0.93564 0.36723 0.54496
 H369 H 0.92700 0.28618 0.63835
 H370 H 0.90447 0.24139 0.65644
 H371 H 0.89681 0.20946 0.56886
 H372 H 0.91887 0.25460 0.55099
 H373 H 0.99722 0.34907 0.58179
 H374 H 1.01291 0.39634 0.56251
 H375 H 0.92928 0.40628 0.52068
 H376 H 0.91402 0.35921 0.54003
 C377 C 0.07576 0.77221 -0.09192
 C378 C 0.09040 0.75371 -0.07288
 C379 C 0.10324 0.72807 -0.08299
 C380 C 0.10178 0.72028 -0.11258
 C381 C 0.08637 0.73914 -0.13137
 C382 C 0.07362 0.76479 -0.12111
 C383 C 0.06404 0.79938 -0.08161
 C384 C 0.05508 0.82237 -0.07269
 C385 C 0.04553 0.85005 -0.06159
 C386 C 0.06442 0.86650 -0.04439
 C387 C 0.05563 0.89348 -0.03355
 C388 C 0.02772 0.90447 -0.03975
 C389 C 0.00881 0.88778 -0.05707
 C390 C 0.01770 0.86071 -0.06792
 H391 H 0.09203 0.75917 -0.05014
 H392 H 0.11350 0.71410 -0.06719
 H393 H 0.08525 0.73519 -0.15438
 H394 H 0.06259 0.77915 -0.13613
 H395 H 0.08602 0.85848 -0.03937
 H396 H 0.07075 0.90571 -0.02030
 H397 H -0.01280 0.89561 -0.06223
 H398 H 0.00290 0.84815 -0.08124
 C399 C 0.57624 0.72697 1.09210
 C400 C 0.57342 0.73462 1.12117
 C401 C 0.58607 0.76024 1.13162
 C402 C 0.60207 0.77885 1.11314
 C403 C 0.60421 0.77085 1.08366
 C404 C 0.59146 0.74523 1.07336
 C405 C 0.56460 0.69983 1.08165
 C406 C 0.55567 0.67686 1.07263
 C407 C 0.54614 0.64920 1.06145
 C408 C 0.51840 0.63845 1.06787
 C409 C 0.50953 0.61140 1.05697
 C410 C 0.52836 0.59481 1.03951
 C411 C 0.55617 0.60589 1.03322
 C412 C 0.56495 0.63286 1.04411
 H413 H 0.56192 0.72045 1.13596
 H414 H 0.58441 0.76436 1.15456
 H415 H 0.61495 0.78463 1.06806
 H416 H 0.59362 0.73960 1.05071
 H417 H 0.50367 0.65093 1.08130
 H418 H 0.48799 0.60350 1.06220
 H419 H 0.57123 0.59374 1.01986
 H420 H 0.58647 0.64095 1.03903
 C421 C 0.40795 0.42138 1.22439
 C422 C 0.37803 0.41837 1.22894
 C423 C 0.36775 0.40596 1.25454
 C424 C 0.38731 0.39633 1.27594
 C425 C 0.41736 0.39969 1.27126
 C426 C 0.42758 0.41213 1.24565
 C427 C 0.41854 0.43294 1.19749
 C428 C 0.42757 0.44194 1.17474
 C429 C 0.43865 0.45174 1.14735
 C430 C 0.43207 0.47964 1.13703
 C431 C 0.44282 0.48882 1.11024
 C432 C 0.46027 0.47014 1.09346
 C433 C 0.46672 0.44216 1.10411
 C434 C 0.45598 0.43307 1.13082
 H435 H 0.36265 0.42527 1.21256
 H436 H 0.34453 0.40330 1.25731
 H437 H 0.43293 0.39281 1.28746
 H438 H 0.45080 0.41432 1.24233
 H439 H 0.41863 0.49427 1.14965
 H440 H 0.43746 0.51047 1.10269
 H441 H 0.48009 0.42721 1.09180
 H442 H 0.46119 0.41143 1.13857
 C443 C 0.59386 -0.07973 0.27611
 C444 C 0.59436 -0.11004 0.27307
 C445 C 0.60405 -0.12268 0.24736
 C446 C 0.61340 -0.10516 0.22426
 C447 C 0.61289 -0.07468 0.22753
 C448 C 0.60314 -0.06205 0.25330
 C449 C 0.58354 -0.06705 0.30265
 C450 C 0.57451 -0.05745 0.32518
 C451 C 0.56318 -0.04736 0.35239
 C452 C 0.54567 -0.06590 0.36878
 C453 C 0.53466 -0.05667 0.39535
 C454 C 0.54102 -0.02865 0.40599
 C455 C 0.55864 -0.01007 0.38934
 C456 C 0.56966 -0.01941 0.36268
 H457 H 0.58728 -0.12393 0.29061
 H458 H 0.60461 -0.14620 0.24569
 H459 H 0.61968 -0.06062 0.21003
 H460 H 0.60276 -0.03856 0.25540
 H461 H 0.54054 -0.08758 0.36104
 H462 H 0.52118 -0.07154 0.40755
 H463 H 0.56394 0.01161 0.39692
 H464 H 0.58324 -0.00488 0.35015
 C465 C -0.09560 1.07970 -0.22319
 C466 C -0.09659 1.11002 -0.22600
 C467 C -0.10611 1.12263 -0.25179
 C468 C -0.11477 1.10508 -0.27521
 C469 C -0.11387 1.07459 -0.27215
 C470 C -0.10429 1.06200 -0.24629
 C471 C -0.08519 1.06707 -0.19665
 C472 C -0.07601 1.05754 -0.17414
 C473 C -0.06446 1.04753 -0.14697
 C474 C -0.04679 1.06612 -0.13067
 C475 C -0.03551 1.05695 -0.10417
 C476 C -0.04173 1.02896 -0.09351
 C477 C -0.05951 1.01033 -0.11006
 C478 C -0.07081 1.01960 -0.13665
 H479 H -0.08996 1.12393 -0.20825
 H480 H -0.10698 1.14614 -0.25331
 H481 H -0.12014 1.06052 -0.28989
 H482 H -0.10351 1.03850 -0.24437
 H483 H -0.04175 1.08779 -0.13844
 H484 H -0.02191 1.07186 -0.09204
 H485 H -0.06471 0.98866 -0.10247
 H486 H -0.08450 1.00503 -0.14910
 C487 C 1.09526 0.57937 0.72419
 C488 C 1.10388 0.56155 0.74719
 C489 C 1.11350 0.57402 0.77312
 C490 C 1.11452 0.60449 0.77635
 C491 C 1.10593 0.62216 0.75303
 C492 C 1.09637 0.60967 0.72717
 C493 C 1.08484 0.56687 0.69757
 C494 C 1.07568 0.55743 0.67500
 C495 C 1.06415 0.54753 0.64776
 C496 C 1.07063 0.51967 0.63723
 C497 C 1.05939 0.51051 0.61056
 C498 C 1.04154 0.52917 0.59415
 C499 C 1.03517 0.55708 0.60504
 C500 C 1.04640 0.56615 0.63161
 H501 H 1.10302 0.53806 0.74514
 H502 H 1.11971 0.55987 0.79079
 H503 H 1.10689 0.64566 0.75468
 H504 H 1.08980 0.62366 0.70949
 H505 H 1.08439 0.50508 0.64957
 H506 H 1.06470 0.48890 0.60280
 H507 H 1.02151 0.57201 0.59302
 H508 H 1.04126 0.58775 0.63955
 C509 C 0.77696 0.59194 0.58468
 C510 C 0.75392 0.60090 0.56698
 C511 C 0.72828 0.61157 0.57933
 C512 C 0.72538 0.61336 0.60955
 C513 C 0.74865 0.60420 0.62713
 C514 C 0.77425 0.59357 0.61475
 C515 C 0.80352 0.58126 0.57211
 C516 C 0.82600 0.57235 0.56204
 C517 C 0.85309 0.56174 0.55061
 C518 C 0.85422 0.53485 0.53638
 C519 C 0.88078 0.52406 0.52628
 C520 C 0.90659 0.54005 0.53034
 C521 C 0.90513 0.56723 0.54436
 C522 C 0.87856 0.57796 0.55443
 H523 H 0.75578 0.59967 0.54367
 H524 H 0.71062 0.61815 0.56525
 H525 H 0.74725 0.60570 0.65044
 H526 H 0.79200 0.58679 0.62864
 H527 H 0.83463 0.52210 0.53336
 H528 H 0.88114 0.50307 0.51559
 H529 H 0.92456 0.58009 0.54784
 H530 H 0.87793 0.59877 0.56546
 C531 C 0.72422 0.40877 1.08324
 C532 C 0.72980 0.41356 1.11252
 C533 C 0.75534 0.40303 1.12515
 C534 C 0.77601 0.38729 1.10870
 C535 C 0.76995 0.38288 1.07899
 C536 C 0.74436 0.39352 1.06648
 C537 C 0.69758 0.41921 1.07059
 C538 C 0.67504 0.42795 1.06048
 C539 C 0.64788 0.43840 1.04901
 C540 C 0.64656 0.46536 1.03501
 C541 C 0.61992 0.47605 1.02497
 C542 C 0.59421 0.45990 1.02887
 C543 C 0.59586 0.43264 1.04264
 C544 C 0.62252 0.42200 1.05265
 H545 H 0.71418 0.42514 1.12577
 H546 H 0.75790 0.40623 1.14816
 H547 H 0.78528 0.37213 1.06485
 H548 H 0.74034 0.38990 1.04368
 H549 H 0.66606 0.47825 1.03214
 H550 H 0.61941 0.49711 1.01447
 H551 H 0.57650 0.41966 1.04600
 H552 H 0.62330 0.40113 1.06351
 C553 C 0.22331 1.09098 -0.08361
 C554 C 0.24174 1.07232 -0.09885
 C555 C 0.26731 1.08296 -0.11126
 C556 C 0.27508 1.11268 -0.10869
 C557 C 0.25615 1.13110 -0.09290
 C558 C 0.23060 1.12032 -0.08060
 C559 C 0.19659 1.08017 -0.07159
 C560 C 0.17401 1.07124 -0.06182
 C561 C 0.14686 1.06065 -0.05057
 C562 C 0.14567 1.03377 -0.03644
 C563 C 0.11911 1.02311 -0.02630
 C564 C 0.09335 1.03922 -0.03023
 C565 C 0.09485 1.06638 -0.04421
 C566 C 0.12144 1.07699 -0.05431
 H567 H 0.23638 1.04945 -0.10113
 H568 H 0.28130 1.06740 -0.12195
 H569 H 0.26004 1.15423 -0.09102
 H570 H 0.21630 1.13505 -0.06906
 H571 H 0.16523 1.02094 -0.03346
 H572 H 0.11871 1.00213 -0.01566
 H573 H 0.07545 1.07933 -0.04759
 H574 H 0.12212 1.09782 -0.06525
 C575 C 0.27708 -0.09186 0.41615
 C576 C 0.27443 -0.09379 0.38608
 C577 C 0.24880 -0.10437 0.37365
 C578 C 0.22543 -0.11318 0.39117
 C579 C 0.22828 -0.11112 0.42140
 C580 C 0.25396 -0.10051 0.43379
 C581 C 0.30363 -0.08114 0.42875
 C582 C 0.32611 -0.07217 0.43881
 C583 C 0.35321 -0.06145 0.45021
 C584 C 0.37872 -0.07765 0.44649
 C585 C 0.40530 -0.06679 0.45646
 C586 C 0.40673 -0.03950 0.47028
 C587 C 0.38089 -0.02355 0.47425
 C588 C 0.35432 -0.03447 0.46424
 H589 H 0.29223 -0.08726 0.37222
 H590 H 0.24743 -0.10609 0.35034
 H591 H 0.21056 -0.11744 0.43543
 H592 H 0.25577 -0.09904 0.45710
 H593 H 0.37811 -0.09855 0.43561
 H594 H 0.42476 -0.07964 0.45305
 H595 H 0.38123 -0.00248 0.48478
 H596 H 0.33470 -0.02172 0.46718
 C597 C 0.58371 -0.22339 0.59254
 C598 C 0.59902 -0.24206 0.57422
 C599 C 0.61129 -0.26772 0.58497
 C600 C 0.60849 -0.27536 0.61448
 C601 C 0.59263 -0.25619 0.63256
 C602 C 0.58047 -0.23054 0.62167
 C603 C 0.57183 -0.19658 0.58161
 C604 C 0.56217 -0.17395 0.57257
 C605 C 0.55106 -0.14673 0.56183
 C606 C 0.55504 -0.12118 0.57785
 C607 C 0.54507 -0.09455 0.56710
 C608 C 0.53097 -0.09313 0.54011
 C609 C 0.52679 -0.11902 0.52430
 C610 C 0.53680 -0.14563 0.53511
 H611 H 0.60147 -0.23682 0.55152
 H612 H 0.62203 -0.28189 0.56966
 H613 H 0.59059 -0.25997 0.65552
 H614 H 0.56888 -0.21606 0.63614
 H615 H 0.56608 -0.12180 0.59855
 H616 H 0.54864 -0.07506 0.57981
 H617 H 0.51604 -0.11870 0.50346
 H618 H 0.53363 -0.16529 0.52252
 C619 C 1.08259 0.72488 0.40841
 C620 C 1.09795 0.74355 0.42673
 C621 C 1.11037 0.76908 0.41591
 C622 C 1.10768 0.77657 0.38634
 C623 C 1.09175 0.75741 0.36828
 C624 C 1.07944 0.73190 0.37923
 C625 C 1.07064 0.69814 0.41936
 C626 C 1.06097 0.67552 0.42838
 C627 C 1.04990 0.64828 0.43899
 C628 C 1.05365 0.62284 0.42274
 C629 C 1.04378 0.59616 0.43337
 C630 C 1.03001 0.59455 0.46047
 C631 C 1.02603 0.62033 0.47650
 C632 C 1.03594 0.64700 0.46581
 H633 H 1.10034 0.73840 0.44946
 H634 H 1.12116 0.78325 0.43120
 H635 H 1.08977 0.76107 0.34528
 H636 H 1.06781 0.71741 0.36476
 H637 H 1.06445 0.62359 0.40196
 H638 H 1.04720 0.57675 0.42049
 H639 H 1.01554 0.61986 0.49743
 H640 H 1.03295 0.66657 0.47857
 C641 C -0.08306 1.22409 0.09281
 C642 C -0.06615 1.24390 0.10840
 C643 C -0.07854 1.26956 0.11907
 C644 C -0.10830 1.27604 0.11434
 C645 C -0.12492 1.25565 0.09834
 C646 C -0.11241 1.23005 0.08779
 C647 C -0.07054 1.19742 0.08222
 C648 C -0.06058 1.17486 0.07330
 C649 C -0.04935 1.14766 0.06260
 C650 C -0.05324 1.12214 0.07861
 C651 C -0.04349 1.09547 0.06774
 C652 C -0.02972 1.09396 0.04063
 C653 C -0.02556 1.11981 0.02487
 C654 C -0.03535 1.14647 0.03579
 H655 H -0.04329 1.23959 0.11223
 H656 H -0.06426 1.28464 0.13008
 H657 H -0.14801 1.25850 0.09491
 H658 H -0.12580 1.21468 0.07596
 H659 H -0.06411 1.12282 0.09936
 H660 H -0.04703 1.07600 0.08043
 H661 H -0.01506 1.11942 0.00394
 H662 H -0.03229 1.16610 0.02320
 C663 C 0.41634 0.27606 0.90605
 C664 C 0.43409 0.25303 0.89700
 C665 C 0.42159 0.22734 0.88649
 C666 C 0.39116 0.22439 0.88496
 C667 C 0.37354 0.24768 0.89414
 C668 C 0.38607 0.27332 0.90461
 C669 C 0.42903 0.30261 0.91674
 C670 C 0.43912 0.32509 0.92572
 C671 C 0.45050 0.35219 0.93649
 C672 C 0.44649 0.37780 0.92063
 C673 C 0.45637 0.40439 0.93157
 C674 C 0.47041 0.40572 0.95861
 C675 C 0.47469 0.37978 0.97422
 C676 C 0.46477 0.35320 0.96321
 H677 H 0.45755 0.25492 0.89808
 H678 H 0.43570 0.20967 0.87986
 H679 H 0.35007 0.24624 0.89283
 H680 H 0.37214 0.29106 0.91147
 H681 H 0.43541 0.37726 0.89994
 H682 H 0.45273 0.42393 0.91900
 H683 H 0.48540 0.38004 0.99508
 H684 H 0.46793 0.33350 0.97569
 C685 C 0.59221 0.58405 0.77716
 C686 C 0.60129 0.56611 0.75442
 C687 C 0.61195 0.57843 0.72892
 C688 C 0.61360 0.60887 0.72586
 C689 C 0.60436 0.62668 0.74885
 C690 C 0.59374 0.61433 0.77430
 C691 C 0.58147 0.57153 0.80355
 C692 C 0.57249 0.56153 0.82589
 C693 C 0.56178 0.55019 0.85281
 C694 C 0.53488 0.53600 0.85386
 C695 C 0.52399 0.52600 0.88024
 C696 C 0.53990 0.53012 0.90595
 C697 C 0.56709 0.54412 0.90459
 C698 C 0.57791 0.55409 0.87819
 H699 H 0.60014 0.54264 0.75640
 H700 H 0.61861 0.56417 0.71148
 H701 H 0.60577 0.65016 0.74732
 H702 H 0.58687 0.62841 0.79182
 H703 H 0.52219 0.53293 0.83433
 H704 H 0.50300 0.51532 0.88053
 H705 H 0.57989 0.54764 0.92395
 H706 H 0.59874 0.56510 0.87762
 C707 C 0.40691 0.08185 0.72309
 C708 C 0.42614 0.09107 0.74472
 C709 C 0.41542 0.10319 0.77031
 C710 C 0.38528 0.10624 0.77459
 C711 C 0.36612 0.09666 0.75281
 C712 C 0.37689 0.08457 0.72724
 C713 C 0.41796 0.07025 0.69638
 C714 C 0.42719 0.06089 0.67384
 C715 C 0.43820 0.05017 0.64675
 C716 C 0.46520 0.03614 0.64561
 C717 C 0.47626 0.02650 0.61914
 C718 C 0.46043 0.03082 0.59342
 C719 C 0.43318 0.04471 0.59486
 C720 C 0.42217 0.05432 0.62135
 H721 H 0.44943 0.08905 0.74173
 H722 H 0.43069 0.11005 0.78681
 H723 H 0.34283 0.09907 0.75531
 H724 H 0.36182 0.07762 0.71058
 H725 H 0.47780 0.03285 0.66515
 H726 H 0.49730 0.01589 0.61880
 H727 H 0.42044 0.04839 0.57549
 H728 H 0.40126 0.06520 0.62199
 C729 C 0.09287 0.91615 0.22258
 C730 C 0.09417 0.88587 0.22565
 C731 C 0.10464 0.87360 0.25125
 C732 C 0.11398 0.89148 0.27417
 C733 C 0.11257 0.92191 0.27090
 C734 C 0.10206 0.93415 0.24526
 C735 C 0.08221 0.92859 0.19609
 C736 C 0.07323 0.93855 0.17369
 C737 C 0.06243 0.94985 0.14674
 C738 C 0.07836 0.94572 0.12133
 C739 C 0.06740 0.95564 0.09492
 C740 C 0.04027 0.96980 0.09358
 C741 C 0.02458 0.97416 0.11933
 C742 C 0.03560 0.96422 0.14572
 H743 H 0.08720 0.87174 0.20819
 H744 H 0.10585 0.85012 0.25295
 H745 H 0.11931 0.93622 0.28828
 H746 H 0.10109 0.95762 0.24312
 H747 H 0.09913 0.93457 0.12189
 H748 H 0.08003 0.95192 0.07553
 H749 H 0.00364 0.98497 0.11906
 H750 H 0.02307 0.96748 0.16526
 C751 C 0.90764 0.41677 0.27731
 C752 C 0.92695 0.40755 0.25580
 C753 C 0.91631 0.39533 0.23018
 C754 C 0.88618 0.39219 0.22576
 C755 C 0.86697 0.40165 0.24748
 C756 C 0.87765 0.41383 0.27307
 C757 C 0.91856 0.42874 0.30394
 C758 C 0.92761 0.43849 0.32643
 C759 C 0.93835 0.44973 0.35345
 C760 C 0.92232 0.44564 0.37880
 C761 C 0.93311 0.45571 0.40525
 C762 C 0.96014 0.47002 0.40669
 C763 C 0.97593 0.47432 0.38101
 C764 C 0.96509 0.46421 0.35458
 H765 H 0.95021 0.40974 0.25886
 H766 H 0.93161 0.38856 0.21373
 H767 H 0.84369 0.39914 0.24489
 H768 H 0.86252 0.42076 0.28964
 H769 H 0.90160 0.43442 0.37816
 H770 H 0.92041 0.45203 0.42459
 H771 H 0.99680 0.48523 0.38135
 H772 H 0.97768 0.46747 0.33508
   
