data_POSCAR
  _audit_creation_date              2014-09-24
  _audit_creation_method            'ToBaCCo'
  _symmetry_space_group_name_H-M    'P1'
  _symmetry_Int_Tables_number       1
  _symmetry_cell_setting            triclinic
  loop_
  _symmetry_equiv_pos_as_xyz
 x,y,z
_cell_length_a 27.4384
_cell_length_b 27.4540
_cell_length_c 27.3314
_cell_angle_alpha 90.205500
_cell_angle_beta 90.241900
_cell_angle_gamma 89.979900
loop_
  _atom_site_label
  _atom_site_type_symbol
  _atom_site_fract_x
  _atom_site_fract_y
  _atom_site_fract_z
O1 O 0.56710 0.12269 0.00170
 O2 O 0.62170 0.05927 -0.00112
 C3 C 0.61094 0.10520 0.00058
 O4 O 0.43579 -0.00426 0.12646
 O5 O 0.38018 -0.00278 0.06346
 C6 C 0.39164 -0.00476 0.10937
 O7 O 0.57200 0.00377 0.12312
 O8 O 0.62394 0.00177 0.05756
 C9 C 0.61523 0.00366 0.10406
 O10 O 0.43095 0.12163 -0.00145
 O11 O 0.37773 0.05724 0.00242
 C12 C 0.38742 0.10332 -0.00013
 Zr13 Zr 0.49944 0.08594 0.00022
 O14 O 0.49507 0.14141 0.05402
 O15 O 0.50298 0.13868 -0.05602
 Zr16 Zr 0.50273 0.00056 0.08844
 O17 O 0.49795 0.05731 0.14093
 O18 O 0.51026 -0.05163 0.14476
 O19 O 0.54488 0.05043 0.04999
 O20 O 0.45863 0.04927 0.05166
 O21 O 0.42870 0.00003 -0.12075
 O22 O 0.37675 -0.00154 -0.05512
 C23 C 0.38557 -0.00018 -0.10154
 O24 O 0.56937 -0.12319 -0.00195
 O25 O 0.62290 -0.05881 -0.00113
 C26 C 0.61291 -0.10490 -0.00249
 O27 O 0.43312 -0.12439 0.00691
 O28 O 0.37878 -0.06077 0.00552
 C29 C 0.38930 -0.10667 0.00736
 O30 O 0.56499 -0.00631 -0.12412
 O31 O 0.62047 -0.00247 -0.06113
 C32 C 0.60916 -0.00563 -0.10705
 Zr33 Zr 0.49790 -0.00222 -0.08607
 O34 O 0.49104 -0.05733 -0.14004
 O35 O 0.50176 0.05194 -0.14089
 Zr36 Zr 0.50096 -0.08776 0.00219
 O37 O 0.49450 -0.14289 -0.05184
 O38 O 0.50831 -0.14101 0.05761
 Zr39 Zr 0.57324 -0.00034 -0.00058
 Zr40 Zr 0.42727 -0.00147 0.00295
 O41 O 0.45687 -0.05168 -0.04720
 O42 O 0.54287 -0.05158 -0.04968
 O43 O 0.45483 0.04818 -0.04875
 O44 O 0.54440 -0.04951 0.05070
 O45 O 0.54099 0.04841 -0.05036
 O46 O 0.45859 -0.05066 0.05323
 H47 H 0.43694 0.06946 0.07235
 H48 H 0.56683 -0.06941 0.07092
 H49 H 0.43462 -0.07239 -0.06692
 H50 H 0.56235 0.06837 -0.07147
 H51 H 0.48612 -0.07762 0.13831
 H52 H 0.48076 -0.13687 0.08048
 H53 H 0.52161 -0.13863 -0.07516
 H54 H 0.51765 -0.08102 -0.13458
 H55 H 0.47413 0.07452 -0.13582
 H56 H 0.47415 0.13411 -0.07739
 H57 H 0.52162 0.13568 0.07789
 H58 H 0.52733 0.07790 0.13765
 O59 O -0.00600 0.56857 -0.12420
 O60 O -0.00132 0.62183 -0.05945
 C61 C -0.00463 0.61211 -0.10569
 O62 O -0.12422 0.43362 0.00509
 O63 O -0.06117 0.37876 0.00104
 C64 C -0.10703 0.38973 0.00415
 O65 O -0.12228 0.56914 -0.00041
 O66 O -0.05768 0.62237 0.00134
 C67 C -0.10386 0.61258 0.00010
 O68 O -0.00105 0.43246 -0.12548
 O69 O -0.00202 0.37824 -0.06172
 C70 C -0.00118 0.38867 -0.10793
 Zr71 Zr -0.00282 0.50023 -0.08844
 O72 O -0.05964 0.49557 -0.14092
 O73 O 0.04987 0.50533 -0.14455
 Zr74 Zr -0.08694 0.50073 0.00112
 O75 O -0.14246 0.49602 -0.05275
 O76 O -0.13969 0.50669 0.05715
 O77 O -0.05134 0.54424 -0.04989
 O78 O -0.05190 0.45804 -0.05018
 O79 O 0.12145 0.42924 -0.00744
 O80 O 0.05660 0.37633 -0.00476
 C81 C 0.10278 0.38575 -0.00712
 O82 O 0.00759 0.56768 0.12247
 O83 O 0.00326 0.62169 0.05856
 C84 C 0.00685 0.61142 0.10460
 O85 O 0.00056 0.43110 0.12184
 O86 O 0.00011 0.37740 0.05714
 C87 C 0.00012 0.38750 0.10349
 O88 O 0.12405 0.56607 0.00042
 O89 O 0.06060 0.62063 -0.00006
 C90 C 0.10653 0.60995 0.00112
 Zr91 Zr 0.08687 0.49847 -0.00345
 O92 O 0.14362 0.49192 0.04882
 O93 O 0.13862 0.50361 -0.06047
 Zr94 Zr 0.00266 0.49936 0.08611
 O95 O 0.05878 0.49322 0.13917
 O96 O -0.05026 0.50510 0.14201
 Zr97 Zr 0.00082 0.57258 -0.00057
 Zr98 Zr -0.00107 0.42682 -0.00171
 O99 O 0.05068 0.45648 0.04713
 O100 O 0.05226 0.54234 0.04829
 O101 O 0.04801 0.45576 -0.05326
 O102 O -0.04778 0.54239 0.05047
 O103 O 0.04874 0.54177 -0.05205
 O104 O -0.04928 0.45651 0.05034
 H105 H -0.07298 0.43632 -0.07008
 H106 H -0.06726 0.56429 0.07163
 H107 H 0.07149 0.43442 0.06681
 H108 H 0.06871 0.56366 -0.07259
 H109 H -0.13337 0.48028 0.08085
 H110 H -0.07295 0.47735 0.13820
 H111 H 0.08152 0.52071 0.13431
 H112 H 0.13821 0.51720 0.07408
 H113 H 0.13448 0.47475 -0.08185
 H114 H 0.07383 0.47893 -0.13928
 H115 H -0.08146 0.52380 -0.13578
 H116 H -0.13840 0.52391 -0.07517
 O117 O 0.12492 -0.00463 0.43563
 O118 O 0.06239 -0.00121 0.37974
 C119 C 0.10805 -0.00422 0.39128
 O120 O -0.00605 -0.12237 0.56737
 O121 O -0.00514 -0.05850 0.62187
 C122 C -0.00672 -0.10447 0.61133
 O123 O 0.00392 -0.12180 0.43058
 O124 O 0.00272 -0.05758 0.37693
 C125 C 0.00472 -0.10360 0.38687
 O126 O 0.12084 0.00203 0.57227
 O127 O 0.05528 0.00080 0.62418
 C128 C 0.10158 0.00204 0.61549
 Zr129 Zr 0.08668 -0.00034 0.50267
 O130 O 0.14040 -0.05528 0.50985
 O131 O 0.14133 0.05399 0.49907
 Zr132 Zr -0.00141 -0.08608 0.49922
 O133 O 0.05156 -0.14176 0.50607
 O134 O -0.05726 -0.13882 0.49143
 O135 O 0.05055 -0.04996 0.45745
 O136 O 0.04765 -0.04969 0.54366
 O137 O 0.00335 0.12369 0.56894
 O138 O -0.00152 0.05974 0.62267
 C139 C 0.00164 0.10574 0.61269
 O140 O -0.12081 0.00521 0.42666
 O141 O -0.05510 0.00323 0.37483
 C142 C -0.10147 0.00505 0.38335
 O143 O -0.12545 -0.00291 0.56391
 O144 O -0.06298 -0.00075 0.62008
 C145 C -0.10867 -0.00313 0.60837
 O146 O 0.00167 0.12407 0.43239
 O147 O 0.00403 0.06023 0.37785
 C148 C 0.00333 0.10625 0.38847
 Zr149 Zr 0.00055 0.08768 0.50046
 O150 O -0.05530 0.14083 0.50431
 O151 O 0.05437 0.14277 0.49754
 Zr152 Zr -0.08721 0.00218 0.49685
 O153 O -0.13921 0.05903 0.50136
 O154 O -0.14378 -0.04964 0.48904
 Zr155 Zr 0.00184 0.00105 0.42672
 Zr156 Zr -0.00237 0.00061 0.57309
 O157 O -0.05075 0.05108 0.54142
 O158 O -0.04867 0.05192 0.45455
 O159 O 0.04927 0.05024 0.54548
 O160 O -0.04950 -0.04812 0.45531
 O161 O 0.05135 0.05001 0.45936
 O162 O -0.05238 -0.04882 0.54143
 H163 H 0.06721 -0.07029 0.56604
 H164 H -0.06940 -0.06808 0.43251
 H165 H -0.07130 0.07124 0.56330
 H166 H 0.07284 0.06989 0.43833
 H167 H -0.07910 -0.13571 0.51998
 H168 H -0.13650 -0.07659 0.51182
 H169 H -0.13532 0.07973 0.47209
 H170 H -0.07487 0.13842 0.47392
 H171 H 0.07938 0.13484 0.52241
 H172 H 0.13712 0.07587 0.52757
 H173 H 0.13521 -0.07902 0.48303
 H174 H 0.07615 -0.13658 0.48027
 C175 C -0.21045 0.28261 0.00466
 C176 C -0.23120 0.26582 0.04883
 C177 C -0.26609 0.22758 0.04774
 C178 C -0.28155 0.20787 0.00236
 C179 C -0.26379 0.22743 -0.04196
 C180 C -0.22782 0.26466 -0.04080
 C181 C -0.21114 0.28421 -0.08555
 C182 C -0.23054 0.26847 -0.13003
 C183 C -0.26601 0.23240 -0.13115
 C184 C -0.28208 0.21144 -0.08777
 C185 C -0.28591 0.21091 0.09238
 C186 C -0.27378 0.23331 0.13656
 C187 C -0.24140 0.27220 0.13732
 C188 C -0.21916 0.28756 0.09430
 C189 C -0.31835 0.17000 0.00131
 C190 C -0.34997 0.13962 0.00086
 C191 C -0.17260 0.31955 0.00570
 C192 C -0.14187 0.35091 0.00553
 H193 H -0.18386 0.31264 -0.08662
 H194 H -0.21840 0.28474 -0.16376
 H195 H -0.28112 0.22053 -0.16585
 H196 H -0.30957 0.18331 -0.09054
 H197 H -0.31183 0.18124 0.09354
 H198 H -0.29020 0.22095 0.17025
 H199 H -0.23385 0.29085 0.17141
 H200 H -0.19368 0.31755 0.09686
 C201 C 0.20421 0.72241 0.00401
 C202 C 0.23416 0.72980 -0.03737
 C203 C 0.27062 0.76652 -0.03633
 C204 C 0.27703 0.79554 0.00615
 C205 C 0.24572 0.78959 0.04674
 C206 C 0.20910 0.75295 0.04563
 C207 C 0.17801 0.74784 0.08649
 C208 C 0.18279 0.77828 0.12716
 C209 C 0.21870 0.81397 0.12832
 C210 C 0.25003 0.81963 0.08874
 C211 C 0.30004 0.77331 -0.07821
 C212 C 0.29357 0.74467 -0.11992
 C213 C 0.25799 0.70868 -0.12090
 C214 C 0.22857 0.70111 -0.08020
 C215 C 0.31633 0.83087 0.00807
 C216 C 0.34954 0.85958 0.00845
 C217 C 0.16904 0.68291 0.00380
 C218 C 0.14041 0.64963 0.00285
 H219 H 0.14946 0.72066 0.08723
 H220 H 0.15838 0.77431 0.15787
 H221 H 0.22216 0.83755 0.15997
 H222 H 0.27730 0.84802 0.09122
 H223 H 0.32814 0.80092 -0.07930
 H224 H 0.31629 0.75046 -0.15165
 H225 H 0.25310 0.68651 -0.15339
 H226 H 0.20129 0.67277 -0.08282
 C227 C 0.20016 0.27265 -0.00385
 C228 C 0.23518 0.27291 0.03440
 C229 C 0.27223 0.23672 0.03577
 C230 C 0.27424 0.20054 -0.00122
 C231 C 0.23811 0.19908 -0.03836
 C232 C 0.20069 0.23499 -0.03943
 C233 C 0.16433 0.23202 -0.07616
 C234 C 0.16481 0.19453 -0.11072
 C235 C 0.20196 0.16010 -0.11035
 C236 C 0.23834 0.16221 -0.07470
 C237 C 0.30671 0.23770 0.07445
 C238 C 0.30457 0.27331 0.11084
 C239 C 0.26838 0.30870 0.10951
 C240 C 0.23406 0.30874 0.07179
 C241 C 0.31376 0.16526 -0.00121
 C242 C 0.34715 0.13666 -0.00089
 C243 C 0.16443 0.31174 -0.00675
 C244 C 0.13587 0.34520 -0.00775
 H245 H 0.13487 0.25818 -0.07813
 H246 H 0.13612 0.19204 -0.13785
 H247 H 0.20239 0.13138 -0.13761
 H248 H 0.26626 0.13436 -0.07563
 H249 H 0.33548 0.21088 0.07718
 H250 H 0.33113 0.27341 0.14024
 H251 H 0.26683 0.33625 0.13788
 H252 H 0.20651 0.33694 0.07251
 C253 C -0.20374 0.72272 -0.00167
 C254 C -0.21924 0.74265 -0.04684
 C255 C -0.25539 0.77969 -0.04756
 C256 C -0.27614 0.79615 -0.00313
 C257 C -0.26121 0.77565 0.04197
 C258 C -0.22505 0.73864 0.04269
 C259 C -0.21163 0.71774 0.08808
 C260 C -0.23352 0.73287 0.13148
 C261 C -0.26837 0.76959 0.13088
 C262 C -0.28215 0.79092 0.08676
 C263 C -0.27042 0.79905 -0.09313
 C264 C -0.25088 0.78165 -0.13681
 C265 C -0.21606 0.74489 -0.13616
 C266 C -0.19993 0.72579 -0.09178
 C267 C -0.31454 0.83238 -0.00385
 C268 C -0.34725 0.86158 -0.00364
 C269 C -0.16708 0.68472 -0.00096
 C270 C -0.13749 0.65236 -0.00041
 H271 H -0.18440 0.68933 0.09051
 H272 H -0.22307 0.71626 0.16583
 H273 H -0.28494 0.78152 0.16474
 H274 H -0.30956 0.81923 0.08816
 H275 H -0.29755 0.82757 -0.09551
 H276 H -0.26289 0.79668 -0.17133
 H277 H -0.20102 0.73148 -0.17020
 H278 H -0.17243 0.69757 -0.09314
 C279 C 0.01160 -0.20042 0.27330
 C280 C -0.03040 -0.20847 0.24416
 C281 C -0.03006 -0.24538 0.20759
 C282 C 0.01213 -0.27428 0.20074
 C283 C 0.05489 -0.26464 0.22828
 C284 C 0.05467 -0.22745 0.26460
 C285 C 0.09784 -0.21836 0.29164
 C286 C 0.14004 -0.24528 0.28305
 C287 C 0.14020 -0.28177 0.24766
 C288 C 0.09820 -0.29154 0.22051
 C289 C -0.07236 -0.25252 0.17863
 C290 C -0.11370 -0.22385 0.18552
 C291 C -0.11423 -0.18809 0.22161
 C292 C -0.07318 -0.18036 0.25077
 C293 C 0.01100 -0.31472 0.16642
 C294 C 0.00940 -0.34854 0.13824
 C295 C 0.00988 -0.16542 0.31312
 C296 C 0.00770 -0.13695 0.34666
 H297 H 0.09951 -0.19025 0.31946
 H298 H 0.17276 -0.23783 0.30401
 H299 H 0.17310 -0.30250 0.24105
 H300 H 0.10018 -0.32003 0.19313
 H301 H -0.07378 -0.27990 0.15008
 H302 H -0.14542 -0.22930 0.16264
 H303 H -0.14655 -0.16608 0.22693
 H304 H -0.07522 -0.15189 0.27817
 C305 C 0.00201 0.20650 0.72322
 C306 C 0.04617 0.22287 0.74463
 C307 C 0.04544 0.26071 0.78030
 C308 C 0.00053 0.28163 0.79466
 C309 C -0.04353 0.26592 0.77255
 C310 C -0.04282 0.22809 0.73691
 C311 C -0.08730 0.21324 0.71507
 C312 C -0.13105 0.23592 0.72722
 C313 C -0.13163 0.27331 0.76158
 C314 C -0.08860 0.28794 0.78453
 C315 C 0.09015 0.27739 0.80022
 C316 C 0.13432 0.25754 0.78505
 C317 C 0.13498 0.22011 0.75072
 C318 C 0.09153 0.20271 0.73070
 C319 C -0.00018 0.32023 0.83113
 C320 C -0.00069 0.35280 0.86083
 C321 C 0.00274 0.16942 0.68519
 C322 C 0.00259 0.13966 0.65265
 H323 H -0.08874 0.18436 0.68807
 H324 H -0.16465 0.22452 0.70973
 H325 H -0.16556 0.29133 0.77019
 H326 H -0.09099 0.31710 0.81115
 H327 H 0.09151 0.30614 0.82738
 H328 H 0.16821 0.27090 0.80045
 H329 H 0.16934 0.20456 0.73949
 H330 H 0.09394 0.17361 0.70400
 C331 C 0.00566 0.20612 0.27829
 C332 C 0.04961 0.22774 0.26233
 C333 C 0.04851 0.26333 0.22468
 C334 C 0.00340 0.27749 0.20374
 C335 C -0.04058 0.25651 0.22044
 C336 C -0.03945 0.22081 0.25792
 C337 C -0.08398 0.20112 0.27484
 C338 C -0.12834 0.21669 0.25564
 C339 C -0.12934 0.25122 0.21869
 C340 C -0.08617 0.27092 0.20097
 C341 C 0.09289 0.28452 0.20930
 C342 C 0.13698 0.27162 0.23118
 C343 C 0.13794 0.23743 0.26854
 C344 C 0.09493 0.21522 0.28375
 C345 C 0.00199 0.31542 0.16692
 C346 C 0.00088 0.34780 0.13731
 C347 C 0.00627 0.16985 0.31668
 C348 C 0.00528 0.14028 0.34906
 H349 H -0.08510 0.17386 0.30329
 H350 H -0.16209 0.20151 0.26917
 H351 H -0.16376 0.26289 0.20382
 H352 H -0.08900 0.29777 0.17220
 H353 H 0.09395 0.31146 0.18052
 H354 H 0.17056 0.28839 0.21918
 H355 H 0.17226 0.22778 0.28563
 H356 H 0.09755 0.18852 0.31267
 C357 C -0.00549 -0.20251 0.72353
 C358 C -0.04058 -0.20123 0.76134
 C359 C -0.03975 -0.23727 0.79859
 C360 C -0.00438 -0.27484 0.79723
 C361 C 0.03196 -0.27485 0.76059
 C362 C 0.03148 -0.23850 0.72371
 C363 C 0.06835 -0.23912 0.68761
 C364 C 0.10473 -0.27453 0.68804
 C365 C 0.10518 -0.31011 0.72407
 C366 C 0.06925 -0.31052 0.75993
 C367 C -0.07439 -0.23454 0.83670
 C368 C -0.10870 -0.19709 0.83807
 C369 C -0.11022 -0.16250 0.80108
 C370 C -0.07667 -0.16442 0.76299
 C371 C -0.00565 -0.31411 0.83268
 C372 C -0.00572 -0.34759 0.86112
 C373 C -0.00722 -0.16698 0.68435
 C374 C -0.00766 -0.13815 0.65121
 H375 H 0.06965 -0.21215 0.65888
 H376 H 0.13275 -0.27433 0.66028
 H377 H 0.13355 -0.33751 0.72429
 H378 H 0.07131 -0.33884 0.78730
 H379 H -0.07484 -0.26081 0.86613
 H380 H -0.13418 -0.19479 0.86807
 H381 H -0.13731 -0.13382 0.80208
 H382 H -0.07899 -0.13647 0.73525
 C383 C 0.19678 0.00437 0.73074
 C384 C 0.22414 0.04707 0.74043
 C385 C 0.26054 0.04679 0.77753
 C386 C 0.26990 0.00360 0.80407
 C387 C 0.24143 -0.03861 0.79556
 C388 C 0.20464 -0.03820 0.75882
 C389 C 0.17683 -0.08092 0.75066
 C390 C 0.18516 -0.12286 0.77806
 C391 C 0.22117 -0.12326 0.81400
 C392 C 0.24913 -0.08173 0.82278
 C393 C 0.28735 0.08994 0.78677
 C394 C 0.27900 0.13193 0.75952
 C395 C 0.24403 0.13193 0.72260
 C396 C 0.21651 0.09024 0.71327
 C397 C 0.31035 0.00203 0.83831
 C398 C 0.34459 0.00092 0.86596
 C399 C 0.16204 0.00368 0.69062
 C400 C 0.13405 0.00299 0.65658
 H401 H 0.14837 -0.08233 0.72316
 H402 H 0.16355 -0.15520 0.77134
 H403 H 0.22750 -0.15592 0.83520
 H404 H 0.27666 -0.08375 0.85117
 H405 H 0.31503 0.09170 0.81505
 H406 H 0.29996 0.16454 0.76692
 H407 H 0.23819 0.16443 0.70106
 H408 H 0.18937 0.09221 0.68450
 C409 C -0.19793 0.00277 0.26836
 C410 C -0.19902 0.03930 0.23188
 C411 C -0.23691 0.03943 0.19611
 C412 C -0.27303 0.00260 0.19657
 C413 C -0.27016 -0.03559 0.23117
 C414 C -0.23260 -0.03546 0.26719
 C415 C -0.23061 -0.07403 0.30139
 C416 C -0.26456 -0.11174 0.29992
 C417 C -0.30124 -0.11188 0.26471
 C418 C -0.30426 -0.07429 0.23072
 C419 C -0.23756 0.07661 0.16037
 C420 C -0.20116 0.11196 0.15919
 C421 C -0.16366 0.11126 0.19353
 C422 C -0.16273 0.07582 0.22995
 C423 C -0.31340 0.00397 0.16189
 C424 C -0.34754 0.00426 0.13386
 C425 C -0.16231 0.00492 0.30797
 C426 C -0.13402 0.00561 0.34197
 H427 H -0.20261 -0.07572 0.32933
 H428 H -0.26232 -0.14107 0.32621
 H429 H -0.32748 -0.14131 0.26367
 H430 H -0.33337 -0.07613 0.20394
 H431 H -0.26577 0.07837 0.13262
 H432 H -0.20183 0.13979 0.13123
 H433 H -0.13498 0.13818 0.19174
 H434 H -0.13293 0.07688 0.25601
 C435 C 0.20586 -0.01022 0.27910
 C436 C 0.21451 0.03225 0.25123
 C437 C 0.25156 0.03223 0.21509
 C438 C 0.27942 -0.01037 0.20681
 C439 C 0.26888 -0.05365 0.23268
 C440 C 0.23198 -0.05357 0.26902
 C441 C 0.22211 -0.09721 0.29453
 C442 C 0.24787 -0.13979 0.28428
 C443 C 0.28394 -0.13987 0.24871
 C444 C 0.29454 -0.09737 0.22313
 C445 C 0.25984 0.07523 0.18788
 C446 C 0.23183 0.11684 0.19572
 C447 C 0.19531 0.11667 0.23077
 C448 C 0.18678 0.07512 0.25855
 C449 C 0.31934 -0.00925 0.17226
 C450 C 0.35253 -0.00745 0.14366
 C451 C 0.17101 -0.00882 0.31883
 C452 C 0.14233 -0.00694 0.35202
 H453 H 0.19423 -0.09898 0.32236
 H454 H 0.23980 -0.17289 0.30403
 H455 H 0.30374 -0.17306 0.24079
 H456 H 0.32274 -0.09925 0.19562
 H457 H 0.28765 0.07704 0.15999
 H458 H 0.23836 0.14929 0.17433
 H459 H 0.17333 0.14882 0.23631
 H460 H 0.15792 0.07684 0.28537
 C461 C -0.20633 -0.01015 0.72089
 C462 C -0.21315 0.03136 0.75096
 C463 C -0.24929 0.03089 0.78809
 C464 C -0.27873 -0.01092 0.79463
 C465 C -0.27012 -0.05333 0.76630
 C466 C -0.23367 -0.05299 0.72943
 C467 C -0.22546 -0.09589 0.70182
 C468 C -0.25253 -0.13794 0.71032
 C469 C -0.28837 -0.13818 0.74612
 C470 C -0.29721 -0.09647 0.77392
 C471 C -0.25495 0.07259 0.81811
 C472 C -0.22550 0.11339 0.81186
 C473 C -0.19051 0.11406 0.77529
 C474 C -0.18436 0.07369 0.74493
 C475 C -0.31842 -0.00980 0.82969
 C476 C -0.35155 -0.00814 0.85854
 C477 C -0.17172 -0.00837 0.68085
 C478 C -0.14308 -0.00615 0.64758
 H479 H -0.19790 -0.09748 0.67366
 H480 H -0.24566 -0.17052 0.68900
 H481 H -0.30936 -0.17091 0.75249
 H482 H -0.32520 -0.09852 0.80162
 H483 H -0.28167 0.07389 0.84710
 H484 H -0.22963 0.14453 0.83571
 H485 H -0.16780 0.14589 0.77063
 H486 H -0.15645 0.07585 0.71717
   
