data_POSCAR
  _audit_creation_date              2014-09-24
  _audit_creation_method            'ToBaCCo'
  _symmetry_space_group_name_H-M    'P1'
  _symmetry_Int_Tables_number       1
  _symmetry_cell_setting            triclinic
  loop_
  _symmetry_equiv_pos_as_xyz
 x,y,z
_cell_length_a 15.2244
_cell_length_b 15.1044
_cell_length_c 15.0077
_cell_angle_alpha 89.836500
_cell_angle_beta 90.007400
_cell_angle_gamma 89.834000
loop_
  _atom_site_label
  _atom_site_type_symbol
  _atom_site_fract_x
  _atom_site_fract_y
  _atom_site_fract_z
N1 N 0.15262 1.33513 0.09080
 N2 N 0.09126 1.33405 0.15231
 C3 C 0.03104 1.39670 0.13307
 C4 C 0.05660 1.44093 0.05601
 C5 C 0.13343 1.39821 0.03044
 H6 H -0.02992 1.40589 0.16892
 H7 H 0.16929 1.40840 -0.03093
 Cu8 Cu 0.09032 1.24499 0.24623
 Cu9 Cu 0.24616 1.24737 0.08592
 Cu10 Cu 0.23425 1.07621 0.23823
 N11 N 0.08861 1.14965 0.33390
 N12 N 0.14654 1.08512 0.33177
 C13 C 0.12671 1.02529 0.39502
 C14 C 0.05237 1.05369 0.44074
 C15 C 0.02941 1.13255 0.39831
 H16 H 0.15994 0.96242 0.40336
 H17 H -0.02927 1.17133 0.40999
 N18 N 0.32890 1.08553 0.14958
 N19 N 0.33376 1.15134 0.09188
 C20 C 0.39961 1.13482 0.03439
 C21 C 0.43932 1.05534 0.05756
 C22 C 0.39178 1.02572 0.13045
 H23 H 0.41347 1.17393 -0.02437
 H24 H 0.39880 0.96199 0.16268
 H25 H 0.16894 1.15102 0.14101
 H26 H 0.24415 1.21082 0.21883
 N27 N 0.85246 0.66826 0.08784
 N28 N 0.91160 0.66756 0.15160
 C29 C 0.97043 0.60293 0.13502
 C30 C 0.94606 0.55940 0.05754
 C31 C 0.87132 0.60393 0.02912
 H32 H 1.03010 0.59207 0.17263
 H33 H 0.83747 0.59443 -0.03346
 Cu34 Cu 0.91222 0.75845 0.24338
 Cu35 Cu 0.76511 0.76187 0.07728
 Cu36 Cu 0.75432 0.91505 0.24779
 N37 N 0.91059 0.85026 0.33404
 N38 N 0.84855 0.91085 0.33541
 C39 C 0.86725 0.97070 0.39870
 C40 C 0.94452 0.94577 0.44160
 C41 C 0.97066 0.86947 0.39687
 H42 H 0.83066 1.03130 0.40900
 H43 H 1.03199 0.83427 0.40590
 N44 N 0.66600 0.90830 0.15203
 N45 N 0.67049 0.85044 0.08651
 C46 C 0.60723 0.86914 0.02664
 C47 C 0.55975 0.94184 0.05593
 C48 C 0.59994 0.96537 0.13525
 H49 H 0.59996 0.83674 -0.03707
 H50 H 0.58630 1.02414 0.17386
 H51 H 0.82938 0.86070 0.14892
 H52 H 0.75745 0.78273 0.21229
 N53 N 0.85200 1.33015 -0.08674
 N54 N 0.91094 1.33125 -0.15070
 C55 C 0.96984 1.39537 -0.13359
 C56 C 0.94584 1.43787 -0.05536
 C57 C 0.87113 1.39359 -0.02726
 H58 H 1.02938 1.40634 -0.17124
 H59 H 0.83752 1.40252 0.03556
 Cu60 Cu 0.91075 1.24053 -0.24262
 Cu61 Cu 0.76459 1.23681 -0.07675
 Cu62 Cu 0.75358 1.08507 -0.24897
 N63 N 0.90997 1.15013 -0.33467
 N64 N 0.84786 1.08997 -0.33676
 C65 C 0.86669 1.03055 -0.40050
 C66 C 0.94419 1.05523 -0.44287
 C67 C 0.97030 1.13097 -0.39737
 H68 H 0.83014 0.97023 -0.41130
 H69 H 1.03182 1.16564 -0.40569
 N70 N 0.66552 1.09131 -0.15272
 N71 N 0.67000 1.14870 -0.08675
 C72 C 0.60688 1.12979 -0.02694
 C73 C 0.55957 1.05742 -0.05663
 C74 C 0.59966 1.03431 -0.13619
 H75 H 0.59961 1.16177 0.03700
 H76 H 0.58608 0.97587 -0.17521
 H77 H 0.82802 1.13789 -0.14921
 H78 H 0.75617 1.21681 -0.21171
 N79 N 0.15375 0.66469 -0.09170
 N80 N 0.09111 0.66701 -0.15189
 C81 C 0.03153 0.60411 -0.13248
 C82 C 0.05866 0.55885 -0.05667
 C83 C 0.13591 0.60067 -0.03205
 H84 H -0.03022 0.59554 -0.16696
 H85 H 0.17288 0.58931 0.02847
 Cu86 Cu 0.08809 0.75885 -0.24307
 Cu87 Cu 0.24707 0.75235 -0.08689
 Cu88 Cu 0.23408 0.92436 -0.23885
 N89 N 0.08738 0.85183 -0.33333
 N90 N 0.14624 0.91522 -0.33240
 C91 C 0.12706 0.97444 -0.39654
 C92 C 0.05221 0.94682 -0.44163
 C93 C 0.02829 0.86908 -0.39793
 H94 H 0.16101 1.03660 -0.40576
 H95 H -0.03105 0.83146 -0.40883
 N96 N 0.32915 0.91424 -0.15050
 N97 N 0.33437 0.84827 -0.09294
 C98 C 0.40029 0.86454 -0.03555
 C99 C 0.43969 0.94398 -0.05864
 C100 C 0.39189 0.97383 -0.13137
 H101 H 0.41435 0.82536 0.02317
 H102 H 0.39855 1.03766 -0.16341
 H103 H 0.17090 0.85115 -0.13971
 H104 H 0.24282 0.78991 -0.21957
 C105 C 0.49958 0.99962 -0.00046
 C106 C 0.00286 0.49812 1.00131
 C107 C 0.99813 0.00041 0.49946
   
