data_POSCAR
  _audit_creation_date              2014-09-24
  _audit_creation_method            'ToBaCCo'
  _symmetry_space_group_name_H-M    'P1'
  _symmetry_Int_Tables_number       1
  _symmetry_cell_setting            triclinic
  loop_
  _symmetry_equiv_pos_as_xyz
 x,y,z
_cell_length_a 23.9703
_cell_length_b 23.4085
_cell_length_c 29.8586
_cell_angle_alpha 86.954700
_cell_angle_beta 88.896200
_cell_angle_gamma 85.030000
loop_
  _atom_site_label
  _atom_site_type_symbol
  _atom_site_fract_x
  _atom_site_fract_y
  _atom_site_fract_z
C1 C 0.00448 0.55119 1.02104
 C2 C -0.00608 0.55070 0.97408
 C3 C -0.01036 0.49752 0.95501
 C4 C -0.00160 0.44520 0.97990
 C5 C 0.01034 0.44504 1.02632
 C6 C 0.01429 0.49815 1.04561
 H7 H 0.01909 0.49824 1.08161
 H8 H -0.01577 0.49612 0.91912
 C9 C 0.44753 0.00966 0.52197
 C10 C 0.45102 0.00850 0.47474
 C11 C 0.50356 0.01054 0.45328
 C12 C 0.55236 0.01705 0.47748
 C13 C 0.54785 0.02023 0.52490
 C14 C 0.49578 0.01570 0.54629
 H15 H 0.49280 0.01643 0.58257
 H16 H 0.50590 0.00954 0.41702
 C17 C 0.11892 -0.00767 0.27755
 H18 H 0.12112 0.00330 0.24194
 C19 C 0.16696 -0.00896 0.30334
 H20 H 0.20615 0.00043 0.28712
 C21 C 0.06514 -0.03433 0.34148
 H22 H 0.02530 -0.04405 0.35617
 C23 C 0.11227 -0.03617 0.36860
 H24 H 0.10806 -0.04678 0.40417
 N25 N 0.06944 -0.02082 0.29674
 C26 C -0.03526 -0.10504 0.20924
 H27 H -0.07521 -0.08142 0.21546
 C28 C -0.03292 -0.15499 0.18540
 H29 H -0.07153 -0.16984 0.17412
 C30 C 0.06318 -0.11504 0.21778
 H31 H 0.10059 -0.09952 0.23044
 C32 C 0.06753 -0.16468 0.19361
 H33 H 0.10862 -0.18606 0.18748
 Zn34 Zn 0.00677 -0.01957 0.25886
 N35 N 0.01234 -0.08635 0.22519
 C36 C -0.00119 0.04190 0.17473
 N37 N 0.00622 0.04643 0.21940
 C38 C 0.01299 0.09792 0.23669
 C39 C 0.01080 0.14789 0.20885
 C40 C -0.00358 0.09077 0.14567
 C41 C -0.07541 -0.06685 0.31477
 C42 C -0.12711 -0.06821 0.33709
 C43 C -0.14735 0.03235 0.31581
 C44 C -0.09582 0.03154 0.29318
 N45 N -0.06099 -0.01757 0.29303
 H46 H -0.00591 0.00047 0.16163
 H47 H 0.01915 0.10021 0.27232
 H48 H 0.01468 0.18866 0.22349
 H49 H -0.00952 0.08631 0.11021
 H50 H -0.04722 -0.10546 0.31384
 H51 H -0.13841 -0.10789 0.35376
 H52 H -0.17485 0.07160 0.31519
 H53 H -0.08421 0.07008 0.27529
 C54 C 0.01905 -0.18570 0.17733
 C55 C 0.16413 -0.02355 0.34952
 C56 C -0.16375 -0.01813 0.33762
 C57 C 0.00192 0.14478 0.16270
 C58 C -0.03834 0.13113 0.75899
 H59 H -0.05025 0.13323 0.72414
 C60 C -0.04468 0.18045 0.78356
 H61 H -0.06125 0.22063 0.76729
 C62 C -0.00063 0.07636 0.82211
 H63 H 0.01682 0.03567 0.83684
 C64 C -0.00595 0.12467 0.84783
 H65 H 0.00686 0.12063 0.88252
 N66 N -0.01631 0.08055 0.77846
 C67 C 0.08048 -0.02629 0.68514
 H68 H 0.06074 -0.06608 0.68976
 C69 C 0.12753 -0.02344 0.65709
 H70 H 0.14374 -0.06119 0.64001
 C71 C 0.08308 0.07139 0.70157
 H72 H 0.06585 0.10820 0.71911
 C73 C 0.12987 0.07627 0.67352
 H74 H 0.14860 0.11678 0.67009
 Zn75 Zn -0.00557 0.01535 0.74365
 N76 N 0.05913 0.02078 0.70660
 C77 C -0.06309 -0.00233 0.66399
 N78 N -0.06928 0.01198 0.70748
 C79 C -0.12095 0.02393 0.72606
 C80 C -0.16900 0.01997 0.70113
 C81 C -0.10999 -0.00682 0.63784
 C82 C 0.05559 -0.07611 0.79238
 C83 C 0.06229 -0.12626 0.82005
 C84 C -0.03836 -0.12470 0.82711
 C85 C -0.04311 -0.07462 0.79954
 N86 N 0.00342 -0.05175 0.78227
 H87 H -0.02187 -0.01071 0.64942
 H88 H -0.12485 0.03620 0.76048
 H89 H -0.20974 0.02836 0.71687
 H90 H -0.10415 -0.01816 0.60328
 H91 H 0.09208 -0.05670 0.77893
 H92 H 0.10406 -0.14565 0.82714
 H93 H -0.07599 -0.14211 0.84054
 H94 H -0.08414 -0.05430 0.79182
 C95 C 0.15264 0.02845 0.65089
 C96 C -0.02790 0.17767 0.82849
 C97 C 0.01483 -0.15147 0.83739
 C98 C -0.16384 0.00391 0.65648
 C99 C -0.04195 -0.35286 0.03483
 C100 C -0.00018 -0.39770 0.04514
 C101 C 0.03580 -0.39133 0.08111
 C102 C 0.03131 -0.34114 0.10506
 C103 C -0.00955 -0.29608 0.09320
 C104 C -0.04608 -0.30247 0.05815
 C105 C -0.01333 -0.24545 0.11668
 C106 C 0.02282 -0.23941 0.15243
 C107 C 0.06280 -0.28509 0.16427
 C108 C 0.06723 -0.33524 0.14067
 H109 H 0.06878 -0.42457 0.08964
 H110 H -0.07831 -0.26874 0.04904
 H111 H -0.04391 -0.21054 0.10663
 H112 H 0.09857 -0.36956 0.15047
 H113 H -0.07248 -0.35702 0.00922
 H114 H 0.09043 -0.28243 0.19219
 C115 C 0.05532 0.38709 0.08896
 C116 C 0.01565 0.39390 0.05432
 C117 C -0.01946 0.34934 0.04921
 C118 C -0.01382 0.29879 0.07670
 C119 C 0.02675 0.29246 0.11065
 C120 C 0.06099 0.33691 0.11656
 C121 C 0.03213 0.24199 0.13835
 C122 C -0.00278 0.19765 0.13271
 C123 C -0.04298 0.20449 0.09871
 C124 C -0.04846 0.25455 0.07098
 H125 H -0.05264 0.35456 0.02483
 H126 H 0.09237 0.33281 0.14244
 H127 H 0.06373 0.23708 0.16407
 H128 H -0.07994 0.25875 0.04518
 H129 H 0.08359 0.41982 0.09386
 H130 H -0.07098 0.17147 0.09403
 C131 C 0.38980 -0.04348 0.57728
 C132 C 0.39454 0.00412 0.54731
 C133 C 0.34968 0.04659 0.54274
 C134 C 0.30042 0.04169 0.56834
 C135 C 0.29599 -0.00651 0.59846
 C136 C 0.34078 -0.04898 0.60248
 C137 C 0.24726 -0.01101 0.62465
 C138 C 0.20302 0.03241 0.62173
 C139 C 0.20767 0.08005 0.59160
 C140 C 0.25584 0.08452 0.56494
 H141 H 0.35360 0.08361 0.51985
 H142 H 0.33812 -0.08613 0.62543
 H143 H 0.24434 -0.04755 0.64820
 H144 H 0.25842 0.12168 0.54201
 H145 H 0.42422 -0.07646 0.58107
 H146 H 0.17382 0.11373 0.58852
 C147 C -0.40223 0.06848 0.58301
 C148 C -0.40301 0.02353 0.55379
 C149 C -0.35693 -0.01767 0.55196
 C150 C -0.30958 -0.01284 0.57790
 C151 C -0.30878 0.03309 0.60673
 C152 C -0.35546 0.07330 0.60925
 C153 C -0.26123 0.03826 0.63235
 C154 C -0.21424 -0.00179 0.62953
 C155 C -0.21559 -0.04735 0.60080
 C156 C -0.26283 -0.05286 0.57525
 H157 H -0.35776 -0.05287 0.52986
 H158 H -0.35560 0.10871 0.63121
 H159 H -0.26046 0.07401 0.65390
 H160 H -0.26277 -0.08836 0.55338
 H161 H -0.43757 0.10045 0.58486
 H162 H -0.18024 -0.07921 0.59847
 C163 C -0.04568 -0.39154 0.90929
 C164 C -0.00727 -0.39938 0.94478
 C165 C 0.03030 -0.35695 0.94981
 C166 C 0.02773 -0.30693 0.92159
 C167 C -0.01220 -0.29924 0.88718
 C168 C -0.04828 -0.34199 0.88104
 C169 C -0.01566 -0.24877 0.85956
 C170 C 0.02029 -0.20557 0.86580
 C171 C 0.06057 -0.21403 0.89964
 C172 C 0.06424 -0.26427 0.92734
 H173 H 0.06208 -0.36307 0.97537
 H174 H -0.07909 -0.33678 0.85472
 H175 H -0.04624 -0.24318 0.83306
 H176 H 0.09518 -0.26944 0.95355
 H177 H -0.07564 -0.42266 0.90443
 H178 H 0.08846 -0.18122 0.90531
 C179 C 0.05005 0.35323 0.95700
 C180 C 0.00191 0.39196 0.95462
 C181 C -0.04258 0.38050 0.92744
 C182 C -0.03940 0.33044 0.90335
 C183 C 0.00891 0.29133 0.90644
 C184 C 0.05339 0.30314 0.93333
 C185 C 0.01215 0.24135 0.88227
 C186 C -0.03210 0.22998 0.85472
 C187 C -0.07991 0.26919 0.85188
 C188 C -0.08361 0.31889 0.87608
 H189 H -0.07971 0.41041 0.92539
 H190 H 0.09085 0.27380 0.93590
 H191 H 0.04956 0.21183 0.88422
 H192 H -0.12098 0.34835 0.87338
 H193 H 0.08506 0.36185 0.97725
 H194 H -0.11472 0.26109 0.83122
 C195 C -0.36004 0.06288 0.46317
 C196 C -0.39622 0.02076 0.45389
 C197 C -0.37966 -0.01870 0.42109
 C198 C -0.32664 -0.01853 0.40029
 C199 C -0.29057 0.02348 0.41052
 C200 C -0.30795 0.06436 0.44160
 C201 C -0.23754 0.02362 0.38977
 C202 C -0.21947 -0.01865 0.35978
 C203 C -0.25523 -0.06078 0.35034
 C204 C -0.30857 -0.06044 0.37012
 H205 H -0.40663 -0.05176 0.41366
 H206 H -0.28104 0.09718 0.44957
 H207 H -0.20990 0.05596 0.39746
 H208 H -0.33553 -0.09317 0.36203
 H209 H -0.37241 0.09546 0.48669
 H210 H -0.24217 -0.09342 0.32703
 C211 C 0.38948 0.05233 0.41347
 C212 C 0.40043 0.00842 0.44682
 C213 C 0.36249 -0.03386 0.45389
 C214 C 0.31340 -0.03137 0.42865
 C215 C 0.30268 0.01331 0.39539
 C216 C 0.34109 0.05478 0.38796
 C217 C 0.25376 0.01587 0.37009
 C218 C 0.21511 -0.02570 0.37736
 C219 C 0.22597 -0.06972 0.41078
 C220 C 0.27467 -0.07256 0.43616
 H221 H 0.37106 -0.06832 0.47917
 H222 H 0.33352 0.08933 0.36262
 H223 H 0.24554 0.05059 0.34497
 H224 H 0.28213 -0.10709 0.46153
 H225 H 0.41813 0.08539 0.40768
 H226 H 0.19724 -0.10263 0.41675
   
