data_POSCAR
  _audit_creation_date              2014-09-24
  _audit_creation_method            'ToBaCCo'
  _symmetry_space_group_name_H-M    'P1'
  _symmetry_Int_Tables_number       1
  _symmetry_cell_setting            triclinic
  loop_
  _symmetry_equiv_pos_as_xyz
 x,y,z
_cell_length_a 9.8726
_cell_length_b 10.1165
_cell_length_c 10.1658
_cell_angle_alpha 93.578100
_cell_angle_beta 82.625200
_cell_angle_gamma 95.126400
loop_
  _atom_site_label
  _atom_site_type_symbol
  _atom_site_fract_x
  _atom_site_fract_y
  _atom_site_fract_z
C1 C 0.03862 0.50188 0.22793
 C2 C -0.03855 0.47174 0.76070
 C3 C 0.25094 -0.01804 0.46940
 C4 C 0.75038 0.02832 0.53022
 C5 C 0.52982 0.26421 0.98010
 C6 C 0.47085 0.73564 1.02208
 B7 B 0.99453 1.13204 0.08472
 B8 B 1.08232 1.00794 0.12745
 B9 B 0.90876 0.99137 0.14204
 B10 B 0.85808 1.06505 0.01310
 B11 B 1.00149 1.12601 -0.08226
 B12 B 1.13909 1.09092 -0.01098
 B13 B 1.00315 0.85470 -0.08878
 B14 B 0.91694 0.98128 -0.13007
 B15 B 1.09079 0.99694 -0.14439
 B16 B 1.14103 0.92333 -0.01597
 B17 B 0.99911 0.86096 0.07983
 B18 B 0.86016 0.89756 0.00907
 B19 B 0.64392 0.50960 0.40584
 B20 B 0.63692 0.51159 0.57358
 B21 B 0.59612 0.64534 0.50123
 B22 B 0.51116 0.59193 0.37160
 B23 B 0.49770 0.42375 0.36138
 B24 B 0.57753 0.37242 0.48669
 B25 B 0.35705 0.50625 0.59905
 B26 B 0.36178 0.51004 0.43266
 B27 B 0.40210 0.37043 0.50179
 B28 B 0.48882 0.42292 0.63291
 B29 B 0.50085 0.59147 0.64210
 B30 B 0.42459 0.64359 0.51861
 C31 C 1.01708 1.38597 0.13206
 C32 C 0.98204 1.26346 0.17475
 H33 H 1.07025 1.39751 0.03425
 H34 H 0.95346 1.25285 0.27980
 C35 C 1.06484 0.62878 0.14844
 C36 C 0.98807 0.73433 0.16859
 H37 H 1.14331 0.62705 0.06359
 H38 H 0.90888 0.73783 0.25166
 C39 C 0.94263 1.35401 -0.15216
 C40 C 1.02033 1.25101 -0.16972
 H41 H 0.85979 1.35483 -0.07151
 H42 H 1.10503 1.25057 -0.24788
 C43 C 0.95567 0.59880 -0.14716
 C44 C 1.00667 0.72129 -0.18387
 H45 H 0.90603 0.58790 -0.04703
 H46 H 1.04922 0.73235 -0.28630
 C47 C 1.16712 0.95667 0.35228
 C48 C 1.16847 1.03723 0.25113
 H49 H 1.10332 0.86404 0.35189
 H50 H 1.22690 1.13227 0.25309
 C51 C 1.15176 0.97555 -0.40255
 C52 C 1.19012 1.00708 -0.28139
 H53 H 1.05168 0.92581 -0.40991
 H54 H 1.29625 1.04111 -0.27456
 C55 C 0.84828 1.03046 0.40068
 C56 C 0.81027 0.99005 0.28067
 H57 H 0.94995 1.07650 0.40696
 H58 H 0.70341 0.95967 0.27523
 C59 C 0.83605 1.04473 -0.35353
 C60 C 0.83015 0.96071 -0.25371
 H61 H 0.90719 1.13208 -0.35423
 H62 H 0.76378 0.87058 -0.25420
 C63 C 1.40053 1.16646 -0.00364
 C64 C 1.27300 1.19566 -0.01950
 H65 H 1.41303 1.07049 0.03137
 H66 H 1.25947 1.29575 -0.04424
 C67 C 0.65382 1.18336 -0.04989
 C68 C 0.72114 1.13976 0.04340
 H69 H 0.68960 1.16071 -0.15298
 H70 H 0.68376 1.15884 0.14700
 C71 C 1.34606 0.81414 0.05038
 C72 C 1.27810 0.85308 -0.04433
 H73 H 1.30931 0.83724 0.15314
 H74 H 1.31525 0.83445 -0.14767
 C75 C 0.59964 0.83164 0.00580
 C76 C 0.72554 0.79765 0.01985
 H77 H 0.58875 0.92702 -0.03113
 H78 H 0.73586 0.69804 0.04771
 C79 C 0.91324 0.50610 0.33555
 C80 C 0.78400 0.51018 0.30462
 H81 H 0.93079 0.50508 0.43741
 H82 H 0.77360 0.51552 0.20080
 C83 C 0.16923 0.46957 0.28161
 C84 C 0.22373 0.54055 0.37748
 H85 H 0.22500 0.38651 0.23700
 H86 H 0.16870 0.62349 0.42222
 C87 C 0.84266 0.44655 0.67960
 C88 C 0.76566 0.53957 0.65180
 H89 H 0.82204 0.34636 0.63942
 H90 H 0.78796 0.64105 0.68773
 C91 C 0.09303 0.47179 0.66401
 C92 C 0.21813 0.50897 0.69917
 H93 H 0.08442 0.42616 0.56628
 H94 H 0.22449 0.54679 0.80005
 C95 C 0.46280 0.64830 0.13942
 C96 C 0.52879 0.67762 0.24617
 H97 H 0.39064 0.56157 0.13939
 H98 H 0.59615 0.76647 0.25175
 C99 C 0.46096 0.64432 0.89817
 C100 C 0.50800 0.68161 0.77501
 H101 H 0.40152 0.55015 0.91068
 H102 H 0.55255 0.78173 0.76360
 C103 C 0.54382 0.35732 0.10412
 C104 C 0.48841 0.32951 0.22839
 H105 H 0.60806 0.44847 0.08965
 H106 H 0.43314 0.23404 0.24122
 C107 C 0.53991 0.35317 0.86231
 C108 C 0.46867 0.33291 0.75766
 H109 H 0.61703 0.43635 0.86150
 H110 H 0.39637 0.24731 0.75127
 C111 C 0.65572 0.90076 0.53688
 C112 C 0.69608 0.77910 0.49718
 H113 H 0.55406 0.90989 0.58749
 H114 H 0.80270 0.76963 0.45994
 C115 C 0.66041 0.14560 0.54681
 C116 C 0.66441 0.24428 0.46205
 H117 H 0.58912 0.14745 0.63638
 H118 H 0.73215 0.24130 0.37012
 C119 C 0.34426 0.86852 0.45602
 C120 C 0.34095 0.77219 0.54288
 H121 H 0.41614 0.86691 0.36698
 H122 H 0.27175 0.77368 0.63366
 C123 C 0.34308 0.11283 0.46304
 C124 C 0.30167 0.23459 0.50248
 H125 H 0.44675 0.10558 0.41636
 H126 H 0.19458 0.24117 0.53755
   
