data_POSCAR
  _audit_creation_date              2014-09-24
  _audit_creation_method            'ToBaCCo'
  _symmetry_space_group_name_H-M    'P1'
  _symmetry_Int_Tables_number       1
  _symmetry_cell_setting            triclinic
  loop_
  _symmetry_equiv_pos_as_xyz
 x,y,z
_cell_length_a 32.4573
_cell_length_b 33.5882
_cell_length_c 32.7347
_cell_angle_alpha 87.623000
_cell_angle_beta 87.519800
_cell_angle_gamma 86.610300
loop_
  _atom_site_label
  _atom_site_type_symbol
  _atom_site_fract_x
  _atom_site_fract_y
  _atom_site_fract_z
C1 C 0.26702 0.22336 0.22362
 C2 C 0.25267 0.20904 0.26178
 C3 C 0.22594 0.23245 0.28587
 C4 C 0.21336 0.27110 0.27167
 C5 C 0.22799 0.28568 0.23380
 C6 C 0.25553 0.26161 0.20959
 C7 C 0.29372 0.20632 0.19505
 N8 N 0.29968 0.23336 0.16402
 C9 C 0.27658 0.26748 0.17232
 C10 C 0.21017 0.32369 0.22810
 N11 N 0.18505 0.33231 0.26141
 C12 C 0.18728 0.30047 0.28827
 C13 C 0.21908 0.21095 0.32218
 N14 N 0.24167 0.17560 0.32018
 C15 C 0.26219 0.17429 0.28344
 H16 H 0.30879 0.17670 0.19714
 H17 H 0.27540 0.29437 0.15291
 H18 H 0.21504 0.34323 0.20146
 H19 H 0.17026 0.29848 0.31741
 H20 H 0.20084 0.22104 0.34863
 H21 H 0.28353 0.15017 0.27373
 C22 C 0.69861 -0.21096 0.22537
 C23 C 0.70966 -0.19387 0.26121
 C24 C 0.74396 -0.20895 0.28150
 C25 C 0.76756 -0.24189 0.26618
 C26 C 0.75666 -0.25899 0.23063
 C27 C 0.72161 -0.24338 0.21000
 C28 C 0.66671 -0.20175 0.19989
 N29 N 0.66907 -0.22782 0.16926
 C30 C 0.70269 -0.25357 0.17508
 C31 C 0.78528 -0.29025 0.22326
 N32 N 0.81310 -0.29255 0.25355
 C33 C 0.80221 -0.26310 0.27983
 C34 C 0.74695 -0.18615 0.31528
 N35 N 0.71509 -0.15789 0.31568
 C36 C 0.69210 -0.16263 0.28288
 H37 H 0.64308 -0.17786 0.20362
 H38 H 0.71294 -0.27782 0.15569
 H39 H 0.78522 -0.30976 0.19782
 H40 H 0.81849 -0.25737 0.30699
 H41 H 0.77016 -0.19032 0.33807
 H42 H 0.66459 -0.14448 0.27529
 C43 C 0.72610 0.25246 0.75331
 C44 C 0.74122 0.23895 0.71509
 C45 C 0.77297 0.25813 0.69419
 C46 C 0.78967 0.29118 0.71077
 C47 C 0.77434 0.30461 0.74793
 C48 C 0.74253 0.28530 0.76918
 C49 C 0.69683 0.23919 0.78187
 N50 N 0.69530 0.26366 0.81421
 C51 C 0.72311 0.29181 0.80644
 C52 C 0.79731 0.33551 0.75793
 N53 N 0.82675 0.34122 0.72767
 C54 C 0.82199 0.31435 0.69852
 C55 C 0.78307 0.23760 0.65943
 N56 N 0.75802 0.20682 0.65823
 C57 C 0.73231 0.20723 0.69217
 H58 H 0.67807 0.21399 0.77888
 H59 H 0.72902 0.31534 0.82672
 H60 H 0.79306 0.35156 0.78587
 H61 H 0.84152 0.31101 0.67106
 H62 H 0.80736 0.24415 0.63685
 H63 H 0.70990 0.18535 0.70038
 C64 C 0.26261 -0.23919 0.77621
 C65 C 0.23993 -0.22445 0.74290
 C66 C 0.21149 -0.24768 0.72676
 C67 C 0.20578 -0.28599 0.74316
 C68 C 0.22780 -0.30087 0.77624
 C69 C 0.25693 -0.27722 0.79275
 C70 C 0.29280 -0.22318 0.79738
 N71 N 0.30642 -0.25059 0.82601
 C72 C 0.28449 -0.28382 0.82356
 C73 C 0.21488 -0.33886 0.78547
 N74 N 0.18611 -0.34688 0.75820
 C75 C 0.18086 -0.31478 0.73219
 C76 C 0.19395 -0.22626 0.69474
 N77 N 0.21174 -0.19085 0.69057
 C78 C 0.23990 -0.18926 0.71988
 H79 H 0.30482 -0.19397 0.79162
 H80 H 0.28804 -0.31092 0.84242
 H81 H 0.22599 -0.35897 0.80976
 H82 H 0.15971 -0.31229 0.70737
 H83 H 0.17060 -0.23594 0.67531
 H84 H 0.25873 -0.16434 0.72422
 C85 C 0.74382 -0.23128 0.75771
 C86 C 0.76298 -0.20739 0.72659
 C87 C 0.80340 -0.21740 0.71325
 C88 C 0.82515 -0.25093 0.73032
 C89 C 0.80640 -0.27371 0.76080
 C90 C 0.76580 -0.26425 0.77409
 C91 C 0.70499 -0.23050 0.77745
 N92 N 0.70366 -0.26254 0.80460
 C93 C 0.74073 -0.28308 0.80232
 C94 C 0.83373 -0.30446 0.77177
 N95 N 0.86906 -0.30147 0.74822
 C96 C 0.86397 -0.26882 0.72253
 C97 C 0.81438 -0.18971 0.68339
 N98 N 0.78196 -0.16308 0.67762
 C99 C 0.75022 -0.17352 0.70385
 H100 H 0.67980 -0.20867 0.77188
 H101 H 0.74902 -0.30998 0.82028
 H102 H 0.82709 -0.32815 0.79404
 H103 H 0.88666 -0.25905 0.69962
 H104 H 0.84398 -0.18897 0.66685
 H105 H 0.72035 -0.15757 0.70665
 C106 C 0.26726 0.17891 0.79903
 C107 C 0.23967 0.16516 0.77158
 C108 C 0.19986 0.18236 0.77013
 C109 C 0.18720 0.21353 0.79573
 C110 C 0.21435 0.22700 0.82266
 C111 C 0.25459 0.20994 0.82393
 C112 C 0.30813 0.16900 0.80675
 N113 N 0.32051 0.19389 0.83498
 C114 C 0.28774 0.21907 0.84552
 C115 C 0.19505 0.25916 0.84162
 N116 N 0.15717 0.26603 0.82616
 C117 C 0.15186 0.23814 0.79823
 C118 C 0.18057 0.16487 0.73955
 N119 N 0.20772 0.13790 0.72195
 C120 C 0.24397 0.13764 0.74140
 H121 H 0.32761 0.14579 0.79244
 H122 H 0.28722 0.24178 0.86804
 H123 H 0.20846 0.27776 0.86317
 H124 H 0.12496 0.23674 0.78003
 H125 H 0.14942 0.17205 0.72991
 H126 H 0.27152 0.11918 0.73397
 C127 C 0.29669 -0.22810 0.23317
 C128 C 0.27704 -0.20745 0.26544
 C129 C 0.23856 -0.21757 0.28049
 C130 C 0.21913 -0.24867 0.26310
 C131 C 0.23830 -0.26901 0.23076
 C132 C 0.27789 -0.25888 0.21586
 C133 C 0.33390 -0.22361 0.21271
 N134 N 0.33891 -0.25098 0.18336
 C135 C 0.30481 -0.27302 0.18502
 C136 C 0.21174 -0.29722 0.22015
 N137 N 0.17738 -0.29467 0.24566
 C138 C 0.18192 -0.26517 0.27195
 C139 C 0.22738 -0.19250 0.31204
 N140 N 0.25844 -0.16760 0.31618
 C141 C 0.28884 -0.17670 0.28784
 H142 H 0.35576 -0.20153 0.21849
 H143 H 0.29923 -0.29662 0.16479
 H144 H 0.21778 -0.31851 0.19641
 H145 H 0.15965 -0.25634 0.29597
 H146 H 0.19910 -0.19292 0.33074
 H147 H 0.31768 -0.16207 0.28401
 C148 C 0.73819 0.25206 0.21532
 C149 C 0.75756 0.23749 0.25108
 C150 C 0.79172 0.25570 0.26425
 C151 C 0.80695 0.28890 0.24183
 C152 C 0.78793 0.30256 0.20659
 C153 C 0.75355 0.28441 0.19356
 C154 C 0.70374 0.24179 0.19542
 N155 N 0.69832 0.26759 0.16259
 C156 C 0.72864 0.29358 0.16143
 C157 C 0.80835 0.33447 0.19050
 N158 N 0.83935 0.34145 0.21513
 C159 C 0.83891 0.31370 0.24688
 C160 C 0.80394 0.23501 0.29941
 N161 N 0.77817 0.20503 0.30805
 C162 C 0.74970 0.20638 0.27856
 H163 H 0.68360 0.21827 0.20489
 H164 H 0.73189 0.31797 0.13903
 H165 H 0.80081 0.35182 0.16290
 H166 H 0.86016 0.31126 0.27154
 H167 H 0.82985 0.24125 0.31742
 H168 H 0.72541 0.18595 0.27652
 O169 O 0.17787 0.04044 0.48440
 O170 O 0.20225 -0.04510 0.55438
 O171 O 0.20061 0.03110 0.55984
 O172 O 0.18181 -0.03760 0.47838
 O173 O 0.24785 -0.03774 0.45915
 O174 O 0.26642 0.03145 0.53955
 O175 O 0.26835 -0.04462 0.53524
 O176 O 0.24374 0.04003 0.46454
 Cu177 Cu 0.18387 -0.00276 0.52097
 Cu178 Cu 0.26312 -0.00265 0.49712
 C179 C 0.20698 0.05509 0.46277
 C180 C 0.23936 -0.05880 0.55746
 C181 C 0.23691 0.04231 0.56401
 C182 C 0.21196 -0.04993 0.45531
 O183 O 0.75126 0.06248 0.53349
 O184 O 0.77192 -0.01707 0.46077
 O185 O 0.76032 0.06091 0.45382
 O186 O 0.75773 -0.01534 0.53962
 O187 O 0.69058 -0.01872 0.53330
 O188 O 0.69327 0.05613 0.44824
 O189 O 0.70489 -0.02156 0.45462
 O190 O 0.68407 0.05867 0.52814
 Cu191 Cu 0.76697 0.02322 0.49749
 Cu192 Cu 0.68656 0.01837 0.49028
 C193 C 0.71443 0.07397 0.54359
 C194 C 0.74209 -0.03318 0.44554
 C195 C 0.72680 0.07136 0.43643
 C196 C 0.72351 -0.02994 0.55096
 O197 O 0.45954 0.21668 0.03828
 O198 O 0.54297 0.19060 -0.03833
 O199 O 0.53859 0.19355 0.04250
 O200 O 0.46449 0.20632 -0.03931
 O201 O 0.47546 0.27066 -0.04538
 O202 O 0.55206 0.25710 0.03470
 O203 O 0.55488 0.25459 -0.04515
 O204 O 0.47431 0.28008 0.03233
 Cu205 Cu 0.50050 0.19530 0.00199
 Cu206 Cu 0.51588 0.27185 -0.00664
 C207 C 0.45223 0.25298 0.04759
 C208 C 0.56237 0.21887 -0.05567
 C209 C 0.55802 0.22302 0.05260
 C210 C 0.45682 0.24064 -0.05580
 O211 O 0.54545 0.75006 0.02048
 O212 O 0.45766 0.74388 -0.04759
 O213 O 0.46479 0.74198 0.02971
 O214 O 0.53091 0.76976 -0.05826
 O215 O 0.55070 0.70647 -0.06615
 O216 O 0.48164 0.67790 0.02265
 O217 O 0.47524 0.67984 -0.05441
 O218 O 0.56099 0.68588 0.01287
 Cu219 Cu 0.49913 0.75742 -0.01272
 Cu220 Cu 0.51975 0.68196 -0.02269
 C221 C 0.56786 0.71845 0.02863
 C222 C 0.45123 0.71007 -0.06184
 C223 C 0.46067 0.70578 0.04080
 C224 C 0.55195 0.74324 -0.07755
 O225 O 0.04948 0.48658 0.17990
 O226 O -0.03913 0.55841 0.17858
 O227 O 0.04113 0.56198 0.17603
 O228 O -0.02943 0.48059 0.20059
 O229 O -0.02250 0.48841 0.26648
 O230 O 0.04682 0.56879 0.24228
 O231 O -0.03603 0.56623 0.24495
 O232 O 0.05415 0.49202 0.24661
 Cu233 Cu 0.00389 0.52086 0.17810
 Cu234 Cu 0.01007 0.53063 0.25624
 C235 C 0.06699 0.47676 0.21292
 C236 C -0.05293 0.57472 0.21092
 C237 C 0.05701 0.57843 0.20552
 C238 C -0.03697 0.46996 0.23791
 O239 O 0.05890 0.50583 0.84059
 O240 O -0.03750 0.45631 0.82990
 O241 O 0.04149 0.43162 0.82203
 O242 O -0.01762 0.52781 0.83284
 O243 O -0.01431 0.53700 0.76555
 O244 O 0.04363 0.44114 0.75482
 O245 O -0.03174 0.46397 0.76251
 O246 O 0.06492 0.51377 0.77339
 Cu247 Cu 0.01189 0.47844 0.83753
 Cu248 Cu 0.01737 0.49060 0.75791
 C249 C 0.07809 0.51887 0.80879
 C250 C -0.05105 0.45150 0.79480
 C251 C 0.05176 0.41964 0.78642
 C252 C -0.02655 0.54853 0.80067
 C253 C 0.32754 0.22556 0.12987
 C254 C 0.35364 0.25233 0.11528
 C255 C 0.38765 0.24019 0.08640
 C256 C 0.41761 0.26457 0.07589
 H257 H 0.35186 0.28206 0.12714
 H258 H 0.38870 0.21053 0.07433
 H259 H 0.33148 0.19517 0.11976
 H260 H 0.41614 0.29442 0.08746
 C261 C 0.64102 0.77340 0.13931
 C262 C 0.64067 0.74630 0.11048
 C263 C 0.60768 0.74893 0.08058
 C264 C 0.60218 0.71859 0.05669
 H265 H 0.66337 0.72141 0.10961
 H266 H 0.58663 0.77522 0.07933
 H267 H 0.61681 0.79714 0.13952
 H268 H 0.62252 0.69187 0.05910
 C269 C 0.67042 0.26299 -0.15128
 C270 C 0.64443 0.23435 -0.14112
 C271 C 0.61662 0.23927 -0.10472
 C272 C 0.59304 0.21055 -0.08924
 H273 H 0.64289 0.20839 -0.15937
 H274 H 0.61473 0.26805 -0.09067
 H275 H 0.67176 0.28738 -0.13067
 H276 H 0.59527 0.18129 -0.10218
 C277 C 0.33764 0.75569 -0.14892
 C278 C 0.35540 0.72685 -0.12511
 C279 C 0.39079 0.73486 -0.10062
 C280 C 0.41532 0.70465 -0.08642
 H281 H 0.34555 0.69665 -0.12501
 H282 H 0.39744 0.76541 -0.09520
 H283 H 0.35006 0.78504 -0.14974
 H284 H 0.40912 0.67435 -0.09345
 C285 C 0.15831 0.36746 0.26780
 C286 C 0.14866 0.39375 0.23743
 C287 C 0.11692 0.42657 0.24338
 C288 C 0.10217 0.44711 0.21085
 H289 H 0.16217 0.38966 0.20700
 H290 H 0.10386 0.43221 0.27377
 H291 H 0.14324 0.37114 0.29774
 H292 H 0.11455 0.43986 0.18057
 C293 C 0.16423 0.62012 0.75568
 C294 C 0.16215 0.59126 0.78494
 C295 C 0.13255 0.56035 0.78068
 C296 C 0.11480 0.54186 0.81312
 H297 H 0.17840 0.59252 0.81301
 H298 H 0.12150 0.55611 0.75044
 H299 H 0.14484 0.61861 0.72960
 H300 H 0.12467 0.54695 0.84359
 C301 C -0.15354 0.68113 0.25852
 C302 C -0.14113 0.65365 0.23131
 C303 C -0.10439 0.62615 0.23784
 C304 C -0.08928 0.60312 0.20770
 H305 H -0.15736 0.65159 0.20338
 H306 H -0.08951 0.62511 0.26690
 H307 H -0.13564 0.68296 0.28556
 H308 H -0.10403 0.60542 0.17852
 C309 C -0.14237 0.36711 0.72662
 C310 C -0.13618 0.39064 0.75764
 C311 C -0.10001 0.41503 0.75744
 C312 C -0.08925 0.43065 0.79205
 H313 H -0.15635 0.39064 0.78476
 H314 H -0.08083 0.41823 0.72968
 H315 H -0.12084 0.36749 0.70033
 H316 H -0.10763 0.42569 0.82006
 C317 C 0.24781 0.14550 0.35182
 C318 C 0.21939 0.13819 0.38132
 C319 C 0.22764 0.10490 0.41082
 C320 C 0.19796 0.08989 0.43521
 H321 H 0.19000 0.15525 0.38248
 H322 H 0.25880 0.09133 0.41142
 H323 H 0.27590 0.12634 0.34994
 H324 H 0.16657 0.10276 0.43433
 C325 C 0.76186 0.17759 0.62736
 C326 C 0.73114 0.15476 0.61907
 C327 C 0.73774 0.12481 0.58750
 C328 C 0.70678 0.10504 0.57397
 H329 H 0.70138 0.15829 0.63516
 H330 H 0.76891 0.11880 0.57507
 H331 H 0.79067 0.17491 0.60933
 H332 H 0.67541 0.11160 0.58550
 C333 C 0.20182 -0.16086 0.65980
 C334 C 0.23058 -0.13806 0.64279
 C335 C 0.21997 -0.10823 0.61052
 C336 C 0.24939 -0.09070 0.58791
 H337 H 0.26225 -0.14215 0.65206
 H338 H 0.18765 -0.10043 0.60537
 H339 H 0.17085 -0.15861 0.64841
 H340 H 0.28164 -0.09929 0.59250
 C341 C 0.70529 -0.12803 0.34528
 C342 C 0.73345 -0.11518 0.36941
 C343 C 0.72242 -0.08288 0.39771
 C344 C 0.75154 -0.06581 0.41734
 H345 H 0.76504 -0.12745 0.36730
 H346 H 0.69030 -0.07251 0.40193
 H347 H 0.67432 -0.11396 0.34636
 H348 H 0.78366 -0.07586 0.41234
 C349 C 0.67254 0.72555 -0.16928
 C350 C 0.63713 0.74691 -0.16192
 C351 C 0.60749 0.73193 -0.13018
 C352 C 0.57831 0.75613 -0.11292
 H353 H 0.63110 0.77588 -0.17689
 H354 H 0.61148 0.70124 -0.11873
 H355 H 0.67762 0.69760 -0.15181
 H356 H 0.57541 0.78722 -0.12327
 C357 C 0.35868 0.19194 -0.14908
 C358 C 0.37145 0.22083 -0.12643
 C359 C 0.40957 0.21545 -0.10380
 C360 C 0.42450 0.24626 -0.08583
 H361 H 0.35312 0.24855 -0.12310
 H362 H 0.42384 0.18564 -0.09947
 H363 H 0.37944 0.16610 -0.15488
 H364 H 0.41108 0.27620 -0.09152
 C365 C 0.37212 0.74776 0.15647
 C366 C 0.38000 0.71978 0.12869
 C367 C 0.41420 0.72525 0.09815
 C368 C 0.43018 0.69641 0.07415
 H369 H 0.36128 0.69427 0.12756
 H370 H 0.42618 0.75473 0.09465
 H371 H 0.39362 0.77127 0.15748
 H372 H 0.41995 0.66632 0.07819
 C373 C 0.66571 0.27068 0.13418
 C374 C 0.64105 0.24121 0.12815
 C375 C 0.61001 0.24693 0.09650
 C376 C 0.58785 0.21723 0.08537
 H377 H 0.64456 0.21299 0.14521
 H378 H 0.60593 0.27610 0.08125
 H379 H 0.66234 0.29796 0.11537
 H380 H 0.59206 0.18790 0.10019
 C381 C -0.09725 0.67229 0.74782
 C382 C -0.09184 0.64349 0.77703
 C383 C -0.05933 0.61138 0.77333
 C384 C -0.05298 0.58524 0.80465
 H385 H -0.11239 0.64243 0.80389
 H386 H -0.04246 0.60766 0.74429
 H387 H -0.07424 0.67460 0.72293
 H388 H -0.06923 0.58993 0.83386
 C389 C -0.13498 0.37171 0.20697
 C390 C -0.10744 0.38290 0.23285
 C391 C -0.08205 0.41695 0.22110
 C392 C -0.06211 0.43561 0.24881
 H393 H -0.10453 0.36839 0.26281
 H394 H -0.08062 0.42759 0.18936
 H395 H -0.13809 0.38878 0.17824
 H396 H -0.06463 0.42571 0.28072
 C397 C 0.13032 0.30023 0.83484
 C398 C 0.10809 0.31875 0.80568
 C399 C 0.08561 0.35716 0.81278
 C400 C 0.07294 0.38032 0.78116
 H401 H 0.10904 0.30702 0.77529
 H402 H 0.08091 0.36720 0.84378
 H403 H 0.13181 0.31369 0.86425
 H404 H 0.07890 0.37044 0.75022
 C405 C 0.14413 0.68223 0.24757
 C406 C 0.13701 0.65559 0.21966
 C407 C 0.10207 0.62956 0.22647
 C408 C 0.08871 0.60778 0.19690
 H409 H 0.15671 0.65245 0.19233
 H410 H 0.08750 0.62757 0.25688
 H411 H 0.12191 0.68581 0.27311
 H412 H 0.10216 0.61063 0.16610
 C413 C 0.78367 -0.12975 0.64861
 C414 C 0.75009 -0.10931 0.63492
 C415 C 0.75416 -0.07729 0.60280
 C416 C 0.72099 -0.06040 0.58472
 H417 H 0.71962 -0.11716 0.64605
 H418 H 0.78470 -0.06836 0.59297
 H419 H 0.81373 -0.12231 0.63570
 H420 H 0.69063 -0.07010 0.59418
 C421 C 0.26147 -0.13743 0.34563
 C422 C 0.22980 -0.12452 0.37008
 C423 C 0.23597 -0.09383 0.39984
 C424 C 0.20509 -0.07919 0.42424
 H425 H 0.19966 -0.13634 0.36832
 H426 H 0.26673 -0.08337 0.40214
 H427 H 0.29100 -0.12423 0.34758
 H428 H 0.17429 -0.08953 0.42202
 C429 C 0.78228 0.17662 0.34219
 C430 C 0.75266 0.15187 0.35395
 C431 C 0.75727 0.12279 0.38899
 C432 C 0.72553 0.10111 0.40188
 H433 H 0.72409 0.15324 0.33799
 H434 H 0.78629 0.11932 0.40428
 H435 H 0.81014 0.17587 0.35938
 H436 H 0.69654 0.10568 0.38660
 C437 C 0.19844 0.11474 0.68804
 C438 C 0.22776 0.10082 0.66162
 C439 C 0.21704 0.07811 0.62649
 C440 C 0.24576 0.06730 0.59803
 H441 H 0.25976 0.10683 0.66542
 H442 H 0.18548 0.06974 0.62422
 H443 H 0.16631 0.11034 0.68264
 H444 H 0.27722 0.07589 0.60048
   
