data_POSCAR
  _audit_creation_date              2014-09-24
  _audit_creation_method            'ToBaCCo'
  _symmetry_space_group_name_H-M    'P1'
  _symmetry_Int_Tables_number       1
  _symmetry_cell_setting            triclinic
  loop_
  _symmetry_equiv_pos_as_xyz
 x,y,z
_cell_length_a 37.3810
_cell_length_b 37.9233
_cell_length_c 38.6527
_cell_angle_alpha 90.011600
_cell_angle_beta 90.007400
_cell_angle_gamma 90.014600
loop_
  _atom_site_label
  _atom_site_type_symbol
  _atom_site_fract_x
  _atom_site_fract_y
  _atom_site_fract_z
O1 O 0.37496 0.32406 -0.03373
 O2 O 0.32665 0.37273 0.03269
 O3 O 0.37421 0.32393 0.03309
 O4 O 0.32812 0.37341 -0.03414
 O5 O 0.28367 0.33507 -0.03445
 O6 O 0.33254 0.28263 0.03216
 O7 O 0.28326 0.33316 0.03262
 O8 O 0.33254 0.28352 -0.03535
 Cu9 Cu 0.35519 0.35242 -0.00045
 Cu10 Cu 0.30363 0.30440 -0.00143
 C11 C 0.36250 0.29547 -0.04566
 C12 C 0.29672 0.36179 0.04376
 C13 C 0.36191 0.29478 0.04381
 C14 C 0.29777 0.36361 -0.04521
 O15 O 0.62485 0.67580 -0.03416
 O16 O 0.67354 0.62735 0.03210
 O17 O 0.62606 0.67622 0.03264
 O18 O 0.67175 0.62652 -0.03471
 O19 O 0.71619 0.66486 -0.03536
 O20 O 0.66775 0.71750 0.03137
 O21 O 0.71695 0.66691 0.03171
 O22 O 0.66725 0.71634 -0.03611
 Cu23 Cu 0.64485 0.64758 -0.00093
 Cu24 Cu 0.69641 0.69559 -0.00231
 C25 C 0.63722 0.70437 -0.04622
 C26 C 0.70353 0.63832 0.04299
 C27 C 0.63844 0.70540 0.04320
 C28 C 0.70202 0.63629 -0.04598
 O29 O 0.67332 0.37295 0.96719
 O30 O 0.62500 0.32440 1.03366
 O31 O 0.67181 0.37378 1.03400
 O32 O 0.62579 0.32412 0.96686
 O33 O 0.66748 0.28286 0.96789
 O34 O 0.71626 0.33547 1.03441
 O35 O 0.66744 0.28390 1.03538
 O36 O 0.71673 0.33342 0.96735
 Cu37 Cu 0.64477 0.35270 1.00034
 Cu38 Cu 0.69636 0.30472 1.00144
 C39 C 0.70326 0.36200 0.95615
 C40 C 0.63747 0.29584 1.04565
 C41 C 0.70214 0.36402 1.04511
 C42 C 0.63811 0.29496 0.95621
 O43 O 0.32657 0.62699 0.96821
 O44 O 0.37526 0.67583 1.03429
 O45 O 0.32842 0.62642 1.03503
 O46 O 0.37405 0.67589 0.96747
 O47 O 0.33234 0.71713 0.96860
 O48 O 0.28394 0.66469 1.03551
 O49 O 0.33282 0.71631 1.03610
 O50 O 0.28315 0.66652 0.96844
 Cu51 Cu 0.35528 0.64740 1.00116
 Cu52 Cu 0.30369 0.69534 1.00237
 C53 C 0.29657 0.63789 0.95726
 C54 C 0.36286 0.70443 1.04625
 C55 C 0.29812 0.63617 1.04622
 C56 C 0.36164 0.70501 0.95678
 O57 O -0.03568 0.37655 0.32601
 O58 O 0.03299 0.32937 0.37425
 O59 O 0.03344 0.37611 0.32608
 O60 O -0.03614 0.33069 0.37464
 O61 O -0.03612 0.28665 0.33728
 O62 O 0.03262 0.33487 0.28572
 O63 O 0.03319 0.28646 0.33557
 O64 O -0.03712 0.33448 0.28649
 Cu65 Cu -0.00126 0.35735 0.35404
 Cu66 Cu -0.00198 0.30628 0.30718
 C67 C -0.04791 0.36404 0.29801
 C68 C 0.04451 0.29983 0.36369
 C69 C 0.04452 0.36394 0.29750
 C70 C -0.04745 0.30069 0.36514
 O71 O 0.03425 0.67015 0.62558
 O72 O -0.03482 0.62318 0.67352
 O73 O -0.03482 0.66889 0.62472
 O74 O 0.03434 0.62351 0.67387
 O75 O 0.03336 0.66487 0.71410
 O76 O -0.03502 0.71297 0.66205
 O77 O -0.03639 0.66532 0.71297
 O78 O 0.03422 0.71317 0.66413
 Cu79 Cu -0.00016 0.64224 0.64565
 Cu80 Cu -0.00109 0.69341 0.69240
 C81 C 0.04567 0.69975 0.63609
 C82 C -0.04721 0.63578 0.70142
 C83 C -0.04613 0.69893 0.63410
 C84 C 0.04529 0.63576 0.70247
 O85 O 0.96595 0.67031 0.37437
 O86 O 1.03486 0.62315 0.32642
 O87 O 1.03504 0.66897 0.37512
 O88 O 0.96574 0.62360 0.32616
 O89 O 0.96675 0.66490 0.28587
 O90 O 1.03523 0.71301 0.33777
 O91 O 1.03648 0.66523 0.28693
 O92 O 0.96597 0.71326 0.33576
 Cu93 Cu 1.00030 0.64233 0.35431
 Cu94 Cu 1.00125 0.69343 0.30749
 C95 C 0.95452 0.69988 0.36381
 C96 C 1.04723 0.63567 0.29848
 C97 C 1.04638 0.69898 0.36570
 C98 C 0.95479 0.63582 0.29755
 O99 O 0.96649 0.33001 0.62498
 O100 O 1.03522 0.37701 0.67345
 O101 O 1.03555 0.33131 0.62459
 O102 O 0.96605 0.37665 0.67332
 O103 O 0.96680 0.33529 0.71354
 O104 O 1.03546 0.28720 0.66186
 O105 O 1.03656 0.33484 0.71285
 O106 O 0.96624 0.28701 0.66354
 Cu107 Cu 1.00075 0.35794 0.64532
 Cu108 Cu 1.00138 0.30676 0.69203
 C109 C 0.95500 0.30041 0.63542
 C110 C 1.04743 0.36441 0.70143
 C111 C 1.04674 0.30124 0.63398
 C112 C 0.95493 0.36440 0.70184
 O113 O 0.37445 0.03393 0.32709
 O114 O 0.32760 -0.03471 0.37497
 O115 O 0.37515 -0.03416 0.32696
 O116 O 0.32725 0.03340 0.37539
 O117 O 0.28364 0.03355 0.33682
 O118 O 0.33326 -0.03457 0.28663
 O119 O 0.28401 -0.03517 0.33637
 O120 O 0.33254 0.03395 0.28677
 Cu121 Cu 0.35530 -0.00038 0.35497
 Cu122 Cu 0.30393 -0.00059 0.30761
 C123 C 0.36210 0.04530 0.29866
 C124 C 0.29776 -0.04636 0.36440
 C125 C 0.36302 -0.04554 0.29845
 C126 C 0.29726 0.04474 0.36493
 O127 O 0.62633 0.03378 0.67353
 O128 O 0.67291 -0.03489 0.62552
 O129 O 0.62539 -0.03430 0.67348
 O130 O 0.67374 0.03320 0.62542
 O131 O 0.71730 0.03301 0.66405
 O132 O 0.66720 -0.03504 0.71388
 O133 O 0.71643 -0.03569 0.66419
 O134 O 0.66814 0.03350 0.71394
 Cu135 Cu 0.64542 -0.00049 0.64561
 Cu136 Cu 0.69669 -0.00109 0.69307
 C137 C 0.63865 0.04500 0.70202
 C138 C 0.70265 -0.04673 0.63611
 C139 C 0.63744 -0.04587 0.70194
 C140 C 0.70380 0.04434 0.63595
 O141 O 0.32735 1.03486 0.62474
 O142 O 0.37386 0.96628 0.67302
 O143 O 0.32707 0.96678 0.62436
 O144 O 0.37467 1.03440 0.67295
 O145 O 0.33257 1.03486 0.71307
 O146 O 0.28321 0.96669 0.66267
 O147 O 0.33170 0.96632 0.71309
 O148 O 0.28356 1.03539 0.66312
 Cu149 Cu 0.35495 1.00056 0.64494
 Cu150 Cu 0.30331 1.00084 0.69201
 C151 C 0.29746 1.04651 0.63514
 C152 C 0.36131 0.95492 0.70137
 C153 C 0.29700 0.95548 0.63465
 C154 C 0.36237 1.04584 0.70136
 O155 O 0.67157 1.03524 0.37596
 O156 O 0.62607 0.96650 0.32706
 O157 O 0.67249 0.96706 0.37613
 O158 O 0.62511 1.03461 0.32720
 O159 O 0.66807 1.03588 0.28797
 O160 O 0.71648 0.96677 0.33797
 O161 O 0.66841 0.96723 0.28720
 O162 O 0.71648 1.03527 0.33887
 Cu163 Cu 0.64456 1.00079 0.35536
 Cu164 Cu 0.69683 1.00140 0.30900
 C165 C 0.70201 1.04648 0.36659
 C166 C 0.63880 0.95554 0.29865
 C167 C 0.70254 0.95560 0.36593
 C168 C 0.63796 1.04653 0.29922
 C169 C 0.77271 0.87649 0.53241
 C170 C 0.75980 0.88934 0.50094
 C171 C 0.77285 0.87756 0.46912
 C172 C 0.80034 0.85195 0.46853
 C173 C 0.81404 0.83857 0.50032
 C174 C 0.80011 0.85084 0.53240
 C175 C 0.81266 0.83590 0.56334
 C176 C 0.83860 0.80957 0.56305
 C177 C 0.85323 0.79728 0.53182
 C178 C 0.84064 0.81178 0.50002
 C179 C 0.81326 0.83816 0.43722
 C180 C 0.83926 0.81192 0.43690
 C181 C 0.85338 0.79845 0.46787
 C182 C 0.87871 0.77085 0.46776
 C183 C 0.89116 0.75749 0.49916
 C184 C 0.87884 0.76976 0.53114
 H185 H 0.80195 0.84380 0.58814
 H186 H 0.84633 0.79847 0.58767
 H187 H 0.80286 0.84693 0.41258
 H188 H 0.84761 0.80182 0.41202
 H189 H 0.73896 0.90927 0.50122
 H190 H 0.91113 0.73673 0.49861
 C191 C 0.22698 0.12311 0.53148
 C192 C 0.23971 0.11030 0.49992
 C193 C 0.22652 0.12217 0.46820
 C194 C 0.19903 0.14778 0.46777
 C195 C 0.18553 0.16114 0.49965
 C196 C 0.19962 0.14882 0.53164
 C197 C 0.18729 0.16377 0.56266
 C198 C 0.16142 0.19016 0.56253
 C199 C 0.14664 0.20250 0.53138
 C200 C 0.15899 0.18798 0.49951
 C201 C 0.18594 0.16158 0.43654
 C202 C 0.15998 0.18786 0.43638
 C203 C 0.14607 0.20134 0.46744
 C204 C 0.12078 0.22899 0.46749
 C205 C 0.10859 0.24238 0.49898
 C206 C 0.12112 0.23010 0.53086
 H207 H 0.19813 0.15584 0.58740
 H208 H 0.15384 0.20126 0.58719
 H209 H 0.19617 0.15278 0.41185
 H210 H 0.15151 0.19798 0.41155
 H211 H 0.26056 0.09038 0.50006
 H212 H 0.08867 0.26320 0.49857
 C213 C 0.12127 0.77084 0.53206
 C214 C 0.10898 0.75745 0.50061
 C215 C 0.12132 0.76982 0.46869
 C216 C 0.14680 0.79747 0.46810
 C217 C 0.15923 0.81201 0.49994
 C218 C 0.14646 0.79858 0.53204
 C219 C 0.16043 0.81210 0.56307
 C220 C 0.18628 0.83848 0.56284
 C221 C 0.19922 0.85235 0.53158
 C222 C 0.18569 0.83893 0.49974
 C223 C 0.16146 0.80986 0.43691
 C224 C 0.18729 0.83631 0.43672
 C225 C 0.19969 0.85128 0.46772
 C226 C 0.22701 0.87704 0.46783
 C227 C 0.23974 0.88993 0.49936
 C228 C 0.22660 0.87806 0.53110
 H229 H 0.15209 0.80192 0.58791
 H230 H 0.19655 0.84730 0.58752
 H231 H 0.15384 0.79874 0.41227
 H232 H 0.19805 0.84428 0.41196
 H233 H 0.08910 0.73659 0.50109
 H234 H 0.26055 0.90990 0.49919
 C235 C 0.77317 0.12158 0.46896
 C236 C 0.76151 0.10843 0.50081
 C237 C 0.77478 0.12079 0.53229
 C238 C 0.80177 0.14684 0.53228
 C239 C 0.81458 0.16035 0.50020
 C240 C 0.80007 0.14787 0.46838
 C241 C 0.81160 0.16324 0.43725
 C242 C 0.83728 0.18985 0.43707
 C243 C 0.85248 0.20223 0.46801
 C244 C 0.84074 0.18758 0.50002
 C245 C 0.81502 0.16089 0.56333
 C246 C 0.84054 0.18756 0.56317
 C247 C 0.85391 0.20115 0.53194
 C248 C 0.87888 0.22909 0.53160
 C249 C 0.89058 0.24251 0.49995
 C250 C 0.87782 0.23002 0.46822
 H251 H 0.80034 0.15549 0.41265
 H252 H 0.84436 0.20116 0.41235
 H253 H 0.80528 0.15191 0.58816
 H254 H 0.84912 0.19785 0.58789
 H255 H 0.74114 0.08802 0.50122
 H256 H 0.91036 0.26347 0.50012
 C257 C 0.53122 0.77710 0.88031
 C258 C 0.49849 0.76473 0.89279
 C259 C 0.46579 0.77760 0.88076
 C260 C 0.46551 0.80445 0.85542
 C261 C 0.49857 0.81764 0.84245
 C262 C 0.53158 0.80398 0.85500
 C263 C 0.56380 0.81627 0.84072
 C264 C 0.56385 0.84148 0.81457
 C265 C 0.53167 0.85531 0.80164
 C266 C 0.49861 0.84328 0.81567
 C267 C 0.43331 0.81719 0.84152
 C268 C 0.43334 0.84226 0.81521
 C269 C 0.46559 0.85561 0.80188
 C270 C 0.46594 0.87971 0.77401
 C271 C 0.49867 0.89131 0.76082
 C272 C 0.53140 0.87959 0.77389
 H273 H 0.58936 0.80598 0.84906
 H274 H 0.58943 0.84934 0.80403
 H275 H 0.40773 0.80733 0.85033
 H276 H 0.40777 0.85047 0.80492
 H277 H 0.49846 0.74415 0.91232
 H278 H 0.49867 0.91015 0.73968
 C279 C 0.53258 0.12090 0.22647
 C280 C 0.49990 0.10909 0.23958
 C281 C 0.46712 0.12049 0.22635
 C282 C 0.46667 0.14453 0.19842
 C283 C 0.49965 0.15691 0.18456
 C284 C 0.53276 0.14503 0.19861
 C285 C 0.56488 0.15887 0.18556
 C286 C 0.56474 0.18397 0.15930
 C287 C 0.53246 0.19615 0.14504
 C288 C 0.49951 0.18246 0.15769
 C289 C 0.43438 0.15778 0.18511
 C290 C 0.43425 0.18277 0.15874
 C291 C 0.46639 0.19554 0.14474
 C292 C 0.46656 0.22231 0.11933
 C293 C 0.49921 0.23521 0.10719
 C294 C 0.53199 0.22294 0.11965
 H295 H 0.59050 0.15107 0.19607
 H296 H 0.59025 0.19427 0.15085
 H297 H 0.40883 0.14957 0.19546
 H298 H 0.40863 0.19255 0.14996
 H299 H 0.49998 0.09033 0.26080
 H300 H 0.49910 0.25574 0.08761
 C301 C 0.53347 0.11991 0.77429
 C302 C 0.50075 0.10837 0.76101
 C303 C 0.46801 0.12013 0.77403
 C304 C 0.46770 0.14435 0.80183
 C305 C 0.50074 0.15636 0.81590
 C306 C 0.53379 0.14403 0.80215
 C307 C 0.56601 0.15740 0.81549
 C308 C 0.56602 0.18250 0.84178
 C309 C 0.53381 0.19523 0.85566
 C310 C 0.50076 0.18201 0.84269
 C311 C 0.43551 0.15815 0.81476
 C312 C 0.43553 0.18334 0.84095
 C313 C 0.46774 0.19567 0.85524
 C314 C 0.46810 0.22256 0.88053
 C315 C 0.50083 0.23497 0.89301
 C316 C 0.53352 0.22210 0.88097
 H317 H 0.59160 0.14921 0.80523
 H318 H 0.59160 0.19238 0.85057
 H319 H 0.40994 0.15026 0.80421
 H320 H 0.40997 0.19361 0.84932
 H321 H 0.50077 0.08957 0.73983
 H322 H 0.50086 0.25557 0.91251
 C323 C 0.53423 0.77832 0.11885
 C324 C 0.50151 0.76536 0.10693
 C325 C 0.46880 0.77773 0.11944
 C326 C 0.46848 0.80470 0.14467
 C327 C 0.50151 0.81846 0.15710
 C328 C 0.53455 0.80527 0.14409
 C329 C 0.56678 0.81813 0.15785
 C330 C 0.56681 0.84329 0.18408
 C331 C 0.53459 0.85660 0.19749
 C332 C 0.50153 0.84418 0.18382
 C333 C 0.43629 0.81700 0.15901
 C334 C 0.43630 0.84227 0.18512
 C335 C 0.46851 0.85618 0.19794
 C336 C 0.46885 0.88049 0.22567
 C337 C 0.50161 0.89231 0.23861
 C338 C 0.53431 0.88075 0.22533
 H339 H 0.59235 0.80829 0.14900
 H340 H 0.59240 0.85162 0.19425
 H341 H 0.41073 0.80665 0.15074
 H342 H 0.41075 0.85013 0.19571
 H343 H 0.50152 0.74470 0.08747
 H344 H 0.50167 0.91113 0.25978
 C345 C 0.77356 0.53162 0.88091
 C346 C 0.76183 0.49914 0.89371
 C347 C 0.77485 0.46705 0.88134
 C348 C 0.80172 0.46697 0.85570
 C349 C 0.81456 0.49964 0.84249
 C350 C 0.80036 0.53214 0.85500
 C351 C 0.81210 0.56387 0.84008
 C352 C 0.83752 0.56397 0.81376
 C353 C 0.85205 0.53233 0.80115
 C354 C 0.84038 0.49974 0.81551
 C355 C 0.81483 0.43528 0.84180
 C356 C 0.84015 0.43540 0.81542
 C357 C 0.85330 0.46722 0.80191
 C358 C 0.87775 0.46760 0.77402
 C359 C 0.88901 0.49991 0.76056
 C360 C 0.87663 0.53211 0.77339
 H361 H 0.80125 0.58901 0.84798
 H362 H 0.84500 0.58916 0.80284
 H363 H 0.80513 0.40999 0.85069
 H364 H 0.84871 0.41022 0.80525
 H365 H 0.74153 0.49871 0.91378
 H366 H 0.90812 0.50000 0.73941
 C367 C 0.12303 0.53180 0.22634
 C368 C 0.11057 0.49959 0.23907
 C369 C 0.12183 0.46730 0.22558
 C370 C 0.14639 0.46695 0.19778
 C371 C 0.15939 0.49949 0.18427
 C372 C 0.14770 0.53205 0.19865
 C373 C 0.16231 0.56370 0.18615
 C374 C 0.18781 0.56364 0.15990
 C375 C 0.19958 0.53192 0.14497
 C376 C 0.18531 0.49941 0.15738
 C377 C 0.15956 0.43515 0.18425
 C378 C 0.18499 0.43505 0.15797
 C379 C 0.19818 0.46675 0.14416
 C380 C 0.22514 0.46687 0.11860
 C381 C 0.23823 0.49897 0.10634
 C382 C 0.22646 0.53144 0.11915
 H383 H 0.15482 0.58888 0.19710
 H384 H 0.19872 0.58878 0.15209
 H385 H 0.15094 0.40995 0.19435
 H386 H 0.19470 0.40977 0.14907
 H387 H 0.09140 0.49966 0.26017
 H388 H 0.25860 0.49857 0.08632
 C389 C 0.77538 0.53326 0.11749
 C390 C 0.76234 0.50119 0.10508
 C391 C 0.77401 0.46870 0.11790
 C392 C 0.80075 0.46814 0.14385
 C393 C 0.81497 0.50061 0.15640
 C394 C 0.80221 0.53330 0.14318
 C395 C 0.81533 0.56497 0.15712
 C396 C 0.84058 0.56481 0.18356
 C397 C 0.85364 0.53297 0.19711
 C398 C 0.84072 0.50047 0.18346
 C399 C 0.81240 0.43639 0.15879
 C400 C 0.83773 0.43625 0.18518
 C401 C 0.85228 0.46787 0.19785
 C402 C 0.87676 0.46805 0.22569
 C403 C 0.88914 0.50022 0.23858
 C404 C 0.87799 0.53254 0.22508
 H405 H 0.80571 0.59027 0.14820
 H406 H 0.84915 0.58998 0.19377
 H407 H 0.80151 0.41127 0.15086
 H408 H 0.84512 0.41104 0.19613
 H409 H 0.74205 0.50164 0.08499
 H410 H 0.90816 0.50011 0.25981
 C411 C 0.22461 0.53282 0.88260
 C412 C 0.23758 0.50070 0.89493
 C413 C 0.22586 0.46825 0.88202
 C414 C 0.19911 0.46778 0.85607
 C415 C 0.18496 0.50030 0.84358
 C416 C 0.19780 0.53295 0.85689
 C417 C 0.18474 0.56467 0.84301
 C418 C 0.15949 0.56459 0.81656
 C419 C 0.14636 0.53280 0.80294
 C420 C 0.15922 0.50025 0.81652
 C421 C 0.18738 0.43607 0.84107
 C422 C 0.16205 0.43603 0.81467
 C423 C 0.14758 0.46769 0.80205
 C424 C 0.12310 0.46797 0.77419
 C425 C 0.11078 0.50019 0.76140
 C426 C 0.12201 0.53248 0.77497
 H427 H 0.19442 0.58994 0.85198
 H428 H 0.15095 0.58979 0.80641
 H429 H 0.19819 0.41092 0.84898
 H430 H 0.15458 0.41085 0.80368
 H431 H 0.25786 0.50108 0.91503
 H432 H 0.09175 0.50016 0.74018
 N433 N 0.24128 0.38402 0.07068
 C434 C 0.27758 0.38420 0.06850
 N435 N 0.29608 0.40953 0.08556
 N436 N 0.27910 0.43429 0.10344
 C437 C 0.24286 0.43487 0.10497
 N438 N 0.22418 0.40906 0.08851
 N439 N 0.75910 0.61609 0.06966
 C440 C 0.72279 0.61596 0.06768
 N441 N 0.70435 0.59068 0.08486
 N442 N 0.72140 0.56591 0.10266
 C443 C 0.75764 0.56527 0.10398
 N444 N 0.77627 0.59105 0.08742
 N445 N 0.70391 0.40968 0.91431
 C446 C 0.72241 0.38438 0.93140
 N447 N 0.75871 0.38423 0.92924
 N448 N 0.77582 0.40926 0.91141
 C449 C 0.75713 0.43505 0.89494
 N450 N 0.72090 0.43444 0.89643
 N451 N 0.29573 0.59004 0.91558
 C452 C 0.27732 0.61543 0.93262
 N453 N 0.24101 0.61568 0.93046
 N454 N 0.22382 0.59066 0.91267
 C455 C 0.24242 0.56478 0.89622
 N456 N 0.27866 0.56529 0.89773
 N457 N 0.07195 0.24514 0.38581
 C458 C 0.06985 0.28093 0.38593
 N459 N 0.08731 0.29911 0.41094
 N460 N 0.10551 0.28230 0.43540
 C461 C 0.10694 0.24657 0.43601
 N462 N 0.09007 0.22822 0.41055
 N463 N 0.08836 0.70059 0.58877
 C464 C 0.07093 0.71871 0.61384
 N465 N 0.07286 0.75451 0.61392
 N466 N 0.09080 0.77149 0.58910
 C467 C 0.10764 0.75320 0.56358
 N468 N 0.10638 0.71746 0.56422
 N469 N 0.91169 0.70067 0.41101
 C470 C 0.92919 0.71882 0.38602
 N471 N 0.92723 0.75462 0.38595
 N472 N 0.90920 0.77157 0.41074
 C473 C 0.89231 0.75325 0.43620
 N474 N 0.89359 0.71752 0.43553
 N475 N 0.92775 0.24564 0.61325
 C476 C 0.92984 0.28143 0.61303
 N477 N 0.91252 0.29951 0.58787
 N478 N 0.89441 0.28259 0.56339
 C479 C 0.89294 0.24685 0.56292
 N480 N 0.90973 0.22862 0.58851
 N481 N 0.40979 0.08865 0.29649
 C482 C 0.38406 0.07054 0.27934
 N483 N 0.38348 0.07178 0.24419
 N484 N 0.40856 0.08967 0.22691
 C485 C 0.43482 0.10714 0.24423
 N486 N 0.43457 0.10662 0.27931
 N487 N 0.61715 0.07131 0.75654
 C488 C 0.61672 0.07024 0.72139
 N489 N 0.59108 0.08844 0.70423
 N490 N 0.56623 0.10633 0.72139
 C491 C 0.56584 0.10668 0.75647
 N492 N 0.59202 0.08913 0.77381
 N493 N 0.38246 0.92849 0.75596
 C494 C 0.38307 0.92961 0.72080
 N495 N 0.40870 0.91130 0.70374
 N496 N 0.43338 0.89329 0.72100
 C497 C 0.43362 0.89292 0.75608
 N498 N 0.40744 0.91056 0.77332
 N499 N 0.61766 0.92970 0.24373
 C500 C 0.61720 0.93030 0.27890
 N501 N 0.59173 0.91159 0.29579
 N502 N 0.56707 0.89370 0.27837
 C503 C 0.56667 0.89384 0.24329
 N504 N 0.59270 0.91187 0.22620
 N505 N 0.38379 0.24032 0.92739
 C506 C 0.38476 0.27609 0.92957
 N507 N 0.41105 0.29375 0.91277
 N508 N 0.43599 0.27646 0.89517
 C509 C 0.43583 0.24074 0.89368
 N510 N 0.40902 0.22291 0.90983
 N511 N 0.61575 0.75944 0.92685
 C512 C 0.61480 0.72367 0.92912
 N513 N 0.58838 0.70598 0.91254
 N514 N 0.56332 0.72322 0.89504
 C515 C 0.56350 0.75893 0.89346
 N516 N 0.59041 0.77680 0.90941
 N517 N 0.41175 0.70634 0.08747
 C518 C 0.38528 0.72390 0.07084
 N519 N 0.38424 0.75967 0.07302
 N520 N 0.40954 0.77717 0.09042
 C521 C 0.43651 0.75943 0.10641
 N522 N 0.43676 0.72371 0.10492
 N523 N 0.58887 0.29416 0.08715
 C524 C 0.61521 0.27651 0.07044
 N525 N 0.61625 0.24075 0.07273
 N526 N 0.59105 0.22334 0.09032
 C527 C 0.56419 0.24116 0.10640
 N528 N 0.56395 0.27687 0.10479
 N529 N 0.24261 0.07511 0.61331
 C530 C 0.27882 0.07184 0.61286
 N531 N 0.29758 0.08832 0.58759
 N532 N 0.28090 0.10664 0.56316
 C533 C 0.24472 0.10922 0.56288
 N534 N 0.22582 0.09338 0.58863
 N535 N 0.70175 0.08301 0.41618
 C536 C 0.71959 0.06995 0.38847
 N537 N 0.75511 0.07708 0.38526
 N538 N 0.77229 0.09528 0.40981
 C539 C 0.75439 0.10756 0.43801
 N540 N 0.71872 0.10146 0.44029
 N541 N 0.75744 0.92464 0.61421
 C542 C 0.72122 0.92780 0.61394
 N543 N 0.70237 0.91116 0.58883
 N544 N 0.71895 0.89279 0.56438
 C545 C 0.75514 0.89032 0.56391
 N546 N 0.77414 0.90631 0.58951
 N547 N 0.29772 0.91162 0.41175
 C548 C 0.27903 0.92825 0.38654
 N549 N 0.24280 0.92512 0.38608
 N550 N 0.22593 0.90683 0.41071
 C551 C 0.24478 0.89084 0.43642
 N552 N 0.28097 0.89329 0.43613
 N553 N 0.09098 0.41178 0.70373
 C554 C 0.07308 0.38602 0.72076
 N555 N 0.07478 0.38503 0.75588
 N556 N 0.09283 0.40975 0.77327
 C557 C 0.11002 0.43608 0.75607
 N558 N 0.10911 0.43622 0.72100
 N559 N 0.07482 0.61488 0.24423
 C560 C 0.07293 0.61396 0.27934
 N561 N 0.09062 0.58817 0.29652
 N562 N 0.10876 0.56364 0.27940
 C563 C 0.10987 0.56372 0.24434
 N564 N 0.09289 0.59006 0.22699
 N565 N 0.92482 0.38493 0.24365
 C566 C 0.92649 0.38576 0.27878
 N567 N 0.90868 0.41150 0.29592
 N568 N 0.89066 0.43608 0.27876
 C569 C 0.88978 0.43608 0.24368
 N570 N 0.90688 0.40979 0.22638
 N571 N 0.92512 0.61504 0.75564
 C572 C 0.92698 0.61418 0.72053
 N573 N 0.90913 0.58850 0.70331
 N574 N 0.89089 0.56402 0.72039
 C575 C 0.88982 0.56404 0.75546
 N576 N 0.90696 0.59027 0.77284
 N577 N 0.75524 0.61724 0.92411
 C578 C 0.71973 0.61386 0.93117
 N579 N 0.70203 0.58539 0.91865
 N580 N 0.71908 0.56074 0.90073
 C581 C 0.75472 0.56317 0.89466
 N582 N 0.77251 0.59213 0.90644
 N583 N 0.29758 0.41445 0.91936
 C584 C 0.27994 0.38601 0.93199
 N585 N 0.24439 0.38264 0.92512
 N586 N 0.22702 0.40774 0.90753
 C587 C 0.24476 0.43668 0.89565
 N588 N 0.28044 0.43910 0.90152
 N589 N 0.29807 0.58531 0.08164
 C590 C 0.28038 0.61375 0.06907
 N591 N 0.24485 0.61708 0.07603
 N592 N 0.22755 0.59195 0.09364
 C593 C 0.24532 0.56302 0.10547
 N594 N 0.28099 0.56064 0.09951
 N595 N 0.75549 0.38310 0.07479
 C596 C 0.71995 0.38646 0.06787
 N597 N 0.70231 0.41493 0.08044
 N598 N 0.71945 0.43961 0.09826
 C599 C 0.75511 0.43718 0.10419
 N600 N 0.77284 0.40822 0.09236
 N601 N 0.91728 0.69905 0.58416
 C602 C 0.93048 0.71651 0.61197
 N603 N 0.92367 0.75162 0.61507
 N604 N 0.90559 0.76872 0.59036
 C605 C 0.89309 0.75117 0.56210
 N606 N 0.89891 0.71594 0.55991
 N607 N 0.91544 0.30069 0.41470
 C608 C 0.92894 0.28314 0.38709
 N609 N 0.92228 0.24798 0.38413
 N610 N 0.90419 0.23092 0.40886
 C611 C 0.89151 0.24856 0.43700
 N612 N 0.89706 0.28384 0.43897
 N613 N 0.07668 0.24842 0.61492
 C614 C 0.07011 0.28358 0.61190
 N615 N 0.08343 0.30100 0.58412
 N616 N 0.10164 0.28402 0.55981
 C617 C 0.10718 0.24875 0.56191
 N618 N 0.09460 0.23124 0.59016
 N619 N 0.08312 0.69909 0.41553
 C620 C 0.06983 0.71656 0.38778
 N621 N 0.07657 0.75169 0.38473
 N622 N 0.09463 0.76879 0.40945
 C623 C 0.10720 0.75123 0.43767
 N624 N 0.10148 0.71599 0.43979
 N625 N 0.58889 0.91165 0.70391
 C626 C 0.61497 0.92918 0.72116
 N627 N 0.61566 0.92750 0.75629
 N628 N 0.59037 0.90975 0.77346
 C629 C 0.56378 0.89285 0.75603
 N630 N 0.56390 0.89384 0.72096
 N631 N 0.41159 0.91206 0.29606
 C632 C 0.38541 0.92961 0.27901
 N633 N 0.38458 0.92811 0.24387
 N634 N 0.40982 0.91051 0.22651
 C635 C 0.43651 0.89359 0.24373
 N636 N 0.43654 0.89439 0.27881
 N637 N 0.61669 0.07300 0.24459
 C638 C 0.61598 0.07170 0.27974
 N639 N 0.59001 0.08957 0.29679
 N640 N 0.56514 0.10734 0.27953
 C641 C 0.56501 0.10790 0.24445
 N642 N 0.59152 0.09070 0.22723
 N643 N 0.38388 0.07221 0.75594
 C644 C 0.38462 0.07081 0.72080
 N645 N 0.41066 0.08856 0.70373
 N646 N 0.43558 0.10631 0.72095
 C647 C 0.43566 0.10700 0.75603
 N648 N 0.40909 0.08989 0.77328
 N649 N 0.61716 0.76094 0.06961
 C650 C 0.61682 0.72511 0.06833
 N651 N 0.59162 0.70744 0.08661
 N652 N 0.56706 0.72472 0.10473
 C653 C 0.56654 0.76046 0.10532
 N654 N 0.59232 0.77835 0.08771
 N655 N 0.38338 0.23937 0.07036
 C656 C 0.38368 0.27520 0.06891
 N657 N 0.40896 0.29298 0.08701
 N658 N 0.43362 0.27581 0.10510
 C659 C 0.43417 0.24007 0.10585
 N660 N 0.40832 0.22207 0.08842
 N661 N 0.59103 0.29297 0.91308
 C662 C 0.61636 0.27529 0.93118
 N663 N 0.61670 0.23945 0.92984
 N664 N 0.59175 0.22207 0.91187
 C665 C 0.56586 0.23997 0.89444
 N666 N 0.56636 0.27571 0.89508
 N667 N 0.38288 0.76043 0.93010
 C668 C 0.38323 0.72460 0.93154
 N669 N 0.40841 0.70686 0.91331
 N670 N 0.43294 0.72406 0.89509
 C671 C 0.43346 0.75980 0.89434
 N672 N 0.40770 0.77776 0.91190
 N673 N 0.75743 0.92699 0.38790
 C674 C 0.72121 0.93032 0.38832
 N675 N 0.70241 0.91365 0.41343
 N676 N 0.71903 0.89501 0.43768
 C677 C 0.75520 0.89226 0.43796
 N678 N 0.77416 0.90840 0.41242
 N679 N 0.29700 0.91348 0.58723
 C680 C 0.27820 0.93030 0.61225
 N681 N 0.24195 0.92733 0.61244
 N682 N 0.22520 0.90891 0.58780
 C683 C 0.24417 0.89263 0.56235
 N684 N 0.28036 0.89502 0.56285
 N685 N 0.24210 0.07282 0.38695
 C686 C 0.27836 0.06995 0.38722
 N687 N 0.29707 0.08693 0.41220
 N688 N 0.28035 0.10542 0.43649
 C689 C 0.24415 0.10770 0.43694
 N690 N 0.22526 0.09127 0.41151
 N691 N 0.75921 0.07173 0.61367
 C692 C 0.72290 0.06945 0.61372
 N693 N 0.70424 0.08679 0.58896
 N694 N 0.72104 0.10504 0.56456
 C695 C 0.75727 0.10670 0.56376
 N696 N 0.77613 0.08994 0.58899
 N697 N 0.92842 0.61453 0.24278
 C698 C 0.92920 0.61430 0.27796
 N699 N 0.91023 0.58935 0.29508
 N700 N 0.89189 0.56499 0.27790
 C701 C 0.89180 0.56440 0.24282
 N702 N 0.91013 0.58988 0.22550
 N703 N 0.92826 0.38563 0.75651
 C704 C 0.92923 0.38589 0.72134
 N705 N 0.91033 0.41083 0.70415
 N706 N 0.89188 0.43516 0.72125
 C707 C 0.89161 0.43573 0.75633
 N708 N 0.90988 0.41025 0.77373
 N709 N 0.08990 0.58934 0.70499
 C710 C 0.07087 0.61426 0.72210
 N711 N 0.07161 0.61447 0.75727
 N712 N 0.08989 0.58983 0.77457
 C713 C 0.10827 0.56438 0.75725
 N714 N 0.10824 0.56500 0.72217
 N715 N 0.07125 0.38529 0.24289
 C716 C 0.07023 0.38549 0.27806
 N717 N 0.08912 0.41042 0.29531
 N718 N 0.10759 0.43478 0.27828
 C719 C 0.10791 0.43540 0.24320
 N720 N 0.08966 0.40994 0.22573
   
