data_POSCAR
  _audit_creation_date              2014-09-24
  _audit_creation_method            'ToBaCCo'
  _symmetry_space_group_name_H-M    'P1'
  _symmetry_Int_Tables_number       1
  _symmetry_cell_setting            triclinic
  loop_
  _symmetry_equiv_pos_as_xyz
 x,y,z
_cell_length_a 37.0971
_cell_length_b 36.5865
_cell_length_c 37.1061
_cell_angle_alpha 89.878400
_cell_angle_beta 89.980500
_cell_angle_gamma 90.022900
loop_
  _atom_site_label
  _atom_site_type_symbol
  _atom_site_fract_x
  _atom_site_fract_y
  _atom_site_fract_z
N1 N 0.58329 0.68275 0.60926
 N2 N 0.56918 0.66780 0.63832
 C3 C 0.53990 0.68713 0.64822
 C4 C 0.53568 0.71546 0.62406
 C5 C 0.56350 0.71205 0.59969
 H6 H 0.52291 0.68115 0.67117
 H7 H 0.56890 0.72954 0.57678
 Cu8 Cu 0.59055 0.62459 0.66022
 Cu9 Cu 0.62619 0.66314 0.58603
 Cu10 Cu 0.66469 0.58607 0.62469
 N11 N 0.61235 0.58137 0.68168
 N12 N 0.64139 0.56643 0.66762
 C13 C 0.65089 0.53710 0.68743
 C14 C 0.62647 0.53369 0.71521
 C15 C 0.60236 0.56202 0.71098
 H16 H 0.67377 0.51961 0.68204
 H17 H 0.57938 0.56799 0.72793
 N18 N 0.68428 0.60994 0.58123
 N19 N 0.66962 0.63930 0.56651
 C20 C 0.68907 0.64903 0.53734
 C21 C 0.71708 0.62464 0.53375
 C22 C 0.71344 0.60024 0.56181
 H23 H 0.68337 0.67208 0.51997
 H24 H 0.73076 0.57719 0.56756
 H25 H 0.61905 0.60974 0.60286
 H26 H 0.64796 0.63947 0.63171
 N27 N 0.91779 0.31711 0.10846
 N28 N 0.93230 0.33235 0.13709
 C29 C 0.96152 0.31292 0.14708
 C30 C 0.96523 0.28423 0.12337
 C31 C 0.93724 0.28750 0.09920
 H32 H 0.97874 0.31908 0.16978
 H33 H 0.93146 0.26974 0.07666
 Cu34 Cu 0.91157 0.37606 0.15851
 Cu35 Cu 0.87483 0.33672 0.08535
 Cu36 Cu 0.83649 0.41376 0.12381
 N37 N 0.88928 0.41881 0.18023
 N38 N 0.85991 0.43341 0.16652
 C39 C 0.85020 0.46245 0.18654
 C40 C 0.87480 0.46603 0.21411
 C41 C 0.89924 0.43807 0.20951
 H42 H 0.82704 0.47965 0.18146
 H43 H 0.92243 0.43230 0.22623
 N44 N 0.81674 0.38991 0.08054
 N45 N 0.83136 0.36055 0.06588
 C46 C 0.81185 0.35086 0.03680
 C47 C 0.78384 0.37527 0.03320
 C48 C 0.78755 0.39965 0.06116
 H49 H 0.81752 0.32783 0.01948
 H50 H 0.77027 0.42272 0.06686
 H51 H 0.88195 0.39028 0.10148
 H52 H 0.85379 0.36056 0.13125
 N53 N 0.41697 0.18299 -0.10882
 N54 N 0.43152 0.16762 -0.13736
 C55 C 0.46083 0.18694 -0.14729
 C56 C 0.46462 0.21571 -0.12369
 C57 C 0.43651 0.21256 -0.09962
 H58 H 0.47813 0.18066 -0.16991
 H59 H 0.43073 0.23042 -0.07715
 Cu60 Cu 0.41070 0.12391 -0.15871
 Cu61 Cu 0.37386 0.16358 -0.08576
 Cu62 Cu 0.33538 0.08652 -0.12408
 N63 N 0.38834 0.08116 -0.18036
 N64 N 0.35888 0.06667 -0.16668
 C65 C 0.34913 0.03761 -0.18665
 C66 C 0.37380 0.03389 -0.21415
 C67 C 0.39832 0.06179 -0.20956
 H68 H 0.32589 0.02049 -0.18158
 H69 H 0.42157 0.06746 -0.22625
 N70 N 0.31558 0.11056 -0.08094
 N71 N 0.33024 0.13993 -0.06634
 C72 C 0.31068 0.14975 -0.03732
 C73 C 0.28259 0.12541 -0.03370
 C74 C 0.28631 0.10093 -0.06158
 H75 H 0.31638 0.17280 -0.02004
 H76 H 0.26899 0.07787 -0.06724
 H77 H 0.38085 0.10995 -0.10171
 H78 H 0.35288 0.13966 -0.13164
 N79 N 0.08227 0.81611 0.39112
 N80 N 0.06811 0.83111 0.36213
 C81 C 0.03888 0.81172 0.35216
 C82 C 0.03480 0.78329 0.37623
 C83 C 0.06259 0.78667 0.40061
 H84 H 0.02187 0.81774 0.32923
 H85 H 0.06807 0.76912 0.42346
 Cu86 Cu 0.08934 0.87450 0.34038
 Cu87 Cu 0.12511 0.83579 0.41439
 Cu88 Cu 0.16337 0.91317 0.37599
 N89 N 0.11102 0.91789 0.31906
 N90 N 0.14000 0.93287 0.33316
 C91 C 0.14943 0.96228 0.31341
 C92 C 0.12503 0.96574 0.28563
 C93 C 0.10101 0.93731 0.28983
 H94 H 0.17227 0.97982 0.31881
 H95 H 0.07808 0.93132 0.27285
 N96 N 0.18304 0.88921 0.41934
 N97 N 0.16848 0.85973 0.43397
 C98 C 0.18796 0.84998 0.46309
 C99 C 0.21590 0.87447 0.46674
 C100 C 0.21217 0.89897 0.43877
 H101 H 0.18234 0.82684 0.48038
 H102 H 0.22941 0.92211 0.43310
 H103 H 0.11781 0.88923 0.39777
 H104 H 0.14680 0.85973 0.36878
 N105 N 0.12356 0.12554 0.12512
 N106 N 0.37501 0.87472 0.62538
 N107 N 0.87604 0.62491 0.37485
 N108 N 0.62491 0.37549 -0.12563
 C109 C 0.04189 0.20724 0.12429
 C110 C 0.05810 0.19688 0.15681
 C111 C 0.08492 0.17005 0.15710
 C112 C -0.00876 0.25808 0.12372
 C113 C 0.07938 0.16380 0.09232
 C114 C 0.05257 0.19064 0.09206
 C115 C 0.01432 0.23490 0.12399
 C116 C 0.09582 0.15324 0.12485
 H117 H 0.05007 0.20960 0.18190
 H118 H 0.09740 0.16255 0.18243
 H119 H 0.08716 0.15103 0.06719
 H120 H 0.04016 0.19841 0.06675
 C121 C 0.45703 0.79339 0.62466
 C122 C 0.44620 0.80993 0.59238
 C123 C 0.41926 0.83664 0.59260
 C124 C 0.50800 0.74289 0.62425
 C125 C 0.41387 0.83034 0.65742
 C126 C 0.44081 0.80364 0.65717
 C127 C 0.48477 0.76591 0.62442
 C128 C 0.40283 0.84711 0.62513
 H129 H 0.45861 0.80224 0.56708
 H130 H 0.41138 0.84938 0.56745
 H131 H 0.40140 0.83777 0.68275
 H132 H 0.44895 0.79097 0.68229
 C133 C 0.95787 0.70651 0.37554
 C134 C 0.94162 0.69627 0.34304
 C135 C 0.91475 0.66948 0.34280
 C136 C 1.00869 0.75722 0.37597
 C137 C 0.92028 0.66305 0.40760
 C138 C 0.94714 0.68986 0.40780
 C139 C 0.98552 0.73410 0.37577
 C140 C 0.90381 0.65260 0.37508
 H141 H 0.94968 0.70903 0.31793
 H142 H 0.90225 0.66206 0.31748
 H143 H 0.91247 0.65024 0.43274
 H144 H 0.95958 0.69754 0.43309
 C145 C 0.54305 0.29392 -0.12471
 C146 C 0.53421 0.33035 -0.13221
 C147 C 0.56108 0.35715 -0.13252
 C148 C 0.49221 0.24325 -0.12407
 C149 C 0.60578 0.31116 -0.11784
 C150 C 0.57888 0.28439 -0.11753
 C151 C 0.51538 0.26635 -0.12437
 C152 C 0.59714 0.34781 -0.12533
 H153 H 0.50656 0.33803 -0.13775
 H154 H 0.55376 0.38524 -0.13809
 H155 H 0.63340 0.30330 -0.11250
 H156 H 0.58603 0.25627 -0.11176
 C157 C 0.12425 0.04396 0.20710
 C158 C 0.15653 0.06051 0.19629
 C159 C 0.15633 0.08731 0.16938
 C160 C 0.12473 -0.00674 0.25799
 C161 C 0.09149 0.08111 0.16398
 C162 C 0.09174 0.05432 0.19090
 C163 C 0.12450 0.01637 0.23479
 C164 C 0.12379 0.09787 0.15295
 H165 H 0.18184 0.05274 0.20869
 H166 H 0.18149 0.10003 0.16151
 H167 H 0.06616 0.08862 0.15152
 H168 H 0.06661 0.04165 0.19902
 C169 C 0.62569 0.45703 -0.20764
 C170 C 0.61825 0.42061 -0.21640
 C171 C 0.61799 0.39382 -0.18948
 C172 C 0.62619 0.50768 -0.25859
 C173 C 0.63263 0.43982 -0.14490
 C174 C 0.63288 0.46658 -0.17184
 C175 C 0.62595 0.48459 -0.23536
 C176 C 0.62518 0.40316 -0.15346
 H177 H 0.61270 0.41291 -0.24403
 H178 H 0.61246 0.36572 -0.19674
 H179 H 0.63797 0.44769 -0.11730
 H180 H 0.63862 0.49470 -0.16476
 C181 C 0.37433 0.95611 0.70720
 C182 C 0.34206 0.93950 0.69654
 C183 C 0.34226 0.91279 0.66966
 C184 C 0.37396 1.00654 0.75815
 C185 C 0.40705 0.91922 0.66397
 C186 C 0.40681 0.94593 0.69086
 C187 C 0.37412 0.98356 0.73491
 C188 C 0.37477 0.90238 0.65312
 H189 H 0.31678 0.94714 0.70905
 H190 H 0.31711 0.89999 0.66192
 H191 H 0.43236 0.91183 0.65142
 H192 H 0.43194 0.95865 0.69887
 C193 C 0.87536 0.54366 0.29290
 C194 C 0.84308 0.56016 0.30368
 C195 C 0.84328 0.58683 0.33060
 C196 C 0.87499 0.49332 0.24186
 C197 C 0.90810 0.58057 0.33609
 C198 C 0.90786 0.55391 0.30917
 C199 C 0.87515 0.51626 0.26514
 C200 C 0.87580 0.59731 0.34707
 H201 H 0.81779 0.55246 0.29122
 H202 H 0.81813 0.59954 0.33842
 H203 H 0.93342 0.58802 0.34859
 H204 H 0.93299 0.54128 0.30107
 C205 C 0.20470 0.12550 0.04396
 C206 C 0.18877 0.09260 0.05489
 C207 C 0.16212 0.09259 0.08153
 C208 C 0.25516 0.12545 -0.00639
 C209 C 0.16723 0.15845 0.08643
 C210 C 0.19387 0.15842 0.05978
 C211 C 0.23215 0.12548 0.01656
 C212 C 0.15109 0.12553 0.09757
 H213 H 0.19692 0.06697 0.04279
 H214 H 0.14988 0.06695 0.08950
 H215 H 0.15935 0.18410 0.09860
 H216 H 0.20606 0.18403 0.05157
 C217 C 0.79487 0.62473 0.45598
 C218 C 0.81072 0.59184 0.44509
 C219 C 0.83737 0.59187 0.41845
 C220 C 0.74446 0.62465 0.50638
 C221 C 0.83242 0.65776 0.41347
 C222 C 0.80578 0.65768 0.44012
 C223 C 0.76744 0.62467 0.48341
 C224 C 0.84849 0.62485 0.40238
 H225 H 0.80252 0.56619 0.45722
 H226 H 0.84956 0.56624 0.41052
 H227 H 0.84036 0.68344 0.40128
 H228 H 0.79365 0.68328 0.44831
 C229 C 0.70603 0.37543 -0.04450
 C230 C 0.71527 0.38224 -0.08047
 C231 C 0.68865 0.38228 -0.10713
 C232 C 0.75644 0.37532 0.00587
 C233 C 0.64340 0.36868 -0.06189
 C234 C 0.67005 0.36865 -0.03527
 C235 C 0.73345 0.37537 -0.01709
 C236 C 0.65244 0.37549 -0.09809
 H237 H 0.74304 0.38746 -0.08792
 H238 H 0.69627 0.38731 -0.13486
 H239 H 0.61566 0.36366 -0.05428
 H240 H 0.66259 0.36340 -0.00750
 C241 C 0.29372 0.87457 0.54442
 C242 C 0.30471 0.84167 0.56030
 C243 C 0.33139 0.84170 0.58689
 C244 C 0.24328 0.87449 0.49409
 C245 C 0.33622 0.90759 0.58182
 C246 C 0.30953 0.90752 0.55524
 C247 C 0.26627 0.87452 0.51704
 C248 C 0.34742 0.87467 0.59791
 H249 H 0.29261 0.81603 0.55217
 H250 H 0.33939 0.81606 0.59910
 H251 H 0.34837 0.93327 0.58969
 H252 H 0.30127 0.93313 0.54308
   
