data_POSCAR
  _audit_creation_date              2014-09-24
  _audit_creation_method            'ToBaCCo'
  _symmetry_space_group_name_H-M    'P1'
  _symmetry_Int_Tables_number       1
  _symmetry_cell_setting            triclinic
  loop_
  _symmetry_equiv_pos_as_xyz
 x,y,z
_cell_length_a 37.4617
_cell_length_b 37.7964
_cell_length_c 43.8548
_cell_angle_alpha 89.962500
_cell_angle_beta 90.050500
_cell_angle_gamma 118.107700
loop_
  _atom_site_label
  _atom_site_type_symbol
  _atom_site_fract_x
  _atom_site_fract_y
  _atom_site_fract_z
O1 O 0.03351 0.54285 1.27969
 O2 O -0.04276 0.49811 1.21883
 O3 O -0.04466 0.50013 1.27797
 O4 O 0.03528 0.54269 1.22059
 O5 O 0.04235 0.48797 1.22159
 O6 O -0.03791 0.44528 1.28020
 O7 O -0.03602 0.44329 1.22066
 O8 O 0.04062 0.48816 1.28115
 Cu9 Cu -0.00537 0.52638 1.24910
 Cu10 Cu 0.00293 0.46065 1.25104
 C11 C 0.05011 0.52315 1.29085
 C12 C -0.05251 0.46296 1.20925
 C13 C -0.05491 0.46570 1.28911
 C14 C 0.05251 0.52284 1.21116
 O15 O 0.45723 0.50141 1.28121
 O16 O 0.49327 0.45676 1.22226
 O17 O 0.49509 0.45878 1.28166
 O18 O 0.45708 0.50121 1.22165
 O19 O 0.51599 0.55615 1.22132
 O20 O 0.55423 0.51342 1.27973
 O21 O 0.55199 0.51188 1.22069
 O22 O 0.51631 0.55602 1.28072
 Cu23 Cu 0.46972 0.47404 1.25175
 Cu24 Cu 0.54047 0.53990 1.25055
 C25 C 0.48065 0.53627 1.29133
 C26 C 0.52868 0.47654 1.21135
 C27 C 0.53145 0.47898 1.29075
 C28 C 0.48021 0.53604 1.21124
 O29 O 0.50139 0.95866 1.28281
 O30 O 0.54614 1.03490 1.22235
 O31 O 0.54518 1.03625 1.28165
 O32 O 0.50272 0.95740 1.22353
 O33 O 0.44717 0.96372 1.22156
 O34 O 0.48962 1.04253 1.28081
 O35 O 0.49073 1.04153 1.22110
 O36 O 0.44573 0.96471 1.28113
 Cu37 Cu 0.52937 0.99618 1.25274
 Cu38 Cu 0.46276 1.00379 1.25103
 C39 C 0.46583 0.94854 1.29239
 C40 C 0.52605 1.05116 1.21128
 C41 C 0.52479 1.05285 1.29144
 C42 C 0.46791 0.94715 1.21240
 O43 O 0.95916 0.50507 0.72025
 O44 O 1.03721 0.54706 0.78048
 O45 O 1.03745 0.54748 0.72098
 O46 O 0.95849 0.50656 0.77947
 O47 O 0.96351 0.45074 0.78105
 O48 O 1.04202 0.49146 0.72070
 O49 O 1.04220 0.49121 0.78020
 O50 O 0.96347 0.44887 0.72156
 Cu51 Cu 0.99767 0.53216 0.75026
 Cu52 Cu 1.00329 0.46498 0.75095
 C53 C 0.94795 0.46963 0.71069
 C54 C 1.05306 0.52613 0.79060
 C55 C 1.05313 0.52666 0.71047
 C56 C 0.94745 0.47185 0.79039
 O57 O 0.49346 0.45375 0.72189
 O58 O 0.45377 0.49592 0.78062
 O59 O 0.45480 0.49586 0.72090
 O60 O 0.49355 0.45490 0.78161
 O61 O 0.55125 0.51118 0.78138
 O62 O 0.51285 0.55176 0.72112
 O63 O 0.51167 0.55199 0.78029
 O64 O 0.55132 0.50986 0.72219
 Cu65 Cu 0.46806 0.46945 0.75126
 Cu66 Cu 0.53753 0.53676 0.75124
 C67 C 0.52924 0.47474 0.71195
 C68 C 0.47605 0.53121 0.79053
 C69 C 0.47739 0.53089 0.71059
 C70 C 0.52912 0.47626 0.79194
 O71 O 0.54467 0.03524 0.72019
 O72 O 0.50043 -0.04163 0.77981
 O73 O 0.50140 -0.04234 0.72030
 O74 O 0.54323 0.03622 0.77959
 O75 O 0.48736 0.04201 0.77779
 O76 O 0.44551 -0.03663 0.71946
 O77 O 0.44461 -0.03573 0.77867
 O78 O 0.48873 0.04092 0.71856
 Cu79 Cu 0.52804 -0.00373 0.75013
 Cu80 Cu 0.46096 0.00322 0.74852
 C81 C 0.52429 0.05112 0.70906
 C82 C 0.46498 -0.05181 0.78951
 C83 C 0.46621 -0.05288 0.70964
 C84 C 0.52232 0.05260 0.78877
 O85 O 0.39390 0.66433 0.97517
 O86 O 0.38640 0.72833 0.96394
 C87 C 0.36577 0.74638 0.95892
 O88 O 0.33564 0.74112 0.97531
 O89 O 0.27147 0.67206 0.96637
 C90 C 0.25467 0.63459 0.96137
 O91 O 0.26226 0.61063 0.97715
 O92 O 0.33230 0.61419 0.96612
 C93 C 0.36974 0.63357 0.96011
 O94 O 0.39286 0.67804 1.03536
 O95 O 0.38956 0.74413 1.02408
 C96 C 0.36399 0.74839 1.04063
 O97 O 0.32614 0.72859 1.03615
 O98 O 0.25989 0.66135 1.02703
 C99 C 0.25705 0.63193 1.04286
 O100 O 0.27797 0.61432 1.03747
 O101 O 0.34662 0.61468 1.02667
 C102 C 0.37637 0.64096 1.04172
 Cr103 Cr 0.38858 0.70260 0.99967
 Cr104 Cr 0.29944 0.69979 1.00120
 Cr105 Cr 0.30573 0.61555 1.00181
 O106 O 0.33122 0.67260 1.00088
 O107 O 0.60850 0.32907 0.96708
 O108 O 0.60676 0.25974 0.97497
 C109 C 0.63136 0.25409 0.95836
 O110 O 0.66917 0.27177 0.96312
 O111 O 0.73754 0.33620 0.97316
 C112 C 0.74307 0.36843 0.95999
 O113 O 0.72461 0.38778 0.96780
 O114 O 0.65743 0.39026 0.97883
 C115 C 0.62727 0.36668 0.96267
 O116 O 0.60668 0.33806 1.02788
 O117 O 0.60972 0.27097 1.03566
 C118 C 0.62906 0.25143 1.04012
 O119 O 0.65915 0.25619 1.02380
 O120 O 0.72611 0.32210 1.03386
 C121 C 0.74407 0.35882 1.04135
 O122 O 0.73773 0.38522 1.02799
 O123 O 0.66913 0.38466 1.03922
 C124 C 0.63140 0.36698 1.04423
 Cr125 Cr 0.61012 0.30048 1.00139
 Cr126 Cr 0.69689 0.29771 0.99858
 Cr127 Cr 0.69614 0.38479 1.00337
 O128 O 0.66784 0.32770 1.00109
 O129 O 0.65817 0.39055 0.52592
 O130 O 0.72404 0.38566 0.53674
 C131 C 0.74359 0.36654 0.54161
 O132 O 0.73914 0.33691 0.52530
 O133 O 0.67096 0.27234 0.53523
 C134 C 0.63339 0.25466 0.54108
 O135 O 0.60768 0.26050 0.52577
 O136 O 0.60860 0.32913 0.53544
 C137 C 0.62754 0.36637 0.54117
 O138 O 0.67102 0.38903 0.46592
 O139 O 0.73910 0.38826 0.47641
 C140 C 0.74402 0.36317 0.45998
 O141 O 0.72499 0.32570 0.46472
 O142 O 0.65896 0.25885 0.47497
 C143 C 0.62838 0.25429 0.45950
 O144 O 0.60944 0.27391 0.46490
 O145 O 0.60771 0.34124 0.47444
 C146 C 0.63355 0.37163 0.45971
 Cr147 Cr 0.69701 0.38625 0.50121
 Cr148 Cr 0.69741 0.29953 0.50007
 Cr149 Cr 0.61048 0.30219 0.50015
 O150 O 0.66819 0.32928 0.50044
 O151 O 0.33314 0.61312 0.53483
 O152 O 0.26248 0.60963 0.52658
 C153 C 0.25628 0.63445 0.54249
 O154 O 0.27309 0.67171 0.53671
 O155 O 0.33638 0.74049 0.52580
 C156 C 0.36729 0.74626 0.54138
 O157 O 0.38764 0.72810 0.53588
 O158 O 0.39432 0.66367 0.52499
 C159 C 0.37074 0.63279 0.54025
 O160 O 0.34408 0.61256 0.47378
 O161 O 0.27479 0.61212 0.46540
 C162 C 0.25389 0.62992 0.46061
 O163 O 0.25763 0.65952 0.47657
 O164 O 0.32345 0.72616 0.46553
 C165 C 0.36095 0.74606 0.45979
 O166 O 0.38770 0.74220 0.47527
 O167 O 0.39066 0.67576 0.46474
 C168 C 0.37391 0.63864 0.45860
 Cr169 Cr 0.30458 0.61398 0.50015
 Cr170 Cr 0.29880 0.69843 0.50113
 Cr171 Cr 0.38793 0.70130 0.50023
 O172 O 0.33044 0.67117 0.50048
 C173 C 0.43922 0.58481 0.36075
 C174 C 0.47873 0.60717 0.34939
 C175 C 0.49243 0.59123 0.32626
 C176 C 0.46709 0.55287 0.31440
 C177 C 0.42787 0.53140 0.32665
 N178 N 0.41526 0.54762 0.34916
 C179 C 0.42305 0.59993 0.38551
 N180 N 0.39132 0.57311 0.40244
 C181 C 0.37494 0.58458 0.42563
 C182 C 0.39057 0.62536 0.43299
 C183 C 0.42282 0.65354 0.41547
 C184 C 0.43899 0.64104 0.39175
 H185 H 0.52303 0.60894 0.31791
 H186 H 0.40714 0.50166 0.31849
 H187 H 0.34992 0.56180 0.43836
 H188 H 0.43560 0.68536 0.42000
 H189 H 0.49935 0.63630 0.35853
 H190 H 0.46323 0.66357 0.37831
 C191 C 0.41566 0.86187 0.36196
 C192 C 0.39307 0.87949 0.34978
 C193 C 0.40959 0.90806 0.32663
 C194 C 0.44876 0.91954 0.31553
 C195 C 0.47042 0.90135 0.32856
 N196 N 0.45362 0.87360 0.35108
 C197 C 0.40008 0.83172 0.38685
 N198 N 0.42703 0.82565 0.40402
 C199 C 0.41536 0.79865 0.42725
 C200 C 0.37417 0.77551 0.43442
 C201 C 0.34579 0.78088 0.41677
 C202 C 0.35853 0.80875 0.39300
 H203 H 0.39166 0.92131 0.31765
 H204 H 0.50074 0.90916 0.32101
 H205 H 0.43833 0.79538 0.44006
 H206 H 0.31368 0.76343 0.42121
 H207 H 0.36330 0.87214 0.35828
 H208 H 0.33587 0.81151 0.37944
 C209 C 0.13703 0.57350 0.36284
 C210 C 0.12084 0.59655 0.34926
 C211 C 0.09258 0.58016 0.32577
 C212 C 0.08055 0.54102 0.31546
 C213 C 0.09801 0.51926 0.32920
 N214 N 0.12535 0.53580 0.35216
 C215 C 0.16680 0.58903 0.38815
 N216 N 0.19054 0.57137 0.39381
 C217 C 0.21835 0.58368 0.41670
 C218 C 0.22348 0.61562 0.43572
 C219 C 0.19898 0.63394 0.43051
 C220 C 0.17063 0.62071 0.40696
 H221 H 0.08026 0.59822 0.31561
 H222 H 0.08981 0.48905 0.32187
 H223 H 0.23643 0.56854 0.41991
 H224 H 0.20154 0.65844 0.44473
 H225 H 0.13012 0.62709 0.35620
 H226 H 0.15159 0.63484 0.40409
 C227 C 0.57894 0.43443 0.36083
 C228 C 0.60538 0.46593 0.34191
 C229 C 0.58972 0.48017 0.31905
 C230 C 0.54783 0.46277 0.31440
 C231 C 0.52239 0.43039 0.33295
 N232 N 0.53835 0.41736 0.35549
 C233 C 0.59392 0.41919 0.38632
 N234 N 0.56904 0.38253 0.39851
 C235 C 0.58070 0.36673 0.42200
 C236 C 0.61962 0.38817 0.43454
 C237 C 0.64550 0.42618 0.42259
 C238 C 0.63276 0.44188 0.39880
 H239 H 0.61050 0.50474 0.30488
 H240 H 0.48988 0.41597 0.32997
 H241 H 0.55971 0.33734 0.43061
 H242 H 0.67557 0.44411 0.43186
 H243 H 0.63787 0.47946 0.34426
 H244 H 0.65315 0.47177 0.39090
 C245 C 0.57290 0.13898 0.36144
 C246 C 0.59638 0.12265 0.34883
 C247 C 0.58046 0.09434 0.32558
 C248 C 0.54126 0.08231 0.31429
 C249 C 0.51922 0.10034 0.32689
 N250 N 0.53533 0.12766 0.34981
 C251 C 0.58796 0.16834 0.38687
 N252 N 0.57062 0.19242 0.39187
 C253 C 0.58277 0.21991 0.41482
 C254 C 0.61424 0.22436 0.43450
 C255 C 0.63215 0.19948 0.42996
 C256 C 0.61903 0.17141 0.40644
 H257 H 0.59908 0.08195 0.31647
 H258 H 0.48904 0.09243 0.31888
 H259 H 0.56794 0.23832 0.41753
 H260 H 0.65616 0.20141 0.44477
 H261 H 0.62694 0.13176 0.35641
 H262 H 0.63277 0.15202 0.40419
 C263 C 0.85689 0.42274 0.36028
 C264 C 0.86510 0.45829 0.34480
 C265 C 0.89343 0.47183 0.32137
 C266 C 0.91349 0.44998 0.31296
 C267 C 0.90344 0.41384 0.32824
 N268 N 0.87581 0.40133 0.35126
 C269 C 0.82825 0.40822 0.38616
 N270 N 0.80836 0.36827 0.39260
 C271 C 0.78154 0.35311 0.41603
 C272 C 0.77360 0.37880 0.43470
 C273 C 0.79437 0.42012 0.42872
 C274 C 0.82169 0.43491 0.40467
 H275 H 0.89974 0.49957 0.30993
 H276 H 0.91796 0.39590 0.32230
 H277 H 0.76640 0.32105 0.41995
 H278 H 0.78958 0.44117 0.44264
 H279 H 0.84968 0.47546 0.35046
 H280 H 0.83789 0.46698 0.40106
 C281 C 0.56895 0.42436 1.14166
 C282 C 0.53119 0.40131 1.15565
 C283 C 0.51815 0.41835 1.17836
 C284 C 0.54266 0.45817 1.18753
 C285 C 0.58059 0.47993 1.17352
 N286 N 0.59255 0.46275 1.15127
 C287 C 0.58397 0.40818 1.11686
 N288 N 0.62442 0.42598 1.11095
 C289 C 0.64036 0.41327 1.08822
 C290 C 0.61498 0.38088 1.06959
 C291 C 0.57317 0.36227 1.07520
 C292 C 0.55758 0.37583 1.09861
 H293 H 0.48890 0.40025 1.18881
 H294 H 0.60060 0.51065 1.18003
 H295 H 0.67276 0.42867 1.08465
 H296 H 0.55233 0.33742 1.06129
 H297 H 0.51195 0.37029 1.14959
 H298 H 0.52515 0.36156 1.10168
 C299 C 0.86084 0.41264 1.13922
 C300 C 0.87909 0.39067 1.15137
 C301 C 0.90764 0.40723 1.17468
 C302 C 0.91851 0.44584 1.18595
 C303 C 0.89971 0.46688 1.17295
 N304 N 0.87196 0.45004 1.15031
 C305 C 0.83064 0.39715 1.11417
 N306 N 0.82310 0.42372 1.09805
 C307 C 0.79585 0.41226 1.07485
 C308 C 0.77398 0.37167 1.06656
 C309 C 0.78094 0.34364 1.08303
 C310 C 0.80902 0.35615 1.10684
 H311 H 0.92139 0.38980 1.18366
 H312 H 0.90701 0.49674 1.18065
 H313 H 0.79140 0.43497 1.06295
 H314 H 0.76447 0.31196 1.07769
 H315 H 0.87227 0.36137 1.14278
 H316 H 0.81293 0.33368 1.11950
 C317 C 0.57562 0.13655 1.13863
 C318 C 0.59914 0.12070 1.15205
 C319 C 0.58306 0.09302 1.17582
 C320 C 0.54376 0.08121 1.18654
 C321 C 0.52153 0.09829 1.17291
 N322 N 0.53778 0.12506 1.14971
 C323 C 0.59068 0.16583 1.11312
 N324 N 0.57176 0.18829 1.10725
 C325 C 0.58331 0.21554 1.08420
 C326 C 0.61581 0.22149 1.06516
 C327 C 0.63554 0.19841 1.07058
 C328 C 0.62305 0.17055 1.09436
 H329 H 0.60146 0.08093 1.18583
 H330 H 0.49117 0.09023 1.18051
 H331 H 0.56708 0.23254 1.08088
 H332 H 0.66055 0.20170 1.05638
 H333 H 0.62980 0.12976 1.14478
 H334 H 0.63829 0.15261 1.09742
 C335 C 0.43890 0.58612 1.14069
 C336 C 0.47831 0.60815 1.15228
 C337 C 0.49152 0.59186 1.17543
 C338 C 0.46583 0.55356 1.18705
 C339 C 0.42676 0.53234 1.17474
 N340 N 0.41453 0.54887 1.15214
 C341 C 0.42352 0.60160 1.11568
 N342 N 0.39226 0.57501 1.09829
 C343 C 0.37673 0.58678 1.07472
 C344 C 0.39281 0.62764 1.06741
 C345 C 0.42463 0.65562 1.08534
 C346 C 0.43992 0.64281 1.10948
 H347 H 0.52207 0.60919 1.18400
 H348 H 0.40602 0.50263 1.18291
 H349 H 0.35195 0.56415 1.06170
 H350 H 0.43762 0.68748 1.08084
 H351 H 0.49925 0.63724 1.14324
 H352 H 0.46383 0.66515 1.12328
 C353 C 0.14200 0.57384 1.14132
 C354 C 0.12729 0.59747 1.15583
 C355 C 0.09841 0.58080 1.17874
 C356 C 0.08435 0.54077 1.18765
 C357 C 0.10076 0.51848 1.17334
 N358 N 0.12871 0.53532 1.15079
 C359 C 0.17155 0.58974 1.11602
 N360 N 0.19545 0.57243 1.10989
 C361 C 0.22297 0.58532 1.08683
 C362 C 0.22747 0.61740 1.06818
 C363 C 0.20280 0.63533 1.07393
 C364 C 0.17479 0.62155 1.09761
 H365 H 0.08710 0.59934 1.18947
 H366 H 0.09098 0.48760 1.17969
 H367 H 0.24120 0.57045 1.08313
 H368 H 0.20484 0.65986 1.05996
 H369 H 0.13807 0.62863 1.14991
 H370 H 0.15546 0.63529 1.10087
 C371 C 0.42431 0.86040 1.14054
 C372 C 0.46079 0.86918 1.15536
 C373 C 0.47459 0.89705 1.17899
 C374 C 0.45209 0.91610 1.18826
 C375 C 0.41506 0.90555 1.17358
 N376 N 0.40230 0.87838 1.15038
 C377 C 0.40948 0.83218 1.11447
 N378 N 0.36902 0.81154 1.10861
 C379 C 0.35366 0.78495 1.08513
 C380 C 0.37964 0.77801 1.06581
 C381 C 0.42146 0.79965 1.07118
 C382 C 0.43642 0.82671 1.09526
 H383 H 0.50303 0.90378 1.18989
 H384 H 0.39657 0.91927 1.18018
 H385 H 0.32122 0.76913 1.08173
 H386 H 0.44279 0.79569 1.05678
 H387 H 0.47852 0.85455 1.14904
 H388 H 0.46884 0.84349 1.09839
 C389 C 0.57491 0.43003 0.64067
 C390 C 0.60075 0.46632 0.65522
 C391 C 0.58587 0.48058 0.67862
 C392 C 0.54545 0.45869 0.68798
 C393 C 0.52091 0.42188 0.67360
 N394 N 0.53602 0.40871 0.65059
 C395 C 0.58893 0.41447 0.61485
 N396 N 0.56969 0.37441 0.60867
 C397 C 0.58111 0.35826 0.58529
 C398 C 0.61367 0.38298 0.56639
 C399 C 0.63338 0.42441 0.57211
 C400 C 0.62106 0.44021 0.59608
 H401 H 0.60609 0.50883 0.68935
 H402 H 0.48962 0.40388 0.68027
 H403 H 0.56489 0.32618 0.58162
 H404 H 0.65834 0.44479 0.55799
 H405 H 0.63225 0.48354 0.64892
 H406 H 0.63627 0.47236 0.59935
 C407 C 0.57553 0.13912 0.63861
 C408 C 0.59762 0.12071 0.65034
 C409 C 0.58095 0.09220 0.67341
 C410 C 0.54221 0.08160 0.68475
 C411 C 0.52088 0.10028 0.67217
 N412 N 0.53780 0.12808 0.64972
 C413 C 0.59161 0.16942 0.61398
 N414 N 0.56519 0.17568 0.59632
 C415 C 0.57765 0.20274 0.57311
 C416 C 0.61905 0.22552 0.56654
 C417 C 0.64682 0.22002 0.58483
 C418 C 0.63331 0.19226 0.60856
 H419 H 0.59831 0.07823 0.68218
 H420 H 0.49080 0.09282 0.68011
 H421 H 0.55517 0.20620 0.55977
 H422 H 0.67908 0.23730 0.58093
 H423 H 0.62708 0.12744 0.64154
 H424 H 0.65552 0.18941 0.62265
 C425 C 0.85971 0.42040 0.63964
 C426 C 0.87434 0.39641 0.65377
 C427 C 0.90294 0.41248 0.67701
 C428 C 0.91686 0.45226 0.68653
 C429 C 0.90082 0.47498 0.67235
 N430 N 0.87310 0.45872 0.64960
 C431 C 0.82984 0.40522 0.61445
 N432 N 0.80726 0.42400 0.60847
 C433 C 0.77957 0.41219 0.58555
 C434 C 0.77343 0.37967 0.56681
 C435 C 0.79662 0.36007 0.57242
 C436 C 0.82487 0.37279 0.59603
 H437 H 0.91409 0.39366 0.68755
 H438 H 0.91051 0.50571 0.67910
 H439 H 0.76250 0.42831 0.58201
 H440 H 0.79320 0.33509 0.55840
 H441 H 0.86362 0.36541 0.64741
 H442 H 0.84301 0.35775 0.59921
 C443 C 0.43586 0.57864 0.63831
 C444 C 0.47334 0.60286 0.65233
 C445 C 0.48667 0.58725 0.67592
 C446 C 0.46275 0.54770 0.68598
 C447 C 0.42509 0.52473 0.67187
 N448 N 0.41281 0.54053 0.64876
 C449 C 0.42037 0.59347 0.61282
 N450 N 0.37995 0.57452 0.60669
 C451 C 0.36347 0.58632 0.58373
 C452 C 0.38816 0.61910 0.56514
 C453 C 0.42997 0.63874 0.57081
 C454 C 0.44617 0.62598 0.59441
 H455 H 0.51572 0.60628 0.68635
 H456 H 0.40555 0.49416 0.67900
 H457 H 0.33108 0.57013 0.58014
 H458 H 0.45029 0.66389 0.55691
 H459 H 0.49213 0.63371 0.64565
 H460 H 0.47860 0.64116 0.59763
 C461 C 0.41926 0.86110 0.63958
 C462 C 0.39535 0.87702 0.65206
 C463 C 0.41088 0.90534 0.67534
 C464 C 0.45010 0.91775 0.68674
 C465 C 0.47259 0.90017 0.67422
 N466 N 0.45686 0.87286 0.65130
 C467 C 0.40477 0.83169 0.61420
 N468 N 0.42347 0.80887 0.60903
 C469 C 0.41219 0.78154 0.58606
 C470 C 0.38025 0.77594 0.56648
 C471 C 0.36083 0.79941 0.57121
 C472 C 0.37307 0.82736 0.59481
 H473 H 0.39197 0.91742 0.68440
 H474 H 0.50281 0.90840 0.68230
 H475 H 0.42814 0.76420 0.58321
 H476 H 0.33635 0.79649 0.55650
 H477 H 0.36477 0.86761 0.64439
 H478 H 0.35817 0.84570 0.59720
 C479 C 0.14119 0.57533 0.64127
 C480 C 0.12323 0.59772 0.65302
 C481 C 0.09434 0.58160 0.67600
 C482 C 0.08262 0.54289 0.68742
 C483 C 0.10094 0.52120 0.67473
 N484 N 0.12921 0.53769 0.65230
 C485 C 0.17198 0.59138 0.61668
 N486 N 0.17718 0.56546 0.59789
 C487 C 0.20411 0.57828 0.57438
 C488 C 0.22771 0.61950 0.56855
 C489 C 0.22346 0.64665 0.58812
 C490 C 0.19599 0.63282 0.61217
 H491 H 0.08099 0.59956 0.68458
 H492 H 0.09283 0.49117 0.68253
 H493 H 0.20664 0.55625 0.56006
 H494 H 0.24146 0.67872 0.58492
 H495 H 0.13060 0.62711 0.64425
 H496 H 0.19409 0.65458 0.62716
 C497 C 0.43335 0.57948 0.86137
 C498 C 0.47035 0.60406 0.84688
 C499 C 0.48401 0.58833 0.82366
 C500 C 0.46084 0.54831 0.81444
 C501 C 0.42347 0.52504 0.82882
 N502 N 0.41091 0.54096 0.85162
 C503 C 0.41801 0.59430 0.88685
 N504 N 0.37768 0.57522 0.89331
 C505 C 0.36153 0.58699 0.91649
 C506 C 0.38651 0.61981 0.93491
 C507 C 0.42822 0.63955 0.92886
 C508 C 0.44405 0.62686 0.90508
 H509 H 0.51276 0.60757 0.81293
 H510 H 0.40450 0.49411 0.82229
 H511 H 0.32922 0.57075 0.92039
 H512 H 0.44878 0.66474 0.94262
 H513 H 0.48855 0.63523 0.85301
 H514 H 0.47643 0.64208 0.90160
 C515 C 0.14038 0.57022 0.86257
 C516 C 0.13143 0.53377 0.84822
 C517 C 0.10325 0.51973 0.82462
 C518 C 0.08410 0.54195 0.81491
 C519 C 0.09471 0.57883 0.82921
 N520 N 0.12215 0.59182 0.85237
 C521 C 0.16930 0.58581 0.88833
 N522 N 0.18855 0.62595 0.89414
 C523 C 0.21562 0.64224 0.91733
 C524 C 0.22464 0.61761 0.93641
 C525 C 0.20456 0.57611 0.93110
 C526 C 0.17687 0.56013 0.90731
 H527 H 0.09647 0.49139 0.81400
 H528 H 0.08089 0.59706 0.82229
 H529 H 0.23020 0.67439 0.92068
 H530 H 0.21013 0.55583 0.94538
 H531 H 0.14623 0.51632 0.85475
 H532 H 0.16123 0.52795 0.90429
 C533 C 0.41586 0.86071 0.86053
 C534 C 0.39173 0.87590 0.84718
 C535 C 0.40770 0.90439 0.82396
 C536 C 0.44745 0.91756 0.81376
 C537 C 0.47026 0.90107 0.82725
 N538 N 0.45414 0.87353 0.84993
 C539 C 0.40116 0.83094 0.88561
 N540 N 0.42113 0.80946 0.89140
 C541 C 0.41031 0.78223 0.91439
 C542 C 0.37762 0.77544 0.93346
 C543 C 0.35666 0.79734 0.92799
 C544 C 0.36836 0.82513 0.90426
 H545 H 0.38887 0.91598 0.81396
 H546 H 0.50098 0.91019 0.81999
 H547 H 0.42742 0.76612 0.91777
 H548 H 0.33144 0.79336 0.94224
 H549 H 0.36074 0.86575 0.85410
 H550 H 0.35231 0.84231 0.90124
 C551 C 0.57445 0.43275 0.86456
 C552 C 0.59972 0.46988 0.85087
 C553 C 0.58491 0.48382 0.82713
 C554 C 0.54510 0.46086 0.81663
 C555 C 0.52108 0.42347 0.83040
 N556 N 0.53614 0.41057 0.85366
 C557 C 0.58855 0.41685 0.89022
 N558 N 0.56983 0.37660 0.89557
 C559 C 0.58131 0.35991 0.91855
 C560 C 0.61350 0.38421 0.93794
 C561 C 0.63274 0.42583 0.93312
 C562 C 0.62031 0.44222 0.90951
 H563 H 0.60475 0.51262 0.81699
 H564 H 0.49028 0.40465 0.82290
 H565 H 0.56544 0.32768 0.92149
 H566 H 0.65740 0.44585 0.94764
 H567 H 0.63080 0.48793 0.85796
 H568 H 0.63518 0.47446 0.90688
 C569 C 0.85781 0.42960 0.86092
 C570 C 0.86339 0.46251 0.84279
 C571 C 0.89246 0.47595 0.81981
 C572 C 0.91572 0.45647 0.81423
 C573 C 0.90839 0.42287 0.83208
 N574 N 0.88018 0.41059 0.85471
 C575 C 0.82819 0.41485 0.88644
 N576 N 0.81646 0.37750 0.89801
 C577 C 0.78961 0.36206 0.92143
 C578 C 0.77269 0.38460 0.93467
 C579 C 0.78470 0.42329 0.92333
 C580 C 0.81250 0.43859 0.89954
 H581 H 0.89656 0.50157 0.80627
 H582 H 0.92551 0.40683 0.82843
 H583 H 0.78133 0.33211 0.92950
 H584 H 0.77296 0.44205 0.93308
 H585 H 0.84545 0.47776 0.84582
 H586 H 0.82183 0.46895 0.89213
 C587 C 0.56717 0.14126 0.85923
 C588 C 0.53054 0.13230 0.84454
 C589 C 0.51620 0.10364 0.82146
 C590 C 0.53831 0.08401 0.81260
 C591 C 0.57540 0.09465 0.82717
 N592 N 0.58867 0.12255 0.84983
 C593 C 0.58287 0.17041 0.88468
 N594 N 0.62331 0.18934 0.89078
 C595 C 0.63961 0.21619 0.91398
 C596 C 0.61463 0.22514 0.93285
 C597 C 0.57283 0.20556 0.92712
 C598 C 0.55689 0.17821 0.90328
 H599 H 0.48773 0.09685 0.81058
 H600 H 0.59360 0.08049 0.82088
 H601 H 0.67198 0.23038 0.91766
 H602 H 0.55227 0.21114 0.94120
 H603 H 0.51316 0.14742 0.85047
 H604 H 0.52445 0.16287 0.90002
   
