data_POSCAR
  _audit_creation_date              2014-09-24
  _audit_creation_method            'ToBaCCo'
  _symmetry_space_group_name_H-M    'P1'
  _symmetry_Int_Tables_number       1
  _symmetry_cell_setting            triclinic
  loop_
  _symmetry_equiv_pos_as_xyz
 x,y,z
_cell_length_a 24.9654
_cell_length_b 25.0471
_cell_length_c 28.9276
_cell_angle_alpha 90.005500
_cell_angle_beta 90.163300
_cell_angle_gamma 120.107300
loop_
  _atom_site_label
  _atom_site_type_symbol
  _atom_site_fract_x
  _atom_site_fract_y
  _atom_site_fract_z
O1 O 0.33075 0.57604 0.30078
 O2 O 0.22631 0.57310 0.28553
 C3 C 0.21865 0.61165 0.30912
 O4 O 0.24746 0.66899 0.30060
 O5 O 0.34901 0.77320 0.28561
 C6 C 0.39545 0.78109 0.30933
 O7 O 0.42416 0.75241 0.30096
 O8 O 0.42699 0.65120 0.28606
 C9 C 0.38830 0.60480 0.30949
 O10 O 0.34879 0.57318 0.20898
 O11 O 0.24731 0.57600 0.19369
 C12 C 0.21816 0.60426 0.18494
 O13 O 0.22620 0.65055 0.20876
 O14 O 0.33073 0.75191 0.19376
 C15 C 0.38829 0.78074 0.18537
 O16 O 0.42698 0.77314 0.20908
 O17 O 0.42414 0.66909 0.19417
 C18 C 0.39532 0.61173 0.18556
 Cr19 Cr 0.28993 0.57787 0.24725
 Cr20 Cr 0.29000 0.70953 0.24718
 Cr21 Cr 0.42228 0.70981 0.24756
 O22 O 0.33409 0.66574 0.24737
 O23 O 0.57551 0.34742 0.70949
 O24 O 0.57837 0.24623 0.69455
 C25 C 0.60715 0.21766 0.68607
 O26 O 0.65367 0.22558 0.70971
 O27 O 0.75527 0.32981 0.69494
 C28 C 0.78397 0.38714 0.68638
 O29 O 0.77619 0.42567 0.70989
 O30 O 0.67170 0.42261 0.69475
 C31 C 0.61416 0.39383 0.68607
 O32 O 0.57843 0.32953 0.80137
 O33 O 0.57556 0.22547 0.78642
 C34 C 0.61423 0.21773 0.81003
 O35 O 0.67177 0.24649 0.80161
 O36 O 0.77627 0.34789 0.78685
 C37 C 0.78415 0.39424 0.81038
 O38 O 0.75541 0.42285 0.80174
 O39 O 0.65377 0.42547 0.78658
 C40 C 0.60724 0.38689 0.80999
 Cr41 Cr 0.58028 0.28882 0.74797
 Cr42 Cr 0.71259 0.28909 0.74827
 Cr43 Cr 0.71261 0.42085 0.74824
 O44 O 0.66850 0.33292 0.74817
 C45 C 0.45885 -0.08813 0.42179
 C46 C 0.48939 -0.12085 0.41120
 C47 C 0.46889 -0.16320 0.37472
 C48 C 0.41738 -0.17377 0.34791
 C49 C 0.38685 -0.14100 0.35852
 C50 C 0.40735 -0.09869 0.39504
 C51 C 0.48060 -0.04321 0.46063
 C52 C 0.43792 -0.03970 0.49023
 C53 C 0.45838 0.00252 0.52680
 C54 C 0.52200 0.04219 0.53461
 C55 C 0.56469 0.03869 0.50500
 C56 C 0.54422 -0.00353 0.46843
 C57 C 0.54376 0.08707 0.57348
 C58 C 0.59526 0.09759 0.60021
 C59 C 0.61576 0.13983 0.63677
 C60 C 0.58523 0.17259 0.64744
 C61 C 0.53372 0.16206 0.62064
 C62 C 0.51322 0.11977 0.58412
 H63 H 0.52869 -0.11435 0.43157
 H64 H 0.49335 -0.18780 0.36766
 H65 H 0.34709 -0.14792 0.33857
 H66 H 0.38332 -0.07364 0.40197
 H67 H 0.38864 -0.07031 0.48556
 H68 H 0.42439 0.00343 0.54944
 H69 H 0.61397 0.06930 0.50967
 H70 H 0.57822 -0.00445 0.44580
 H71 H 0.61929 0.07254 0.59324
 H72 H 0.65552 0.14673 0.65670
 H73 H 0.50925 0.18665 0.62775
 H74 H 0.47392 0.11329 0.56377
 C75 C 1.08845 0.54447 0.42175
 C76 C 1.09872 0.50352 0.39514
 C77 C 1.14084 0.52526 0.35857
 C78 C 1.17365 0.58849 0.34772
 C79 C 1.16330 0.62943 0.37434
 C80 C 1.12121 0.60766 0.41092
 C81 C 1.04380 0.52139 0.46069
 C82 C 1.05761 0.55458 0.50240
 C83 C 1.01560 0.53287 0.53904
 C84 C 0.95882 0.47747 0.53481
 C85 C 0.94501 0.44428 0.49310
 C86 C 0.98702 0.46599 0.45646
 C87 C 0.91418 0.45437 0.57375
 C88 C 0.88145 0.39118 0.58459
 C89 C 0.83937 0.36940 0.62117
 C90 C 0.82898 0.41032 0.64779
 C91 C 0.86176 0.47355 0.63693
 C92 C 0.90388 0.49531 0.60036
 H93 H 1.07480 0.45469 0.40301
 H94 H 1.14786 0.49247 0.33894
 H95 H 1.18767 0.67840 0.36692
 H96 H 1.11372 0.64026 0.43040
 H97 H 1.10138 0.59690 0.50699
 H98 H 1.02800 0.55898 0.57098
 H99 H 0.90124 0.40195 0.48851
 H100 H 0.97461 0.43988 0.42452
 H101 H 0.88896 0.35860 0.56511
 H102 H 0.81502 0.32043 0.62859
 H103 H 0.85472 0.50633 0.65656
 H104 H 0.92778 0.54414 0.59248
 C105 C 0.45582 0.54165 0.42202
 C106 C 0.49689 0.59306 0.39557
 C107 C 0.47504 0.61349 0.35904
 C108 C 0.41155 0.58299 0.34811
 C109 C 0.37048 0.53157 0.37463
 C110 C 0.39238 0.51114 0.41112
 C111 C 0.47905 0.51995 0.46085
 C112 C 0.45512 0.45653 0.46836
 C113 C 0.47696 0.43611 0.50491
 C114 C 0.52324 0.47864 0.53478
 C115 C 0.54716 0.54205 0.52727
 C116 C 0.52532 0.56247 0.49073
 C117 C 0.54651 0.45695 0.57359
 C118 C 0.60996 0.48747 0.58446
 C119 C 0.63189 0.46705 0.62094
 C120 C 0.59085 0.41563 0.64746
 C121 C 0.52736 0.38510 0.63657
 C122 C 0.50547 0.40553 0.60005
 H123 H 0.54613 0.61707 0.40274
 H124 H 0.50799 0.65318 0.33932
 H125 H 0.32127 0.50712 0.36732
 H126 H 0.35947 0.47191 0.43125
 H127 H 0.42015 0.42266 0.44551
 H128 H 0.45831 0.38700 0.50934
 H129 H 0.58214 0.57593 0.55012
 H130 H 0.54398 0.61159 0.48629
 H131 H 0.64284 0.52670 0.56432
 H132 H 0.68111 0.49150 0.62822
 H133 H 0.49443 0.34541 0.65629
 H134 H 0.45623 0.38151 0.59290
 C135 C 0.45586 -0.08864 1.07314
 C136 C 0.39241 -0.12158 1.08370
 C137 C 0.37050 -0.16387 1.12011
 C138 C 0.41155 -0.17423 1.14684
 C139 C 0.47503 -0.14130 1.13622
 C140 C 0.49692 -0.09898 1.09982
 C141 C 0.47913 -0.04366 1.03446
 C142 C 0.53457 0.01299 1.03907
 C143 C 0.55644 0.05532 1.00268
 C144 C 0.52337 0.04197 0.96084
 C145 C 0.46794 -0.01469 0.95622
 C146 C 0.44607 -0.05702 0.99261
 C147 C 0.54663 0.08695 0.92216
 C148 C 0.50558 0.09733 0.89551
 C149 C 0.52747 0.13970 0.85914
 C150 C 0.59095 0.17263 0.84852
 C151 C 0.63200 0.16221 0.87521
 C152 C 0.61008 0.11989 0.91159
 H153 H 0.35972 -0.11406 1.06416
 H154 H 0.32133 -0.18834 1.12735
 H155 H 0.50793 -0.14832 1.15593
 H156 H 0.54595 -0.07493 1.09215
 H157 H 0.56057 0.02504 1.07113
 H158 H 0.59878 0.09897 1.00757
 H159 H 0.44193 -0.02673 0.92416
 H160 H 0.40372 -0.10067 0.98773
 H161 H 0.45655 0.07329 0.90319
 H162 H 0.49458 0.14675 0.83945
 H163 H 0.68116 0.18668 0.86797
 H164 H 0.64277 0.11234 0.93111
 C165 C 1.09073 0.54262 1.07520
 C166 C 1.12387 0.51255 1.08581
 C167 C 1.16631 0.53296 1.12236
 C168 C 1.17686 0.58425 1.14956
 C169 C 1.14325 0.61420 1.13861
 C170 C 1.10090 0.59363 1.10199
 C171 C 1.04572 0.52087 1.03626
 C172 C 1.04197 0.56336 1.00664
 C173 C 0.99966 0.54288 0.96998
 C174 C 0.96013 0.47945 0.96210
 C175 C 0.96388 0.43696 0.99174
 C176 C 1.00619 0.45743 1.02839
 C177 C 0.91514 0.45768 0.92316
 C178 C 0.90483 0.40649 0.89644
 C179 C 0.86246 0.38598 0.85982
 C180 C 0.82937 0.41619 0.84906
 C181 C 0.83969 0.46739 0.87583
 C182 C 0.88210 0.48790 0.91242
 H183 H 1.11764 0.47359 1.06538
 H184 H 1.19092 0.50833 1.12901
 H185 H 1.14934 0.65369 1.15829
 H186 H 1.07546 0.61729 1.09500
 H187 H 1.07246 0.61250 1.01135
 H188 H 0.99857 0.57674 0.94732
 H189 H 0.93338 0.38782 0.98703
 H190 H 1.00729 0.42358 1.05104
 H191 H 0.93015 0.38271 0.90348
 H192 H 0.85574 0.34645 0.83991
 H193 H 0.81483 0.49160 0.86866
 H194 H 0.88839 0.52695 0.93275
 C195 C 0.45874 0.54440 1.07339
 C196 C 0.40713 0.50347 1.09980
 C197 C 0.38662 0.52526 1.13622
 C198 C 0.41723 0.58854 1.14707
 C199 C 0.46884 0.62947 1.12059
 C200 C 0.48935 0.60764 1.08421
 C201 C 0.48053 0.52125 1.03467
 C202 C 0.54415 0.54511 1.02727
 C203 C 0.56466 0.52336 0.99082
 C204 C 0.52201 0.47726 0.96094
 C205 C 0.45838 0.45339 0.96834
 C206 C 0.43788 0.47514 1.00479
 C207 C 0.54380 0.45413 0.92221
 C208 C 0.51321 0.39089 0.91138
 C209 C 0.53374 0.36909 0.87499
 C210 C 0.58532 0.41005 0.84850
 C211 C 0.61591 0.47332 0.85936
 C212 C 0.59539 0.49508 0.89579
 H213 H 0.38304 0.45440 1.09268
 H214 H 0.34678 0.49242 1.15590
 H215 H 0.49337 0.67852 1.12784
 H216 H 0.52873 0.64043 1.06410
 H217 H 0.57812 0.57995 1.05013
 H218 H 0.61394 0.54197 0.98647
 H219 H 0.42441 0.41854 0.94548
 H220 H 0.38860 0.45653 1.00914
 H221 H 0.47385 0.35809 0.93149
 H222 H 0.50922 0.32004 0.86773
 H223 H 0.65573 0.50618 0.83967
 H224 H 0.61946 0.54415 0.90292
   
