data_POSCAR
  _audit_creation_date              2014-09-24
  _audit_creation_method            'ToBaCCo'
  _symmetry_space_group_name_H-M    'P1'
  _symmetry_Int_Tables_number       1
  _symmetry_cell_setting            triclinic
  loop_
  _symmetry_equiv_pos_as_xyz
 x,y,z
_cell_length_a 23.0674
_cell_length_b 23.7643
_cell_length_c 23.2767
_cell_angle_alpha 89.923400
_cell_angle_beta 89.081800
_cell_angle_gamma 89.976600
loop_
  _atom_site_label
  _atom_site_type_symbol
  _atom_site_fract_x
  _atom_site_fract_y
  _atom_site_fract_z
C1 C 0.46480 0.96300 -0.54809
 C2 C 0.52459 0.95002 -0.55639
 C3 C 0.55947 0.94329 -0.50773
 C4 C 0.53835 0.95187 -0.45144
 C5 C 0.47799 0.95921 -0.44360
 C6 C 0.44263 0.96484 -0.49147
 H7 H 0.39645 0.97052 -0.48393
 H8 H 0.60543 0.93520 -0.51390
 C9 C -0.53128 1.45721 -0.01196
 C10 C -0.47328 1.45722 0.00746
 C11 C -0.44525 1.50869 0.01683
 C12 C -0.47260 1.56056 0.00753
 C13 C -0.53080 1.56143 -0.01122
 C14 C -0.55828 1.50954 -0.02182
 H15 H -0.60397 1.50980 -0.03186
 H16 H -0.39984 1.50835 0.02825
 C17 C -0.01003 0.45720 0.46924
 C18 C 0.00804 0.45607 0.52749
 C19 C 0.01612 0.50722 0.55675
 C20 C 0.00725 0.55971 0.53054
 C21 C -0.00973 0.56126 0.47256
 C22 C -0.01868 0.51038 0.44337
 H23 H -0.02854 0.51278 0.39806
 H24 H 0.02690 0.50607 0.60193
 O25 O -0.07268 1.00455 -0.14831
 O26 O -0.08481 1.01081 0.14664
 O27 O -0.14803 0.93264 -0.00343
 O28 O -0.14915 1.08381 -0.00078
 O29 O -0.07982 1.15386 0.00099
 O30 O -0.07783 0.86334 -0.00149
 O31 O -0.15171 1.01027 0.07400
 O32 O -0.14542 1.00473 -0.07911
 Zr33 Zr -0.10085 1.00851 -0.00136
 O34 O -0.05451 1.06035 0.05172
 O35 O -0.04955 0.95727 -0.05199
 C36 C -0.12653 1.00244 -0.13158
 C37 C -0.13728 1.01100 0.12735
 C38 C -0.13117 0.88066 -0.00334
 C39 C -0.13299 1.13595 0.00081
 H40 H -0.07911 0.93394 0.07599
 O41 O -0.05346 0.95786 0.05189
 H42 H -0.07457 1.08309 -0.07762
 O43 O -0.05019 1.05975 -0.05241
 O44 O 0.07292 1.00674 0.15048
 O45 O 0.08492 1.01117 -0.14474
 O46 O 0.00017 0.86414 0.08057
 O47 O -0.00500 1.15454 0.07914
 O48 O 0.00354 1.15411 -0.07841
 O49 O 0.00208 0.86358 -0.07705
 O50 O 0.14951 0.93454 0.00599
 O51 O 0.14862 1.08525 0.00201
 O52 O 0.08030 0.86437 0.00474
 O53 O 0.07855 1.15462 -0.00051
 O54 O -0.00364 0.93384 0.14975
 O55 O 0.00493 0.93278 -0.14696
 O56 O 0.00661 1.08444 -0.14766
 O57 O -0.00744 1.08526 0.14899
 O58 O 0.14570 1.00712 0.08131
 O59 O 0.15191 1.01179 -0.07217
 Zr60 Zr -0.00392 1.00942 0.10221
 Zr61 Zr 0.00420 1.00878 -0.10019
 Zr62 Zr 0.00089 0.90910 0.00151
 Zr63 Zr -0.00043 1.10903 0.00055
 Zr64 Zr 0.10119 1.00964 0.00339
 O65 O 0.05415 1.06057 -0.05016
 O66 O 0.05063 0.95818 0.05461
 C67 C 0.12681 1.00528 0.13384
 C68 C 0.13740 1.01232 -0.12553
 C69 C -0.00147 0.88175 0.13348
 C70 C -0.00760 1.13727 0.13221
 C71 C 0.00623 1.13657 -0.13133
 C72 C 0.00339 0.88078 -0.13014
 C73 C 0.13341 0.88239 0.00625
 C74 C 0.13192 1.13718 -0.00024
 H75 H 0.08047 0.93444 -0.07338
 O76 O 0.05450 0.95815 -0.04944
 H77 H 0.07393 1.08450 0.07889
 O78 O 0.04987 1.06067 0.05394
 C79 C 0.33856 1.01688 0.37069
 C80 C 0.33985 0.98221 0.32245
 C81 C 0.38437 0.94273 0.31511
 C82 C 0.42697 0.93710 0.35685
 C83 C 0.42532 0.97089 0.40666
 C84 C 0.38070 1.01132 0.41239
 C85 C 0.29402 0.98645 0.28184
 C86 C 0.25463 0.99084 0.24898
 C87 C 0.20850 0.99638 0.21068
 C88 C 0.17008 1.00087 0.17675
 H89 H 0.30448 1.04787 0.37648
 H90 H 0.38540 0.91545 0.27785
 H91 H 0.45914 0.90429 0.35143
 H92 H 0.37865 1.03938 0.44901
 C93 C -0.36254 0.92348 0.33243
 C94 C -0.36568 0.97310 0.30055
 C95 C -0.41134 1.01089 0.31019
 C96 C -0.45165 1.00081 0.35457
 C97 C -0.44587 0.95315 0.39020
 C98 C -0.40218 0.91356 0.37691
 C99 C -0.31834 0.98700 0.26256
 C100 C -0.27642 0.99646 0.23282
 C101 C -0.22643 1.00463 0.19856
 C102 C -0.18444 1.00900 0.16770
 H103 H -0.32754 0.89381 0.32496
 H104 H -0.41391 1.04955 0.28563
 H105 H -0.48373 1.03287 0.36419
 H106 H -0.39716 0.87599 0.40281
 C107 C -0.32747 0.99357 -0.37593
 C108 C -0.33671 0.97022 -0.32167
 C109 C -0.38804 0.94094 -0.30925
 C110 C -0.43009 0.93478 -0.35153
 C111 C -0.42108 0.95781 -0.40686
 C112 C -0.36898 0.98747 -0.41803
 C113 C -0.29240 0.97620 -0.27973
 C114 C -0.25373 0.98234 -0.24637
 C115 C -0.20803 0.99005 -0.20803
 C116 C -0.16974 0.99629 -0.17427
 H117 H -0.28802 1.01665 -0.38579
 H118 H -0.39517 0.92219 -0.26728
 H119 H -0.46785 0.90952 -0.34148
 H120 H -0.36074 1.00763 -0.45912
 C121 C 0.40319 1.02937 -0.31874
 C122 C 0.36677 0.98564 -0.30007
 C123 C 0.37360 0.93152 -0.32270
 C124 C 0.41415 0.92183 -0.36653
 C125 C 0.44859 0.96609 -0.38759
 C126 C 0.44415 1.01959 -0.36253
 C127 C 0.31837 0.99675 -0.26243
 C128 C 0.27613 1.00380 -0.23242
 C129 C 0.22620 1.00934 -0.19750
 C130 C 0.18442 1.01185 -0.16612
 H131 H 0.39786 1.07147 -0.30165
 H132 H 0.34538 0.89755 -0.30870
 H133 H 0.41635 0.88069 -0.38645
 H134 H 0.46955 1.05436 -0.37945
 C135 C 0.35146 1.36059 -0.05907
 C136 C 0.35217 1.32003 -0.01568
 C137 C 0.39592 1.32113 0.02529
 C138 C 0.43715 1.36441 0.02456
 C139 C 0.43472 1.40773 -0.01693
 C140 C 0.39222 1.40389 -0.05981
 C141 C 0.30542 1.28008 -0.01130
 C142 C 0.26497 1.24808 -0.00807
 C143 C 0.21723 1.21102 -0.00480
 C144 C 0.17726 1.17841 -0.00246
 H145 H 0.31815 1.35984 -0.09137
 H146 H 0.39670 1.28995 0.05927
 H147 H 0.46757 1.36621 0.05940
 H148 H 0.38982 1.43506 -0.09369
 C149 C 0.39827 0.69721 0.03030
 C150 C 0.35363 0.69957 -0.00965
 C151 C 0.35173 0.66008 -0.05390
 C152 C 0.39217 0.61651 -0.05646
 C153 C 0.43553 0.61131 -0.01459
 C154 C 0.43918 0.65366 0.02773
 C155 C 0.30727 0.73979 -0.00355
 C156 C 0.26700 0.77194 0.00065
 C157 C 0.21929 0.80904 0.00427
 C158 C 0.17917 0.84153 0.00603
 H159 H 0.40002 0.72759 0.06490
 H160 H 0.31776 0.66186 -0.08548
 H161 H 0.38884 0.58621 -0.09098
 H162 H 0.47038 0.65084 0.06183
 C163 C -0.35803 0.66347 0.05524
 C164 C -0.35047 0.69631 0.00574
 C165 C -0.38689 0.68833 -0.04114
 C166 C -0.42918 0.64613 -0.03938
 C167 C -0.43538 0.61150 0.00933
 C168 C -0.40019 0.62130 0.05704
 C169 C -0.30325 0.73583 0.00213
 C170 C -0.26296 0.76811 -0.00039
 C171 C -0.21575 0.80589 -0.00256
 C172 C -0.17624 0.83910 -0.00352
 H173 H -0.33016 0.66930 0.09178
 H174 H -0.38135 0.71345 -0.07971
 H175 H -0.45519 0.63878 -0.07696
 H176 H -0.40412 0.59499 0.09495
 C177 C -0.36148 1.35285 0.05844
 C178 C -0.35290 1.31999 0.00919
 C179 C -0.38787 1.32845 -0.03873
 C180 C -0.42968 1.37115 -0.03822
 C181 C -0.43683 1.40579 0.01027
 C182 C -0.40315 1.39552 0.05898
 C183 C -0.30585 1.28016 0.00683
 C184 C -0.26560 1.24778 0.00510
 C185 C -0.21830 1.21004 0.00334
 C186 C -0.17857 1.17705 0.00206
 H187 H -0.33471 1.34670 0.09575
 H188 H -0.38149 1.30334 -0.07712
 H189 H -0.45451 1.37887 -0.07653
 H190 H -0.40782 1.42187 0.09672
 C191 C -0.05858 1.36407 0.35006
 C192 C -0.01683 1.32156 0.35099
 C193 C 0.02368 1.32056 0.39525
 C194 C 0.02404 1.36336 0.43681
 C195 C -0.01583 1.40843 0.43433
 C196 C -0.05820 1.40685 0.39108
 C197 C -0.01413 1.28132 0.30446
 C198 C -0.01250 1.24909 0.26429
 C199 C -0.01097 1.21169 0.21686
 C200 C -0.00962 1.17885 0.17721
 H201 H -0.09063 1.36509 0.31654
 H202 H 0.05641 1.28789 0.39640
 H203 H 0.05852 1.36321 0.46774
 H204 H -0.09112 1.43923 0.38848
 C205 C 0.06133 1.35198 -0.36213
 C206 C 0.01183 1.31908 -0.35234
 C207 C -0.03689 1.32694 -0.38679
 C208 C -0.03694 1.36914 -0.42902
 C209 C 0.01175 1.40399 -0.43712
 C210 C 0.06130 1.39412 -0.40412
 C211 C 0.01019 1.27989 -0.30472
 C212 C 0.00929 1.24808 -0.26409
 C213 C 0.00847 1.21081 -0.21641
 C214 C 0.00765 1.17800 -0.17662
 H215 H 0.09931 1.34641 -0.33592
 H216 H -0.07553 1.30183 -0.37965
 H217 H -0.07592 1.37651 -0.45323
 H218 H 0.09917 1.42068 -0.40934
 C219 C -0.03603 0.69027 -0.38546
 C220 C 0.01092 0.69581 -0.34836
 C221 C 0.05910 0.66046 -0.35523
 C222 C 0.05935 0.61835 -0.39717
 C223 C 0.01140 0.61093 -0.43298
 C224 C -0.03581 0.64812 -0.42757
 C225 C 0.00860 0.73545 -0.30128
 C226 C 0.00692 0.76778 -0.26120
 C227 C 0.00527 0.80570 -0.21421
 C228 C 0.00419 0.83899 -0.17495
 H229 H -0.07363 0.71728 -0.38060
 H230 H 0.09575 0.66428 -0.32697
 H231 H 0.09618 0.59017 -0.40038
 H232 H -0.07369 0.64274 -0.45389
 C233 C -0.06067 0.66674 0.36259
 C234 C -0.01101 0.69987 0.35468
 C235 C 0.03645 0.69206 0.39076
 C236 C 0.03532 0.64948 0.43254
 C237 C -0.01328 0.61414 0.43851
 C238 C -0.06182 0.62420 0.40416
 C239 C -0.00768 0.73900 0.30713
 C240 C -0.00539 0.77069 0.26646
 C241 C -0.00331 0.80776 0.21870
 C242 C -0.00211 0.84042 0.17882
 H243 H -0.09772 0.67233 0.33512
 H244 H 0.07518 0.71736 0.38508
 H245 H 0.07359 0.64199 0.45779
 H246 H -0.09963 0.59733 0.40777
   
