data_POSCAR
  _audit_creation_date              2014-09-24
  _audit_creation_method            'ToBaCCo'
  _symmetry_space_group_name_H-M    'P1'
  _symmetry_Int_Tables_number       1
  _symmetry_cell_setting            triclinic
  loop_
  _symmetry_equiv_pos_as_xyz
 x,y,z
_cell_length_a 51.2711
_cell_length_b 51.5570
_cell_length_c 51.6263
_cell_angle_alpha 89.895700
_cell_angle_beta 89.844700
_cell_angle_gamma 89.055400
loop_
  _atom_site_label
  _atom_site_type_symbol
  _atom_site_fract_x
  _atom_site_fract_y
  _atom_site_fract_z
N1 N 0.29406 0.23702 0.21909
 N2 N 0.28250 0.25674 0.20749
 C3 C 0.29662 0.26337 0.18649
 C4 C 0.31824 0.24692 0.18493
 C5 C 0.31588 0.23045 0.20599
 H6 H 0.29173 0.27919 0.17353
 H7 H 0.32893 0.21467 0.21132
 Cu8 Cu 0.25040 0.27209 0.22130
 Cu9 Cu 0.28006 0.22115 0.25018
 Cu10 Cu 0.22354 0.24820 0.27608
 N11 N 0.21953 0.28793 0.23710
 N12 N 0.20895 0.27844 0.25823
 C13 C 0.18816 0.29329 0.26492
 C14 C 0.18562 0.31331 0.24711
 C15 C 0.20591 0.30923 0.22974
 H16 H 0.17616 0.29008 0.28183
 H17 H 0.21042 0.32090 0.21296
 N18 N 0.24141 0.21760 0.29128
 N19 N 0.26311 0.20760 0.28147
 C20 C 0.27097 0.18741 0.29619
 C21 C 0.25344 0.18444 0.31634
 C22 C 0.23486 0.20391 0.31256
 H23 H 0.28811 0.17556 0.29236
 H24 H 0.21803 0.20802 0.32461
 H25 H 0.24133 0.23174 0.24419
 H26 H 0.26122 0.25446 0.26387
 N27 N 0.70401 -0.23769 0.21916
 N28 N 0.71645 -0.25624 0.20660
 C29 C 0.70259 -0.26250 0.18542
 C30 C 0.68013 -0.24700 0.18464
 C31 C 0.68187 -0.23150 0.20653
 H32 H 0.70844 -0.27737 0.17179
 H33 H 0.66826 -0.21661 0.21288
 Cu34 Cu 0.74939 -0.27078 0.21919
 Cu35 Cu 0.71759 -0.22245 0.25059
 Cu36 Cu 0.77410 -0.24952 0.27597
 N37 N 0.77983 -0.28709 0.23529
 N38 N 0.78919 -0.27905 0.25748
 C39 C 0.80970 -0.29423 0.26419
 C40 C 0.81358 -0.31293 0.24513
 C41 C 0.79412 -0.30762 0.22709
 H42 H 0.82087 -0.29168 0.28168
 H43 H 0.79024 -0.31811 0.20947
 N44 N 0.75587 -0.21950 0.29181
 N45 N 0.73415 -0.20945 0.28217
 C46 C 0.72632 -0.18934 0.29698
 C47 C 0.74393 -0.18644 0.31698
 C48 C 0.76248 -0.20591 0.31304
 H49 H 0.70930 -0.17733 0.29317
 H50 H 0.77948 -0.20994 0.32480
 H51 H 0.75674 -0.23164 0.24457
 H52 H 0.73702 -0.25616 0.26244
 N53 N 0.71360 0.23750 0.78029
 N54 N 0.72356 0.25834 0.79074
 C55 C 0.70934 0.26496 0.81179
 C56 C 0.68950 0.24722 0.81474
 C57 C 0.69289 0.23010 0.79434
 H58 H 0.71319 0.28138 0.82411
 H59 H 0.68091 0.21370 0.78972
 Cu60 Cu 0.75409 0.27476 0.77567
 Cu61 Cu 0.72759 0.22166 0.74894
 Cu62 Cu 0.77986 0.25190 0.72000
 N63 N 0.78342 0.29161 0.75878
 N64 N 0.79287 0.28281 0.73676
 C65 C 0.81265 0.29780 0.72910
 C66 C 0.81614 0.31717 0.74736
 C67 C 0.79708 0.31252 0.76599
 H68 H 0.82393 0.29433 0.71173
 H69 H 0.79332 0.32350 0.78344
 N70 N 0.76415 0.22036 0.70591
 N71 N 0.74441 0.20863 0.71707
 C72 C 0.73839 0.18753 0.70306
 C73 C 0.75516 0.18589 0.68201
 C74 C 0.77121 0.20707 0.68452
 H75 H 0.72280 0.17446 0.70773
 H76 H 0.78711 0.21227 0.67186
 H77 H 0.76525 0.23454 0.75302
 H78 H 0.74217 0.25573 0.73423
 N79 N 0.28684 -0.23948 0.78179
 N80 N 0.27733 -0.26083 0.79173
 C81 C 0.29146 -0.26760 0.81275
 C82 C 0.31082 -0.24944 0.81618
 C83 C 0.30719 -0.23191 0.79611
 H84 H 0.28792 -0.28442 0.82469
 H85 H 0.31883 -0.21513 0.79188
 Cu86 Cu 0.24755 -0.27767 0.77587
 Cu87 Cu 0.27292 -0.22331 0.75053
 Cu88 Cu 0.22031 -0.25299 0.72184
 N89 N 0.21706 -0.29341 0.76016
 N90 N 0.20705 -0.28387 0.73871
 C91 C 0.18663 -0.29819 0.73160
 C92 C 0.18331 -0.31790 0.74962
 C93 C 0.20311 -0.31413 0.76756
 H94 H 0.17485 -0.29405 0.71474
 H95 H 0.20721 -0.32561 0.78464
 N96 N 0.23632 -0.22152 0.70769
 N97 N 0.25615 -0.20998 0.71875
 C98 C 0.26236 -0.18890 0.70469
 C99 C 0.24564 -0.18709 0.68369
 C100 C 0.22941 -0.20814 0.68630
 H101 H 0.27807 -0.17598 0.70924
 H102 H 0.21351 -0.21320 0.67370
 H103 H 0.23546 -0.23673 0.75505
 H104 H 0.25832 -0.25678 0.73484
 N105 N 0.70584 -0.24025 0.78201
 N106 N 0.71871 -0.25979 0.79258
 C107 C 0.70591 -0.26755 0.81394
 C108 C 0.68381 -0.25205 0.81701
 C109 C 0.68441 -0.23493 0.79630
 H110 H 0.71206 -0.28353 0.82616
 H111 H 0.67047 -0.21955 0.79205
 Cu112 Cu 0.75078 -0.27367 0.77756
 Cu113 Cu 0.71813 -0.22307 0.75080
 Cu114 Cu 0.77412 -0.24840 0.72210
 N115 N 0.78138 -0.28827 0.76029
 N116 N 0.79025 -0.27856 0.73853
 C117 C 0.81118 -0.29258 0.73072
 C118 C 0.81584 -0.31229 0.74861
 C119 C 0.79639 -0.30880 0.76713
 H120 H 0.82214 -0.28851 0.71333
 H121 H 0.79312 -0.32042 0.78422
 N122 N 0.75508 -0.21794 0.70838
 N123 N 0.73367 -0.20837 0.71920
 C124 C 0.72544 -0.18758 0.70547
 C125 C 0.74252 -0.18381 0.68503
 C126 C 0.76106 -0.20347 0.68753
 H127 H 0.70849 -0.17580 0.71027
 H128 H 0.77767 -0.20705 0.67505
 H129 H 0.73702 -0.25563 0.73603
 H130 H 0.75721 -0.23260 0.75505
 N131 N 0.29477 0.24082 0.78124
 N132 N 0.28355 0.26210 0.79015
 C133 C 0.29686 0.27034 0.81091
 C134 C 0.31759 0.25335 0.81530
 C135 C 0.31559 0.23480 0.79604
 H136 H 0.29166 0.28729 0.82219
 H137 H 0.32842 0.21826 0.79283
 Cu138 Cu 0.25251 0.27702 0.77409
 Cu139 Cu 0.28158 0.22272 0.75106
 Cu140 Cu 0.22509 0.24754 0.72303
 N141 N 0.22044 0.29014 0.75853
 N142 N 0.20964 0.27843 0.73879
 C143 C 0.18765 0.29139 0.73213
 C144 C 0.18448 0.31243 0.74856
 C145 C 0.20570 0.31097 0.76507
 H146 H 0.17509 0.28603 0.71630
 H147 H 0.20992 0.32394 0.78088
 N148 N 0.24365 0.21651 0.70984
 N149 N 0.26524 0.20716 0.72041
 C150 C 0.27344 0.18629 0.70681
 C151 C 0.25617 0.18223 0.68670
 C152 C 0.23751 0.20178 0.68929
 H153 H 0.29066 0.17481 0.71132
 H154 H 0.22089 0.20529 0.67688
 H155 H 0.26314 0.25432 0.73391
 H156 H 0.24313 0.23436 0.75647
 N157 N 0.28756 -0.23980 0.21967
 N158 N 0.27695 -0.26073 0.21012
 C159 C 0.29026 -0.26816 0.18884
 C160 C 0.31036 -0.25103 0.18474
 C161 C 0.30808 -0.23328 0.20480
 H162 H 0.28572 -0.28490 0.17722
 H163 H 0.32012 -0.21658 0.20808
 Cu164 Cu 0.24655 -0.27629 0.22601
 Cu165 Cu 0.27333 -0.22219 0.25015
 Cu166 Cu 0.21790 -0.24848 0.27770
 N167 N 0.21537 -0.29061 0.24164
 N168 N 0.20421 -0.27957 0.26180
 C169 C 0.18315 -0.29320 0.26870
 C170 C 0.18087 -0.31402 0.25195
 C171 C 0.20174 -0.31168 0.23500
 H172 H 0.17048 -0.28822 0.28475
 H173 H 0.20671 -0.32436 0.21904
 N174 N 0.23455 -0.21717 0.29113
 N175 N 0.25586 -0.20728 0.28098
 C176 C 0.26242 -0.18617 0.29476
 C177 C 0.24426 -0.18255 0.31441
 C178 C 0.22695 -0.20261 0.31147
 H179 H 0.27896 -0.17412 0.29060
 H180 H 0.21020 -0.20652 0.32350
 H181 H 0.25641 -0.25430 0.26653
 H182 H 0.23555 -0.23405 0.24454
 N183 N 0.71341 0.23703 0.21673
 N184 N 0.72407 0.25766 0.20644
 C185 C 0.71082 0.26450 0.18499
 C186 C 0.69070 0.24731 0.18153
 C187 C 0.69290 0.23013 0.20214
 H188 H 0.71526 0.28101 0.17294
 H189 H 0.68068 0.21369 0.20612
 Cu190 Cu 0.75402 0.27392 0.22207
 Cu191 Cu 0.72739 0.22062 0.24800
 Cu192 Cu 0.78136 0.24934 0.27586
 N193 N 0.78399 0.28996 0.23793
 N194 N 0.79477 0.28019 0.25892
 C195 C 0.81509 0.29491 0.26575
 C196 C 0.81709 0.31509 0.24813
 C197 C 0.79699 0.31126 0.23075
 H198 H 0.82725 0.29136 0.28250
 H199 H 0.79235 0.32299 0.21397
 N200 N 0.76499 0.21809 0.29014
 N201 N 0.74452 0.20707 0.27962
 C202 C 0.73820 0.18614 0.29387
 C203 C 0.75546 0.18393 0.31441
 C204 C 0.77215 0.20455 0.31133
 H205 H 0.72208 0.17357 0.28974
 H206 H 0.78852 0.20922 0.32348
 H207 H 0.74317 0.25374 0.26335
 H208 H 0.76519 0.23287 0.24313
 C209 C 0.26779 0.07778 0.51494
 C210 C 0.26714 0.07827 0.48838
 C211 C 0.25779 0.05446 0.48058
 N212 N 0.25262 0.03951 0.50145
 C213 C 0.25881 0.05370 0.52247
 C214 C 0.25288 0.04735 0.45467
 C215 C 0.24682 0.02177 0.44722
 C216 C 0.23642 0.01500 0.42344
 C217 C 0.23527 -0.01161 0.42303
 C218 C 0.24501 -0.02039 0.44655
 N219 N 0.25203 0.00009 0.46118
 C220 C 0.24853 -0.04679 0.45335
 C221 C 0.25283 -0.05519 0.47906
 C222 C 0.25948 -0.08035 0.48626
 C223 C 0.25975 -0.08081 0.51282
 C224 C 0.25332 -0.05590 0.52094
 N225 N 0.24904 -0.04029 0.50029
 C226 C 0.24970 -0.04838 0.54700
 C227 C 0.24683 -0.02220 0.55477
 C228 C 0.23808 -0.01418 0.57895
 C229 C 0.23958 0.01242 0.57934
 C230 C 0.24916 0.01993 0.55537
 N231 N 0.25360 -0.00129 0.54053
 C232 C 0.25502 0.04572 0.54838
 H233 H 0.27411 0.09341 0.52728
 H234 H 0.27287 0.09433 0.47622
 H235 H 0.26344 -0.00166 0.52291
 H236 H 0.23046 0.02791 0.40791
 H237 H 0.22820 -0.02319 0.40713
 H238 H 0.26350 -0.09673 0.47370
 H239 H 0.26402 -0.09760 0.52479
 H240 H 0.23431 0.02481 0.59549
 H241 H 0.26259 -0.00082 0.47833
 H242 H 0.23144 -0.02624 0.59475
 C243 C 0.74315 0.07978 0.48505
 C244 C 0.74291 0.08013 0.51161
 C245 C 0.74885 0.05507 0.51968
 N246 N 0.75278 0.03947 0.49899
 C247 C 0.74924 0.05452 0.47779
 C248 C 0.75225 0.04737 0.54572
 C249 C 0.75482 0.02115 0.55347
 C250 C 0.76339 0.01294 0.57763
 C251 C 0.76161 -0.01364 0.57799
 C252 C 0.75202 -0.02094 0.55404
 N253 N 0.74788 0.00038 0.53922
 C254 C 0.74581 -0.04661 0.54707
 C255 C 0.74188 -0.05445 0.52119
 C256 C 0.73255 -0.07839 0.51375
 C257 C 0.73307 -0.07878 0.48719
 C258 C 0.74270 -0.05507 0.47929
 N259 N 0.74816 -0.04027 0.50011
 C260 C 0.74753 -0.04793 0.45331
 C261 C 0.75378 -0.02239 0.44575
 C262 C 0.76391 -0.01563 0.42177
 C263 C 0.76540 0.01098 0.42137
 C264 C 0.75617 0.01974 0.44511
 N265 N 0.74908 -0.00071 0.45984
 C266 C 0.75319 0.04614 0.45203
 H267 H 0.73945 0.09628 0.47252
 H268 H 0.73898 0.09695 0.52361
 H269 H 0.73879 0.00025 0.47719
 H270 H 0.77007 0.02486 0.59343
 H271 H 0.76667 -0.02615 0.59414
 H272 H 0.72606 -0.09397 0.52615
 H273 H 0.72705 -0.09471 0.47509
 H274 H 0.77235 0.02256 0.40534
 H275 H 0.73806 0.00093 0.52164
 H276 H 0.76946 -0.02851 0.40611
 C277 C 0.51777 0.26107 0.07883
 C278 C 0.49102 0.26100 0.07936
 C279 C 0.48300 0.25421 0.05470
 N280 N 0.50391 0.24994 0.03920
 C281 C 0.52518 0.25419 0.05389
 C282 C 0.45684 0.25048 0.04731
 C283 C 0.44905 0.24719 0.02129
 C284 C 0.42485 0.23836 0.01365
 C285 C 0.42440 0.23940 -0.01296
 C286 C 0.44833 0.24882 -0.02085
 N287 N 0.46322 0.25358 0.00015
 C288 C 0.45523 0.25418 -0.04682
 C289 C 0.48122 0.25792 -0.05495
 C290 C 0.48861 0.26629 -0.07939
 C291 C 0.51537 0.26551 -0.07994
 C292 C 0.52341 0.25677 -0.05580
 N293 N 0.50252 0.25209 -0.04058
 C294 C 0.54958 0.25159 -0.04872
 C295 C 0.55731 0.24657 -0.02289
 C296 C 0.58143 0.23640 -0.01566
 C297 C 0.58191 0.23617 0.01096
 C298 C 0.55802 0.24606 0.01928
 N299 N 0.54316 0.25242 -0.00146
 C300 C 0.55118 0.25041 0.04547
 H301 H 0.53030 0.26549 0.09500
 H302 H 0.47886 0.26538 0.09601
 H303 H 0.52567 0.26290 -0.00097
 H304 H 0.40908 0.23198 0.02596
 H305 H 0.40822 0.23395 -0.02510
 H306 H 0.47606 0.27219 -0.09523
 H307 H 0.52751 0.27070 -0.09627
 H308 H 0.59806 0.22953 0.02285
 H309 H 0.48077 0.26338 0.00015
 H310 H 0.59716 0.22997 -0.02825
 C311 C 0.48198 0.73676 0.08003
 C312 C 0.50873 0.73695 0.08047
 C313 C 0.51678 0.74340 0.05566
 N314 N 0.49589 0.74738 0.04017
 C315 C 0.47460 0.74327 0.05500
 C316 C 0.54295 0.74708 0.04814
 C317 C 0.55090 0.75007 0.02208
 C318 C 0.57524 0.75855 0.01434
 C319 C 0.57574 0.75752 -0.01227
 C320 C 0.55168 0.74846 -0.02006
 N321 N 0.53671 0.74383 0.00100
 C322 C 0.54472 0.74344 -0.04603
 C323 C 0.51876 0.73983 -0.05413
 C324 C 0.51146 0.73196 -0.07869
 C325 C 0.48470 0.73261 -0.07914
 C326 C 0.47656 0.74084 -0.05484
 N327 N 0.49741 0.74529 -0.03961
 C328 C 0.45035 0.74575 -0.04762
 C329 C 0.44250 0.75054 -0.02175
 C330 C 0.41825 0.76042 -0.01445
 C331 C 0.41773 0.76063 0.01217
 C332 C 0.44172 0.75102 0.02043
 N333 N 0.45668 0.74483 -0.00035
 C334 C 0.44859 0.74683 0.04662
 H335 H 0.46944 0.73252 0.09633
 H336 H 0.52087 0.73287 0.09715
 H337 H 0.47428 0.73455 0.00011
 H338 H 0.59107 0.76474 0.02657
 H339 H 0.59203 0.76278 -0.02447
 H340 H 0.52409 0.72648 -0.09466
 H341 H 0.47263 0.72771 -0.09552
 H342 H 0.40150 0.76709 0.02410
 H343 H 0.51901 0.73431 0.00107
 H344 H 0.40248 0.76670 -0.02699
 C345 C 0.07871 0.51345 0.26437
 C346 C 0.07915 0.48685 0.26426
 C347 C 0.05448 0.47922 0.25687
 N348 N 0.03903 0.50023 0.25234
 C349 C 0.05381 0.52118 0.25694
 C350 C 0.04718 0.45331 0.25255
 C351 C 0.02109 0.44589 0.24846
 C352 C 0.01366 0.42195 0.23904
 C353 C -0.01315 0.42204 0.23885
 C354 C -0.02139 0.44604 0.24816
 N355 N -0.00041 0.46039 0.25413
 C356 C -0.04775 0.45361 0.25196
 C357 C -0.05590 0.47959 0.25597
 C358 C -0.08092 0.48736 0.26304
 C359 C -0.08135 0.51397 0.26272
 C360 C -0.05658 0.52155 0.25542
 N361 N -0.04105 0.50051 0.25129
 C362 C -0.04921 0.54743 0.25077
 C363 C -0.02299 0.55466 0.24692
 C364 C -0.01524 0.57837 0.23706
 C365 C 0.01156 0.57830 0.23765
 C366 C 0.01947 0.55452 0.24778
 N367 N -0.00170 0.54026 0.25348
 C368 C 0.04567 0.54714 0.25266
 H369 H 0.09497 0.52569 0.26909
 H370 H 0.09579 0.47452 0.26889
 H371 H -0.00166 0.52295 0.26384
 H372 H 0.02625 0.40603 0.23294
 H373 H -0.02520 0.40621 0.23257
 H374 H -0.09725 0.47514 0.26770
 H375 H -0.09806 0.52630 0.26713
 H376 H 0.02383 0.59399 0.23134
 H377 H -0.00077 0.47797 0.26396
 H378 H -0.02759 0.59414 0.23018
 C379 C 0.07883 0.48539 0.74362
 C380 C 0.07901 0.51201 0.74412
 C381 C 0.05470 0.52005 0.75311
 N382 N 0.03976 0.49930 0.75820
 C383 C 0.05440 0.47810 0.75228
 C384 C 0.04685 0.54608 0.75743
 C385 C 0.02063 0.55333 0.76261
 C386 C 0.01260 0.57716 0.77249
 C387 C -0.01422 0.57765 0.77188
 C388 C -0.02183 0.55409 0.76168
 N389 N -0.00048 0.53931 0.75625
 C390 C -0.04777 0.54775 0.75541
 C391 C -0.05571 0.52202 0.75108
 C392 C -0.07978 0.51495 0.74145
 C393 C -0.07998 0.48832 0.74143
 C394 C -0.05602 0.48007 0.75101
 N395 N -0.04128 0.50069 0.75701
 C396 C -0.04836 0.45395 0.75507
 C397 C -0.02231 0.44647 0.76066
 C398 C -0.01459 0.42234 0.77007
 C399 C 0.01223 0.42184 0.77016
 C400 C 0.02016 0.44572 0.76091
 N401 N -0.00099 0.46067 0.75528
 C402 C 0.04631 0.45229 0.75570
 H403 H 0.09482 0.47287 0.73748
 H404 H 0.09515 0.52402 0.73837
 H405 H -0.00081 0.47806 0.74507
 H406 H 0.02481 0.59279 0.77896
 H407 H -0.02670 0.59372 0.77779
 H408 H -0.09552 0.52761 0.73502
 H409 H -0.09589 0.47645 0.73494
 H410 H 0.02452 0.40558 0.77596
 H411 H -0.00030 0.52228 0.74550
 H412 H -0.02700 0.40652 0.77578
 C413 C 0.37883 0.24605 0.12759
 C414 C 0.38260 0.23284 0.15114
 C415 C 0.36287 0.23318 0.16977
 C416 C 0.33939 0.24680 0.16526
 C417 C 0.33658 0.26019 0.14169
 N418 N 0.35606 0.25948 0.12374
 C419 C 0.39913 0.24633 0.10709
 N420 N 0.39869 0.26587 0.08927
 C421 C 0.41675 0.26754 0.07002
 C422 C 0.43675 0.24879 0.06797
 C423 C 0.43740 0.22826 0.08574
 C424 C 0.41861 0.22687 0.10525
 H425 H 0.36627 0.22303 0.18783
 H426 H 0.31885 0.27095 0.13731
 H427 H 0.41565 0.28354 0.05644
 H428 H 0.45241 0.21328 0.08439
 H429 H 0.40069 0.22273 0.15552
 H430 H 0.41923 0.21049 0.11834
 C431 C 0.62060 0.75356 0.12823
 C432 C 0.61831 0.76970 0.15001
 C433 C 0.63800 0.76955 0.16858
 C434 C 0.66009 0.75317 0.16592
 C435 C 0.66135 0.73700 0.14397
 N436 N 0.64193 0.73764 0.12606
 C437 C 0.60031 0.75281 0.10778
 N438 N 0.60016 0.73223 0.09123
 C439 C 0.58220 0.73002 0.07206
 C440 C 0.56288 0.74925 0.06877
 C441 C 0.56275 0.77077 0.08523
 C442 C 0.58147 0.77274 0.10464
 H443 H 0.63550 0.78223 0.18508
 H444 H 0.67769 0.72390 0.14075
 H445 H 0.58288 0.71323 0.05950
 H446 H 0.54824 0.78610 0.08289
 H447 H 0.60139 0.78206 0.15320
 H448 H 0.58122 0.78991 0.11660
 C449 C 0.62905 0.24621 -0.12779
 C450 C 0.63443 0.22388 -0.14254
 C451 C 0.65417 0.22423 -0.16115
 C452 C 0.66885 0.24664 -0.16508
 C453 C 0.66329 0.26837 -0.14953
 N454 N 0.64382 0.26761 -0.13159
 C455 C 0.60813 0.24703 -0.10790
 N456 N 0.60926 0.26507 -0.08869
 C457 C 0.59083 0.26698 -0.06975
 C458 C 0.56966 0.25011 -0.06951
 C459 C 0.56786 0.23160 -0.08922
 C460 C 0.58691 0.23008 -0.10851
 H461 H 0.65807 0.20678 -0.17220
 H462 H 0.67407 0.28608 -0.15182
 H463 H 0.59269 0.28159 -0.05487
 H464 H 0.55167 0.21838 -0.08964
 H465 H 0.62395 0.20609 -0.13958
 H466 H 0.58466 0.21602 -0.12381
 C467 C 0.37104 0.75135 -0.12643
 C468 C 0.36522 0.77395 -0.14066
 C469 C 0.34553 0.77367 -0.15922
 C470 C 0.33135 0.75106 -0.16364
 C471 C 0.33735 0.72904 -0.14860
 N472 N 0.35675 0.72973 -0.13068
 C473 C 0.39193 0.75046 -0.10661
 N474 N 0.39107 0.73201 -0.08771
 C475 C 0.40947 0.73005 -0.06883
 C476 C 0.43031 0.74730 -0.06835
 C477 C 0.43184 0.76624 -0.08774
 C478 C 0.41283 0.76781 -0.10697
 H479 H 0.34128 0.79133 -0.16986
 H480 H 0.32697 0.71116 -0.15128
 H481 H 0.40783 0.71510 -0.05420
 H482 H 0.44779 0.77976 -0.08796
 H483 H 0.37531 0.79188 -0.13732
 H484 H 0.41486 0.78222 -0.12204
 C485 C 0.12836 0.37485 0.24662
 C486 C 0.15130 0.37720 0.23188
 C487 C 0.16987 0.35711 0.23198
 C488 C 0.16594 0.33473 0.24690
 C489 C 0.14299 0.33331 0.26170
 N490 N 0.12508 0.35306 0.26116
 C491 C 0.10777 0.39545 0.24733
 N492 N 0.08980 0.39510 0.26684
 C493 C 0.07031 0.41321 0.26888
 C494 C 0.06815 0.43319 0.25056
 C495 C 0.08612 0.43386 0.23013
 C496 C 0.10587 0.41501 0.22834
 H497 H 0.18747 0.35939 0.22065
 H498 H 0.13906 0.31645 0.27348
 H499 H 0.05662 0.41211 0.28482
 H500 H 0.08471 0.44890 0.21551
 H501 H 0.15534 0.39441 0.22071
 H502 H 0.11904 0.41574 0.21200
 C503 C 0.12459 0.62555 0.75028
 C504 C 0.12704 0.64227 0.72895
 C505 C 0.14640 0.66089 0.72879
 C506 C 0.16390 0.66297 0.74962
 C507 C 0.16120 0.64533 0.77030
 N508 N 0.14192 0.62749 0.77011
 C509 C 0.10403 0.60559 0.75170
 N510 N 0.10661 0.58588 0.76920
 C511 C 0.08869 0.56683 0.77156
 C512 C 0.06659 0.56686 0.75560
 C513 C 0.06330 0.58707 0.73770
 C514 C 0.08176 0.60653 0.73581
 H515 H 0.14762 0.67334 0.71199
 H516 H 0.17406 0.64578 0.78684
 H517 H 0.09170 0.55164 0.78579
 H518 H 0.04635 0.58779 0.72522
 H519 H 0.11455 0.64096 0.71221
 H520 H 0.07818 0.62215 0.72225
 C521 C -0.12943 0.62693 0.24354
 C522 C -0.14623 0.63051 0.22234
 C523 C -0.16508 0.65033 0.22289
 C524 C -0.16728 0.66705 0.24434
 C525 C -0.14969 0.66305 0.26494
 N526 N -0.13164 0.64345 0.26400
 C527 C -0.10908 0.60608 0.24443
 N528 N -0.09018 0.60734 0.26289
 C529 C -0.07098 0.58899 0.26527
 C530 C -0.07007 0.56770 0.24845
 C531 C -0.08928 0.56584 0.22934
 C532 C -0.10888 0.58482 0.22734
 H533 H -0.17763 0.65250 0.20622
 H534 H -0.15023 0.67518 0.28197
 H535 H -0.05648 0.59095 0.28031
 H536 H -0.08913 0.54959 0.21606
 H537 H -0.14486 0.61856 0.20522
 H538 H -0.12374 0.58237 0.21281
 C539 C -0.12608 0.37464 0.74737
 C540 C -0.12883 0.35845 0.72576
 C541 C -0.14794 0.33955 0.72577
 C542 C -0.16484 0.33669 0.74709
 C543 C -0.16189 0.35387 0.76803
 N544 N -0.14288 0.37199 0.76764
 C545 C -0.10568 0.39473 0.74868
 N546 N -0.10835 0.41426 0.76631
 C547 C -0.09044 0.43329 0.76874
 C548 C -0.06823 0.43335 0.75283
 C549 C -0.06489 0.41336 0.73475
 C550 C -0.08339 0.39396 0.73271
 H551 H -0.14941 0.32749 0.70877
 H552 H -0.17430 0.35283 0.78494
 H553 H -0.09349 0.44833 0.78308
 H554 H -0.04786 0.41273 0.72229
 H555 H -0.11674 0.36038 0.70872
 H556 H -0.07981 0.37844 0.71906
 C557 C 0.25631 0.12610 0.37551
 C558 C 0.27875 0.13135 0.36089
 C559 C 0.27779 0.15045 0.34178
 C560 C 0.25464 0.16462 0.33720
 C561 C 0.23283 0.15931 0.35273
 N562 N 0.23419 0.14044 0.37117
 C563 C 0.25614 0.10558 0.39565
 N564 N 0.23813 0.10706 0.41508
 C565 C 0.23676 0.08886 0.43413
 C566 C 0.25414 0.06757 0.43419
 C567 C 0.27260 0.06543 0.41427
 C568 C 0.27363 0.08428 0.39493
 H569 H 0.29534 0.15422 0.33083
 H570 H 0.21459 0.16976 0.34999
 H571 H 0.22210 0.09091 0.44914
 H572 H 0.28612 0.04906 0.41366
 H573 H 0.29704 0.12120 0.36429
 H574 H 0.28766 0.08179 0.37943
 C575 C 0.75725 0.12781 0.62270
 C576 C 0.77111 0.15085 0.61928
 C577 C 0.77045 0.16972 0.63861
 C578 C 0.75588 0.16593 0.66133
 C579 C 0.74200 0.14278 0.66382
 N580 N 0.74301 0.12464 0.64474
 C581 C 0.75700 0.10715 0.60277
 N582 N 0.73713 0.08991 0.60294
 C583 C 0.73535 0.07059 0.58517
 C584 C 0.75431 0.06787 0.56573
 C585 C 0.77522 0.08498 0.56539
 C586 C 0.77672 0.10457 0.58390
 H587 H 0.78108 0.18740 0.63548
 H588 H 0.73052 0.13890 0.68094
 H589 H 0.71905 0.05754 0.58602
 H590 H 0.79036 0.08310 0.55081
 H591 H 0.78194 0.15471 0.60174
 H592 H 0.79335 0.11719 0.58348
 C593 C 0.24419 -0.12908 0.62407
 C594 C 0.23037 -0.15214 0.62071
 C595 C 0.23082 -0.17096 0.64014
 C596 C 0.24515 -0.16714 0.66291
 C597 C 0.25901 -0.14400 0.66536
 N598 N 0.25819 -0.12588 0.64618
 C599 C 0.24462 -0.10841 0.60405
 N600 N 0.26424 -0.09090 0.60449
 C601 C 0.26615 -0.07153 0.58670
 C602 C 0.24759 -0.06902 0.56696
 C603 C 0.22696 -0.08646 0.56630
 C604 C 0.22531 -0.10609 0.58482
 H605 H 0.22022 -0.18865 0.63705
 H606 H 0.27031 -0.14011 0.68252
 H607 H 0.28224 -0.05824 0.58781
 H608 H 0.21212 -0.08477 0.55147
 H609 H 0.21972 -0.15605 0.60315
 H610 H 0.20887 -0.11892 0.58414
 C611 C 0.74239 -0.12723 0.37511
 C612 C 0.71974 -0.13236 0.36091
 C613 C 0.72025 -0.15178 0.34216
 C614 C 0.74314 -0.16635 0.33753
 C615 C 0.76517 -0.16112 0.35265
 N616 N 0.76425 -0.14196 0.37074
 C617 C 0.74307 -0.10647 0.39491
 N618 N 0.76127 -0.10799 0.41407
 C619 C 0.76309 -0.08963 0.43284
 C620 C 0.74598 -0.06814 0.43292
 C621 C 0.72735 -0.06592 0.41324
 C622 C 0.72586 -0.08494 0.39417
 H623 H 0.70255 -0.15545 0.33151
 H624 H 0.78325 -0.17186 0.34986
 H625 H 0.77785 -0.09177 0.44767
 H626 H 0.71401 -0.04941 0.41267
 H627 H 0.70164 -0.12187 0.36437
 H628 H 0.71169 -0.08243 0.37887
 C629 C 0.62624 0.74326 -0.12294
 C630 C 0.65047 0.73052 -0.11988
 C631 C 0.66917 0.73205 -0.13945
 C632 C 0.66404 0.74641 -0.16205
 C633 C 0.63977 0.75923 -0.16417
 N634 N 0.62179 0.75736 -0.14487
 C635 C 0.60558 0.74242 -0.10283
 N636 N 0.58645 0.76109 -0.10302
 C637 C 0.56685 0.76173 -0.08525
 C638 C 0.56573 0.74275 -0.06585
 C639 C 0.58494 0.72317 -0.06535
 C640 C 0.60482 0.72282 -0.08385
 H641 H 0.68776 0.72225 -0.13661
 H642 H 0.63488 0.77053 -0.18119
 H643 H 0.55223 0.77710 -0.08615
 H644 H 0.58442 0.70811 -0.05070
 H645 H 0.65534 0.71986 -0.10246
 H646 H 0.61902 0.70711 -0.08337
 C647 C 0.37479 0.25699 -0.12451
 C648 C 0.35888 0.27879 -0.12982
 C649 C 0.34024 0.27757 -0.14939
 C650 C 0.33745 0.25481 -0.16393
 C651 C 0.35400 0.23359 -0.15829
 N652 N 0.37195 0.23521 -0.13905
 C653 C 0.39502 0.25703 -0.10404
 N654 N 0.41454 0.23880 -0.10500
 C655 C 0.43384 0.23748 -0.08703
 C656 C 0.43420 0.25526 -0.06654
 C657 C 0.41418 0.27397 -0.06485
 C658 C 0.39450 0.27489 -0.08345
 H659 H 0.32834 0.29463 -0.15329
 H660 H 0.35261 0.21562 -0.16892
 H661 H 0.44889 0.22261 -0.08871
 H662 H 0.41380 0.28781 -0.04908
 H663 H 0.36095 0.29684 -0.11947
 H664 H 0.37899 0.28918 -0.08131
 C665 C 0.36694 0.74649 0.12352
 C666 C 0.34373 0.73258 0.12118
 C667 C 0.32535 0.73346 0.14110
 C668 C 0.32972 0.74837 0.16334
 C669 C 0.35284 0.76251 0.16469
 N670 N 0.37060 0.76117 0.14509
 C671 C 0.38747 0.74598 0.10319
 N672 N 0.40576 0.76487 0.10317
 C673 C 0.42534 0.76562 0.08538
 C674 C 0.42735 0.74648 0.06621
 C675 C 0.40893 0.72678 0.06584
 C676 C 0.38907 0.72632 0.08433
 H677 H 0.30758 0.72268 0.13884
 H678 H 0.35705 0.77431 0.18141
 H679 H 0.43933 0.78110 0.08617
 H680 H 0.41013 0.71161 0.05137
 H681 H 0.33938 0.72139 0.10410
 H682 H 0.37562 0.71043 0.08394
 C683 C 0.63340 0.24991 0.12132
 C684 C 0.65703 0.26298 0.11812
 C685 C 0.67568 0.26195 0.13768
 C686 C 0.67117 0.24772 0.16041
 C687 C 0.64768 0.23428 0.16257
 N688 N 0.62965 0.23577 0.14331
 C689 C 0.61259 0.25074 0.10141
 N690 N 0.59380 0.23234 0.10201
 C691 C 0.57405 0.23184 0.08450
 C692 C 0.57241 0.25069 0.06496
 C693 C 0.59129 0.26996 0.06403
 C694 C 0.61129 0.27018 0.08225
 H695 H 0.69374 0.27213 0.13478
 H696 H 0.64338 0.22300 0.17969
 H697 H 0.55969 0.21673 0.08575
 H698 H 0.59037 0.28493 0.04929
 H699 H 0.66147 0.27365 0.10067
 H700 H 0.62514 0.28573 0.08141
 C701 C -0.12468 0.63013 0.74778
 C702 C -0.12696 0.64758 0.72696
 C703 C -0.14654 0.66669 0.72726
 C704 C -0.16425 0.66850 0.74809
 C705 C -0.16142 0.65034 0.76836
 N706 N -0.14208 0.63204 0.76765
 C707 C -0.10437 0.60932 0.74887
 N708 N -0.10714 0.58991 0.76657
 C709 C -0.08945 0.57016 0.76906
 C710 C -0.06734 0.56917 0.75308
 C711 C -0.06384 0.58898 0.73488
 C712 C -0.08218 0.60914 0.73276
 H713 H -0.14775 0.67977 0.71091
 H714 H -0.17432 0.65055 0.78493
 H715 H -0.09260 0.55527 0.78349
 H716 H -0.04684 0.58884 0.72237
 H717 H -0.11420 0.64649 0.71030
 H718 H -0.07857 0.62440 0.71892
 C719 C -0.12691 0.37582 0.24697
 C720 C -0.15000 0.37847 0.23253
 C721 C -0.16817 0.35866 0.23291
 C722 C -0.16371 0.33627 0.24783
 C723 C -0.14066 0.33456 0.26238
 N724 N -0.12312 0.35405 0.26156
 C725 C -0.10674 0.39613 0.24732
 N726 N -0.08859 0.39559 0.26657
 C727 C -0.06954 0.41354 0.26836
 C728 C -0.06807 0.43355 0.25007
 C729 C -0.08619 0.43435 0.22985
 C730 C -0.10546 0.41567 0.22830
 H731 H -0.18588 0.36117 0.22176
 H732 H -0.13635 0.31768 0.27417
 H733 H -0.05568 0.41231 0.28411
 H734 H -0.08530 0.44942 0.21523
 H735 H -0.15447 0.39570 0.22136
 H736 H -0.11879 0.41654 0.21214
 C737 C 0.12327 0.36998 0.74876
 C738 C 0.11986 0.34662 0.73527
 C739 C 0.13985 0.32791 0.73510
 C740 C 0.16314 0.33218 0.74851
 C741 C 0.16564 0.35562 0.76201
 N742 N 0.14597 0.37360 0.76178
 C743 C 0.10290 0.39070 0.74982
 N744 N 0.10457 0.40918 0.76856
 C745 C 0.08686 0.42896 0.77083
 C746 C 0.06596 0.43095 0.75350
 C747 C 0.06385 0.41236 0.73392
 C748 C 0.08229 0.39228 0.73191
 H749 H 0.13681 0.30997 0.72479
 H750 H 0.18324 0.35989 0.77255
 H751 H 0.08903 0.44306 0.78615
 H752 H 0.04802 0.41357 0.72010
 H753 H 0.10192 0.34238 0.72533
 H754 H 0.08050 0.37862 0.71620
 C755 C 0.12284 0.62701 0.25226
 C756 C 0.12230 0.64622 0.27147
 C757 C 0.14116 0.66543 0.27138
 C758 C 0.16064 0.66566 0.25220
 C759 C 0.16044 0.64607 0.23330
 N760 N 0.14187 0.62757 0.23382
 C761 C 0.10315 0.60628 0.25184
 N762 N 0.08386 0.60599 0.27006
 C763 C 0.06539 0.58740 0.27064
 C764 C 0.06574 0.56755 0.25216
 C765 C 0.08527 0.56742 0.23314
 C766 C 0.10402 0.58673 0.23291
 H767 H 0.14037 0.67997 0.28643
 H768 H 0.17492 0.64532 0.21807
 H769 H 0.05050 0.58803 0.28555
 H770 H 0.08594 0.55238 0.21851
 H771 H 0.10751 0.64643 0.28648
 H772 H 0.11901 0.58630 0.21811
 C773 C 0.74012 -0.12388 0.62746
 C774 C 0.71802 -0.12826 0.64293
 C775 C 0.71881 -0.14775 0.66172
 C776 C 0.74142 -0.16309 0.66508
 C777 C 0.76294 -0.15830 0.64900
 N778 N 0.76174 -0.13915 0.63091
 C779 C 0.74064 -0.10359 0.60711
 N780 N 0.75911 -0.10546 0.58815
 C781 C 0.76110 -0.08763 0.56886
 C782 C 0.74384 -0.06631 0.56796
 C783 C 0.72485 -0.06371 0.58737
 C784 C 0.72321 -0.08223 0.60702
 H785 H 0.70155 -0.15096 0.67330
 H786 H 0.78085 -0.16950 0.65085
 H787 H 0.77616 -0.09004 0.55428
 H788 H 0.71141 -0.04728 0.58731
 H789 H 0.70009 -0.11725 0.64039
 H790 H 0.70876 -0.07940 0.62207
 C791 C 0.24222 -0.12414 0.37329
 C792 C 0.21954 -0.13787 0.36750
 C793 C 0.22023 -0.15677 0.34823
 C794 C 0.24333 -0.16196 0.33441
 C795 C 0.26539 -0.14731 0.34024
 N796 N 0.26430 -0.12911 0.35929
 C797 C 0.24284 -0.10428 0.39402
 N798 N 0.26207 -0.08634 0.39361
 C799 C 0.26416 -0.06778 0.41215
 C800 C 0.24631 -0.06669 0.43273
 C801 C 0.22642 -0.08495 0.43369
 C802 C 0.22468 -0.10384 0.41451
 H803 H 0.20253 -0.16708 0.34403
 H804 H 0.28361 -0.15059 0.33008
 H805 H 0.27982 -0.05400 0.41094
 H806 H 0.21240 -0.08466 0.44942
 H807 H 0.20126 -0.13397 0.37734
 H808 H 0.20958 -0.11813 0.41620
 C809 C 0.75795 0.12581 0.37390
 C810 C 0.77206 0.14874 0.37689
 C811 C 0.77121 0.16761 0.35752
 C812 C 0.75619 0.16398 0.33517
 C813 C 0.74198 0.14101 0.33312
 N814 N 0.74322 0.12282 0.35222
 C815 C 0.75795 0.10512 0.39391
 N816 N 0.73826 0.08768 0.39397
 C817 C 0.73658 0.06848 0.41197
 C818 C 0.75543 0.06615 0.43147
 C819 C 0.77621 0.08341 0.43153
 C820 C 0.77765 0.10282 0.41276
 H821 H 0.78207 0.18517 0.36035
 H822 H 0.73010 0.13731 0.31630
 H823 H 0.72038 0.05530 0.41132
 H824 H 0.79124 0.08186 0.44618
 H825 H 0.78326 0.15255 0.39413
 H826 H 0.79417 0.11556 0.41304
 C827 C 0.25941 0.12273 0.62887
 C828 C 0.28152 0.12751 0.64405
 C829 C 0.28044 0.14684 0.66293
 C830 C 0.25752 0.16163 0.66669
 C831 C 0.23598 0.15647 0.65088
 N832 N 0.23747 0.13749 0.63268
 C833 C 0.25923 0.10256 0.60846
 N834 N 0.24077 0.10424 0.58956
 C835 C 0.23911 0.08647 0.57024
 C836 C 0.25668 0.06540 0.56926
 C837 C 0.27568 0.06301 0.58860
 C838 C 0.27700 0.08147 0.60826
 H839 H 0.29773 0.15037 0.67426
 H840 H 0.21786 0.16727 0.65304
 H841 H 0.22405 0.08871 0.55572
 H842 H 0.28938 0.04679 0.58847
 H843 H 0.29968 0.11694 0.64120
 H844 H 0.29147 0.07881 0.62326
   
