data_POSCAR
  _audit_creation_date              2014-09-24
  _audit_creation_method            'ToBaCCo'
  _symmetry_space_group_name_H-M    'P1'
  _symmetry_Int_Tables_number       1
  _symmetry_cell_setting            triclinic
  loop_
  _symmetry_equiv_pos_as_xyz
 x,y,z
_cell_length_a 15.5919
_cell_length_b 15.7233
_cell_length_c 15.7155
_cell_angle_alpha 90.022900
_cell_angle_beta 91.151600
_cell_angle_gamma 89.963800
loop_
  _atom_site_label
  _atom_site_type_symbol
  _atom_site_fract_x
  _atom_site_fract_y
  _atom_site_fract_z
C1 C -0.00299 0.41303 0.19320
 C2 C 0.08327 0.41787 0.23924
 C3 C 0.09505 0.48751 0.28940
 C4 C 0.01490 0.54677 0.29097
 C5 C -0.06856 0.41932 0.26305
 C6 C -0.06133 0.48821 0.31374
 C7 C -0.01097 0.49812 0.14478
 C8 C -0.00179 0.56830 0.19619
 H9 H 0.13264 0.37045 0.22963
 H10 H 0.02229 0.60337 0.33277
 H11 H -0.12441 0.37837 0.26527
 H12 H -0.02170 0.50236 0.07667
 C13 C 0.01704 0.40676 0.80502
 C14 C -0.03913 0.40114 0.73171
 C15 C -0.04800 0.47749 0.68393
 C16 C 0.01809 0.54108 0.70877
 C17 C 0.09924 0.42392 0.77055
 C18 C 0.10100 0.49435 0.71410
 C19 C -0.00580 0.48497 0.85056
 C20 C -0.00174 0.56066 0.79760
 H21 H -0.07859 0.34521 0.71962
 H22 H 0.01950 0.59667 0.66518
 H23 H 0.15704 0.39022 0.79053
 H24 H -0.01601 0.48697 0.91846
 C25 C 0.19805 0.00274 0.40878
 C26 C 0.24847 0.08469 0.41647
 C27 C 0.29562 0.09409 0.48931
 C28 C 0.29165 0.01373 0.54847
 C29 C 0.26513 -0.06671 0.41830
 C30 C 0.31355 -0.06373 0.49063
 C31 C 0.14581 -0.00190 0.49055
 C32 C 0.19436 0.00287 0.56426
 H33 H 0.24382 0.13383 0.36825
 H34 H 0.33184 0.01843 0.60740
 H35 H 0.26895 -0.11973 0.37444
 H36 H 0.07689 -0.01010 0.48981
 C37 C 0.79805 0.01427 0.40691
 C38 C 0.73333 -0.05010 0.39807
 C39 C 0.68308 -0.06244 0.47136
 C40 C 0.69873 0.00192 0.53699
 C41 C 0.74970 0.09485 0.42496
 C42 C 0.69653 0.08903 0.49144
 C43 C 0.84743 -0.00488 0.49104
 C44 C 0.79404 -0.00961 0.55935
 H45 H 0.73332 -0.09448 0.34506
 H46 H 0.65524 -0.00203 0.59204
 H47 H 0.75867 0.15328 0.38946
 H48 H 0.91666 -0.00644 0.49712
 C49 C 0.40472 0.19976 1.00537
 C50 C 0.41990 0.23900 1.08716
 C51 C 0.49251 0.29381 1.09372
 C52 C 0.54102 0.29634 1.01181
 C53 C 0.40153 0.26987 0.94651
 C54 C 0.47856 0.31898 0.94148
 C55 C 0.48427 0.15376 0.98763
 C56 C 0.56093 0.20609 0.99362
 H57 H 0.38141 0.22418 1.14172
 H58 H 0.59812 0.33854 1.01469
 H59 H 0.34810 0.27716 0.90173
 H60 H 0.48616 0.08573 0.97672
 C61 C 0.41083 0.79809 0.99725
 C62 C 0.42943 0.74339 0.92100
 C63 C 0.49807 0.69222 0.93150
 C64 C 0.54505 0.70166 1.01744
 C65 C 0.40424 0.73647 1.07080
 C66 C 0.47549 0.68840 1.08477
 C67 C 0.48946 0.84607 1.01407
 C68 C 0.56414 0.79192 1.02233
 H69 H 0.39434 0.74814 0.86082
 H70 H 0.60132 0.65873 1.02547
 H71 H 0.35264 0.74116 1.11585
 H72 H 0.49304 0.91470 1.00933
 B73 B 0.98509 1.07898 0.03473
 B74 B 1.04013 0.99377 0.07188
 B75 B 0.93298 0.99320 0.07357
 B76 B 0.89432 1.04327 -0.01535
 B77 B 0.98068 1.07311 -0.07186
 B78 B 1.07097 1.04273 -0.01826
 B79 B 0.98218 0.89823 -0.06368
 B80 B 0.92500 0.98403 -0.09987
 B81 B 1.03438 0.98494 -0.10305
 B82 B 1.07160 0.93632 -0.01309
 B83 B 0.98649 0.90426 0.04407
 B84 B 0.89567 0.93462 -0.00883
 B85 B 0.60577 0.51111 0.46128
 B86 B 0.51778 0.56513 0.42590
 B87 B 0.51723 0.45824 0.42550
 B88 B 0.57012 0.42435 0.51529
 B89 B 0.60597 0.51238 0.56867
 B90 B 0.57228 0.59906 0.51440
 B91 B 0.42926 0.51422 0.56515
 B92 B 0.51765 0.45885 0.60194
 B93 B 0.51865 0.56606 0.60079
 B94 B 0.46433 0.60105 0.51288
 B95 B 0.42897 0.51357 0.45827
 B96 B 0.46210 0.42554 0.51335
 N97 N 0.93298 1.27000 0.17125
 C98 C 0.98804 1.33074 0.14403
 N99 N 1.04429 1.30967 0.08278
 N100 N 1.04401 1.23147 0.04988
 C101 C 0.98883 1.17082 0.07762
 N102 N 0.93304 1.19217 0.13854
 N103 N 1.06765 0.69213 0.13115
 C104 C 0.99611 0.65654 0.16349
 N105 N 0.92270 0.70319 0.16406
 N106 N 0.92049 0.78168 0.13142
 C107 C 0.99187 0.81726 0.09800
 N108 N 1.06541 0.77058 0.09887
 N109 N 0.93771 1.30253 -0.11746
 C110 C 1.01307 1.32744 -0.15139
 N111 N 1.07160 1.26630 -0.17022
 N112 N 1.05770 1.18519 -0.15272
 C113 C 0.98314 1.16069 -0.11823
 N114 N 0.92376 1.22097 -0.10017
 N115 N 1.01295 0.71277 -0.21858
 C116 C 0.99063 0.64412 -0.17090
 N117 N 0.96329 0.65795 -0.09082
 N118 N 0.95853 0.73662 -0.05996
 C119 C 0.98205 0.80528 -0.10651
 N120 N 1.00966 0.79159 -0.18681
 N121 N 1.15334 0.92696 0.27600
 C122 C 1.14880 0.99787 0.32510
 N123 N 1.11205 1.06871 0.29098
 N124 N 1.08196 1.06857 0.21110
 C125 C 1.08854 0.99817 0.16151
 N126 N 1.12282 0.92679 0.19644
 N127 N 1.20077 0.96958 -0.28061
 C128 C 1.15545 0.99773 -0.35002
 N129 N 1.07226 1.02013 -0.33991
 N130 N 1.03618 1.01536 -0.26394
 C131 C 1.08052 0.98655 -0.19442
 N132 N 1.16394 0.96381 -0.20457
 N133 N 0.80985 1.06649 0.26173
 C134 C 0.84493 1.01919 0.32600
 N135 N 0.90145 0.95724 0.30676
 N136 N 0.92544 0.94681 0.22692
 C137 C 0.89233 0.99604 0.16328
 N138 N 0.83381 1.05596 0.18199
 N139 N 0.81472 1.05598 -0.30175
 C140 C 0.82326 0.98678 -0.35235
 N141 N 0.85329 0.91332 -0.31823
 N142 N 0.87810 0.91057 -0.23677
 C143 C 0.87306 0.98064 -0.18658
 N144 N 0.84046 1.05335 -0.22058
 N145 N 1.29637 1.11751 -0.07440
 C146 C 1.32525 1.15167 0.00055
 N147 N 1.27009 1.15329 0.06654
 N148 N 1.19106 1.12264 0.05881
 C149 C 1.16169 1.09024 -0.01597
 N150 N 1.21668 1.08665 -0.08202
 N151 N 0.65611 1.09639 -0.05548
 C152 C 0.64464 1.17156 -0.01452
 N153 N 0.71517 1.20977 0.02104
 N154 N 0.79224 1.17194 0.01970
 C155 C 0.80322 1.09538 -0.01936
 N156 N 0.73353 1.06044 -0.05938
 N157 N 1.26829 0.81379 -0.07068
 C158 C 1.32796 0.84413 -0.01386
 N159 N 1.30289 0.89941 0.04644
 N160 N 1.22194 0.92515 0.04764
 C161 C 1.16261 0.89525 -0.00938
 N162 N 1.18731 0.83962 -0.06940
 N163 N 0.66642 0.89943 0.05367
 C164 C 0.64753 0.82242 0.02052
 N165 N 0.71073 0.77708 -0.01747
 N166 N 0.78877 0.81014 -0.02664
 C167 C 0.80679 0.88858 0.00453
 N168 N 0.74512 0.93043 0.04772
 N169 N 0.83136 0.44020 0.41180
 C170 C 0.86434 0.50619 0.36732
 N171 N 0.81280 0.57396 0.35021
 N172 N 0.73218 0.57554 0.37755
 C173 C 0.69864 0.50824 0.41987
 N174 N 0.75089 0.44152 0.43805
 N175 N 0.19477 0.55927 0.39345
 C176 C 0.18103 0.50235 0.32961
 N177 N 0.24834 0.45439 0.30398
 N178 N 0.32505 0.46033 0.34185
 C179 C 0.33850 0.51433 0.40762
 N180 N 0.27214 0.56508 0.43151
 N181 N 0.81131 0.42655 0.65520
 C182 C 0.86773 0.49231 0.65235
 N183 N 0.83675 0.57011 0.62965
 N184 N 0.75336 0.57929 0.60887
 C185 C 0.69767 0.51226 0.61356
 N186 N 0.72900 0.43613 0.63677
 N187 N 0.20812 0.58071 0.64436
 C188 C 0.17637 0.50434 0.66860
 N189 N 0.22585 0.43407 0.65870
 N190 N 0.30397 0.43871 0.62834
 C191 C 0.33805 0.51431 0.60808
 N192 N 0.28786 0.58524 0.61446
 N193 N 0.56953 0.63641 0.20202
 C194 C 0.48977 0.65309 0.17012
 N195 N 0.42226 0.64857 0.22274
 N196 N 0.43312 0.62682 0.30345
 C197 C 0.51197 0.60907 0.33579
 N198 N 0.58015 0.61351 0.28333
 N199 N 0.45487 0.59675 0.82442
 C200 C 0.52076 0.64074 0.85982
 N201 N 0.58651 0.66530 0.81002
 N202 N 0.58623 0.64516 0.72758
 C203 C 0.51735 0.60517 0.69171
 N204 N 0.45322 0.57965 0.74229
 N205 N 0.56846 0.39360 0.19221
 C206 C 0.50785 0.33318 0.17542
 N207 N 0.45595 0.31090 0.24078
 N208 N 0.46104 0.34728 0.31709
 C209 C 0.51862 0.40940 0.33342
 N210 N 0.57346 0.43062 0.26952
 N211 N 0.57056 0.39004 0.83530
 C212 C 0.49455 0.35527 0.85917
 N213 N 0.43148 0.34925 0.79815
 N214 N 0.44178 0.37616 0.71895
 C215 C 0.51611 0.41149 0.69463
 N216 N 0.58040 0.41863 0.75519
 N217 N 0.62941 0.82766 0.56373
 C218 C 0.65341 0.85512 0.48582
 N219 N 0.65865 0.79749 0.42194
 N220 N 0.64047 0.71649 0.43412
 C221 C 0.61677 0.68845 0.51105
 N222 N 0.61000 0.74583 0.57557
 N223 N 0.66308 0.21043 0.58152
 C224 C 0.64632 0.16389 0.51031
 N225 N 0.60941 0.20257 0.44212
 N226 N 0.59139 0.28455 0.44382
 C227 C 0.60936 0.33216 0.51342
 N228 N 0.64214 0.29275 0.58392
 N229 N 0.35521 0.81063 0.57823
 C230 C 0.36770 0.86036 0.50868
 N231 N 0.40999 0.82601 0.44224
 N232 N 0.43716 0.74592 0.44399
 C233 C 0.42248 0.69495 0.51160
 N234 N 0.38397 0.73024 0.58036
 N235 N 0.30410 0.24760 0.46040
 C236 C 0.33426 0.17982 0.50610
 N237 N 0.40256 0.19251 0.55946
 N238 N 0.43997 0.26911 0.56395
 C239 C 0.41135 0.33596 0.51544
 N240 N 0.34144 0.32357 0.46484
   
