data_POSCAR
  _audit_creation_date              2014-09-24
  _audit_creation_method            'ToBaCCo'
  _symmetry_space_group_name_H-M    'P1'
  _symmetry_Int_Tables_number       1
  _symmetry_cell_setting            triclinic
  loop_
  _symmetry_equiv_pos_as_xyz
 x,y,z
_cell_length_a 25.1827
_cell_length_b 15.6805
_cell_length_c 15.6810
_cell_angle_alpha 89.763000
_cell_angle_beta 90.160400
_cell_angle_gamma 89.840900
loop_
  _atom_site_label
  _atom_site_type_symbol
  _atom_site_fract_x
  _atom_site_fract_y
  _atom_site_fract_z
O1 O 0.07484 0.14488 0.15873
 O2 O 0.13342 0.06903 0.07623
 C3 C 0.12239 0.12295 0.13596
 O4 O -0.07367 -0.15902 0.14735
 O5 O -0.13236 -0.07576 0.07112
 C6 C -0.12131 -0.13584 0.12525
 O7 O 0.07540 -0.15206 0.15626
 O8 O 0.13365 -0.07453 0.07484
 C9 C 0.12297 -0.12984 0.13386
 O10 O -0.07407 0.15283 0.15016
 O11 O -0.13254 0.07187 0.07239
 C12 C -0.12166 0.13055 0.12759
 Zr13 Zr 0.00058 0.10494 0.10952
 O14 O -0.00532 0.10306 0.24418
 O15 O 0.00648 0.23963 0.10987
 Zr16 Zr 0.00096 -0.11044 0.10772
 O17 O -0.00492 -0.11172 0.24238
 O18 O 0.00710 -0.24512 0.10617
 O19 O 0.04828 -0.00301 0.12530
 O20 O -0.04536 -0.00290 0.12431
 O21 O -0.07373 0.15738 -0.14629
 O22 O -0.13190 0.07437 -0.07030
 C23 C -0.12117 0.13447 -0.12432
 O24 O 0.07457 -0.14785 -0.15705
 O25 O 0.13329 -0.07232 -0.07445
 C26 C 0.12216 -0.12603 -0.13434
 O27 O -0.07427 -0.15542 -0.14833
 O28 O -0.13263 -0.07428 -0.07050
 C29 C -0.12183 -0.13292 -0.12580
 O30 O 0.07454 0.14904 -0.15427
 O31 O 0.13327 0.07117 -0.07292
 C32 C 0.12218 0.12656 -0.13185
 Zr33 Zr 0.00041 0.10752 -0.10592
 O34 O -0.00593 0.10780 -0.24061
 O35 O 0.00637 0.24217 -0.10458
 Zr36 Zr 0.00042 -0.10788 -0.10761
 O37 O -0.00601 -0.10629 -0.24225
 O38 O 0.00660 -0.24258 -0.10763
 Zr39 Zr 0.08011 -0.00159 0.00094
 Zr40 Zr -0.07850 -0.00132 0.00098
 O41 O -0.04581 0.00014 -0.12235
 O42 O 0.04786 -0.00009 -0.12343
 O43 O -0.04691 0.12306 0.00191
 O44 O 0.04700 -0.12475 -0.00012
 O45 O 0.04674 0.12168 0.00199
 O46 O -0.04667 -0.12585 -0.00003
 H47 H -0.06933 -0.00347 0.17430
 H48 H 0.07101 -0.17491 -0.00055
 H49 H -0.06993 0.00079 -0.17237
 H50 H 0.07062 0.17179 0.00242
 H51 H -0.02273 -0.26698 0.07152
 H52 H -0.02348 -0.26524 -0.07414
 H53 H 0.02317 -0.07051 -0.26445
 H54 H 0.02436 0.07467 -0.26321
 H55 H -0.02282 0.26416 -0.06874
 H56 H -0.02379 0.26249 0.07650
 H57 H 0.02428 0.06772 0.26632
 H58 H 0.02482 -0.07749 0.26509
 O59 O 0.57409 0.65009 0.65360
 O60 O 0.63251 0.57284 0.57282
 C61 C 0.62191 0.62803 0.63177
 O62 O 0.42583 0.34565 0.64904
 O63 O 0.36727 0.42691 0.57134
 C64 C 0.37797 0.36777 0.62686
 O65 O 0.57444 0.35377 0.65722
 O66 O 0.63264 0.42956 0.57450
 C67 C 0.62217 0.37538 0.63474
 O68 O 0.42549 0.65817 0.64495
 O69 O 0.36711 0.57578 0.56927
 C70 C 0.37771 0.63571 0.62335
 Zr71 Zr 0.49980 0.60912 0.60501
 O72 O 0.49383 0.61003 0.73967
 O73 O 0.50570 0.74379 0.60259
 Zr74 Zr 0.50005 0.39400 0.60776
 O75 O 0.49409 0.39548 0.74241
 O76 O 0.50634 0.25930 0.60881
 O77 O 0.54742 0.50165 0.62330
 O78 O 0.45367 0.50174 0.62195
 O79 O 0.42499 0.65578 0.34838
 O80 O 0.36692 0.57447 0.42591
 C81 C 0.37724 0.63363 0.37044
 O82 O 0.57425 0.35087 0.34465
 O83 O 0.63260 0.42811 0.42560
 C84 C 0.62205 0.37281 0.36673
 O85 O 0.42569 0.34291 0.35279
 O86 O 0.36722 0.42550 0.42808
 C87 C 0.37789 0.36535 0.37428
 O88 O 0.57384 0.64744 0.34083
 O89 O 0.63230 0.57146 0.42391
 C90 C 0.62166 0.62567 0.36361
 Zr91 Zr 0.49954 0.60733 0.38991
 O92 O 0.49335 0.60575 0.25524
 O93 O 0.50541 0.74201 0.38884
 Zr94 Zr 0.49992 0.39223 0.39265
 O95 O 0.49365 0.39207 0.25795
 O96 O 0.50622 0.25755 0.39433
 Zr97 Zr 0.57926 0.50057 0.49904
 Zr98 Zr 0.42039 0.50069 0.49871
 O99 O 0.45341 0.49964 0.37557
 O100 O 0.54722 0.49960 0.37461
 O101 O 0.45213 0.62503 0.49718
 O102 O 0.54627 0.37741 0.50052
 O103 O 0.54594 0.62381 0.49736
 O104 O 0.45252 0.37633 0.50031
 H105 H 0.42978 0.50217 0.67205
 H106 H 0.57029 0.32725 0.50120
 H107 H 0.42937 0.49918 0.32544
 H108 H 0.56985 0.67389 0.49683
 H109 H 0.47632 0.23660 0.57512
 H110 H 0.47691 0.23539 0.42985
 H111 H 0.52371 0.42555 0.23520
 H112 H 0.52314 0.57103 0.23334
 H113 H 0.47549 0.76471 0.42266
 H114 H 0.47570 0.76592 0.56813
 H115 H 0.52355 0.57547 0.76263
 H116 H 0.52379 0.43019 0.76448
 C117 C 0.24672 0.23690 0.25624
 C118 C 0.29881 0.21495 0.23448
 C119 C 0.34157 0.25625 0.27325
 C120 C 0.16602 0.16228 0.17912
 C121 C 0.28010 0.34133 0.35621
 C122 C 0.23744 0.29990 0.31733
 C123 C 0.20279 0.19595 0.21467
 C124 C 0.33271 0.32026 0.33431
 H125 H 0.30637 0.16628 0.18715
 H126 H 0.38150 0.23839 0.25495
 H127 H 0.27179 0.39012 0.40304
 H128 H 0.19722 0.31737 0.33454
 C129 C 0.75364 0.74403 0.23742
 C130 C 0.76248 0.68180 0.30002
 C131 C 0.71955 0.64285 0.34059
 C132 C 0.83496 0.82098 0.16431
 C133 C 0.65860 0.72792 0.25543
 C134 C 0.70166 0.76681 0.21497
 C135 C 0.79792 0.78554 0.19735
 C136 C 0.66705 0.66575 0.31906
 H137 H 0.80257 0.66375 0.31787
 H138 H 0.72758 0.59513 0.38910
 H139 H 0.61877 0.74703 0.23727
 H140 H 0.69443 0.81501 0.16657
 C141 C 0.75392 0.25587 0.76245
 C142 C 0.76291 0.31764 0.69959
 C143 C 0.72005 0.35704 0.65847
 C144 C 0.83501 0.17792 0.83648
 C145 C 0.65897 0.27329 0.74363
 C146 C 0.70193 0.23398 0.78463
 C147 C 0.79805 0.21381 0.80306
 C148 C 0.66754 0.33500 0.67973
 H149 H 0.80304 0.33497 0.68197
 H150 H 0.72814 0.40437 0.60975
 H151 H 0.61912 0.25485 0.76161
 H152 H 0.69460 0.18614 0.83321
 C153 C 0.24640 0.76189 0.74347
 C154 C 0.23716 0.69935 0.68190
 C155 C 0.27986 0.65877 0.64222
 C156 C 0.16572 0.83504 0.82200
 C157 C 0.34127 0.74388 0.72526
 C158 C 0.29847 0.78433 0.76484
 C159 C 0.20247 0.80196 0.78586
 C160 C 0.33246 0.68027 0.66378
 H161 H 0.19696 0.68154 0.66497
 H162 H 0.27160 0.61025 0.59509
 H163 H 0.38118 0.76204 0.74334
 H164 H 0.30599 0.83268 0.81250
 C165 C 0.24663 0.24153 0.74797
 C166 C 0.29880 0.21991 0.77040
 C167 C 0.34157 0.26054 0.73077
 C168 C 0.16584 0.16668 0.82535
 C169 C 0.28004 0.34448 0.64566
 C170 C 0.23737 0.30372 0.68539
 C171 C 0.20263 0.20062 0.78984
 C172 C 0.33272 0.32359 0.66808
 H173 H 0.30643 0.17186 0.81879
 H174 H 0.38152 0.24281 0.74960
 H175 H 0.27169 0.39253 0.59763
 H176 H 0.19715 0.32098 0.66752
 C177 C 0.75339 0.74800 0.75890
 C178 C 0.70125 0.77043 0.78003
 C179 C 0.65844 0.73120 0.73907
 C180 C 0.83433 0.82468 0.83415
 C181 C 0.71987 0.64650 0.65578
 C182 C 0.76258 0.68583 0.69687
 C183 C 0.79744 0.78950 0.80009
 C184 C 0.66722 0.66891 0.67619
 H185 H 0.69368 0.81852 0.82794
 H186 H 0.61851 0.75000 0.75644
 H187 H 0.72816 0.59876 0.60788
 H188 H 0.80278 0.66797 0.67998
 C189 C 0.24459 0.75929 0.24971
 C190 C 0.23602 0.69723 0.31250
 C191 C 0.27912 0.65672 0.35204
 C192 C 0.16290 0.83370 0.17270
 C193 C 0.33977 0.74061 0.26637
 C194 C 0.29654 0.78102 0.22691
 C195 C 0.20009 0.79994 0.20806
 C196 C 0.33159 0.67770 0.32927
 H197 H 0.19599 0.67988 0.33069
 H198 H 0.27125 0.60877 0.40025
 H199 H 0.37953 0.75840 0.24727
 H200 H 0.30366 0.82897 0.17835
 C201 C 0.75361 0.25116 0.24148
 C202 C 0.76276 0.31354 0.30333
 C203 C 0.72002 0.35348 0.34374
 C204 C 0.83454 0.17341 0.16731
 C205 C 0.65864 0.26900 0.26013
 C206 C 0.70148 0.22917 0.21984
 C207 C 0.79767 0.20906 0.20094
 C208 C 0.66739 0.33147 0.32284
 H209 H 0.80296 0.33108 0.32059
 H210 H 0.72829 0.40133 0.39155
 H211 H 0.61873 0.25049 0.24240
 H212 H 0.69393 0.18094 0.17206
   
