data_POSCAR
  _audit_creation_date              2014-09-24
  _audit_creation_method            'ToBaCCo'
  _symmetry_space_group_name_H-M    'P1'
  _symmetry_Int_Tables_number       1
  _symmetry_cell_setting            triclinic
  loop_
  _symmetry_equiv_pos_as_xyz
 x,y,z
_cell_length_a 35.6623
_cell_length_b 33.7061
_cell_length_c 33.7092
_cell_angle_alpha 89.909700
_cell_angle_beta 90.021600
_cell_angle_gamma 89.978600
loop_
  _atom_site_label
  _atom_site_type_symbol
  _atom_site_fract_x
  _atom_site_fract_y
  _atom_site_fract_z
C1 C 0.30681 0.30439 0.23473
 H2 H 0.30828 0.30528 0.26677
 C3 C 0.33110 0.32771 0.21210
 H4 H 0.35113 0.34660 0.22710
 C5 C 0.27905 0.27818 0.17654
 H6 H 0.25914 0.25840 0.16276
 C7 C 0.30282 0.30096 0.15276
 H8 H 0.30053 0.29865 0.12082
 N9 N 0.28111 0.28066 0.21675
 C10 C 0.19244 0.26480 0.30449
 H11 H 0.19091 0.23275 0.30545
 C12 C 0.16828 0.28748 0.32785
 H13 H 0.14828 0.27253 0.34684
 C14 C 0.22026 0.32292 0.27806
 H15 H 0.24014 0.33667 0.25820
 C16 C 0.19661 0.34676 0.30088
 H17 H 0.19897 0.37870 0.29851
 Zn18 Zn 0.24957 0.24970 0.24972
 N19 N 0.21812 0.28271 0.28064
 C20 C 0.27900 0.22130 0.32296
 N21 N 0.28104 0.21869 0.28275
 C22 C 0.30671 0.19485 0.26486
 C23 C 0.33100 0.17157 0.28757
 C24 C 0.30277 0.19856 0.34682
 C25 C 0.19240 0.23479 0.19491
 C26 C 0.16814 0.21219 0.17158
 C27 C 0.19635 0.15282 0.19854
 C28 C 0.22010 0.17657 0.22133
 N29 N 0.21806 0.21679 0.21875
 H30 H 0.25912 0.24116 0.33668
 H31 H 0.30817 0.19387 0.23282
 H32 H 0.35101 0.15261 0.27264
 H33 H 0.30051 0.20098 0.37875
 H34 H 0.19095 0.26684 0.19394
 H35 H 0.14815 0.22722 0.15261
 H36 H 0.19862 0.12087 0.20094
 H37 H 0.23997 0.16276 0.24119
 C38 C 0.17027 0.32909 0.32637
 C39 C 0.32920 0.32632 0.17049
 C40 C 0.17001 0.17058 0.17308
 C41 C 0.32914 0.17312 0.32918
 C42 C 0.80749 0.80559 0.23398
 H43 H 0.80899 0.80657 0.26603
 C44 C 0.83165 0.82900 0.21128
 H45 H 0.85152 0.84795 0.22643
 C46 C 0.77979 0.77908 0.17595
 H47 H 0.75995 0.75915 0.16226
 C48 C 0.80340 0.80191 0.15204
 H49 H 0.80090 0.79931 0.12013
 N50 N 0.78189 0.78169 0.21613
 C51 C 0.69329 0.76562 0.30394
 H52 H 0.69184 0.73357 0.30488
 C53 C 0.66907 0.78822 0.32732
 H54 H 0.64911 0.77320 0.34630
 C55 C 0.72097 0.82384 0.27756
 H56 H 0.74082 0.83766 0.25771
 C57 C 0.69726 0.84760 0.30040
 H58 H 0.69955 0.87955 0.29805
 Zn59 Zn 0.75048 0.75069 0.24921
 N60 N 0.71893 0.78363 0.28011
 C61 C 0.77990 0.72239 0.32249
 N62 N 0.78202 0.71980 0.28229
 C63 C 0.80771 0.69596 0.26445
 C64 C 0.83189 0.67258 0.28720
 C65 C 0.80355 0.69956 0.34639
 C66 C 0.69332 0.73544 0.19447
 C67 C 0.66910 0.71268 0.17124
 C68 C 0.69749 0.65348 0.19839
 C69 C 0.72118 0.67739 0.22107
 N70 N 0.71903 0.71759 0.21835
 H71 H 0.76000 0.74225 0.33617
 H72 H 0.80924 0.69499 0.23241
 H73 H 0.85189 0.65358 0.27231
 H74 H 0.80119 0.70193 0.37832
 H75 H 0.69177 0.76748 0.19340
 H76 H 0.64905 0.72758 0.15223
 H77 H 0.69984 0.62155 0.20089
 H78 H 0.74110 0.66370 0.24097
 C79 C 0.67097 0.82984 0.32588
 C80 C 0.82979 0.82758 0.16956
 C81 C 0.67108 0.67107 0.17289
 C82 C 0.82989 0.67405 0.32880
 C83 C 0.80793 0.30385 0.73576
 H84 H 0.80947 0.30482 0.76780
 C85 C 0.83209 0.32722 0.71302
 H86 H 0.85209 0.34622 0.72792
 C87 C 0.78010 0.27743 0.67771
 H88 H 0.76021 0.25757 0.66402
 C89 C 0.80373 0.30026 0.65382
 H90 H 0.80136 0.29789 0.62189
 N91 N 0.78225 0.28001 0.71791
 C92 C 0.69361 0.26435 0.80573
 H93 H 0.69210 0.23231 0.80680
 C94 C 0.66937 0.28710 0.82895
 H95 H 0.64935 0.27219 0.84795
 C96 C 0.72141 0.32241 0.77914
 H97 H 0.74130 0.33611 0.75925
 C98 C 0.69769 0.34631 0.80182
 H99 H 0.70001 0.37824 0.79931
 Zn100 Zn 0.75074 0.24912 0.75098
 N101 N 0.71930 0.28221 0.78185
 C102 C 0.78016 0.22072 0.82421
 N103 N 0.78220 0.21810 0.78404
 C104 C 0.80779 0.19420 0.76619
 C105 C 0.83200 0.17080 0.78887
 C106 C 0.80381 0.19790 0.84813
 C107 C 0.69352 0.23423 0.69625
 C108 C 0.66928 0.21165 0.67288
 C109 C 0.69750 0.15225 0.69977
 C110 C 0.72123 0.17598 0.72261
 N111 N 0.71918 0.21620 0.72007
 H112 H 0.76032 0.24065 0.83790
 H113 H 0.80924 0.19323 0.73415
 H114 H 0.85180 0.15191 0.77350
 H115 H 0.80119 0.20067 0.88002
 H116 H 0.69207 0.26628 0.69532
 H117 H 0.64930 0.22670 0.65391
 H118 H 0.69979 0.12030 0.70211
 H119 H 0.74111 0.16215 0.74244
 C120 C 0.67131 0.32870 0.82730
 C121 C 0.83007 0.32576 0.67142
 C122 C 0.67118 0.17004 0.67431
 C123 C 0.83029 0.17213 0.83068
 C124 C 0.30677 0.80518 0.73509
 H125 H 0.30823 0.80614 0.76714
 C126 C 0.33105 0.82845 0.71241
 H127 H 0.35107 0.84739 0.72737
 C128 C 0.27905 0.77878 0.67697
 H129 H 0.25917 0.75895 0.66323
 C130 C 0.30281 0.80152 0.65313
 H131 H 0.30055 0.79911 0.62120
 N132 N 0.28110 0.78137 0.71717
 C133 C 0.19246 0.76540 0.80496
 H134 H 0.19101 0.73335 0.80597
 C135 C 0.16818 0.78806 0.82822
 H136 H 0.14819 0.77307 0.84719
 C137 C 0.22015 0.82357 0.77847
 H138 H 0.24002 0.83734 0.75861
 C139 C 0.19639 0.84737 0.80119
 H140 H 0.19865 0.87931 0.79874
 Zn141 Zn 0.24963 0.75039 0.75020
 N142 N 0.21811 0.78335 0.78111
 C143 C 0.27910 0.72189 0.82340
 N144 N 0.28117 0.71943 0.78320
 C145 C 0.30688 0.69569 0.76524
 C146 C 0.33117 0.67234 0.78787
 C147 C 0.30287 0.69907 0.84720
 C148 C 0.19250 0.73526 0.69538
 C149 C 0.16833 0.71255 0.67205
 C150 C 0.19668 0.65330 0.69914
 C151 C 0.22033 0.67716 0.72193
 N152 N 0.21818 0.71737 0.71928
 H153 H 0.25918 0.74166 0.83718
 H154 H 0.30836 0.69483 0.73319
 H155 H 0.35119 0.65344 0.77288
 H156 H 0.30057 0.70135 0.87914
 H157 H 0.19096 0.76731 0.69436
 H158 H 0.14832 0.72748 0.65303
 H159 H 0.19904 0.62137 0.70158
 H160 H 0.24021 0.66344 0.74183
 C161 C 0.17004 0.82967 0.82665
 C162 C 0.32919 0.82693 0.67080
 C163 C 0.17033 0.67094 0.67361
 C164 C 0.32925 0.67370 0.82948
 Si165 Si -0.00111 0.00030 -0.00034
 Si166 Si -0.00002 0.49990 0.50014
 Si167 Si 0.50054 0.00003 0.50011
 Si168 Si 0.50035 0.49986 -0.00000
 C169 C 0.09878 -0.10032 -0.10315
 N170 N 0.09694 -0.14051 -0.10147
 N171 N 0.11949 -0.16271 -0.12381
 C172 C 0.14476 -0.14563 -0.14870
 N173 N 0.14648 -0.10538 -0.15032
 N174 N 0.12395 -0.08316 -0.12800
 C175 C 0.07414 -0.07582 -0.07831
 N176 N 0.07610 -0.03562 -0.07992
 N177 N 0.05394 -0.01339 -0.05718
 C178 C 0.02907 -0.03059 -0.03209
 N179 N 0.02704 -0.07072 -0.03042
 N180 N 0.04919 -0.09297 -0.05315
 C181 C 0.09950 0.39918 0.39704
 N182 N 0.09755 0.35901 0.39863
 N183 N 0.11993 0.33678 0.37615
 C184 C 0.14516 0.35383 0.35118
 N185 N 0.14700 0.39407 0.34964
 N186 N 0.12462 0.41632 0.37211
 C187 C 0.07502 0.42371 0.42201
 N188 N 0.07705 0.46391 0.42044
 N189 N 0.05498 0.48617 0.44325
 C190 C 0.03014 0.46899 0.46839
 N191 N 0.02805 0.42885 0.47004
 N192 N 0.05011 0.40658 0.44723
 C193 C 0.60010 -0.10034 0.39670
 N194 N 0.59819 -0.14053 0.39820
 N195 N 0.62061 -0.16267 0.37566
 C196 C 0.64581 -0.14552 0.35073
 N197 N 0.64760 -0.10527 0.34929
 N198 N 0.62519 -0.08311 0.37182
 C199 C 0.57559 -0.07591 0.42174
 N200 N 0.57760 -0.03570 0.42029
 N201 N 0.55553 -0.01353 0.44318
 C202 C 0.53070 -0.03079 0.46827
 N203 N 0.52862 -0.07093 0.46979
 N204 N 0.55069 -0.09312 0.44691
 C205 C 0.60015 0.39898 -0.10264
 N206 N 0.59826 0.35880 -0.10088
 N207 N 0.62077 0.33652 -0.12317
 C208 C 0.64607 0.35351 -0.14810
 N209 N 0.64785 0.39375 -0.14980
 N210 N 0.62535 0.41605 -0.12752
 C211 C 0.57554 0.42355 -0.07785
 N212 N 0.57754 0.46376 -0.07953
 N213 N 0.55540 0.48605 -0.05684
 C214 C 0.53051 0.46892 -0.03171
 N215 N 0.52845 0.42879 -0.02997
 N216 N 0.55058 0.40647 -0.05267
 C217 C -0.10080 0.10354 -0.10116
 N218 N -0.12601 0.12834 -0.08408
 N219 N -0.14846 0.15078 -0.10635
 C220 C -0.14671 0.14945 -0.14668
 N221 N -0.12129 0.12452 -0.16357
 N222 N -0.09883 0.10205 -0.14132
 C223 C -0.07624 0.07857 -0.07661
 N224 N -0.05128 0.05343 -0.09370
 N225 N -0.02918 0.03059 -0.07141
 C226 C -0.03127 0.03215 -0.03128
 N227 N -0.05617 0.05722 -0.01413
 N228 N -0.07827 0.08006 -0.03641
 C229 C -0.09944 0.60322 0.39912
 N230 N -0.12456 0.62816 0.41617
 N231 N -0.14690 0.65069 0.39386
 C232 C -0.14502 0.64920 0.35362
 N233 N -0.11979 0.62421 0.33665
 N234 N -0.09744 0.60166 0.35895
 C235 C -0.07499 0.57818 0.42372
 N236 N -0.05007 0.55295 0.40668
 N237 N -0.02805 0.53009 0.42902
 C238 C -0.03018 0.53168 0.46914
 N239 N -0.05504 0.55683 0.48624
 N240 N -0.07707 0.57970 0.46392
 C241 C 0.40055 0.10296 0.39934
 N242 N 0.37533 0.12777 0.41645
 N243 N 0.35275 0.15008 0.39418
 C244 C 0.35447 0.14848 0.35394
 N245 N 0.37978 0.12363 0.33692
 N246 N 0.40237 0.10131 0.35917
 C247 C 0.42523 0.07813 0.42389
 N248 N 0.45021 0.05301 0.40678
 N249 N 0.47239 0.03026 0.42906
 C250 C 0.47037 0.03187 0.46919
 N251 N 0.44547 0.05693 0.48636
 N252 N 0.42328 0.07969 0.46409
 C253 C 0.40046 0.60308 -0.10059
 N254 N 0.37530 0.62789 -0.08341
 N255 N 0.35278 0.65035 -0.10560
 C256 C 0.35452 0.64891 -0.14584
 N257 N 0.37979 0.62406 -0.16294
 N258 N 0.40231 0.60159 -0.14077
 C259 C 0.42508 0.57811 -0.07612
 N260 N 0.45002 0.55298 -0.09328
 N261 N 0.47217 0.53015 -0.07104
 C262 C 0.47014 0.53168 -0.03090
 N263 N 0.44527 0.55674 -0.01370
 N264 N 0.42312 0.57957 -0.03592
 C265 C -0.10062 -0.10293 0.10053
 N266 N -0.12582 -0.12775 0.08345
 N267 N -0.14821 -0.15022 0.10573
 C268 C -0.14636 -0.14883 0.14602
 N269 N -0.12100 -0.12392 0.16295
 N270 N -0.09860 -0.10144 0.14069
 C271 C -0.07613 -0.07794 0.07596
 N272 N -0.05116 -0.05280 0.09304
 N273 N -0.02911 -0.02996 0.07074
 C274 C -0.03124 -0.03151 0.03061
 N275 N -0.05614 -0.05659 0.01348
 N276 N -0.07821 -0.07942 0.03576
 C277 C -0.09931 0.39656 0.60113
 N278 N -0.12442 0.37162 0.58407
 N279 N -0.14675 0.34910 0.60637
 C280 C -0.14486 0.35060 0.64661
 N281 N -0.11963 0.37559 0.66359
 N282 N -0.09730 0.39812 0.64130
 C283 C -0.07488 0.42160 0.57653
 N284 N -0.04997 0.44682 0.59358
 N285 N -0.02797 0.46969 0.57125
 C286 C -0.03012 0.46809 0.53113
 N287 N -0.05496 0.44294 0.51402
 N288 N -0.07697 0.42007 0.53634
 C289 C 0.40056 -0.10289 0.60074
 N290 N 0.37535 -0.12767 0.58360
 N291 N 0.35278 -0.14999 0.60583
 C292 C 0.35450 -0.14842 0.64607
 N293 N 0.37981 -0.12360 0.66313
 N294 N 0.40239 -0.10127 0.64091
 C295 C 0.42523 -0.07805 0.57623
 N296 N 0.45021 -0.05296 0.59337
 N297 N 0.47238 -0.03020 0.57112
 C298 C 0.47036 -0.03179 0.53098
 N299 N 0.44546 -0.05682 0.51379
 N300 N 0.42328 -0.07958 0.53603
 C301 C 0.40046 0.39678 0.10057
 N302 N 0.37529 0.37199 0.08338
 N303 N 0.35276 0.34958 0.10557
 C304 C 0.35449 0.35106 0.14582
 N305 N 0.37976 0.37589 0.16292
 N306 N 0.40230 0.39831 0.14075
 C307 C 0.42509 0.42170 0.07610
 N308 N 0.45004 0.44682 0.09326
 N309 N 0.47218 0.46962 0.07103
 C310 C 0.47016 0.46806 0.03089
 N311 N 0.44529 0.44300 0.01368
 N312 N 0.42314 0.42020 0.03590
 C313 C 0.09880 0.10073 0.10265
 N314 N 0.09695 0.14092 0.10104
 N315 N 0.11948 0.16306 0.12345
 C316 C 0.14475 0.14593 0.14835
 N317 N 0.14648 0.10568 0.14990
 N318 N 0.12396 0.08351 0.12751
 C319 C 0.07417 0.07629 0.07775
 N320 N 0.07613 0.03608 0.07931
 N321 N 0.05397 0.01389 0.05653
 C322 C 0.02909 0.03114 0.03144
 N323 N 0.02707 0.07128 0.02982
 N324 N 0.04922 0.09349 0.05259
 C325 C 0.09950 0.60075 0.60310
 N326 N 0.09753 0.64093 0.60144
 N327 N 0.11993 0.66319 0.62387
 C328 C 0.14519 0.64617 0.64886
 N329 N 0.14706 0.60593 0.65046
 N330 N 0.12466 0.58365 0.62804
 C331 C 0.07501 0.57619 0.57817
 N332 N 0.07707 0.53599 0.57979
 N333 N 0.05501 0.51370 0.55701
 C334 C 0.03012 0.53085 0.53186
 N335 N 0.02799 0.57098 0.53017
 N336 N 0.05005 0.59328 0.55295
 C337 C 0.60020 0.10029 0.60352
 N338 N 0.59831 0.14048 0.60202
 N339 N 0.62076 0.16259 0.62455
 C340 C 0.64598 0.14542 0.64947
 N341 N 0.64776 0.10517 0.65091
 N342 N 0.62532 0.08304 0.62840
 C343 C 0.57566 0.07589 0.57849
 N344 N 0.57765 0.03568 0.57994
 N345 N 0.55556 0.01353 0.55706
 C346 C 0.53071 0.03082 0.53196
 N347 N 0.52866 0.07096 0.53043
 N348 N 0.55074 0.09313 0.55332
 C349 C 0.60003 0.60077 0.10274
 N350 N 0.59808 0.64095 0.10099
 N351 N 0.62056 0.66324 0.12331
 C352 C 0.64587 0.64626 0.14826
 N353 N 0.64771 0.60602 0.14996
 N354 N 0.62523 0.58371 0.12765
 C355 C 0.57545 0.57618 0.07793
 N356 N 0.57749 0.53598 0.07961
 N357 N 0.55538 0.51368 0.05688
 C358 C 0.53048 0.53081 0.03173
 N359 N 0.52838 0.57094 0.02999
 N360 N 0.55048 0.59326 0.05271
   
