data_POSCAR
  _audit_creation_date              2014-09-24
  _audit_creation_method            'ToBaCCo'
  _symmetry_space_group_name_H-M    'P1'
  _symmetry_Int_Tables_number       1
  _symmetry_cell_setting            triclinic
  loop_
  _symmetry_equiv_pos_as_xyz
 x,y,z
_cell_length_a 52.7559
_cell_length_b 51.9111
_cell_length_c 52.7502
_cell_angle_alpha 89.935400
_cell_angle_beta 90.000100
_cell_angle_gamma 90.016100
loop_
  _atom_site_label
  _atom_site_type_symbol
  _atom_site_fract_x
  _atom_site_fract_y
  _atom_site_fract_z
N1 N 0.59669 0.66614 0.61402
 N2 N 0.58714 0.65599 0.63474
 C3 C 0.56653 0.66958 0.64165
 C4 C 0.56296 0.68938 0.62436
 C5 C 0.58255 0.68653 0.60707
 H6 H 0.55510 0.66546 0.65816
 H7 H 0.58620 0.69823 0.59052
 Cu8 Cu 0.60251 0.62599 0.65069
 Cu9 Cu 0.62669 0.65217 0.59753
 Cu10 Cu 0.65378 0.59795 0.62471
 N11 N 0.61761 0.59516 0.66530
 N12 N 0.63762 0.58432 0.65508
 C13 C 0.64410 0.56347 0.66879
 C14 C 0.62721 0.56093 0.68887
 C15 C 0.61064 0.58155 0.68590
 H16 H 0.65997 0.55116 0.66429
 H17 H 0.59464 0.58639 0.69773
 N18 N 0.66738 0.61458 0.59398
 N19 N 0.65709 0.63524 0.58366
 C20 C 0.67068 0.64199 0.56309
 C21 C 0.69052 0.62476 0.56024
 C22 C 0.68776 0.60764 0.58022
 H23 H 0.66630 0.65818 0.55097
 H24 H 0.69985 0.59145 0.58459
 H25 H 0.62142 0.61476 0.61001
 H26 H 0.64252 0.63575 0.62954
 N27 N 0.90493 0.33456 0.11246
 N28 N 0.91518 0.34539 0.13247
 C29 C 0.93576 0.33177 0.13942
 C30 C 0.93870 0.31118 0.12284
 C31 C 0.91861 0.31373 0.10596
 H32 H 0.94761 0.33659 0.15542
 H33 H 0.91409 0.30144 0.09009
 Cu34 Cu 0.90060 0.37620 0.14758
 Cu35 Cu 0.87458 0.34820 0.09631
 Cu36 Cu 0.84747 0.40239 0.12341
 N37 N 0.88469 0.40618 0.16297
 N38 N 0.86398 0.41633 0.15341
 C39 C 0.85707 0.43671 0.16755
 C40 C 0.87436 0.43956 0.18714
 C41 C 0.89163 0.41976 0.18358
 H42 H 0.84053 0.44842 0.16390
 H43 H 0.90813 0.41563 0.19500
 N44 N 0.83358 0.38548 0.09301
 N45 N 0.84386 0.36483 0.08272
 C46 C 0.83009 0.35791 0.06234
 C47 C 0.81014 0.37503 0.05958
 C48 C 0.81301 0.39225 0.07943
 H49 H 0.83445 0.34173 0.05025
 H50 H 0.80092 0.40843 0.08380
 H51 H 0.87946 0.38599 0.10758
 H52 H 0.85991 0.36498 0.12869
 N53 N 0.40369 0.16586 -0.11335
 N54 N 0.41354 0.15540 -0.13376
 C55 C 0.43412 0.16902 -0.14074
 C56 C 0.43740 0.18914 -0.12378
 C57 C 0.41766 0.18645 -0.10664
 H58 H 0.44594 0.16449 -0.15685
 H59 H 0.41355 0.19863 -0.09056
 Cu60 Cu 0.39847 0.12498 -0.14913
 Cu61 Cu 0.37349 0.15207 -0.09697
 Cu62 Cu 0.34635 0.09781 -0.12403
 N63 N 0.38305 0.09455 -0.16416
 N64 N 0.36270 0.08401 -0.15421
 C65 C 0.35601 0.06337 -0.16810
 C66 C 0.37307 0.06075 -0.18792
 C67 C 0.38997 0.08095 -0.18476
 H68 H 0.33978 0.05133 -0.16411
 H69 H 0.40624 0.08533 -0.19644
 N70 N 0.33262 0.11462 -0.09349
 N71 N 0.34291 0.13528 -0.08322
 C72 C 0.32924 0.14213 -0.06275
 C73 C 0.30933 0.12495 -0.05992
 C74 C 0.31214 0.10777 -0.07980
 H75 H 0.33361 0.15832 -0.05068
 H76 H 0.30004 0.09158 -0.08415
 H77 H 0.37848 0.11446 -0.10875
 H78 H 0.35814 0.13544 -0.12907
 N79 N 0.09536 0.83357 0.38693
 N80 N 0.08543 0.84409 0.36658
 C81 C 0.06484 0.83049 0.35964
 C82 C 0.06157 0.81020 0.37657
 C83 C 0.08147 0.81292 0.39365
 H84 H 0.05319 0.83512 0.34343
 H85 H 0.08570 0.80090 0.40982
 Cu86 Cu 0.10044 0.87458 0.35119
 Cu87 Cu 0.12557 0.84735 0.40325
 Cu88 Cu 0.15260 0.90174 0.37618
 N89 N 0.11580 0.90507 0.33615
 N90 N 0.13616 0.91560 0.34605
 C91 C 0.14280 0.93628 0.33216
 C92 C 0.12570 0.93895 0.31238
 C93 C 0.10881 0.91872 0.31558
 H94 H 0.15903 0.94832 0.33612
 H95 H 0.09253 0.91436 0.30393
 N96 N 0.16641 0.88485 0.40668
 N97 N 0.15616 0.86414 0.41696
 C98 C 0.16989 0.85725 0.43739
 C99 C 0.18979 0.87443 0.44019
 C100 C 0.18692 0.89167 0.42032
 H101 H 0.16557 0.84101 0.44946
 H102 H 0.19899 0.90789 0.41596
 H103 H 0.12052 0.88500 0.39153
 H104 H 0.14084 0.86411 0.37114
 C105 C 0.10520 0.12525 0.14411
 C106 C 0.08633 0.14428 0.14373
 C107 C 0.08624 0.16314 0.12470
 C108 C 0.10501 0.16312 0.10591
 C109 C 0.12403 0.14423 0.10601
 C110 C 0.12416 0.12519 0.12518
 C111 C 0.10547 0.10628 0.16307
 C112 C 0.12441 0.08737 0.16326
 C113 C 0.14322 0.08727 0.14452
 C114 C 0.14324 0.10609 0.12542
 C115 C 0.16198 0.10618 0.10655
 C116 C 0.16181 0.12508 0.08757
 C117 C 0.14292 0.14403 0.08729
 H118 H 0.07171 0.14447 0.15819
 H119 H 0.10477 0.17780 0.09127
 H120 H 0.09099 0.10619 0.17767
 H121 H 0.15780 0.07254 0.14484
 H122 H 0.17670 0.09159 0.10660
 H123 H 0.14295 0.15857 0.07251
 C124 C 0.39394 0.87464 0.64420
 C125 C 0.41292 0.85571 0.64391
 C126 C 0.41314 0.83685 0.62494
 C127 C 0.39440 0.83673 0.60612
 C128 C 0.37528 0.85551 0.60613
 C129 C 0.37502 0.87457 0.62524
 C130 C 0.39354 0.89363 0.66310
 C131 C 0.37450 0.91243 0.66320
 C132 C 0.35571 0.91241 0.64443
 C133 C 0.35583 0.89356 0.62539
 C134 C 0.33711 0.89335 0.60650
 C135 C 0.33742 0.87444 0.58757
 C136 C 0.35642 0.85559 0.58738
 H137 H 0.42752 0.85563 0.65839
 H138 H 0.39474 0.82204 0.59152
 H139 H 0.40800 0.89381 0.67772
 H140 H 0.34105 0.92705 0.64468
 H141 H 0.32232 0.90786 0.60647
 H142 H 0.35649 0.84103 0.57264
 C143 C 0.89440 0.62487 0.35595
 C144 C 0.91330 0.64387 0.35632
 C145 C 0.91343 0.66269 0.37533
 C146 C 0.89467 0.66267 0.39413
 C147 C 0.87562 0.64381 0.39405
 C148 C 0.87545 0.62480 0.37489
 C149 C 0.89408 0.60593 0.33700
 C150 C 0.87511 0.58704 0.33683
 C151 C 0.85630 0.58693 0.35558
 C152 C 0.85633 0.60572 0.37467
 C153 C 0.83759 0.60580 0.39355
 C154 C 0.83780 0.62467 0.41252
 C155 C 0.85674 0.64359 0.41278
 H156 H 0.92791 0.64406 0.34185
 H157 H 0.89494 0.67732 0.40877
 H158 H 0.90855 0.60585 0.32240
 H159 H 0.84170 0.57222 0.35527
 H160 H 0.82285 0.59123 0.39351
 H161 H 0.85673 0.65812 0.42755
 C162 C 0.60588 0.37503 -0.14432
 C163 C 0.58693 0.35607 -0.14399
 C164 C 0.58675 0.33718 -0.12501
 C165 C 0.60549 0.33709 -0.10619
 C166 C 0.62458 0.35591 -0.10623
 C167 C 0.62481 0.37499 -0.12536
 C168 C 0.60625 0.39405 -0.16324
 C169 C 0.62526 0.41289 -0.16337
 C170 C 0.64405 0.41288 -0.14461
 C171 C 0.64397 0.39402 -0.12554
 C172 C 0.66269 0.39383 -0.10666
 C173 C 0.66242 0.37490 -0.08771
 C174 C 0.64345 0.35601 -0.08749
 H175 H 0.57233 0.35597 -0.15847
 H176 H 0.60518 0.32238 -0.09158
 H177 H 0.59178 0.39422 -0.17785
 H178 H 0.65869 0.42756 -0.14488
 H179 H 0.67746 0.40837 -0.10666
 H180 H 0.64341 0.34144 -0.07273
 C181 C -0.00418 0.27319 0.14187
 C182 C -0.00418 0.25376 0.12356
 C183 C -0.02308 0.25334 0.10501
 C184 C -0.04194 0.27224 0.10473
 C185 C -0.04226 0.29204 0.12309
 C186 C -0.02300 0.29214 0.14169
 C187 C 0.01523 0.23428 0.12379
 C188 C 0.03148 0.21797 0.12399
 C189 C 0.05053 0.19888 0.12423
 C190 C 0.06680 0.18258 0.12445
 H191 H 0.01039 0.27370 0.15634
 H192 H -0.02325 0.23836 0.09072
 H193 H -0.05615 0.27111 0.09003
 H194 H -0.02221 0.30676 0.15623
 C195 C 0.52507 0.74943 0.60816
 C196 C 0.50427 0.74696 0.62442
 C197 C 0.50260 0.72569 0.64064
 C198 C 0.52164 0.70697 0.64064
 C199 C 0.54268 0.70924 0.62436
 C200 C 0.54414 0.73073 0.60810
 C201 C 0.48468 0.76624 0.62449
 C202 C 0.46828 0.78240 0.62457
 C203 C 0.44908 0.80134 0.62468
 C204 C 0.43270 0.81751 0.62479
 H205 H 0.52659 0.76584 0.59554
 H206 H 0.48655 0.72357 0.65329
 H207 H 0.51968 0.69068 0.65328
 H208 H 0.56006 0.73331 0.59544
 C209 C 1.02278 0.75287 0.39499
 C210 C 1.00413 0.75307 0.37618
 C211 C 1.00449 0.77218 0.35751
 C212 C 1.02340 0.79104 0.35759
 C213 C 1.04242 0.79116 0.37644
 C214 C 1.04175 0.77169 0.39516
 C215 C 0.98464 0.73367 0.37604
 C216 C 0.96832 0.71741 0.37590
 C217 C 0.94922 0.69838 0.37572
 C218 C 0.93290 0.68212 0.37555
 H219 H 1.02269 0.73814 0.40956
 H220 H 0.99011 0.77251 0.34284
 H221 H 1.02289 0.80541 0.34276
 H222 H 1.05575 0.77074 0.41008
 C223 C 0.49266 0.23081 -0.14515
 C224 C 0.49583 0.24701 -0.12422
 C225 C 0.47995 0.24434 -0.10315
 C226 C 0.46096 0.22555 -0.10298
 C227 C 0.45757 0.20911 -0.12393
 C228 C 0.47369 0.21199 -0.14503
 C229 C 0.51537 0.26637 -0.12438
 C230 C 0.53173 0.28258 -0.12451
 C231 C 0.55088 0.30157 -0.12469
 C232 C 0.56723 0.31779 -0.12483
 H233 H 0.50482 0.23274 -0.16159
 H234 H 0.48227 0.25676 -0.08682
 H235 H 0.44912 0.22386 -0.08632
 H236 H 0.47161 0.19991 -0.16158
 C237 C 0.10934 -0.02453 0.25210
 C238 C 0.12514 -0.00298 0.25409
 C239 C 0.14112 -0.00038 0.27508
 C240 C 0.14133 -0.01923 0.29403
 C241 C 0.12550 -0.04101 0.29226
 C242 C 0.10949 -0.04340 0.27102
 C243 C 0.12495 0.01644 0.23459
 C244 C 0.12481 0.03269 0.21826
 C245 C 0.12466 0.05172 0.19913
 C246 C 0.12454 0.06797 0.18279
 H247 H 0.09691 -0.02676 0.23589
 H248 H 0.15341 0.01625 0.27683
 H249 H 0.15377 -0.01655 0.31010
 H250 H 0.09719 -0.05991 0.26882
 C251 C 0.60811 0.52296 -0.25398
 C252 C 0.62641 0.50350 -0.25394
 C253 C 0.64496 0.50304 -0.27284
 C254 C 0.64527 0.52196 -0.29172
 C255 C 0.62694 0.54178 -0.29207
 C256 C 0.60833 0.54192 -0.27281
 C257 C 0.62615 0.48401 -0.23451
 C258 C 0.62594 0.46771 -0.21823
 C259 C 0.62569 0.44862 -0.19915
 C260 C 0.62549 0.43233 -0.18285
 H261 H 0.59364 0.52349 -0.23941
 H262 H 0.65924 0.48804 -0.27298
 H263 H 0.65999 0.52081 -0.30592
 H264 H 0.59380 0.55657 -0.27205
 C265 C 0.35764 1.00010 0.77489
 C266 C 0.37350 1.00279 0.75381
 C267 C 0.38921 1.02439 0.75173
 C268 C 0.38909 1.04324 0.77064
 C269 C 0.37321 1.04075 0.79196
 C270 C 0.35746 1.01892 0.79383
 C271 C 0.37368 0.98339 0.73434
 C272 C 0.37384 0.96714 0.71804
 C273 C 0.37405 0.94811 0.69896
 C274 C 0.37424 0.93185 0.68266
 H275 H 0.34542 0.98342 0.77672
 H276 H 0.40155 1.02670 0.73546
 H277 H 0.40133 1.05980 0.76836
 H278 H 0.34512 1.01616 0.80997
 C279 C 0.89070 0.47586 0.24748
 C280 C 0.87450 0.49712 0.24579
 C281 C 0.85824 0.49959 0.22499
 C282 C 0.85816 0.48090 0.20593
 C283 C 0.87439 0.45941 0.20740
 C284 C 0.89067 0.45714 0.22845
 C285 C 0.87459 0.51641 0.26537
 C286 C 0.87469 0.53257 0.28176
 C287 C 0.87481 0.55151 0.30093
 C288 C 0.87494 0.56770 0.31730
 H289 H 0.90335 0.47374 0.26353
 H290 H 0.84564 0.51601 0.22347
 H291 H 0.84550 0.48348 0.19001
 H292 H 0.90329 0.44085 0.23041
 C293 C 0.26761 0.14627 -0.00510
 C294 C 0.25165 0.12494 -0.00222
 C295 C 0.25450 0.10363 -0.01816
 C296 C 0.27323 0.10360 -0.03692
 C297 C 0.28942 0.12495 -0.04000
 C298 C 0.28637 0.14629 -0.02383
 C299 C 0.23236 0.12494 0.01707
 C300 C 0.21620 0.12495 0.03323
 C301 C 0.19728 0.12498 0.05214
 C302 C 0.18112 0.12502 0.06829
 H303 H 0.26555 0.16290 0.00711
 H304 H 0.24227 0.08699 -0.01607
 H305 H 0.27506 0.08674 -0.04879
 H306 H 0.29826 0.16316 -0.02569
 C307 C 0.74511 0.60325 0.51833
 C308 C 0.74803 0.62459 0.50238
 C309 C 0.73218 0.64598 0.50529
 C310 C 0.71347 0.64605 0.52406
 C311 C 0.71036 0.62469 0.54025
 C312 C 0.72643 0.60327 0.53713
 C313 C 0.76730 0.62456 0.48306
 C314 C 0.78344 0.62456 0.46689
 C315 C 0.80235 0.62457 0.44796
 C316 C 0.81850 0.62461 0.43181
 H317 H 0.75726 0.58656 0.51621
 H318 H 0.73430 0.66263 0.49307
 H319 H 0.70167 0.66297 0.52595
 H320 H 0.72454 0.58640 0.54901
 C321 C 0.75522 0.39626 0.01792
 C322 C 0.75228 0.37489 0.00207
 C323 C 0.76820 0.35355 0.00499
 C324 C 0.78701 0.35356 0.02367
 C325 C 0.79015 0.37497 0.03975
 C326 C 0.77399 0.39633 0.03663
 C327 C 0.73296 0.37486 -0.01719
 C328 C 0.71679 0.37485 -0.03334
 C329 C 0.69786 0.37485 -0.05224
 C330 C 0.68171 0.37486 -0.06840
 H331 H 0.74302 0.41291 0.01580
 H332 H 0.76607 0.33687 -0.00715
 H333 H 0.79887 0.33669 0.02557
 H334 H 0.77590 0.41324 0.04843
 C335 C 0.24470 0.89568 0.48182
 C336 C 0.24760 0.87433 0.49775
 C337 C 0.23164 0.85300 0.49490
 C338 C 0.21285 0.85301 0.47621
 C339 C 0.20975 0.87439 0.46005
 C340 C 0.22594 0.89574 0.46311
 C341 C 0.26691 0.87431 0.51703
 C342 C 0.28307 0.87432 0.53318
 C343 C 0.30199 0.87434 0.55210
 C344 C 0.31814 0.87438 0.56826
 H345 H 0.25693 0.91232 0.48390
 H346 H 0.23374 0.83634 0.50711
 H347 H 0.20097 0.83614 0.47438
 H348 H 0.22407 0.91263 0.45124
   
