data_POSCAR
  _audit_creation_date              2014-09-24
  _audit_creation_method            'ToBaCCo'
  _symmetry_space_group_name_H-M    'P1'
  _symmetry_Int_Tables_number       1
  _symmetry_cell_setting            triclinic
  loop_
  _symmetry_equiv_pos_as_xyz
 x,y,z
_cell_length_a 43.4219
_cell_length_b 43.2610
_cell_length_c 43.3533
_cell_angle_alpha 90.356900
_cell_angle_beta 90.453900
_cell_angle_gamma 89.964700
loop_
  _atom_site_label
  _atom_site_type_symbol
  _atom_site_fract_x
  _atom_site_fract_y
  _atom_site_fract_z
C1 C 0.20756 1.23232 0.18604
 C2 C 0.23152 1.21058 0.18725
 C3 C 0.23158 1.18808 0.20978
 C4 C 0.20788 1.18718 0.23154
 C5 C 0.18416 1.20834 0.23009
 C6 C 0.18396 1.23104 0.20711
 C7 C 0.20067 1.25575 0.16581
 N8 N 0.17319 1.26877 0.17380
 C9 C 0.16299 1.25350 0.19923
 C10 C 0.16361 1.20088 0.25283
 N11 N 0.17426 1.17569 0.26847
 C12 C 0.20151 1.16733 0.25531
 C13 C 0.25602 1.16872 0.20397
 N14 N 0.27080 1.17888 0.17844
 C15 C 0.25605 1.20461 0.16819
 H16 H 0.21428 1.26161 0.14591
 H17 H 0.14199 1.25825 0.21162
 H18 H 0.14265 1.21348 0.25757
 H19 H 0.21542 1.14753 0.26142
 H20 H 0.26211 1.14826 0.21692
 H21 H 0.26176 1.21713 0.14746
 C22 C 0.79291 0.77217 0.18443
 C23 C 0.77189 0.79675 0.18283
 C24 C 0.77322 0.82030 0.20448
 C25 C 0.79544 0.81952 0.22809
 C26 C 0.81571 0.79503 0.23002
 C27 C 0.81446 0.77116 0.20796
 C28 C 0.79860 0.74750 0.16516
 N29 N 0.82323 0.73127 0.17628
 C30 C 0.83276 0.74572 0.20276
 C31 C 0.83549 0.80114 0.25424
 N32 N 0.82808 0.82908 0.26700
 C33 C 0.80338 0.84027 0.25091
 C34 C 0.75116 0.84169 0.19650
 N35 N 0.73633 0.83165 0.17058
 C36 C 0.74897 0.80416 0.16205
 H37 H 0.78551 0.74219 0.14450
 H38 H 0.85269 0.73959 0.21653
 H39 H 0.85487 0.78681 0.26073
 H40 H 0.79162 0.86188 0.25525
 H41 H 0.74622 0.86296 0.20879
 H42 H 0.74249 0.79085 0.14180
 C43 C 0.78865 1.22974 -0.18996
 C44 C 0.76637 1.20626 -0.19020
 C45 C 0.76814 1.18249 -0.21157
 C46 C 0.79212 1.18190 -0.23304
 C47 C 0.81387 1.20510 -0.23294
 C48 C 0.81229 1.22905 -0.21103
 C49 C 0.79401 1.25440 -0.17047
 N50 N 0.82069 1.26868 -0.17881
 C51 C 0.83179 1.25310 -0.20385
 C52 C 0.83511 1.19780 -0.25520
 N53 N 0.82706 1.17041 -0.26884
 C54 C 0.80062 1.16067 -0.25512
 C55 C 0.74499 1.16192 -0.20509
 N56 N 0.72918 1.17252 -0.18022
 C57 C 0.74213 1.19972 -0.17104
 H58 H 0.78017 1.26009 -0.15060
 H59 H 0.85259 1.25845 -0.21625
 H60 H 0.85568 1.21100 -0.25979
 H61 H 0.78797 1.13983 -0.26067
 H62 H 0.74039 1.14054 -0.21736
 H63 H 0.73535 1.21311 -0.15104
 C64 C 0.20379 0.76647 -0.18181
 C65 C 0.22737 0.78862 -0.18165
 C66 C 0.22941 0.80962 -0.20544
 C67 C 0.20780 0.80885 -0.22966
 C68 C 0.18445 0.78722 -0.22963
 C69 C 0.18264 0.76563 -0.20569
 C70 C 0.19533 0.74425 -0.16099
 N71 N 0.16954 0.72949 -0.17166
 C72 C 0.16182 0.74268 -0.19919
 C73 C 0.16553 0.79347 -0.25440
 N74 N 0.17678 0.81841 -0.26980
 C75 C 0.20292 0.82766 -0.25469
 C76 C 0.25320 0.82948 -0.19827
 N77 N 0.26563 0.82110 -0.17065
 C78 C 0.24993 0.79602 -0.16042
 H79 H 0.20766 0.73922 -0.13985
 H80 H 0.14179 0.73719 -0.21315
 H81 H 0.14505 0.78051 -0.26045
 H82 H 0.21662 0.84775 -0.26012
 H83 H 0.26004 0.84936 -0.21159
 H84 H 0.25425 0.78420 -0.13889
 C85 C 0.52282 1.05847 -0.02743
 H86 H 0.50682 1.07071 -0.01281
 C87 C 0.54348 1.07511 -0.04548
 H88 H 0.54316 1.10012 -0.04454
 C89 C 0.54396 1.01108 -0.04504
 H90 H 0.54422 0.98609 -0.04435
 C91 C 0.56497 1.02675 -0.06340
 H92 H 0.58104 1.01358 -0.07722
 N93 N 0.52350 1.02703 -0.02751
 C94 C 0.47805 1.03087 0.05531
 H95 H 0.49592 1.01738 0.06626
 C96 C 0.45861 1.04901 0.07346
 H97 H 0.46233 1.04976 0.09817
 C98 C 0.45141 1.04607 0.00999
 H99 H 0.44854 1.04438 -0.01477
 C100 C 0.43124 1.06426 0.02728
 H101 H 0.41272 1.07625 0.01553
 Zn102 Zn 0.49855 1.00361 -0.00089
 N103 N 0.47419 1.02979 0.02416
 C104 C 0.54793 0.99477 0.03962
 N105 N 0.52560 0.97950 0.02352
 C106 C 0.52414 0.94809 0.02337
 C107 C 0.54556 0.93081 0.04021
 C108 C 0.56969 0.97844 0.05688
 C109 C 0.47114 0.97795 -0.05515
 C110 C 0.44985 0.95992 -0.07155
 C111 C 0.42895 0.94271 -0.02312
 C112 C 0.45064 0.96102 -0.00766
 N113 N 0.47126 0.97803 -0.02377
 H114 H 0.54899 1.01974 0.03875
 H115 H 0.50669 0.93632 0.00985
 H116 H 0.54399 0.90583 0.03996
 H117 H 0.58754 0.99102 0.06919
 H118 H 0.48718 0.99222 -0.06755
 H119 H 0.44978 0.96055 -0.09651
 H120 H 0.41293 0.92910 -0.00985
 H121 H 0.45099 0.96184 0.01729
 C122 C 0.43457 1.06581 0.05953
 C123 C 0.56517 1.05922 -0.06351
 C124 C 0.42830 0.94207 -0.05552
 C125 C 0.56874 0.94600 0.05723
 C126 C -0.01476 0.54940 1.04013
 H127 H 0.00899 0.55430 1.03458
 C128 C -0.03125 0.56986 1.05873
 H129 H -0.01999 0.59066 1.06700
 C130 C -0.05848 0.51708 1.03445
 H131 H -0.06907 0.49661 1.02470
 C132 C -0.07573 0.53671 1.05331
 H133 H -0.09938 0.53073 1.05825
 N134 N -0.02860 0.52377 1.02817
 C135 C 0.03278 0.44720 1.00903
 H136 H 0.02709 0.44278 0.98507
 C137 C 0.05114 0.42629 1.02528
 H138 H 0.05910 0.40563 1.01361
 C139 C 0.02774 0.47879 1.05354
 H140 H 0.01836 0.49917 1.06451
 C141 C 0.04635 0.45871 1.07056
 H142 H 0.05148 0.46426 1.09443
 Zn143 Zn -0.00568 0.49865 1.00082
 N144 N 0.02128 0.47269 1.02337
 C145 C 0.04720 0.51865 0.96854
 N146 N 0.01715 0.52480 0.97469
 C147 C 0.00310 0.55055 0.96354
 C148 C 0.01952 0.57166 0.94586
 C149 C 0.06439 0.53894 0.95060
 C150 C -0.04399 0.44748 0.99033
 C151 C -0.06225 0.42701 0.97318
 C152 C -0.05748 0.46075 0.92929
 C153 C -0.03897 0.48036 0.94718
 N154 N -0.03254 0.47340 0.97708
 H155 H 0.05794 0.49808 0.97765
 H156 H -0.02076 0.55502 0.96900
 H157 H 0.00808 0.59250 0.93819
 H158 H 0.08816 0.53336 0.94571
 H159 H -0.03833 0.44236 1.01409
 H160 H -0.07015 0.40600 0.98398
 H161 H -0.06256 0.46696 0.90565
 H162 H -0.02961 0.50106 0.93706
 C163 C 0.05806 0.43178 1.05658
 C164 C -0.06228 0.56378 1.06546
 C165 C -0.06913 0.43340 0.94212
 C166 C 0.05071 0.56611 0.93927
 C167 C 1.04731 -0.01246 0.54988
 H168 H 1.04384 0.01189 0.55452
 C169 C 1.06524 -0.03014 0.56996
 H170 H 1.07503 -0.01909 0.59023
 C171 C 1.03692 -0.05643 0.51868
 H172 H 1.02552 -0.06665 0.49888
 C173 C 1.05514 -0.07490 0.53787
 H174 H 1.05799 -0.09909 0.53210
 N175 N 1.03337 -0.02581 0.52500
 C176 C 1.01603 0.04528 0.45643
 H177 H 0.99112 0.04592 0.45640
 C178 C 1.03241 0.06364 0.43591
 H179 H 1.01995 0.07842 0.42005
 C180 C 1.06246 0.02411 0.47625
 H181 H 1.07401 0.00833 0.49174
 C182 C 1.07973 0.04180 0.45582
 H183 H 1.10460 0.03981 0.45600
 Zn184 Zn 1.00737 -0.00027 0.50101
 N185 N 1.03119 0.02609 0.47610
 C186 C 0.98462 0.05448 0.52943
 N187 N 0.98292 0.02307 0.52875
 C188 C 0.96514 0.00746 0.54912
 C189 C 0.94725 0.02351 0.57052
 C190 C 0.96746 0.07143 0.55077
 C191 C 0.99670 -0.03774 0.44946
 C192 C 0.97980 -0.05486 0.42782
 C193 C 0.93390 -0.04474 0.45730
 C194 C 0.95161 -0.02739 0.47810
 N195 N 0.98250 -0.02447 0.47405
 H196 H 0.99957 0.06648 0.51374
 H197 H 0.96496 -0.01755 0.54877
 H198 H 0.93319 0.01075 0.58655
 H199 H 0.96894 0.09642 0.55096
 H200 H 1.02121 -0.03460 0.44644
 H201 H 0.99158 -0.06444 0.40804
 H202 H 0.90949 -0.04726 0.46147
 H203 H 0.94052 -0.01622 0.49735
 C204 C 1.06466 0.06176 0.43523
 C205 C 1.06934 -0.06190 0.56420
 C206 C 0.94789 -0.05864 0.43156
 C207 C 0.94835 0.05591 0.57151
 C208 C 0.12673 0.33984 1.12608
 C209 C 0.15811 0.33412 1.12092
 C210 C 0.17355 0.31059 1.13671
 C211 C 0.15817 0.29219 1.15854
 C212 C 0.12674 0.29847 1.16394
 C213 C 0.11129 0.32170 1.14780
 C214 C 0.10998 0.36426 1.10859
 C215 C 0.11690 0.37004 1.07751
 C216 C 0.10052 0.39229 1.06085
 C217 C 0.07654 0.40912 1.07470
 C218 C 0.06983 0.40354 1.10586
 C219 C 0.08645 0.38157 1.12262
 H220 H 0.19779 0.30760 1.13215
 H221 H 0.11339 0.28483 1.17975
 H222 H 0.10669 0.39626 1.03706
 H223 H 0.05129 0.41570 1.11724
 H224 H 0.08693 0.32493 1.15191
 H225 H 0.13459 0.35694 1.06579
 H226 H 0.17096 0.34808 1.10488
 H227 H 0.08080 0.37816 1.14663
 C228 C -0.13216 0.65616 1.13303
 C229 C -0.12659 0.66302 1.16429
 C230 C -0.14159 0.68770 1.17875
 C231 C -0.16299 0.70618 1.16250
 C232 C -0.16917 0.69847 1.13135
 C233 C -0.15381 0.67409 1.11685
 C234 C -0.11480 0.63114 1.11703
 C235 C -0.12883 0.61337 1.09356
 C236 C -0.11196 0.59130 1.07717
 C237 C -0.08068 0.58609 1.08406
 C238 C -0.06691 0.60318 1.10818
 C239 C -0.08368 0.62554 1.12430
 H240 H -0.13661 0.69170 1.20290
 H241 H -0.18481 0.71196 1.11738
 H242 H -0.12331 0.57890 1.05855
 H243 H -0.04304 0.59946 1.11453
 H244 H -0.15828 0.66995 1.09258
 H245 H -0.15288 0.61662 1.08766
 H246 H -0.11067 0.64922 1.17773
 H247 H -0.07195 0.63896 1.14196
 C248 C -0.13593 0.34200 0.86920
 C249 C -0.16714 0.33526 0.87406
 C250 C -0.18163 0.31114 0.85801
 C251 C -0.16543 0.29311 0.83621
 C252 C -0.13428 0.30062 0.83088
 C253 C -0.11977 0.32445 0.84728
 C254 C -0.11998 0.36661 0.88743
 C255 C -0.09670 0.38461 0.87411
 C256 C -0.08050 0.40644 0.89170
 C257 C -0.08740 0.41117 0.92303
 C258 C -0.11126 0.39378 0.93613
 C259 C -0.12721 0.37167 0.91863
 H260 H -0.20576 0.30726 0.86244
 H261 H -0.12034 0.28742 0.81504
 H262 H -0.06205 0.41907 0.88085
 H263 H -0.11760 0.39712 0.96002
 H264 H -0.09552 0.32850 0.84334
 H265 H -0.09084 0.38177 0.85004
 H266 H -0.18055 0.34878 0.89021
 H267 H -0.14473 0.35804 0.92982
 C268 C 0.12088 0.65860 0.87325
 C269 C 0.11570 0.66464 0.84185
 C270 C 0.13175 0.68816 0.82695
 C271 C 0.15389 0.70621 0.84289
 C272 C 0.15926 0.69965 0.87435
 C273 C 0.14286 0.67643 0.88928
 C274 C 0.10319 0.63411 0.88938
 C275 C 0.11707 0.61644 0.91280
 C276 C 0.10016 0.59431 0.92877
 C277 C 0.06898 0.58895 0.92150
 C278 C 0.05527 0.60617 0.89764
 C279 C 0.07209 0.62857 0.88192
 H280 H 0.12718 0.69136 0.80265
 H281 H 0.17529 0.71304 0.88812
 H282 H 0.11144 0.58185 0.94725
 H283 H 0.03147 0.60237 0.89105
 H284 H 0.14699 0.67296 0.91367
 H285 H 0.14109 0.61967 0.91886
 H286 H 0.09947 0.65092 0.82855
 H287 H 0.06048 0.64194 0.86430
 C288 C 1.13004 0.12982 0.34145
 C289 C 1.16120 0.12419 0.33507
 C290 C 1.17589 0.13938 0.31094
 C291 C 1.15996 0.16106 0.29251
 C292 C 1.12877 0.16699 0.29947
 C293 C 1.11406 0.15147 0.32338
 C294 C 1.11408 0.11275 0.36640
 C295 C 1.09125 0.12727 0.38425
 C296 C 1.07542 0.11082 0.40680
 C297 C 1.08230 0.07961 0.41227
 C298 C 1.10547 0.06522 0.39494
 C299 C 1.12107 0.08153 0.37215
 H300 H 1.20000 0.13445 0.30749
 H301 H 1.11503 0.18276 0.28592
 H302 H 1.05787 0.12254 0.42011
 H303 H 1.11091 0.04104 0.39840
 H304 H 1.08985 0.15595 0.32718
 H305 H 1.08568 0.15141 0.38091
 H306 H 1.17446 0.10820 0.34897
 H307 H 1.13806 0.06941 0.35851
 C308 C 1.13485 -0.13535 0.65549
 C309 C 1.11814 -0.15653 0.67321
 C310 C 1.13222 -0.17252 0.69741
 C311 C 1.16341 -0.16732 0.70524
 C312 C 1.18020 -0.14639 0.68704
 C313 C 1.16621 -0.13091 0.66243
 C314 C 1.11933 -0.11723 0.63066
 C315 C 1.12812 -0.08654 0.62478
 C316 C 1.11257 -0.06899 0.60264
 C317 C 1.08739 -0.08139 0.58612
 C318 C 1.07895 -0.11225 0.59160
 C319 C 1.09487 -0.12999 0.61335
 H320 H 1.11791 -0.18775 0.71078
 H321 H 1.20443 -0.14225 0.69120
 H322 H 1.12023 -0.04555 0.59867
 H323 H 1.05951 -0.12260 0.57969
 H324 H 1.18013 -0.11549 0.64878
 H325 H 1.14655 -0.07567 0.63782
 H326 H 1.09379 -0.16014 0.66909
 H327 H 1.08777 -0.15370 0.61671
 C328 C 0.87652 -0.12539 0.33871
 C329 C 0.85598 -0.10912 0.31960
 C330 C 0.83949 -0.12427 0.29623
 C331 C 0.84344 -0.15623 0.29072
 C332 C 0.86405 -0.17246 0.31009
 C333 C 0.88011 -0.15732 0.33382
 C334 C 0.89446 -0.10896 0.36326
 C335 C 0.88166 -0.08371 0.37923
 C336 C 0.89890 -0.06749 0.40133
 C337 C 0.92929 -0.07637 0.40846
 C338 C 0.94188 -0.10203 0.39295
 C339 C 0.92479 -0.11795 0.37050
 H340 H 0.82468 -0.11033 0.28180
 H341 H 0.86739 -0.19710 0.30767
 H342 H 0.88849 -0.04762 0.41239
 H343 H 0.96499 -0.10992 0.39814
 H344 H 0.89513 -0.17081 0.34855
 H345 H 0.85822 -0.07639 0.37473
 H346 H 0.85311 -0.08438 0.32212
 H347 H 0.93563 -0.13700 0.35845
 C348 C 0.87706 0.12310 0.66242
 C349 C 0.85421 0.10789 0.67932
 C350 C 0.83732 0.12363 0.70178
 C351 C 0.84309 0.15509 0.70851
 C352 C 0.86607 0.17022 0.69138
 C353 C 0.88258 0.15453 0.66860
 C354 C 0.89524 0.10616 0.63870
 C355 C 0.92656 0.11302 0.63421
 C356 C 0.94369 0.09695 0.61216
 C357 C 0.93003 0.07336 0.59440
 C358 C 0.89882 0.06638 0.59883
 C359 C 0.88155 0.08274 0.62056
 H360 H 0.82060 0.11047 0.71450
 H361 H 0.87097 0.19449 0.69474
 H362 H 0.96783 0.10250 0.60942
 H363 H 0.88769 0.04851 0.58514
 H364 H 0.89947 0.16724 0.65553
 H365 H 0.93808 0.13044 0.64813
 H366 H 0.84974 0.08352 0.67571
 H367 H 0.85738 0.07721 0.62289
 C368 C 0.34367 1.13288 0.13119
 C369 C 0.32141 1.11596 0.14734
 C370 C 0.29791 1.13106 0.16326
 C371 C 0.29588 1.16346 0.16318
 C372 C 0.31814 1.18047 0.14722
 C373 C 0.34187 1.16537 0.13153
 C374 C 0.36813 1.11660 0.11353
 C375 C 0.37795 1.12787 0.08489
 C376 C 0.39991 1.11178 0.06767
 C377 C 0.41244 1.08386 0.07854
 C378 C 0.40295 1.07285 0.10740
 C379 C 0.38122 1.08908 0.12472
 H380 H 0.28076 1.11734 0.17487
 H381 H 0.31728 1.20547 0.14709
 H382 H 0.40699 1.12120 0.04577
 H383 H 0.41176 1.05127 0.11637
 H384 H 0.35890 1.17916 0.11979
 H385 H 0.36816 1.14879 0.07537
 H386 H 0.32164 1.09093 0.14706
 H387 H 0.37458 1.07996 0.14690
 C388 C 0.65750 1.12518 -0.13300
 C389 C 0.65907 1.15762 -0.13228
 C390 C 0.68234 1.17317 -0.14801
 C391 C 0.70450 1.15662 -0.16490
 C392 C 0.70257 1.12420 -0.16600
 C393 C 0.67937 1.10868 -0.15026
 C394 C 0.63367 1.10846 -0.11527
 C395 C 0.64139 1.08144 -0.09914
 C396 C 0.61916 1.06554 -0.08244
 C397 C 0.58862 1.07626 -0.08144
 C398 C 0.58088 1.10339 -0.09742
 C399 C 0.60317 1.11933 -0.11417
 H400 H 0.68297 1.19816 -0.14699
 H401 H 0.71941 1.11068 -0.17846
 H402 H 0.62603 1.04510 -0.06984
 H403 H 0.55747 1.11204 -0.09735
 H404 H 0.67855 1.08369 -0.15159
 H405 H 0.66481 1.07282 -0.09902
 H406 H 0.64269 1.17097 -0.11900
 H407 H 0.59645 1.13990 -0.12664
 C408 C 0.33621 0.87034 -0.12193
 C409 C 0.31419 0.85306 -0.10589
 C410 C 0.29131 0.83669 -0.12184
 C411 C 0.28987 0.83719 -0.15425
 C412 C 0.31212 0.85419 -0.17031
 C413 C 0.33504 0.87055 -0.15434
 C414 C 0.35995 0.88848 -0.10486
 C415 C 0.39046 0.88975 -0.11540
 C416 C 0.41266 0.90704 -0.09938
 C417 C 0.40486 0.92344 -0.07246
 C418 C 0.37436 0.92215 -0.06193
 C419 C 0.35218 0.90489 -0.07794
 H420 H 0.27437 0.82416 -0.10871
 H421 H 0.31187 0.85478 -0.19525
 H422 H 0.43606 0.90724 -0.10784
 H423 H 0.36748 0.93498 -0.04159
 H424 H 0.35151 0.88386 -0.16736
 H425 H 0.39726 0.87701 -0.13582
 H426 H 0.31469 0.85213 -0.08093
 H427 H 0.32876 0.90485 -0.06954
 C428 C 0.66383 0.87902 0.12347
 C429 C 0.66550 0.84657 0.12270
 C430 C 0.68927 0.83105 0.13809
 C431 C 0.71184 0.84762 0.15467
 C432 C 0.71014 0.88006 0.15548
 C433 C 0.68646 0.89557 0.14002
 C434 C 0.63878 0.89562 0.10688
 C435 C 0.62504 0.92199 0.11999
 C436 C 0.60211 0.93813 0.10403
 C437 C 0.59231 0.92822 0.07463
 C438 C 0.60571 0.90161 0.06168
 C439 C 0.62872 0.88552 0.07761
 H440 H 0.68970 0.80605 0.13742
 H441 H 0.72746 0.89350 0.16761
 H442 H 0.59188 0.95828 0.11478
 H443 H 0.59894 0.89368 0.03888
 H444 H 0.68617 0.92059 0.14060
 H445 H 0.63186 0.93004 0.14273
 H446 H 0.64818 0.83312 0.11055
 H447 H 0.63914 0.86557 0.06666
   
