data_POSCAR
  _audit_creation_date              2014-09-24
  _audit_creation_method            'ToBaCCo'
  _symmetry_space_group_name_H-M    'P1'
  _symmetry_Int_Tables_number       1
  _symmetry_cell_setting            triclinic
  loop_
  _symmetry_equiv_pos_as_xyz
 x,y,z
_cell_length_a 47.6777
_cell_length_b 46.9624
_cell_length_c 48.5631
_cell_angle_alpha 93.195500
_cell_angle_beta 92.441400
_cell_angle_gamma 89.832500
loop_
  _atom_site_label
  _atom_site_type_symbol
  _atom_site_fract_x
  _atom_site_fract_y
  _atom_site_fract_z
N1 N 0.63274 0.62586 0.63467
 N2 N 0.88399 0.37940 0.12037
 N3 N 0.36323 0.13533 -0.13029
 N4 N 0.11331 0.88452 0.37102
 N5 N 0.09635 0.16549 0.11125
 N6 N 0.08439 0.15260 0.13103
 C7 C 0.06065 0.16658 0.13747
 C8 C 0.05769 0.18958 0.12096
 C9 C 0.08078 0.18826 0.10461
 H10 H 0.04673 0.16079 0.15324
 H11 H 0.08562 0.20248 0.08870
 Cu12 Cu 0.10167 0.11935 0.14681
 Cu13 Cu 0.13045 0.15099 0.09466
 Cu14 Cu 0.16068 0.09078 0.12205
 N15 N 0.11896 0.08611 0.16263
 N16 N 0.14225 0.07520 0.15302
 C17 C 0.15021 0.05304 0.16797
 C18 C 0.13084 0.04980 0.18805
 C19 C 0.11128 0.07121 0.18397
 H20 H 0.16873 0.04026 0.16442
 H21 H 0.09316 0.07597 0.19604
 N22 N 0.17606 0.10979 0.09074
 N23 N 0.16481 0.13292 0.08065
 C24 C 0.17980 0.14053 0.05936
 C25 C 0.20151 0.12122 0.05574
 C26 C 0.19845 0.10203 0.07605
 H27 H 0.17482 0.15836 0.04691
 H28 H 0.21154 0.08372 0.07982
 H29 H 0.12542 0.10893 0.10398
 H30 H 0.14684 0.13206 0.12925
 N31 N 0.40524 0.82442 0.60753
 N32 N 0.41689 0.83661 0.63019
 C33 C 0.43984 0.82161 0.63766
 C34 C 0.44283 0.79886 0.61859
 C35 C 0.42044 0.80138 0.59975
 H36 H 0.45358 0.82707 0.65543
 H37 H 0.41538 0.78737 0.58182
 Cu38 Cu 0.40113 0.87113 0.64744
 Cu39 Cu 0.37122 0.83925 0.58985
 Cu40 Cu 0.34199 0.90000 0.62083
 N41 N 0.38422 0.90493 0.66486
 N42 N 0.36098 0.91596 0.65450
 C43 C 0.35382 0.93896 0.67047
 C44 C 0.37371 0.94269 0.69201
 C45 C 0.39269 0.92065 0.68774
 H46 H 0.33572 0.95223 0.66643
 H47 H 0.41116 0.91625 0.70048
 N48 N 0.32591 0.88072 0.58667
 N49 N 0.33688 0.85743 0.57505
 C50 C 0.32113 0.84933 0.55229
 C51 C 0.29923 0.86849 0.54932
 C52 C 0.30298 0.88812 0.57151
 H53 H 0.32551 0.83106 0.53862
 H54 H 0.28980 0.90630 0.57640
 H55 H 0.37700 0.88140 0.60377
 H56 H 0.35564 0.85872 0.62531
 N57 N 0.90232 0.67227 0.40041
 N58 N 0.91236 0.66156 0.37727
 C59 C 0.93237 0.67907 0.36920
 C60 C 0.93513 0.70200 0.38834
 C61 C 0.91564 0.69692 0.40787
 H62 H 0.94457 0.67503 0.35114
 H63 H 0.91150 0.71005 0.42623
 Cu64 Cu 0.89930 0.62505 0.36072
 Cu65 Cu 0.87323 0.65311 0.41945
 Cu66 Cu 0.85063 0.58731 0.39096
 N67 N 0.88593 0.58851 0.34455
 N68 N 0.86767 0.57337 0.35704
 C69 C 0.86268 0.54878 0.34207
 C70 C 0.87849 0.54858 0.31882
 C71 C 0.89296 0.57416 0.32105
 H72 H 0.84814 0.53254 0.34739
 H73 H 0.90776 0.58154 0.30677
 N74 N 0.83577 0.60517 0.42503
 N75 N 0.84401 0.63040 0.43562
 C76 C 0.82908 0.63729 0.45796
 C77 C 0.81052 0.61533 0.46168
 C78 C 0.81544 0.59531 0.44041
 H79 H 0.83146 0.65691 0.47055
 H80 H 0.80444 0.57540 0.43597
 H81 H 0.88415 0.61235 0.40576
 H82 H 0.85589 0.63025 0.38526
 N83 N 0.59031 0.33491 -0.11406
 N84 N 0.57852 0.34465 -0.13661
 C85 C 0.55393 0.33106 -0.14229
 C86 C 0.55010 0.31177 -0.12220
 C87 C 0.57365 0.31489 -0.10460
 H88 H 0.53987 0.33490 -0.15974
 H89 H 0.57870 0.30296 -0.08665
 Cu90 Cu 0.59657 0.37391 -0.15649
 Cu91 Cu 0.62694 0.34782 -0.09934
 Cu92 Cu 0.65999 0.39958 -0.13438
 N93 N 0.61461 0.40443 -0.17468
 N94 N 0.63951 0.41407 -0.16617
 C95 C 0.64677 0.43534 -0.18189
 C96 C 0.62523 0.43941 -0.20134
 C97 C 0.60515 0.41934 -0.19610
 H98 H 0.66599 0.44746 -0.17882
 H99 H 0.58508 0.41594 -0.20694
 N100 N 0.67715 0.38240 -0.10164
 N101 N 0.66414 0.36341 -0.08775
 C102 C 0.68056 0.35692 -0.06572
 C103 C 0.70516 0.37243 -0.06584
 C104 C 0.70231 0.38829 -0.08895
 H105 H 0.67515 0.34184 -0.05078
 H106 H 0.71717 0.40356 -0.09557
 H107 H 0.62447 0.38805 -0.11476
 H108 H 0.64185 0.35955 -0.13639
 C109 C -0.06557 0.36744 0.12267
 C110 C -0.04393 0.34732 0.12203
 C111 C -0.05008 0.31817 0.11872
 C112 C -0.07822 0.30931 0.11548
 C113 C -0.09985 0.32946 0.11565
 C114 C -0.09370 0.35867 0.11947
 N115 N -0.02745 0.29807 0.11873
 N116 N -0.03148 0.27156 0.12114
 C117 C -0.00890 0.25140 0.12081
 C118 C -0.01370 0.22384 0.12910
 C119 C 0.00800 0.20377 0.12936
 C120 C 0.03476 0.21084 0.12078
 C121 C 0.03943 0.23841 0.11208
 C122 C 0.01784 0.25861 0.11229
 H123 H -0.06045 0.38989 0.12547
 H124 H -0.02233 0.35439 0.12444
 H125 H -0.08347 0.28690 0.11271
 H126 H -0.12143 0.32232 0.11324
 H127 H -0.03425 0.21801 0.13561
 H128 H 0.00370 0.18262 0.13591
 H129 H 0.05987 0.24451 0.10552
 H130 H 0.02200 0.27977 0.10566
 C131 C 0.60223 0.65967 0.66033
 C132 C 0.58057 0.67979 0.66082
 C133 C 0.56648 0.68695 0.63629
 C134 C 0.57438 0.67376 0.61108
 C135 C 0.59616 0.65376 0.61056
 C136 C 0.61026 0.64652 0.63519
 N137 N 0.54450 0.70779 0.63753
 N138 N 0.52975 0.71407 0.61626
 C139 C 0.50801 0.73518 0.61744
 C140 C 0.49144 0.73964 0.59361
 C141 C 0.47017 0.76019 0.59397
 C142 C 0.46521 0.77684 0.61826
 C143 C 0.48195 0.77233 0.64219
 C144 C 0.50310 0.75163 0.64182
 H145 H 0.61296 0.65454 0.67953
 H146 H 0.57473 0.68985 0.68036
 H147 H 0.56383 0.67895 0.59183
 H148 H 0.60193 0.64375 0.59099
 H149 H 0.49507 0.72715 0.57467
 H150 H 0.45792 0.76324 0.57510
 H151 H 0.47859 0.78456 0.66131
 H152 H 0.51564 0.74860 0.66054
 C153 C 1.08299 0.84831 0.34578
 C154 C 1.06220 0.82736 0.34546
 C155 C 1.04956 0.82098 0.36985
 C156 C 1.05795 0.83586 0.39475
 C157 C 1.07884 0.85673 0.39511
 C158 C 1.09157 0.86313 0.37063
 N159 N 1.02863 0.79907 0.36880
 N160 N 1.01554 0.79283 0.38996
 C161 C 0.99498 0.77055 0.38888
 C162 C 0.98081 0.76534 0.41272
 C163 C 0.96112 0.74332 0.41253
 C164 C 0.95535 0.72597 0.38840
 C165 C 0.96948 0.73146 0.36441
 C166 C 0.98908 0.75354 0.36462
 H167 H 1.09266 0.85275 0.32672
 H168 H 1.05598 0.81598 0.32617
 H169 H 1.04850 0.83128 0.41389
 H170 H 1.08502 0.86802 0.41446
 H171 H 0.98521 0.77827 0.43156
 H172 H 0.95084 0.73963 0.43144
 H173 H 0.96540 0.71878 0.34538
 H174 H 0.99973 0.75716 0.34588
 C175 C 0.38947 0.16919 -0.15670
 C176 C 0.40977 0.19044 -0.15789
 C177 C 0.42499 0.20025 -0.13398
 C178 C 0.41948 0.18873 -0.10865
 C179 C 0.39911 0.16756 -0.10743
 C180 C 0.38399 0.15750 -0.13147
 N181 N 0.44613 0.22155 -0.13604
 N182 N 0.46170 0.23027 -0.11536
 C183 C 0.48309 0.25130 -0.11740
 C184 C 0.50056 0.25844 -0.09421
 C185 C 0.52219 0.27824 -0.09568
 C186 C 0.52663 0.29140 -0.12044
 C187 C 0.50873 0.28449 -0.14362
 C188 C 0.48719 0.26456 -0.14215
 H189 H 0.37791 0.16192 -0.17544
 H190 H 0.41379 0.19919 -0.17750
 H191 H 0.43097 0.19597 -0.08986
 H192 H 0.39533 0.15873 -0.08780
 H193 H 0.49756 0.24842 -0.07501
 H194 H 0.53533 0.28326 -0.07734
 H195 H 0.51163 0.29403 -0.16306
 H196 H 0.47392 0.25940 -0.16038
 C197 C 0.08817 -0.08207 0.34108
 C198 C 0.08805 -0.06272 0.32023
 C199 C 0.11292 -0.05631 0.30759
 C200 C 0.13813 -0.06934 0.31622
 C201 C 0.13829 -0.08859 0.33718
 C202 C 0.11328 -0.09521 0.34973
 N203 N 0.11193 -0.03656 0.28613
 N204 N 0.13337 -0.03080 0.27272
 C205 C 0.13217 -0.01087 0.25140
 C206 C 0.15625 -0.00620 0.23680
 C207 C 0.15582 0.01331 0.21605
 C208 C 0.13123 0.02864 0.20964
 C209 C 0.10703 0.02377 0.22429
 C210 C 0.10747 0.00418 0.24494
 H211 H 0.06869 -0.08671 0.35060
 H212 H 0.06852 -0.05275 0.31382
 H213 H 0.15765 -0.06469 0.30679
 H214 H 0.15785 -0.09862 0.34341
 H215 H 0.17543 -0.01765 0.24159
 H216 H 0.17489 0.01661 0.20536
 H217 H 0.08763 0.03490 0.21975
 H218 H 0.08853 0.00090 0.25588
 C219 C 0.65989 0.59685 -0.33259
 C220 C 0.66123 0.57562 -0.31352
 C221 C 0.63692 0.56125 -0.30705
 C222 C 0.61104 0.56843 -0.31982
 C223 C 0.60967 0.58970 -0.33886
 C224 C 0.63410 0.60407 -0.34548
 N225 N 0.63913 0.53954 -0.28749
 N226 N 0.61803 0.52514 -0.28108
 C227 C 0.62040 0.50354 -0.26141
 C228 C 0.59641 0.48839 -0.25542
 C229 C 0.59795 0.46739 -0.23610
 C230 C 0.62363 0.46122 -0.22233
 C231 C 0.64774 0.47640 -0.22856
 C232 C 0.64616 0.49735 -0.24791
 H233 H 0.67894 0.60779 -0.33719
 H234 H 0.68127 0.57033 -0.30376
 H235 H 0.59194 0.55761 -0.31515
 H236 H 0.58961 0.59480 -0.34867
 H237 H 0.57642 0.49298 -0.26567
 H238 H 0.57890 0.45634 -0.23175
 H239 H 0.66793 0.47208 -0.21864
 H240 H 0.66505 0.50871 -0.25224
 C241 C 0.33585 1.10303 0.83686
 C242 C 0.33458 1.08093 0.81633
 C243 C 0.35918 1.06760 0.80752
 C244 C 0.38523 1.07667 0.81951
 C245 C 0.38653 1.09887 0.83991
 C246 C 0.36185 1.11227 0.84876
 N247 N 0.35717 1.04520 0.78626
 N248 N 0.37855 1.03113 0.77847
 C249 C 0.37671 1.00898 0.75697
 C250 C 0.40077 0.99317 0.75084
 C251 C 0.39980 0.97152 0.72987
 C252 C 0.37467 0.96544 0.71446
 C253 C 0.35052 0.98143 0.72065
 C254 C 0.35149 1.00295 0.74177
 H255 H 0.31660 1.11319 0.84327
 H256 H 0.31439 1.07418 0.80723
 H257 H 0.40456 1.06672 0.81304
 H258 H 0.40677 1.10555 0.84895
 H259 H 0.42036 0.99768 0.76235
 H260 H 0.41887 0.95987 0.72552
 H261 H 0.33077 0.97719 0.70939
 H262 H 0.33259 1.01491 0.74611
 C263 C 0.87867 0.42984 0.13644
 C264 C 0.87846 0.45109 0.15775
 C265 C 0.88305 0.44414 0.18523
 C266 C 0.88838 0.41562 0.19120
 C267 C 0.88903 0.39443 0.16986
 C268 C 0.88398 0.40135 0.14233
 N269 N 0.88226 0.46635 0.20662
 N270 N 0.88125 0.46103 0.23197
 C271 C 0.88082 0.48324 0.25338
 C272 C 0.87419 0.47638 0.28000
 C273 C 0.87323 0.49763 0.30128
 C274 C 0.87944 0.52608 0.29632
 C275 C 0.88648 0.53287 0.26965
 C276 C 0.88697 0.51167 0.24829
 H277 H 0.87489 0.43557 0.11531
 H278 H 0.87443 0.47299 0.15290
 H279 H 0.89215 0.40977 0.21229
 H280 H 0.89305 0.37255 0.17478
 H281 H 0.86952 0.45453 0.28420
 H282 H 0.86801 0.49172 0.32167
 H283 H 0.89118 0.55462 0.26516
 H284 H 0.89228 0.51746 0.22789
 C285 C 0.33125 0.16189 -0.09935
 C286 C 0.31266 0.16266 -0.07784
 C287 C 0.30658 0.13780 -0.06467
 C288 C 0.31932 0.11197 -0.07329
 C289 C 0.33783 0.11116 -0.09488
 C290 C 0.34399 0.13613 -0.10810
 N291 N 0.28723 0.13932 -0.04287
 N292 N 0.28164 0.11782 -0.02923
 C293 C 0.26196 0.11934 -0.00771
 C294 C 0.25762 0.09520 0.00716
 C295 C 0.23822 0.09583 0.02798
 C296 C 0.22266 0.12070 0.03418
 C297 C 0.22723 0.14498 0.01927
 C298 C 0.24671 0.14434 -0.00146
 H299 H 0.33555 0.18135 -0.10937
 H300 H 0.30292 0.18267 -0.07142
 H301 H 0.31495 0.09245 -0.06342
 H302 H 0.34757 0.09112 -0.10116
 H303 H 0.26921 0.07578 0.00250
 H304 H 0.23513 0.07666 0.03884
 H305 H 0.21589 0.16458 0.02364
 H306 H 0.24971 0.16331 -0.01266
 C307 C 0.66542 0.65342 0.60822
 C308 C 0.68621 0.65457 0.58888
 C309 C 0.69584 0.62955 0.57537
 C310 C 0.68438 0.60318 0.58143
 C311 C 0.66363 0.60201 0.60081
 C312 C 0.65397 0.62712 0.61442
 N313 N 0.71720 0.63150 0.55569
 N314 N 0.72643 0.60964 0.54226
 C315 C 0.74778 0.61156 0.52257
 C316 C 0.75601 0.58679 0.50772
 C317 C 0.77649 0.58794 0.48806
 C318 C 0.78922 0.61401 0.48297
 C319 C 0.78109 0.63884 0.49815
 C320 C 0.76051 0.63766 0.51773
 H321 H 0.65846 0.67302 0.61861
 H322 H 0.69491 0.67501 0.58442
 H323 H 0.69145 0.58353 0.57124
 H324 H 0.65496 0.58153 0.60513
 H325 H 0.74642 0.56653 0.51134
 H326 H 0.78240 0.56835 0.47702
 H327 H 0.79024 0.65931 0.49467
 H328 H 0.75452 0.65712 0.52897
 C329 C 0.83336 0.38035 0.10756
 C330 C 0.81137 0.37878 0.08759
 C331 C 0.81695 0.37512 0.05956
 C332 C 0.84491 0.37253 0.05165
 C333 C 0.86691 0.37367 0.07165
 C334 C 0.86131 0.37779 0.09975
 N335 N 0.79389 0.37407 0.03967
 N336 N 0.79731 0.37539 0.01393
 C337 C 0.77408 0.37411 -0.00580
 C338 C 0.77839 0.38092 -0.03297
 C339 C 0.75598 0.38046 -0.05253
 C340 C 0.72895 0.37267 -0.04526
 C341 C 0.72477 0.36539 -0.01806
 C342 C 0.74710 0.36628 0.00157
 H343 H 0.82862 0.38331 0.12914
 H344 H 0.78991 0.38069 0.09392
 H345 H 0.84972 0.36953 0.03009
 H346 H 0.88834 0.37171 0.06526
 H347 H 0.79910 0.38690 -0.03892
 H348 H 0.75989 0.38592 -0.07339
 H349 H 0.70416 0.35952 -0.01178
 H350 H 0.74327 0.36082 0.02245
 C351 C 0.14416 0.91137 0.40546
 C352 C 0.16530 0.91204 0.42634
 C353 C 0.17804 0.88675 0.43439
 C354 C 0.16933 0.86061 0.42130
 C355 C 0.14809 0.85992 0.40054
 C356 C 0.13530 0.88528 0.39242
 N357 N 0.19958 0.88816 0.45593
 N358 N 0.21303 0.86613 0.46310
 C359 C 0.23442 0.86731 0.48477
 C360 C 0.24968 0.84259 0.49005
 C361 C 0.27077 0.84295 0.51096
 C362 C 0.27683 0.86812 0.52716
 C363 C 0.26131 0.89291 0.52191
 C364 C 0.24035 0.89255 0.50084
 H365 H 0.13446 0.93115 0.39964
 H366 H 0.17179 0.93231 0.43629
 H367 H 0.17885 0.84076 0.42714
 H368 H 0.14172 0.83960 0.39062
 H369 H 0.24522 0.82298 0.47787
 H370 H 0.28206 0.82340 0.51459
 H371 H 0.26556 0.91270 0.53381
 H372 H 0.22880 0.91195 0.49717
   
