data_POSCAR
  _audit_creation_date              2014-09-24
  _audit_creation_method            'ToBaCCo'
  _symmetry_space_group_name_H-M    'P1'
  _symmetry_Int_Tables_number       1
  _symmetry_cell_setting            triclinic
  loop_
  _symmetry_equiv_pos_as_xyz
 x,y,z
_cell_length_a 42.7072
_cell_length_b 36.4458
_cell_length_c 34.2329
_cell_angle_alpha 90.048400
_cell_angle_beta 90.170100
_cell_angle_gamma 84.690900
loop_
  _atom_site_label
  _atom_site_type_symbol
  _atom_site_fract_x
  _atom_site_fract_y
  _atom_site_fract_z
C1 C 1.23405 0.21696 0.20695
 C2 C 1.25038 0.24414 0.18149
 C3 C 1.26534 0.26945 0.20208
 C4 C 1.26254 0.26535 0.24668
 C5 C 1.26045 0.20006 0.23387
 C6 C 1.27535 0.22524 0.25463
 C7 C 1.21247 0.24134 0.23386
 C8 C 1.22697 0.26693 0.25436
 H9 H 1.25161 0.24188 0.14998
 H10 H 1.27454 0.28603 0.26345
 H11 H 1.26802 0.17103 0.23552
 H12 H 1.18759 0.23816 0.23643
 C13 C 0.73271 -0.27627 0.18924
 C14 C 0.74590 -0.24306 0.17027
 C15 C 0.75871 -0.21990 0.19587
 C16 C 0.75646 -0.23195 0.23902
 C17 C 0.76009 -0.29452 0.21372
 C18 C 0.77237 -0.27156 0.23986
 C19 C 0.70942 -0.25993 0.21991
 C20 C 0.72151 -0.23697 0.24601
 H21 H 0.74767 -0.24032 0.13887
 H22 H 0.76650 -0.21319 0.26029
 H23 H 0.76659 -0.32382 0.21484
 H24 H 0.68538 -0.26707 0.22147
 C25 C 0.72518 0.23105 -0.30777
 C26 C 0.74239 0.25827 -0.32752
 C27 C 0.76160 0.27830 -0.30210
 C28 C 0.75985 0.26637 -0.26101
 C29 C 0.74973 0.20733 -0.28809
 C30 C 0.76853 0.22625 -0.26107
 C31 C 0.70774 0.25108 -0.27692
 C32 C 0.72638 0.27066 -0.25080
 H33 H 0.74568 0.25808 -0.35883
 H34 H 0.77440 0.28147 -0.24119
 H35 H 0.75204 0.17774 -0.29174
 H36 H 0.68225 0.25377 -0.27627
 C37 C 1.22879 -0.26718 -0.30423
 C38 C 1.25527 -0.25073 -0.32632
 C39 C 1.27547 -0.23351 -0.30321
 C40 C 1.26721 -0.23433 -0.25936
 C41 C 1.24547 -0.29207 -0.27311
 C42 C 1.26610 -0.27556 -0.25012
 C43 C 1.21284 -0.23490 -0.28064
 C44 C 1.23270 -0.21778 -0.25715
 H45 H 1.25819 -0.25372 -0.35761
 H46 H 1.28325 -0.21985 -0.24049
 H47 H 1.24066 -0.32051 -0.26943
 H48 H 1.18776 -0.22798 -0.27906
 C49 C 0.23494 0.21751 0.79339
 C50 C 0.25316 0.24020 0.81789
 C51 C 0.26908 0.26739 0.79736
 C52 C 0.26368 0.26614 0.75505
 C53 C 0.21288 0.24489 0.76985
 C54 C 0.22773 0.27045 0.74990
 C55 C 0.25842 0.20076 0.76269
 C56 C 0.27344 0.22618 0.74264
 H57 H 0.25628 0.23450 0.84872
 H58 H 0.27492 0.28655 0.73738
 H59 H 0.18775 0.24306 0.76790
 H60 H 0.26312 0.17174 0.75667
 C61 C 0.72985 0.71983 0.81152
 C62 C 0.74942 0.74507 0.83019
 C63 C 0.76429 0.76873 0.80381
 C64 C 0.75591 0.76217 0.76256
 C65 C 0.70744 0.74268 0.78800
 C66 C 0.72118 0.76633 0.76076
 C67 C 0.74976 0.69983 0.78270
 C68 C 0.76502 0.72260 0.75590
 H69 H 0.75032 0.74761 0.86167
 H70 H 0.76704 0.78031 0.74220
 H71 H 0.68304 0.73697 0.78596
 H72 H 0.74740 0.67122 0.77601
 C73 C 0.72587 0.22484 0.30525
 C74 C 0.74955 0.24516 0.32867
 C75 C 0.76824 0.26514 0.30639
 C76 C 0.76247 0.26147 0.26205
 C77 C 0.70846 0.25448 0.27973
 C78 C 0.72736 0.27365 0.25726
 C79 C 0.74648 0.20072 0.27686
 C80 C 0.76515 0.21971 0.25361
 H81 H 0.75096 0.24439 0.36023
 H82 H 0.77758 0.27742 0.24348
 H83 H 0.68304 0.25937 0.27907
 H84 H 0.74709 0.17099 0.27597
 C85 C 0.23199 0.72615 0.30163
 C86 C 0.25839 0.74290 0.32410
 C87 C 0.27628 0.76402 0.30189
 C88 C 0.26612 0.76598 0.25837
 C89 C 0.21345 0.75924 0.28217
 C90 C 0.23091 0.77986 0.25908
 C91 C 0.24900 0.70505 0.26810
 C92 C 0.26645 0.72557 0.24504
 H93 H 0.26372 0.73738 0.35443
 H94 H 0.28025 0.78308 0.23978
 H95 H 0.18808 0.76396 0.28400
 H96 H 0.24766 0.67581 0.26359
 O97 O 1.03895 0.06074 0.06893
 O98 O 1.07539 0.02452 0.03331
 C99 C 1.06760 0.04946 0.05941
 O100 O 0.95505 -0.06557 0.06449
 O101 O 0.91961 -0.02799 0.02856
 C102 C 0.92665 -0.05386 0.05407
 O103 O 1.04246 -0.06746 0.07130
 O104 O 1.07704 -0.03736 0.03460
 C105 C 1.07061 -0.05984 0.06217
 O106 O 0.95148 0.06984 0.06275
 O107 O 0.91774 0.03692 0.02738
 C108 C 0.92361 0.06228 0.05236
 Zr109 Zr 0.99600 0.04461 0.04663
 O110 O 0.99425 0.03868 0.10795
 O111 O 0.99465 0.10253 0.05239
 Zr112 Zr 0.99854 -0.04794 0.04633
 O113 O 0.99480 -0.04983 0.10790
 O114 O 1.00193 -0.10597 0.04144
 O115 O 1.02529 -0.00348 0.05494
 O116 O 0.96954 0.00039 0.05273
 O117 O 0.95375 0.06874 -0.07210
 O118 O 0.91886 0.03661 -0.03807
 C119 C 0.92555 0.06152 -0.06308
 O120 O 1.04565 -0.06780 -0.07313
 O121 O 1.07885 -0.03732 -0.03429
 C122 C 1.07343 -0.06003 -0.06214
 O123 O 0.95770 -0.06623 -0.07246
 O124 O 0.92094 -0.02817 -0.03922
 C125 C 0.92894 -0.05445 -0.06393
 O126 O 1.04139 0.06008 -0.07219
 O127 O 1.07657 0.02420 -0.03430
 C128 C 1.06969 0.04883 -0.06100
 Zr129 Zr 0.99767 0.04463 -0.05197
 O130 O 0.99553 0.04362 -0.11379
 O131 O 0.99879 0.10259 -0.05224
 Zr132 Zr 1.00048 -0.04816 -0.05189
 O133 O 0.99820 -0.04895 -0.11366
 O134 O 1.00544 -0.10648 -0.05028
 Zr135 Zr 1.04523 -0.00473 -0.00136
 Zr136 Zr 0.95086 0.00170 -0.00426
 O137 O 0.97177 0.00012 -0.05994
 O138 O 1.02728 -0.00362 -0.05885
 O139 O 0.96863 0.05386 -0.00355
 O140 O 1.02736 -0.05662 -0.00184
 O141 O 1.02390 0.04965 -0.00188
 O142 O 0.97139 -0.05319 -0.00366
 H143 H 0.95499 0.00163 0.07529
 H144 H 1.04244 -0.07898 -0.00131
 H145 H 0.95813 0.00113 -0.08346
 H146 H 1.03724 0.07048 -0.00161
 H147 H 1.00198 -0.11553 0.06853
 H148 H 0.98897 -0.11429 -0.03267
 H149 H 1.01408 -0.03316 -0.12346
 H150 H 1.01484 0.02935 -0.12331
 H151 H 0.98136 0.11318 -0.03551
 H152 H 1.00071 0.11232 0.02690
 H153 H 0.99262 0.06399 0.11880
 H154 H 1.00682 -0.03009 0.11844
 O155 O 1.03805 0.56726 0.56886
 O156 O 1.07389 0.53002 0.53343
 C157 C 1.06650 0.55591 0.55858
 O158 O 0.95452 0.44027 0.57160
 O159 O 0.91829 0.47699 0.53593
 C160 C 0.92594 0.45144 0.56156
 O161 O 1.04222 0.43861 0.57470
 O162 O 1.07613 0.46778 0.53587
 C163 C 1.07017 0.44569 0.56400
 O164 O 0.95061 0.57676 0.56454
 O165 O 0.91633 0.54224 0.53218
 C166 C 0.92260 0.56891 0.55525
 Zr167 Zr 0.99475 0.55025 0.54892
 O168 O 0.99389 0.54556 0.61041
 O169 O 0.99369 0.60823 0.55350
 Zr170 Zr 0.99755 0.45801 0.55200
 O171 O 0.99447 0.46077 0.61366
 O172 O 1.00296 0.39970 0.55406
 O173 O 1.02444 0.50258 0.55809
 O174 O 0.96840 0.50634 0.55753
 O175 O 0.95048 0.57171 0.43181
 O176 O 0.91623 0.54013 0.46754
 C177 C 0.92250 0.56488 0.44220
 O178 O 1.04167 0.43411 0.43132
 O179 O 1.07562 0.46579 0.46758
 C180 C 1.06960 0.44205 0.44103
 O181 O 0.95438 0.43623 0.43529
 O182 O 0.91817 0.47513 0.46831
 C183 C 0.92584 0.44804 0.44453
 O184 O 1.03806 0.56281 0.42874
 O185 O 1.07393 0.52780 0.46655
 C186 C 1.06653 0.55203 0.43960
 Zr187 Zr 0.99472 0.54744 0.45026
 O188 O 0.99133 0.54365 0.38866
 O189 O 0.99576 0.60530 0.44669
 Zr190 Zr 0.99741 0.45495 0.45349
 O191 O 0.99377 0.45312 0.39186
 O192 O 1.00298 0.39665 0.45619
 Zr193 Zr 1.04311 0.49965 0.50110
 Zr194 Zr 0.94878 0.50585 0.50108
 O195 O 0.96850 0.50289 0.44473
 O196 O 1.02424 0.49912 0.44416
 O197 O 0.96664 0.55794 0.49929
 O198 O 1.02509 0.44786 0.50296
 O199 O 1.02167 0.55397 0.49937
 O200 O 0.96951 0.45103 0.50297
 H201 H 0.95406 0.50833 0.58029
 H202 H 1.04000 0.42536 0.50362
 H203 H 0.95427 0.50334 0.42179
 H204 H 1.03478 0.57499 0.49851
 H205 H 0.98592 0.39064 0.53813
 H206 H 0.98535 0.38861 0.47170
 H207 H 1.00982 0.46819 0.38111
 H208 H 1.01126 0.53090 0.37897
 H209 H 0.98006 0.61651 0.46542
 H210 H 0.99884 0.61757 0.52745
 H211 H 0.99236 0.57110 0.62062
 H212 H 1.01044 0.47685 0.62283
 O213 O 0.44881 -0.05532 0.43082
 O214 O 0.47930 -0.09752 0.46781
 C215 C 0.45811 -0.08869 0.44120
 O216 O 0.55578 0.04359 0.43425
 O217 O 0.52380 0.08591 0.46898
 C218 C 0.54652 0.07692 0.44480
 O219 O 0.55872 -0.05806 0.43020
 O220 O 0.53381 -0.09890 0.46756
 C221 C 0.55368 -0.09103 0.44079
 O222 O 0.44056 0.04696 0.43354
 O223 O 0.46777 0.08760 0.46852
 C224 C 0.44653 0.07995 0.44338
 Zr225 Zr 0.46131 -0.00475 0.45291
 O226 O 0.45860 -0.00646 0.39112
 O227 O 0.41197 -0.00404 0.45831
 Zr228 Zr 0.53982 -0.00681 0.45193
 O229 O 0.53682 -0.00333 0.39026
 O230 O 0.58956 -0.01170 0.44939
 O231 O 0.50253 -0.03909 0.44501
 O232 O 0.49868 0.02675 0.44511
 O233 O 0.44047 0.04744 0.56882
 O234 O 0.46788 0.08779 0.53399
 C235 C 0.44639 0.08035 0.55870
 O236 O 0.56089 -0.05787 0.57063
 O237 O 0.53488 -0.09913 0.53489
 C238 C 0.55558 -0.09098 0.56069
 O239 O 0.55839 0.04389 0.56521
 O240 O 0.52455 0.08617 0.53278
 C241 C 0.54841 0.07726 0.55547
 O242 O 0.44942 -0.05483 0.57327
 O243 O 0.47994 -0.09728 0.53672
 C244 C 0.45887 -0.08829 0.56324
 Zr245 Zr 0.46227 -0.00430 0.55134
 O246 O 0.46438 0.00005 0.61298
 O247 O 0.41294 -0.00618 0.55327
 Zr248 Zr 0.54053 -0.00640 0.55082
 O249 O 0.53579 -0.00169 0.61228
 O250 O 0.58987 -0.00974 0.55803
 Zr251 Zr 0.50454 -0.06129 0.50195
 Zr252 Zr 0.49786 0.04991 0.50138
 O253 O 0.49960 0.02746 0.55802
 O254 O 0.50354 -0.03885 0.55889
 O255 O 0.45364 0.02856 0.50194
 O256 O 0.54812 -0.03857 0.50137
 O257 O 0.45797 -0.03663 0.50227
 O258 O 0.54465 0.02563 0.50111
 H259 H 0.49796 0.04377 0.42253
 H260 H 0.56798 -0.05491 0.50087
 H261 H 0.49896 0.04481 0.58037
 H262 H 0.44026 -0.05236 0.50245
 H263 H 0.59707 0.00581 0.46861
 H264 H 0.59906 -0.01222 0.53162
 H265 H 0.53233 -0.02631 0.62270
 H266 H 0.47672 -0.02233 0.62295
 H267 H 0.40392 0.00897 0.53129
 H268 H 0.40352 -0.00436 0.43133
 H269 H 0.47224 0.01155 0.38043
 H270 H 0.52426 -0.02321 0.38121
 O271 O 0.53946 0.55910 0.07083
 O272 O 0.57562 0.52228 0.03543
 C273 C 0.56801 0.54803 0.06058
 O274 O 0.45658 0.43077 0.06981
 O275 O 0.42070 0.46719 0.03340
 C276 C 0.42813 0.44150 0.05885
 O277 O 0.54433 0.43047 0.07516
 O278 O 0.57811 0.46077 0.03733
 C279 C 0.57222 0.43831 0.06503
 O280 O 0.45185 0.56764 0.06556
 O281 O 0.41830 0.53307 0.03204
 C282 C 0.42405 0.55957 0.05554
 Zr283 Zr 0.49633 0.54180 0.05026
 O284 O 0.49496 0.53615 0.11163
 O285 O 0.49506 0.59969 0.05589
 Zr286 Zr 0.49970 0.44945 0.05180
 O287 O 0.49573 0.45134 0.11342
 O288 O 0.50565 0.39115 0.05318
 O289 O 0.52617 0.49425 0.05907
 O290 O 0.47018 0.49746 0.05765
 O291 O 0.45308 0.56438 -0.06753
 O292 O 0.41893 0.53192 -0.03272
 C293 C 0.42512 0.55704 -0.05760
 O294 O 0.54565 0.42739 -0.06790
 O295 O 0.57870 0.45882 -0.02999
 C296 C 0.57336 0.43538 -0.05707
 O297 O 0.45772 0.42871 -0.06559
 O298 O 0.42113 0.46740 -0.03288
 C299 C 0.42905 0.44043 -0.05665
 O300 O 0.54080 0.55657 -0.06882
 O301 O 0.57617 0.52082 -0.03118
 C302 C 0.56911 0.54570 -0.05740
 Zr303 Zr 0.49731 0.54020 -0.04874
 O304 O 0.49473 0.53662 -0.11042
 O305 O 0.49794 0.59812 -0.05212
 Zr306 Zr 0.50067 0.44762 -0.04685
 O307 O 0.49768 0.44706 -0.10858
 O308 O 0.50652 0.38931 -0.04580
 Zr309 Zr 0.54530 0.49226 0.00232
 Zr310 Zr 0.45131 0.49762 0.00080
 O311 O 0.47151 0.49545 -0.05532
 O312 O 0.52725 0.49221 -0.05504
 O313 O 0.46876 0.54994 0.00013
 O314 O 0.52774 0.44017 0.00310
 O315 O 0.52355 0.54644 0.00109
 O316 O 0.47237 0.44291 0.00210
 H317 H 0.45548 0.49885 0.08006
 H318 H 0.54276 0.41777 0.00384
 H319 H 0.45748 0.49606 -0.07846
 H320 H 0.53642 0.56769 0.00081
 H321 H 0.48908 0.38206 0.03648
 H322 H 0.48937 0.38084 -0.02975
 H323 H 0.51452 0.46132 -0.11870
 H324 H 0.51509 0.52475 -0.11982
 H325 H 0.48224 0.60913 -0.03328
 H326 H 0.49858 0.60952 0.02957
 H327 H 0.49339 0.56153 0.12227
 H328 H 0.51149 0.46739 0.12324
 C329 C 1.17356 0.18321 0.13612
 C330 C 1.17564 0.14536 0.14360
 C331 C 1.19773 0.12996 0.17054
 C332 C 1.21735 0.15234 0.19047
 C333 C 1.21539 0.19070 0.18349
 C334 C 1.19319 0.20566 0.15589
 C335 C 1.15396 0.12271 0.12522
 C336 C 1.13516 0.10431 0.11025
 C337 C 1.11240 0.08374 0.09288
 C338 C 1.09230 0.06730 0.07786
 H339 H 1.15631 0.19556 0.11560
 H340 H 1.19929 0.10071 0.17687
 H341 H 1.23304 0.13919 0.21202
 H342 H 1.19051 0.23504 0.15033
 C343 C 1.15721 0.69752 0.64418
 C344 C 1.17061 0.66394 0.62939
 C345 C 1.20303 0.65489 0.63229
 C346 C 1.22173 0.67851 0.65182
 C347 C 1.20823 0.71123 0.66943
 C348 C 1.17582 0.72116 0.66380
 C349 C 1.15066 0.63816 0.61325
 C350 C 1.13296 0.61714 0.60075
 C351 C 1.11104 0.59378 0.58662
 C352 C 1.09124 0.57538 0.57427
 H353 H 1.13215 0.70502 0.64145
 H354 H 1.21370 0.62911 0.62053
 H355 H 1.24668 0.67043 0.65478
 H356 H 1.16428 0.74658 0.67485
 C357 C 0.66732 0.16377 0.66424
 C358 C 0.65428 0.17939 0.63001
 C359 C 0.66577 0.21094 0.61455
 C360 C 0.69000 0.22721 0.63363
 C361 C 0.70379 0.21166 0.66832
 C362 C 0.69145 0.17984 0.68340
 C363 C 0.62869 0.16300 0.61159
 C364 C 0.60777 0.14736 0.59744
 C365 C 0.58459 0.12630 0.58206
 C366 C 0.56664 0.10551 0.56963
 H367 H 0.65828 0.13958 0.67675
 H368 H 0.65546 0.22353 0.58828
 H369 H 0.69670 0.25283 0.62181
 H370 H 0.69956 0.16804 0.71106
 C371 C 0.66938 0.69077 0.12312
 C372 C 0.67835 0.65299 0.12081
 C373 C 0.70771 0.63885 0.13495
 C374 C 0.72704 0.66193 0.15426
 C375 C 0.71677 0.69942 0.16050
 C376 C 0.68862 0.71390 0.14240
 C377 C 0.65623 0.62846 0.10739
 C378 C 0.63686 0.60838 0.09747
 C379 C 0.61338 0.58586 0.08620
 C380 C 0.59280 0.56777 0.07559
 H381 H 0.64684 0.70210 0.11170
 H382 H 0.71513 0.60969 0.13248
 H383 H 0.74928 0.64960 0.16510
 H384 H 0.68049 0.74278 0.14560
 C385 C 0.82623 -0.16016 0.18323
 C386 C 0.81786 -0.14190 0.14815
 C387 C 0.78874 -0.14655 0.13091
 C388 C 0.76870 -0.17040 0.14766
 C389 C 0.77752 -0.19015 0.18191
 C390 C 0.80614 -0.18402 0.20011
 C391 C 0.83995 -0.12064 0.12828
 C392 C 0.85875 -0.10391 0.11090
 C393 C 0.88138 -0.08540 0.09029
 C394 C 0.90146 -0.07051 0.07316
 H395 H 0.84876 -0.15696 0.19681
 H396 H 0.78193 -0.13265 0.10382
 H397 H 0.74666 -0.17420 0.13318
 H398 H 0.81381 -0.19912 0.22617
 C399 C 0.79428 0.34602 0.63054
 C400 C 0.82084 0.35496 0.65098
 C401 C 0.82724 0.33974 0.68800
 C402 C 0.80750 0.31509 0.70419
 C403 C 0.78103 0.30483 0.68333
 C404 C 0.77461 0.32140 0.64643
 C405 C 0.84217 0.37830 0.63287
 C406 C 0.86019 0.39692 0.61670
 C407 C 0.88191 0.41752 0.59717
 C408 C 0.90133 0.43385 0.58059
 H409 H 0.78887 0.35783 0.60200
 H410 H 0.84791 0.34630 0.70405
 H411 H 0.81430 0.30297 0.73207
 H412 H 0.75400 0.31608 0.62968
 C413 C 0.32833 -0.18675 0.62739
 C414 C 0.35658 -0.18843 0.64836
 C415 C 0.35819 -0.20413 0.68576
 C416 C 0.33170 -0.21840 0.70187
 C417 C 0.30331 -0.21713 0.68072
 C418 C 0.30193 -0.20094 0.64337
 C419 C 0.38317 -0.17247 0.63165
 C420 C 0.40397 -0.15731 0.61647
 C421 C 0.42621 -0.13686 0.59784
 C422 C 0.44282 -0.11649 0.58178
 H423 H 0.32662 -0.17422 0.59867
 H424 H 0.37986 -0.20534 0.70242
 H425 H 0.33364 -0.23105 0.73048
 H426 H 0.28033 -0.19888 0.62656
 C427 C 0.29488 0.33583 0.12828
 C428 C 0.32280 0.34453 0.14607
 C429 C 0.33150 0.32938 0.18250
 C430 C 0.31254 0.30541 0.20097
 C431 C 0.28462 0.29619 0.18317
 C432 C 0.27587 0.31183 0.14670
 C433 C 0.34332 0.36766 0.12638
 C434 C 0.36133 0.38619 0.11018
 C435 C 0.38346 0.40677 0.09166
 C436 C 0.40331 0.42328 0.07634
 H437 H 0.28798 0.34726 0.09999
 H438 H 0.35325 0.33559 0.19633
 H439 H 0.32030 0.29326 0.22859
 H440 H 0.25436 0.30550 0.13243
 C441 C 0.81570 0.20183 -0.17039
 C442 C 0.82685 0.16529 -0.17834
 C443 C 0.82032 0.14990 -0.21448
 C444 C 0.80203 0.17038 -0.24211
 C445 C 0.78960 0.20697 -0.23428
 C446 C 0.79738 0.22257 -0.19806
 C447 C 0.84533 0.14338 -0.14995
 C448 C 0.86143 0.12428 -0.12744
 C449 C 0.88161 0.10163 -0.10273
 C450 C 0.90050 0.08271 -0.08341
 H451 H 0.82071 0.21416 -0.14252
 H452 H 0.82934 0.12187 -0.22135
 H453 H 0.79828 0.15732 -0.26987
 H454 H 0.78809 0.25000 -0.18962
 C455 C 0.80508 0.70241 0.33969
 C456 C 0.82842 0.67440 0.32983
 C457 C 0.83565 0.66726 0.29058
 C458 C 0.81862 0.68667 0.26121
 C459 C 0.79415 0.71358 0.27073
 C460 C 0.78807 0.72211 0.31019
 C461 C 0.84452 0.65167 0.35927
 C462 C 0.85926 0.63135 0.38178
 C463 C 0.87854 0.60707 0.40556
 C464 C 0.89725 0.58691 0.42362
 H465 H 0.79938 0.70820 0.37003
 H466 H 0.85381 0.64583 0.28263
 H467 H 0.82377 0.67973 0.23098
 H468 H 0.76905 0.74243 0.31820
 C469 C 0.32975 0.21855 0.34265
 C470 C 0.35115 0.18883 0.33193
 C471 C 0.34900 0.17287 0.29496
 C472 C 0.32495 0.18557 0.26935
 C473 C 0.30258 0.21443 0.28038
 C474 C 0.30569 0.23146 0.31685
 C475 C 0.37351 0.17202 0.35959
 C476 C 0.39163 0.15507 0.38152
 C477 C 0.41195 0.13198 0.40539
 C478 C 0.42836 0.10959 0.42392
 H479 H 0.33105 0.23095 0.37131
 H480 H 0.36539 0.14982 0.28634
 H481 H 0.32356 0.17240 0.24111
 H482 H 0.28879 0.25357 0.32616
 C483 C 0.31262 0.64504 -0.19856
 C484 C 0.32243 0.66197 -0.16466
 C485 C 0.31473 0.69977 -0.15891
 C486 C 0.29678 0.72045 -0.18689
 C487 C 0.28616 0.70342 -0.22072
 C488 C 0.29479 0.66553 -0.22641
 C489 C 0.34168 0.64037 -0.13712
 C490 C 0.35865 0.62110 -0.11594
 C491 C 0.37990 0.59802 -0.09341
 C492 C 0.39961 0.57867 -0.07604
 H493 H 0.31899 0.61596 -0.20366
 H494 H 0.32264 0.71323 -0.13295
 H495 H 0.29105 0.74951 -0.18166
 H496 H 0.28819 0.65158 -0.25268
 C497 C 1.20961 -0.17073 -0.16171
 C498 C 1.18613 -0.14395 -0.17442
 C499 C 1.18091 -0.13855 -0.21446
 C500 C 1.19782 -0.16105 -0.24159
 C501 C 1.22025 -0.18925 -0.22905
 C502 C 1.22671 -0.19321 -0.18895
 C503 C 1.16493 -0.12478 -0.14695
 C504 C 1.14559 -0.10944 -0.12539
 C505 C 1.12147 -0.09207 -0.10178
 C506 C 1.09993 -0.07746 -0.08297
 H507 H 1.21366 -0.17544 -0.13079
 H508 H 1.16271 -0.11809 -0.22469
 H509 H 1.19236 -0.15759 -0.27237
 H510 H 1.24328 -0.21523 -0.17853
 C511 C 1.20564 0.33133 0.33959
 C512 C 1.17441 0.34346 0.33056
 C513 C 1.16091 0.33187 0.29595
 C514 C 1.17823 0.30761 0.27089
 C515 C 1.20938 0.29435 0.28014
 C516 C 1.22310 0.30706 0.31441
 C517 C 1.15542 0.36660 0.35709
 C518 C 1.13796 0.38521 0.37830
 C519 C 1.11577 0.40604 0.40177
 C520 C 1.09541 0.42298 0.42051
 H521 H 1.21633 0.34016 0.36632
 H522 H 1.13681 0.34126 0.28852
 H523 H 1.16717 0.29929 0.24423
 H524 H 1.24694 0.29759 0.32239
 C525 C 0.68216 -0.16967 0.31912
 C526 C 0.66069 -0.19144 0.33668
 C527 C 0.66126 -0.22874 0.32706
 C528 C 0.68218 -0.24387 0.29885
 C529 C 0.70275 -0.22182 0.27963
 C530 C 0.70327 -0.18486 0.29086
 C531 C 0.63659 -0.17497 0.36229
 C532 C 0.61603 -0.16008 0.38244
 C533 C 0.59231 -0.14015 0.40459
 C534 C 0.57332 -0.11987 0.42210
 H535 H 0.68190 -0.14069 0.32634
 H536 H 0.64492 -0.24591 0.34052
 H537 H 0.68178 -0.27270 0.29138
 H538 H 0.71886 -0.16736 0.27650
 C539 C 0.71107 0.34448 -0.17497
 C540 C 0.68151 0.33650 -0.16155
 C541 C 0.66827 0.30549 -0.17552
 C542 C 0.68363 0.28335 -0.20394
 C543 C 0.71280 0.29168 -0.21932
 C544 C 0.72685 0.32200 -0.20338
 C545 C 0.66299 0.36086 -0.13575
 C546 C 0.64486 0.37978 -0.11567
 C547 C 0.62134 0.40028 -0.09390
 C548 C 0.59990 0.41671 -0.07654
 H549 H 0.72147 0.36863 -0.16441
 H550 H 0.64556 0.29880 -0.16505
 H551 H 0.67248 0.25938 -0.21334
 H552 H 0.74889 0.33009 -0.21436
 C553 C 1.17349 0.18337 -0.13780
 C554 C 1.17811 0.14513 -0.14225
 C555 C 1.20252 0.12968 -0.16584
 C556 C 1.22172 0.15235 -0.18588
 C557 C 1.21655 0.19112 -0.18297
 C558 C 1.19262 0.20611 -0.15773
 C559 C 1.15683 0.12200 -0.12407
 C560 C 1.13817 0.10335 -0.10942
 C561 C 1.11532 0.08268 -0.09264
 C562 C 1.09494 0.06634 -0.07832
 H563 H 1.15469 0.19568 -0.11950
 H564 H 1.20643 0.10005 -0.16926
 H565 H 1.24017 0.13891 -0.20358
 H566 H 1.18826 0.23568 -0.15425
 C567 C 1.16781 0.66196 0.31947
 C568 C 1.17137 0.65354 0.35909
 C569 C 1.19418 0.66947 0.38118
 C570 C 1.21371 0.69343 0.36357
 C571 C 1.21066 0.70178 0.32340
 C572 C 1.18718 0.68584 0.30184
 C573 C 1.15098 0.62922 0.37699
 C574 C 1.13309 0.60943 0.39135
 C575 C 1.11109 0.58744 0.40783
 C576 C 1.09129 0.57018 0.42206
 H577 H 1.15005 0.65004 0.30213
 H578 H 1.19687 0.66338 0.41205
 H579 H 1.23094 0.70491 0.38182
 H580 H 1.18408 0.69168 0.27097
 C581 C 0.66420 0.15993 0.33301
 C582 C 0.65177 0.17644 0.36712
 C583 C 0.66447 0.20736 0.38248
 C584 C 0.68939 0.22201 0.36342
 C585 C 0.70242 0.20544 0.32913
 C586 C 0.68900 0.17451 0.31387
 C587 C 0.62590 0.16124 0.38584
 C588 C 0.60488 0.14630 0.40042
 C589 C 0.58183 0.12570 0.41648
 C590 C 0.56418 0.10507 0.42963
 H591 H 0.65427 0.13616 0.32068
 H592 H 0.65477 0.22057 0.40871
 H593 H 0.69768 0.24706 0.37486
 H594 H 0.69666 0.16222 0.28637
 C595 C 0.66936 0.68746 -0.12030
 C596 C 0.67913 0.64990 -0.11791
 C597 C 0.70838 0.63642 -0.13267
 C598 C 0.72656 0.65985 -0.15308
 C599 C 0.71499 0.69689 -0.16056
 C600 C 0.68744 0.71095 -0.14071
 C601 C 0.65770 0.62492 -0.10402
 C602 C 0.63856 0.60472 -0.09397
 C603 C 0.61504 0.58240 -0.08277
 C604 C 0.59423 0.56473 -0.07229
 H605 H 0.64702 0.69830 -0.10807
 H606 H 0.71654 0.60750 -0.12989
 H607 H 0.74902 0.64828 -0.16417
 H608 H 0.67875 0.73975 -0.14311
 C609 C 0.81855 -0.18452 -0.13037
 C610 C 0.82512 -0.15411 -0.15252
 C611 C 0.81210 -0.14938 -0.19002
 C612 C 0.79231 -0.17484 -0.20501
 C613 C 0.78498 -0.20548 -0.18254
 C614 C 0.79893 -0.20981 -0.14504
 C615 C 0.84576 -0.12870 -0.13618
 C616 C 0.86355 -0.10925 -0.12052
 C617 C 0.88517 -0.08835 -0.10082
 C618 C 0.90451 -0.07205 -0.08375
 H619 H 0.82885 -0.18893 -0.10159
 H620 H 0.81705 -0.12590 -0.20759
 H621 H 0.78202 -0.16931 -0.23351
 H622 H 0.79584 -0.23343 -0.12691
 C623 C 0.79752 0.33639 0.37489
 C624 C 0.82587 0.34336 0.35735
 C625 C 0.83540 0.32497 0.32280
 C626 C 0.81670 0.29947 0.30602
 C627 C 0.78840 0.29192 0.32383
 C628 C 0.77890 0.31098 0.35826
 C629 C 0.84550 0.36851 0.37569
 C630 C 0.86220 0.38884 0.39173
 C631 C 0.88265 0.41143 0.41078
 C632 C 0.90143 0.42922 0.42668
 H633 H 0.78984 0.35053 0.40152
 H634 H 0.85737 0.33010 0.30902
 H635 H 0.82465 0.28527 0.27958
 H636 H 0.75682 0.30665 0.37218
 C637 C 0.32875 -0.19240 0.37541
 C638 C 0.35543 -0.18758 0.35311
 C639 C 0.35577 -0.19701 0.31342
 C640 C 0.32981 -0.21187 0.29639
 C641 C 0.30319 -0.21780 0.31886
 C642 C 0.30288 -0.20721 0.35851
 C643 C 0.38166 -0.17150 0.37099
 C644 C 0.40240 -0.15666 0.38696
 C645 C 0.42486 -0.13679 0.40630
 C646 C 0.44178 -0.11684 0.42270
 H647 H 0.32789 -0.18461 0.40597
 H648 H 0.37612 -0.19296 0.29564
 H649 H 0.33099 -0.21926 0.26590
 H650 H 0.28254 -0.21009 0.37663
 C651 C 0.30429 0.32221 -0.12364
 C652 C 0.32539 0.34137 -0.14484
 C653 C 0.32760 0.33663 -0.18522
 C654 C 0.30905 0.31258 -0.20442
 C655 C 0.28777 0.29242 -0.18354
 C656 C 0.28568 0.29809 -0.14265
 C657 C 0.34566 0.36482 -0.12508
 C658 C 0.36337 0.38375 -0.10880
 C659 C 0.38508 0.40489 -0.09012
 C660 C 0.40458 0.42185 -0.07457
 H661 H 0.30225 0.32585 -0.09230
 H662 H 0.34407 0.35117 -0.20192
 H663 H 0.31272 0.30938 -0.23539
 H664 H 0.26919 0.28483 -0.12487
 C665 C 1.20697 -0.16726 0.16674
 C666 C 1.17996 -0.14576 0.17939
 C667 C 1.17175 -0.14585 0.21894
 C668 C 1.18949 -0.16849 0.24535
 C669 C 1.21574 -0.19150 0.23261
 C670 C 1.22488 -0.18987 0.19326
 C671 C 1.15912 -0.12588 0.15176
 C672 C 1.14035 -0.11003 0.12963
 C673 C 1.11707 -0.09215 0.10486
 C674 C 1.09630 -0.07730 0.08476
 H675 H 1.21352 -0.16757 0.13619
 H676 H 1.15097 -0.12937 0.22916
 H677 H 1.18210 -0.16890 0.27557
 H678 H 1.24477 -0.20757 0.18253
 C679 C 1.20570 0.33269 0.66350
 C680 C 1.17590 0.34833 0.67475
 C681 C 1.16376 0.33972 0.71117
 C682 C 1.18096 0.31499 0.73594
 C683 C 1.21059 0.29849 0.72461
 C684 C 1.22304 0.30795 0.68839
 C685 C 1.15667 0.37150 0.64844
 C686 C 1.13900 0.39003 0.62734
 C687 C 1.11659 0.41063 0.60387
 C688 C 1.09608 0.42722 0.58498
 H689 H 1.21520 0.33896 0.63523
 H690 H 1.14070 0.35162 0.72012
 H691 H 1.17098 0.30858 0.76389
 H692 H 1.24562 0.29529 0.67869
 C693 C 0.69292 -0.19016 0.66608
 C694 C 0.66059 -0.18406 0.67351
 C695 C 0.64931 -0.19063 0.71076
 C696 C 0.66970 -0.20504 0.73985
 C697 C 0.70211 -0.21379 0.73243
 C698 C 0.71362 -0.20453 0.69544
 C699 C 0.63852 -0.16997 0.64398
 C700 C 0.61874 -0.15688 0.62147
 C701 C 0.59513 -0.13869 0.59756
 C702 C 0.57582 -0.11941 0.57930
 H703 H 0.70206 -0.18441 0.63746
 H704 H 0.62453 -0.18485 0.71735
 H705 H 0.65974 -0.20911 0.76837
 H706 H 0.73811 -0.21012 0.68804
 C707 C 0.70831 0.32778 0.16497
 C708 C 0.68248 0.35138 0.17740
 C709 C 0.67370 0.35212 0.21670
 C710 C 0.68952 0.32801 0.24318
 C711 C 0.71438 0.30291 0.23062
 C712 C 0.72442 0.30375 0.19165
 C713 C 0.66247 0.37180 0.14977
 C714 C 0.64364 0.38799 0.12827
 C715 C 0.61980 0.40601 0.10493
 C716 C 0.59839 0.42089 0.08622
 H717 H 0.71511 0.32685 0.13450
 H718 H 0.65370 0.37020 0.22657
 H719 H 0.68165 0.32805 0.27324
 H720 H 0.74342 0.28441 0.18141
 C721 C 0.79113 0.15347 0.17197
 C722 C 0.82077 0.16438 0.16288
 C723 C 0.83183 0.19449 0.18241
 C724 C 0.81355 0.21311 0.21149
 C725 C 0.78415 0.20155 0.22157
 C726 C 0.77293 0.17191 0.20098
 C727 C 0.84045 0.14315 0.13530
 C728 C 0.85740 0.12452 0.11343
 C729 C 0.87841 0.10226 0.08958
 C730 C 0.89794 0.08351 0.07119
 H731 H 0.78226 0.13031 0.15705
 H732 H 0.85481 0.20311 0.17572
 H733 H 0.82283 0.23573 0.22683
 H734 H 0.75004 0.16288 0.20733
 C735 C 0.81482 0.65218 0.69870
 C736 C 0.82159 0.67175 0.66537
 C737 C 0.81125 0.70923 0.66253
 C738 C 0.79334 0.72677 0.69269
 C739 C 0.78501 0.70681 0.72593
 C740 C 0.79707 0.66937 0.72862
 C741 C 0.84036 0.65274 0.63551
 C742 C 0.85696 0.63445 0.61309
 C743 C 0.87779 0.61144 0.58992
 C744 C 0.89721 0.59157 0.57270
 H745 H 0.82349 0.62341 0.70179
 H746 H 0.81691 0.72485 0.63700
 H747 H 0.78563 0.75552 0.68884
 H748 H 0.79368 0.65294 0.75426
 C749 C 0.31407 0.17482 0.65830
 C750 C 0.34282 0.19033 0.65729
 C751 C 0.34803 0.21952 0.68241
 C752 C 0.32487 0.23233 0.70930
 C753 C 0.29652 0.21571 0.71155
 C754 C 0.29107 0.18739 0.68521
 C755 C 0.36766 0.17332 0.63324
 C756 C 0.38762 0.15613 0.61411
 C757 C 0.40973 0.13275 0.59310
 C758 C 0.42731 0.11015 0.57653
 H759 H 0.30981 0.15213 0.63911
 H760 H 0.37032 0.23150 0.68214
 H761 H 0.32973 0.25392 0.72951
 H762 H 0.26923 0.17450 0.68594
 C763 C 0.28824 0.66261 0.15955
 C764 C 0.31893 0.67093 0.15200
 C765 C 0.33132 0.69977 0.17220
 C766 C 0.31359 0.71910 0.20114
 C767 C 0.28346 0.70944 0.21051
 C768 C 0.27055 0.68185 0.18845
 C769 C 0.33877 0.64739 0.12685
 C770 C 0.35627 0.62679 0.10770
 C771 C 0.37808 0.60242 0.08748
 C772 C 0.39818 0.58216 0.07197
 H773 H 0.27842 0.64032 0.14416
 H774 H 0.35516 0.70627 0.16674
 H775 H 0.32414 0.74010 0.21746
 H776 H 0.24706 0.67437 0.19433
   
