data_POSCAR
  _audit_creation_date              2014-09-24
  _audit_creation_method            'ToBaCCo'
  _symmetry_space_group_name_H-M    'P1'
  _symmetry_Int_Tables_number       1
  _symmetry_cell_setting            triclinic
  loop_
  _symmetry_equiv_pos_as_xyz
 x,y,z
_cell_length_a 47.8629
_cell_length_b 44.0065
_cell_length_c 41.3027
_cell_angle_alpha 89.941500
_cell_angle_beta 89.996900
_cell_angle_gamma 89.851400
loop_
  _atom_site_label
  _atom_site_type_symbol
  _atom_site_fract_x
  _atom_site_fract_y
  _atom_site_fract_z
N1 N 0.19556 1.25238 0.16145
 N2 N 0.17757 1.25262 0.18544
 C3 C 0.15768 1.27351 0.17945
 C4 C 0.16331 1.28724 0.14982
 C5 C 0.18775 1.27318 0.13929
 H6 H 0.13999 1.27746 0.19515
 H7 H 0.19872 1.27695 0.11680
 Cu8 Cu 0.18042 1.22400 0.22103
 Cu9 Cu 0.22651 1.22352 0.15961
 Cu10 Cu 0.22578 1.16577 0.21663
 N11 N 0.17660 1.18843 0.24843
 N12 N 0.19437 1.16572 0.24670
 C13 C 0.18601 1.14346 0.26682
 C14 C 0.16141 1.15255 0.28200
 C15 C 0.15627 1.18145 0.26964
 H16 H 0.19672 1.12195 0.26928
 H17 H 0.13868 1.19613 0.27471
 N18 N 0.25556 1.17006 0.18396
 N19 N 0.25579 1.19197 0.16213
 C20 C 0.27764 1.18765 0.14209
 C21 C 0.29188 1.16170 0.15169
 C22 C 0.27727 1.15127 0.17842
 H23 H 0.28240 1.20196 0.12157
 H24 H 0.28140 1.13075 0.19201
 H25 H 0.20339 1.19046 0.18280
 H26 H 0.22892 1.21208 0.20815
 N27 N 0.80395 0.74719 0.16348
 N28 N 0.82202 0.74713 0.18740
 C29 C 0.84188 0.72618 0.18151
 C30 C 0.83605 0.71222 0.15217
 C31 C 0.81167 0.72619 0.14154
 H32 H 0.85969 0.72225 0.19704
 H33 H 0.80082 0.72226 0.11900
 Cu34 Cu 0.81932 0.77604 0.22266
 Cu35 Cu 0.77309 0.77616 0.16138
 Cu36 Cu 0.77407 0.83434 0.21778
 N37 N 0.82324 0.81176 0.24973
 N38 N 0.80551 0.83450 0.24783
 C39 C 0.81391 0.85684 0.26777
 C40 C 0.83848 0.84776 0.28303
 C41 C 0.84357 0.81879 0.27089
 H42 H 0.80324 0.87838 0.27007
 H43 H 0.86113 0.80410 0.27609
 N44 N 0.74425 0.82992 0.18520
 N45 N 0.74392 0.80785 0.16360
 C46 C 0.72206 0.81210 0.14356
 C47 C 0.70792 0.83818 0.15289
 C48 C 0.72260 0.84876 0.17949
 H49 H 0.71723 0.79765 0.12319
 H50 H 0.71855 0.86939 0.19286
 H51 H 0.79633 0.80935 0.18414
 H52 H 0.77081 0.78799 0.20980
 N53 N 0.80314 1.25318 -0.16221
 N54 N 0.82130 1.25344 -0.18605
 C55 C 0.84097 1.27445 -0.17993
 C56 C 0.83490 1.28816 -0.15052
 C57 C 0.81062 1.27405 -0.14008
 H58 H 0.85896 1.27843 -0.19515
 H59 H 0.79955 1.27803 -0.11767
 Cu60 Cu 0.81897 1.22470 -0.22151
 Cu61 Cu 0.77239 1.22424 -0.16052
 Cu62 Cu 0.77387 1.16644 -0.21731
 N63 N 0.82314 1.18909 -0.24876
 N64 N 0.80545 1.16640 -0.24713
 C65 C 0.81397 1.14417 -0.26718
 C66 C 0.83859 1.15324 -0.28223
 C67 C 0.84359 1.18212 -0.26985
 H68 H 0.80334 1.12268 -0.26970
 H69 H 0.86112 1.19679 -0.27487
 N70 N 0.74386 1.17069 -0.18491
 N71 N 0.74335 1.19262 -0.16316
 C72 C 0.72143 1.18826 -0.14326
 C73 C 0.70744 1.16225 -0.15286
 C74 C 0.72226 1.15183 -0.17946
 H75 H 0.71646 1.20257 -0.12281
 H76 H 0.71837 1.13129 -0.19299
 H77 H 0.79590 1.19119 -0.18337
 H78 H 0.77044 1.21275 -0.20905
 N79 N 0.19678 0.74698 -0.16211
 N80 N 0.17857 0.74684 -0.18590
 C81 C 0.15888 0.72585 -0.17977
 C82 C 0.16498 0.71202 -0.15041
 C83 C 0.18930 0.72604 -0.14000
 H84 H 0.14085 0.72196 -0.19495
 H85 H 0.20040 0.72194 -0.11763
 Cu86 Cu 0.18091 0.77568 -0.22132
 Cu87 Cu 0.22758 0.77586 -0.16045
 Cu88 Cu 0.22616 0.83379 -0.21723
 N89 N 0.17681 0.81132 -0.24861
 N90 N 0.19456 0.83396 -0.24702
 C91 C 0.18606 0.85624 -0.26709
 C92 C 0.16142 0.84723 -0.28210
 C93 C 0.15637 0.81836 -0.26969
 H94 H 0.19674 0.87769 -0.26965
 H95 H 0.13879 0.80374 -0.27467
 N96 N 0.25618 0.82941 -0.18485
 N97 N 0.25666 0.80743 -0.16310
 C98 C 0.27859 0.81172 -0.14321
 C99 C 0.29262 0.83772 -0.15281
 C100 C 0.27780 0.84822 -0.17940
 H101 H 0.28354 0.79736 -0.12276
 H102 H 0.28171 0.86880 -0.19292
 H103 H 0.20413 0.80905 -0.18323
 H104 H 0.22949 0.78747 -0.20897
 C105 C 0.47006 0.97756 -0.01812
 C106 C 0.48470 0.99981 -0.00072
 C107 C 0.46994 1.02205 0.01667
 C108 C 0.44068 1.02185 0.01689
 C109 C 0.42618 0.99979 -0.00072
 C110 C 0.44080 0.97774 -0.01834
 C111 C 0.51543 0.99981 -0.00070
 C112 C 0.53009 1.02206 -0.01814
 C113 C 0.55935 1.02189 -0.01830
 C114 C 0.57395 0.99986 -0.00059
 C115 C 0.55944 0.97780 0.01706
 C116 C 0.53018 0.97758 0.01679
 H117 H 0.48142 0.96046 -0.03172
 H118 H 0.48120 1.03916 0.03027
 H119 H 0.51874 1.03914 -0.03181
 H120 H 0.51890 0.96049 0.03042
 H121 H 0.40352 0.99978 -0.00072
 H122 H 0.59662 0.99989 -0.00054
 C123 C -0.02134 0.46719 0.98383
 C124 C 0.00004 0.48309 0.99970
 C125 C 0.02137 0.46697 1.01557
 C126 C 0.02115 0.43515 1.01586
 C127 C -0.00004 0.41939 0.99970
 C128 C -0.02120 0.43536 0.98354
 C129 C 0.00005 0.51655 0.99977
 C130 C -0.02121 0.53259 1.01583
 C131 C -0.02099 0.56441 1.01626
 C132 C 0.00014 0.58026 1.00004
 C133 C 0.02123 0.56438 0.98369
 C134 C 0.02137 0.53255 0.98385
 H135 H -0.03774 0.47957 0.97137
 H136 H 0.03779 0.47918 1.02808
 H137 H -0.03758 0.52031 1.02837
 H138 H 0.03772 0.52024 0.97124
 H139 H -0.00009 0.39474 0.99972
 H140 H 0.00019 0.60490 1.00017
 C141 C 0.97981 -0.01618 0.46519
 C142 C 1.00006 0.00038 0.48218
 C143 C 1.02031 0.01690 0.46510
 C144 C 1.02016 0.01707 0.43119
 C145 C 1.00005 0.00030 0.41432
 C146 C 0.97995 -0.01644 0.43128
 C147 C 1.00007 0.00040 0.51778
 C148 C 1.02026 -0.01633 0.53483
 C149 C 1.02010 -0.01655 0.56874
 C150 C 1.00004 0.00039 0.58564
 C151 C 0.98000 0.01734 0.56869
 C152 C 0.97986 0.01713 0.53478
 H153 H 0.96423 -0.02909 0.47836
 H154 H 1.03589 0.02984 0.47820
 H155 H 1.03581 -0.02940 0.52172
 H156 H 0.96432 0.03020 0.52163
 H157 H 1.00005 0.00026 0.38805
 H158 H 1.00003 0.00038 0.61190
 C159 C 0.13785 0.34025 1.08540
 C160 C 0.11287 0.35061 1.09904
 C161 C 0.10513 0.34087 1.12996
 C162 C 0.12199 0.32040 1.14700
 C163 C 0.14699 0.30912 1.13331
 C164 C 0.15482 0.31978 1.10234
 C165 C 0.09454 0.37023 1.08089
 C166 C 0.07860 0.38605 1.06577
 C167 C 0.05928 0.40386 1.04820
 C168 C 0.04221 0.41846 1.03335
 H169 H 0.14404 0.34766 1.06143
 H170 H 0.08580 0.34876 1.14078
 H171 H 0.11500 0.31333 1.17070
 H172 H 0.17380 0.31215 1.09070
 C173 C -0.13822 0.65742 1.08750
 C174 C -0.11247 0.64834 1.10031
 C175 C -0.10398 0.65924 1.13053
 C176 C -0.12093 0.67953 1.14766
 C177 C -0.14666 0.68935 1.13476
 C178 C -0.15523 0.67772 1.10459
 C179 C -0.09417 0.62886 1.08199
 C180 C -0.07827 0.61316 1.06671
 C181 C -0.05899 0.59548 1.04895
 C182 C -0.04198 0.58099 1.03394
 H183 H -0.14499 0.64912 1.06410
 H184 H -0.08405 0.65240 1.14067
 H185 H -0.11351 0.68775 1.17075
 H186 H -0.17489 0.68447 1.09386
 C187 C -0.10885 0.34619 0.86837
 C188 C -0.11375 0.35182 0.90121
 C189 C -0.13604 0.33752 0.91689
 C190 C -0.15310 0.31727 0.89996
 C191 C -0.14803 0.31094 0.86705
 C192 C -0.12587 0.32594 0.85138
 C193 C -0.09514 0.37121 0.91908
 C194 C -0.07902 0.38685 0.93401
 C195 C -0.05953 0.40446 0.95141
 C196 C -0.04235 0.41889 0.96614
 H197 H -0.09164 0.35713 0.85598
 H198 H -0.13995 0.34163 0.94235
 H199 H -0.16982 0.30614 0.91294
 H200 H -0.12146 0.32197 0.82606
 C201 C 0.10870 0.65398 0.86846
 C202 C 0.11362 0.64823 0.90128
 C203 C 0.13594 0.66245 0.91695
 C204 C 0.15301 0.68274 0.90003
 C205 C 0.14790 0.68919 0.86715
 C206 C 0.12571 0.67426 0.85148
 C207 C 0.09502 0.62879 0.91915
 C208 C 0.07892 0.61310 0.93409
 C209 C 0.05946 0.59543 0.95150
 C210 C 0.04232 0.58094 0.96626
 H211 H 0.09147 0.64308 0.85607
 H212 H 0.13987 0.65825 0.94240
 H213 H 0.16974 0.69381 0.91301
 H214 H 0.12129 0.67832 0.82616
 C215 C 1.10236 0.13059 0.33633
 C216 C 1.10991 0.10091 0.34470
 C217 C 1.13494 0.08865 0.33313
 C218 C 1.15220 0.10581 0.31285
 C219 C 1.14465 0.13564 0.30362
 C220 C 1.11953 0.14784 0.31607
 C221 C 1.09151 0.08276 0.36433
 C222 C 1.07572 0.06758 0.38029
 C223 C 1.05682 0.04986 0.39847
 C224 C 1.04031 0.03484 0.41359
 H225 H 1.08300 0.14032 0.34519
 H226 H 1.14100 0.06567 0.33948
 H227 H 1.17124 0.09529 0.30429
 H228 H 1.11271 0.17058 0.31008
 C229 C 1.13480 -0.08887 0.66667
 C230 C 1.10972 -0.10100 0.65526
 C231 C 1.10217 -0.13060 0.66379
 C232 C 1.11940 -0.14789 0.68404
 C233 C 1.14457 -0.13581 0.69632
 C234 C 1.15211 -0.10606 0.68694
 C235 C 1.09129 -0.08281 0.63562
 C236 C 1.07552 -0.06754 0.61964
 C237 C 1.05665 -0.04970 0.60145
 C238 C 1.04019 -0.03453 0.58632
 H239 H 1.14086 -0.06594 0.66020
 H240 H 1.08278 -0.14024 0.65505
 H241 H 1.11258 -0.17057 0.69016
 H242 H 1.17119 -0.09564 0.69535
 C243 C 0.89753 -0.13018 0.33726
 C244 C 0.89005 -0.10044 0.34538
 C245 C 0.86506 -0.08816 0.33369
 C246 C 0.84777 -0.10537 0.31353
 C247 C 0.85527 -0.13526 0.30453
 C248 C 0.88034 -0.14748 0.31711
 C249 C 0.90849 -0.08225 0.36487
 C250 C 0.92431 -0.06703 0.38072
 C251 C 0.94325 -0.04929 0.39877
 C252 C 0.95978 -0.03424 0.41379
 H253 H 0.91686 -0.13993 0.34621
 H254 H 0.85905 -0.06513 0.33985
 H255 H 0.82877 -0.09484 0.30487
 H256 H 0.88711 -0.17027 0.31131
 C257 C 0.86524 0.08946 0.66654
 C258 C 0.89032 0.10164 0.65512
 C259 C 0.89785 0.13122 0.66366
 C260 C 0.88061 0.14846 0.68392
 C261 C 0.85545 0.13634 0.69619
 C262 C 0.84792 0.10661 0.68681
 C263 C 0.90875 0.08349 0.63547
 C264 C 0.92453 0.06826 0.61950
 C265 C 0.94341 0.05045 0.60132
 C266 C 0.95989 0.03530 0.58623
 H267 H 0.85920 0.06655 0.66006
 H268 H 0.91724 0.14089 0.65494
 H269 H 0.88742 0.17113 0.69005
 H270 H 0.82885 0.09615 0.69522
 C271 C 0.35134 1.10696 0.13394
 C272 C 0.35822 1.11490 0.10213
 C273 C 0.34442 1.13915 0.08707
 C274 C 0.32336 1.15495 0.10347
 C275 C 0.31571 1.14659 0.13516
 C276 C 0.33029 1.12270 0.15038
 C277 C 0.37805 1.09687 0.08427
 C278 C 0.39381 1.08094 0.06908
 C279 C 0.41125 1.06133 0.05108
 C280 C 0.42521 1.04378 0.03556
 H281 H 0.36186 1.08818 0.14582
 H282 H 0.34947 1.14538 0.06237
 H283 H 0.31260 1.17307 0.09086
 H284 H 0.32528 1.11583 0.17484
 C285 C 0.65485 1.13952 -0.08843
 C286 C 0.64132 1.11520 -0.10348
 C287 C 0.64838 1.10726 -0.13523
 C288 C 0.66935 1.12309 -0.15163
 C289 C 0.68367 1.14706 -0.13641
 C290 C 0.67583 1.15541 -0.10478
 C291 C 0.62159 1.09708 -0.08566
 C292 C 0.60591 1.08109 -0.07050
 C293 C 0.58858 1.06142 -0.05251
 C294 C 0.57472 1.04384 -0.03698
 H295 H 0.64965 1.14575 -0.06378
 H296 H 0.63807 1.08842 -0.14711
 H297 H 0.67451 1.11623 -0.17605
 H298 H 0.68639 1.17359 -0.09217
 C299 C 0.35175 0.89258 -0.13520
 C300 C 0.35881 0.88457 -0.10345
 C301 C 0.34525 0.86023 -0.08841
 C302 C 0.32425 0.84441 -0.10475
 C303 C 0.31641 0.85284 -0.13637
 C304 C 0.33075 0.87682 -0.15159
 C305 C 0.37855 0.90263 -0.08563
 C306 C 0.39424 0.91859 -0.07047
 C307 C 0.41158 0.93822 -0.05249
 C308 C 0.42545 0.95579 -0.03699
 H309 H 0.36208 0.91144 -0.14707
 H310 H 0.35044 0.85395 -0.06375
 H311 H 0.31368 0.82622 -0.09214
 H312 H 0.32560 0.88374 -0.17600
 C313 C 0.64862 0.89302 0.13465
 C314 C 0.64171 0.88491 0.10292
 C315 C 0.65543 0.86051 0.08809
 C316 C 0.67644 0.84473 0.10462
 C317 C 0.68413 0.85326 0.13624
 C318 C 0.66963 0.87731 0.15123
 C319 C 0.62194 0.90291 0.08491
 C320 C 0.60622 0.91881 0.06959
 C321 C 0.58882 0.93838 0.05146
 C322 C 0.57489 0.95591 0.03583
 H323 H 0.63817 0.91192 0.14636
 H324 H 0.65035 0.85413 0.06345
 H325 H 0.68714 0.82649 0.09218
 H326 H 0.67467 0.88431 0.17563
   
