data_POSCAR
  _audit_creation_date              2014-09-24
  _audit_creation_method            'ToBaCCo'
  _symmetry_space_group_name_H-M    'P1'
  _symmetry_Int_Tables_number       1
  _symmetry_cell_setting            triclinic
  loop_
  _symmetry_equiv_pos_as_xyz
 x,y,z
_cell_length_a 44.9916
_cell_length_b 43.6830
_cell_length_c 44.6791
_cell_angle_alpha 93.720700
_cell_angle_beta 90.267200
_cell_angle_gamma 86.810900
loop_
  _atom_site_label
  _atom_site_type_symbol
  _atom_site_fract_x
  _atom_site_fract_y
  _atom_site_fract_z
C1 C 0.61321 0.65774 0.61643
 C2 C 0.64063 0.64633 0.60428
 C3 C 0.65527 0.62094 0.61576
 C4 C 0.64296 0.60693 0.63982
 C5 C 0.61587 0.61804 0.65166
 C6 C 0.60104 0.64381 0.64013
 C7 C 0.59403 0.68211 0.60995
 N8 N 0.57094 0.68358 0.62953
 C9 C 0.57499 0.66026 0.64805
 C10 C 0.60916 0.59976 0.67435
 N11 N 0.63184 0.57817 0.67711
 C12 C 0.65265 0.58251 0.65596
 C13 C 0.68092 0.61456 0.59935
 N14 N 0.68241 0.63573 0.57858
 C15 C 0.65793 0.65534 0.58143
 H16 H 0.59695 0.69804 0.59276
 H17 H 0.56005 0.65560 0.66592
 H18 H 0.58941 0.60242 0.68826
 H19 H 0.67311 0.56869 0.65192
 H20 H 0.69738 0.59595 0.60232
 H21 H 0.65280 0.67430 0.56748
 C22 C 0.88935 0.33650 0.09732
 C23 C 0.86288 0.34906 0.08529
 C24 C 0.84782 0.37397 0.10020
 C25 C 0.85877 0.38635 0.12754
 C26 C 0.88484 0.37391 0.13944
 C27 C 0.90003 0.34858 0.12438
 C28 C 0.90869 0.31239 0.08769
 N29 N 0.93063 0.30912 0.10857
 C30 C 0.92527 0.33115 0.13115
 C31 C 0.89048 0.39093 0.16568
 N32 N 0.86819 0.41294 0.17013
 C33 C 0.84863 0.41032 0.14701
 C34 C 0.82316 0.38151 0.08333
 N35 N 0.82261 0.36144 0.05888
 C36 C 0.84679 0.34148 0.05984
 H37 H 0.90612 0.29781 0.06745
 H38 H 0.93888 0.33446 0.15103
 H39 H 0.90929 0.38751 0.18053
 H40 H 0.82884 0.42515 0.14430
 H41 H 0.80655 0.39994 0.08864
 H42 H 0.85241 0.32303 0.04312
 C43 C 0.39922 0.15844 -0.10012
 C44 C 0.37363 0.14639 -0.08884
 C45 C 0.36155 0.12113 -0.10362
 C46 C 0.37467 0.10793 -0.13018
 C47 C 0.39999 0.11973 -0.14121
 C48 C 0.41216 0.14538 -0.12630
 C49 C 0.41567 0.18286 -0.09054
 N50 N 0.43792 0.18513 -0.11055
 C51 C 0.43590 0.16247 -0.13258
 C52 C 0.40806 0.10226 -0.16690
 N53 N 0.38793 0.08035 -0.17213
 C54 C 0.36729 0.08393 -0.14981
 C55 C 0.33716 0.11418 -0.08736
 N56 N 0.33394 0.13496 -0.06351
 C57 C 0.35606 0.15479 -0.06423
 H58 H 0.41136 0.19832 -0.07092
 H59 H 0.45063 0.15876 -0.15172
 H60 H 0.42674 0.10611 -0.18106
 H61 H 0.34843 0.06985 -0.14774
 H62 H 0.32263 0.09562 -0.09259
 H63 H 0.35933 0.17364 -0.04781
 C64 C 0.10043 0.84128 0.37915
 C65 C 0.12639 0.85242 0.39236
 C66 C 0.13940 0.87720 0.38097
 C67 C 0.12684 0.89089 0.35596
 C68 C 0.10119 0.87998 0.34310
 C69 C 0.08817 0.85474 0.35448
 C70 C 0.08282 0.81777 0.38554
 N71 N 0.06055 0.81608 0.36486
 C72 C 0.06376 0.83877 0.34578
 C73 C 0.09360 0.89792 0.31977
 N74 N 0.11433 0.91927 0.31773
 C75 C 0.13490 0.91484 0.33970
 C76 C 0.16385 0.88340 0.39852
 N77 N 0.16623 0.86263 0.41983
 C78 C 0.14349 0.84355 0.41625
 H79 H 0.08639 0.80256 0.40357
 H80 H 0.04921 0.84400 0.32724
 H81 H 0.07475 0.89481 0.30499
 H82 H 0.15410 0.92839 0.34392
 H83 H 0.17894 0.90149 0.39589
 H84 H 0.13946 0.82494 0.43032
 N85 N 0.10253 0.16344 0.12084
 N86 N 0.09265 0.15383 0.14605
 C87 C 0.06840 0.17148 0.15497
 C88 C 0.06255 0.19280 0.13389
 C89 C 0.08446 0.18697 0.11243
 H90 H 0.05554 0.16872 0.17491
 H91 H 0.08738 0.19940 0.09259
 Cu92 Cu 0.11168 0.11826 0.16376
 Cu93 Cu 0.13911 0.14598 0.10190
 Cu94 Cu 0.17514 0.08448 0.13512
 N95 N 0.13142 0.08315 0.18160
 N96 N 0.15712 0.07111 0.17132
 C97 C 0.16628 0.04787 0.18814
 C98 C 0.14486 0.04491 0.20967
 C99 C 0.12298 0.06744 0.20479
 H100 H 0.18632 0.03334 0.18423
 H101 H 0.10248 0.07193 0.21726
 N102 N 0.18968 0.10136 0.09834
 N103 N 0.17641 0.12531 0.08623
 C104 C 0.19222 0.13208 0.06225
 C105 C 0.21619 0.11105 0.05876
 C106 C 0.21392 0.09185 0.08193
 H107 H 0.18664 0.15071 0.04808
 H108 H 0.22916 0.07279 0.08677
 H109 H 0.13635 0.10218 0.11641
 H110 H 0.15826 0.12947 0.14025
 N111 N 0.40045 0.83471 0.60042
 N112 N 0.41146 0.84581 0.62592
 C113 C 0.43628 0.82889 0.63249
 C114 C 0.44134 0.80639 0.60964
 C115 C 0.41823 0.81075 0.58959
 H116 H 0.44985 0.83265 0.65229
 H117 H 0.41421 0.79701 0.56911
 Cu118 Cu 0.39246 0.88148 0.64784
 Cu119 Cu 0.36308 0.85117 0.58407
 Cu120 Cu 0.32791 0.91374 0.62389
 N121 N 0.37307 0.91715 0.66942
 N122 N 0.34692 0.92851 0.66094
 C123 C 0.33778 0.95183 0.68052
 C124 C 0.35966 0.95557 0.70203
 C125 C 0.38182 0.93340 0.69425
 H126 H 0.31724 0.96568 0.67876
 H127 H 0.40253 0.92927 0.70609
 N128 N 0.31230 0.89553 0.58588
 N129 N 0.32513 0.87109 0.57126
 C130 C 0.30877 0.86375 0.54676
 C131 C 0.28493 0.88495 0.54562
 C132 C 0.28783 0.90479 0.57069
 H133 H 0.31408 0.84484 0.53050
 H134 H 0.27300 0.92431 0.57745
 H135 H 0.36619 0.89555 0.60249
 H136 H 0.34521 0.86894 0.62445
 N137 N 0.91184 0.66250 0.39647
 N138 N 0.91960 0.65459 0.36858
 C139 C 0.94180 0.67184 0.36069
 C140 C 0.94866 0.69114 0.38514
 C141 C 0.92932 0.68462 0.40752
 H142 H 0.95251 0.67018 0.33898
 H143 H 0.92754 0.69575 0.42983
 Cu144 Cu 0.90091 0.62179 0.34540
 Cu145 Cu 0.87823 0.64511 0.41532
 Cu146 Cu 0.84978 0.58131 0.37793
 N147 N 0.88936 0.58236 0.32786
 N148 N 0.86846 0.56729 0.33991
 C149 C 0.86377 0.54177 0.32238
 C150 C 0.88317 0.54054 0.29841
 C151 C 0.89917 0.56662 0.30258
 H152 H 0.84778 0.52507 0.32691
 H153 H 0.91618 0.57390 0.28801
 N154 N 0.83402 0.59919 0.41663
 N155 N 0.84418 0.62416 0.43042
 C156 C 0.82771 0.63177 0.45518
 C157 C 0.80665 0.61019 0.45732
 C158 C 0.81129 0.58985 0.43260
 H159 H 0.83081 0.65144 0.47062
 H160 H 0.79844 0.57025 0.42629
 H161 H 0.88744 0.60270 0.39302
 H162 H 0.85686 0.62775 0.37729
 N163 N 0.58486 0.34256 -0.11719
 N164 N 0.56962 0.35706 -0.13766
 C165 C 0.54644 0.34050 -0.14660
 C166 C 0.54698 0.31452 -0.13045
 C167 C 0.57150 0.31664 -0.11187
 H168 H 0.53008 0.34715 -0.16312
 H169 H 0.57917 0.30035 -0.09592
 Cu170 Cu 0.58068 0.39665 -0.15005
 Cu171 Cu 0.62106 0.35814 -0.09933
 Cu172 Cu 0.64337 0.42683 -0.12399
 N173 N 0.59894 0.42905 -0.17000
 N174 N 0.62445 0.43954 -0.16072
 C175 C 0.63243 0.46114 -0.17880
 C176 C 0.61047 0.46467 -0.20020
 C177 C 0.58949 0.44404 -0.19397
 H178 H 0.65215 0.47411 -0.17593
 H179 H 0.56903 0.44011 -0.20608
 N180 N 0.66459 0.40489 -0.09254
 N181 N 0.65688 0.37806 -0.08401
 C182 C 0.67615 0.36864 -0.06287
 C183 C 0.69656 0.39085 -0.05756
 C184 C 0.68861 0.41350 -0.07674
 H185 H 0.67496 0.34766 -0.05146
 H186 H 0.69967 0.43454 -0.07917
 H187 H 0.61020 0.40362 -0.10394
 H188 H 0.63158 0.38297 -0.13551
 C189 C -0.00778 0.26087 0.13408
 C190 C 0.00050 0.24362 0.10757
 N191 N -0.01486 0.24830 0.08192
 C192 C -0.03822 0.26943 0.08151
 C193 C -0.04632 0.28738 0.10796
 N194 N -0.03055 0.28254 0.13355
 N195 N 0.00672 0.25530 0.16005
 C196 C 0.02922 0.23323 0.16068
 C197 C 0.03806 0.21646 0.13401
 N198 N 0.02348 0.22215 0.10801
 H199 H -0.04960 0.27258 0.06051
 H200 H 0.04043 0.22917 0.18166
 C201 C 0.51192 0.73824 0.60545
 C202 C 0.50086 0.75091 0.63315
 N203 N 0.51270 0.74086 0.65897
 C204 C 0.53518 0.71871 0.65838
 C205 C 0.54673 0.70638 0.63072
 N206 N 0.53481 0.71658 0.60484
 N207 N 0.49944 0.74766 0.57965
 C208 C 0.47641 0.76925 0.58027
 C209 C 0.46571 0.78244 0.60796
 N210 N 0.47832 0.77290 0.63376
 H211 H 0.54436 0.71121 0.67928
 H212 H 0.46695 0.77644 0.55937
 C213 C 1.01394 0.75707 0.38793
 C214 C 0.99655 0.75177 0.36220
 N215 N 1.00039 0.76838 0.33806
 C216 C 1.02090 0.79011 0.33837
 C217 C 1.03909 0.79510 0.36389
 N218 N 1.03501 0.77814 0.38802
 N219 N 1.00927 0.74128 0.41253
 C220 C 0.98801 0.72029 0.41248
 C221 C 0.97115 0.71432 0.38641
 N222 N 0.97591 0.73025 0.36184
 H223 H 1.02340 0.80248 0.31846
 H224 H 0.98474 0.70794 0.43233
 C225 C 0.48574 0.24450 -0.13433
 C226 C 0.49991 0.25323 -0.10728
 N227 N 0.49324 0.23959 -0.08189
 C228 C 0.47300 0.21757 -0.08231
 C229 C 0.45920 0.20837 -0.10944
 N230 N 0.46602 0.22205 -0.13488
 N231 N 0.49159 0.25895 -0.15947
 C232 C 0.51099 0.28178 -0.15882
 C233 C 0.52564 0.29017 -0.13192
 N234 N 0.51976 0.27556 -0.10677
 H235 H 0.46802 0.20699 -0.06181
 H236 H 0.51528 0.29291 -0.17918
 C237 C 0.14215 -0.02241 0.27309
 C238 C 0.11678 -0.01411 0.25646
 N239 N 0.09123 -0.02843 0.26025
 C240 C 0.08979 -0.05077 0.27992
 C241 C 0.11499 -0.05882 0.29731
 N242 N 0.14054 -0.04409 0.29338
 N243 N 0.16809 -0.00901 0.26831
 C244 C 0.16975 0.01243 0.24768
 C245 C 0.14414 0.02139 0.23164
 N246 N 0.11821 0.00788 0.23650
 H247 H 0.06885 -0.06127 0.28243
 H248 H 0.19066 0.02280 0.24423
 C249 C 0.60781 0.52959 -0.26624
 C250 C 0.63452 0.51343 -0.25943
 N251 N 0.65971 0.51859 -0.27442
 C252 C 0.65951 0.53928 -0.29590
 C253 C 0.63290 0.55636 -0.30228
 N254 N 0.60772 0.55090 -0.28702
 N255 N 0.58234 0.52360 -0.25209
 C256 C 0.58243 0.50224 -0.23125
 C257 C 0.60934 0.48672 -0.22369
 N258 N 0.63481 0.49275 -0.23801
 H259 H 0.68019 0.54290 -0.30697
 H260 H 0.56187 0.49798 -0.22015
 C261 C 0.36131 1.02204 0.77484
 C262 C 0.38671 1.01466 0.75719
 N263 N 0.41191 1.02958 0.76316
 C264 C 0.41294 1.05165 0.78599
 C265 C 0.38770 1.05875 0.80436
 N266 N 0.36254 1.04342 0.79818
 N267 N 0.33569 1.00805 0.76805
 C268 C 0.33439 0.98690 0.74441
 C269 C 0.36004 0.97885 0.72723
 N270 N 0.38566 0.99294 0.73412
 H271 H 0.43360 1.06266 0.79011
 H272 H 0.31373 0.97604 0.73943
 C273 C 0.88964 0.47205 0.22715
 C274 C 0.86238 0.47973 0.24169
 N275 N 0.83763 0.46550 0.23227
 C276 C 0.83889 0.44389 0.20892
 C277 C 0.86623 0.43574 0.19467
 N278 N 0.89103 0.45002 0.20425
 N279 N 0.91415 0.48708 0.23588
 C280 C 0.91267 0.50947 0.25854
 C281 C 0.88555 0.51679 0.27352
 N282 N 0.86104 0.50161 0.26472
 H283 H 0.81888 0.43283 0.20179
 H284 H 0.93255 0.52105 0.26510
 C285 C 0.28230 0.10878 -0.00834
 C286 C 0.26776 0.13665 0.00219
 N287 N 0.27543 0.16331 -0.00889
 C288 C 0.29703 0.16339 -0.03006
 C289 C 0.31125 0.13549 -0.04106
 N290 N 0.30343 0.10877 -0.02995
 N291 N 0.27532 0.08225 0.00351
 C292 C 0.25440 0.08231 0.02541
 C293 C 0.23938 0.11010 0.03556
 N294 N 0.24644 0.13663 0.02357
 H295 H 0.30276 0.18492 -0.03860
 H296 H 0.24919 0.06083 0.03440
 C297 C 0.73963 0.60906 0.52307
 C298 C 0.75009 0.63696 0.51469
 N299 N 0.73788 0.66387 0.52725
 C300 C 0.71566 0.66416 0.54783
 C301 C 0.70549 0.63625 0.55664
 N302 N 0.71788 0.60932 0.54404
 N303 N 0.75110 0.58218 0.50981
 C304 C 0.77258 0.58189 0.48848
 C305 C 0.78346 0.60974 0.48036
 N306 N 0.77196 0.63667 0.49381
 H307 H 0.70637 0.68589 0.55761
 H308 H 0.78135 0.56013 0.47826
 C309 C 0.76550 0.38989 0.00697
 C310 C 0.75555 0.36234 -0.00643
 N311 N 0.76833 0.33511 0.00137
 C312 C 0.79057 0.33416 0.02208
 C313 C 0.80012 0.36169 0.03605
 N314 N 0.78723 0.38894 0.02810
 N315 N 0.75328 0.41714 -0.00138
 C316 C 0.73144 0.41813 -0.02249
 C317 C 0.72093 0.39060 -0.03547
 N318 N 0.73330 0.36330 -0.02704
 H319 H 0.80020 0.31216 0.02812
 H320 H 0.72197 0.44019 -0.02855
 C321 C 0.21867 0.88795 0.47838
 C322 C 0.23215 0.85980 0.48619
 N323 N 0.22340 0.83321 0.47233
 C324 C 0.20178 0.83348 0.45096
 C325 C 0.18867 0.86164 0.44265
 N326 N 0.19756 0.88827 0.45658
 N327 N 0.22670 0.91446 0.49295
 C328 C 0.24767 0.91414 0.51497
 C329 C 0.26166 0.88607 0.52241
 N330 N 0.25355 0.85952 0.50771
 H331 H 0.19523 0.81200 0.44015
 H332 H 0.25373 0.93563 0.52613
   
