data_POSCAR
  _audit_creation_date              2014-09-24
  _audit_creation_method            'ToBaCCo'
  _symmetry_space_group_name_H-M    'P1'
  _symmetry_Int_Tables_number       1
  _symmetry_cell_setting            triclinic
  loop_
  _symmetry_equiv_pos_as_xyz
 x,y,z
_cell_length_a 21.5506
_cell_length_b 18.6133
_cell_length_c 20.9722
_cell_angle_alpha 88.098700
_cell_angle_beta 94.759900
_cell_angle_gamma 87.676900
loop_
  _atom_site_label
  _atom_site_type_symbol
  _atom_site_fract_x
  _atom_site_fract_y
  _atom_site_fract_z
C1 C 0.30614 0.29436 0.16710
 C2 C 0.25303 0.34076 0.16184
 C3 C 0.20603 0.33261 0.20348
 C4 C 0.21268 0.27819 0.25158
 C5 C 0.26554 0.23173 0.25819
 C6 C 0.31248 0.23959 0.21579
 H7 H 0.24729 0.38199 0.12388
 H8 H 0.17623 0.27092 0.28349
 H9 H 0.35304 0.20296 0.22010
 C10 C 0.65788 -0.23228 0.22722
 C11 C 0.70138 -0.27120 0.19502
 C12 C 0.76429 -0.27559 0.21799
 C13 C 0.78432 -0.24072 0.27399
 C14 C 0.74109 -0.20194 0.30767
 C15 C 0.67748 -0.19801 0.28370
 H16 H 0.68633 -0.29784 0.15154
 H17 H 0.83323 -0.24333 0.29107
 H18 H 0.64326 -0.16828 0.30863
 C19 C 0.74321 0.25727 0.84086
 C20 C 0.79707 0.28984 0.86484
 C21 C 0.85484 0.27174 0.84272
 C22 C 0.85897 0.22215 0.79401
 C23 C 0.80523 0.18998 0.76767
 C24 C 0.74722 0.20727 0.79204
 H25 H 0.79429 0.32744 0.90300
 H26 H 0.90375 0.20863 0.77657
 H27 H 0.70559 0.18166 0.77362
 C28 C 0.28526 -0.26673 0.78125
 C29 C 0.29752 -0.22590 0.72603
 C30 C 0.25078 -0.21442 0.67528
 C31 C 0.19263 -0.24330 0.68015
 C32 C 0.18019 -0.28390 0.73433
 C33 C 0.22664 -0.29650 0.78459
 H34 H 0.34205 -0.20154 0.72345
 H35 H 0.15620 -0.23269 0.64175
 H36 H 0.21657 -0.32668 0.82732
 C37 C 0.66972 -0.29796 0.83686
 C38 C 0.66840 -0.25836 0.77915
 C39 C 0.72162 -0.25368 0.74612
 C40 C 0.77671 -0.29256 0.76978
 C41 C 0.77770 -0.33486 0.82666
 C42 C 0.72396 -0.33779 0.85994
 H43 H 0.62719 -0.22527 0.76295
 H44 H 0.81929 -0.28668 0.74641
 H45 H 0.72612 -0.36574 0.90630
 C46 C 0.30848 0.24566 0.75910
 C47 C 0.25879 0.29534 0.76490
 C48 C 0.20846 0.30222 0.71729
 C49 C 0.20956 0.26021 0.66316
 C50 C 0.26029 0.21218 0.65662
 C51 C 0.30894 0.20441 0.70528
 H52 H 0.25858 0.32676 0.80741
 H53 H 0.17095 0.26446 0.62653
 H54 H 0.34744 0.16591 0.70168
 C55 C 0.25287 -0.20927 0.13818
 C56 C 0.26918 -0.18708 0.19972
 C57 C 0.23500 -0.20764 0.25041
 C58 C 0.18515 -0.25241 0.23939
 C59 C 0.16980 -0.27778 0.17766
 C60 C 0.20377 -0.25556 0.12679
 H61 H 0.30633 -0.14991 0.20726
 H62 H 0.15831 -0.26678 0.27894
 H63 H 0.19149 -0.27330 0.07888
 C64 C 0.69934 0.21061 0.20584
 C65 C 0.74578 0.26116 0.20230
 C66 C 0.78780 0.27180 0.25551
 C67 C 0.78325 0.23103 0.31229
 C68 C 0.73719 0.17968 0.31551
 C69 C 0.69589 0.16963 0.26206
 H70 H 0.74811 0.29342 0.15870
 H71 H 0.81538 0.23949 0.35358
 H72 H 0.66005 0.13076 0.26475
 O73 O 0.36661 0.05428 0.39993
 O74 O 0.36332 -0.08315 0.53046
 O75 O 0.35418 -0.08378 0.40387
 O76 O 0.36006 0.05647 0.52390
 O77 O 0.25709 0.06657 0.51444
 O78 O 0.25136 -0.07410 0.39899
 O79 O 0.26054 -0.07168 0.52345
 O80 O 0.26374 0.06462 0.39259
 Cu81 Cu 0.37149 -0.01541 0.46536
 Cu82 Cu 0.24804 -0.00318 0.45630
 C83 C 0.31590 0.08320 0.37440
 C84 C 0.31150 -0.09951 0.55016
 C85 C 0.30102 -0.10165 0.38037
 C86 C 0.30915 0.08490 0.53959
 O87 O 0.70834 0.05194 0.61068
 O88 O 0.69003 -0.07232 0.48218
 O89 O 0.71551 -0.08983 0.60559
 O90 O 0.71832 0.06012 0.48540
 O91 O 0.82116 0.04990 0.49434
 O92 O 0.81745 -0.10444 0.60379
 O93 O 0.79190 -0.08419 0.47730
 O94 O 0.81083 0.03773 0.61766
 Cu95 Cu 0.69880 -0.01086 0.54671
 Cu96 Cu 0.81975 -0.02716 0.54896
 C97 C 0.76094 0.06649 0.63680
 C98 C 0.73618 -0.09754 0.45572
 C99 C 0.76701 -0.12339 0.62427
 C100 C 0.77110 0.07924 0.46873
 O101 O 0.44922 0.31004 0.03922
 O102 O 0.57152 0.30114 -0.07761
 O103 O 0.44752 0.33261 -0.08514
 O104 O 0.56934 0.31975 0.04348
 O105 O 0.56881 0.20086 0.04568
 O106 O 0.44230 0.21438 -0.08530
 O107 O 0.56324 0.18333 -0.07786
 O108 O 0.44955 0.19133 0.04032
 Cu109 Cu 0.50927 0.32677 -0.02133
 Cu110 Cu 0.50511 0.18645 -0.02000
 C111 C 0.43002 0.25042 0.06064
 C112 C 0.58915 0.23917 -0.09588
 C113 C 0.42330 0.27706 -0.10688
 C114 C 0.59015 0.25943 0.06671
 O115 O 0.49152 0.70791 0.10461
 O116 O 0.41335 0.70650 -0.05876
 O117 O 0.52700 0.66714 -0.00989
 O118 O 0.38343 0.74737 0.04800
 O119 O 0.41224 0.85561 0.01907
 O120 O 0.55334 0.77675 -0.03697
 O121 O 0.44713 0.81441 -0.08117
 O122 O 0.52538 0.81552 0.08337
 Cu123 Cu 0.45252 0.69534 0.02390
 Cu124 Cu 0.49038 0.82582 -0.00177
 C125 C 0.52021 0.76283 0.12243
 C126 C 0.41464 0.76122 -0.09666
 C127 C 0.56244 0.70908 -0.03719
 C128 C 0.37203 0.81477 0.03944
 O129 O 0.02499 0.45053 0.26574
 O130 O -0.10552 0.58536 0.22495
 O131 O -0.09715 0.44467 0.25337
 O132 O 0.01314 0.58869 0.25508
 O133 O 0.02692 0.57590 0.15264
 O134 O -0.08738 0.43214 0.15044
 O135 O -0.08859 0.57633 0.12299
 O136 O 0.03790 0.44356 0.16262
 Cu137 Cu -0.04308 0.51786 0.25989
 Cu138 Cu -0.02949 0.50318 0.13703
 C139 C 0.05525 0.42688 0.22058
 C140 C -0.11703 0.60566 0.16632
 C141 C -0.11073 0.41316 0.20188
 C142 C 0.04000 0.60565 0.20564
 O143 O 0.01168 0.57464 0.73608
 O144 O -0.04661 0.41309 0.80953
 O145 O -0.07928 0.54992 0.80690
 O146 O 0.05337 0.43944 0.75282
 O147 O 0.10887 0.46220 0.84273
 O148 O -0.02094 0.56837 0.89602
 O149 O 0.01120 0.43092 0.89915
 O150 O 0.07065 0.59498 0.82437
 Cu151 Cu -0.02066 0.49254 0.76724
 Cu152 Cu 0.04763 0.51648 0.87454
 C153 C 0.05055 0.61229 0.76690
 C154 C -0.02753 0.39393 0.86653
 C155 C -0.07184 0.57762 0.86163
 C156 C 0.10348 0.43177 0.78981
 N157 N 0.35088 0.30127 0.12034
 N158 N 0.38591 0.24785 0.10793
 N159 N 0.59872 0.76856 0.20632
 N160 N 0.54283 0.76675 0.18839
 N161 N 0.68700 0.27121 -0.12834
 N162 N 0.64139 0.22994 -0.13318
 N163 N 0.32887 0.72650 -0.16317
 N164 N 0.37565 0.76585 -0.15533
 N165 N 0.15050 0.37775 0.19370
 N166 N 0.11052 0.38262 0.23497
 N167 N 0.12380 0.69392 0.73798
 N168 N 0.06928 0.67629 0.73630
 N169 N -0.19590 0.69181 0.18378
 N170 N -0.16141 0.66292 0.14734
 N171 N -0.09538 0.30088 0.86877
 N172 N -0.04992 0.33005 0.89448
 N173 N 0.26847 0.17597 0.30723
 N174 N 0.31753 0.13788 0.32511
 N175 N 0.81032 0.14022 0.71672
 N176 N 0.76167 0.11558 0.68819
 N177 N 0.25817 -0.16896 0.62031
 N178 N 0.31030 -0.14817 0.60419
 N179 N 0.76221 -0.16561 0.36481
 N180 N 0.72260 -0.13826 0.39979
 N181 N 0.61990 0.71593 -0.12404
 N182 N 0.61085 0.68108 -0.07273
 N183 N 0.35882 0.23567 -0.19240
 N184 N 0.37377 0.28619 -0.15587
 N185 N 0.28242 0.81721 0.09177
 N186 N 0.31274 0.84518 0.05134
 N187 N 0.65198 0.20505 0.15478
 N188 N 0.63795 0.25916 0.11735
 N189 N -0.16931 0.64005 0.85531
 N190 N -0.12044 0.61979 0.88645
 N191 N -0.16709 0.32629 0.25379
 N192 N -0.15323 0.35615 0.20155
 N193 N 0.15509 0.34876 0.72531
 N194 N 0.15474 0.38681 0.77448
 N195 N 0.12036 0.67375 0.16658
 N196 N 0.08723 0.65675 0.21170
 N197 N 0.72023 -0.20052 0.69511
 N198 N 0.76923 -0.18105 0.67097
 N199 N 0.24455 -0.17404 0.31027
 N200 N 0.29663 -0.14823 0.32814
 N201 N 0.73243 0.13475 0.37126
 N202 N 0.77491 0.12979 0.41703
 N203 N 0.26042 0.16788 0.60251
 N204 N 0.31036 0.13532 0.58881
   
