data_POSCAR
  _audit_creation_date              2014-09-24
  _audit_creation_method            'ToBaCCo'
  _symmetry_space_group_name_H-M    'P1'
  _symmetry_Int_Tables_number       1
  _symmetry_cell_setting            triclinic
  loop_
  _symmetry_equiv_pos_as_xyz
 x,y,z
_cell_length_a 29.8072
_cell_length_b 30.0834
_cell_length_c 76.2381
_cell_angle_alpha 79.398200
_cell_angle_beta 95.335000
_cell_angle_gamma 120.335200
loop_
  _atom_site_label
  _atom_site_type_symbol
  _atom_site_fract_x
  _atom_site_fract_y
  _atom_site_fract_z
C1 C -0.01646 0.13138 0.51850
 H2 H 0.02180 0.13594 0.51793
 C3 C -0.02477 0.15997 0.52894
 H4 H 0.00754 0.18643 0.53637
 C5 C -0.10482 0.09055 0.50955
 H6 H -0.13577 0.06339 0.50195
 C7 C -0.11500 0.11826 0.51996
 H8 H -0.15403 0.11201 0.52030
 N9 N -0.05628 0.09708 0.50925
 C10 C -0.02739 -0.02882 0.50561
 H11 H -0.02527 -0.02610 0.49133
 C12 C -0.02870 -0.07151 0.51708
 H13 H -0.02696 -0.10119 0.51149
 C14 C -0.03510 0.00522 0.53011
 H15 H -0.03912 0.03425 0.53517
 C16 C -0.03613 -0.03641 0.54203
 H17 H -0.04039 -0.03828 0.55614
 Zn18 Zn -0.03945 0.05968 0.49625
 N19 N -0.03127 0.00808 0.51226
 C20 C 0.06382 0.10107 0.48348
 N21 N 0.02258 0.10865 0.48361
 C22 C 0.02382 0.15259 0.47453
 C23 C 0.06719 0.19055 0.46441
 C24 C 0.10809 0.13807 0.47342
 C25 C -0.13752 -0.01827 0.48628
 C26 C -0.17385 -0.04965 0.47457
 C27 C -0.11799 0.00997 0.44995
 C28 C -0.08272 0.03973 0.46213
 N29 N -0.09258 0.02491 0.47993
 H30 H 0.06220 0.06609 0.49097
 H31 H -0.00943 0.15772 0.47498
 H32 H 0.06675 0.22478 0.45710
 H33 H 0.14024 0.13103 0.47322
 H34 H -0.14410 -0.02959 0.50053
 H35 H -0.20850 -0.08462 0.48014
 H36 H -0.10798 0.02264 0.43591
 H37 H -0.04656 0.07368 0.45729
 C38 C -0.03402 -0.07612 0.53556
 C39 C -0.07468 0.15323 0.52996
 C40 C -0.16387 -0.03658 0.45604
 C41 C 0.10992 0.18336 0.46358
 C42 C 1.20593 0.09140 0.14474
 H43 H 1.21118 0.12976 0.14462
 C44 C 1.23874 0.08554 0.13466
 H45 H 1.26917 0.11981 0.12683
 C46 C 1.15904 0.00034 0.15499
 H47 H 1.12782 -0.03266 0.16292
 C48 C 1.19091 -0.00739 0.14500
 H49 H 1.18375 -0.04658 0.14534
 N50 N 1.16658 0.04910 0.15441
 C51 C 1.03866 0.07823 0.15630
 H52 H 1.03469 0.07510 0.17051
 C53 C 1.00041 0.08014 0.14461
 H54 H 0.96743 0.07910 0.14996
 C55 C 1.08483 0.07991 0.13229
 H56 H 1.11677 0.07810 0.12754
 C57 C 1.04783 0.08230 0.12015
 H58 H 1.05238 0.08285 0.10617
 Zn59 Zn 1.12318 0.06222 0.16662
 N60 N 1.07931 0.07716 0.15003
 C61 C 1.15913 0.15999 0.17827
 N62 N 1.16667 0.11879 0.17883
 C63 C 1.20605 0.11587 0.18847
 C64 C 1.23890 0.15456 0.19855
 C65 C 1.19102 0.19960 0.18826
 C66 C 1.03863 -0.03834 0.17698
 C67 C 1.00040 -0.07850 0.18868
 C68 C 1.04795 -0.03314 0.21313
 C69 C 1.08492 0.00624 0.20097
 N70 N 1.07932 0.00341 0.18323
 H71 H 1.12788 0.16175 0.17036
 H72 H 1.21130 0.08277 0.18857
 H73 H 1.26936 0.15075 0.20636
 H74 H 1.18385 0.23161 0.18795
 H75 H 1.03459 -0.03923 0.16277
 H76 H 0.96738 -0.11047 0.18336
 H77 H 1.05255 -0.02910 0.22710
 H78 H 1.11690 0.04002 0.20570
 C79 C 1.00414 0.08101 0.12630
 C80 C 1.23106 0.03556 0.13450
 C81 C 1.00421 -0.07558 0.20700
 C82 C 1.23121 0.19684 0.19875
 C83 C 0.02331 0.87027 0.85879
 H84 H -0.00989 0.83183 0.85833
 C85 C 0.06667 0.87577 0.86892
 H86 H 0.06628 0.84114 0.87624
 C87 C 0.06320 0.96182 0.84983
 H88 H 0.06154 0.99514 0.84234
 C89 C 0.10746 0.96918 0.85992
 H90 H 0.13956 1.00842 0.86012
 N91 N 0.02201 0.91293 0.84970
 C92 C -0.13813 0.87951 0.84694
 H93 H -0.14463 0.88434 0.83268
 C94 C -0.17453 0.87444 0.85863
 H95 H -0.20920 0.87479 0.85313
 C96 C -0.08341 0.87630 0.87113
 H97 H -0.04725 0.87858 0.87599
 C98 C -0.11878 0.87069 0.88328
 H99 H -0.10903 0.86809 0.89734
 Zn100 Zn -0.03998 0.89977 0.83703
 N101 N -0.09320 0.88129 0.85332
 C102 C -0.10520 0.80350 0.82370
 N103 N -0.05669 0.84558 0.82402
 C104 C -0.01682 0.85119 0.81478
 C105 C -0.02504 0.81431 0.80434
 C106 C -0.11530 0.76563 0.81328
 C107 C -0.02795 1.00034 0.82767
 C108 C -0.02924 1.04172 0.81620
 C109 C -0.03657 0.99923 0.79125
 C110 C -0.03555 0.95863 0.80317
 N111 N -0.03179 0.95957 0.82102
 H112 H -0.13620 0.79964 0.83128
 H113 H 0.02142 0.88494 0.81537
 H114 H 0.00731 0.82022 0.79693
 H115 H -0.15431 0.73279 0.81293
 H116 H -0.02587 0.99973 0.84195
 H117 H -0.02753 1.07313 0.82178
 H118 H -0.04077 0.99686 0.77714
 H119 H -0.03953 0.92560 0.79810
 C120 C -0.16456 0.87120 0.87712
 C121 C 0.10934 0.92576 0.86977
 C122 C -0.03450 1.04103 0.79772
 C123 C -0.07492 0.77106 0.80331
 C124 C 0.43771 -0.03633 -0.01272
 C125 C 0.42513 -0.02441 0.00235
 C126 C 0.45590 -0.01682 0.01772
 C127 C 0.50227 -0.01905 0.01788
 C128 C 0.51514 -0.03224 0.00286
 C129 C 0.48214 -0.04208 -0.01233
 C130 C 0.49346 -0.05922 -0.02639
 C131 C 0.53719 -0.06476 -0.02588
 C132 C 0.57208 -0.05237 -0.01145
 C133 C 0.56080 -0.03620 0.00313
 C134 C 0.53640 -0.00787 0.03251
 C135 C 0.58143 -0.01096 0.03267
 C136 C 0.59467 -0.02469 0.01809
 C137 C 0.64008 -0.02866 0.01825
 C138 C 0.64965 -0.04621 0.00403
 C139 C 0.61689 -0.05756 -0.01085
 H140 H 0.46787 -0.07002 -0.03776
 H141 H 0.54277 -0.07960 -0.03687
 H142 H 0.52906 0.00395 0.04399
 H143 H 0.60514 -0.00337 0.04456
 H144 H 0.39030 -0.02144 0.00216
 H145 H 0.68454 -0.04911 0.00422
 C146 C -0.12703 0.35035 0.64967
 C147 C -0.12583 0.32013 0.66581
 C148 C -0.12301 0.33578 0.68225
 C149 C -0.12434 0.38195 0.68269
 C150 C -0.12494 0.41352 0.66644
 C151 C -0.12618 0.39777 0.64985
 C152 C -0.12845 0.42890 0.63399
 C153 C -0.12703 0.47568 0.63432
 C154 C -0.12426 0.49285 0.65053
 C155 C -0.12491 0.46066 0.66678
 C156 C -0.12712 0.39635 0.69890
 C157 C -0.12849 0.44173 0.69922
 C158 C -0.12616 0.47517 0.68337
 C159 C -0.12698 0.52176 0.68355
 C160 C -0.12571 0.55321 0.66741
 C161 C -0.12288 0.54038 0.65097
 H162 H -0.13213 0.41722 0.62111
 H163 H -0.12972 0.49742 0.62168
 H164 H -0.12985 0.37190 0.71153
 H165 H -0.13217 0.44973 0.71210
 H166 H -0.12463 0.28482 0.66552
 H167 H -0.12447 0.58974 0.66770
 C168 C 0.45630 0.47362 0.31568
 C169 C 0.42558 0.45036 0.33106
 C170 C 0.43821 0.47480 0.34615
 C171 C 0.48266 0.52499 0.34578
 C172 C 0.51561 0.54824 0.33057
 C173 C 0.50268 0.52224 0.31553
 C174 C 0.53676 0.54527 0.30089
 C175 C 0.58181 0.59341 0.30074
 C176 C 0.59512 0.62032 0.31534
 C177 C 0.56130 0.59788 0.33032
 C178 C 0.49405 0.55339 0.35986
 C179 C 0.53780 0.60267 0.35936
 C180 C 0.57264 0.62525 0.34492
 C181 C 0.61750 0.67527 0.34434
 C182 C 0.65020 0.69676 0.32944
 C183 C 0.64055 0.66971 0.31519
 H184 H 0.52937 0.52616 0.28939
 H185 H 0.60549 0.60961 0.28884
 H186 H 0.46850 0.53853 0.37124
 H187 H 0.54345 0.62304 0.37038
 H188 H 0.39074 0.41252 0.33124
 H189 H 0.68512 0.73455 0.32927
 N190 N -0.14179 0.19502 0.55600
 C191 C -0.10165 0.22975 0.56497
 N192 N -0.05284 0.24018 0.56217
 N193 N -0.04436 0.21650 0.55081
 C194 C -0.08435 0.18140 0.54183
 N195 N -0.13328 0.17133 0.54460
 C196 C -0.11059 0.25282 0.57817
 C197 C -0.11648 0.27166 0.58980
 C198 C -0.12194 0.29310 0.60425
 N199 N -0.08874 0.34371 0.60591
 N200 N -0.09122 0.36249 0.62010
 C201 C -0.12713 0.33132 0.63308
 N202 N -0.16006 0.28057 0.63141
 N203 N -0.15758 0.26181 0.61723
 N204 N 0.87548 0.81803 0.22438
 C205 C 0.88010 0.82186 0.24197
 N206 N 0.92591 0.85777 0.24819
 N207 N 0.96575 0.88925 0.23715
 C208 C 0.96132 0.88606 0.21946
 N209 N 0.91541 0.84954 0.21332
 C210 C 0.83620 0.79118 0.25372
 C211 C 0.79987 0.76747 0.26388
 C212 C 0.75744 0.74148 0.27631
 N213 N 0.73804 0.76869 0.28188
 N214 N 0.70011 0.74549 0.29396
 C215 C 0.67999 0.69414 0.30082
 N216 N 0.69986 0.66709 0.29531
 N217 N 0.73784 0.69032 0.28322
 N218 N 0.19479 -0.10512 -0.09840
 C219 C 0.23356 -0.05711 -0.09588
 N220 N 0.23244 -0.01443 -0.10494
 N221 N 0.19356 -0.01971 -0.11615
 C222 C 0.15433 -0.06785 -0.11863
 N223 N 0.15598 -0.11037 -0.10958
 C224 C 0.27284 -0.05203 -0.08272
 C225 C 0.30391 -0.04924 -0.07105
 C226 C 0.33857 -0.04730 -0.05645
 N227 N 0.39084 -0.01976 -0.05880
 N228 N 0.42256 -0.01713 -0.04499
 C229 C 0.40304 -0.04227 -0.02841
 N230 N 0.35067 -0.06952 -0.02615
 N231 N 0.31902 -0.07215 -0.03993
 N232 N -0.05305 0.83066 0.57702
 C233 C -0.05829 0.78893 0.57079
 N234 N -0.05408 0.79178 0.55300
 N235 N -0.04526 0.83504 0.54179
 C236 C -0.04039 0.87691 0.54798
 N237 N -0.04430 0.87379 0.56583
 C238 C -0.07022 0.74189 0.58295
 C239 C -0.08099 0.70334 0.59381
 C240 C -0.09428 0.65886 0.60746
 N241 N -0.06707 0.63329 0.60937
 N242 N -0.07732 0.59435 0.62287
 C243 C -0.11530 0.57950 0.63486
 N244 N -0.14230 0.60539 0.63291
 N245 N -0.13207 0.64426 0.61942
 N246 N 0.28098 0.30809 0.22337
 C247 C 0.31982 0.30476 0.23319
 N248 N 0.33041 0.26704 0.23139
 N249 N 0.30289 0.23350 0.22018
 C250 C 0.26365 0.23630 0.21037
 N251 N 0.25345 0.27451 0.21214
 C252 C 0.34698 0.33813 0.24629
 C253 C 0.36900 0.36424 0.25786
 C254 C 0.39394 0.39309 0.27226
 N255 N 0.39733 0.36782 0.28854
 N256 N 0.41843 0.39379 0.30221
 C257 C 0.43724 0.44604 0.30005
 N258 N 0.43349 0.47122 0.28372
 N259 N 0.41236 0.44521 0.27004
 N260 N 0.78441 -0.12655 -0.08188
 C261 C 0.74270 -0.12160 -0.08785
 N262 N 0.73068 -0.12078 -0.10546
 N263 N 0.75989 -0.12433 -0.11676
 C264 C 0.80230 -0.12865 -0.11089
 N265 N 0.81358 -0.13004 -0.09316
 C266 C 0.71382 -0.11431 -0.07570
 C267 C 0.69197 -0.10700 -0.06495
 C268 C 0.66869 -0.09720 -0.05155
 N269 N 0.65437 -0.06025 -0.05537
 N270 N 0.63650 -0.04852 -0.04255
 C271 C 0.63219 -0.07347 -0.02548
 N272 N 0.64693 -0.11017 -0.02172
 N273 N 0.66476 -0.12190 -0.03453
 N274 N 0.33021 0.06450 0.10186
 C275 C 0.31965 0.01615 0.10010
 N276 N 0.28084 -0.02601 0.10994
 N277 N 0.25332 -0.01993 0.12116
 C278 C 0.26350 0.02851 0.12288
 N279 N 0.30270 0.07055 0.11306
 C280 C 0.34680 0.00990 0.08701
 C281 C 0.36879 0.00574 0.07546
 C282 C 0.39369 0.00172 0.06108
 N283 N 0.41214 -0.03195 0.06335
 N284 N 0.43323 -0.03693 0.04968
 C285 C 0.43691 -0.00816 0.03333
 N286 N 0.41806 0.02525 0.03113
 N287 N 0.39701 0.03024 0.04477
 N288 N 0.73206 0.85211 0.43903
 C289 C 0.74418 0.86479 0.42144
 N290 N 0.78615 0.91127 0.41548
 N291 N 0.81549 0.94387 0.42676
 C292 C 0.80422 0.93140 0.44450
 N293 N 0.76144 0.88483 0.45033
 C294 C 0.71511 0.82864 0.40929
 C295 C 0.69312 0.79951 0.39853
 C296 C 0.66967 0.76649 0.38512
 N297 N 0.66563 0.78735 0.36812
 N298 N 0.64767 0.75786 0.35529
 C299 C 0.63290 0.70639 0.35900
 N300 N 0.63731 0.68565 0.37605
 N301 N 0.65532 0.71520 0.38889
 N302 N -0.05352 0.11517 0.75625
 C303 C -0.05881 0.15163 0.76247
 N304 N -0.05464 0.15299 0.78025
 N305 N -0.04581 0.11858 0.79147
 C306 C -0.04088 0.08162 0.78529
 N307 N -0.04475 0.08083 0.76744
 C308 C -0.07072 0.18674 0.75029
 C309 C -0.08145 0.21453 0.73943
 C310 C -0.09466 0.24575 0.72577
 N311 N -0.06739 0.29856 0.72387
 N312 N -0.07757 0.32729 0.71037
 C313 C -0.11551 0.30420 0.69836
 N314 N -0.14256 0.25128 0.70030
 N315 N -0.13242 0.22259 0.71379
 N316 N 0.87535 0.05853 0.10898
 C317 C 0.87988 0.05926 0.09138
 N318 N 0.92566 0.06918 0.08514
 N319 N 0.96555 0.07762 0.09617
 C320 C 0.96120 0.07643 0.11386
 N321 N 0.91533 0.06703 0.12002
 C322 C 0.83591 0.04593 0.07966
 C323 C 0.79954 0.03323 0.06952
 C324 C 0.75706 0.01670 0.05711
 N325 N 0.73762 -0.02998 0.05157
 N326 N 0.69966 -0.04478 0.03950
 C327 C 0.67955 -0.01357 0.03262
 N328 N 0.69946 0.03341 0.03810
 N329 N 0.73746 0.04824 0.05018
 N330 N 0.19537 0.29996 0.43182
 C331 C 0.23416 0.29081 0.42928
 N332 N 0.23307 0.24700 0.43831
 N333 N 0.19419 0.21329 0.44951
 C334 C 0.15492 0.22209 0.45200
 N335 N 0.15654 0.26628 0.44299
 C336 C 0.27344 0.32513 0.41613
 C337 C 0.30451 0.35352 0.40447
 C338 C 0.33914 0.38636 0.38988
 N339 N 0.39142 0.41106 0.39221
 N340 N 0.42313 0.44025 0.37840
 C341 C 0.40358 0.44599 0.36184
 N342 N 0.35120 0.42090 0.35959
 N343 N 0.31957 0.39178 0.37337
 N344 N -0.05289 0.70611 0.77109
 C345 C -0.10168 0.66765 0.76828
 N346 N -0.14186 0.66213 0.77725
 N347 N -0.13341 0.69431 0.78866
 C348 C -0.08451 0.73324 0.79143
 N349 N -0.04448 0.73823 0.78246
 C350 C -0.11057 0.63568 0.75507
 C351 C -0.11644 0.61098 0.74343
 C352 C -0.12189 0.58410 0.72897
 N353 N -0.15752 0.57974 0.71598
 N354 N -0.16000 0.55850 0.70181
 C355 C -0.12708 0.54068 0.70014
 N356 N -0.09119 0.54543 0.71313
 N357 N -0.08870 0.56669 0.72732
   
