data_POSCAR
  _audit_creation_date              2014-09-24
  _audit_creation_method            'ToBaCCo'
  _symmetry_space_group_name_H-M    'P1'
  _symmetry_Int_Tables_number       1
  _symmetry_cell_setting            triclinic
  loop_
  _symmetry_equiv_pos_as_xyz
 x,y,z
_cell_length_a 22.1516
_cell_length_b 22.1556
_cell_length_c 23.0995
_cell_angle_alpha 90.336900
_cell_angle_beta 91.399400
_cell_angle_gamma 89.626100
loop_
  _atom_site_label
  _atom_site_type_symbol
  _atom_site_fract_x
  _atom_site_fract_y
  _atom_site_fract_z
C1 C 0.13188 0.15130 0.22107
 N2 N 0.10331 0.18975 0.18375
 C3 C 0.13257 0.21209 0.13763
 N4 N 0.18996 0.19357 0.12725
 C5 C 0.21831 0.15317 0.16305
 N6 N 0.18944 0.13321 0.21044
 C7 C -0.14633 0.83853 0.23183
 N8 N -0.19708 0.86575 0.20886
 C9 C -0.21550 0.85251 0.15332
 N10 N -0.18345 0.81248 0.12176
 C11 C -0.13529 0.78334 0.14535
 N12 N -0.11661 0.79654 0.20014
 C13 C -0.13719 0.12339 -0.21504
 N14 N -0.18590 0.09755 -0.19130
 C15 C -0.21872 0.12798 -0.15153
 N16 N -0.20111 0.18446 -0.13408
 C17 C -0.15077 0.20959 -0.15650
 N18 N -0.11943 0.17890 -0.19701
 C19 C 0.15603 0.83328 -0.23482
 N20 N 0.12869 0.79434 -0.19952
 C21 C 0.15368 0.77921 -0.14771
 N22 N 0.20604 0.80550 -0.12960
 C23 C 0.23429 0.84567 -0.16427
 N24 N 0.20947 0.85880 -0.21752
 C25 C 0.15472 1.15740 0.76227
 N26 N 0.13119 1.20681 0.78880
 C27 C 0.14928 1.22178 0.84371
 N28 N 0.19116 1.18715 0.87176
 C29 C 0.21488 1.13794 0.84540
 N30 N 0.19653 1.12295 0.79095
 C31 C 0.84711 0.87039 0.77698
 N32 N 0.80906 0.89936 0.81318
 C33 C 0.78715 0.87089 0.85997
 N34 N 0.80547 0.81349 0.87221
 C35 C 0.84572 0.78454 0.83775
 N36 N 0.86547 0.81292 0.78957
 C37 C 0.14555 0.85498 1.21937
 N38 N 0.11696 0.80476 1.19858
 C39 C 0.13509 0.77815 1.14867
 N40 N 0.18122 0.80227 1.11908
 C41 C 0.20984 0.85211 1.13954
 N42 N 0.19186 0.87841 1.18952
 C43 C 0.84517 1.15705 1.24043
 N44 N 0.80213 1.13213 1.20540
 C45 C 0.78742 1.15760 1.15392
 N46 N 0.81640 1.20752 1.13678
 C47 C 0.85901 1.23380 1.17174
 N48 N 0.87300 1.20874 1.22402
 O49 O 0.41677 0.88664 0.91826
 O50 O 0.34922 0.94818 0.96462
 C51 C 0.36220 0.90316 0.93102
 O52 O 0.58361 0.91901 1.13524
 O53 O 0.65049 0.96164 1.07324
 C54 C 0.63802 0.93086 1.11892
 O55 O 0.41458 0.90835 1.12292
 O56 O 0.34847 0.95676 1.06047
 C57 C 0.36061 0.92106 1.10356
 O58 O 0.58617 0.89037 0.92055
 O59 O 0.65157 0.95205 0.97157
 C60 C 0.64006 0.90828 0.93528
 Zr61 Zr 0.50116 0.92368 0.94635
 O62 O 0.50751 0.82859 0.95277
 O63 O 0.49693 0.91807 0.85482
 Zr64 Zr 0.49920 0.93613 1.09217
 O65 O 0.50756 0.84081 1.09125
 O66 O 0.49504 0.93237 1.18337
 O67 O 0.44632 0.91772 1.01827
 O68 O 0.55317 0.91921 1.02230
 O69 O 0.58539 1.10871 0.90927
 O70 O 0.65127 1.05477 0.96744
 C71 C 0.63940 1.09417 0.92744
 O72 O 0.41042 1.12488 1.10115
 O73 O 0.34620 1.06178 1.05038
 C74 C 0.35691 1.10760 1.08402
 O75 O 0.57986 1.11726 1.11792
 O76 O 0.64813 1.06110 1.06680
 C77 C 0.63439 1.10107 1.10551
 O78 O 0.41682 1.11305 0.90821
 O79 O 0.34939 1.05390 0.95572
 C80 C 0.36251 1.09641 0.91988
 Zr81 Zr 0.50053 1.07536 0.93524
 O82 O 0.50264 1.16859 0.91683
 O83 O 0.49658 1.05790 0.84498
 Zr84 Zr 0.49655 1.08806 1.08129
 O85 O 0.50272 1.18306 1.07428
 O86 O 0.48721 1.09632 1.17200
 Zr87 Zr 0.40946 1.00535 1.01020
 Zr88 Zr 0.58946 1.00650 1.01722
 O89 O 0.55063 1.09324 1.01009
 O90 O 0.44514 1.09318 1.00515
 O91 O 0.55540 0.99887 0.93149
 O92 O 0.44513 1.01281 1.09519
 O93 O 0.44803 0.99866 0.92807
 O94 O 0.55113 1.01356 1.09989
 H95 H 0.58160 0.88473 1.02671
 H96 H 0.41716 1.01673 1.12783
 H97 H 0.57695 1.12922 1.01018
 H98 H 0.42043 0.99611 0.89373
 H99 H 0.48475 0.97348 1.19683
 H100 H 0.51825 1.07002 1.19055
 H101 H 0.47011 1.19646 1.04717
 H102 H 0.50487 1.18973 0.95460
 H103 H 0.53825 1.04931 0.83260
 H104 H 0.53154 0.94090 0.84010
 H105 H 0.47622 0.81550 0.97973
 H106 H 0.46737 0.82401 1.08106
 O107 O -0.09561 0.40920 0.09909
 O108 O -0.05220 0.34587 0.03258
 C109 C -0.08569 0.35628 0.07661
 O110 O -0.13088 0.59067 -0.09524
 O111 O -0.06456 0.65261 -0.04579
 C112 C -0.11120 0.64367 -0.07961
 O113 O -0.13858 0.41946 -0.09649
 O114 O -0.06966 0.35112 -0.05970
 C115 C -0.11904 0.36458 -0.08807
 O116 O -0.08322 0.57848 0.11411
 O117 O -0.04318 0.64673 0.05143
 C118 C -0.07141 0.63308 0.09799
 Zr119 Zr -0.06591 0.49531 0.07172
 O120 O -0.15870 0.50332 0.09043
 O121 O -0.04180 0.48647 0.16037
 Zr122 Zr -0.09717 0.50318 -0.07265
 O123 O -0.19062 0.51143 -0.05706
 O124 O -0.11483 0.50053 -0.16314
 O125 O -0.09377 0.44602 -0.00122
 O126 O -0.09154 0.55155 0.00415
 O127 O 0.11886 0.57675 0.07761
 O128 O 0.05313 0.64595 0.03674
 C129 C 0.09946 0.63156 0.06919
 O130 O 0.07698 0.41746 -0.13686
 O131 O 0.03375 0.34947 -0.07590
 C132 C 0.06553 0.36297 -0.12029
 O133 O 0.07443 0.58663 -0.13134
 O134 O 0.03671 0.65067 -0.06234
 C135 C 0.06559 0.63981 -0.10937
 O136 O 0.12127 0.40742 0.06317
 O137 O 0.05118 0.34459 0.02014
 C138 C 0.10016 0.35429 0.05065
 Zr139 Zr 0.08335 0.49373 0.04579
 O140 O 0.17687 0.49917 0.02993
 O141 O 0.10164 0.48378 0.13559
 Zr142 Zr 0.05265 0.50098 -0.09845
 O143 O 0.14662 0.50599 -0.11236
 O144 O 0.03507 0.49956 -0.18890
 Zr145 Zr -0.00789 0.40899 -0.01788
 Zr146 Zr -0.00537 0.58769 -0.00911
 O147 O 0.07974 0.54945 -0.02556
 O148 O 0.07903 0.44350 -0.03099
 O149 O 0.01171 0.54758 0.07214
 O150 O -0.02528 0.45030 -0.09844
 O151 O 0.00996 0.44146 0.06648
 O152 O -0.02374 0.55651 -0.09409
 H153 H -0.12570 0.57929 0.01189
 H154 H -0.03293 0.42458 -0.13305
 H155 H 0.11490 0.57638 -0.02967
 H156 H 0.01599 0.41234 0.09854
 H157 H -0.09640 0.53677 -0.17998
 H158 H 0.00481 0.53149 -0.19743
 H159 H 0.16543 0.46858 -0.09695
 H160 H 0.18649 0.46745 0.00124
 H161 H 0.07393 0.51140 0.15600
 H162 H -0.08023 0.48615 0.18144
 H163 H -0.18048 0.47307 0.06635
 H164 H -0.20128 0.47857 -0.03047
 O165 O 0.91888 0.11150 0.59029
 O166 O 0.97151 0.04531 0.64907
 C167 C 0.93510 0.09072 0.64073
 O168 O 0.88029 -0.09579 0.42150
 O169 O 0.93773 -0.04455 0.35663
 C170 C 0.89371 -0.08005 0.36930
 O171 O 0.89620 -0.10381 0.58384
 O172 O 0.96271 -0.05516 0.64574
 C173 C 0.91845 -0.09198 0.63524
 O174 O 0.91642 0.12617 0.42922
 O175 O 0.95216 0.06050 0.36065
 C176 C 0.92416 0.10931 0.37614
 Zr177 Zr 0.94069 0.08045 0.50644
 O178 O 0.84527 0.08769 0.50389
 O179 O 0.94712 0.17514 0.51627
 Zr180 Zr 0.92251 -0.07106 0.50178
 O181 O 0.82801 -0.05678 0.50437
 O182 O 0.91146 -0.16588 0.50205
 O183 O 0.92386 0.00429 0.55645
 O184 O 0.91645 0.00818 0.45435
 O185 O 1.12011 0.09162 0.41503
 O186 O 1.05107 0.04629 0.35328
 C187 C 1.09775 0.08006 0.36371
 O188 O 1.12076 -0.11544 0.56998
 O189 O 1.06839 -0.06290 0.63865
 C190 C 1.11035 -0.10016 0.62322
 O191 O 1.08786 -0.12557 0.40847
 O192 O 1.03760 -0.05742 0.34982
 C193 C 1.07024 -0.10550 0.35803
 O194 O 1.13535 0.08382 0.57731
 O195 O 1.07577 0.03500 0.64209
 C196 C 1.12073 0.06896 0.62939
 Zr197 Zr 1.09155 0.06216 0.49719
 O198 O 1.18694 0.05506 0.49574
 O199 O 1.09536 0.15736 0.50016
 Zr200 Zr 1.07374 -0.08927 0.49259
 O201 O 1.16643 -0.10444 0.47763
 O202 O 1.06191 -0.18357 0.50075
 Zr203 Zr 1.01396 -0.00737 0.58546
 Zr204 Zr 0.99983 -0.00147 0.41343
 O205 O 1.08928 -0.01349 0.44389
 O206 O 1.09809 -0.01633 0.54515
 O207 O 1.01338 0.08460 0.45079
 O208 O 1.00174 -0.09297 0.54720
 O209 O 1.02164 0.08049 0.55252
 O210 O 0.99222 -0.09007 0.44526
 H211 H 0.87962 0.01470 0.42991
 H212 H 1.00215 -0.12882 0.57264
 H213 H 1.12157 -0.01817 0.41529
 H214 H 1.02778 0.11493 0.57954
 H215 H 0.93098 -0.18223 0.46717
 H216 H 1.03398 -0.19651 0.46908
 H217 H 1.18856 -0.07073 0.49652
 H218 H 1.19779 0.02799 0.46339
 H219 H 1.13878 0.16772 0.49968
 H220 H 0.98509 0.18724 0.49803
 H221 H 0.83041 0.06930 0.53974
 H222 H 0.81929 -0.03652 0.54156
 C223 C 1.10147 0.13049 0.26937
 C224 C 1.13017 0.10379 0.31414
 H225 H 1.05323 0.13862 0.27153
 H226 H 1.17905 0.10094 0.31591
 C227 C 0.87953 -0.14448 0.28520
 C228 C 0.85644 -0.10307 0.32070
 H229 H 0.92298 -0.16443 0.29706
 H230 H 0.81261 -0.08268 0.31197
 C231 C 0.89487 0.09210 0.73867
 C232 C 0.91029 0.12175 0.69116
 H233 H 0.90050 0.04364 0.74100
 H234 H 0.89886 0.16920 0.68688
 C235 C 1.12561 -0.15182 0.71378
 C236 C 1.15006 -0.12338 0.66965
 H237 H 1.07849 -0.16485 0.70957
 H238 H 1.19798 -0.11405 0.66901
 C239 C 0.27496 1.12887 1.15012
 C240 C 0.30446 1.14293 1.10219
 H241 H 0.29394 1.09451 1.17859
 H242 H 0.28627 1.17598 1.07199
 C243 C 0.28726 0.87493 0.85499
 C244 C 0.31125 0.86712 0.90843
 H245 H 0.30812 0.90681 0.82631
 H246 H 0.29000 0.83747 0.93889
 C247 C 0.73407 0.87900 1.12638
 C248 C 0.68939 0.90719 1.15362
 H249 H 0.72919 0.87245 1.07985
 H250 H 0.68840 0.90903 1.20047
 C251 C 0.73113 1.09933 0.87132
 C252 C 0.69030 1.12733 0.90370
 H253 H 0.72417 1.05213 0.86049
 H254 H 0.69272 1.17552 0.91157
 C255 C 0.10212 0.25757 0.10078
 C256 C 0.13244 0.30223 0.07601
 H257 H 0.05315 0.25872 0.09999
 H258 H 0.18101 0.30500 0.08209
 C259 C -0.12337 0.26480 -0.13216
 C260 C -0.15351 0.31342 -0.11331
 H261 H -0.07440 0.26589 -0.13181
 H262 H -0.20221 0.31619 -0.11798
 C263 C 0.12496 0.73234 -0.11342
 C264 C 0.09092 0.69043 -0.14017
 H265 H 0.13464 0.72972 -0.06728
 H266 H 0.08641 0.68962 -0.18700
 C267 C -0.10536 0.73663 0.11164
 C268 C -0.09259 0.68272 0.13443
 H269 H -0.10099 0.74399 0.06558
 H270 H -0.10289 0.67353 0.17916
 C271 C 1.13312 0.14072 0.70745
 C272 C 1.15532 0.09355 0.67825
 H273 H 1.09479 0.16545 0.68915
 H274 H 1.19388 0.06790 0.69449
 C275 C 0.86696 -0.09912 0.72798
 C276 C 0.89536 -0.12630 0.68437
 H277 H 0.85666 -0.05141 0.72436
 H278 H 0.90148 -0.17486 0.68386
 C279 C 1.12761 -0.11601 0.27005
 C280 C 1.08834 -0.13952 0.30663
 H281 H 1.14780 -0.07272 0.28075
 H282 H 1.07049 -0.18451 0.30005
 C283 C 0.86263 0.12628 0.29032
 C284 C 0.90097 0.14847 0.33016
 H285 H 0.84482 0.08123 0.29625
 H286 H 0.91639 0.19473 0.32867
 C287 C 0.12472 0.27115 -0.12748
 C288 C 0.09048 0.31308 -0.15389
 H289 H 0.13548 0.27640 -0.08163
 H290 H 0.08336 0.31281 -0.20047
 C291 C -0.11120 0.28539 0.15350
 C292 C -0.11767 0.30462 0.09890
 H293 H -0.08056 0.30856 0.18331
 H294 H -0.14383 0.27902 0.06712
 C295 C -0.13028 0.72757 -0.14732
 C296 C -0.14502 0.69769 -0.09924
 H297 H -0.09603 0.70822 -0.17474
 H298 H -0.17839 0.71601 -0.07036
 C299 C 0.10308 0.72534 0.12507
 C300 C 0.13240 0.68093 0.09785
 H301 H 0.05465 0.72279 0.13029
 H302 H 0.18130 0.68045 0.09719
 C303 C 0.26219 1.10277 0.87460
 C304 C 0.31306 1.12974 0.89187
 H305 H 0.25724 1.05430 0.87811
 H306 H 0.31977 1.17713 0.88260
 C307 C 0.25958 0.87768 1.10728
 C308 C 0.31022 0.89521 1.13464
 H309 H 0.25595 0.87896 1.06042
 H310 H 0.31589 0.88812 1.18086
 C311 C 0.73897 1.13255 1.11798
 C312 C 0.68365 1.12878 1.13887
 H313 H 0.74811 1.11961 1.07372
 H314 H 0.67428 1.14678 1.18151
 C315 C 0.74221 0.90217 0.89553
 C316 C 0.69060 0.87534 0.90897
 H317 H 0.74792 0.94996 0.90404
 H318 H 0.68267 0.82930 0.89471
   
