data_POSCAR
  _audit_creation_date              2014-09-24
  _audit_creation_method            'ToBaCCo'
  _symmetry_space_group_name_H-M    'P1'
  _symmetry_Int_Tables_number       1
  _symmetry_cell_setting            triclinic
  loop_
  _symmetry_equiv_pos_as_xyz
 x,y,z
_cell_length_a 42.4026
_cell_length_b 52.3087
_cell_length_c 53.8636
_cell_angle_alpha 89.582200
_cell_angle_beta 89.627600
_cell_angle_gamma 89.673400
loop_
  _atom_site_label
  _atom_site_type_symbol
  _atom_site_fract_x
  _atom_site_fract_y
  _atom_site_fract_z
C1 C 0.26587 0.28373 0.23094
 C2 C 0.25231 0.26854 0.24966
 C3 C 0.23803 0.28016 0.27027
 C4 C 0.23665 0.30691 0.27212
 C5 C 0.25041 0.32190 0.25323
 C6 C 0.26546 0.31053 0.23272
 C7 C 0.25322 0.24042 0.24782
 C8 C 0.26811 0.22577 0.26627
 C9 C 0.26909 0.19896 0.26474
 C10 C 0.25423 0.18701 0.24469
 C11 C 0.23915 0.20145 0.22608
 C12 C 0.23904 0.22824 0.22769
 H13 H 0.27762 0.27456 0.21543
 H14 H 0.22792 0.26828 0.28480
 H15 H 0.27965 0.23538 0.28144
 H16 H 0.22775 0.23968 0.21340
 H17 H 0.24881 0.34254 0.25425
 H18 H 0.25367 0.16634 0.24389
 C19 C 0.77257 0.78282 0.23327
 C20 C 0.75776 0.76866 0.25206
 C21 C 0.74309 0.78121 0.27188
 C22 C 0.74241 0.80814 0.27312
 C23 C 0.75773 0.82206 0.25395
 C24 C 0.77321 0.80975 0.23394
 C25 C 0.75743 0.74050 0.25088
 C26 C 0.77193 0.72586 0.26954
 C27 C 0.77221 0.69903 0.26835
 C28 C 0.75704 0.68705 0.24845
 C29 C 0.74232 0.70149 0.22968
 C30 C 0.74286 0.72828 0.23096
 H31 H 0.78282 0.77250 0.21782
 H32 H 0.73290 0.76958 0.28653
 H33 H 0.78381 0.73549 0.28453
 H34 H 0.73194 0.73971 0.21648
 H35 H 0.75765 0.84264 0.25458
 H36 H 0.75607 0.66638 0.24784
 C37 C 0.75335 0.27272 0.73069
 C38 C 0.73992 0.25958 0.75079
 C39 C 0.72780 0.27326 0.77103
 C40 C 0.72851 0.30029 0.77142
 C41 C 0.74272 0.31303 0.75097
 C42 C 0.75528 0.29945 0.73073
 C43 C 0.73915 0.23136 0.75077
 C44 C 0.75429 0.21739 0.76959
 C45 C 0.75568 0.19040 0.76900
 C46 C 0.74018 0.17790 0.74940
 C47 C 0.72442 0.19171 0.73071
 C48 C 0.72440 0.21849 0.73140
 H49 H 0.76260 0.26201 0.71508
 H50 H 0.71863 0.26244 0.78664
 H51 H 0.76672 0.22795 0.78365
 H52 H 0.71296 0.22942 0.71681
 H53 H 0.74351 0.33366 0.75021
 H54 H 0.73884 0.15726 0.74915
 C55 C 0.25807 0.77218 0.72997
 C56 C 0.24509 0.75911 0.75038
 C57 C 0.23178 0.77285 0.77003
 C58 C 0.23086 0.79963 0.76933
 C59 C 0.24421 0.81258 0.74888
 C60 C 0.25834 0.79918 0.72893
 C61 C 0.24509 0.73093 0.75097
 C62 C 0.26167 0.71766 0.76950
 C63 C 0.26230 0.69081 0.76992
 C64 C 0.24534 0.67741 0.75187
 C65 C 0.22824 0.69047 0.73339
 C66 C 0.22859 0.71732 0.73293
 H67 H 0.26717 0.76091 0.71473
 H68 H 0.22192 0.76259 0.78580
 H69 H 0.27485 0.72833 0.78308
 H70 H 0.21533 0.72775 0.71899
 H71 H 0.24415 0.83323 0.74913
 H72 H 0.24549 0.65671 0.75220
 C73 C 0.02965 0.05243 0.01520
 H74 H 0.01457 0.06093 0.00129
 C75 C 0.04786 0.06815 0.03020
 H76 H 0.04699 0.08865 0.02735
 C77 C 0.04895 0.01548 0.03594
 H78 H 0.04885 -0.00508 0.03824
 C79 C 0.06757 0.03047 0.05132
 H80 H 0.08164 0.02127 0.06555
 N81 N 0.03065 0.02660 0.01822
 C82 C 0.01471 -0.03069 -0.03863
 H83 H -0.01075 -0.02994 -0.03963
 C84 C 0.03172 -0.04654 -0.05465
 H85 H 0.01912 -0.05780 -0.06811
 C86 C 0.06197 -0.01616 -0.02037
 H87 H 0.07370 -0.00410 -0.00717
 C88 C 0.07992 -0.03175 -0.03604
 H89 H 0.10535 -0.03184 -0.03437
 Zn90 Zn 0.00492 0.00510 -0.00107
 N91 N 0.02994 -0.01613 -0.02174
 C92 C -0.00748 0.03736 -0.04136
 N93 N -0.02146 0.02490 -0.02200
 C94 C -0.05325 0.02576 -0.01852
 C95 C -0.07227 0.03987 -0.03474
 C96 C -0.02563 0.05145 -0.05817
 C97 C -0.01915 -0.04098 0.01967
 C98 C -0.03667 -0.05568 0.03646
 C99 C -0.05404 -0.01680 0.05638
 C100 C -0.03627 -0.00283 0.03915
 N101 N -0.01949 -0.01503 0.02114
 H102 H 0.01782 0.03614 -0.04381
 H103 H -0.06401 0.01535 -0.00333
 H104 H -0.09757 0.04018 -0.03188
 H105 H -0.01411 0.06129 -0.07345
 H106 H -0.00524 -0.05040 0.00556
 H107 H -0.03648 -0.07628 0.03467
 H108 H -0.06689 -0.00672 0.07076
 H109 H -0.03565 0.01781 0.04018
 C110 C 0.06479 -0.04729 -0.05344
 C111 C 0.06713 0.05720 0.04858
 C112 C -0.05442 -0.04362 0.05517
 C113 C -0.05847 0.05280 -0.05495
 C114 C 0.03924 0.53271 0.51620
 H115 H 0.04388 0.53342 0.49643
 C116 C 0.05667 0.54795 0.53226
 H117 H 0.07502 0.56008 0.52469
 C118 C 0.01003 0.51563 0.55002
 H119 H -0.00854 0.50339 0.55688
 C120 C 0.02671 0.53061 0.56668
 H121 H 0.02068 0.52964 0.58623
 N122 N 0.01696 0.51651 0.52534
 C123 C 0.00965 0.45725 0.46905
 H124 H -0.01571 0.45688 0.46701
 C125 C 0.02864 0.44134 0.45454
 H126 H 0.01764 0.42900 0.44110
 C127 C 0.05460 0.47447 0.48861
 H128 H 0.06463 0.48715 0.50213
 C129 C 0.07450 0.45882 0.47449
 H130 H 0.09972 0.45969 0.47732
 Zn131 Zn -0.00521 0.49547 0.50296
 N132 N 0.02284 0.47381 0.48526
 C133 C -0.02008 0.51645 0.45585
 N134 N -0.02723 0.51706 0.48049
 C135 C -0.04955 0.53339 0.48949
 C136 C -0.06680 0.54903 0.47331
 C137 C -0.03657 0.53184 0.43908
 C138 C -0.02011 0.45691 0.53679
 C139 C -0.03906 0.44086 0.55124
 C140 C -0.08499 0.45934 0.53161
 C141 C -0.06512 0.47508 0.51752
 N142 N -0.03334 0.47395 0.52072
 H143 H -0.00146 0.50414 0.44910
 H144 H -0.05435 0.53389 0.50923
 H145 H -0.08518 0.56126 0.48076
 H146 H -0.03035 0.53109 0.41957
 H147 H 0.00526 0.45619 0.53873
 H148 H -0.02803 0.42806 0.56451
 H149 H -0.11023 0.46055 0.52889
 H150 H -0.07518 0.48816 0.50412
 C151 C 0.06158 0.44219 0.45693
 C152 C 0.05073 0.54679 0.55794
 C153 C -0.07200 0.44212 0.54893
 C154 C -0.06063 0.54815 0.44766
 C155 C 0.51685 0.04329 0.51795
 H156 H 0.50366 0.05193 0.50297
 C157 C 0.53427 0.05888 0.53367
 H158 H 0.53414 0.07937 0.53062
 C159 C 0.53434 0.00626 0.53943
 H160 H 0.53478 -0.01425 0.54146
 C161 C 0.55213 0.02110 0.55551
 H162 H 0.56547 0.01176 0.57009
 N163 N 0.51694 0.01745 0.52117
 C164 C 0.50909 -0.04407 0.46775
 H165 H 0.48393 -0.04738 0.46820
 C166 C 0.52865 -0.05933 0.45301
 H167 H 0.51826 -0.07424 0.44195
 C168 C 0.55287 -0.01979 0.48092
 H169 H 0.56212 -0.00415 0.49161
 C170 C 0.57330 -0.03462 0.46649
 H171 H 0.59829 -0.03049 0.46658
 Zn172 Zn 0.49339 -0.00366 0.49945
 N173 N 0.52139 -0.02461 0.48113
 C174 C 0.47579 0.01539 0.45223
 N175 N 0.46988 0.01722 0.47701
 C176 C 0.44798 0.03401 0.48588
 C177 C 0.43039 0.04922 0.46957
 C178 C 0.45892 0.03033 0.43531
 C179 C 0.47946 -0.04453 0.53177
 C180 C 0.46086 -0.06050 0.54662
 C181 C 0.41470 -0.03773 0.53231
 C182 C 0.43420 -0.02220 0.51772
 N183 N 0.46609 -0.02537 0.51818
 H184 H 0.49378 0.00246 0.44548
 H185 H 0.44408 0.03551 0.50568
 H186 H 0.41258 0.06200 0.47701
 H187 H 0.46435 0.02873 0.41571
 H188 H 0.50465 -0.04761 0.53100
 H189 H 0.47217 -0.07512 0.55782
 H190 H 0.38941 -0.03479 0.53175
 H191 H 0.42366 -0.00766 0.50614
 C192 C 0.56123 -0.05456 0.45208
 C193 C 0.55221 0.04780 0.55277
 C194 C 0.42802 -0.05698 0.54729
 C195 C 0.43564 0.04739 0.44386
 C196 C 0.53148 0.55261 0.01942
 H197 H 0.51437 0.56060 0.00673
 C198 C 0.54998 0.56894 0.03360
 H199 H 0.54706 0.58941 0.03149
 C200 C 0.55642 0.51635 0.03734
 H201 H 0.55870 0.49578 0.03874
 C202 C 0.57538 0.53194 0.05184
 H203 H 0.59188 0.52315 0.06461
 N204 N 0.53470 0.52681 0.02174
 C205 C 0.51957 0.46253 -0.02820
 H206 H 0.49436 0.46018 -0.02697
 C207 C 0.53721 0.44622 -0.04334
 H208 H 0.52522 0.43150 -0.05362
 C209 C 0.56547 0.48548 -0.01761
 H210 H 0.57638 0.50120 -0.00812
 C211 C 0.58403 0.46957 -0.03252
 H212 H 0.60918 0.47288 -0.03373
 Zn213 Zn 0.50843 0.50470 0.00324
 N214 N 0.53381 0.48171 -0.01564
 C215 C 0.49121 0.52483 -0.04334
 N216 N 0.48333 0.52418 -0.01884
 C217 C 0.45764 0.53698 -0.01005
 C218 C 0.43845 0.55098 -0.02627
 C219 C 0.47275 0.53860 -0.06016
 C220 C 0.48604 0.48661 0.05006
 C221 C 0.46615 0.47320 0.06617
 C222 C 0.43570 0.45985 0.03091
 C223 C 0.45628 0.47349 0.01543
 N224 N 0.48120 0.48624 0.02512
 H225 H 0.51195 0.51476 -0.04987
 H226 H 0.45192 0.53610 0.00954
 H227 H 0.41775 0.56066 -0.01902
 H228 H 0.47968 0.53911 -0.07953
 H229 H 0.50530 0.49729 0.05768
 H230 H 0.47099 0.47334 0.08588
 H231 H 0.41586 0.45005 0.02284
 H232 H 0.45195 0.47430 -0.00430
 C233 C 0.56990 0.44970 -0.04576
 C234 C 0.57213 0.55863 0.05023
 C235 C 0.44059 0.45951 0.05667
 C236 C 0.44583 0.55180 -0.05174
 C237 C 0.18453 -0.15698 -0.17307
 C238 C 0.21375 -0.14906 -0.18284
 C239 C 0.22904 -0.16334 -0.20121
 C240 C 0.21546 -0.18584 -0.21028
 C241 C 0.18654 -0.19401 -0.20021
 C242 C 0.17126 -0.17977 -0.18182
 C243 C 0.16765 -0.14129 -0.15433
 N244 N 0.13984 -0.14924 -0.14437
 N245 N 0.12426 -0.13484 -0.12804
 C246 C 0.13578 -0.11185 -0.12098
 N247 N 0.16366 -0.10395 -0.13086
 N248 N 0.17926 -0.11836 -0.14717
 C249 C 0.11803 -0.09555 -0.10325
 C250 C 0.12893 -0.07104 -0.09723
 C251 C 0.11178 -0.05545 -0.08099
 C252 C 0.08334 -0.06401 -0.07036
 C253 C 0.07260 -0.08860 -0.07619
 C254 C 0.08971 -0.10418 -0.09245
 H255 H 0.22477 -0.13172 -0.17644
 H256 H 0.25156 -0.15678 -0.20830
 H257 H 0.17531 -0.21111 -0.20700
 H258 H 0.14878 -0.18644 -0.17475
 H259 H 0.15057 -0.06373 -0.10526
 H260 H 0.12050 -0.03648 -0.07714
 H261 H 0.05104 -0.09592 -0.06801
 H262 H 0.08067 -0.12298 -0.09656
 C263 C 0.18870 0.34382 0.33311
 C264 C 0.21750 0.35335 0.32398
 C265 C 0.23324 0.34119 0.30445
 C266 C 0.22054 0.31924 0.29353
 C267 C 0.19199 0.30948 0.30288
 C268 C 0.17628 0.32160 0.32246
 C269 C 0.17134 0.35734 0.35314
 N270 N 0.14413 0.34768 0.36267
 N271 N 0.12799 0.36026 0.38007
 C272 C 0.13835 0.38305 0.38867
 N273 N 0.16566 0.39263 0.37925
 N274 N 0.18182 0.38003 0.36188
 C275 C 0.11967 0.39759 0.40725
 C276 C 0.12876 0.42232 0.41421
 C277 C 0.11025 0.43657 0.43068
 C278 C 0.08224 0.42642 0.44065
 C279 C 0.07355 0.40145 0.43417
 C280 C 0.09202 0.38722 0.41765
 H281 H 0.22787 0.37032 0.33183
 H282 H 0.25545 0.34894 0.29793
 H283 H 0.18139 0.29278 0.29468
 H284 H 0.15411 0.31376 0.32896
 H285 H 0.14988 0.43094 0.40654
 H286 H 0.11741 0.45585 0.43503
 H287 H 0.05239 0.39291 0.44184
 H288 H 0.08442 0.36817 0.41286
 C289 C 0.69316 -0.15306 0.33126
 C290 C 0.71895 -0.14159 0.31924
 C291 C 0.73538 -0.15437 0.30046
 C292 C 0.72651 -0.17914 0.29293
 C293 C 0.70086 -0.19069 0.30554
 C294 C 0.68451 -0.17785 0.32434
 C295 C 0.67496 -0.13903 0.35048
 N296 N 0.65077 -0.15042 0.36289
 N297 N 0.63386 -0.13755 0.37962
 C298 C 0.64036 -0.11272 0.38464
 N299 N 0.66465 -0.10138 0.37232
 N300 N 0.68159 -0.11426 0.35561
 C301 C 0.62088 -0.09811 0.40263
 C302 C 0.62583 -0.07181 0.40597
 C303 C 0.60673 -0.05779 0.42221
 C304 C 0.58227 -0.06974 0.43557
 C305 C 0.57761 -0.09611 0.43253
 C306 C 0.59667 -0.11013 0.41624
 H307 H 0.72659 -0.12263 0.32435
 H308 H 0.75573 -0.14486 0.29258
 H309 H 0.69204 -0.20920 0.30023
 H310 H 0.66460 -0.18723 0.33310
 H311 H 0.64418 -0.06189 0.39575
 H312 H 0.61066 -0.03744 0.42382
 H313 H 0.55927 -0.10596 0.44282
 H314 H 0.59230 -0.13038 0.41424
 C315 C 0.68651 0.34276 -0.16941
 C316 C 0.67642 0.31788 -0.17464
 C317 C 0.69042 0.30383 -0.19378
 C318 C 0.71507 0.31421 -0.20845
 C319 C 0.72543 0.33911 -0.20264
 C320 C 0.71136 0.35309 -0.18350
 C321 C 0.67074 0.35806 -0.14980
 N322 N 0.67888 0.38280 -0.14602
 N323 N 0.66407 0.39680 -0.12894
 C324 C 0.64048 0.38667 -0.11488
 N325 N 0.63247 0.36188 -0.11855
 N326 N 0.64726 0.34788 -0.13564
 C327 C 0.62329 0.40253 -0.09645
 C328 C 0.59954 0.39183 -0.08136
 C329 C 0.58255 0.40703 -0.06467
 C330 C 0.58887 0.43328 -0.06269
 C331 C 0.61292 0.44390 -0.07752
 C332 C 0.62995 0.42871 -0.09417
 H333 H 0.65718 0.30934 -0.16425
 H334 H 0.68051 0.28530 -0.19765
 H335 H 0.74516 0.34781 -0.21221
 H336 H 0.72007 0.37209 -0.17976
 H337 H 0.59389 0.37172 -0.08252
 H338 H 0.56448 0.39819 -0.05325
 H339 H 0.61808 0.46412 -0.07672
 H340 H 0.64801 0.43762 -0.10553
 C341 C -0.19152 0.14851 -0.17704
 C342 C -0.19599 0.13872 -0.20093
 C343 C -0.21370 0.15224 -0.21846
 C344 C -0.22728 0.17626 -0.21279
 C345 C -0.22274 0.18588 -0.18863
 C346 C -0.20532 0.17213 -0.17102
 C347 C -0.17216 0.13428 -0.15871
 N348 N -0.17248 0.14077 -0.13433
 N349 N -0.15484 0.12802 -0.11796
 C350 C -0.13602 0.10834 -0.12531
 N351 N -0.13568 0.10188 -0.14968
 N352 N -0.15342 0.11454 -0.16602
 C353 C -0.11615 0.09425 -0.10722
 C354 C -0.09193 0.07787 -0.11550
 C355 C -0.07309 0.06460 -0.09852
 C356 C -0.07826 0.06718 -0.07288
 C357 C -0.10254 0.08343 -0.06455
 C358 C -0.12117 0.09695 -0.08153
 H359 H -0.18562 0.12058 -0.20622
 H360 H -0.21524 0.14418 -0.23684
 H361 H -0.23346 0.20368 -0.18278
 H362 H -0.20247 0.18016 -0.15270
 H363 H -0.08738 0.07539 -0.13514
 H364 H -0.05474 0.05200 -0.10544
 H365 H -0.10685 0.08589 -0.04486
 H366 H -0.13966 0.10937 -0.07454
 C367 C -0.17932 0.65384 0.32373
 C368 C -0.17846 0.64683 0.29859
 C369 C -0.19412 0.66152 0.28072
 C370 C -0.21124 0.68349 0.28753
 C371 C -0.21216 0.69050 0.31269
 C372 C -0.19630 0.67588 0.33058
 C373 C -0.16249 0.63819 0.34256
 N374 N -0.15913 0.64655 0.36623
 N375 N -0.14372 0.63247 0.38299
 C376 C -0.13113 0.60942 0.37682
 N377 N -0.13459 0.60106 0.35319
 N378 N -0.14990 0.61515 0.33643
 C379 C -0.11372 0.59372 0.39528
 C380 C -0.10447 0.56859 0.38958
 C381 C -0.08756 0.55384 0.40665
 C382 C -0.07926 0.56386 0.42984
 C383 C -0.08874 0.58892 0.43568
 C384 C -0.10584 0.60368 0.41860
 H385 H -0.16542 0.63010 0.29261
 H386 H -0.19240 0.65583 0.26147
 H387 H -0.22546 0.70712 0.31861
 H388 H -0.19757 0.68174 0.34980
 H389 H -0.11036 0.56021 0.37189
 H390 H -0.08122 0.53443 0.40174
 H391 H -0.08244 0.59732 0.45326
 H392 H -0.11250 0.62300 0.42357
 C393 C 0.31773 0.15359 0.31989
 C394 C 0.31890 0.14687 0.29469
 C395 C 0.30326 0.16165 0.27688
 C396 C 0.28581 0.18341 0.28383
 C397 C 0.28461 0.19014 0.30905
 C398 C 0.30048 0.17544 0.32687
 C399 C 0.33445 0.13782 0.33868
 N400 N 0.33803 0.14620 0.36231
 N401 N 0.35332 0.13203 0.37906
 C402 C 0.36556 0.10884 0.37291
 N403 N 0.36188 0.10046 0.34931
 N404 N 0.34670 0.11465 0.33255
 C405 C 0.38283 0.09307 0.39138
 C406 C 0.39109 0.06764 0.38600
 C407 C 0.40787 0.05282 0.40312
 C408 C 0.41705 0.06309 0.42599
 C409 C 0.40858 0.08848 0.43147
 C410 C 0.39158 0.10327 0.41439
 H411 H 0.33218 0.13029 0.28862
 H412 H 0.30521 0.15619 0.25758
 H413 H 0.27104 0.20658 0.31508
 H414 H 0.29895 0.18108 0.34615
 H415 H 0.38449 0.05908 0.36856
 H416 H 0.41343 0.03319 0.39849
 H417 H 0.41562 0.09710 0.44877
 H418 H 0.38572 0.12283 0.41908
 C419 C 0.31649 0.64940 -0.17526
 C420 C 0.31582 0.64129 -0.20008
 C421 C 0.29837 0.65478 -0.21779
 C422 C 0.28101 0.67668 -0.21114
 C423 C 0.28174 0.68489 -0.18636
 C424 C 0.29931 0.67142 -0.16861
 C425 C 0.33503 0.63491 -0.15655
 N426 N 0.33801 0.64359 -0.13297
 N427 N 0.35482 0.63052 -0.11628
 C428 C 0.36929 0.60819 -0.12245
 N429 N 0.36623 0.59951 -0.14601
 N430 N 0.34949 0.61258 -0.16269
 C431 C 0.38826 0.59363 -0.10405
 C432 C 0.40127 0.56972 -0.11024
 C433 C 0.41964 0.55612 -0.09319
 C434 C 0.42559 0.56611 -0.06954
 C435 C 0.41232 0.58990 -0.06322
 C436 C 0.39385 0.60351 -0.08028
 H437 H 0.32893 0.62453 -0.20593
 H438 H 0.29879 0.64821 -0.23681
 H439 H 0.26835 0.70153 -0.18059
 H440 H 0.29922 0.67817 -0.14966
 H441 H 0.39729 0.56142 -0.12830
 H442 H 0.42901 0.53764 -0.09850
 H443 H 0.41673 0.59824 -0.04524
 H444 H 0.38425 0.62189 -0.07490
 C445 C -0.17757 -0.14712 0.17854
 C446 C -0.20382 -0.13663 0.19087
 C447 C -0.22013 -0.15075 0.20890
 C448 C -0.21081 -0.17598 0.21514
 C449 C -0.18467 -0.18646 0.20228
 C450 C -0.16830 -0.17223 0.18438
 C451 C -0.15972 -0.13188 0.15992
 N452 N -0.13250 -0.14106 0.14987
 N453 N -0.11619 -0.12726 0.13341
 C454 C -0.12640 -0.10370 0.12625
 N455 N -0.15368 -0.09454 0.13623
 N456 N -0.16996 -0.10832 0.15274
 C457 C -0.10807 -0.08830 0.10805
 C458 C -0.12007 -0.06502 0.09880
 C459 C -0.10272 -0.05055 0.08165
 C460 C -0.07291 -0.05896 0.07342
 C461 C -0.06089 -0.08219 0.08274
 C462 C -0.07828 -0.09670 0.09980
 H463 H -0.21183 -0.11740 0.18665
 H464 H -0.24076 -0.14194 0.21715
 H465 H -0.17557 -0.20529 0.20671
 H466 H -0.14810 -0.18091 0.17531
 H467 H -0.14299 -0.05802 0.10466
 H468 H -0.11285 -0.03292 0.07458
 H469 H -0.03779 -0.08902 0.07712
 H470 H -0.06820 -0.11445 0.10664
 C471 C -0.19779 0.33978 0.67104
 C472 C -0.18537 0.31672 0.68044
 C473 C -0.20076 0.30359 0.69962
 C474 C -0.22901 0.31314 0.70983
 C475 C -0.24169 0.33601 0.70022
 C476 C -0.22624 0.34920 0.68106
 C477 C -0.18075 0.35416 0.65132
 N478 N -0.19109 0.37752 0.64363
 N479 N -0.17516 0.39075 0.62649
 C480 C -0.14824 0.38117 0.61628
 N481 N -0.13804 0.35774 0.62385
 N482 N -0.15394 0.34453 0.64100
 C483 C -0.12976 0.39628 0.59793
 C484 C -0.10228 0.38601 0.58708
 C485 C -0.08393 0.40069 0.57080
 C486 C -0.09257 0.42600 0.56499
 C487 C -0.12043 0.43608 0.57538
 C488 C -0.13883 0.42140 0.59165
 H489 H -0.16346 0.30893 0.67325
 H490 H -0.19017 0.28620 0.70683
 H491 H -0.26367 0.34365 0.70743
 H492 H -0.23658 0.36683 0.67418
 H493 H -0.09469 0.36668 0.59134
 H494 H -0.06288 0.39221 0.56278
 H495 H -0.12756 0.45561 0.57150
 H496 H -0.15983 0.42994 0.59967
 C497 C 0.30335 -0.16023 0.66957
 C498 C 0.31244 -0.18536 0.67552
 C499 C 0.29740 -0.19881 0.69468
 C500 C 0.27271 -0.18754 0.70867
 C501 C 0.26333 -0.16241 0.70211
 C502 C 0.27840 -0.14903 0.68293
 C503 C 0.32029 -0.14554 0.65001
 N504 N 0.31260 -0.12076 0.64518
 N505 N 0.32849 -0.10729 0.62822
 C506 C 0.35276 -0.11800 0.61533
 N507 N 0.36032 -0.14283 0.62003
 N508 N 0.34444 -0.15630 0.63701
 C509 C 0.37117 -0.10270 0.59709
 C510 C 0.39620 -0.11382 0.58366
 C511 C 0.41435 -0.09911 0.56724
 C512 C 0.40790 -0.07294 0.56386
 C513 C 0.38256 -0.06191 0.57697
 C514 C 0.36440 -0.07661 0.59337
 H515 H 0.33170 -0.19456 0.66569
 H516 H 0.30657 -0.21760 0.69916
 H517 H 0.24363 -0.15303 0.71114
 H518 H 0.27045 -0.12981 0.67863
 H519 H 0.40198 -0.13389 0.58595
 H520 H 0.43341 -0.10827 0.55713
 H521 H 0.37723 -0.04173 0.57504
 H522 H 0.34535 -0.06737 0.60342
 C523 C 0.31283 0.35704 0.17760
 C524 C 0.31357 0.36356 0.20285
 C525 C 0.29816 0.34851 0.22062
 C526 C 0.28138 0.32665 0.21359
 C527 C 0.28041 0.32021 0.18830
 C528 C 0.29603 0.33520 0.17051
 C529 C 0.32990 0.37280 0.15893
 N530 N 0.33336 0.36482 0.13511
 N531 N 0.34940 0.37878 0.11858
 C532 C 0.36255 0.40136 0.12515
 N533 N 0.35890 0.40938 0.14892
 N534 N 0.34296 0.39540 0.16545
 C535 C 0.38121 0.41665 0.10707
 C536 C 0.39227 0.44099 0.11349
 C537 C 0.41100 0.45503 0.09697
 C538 C 0.41929 0.44505 0.07365
 C539 C 0.40772 0.42093 0.06700
 C540 C 0.38886 0.40689 0.08351
 H541 H 0.32646 0.38013 0.20902
 H542 H 0.29989 0.35377 0.23996
 H543 H 0.26735 0.30370 0.18222
 H544 H 0.29484 0.32970 0.15120
 H545 H 0.38662 0.44921 0.13137
 H546 H 0.41898 0.47376 0.10248
 H547 H 0.41392 0.41259 0.04927
 H548 H 0.38078 0.38819 0.07798
 C549 C 0.19070 0.16195 0.16773
 C550 C 0.17726 0.18381 0.17869
 C551 C 0.19322 0.19690 0.19730
 C552 C 0.22296 0.18842 0.20539
 C553 C 0.23667 0.16688 0.19410
 C554 C 0.22075 0.15381 0.17549
 C555 C 0.17316 0.14733 0.14884
 N556 N 0.18570 0.12576 0.13882
 N557 N 0.16957 0.11217 0.12244
 C558 C 0.14019 0.11955 0.11537
 N559 N 0.12772 0.14121 0.12527
 N560 N 0.14385 0.15480 0.14166
 C561 C 0.12186 0.10400 0.09768
 C562 C 0.09127 0.11149 0.09067
 C563 C 0.07366 0.09644 0.07458
 C564 C 0.08619 0.07353 0.06513
 C565 C 0.11689 0.06617 0.07193
 C566 C 0.13453 0.08123 0.08799
 H567 H 0.15417 0.19063 0.17319
 H568 H 0.18189 0.21326 0.20582
 H569 H 0.25976 0.16012 0.19969
 H570 H 0.23191 0.13715 0.16738
 H571 H 0.08073 0.12887 0.09780
 H572 H 0.04993 0.10248 0.06995
 H573 H 0.12736 0.04880 0.06469
 H574 H 0.15804 0.07490 0.09291
 C575 C 0.17482 0.64818 0.67968
 C576 C 0.19146 0.67022 0.67248
 C577 C 0.20880 0.68396 0.68985
 C578 C 0.20977 0.67602 0.71484
 C579 C 0.19292 0.65410 0.72204
 C580 C 0.17575 0.64032 0.70468
 C581 C 0.15667 0.63334 0.66133
 N582 N 0.14402 0.61040 0.66770
 N583 N 0.12775 0.59696 0.65131
 C584 C 0.12334 0.60588 0.62784
 N585 N 0.13596 0.62885 0.62145
 N586 N 0.15232 0.64228 0.63784
 C587 C 0.10510 0.59082 0.60973
 C588 C 0.09682 0.60125 0.58651
 C589 C 0.07923 0.58702 0.56967
 C590 C 0.06963 0.56202 0.57563
 C591 C 0.07821 0.55155 0.59874
 C592 C 0.09561 0.56579 0.61560
 H593 H 0.19136 0.67676 0.65336
 H594 H 0.22182 0.70059 0.68364
 H595 H 0.19267 0.64774 0.74122
 H596 H 0.16303 0.62355 0.71094
 H597 H 0.10364 0.62051 0.58143
 H598 H 0.07271 0.59576 0.55215
 H599 H 0.07176 0.53218 0.60375
 H600 H 0.10177 0.55705 0.63321
 C601 C 0.67490 0.15121 0.67357
 C602 C 0.70494 0.14302 0.68130
 C603 C 0.72112 0.15631 0.69963
 C604 C 0.70766 0.17808 0.71066
 C605 C 0.67782 0.18647 0.70272
 C606 C 0.66162 0.17319 0.68439
 C607 C 0.65730 0.13663 0.65469
 N608 N 0.62822 0.14438 0.64722
 N609 N 0.61214 0.13095 0.63067
 C610 C 0.62446 0.10919 0.62088
 N611 N 0.65359 0.10150 0.62827
 N612 N 0.66967 0.11492 0.64481
 C613 C 0.60628 0.09388 0.60291
 C614 C 0.61873 0.07090 0.59352
 C615 C 0.60130 0.05609 0.57713
 C616 C 0.57101 0.06390 0.56970
 C617 C 0.55868 0.08701 0.57882
 C618 C 0.57610 0.10182 0.59527
 H619 H 0.71597 0.12625 0.67330
 H620 H 0.74428 0.14959 0.70511
 H621 H 0.66667 0.20302 0.71107
 H622 H 0.63852 0.18003 0.67893
 H623 H 0.64193 0.06423 0.59891
 H624 H 0.61163 0.03857 0.57012
 H625 H 0.53528 0.09340 0.57364
 H626 H 0.56575 0.11939 0.60214
 C627 C 0.69424 0.66268 0.17071
 C628 C 0.72405 0.65423 0.17872
 C629 C 0.73977 0.66698 0.19765
 C630 C 0.72611 0.68852 0.20896
 C631 C 0.69656 0.69724 0.20069
 C632 C 0.68078 0.68445 0.18181
 C633 C 0.67699 0.64849 0.15134
 N634 N 0.64732 0.65556 0.14470
 N635 N 0.63146 0.64232 0.12788
 C636 C 0.64460 0.62146 0.11695
 N637 N 0.67434 0.61450 0.12347
 N638 N 0.69019 0.62772 0.14030
 C639 C 0.62653 0.60614 0.09891
 C640 C 0.64038 0.58476 0.08741
 C641 C 0.62292 0.56963 0.07129
 C642 C 0.59119 0.57550 0.06629
 C643 C 0.57752 0.59716 0.07740
 C644 C 0.59498 0.61231 0.09350
 H645 H 0.73519 0.63760 0.17055
 H646 H 0.76271 0.66003 0.20341
 H647 H 0.68531 0.71364 0.20923
 H648 H 0.65786 0.69149 0.17611
 H649 H 0.66467 0.57952 0.09100
 H650 H 0.63428 0.55331 0.06273
 H651 H 0.55302 0.60202 0.07418
 H652 H 0.58353 0.62861 0.10204
   
