data_POSCAR
  _audit_creation_date              2014-09-24
  _audit_creation_method            'ToBaCCo'
  _symmetry_space_group_name_H-M    'P1'
  _symmetry_Int_Tables_number       1
  _symmetry_cell_setting            triclinic
  loop_
  _symmetry_equiv_pos_as_xyz
 x,y,z
_cell_length_a 23.4342
_cell_length_b 23.4342
_cell_length_c 38.8752
_cell_angle_alpha 89.945300
_cell_angle_beta 90.054800
_cell_angle_gamma 90.532900
loop_
  _atom_site_label
  _atom_site_type_symbol
  _atom_site_fract_x
  _atom_site_fract_y
  _atom_site_fract_z
O1 O -0.04877 0.44514 1.03277
 O2 O -0.04937 0.55654 0.96586
 O3 O -0.04894 0.44517 0.96587
 O4 O -0.04921 0.55644 1.03274
 O5 O 0.04508 0.55767 1.03269
 O6 O 0.04534 0.44645 0.96585
 O7 O 0.04487 0.55776 0.96583
 O8 O 0.04552 0.44641 1.03272
 Cu9 Cu -0.05854 0.50069 0.99931
 Cu10 Cu 0.05466 0.50219 0.99926
 C11 C -0.00151 0.42665 1.04402
 C12 C -0.00234 0.57642 0.95458
 C13 C -0.00174 0.42667 0.95462
 C14 C -0.00210 0.57617 1.04397
 O15 O 0.55653 -0.04936 0.53413
 O16 O 0.44513 -0.04876 0.46722
 O17 O 0.55643 -0.04920 0.46725
 O18 O 0.44517 -0.04893 0.53412
 O19 O 0.44644 0.04535 0.53414
 O20 O 0.55766 0.04509 0.46730
 O21 O 0.44641 0.04552 0.46727
 O22 O 0.55776 0.04488 0.53416
 Cu23 Cu 0.50068 -0.05853 0.50068
 Cu24 Cu 0.50219 0.05467 0.50073
 C25 C 0.57642 -0.00234 0.54541
 C26 C 0.42665 -0.00150 0.45598
 C27 C 0.57616 -0.00209 0.45602
 C28 C 0.42667 -0.00174 0.54537
 Si29 Si 0.00119 0.00120 0.25000
 Si30 Si 0.00000 0.00001 0.75000
 N31 N -0.05207 -0.31443 0.10450
 C32 C -0.00217 -0.29195 0.11616
 N33 N 0.04774 -0.31335 0.10446
 N34 N 0.04775 -0.35588 0.08174
 C35 C -0.00215 -0.37839 0.06992
 N36 N -0.05206 -0.35697 0.08177
 C37 C -0.00213 -0.24462 0.13955
 C38 C -0.00194 -0.20413 0.15865
 C39 C -0.00152 -0.15509 0.18072
 N40 N -0.00101 -0.16122 0.21543
 N41 N -0.00030 -0.11545 0.23577
 C42 C -0.00004 -0.06221 0.22203
 N43 N -0.00064 -0.05617 0.18734
 N44 N -0.00135 -0.10189 0.16700
 N45 N 0.04920 0.31771 0.10477
 C46 C -0.00053 0.29505 0.11653
 N47 N -0.05060 0.31615 0.10481
 N48 N -0.05094 0.35857 0.08196
 C49 C -0.00120 0.38124 0.07004
 N50 N 0.04888 0.36011 0.08191
 C51 C -0.00012 0.24801 0.14018
 C52 C 0.00040 0.20784 0.15957
 C53 C 0.00123 0.15927 0.18206
 N54 N -0.04205 0.14966 0.20453
 N55 N -0.04190 0.10366 0.22472
 C56 C 0.00149 0.06585 0.22302
 N57 N 0.04483 0.07561 0.20062
 N58 N 0.04469 0.12158 0.18044
 N59 N 0.31581 -0.05115 0.60577
 C60 C 0.29461 -0.00114 0.61744
 N61 N 0.31736 0.04865 0.60580
 N62 N 0.35994 0.04845 0.58311
 C63 C 0.38116 -0.00156 0.57128
 N64 N 0.35839 -0.05136 0.58307
 C65 C 0.24736 -0.00085 0.64088
 C66 C 0.20702 -0.00044 0.66010
 C67 C 0.15828 0.00025 0.68240
 N68 N 0.12051 0.04364 0.68062
 N69 N 0.07444 0.04370 0.70067
 C70 C 0.06466 0.00034 0.72310
 N71 N 0.10254 -0.04298 0.72495
 N72 N 0.14864 -0.04305 0.70489
 N73 N -0.31628 -0.05263 0.60458
 C74 C -0.29369 -0.00281 0.61624
 N75 N -0.31511 0.04716 0.60458
 N76 N -0.35773 0.04731 0.58187
 C77 C -0.38034 -0.00252 0.56998
 N78 N -0.35891 -0.05250 0.58187
 C79 C -0.24624 -0.00291 0.63959
 C80 C -0.20565 -0.00283 0.65867
 C81 C -0.15652 -0.00251 0.68073
 N82 N -0.10336 -0.00233 0.66700
 N83 N -0.05757 -0.00169 0.68732
 C84 C -0.06348 -0.00117 0.72202
 N85 N -0.11668 -0.00145 0.73577
 N86 N -0.16252 -0.00208 0.71543
 N87 N -0.05264 -0.31627 0.89541
 C88 C -0.00281 -0.29368 0.88376
 N89 N 0.04715 -0.31510 0.89541
 N90 N 0.04730 -0.35772 0.91812
 C91 C -0.00252 -0.38033 0.93001
 N92 N -0.05251 -0.35890 0.91813
 C93 C -0.00292 -0.24623 0.86040
 C94 C -0.00283 -0.20564 0.84132
 C95 C -0.00252 -0.15651 0.81927
 N96 N -0.00209 -0.16251 0.78456
 N97 N -0.00145 -0.11667 0.76422
 C98 C -0.00118 -0.06348 0.77797
 N99 N -0.00170 -0.05756 0.81267
 N100 N -0.00234 -0.10335 0.83299
 N101 N -0.05115 0.31581 0.89423
 C102 C -0.00114 0.29462 0.88255
 N103 N 0.04865 0.31737 0.89419
 N104 N 0.04844 0.35995 0.91688
 C105 C -0.00157 0.38117 0.92871
 N106 N -0.05137 0.35840 0.91692
 C107 C -0.00086 0.24736 0.85911
 C108 C -0.00045 0.20703 0.83989
 C109 C 0.00024 0.15829 0.81759
 N110 N 0.04363 0.12052 0.81937
 N111 N 0.04369 0.07445 0.79932
 C112 C 0.00033 0.06467 0.77690
 N113 N -0.04299 0.10255 0.77504
 N114 N -0.04306 0.14864 0.79510
 N115 N -0.31336 0.04774 0.39553
 C116 C -0.29195 -0.00216 0.38383
 N117 N -0.31444 -0.05206 0.39549
 N118 N -0.35698 -0.05206 0.41822
 C119 C -0.37839 -0.00214 0.43007
 N120 N -0.35589 0.04776 0.41825
 C121 C -0.24463 -0.00212 0.36044
 C122 C -0.20414 -0.00193 0.34134
 C123 C -0.15510 -0.00151 0.31927
 N124 N -0.16123 -0.00100 0.28456
 N125 N -0.11546 -0.00029 0.26422
 C126 C -0.06222 -0.00003 0.27796
 N127 N -0.05618 -0.00063 0.31265
 N128 N -0.10189 -0.00134 0.33299
 N129 N 0.31615 -0.05059 0.39518
 C130 C 0.29504 -0.00052 0.38346
 N131 N 0.31770 0.04921 0.39522
 N132 N 0.36011 0.04889 0.41808
 C133 C 0.38123 -0.00119 0.42995
 N134 N 0.35856 -0.05093 0.41804
 C135 C 0.24800 -0.00011 0.35981
 C136 C 0.20783 0.00041 0.34042
 C137 C 0.15926 0.00124 0.31793
 N138 N 0.12157 0.04470 0.31956
 N139 N 0.07560 0.04484 0.29937
 C140 C 0.06584 0.00150 0.27697
 N141 N 0.10365 -0.04189 0.27527
 N142 N 0.14965 -0.04204 0.29546
   
