data_POSCAR
  _audit_creation_date              2014-09-24
  _audit_creation_method            'ToBaCCo'
  _symmetry_space_group_name_H-M    'P1'
  _symmetry_Int_Tables_number       1
  _symmetry_cell_setting            triclinic
  loop_
  _symmetry_equiv_pos_as_xyz
 x,y,z
_cell_length_a 19.2258
_cell_length_b 26.2012
_cell_length_c 20.5850
_cell_angle_alpha 90.129000
_cell_angle_beta 89.712000
_cell_angle_gamma 89.281000
loop_
  _atom_site_label
  _atom_site_type_symbol
  _atom_site_fract_x
  _atom_site_fract_y
  _atom_site_fract_z
O1 O 0.24995 0.31107 0.17716
 O2 O 0.33318 0.20537 0.26758
 O3 O 0.24635 0.21187 0.16857
 O4 O 0.34265 0.30365 0.26800
 O5 O 0.25738 0.30520 0.34027
 O6 O 0.16416 0.20987 0.24343
 O7 O 0.24757 0.20796 0.33981
 O8 O 0.16353 0.31158 0.24810
 Cu9 Cu 0.30127 0.25762 0.21282
 Cu10 Cu 0.19872 0.25933 0.29927
 C11 C 0.19265 0.32973 0.19787
 C12 C 0.30508 0.18965 0.31983
 C13 C 0.18938 0.19419 0.18962
 C14 C 0.31706 0.31958 0.32137
 O15 O 0.84608 0.29488 0.23377
 O16 O 0.74370 0.20600 0.33316
 O17 O 0.82314 0.19715 0.23253
 O18 O 0.76202 0.30346 0.33614
 O19 O 0.66692 0.30936 0.27657
 O20 O 0.73929 0.21418 0.16236
 O21 O 0.65811 0.21142 0.26239
 O22 O 0.75212 0.31214 0.17615
 Cu23 Cu 0.80324 0.24976 0.29027
 Cu24 Cu 0.69508 0.26347 0.21277
 C25 C 0.81603 0.31896 0.18822
 C26 C 0.68410 0.19234 0.31370
 C27 C 0.79218 0.18820 0.17946
 C28 C 0.70199 0.32238 0.32581
 O29 O 0.83161 0.69921 0.76700
 O30 O 0.75914 0.80724 0.67400
 O31 O 0.85043 0.79268 0.77678
 O32 O 0.74873 0.70406 0.67730
 O33 O 0.65781 0.71839 0.74132
 O34 O 0.75491 0.81510 0.82980
 O35 O 0.66893 0.81347 0.74043
 O36 O 0.74866 0.71280 0.84007
 Cu37 Cu 0.80525 0.75272 0.71484
 Cu38 Cu 0.70010 0.76424 0.79644
 C39 C 0.80206 0.68814 0.82020
 C40 C 0.70132 0.82794 0.69013
 C41 C 0.81988 0.81919 0.82046
 C42 C 0.68653 0.69488 0.69416
 O43 O 0.34544 0.80289 0.74362
 O44 O 0.23917 0.71652 0.84272
 O45 O 0.33177 0.70380 0.75120
 O46 O 0.24986 0.81445 0.83258
 O47 O 0.16910 0.81760 0.75695
 O48 O 0.25101 0.70677 0.67544
 O49 O 0.15828 0.71807 0.76695
 O50 O 0.26417 0.80533 0.66803
 Cu51 Cu 0.29994 0.75921 0.79986
 Cu52 Cu 0.20233 0.76211 0.70940
 C53 C 0.32279 0.81906 0.68955
 C54 C 0.18055 0.70243 0.82159
 C55 C 0.30520 0.68626 0.69948
 C56 C 0.19547 0.83507 0.80882
 C57 C 1.03185 0.04977 0.03937
 C58 C 0.95895 0.04263 0.04122
 C59 C 0.92976 0.00150 0.00808
 C60 C 0.96910 -0.03094 -0.03282
 C61 C 1.04149 -0.02148 -0.03908
 C62 C 1.07167 0.01706 -0.00106
 H63 H 1.12752 0.02185 -0.00373
 H64 H 0.87444 -0.00449 0.01383
 C65 C 0.53472 0.54055 0.55343
 C66 C 0.46120 0.53561 0.55339
 C67 C 0.43094 0.49819 0.51410
 C68 C 0.47147 0.46333 0.47794
 C69 C 0.54504 0.46657 0.48039
 C70 C 0.57513 0.50620 0.51614
 H71 H 0.63127 0.50934 0.51643
 H72 H 0.37475 0.49527 0.51306
 C73 C -0.03134 0.46823 0.03809
 C74 C 0.04121 0.47697 0.04424
 C75 C 0.07203 0.51631 0.00786
 C76 C 0.03225 0.54843 -0.03247
 C77 C -0.04010 0.54064 -0.03628
 C78 C -0.07031 0.50037 -0.00276
 H79 H -0.12573 0.49460 -0.00825
 H80 H 0.12749 0.52253 0.01186
 C81 C 0.47208 0.96266 0.53056
 C82 C 0.54540 0.96514 0.52628
 C83 C 0.57577 1.00141 0.48550
 C84 C 0.53531 1.03825 0.45298
 C85 C 0.46163 1.03669 0.45893
 C86 C 0.43121 0.99791 0.49608
 H87 H 0.37506 0.99664 0.50088
 H88 H 0.63200 1.00284 0.48216
 C89 C 1.10362 0.12643 0.18238
 C90 C 1.15453 0.15683 0.15383
 C91 C 1.16876 0.14799 0.08738
 C92 C 1.12657 0.11523 0.05038
 C93 C 1.06983 0.08900 0.07858
 C94 C 1.06261 0.09358 0.14650
 C95 C 1.00235 0.10454 0.19137
 C96 C 1.04914 0.13813 0.23152
 H97 H 1.20954 0.16869 0.06277
 H98 H 1.13748 0.11144 -0.00107
 H99 H 0.98456 0.07013 0.21785
 H100 H 0.96133 0.12849 0.16894
 H101 H 1.06189 0.12171 0.27982
 H102 H 1.03261 0.17897 0.23172
 C103 C 0.58266 0.66653 0.63360
 C104 C 0.64750 0.65544 0.66041
 C105 C 0.67113 0.60446 0.65957
 C106 C 0.63305 0.56677 0.62694
 C107 C 0.57143 0.57955 0.59304
 C108 C 0.54633 0.62982 0.59962
 C109 C 0.52201 0.66732 0.55008
 C110 C 0.56242 0.70751 0.58699
 H111 H 0.71932 0.59395 0.68341
 H112 H 0.65292 0.52793 0.62684
 H113 H 0.46500 0.67402 0.55281
 H114 H 0.54318 0.65909 0.50074
 H115 H 0.52879 0.73715 0.61032
 H116 H 0.60755 0.72237 0.55925
 C117 C -0.17558 0.40063 0.12851
 C118 C -0.14478 0.35474 0.14777
 C119 C -0.07837 0.34236 0.12246
 C120 C -0.04219 0.37761 0.08347
 C121 C -0.06974 0.42720 0.07297
 C122 C -0.13854 0.43612 0.09327
 C123 C -0.16939 0.48005 0.12999
 C124 C -0.20976 0.44112 0.16905
 H125 H -0.05416 0.30592 0.13339
 H126 H 0.00810 0.36657 0.06393
 H127 H -0.20316 0.50449 0.09894
 H128 H -0.13017 0.50083 0.15909
 H129 H -0.26684 0.44336 0.16100
 H130 H -0.19343 0.43907 0.22064
 C131 C 0.41088 0.83844 0.60417
 C132 C 0.36447 0.85520 0.65235
 C133 C 0.35984 0.90782 0.66545
 C134 C 0.39544 0.94285 0.62609
 C135 C 0.43716 0.92570 0.57372
 C136 C 0.44708 0.87298 0.56594
 C137 C 0.43854 0.84109 0.50639
 C138 C 0.39846 0.80366 0.54808
 H139 H 0.32636 0.92190 0.70418
 H140 H 0.38915 0.98334 0.63548
 H141 H 0.48890 0.82517 0.48846
 H142 H 0.40604 0.86022 0.46886
 H143 H 0.42547 0.76627 0.55363
 H144 H 0.34250 0.80131 0.53511
 C145 C -0.15705 0.65302 -0.07443
 C146 C -0.16937 0.64648 -0.14071
 C147 C -0.14909 0.59984 -0.16973
 C148 C -0.10988 0.56379 -0.13444
 C149 C -0.08723 0.57543 -0.07133
 C150 C -0.11632 0.61830 -0.04048
 C151 C -0.08326 0.65930 -0.00127
 C152 C -0.12782 0.69743 -0.03869
 H153 H -0.16082 0.59236 -0.22025
 H154 H -0.09351 0.52850 -0.15767
 H155 H -0.02679 0.66316 -0.01129
 H156 H -0.09755 0.65692 0.05101
 H157 H -0.09710 0.72296 -0.07067
 H158 H -0.16762 0.71707 -0.00792
 C159 C 0.31998 1.10049 0.35989
 C160 C 0.34054 1.15140 0.35978
 C161 C 0.39101 1.16623 0.40511
 C162 C 0.42724 1.12916 0.44162
 C163 C 0.41501 1.07669 0.43148
 C164 C 0.35641 1.06392 0.39496
 C165 C 0.34603 1.02396 0.34434
 C166 C 0.30701 1.06440 0.30522
 H167 H 0.40434 1.20608 0.41032
 H168 H 0.46809 1.14125 0.47401
 H169 H 0.31189 0.99294 0.36197
 H170 H 0.39541 1.01065 0.32135
 H171 H 0.25079 1.05614 0.29959
 H172 H 0.33441 1.07548 0.25978
 C173 C 1.18750 -0.10735 -0.09814
 C174 C 1.16464 -0.12286 -0.15960
 C175 C 1.10869 -0.09484 -0.18714
 C176 C 1.07159 -0.05810 -0.15000
 C177 C 1.08811 -0.05027 -0.08404
 C178 C 1.15003 -0.07214 -0.06136
 C179 C 1.16458 -0.09942 0.00066
 C180 C 1.20558 -0.13828 -0.03947
 H181 H 1.09104 -0.10313 -0.23588
 H182 H 1.02641 -0.03941 -0.17086
 H183 H 1.11688 -0.11526 0.02331
 H184 H 1.19770 -0.07669 0.03371
 H185 H 1.18165 -0.17672 -0.04005
 H186 H 1.26229 -0.13808 -0.02926
 C187 C 0.69070 0.40819 0.37881
 C188 C 0.67068 0.35732 0.37358
 C189 C 0.61807 0.34014 0.41569
 C190 C 0.58024 0.37507 0.45468
 C191 C 0.59235 0.42799 0.44971
 C192 C 0.65227 0.44270 0.41593
 C193 C 0.66370 0.48515 0.36915
 C194 C 0.70538 0.44718 0.32804
 H195 H 0.60386 0.30025 0.41595
 H196 H 0.53845 0.36106 0.48494
 H197 H 0.69616 0.51574 0.39030
 H198 H 0.61496 0.49873 0.34577
 H199 H 0.76155 0.45641 0.32557
 H200 H 0.68051 0.43823 0.28077
 C201 C 0.82339 -0.10444 -0.11379
 C202 C 0.85692 -0.14719 -0.14051
 C203 C 0.92684 -0.15624 -0.12280
 C204 C 0.96226 -0.12100 -0.08315
 C205 C 0.93141 -0.07322 -0.06684
 C206 C 0.86015 -0.06792 -0.08017
 C207 C 0.82024 -0.02485 -0.11008
 C208 C 0.77958 -0.06485 -0.14687
 H209 H 0.95357 -0.19090 -0.13814
 H210 H 1.01432 -0.13077 -0.06763
 H211 H 0.85312 -0.00079 -0.14202
 H212 H 0.78786 -0.00356 -0.07399
 H213 H 0.78837 -0.06383 -0.20031
 H214 H 0.72412 -0.06670 -0.13165
 C215 C 0.41774 0.37744 0.33844
 C216 C 0.35821 0.35379 0.36268
 C217 C 0.34181 0.36127 0.42889
 C218 C 0.38002 0.39566 0.46694
 C219 C 0.43513 0.42367 0.43956
 C220 C 0.45469 0.41180 0.37563
 C221 C 0.46856 0.44559 0.31903
 C222 C 0.42765 0.40810 0.27814
 H223 H 0.29848 0.34161 0.45089
 H224 H 0.36513 0.40146 0.51725
 H225 H 0.52462 0.44609 0.30587
 H226 H 0.44294 0.48370 0.32387
 H227 H 0.46029 0.38756 0.24155
 H228 H 0.37798 0.42432 0.25932
 C229 C 0.08859 0.63642 -0.16911
 C230 C 0.13794 0.66733 -0.13937
 C231 C 0.14689 0.66246 -0.07169
 C232 C 0.11147 0.62454 -0.03659
 C233 C 0.06657 0.59052 -0.06839
 C234 C 0.05415 0.59867 -0.13464
 C235 C 0.06059 0.56180 -0.18996
 C236 C 0.09744 0.60325 -0.22762
 H237 H 0.18298 0.68675 -0.04630
 H238 H 0.12056 0.62094 0.01508
 H239 H 0.00976 0.55203 -0.21163
 H240 H 0.09473 0.52848 -0.17844
 H241 H 0.06696 0.61776 -0.26960
 H242 H 0.15290 0.59392 -0.23846
 C243 C 0.58476 1.13614 0.32490
 C244 C 0.64611 1.15684 0.34948
 C245 C 0.66655 1.14168 0.41243
 C246 C 0.62942 1.10420 0.44645
 C247 C 0.57203 1.07976 0.41793
 C248 C 0.54949 1.09817 0.35772
 C249 C 0.53218 1.07061 0.29665
 C250 C 0.57120 1.11197 0.26046
 H251 H 0.71169 1.15817 0.43526
 H252 H 0.64675 1.09353 0.49457
 H253 H 0.47556 1.07168 0.28647
 H254 H 0.55754 1.03232 0.29337
 H255 H 0.53685 1.13616 0.22962
 H256 H 0.61958 1.09782 0.23624
 C257 C 0.18327 0.38742 0.10151
 C258 C 0.16022 0.37326 0.16342
 C259 C 0.10537 0.40234 0.19138
 C260 C 0.06928 0.43931 0.15435
 C261 C 0.08646 0.44686 0.08837
 C262 C 0.14729 0.42331 0.06494
 C263 C 0.16009 0.39481 0.00313
 C264 C 0.19938 0.35530 0.04319
 H265 H 0.08796 0.39473 0.24047
 H266 H 0.02481 0.45899 0.17564
 H267 H 0.19416 0.41619 -0.03075
 H268 H 0.11148 0.38005 -0.01866
 H269 H 0.25602 0.35381 0.03216
 H270 H 0.17349 0.31759 0.04479
 C271 C 0.68857 0.87615 0.58541
 C272 C 0.67083 0.86935 0.65082
 C273 C 0.61955 0.90225 0.67755
 C274 C 0.58095 0.93530 0.63748
 C275 C 0.59159 0.93514 0.56968
 C276 C 0.64986 0.90844 0.54576
 C277 C 0.65682 0.87348 0.48880
 C278 C 0.69901 0.83796 0.53224
 H279 H 0.60668 0.90059 0.72878
 H280 H 0.54043 0.95894 0.65908
 H281 H 0.68812 0.89053 0.44903
 H282 H 0.60630 0.85733 0.47353
 H283 H 0.75449 0.83443 0.51727
 H284 H 0.67284 0.80124 0.54242
 C285 C 0.84837 0.15958 0.07665
 C286 C 0.81911 0.14781 0.13693
 C287 C 0.82494 0.09713 0.15903
 C288 C 0.86823 0.06185 0.12582
 C289 C 0.90923 0.07802 0.07279
 C290 C 0.89289 0.12550 0.04530
 C291 C 0.93779 0.16741 0.02053
 C292 C 0.88908 0.20466 0.05543
 H293 H 0.80038 0.08597 0.20419
 H294 H 0.87480 0.02369 0.14512
 H295 H 0.93564 0.17080 -0.03323
 H296 H 0.99085 0.16720 0.04130
 H297 H 0.85922 0.22974 0.02187
 H298 H 0.91398 0.22439 0.09688
 C299 C 0.31685 0.62639 0.60489
 C300 C 0.33732 0.64147 0.66711
 C301 C 0.38987 0.61203 0.69743
 C302 C 0.42717 0.57438 0.66210
 C303 C 0.41412 0.56690 0.59532
 C304 C 0.35397 0.58984 0.57007
 C305 C 0.34099 0.61592 0.50687
 C306 C 0.30111 0.65666 0.54524
 H307 H 0.40481 0.61990 0.74706
 H308 H 0.46960 0.55417 0.68550
 H309 H 0.30708 0.59308 0.47466
 H310 H 0.38923 0.62996 0.48340
 H311 H 0.24457 0.65768 0.53423
 H312 H 0.32686 0.69442 0.54514
   
