data_POSCAR
  _audit_creation_date              2014-09-24
  _audit_creation_method            'ToBaCCo'
  _symmetry_space_group_name_H-M    'P1'
  _symmetry_Int_Tables_number       1
  _symmetry_cell_setting            triclinic
  loop_
  _symmetry_equiv_pos_as_xyz
 x,y,z
_cell_length_a 24.8433
_cell_length_b 24.9476
_cell_length_c 24.9803
_cell_angle_alpha 90.033300
_cell_angle_beta 90.032100
_cell_angle_gamma 89.999500
loop_
  _atom_site_label
  _atom_site_type_symbol
  _atom_site_fract_x
  _atom_site_fract_y
  _atom_site_fract_z
C1 C 1.25006 0.25021 0.24974
 C2 C 0.75028 -0.24981 0.24988
 C3 C 0.75026 0.25014 -0.24985
 C4 C 1.25001 -0.24994 -0.24978
 C5 C 0.24977 0.24997 0.75028
 C6 C 0.75014 0.74980 0.75004
 C7 C 0.74990 0.24988 0.24975
 C8 C 0.24965 0.74973 0.24988
 N9 N 1.05717 0.05754 0.09506
 N10 N 1.09205 0.06988 0.13303
 N11 N 0.94386 0.09451 0.05799
 N12 N 0.90935 0.13290 0.06977
 N13 N 0.94382 0.05749 0.09533
 N14 N 0.90899 0.06973 0.13338
 N15 N 1.05674 0.09463 0.05779
 N16 N 1.09104 0.13320 0.06955
 C17 C 1.11338 0.11690 0.11619
 C18 C 0.88726 0.11661 0.11651
 N19 N 0.94332 0.05743 -0.09458
 N20 N 0.90869 0.06981 -0.13280
 N21 N 1.05651 0.09465 -0.05746
 N22 N 1.09075 0.13320 -0.06943
 N23 N 1.05670 0.05751 -0.09471
 N24 N 1.09134 0.06979 -0.13289
 N25 N 0.94356 0.09456 -0.05731
 N26 N 0.90938 0.13319 -0.06933
 Mn27 Mn 1.00017 0.09495 0.00027
 C28 C 0.88727 0.11690 -0.11613
 C29 C 1.11281 0.11684 -0.11620
 N30 N 0.94405 -0.05810 0.09538
 N31 N 0.90910 -0.07014 0.13333
 N32 N 1.05723 -0.09535 0.05813
 N33 N 1.09137 -0.13403 0.07024
 N34 N 1.05749 -0.05820 0.09540
 N35 N 1.09207 -0.07066 0.13367
 N36 N 0.94422 -0.09525 0.05812
 N37 N 0.90967 -0.13357 0.06988
 Mn38 Mn 1.00064 -0.00031 0.09581
 C39 C 0.88746 -0.11706 0.11651
 C40 C 1.11350 -0.11781 0.11709
 N41 N 1.05681 -0.05803 -0.09459
 N42 N 1.09153 -0.07018 -0.13273
 N43 N 0.94388 -0.09533 -0.05724
 N44 N 0.90952 -0.13384 -0.06918
 N45 N 0.94350 -0.05815 -0.09443
 N46 N 0.90863 -0.07034 -0.13246
 N47 N 1.05679 -0.09513 -0.05732
 N48 N 1.09121 -0.13353 -0.06926
 Mn49 Mn 1.00008 -0.00033 -0.09508
 Mn50 Mn 1.00053 -0.09565 0.00042
 Cl51 Cl 1.00037 -0.00035 0.00036
 C52 C 1.11319 -0.11710 -0.11601
 C53 C 0.88720 -0.11739 -0.11582
 N54 N 0.94395 0.55826 0.40469
 N55 N 0.90971 0.57105 0.36631
 N56 N 1.05705 0.59532 0.44193
 N57 N 1.09053 0.63445 0.42956
 N58 N 1.05720 0.55827 0.40455
 N59 N 1.09107 0.57130 0.36589
 N60 N 0.94427 0.59532 0.44204
 N61 N 0.91054 0.63427 0.42999
 C62 C 0.88869 0.61827 0.38305
 C63 C 1.11213 0.61864 0.38242
 N64 N 1.05694 0.55801 0.59455
 N65 N 1.09089 0.57085 0.63316
 N66 N 0.94418 0.59531 0.55719
 N67 N 0.91055 0.63433 0.56943
 N68 N 0.94381 0.55819 0.59445
 N69 N 0.90968 0.57099 0.63289
 N70 N 1.05685 0.59505 0.55721
 N71 N 1.09046 0.63402 0.56952
 Mn72 Mn 1.00059 0.59554 0.49960
 C73 C 1.11200 0.61806 0.61659
 C74 C 0.88872 0.61829 0.61635
 N75 N 1.05684 0.44233 0.40480
 N76 N 1.09094 0.42944 0.36638
 N77 N 0.94381 0.40543 0.44206
 N78 N 0.91009 0.36647 0.42993
 N79 N 0.94367 0.44241 0.40466
 N80 N 0.90955 0.42950 0.36616
 N81 N 1.05647 0.40528 0.44213
 N82 N 1.09006 0.36623 0.42999
 Mn83 Mn 1.00041 0.50031 0.40416
 C84 C 1.11186 0.38216 0.38305
 C85 C 0.88839 0.38231 0.38289
 N86 N 0.94354 0.44239 0.59456
 N87 N 0.90963 0.42946 0.63317
 N88 N 1.05647 0.40518 0.55726
 N89 N 1.08993 0.36605 0.56956
 N90 N 1.05675 0.44224 0.59461
 N91 N 1.09068 0.42928 0.63321
 N92 N 0.94373 0.40532 0.55722
 N93 N 0.91021 0.36624 0.56953
 Mn94 Mn 1.00026 0.50022 0.59503
 Mn95 Mn 1.00012 0.40502 0.49965
 Cl96 Cl 1.00036 0.50028 0.49960
 C97 C 0.88860 0.38215 0.61661
 C98 C 1.11160 0.38195 0.61663
 N99 N 0.44294 0.05748 0.40478
 N100 N 0.40903 0.07033 0.36614
 N101 N 0.55610 0.09450 0.44191
 N102 N 0.58982 0.13338 0.42949
 N103 N 0.55608 0.05741 0.40457
 N104 N 0.59004 0.07012 0.36591
 N105 N 0.44329 0.09464 0.44207
 N106 N 0.40983 0.13372 0.42962
 C107 C 0.38815 0.11769 0.38255
 C108 C 0.61133 0.11732 0.38237
 N109 N 0.55657 0.05752 0.59475
 N110 N 0.59049 0.07031 0.63347
 N111 N 0.44348 0.09477 0.55765
 N112 N 0.40995 0.13379 0.57024
 N113 N 0.44336 0.05764 0.59489
 N114 N 0.40953 0.07040 0.63364
 N115 N 0.55639 0.09465 0.55750
 N116 N 0.58996 0.13366 0.57005
 Mn117 Mn 0.49981 0.09497 0.49977
 C118 C 0.61159 0.11762 0.61715
 C119 C 0.38843 0.11772 0.61736
 N120 N 0.55586 -0.05826 0.40453
 N121 N 0.59013 -0.07071 0.36610
 N122 N 0.44275 -0.09549 0.44171
 N123 N 0.40924 -0.13456 0.42904
 N124 N 0.44259 -0.05835 0.40444
 N125 N 0.40874 -0.07124 0.36564
 N126 N 0.55572 -0.09541 0.44177
 N127 N 0.58968 -0.13413 0.42949
 Mn128 Mn 0.49936 -0.00043 0.40416
 C129 C 0.61144 -0.11786 0.38257
 C130 C 0.38763 -0.11861 0.38187
 N131 N 0.44322 -0.05798 0.59474
 N132 N 0.40936 -0.07058 0.63347
 N133 N 0.55601 -0.09539 0.55740
 N134 N 0.58963 -0.13436 0.56994
 N135 N 0.55634 -0.05815 0.59460
 N136 N 0.59037 -0.07081 0.63323
 N137 N 0.44317 -0.09514 0.55746
 N138 N 0.40950 -0.13400 0.57002
 Mn139 Mn 0.49987 -0.00026 0.59515
 Mn140 Mn 0.49941 -0.09570 0.49959
 Cl141 Cl 0.49959 -0.00036 0.49966
 C142 C 0.38810 -0.11781 0.61714
 C143 C 0.61139 -0.11816 0.61695
 N144 N 0.59528 0.55670 0.05794
 N145 N 0.63406 0.59061 0.07064
 N146 N 0.55765 0.44443 0.09520
 N147 N 0.56984 0.41071 0.13400
 N148 N 0.59513 0.44403 0.05814
 N149 N 0.63366 0.40980 0.07076
 N150 N 0.55770 0.55671 0.09491
 N151 N 0.57004 0.59036 0.13370
 C152 C 0.61737 0.61180 0.11771
 C153 C 0.61696 0.38880 0.11790
 N154 N 0.40413 0.44440 0.05822
 N155 N 0.36560 0.41021 0.07083
 N156 N 0.44161 0.55704 0.09521
 N157 N 0.42906 0.59040 0.13426
 N158 N 0.40403 0.55718 0.05819
 N159 N 0.36509 0.59088 0.07115
 N160 N 0.44171 0.44466 0.09521
 N161 N 0.42964 0.41091 0.13396
 Mn162 Mn 0.49968 0.50072 0.09545
 C163 C 0.38246 0.38913 0.11790
 C164 C 0.38161 0.61189 0.11844
 N165 N 0.59526 0.44369 -0.05743
 N166 N 0.63408 0.40987 -0.07030
 N167 N 0.55779 0.55616 -0.09462
 N168 N 0.57014 0.58952 -0.13364
 N169 N 0.59538 0.55642 -0.05763
 N170 N 0.63419 0.59021 -0.07055
 N171 N 0.55768 0.44384 -0.09442
 N172 N 0.57006 0.41037 -0.13339
 Mn173 Mn 0.59574 0.50021 0.00027
 C174 C 0.61742 0.38884 -0.11751
 C175 C 0.61750 0.61108 -0.11779
 N176 N 0.40435 0.55673 -0.05751
 N177 N 0.36579 0.59083 -0.07032
 N178 N 0.44174 0.44407 -0.09428
 N179 N 0.42950 0.41037 -0.13308
 N180 N 0.40412 0.44406 -0.05736
 N181 N 0.36539 0.41007 -0.07014
 N182 N 0.44191 0.55631 -0.09449
 N183 N 0.42979 0.58987 -0.13340
 Mn184 Mn 0.40367 0.50060 0.00037
 Mn185 Mn 0.49976 0.50009 -0.09475
 Cl186 Cl 0.49970 0.50042 0.00035
 C187 C 0.38261 0.61169 -0.11748
 C188 C 0.38217 0.38884 -0.11719
 C189 C 1.21208 0.21184 0.21125
 C190 C 1.19133 0.23848 0.15872
 C191 C 1.15951 0.20731 0.12745
 C192 C 1.14984 0.15117 0.14986
 C193 C 1.20597 0.12795 0.15866
 C194 C 1.23824 0.15904 0.19005
 C195 C 1.15919 0.19101 0.23760
 C196 C 1.12738 0.16034 0.20588
 H197 H 1.19951 0.27892 0.14612
 H198 H 1.14264 0.22192 0.09012
 H199 H 1.21964 0.09057 0.14103
 H200 H 1.27905 0.14646 0.19758
 H201 H 1.14700 0.19784 0.27837
 H202 H 1.08984 0.14318 0.22007
 C203 C 1.21110 0.71231 0.71178
 C204 C 1.19111 0.73903 0.65898
 C205 C 1.15907 0.70813 0.62761
 C206 C 1.14829 0.65229 0.65034
 C207 C 1.20382 0.62816 0.65969
 C208 C 1.23633 0.65880 0.69108
 C209 C 1.15753 0.69273 0.73782
 C210 C 1.12549 0.66226 0.70608
 H211 H 1.19985 0.77940 0.64646
 H212 H 1.14250 0.72283 0.59017
 H213 H 1.21699 0.59045 0.64238
 H214 H 1.27682 0.64541 0.69877
 H215 H 1.14494 0.70036 0.77832
 H216 H 1.08744 0.64600 0.72000
 C217 C 0.71138 0.21195 0.71220
 C218 C 0.73644 0.15827 0.69187
 C219 C 0.70378 0.12756 0.66055
 C220 C 0.64819 0.15175 0.65107
 C221 C 0.62564 0.16206 0.70693
 C222 C 0.65794 0.19256 0.73853
 C223 C 0.69135 0.23835 0.65925
 C224 C 0.65914 0.20742 0.62812
 H225 H 0.77680 0.14472 0.70001
 H226 H 0.71675 0.08961 0.64361
 H227 H 0.58766 0.14584 0.72107
 H228 H 0.64579 0.20035 0.77917
 H229 H 0.70021 0.27857 0.64639
 H230 H 0.64261 0.22200 0.59063
 C231 C 0.71228 0.71111 0.21204
 C232 C 0.69134 0.73623 0.15871
 C233 C 0.66008 0.70366 0.12795
 C234 C 0.65118 0.64817 0.15183
 C235 C 0.70750 0.62596 0.16174
 C236 C 0.73907 0.65809 0.19236
 C237 C 0.65943 0.69049 0.23861
 C238 C 0.62823 0.65848 0.20760
 H239 H 0.69905 0.77662 0.14549
 H240 H 0.64273 0.71668 0.09024
 H241 H 0.72186 0.58823 0.14541
 H242 H 0.77991 0.64596 0.20018
 H243 H 0.64674 0.69847 0.27900
 H244 H 0.59087 0.64140 0.22231
 C245 C 0.78832 -0.21145 0.21151
 C246 C 0.80903 -0.23820 0.15901
 C247 C 0.84096 -0.20718 0.12780
 C248 C 0.85079 -0.15106 0.15019
 C249 C 0.79470 -0.12766 0.15889
 C250 C 0.76231 -0.15860 0.19028
 C251 C 0.84121 -0.19067 0.23797
 C252 C 0.87316 -0.16018 0.20627
 H253 H 0.80072 -0.27861 0.14636
 H254 H 0.85779 -0.22191 0.09050
 H255 H 0.78118 -0.09023 0.14128
 H256 H 0.72156 -0.14587 0.19786
 H257 H 0.85326 -0.19731 0.27881
 H258 H 0.91069 -0.14302 0.22057
 C259 C 0.78921 0.28787 0.71169
 C260 C 0.80918 0.26114 0.65889
 C261 C 0.84131 0.29201 0.62757
 C262 C 0.85217 0.34787 0.65032
 C263 C 0.79661 0.37200 0.65965
 C264 C 0.76403 0.34138 0.69097
 C265 C 0.84279 0.30744 0.73780
 C266 C 0.87488 0.33788 0.70612
 H267 H 0.80030 0.22079 0.64631
 H268 H 0.85784 0.27730 0.59013
 H269 H 0.78346 0.40971 0.64234
 H270 H 0.72353 0.35477 0.69860
 H271 H 0.85534 0.29982 0.77832
 H272 H 0.91293 0.35412 0.72012
 C273 C 0.28876 -0.21181 0.71231
 C274 C 0.26360 -0.15818 0.69200
 C275 C 0.29615 -0.12754 0.66061
 C276 C 0.35168 -0.15178 0.65110
 C277 C 0.37443 -0.16193 0.70693
 C278 C 0.34223 -0.19236 0.73860
 C279 C 0.30869 -0.23833 0.65938
 C280 C 0.34075 -0.20747 0.62819
 H281 H 0.22328 -0.14459 0.70024
 H282 H 0.28314 -0.08962 0.64368
 H283 H 0.41244 -0.14565 0.72099
 H284 H 0.35447 -0.20004 0.77923
 H285 H 0.29995 -0.27860 0.64657
 H286 H 0.35724 -0.22215 0.59072
 C287 C 0.28802 0.28934 0.21199
 C288 C 0.30900 0.26432 0.15863
 C289 C 0.34013 0.29703 0.12795
 C290 C 0.34888 0.35254 0.15195
 C291 C 0.29252 0.37455 0.16189
 C292 C 0.26108 0.34230 0.19241
 C293 C 0.34085 0.31003 0.23862
 C294 C 0.37192 0.34221 0.20771
 H295 H 0.30145 0.22389 0.14537
 H296 H 0.35753 0.28409 0.09023
 H297 H 0.27801 0.41224 0.14563
 H298 H 0.22019 0.35430 0.20016
 H299 H 0.35365 0.30186 0.27896
 H300 H 0.40930 0.35929 0.22242
 C301 C 0.78834 0.21173 -0.21140
 C302 C 0.76225 0.15893 -0.19019
 C303 C 0.79458 0.12790 -0.15877
 C304 C 0.85073 0.15113 -0.14996
 C305 C 0.87310 0.16026 -0.20603
 C306 C 0.84123 0.19088 -0.23776
 C307 C 0.80913 0.23843 -0.15887
 C308 C 0.84100 0.20731 -0.12760
 H309 H 0.72147 0.14631 -0.19778
 H310 H 0.78094 0.09051 -0.14118
 H311 H 0.91063 0.14308 -0.22026
 H312 H 0.85334 0.19765 -0.27856
 H313 H 0.80092 0.27888 -0.14629
 H314 H 0.85789 0.22200 -0.09030
 C315 C 0.78920 0.71245 0.28827
 C316 C 0.80920 0.73916 0.34111
 C317 C 0.84137 0.70829 0.37237
 C318 C 0.85221 0.65248 0.34952
 C319 C 0.79669 0.62828 0.34021
 C320 C 0.76406 0.65891 0.30893
 C321 C 0.84276 0.69294 0.26213
 C322 C 0.87489 0.66251 0.29376
 H323 H 0.80028 0.77947 0.35375
 H324 H 0.85790 0.72296 0.40985
 H325 H 0.78359 0.59056 0.35750
 H326 H 0.72356 0.64550 0.30131
 H327 H 0.85528 0.70051 0.22161
 H328 H 0.91292 0.64629 0.27974
 C329 C 0.28884 0.21207 0.28765
 C330 C 0.26367 0.15841 0.30785
 C331 C 0.29622 0.12768 0.33916
 C332 C 0.35177 0.15185 0.34873
 C333 C 0.37449 0.16214 0.29294
 C334 C 0.34229 0.19268 0.26135
 C335 C 0.30880 0.23847 0.34065
 C336 C 0.34089 0.20750 0.37178
 H337 H 0.22332 0.14488 0.29969
 H338 H 0.28318 0.08975 0.35604
 H339 H 0.41250 0.14591 0.27887
 H340 H 0.35456 0.20054 0.22077
 H341 H 0.30003 0.27871 0.35354
 H342 H 0.35739 0.22206 0.40932
 C343 C 0.28804 0.71103 -0.21197
 C344 C 0.26120 0.65805 -0.19235
 C345 C 0.29269 0.62593 -0.16170
 C346 C 0.34899 0.64809 -0.15170
 C347 C 0.37205 0.65833 -0.20745
 C348 C 0.34092 0.69038 -0.23849
 C349 C 0.30897 0.73620 -0.15863
 C350 C 0.34013 0.70362 -0.12783
 H351 H 0.22037 0.64591 -0.20024
 H352 H 0.27827 0.58822 -0.14542
 H353 H 0.40945 0.64126 -0.22207
 H354 H 0.35369 0.69844 -0.27884
 H355 H 0.30140 0.77664 -0.14546
 H356 H 0.35751 0.71668 -0.09013
 C357 C 1.21197 -0.21161 -0.21134
 C358 C 1.19132 -0.23836 -0.15884
 C359 C 1.15950 -0.20730 -0.12753
 C360 C 1.14968 -0.15117 -0.14984
 C361 C 1.20575 -0.12781 -0.15863
 C362 C 1.23804 -0.15877 -0.19010
 C363 C 1.15903 -0.19084 -0.23767
 C364 C 1.12718 -0.16029 -0.20588
 H365 H 1.19952 -0.27880 -0.14630
 H366 H 1.14267 -0.22204 -0.09024
 H367 H 1.21934 -0.09039 -0.14101
 H368 H 1.27878 -0.14605 -0.19775
 H369 H 1.14686 -0.19759 -0.27847
 H370 H 1.08960 -0.14316 -0.22006
 C371 C 1.21113 0.28790 0.28818
 C372 C 1.23632 0.34142 0.30893
 C373 C 1.20374 0.37206 0.34023
 C374 C 1.14822 0.34789 0.34948
 C375 C 1.12548 0.33788 0.29370
 C376 C 1.15756 0.30742 0.26205
 C377 C 1.19115 0.26119 0.34097
 C378 C 1.15903 0.29208 0.37227
 H379 H 1.27683 0.35481 0.30140
 H380 H 1.21689 0.40976 0.35759
 H381 H 1.08742 0.35408 0.27971
 H382 H 1.14499 0.29974 0.22153
 H383 H 1.19998 0.22085 0.35355
 H384 H 1.14248 0.27741 0.40970
 C385 C 0.71145 -0.21168 0.28778
 C386 C 0.69148 -0.23818 0.34067
 C387 C 0.65920 -0.20738 0.37175
 C388 C 0.64818 -0.15174 0.34881
 C389 C 0.70371 -0.12738 0.33948
 C390 C 0.73645 -0.15799 0.30818
 C391 C 0.65803 -0.19234 0.26135
 C392 C 0.62565 -0.16200 0.29293
 H393 H 0.70044 -0.27837 0.35357
 H394 H 0.64273 -0.22202 0.40924
 H395 H 0.71658 -0.08942 0.35648
 H396 H 0.77678 -0.14436 0.30008
 H397 H 0.64594 -0.19996 0.22065
 H398 H 0.58768 -0.14578 0.27872
 C399 C 0.71226 0.28929 -0.21199
 C400 C 0.73910 0.34228 -0.19230
 C401 C 0.70759 0.37446 -0.16166
 C402 C 0.65123 0.35238 -0.15173
 C403 C 0.62824 0.34205 -0.20754
 C404 C 0.65939 0.30996 -0.23855
 C405 C 0.69132 0.26421 -0.15867
 C406 C 0.66012 0.29683 -0.12790
 H407 H 0.77995 0.35435 -0.20014
 H408 H 0.72202 0.41218 -0.14534
 H409 H 0.59087 0.35914 -0.22223
 H410 H 0.64665 0.30188 -0.27894
 H411 H 0.69898 0.22380 -0.14548
 H412 H 0.64278 0.28381 -0.09020
 C413 C 1.21170 0.21157 -0.21134
 C414 C 1.15884 0.19069 -0.23778
 C415 C 1.12697 0.16008 -0.20608
 C416 C 1.14934 0.15100 -0.14998
 C417 C 1.20550 0.12777 -0.15870
 C418 C 1.23781 0.15878 -0.19008
 C419 C 1.19089 0.23829 -0.15886
 C420 C 1.15904 0.20718 -0.12763
 H421 H 1.14675 0.19742 -0.27861
 H422 H 1.08945 0.14288 -0.22035
 H423 H 1.21913 0.09038 -0.14108
 H424 H 1.27860 0.14616 -0.19764
 H425 H 1.19905 0.27874 -0.14626
 H426 H 1.14212 0.22189 -0.09036
 C427 C 1.21215 0.71347 0.28689
 C428 C 1.15805 0.69351 0.26124
 C429 C 1.12602 0.66309 0.29300
 C430 C 1.14868 0.65301 0.34866
 C431 C 1.20412 0.62889 0.33927
 C432 C 1.23683 0.65946 0.30800
 C433 C 1.19178 0.73971 0.34022
 C434 C 1.15963 0.70874 0.37142
 H435 H 1.14482 0.70057 0.22088
 H436 H 1.08796 0.64682 0.27903
 H437 H 1.21722 0.59118 0.35662
 H438 H 1.27716 0.64543 0.30096
 H439 H 1.20020 0.77988 0.35350
 H440 H 1.14309 0.72336 0.40890
 C441 C 0.71111 0.21167 0.28765
 C442 C 0.65771 0.19224 0.26121
 C443 C 0.62541 0.16173 0.29271
 C444 C 0.64796 0.15143 0.34858
 C445 C 0.70355 0.12727 0.33917
 C446 C 0.73623 0.15802 0.30797
 C447 C 0.69108 0.23806 0.34059
 C448 C 0.65886 0.20712 0.37162
 H449 H 0.64556 0.20000 0.22056
 H450 H 0.58746 0.14547 0.27848
 H451 H 0.71655 0.08935 0.35612
 H452 H 0.77662 0.14453 0.29996
 H453 H 0.70000 0.27826 0.35354
 H454 H 0.64235 0.22167 0.40913
 C455 C 0.71216 0.71060 -0.21221
 C456 C 0.73905 0.65762 -0.19260
 C457 C 0.70758 0.62544 -0.16197
 C458 C 0.65123 0.64750 -0.15201
 C459 C 0.66006 0.70305 -0.12813
 C460 C 0.69120 0.73568 -0.15887
 C461 C 0.65931 0.68988 -0.23880
 C462 C 0.62820 0.65777 -0.20780
 H463 H 0.77989 0.64554 -0.20052
 H464 H 0.72204 0.58772 -0.14572
 H465 H 0.64269 0.71608 -0.09043
 H466 H 0.69876 0.77612 -0.14566
 H467 H 0.64657 0.69791 -0.27918
 H468 H 0.59085 0.64063 -0.22250
 C469 C 0.78817 -0.21184 -0.21140
 C470 C 0.80892 -0.23866 -0.15893
 C471 C 0.84079 -0.20765 -0.12755
 C472 C 0.85058 -0.15146 -0.14971
 C473 C 0.87296 -0.16047 -0.20581
 C474 C 0.84106 -0.19095 -0.23768
 C475 C 0.76211 -0.15906 -0.19005
 C476 C 0.79444 -0.12815 -0.15848
 H477 H 0.80070 -0.27912 -0.14644
 H478 H 0.85764 -0.22243 -0.09027
 H479 H 0.91049 -0.14325 -0.21998
 H480 H 0.85314 -0.19752 -0.27852
 H481 H 0.72136 -0.14636 -0.19775
 H482 H 0.78085 -0.09076 -0.14081
 C483 C 0.78883 0.28771 0.28818
 C484 C 0.80890 0.26115 0.34102
 C485 C 0.84110 0.29214 0.37222
 C486 C 0.85188 0.34795 0.34934
 C487 C 0.87449 0.33780 0.29356
 C488 C 0.84236 0.30724 0.26200
 C489 C 0.76365 0.34126 0.30887
 C490 C 0.79629 0.37202 0.34006
 H491 H 0.79997 0.22086 0.35371
 H492 H 0.85767 0.27757 0.40971
 H493 H 0.91249 0.35402 0.27949
 H494 H 0.85487 0.29953 0.22149
 H495 H 0.72309 0.35454 0.30140
 H496 H 0.78314 0.40974 0.35737
 C497 C 0.28713 -0.21353 0.28637
 C498 C 0.30756 -0.23938 0.33986
 C499 C 0.33981 -0.20834 0.37085
 C500 C 0.35086 -0.15283 0.34787
 C501 C 0.37334 -0.16328 0.29213
 C502 C 0.34107 -0.19376 0.26046
 C503 C 0.26258 -0.15932 0.30704
 C504 C 0.29538 -0.12865 0.33830
 H505 H 0.29918 -0.27940 0.35347
 H506 H 0.35636 -0.22282 0.40838
 H507 H 0.41131 -0.14702 0.27799
 H508 H 0.35386 -0.20101 0.21998
 H509 H 0.22240 -0.14511 0.29943
 H510 H 0.28248 -0.09067 0.35523
 C511 C 0.28768 0.28913 -0.21179
 C512 C 0.30860 0.26407 -0.15842
 C513 C 0.33968 0.29676 -0.12757
 C514 C 0.34850 0.35230 -0.15141
 C515 C 0.37159 0.34199 -0.20715
 C516 C 0.34055 0.30984 -0.23823
 C517 C 0.26074 0.34210 -0.19218
 C518 C 0.29215 0.37432 -0.16148
 H519 H 0.30103 0.22363 -0.14526
 H520 H 0.35701 0.28377 -0.08983
 H521 H 0.40898 0.35910 -0.22176
 H522 H 0.35338 0.30174 -0.27856
 H523 H 0.21989 0.35413 -0.20009
 H524 H 0.27764 0.41201 -0.14520
 C525 C 1.21301 -0.21329 0.21287
 C526 C 1.19182 -0.23944 0.15979
 C527 C 1.15996 -0.20818 0.12864
 C528 C 1.15018 -0.15214 0.15101
 C529 C 1.12784 -0.16134 0.20694
 C530 C 1.15963 -0.19196 0.23877
 C531 C 1.23867 -0.15999 0.19129
 C532 C 1.20625 -0.12898 0.15991
 H533 H 1.19952 -0.27970 0.14647
 H534 H 1.14305 -0.22276 0.09129
 H535 H 1.09034 -0.14406 0.22115
 H536 H 1.14687 -0.19810 0.27941
 H537 H 1.27931 -0.14677 0.19836
 H538 H 1.21987 -0.09159 0.14231
 C539 C 1.21083 0.28767 0.71178
 C540 C 1.23601 0.34120 0.69114
 C541 C 1.20347 0.37182 0.65978
 C542 C 1.14795 0.34766 0.65034
 C543 C 1.15883 0.29182 0.62756
 C544 C 1.19092 0.26094 0.65893
 C545 C 1.15722 0.30719 0.73779
 C546 C 1.12516 0.33764 0.70607
 H547 H 1.27650 0.35461 0.69885
 H548 H 1.21663 0.40953 0.64250
 H549 H 1.14232 0.27713 0.59008
 H550 H 1.19979 0.22060 0.64636
 H551 H 1.14460 0.29953 0.77827
 H552 H 1.08708 0.35384 0.71999
 C553 C 0.71124 -0.21208 0.71213
 C554 C 0.69131 -0.23858 0.65915
 C555 C 0.65910 -0.20778 0.62798
 C556 C 0.64802 -0.15213 0.65090
 C557 C 0.62541 -0.16239 0.70675
 C558 C 0.65776 -0.19275 0.73842
 C559 C 0.73622 -0.15837 0.69187
 C560 C 0.70355 -0.12779 0.66046
 H561 H 0.70021 -0.27880 0.64630
 H562 H 0.64264 -0.22245 0.59047
 H563 H 0.58740 -0.14619 0.72085
 H564 H 0.64562 -0.20045 0.77907
 H565 H 0.77650 -0.14468 0.70019
 H566 H 0.71644 -0.08981 0.64358
 C567 C 0.71185 0.28899 0.21194
 C568 C 0.69083 0.26397 0.15858
 C569 C 0.65955 0.29664 0.12793
 C570 C 0.65072 0.35217 0.15193
 C571 C 0.62783 0.34178 0.20770
 C572 C 0.65902 0.30963 0.23859
 C573 C 0.73868 0.34198 0.19232
 C574 C 0.70710 0.37422 0.16185
 H575 H 0.69857 0.22359 0.14527
 H576 H 0.64216 0.28370 0.09019
 H577 H 0.59047 0.35882 0.22245
 H578 H 0.64631 0.30148 0.27893
 H579 H 0.77958 0.35398 0.19998
 H580 H 0.72154 0.41192 0.14555
 C581 C 0.78798 0.21145 0.21134
 C582 C 0.84087 0.19073 0.23784
 C583 C 0.87283 0.16010 0.20623
 C584 C 0.85054 0.15080 0.15015
 C585 C 0.79441 0.12749 0.15884
 C586 C 0.76198 0.15857 0.19011
 C587 C 0.80873 0.23805 0.15881
 C588 C 0.84072 0.20692 0.12768
 H589 H 0.85293 0.19756 0.27866
 H590 H 0.91035 0.14300 0.22059
 H591 H 0.78085 0.09007 0.14122
 H592 H 0.72116 0.14596 0.19753
 H593 H 0.80033 0.27842 0.14610
 H594 H 0.85756 0.22152 0.09035
 C595 C 0.78915 0.71218 0.71155
 C596 C 0.84275 0.69267 0.73763
 C597 C 0.87491 0.66236 0.70588
 C598 C 0.85222 0.65243 0.65006
 C599 C 0.79672 0.62815 0.65929
 C600 C 0.76408 0.65864 0.69071
 C601 C 0.80910 0.73903 0.65881
 C602 C 0.84128 0.70828 0.62743
 H603 H 0.85525 0.70017 0.77820
 H604 H 0.91298 0.64615 0.71986
 H605 H 0.78366 0.59043 0.64190
 H606 H 0.72363 0.64513 0.69836
 H607 H 0.80018 0.77938 0.64633
 H608 H 0.85780 0.72307 0.59003
 C609 C 0.28868 0.21185 0.71239
 C610 C 0.30869 0.23831 0.65949
 C611 C 0.34090 0.20744 0.62837
 C612 C 0.35186 0.15177 0.65128
 C613 C 0.37444 0.16204 0.70717
 C614 C 0.34211 0.19248 0.73878
 C615 C 0.26364 0.15817 0.69200
 C616 C 0.29631 0.12752 0.66068
 H617 H 0.29986 0.27855 0.64666
 H618 H 0.35743 0.22208 0.59091
 H619 H 0.41243 0.14582 0.72133
 H620 H 0.35425 0.20025 0.77943
 H621 H 0.22330 0.14457 0.70012
 H622 H 0.28337 0.08957 0.64371
 C623 C 0.28619 0.71202 0.21345
 C624 C 0.30750 0.73661 0.15962
 C625 C 0.33869 0.70389 0.12893
 C626 C 0.34767 0.64845 0.15273
 C627 C 0.37064 0.65884 0.20840
 C628 C 0.33958 0.69092 0.23952
 C629 C 0.25982 0.65851 0.19335
 C630 C 0.29144 0.62639 0.16273
 H631 H 0.30033 0.77683 0.14576
 H632 H 0.35603 0.71685 0.09120
 H633 H 0.40802 0.64171 0.22303
 H634 H 0.35301 0.69842 0.27973
 H635 H 0.21911 0.64579 0.20061
 H636 H 0.27705 0.58868 0.14635
   
