data_POSCAR
  _audit_creation_date              2014-09-24
  _audit_creation_method            'ToBaCCo'
  _symmetry_space_group_name_H-M    'P1'
  _symmetry_Int_Tables_number       1
  _symmetry_cell_setting            triclinic
  loop_
  _symmetry_equiv_pos_as_xyz
 x,y,z
_cell_length_a 22.2879
_cell_length_b 22.1381
_cell_length_c 22.0770
_cell_angle_alpha 90.941000
_cell_angle_beta 90.188000
_cell_angle_gamma 90.037500
loop_
  _atom_site_label
  _atom_site_type_symbol
  _atom_site_fract_x
  _atom_site_fract_y
  _atom_site_fract_z
Si1 Si 0.21347 0.24840 0.27180
 Si2 Si 0.72538 0.71948 0.23098
 Si3 Si 0.77510 0.25471 0.72912
 Si4 Si 0.28367 0.77140 0.78098
 C5 C 0.05647 0.07656 0.05764
 H6 H 0.07694 0.07507 0.01327
 C7 C 0.07973 0.11476 0.10276
 H8 H 0.11824 0.14270 0.09275
 C9 C -0.01845 0.04153 0.12441
 H10 H -0.05702 0.01328 0.13253
 C11 C 0.00297 0.07965 0.17074
 H12 H -0.01891 0.07932 0.21440
 N13 N 0.00920 0.03983 0.06954
 C14 C 0.04131 -0.09908 -0.06925
 H15 H -0.00105 -0.09937 -0.09333
 C16 C 0.08930 -0.13363 -0.09119
 H17 H 0.08362 -0.16036 -0.13233
 C18 C 0.10041 -0.06331 0.01316
 H19 H 0.10459 -0.03626 0.05410
 C20 C 0.14917 -0.09790 -0.00656
 H21 H 0.19064 -0.09573 0.01896
 Zn22 Zn -0.01649 -0.01279 0.00608
 N23 N 0.04825 -0.06325 -0.01905
 C24 C -0.01244 0.03783 -0.11164
 N25 N -0.04274 0.03683 -0.05828
 C26 C -0.09077 0.07356 -0.04835
 C27 C -0.11146 0.11152 -0.09388
 C28 C -0.03123 0.07547 -0.15814
 C29 C -0.06718 -0.09925 0.08115
 C30 C -0.11201 -0.13557 0.10542
 C31 C -0.18029 -0.09962 0.02890
 C32 C -0.13418 -0.06374 0.00626
 N33 N -0.07925 -0.06329 0.03329
 H34 H 0.02692 0.01015 -0.11813
 H35 H -0.11322 0.07311 -0.00498
 H36 H -0.15009 0.14001 -0.08530
 H37 H -0.00665 0.07473 -0.20029
 H38 H -0.02282 -0.09874 0.10122
 H39 H -0.10168 -0.16309 0.14420
 H40 H -0.22375 -0.09829 0.00709
 H41 H -0.14253 -0.03623 -0.03280
 C42 C 0.14427 -0.13284 -0.06002
 C43 C 0.05322 0.11633 0.16031
 C44 C -0.16963 -0.13574 0.07960
 C45 C -0.08150 0.11290 -0.14962
 C46 C 0.06929 0.66491 0.54037
 H47 H 0.05224 0.67596 0.49604
 C48 C 0.10261 0.70773 0.57312
 H49 H 0.11070 0.75153 0.55365
 C50 C 0.08143 0.59361 0.61841
 H51 H 0.07279 0.54899 0.63565
 C52 C 0.11609 0.63469 0.65217
 H53 H 0.13408 0.62150 0.69562
 N54 N 0.05855 0.60947 0.56377
 C55 C 0.03922 0.45382 0.44124
 H56 H -0.00885 0.45101 0.43491
 C57 C 0.07630 0.41042 0.41420
 H58 H 0.05658 0.37497 0.38618
 C59 C 0.12315 0.50165 0.48759
 H60 H 0.14130 0.53712 0.51642
 C61 C 0.16171 0.45852 0.46235
 H62 H 0.20936 0.46182 0.47143
 Zn63 Zn 0.01148 0.55307 0.51906
 N64 N 0.06299 0.49820 0.47738
 C65 C -0.04263 0.58159 0.40436
 N66 N -0.03800 0.59655 0.46431
 C67 C -0.06773 0.64519 0.48780
 C68 C -0.10320 0.68111 0.45088
 C69 C -0.07930 0.61532 0.36608
 C70 C -0.03227 0.44812 0.57640
 C71 C -0.07015 0.41488 0.61344
 C72 C -0.11684 0.50800 0.64647
 C73 C -0.07829 0.53947 0.60843
 N74 N -0.03774 0.50925 0.57339
 H75 H -0.01785 0.54389 0.38575
 H76 H -0.06243 0.65743 0.53504
 H77 H -0.12618 0.71978 0.47050
 H78 H -0.08305 0.60276 0.31859
 H79 H 0.00134 0.42465 0.55010
 H80 H -0.06554 0.36620 0.61442
 H81 H -0.14943 0.53315 0.67284
 H82 H -0.08107 0.58804 0.60684
 C83 C 0.13818 0.41189 0.42560
 C84 C 0.12631 0.69278 0.62984
 C85 C -0.11347 0.44470 0.64870
 C86 C -0.10937 0.66611 0.38931
 C87 C 0.60165 0.08644 0.47960
 H88 H 0.59851 0.07616 0.43162
 C89 C 0.64596 0.12610 0.50129
 H90 H 0.67666 0.14587 0.46939
 C91 C 0.56449 0.07370 0.57893
 H92 H 0.53203 0.05426 0.60911
 C93 C 0.60773 0.11319 0.60246
 H94 H 0.60854 0.12266 0.65074
 N95 N 0.56318 0.05973 0.51868
 C96 C 0.50229 -0.10512 0.42687
 H97 H 0.45567 -0.10176 0.44000
 C98 C 0.52107 -0.15297 0.38992
 H99 H 0.48824 -0.18605 0.37515
 C100 C 0.60053 -0.06413 0.42936
 H101 H 0.63132 -0.02952 0.44494
 C102 C 0.62130 -0.11133 0.39206
 H103 H 0.66815 -0.11255 0.37925
 Zn104 Zn 0.50569 0.00305 0.48903
 N105 N 0.54155 -0.06132 0.44483
 C106 C 0.45594 0.02937 0.37621
 N107 N 0.45201 0.04313 0.43633
 C108 C 0.41336 0.08624 0.45701
 C109 C 0.37536 0.11597 0.41653
 C110 C 0.41910 0.05779 0.33446
 C111 C 0.50428 -0.06314 0.59289
 C112 C 0.48209 -0.09252 0.64331
 C113 C 0.38179 -0.06391 0.61343
 C114 C 0.40620 -0.03373 0.56387
 N115 N 0.46663 -0.03346 0.55508
 H116 H 0.48849 -0.00308 0.36001
 H117 H 0.41202 0.09748 0.50486
 H118 H 0.34445 0.14982 0.43369
 H119 H 0.42388 0.04571 0.28711
 H120 H 0.55196 -0.06349 0.58387
 H121 H 0.51314 -0.11576 0.67265
 H122 H 0.33368 -0.06409 0.62015
 H123 H 0.37692 -0.01129 0.53227
 C124 C 0.58118 -0.15620 0.37140
 C125 C 0.64995 0.13912 0.56376
 C126 C 0.42016 -0.09296 0.65426
 C127 C 0.37772 0.10148 0.35433
 C128 C 0.54015 0.54709 0.04328
 H129 H 0.51148 0.57409 0.01516
 C130 C 0.58271 0.57581 0.08025
 H131 H 0.58527 0.62468 0.08072
 C132 C 0.57374 0.45122 0.07503
 H133 H 0.57136 0.40255 0.07128
 C134 C 0.61726 0.47808 0.11236
 H135 H 0.64664 0.44944 0.13831
 N136 N 0.53582 0.48579 0.04182
 C137 C 0.51468 0.32831 -0.05887
 H138 H 0.47516 0.31156 -0.03631
 C139 C 0.55180 0.28833 -0.09127
 H140 H 0.54008 0.24095 -0.09364
 C141 C 0.57773 0.41062 -0.08318
 H142 H 0.58759 0.45840 -0.07947
 C143 C 0.61571 0.37258 -0.11603
 H144 H 0.65475 0.39167 -0.13763
 Zn145 Zn 0.48185 0.44516 -0.01189
 N146 N 0.52817 0.38822 -0.05583
 C147 C 0.45357 0.49276 -0.12693
 N148 N 0.44624 0.50082 -0.06622
 C149 C 0.41135 0.54636 -0.04375
 C150 C 0.38329 0.58669 -0.08276
 C151 C 0.42622 0.53185 -0.16751
 C152 C 0.43166 0.37382 0.08190
 C153 C 0.38489 0.35073 0.11671
 C154 C 0.31402 0.39349 0.04653
 C155 C 0.36198 0.41527 0.01291
 N156 N 0.41950 0.40674 0.03181
 H157 H 0.48013 0.45557 -0.14421
 H158 H 0.40491 0.55102 0.00466
 H159 H 0.35596 0.62276 -0.06393
 H160 H 0.43339 0.52427 -0.21540
 H161 H 0.47749 0.36651 0.09579
 H162 H 0.39532 0.32597 0.15732
 H163 H 0.26878 0.40166 0.03078
 H164 H 0.35293 0.43961 -0.02808
 C165 C 0.60309 0.31057 -0.12052
 C166 C 0.62212 0.54129 0.11525
 C167 C 0.32518 0.36190 0.09994
 C168 C 0.39053 0.57973 -0.14558
 C169 C 0.25426 -0.20601 -0.14884
 C170 C 0.28513 -0.20729 -0.09478
 C171 C 0.24763 -0.18129 -0.05321
 C172 C 0.19653 -0.16601 -0.08515
 O173 O 0.20055 -0.18132 -0.14318
 H174 H 0.32989 -0.22432 -0.08668
 H175 H 0.25691 -0.17401 -0.00554
 C176 C 0.20799 0.29658 0.34033
 C177 C 0.25191 0.30256 0.38399
 C178 C 0.23193 0.34689 0.42245
 C179 C 0.17723 0.36459 0.39918
 O180 O 0.16277 0.33410 0.34929
 H181 H 0.29420 0.27884 0.38667
 H182 H 0.25461 0.36408 0.46257
 C183 C 0.65795 -0.25574 0.27259
 C184 C 0.60654 -0.28962 0.27776
 C185 C 0.57009 -0.25688 0.31511
 C186 C 0.60220 -0.20530 0.33031
 O187 O 0.65565 -0.20474 0.30440
 H188 H 0.59706 -0.33354 0.25777
 H189 H 0.52600 -0.27018 0.33021
 C190 C 0.71317 0.24698 -0.21598
 C191 C 0.68707 0.19324 -0.19990
 C192 C 0.64171 0.20885 -0.16113
 C193 C 0.64367 0.27119 -0.15665
 O194 O 0.68701 0.29395 -0.18999
 H195 H 0.69928 0.14823 -0.21520
 H196 H 0.61114 0.17827 -0.13921
 C197 C -0.15895 0.21056 -0.24727
 C198 C -0.10702 0.20635 -0.28048
 C199 C -0.07049 0.16909 -0.24862
 C200 C -0.10299 0.15329 -0.19802
 O201 O -0.15677 0.17875 -0.19718
 H202 H -0.09705 0.22790 -0.32291
 H203 H -0.02541 0.15581 -0.26088
 C204 C -0.21210 0.72579 0.28547
 C205 C -0.19640 0.77947 0.31358
 C206 C -0.15450 0.76462 0.35573
 C207 C -0.14759 0.70288 0.34982
 O208 O -0.18241 0.67919 0.30702
 H209 H -0.21501 0.82381 0.30569
 H210 H -0.13237 0.79495 0.38761
 C211 C 0.27264 0.19070 0.27648
 C212 C 0.28943 0.15512 0.22793
 C213 C 0.33167 0.11694 0.24995
 C214 C 0.33743 0.13198 0.31083
 O215 O 0.30124 0.17682 0.32688
 H216 H 0.27229 0.15650 0.18205
 H217 H 0.35442 0.08189 0.22431
 C218 C 0.31646 0.69966 -0.21772
 C219 C 0.33416 0.66911 -0.26938
 C220 C 0.36301 0.61897 -0.24978
 C221 C 0.36152 0.62290 -0.18719
 O222 O 0.33309 0.67209 -0.16776
 H223 H 0.32795 0.68256 -0.31591
 H224 H 0.38349 0.58467 -0.27828
 C225 C -0.26114 -0.23078 0.16643
 C226 C -0.30231 -0.22038 0.12134
 C227 C -0.27414 -0.18286 0.08216
 C228 C -0.21751 -0.17332 0.10639
 O229 O -0.20979 -0.20258 0.15765
 H230 H -0.34732 -0.23842 0.11737
 H231 H -0.29284 -0.16544 0.04073
 C232 C -0.20109 0.33426 0.72008
 C233 C -0.22248 0.38341 0.75243
 C234 C -0.19264 0.43205 0.73043
 C235 C -0.15494 0.40900 0.68627
 O236 O -0.15999 0.34965 0.68024
 H237 H -0.25538 0.38446 0.78813
 H238 H -0.19766 0.47847 0.74552
 C239 C 0.34092 -0.17916 0.76012
 C240 C 0.39174 -0.16942 0.79448
 C241 C 0.42763 -0.13408 0.76017
 C242 C 0.39610 -0.12503 0.70712
 O243 O 0.34319 -0.15225 0.70710
 H244 H 0.40234 -0.18755 0.83844
 H245 H 0.47199 -0.11784 0.77207
 C246 C 0.22941 0.29819 0.20805
 C247 C 0.18803 0.33662 0.18323
 C248 C 0.21774 0.36510 0.13807
 C249 C 0.27538 0.34198 0.13904
 O250 O 0.28241 0.30135 0.18174
 H251 H 0.14184 0.34320 0.19677
 H252 H 0.19971 0.39968 0.10917
 C253 C 0.14264 0.20862 0.25520
 C254 C 0.09346 0.20704 0.29262
 C255 C 0.05234 0.17197 0.26245
 C256 C 0.07972 0.15507 0.20867
 O257 O 0.13449 0.17745 0.20444
 H258 H 0.08832 0.22859 0.33664
 H259 H 0.00776 0.16069 0.27783
 C260 C 0.22620 0.77020 0.72704
 C261 C 0.20039 0.82057 0.70220
 C262 C 0.15920 0.79867 0.66155
 C263 C 0.16275 0.73651 0.66531
 O264 O 0.20328 0.71932 0.70522
 H265 H 0.21071 0.86748 0.71216
 H266 H 0.12973 0.82493 0.63322
 C267 C 0.74943 0.22476 0.65499
 C268 C 0.78067 0.23002 0.60172
 C269 C 0.74715 0.19986 0.55915
 C270 C 0.69787 0.17815 0.58989
 O271 O 0.69941 0.19343 0.64810
 H272 H 0.82315 0.25254 0.59489
 H273 H 0.75843 0.19351 0.51189
 C274 C 0.71133 0.64251 0.20093
 C275 C 0.74224 0.59103 0.21581
 C276 C 0.71358 0.54513 0.18539
 C277 C 0.66724 0.57229 0.15416
 O278 O 0.66626 0.63135 0.16354
 H279 H 0.78047 0.58699 0.24569
 H280 H 0.72529 0.49777 0.18633
   
