data_POSCAR
  _audit_creation_date              2014-09-24
  _audit_creation_method            'ToBaCCo'
  _symmetry_space_group_name_H-M    'P1'
  _symmetry_Int_Tables_number       1
  _symmetry_cell_setting            triclinic
  loop_
  _symmetry_equiv_pos_as_xyz
 x,y,z
_cell_length_a 26.2662
_cell_length_b 26.2818
_cell_length_c 26.7471
_cell_angle_alpha 89.740200
_cell_angle_beta 92.224700
_cell_angle_gamma 90.928200
loop_
  _atom_site_label
  _atom_site_type_symbol
  _atom_site_fract_x
  _atom_site_fract_y
  _atom_site_fract_z
N1 N 0.22887 1.27642 0.15656
 N2 N 0.19201 1.28776 0.18622
 C3 C 0.16137 1.32188 0.16316
 C4 C 0.18013 1.33232 0.11640
 C5 C 0.22326 1.30306 0.11365
 H6 H 0.12753 1.33710 0.17892
 H7 H 0.24808 1.30023 0.08248
 Cu8 Cu 0.18690 1.25562 0.25162
 Cu9 Cu 0.27933 1.22576 0.17556
 Cu10 Cu 0.23187 1.13658 0.25831
 N11 N 0.17185 1.21066 0.30706
 N12 N 0.18771 1.16345 0.30864
 C13 C 0.16620 1.13896 0.34701
 C14 C 0.13548 1.17289 0.37086
 C15 C 0.14048 1.21821 0.34480
 H16 H 0.17120 1.09908 0.35573
 H17 H 0.12018 1.25302 0.35059
 N18 N 0.28985 1.12324 0.21537
 N19 N 0.30876 1.15828 0.18549
 C20 C 0.34695 1.13841 0.16044
 C21 C 0.35245 1.08828 0.17498
 C22 C 0.31585 1.07983 0.21009
 H23 H 0.36767 1.15843 0.13204
 H24 H 0.30782 1.04443 0.22921
 H25 H 0.21793 1.18747 0.20006
 H26 H 0.26511 1.20627 0.25087
 N27 N 0.85641 0.70890 0.12888
 N28 N 0.87731 0.70517 0.17419
 C29 C 0.90049 0.66016 0.17916
 C30 C 0.89486 0.63463 0.13433
 C31 C 0.86686 0.66666 0.10292
 H32 H 0.92281 0.64823 0.21183
 H33 H 0.85586 0.66025 0.06404
 Cu34 Cu 0.88131 0.76302 0.21882
 Cu35 Cu 0.81963 0.77003 0.10774
 Cu36 Cu 0.79321 0.85235 0.20513
 N37 N 0.88281 0.82268 0.26103
 N38 N 0.84877 0.85857 0.25553
 C39 C 0.85965 0.89569 0.28918
 C40 C 0.90315 0.88208 0.31680
 C41 C 0.91663 0.83558 0.29786
 H42 H 0.83773 0.92985 0.29301
 H43 H 0.94900 0.81296 0.30952
 N44 N 0.75461 0.85160 0.14057
 N45 N 0.76584 0.82195 0.10291
 C46 C 0.73282 0.83087 0.06415
 C47 C 0.69926 0.86766 0.07832
 C48 C 0.71419 0.87998 0.12689
 H49 H 0.73231 0.81098 0.02883
 H50 H 0.69686 0.90753 0.15055
 H51 H 0.84577 0.82521 0.15951
 H52 H 0.79773 0.77689 0.17936
 N53 N 0.79969 1.28213 -0.15418
 N54 N 0.84353 1.26842 -0.17161
 C55 C 0.88041 1.30078 -0.15422
 C56 C 0.85796 1.33692 -0.12502
 C57 C 0.80676 1.32419 -0.12625
 H58 H 0.92036 1.29823 -0.16212
 H59 H 0.77709 1.34271 -0.10649
 Cu60 Cu 0.84688 1.21012 -0.21620
 Cu61 Cu 0.73750 1.24192 -0.16516
 Cu62 Cu 0.75659 1.11952 -0.20586
 N63 N 0.83834 1.15589 -0.26558
 N64 N 0.80296 1.12032 -0.26109
 C65 C 0.80460 1.08796 -0.29974
 C66 C 0.84301 1.10413 -0.33032
 C67 C 0.86384 1.14733 -0.30742
 H68 H 0.77942 1.05531 -0.30508
 H69 H 0.89482 1.17097 -0.32031
 N70 N 0.69718 1.13813 -0.16807
 N71 N 0.68818 1.18569 -0.15599
 C72 C 0.64531 1.18689 -0.13019
 C73 C 0.62681 1.13769 -0.12537
 C74 C 0.66052 1.10762 -0.14992
 H75 H 0.63074 1.22066 -0.11318
 H76 H 0.65926 1.06661 -0.15321
 H77 H 0.78252 1.18006 -0.15925
 H78 H 0.75484 1.19364 -0.22315
 N79 N 0.14517 0.73667 -0.14437
 N80 N 0.10889 0.73814 -0.17955
 C81 C 0.07570 0.69957 -0.17292
 C82 C 0.09166 0.67239 -0.13117
 C83 C 0.13614 0.69671 -0.11388
 H84 H 0.04157 0.69274 -0.19595
 H85 H 0.15886 0.68742 -0.08059
 Cu86 Cu 0.10494 0.79296 -0.22772
 Cu87 Cu 0.19774 0.79033 -0.13949
 Cu88 Cu 0.20399 0.87242 -0.24239
 N89 N 0.10901 0.83630 -0.28584
 N90 N 0.14552 0.87065 -0.28994
 C91 C 0.13493 0.89995 -0.33053
 C92 C 0.09000 0.88172 -0.35338
 C93 C 0.07510 0.84103 -0.32428
 H94 H 0.15813 0.93178 -0.34252
 H95 H 0.04063 0.81825 -0.32902
 N96 N 0.25866 0.86773 -0.18973
 N97 N 0.25536 0.83824 -0.14973
 C98 C 0.29676 0.84651 -0.11936
 C99 C 0.32772 0.88221 -0.14168
 C100 C 0.30268 0.89471 -0.18621
 H101 H 0.30393 0.82808 -0.08361
 H102 H 0.31481 0.92284 -0.21305
 H103 H 0.16550 0.84905 -0.18142
 H104 H 0.19677 0.79779 -0.21614
 C105 C 0.46689 1.00243 0.05585
 C106 C 0.51433 0.97033 0.06606
 C107 C 0.53957 0.95871 0.02405
 C108 C 0.51505 0.98080 -0.02443
 C109 C 0.48660 1.04925 0.02746
 C110 C 0.51154 1.03809 -0.01456
 C111 C 0.43469 0.97235 0.01692
 C112 C 0.45953 0.96144 -0.02532
 H113 H 0.52634 0.95770 0.10318
 H114 H 0.53541 0.97173 -0.05871
 H115 H 0.48402 1.08773 0.04103
 H116 H 0.39463 0.96376 0.02121
 C117 C 0.06310 0.44910 1.02122
 C118 C 0.07686 0.49519 0.98859
 C119 C 0.03588 0.52316 0.97338
 C120 C -0.01490 0.50335 0.99317
 C121 C 0.03470 0.47196 1.06468
 C122 C -0.00608 0.50037 1.05010
 C123 C 0.02219 0.41952 0.99023
 C124 C -0.01885 0.44778 0.97583
 H125 H 0.11507 0.50340 0.97670
 H126 H -0.04798 0.52674 0.98143
 H127 H 0.04797 0.46898 1.10332
 H128 H 0.02497 0.37938 0.98199
 C129 C 1.01430 0.07893 0.47586
 C130 C 0.97037 0.09484 0.50839
 C131 C 0.93951 0.05547 0.52171
 C132 C 0.95533 0.00389 0.50127
 C133 C 1.04201 0.03755 0.50712
 C134 C 1.01087 -0.00202 0.52015
 C135 C 0.98878 0.05008 0.43143
 C136 C 0.95863 0.01026 0.44470
 H137 H 0.96631 0.13268 0.52319
 H138 H 0.92947 -0.02774 0.51167
 H139 H 1.08238 0.03908 0.51695
 H140 H 1.00181 0.05418 0.39364
 N141 N 0.14542 0.40385 1.00698
 N142 N 0.17795 0.37115 1.03365
 C143 C 0.15902 0.36411 1.07934
 C144 C 0.11489 0.39189 1.08291
 C145 C 0.10782 0.41664 1.03717
 H146 H 0.09026 0.39271 1.11437
 H147 H 0.14944 0.41488 0.96978
 H148 H 0.21027 0.35476 1.01942
 N149 N -0.03586 0.51875 1.13560
 N150 N -0.06223 0.55401 1.15755
 C151 C -0.08044 0.58658 1.12248
 C152 C -0.06539 0.57116 1.07589
 C153 C -0.03646 0.52828 1.08601
 H154 H -0.07114 0.59076 1.04052
 H155 H -0.01697 0.48949 1.15477
 H156 H -0.06633 0.55634 1.19615
 N157 N -0.11071 0.44730 0.94855
 N158 N -0.14300 0.41813 0.92218
 C159 C -0.11754 0.37872 0.90386
 C160 C -0.06669 0.38277 0.91941
 C161 C -0.06402 0.42683 0.94797
 H162 H -0.03640 0.35673 0.91208
 H163 H -0.12122 0.47972 0.96778
 H164 H -0.18193 0.42503 0.91742
 N165 N -0.00031 0.57933 0.90652
 N166 N 0.01455 0.61793 0.87868
 C167 C 0.06327 0.63012 0.89169
 C168 C 0.08043 0.59756 0.92942
 C169 C 0.03870 0.56589 0.93769
 H170 H 0.11767 0.59709 0.94818
 H171 H -0.03639 0.56212 0.90325
 H172 H -0.00871 0.63561 0.85148
 N173 N 1.03789 0.17146 0.45954
 N174 N 1.07156 0.19720 0.42888
 C175 C 1.10194 0.16245 0.40903
 C176 C 1.08956 0.11455 0.42746
 C177 C 1.04862 0.12146 0.45803
 H178 H 1.10453 0.07847 0.41601
 H179 H 1.00693 0.18846 0.47565
 H180 H 1.07004 0.23602 0.42061
 N181 N 1.00020 -0.09156 0.54786
 N182 N 1.02190 -0.12366 0.58384
 C183 C 1.06238 -0.09905 0.60533
 C184 C 1.06802 -0.05128 0.58320
 C185 C 1.02742 -0.04767 0.54833
 H186 H 1.09522 -0.02157 0.59399
 H187 H 0.96786 -0.10087 0.52571
 H188 H 1.00762 -0.15980 0.59249
 N189 N 0.98607 -0.07354 0.41602
 N190 N 0.97069 -0.10937 0.38023
 C191 C 0.92903 -0.09144 0.35541
 C192 C 0.91704 -0.04400 0.37446
 C193 C 0.95367 -0.03454 0.41225
 H194 H 0.88589 -0.01973 0.36266
 H195 H 1.01777 -0.07679 0.44052
 H196 H 0.98900 -0.14374 0.37477
 N197 N 0.86117 0.02581 0.56366
 N198 N 0.83471 0.03915 0.60569
 C199 C 0.85743 0.08118 0.62549
 C200 C 0.89794 0.09594 0.59648
 C201 C 0.89934 0.06006 0.55852
 H202 H 0.92466 0.12706 0.60365
 H203 H 0.85255 -0.00586 0.54131
 H204 H 0.80375 0.01866 0.61924
 N205 N 0.42077 0.97963 0.13451
 N206 N 0.39023 1.00190 0.16569
 C207 C 0.38662 1.05139 0.15297
 C208 C 0.41619 1.06099 0.11234
 C209 C 0.43738 1.01457 0.10155
 H210 H 0.41871 1.09625 0.09160
 H211 H 0.42855 0.94078 0.13472
 H212 H 0.37103 0.98301 0.19395
 N213 N 0.52106 1.12736 -0.04552
 N214 N 0.55123 1.15343 -0.07490
 C215 C 0.58404 1.12122 -0.09500
 C216 C 0.57405 1.07226 -0.07806
 C217 C 0.53414 1.07797 -0.04621
 H218 H 0.59493 1.03810 -0.08538
 H219 H 0.49249 1.14362 -0.02505
 H220 H 0.54981 1.19279 -0.08010
 N221 N 0.44600 0.94890 -0.11732
 N222 N 0.41067 0.92882 -0.14812
 C223 C 0.37525 0.90518 -0.12086
 C224 C 0.38841 0.91045 -0.07058
 C225 C 0.43333 0.93891 -0.06988
 H226 H 0.36679 0.89788 -0.03906
 H227 H 0.47668 0.97121 -0.12883
 H228 H 0.41035 0.93241 -0.18703
 N229 N 0.60429 0.90377 -0.01460
 N230 N 0.64616 0.87958 -0.00027
 C231 C 0.65579 0.88827 0.04879
 C232 C 0.61833 0.91909 0.06656
 C233 C 0.58628 0.92806 0.02518
 H234 H 0.61498 0.93302 0.10427
 H235 H 0.58820 0.90271 -0.05089
 H236 H 0.66759 0.85761 -0.02389
   
