data_POSCAR
  _audit_creation_date              2014-09-24
  _audit_creation_method            'ToBaCCo'
  _symmetry_space_group_name_H-M    'P1'
  _symmetry_Int_Tables_number       1
  _symmetry_cell_setting            triclinic
  loop_
  _symmetry_equiv_pos_as_xyz
 x,y,z
_cell_length_a 41.7527
_cell_length_b 41.6419
_cell_length_c 41.5903
_cell_angle_alpha 90.175100
_cell_angle_beta 89.859900
_cell_angle_gamma 89.888500
loop_
  _atom_site_label
  _atom_site_type_symbol
  _atom_site_fract_x
  _atom_site_fract_y
  _atom_site_fract_z
N1 N 0.20456 1.20596 0.20442
 N2 N 0.79635 0.79675 0.20618
 N3 N 0.79382 1.20304 -0.20209
 N4 N 0.20590 0.79331 -0.20605
 C5 C 0.54705 1.04374 -0.01065
 H6 H 0.54786 1.04387 0.01535
 C7 C 0.56848 1.06256 -0.02817
 H8 H 0.58585 1.07702 -0.01541
 C9 C 0.52443 1.02330 -0.05872
 H10 H 0.50767 1.00750 -0.07055
 C11 C 0.54546 1.04171 -0.07720
 H12 H 0.54417 1.04035 -0.10316
 N13 N 0.52557 1.02468 -0.02606
 C14 C 0.45076 1.00628 0.04476
 H15 H 0.45113 0.98030 0.04485
 C16 C 0.42828 1.02284 0.06337
 H17 H 0.41172 1.00939 0.07817
 C18 C 0.47185 1.05522 0.02503
 H19 H 0.48836 1.06772 0.00946
 C20 C 0.44974 1.07277 0.04328
 H21 H 0.44952 1.09870 0.04153
 Zn22 Zn 0.49957 0.99787 -0.00030
 N23 N 0.47199 1.02258 0.02615
 C24 C 0.52685 0.97370 0.05754
 N25 N 0.52756 0.97258 0.02485
 C26 C 0.54987 0.95481 0.00888
 C27 C 0.57257 0.93704 0.02583
 C28 C 0.54914 0.95628 0.07546
 C29 C 0.45067 0.98664 -0.04440
 C30 C 0.42919 0.96881 -0.06285
 C31 C 0.45410 0.92022 -0.04335
 C32 C 0.47516 0.93902 -0.02529
 N33 N 0.47316 0.97161 -0.02624
 H34 H 0.50949 0.98863 0.06980
 H35 H 0.55015 0.95472 -0.01713
 H36 H 0.58999 0.92288 0.01262
 H37 H 0.54864 0.95799 0.10144
 H38 H 0.44921 1.01258 -0.04419
 H39 H 0.41110 0.98126 -0.07666
 H40 H 0.45613 0.89432 -0.04242
 H41 H 0.49273 0.92749 -0.01018
 C42 C 0.42740 1.05655 0.06261
 C43 C 0.56801 1.06153 -0.06192
 C44 C 0.43064 0.93511 -0.06238
 C45 C 0.57255 0.93779 0.05959
 C46 C -0.01013 0.54808 1.04393
 H47 H 0.01578 0.54811 1.04338
 C48 C -0.02653 0.57044 1.06287
 H49 H -0.01301 0.58730 1.07729
 C50 C -0.05909 0.52621 1.02534
 H51 H -0.07168 0.50948 1.01004
 C52 C -0.07647 0.54818 1.04394
 H53 H -0.10237 0.54808 1.04274
 N54 N -0.02651 0.52656 1.02568
 C55 C 0.04247 0.45028 1.00587
 H56 H 0.04191 0.45025 0.97987
 C57 C 0.06121 0.42784 1.02213
 H58 H 0.07546 0.41089 1.00840
 C59 C 0.02425 0.47238 1.05522
 H60 H 0.00922 0.48926 1.06803
 C61 C 0.04266 0.45033 1.07247
 H62 H 0.04158 0.45054 1.09848
 Zn63 Zn -0.00209 0.49960 0.99833
 N64 N 0.02455 0.47200 1.02252
 C65 C 0.05519 0.52594 0.97196
 N66 N 0.02262 0.52690 0.97185
 C67 C 0.00644 0.54916 0.95437
 C68 C 0.02304 0.57158 0.93591
 C69 C 0.07277 0.54795 0.95381
 C70 C -0.04716 0.45113 0.98912
 C71 C -0.06615 0.42945 0.97209
 C72 C -0.04738 0.45314 0.92257
 C73 C -0.02875 0.47441 0.94057
 N74 N -0.02904 0.47308 0.97324
 H75 H 0.06763 0.50863 0.98667
 H76 H -0.01946 0.54966 0.95510
 H77 H 0.00967 0.58898 0.92202
 H78 H 0.09867 0.54729 0.95475
 H79 H -0.04643 0.45020 1.01510
 H80 H -0.07987 0.41174 0.98520
 H81 H -0.04692 0.45461 0.89658
 H82 H -0.01368 0.49155 0.92835
 C83 C 0.06131 0.42752 1.05590
 C84 C -0.06017 0.57090 1.06280
 C85 C -0.06629 0.43015 0.93833
 C86 C 0.05668 0.57134 0.93566
 C87 C 1.04659 -0.00814 0.55049
 H88 H 1.04594 0.01779 0.55209
 C89 C 1.06527 -0.02573 0.57196
 H90 H 1.07882 -0.01310 0.59020
 C91 C 1.02838 -0.05601 0.52566
 H92 H 1.01353 -0.06775 0.50796
 C93 C 1.04669 -0.07456 0.54669
 H94 H 1.04622 -0.10047 0.54450
 N95 N 1.02876 -0.02341 0.52784
 C96 C 1.01196 0.04845 0.45376
 H97 H 0.98606 0.04807 0.45293
 C98 C 1.02907 0.06757 0.43226
 H99 H 1.01610 0.08175 0.41480
 C100 C 1.06019 0.02899 0.47651
 H101 H 1.07225 0.01345 0.49335
 C102 C 1.07826 0.04774 0.45542
 H103 H 1.10414 0.04689 0.45673
 Zn104 Zn 1.00247 0.00243 0.50142
 N105 N 1.02764 0.02971 0.47534
 C106 C 0.97631 0.05931 0.52933
 N107 N 0.97574 0.02665 0.52917
 C108 C 0.95753 0.01004 0.55053
 C109 C 0.93878 0.02629 0.57316
 C110 C 0.95791 0.07654 0.55158
 C111 C 0.99402 -0.04069 0.45081
 C112 C 0.97746 -0.05888 0.42809
 C113 C 0.92769 -0.04081 0.45182
 C114 C 0.94524 -0.02293 0.47413
 N115 N 0.97781 -0.02330 0.47329
 H116 H 0.99156 0.07207 0.51272
 H117 H 0.95788 -0.01594 0.55014
 H118 H 0.92432 0.01259 0.58983
 H119 H 0.95922 0.10251 0.55181
 H120 H 1.01993 -0.04019 0.45044
 H121 H 0.99085 -0.07277 0.41057
 H122 H 0.90179 -0.03973 0.45245
 H123 H 0.93277 -0.00831 0.49163
 C124 C 1.06270 0.06721 0.43275
 C125 C 1.06538 -0.05942 0.57033
 C126 C 0.94382 -0.05896 0.42827
 C127 C 0.93899 0.06001 0.57405
 C128 C 0.16140 0.28470 1.15581
 C129 C 0.17305 0.25838 1.13831
 C130 C 0.18759 0.23272 1.15421
 C131 C 0.19069 0.23307 1.18787
 C132 C 0.17923 0.25975 1.20526
 C133 C 0.16466 0.28541 1.18931
 C134 C 0.14526 0.31039 1.13937
 C135 C 0.13134 0.33137 1.12516
 C136 C 0.11427 0.35576 1.10769
 C137 C 0.09812 0.34761 1.07940
 C138 C 0.08107 0.37098 1.06250
 C139 C 0.07993 0.40289 1.07367
 C140 C 0.09633 0.41088 1.10212
 C141 C 0.11340 0.38744 1.11900
 H142 H 0.17051 0.25751 1.11240
 H143 H 0.19589 0.21230 1.14032
 H144 H 0.18147 0.26055 1.23118
 H145 H 0.15567 0.30564 1.20309
 H146 H 0.09852 0.32313 1.07051
 H147 H 0.06830 0.36392 1.04099
 H148 H 0.09618 0.43530 1.11115
 H149 H 0.12586 0.39401 1.14087
 C150 C -0.16082 0.71568 1.16057
 C151 C -0.17301 0.74087 1.14205
 C152 C -0.18755 0.76725 1.15698
 C153 C -0.19008 0.76875 1.19067
 C154 C -0.17816 0.74314 1.20909
 C155 C -0.16358 0.71675 1.19412
 C156 C -0.14436 0.68944 1.14510
 C157 C -0.13006 0.66809 1.13165
 C158 C -0.11239 0.64338 1.11503
 C159 C -0.08395 0.65119 1.09907
 C160 C -0.06689 0.62758 1.08231
 C161 C -0.07805 0.59573 1.08128
 C162 C -0.10664 0.58805 1.09752
 C163 C -0.12369 0.61175 1.11430
 H164 H -0.17083 0.74037 1.11609
 H165 H -0.19620 0.78684 1.14229
 H166 H -0.17994 0.74376 1.23506
 H167 H -0.15415 0.69742 1.20869
 H168 H -0.07508 0.67563 1.09934
 H169 H -0.04528 0.63440 1.06964
 H170 H -0.11568 0.56370 1.09743
 H171 H -0.14568 0.60545 1.12661
 C172 C -0.16548 0.28444 0.84183
 C173 C -0.16535 0.28146 0.80834
 C174 C -0.17925 0.25467 0.79367
 C175 C -0.19355 0.23018 0.81227
 C176 C -0.19384 0.23391 0.84609
 C177 C -0.17991 0.26073 0.86063
 C178 C -0.14981 0.31119 0.85707
 C179 C -0.13623 0.33311 0.87020
 C180 C -0.11949 0.35868 0.88628
 C181 C -0.08923 0.36816 0.87541
 C182 C -0.07216 0.39181 0.89200
 C183 C -0.08514 0.40626 0.91977
 C184 C -0.11581 0.39689 0.93022
 C185 C -0.13284 0.37324 0.91358
 H186 H -0.15428 0.29974 0.79356
 H187 H -0.17907 0.25319 0.76767
 H188 H -0.20381 0.21548 0.86142
 H189 H -0.17993 0.26270 0.88661
 H190 H -0.07859 0.35691 0.85442
 H191 H -0.04844 0.39814 0.88360
 H192 H -0.12661 0.40783 0.95127
 H193 H -0.15626 0.36607 0.92221
 C194 C 0.15760 0.71436 0.83696
 C195 C 0.19103 0.71403 0.83415
 C196 C 0.20689 0.73978 0.81965
 C197 C 0.18948 0.76614 0.80783
 C198 C 0.15590 0.76610 0.81050
 C199 C 0.14009 0.74037 0.82497
 C200 C 0.14120 0.68858 0.85299
 C201 C 0.12694 0.66755 0.86678
 C202 C 0.10933 0.64317 0.88367
 C203 C 0.12011 0.61132 0.88381
 C204 C 0.10297 0.58786 0.90060
 C205 C 0.07480 0.59600 0.91743
 C206 C 0.06419 0.62809 0.91707
 C207 C 0.08134 0.65147 0.90030
 H208 H 0.20482 0.69404 0.84341
 H209 H 0.23275 0.73927 0.81773
 H210 H 0.14199 0.78629 0.80192
 H211 H 0.11423 0.74094 0.82717
 H212 H 0.14174 0.60463 0.87097
 H213 H 0.11157 0.56331 0.90016
 H214 H 0.04291 0.63525 0.93020
 H215 H 0.07285 0.67608 0.90047
 C216 C 1.15935 0.16595 0.28688
 C217 C 1.19275 0.16869 0.28571
 C218 C 1.20759 0.18233 0.25885
 C219 C 1.18918 0.19332 0.23284
 C220 C 1.15563 0.19082 0.23441
 C221 C 1.14083 0.17722 0.26127
 C222 C 1.14407 0.15050 0.31373
 C223 C 1.13092 0.13703 0.33572
 C224 C 1.11485 0.12035 0.36133
 C225 C 1.12527 0.08977 0.37049
 C226 C 1.10867 0.07273 0.39413
 C227 C 1.08133 0.08605 0.40891
 C228 C 1.07134 0.11704 0.39989
 C229 C 1.08800 0.13404 0.37623
 H230 H 1.20732 0.15998 0.30538
 H231 H 1.23345 0.18413 0.25819
 H232 H 1.14095 0.19877 0.21453
 H233 H 1.11498 0.17505 0.26185
 H234 H 1.14592 0.07886 0.35897
 H235 H 1.11671 0.04877 0.40019
 H236 H 1.05062 0.12810 0.41108
 H237 H 1.07971 0.15770 0.36931
 C238 C 1.16422 -0.15978 0.71342
 C239 C 1.16636 -0.19333 0.71406
 C240 C 1.18049 -0.20874 0.74029
 C241 C 1.19259 -0.19075 0.76621
 C242 C 1.19063 -0.15705 0.76519
 C243 C 1.17654 -0.14169 0.73895
 C244 C 1.14849 -0.14385 0.68716
 C245 C 1.13490 -0.13014 0.66564
 C246 C 1.11821 -0.11334 0.64054
 C247 C 1.08798 -0.12382 0.63061
 C248 C 1.07101 -0.10660 0.60739
 C249 C 1.08406 -0.07858 0.59383
 C250 C 1.11469 -0.06851 0.60365
 C251 C 1.13162 -0.08579 0.62687
 H252 H 1.15685 -0.20756 0.69445
 H253 H 1.18185 -0.23470 0.74054
 H254 H 1.19945 -0.14269 0.78501
 H255 H 1.17487 -0.11572 0.73878
 H256 H 1.07730 -0.14501 0.64118
 H257 H 1.04733 -0.11473 0.60069
 H258 H 1.12554 -0.04729 0.59338
 H259 H 1.15501 -0.07746 0.63439
 C260 C 0.84379 -0.15884 0.28508
 C261 C 0.86158 -0.17146 0.25942
 C262 C 0.84605 -0.18639 0.23371
 C263 C 0.81247 -0.18891 0.23335
 C264 C 0.79478 -0.17643 0.25936
 C265 C 0.81036 -0.16147 0.28508
 C266 C 0.85994 -0.14240 0.31083
 C267 C 0.87401 -0.12832 0.33184
 C268 C 0.89143 -0.11115 0.35623
 C269 C 0.91933 -0.09454 0.34795
 C270 C 0.93637 -0.07766 0.37137
 C271 C 0.92573 -0.07715 0.40351
 C272 C 0.89762 -0.09392 0.41162
 C273 C 0.88060 -0.11084 0.38811
 H274 H 0.88745 -0.16941 0.25909
 H275 H 0.86018 -0.19546 0.21379
 H276 H 0.76891 -0.17820 0.25962
 H277 H 0.79636 -0.15172 0.30480
 H278 H 0.92785 -0.09452 0.32332
 H279 H 0.95760 -0.06459 0.36424
 H280 H 0.88901 -0.09426 0.43620
 H281 H 0.85905 -0.12366 0.39479
 C282 C 0.83981 0.15985 0.71861
 C283 C 0.85788 0.17460 0.74272
 C284 C 0.84266 0.18933 0.76884
 C285 C 0.80888 0.18956 0.77145
 C286 C 0.79102 0.17492 0.74657
 C287 C 0.80637 0.16021 0.72048
 C288 C 0.85572 0.14340 0.69261
 C289 C 0.86947 0.12918 0.67137
 C290 C 0.88635 0.11171 0.64667
 C291 C 0.90218 0.08313 0.65437
 C292 C 0.91911 0.06625 0.63072
 C293 C 0.92044 0.07774 0.59896
 C294 C 0.90436 0.10647 0.59141
 C295 C 0.88740 0.12333 0.61514
 H296 H 0.88381 0.17425 0.74162
 H297 H 0.85742 0.19954 0.78763
 H298 H 0.76509 0.17511 0.74720
 H299 H 0.79215 0.14890 0.70189
 H300 H 0.90165 0.07400 0.67873
 H301 H 0.93165 0.04451 0.63744
 H302 H 0.90466 0.11575 0.56712
 H303 H 0.87519 0.14543 0.60892
 C304 C 0.28389 1.15747 0.16175
 C305 C 0.25846 1.13988 0.17474
 C306 C 0.23262 1.15577 0.18914
 C307 C 0.23190 1.18950 0.19073
 C308 C 0.25770 1.20699 0.17794
 C309 C 0.28355 1.19106 0.16351
 C310 C 0.30973 1.14097 0.14573
 C311 C 0.33082 1.12666 0.13193
 C312 C 0.35532 1.10903 0.11502
 C313 C 0.34758 1.08019 0.09959
 C314 C 0.37105 1.06308 0.08271
 C315 C 0.40267 1.07459 0.08103
 C316 C 0.41027 1.10359 0.09670
 C317 C 0.38672 1.12069 0.11360
 H318 H 0.25841 1.11390 0.17336
 H319 H 0.21287 1.14178 0.19848
 H320 H 0.25768 1.23297 0.17901
 H321 H 0.30308 1.20491 0.15347
 H322 H 0.32332 1.07102 0.10041
 H323 H 0.36429 1.04113 0.07049
 H324 H 0.43445 1.11290 0.09613
 H325 H 0.39297 1.14298 0.12551
 C326 C 0.71308 1.15887 -0.16078
 C327 C 0.73741 1.14014 -0.17441
 C328 C 0.76404 1.15474 -0.18849
 C329 C 0.76695 1.18857 -0.18918
 C330 C 0.74188 1.20710 -0.17562
 C331 C 0.71528 1.19235 -0.16155
 C332 C 0.68641 1.14356 -0.14514
 C333 C 0.66456 1.13026 -0.13169
 C334 C 0.63909 1.11381 -0.11524
 C335 C 0.63005 1.08299 -0.12510
 C336 C 0.60653 1.06621 -0.10812
 C337 C 0.59175 1.08005 -0.08095
 C338 C 0.60066 1.11126 -0.07152
 C339 C 0.62420 1.12800 -0.08856
 H340 H 0.73605 1.11417 -0.17373
 H341 H 0.78294 1.13950 -0.19785
 H342 H 0.74274 1.23308 -0.17619
 H343 H 0.69651 1.20708 -0.15112
 H344 H 0.64157 1.07170 -0.14560
 H345 H 0.60055 1.04207 -0.11573
 H346 H 0.58947 1.12271 -0.05095
 H347 H 0.63102 1.15185 -0.08071
 C348 C 0.28692 0.83459 -0.15990
 C349 C 0.28632 0.83155 -0.19342
 C350 C 0.25992 0.81754 -0.20857
 C351 C 0.23380 0.80645 -0.19034
 C352 C 0.23480 0.80928 -0.15665
 C353 C 0.26119 0.82326 -0.14155
 C354 C 0.31335 0.85030 -0.14429
 C355 C 0.33500 0.86394 -0.13087
 C356 C 0.36024 0.88075 -0.11445
 C357 C 0.37415 0.90790 -0.12842
 C358 C 0.39745 0.92529 -0.11174
 C359 C 0.40712 0.91574 -0.08081
 C360 C 0.39335 0.88809 -0.06720
 C361 C 0.37004 0.87076 -0.08392
 H362 H 0.30608 0.84030 -0.20785
 H363 H 0.25971 0.81549 -0.23453
 H364 H 0.21483 0.80126 -0.14211
 H365 H 0.26134 0.82564 -0.11560
 H366 H 0.36674 0.91585 -0.15204
 H367 H 0.40789 0.94622 -0.12302
 H368 H 0.39995 0.88037 -0.04328
 H369 H 0.35929 0.84988 -0.07281
 C370 C 0.71638 0.84261 0.16254
 C371 C 0.74192 0.86097 0.17417
 C372 C 0.76792 0.84598 0.18900
 C373 C 0.76872 0.81240 0.19237
 C374 C 0.74276 0.79417 0.18103
 C375 C 0.71675 0.80920 0.16617
 C376 C 0.69049 0.85806 0.14579
 C377 C 0.66937 0.87135 0.13123
 C378 C 0.64485 0.88762 0.11326
 C379 C 0.61313 0.88796 0.12422
 C380 C 0.58952 0.90416 0.10676
 C381 C 0.59738 0.92019 0.07806
 C382 C 0.62935 0.91963 0.06726
 C383 C 0.65287 0.90346 0.08475
 H384 H 0.74196 0.88682 0.17133
 H385 H 0.78779 0.86051 0.19719
 H386 H 0.74283 0.76829 0.18347
 H387 H 0.69714 0.79476 0.15718
 H388 H 0.60665 0.87574 0.14625
 H389 H 0.56508 0.90388 0.11551
 H390 H 0.63629 0.93215 0.04556
 H391 H 0.67738 0.90347 0.07611
   
