data_POSCAR
  _audit_creation_date              2014-09-24
  _audit_creation_method            'ToBaCCo'
  _symmetry_space_group_name_H-M    'P1'
  _symmetry_Int_Tables_number       1
  _symmetry_cell_setting            triclinic
  loop_
  _symmetry_equiv_pos_as_xyz
 x,y,z
_cell_length_a 42.2525
_cell_length_b 42.5662
_cell_length_c 15.7290
_cell_angle_alpha 89.333700
_cell_angle_beta 90.091400
_cell_angle_gamma 119.990300
loop_
  _atom_site_label
  _atom_site_type_symbol
  _atom_site_fract_x
  _atom_site_fract_y
  _atom_site_fract_z
O1 O 0.20156 0.42324 0.41674
 O2 O 0.25702 0.42810 0.59960
 O3 O 0.19270 0.41734 0.58103
 O4 O 0.27402 0.45003 0.43949
 O5 O 0.28736 0.50648 0.46075
 O6 O 0.21033 0.47458 0.60711
 O7 O 0.27558 0.48632 0.61494
 O8 O 0.21492 0.47975 0.43703
 Cu9 Cu 0.23053 0.42480 0.50487
 Cu10 Cu 0.24757 0.49213 0.52941
 C11 C 0.19768 0.44998 0.39686
 C12 C 0.27626 0.45776 0.63767
 C13 C 0.18873 0.44107 0.62088
 C14 C 0.29511 0.48412 0.42834
 O15 O 0.57134 -0.17334 0.56918
 O16 O 0.55671 -0.24277 0.41073
 O17 O 0.57434 -0.17425 0.40223
 O18 O 0.55607 -0.24084 0.57363
 O19 O 0.49705 -0.25961 0.56779
 O20 O 0.51550 -0.19227 0.39726
 O21 O 0.49788 -0.26046 0.40622
 O22 O 0.51243 -0.19182 0.56487
 Cu23 Cu 0.57057 -0.20569 0.48918
 Cu24 Cu 0.49993 -0.22724 0.48364
 C25 C 0.54407 -0.17109 0.59493
 C26 C 0.52460 -0.26422 0.38392
 C27 C 0.54797 -0.17205 0.37003
 C28 C 0.52343 -0.26251 0.59765
 O29 O 1.23711 0.80460 0.44518
 O30 O 1.19107 0.72741 0.59542
 O31 O 1.24992 0.79224 0.60024
 O32 O 1.17840 0.74209 0.44212
 O33 O 1.21061 0.71815 0.39354
 O34 O 1.28229 0.76868 0.55074
 O35 O 1.22335 0.70382 0.54574
 O36 O 1.26950 0.78079 0.39703
 Cu37 Cu 1.21090 0.76888 0.52664
 Cu38 Cu 1.24969 0.74041 0.46731
 C39 C 1.26126 0.80569 0.39537
 C40 C 1.19866 0.70199 0.59472
 C41 C 1.27872 0.78987 0.60083
 C42 C 1.18243 0.72160 0.39076
 O43 O 0.78916 0.50663 0.40833
 O44 O 0.75964 0.54025 0.58507
 O45 O 0.80172 0.51307 0.56613
 O46 O 0.73337 0.51815 0.42899
 O47 O 0.69429 0.46086 0.46082
 O48 O 0.76084 0.45644 0.60006
 O49 O 0.71707 0.48435 0.61829
 O50 O 0.74954 0.44975 0.44275
 Cu51 Cu 0.77394 0.52490 0.49278
 Cu52 Cu 0.72598 0.45797 0.53493
 C53 C 0.77626 0.47295 0.39753
 C54 C 0.73326 0.51845 0.63181
 C55 C 0.79292 0.48321 0.60452
 C56 C 0.70201 0.48992 0.42154
 O57 O 0.44687 0.20309 0.58109
 O58 O 0.43411 0.25495 0.40912
 O59 O 0.45261 0.20458 0.41846
 O60 O 0.43322 0.25627 0.57632
 O61 O 0.49225 0.29598 0.57952
 O62 O 0.51146 0.24534 0.42085
 O63 O 0.49300 0.29521 0.41190
 O64 O 0.50611 0.24233 0.58221
 Cu65 Cu 0.43575 0.22594 0.49548
 Cu66 Cu 0.50650 0.27423 0.49935
 C67 C 0.47874 0.21299 0.60876
 C68 C 0.46133 0.28378 0.38068
 C69 C 0.48538 0.21555 0.39498
 C70 C 0.45993 0.28494 0.60575
 O71 O 0.74286 0.17327 0.45548
 O72 O 0.81006 0.25302 0.57935
 O73 O 0.75021 0.19206 0.61455
 O74 O 0.80819 0.22887 0.42575
 O75 O 0.78039 0.25939 0.39104
 O76 O 0.71832 0.21800 0.57552
 O77 O 0.77924 0.28064 0.54610
 O78 O 0.71599 0.20410 0.41524
 Cu79 Cu 0.78072 0.20904 0.52228
 Cu80 Cu 0.74586 0.24371 0.47906
 C81 C 0.71816 0.17549 0.41356
 C82 C 0.80584 0.28064 0.58345
 C83 C 0.72365 0.19740 0.62582
 C84 C 0.80462 0.25062 0.37662
 N85 N 0.95439 0.51959 0.09511
 N86 N 0.92658 0.52544 0.09721
 N87 N 1.02728 0.53521 0.17660
 N88 N 1.05393 0.55054 0.23217
 N89 N 1.03064 0.55851 0.11709
 N90 N 1.05946 0.59067 0.13132
 N91 N 0.95078 0.49580 0.15356
 N92 N 0.92017 0.48465 0.19721
 C93 C 0.90532 0.50329 0.16060
 C94 C 1.07342 0.58510 0.20380
 N95 N 1.03525 0.45056 0.12453
 N96 N 1.06500 0.44897 0.14389
 N97 N 0.95368 0.43000 0.15773
 N98 N 0.92149 0.41234 0.19494
 N99 N 0.95825 0.40919 0.10399
 N100 N 0.92904 0.37632 0.10419
 N101 N 1.02960 0.46971 0.18114
 N102 N 1.05521 0.48184 0.23955
 Mn103 Mn 0.99011 0.48250 0.16800
 C104 C 1.07694 0.46865 0.21629
 C105 C 0.90659 0.37895 0.16178
 N106 N 1.03973 0.56266 -0.06499
 N107 N 1.06339 0.59729 -0.07801
 N108 N 0.96595 0.50269 -0.14122
 N109 N 0.94448 0.49869 -0.20630
 N110 N 0.96427 0.52431 -0.08471
 N111 N 0.94208 0.53586 -0.10983
 N112 N 1.04261 0.54270 -0.12426
 N113 N 1.06885 0.56349 -0.17878
 Mn114 Mn 0.99741 0.54155 0.01584
 C115 C 1.08181 0.59741 -0.14807
 C116 C 0.92956 0.51928 -0.18479
 N117 N 0.96781 0.41282 -0.07784
 N118 N 0.94525 0.37875 -0.09778
 N119 N 1.04480 0.47614 -0.12016
 N120 N 1.07332 0.48662 -0.17039
 N121 N 1.04382 0.45359 -0.06094
 N122 N 1.07133 0.44737 -0.07112
 N123 N 0.96810 0.43495 -0.13734
 N124 N 0.94537 0.41619 -0.19931
 Mn125 Mn 1.00153 0.43119 0.02274
 Mn126 Mn 1.00520 0.48898 -0.13184
 Cl127 Cl 0.99862 0.48601 0.01826
 C128 C 0.93109 0.38113 -0.17296
 C129 C 1.08947 0.46844 -0.13956
 N130 N 0.48305 0.44912 0.07895
 N131 N 0.47773 0.41593 0.09131
 N132 N 0.46671 0.50974 0.13875
 N133 N 0.44652 0.51055 0.20236
 N134 N 0.44538 0.48783 0.07934
 N135 N 0.41074 0.47366 0.10046
 N136 N 0.50451 0.47093 0.13824
 N137 N 0.51516 0.45374 0.19054
 C138 C 0.49813 0.41955 0.16143
 C139 C 0.41163 0.48846 0.17609
 N140 N 0.56271 0.59891 0.08138
 N141 N 0.57451 0.63333 0.09727
 N142 N 0.57338 0.53631 0.13974
 N143 N 0.59033 0.52692 0.19639
 N144 N 0.59620 0.55667 0.07967
 N145 N 0.62939 0.56236 0.09459
 N146 N 0.53804 0.57777 0.13784
 N147 N 0.53240 0.59748 0.19368
 Mn148 Mn 0.52048 0.52392 0.13964
 C149 C 0.55514 0.63206 0.16657
 C150 C 0.62519 0.54328 0.16705
 N151 N 0.44599 0.49130 -0.10227
 N152 N 0.41293 0.48690 -0.11144
 N153 N 0.50422 0.47471 -0.16655
 N154 N 0.51360 0.45826 -0.22307
 N155 N 0.48302 0.45169 -0.10775
 N156 N 0.47669 0.41858 -0.12397
 N157 N 0.46875 0.51550 -0.15726
 N158 N 0.45197 0.52825 -0.20514
 Mn159 Mn 0.46415 0.46945 -0.01309
 C160 C 0.41723 0.51018 -0.17587
 C161 C 0.49622 0.42342 -0.19622
 N162 N 0.59636 0.55766 -0.10464
 N163 N 0.62521 0.55313 -0.10801
 N164 N 0.53881 0.58140 -0.15653
 N165 N 0.53228 0.60210 -0.20855
 N166 N 0.56328 0.60123 -0.09986
 N167 N 0.57422 0.63589 -0.11159
 N168 N 0.57312 0.53916 -0.16498
 N169 N 0.58527 0.52150 -0.20999
 Mn170 Mn 0.58009 0.57877 -0.01099
 Mn171 Mn 0.52108 0.52793 -0.16208
 Cl172 Cl 0.52134 0.52498 -0.01129
 C173 C 0.61785 0.53084 -0.17531
 C174 C 0.55440 0.63600 -0.17887
 N175 N 0.41448 -0.03374 0.10575
 N176 N 0.38358 -0.06314 0.12760
 N177 N 0.47376 0.04672 0.14176
 N178 N 0.48109 0.07308 0.19580
 N179 N 0.44660 0.04157 0.09197
 N180 N 0.43466 0.06388 0.11065
 N181 N 0.44105 -0.02932 0.15644
 N182 N 0.42924 -0.05586 0.21313
 C183 C 0.39343 -0.07648 0.19486
 C184 C 0.45663 0.08366 0.17440
 N185 N 0.56369 0.05064 0.05579
 N186 N 0.59846 0.07574 0.06367
 N187 N 0.51028 -0.02444 0.13417
 N188 N 0.50125 -0.05192 0.18670
 N189 N 0.52903 -0.02583 0.06908
 N190 N 0.53370 -0.05431 0.07686
 N191 N 0.54464 0.05114 0.12127
 N192 N 0.56614 0.07581 0.17641
 Mn193 Mn 0.49259 0.01133 0.13915
 C194 C 0.59946 0.09126 0.13897
 C195 C 0.51641 -0.06996 0.15133
 N196 N 0.43576 0.03658 -0.08770
 N197 N 0.42582 0.06131 -0.09644
 N198 N 0.42268 -0.03843 -0.14171
 N199 N 0.40302 -0.06642 -0.19109
 N200 N 0.40338 -0.03907 -0.07579
 N201 N 0.36990 -0.06712 -0.07907
 N202 N 0.45628 0.03809 -0.15189
 N203 N 0.46132 0.06426 -0.20570
 Mn204 Mn 0.42470 0.00115 0.00868
 C205 C 0.44220 0.07850 -0.16993
 C206 C 0.37025 -0.08415 -0.15080
 N207 N 0.51850 -0.03056 -0.11550
 N208 N 0.52666 -0.05592 -0.13496
 N209 N 0.52619 0.04301 -0.17539
 N210 N 0.53902 0.06962 -0.23223
 N211 N 0.55247 0.04579 -0.12568
 N212 N 0.58393 0.07456 -0.14727
 N213 N 0.49227 -0.03300 -0.16486
 N214 N 0.48135 -0.06025 -0.21751
 Mn215 Mn 0.54136 0.00990 -0.02925
 Mn216 Mn 0.47438 0.00252 -0.15935
 Cl217 Cl 0.48340 0.00629 -0.01015
 C218 C 0.50293 -0.07428 -0.19857
 C219 C 0.57500 0.08912 -0.21387
 C220 C 1.17187 0.44530 0.32820
 C221 C 1.15899 0.46797 0.31673
 C222 C 1.12863 0.45953 0.25744
 C223 C 1.11011 0.47717 0.26451
 H224 H 1.16895 0.49170 0.35647
 H225 H 1.11997 0.43761 0.21261
 H226 H 1.16076 0.42079 0.29096
 H227 H 1.11828 0.49788 0.31251
 C228 C 0.51737 0.70485 0.33015
 C229 C 0.54405 0.69963 0.30138
 C230 C 0.53578 0.66610 0.25711
 C231 C 0.56140 0.66488 0.21046
 H232 H 0.57239 0.71998 0.31173
 H233 H 0.50866 0.64249 0.26212
 H234 H 0.48914 0.68486 0.31737
 H235 H 0.58769 0.68925 0.20133
 C236 C 0.28044 -0.16339 0.33630
 C237 C 0.31180 -0.15637 0.29962
 C238 C 0.33348 -0.12362 0.24756
 C239 C 0.36940 -0.11021 0.24082
 H240 H 0.32315 -0.17382 0.31292
 H241 H 0.32067 -0.10947 0.21908
 H242 H 0.27002 -0.14494 0.32710
 H243 H 0.38220 -0.12320 0.27488
 C244 C 0.79480 0.46108 0.33731
 C245 C 0.82068 0.48512 0.28477
 C246 C 0.84813 0.47846 0.24420
 C247 C 0.87261 0.50349 0.19105
 H248 H 0.82411 0.51204 0.27780
 H249 H 0.85018 0.45493 0.26269
 H250 H 0.79036 0.43378 0.34330
 H251 H 0.86948 0.52627 0.17123
 C252 C 0.45548 0.30430 0.31202
 C253 C 0.48299 0.33441 0.27747
 C254 C 0.47654 0.35766 0.21767
 C255 C 0.50357 0.39138 0.20195
 H256 H 0.51072 0.34354 0.29819
 H257 H 0.44929 0.34879 0.19391
 H258 H 0.42769 0.29522 0.29197
 H259 H 0.52988 0.40056 0.23171
 C260 C 0.69081 0.14422 0.36486
 C261 C 0.67380 0.14874 0.29781
 C262 C 0.64237 0.11787 0.25700
 C263 C 0.63295 0.12043 0.17707
 H264 H 0.68246 0.17586 0.27389
 H265 H 0.62628 0.09303 0.29337
 H266 H 0.68389 0.11715 0.38565
 H267 H 0.65044 0.14405 0.13826
 C268 C 0.48435 0.19079 -0.33454
 C269 C 0.45678 0.15985 -0.30280
 C270 C 0.46361 0.13355 -0.25686
 C271 C 0.43763 0.10751 -0.20850
 H272 H 0.42866 0.15281 -0.31394
 H273 H 0.48976 0.13487 -0.26454
 H274 H 0.51224 0.19817 -0.31914
 H275 H 0.41240 0.10754 -0.19632
 C276 C 0.72146 0.53291 -0.30458
 C277 C 0.69110 0.51290 -0.25891
 C278 C 0.67448 0.53039 -0.20996
 C279 C 0.63831 0.51305 -0.20103
 H280 H 0.67563 0.48372 -0.26694
 H281 H 0.69069 0.55864 -0.19231
 H282 H 0.73584 0.56217 -0.29784
 H283 H 0.62230 0.48594 -0.22630
 C284 C 0.83042 0.31182 -0.37229
 C285 C 0.85864 0.31464 -0.32715
 C286 C 0.88394 0.34869 -0.28300
 C287 C 0.90571 0.34865 -0.22133
 H288 H 0.86285 0.29159 -0.32109
 H289 H 0.88402 0.37355 -0.29926
 H290 H 0.82608 0.33487 -0.37471
 H291 H 0.90391 0.32322 -0.20256
 C292 C 0.54926 -0.14523 -0.34403
 C293 C 0.52157 -0.14149 -0.31475
 C294 C 0.52710 -0.11219 -0.25646
 C295 C 0.49964 -0.10571 -0.24411
 H296 H 0.49407 -0.15937 -0.33745
 H297 H 0.55372 -0.09470 -0.22897
 H298 H 0.57672 -0.12723 -0.32138
 H299 H 0.47392 -0.12234 -0.27635
 C300 C 0.29899 0.45847 -0.29727
 C301 C 0.32545 0.48918 -0.26407
 C302 C 0.35297 0.48795 -0.20907
 C303 C 0.38778 0.51423 -0.21421
 H304 H 0.32966 0.51529 -0.28577
 H305 H 0.34567 0.46337 -0.17295
 H306 H 0.29714 0.43296 -0.27868
 H307 H 0.39538 0.53746 -0.25573
 C308 C 1.17918 0.67102 -0.35429
 C309 C 1.15308 0.66708 -0.30003
 C310 C 1.12997 0.63253 -0.25448
 C311 C 1.10850 0.63124 -0.19091
 H312 H 1.14784 0.68928 -0.29034
 H313 H 1.12979 0.60813 -0.27420
 H314 H 1.18488 0.64899 -0.36106
 H315 H 1.10997 0.65609 -0.16983
 C316 C 0.82016 0.47850 -0.34820
 C317 C 0.85339 0.50605 -0.33230
 C318 C 0.87990 0.49973 -0.28631
 C319 C 0.90490 0.52560 -0.23793
 H320 H 0.86065 0.53353 -0.35023
 H321 H 0.87743 0.47311 -0.28730
 H322 H 0.81268 0.45140 -0.32621
 H323 H 0.90523 0.55109 -0.23135
 C324 C 0.45322 0.30596 -0.33006
 C325 C 0.48063 0.33697 -0.30044
 C326 C 0.47459 0.36101 -0.24459
 C327 C 0.50067 0.39572 -0.23998
 H328 H 0.50828 0.34628 -0.32247
 H329 H 0.44850 0.35137 -0.21306
 H330 H 0.42540 0.29676 -0.30986
 H331 H 0.52549 0.40532 -0.27714
 C332 C 0.69829 0.17763 -0.30392
 C333 C 0.66273 0.16675 -0.30815
 C334 C 0.63681 0.13881 -0.24833
 C335 C 0.60102 0.12103 -0.26418
 H336 H 0.65232 0.17534 -0.36123
 H337 H 0.64734 0.13069 -0.19466
 H338 H 0.70803 0.16707 -0.25351
 H339 H 0.59058 0.12875 -0.31868
 C340 C 1.15864 0.42985 -0.31689
 C341 C 1.15743 0.45424 -0.26587
 C342 C 1.12580 0.44574 -0.21083
 C343 C 1.12341 0.47303 -0.17621
 H344 H 1.17959 0.48216 -0.26841
 H345 H 1.10322 0.41814 -0.20540
 H346 H 1.13697 0.40177 -0.31459
 H347 H 1.14495 0.50071 -0.18824
 C348 C 0.51596 0.70899 -0.34605
 C349 C 0.54241 0.70421 -0.31259
 C350 C 0.53406 0.67074 -0.26610
 C351 C 0.55976 0.66952 -0.21931
 H352 H 0.57090 0.72451 -0.32252
 H353 H 0.50726 0.64683 -0.27196
 H354 H 0.48763 0.68914 -0.33268
 H355 H 0.58576 0.69404 -0.20983
 C356 C 0.30944 -0.18663 -0.34373
 C357 C 0.30723 -0.16455 -0.28739
 C358 C 0.34022 -0.13609 -0.24587
 C359 C 0.33778 -0.11600 -0.18451
 H360 H 0.28128 -0.16592 -0.27564
 H361 H 0.36684 -0.13040 -0.26846
 H362 H 0.33533 -0.18559 -0.35389
 H363 H 0.31126 -0.12248 -0.15970
 C364 C 0.55568 -0.14490 0.30205
 C365 C 0.52903 -0.14207 0.26332
 C366 C 0.53683 -0.11131 0.20585
 C367 C 0.50993 -0.10468 0.18682
 H368 H 0.50078 -0.16122 0.27943
 H369 H 0.56473 -0.09208 0.18731
 H370 H 0.58396 -0.12572 0.28654
 H371 H 0.48276 -0.12265 0.21198
 C372 C 0.32971 0.49873 0.38034
 C373 C 0.33911 0.47791 0.33684
 C374 C 0.37438 0.49370 0.29091
 C375 C 0.37824 0.47538 0.22755
 H376 H 0.32022 0.44898 0.33306
 H377 H 0.39649 0.52047 0.30674
 H378 H 0.34819 0.52781 0.38115
 H379 H 0.35498 0.44967 0.20939
 C380 C 1.15347 0.70087 0.32908
 C381 C 1.15087 0.67159 0.29247
 C382 C 1.11876 0.64717 0.24236
 C383 C 1.10724 0.61181 0.24435
 H384 H 1.17082 0.66336 0.30676
 H385 H 1.10300 0.65743 0.21016
 H386 H 1.13222 0.70774 0.31949
 H387 H 1.12156 0.60162 0.28288
 C388 C 0.49390 0.19290 0.34065
 C389 C 0.46777 0.16143 0.31052
 C390 C 0.47658 0.13690 0.26469
 C391 C 0.45071 0.11006 0.21984
 H392 H 0.43927 0.15322 0.32086
 H393 H 0.50395 0.14078 0.26730
 H394 H 0.52236 0.20146 0.32857
 H395 H 0.42405 0.10776 0.21389
 C396 C 0.67345 0.49056 0.36949
 C397 C 0.67982 0.51820 0.31784
 C398 C 0.64941 0.51826 0.27244
 C399 C 0.65544 0.54218 0.21027
 H400 H 0.70732 0.54092 0.30971
 H401 H 0.62160 0.49836 0.29023
 H402 H 0.64598 0.46753 0.37493
 H403 H 0.68314 0.56120 0.19002
 C404 C 0.83033 0.26701 0.30506
 C405 C 0.83057 0.29280 0.25573
 C406 C 0.86262 0.31637 0.20271
 C407 C 0.87011 0.35017 0.18675
 H408 H 0.80950 0.30002 0.26370
 H409 H 0.88277 0.30843 0.18897
 H410 H 0.85201 0.26056 0.29883
 H411 H 0.85116 0.35868 0.20789
   
