data_POSCAR
  _audit_creation_date              2014-09-24
  _audit_creation_method            'ToBaCCo'
  _symmetry_space_group_name_H-M    'P1'
  _symmetry_Int_Tables_number       1
  _symmetry_cell_setting            triclinic
  loop_
  _symmetry_equiv_pos_as_xyz
 x,y,z
_cell_length_a 33.0595
_cell_length_b 32.9724
_cell_length_c 32.9512
_cell_angle_alpha 90.028600
_cell_angle_beta 90.110900
_cell_angle_gamma 90.004600
loop_
  _atom_site_label
  _atom_site_type_symbol
  _atom_site_fract_x
  _atom_site_fract_y
  _atom_site_fract_z
C1 C 0.14517 0.17368 0.20504
 C2 C 0.14546 0.20374 0.17502
 C3 C 0.17547 0.20400 0.14580
 C4 C 0.20561 0.17404 0.14623
 C5 C 0.20531 0.14429 0.17591
 C6 C 0.17487 0.14412 0.20555
 C7 C 0.12110 0.16768 0.23850
 N8 N 0.13552 0.13522 0.25928
 C9 C 0.16834 0.12051 0.23941
 C10 C 0.23915 0.12064 0.17019
 N11 N 0.25983 0.13538 0.13783
 C12 C 0.23963 0.16799 0.12297
 C13 C 0.16941 0.23790 0.12213
 N14 N 0.13658 0.25796 0.13642
 C15 C 0.12168 0.23737 0.16870
 H16 H 0.09571 0.18629 0.24753
 H17 H 0.18671 0.09526 0.24953
 H18 H 0.24837 0.09522 0.18878
 H19 H 0.24948 0.18640 0.09763
 H20 H 0.18800 0.24787 0.09703
 H21 H 0.09609 0.24667 0.18688
 C22 C -0.14473 0.82630 0.20367
 C23 C -0.14569 0.79644 0.17341
 C24 C -0.17588 0.79693 0.14424
 C25 C -0.20553 0.82736 0.14500
 C26 C -0.20457 0.85688 0.17490
 C27 C -0.17395 0.85634 0.20444
 C28 C -0.12039 0.83171 0.23713
 N29 N -0.13421 0.86427 0.25814
 C30 C -0.16688 0.87961 0.23843
 C31 C -0.23813 0.88103 0.16955
 N32 N -0.25929 0.86679 0.13718
 C33 C -0.23964 0.83404 0.12194
 C34 C -0.17055 0.76317 0.12023
 N35 N -0.13798 0.74242 0.13428
 C36 C -0.12255 0.76244 0.16671
 H37 H -0.09526 0.81264 0.24603
 H38 H -0.18481 0.90508 0.24877
 H39 H -0.24689 0.90640 0.18842
 H40 H -0.25000 0.81591 0.09655
 H41 H -0.18953 0.75389 0.09510
 H42 H -0.09695 0.75238 0.18461
 C43 C -0.14396 0.17045 -0.20411
 C44 C -0.14376 0.20068 -0.17422
 C45 C -0.17342 0.20122 -0.14460
 C46 C -0.20372 0.17137 -0.14453
 C47 C -0.20383 0.14148 -0.17408
 C48 C -0.17379 0.14103 -0.20404
 C49 C -0.12057 0.16423 -0.23804
 N50 N -0.13556 0.13179 -0.25844
 C51 C -0.16807 0.11731 -0.23793
 C52 C -0.23788 0.11824 -0.16830
 N53 N -0.25842 0.13332 -0.13601
 C54 C -0.23783 0.16576 -0.12121
 C55 C -0.16711 0.23543 -0.12141
 N56 N -0.13451 0.25540 -0.13638
 C57 C -0.11999 0.23444 -0.16861
 H58 H -0.09525 0.18258 -0.24787
 H59 H -0.18695 0.09224 -0.24749
 H60 H -0.24746 0.09299 -0.18697
 H61 H -0.24760 0.18450 -0.09608
 H62 H -0.18548 0.24576 -0.09629
 H63 H -0.09475 0.24365 -0.18732
 C64 C 0.14368 0.82981 -0.20199
 C65 C 0.14416 0.79948 -0.17220
 C66 C 0.17393 0.79951 -0.14255
 C67 C 0.20364 0.82992 -0.14235
 C68 C 0.20311 0.85983 -0.17181
 C69 C 0.17299 0.85977 -0.20176
 C70 C 0.12025 0.83567 -0.23608
 N71 N 0.13481 0.86833 -0.25639
 C72 C 0.16701 0.88334 -0.23566
 C73 C 0.23688 0.88352 -0.16614
 N74 N 0.25788 0.86868 -0.13400
 C75 C 0.23784 0.83597 -0.11916
 C76 C 0.16848 0.76519 -0.11942
 N77 N 0.13626 0.74452 -0.13442
 C78 C 0.12116 0.76515 -0.16662
 H79 H 0.09535 0.81683 -0.24616
 H80 H 0.18557 0.90865 -0.24511
 H81 H 0.24603 0.90883 -0.18488
 H82 H 0.24814 0.81724 -0.09421
 H83 H 0.18724 0.75543 -0.09432
 H84 H 0.09598 0.75524 -0.18520
 C85 C 0.16782 1.14032 0.80013
 C86 C 0.19780 1.13999 0.83034
 C87 C 0.19782 1.16952 0.86021
 C88 C 0.16805 1.19972 0.86030
 C89 C 0.13848 1.20014 0.83052
 C90 C 0.13836 1.17021 0.80022
 C91 C 0.16202 1.11730 0.76572
 N92 N 0.12990 1.13256 0.74507
 C93 C 0.11518 1.16489 0.76587
 C94 C 0.11568 1.23462 0.83636
 N95 N 0.13086 1.25495 0.86883
 C96 C 0.16284 1.23385 0.88372
 C97 C 0.23190 1.16385 0.88348
 N98 N 0.25254 1.13169 0.86843
 C99 C 0.23201 1.11678 0.83601
 H100 H 0.18054 1.09212 0.75571
 H101 H 0.09032 1.18394 0.75621
 H102 H 0.09082 1.24497 0.81759
 H103 H 0.18184 1.24322 0.90880
 H104 H 0.24168 1.18267 0.90856
 H105 H 0.24209 1.09188 0.81715
 C106 C 0.82725 0.85663 0.79615
 C107 C 0.79793 0.85711 0.82682
 C108 C 0.79810 0.82742 0.85646
 C109 C 0.82754 0.79688 0.85584
 C110 C 0.85650 0.79630 0.82555
 C111 C 0.85636 0.82641 0.79547
 C112 C 0.83283 0.88022 0.76222
 N113 N 0.86457 0.86504 0.74103
 C114 C 0.87919 0.83217 0.76104
 C115 C 0.87945 0.76187 0.83119
 N116 N 0.86499 0.74180 0.86407
 C117 C 0.83328 0.76294 0.87936
 C118 C 0.76472 0.83364 0.88052
 N119 N 0.74439 0.86631 0.86608
 C120 C 0.76439 0.88098 0.83335
 H121 H 0.81448 0.90587 0.75322
 H122 H 0.90398 0.81335 0.75072
 H123 H 0.90415 0.75158 0.81226
 H124 H 0.81500 0.75389 0.90502
 H125 H 0.75522 0.81496 0.90574
 H126 H 0.75441 0.90624 0.81490
 C127 C 0.17343 0.85792 1.20318
 C128 C 0.20337 0.85809 1.17316
 C129 C 0.20368 0.82831 1.14360
 C130 C 0.17400 0.79798 1.14366
 C131 C 0.14439 0.79771 1.17335
 C132 C 0.14410 0.82794 1.20336
 C133 C 0.16755 0.88157 1.23701
 N134 N 0.13540 0.86667 1.25772
 C135 C 0.12076 0.83393 1.23744
 C136 C 0.12131 0.76344 1.16727
 N137 N 0.13628 0.74323 1.13474
 C138 C 0.16844 0.76403 1.12007
 C139 C 0.23761 0.83439 1.12025
 N140 N 0.25770 0.86704 1.13507
 C141 C 0.23706 0.88183 1.16736
 H142 H 0.18609 0.90697 1.24637
 H143 H 0.09578 0.81522 1.24746
 H144 H 0.09613 0.75336 1.18564
 H145 H 0.18705 0.75467 1.09477
 H146 H 0.24771 0.81579 1.09515
 H147 H 0.24650 0.90715 1.18601
 C148 C 0.82833 1.14201 1.20307
 C149 C 0.79817 1.14261 1.17316
 C150 C 0.79811 1.17269 1.14389
 C151 C 0.82828 1.20253 1.14415
 C152 C 0.85813 1.20198 1.17371
 C153 C 0.85814 1.17149 1.20340
 C154 C 0.83406 1.11805 1.23675
 N155 N 0.86659 1.13234 1.25747
 C156 C 0.88160 1.16494 1.23737
 C157 C 0.88171 1.23591 1.16803
 N158 N 0.86680 1.25680 1.13586
 C159 C 0.83421 1.23672 1.12102
 C160 C 0.76394 1.16735 1.12057
 N161 N 0.74346 1.13485 1.13510
 C162 C 0.76408 1.11945 1.16718
 H163 H 0.81515 1.09295 1.24604
 H164 H 0.90689 1.18325 1.24747
 H165 H 0.90712 1.24523 1.18657
 H166 H 0.81564 1.24692 1.09593
 H167 H 0.75399 1.18629 1.09565
 H168 H 0.75441 1.09407 1.18556
 N169 N 0.54194 1.07361 0.95530
 N170 N 0.57443 1.09671 0.95233
 N171 N 0.45690 1.04434 0.92717
 N172 N 0.42399 1.04652 0.90453
 N173 N 0.45660 1.07261 0.95526
 N174 N 0.42347 1.09477 0.95250
 N175 N 0.54217 1.04532 0.92722
 N176 N 0.57478 1.04843 0.90439
 C177 C 0.59437 1.08074 0.92029
 C178 C 0.40369 1.07827 0.92057
 N179 N 0.45815 0.92914 0.95575
 N180 N 0.42561 0.90607 0.95301
 N181 N 0.54310 0.95814 0.92751
 N182 N 0.57565 0.95532 0.90455
 N183 N 0.54339 0.93006 0.95576
 N184 N 0.57613 0.90738 0.95281
 N185 N 0.45784 0.95719 0.92747
 N186 N 0.42508 0.95398 0.90475
 Mn187 Mn 0.50001 1.00125 0.92680
 C188 C 0.40553 0.92184 0.92092
 C189 C 0.59572 0.92340 0.92062
 N190 N 0.45674 1.07303 1.04256
 N191 N 0.42442 1.09627 1.04617
 N192 N 0.54231 1.04580 1.07076
 N193 N 0.57485 1.04922 1.09375
 N194 N 0.54196 1.07395 1.04257
 N195 N 0.57424 1.09733 1.04565
 N196 N 0.45709 1.04491 1.07077
 N197 N 0.42499 1.04821 1.09431
 Mn198 Mn 0.49930 1.07384 0.99890
 C199 C 0.40511 1.08047 1.07867
 C200 C 0.59420 1.08161 1.07785
 N201 N 0.54355 0.93027 1.04297
 N202 N 0.57584 0.90701 1.04665
 N203 N 0.45810 0.95768 1.07100
 N204 N 0.42565 0.95433 1.09401
 N205 N 0.45840 0.92938 1.04295
 N206 N 0.42619 0.90595 1.04614
 N207 N 0.54338 0.95857 1.07103
 N208 N 0.57560 0.95535 1.09456
 Mn209 Mn 0.50088 0.92919 0.99934
 Mn210 Mn 0.50022 1.00175 1.07143
 Cl211 Cl 0.50011 1.00152 0.99913
 C212 C 0.59534 0.92296 1.07904
 C213 C 0.40632 0.92180 1.07825
 N214 N -0.07152 0.45748 0.04165
 N215 N -0.09474 0.42508 0.04505
 N216 N -0.04336 0.54287 0.06980
 N217 N -0.04686 0.57513 0.09328
 N218 N -0.07140 0.54292 0.04152
 N219 N -0.09477 0.57518 0.04498
 N220 N -0.04329 0.45744 0.06974
 N221 N -0.04651 0.42505 0.09301
 C222 C -0.07883 0.40539 0.07734
 C223 C -0.07917 0.59476 0.07749
 N224 N 0.07158 0.54303 0.04171
 N225 N 0.09474 0.57546 0.04528
 N226 N 0.04372 0.45739 0.06977
 N227 N 0.04729 0.42503 0.09308
 N228 N 0.07184 0.45757 0.04168
 N229 N 0.09533 0.42538 0.04512
 N230 N 0.04358 0.54282 0.06992
 N231 N 0.04691 0.57504 0.09345
 Mn232 Mn 0.00016 0.50011 0.07033
 C233 C 0.07905 0.59489 0.07780
 C234 C 0.07972 0.40559 0.07741
 N235 N -0.07144 0.54284 -0.04580
 N236 N -0.09443 0.57540 -0.04917
 N237 N -0.04357 0.45716 -0.07373
 N238 N -0.04676 0.42442 -0.09659
 N239 N -0.07162 0.45736 -0.04557
 N240 N -0.09464 0.42478 -0.04848
 N241 N -0.04346 0.54261 -0.07404
 N242 N -0.04668 0.57495 -0.09742
 Mn243 Mn -0.07203 0.50017 -0.00206
 C244 C -0.07872 0.59487 -0.08163
 C245 C -0.07887 0.40477 -0.08056
 N246 N 0.07159 0.45731 -0.04553
 N247 N 0.09406 0.42431 -0.04809
 N248 N 0.04350 0.54270 -0.07395
 N249 N 0.04671 0.57519 -0.09714
 N250 N 0.07152 0.54283 -0.04564
 N251 N 0.09454 0.57536 -0.04879
 N252 N 0.04343 0.45720 -0.07370
 N253 N 0.04600 0.42416 -0.09619
 Mn254 Mn 0.07217 0.50021 -0.00196
 Mn255 Mn -0.00002 0.49991 -0.07439
 Cl256 Cl 0.00007 0.50011 -0.00202
 C257 C 0.07787 0.40421 -0.07998
 C258 C 0.07883 0.59501 -0.08117
 N259 N 0.95774 0.07100 0.45726
 N260 N 0.95483 0.09399 0.42460
 N261 N 0.92942 0.04282 0.54267
 N262 N 0.90626 0.04605 0.57508
 N263 N 0.95750 0.07099 0.54278
 N264 N 0.95419 0.09419 0.57527
 N265 N 0.92955 0.04294 0.45717
 N266 N 0.90669 0.04607 0.42443
 C267 C 0.92273 0.07816 0.40466
 C268 C 0.92197 0.07833 0.59488
 N269 N 0.95709 -0.07273 0.54250
 N270 N 0.95362 -0.09617 0.57477
 N271 N 0.92922 -0.04422 0.45705
 N272 N 0.90612 -0.04726 0.42448
 N273 N 0.95722 -0.07247 0.45701
 N274 N 0.95393 -0.09552 0.42440
 N275 N 0.92916 -0.04442 0.54259
 N276 N 0.90596 -0.04778 0.57497
 Mn277 Mn 0.92880 -0.00071 0.49988
 C278 C 0.92149 -0.08032 0.59451
 C279 C 0.92182 -0.07950 0.40464
 N280 N 1.04445 0.07070 0.54317
 N281 N 1.04715 0.09342 0.57605
 N282 N 1.07273 0.04252 0.45772
 N283 N 1.09589 0.04563 0.42528
 N284 N 1.04472 0.07075 0.45761
 N285 N 1.04806 0.09385 0.42508
 N286 N 1.07245 0.04245 0.54334
 N287 N 1.09496 0.04520 0.57639
 Mn288 Mn 1.00111 0.07140 0.50019
 C289 C 1.07892 0.07729 0.59624
 C290 C 1.08022 0.07790 0.40544
 N291 N 1.04417 -0.07274 0.45737
 N292 N 1.04714 -0.09567 0.42467
 N293 N 1.07216 -0.04476 0.54302
 N294 N 1.09488 -0.04772 0.57584
 N295 N 1.04402 -0.07288 0.54289
 N296 N 1.04683 -0.09573 0.57566
 N297 N 1.07235 -0.04466 0.45753
 N298 N 1.09526 -0.04772 0.42491
 Mn299 Mn 1.00063 -0.07324 0.49994
 Mn300 Mn 1.07296 -0.00112 0.50041
 Cl301 Cl 1.00087 -0.00092 0.50011
 C302 C 1.07927 -0.07980 0.40496
 C303 C 1.07884 -0.07976 0.59565
 C304 C 1.06966 0.09487 0.32670
 C305 C 1.08503 0.13867 0.31917
 C306 C 1.12105 0.12087 0.29591
 C307 C 1.10593 0.07746 0.30240
 C308 C 1.14696 0.11923 0.33445
 C309 C 1.11062 0.13656 0.35860
 C310 C 1.09535 0.09307 0.36567
 C311 C 1.13142 0.07548 0.34195
 H312 H 1.03775 0.08466 0.32411
 H313 H 1.06577 0.16463 0.30990
 H314 H 1.10426 0.05361 0.27867
 H315 H 1.17884 0.12953 0.33683
 H316 H 1.11241 0.16056 0.38218
 H317 H 1.15023 0.04937 0.35176
 C318 C 0.87071 -0.07655 0.34110
 C319 C 0.89609 -0.07854 0.30160
 C320 C 0.88059 -0.12179 0.29485
 C321 C 0.85479 -0.12012 0.33336
 C322 C 0.91652 -0.14001 0.31803
 C323 C 0.93227 -0.09637 0.32584
 C324 C 0.90668 -0.09454 0.36478
 C325 C 0.89104 -0.13787 0.35746
 H326 H 0.85213 -0.05032 0.35103
 H327 H 0.89789 -0.05460 0.27800
 H328 H 0.82283 -0.13017 0.33563
 H329 H 0.93550 -0.16609 0.30858
 H330 H 0.96426 -0.08641 0.32337
 H331 H 0.88912 -0.16195 0.38090
 C332 C 0.92352 0.12960 0.65864
 C333 C 0.87957 0.14408 0.66644
 C334 C 0.87873 0.11780 0.70474
 C335 C 0.92235 0.10376 0.69796
 C336 C 0.86171 0.08144 0.68126
 C337 C 0.86302 0.10739 0.64204
 C338 C 0.90671 0.09318 0.63470
 C339 C 0.90571 0.06717 0.67344
 H340 H 0.94907 0.14913 0.64889
 H341 H 0.86851 0.17580 0.66440
 H342 H 0.94628 0.10248 0.72161
 H343 H 0.83635 0.06148 0.69056
 H344 H 0.83894 0.10876 0.61855
 H345 H 0.91685 0.03553 0.67575
 C346 C 1.07601 -0.12990 0.66021
 C347 C 1.11970 -0.14494 0.66860
 C348 C 1.12076 -0.11808 0.70651
 C349 C 1.07741 -0.10345 0.69917
 C350 C 1.13845 -0.08235 0.68263
 C351 C 1.13693 -0.10891 0.64381
 C352 C 1.09351 -0.09415 0.63587
 C353 C 1.09473 -0.06750 0.67422
 H354 H 1.05021 -0.14918 0.65051
 H355 H 1.13026 -0.17686 0.66712
 H356 H 1.05341 -0.10144 0.72259
 H357 H 1.16410 -0.06263 0.69177
 H358 H 1.16109 -0.11103 0.62056
 H359 H 1.08427 -0.03554 0.67592
 C360 C 0.35891 1.11010 1.13834
 C361 C 0.33476 1.14696 1.12187
 C362 C 0.29633 1.12105 1.12320
 C363 C 0.31957 1.08453 1.14015
 C364 C 0.30251 1.10676 1.07942
 C365 C 0.34194 1.13222 1.07775
 C366 C 0.36565 1.09564 1.09447
 C367 C 0.32678 1.07000 1.09597
 H368 H 0.38257 1.11136 1.16226
 H369 H 0.33724 1.17870 1.13283
 H370 H 0.31041 1.06477 1.16578
 H371 H 0.27871 1.10560 1.05565
 H372 H 0.35156 1.15157 1.05195
 H373 H 0.32401 1.03833 1.08497
 C374 C 0.35723 0.89211 0.86301
 C375 C 0.33288 0.85599 0.88065
 C376 C 0.29490 0.88256 0.87978
 C377 C 0.31835 0.91837 0.86168
 C378 C 0.30249 0.89747 0.92314
 C379 C 0.34150 0.87132 0.92434
 C380 C 0.36540 0.90716 0.90643
 C381 C 0.32698 0.93351 0.90541
 H382 H 0.38021 0.89003 0.83858
 H383 H 0.33449 0.82402 0.87019
 H384 H 0.30893 0.93792 0.83594
 H385 H 0.27934 0.89943 0.94742
 H386 H 0.35149 0.85223 0.95023
 H387 H 0.32515 0.96552 0.91576
 C388 C 0.64189 0.89306 1.13855
 C389 C 0.66554 0.85604 1.12178
 C390 C 0.70422 0.88159 1.12293
 C391 C 0.68150 0.91827 1.14018
 C392 C 0.69770 0.89606 1.07925
 C393 C 0.65804 0.87095 1.07777
 C394 C 0.63483 0.90770 1.09478
 C395 C 0.67394 0.93299 1.09610
 H396 H 0.61848 0.89197 1.16262
 H397 H 0.66289 0.82429 1.13264
 H398 H 0.69115 0.93786 1.16582
 H399 H 0.72126 0.89705 1.05532
 H400 H 0.64799 0.85174 1.05198
 H401 H 0.67687 0.96467 1.08520
 C402 C 0.65863 1.13122 0.92310
 C403 C 0.69755 1.10493 0.92162
 C404 C 0.70464 1.11967 0.87814
 C405 C 0.66676 1.14638 0.87930
 C406 C 0.68084 1.08388 0.86035
 C407 C 0.67271 1.06892 0.90420
 C408 C 0.63438 1.09539 0.90551
 C409 C 0.64206 1.11027 0.86197
 H410 H 0.64904 1.15044 0.94904
 H411 H 0.72099 1.10297 0.94569
 H412 H 0.66512 1.17831 0.86877
 H413 H 0.68985 1.06420 0.83458
 H414 H 0.67458 1.03695 0.91462
 H415 H 0.61878 1.11235 0.83773
 C416 C 0.10974 0.35899 0.13663
 C417 C 0.08469 0.31928 0.13798
 C418 C 0.12135 0.29649 0.12093
 C419 C 0.14673 0.33535 0.11999
 C420 C 0.10701 0.30306 0.07720
 C421 C 0.07009 0.32680 0.09389
 C422 C 0.09523 0.36605 0.09283
 C423 C 0.13197 0.34288 0.07593
 H424 H 0.11071 0.38245 0.16079
 H425 H 0.06517 0.30945 0.16351
 H426 H 0.17836 0.33804 0.13100
 H427 H 0.10615 0.27943 0.05321
 H428 H 0.03852 0.32381 0.08284
 H429 H 0.15116 0.35302 0.05026
 C430 C -0.10938 0.35684 -0.13853
 C431 C -0.08366 0.31756 -0.14014
 C432 C -0.11942 0.29434 -0.12178
 C433 C -0.14544 0.33275 -0.12058
 C434 C -0.10396 0.30172 -0.07856
 C435 C -0.06795 0.32592 -0.09657
 C436 C -0.09379 0.36472 -0.09524
 C437 C -0.12960 0.34108 -0.07705
 H438 H -0.11145 0.37996 -0.16292
 H439 H -0.06472 0.30775 -0.16612
 H440 H -0.17742 0.33472 -0.13071
 H441 H -0.10202 0.27841 -0.05435
 H442 H -0.03594 0.32370 -0.08655
 H443 H -0.14827 0.35119 -0.05096
 C444 C 0.07681 0.65900 -0.13213
 C445 C 0.07783 0.69814 -0.10602
 C446 C 0.12137 0.70544 -0.12008
 C447 C 0.12066 0.66726 -0.14659
 C448 C 0.13858 0.68185 -0.08389
 C449 C 0.09470 0.67359 -0.06959
 C450 C 0.09386 0.63500 -0.09587
 C451 C 0.13747 0.64279 -0.11008
 H452 H 0.05128 0.64916 -0.15173
 H453 H 0.05377 0.72156 -0.10457
 H454 H 0.13164 0.66551 -0.17835
 H455 H 0.16399 0.69145 -0.06403
 H456 H 0.08366 0.67564 -0.03790
 H457 H 0.16171 0.61955 -0.11164
 C458 C -0.13822 0.64114 0.10791
 C459 C -0.12116 0.66523 0.14458
 C460 C -0.12288 0.70385 0.11881
 C461 C -0.14037 0.68065 0.08248
 C462 C -0.07950 0.69748 0.10388
 C463 C -0.07746 0.65793 0.12924
 C464 C -0.09474 0.63429 0.09283
 C465 C -0.09661 0.67330 0.06728
 H466 H -0.16207 0.61749 0.10944
 H467 H -0.13157 0.66276 0.17649
 H468 H -0.16626 0.69024 0.06327
 H469 H -0.05582 0.72130 0.10247
 H470 H -0.05146 0.64817 0.14824
 H471 H -0.08619 0.67608 0.03542
 C472 C 1.10803 0.13528 0.64492
 C473 C 1.08123 0.13694 0.68347
 C474 C 1.11648 0.11879 0.70773
 C475 C 1.14358 0.11759 0.67011
 C476 C 1.10153 0.07548 0.70011
 C477 C 1.06607 0.09326 0.67478
 C478 C 1.09297 0.09190 0.63671
 C479 C 1.12824 0.07396 0.66145
 H480 H 1.11060 0.15957 0.62176
 H481 H 1.06175 0.16281 0.69247
 H482 H 1.17553 0.12788 0.66899
 H483 H 1.09908 0.05133 0.72343
 H484 H 1.03409 0.08305 0.67612
 H485 H 1.14732 0.04794 0.65196
 C486 C 0.90593 -0.07000 0.67337
 C487 C 0.86186 -0.08392 0.68140
 C488 C 0.87870 -0.12079 0.70421
 C489 C 0.92239 -0.10710 0.69721
 C490 C 0.87887 -0.14655 0.66553
 C491 C 0.86250 -0.10935 0.64179
 C492 C 0.90627 -0.09548 0.63424
 C493 C 0.92290 -0.13241 0.65751
 H494 H 0.91741 -0.03852 0.67605
 H495 H 0.83680 -0.06379 0.69115
 H496 H 0.94656 -0.10641 0.72063
 H497 H 0.86747 -0.17812 0.66313
 H498 H 0.83818 -0.11013 0.61853
 H499 H 0.94814 -0.15209 0.64723
 C500 C 1.09553 -0.06828 0.32634
 C501 C 1.13918 -0.08348 0.31831
 C502 C 1.12132 -0.11935 0.29465
 C503 C 1.07805 -0.10438 0.30163
 C504 C 1.12006 -0.14581 0.33280
 C505 C 1.13745 -0.10962 0.35737
 C506 C 1.09412 -0.09450 0.36493
 C507 C 1.07645 -0.13042 0.34081
 H508 H 1.08526 -0.03628 0.32428
 H509 H 1.16495 -0.06398 0.30917
 H510 H 1.05408 -0.10249 0.27807
 H511 H 1.13042 -0.17777 0.33464
 H512 H 1.16157 -0.11163 0.38077
 H513 H 1.05053 -0.14946 0.35053
 C514 C 0.86460 0.10836 0.35704
 C515 C 0.88216 0.14449 0.33260
 C516 C 0.88063 0.11811 0.29436
 C517 C 0.86261 0.08231 0.31789
 C518 C 0.92383 0.10287 0.30136
 C519 C 0.92569 0.12883 0.34062
 C520 C 0.90787 0.09298 0.36462
 C521 C 0.90619 0.06682 0.32595
 H522 H 0.84055 0.11049 0.38041
 H523 H 0.87199 0.17651 0.33452
 H524 H 0.83669 0.06300 0.30862
 H525 H 0.94773 0.10086 0.27783
 H526 H 0.95175 0.14769 0.35042
 H527 H 0.91626 0.03477 0.32382
 C528 C 0.07374 0.33936 -0.12950
 C529 C 0.11712 0.33010 -0.14476
 C530 C 0.11764 0.29237 -0.11769
 C531 C 0.07456 0.30060 -0.10282
 C532 C 0.13608 0.31618 -0.08218
 C533 C 0.13512 0.35483 -0.10896
 C534 C 0.09198 0.36364 -0.09396
 C535 C 0.09263 0.32547 -0.06709
 H536 H 0.04798 0.34935 -0.14871
 H537 H 0.12745 0.33119 -0.17678
 H538 H 0.05009 0.27766 -0.10054
 H539 H 0.16168 0.30673 -0.06253
 H540 H 0.15972 0.37761 -0.11135
 H541 H 0.08240 0.32417 -0.03504
 C542 C -0.13007 0.34186 0.07579
 C543 C -0.10442 0.30250 0.07701
 C544 C -0.11845 0.29561 0.12074
 C545 C -0.14451 0.33402 0.11984
 C546 C -0.08214 0.31897 0.13784
 C547 C -0.06785 0.32683 0.09375
 C548 C -0.09369 0.36563 0.09272
 C549 C -0.10787 0.35826 0.13653
 H550 H -0.14954 0.35170 0.05014
 H551 H -0.10323 0.27890 0.05301
 H552 H -0.17613 0.33613 0.13088
 H553 H -0.06243 0.30933 0.16338
 H554 H -0.03628 0.32442 0.08267
 H555 H -0.10917 0.38168 0.16070
 C556 C -0.07691 0.65801 -0.13357
 C557 C -0.12089 0.66633 -0.14781
 C558 C -0.12094 0.70489 -0.12190
 C559 C -0.07729 0.69761 -0.10811
 C560 C -0.13790 0.68205 -0.08513
 C561 C -0.13739 0.64257 -0.11072
 C562 C -0.09368 0.63472 -0.09675
 C563 C -0.09388 0.67374 -0.07111
 H564 H -0.05170 0.64766 -0.15322
 H565 H -0.13228 0.66411 -0.17945
 H566 H -0.05304 0.72088 -0.10727
 H567 H -0.16293 0.69182 -0.06499
 H568 H -0.16180 0.61947 -0.11166
 H569 H -0.08243 0.67622 -0.03955
 C570 C 0.09502 0.67375 0.06799
 C571 C 0.07794 0.69742 0.10487
 C572 C 0.12138 0.70446 0.11950
 C573 C 0.13881 0.68174 0.08288
 C574 C 0.12065 0.66568 0.14505
 C575 C 0.07690 0.65769 0.13000
 C576 C 0.09417 0.63456 0.09330
 C577 C 0.13767 0.64208 0.10810
 H578 H 0.08416 0.67654 0.03625
 H579 H 0.05384 0.72083 0.10381
 H580 H 0.16428 0.69177 0.06343
 H581 H 0.13146 0.66321 0.17687
 H582 H 0.05129 0.64736 0.14914
 H583 H 0.16195 0.61886 0.10927
 C584 C 0.33896 1.07357 0.87092
 C585 C 0.30034 1.07439 0.89759
 C586 C 0.29193 1.11751 0.88251
 C587 C 0.32957 1.11698 0.85548
 C588 C 0.31573 1.13612 0.91791
 C589 C 0.32512 1.09268 0.93322
 C590 C 0.36316 1.09205 0.90637
 C591 C 0.35422 1.13522 0.89117
 H592 H 0.34898 1.04771 0.85184
 H593 H 0.27753 1.04980 0.89997
 H594 H 0.33055 1.12722 0.82341
 H595 H 0.30607 1.16185 0.93732
 H596 H 0.32388 1.08253 0.96533
 H597 H 0.37685 1.15996 0.88866
 C598 C 0.35872 0.89269 1.13688
 C599 C 0.31944 0.91836 1.13749
 C600 C 0.29649 0.88179 1.12023
 C601 C 0.33490 0.85581 1.12003
 C602 C 0.30385 0.89574 1.07654
 C603 C 0.32777 0.93255 1.09345
 C604 C 0.36657 0.90680 1.09312
 C605 C 0.34321 0.87017 1.07602
 H606 H 0.38178 0.89157 1.16139
 H607 H 0.30948 0.93822 1.16276
 H608 H 0.33695 0.82414 1.13125
 H609 H 0.28061 0.89675 1.05220
 H610 H 0.32541 0.96414 1.08215
 H611 H 0.35345 0.85060 1.05061
 C612 C 0.65777 1.13291 1.07579
 C613 C 0.66632 1.14703 1.11989
 C614 C 0.70447 1.12065 1.12006
 C615 C 0.69689 1.10695 1.07629
 C616 C 0.68118 1.08426 1.13709
 C617 C 0.64216 1.11032 1.13652
 C618 C 0.63409 1.09645 1.09268
 C619 C 0.67264 1.07032 1.09298
 H620 H 0.64767 1.15266 1.05045
 H621 H 0.66460 1.17867 1.13126
 H622 H 0.72007 1.10579 1.05199
 H623 H 0.69096 1.06419 1.16229
 H624 H 0.61917 1.11158 1.16099
 H625 H 0.67466 1.03875 1.08152
 C626 C 0.67416 0.90711 0.93215
 C627 C 0.68218 0.86340 0.91676
 C628 C 0.70569 0.88135 0.88094
 C629 C 0.69865 0.92471 0.89607
 C630 C 0.66754 0.88276 0.85453
 C631 C 0.64318 0.86522 0.89065
 C632 C 0.63563 0.90863 0.90590
 C633 C 0.65954 0.92642 0.87004
 H634 H 0.67629 0.91732 0.96420
 H635 H 0.69166 0.83747 0.93600
 H636 H 0.72212 0.94870 0.89804
 H637 H 0.66566 0.87245 0.82251
 H638 H 0.61990 0.84105 0.88855
 H639 H 0.64978 0.95248 0.85108
   
