data_POSCAR
  _audit_creation_date              2014-09-24
  _audit_creation_method            'ToBaCCo'
  _symmetry_space_group_name_H-M    'P1'
  _symmetry_Int_Tables_number       1
  _symmetry_cell_setting            triclinic
  loop_
  _symmetry_equiv_pos_as_xyz
 x,y,z
_cell_length_a 27.5426
_cell_length_b 29.0531
_cell_length_c 23.0935
_cell_angle_alpha 90.038400
_cell_angle_beta 89.987000
_cell_angle_gamma 90.085000
loop_
  _atom_site_label
  _atom_site_type_symbol
  _atom_site_fract_x
  _atom_site_fract_y
  _atom_site_fract_z
O1 O 0.21566 0.29648 0.18688
 O2 O 0.30771 0.20614 0.21013
 O3 O 0.21585 0.20716 0.18011
 O4 O 0.30814 0.29521 0.21180
 O5 O 0.28796 0.29330 0.30435
 O6 O 0.19587 0.20451 0.27262
 O7 O 0.28740 0.20346 0.30257
 O8 O 0.19556 0.29319 0.27939
 Cu9 Cu 0.26377 0.25145 0.18793
 Cu10 Cu 0.23989 0.24828 0.29905
 C11 C 0.18952 0.30973 0.22914
 C12 C 0.31353 0.18980 0.26066
 C13 C 0.18956 0.19130 0.22071
 C14 C 0.31400 0.30908 0.26339
 O15 O 0.80880 0.29323 0.28357
 O16 O 0.71736 0.20487 0.31961
 O17 O 0.80927 0.20409 0.28968
 O18 O 0.71828 0.29385 0.31792
 O19 O 0.69548 0.29145 0.22628
 O20 O 0.78645 0.20117 0.19808
 O21 O 0.69501 0.20255 0.22784
 O22 O 0.78606 0.29064 0.19193
 Cu23 Cu 0.76578 0.24923 0.31186
 Cu24 Cu 0.73860 0.24621 0.20181
 C25 C 0.81329 0.30664 0.23149
 C26 C 0.68988 0.18932 0.27982
 C27 C 0.81375 0.18766 0.23908
 C28 C 0.69081 0.30737 0.27722
 O29 O 0.80901 0.70685 0.71806
 O30 O 0.71826 0.79551 0.68182
 O31 O 0.80988 0.79598 0.71296
 O32 O 0.71868 0.70650 0.68289
 O33 O 0.69539 0.70823 0.77438
 O34 O 0.78598 0.79873 0.80414
 O35 O 0.69494 0.79711 0.77333
 O36 O 0.78581 0.70917 0.80955
 Cu37 Cu 0.76638 0.75102 0.68979
 Cu38 Cu 0.73832 0.75346 0.79956
 C39 C 0.81322 0.69332 0.77011
 C40 C 0.69051 0.81073 0.72146
 C41 C 0.81387 0.81238 0.76368
 C42 C 0.69094 0.69268 0.72324
 O43 O 0.21548 0.70348 0.81237
 O44 O 0.30727 0.79420 0.78846
 O45 O 0.21555 0.79278 0.81896
 O46 O 0.30788 0.70512 0.78689
 O47 O 0.28743 0.70689 0.69444
 O48 O 0.19519 0.79524 0.72657
 O49 O 0.28663 0.79673 0.69613
 O50 O 0.19508 0.70655 0.71995
 Cu51 Cu 0.26352 0.74870 0.81095
 Cu52 Cu 0.23924 0.75166 0.69996
 C53 C 0.18921 0.69007 0.77028
 C54 C 0.31288 0.81054 0.73790
 C55 C 0.18905 0.80846 0.77850
 C56 C 0.31364 0.69128 0.73528
 C57 C 0.99827 0.08978 0.10549
 C58 C 1.04183 0.07698 0.07852
 C59 C 1.04118 0.04253 0.03599
 C60 C 0.99816 0.01810 0.02288
 C61 C 0.95509 0.03097 0.05196
 C62 C 0.95460 0.06738 0.09180
 C63 C 0.99810 -0.01993 -0.02140
 C64 C 0.95483 -0.03340 -0.04965
 C65 C 0.95430 -0.06977 -0.08955
 C66 C 0.99805 -0.09151 -0.10417
 C67 C 1.04177 -0.07819 -0.07791
 C68 C 1.04124 -0.04377 -0.03533
 H69 H 0.99804 0.11906 0.13446
 H70 H 1.07458 0.03543 0.01311
 H71 H 0.92132 0.01307 0.04414
 H72 H 0.92093 -0.01603 -0.04113
 H73 H 0.99776 -0.12073 -0.13324
 H74 H 1.07483 -0.03626 -0.01302
 C75 C 0.49880 0.59224 0.60292
 C76 C 0.54255 0.57819 0.57752
 C77 C 0.54189 0.54359 0.53521
 C78 C 0.49856 0.51997 0.52101
 C79 C 0.45522 0.53415 0.54860
 C80 C 0.45486 0.57086 0.58802
 C81 C 0.49857 0.48139 0.47730
 C82 C 0.45526 0.46716 0.44960
 C83 C 0.45490 0.43037 0.41029
 C84 C 0.49880 0.40897 0.39561
 C85 C 0.54253 0.42307 0.42110
 C86 C 0.54187 0.45776 0.46329
 H87 H 0.49875 0.62166 0.63167
 H88 H 0.57562 0.53578 0.51349
 H89 H 0.42111 0.51710 0.54011
 H90 H 0.42118 0.48421 0.45794
 H91 H 0.49873 0.37947 0.36699
 H92 H 0.57556 0.46560 0.48512
 C93 C 0.00078 0.40975 0.10580
 C94 C -0.04342 0.42341 0.08112
 C95 C -0.04351 0.45780 0.03842
 C96 C -0.00040 0.48137 0.02312
 C97 C 0.04316 0.46799 0.05077
 C98 C 0.04431 0.43148 0.09024
 C99 C -0.00041 0.51893 -0.02192
 C100 C 0.04308 0.53225 -0.04986
 C101 C 0.04420 0.56871 -0.08941
 C102 C 0.00069 0.59046 -0.10472
 C103 C -0.04346 0.57686 -0.07972
 C104 C -0.04351 0.54252 -0.03696
 H105 H 0.00151 0.38037 0.13453
 H106 H -0.07752 0.46542 0.01722
 H107 H 0.07702 0.48543 0.04211
 H108 H 0.07691 0.51481 -0.04140
 H109 H 0.00142 0.61980 -0.13353
 H110 H -0.07745 0.53493 -0.01553
 C111 C 0.49648 0.90944 0.60357
 C112 C 0.45273 0.93175 0.59029
 C113 C 0.45298 0.96798 0.55014
 C114 C 0.49597 0.98088 0.52090
 C115 C 0.53897 0.95646 0.53348
 C116 C 0.53984 0.92215 0.57601
 C117 C 0.49611 1.01915 0.47716
 C118 C 0.53921 1.04368 0.46494
 C119 C 0.54033 1.07811 0.42256
 C120 C 0.49712 1.09080 0.39476
 C121 C 0.45327 1.06838 0.40769
 C122 C 0.45330 1.03204 0.44767
 H123 H 0.49650 0.88035 0.63279
 H124 H 0.41922 0.98581 0.54222
 H125 H 0.57224 0.96363 0.51028
 H126 H 0.57234 1.03653 0.48836
 H127 H 0.49730 1.11999 0.36569
 H128 H 0.41948 1.01413 0.45532
 C129 C 1.15218 0.16022 0.20883
 C130 C 1.14187 0.14540 0.15525
 C131 C 1.09805 0.11765 0.14431
 C132 C 1.08775 0.10150 0.09144
 H133 H 1.16438 0.15546 0.11884
 H134 H 1.07331 0.11119 0.17992
 H135 H 1.12941 0.14922 0.24459
 H136 H 1.11398 0.10571 0.05683
 C137 C 0.65158 0.65982 0.71080
 C138 C 0.64261 0.64418 0.65737
 C139 C 0.59837 0.61742 0.64512
 C140 C 0.58885 0.60147 0.59194
 H141 H 0.66653 0.65323 0.62186
 H142 H 0.57260 0.61173 0.67989
 H143 H 0.62738 0.65061 0.74599
 H144 H 0.61599 0.60496 0.55821
 C145 C -0.14808 0.33982 0.21725
 C146 C -0.14068 0.35548 0.16348
 C147 C -0.09745 0.38334 0.14996
 C148 C -0.08927 0.39966 0.09662
 H149 H -0.16517 0.34585 0.12876
 H150 H -0.07116 0.38949 0.18404
 H151 H -0.12346 0.34989 0.25165
 H152 H -0.11693 0.39579 0.06358
 C153 C 0.35199 0.84416 0.72748
 C154 C 0.35668 0.86629 0.67703
 C155 C 0.40125 0.89208 0.66310
 C156 C 0.40570 0.91434 0.61265
 H157 H 0.32901 0.86259 0.64395
 H158 H 0.43166 0.89025 0.69276
 H159 H 0.37922 0.84868 0.76090
 H160 H 0.37410 0.91798 0.58503
 C161 C -0.14824 0.66016 -0.21560
 C162 C -0.14082 0.64460 -0.16181
 C163 C -0.09762 0.61679 -0.14837
 C164 C -0.08929 0.60059 -0.09503
 H165 H -0.16522 0.65428 -0.12705
 H166 H -0.07146 0.61056 -0.18256
 H167 H -0.12366 0.65007 -0.25001
 H168 H -0.11682 0.60453 -0.06184
 C169 C 0.35274 1.15635 0.27086
 C170 C 0.35745 1.13405 0.32118
 C171 C 0.40204 1.10837 0.33501
 C172 C 0.40634 1.08580 0.38525
 H173 H 0.32973 1.13749 0.35425
 H174 H 0.43253 1.11052 0.30549
 H175 H 0.37999 1.15207 0.23741
 H176 H 0.37463 1.08188 0.41267
 C177 C 1.15163 -0.16065 -0.20940
 C178 C 1.14160 -0.14582 -0.15577
 C179 C 1.09770 -0.11840 -0.14442
 C180 C 1.08777 -0.10221 -0.09146
 H181 H 1.16439 -0.15566 -0.11955
 H182 H 1.07260 -0.11227 -0.17971
 H183 H 1.12861 -0.14984 -0.24499
 H184 H 1.11437 -0.10611 -0.05721
 C185 C 0.65150 0.34033 0.28904
 C186 C 0.64249 0.35648 0.34221
 C187 C 0.59835 0.38338 0.35401
 C188 C 0.58878 0.39970 0.40699
 H189 H 0.66632 0.34774 0.37790
 H190 H 0.57270 0.38884 0.31910
 H191 H 0.62742 0.34922 0.25365
 H192 H 0.61584 0.39640 0.44083
 C193 C 0.85068 -0.15574 -0.22527
 C194 C 0.85718 -0.13607 -0.17341
 C195 C 0.90161 -0.10969 -0.16069
 C196 C 0.90708 -0.08805 -0.10999
 H197 H 0.83129 -0.14190 -0.13876
 H198 H 0.93113 -0.11036 -0.19170
 H199 H 0.87619 -0.14823 -0.25982
 H200 H 0.87627 -0.08542 -0.08092
 C201 C 0.35310 0.34229 0.27533
 C202 C 0.35840 0.36294 0.32663
 C203 C 0.40269 0.38941 0.33971
 C204 C 0.40780 0.41158 0.39009
 H205 H 0.33147 0.35798 0.36032
 H206 H 0.43240 0.38860 0.30896
 H207 H 0.37966 0.34832 0.24149
 H208 H 0.37686 0.41440 0.41892
 C209 C 0.14969 0.65679 -0.22036
 C210 C 0.14316 0.63514 -0.16998
 C211 C 0.09809 0.60940 -0.15857
 C212 C 0.09181 0.58689 -0.10868
 H213 H 0.16958 0.63901 -0.13551
 H214 H 0.06886 0.61116 -0.18989
 H215 H 0.12354 0.65208 -0.25495
 H216 H 0.12233 0.58332 -0.07935
 C217 C 0.65235 1.15870 0.29252
 C218 C 0.64197 1.14453 0.34626
 C219 C 0.59764 1.11755 0.35728
 C220 C 0.58650 1.10235 0.41027
 H221 H 0.66461 1.15466 0.38254
 H222 H 0.57322 1.11075 0.32146
 H223 H 0.62915 1.14779 0.25708
 H224 H 0.61232 1.10681 0.44527
 C225 C 0.14998 0.34292 0.22009
 C226 C 0.14335 0.36477 0.16988
 C227 C 0.09833 0.39054 0.15885
 C228 C 0.09194 0.41324 0.10913
 H229 H 0.16969 0.36107 0.13527
 H230 H 0.06922 0.38867 0.19034
 H231 H 0.12392 0.34748 0.25482
 H232 H 0.12235 0.41691 0.07965
 C233 C 0.65117 0.84310 0.70782
 C234 C 0.64099 0.85658 0.65387
 C235 C 0.59676 0.88336 0.64214
 C236 C 0.58592 0.89809 0.58887
 H237 H 0.66383 0.84596 0.61805
 H238 H 0.57216 0.89044 0.67770
 H239 H 0.62788 0.85393 0.74315
 H240 H 0.61191 0.89340 0.55411
 C241 C 0.85287 0.15436 0.22794
 C242 C 0.85778 0.13268 0.17725
 C243 C 0.90249 0.10711 0.16367
 C244 C 0.90740 0.08487 0.11329
 H245 H 0.83029 0.13651 0.14400
 H246 H 0.93263 0.10892 0.19372
 H247 H 0.88009 0.14969 0.26134
 H248 H 0.87607 0.08119 0.08522
 C249 C 0.35282 0.65828 0.72319
 C250 C 0.35822 0.63782 0.67179
 C251 C 0.40256 0.61157 0.65864
 C252 C 0.40776 0.58955 0.60817
 H253 H 0.33131 0.64276 0.63810
 H254 H 0.43223 0.61239 0.68944
 H255 H 0.37937 0.65229 0.75701
 H256 H 0.37686 0.58672 0.57928
   
