data_POSCAR
  _audit_creation_date              2014-09-24
  _audit_creation_method            'ToBaCCo'
  _symmetry_space_group_name_H-M    'P1'
  _symmetry_Int_Tables_number       1
  _symmetry_cell_setting            triclinic
  loop_
  _symmetry_equiv_pos_as_xyz
 x,y,z
_cell_length_a 34.8897
_cell_length_b 34.3344
_cell_length_c 23.3563
_cell_angle_alpha 89.783100
_cell_angle_beta 89.799700
_cell_angle_gamma 119.362200
loop_
  _atom_site_label
  _atom_site_type_symbol
  _atom_site_fract_x
  _atom_site_fract_y
  _atom_site_fract_z
O1 O -0.01351 0.53758 -0.07314
 O2 O 0.04512 0.48115 -0.01766
 O3 O -0.03126 0.45407 -0.06638
 O4 O 0.06005 0.56289 -0.01983
 O5 O 0.02454 0.55672 0.06122
 O6 O -0.06235 0.44546 0.01867
 O7 O 0.01550 0.47700 0.06753
 O8 O -0.04985 0.52592 0.00857
 Cu9 Cu 0.01818 0.50956 -0.05283
 Cu10 Cu -0.02137 0.50009 0.04748
 C11 C -0.04168 0.54106 -0.04230
 C12 C 0.04144 0.47097 0.03502
 C13 C -0.06252 0.43131 -0.03147
 C14 C 0.05745 0.57837 0.02851
 O15 O 0.51763 0.57863 -0.03634
 O16 O 0.48093 0.46314 -0.08129
 O17 O 0.44221 0.50615 -0.03864
 O18 O 0.55621 0.53543 -0.07687
 O19 O 0.56659 0.51869 0.01112
 O20 O 0.45237 0.48793 0.04855
 O21 O 0.49396 0.44697 0.00574
 O22 O 0.52879 0.56156 0.05108
 Cu23 Cu 0.49794 0.52246 -0.06700
 Cu24 Cu 0.51072 0.50191 0.03831
 C25 C 0.52924 0.58958 0.01513
 C26 C 0.48368 0.43638 -0.04612
 C27 C 0.42822 0.49283 0.01187
 C28 C 0.58041 0.53096 -0.03972
 O29 O 0.47932 1.05626 0.02689
 O30 O 0.52297 0.98319 0.07698
 O31 O 0.56092 1.06157 0.03755
 O32 O 0.44890 0.97607 0.07831
 O33 O 0.43840 0.94864 -0.00934
 O34 O 0.54683 1.03994 -0.05241
 O35 O 0.51586 0.95810 -0.01164
 O36 O 0.46788 1.02629 -0.05916
 Cu37 Cu 0.50366 1.02416 0.06241
 Cu38 Cu 0.49149 0.99070 -0.04191
 C39 C 0.46546 1.05299 -0.02420
 C40 C 0.52555 0.95716 0.04051
 C41 C 0.57308 1.06519 -0.01436
 C42 C 0.42568 0.94629 0.04224
 O43 O 0.95284 0.50388 0.47632
 O44 O 1.03046 0.46406 0.44223
 O45 O 0.95092 0.42868 0.48302
 O46 O 1.03559 0.54157 0.44026
 O47 O 1.05141 0.55987 0.53104
 O48 O 0.97593 0.44284 0.57165
 O49 O 1.05972 0.48553 0.52785
 O50 O 0.97479 0.51511 0.56647
 Cu51 Cu 0.99030 0.48333 0.45136
 Cu52 Cu 1.01958 0.50148 0.55756
 C53 C 0.94922 0.51434 0.52739
 C54 C 1.05962 0.46996 0.47854
 C55 C 0.94842 0.41696 0.53507
 C56 C 1.05666 0.57051 0.47838
 O57 O 0.54264 0.54544 0.41795
 O58 O 0.48114 0.42858 0.46720
 O59 O 0.45993 0.48329 0.41701
 O60 O 0.56242 0.49093 0.47061
 O61 O 0.55408 0.51843 0.55223
 O62 O 0.44830 0.50332 0.50230
 O63 O 0.47508 0.45206 0.55298
 O64 O 0.52843 0.56859 0.49940
 Cu65 Cu 0.51250 0.48485 0.43456
 Cu66 Cu 0.50009 0.51277 0.53515
 C67 C 0.54544 0.57668 0.44962
 C68 C 0.46932 0.42065 0.51928
 C69 C 0.43666 0.49197 0.45094
 C70 C 0.57562 0.50605 0.52048
 O71 O 0.44908 -0.03636 0.44632
 O72 O 0.55913 0.05088 0.49081
 O73 O 0.52592 -0.03007 0.44838
 O74 O 0.48015 0.04224 0.49116
 O75 O 0.47227 0.01674 0.57984
 O76 O 0.51034 -0.06135 0.53432
 O77 O 0.54876 0.01918 0.57613
 O78 O 0.43581 -0.06384 0.53438
 Cu79 Cu 0.50519 0.00996 0.46061
 Cu80 Cu 0.49065 -0.02481 0.56517
 C81 C 0.42388 -0.06522 0.48270
 C82 C 0.57287 0.04962 0.54065
 C83 C 0.52396 -0.05947 0.48338
 C84 C 0.46874 0.04202 0.54290
 C85 C 0.12342 0.47580 0.28417
 C86 C 0.11927 0.47435 0.22572
 C87 C 0.14740 0.46007 0.20443
 N88 N 0.16716 0.45107 0.24811
 C89 C 0.15239 0.46036 0.29700
 C90 C 0.15218 0.45207 0.14624
 C91 C 0.18828 0.44775 0.12603
 C92 C 0.19144 0.43286 0.07206
 C93 C 0.23318 0.43818 0.06721
 C94 C 0.25466 0.45670 0.11806
 N95 N 0.22698 0.46228 0.15369
 C96 C 0.29977 0.47161 0.12888
 C97 C 0.31702 0.48199 0.18490
 C98 C 0.36101 0.50854 0.19867
 C99 C 0.36360 0.50802 0.25735
 C100 C 0.32111 0.48134 0.27728
 N101 N 0.29270 0.46551 0.23305
 C102 C 0.30857 0.47082 0.33516
 C103 C 0.26444 0.45247 0.35254
 C104 C 0.24761 0.43133 0.40459
 C105 C 0.20618 0.42643 0.40970
 C106 C 0.19915 0.44472 0.36059
 N107 N 0.23446 0.45979 0.32550
 C108 C 0.16384 0.45297 0.35250
 H109 H 0.10721 0.48763 0.31311
 H110 H 0.09822 0.48354 0.20241
 H111 H 0.24075 0.48066 0.29012
 H112 H 0.16674 0.42038 0.03895
 H113 H 0.24626 0.42990 0.03002
 H114 H 0.38833 0.52736 0.16977
 H115 H 0.39323 0.52613 0.28225
 H116 H 0.18438 0.41249 0.44624
 H117 H 0.23578 0.48007 0.19180
 H118 H 0.26413 0.42200 0.43647
 C119 C 0.53991 0.65330 0.27148
 C120 C 0.53589 0.65450 0.21305
 C121 C 0.55490 0.69928 0.19760
 N122 N 0.56874 0.72509 0.24474
 C123 C 0.55928 0.69711 0.28966
 C124 C 0.56191 0.71711 0.14150
 C125 C 0.57473 0.76244 0.13269
 C126 C 0.59512 0.78690 0.08383
 C127 C 0.59507 0.82684 0.08854
 C128 C 0.57411 0.82515 0.13983
 N129 N 0.56286 0.78627 0.16710
 C130 C 0.55834 0.85435 0.15561
 C131 C 0.54716 0.85657 0.21327
 C132 C 0.51917 0.87163 0.23244
 C133 C 0.51782 0.86782 0.29118
 C134 C 0.54523 0.85079 0.30587
 N135 N 0.56283 0.84365 0.25812
 C136 C 0.55508 0.84303 0.36215
 C137 C 0.57048 0.81241 0.37259
 C138 C 0.59067 0.80958 0.42234
 C139 C 0.59482 0.77170 0.41790
 C140 C 0.57721 0.75273 0.36560
 N141 N 0.56270 0.77779 0.33819
 C142 C 0.57108 0.71125 0.34627
 H143 H 0.52881 0.62360 0.29768
 H144 H 0.51999 0.62545 0.18602
 H145 H 0.54356 0.76883 0.30138
 H146 H 0.60743 0.77646 0.04781
 H147 H 0.60722 0.85320 0.05661
 H148 H 0.50011 0.88234 0.20708
 H149 H 0.49751 0.87513 0.31933
 H150 H 0.60824 0.75898 0.44999
 H151 H 0.54155 0.77357 0.20210
 H152 H 0.60082 0.83200 0.45847
 C153 C 0.10597 0.64987 0.22666
 C154 C 0.10200 0.65112 0.28475
 C155 C 0.13747 0.69058 0.30361
 N156 N 0.16045 0.71527 0.25763
 C157 C 0.14149 0.69031 0.21049
 C158 C 0.14780 0.70414 0.36177
 C159 C 0.18447 0.74625 0.37574
 C160 C 0.18902 0.77038 0.42535
 C161 C 0.23139 0.80540 0.42605
 C162 C 0.25167 0.80217 0.37685
 N163 N 0.22281 0.76658 0.34583
 C164 C 0.29690 0.82918 0.36429
 C165 C 0.31290 0.83432 0.30765
 C166 C 0.35652 0.85173 0.29135
 C167 C 0.35745 0.85350 0.23249
 C168 C 0.31433 0.83678 0.21511
 N169 N 0.28721 0.82504 0.26101
 C170 C 0.30011 0.83345 0.15803
 C171 C 0.25577 0.80552 0.14306
 C172 C 0.23761 0.80649 0.09072
 C173 C 0.19658 0.76932 0.08918
 C174 C 0.19065 0.74739 0.14101
 N175 N 0.22654 0.76981 0.17400
 C176 C 0.15523 0.70477 0.15338
 H177 H 0.08405 0.62204 0.20063
 H178 H 0.07443 0.62597 0.30869
 H179 H 0.23330 0.75752 0.21117
 H180 H 0.16469 0.76469 0.45777
 H181 H 0.24561 0.83041 0.45915
 H182 H 0.38471 0.86136 0.31863
 H183 H 0.38640 0.86477 0.20576
 H184 H 0.17401 0.75894 0.05354
 H185 H 0.23083 0.75345 0.31055
 H186 H 0.25281 0.83057 0.05637
 C187 C 0.64423 0.49965 0.72021
 C188 C 0.64576 0.50389 0.77881
 C189 C 0.68962 0.53070 0.79298
 N190 N 0.71486 0.54260 0.74516
 C191 C 0.68720 0.52373 0.70074
 C192 C 0.70624 0.54518 0.84868
 C193 C 0.75109 0.56064 0.86130
 C194 C 0.77285 0.58433 0.90975
 C195 C 0.81418 0.58826 0.90867
 C196 C 0.81644 0.56709 0.85952
 N197 N 0.77802 0.55046 0.83087
 C198 C 0.85167 0.55994 0.84469
 C199 C 0.85590 0.54510 0.79029
 C200 C 0.88224 0.52658 0.77735
 C201 C 0.87915 0.51956 0.71925
 C202 C 0.85243 0.53580 0.69861
 N203 N 0.83801 0.55101 0.74232
 C204 C 0.84279 0.53900 0.64062
 C205 C 0.80882 0.54814 0.62636
 C206 C 0.80392 0.56384 0.57369
 C207 C 0.76333 0.56131 0.57455
 C208 C 0.74489 0.54425 0.62774
 N209 N 0.77305 0.53706 0.65943
 C210 C 0.70084 0.52929 0.64293
 H211 H 0.61495 0.48006 0.69521
 H212 H 0.61780 0.48781 0.80747
 H213 H 0.76518 0.51883 0.69756
 H214 H 0.76022 0.59704 0.94283
 H215 H 0.83933 0.60404 0.94090
 H216 H 0.90106 0.51823 0.80673
 H217 H 0.89439 0.50364 0.69578
 H218 H 0.74848 0.56966 0.53941
 H219 H 0.76885 0.52867 0.79636
 H220 H 0.82665 0.57481 0.53787
 C221 C 0.42116 0.33329 0.77205
 C222 C 0.41609 0.32914 0.71382
 C223 C 0.42691 0.29702 0.69752
 N224 N 0.43672 0.28019 0.74406
 C225 C 0.43306 0.30215 0.78979
 C226 C 0.43286 0.28736 0.64053
 C227 C 0.44061 0.25163 0.62738
 C228 C 0.46055 0.24850 0.57759
 C229 C 0.46081 0.20860 0.58043
 C230 C 0.44064 0.18820 0.63169
 N231 N 0.42865 0.21483 0.66030
 C232 C 0.43144 0.14488 0.64917
 C233 C 0.42095 0.13023 0.70656
 C234 C 0.40298 0.08634 0.72510
 C235 C 0.40147 0.08717 0.78389
 C236 C 0.41865 0.13153 0.79916
 N237 N 0.43036 0.15779 0.75185
 C238 C 0.42703 0.14779 0.85579
 C239 C 0.43918 0.19245 0.86881
 C240 C 0.45991 0.21387 0.91877
 C241 C 0.46487 0.25597 0.91612
 C242 C 0.44774 0.25957 0.86409
 N243 N 0.43136 0.22029 0.83587
 C244 C 0.44593 0.29795 0.84564
 H245 H 0.41650 0.35680 0.79741
 H246 H 0.40648 0.34848 0.68676
 H247 H 0.41270 0.21158 0.79868
 H248 H 0.47427 0.27278 0.54318
 H249 H 0.47473 0.19639 0.54843
 H250 H 0.39201 0.05678 0.69910
 H251 H 0.38935 0.05842 0.81209
 H252 H 0.47901 0.28061 0.94957
 H253 H 0.40932 0.20633 0.69723
 H254 H 0.47094 0.20097 0.95351
 C255 C 0.64982 0.10267 0.73578
 C256 C 0.65195 0.10169 0.79408
 C257 C 0.69098 0.13867 0.81029
 N258 N 0.71476 0.15932 0.76270
 C259 C 0.68948 0.13764 0.71695
 C260 C 0.70482 0.15252 0.86766
 C261 C 0.74717 0.18924 0.87898
 C262 C 0.77125 0.19546 0.92869
 C263 C 0.80699 0.23772 0.92591
 C264 C 0.80416 0.25619 0.87455
 N265 N 0.76815 0.22629 0.84562
 C266 C 0.83185 0.30113 0.85805
 C267 C 0.83680 0.31410 0.80003
 C268 C 0.85453 0.35745 0.77945
 C269 C 0.85583 0.35491 0.72082
 C270 C 0.83867 0.31010 0.70787
 N271 N 0.82690 0.28524 0.75627
 C272 C 0.83512 0.29230 0.65262
 C273 C 0.80522 0.24692 0.64120
 C274 C 0.80432 0.22489 0.59114
 C275 C 0.76616 0.18438 0.59260
 C276 C 0.74549 0.18240 0.64404
 N277 N 0.76958 0.22035 0.67379
 C278 C 0.70294 0.14838 0.65889
 H279 H 0.62191 0.07902 0.71173
 H280 H 0.62772 0.07480 0.82004
 H281 H 0.75883 0.23013 0.70977
 H282 H 0.76495 0.17219 0.96338
 H283 H 0.83218 0.25309 0.95816
 H284 H 0.86462 0.38767 0.80372
 H285 H 0.86702 0.38278 0.69129
 H286 H 0.75448 0.15943 0.55925
 H287 H 0.75545 0.23331 0.80915
 H288 H 0.82792 0.23708 0.55631
 N289 N 0.09125 0.40745 0.08174
 N290 N 0.06080 0.41095 0.05183
 C291 C 0.06844 0.45309 0.05887
 C292 C 0.10479 0.47556 0.09309
 N293 N 0.11797 0.44587 0.10682
 H294 H 0.11980 0.50991 0.10723
 N295 N 0.53492 0.69323 0.04469
 N296 N 0.52655 0.66025 0.00885
 C297 C 0.54059 0.63436 0.03444
 C298 C 0.55841 0.65278 0.08655
 N299 N 0.55354 0.68912 0.09201
 H300 H 0.57215 0.63994 0.11798
 N301 N 0.33118 0.83996 0.06231
 N302 N 0.36346 0.86958 0.02957
 C303 C 0.38488 0.90707 0.06078
 C304 C 0.36489 0.89958 0.11378
 N305 N 0.33148 0.85722 0.11306
 H306 H 0.37397 0.92243 0.14942
 N307 N 0.84668 0.51004 0.54678
 N308 N 0.87455 0.50420 0.51419
 C309 C 0.91295 0.52225 0.54251
 C310 C 0.90792 0.53971 0.59317
 N311 N 0.86584 0.53091 0.59476
 H312 H 0.93231 0.55607 0.62610
 N313 N 0.41767 0.30307 0.54324
 N314 N 0.42673 0.33772 0.50947
 C315 C 0.45004 0.37470 0.54105
 C316 C 0.45569 0.36177 0.59478
 N317 N 0.43470 0.31672 0.59476
 H318 H 0.47493 0.38312 0.62952
 N319 N 0.66843 0.15241 0.57062
 N320 N 0.63467 0.12736 0.53726
 C321 C 0.61609 0.08552 0.55855
 C322 C 0.64015 0.08552 0.60535
 N323 N 0.67209 0.12824 0.61246
 H324 H 0.63457 0.05705 0.63129
 N325 N 0.41329 0.11864 0.95423
 N326 N 0.42445 0.09497 0.98848
 C327 C 0.44682 0.08055 0.95583
 C328 C 0.44891 0.09582 0.90070
 N329 N 0.42767 0.11957 0.90131
 H330 H 0.46610 0.09190 0.86442
 N331 N 0.67958 0.53033 0.94771
 N332 N 0.64645 0.52693 0.97929
 C333 C 0.62155 0.53693 0.94479
 C334 C 0.64092 0.54730 0.89117
 N335 N 0.67684 0.54220 0.89447
 H336 H 0.62914 0.55610 0.85313
 N337 N 0.83756 0.33315 0.95297
 N338 N 0.86547 0.36745 0.98418
 C339 C 0.90178 0.39100 0.95174
 C340 C 0.89542 0.36979 0.89970
 N341 N 0.85470 0.33391 0.90198
 H342 H 0.91809 0.37956 0.86385
 N343 N 0.53390 0.84575 0.46148
 N344 N 0.52603 0.87169 0.49578
 C345 C 0.53444 0.90838 0.46512
 C346 C 0.54854 0.90452 0.41129
 N347 N 0.54715 0.86457 0.41030
 H348 H 0.55762 0.92795 0.37595
 N349 N 0.34035 0.50015 0.42842
 N350 N 0.37358 0.50561 0.46092
 C351 C 0.39628 0.49024 0.43071
 C352 C 0.37607 0.47516 0.37855
 N353 N 0.34126 0.48202 0.37882
 H354 H 0.38544 0.46040 0.34418
 N355 N 0.11674 0.68578 0.45989
 N356 N 0.09401 0.65054 0.49359
 C357 C 0.08454 0.61442 0.46173
 C358 C 0.10325 0.62866 0.40857
 N359 N 0.12222 0.67364 0.40796
 H360 H 0.10525 0.60780 0.37548
 N361 N 0.92548 0.60751 0.87872
 N362 N 0.95569 0.60340 0.90809
 C363 C 0.93512 0.56287 0.93346
 C364 C 0.89135 0.54206 0.91845
 N365 N 0.88662 0.57117 0.88455
 H366 H 0.86692 0.50736 0.92519
 N367 N 0.50669 0.35431 0.90022
 N368 N 0.51719 0.39015 0.93138
 C369 C 0.48156 0.39559 0.93261
 C370 C 0.44873 0.36209 0.90098
 N371 N 0.46576 0.33679 0.88166
 H372 H 0.41599 0.35679 0.89313
 N373 N 0.68630 0.12925 0.96913
 N374 N 0.65143 0.10797 1.00313
 C375 C 0.61602 0.09535 0.96973
 C376 C 0.63032 0.11081 0.91523
 N377 N 0.67461 0.13058 0.91544
 H378 H 0.60970 0.10979 0.88022
 N379 N 0.16282 0.47835 0.44965
 N380 N 0.13559 0.48228 0.48580
 C381 C 0.09574 0.46241 0.46101
 C382 C 0.09925 0.44564 0.40893
 N383 N 0.14184 0.45706 0.40273
 H384 H 0.07375 0.42921 0.37730
 N385 N 0.61448 0.67751 0.37579
 N386 N 0.60845 0.64073 0.40220
 C387 C 0.56861 0.62254 0.42756
 C388 C 0.55019 0.64922 0.41558
 N389 N 0.58005 0.68341 0.38348
 H390 H 0.51657 0.64159 0.42312
 N391 N 0.32362 0.83341 0.46208
 N392 N 0.35635 0.86094 0.49540
 C393 C 0.38125 0.89810 0.46419
 C394 C 0.36264 0.89256 0.41072
 N395 N 0.32685 0.85156 0.41085
 H396 H 0.37448 0.91581 0.37503
 N397 N 0.53613 0.86048 0.05869
 N398 N 0.52847 0.88753 0.02628
 C399 C 0.53660 0.92303 0.05872
 C400 C 0.54961 0.91697 0.11230
 N401 N 0.54878 0.87728 0.11059
 H402 H 0.55805 0.93885 0.14888
 N403 N 0.32762 0.49439 0.03088
 N404 N 0.36098 0.49973 -0.00193
 C405 C 0.38453 0.48565 0.02888
 C406 C 0.36426 0.47114 0.08150
 N407 N 0.32903 0.47751 0.08144
 H408 H 0.37523 0.45895 0.11716
 N409 N 0.16072 0.66963 0.06593
 N410 N 0.13593 0.63684 0.03062
 C411 C 0.09411 0.62056 0.04849
 C412 C 0.09392 0.64492 0.09524
 N413 N 0.13631 0.67469 0.10569
 H414 H 0.06564 0.64061 0.11954
 N415 N 0.42045 0.11222 0.55346
 N416 N 0.43050 0.08569 0.52359
 C417 C 0.45102 0.07130 0.55969
 C418 C 0.45338 0.08996 0.61270
 N419 N 0.43398 0.11544 0.60706
 H420 H 0.46926 0.08683 0.65081
 N421 N 0.66954 0.49531 0.55099
 N422 N 0.63706 0.48920 0.51649
 C423 C 0.61558 0.50791 0.54242
 C424 C 0.63570 0.52564 0.59382
 N425 N 0.66919 0.51695 0.59768
 H426 H 0.62689 0.54307 0.62522
 N427 N 0.84537 0.31873 0.55344
 N428 N 0.87527 0.35066 0.52044
 C429 C 0.91096 0.37431 0.55320
 C430 C 0.90206 0.35582 0.60741
 N431 N 0.86062 0.32122 0.60594
 H432 H 0.92309 0.36731 0.64460
   
