data_POSCAR
  _audit_creation_date              2014-09-24
  _audit_creation_method            'ToBaCCo'
  _symmetry_space_group_name_H-M    'P1'
  _symmetry_Int_Tables_number       1
  _symmetry_cell_setting            triclinic
  loop_
  _symmetry_equiv_pos_as_xyz
 x,y,z
_cell_length_a 56.1671
_cell_length_b 25.9917
_cell_length_c 22.5452
_cell_angle_alpha 90.146600
_cell_angle_beta 89.974600
_cell_angle_gamma 90.085400
loop_
  _atom_site_label
  _atom_site_type_symbol
  _atom_site_fract_x
  _atom_site_fract_y
  _atom_site_fract_z
C1 C 0.79363 0.19706 0.44361
 C2 C 0.80542 0.19158 0.49804
 C3 C 0.79402 0.19840 0.55285
 C4 C 0.76985 0.21447 0.55337
 C5 C 0.75752 0.22144 0.49882
 C6 C 0.76932 0.21226 0.44379
 C7 C 0.75711 0.22315 0.39073
 C8 C 0.73377 0.24065 0.39120
 C9 C 0.72191 0.25036 0.44474
 C10 C 0.73374 0.24065 0.49918
 C11 C 0.75843 0.22884 0.60645
 C12 C 0.73519 0.24704 0.60671
 C13 C 0.72220 0.25228 0.55383
 C14 C 0.69883 0.27347 0.55348
 C15 C 0.68776 0.28294 0.49887
 C16 C 0.69872 0.27104 0.44515
 H17 H 0.76561 0.22024 0.34792
 H18 H 0.72537 0.24817 0.34891
 H19 H 0.76765 0.22857 0.64848
 H20 H 0.72798 0.25914 0.64893
 H21 H 0.82365 0.17775 0.49774
 H22 H 0.66982 0.29843 0.49792
 C23 C 0.19974 0.77451 0.55905
 C24 C 0.18675 0.77978 0.50661
 C25 C 0.19652 0.76700 0.45150
 C26 C 0.22001 0.74756 0.44843
 C27 C 0.23322 0.74053 0.50153
 C28 C 0.22310 0.75444 0.55698
 C29 C 0.23655 0.74783 0.60883
 C30 C 0.25945 0.72770 0.60653
 C31 C 0.26968 0.71176 0.55247
 C32 C 0.25662 0.71976 0.49916
 C33 C 0.23053 0.73445 0.39392
 C34 C 0.25375 0.71592 0.39136
 C35 C 0.26707 0.70820 0.44334
 C36 C 0.29080 0.69050 0.44098
 C37 C 0.30344 0.68300 0.49354
 C38 C 0.29323 0.69163 0.54958
 H39 H 0.22955 0.75846 0.65186
 H40 H 0.26920 0.72613 0.64777
 H41 H 0.22098 0.73877 0.35258
 H42 H 0.26116 0.70771 0.34806
 H43 H 0.16880 0.79509 0.50863
 H44 H 0.32134 0.66757 0.49038
 C45 C 0.30063 0.28305 -0.55439
 C46 C 0.31203 0.28894 -0.49936
 C47 C 0.29996 0.28285 -0.44573
 C48 C 0.27584 0.26740 -0.44604
 C49 C 0.26407 0.25849 -0.50082
 C50 C 0.27636 0.26686 -0.55519
 C51 C 0.26438 0.25627 -0.60856
 C52 C 0.24061 0.24152 -0.60899
 C53 C 0.22805 0.23259 -0.55597
 C54 C 0.23992 0.24129 -0.50114
 C55 C 0.26327 0.26037 -0.39291
 C56 C 0.23954 0.24542 -0.39325
 C57 C 0.22761 0.23400 -0.44659
 C58 C 0.20323 0.21915 -0.44703
 C59 C 0.19155 0.21435 -0.50180
 C60 C 0.20357 0.21849 -0.55619
 H61 H 0.27319 0.25899 -0.65104
 H62 H 0.23221 0.23805 -0.65188
 H63 H 0.27158 0.26677 -0.35025
 H64 H 0.23060 0.24404 -0.35085
 H65 H 0.33033 0.30238 -0.49784
 H66 H 0.17314 0.20159 -0.50214
 C67 C -0.29766 0.71722 -0.44918
 C68 C -0.30888 0.71285 -0.50452
 C69 C -0.29674 0.71986 -0.55834
 C70 C -0.27236 0.73479 -0.55675
 C71 C -0.26081 0.74187 -0.50112
 C72 C -0.27343 0.73300 -0.44727
 C73 C -0.26211 0.74466 -0.39312
 C74 C -0.23886 0.76257 -0.39136
 C75 C -0.22612 0.77167 -0.44371
 C76 C -0.23695 0.76074 -0.49922
 C77 C -0.25989 0.74784 -0.60879
 C78 C -0.23640 0.76475 -0.60690
 C79 C -0.22433 0.77077 -0.55275
 C80 C -0.20082 0.79127 -0.55021
 C81 C -0.19085 0.80244 -0.49464
 C82 C -0.20296 0.79268 -0.44192
 H83 H -0.27132 0.74220 -0.35118
 H84 H -0.23120 0.77050 -0.34827
 H85 H -0.26838 0.74731 -0.65176
 H86 H -0.22826 0.77548 -0.64852
 H87 H -0.32717 0.69933 -0.50589
 H88 H -0.17291 0.81790 -0.49198
 O89 O -0.03255 0.92113 0.11228
 O90 O -0.05857 0.96555 0.05305
 C91 C -0.05392 0.93459 0.09650
 O92 O 0.03431 1.10215 0.10086
 O93 O 0.06082 1.05187 0.04949
 C94 C 0.05581 1.08806 0.08728
 O95 O -0.03214 1.09763 0.10594
 O96 O -0.05863 1.05073 0.05050
 C97 C -0.05363 1.08401 0.09171
 O98 O 0.03424 0.91620 0.10723
 O99 O 0.06062 0.96338 0.05172
 C100 C 0.05574 0.92950 0.09212
 Zr101 Zr 0.00087 0.94298 0.07595
 O102 O 0.00103 0.93756 0.16954
 O103 O 0.00005 0.86198 0.06827
 Zr104 Zr 0.00104 1.07320 0.07212
 O105 O 0.00315 1.07701 0.16577
 O106 O -0.00159 1.15437 0.06720
 O107 O -0.02017 1.00848 0.08560
 O108 O 0.02156 1.00840 0.08536
 O109 O 0.03440 0.90930 -0.09913
 O110 O 0.06083 0.96049 -0.04851
 C111 C 0.05587 0.92348 -0.08529
 O112 O -0.03176 1.09241 -0.11259
 O113 O -0.05842 1.04815 -0.05502
 C114 C -0.05330 1.07964 -0.09777
 O115 O 0.03455 1.09763 -0.10571
 O116 O 0.06098 1.04996 -0.05129
 C117 C 0.05602 1.08460 -0.09084
 O118 O -0.03199 0.91405 -0.10601
 O119 O -0.05852 0.96227 -0.05220
 C120 C -0.05348 0.92798 -0.09220
 Zr121 Zr 0.00115 0.93952 -0.07264
 O122 O 0.00400 0.93679 -0.16623
 O123 O -0.00133 0.85830 -0.06917
 Zr124 Zr 0.00127 1.06943 -0.07675
 O125 O 0.00418 1.06835 -0.17037
 O126 O -0.00149 1.15068 -0.07755
 Zr127 Zr -0.03466 1.00651 -0.00075
 Zr128 Zr 0.03673 1.00651 0.00002
 O129 O 0.02191 1.00418 -0.08564
 O130 O -0.01999 1.00418 -0.08683
 O131 O 0.02247 0.93140 0.00226
 O132 O -0.01976 1.08077 -0.00279
 O133 O -0.02004 0.93206 0.00183
 O134 O 0.02257 1.08153 -0.00239
 H135 H 0.03214 1.00945 0.12048
 H136 H -0.03062 1.11076 -0.00377
 H137 H 0.03265 1.00322 -0.12051
 H138 H -0.03097 0.90212 0.00288
 H139 H 0.01281 1.16724 0.04675
 H140 H 0.01222 1.16465 -0.05517
 H141 H -0.00815 1.04453 -0.18557
 H142 H -0.00924 0.95729 -0.18277
 H143 H 0.01096 0.84614 -0.04109
 H144 H -0.00044 0.84864 0.10937
 H145 H 0.00620 0.97131 0.18513
 H146 H -0.00889 1.05291 0.18177
 O147 O 0.47098 0.41456 0.10935
 O148 O 0.44316 0.45606 0.05252
 C149 C 0.44913 0.42475 0.09479
 O150 O 0.53220 0.60462 0.10210
 O151 O 0.55988 0.55881 0.04913
 C152 C 0.55404 0.59341 0.08805
 O153 O 0.46583 0.59191 0.10654
 O154 O 0.44072 0.54156 0.05097
 C155 C 0.44476 0.57556 0.09206
 O156 O 0.53759 0.41819 0.10280
 O157 O 0.56242 0.47093 0.04963
 C158 C 0.55861 0.43502 0.08835
 Zr159 Zr 0.50342 0.44199 0.07403
 O160 O 0.50584 0.43951 0.16763
 O161 O 0.50454 0.36089 0.06778
 Zr162 Zr 0.49968 0.57187 0.07273
 O163 O 0.50204 0.57455 0.16639
 O164 O 0.49483 0.65259 0.06948
 O165 O 0.48038 0.50418 0.08512
 O166 O 0.52207 0.50981 0.08459
 O167 O 0.53769 0.41518 -0.10235
 O168 O 0.56232 0.46950 -0.05042
 C169 C 0.55863 0.43271 -0.08830
 O170 O 0.46626 0.58888 -0.11133
 O171 O 0.44081 0.54024 -0.05498
 C172 C 0.44511 0.57312 -0.09700
 O173 O 0.53227 0.60238 -0.10593
 O174 O 0.55997 0.55795 -0.05183
 C175 C 0.55409 0.59175 -0.09149
 O176 O 0.47109 0.41117 -0.10861
 O177 O 0.44329 0.45471 -0.05346
 C178 C 0.44925 0.42206 -0.09451
 Zr179 Zr 0.50352 0.44025 -0.07458
 O180 O 0.50625 0.43842 -0.16822
 O181 O 0.50349 0.35885 -0.07141
 Zr182 Zr 0.49985 0.57018 -0.07612
 O183 O 0.50238 0.57184 -0.16975
 O184 O 0.49486 0.65092 -0.07415
 Zr185 Zr 0.46586 0.50130 -0.00113
 Zr186 Zr 0.53709 0.51111 -0.00090
 O187 O 0.52224 0.50788 -0.08649
 O188 O 0.48054 0.50222 -0.08731
 O189 O 0.52514 0.43425 -0.00003
 O190 O 0.47858 0.57749 -0.00194
 O191 O 0.48272 0.42905 -0.00011
 O192 O 0.52087 0.58415 -0.00175
 H193 H 0.53253 0.51137 0.11992
 H194 H 0.46687 0.60596 -0.00245
 H195 H 0.53281 0.50878 -0.12167
 H196 H 0.47271 0.39762 0.00035
 H197 H 0.50867 0.66746 0.04844
 H198 H 0.50883 0.66635 -0.05413
 H199 H 0.49133 0.54545 -0.18539
 H200 H 0.49280 0.45852 -0.18436
 H201 H 0.51616 0.34838 -0.04344
 H202 H 0.50490 0.34804 0.10911
 H203 H 0.49406 0.46421 0.18342
 H204 H 0.48992 0.55064 0.18235
 C205 C 0.30475 0.32989 0.35107
 C206 C 0.31900 0.34641 0.30374
 C207 C 0.34258 0.32963 0.29859
 C208 C 0.35165 0.29524 0.34091
 C209 C 0.33755 0.27894 0.38818
 C210 C 0.31384 0.29584 0.39413
 N211 N 0.35748 0.34989 0.25245
 N212 N 0.37910 0.33584 0.24797
 C213 C 0.39545 0.35604 0.20523
 C214 C 0.41897 0.33890 0.20724
 C215 C 0.43617 0.36026 0.17016
 C216 C 0.43014 0.39934 0.12984
 C217 C 0.40623 0.41523 0.12616
 C218 C 0.38898 0.39393 0.16388
 H219 H 0.28703 0.34582 0.35555
 H220 H 0.31187 0.37351 0.27199
 H221 H 0.36983 0.28169 0.33825
 H222 H 0.34522 0.25273 0.42021
 H223 H 0.42412 0.30969 0.23889
 H224 H 0.45432 0.34667 0.17396
 H225 H 0.40098 0.44494 0.09530
 H226 H 0.37082 0.40767 0.16154
 C227 C -0.18213 0.76306 0.35651
 C228 C -0.16559 0.77174 0.31099
 C229 C -0.15395 0.81926 0.30644
 C230 C -0.15894 0.85805 0.34795
 C231 C -0.17479 0.84898 0.39430
 C232 C -0.18670 0.80145 0.39927
 N233 N -0.13626 0.82718 0.26156
 N234 N -0.13178 0.87233 0.24293
 C235 C -0.11299 0.88359 0.20220
 C236 C -0.11468 0.92802 0.16780
 C237 C -0.09578 0.94312 0.13172
 C238 C -0.07442 0.91505 0.13100
 C239 C -0.07277 0.87001 0.16520
 C240 C -0.09208 0.85399 0.20008
 H241 H -0.19037 0.72549 0.36009
 H242 H -0.16172 0.74133 0.27954
 H243 H -0.14997 0.89490 0.34567
 H244 H -0.17788 0.87941 0.42635
 H245 H -0.13063 0.95135 0.16949
 H246 H -0.09763 0.97781 0.10584
 H247 H -0.05655 0.84754 0.16536
 H248 H -0.09036 0.81984 0.22711
 C249 C 0.69910 0.67798 0.34377
 C250 C 0.68483 0.66458 0.29510
 C251 C 0.66158 0.68350 0.29027
 C252 C 0.65293 0.71708 0.33412
 C253 C 0.66701 0.73014 0.38279
 C254 C 0.69031 0.71073 0.38867
 N255 N 0.64646 0.66553 0.24324
 N256 N 0.62521 0.68190 0.23818
 C257 C 0.60870 0.66297 0.19493
 C258 C 0.58549 0.68226 0.19581
 C259 C 0.56794 0.66100 0.15940
 C260 C 0.57335 0.61997 0.12095
 C261 C 0.59701 0.60215 0.11811
 C262 C 0.61456 0.62335 0.15501
 H263 H 0.71652 0.66048 0.34782
 H264 H 0.69163 0.63807 0.26208
 H265 H 0.63501 0.73224 0.33173
 H266 H 0.65961 0.75561 0.41615
 H267 H 0.58079 0.71278 0.22641
 H268 H 0.54999 0.67584 0.16262
 H269 H 0.60179 0.57062 0.08899
 H270 H 0.63243 0.60785 0.15355
 C271 C 0.19929 1.17034 0.34999
 C272 C 0.18527 1.15497 0.30170
 C273 C 0.16237 1.17503 0.29408
 C274 C 0.15370 1.21119 0.33515
 C275 C 0.16753 1.22617 0.38357
 C276 C 0.19062 1.20630 0.39169
 N277 N 0.14763 1.15609 0.24684
 N278 N 0.12714 1.17523 0.23745
 C279 C 0.11092 1.15593 0.19378
 C280 C 0.08871 1.17960 0.18883
 C281 C 0.07116 1.15872 0.15221
 C282 C 0.07556 1.11358 0.11949
 C283 C 0.09834 1.09116 0.12222
 C284 C 0.11591 1.11208 0.15932
 H285 H 0.21648 1.15226 0.35617
 H286 H 0.19203 1.12642 0.27098
 H287 H 0.13598 1.22707 0.33068
 H288 H 0.16019 1.25374 0.41471
 H289 H 0.08471 1.21344 0.21512
 H290 H 0.05391 1.17726 0.15084
 H291 H 0.10226 1.05637 0.09761
 H292 H 0.13301 1.09316 0.16244
 C293 C 0.67479 0.33418 -0.38963
 C294 C 0.66042 0.34572 -0.34101
 C295 C 0.65613 0.30860 -0.29720
 C296 C 0.66692 0.26024 -0.30197
 C297 C 0.68199 0.24909 -0.34984
 C298 C 0.68593 0.28586 -0.39463
 N299 N 0.63965 0.31866 -0.25012
 N300 N 0.63573 0.36451 -0.23284
 C301 C 0.61771 0.37725 -0.19050
 C302 C 0.61895 0.42481 -0.16163
 C303 C 0.60022 0.44149 -0.12579
 C304 C 0.57955 0.41144 -0.11963
 C305 C 0.57857 0.36298 -0.14744
 C306 C 0.59764 0.34574 -0.18218
 H307 H 0.67738 0.36332 -0.42333
 H308 H 0.65198 0.38310 -0.33868
 H309 H 0.66347 0.23106 -0.26887
 H310 H 0.68961 0.21094 -0.35336
 H311 H 0.63425 0.44959 -0.16813
 H312 H 0.60148 0.47900 -0.10513
 H313 H 0.56288 0.33896 -0.14338
 H314 H 0.59624 0.30905 -0.20475
 C315 C 0.19517 0.83478 -0.35474
 C316 C 0.18203 0.85280 -0.30616
 C317 C 0.16150 0.82669 -0.28768
 C318 C 0.15468 0.78123 -0.31720
 C319 C 0.16775 0.76333 -0.36564
 C320 C 0.18791 0.79023 -0.38514
 N321 N 0.14682 0.84882 -0.24228
 N322 N 0.12735 0.82754 -0.22703
 C323 C 0.11114 0.84964 -0.18523
 C324 C 0.08921 0.82531 -0.17672
 C325 C 0.07158 0.84850 -0.14236
 C326 C 0.07567 0.89647 -0.11527
 C327 C 0.09820 0.91967 -0.12119
 C328 C 0.11580 0.89657 -0.15632
 H329 H 0.21052 0.85639 -0.36983
 H330 H 0.18738 0.88804 -0.28416
 H331 H 0.13885 0.76039 -0.30406
 H332 H 0.16180 0.72920 -0.38902
 H333 H 0.08546 0.78912 -0.19875
 H334 H 0.05451 0.82940 -0.13824
 H335 H 0.10186 0.95659 -0.10080
 H336 H 0.13269 0.91601 -0.16224
 C337 C 0.29766 0.64905 -0.35326
 C338 C 0.31215 0.63367 -0.30590
 C339 C 0.33616 0.64809 -0.30402
 C340 C 0.34552 0.67824 -0.35015
 C341 C 0.33123 0.69313 -0.39755
 C342 C 0.30701 0.67915 -0.39984
 N343 N 0.35110 0.63052 -0.25657
 N344 N 0.37236 0.64702 -0.25214
 C345 C 0.38908 0.63021 -0.20854
 C346 C 0.41160 0.65287 -0.20892
 C347 C 0.42940 0.63523 -0.17129
 C348 C 0.42508 0.59418 -0.13215
 C349 C 0.40209 0.57252 -0.13009
 C350 C 0.38417 0.59030 -0.16832
 H351 H 0.27940 0.63561 -0.35465
 H352 H 0.30474 0.60987 -0.27111
 H353 H 0.36405 0.68977 -0.35018
 H354 H 0.33911 0.71641 -0.43220
 H355 H 0.41555 0.68365 -0.23972
 H356 H 0.44676 0.65326 -0.17388
 H357 H 0.39817 0.54107 -0.10027
 H358 H 0.36680 0.57221 -0.16744
 C359 C -0.20117 1.15625 -0.34980
 C360 C -0.18650 1.14228 -0.30216
 C361 C -0.16299 1.16013 -0.29900
 C362 C -0.15447 1.19313 -0.34348
 C363 C -0.16893 1.20673 -0.39106
 C364 C -0.19249 1.18844 -0.39530
 N365 N -0.14756 1.14237 -0.25266
 N366 N -0.12612 1.15813 -0.24985
 C367 C -0.10910 1.14052 -0.20738
 C368 C -0.08596 1.15995 -0.21104
 C369 C -0.06806 1.14105 -0.17437
 C370 C -0.07299 1.10219 -0.13283
 C371 C -0.09652 1.08392 -0.12760
 C372 C -0.11448 1.10277 -0.16489
 H373 H -0.21886 1.13978 -0.35254
 H374 H -0.19325 1.11636 -0.26858
 H375 H -0.13639 1.20760 -0.34233
 H376 H -0.16163 1.23191 -0.42474
 H377 H -0.08166 1.18908 -0.24362
 H378 H -0.05024 1.15639 -0.17939
 H379 H -0.10093 1.05427 -0.09581
 H380 H -0.13231 1.08725 -0.16133
 C381 C 0.69745 0.67166 -0.35397
 C382 C 0.68319 0.65782 -0.30557
 C383 C 0.65997 0.67675 -0.30042
 C384 C 0.65116 0.71000 -0.34421
 C385 C 0.66527 0.72364 -0.39255
 C386 C 0.68874 0.70516 -0.39806
 N387 N 0.64513 0.65983 -0.25247
 N388 N 0.62403 0.67684 -0.24662
 C389 C 0.60786 0.65924 -0.20202
 C390 C 0.58454 0.67775 -0.20315
 C391 C 0.56734 0.65737 -0.16531
 C392 C 0.57320 0.61808 -0.12512
 C393 C 0.59702 0.60151 -0.12170
 C394 C 0.61423 0.62171 -0.16019
 H395 H 0.71498 0.65467 -0.35799
 H396 H 0.69008 0.63147 -0.27266
 H397 H 0.63321 0.72493 -0.34164
 H398 H 0.65787 0.74947 -0.42537
 H399 H 0.57947 0.70674 -0.23514
 H400 H 0.54924 0.67133 -0.16894
 H401 H 0.60218 0.57168 -0.09089
 H402 H 0.63224 0.60702 -0.15844
 C403 C 0.19945 1.17215 -0.35256
 C404 C 0.18557 1.15623 -0.30433
 C405 C 0.16222 1.17402 -0.29763
 C406 C 0.15295 1.20850 -0.33959
 C407 C 0.16667 1.22407 -0.38794
 C408 C 0.19020 1.20644 -0.39516
 N409 N 0.14771 1.15463 -0.25026
 N410 N 0.12690 1.17236 -0.24148
 C411 C 0.11081 1.15280 -0.19776
 C412 C 0.08838 1.17551 -0.19342
 C413 C 0.07098 1.15448 -0.15668
 C414 C 0.07570 1.11005 -0.12323
 C415 C 0.09869 1.08859 -0.12530
 C416 C 0.11615 1.10970 -0.16260
 H417 H 0.21704 1.15577 -0.35793
 H418 H 0.19283 1.12907 -0.27284
 H419 H 0.13490 1.22265 -0.33581
 H420 H 0.15887 1.25046 -0.41958
 H421 H 0.08410 1.20874 -0.22027
 H422 H 0.05357 1.17233 -0.15579
 H423 H 0.10286 1.05442 -0.10004
 H424 H 0.13344 1.09151 -0.16533
 C425 C 0.30653 0.33832 -0.35604
 C426 C 0.32084 0.35436 -0.30865
 C427 C 0.34210 0.32859 -0.29588
 C428 C 0.34845 0.28517 -0.32972
 C429 C 0.33411 0.26900 -0.37681
 C430 C 0.31319 0.29574 -0.39074
 N431 N 0.35772 0.34907 -0.25139
 N432 N 0.37835 0.33026 -0.24311
 C433 C 0.39499 0.35119 -0.20146
 C434 C 0.41812 0.33150 -0.20092
 C435 C 0.43558 0.35372 -0.16504
 C436 C 0.43013 0.39596 -0.12839
 C437 C 0.40659 0.41441 -0.12715
 C438 C 0.38916 0.39243 -0.16374
 H439 H 0.29068 0.36004 -0.36688
 H440 H 0.31581 0.38804 -0.28322
 H441 H 0.36480 0.26459 -0.32087
 H442 H 0.33967 0.23646 -0.40353
 H443 H 0.42281 0.29972 -0.22979
 H444 H 0.45347 0.33830 -0.16681
 H445 H 0.40180 0.44672 -0.09926
 H446 H 0.37133 0.40822 -0.16334
 C447 C -0.19729 0.84809 -0.35197
 C448 C -0.18331 0.86408 -0.30393
 C449 C -0.16229 0.83783 -0.28985
 C450 C -0.15596 0.79388 -0.32283
 C451 C -0.16991 0.77793 -0.37064
 C452 C -0.19044 0.80534 -0.38606
 N453 N -0.14669 0.85851 -0.24547
 N454 N -0.12641 0.83842 -0.23599
 C455 C -0.10943 0.85918 -0.19517
 C456 C -0.08689 0.83664 -0.19290
 C457 C -0.06892 0.85839 -0.15835
 C458 C -0.07325 0.90308 -0.12481
 C459 C -0.09623 0.92460 -0.12521
 C460 C -0.11419 0.90300 -0.16050
 H461 H -0.21294 0.87002 -0.36392
 H462 H -0.18834 0.89810 -0.27914
 H463 H -0.13983 0.77286 -0.31295
 H464 H -0.16429 0.74514 -0.39689
 H465 H -0.08305 0.80289 -0.21947
 H466 H -0.05151 0.84056 -0.15867
 H467 H -0.10012 0.95889 -0.09969
 H468 H -0.13154 0.92105 -0.16162
 C469 C 0.29787 0.63618 0.35048
 C470 C 0.31246 0.62182 0.30279
 C471 C 0.33295 0.65038 0.28931
 C472 C 0.33805 0.69500 0.32245
 C473 C 0.32351 0.70934 0.36985
 C474 C 0.30356 0.67962 0.38483
 N475 N 0.34925 0.63158 0.24528
 N476 N 0.36922 0.65364 0.23696
 C477 C 0.38689 0.63532 0.19634
 C478 C 0.40897 0.66011 0.19562
 C479 C 0.42753 0.64125 0.16077
 C480 C 0.42431 0.59721 0.12529
 C481 C 0.40179 0.57334 0.12430
 C482 C 0.38322 0.59202 0.15994
 H483 H 0.28272 0.61241 0.36205
 H484 H 0.30834 0.58729 0.27785
 H485 H 0.35372 0.71788 0.31303
 H486 H 0.32827 0.74267 0.39627
 H487 H 0.41199 0.69349 0.22349
 H488 H 0.44454 0.66088 0.16230
 H489 H 0.39872 0.53952 0.09728
 H490 H 0.36624 0.57227 0.15979
 C491 C -0.20123 1.15381 0.34662
 C492 C -0.18665 1.14115 0.29821
 C493 C -0.16357 1.16129 0.29394
 C494 C -0.15542 1.19526 0.33806
 C495 C -0.16983 1.20778 0.38620
 C496 C -0.19298 1.18736 0.39145
 N497 N -0.14808 1.14471 0.24697
 N498 N -0.12666 1.16064 0.24488
 C499 C -0.10956 1.14425 0.20182
 C500 C -0.08614 1.16129 0.20851
 C501 C -0.06820 1.14292 0.17148
 C502 C -0.07337 1.10718 0.12632
 C503 C -0.09721 1.09200 0.11764
 C504 C -0.11520 1.11001 0.15556
 H505 H -0.21850 1.13549 0.35032
 H506 H -0.19308 1.11441 0.26497
 H507 H -0.13767 1.21148 0.33609
 H508 H -0.16284 1.23385 0.41953
 H509 H -0.08163 1.18779 0.24395
 H510 H -0.05014 1.15589 0.17936
 H511 H -0.10189 1.06544 0.08249
 H512 H -0.13329 1.09662 0.14939
 C513 C 0.68873 0.32473 0.35675
 C514 C 0.67323 0.33706 0.31034
 C515 C 0.65365 0.30504 0.29769
 C516 C 0.65038 0.25982 0.33022
 C517 C 0.66582 0.24753 0.37653
 C518 C 0.68484 0.28030 0.39061
 N519 N 0.63571 0.31952 0.25592
 N520 N 0.63707 0.36022 0.22485
 C521 C 0.61797 0.37568 0.18680
 C522 C 0.62076 0.41931 0.15125
 C523 C 0.60171 0.43776 0.11756
 C524 C 0.57940 0.41305 0.11954
 C525 C 0.57685 0.36852 0.15421
 C526 C 0.59595 0.34989 0.18735
 H527 H 0.70318 0.35069 0.36772
 H528 H 0.67602 0.37238 0.28597
 H529 H 0.63529 0.23506 0.32105
 H530 H 0.66248 0.21342 0.40278
 H531 H 0.63760 0.43965 0.15065
 H532 H 0.60426 0.47221 0.09142
 H533 H 0.55996 0.34848 0.15654
 H534 H 0.59329 0.31617 0.21463
 C535 C 0.15996 0.74721 0.39312
 C536 C 0.14374 0.75934 0.34840
 C537 C 0.14851 0.79942 0.30883
 C538 C 0.17021 0.82629 0.31310
 C539 C 0.18648 0.81414 0.35795
 C540 C 0.18129 0.77494 0.39870
 N541 N 0.13026 0.81433 0.26803
 N542 N 0.13291 0.85075 0.23098
 C543 C 0.11380 0.86704 0.19332
 C544 C 0.11795 0.90585 0.15169
 C545 C 0.09924 0.92511 0.11740
 C546 C 0.07593 0.90610 0.12465
 C547 C 0.07195 0.86630 0.16563
 C548 C 0.09070 0.84688 0.19954
 H549 H 0.15556 0.71726 0.42461
 H550 H 0.12703 0.73863 0.34576
 H551 H 0.17421 0.85766 0.28321
 H552 H 0.20269 0.83645 0.36224
 H553 H 0.13564 0.92186 0.14662
 H554 H 0.10297 0.95580 0.08634
 H555 H 0.05427 0.85071 0.17231
 H556 H 0.08700 0.81699 0.23160
   
