data_POSCAR
  _audit_creation_date              2014-09-24
  _audit_creation_method            'ToBaCCo'
  _symmetry_space_group_name_H-M    'P1'
  _symmetry_Int_Tables_number       1
  _symmetry_cell_setting            triclinic
  loop_
  _symmetry_equiv_pos_as_xyz
 x,y,z
_cell_length_a 49.8919
_cell_length_b 50.1261
_cell_length_c 49.9608
_cell_angle_alpha 89.992600
_cell_angle_beta 89.955300
_cell_angle_gamma 89.976100
loop_
  _atom_site_label
  _atom_site_type_symbol
  _atom_site_fract_x
  _atom_site_fract_y
  _atom_site_fract_z
N1 N 0.15032 0.16896 0.22507
 N2 N 0.16927 0.15067 0.22494
 C3 C 0.16537 0.13394 0.24573
 C4 C 0.14289 0.14238 0.25939
 C5 C 0.13376 0.16456 0.24590
 H6 H 0.17786 0.11698 0.25060
 H7 H 0.11644 0.17658 0.25086
 Cu8 Cu 0.19696 0.15074 0.19744
 Cu9 Cu 0.14859 0.19729 0.19839
 Cu10 Cu 0.19811 0.19754 0.14949
 N11 N 0.22464 0.15074 0.16989
 N12 N 0.22493 0.16921 0.15115
 C13 C 0.24582 0.16481 0.13463
 C14 C 0.25919 0.14244 0.14355
 C15 C 0.24536 0.13389 0.16589
 H16 H 0.25086 0.17692 0.11742
 H17 H 0.25004 0.11676 0.17819
 N18 N 0.16927 0.22448 0.15118
 N19 N 0.15036 0.22430 0.16973
 C20 C 0.13372 0.24508 0.16553
 C21 C 0.14265 0.25882 0.14339
 C22 C 0.16513 0.24539 0.13472
 H23 H 0.11642 0.24993 0.17764
 H24 H 0.17749 0.25054 0.11770
 H25 H 0.16771 0.17663 0.16819
 H26 H 0.18901 0.19818 0.18989
 N27 N -0.15133 0.83029 0.22490
 N28 N -0.16995 0.84890 0.22449
 C29 C -0.16583 0.86579 0.24507
 C30 C -0.14356 0.85716 0.25891
 C31 C -0.13480 0.83467 0.24572
 H32 H -0.17797 0.88308 0.24965
 H33 H -0.11767 0.82247 0.25084
 Cu34 Cu -0.19742 0.84918 0.19684
 Cu35 Cu -0.14965 0.80195 0.19830
 Cu36 Cu -0.19850 0.80232 0.14885
 N37 N -0.22504 0.84906 0.16931
 N38 N -0.22522 0.83068 0.15049
 C39 C -0.24609 0.83508 0.13397
 C40 C -0.25952 0.85737 0.14298
 C41 C -0.24580 0.86584 0.16537
 H42 H -0.25111 0.82298 0.11676
 H43 H -0.25057 0.88291 0.17773
 N44 N -0.16983 0.77526 0.15068
 N45 N -0.15134 0.77505 0.16960
 C46 C -0.13480 0.75418 0.16550
 C47 C -0.14338 0.74081 0.14303
 C48 C -0.16553 0.75452 0.13405
 H49 H -0.11777 0.74907 0.17786
 H50 H -0.17756 0.74970 0.11673
 H51 H -0.16806 0.82295 0.16792
 H52 H -0.18996 0.80164 0.18927
 N53 N -0.15070 0.16949 -0.22459
 N54 N -0.16940 0.15097 -0.22429
 C55 C -0.16519 0.13403 -0.24481
 C56 C -0.14278 0.14255 -0.25852
 C57 C -0.13402 0.16503 -0.24531
 H58 H -0.17752 0.11694 -0.24959
 H59 H -0.11705 0.17739 -0.25058
 Cu60 Cu -0.19729 0.15130 -0.19693
 Cu61 Cu -0.15056 0.19885 -0.19903
 Cu62 Cu -0.19808 0.19751 -0.14840
 N63 N -0.22498 0.15111 -0.16941
 N64 N -0.22500 0.16926 -0.15035
 C65 C -0.24579 0.16472 -0.13374
 C66 C -0.25935 0.14259 -0.14294
 C67 C -0.24576 0.13433 -0.16552
 H68 H -0.25065 0.17660 -0.11633
 H69 H -0.25061 0.11739 -0.17803
 N70 N -0.16915 0.22441 -0.15023
 N71 N -0.15082 0.22477 -0.16936
 C72 C -0.13418 0.24554 -0.16521
 C73 C -0.14256 0.25875 -0.14253
 C74 C -0.16467 0.24501 -0.13347
 H75 H -0.11740 0.25087 -0.17784
 H76 H -0.17670 0.24984 -0.11612
 H77 H -0.16794 0.17750 -0.16846
 H78 H -0.19077 0.19888 -0.18872
 N79 N 0.15071 0.83100 -0.22440
 N80 N 0.16925 0.84968 -0.22387
 C81 C 0.16549 0.86630 -0.24475
 C82 C 0.14346 0.85747 -0.25886
 C83 C 0.13452 0.83512 -0.24555
 H84 H 0.17778 0.88345 -0.24942
 H85 H 0.11757 0.82277 -0.25087
 Cu86 Cu 0.19642 0.84972 -0.19592
 Cu87 Cu 0.14900 0.80252 -0.19783
 Cu88 Cu 0.19854 0.80225 -0.14891
 N89 N 0.22452 0.84961 -0.16888
 N90 N 0.22523 0.83074 -0.15055
 C91 C 0.24641 0.83486 -0.13436
 C92 C 0.25955 0.85742 -0.14312
 C93 C 0.24530 0.86637 -0.16501
 H94 H 0.25180 0.82242 -0.11751
 H95 H 0.24976 0.88371 -0.17712
 N96 N 0.16974 0.77526 -0.15067
 N97 N 0.15084 0.77546 -0.16920
 C98 C 0.13416 0.75473 -0.16496
 C99 C 0.14307 0.74100 -0.14280
 C100 C 0.16555 0.75439 -0.13416
 H101 H 0.11683 0.74993 -0.17701
 H102 H 0.17786 0.74929 -0.11711
 H103 H 0.16772 0.82269 -0.16721
 H104 H 0.18947 0.80204 -0.18934
 N105 N 0.16952 1.15098 0.77514
 N106 N 0.15102 1.16969 0.77538
 C107 C 0.13422 1.16576 0.75463
 C108 C 0.14279 1.14350 0.74088
 C109 C 0.16515 1.13454 0.75429
 H110 H 0.11708 1.17809 0.74984
 H111 H 0.17729 1.11736 0.74929
 Cu112 Cu 0.15084 1.19724 0.80284
 Cu113 Cu 0.19787 1.14926 0.80180
 Cu114 Cu 0.19784 1.19825 0.85092
 N115 N 0.15098 1.22463 0.83046
 N116 N 0.16948 1.22487 0.84922
 C117 C 0.16509 1.24569 0.86570
 C118 C 0.14273 1.25908 0.85671
 C119 C 0.13418 1.24534 0.83439
 H120 H 0.17722 1.25068 0.88291
 H121 H 0.11705 1.25012 0.82202
 N122 N 0.22483 1.16961 0.84920
 N123 N 0.22483 1.15097 0.83050
 C124 C 0.24564 1.13438 0.83473
 C125 C 0.25918 1.14309 0.85705
 C126 C 0.24565 1.16536 0.86582
 H127 H 0.25062 1.11724 0.82256
 H128 H 0.25064 1.17749 0.88300
 H129 H 0.17690 1.16807 0.83206
 H130 H 0.19853 1.18952 0.81051
 N131 N 0.83088 0.84868 0.77528
 N132 N 0.84941 0.82999 0.77553
 C133 C 0.86631 0.83397 0.75484
 C134 C 0.85773 0.85623 0.74108
 C135 C 0.83530 0.86514 0.75445
 H136 H 0.88350 0.82170 0.75010
 H137 H 0.82317 0.88231 0.74945
 Cu138 Cu 0.84942 0.80257 0.80308
 Cu139 Cu 0.80248 0.85045 0.80199
 Cu140 Cu 0.80277 0.80177 0.85144
 N141 N 0.84943 0.77518 0.83066
 N142 N 0.83110 0.77514 0.84962
 C143 C 0.83545 0.75434 0.86610
 C144 C 0.85762 0.74079 0.85692
 C145 C 0.86613 0.75439 0.83449
 H146 H 0.82338 0.74944 0.88340
 H147 H 0.88310 0.74942 0.82196
 N148 N 0.77576 0.83036 0.84970
 N149 N 0.77556 0.84880 0.83079
 C150 C 0.75460 0.86525 0.83493
 C151 C 0.74119 0.85664 0.85739
 C152 C 0.75494 0.83459 0.86635
 H153 H 0.74942 0.88219 0.82257
 H154 H 0.75007 0.82256 0.88365
 H155 H 0.82356 0.83187 0.83222
 H156 H 0.80180 0.81021 0.81103
 N157 N 0.16939 0.84834 1.22457
 N158 N 0.15079 0.82974 1.22426
 C159 C 0.13385 0.83379 1.24489
 C160 C 0.14248 0.85601 1.25866
 C161 C 0.16498 0.86482 1.24537
 H162 H 0.11659 0.82161 1.24957
 H163 H 0.17717 0.88193 1.25043
 Cu164 Cu 0.15078 0.80230 1.19675
 Cu165 Cu 0.19786 0.84995 1.19797
 Cu166 Cu 0.19796 0.80090 1.14894
 N167 N 0.15084 0.77484 1.16928
 N168 N 0.16948 0.77444 1.15064
 C169 C 0.16509 0.75368 1.13415
 C170 C 0.14255 0.74052 1.14301
 C171 C 0.13389 0.75431 1.16525
 H172 H 0.17730 0.74857 1.11700
 H173 H 0.11660 0.74972 1.17747
 N174 N 0.22499 0.82946 1.15069
 N175 N 0.22494 0.84814 1.16934
 C176 C 0.24568 0.86479 1.16502
 C177 C 0.25922 0.85606 1.14269
 C178 C 0.24578 0.83372 1.13401
 H179 H 0.25055 0.88201 1.17710
 H180 H 0.25076 0.82161 1.11680
 H181 H 0.17696 0.83123 1.16752
 H182 H 0.19838 0.80974 1.18923
 N183 N 0.83079 1.15133 1.22439
 N184 N 0.84922 1.17010 1.22419
 C185 C 0.86607 1.16618 1.24492
 C186 C 0.85755 1.14385 1.25862
 C187 C 0.83522 1.13487 1.24520
 H188 H 0.88314 1.17855 1.24974
 H189 H 0.82310 1.11768 1.25022
 Cu190 Cu 0.84911 1.19762 1.19676
 Cu191 Cu 0.80232 1.14966 1.19778
 Cu192 Cu 0.80191 1.19901 1.14901
 N193 N 0.84899 1.22512 1.16933
 N194 N 0.83033 1.22554 1.15074
 C195 C 0.83467 1.24635 1.13429
 C196 C 0.85719 1.25953 1.14311
 C197 C 0.86591 1.24570 1.16531
 H198 H 0.82242 1.25148 1.11719
 H199 H 0.88320 1.25031 1.17749
 N200 N 0.77497 1.17035 1.15070
 N201 N 0.77521 1.15149 1.16918
 C202 C 0.75450 1.13482 1.16485
 C203 C 0.74077 1.14371 1.14270
 C204 C 0.75410 1.16617 1.13414
 H205 H 0.74972 1.11749 1.17683
 H206 H 0.74898 1.17844 1.11709
 H207 H 0.82303 1.16875 1.16742
 H208 H 0.80147 1.18999 1.18931
 N209 N 0.52806 1.02872 1.04749
 N210 N 0.54855 1.03199 1.06385
 N211 N 0.47158 1.04718 1.02890
 N212 N 0.45108 1.06353 1.03220
 N213 N 0.47160 1.02866 1.04748
 N214 N 0.45111 1.03192 1.06391
 N215 N 0.52802 1.04722 1.02890
 N216 N 0.54846 1.06358 1.03209
 C217 C 0.56109 1.05386 1.05400
 C218 C 0.43846 1.05378 1.05416
 N219 N 0.47191 1.02864 0.95270
 N220 N 0.45145 1.03187 0.93630
 N221 N 0.52828 1.04720 0.97131
 N222 N 0.54875 1.06358 0.96803
 N223 N 0.52834 1.02866 0.95274
 N224 N 0.54884 1.03194 0.93634
 N225 N 0.47187 1.04714 0.97129
 N226 N 0.45139 1.06347 0.96805
 Mn227 Mn 0.49993 1.04751 1.00010
 C228 C 0.43885 1.05371 0.94612
 C229 C 0.56142 1.05383 0.94610
 N230 N 0.47181 0.97122 1.04746
 N231 N 0.45130 0.96794 1.06381
 N232 N 0.52827 0.95275 1.02891
 N233 N 0.54877 0.93639 1.03219
 N234 N 0.52825 0.97127 1.04749
 N235 N 0.54872 0.96802 1.06390
 N236 N 0.47188 0.95273 1.02886
 N237 N 0.45144 0.93636 1.03205
 Mn238 Mn 0.49993 0.99997 1.04782
 C239 C 0.43879 0.94608 1.05395
 C240 C 0.56136 0.94614 1.05413
 N241 N 0.52823 0.97123 0.95275
 N242 N 0.54874 0.96796 0.93639
 N243 N 0.47176 0.95270 0.97128
 N244 N 0.45129 0.93634 0.96800
 N245 N 0.47178 0.97122 0.95269
 N246 N 0.45132 0.96795 0.93627
 N247 N 0.52818 0.95273 0.97134
 N248 N 0.54864 0.93636 0.96814
 Mn249 Mn 0.50007 0.99994 0.95239
 Mn250 Mn 0.50002 0.95240 1.00010
 Cl251 Cl 0.49999 0.99996 1.00010
 C252 C 0.56128 0.94610 0.94624
 C253 C 0.43869 0.94608 0.94604
 N254 N 0.02868 0.47184 0.04751
 N255 N 0.03184 0.45142 0.06389
 N256 N 0.04735 0.52797 0.02895
 N257 N 0.06368 0.54843 0.03214
 N258 N 0.02872 0.52798 0.04751
 N259 N 0.03185 0.54843 0.06383
 N260 N 0.04731 0.47180 0.02895
 N261 N 0.06366 0.45134 0.03220
 C262 C 0.05378 0.43880 0.05411
 C263 C 0.05377 0.56100 0.05402
 N264 N 0.02881 0.52809 -0.04721
 N265 N 0.03197 0.54859 -0.06349
 N266 N 0.04738 0.47186 -0.02868
 N267 N 0.06371 0.45138 -0.03190
 N268 N 0.02879 0.47191 -0.04725
 N269 N 0.03196 0.45148 -0.06361
 N270 N 0.04742 0.52806 -0.02865
 N271 N 0.06373 0.54855 -0.03180
 Mn272 Mn 0.04771 0.49992 0.00014
 C273 C 0.05387 0.56118 -0.05366
 C274 C 0.05386 0.43885 -0.05381
 N275 N -0.02892 0.52811 0.04750
 N276 N -0.03211 0.54854 0.06385
 N277 N -0.04755 0.47200 0.02891
 N278 N -0.06391 0.45157 0.03209
 N279 N -0.02896 0.47199 0.04748
 N280 N -0.03215 0.45155 0.06381
 N281 N -0.04751 0.52814 0.02893
 N282 N -0.06387 0.54859 0.03214
 Mn283 Mn -0.00012 0.49998 0.04783
 C284 C -0.05403 0.56114 0.05404
 C285 C -0.05406 0.43900 0.05398
 N286 N -0.02889 0.47196 -0.04724
 N287 N -0.03208 0.45153 -0.06359
 N288 N -0.04748 0.52812 -0.02864
 N289 N -0.06381 0.54859 -0.03182
 N290 N -0.02885 0.52811 -0.04720
 N291 N -0.03199 0.54857 -0.06352
 N292 N -0.04752 0.47197 -0.02867
 N293 N -0.06389 0.45154 -0.03188
 Mn294 Mn -0.00003 0.50002 -0.04756
 Mn295 Mn -0.04785 0.50006 0.00013
 Cl296 Cl -0.00007 0.49999 0.00013
 C297 C -0.05403 0.43897 -0.05378
 C298 C -0.05392 0.56116 -0.05370
 N299 N 0.95269 -0.02859 0.47166
 N300 N 0.93628 -0.03183 0.45121
 N301 N 0.97136 -0.04706 0.52797
 N302 N 0.96818 -0.06342 0.54842
 N303 N 0.95274 -0.02856 0.52803
 N304 N 0.93637 -0.03184 0.54854
 N305 N 0.97129 -0.04711 0.47165
 N306 N 0.96805 -0.06346 0.45121
 C307 C 0.94609 -0.05369 0.43863
 C308 C 0.94624 -0.05371 0.56108
 N309 N 1.04763 -0.02861 0.52785
 N310 N 1.06403 -0.03184 0.54831
 N311 N 1.02893 -0.04715 0.47159
 N312 N 1.03208 -0.06353 0.45116
 N313 N 1.04756 -0.02867 0.47149
 N314 N 1.06391 -0.03198 0.45097
 N315 N 1.02900 -0.04710 0.52789
 N316 N 1.03223 -0.06341 0.54838
 Mn317 Mn 1.00015 -0.04743 0.49978
 C318 C 1.05419 -0.05367 0.56094
 C319 C 1.05401 -0.05384 0.43847
 N320 N 0.95277 0.02887 0.52793
 N321 N 0.93639 0.03212 0.54842
 N322 N 0.97135 0.04732 0.47156
 N323 N 0.96815 0.06367 0.45111
 N324 N 0.95272 0.02885 0.47157
 N325 N 0.93633 0.03213 0.45109
 N326 N 0.97139 0.04737 0.52788
 N327 N 0.96818 0.06371 0.54834
 Mn328 Mn 0.95238 0.00014 0.49979
 C329 C 0.94623 0.05397 0.56098
 C330 C 0.94620 0.05397 0.43852
 N331 N 1.04760 0.02877 0.47141
 N332 N 1.06400 0.03200 0.45091
 N333 N 1.02905 0.04733 0.52777
 N334 N 1.03224 0.06367 0.54822
 N335 N 1.04766 0.02882 0.52778
 N336 N 1.06404 0.03207 0.54827
 N337 N 1.02900 0.04729 0.47143
 N338 N 1.03224 0.06363 0.45096
 Mn339 Mn 1.04796 0.00008 0.49963
 Mn340 Mn 1.00020 0.04765 0.49966
 Cl341 Cl 1.00017 0.00011 0.49972
 C342 C 1.05418 0.05386 0.43834
 C343 C 1.05418 0.05393 0.56083
 C344 C 1.06589 0.09972 0.37919
 C345 C 1.08875 0.08829 0.36765
 C346 C 1.10014 0.06546 0.37910
 C347 C 1.08881 0.05416 0.40207
 C348 C 1.13192 0.13117 0.28164
 C349 C 1.05452 0.08844 0.40216
 C350 C 1.10057 0.10002 0.34413
 C351 C 1.11050 0.10983 0.32443
 C352 C 1.12209 0.12131 0.30136
 C353 C 1.06595 0.06561 0.41387
 H354 H 1.05689 0.11737 0.37048
 H355 H 1.11781 0.05644 0.37031
 H356 H 1.09798 0.03652 0.41061
 H357 H 1.03686 0.09763 0.41078
 C358 C 0.93439 -0.09947 0.37950
 C359 C 0.91155 -0.08800 0.36800
 C360 C 0.90015 -0.06520 0.37948
 C361 C 0.91146 -0.05394 0.40244
 C362 C 0.86817 -0.13090 0.28226
 C363 C 0.94574 -0.08824 0.40246
 C364 C 0.89973 -0.09971 0.34450
 C365 C 0.88977 -0.10951 0.32486
 C366 C 0.87810 -0.12101 0.30187
 C367 C 0.93432 -0.06541 0.41420
 H368 H 0.94336 -0.11713 0.37076
 H369 H 0.88247 -0.05617 0.37073
 H370 H 0.90230 -0.03630 0.41101
 H371 H 0.96340 -0.09744 0.41105
 C372 C 0.90029 0.06553 0.62019
 C373 C 0.91168 0.08834 0.63164
 C374 C 0.93454 0.09978 0.62011
 C375 C 0.94590 0.08852 0.59714
 C376 C 0.86873 0.13085 0.71787
 C377 C 0.91162 0.05424 0.59723
 C378 C 0.89989 0.10002 0.65518
 C379 C 0.89000 0.10976 0.67492
 C380 C 0.87849 0.12113 0.69807
 C381 C 0.93448 0.06570 0.58543
 H382 H 0.88263 0.05651 0.62897
 H383 H 0.94353 0.11742 0.62884
 H384 H 0.96357 0.09769 0.58853
 H385 H 0.90248 0.03660 0.58869
 C386 C 1.06578 -0.09942 0.62014
 C387 C 1.08866 -0.08804 0.63163
 C388 C 1.10009 -0.06525 0.62013
 C389 C 1.08880 -0.05396 0.59716
 C390 C 1.13197 -0.13079 0.71754
 C391 C 1.05445 -0.08816 0.59717
 C392 C 1.10051 -0.09978 0.65511
 C393 C 1.11048 -0.10958 0.67477
 C394 C 1.12214 -0.12102 0.69781
 C395 C 1.06593 -0.06538 0.58540
 H396 H 1.05675 -0.11704 0.62890
 H397 H 1.11778 -0.05626 0.62888
 H398 H 1.09799 -0.03636 0.58858
 H399 H 1.03677 -0.09732 0.58859
 C400 C 0.37918 1.06532 1.10031
 C401 C 0.36759 1.08813 1.08902
 C402 C 0.37908 1.09958 1.06615
 C403 C 0.40210 1.08835 1.05471
 C404 C 0.28142 1.13111 1.13250
 C405 C 0.40220 1.05407 1.08890
 C406 C 0.34399 1.09984 1.10094
 C407 C 0.32425 1.10964 1.11093
 C408 C 0.30114 1.12118 1.12260
 C409 C 0.41394 1.06553 1.06603
 H410 H 0.37048 1.05626 1.11799
 H411 H 0.37029 1.11722 1.05721
 H412 H 0.41065 1.09757 1.03705
 H413 H 0.41082 1.03645 1.09802
 C414 C 0.37937 0.90025 0.93421
 C415 C 0.36787 0.91165 0.91134
 C416 C 0.37942 0.93446 0.90000
 C417 C 0.40242 0.94574 0.91135
 C418 C 0.28185 0.86866 0.86785
 C419 C 0.40237 0.91150 0.94560
 C420 C 0.34432 0.89990 0.89943
 C421 C 0.32464 0.89007 0.88942
 C422 C 0.30157 0.87854 0.87773
 C423 C 0.41418 0.93432 0.93422
 H424 H 0.37060 0.88261 0.94319
 H425 H 0.37070 0.94350 0.88233
 H426 H 0.41102 0.96336 0.90220
 H427 H 0.41093 0.90231 0.96325
 C428 C 0.62066 0.90032 1.06595
 C429 C 0.63216 0.91174 1.08879
 C430 C 0.62061 0.93455 1.10015
 C431 C 0.59761 0.94583 1.08881
 C432 C 0.71824 0.86865 1.13199
 C433 C 0.59765 0.91157 1.05458
 C434 C 0.65572 0.89999 1.10064
 C435 C 0.67543 0.89014 1.11057
 C436 C 0.69852 0.87858 1.12216
 C437 C 0.58585 0.93439 1.06596
 H438 H 0.62943 0.88267 1.05699
 H439 H 0.62933 0.94357 1.11782
 H440 H 0.58901 0.96346 1.09794
 H441 H 0.58909 0.90237 1.03693
 C442 C 0.62064 1.09977 0.93419
 C443 C 0.63222 1.08833 0.91137
 C444 C 0.62073 1.06548 0.90006
 C445 C 0.59774 1.05417 0.91143
 C446 C 0.71840 1.13129 0.86807
 C447 C 0.59764 1.08849 0.94560
 C448 C 0.65582 1.10005 0.89951
 C449 C 0.67555 1.10987 0.88956
 C450 C 0.69867 1.12139 0.87793
 C451 C 0.58591 1.06562 0.93427
 H452 H 0.62935 1.11744 0.94314
 H453 H 0.62951 1.05643 0.88242
 H454 H 0.58921 1.03651 0.90233
 H455 H 0.58903 1.09769 0.96323
 C456 C 0.06512 0.37973 0.10006
 C457 C 0.08800 0.36818 0.08868
 C458 C 0.09953 0.37960 0.06584
 C459 C 0.08833 0.40255 0.05449
 C460 C 0.13093 0.28231 0.13173
 C461 C 0.05388 0.40268 0.08873
 C462 C 0.09970 0.34468 0.10050
 C463 C 0.10954 0.32503 0.11039
 C464 C 0.12108 0.30200 0.12193
 C465 C 0.06545 0.41436 0.06589
 H466 H 0.05600 0.37105 0.11772
 H467 H 0.11722 0.37082 0.05685
 H468 H 0.09760 0.41107 0.03684
 H469 H 0.03620 0.41130 0.09788
 C470 C -0.06550 0.37993 -0.09966
 C471 C -0.08837 0.36842 -0.08823
 C472 C -0.09985 0.37986 -0.06537
 C473 C -0.08860 0.40278 -0.05404
 C474 C -0.13096 0.28233 -0.13099
 C475 C -0.05423 0.40285 -0.08837
 C476 C -0.10006 0.34491 -0.09999
 C477 C -0.10983 0.32522 -0.10981
 C478 C -0.12124 0.30210 -0.12127
 C479 C -0.06574 0.41456 -0.06551
 H480 H -0.05643 0.37123 -0.11733
 H481 H -0.11752 0.37109 -0.05633
 H482 H -0.09782 0.41131 -0.03637
 H483 H -0.03655 0.41144 -0.09755
 C484 C 0.09963 0.62038 -0.06522
 C485 C 0.08816 0.63184 -0.08806
 C486 C 0.06529 0.62033 -0.09946
 C487 C 0.05401 0.59740 -0.08817
 C488 C 0.13128 0.71758 -0.13110
 C489 C 0.08838 0.59744 -0.05390
 C490 C 0.09992 0.65530 -0.09986
 C491 C 0.10980 0.67494 -0.10974
 C492 C 0.12139 0.69793 -0.12128
 C493 C 0.06553 0.58566 -0.06535
 H494 H 0.11731 0.62913 -0.05622
 H495 H 0.05623 0.62905 -0.11712
 H496 H 0.03635 0.58881 -0.09735
 H497 H 0.09761 0.58889 -0.03626
 C498 C -0.09978 0.62033 0.06554
 C499 C -0.08832 0.63178 0.08837
 C500 C -0.06549 0.62026 0.09983
 C501 C -0.05422 0.59729 0.08859
 C502 C -0.13157 0.71743 0.13132
 C503 C -0.08855 0.59737 0.05427
 C504 C -0.10008 0.65525 0.10012
 C505 C -0.10999 0.67487 0.10997
 C506 C -0.12163 0.69782 0.12149
 C507 C -0.06572 0.58558 0.06575
 H508 H -0.11745 0.62911 0.05651
 H509 H -0.05644 0.62897 0.11749
 H510 H -0.03658 0.58869 0.09779
 H511 H -0.09777 0.58882 0.03662
 C512 C 1.09985 0.06573 0.62018
 C513 C 1.08829 0.08853 0.63154
 C514 C 1.06545 0.09984 0.61991
 C515 C 1.05426 0.08850 0.59694
 C516 C 1.13091 0.13190 0.71743
 C517 C 1.08869 0.05435 0.59719
 C518 C 1.09992 0.10040 0.65505
 C519 C 1.10965 0.11038 0.67473
 C520 C 1.12107 0.12204 0.69776
 C521 C 1.06584 0.06570 0.58530
 H522 H 1.11752 0.05680 0.62905
 H523 H 1.05633 0.11747 0.62856
 H524 H 1.03660 0.09761 0.58825
 H525 H 1.09796 0.03673 0.58870
 C526 C 0.93506 -0.09981 0.62006
 C527 C 0.91220 -0.08857 0.63176
 C528 C 0.90059 -0.06576 0.62047
 C529 C 0.91173 -0.05428 0.59749
 C530 C 0.86966 -0.13214 0.71765
 C531 C 0.94622 -0.08837 0.59709
 C532 C 0.90061 -0.10051 0.65527
 C533 C 0.89091 -0.11054 0.67495
 C534 C 0.87950 -0.12224 0.69799
 C535 C 0.93460 -0.06555 0.58554
 H536 H 0.94420 -0.11745 0.62864
 H537 H 0.88290 -0.05689 0.62940
 H538 H 0.90242 -0.03666 0.58907
 H539 H 0.96389 -0.09742 0.58836
 C540 C 1.09962 -0.06591 0.37909
 C541 C 1.08800 -0.08871 0.36783
 C542 C 1.06516 -0.09995 0.37954
 C543 C 1.05400 -0.08851 0.40250
 C544 C 1.13054 -0.13233 0.28204
 C545 C 1.08849 -0.05443 0.40207
 C546 C 1.09957 -0.10065 0.34433
 C547 C 1.10927 -0.11069 0.32467
 C548 C 1.12069 -0.12241 0.30167
 C549 C 1.06563 -0.06570 0.41403
 H550 H 1.11730 -0.05705 0.37016
 H551 H 1.05602 -0.11758 0.37096
 H552 H 1.03634 -0.09755 0.41124
 H553 H 1.09779 -0.03681 0.41048
 C554 C 0.93497 0.10002 0.37952
 C555 C 0.91209 0.08879 0.36790
 C556 C 0.90049 0.06601 0.37923
 C557 C 0.91165 0.05454 0.40219
 C558 C 0.86944 0.13229 0.28208
 C559 C 0.94615 0.08859 0.40246
 C560 C 0.90047 0.10073 0.34441
 C561 C 0.89073 0.11075 0.32476
 C562 C 0.87929 0.12242 0.30175
 C563 C 0.93454 0.06580 0.41408
 H564 H 0.94411 0.11764 0.37089
 H565 H 0.88279 0.05715 0.37036
 H566 H 0.90235 0.03694 0.41066
 H567 H 0.96384 0.09763 0.41114
 C568 C 0.06517 0.37983 -0.09975
 C569 C 0.08801 0.36823 -0.08839
 C570 C 0.09952 0.37960 -0.06553
 C571 C 0.08834 0.40254 -0.05416
 C572 C 0.13082 0.28249 -0.13170
 C573 C 0.05395 0.40277 -0.08841
 C574 C 0.09968 0.34476 -0.10026
 C575 C 0.10946 0.32513 -0.11022
 C576 C 0.12094 0.30213 -0.12185
 C577 C 0.06551 0.41441 -0.06557
 H578 H 0.05607 0.37118 -0.11742
 H579 H 0.11719 0.37076 -0.05656
 H580 H 0.09760 0.41103 -0.03650
 H581 H 0.03630 0.41142 -0.09757
 C582 C -0.09972 0.37986 0.06553
 C583 C -0.08818 0.36846 0.08835
 C584 C -0.06535 0.37998 0.09977
 C585 C -0.05414 0.40291 0.08849
 C586 C -0.13092 0.28287 0.13151
 C587 C -0.08854 0.40281 0.05421
 C588 C -0.09982 0.34502 0.10014
 C589 C -0.10959 0.32541 0.11006
 C590 C -0.12105 0.30247 0.12166
 C591 C -0.06571 0.41459 0.06567
 H592 H -0.11738 0.37106 0.05654
 H593 H -0.05627 0.37127 0.11742
 H594 H -0.03649 0.41153 0.09766
 H595 H -0.09779 0.41134 0.03657
 C596 C -0.09966 0.62029 -0.06537
 C597 C -0.08806 0.63170 -0.08817
 C598 C -0.06515 0.62020 -0.09951
 C599 C -0.05394 0.59728 -0.08820
 C600 C -0.13061 0.71733 -0.13155
 C601 C -0.08847 0.59736 -0.05401
 C602 C -0.09971 0.65512 -0.10003
 C603 C -0.10944 0.67472 -0.11002
 C604 C -0.12084 0.69768 -0.12169
 C605 C -0.06556 0.58558 -0.06540
 H606 H -0.11738 0.62907 -0.05642
 H607 H -0.05602 0.62892 -0.11715
 H608 H -0.03622 0.58870 -0.09731
 H609 H -0.09777 0.58883 -0.03638
 C610 C 0.06501 0.62003 0.09983
 C611 C 0.08786 0.63155 0.08841
 C612 C 0.09941 0.62015 0.06558
 C613 C 0.08823 0.59722 0.05425
 C614 C 0.13061 0.71720 0.13141
 C615 C 0.05380 0.59710 0.08855
 C616 C 0.09950 0.65499 0.10019
 C617 C 0.10926 0.67463 0.11007
 C618 C 0.12073 0.69760 0.12160
 C619 C 0.06538 0.58543 0.06571
 H620 H 0.05593 0.62872 0.11750
 H621 H 0.11709 0.62895 0.05658
 H622 H 0.09750 0.58870 0.03660
 H623 H 0.03614 0.58849 0.09773
 C624 C 0.37972 1.06535 0.90028
 C625 C 0.36827 1.08814 0.91174
 C626 C 0.37976 1.09952 0.93459
 C627 C 0.40271 1.08822 0.94589
 C628 C 0.28258 1.13134 0.86878
 C629 C 0.40269 1.05403 0.91155
 C630 C 0.34482 1.09992 0.90000
 C631 C 0.32519 1.10983 0.89014
 C632 C 0.30222 1.12144 0.87862
 C633 C 0.41443 1.06543 0.93440
 H634 H 0.37096 1.05640 0.88259
 H635 H 0.37101 1.11715 0.94361
 H636 H 0.41131 1.09736 0.96355
 H637 H 0.41127 1.03641 0.90235
 C638 C 0.37946 0.93423 1.09957
 C639 C 0.36812 0.91145 1.08800
 C640 C 0.37977 0.90013 1.06519
 C641 C 0.40276 0.91149 1.05401
 C642 C 0.28250 0.86793 1.13082
 C643 C 0.40245 0.94562 1.08842
 C644 C 0.34463 0.89960 1.09962
 C645 C 0.32499 0.88963 1.10940
 C646 C 0.30206 0.87793 1.12091
 C647 C 0.41435 0.93429 1.06558
 H648 H 0.37057 0.94312 1.11724
 H649 H 0.37113 0.88250 1.05611
 H650 H 0.41149 0.90239 1.03637
 H651 H 0.41095 0.96322 1.09769
 C652 C 0.62038 1.06571 1.09963
 C653 C 0.63174 1.08849 1.08807
 C654 C 0.62012 1.09981 1.06525
 C655 C 0.59715 1.08845 1.05406
 C656 C 0.71742 1.13191 1.13090
 C657 C 0.59740 1.05431 1.08847
 C658 C 0.65522 1.10035 1.09972
 C659 C 0.67485 1.11032 1.10952
 C660 C 0.69781 1.12198 1.12103
 C661 C 0.58553 1.06565 1.06564
 H662 H 0.62924 1.05680 1.11729
 H663 H 0.62878 1.11744 1.05617
 H664 H 0.58846 1.09754 1.03642
 H665 H 0.58890 1.03670 1.09773
 C666 C 0.62032 0.90014 0.93484
 C667 C 0.63190 0.91147 0.91201
 C668 C 0.62054 0.93428 0.90050
 C669 C 0.59757 0.94567 0.91172
 C670 C 0.71769 0.86828 0.86909
 C671 C 0.59735 0.91150 0.94610
 C672 C 0.65537 0.89963 0.90030
 C673 C 0.67501 0.88970 0.89046
 C674 C 0.69800 0.87811 0.87892
 C675 C 0.58572 0.93431 0.93456
 H676 H 0.62899 0.88250 0.94390
 H677 H 0.62940 0.94320 0.88283
 H678 H 0.58907 0.96330 0.90250
 H679 H 0.58868 0.90241 0.96376
   
