data_POSCAR
  _audit_creation_date              2014-09-24
  _audit_creation_method            'ToBaCCo'
  _symmetry_space_group_name_H-M    'P1'
  _symmetry_Int_Tables_number       1
  _symmetry_cell_setting            triclinic
  loop_
  _symmetry_equiv_pos_as_xyz
 x,y,z
_cell_length_a 35.5815
_cell_length_b 35.6027
_cell_length_c 35.5513
_cell_angle_alpha 97.763400
_cell_angle_beta 82.547400
_cell_angle_gamma 82.405900
loop_
  _atom_site_label
  _atom_site_type_symbol
  _atom_site_fract_x
  _atom_site_fract_y
  _atom_site_fract_z
C1 C 0.53477 0.51315 0.00588
 C2 C 0.50856 0.54030 -0.00778
 C3 C 0.47327 0.52946 -0.01598
 C4 C 0.46104 0.49494 -0.00762
 C5 C 0.48701 0.46850 0.00660
 C6 C 0.52250 0.47853 0.01395
 H7 H 0.54219 0.45711 0.02342
 H8 H 0.45328 0.55002 -0.02610
 C9 C -0.00050 0.45930 0.50591
 C10 C 0.01093 0.48573 0.53396
 C11 C 0.01641 0.52214 0.52537
 C12 C 0.00951 0.53418 0.49027
 C13 C -0.00146 0.50716 0.46197
 C14 C -0.00660 0.47061 0.47057
 H15 H -0.01405 0.44993 0.44853
 H16 H 0.02415 0.54220 0.54774
 C17 C 0.48897 0.00942 0.46735
 C18 C 0.46313 -0.00502 0.49329
 C19 C 0.47404 -0.01258 0.52841
 C20 C 0.50926 -0.00484 0.53974
 C21 C 0.53602 0.00845 0.51283
 C22 C 0.52428 0.01667 0.47792
 H23 H 0.54421 0.02620 0.45684
 H24 H 0.45308 -0.02210 0.54847
 O25 O 0.47343 0.00104 -0.04779
 O26 O 0.46267 0.00991 0.05750
 O27 O 0.46320 0.05837 0.00790
 O28 O 0.47319 -0.04677 0.00095
 O29 O 0.53588 -0.05009 -0.00115
 O30 O 0.52585 0.05527 0.00616
 O31 O 0.52536 0.00746 0.05480
 O32 O 0.53612 -0.00130 -0.05069
 Cu33 Cu 0.46182 0.00602 0.00501
 Cu34 Cu 0.53714 0.00238 0.00189
 C35 C 0.50648 -0.00144 -0.06714
 C36 C 0.49221 0.01013 0.07405
 C37 C 0.49285 0.07470 0.00814
 C38 C 0.50614 -0.06632 -0.00119
 O39 O -0.05538 0.53356 1.00292
 O40 O 0.04955 0.52439 0.99614
 O41 O 0.00200 0.52276 0.94718
 O42 O -0.00663 0.53434 1.05264
 O43 O -0.00394 0.47165 1.04995
 O44 O 0.00481 0.46007 0.94455
 O45 O 0.05344 0.46167 0.99413
 O46 O -0.05178 0.47087 1.00090
 Cu47 Cu -0.00315 0.53510 1.00010
 Cu48 Cu 0.00107 0.45974 0.99708
 C49 C -0.07143 0.50375 1.00287
 C50 C 0.06935 0.49159 0.99398
 C51 C 0.00488 0.48949 0.92795
 C52 C -0.00656 0.50487 1.06920
 O53 O 0.00596 -0.05780 0.46220
 O54 O -0.00261 0.04730 0.47181
 O55 O 0.05457 -0.00841 0.46239
 O56 O -0.05055 -0.00135 0.47212
 O57 O -0.05396 0.00221 0.53504
 O58 O 0.05121 -0.00585 0.52521
 O59 O -0.00476 0.05111 0.53463
 O60 O 0.00273 -0.05383 0.52514
 Cu61 Cu 0.00226 -0.00551 0.46077
 Cu62 Cu -0.00162 -0.00109 0.53637
 C63 C 0.00560 -0.07365 0.49214
 C64 C -0.00493 0.06704 0.50476
 C65 C 0.07075 -0.00838 0.49221
 C66 C -0.07011 0.00154 0.50518
 C67 C -0.34990 0.51790 1.00882
 N68 N -0.36978 0.54041 0.98792
 N69 N -0.40708 0.53949 0.98734
 C70 C -0.42623 0.51660 1.00811
 N71 N -0.40586 0.49401 1.02874
 N72 N -0.36863 0.49464 1.02913
 C73 C -0.30853 0.51729 1.00866
 N74 N -0.28807 0.48903 1.02296
 N75 N -0.25044 0.48760 1.02243
 C76 C -0.23186 0.51457 1.00789
 N77 N -0.25232 0.54305 0.99378
 N78 N -0.29000 0.54430 0.99401
 C79 C -0.19024 0.51228 1.00696
 N80 N -0.17207 0.54227 0.99946
 N81 N -0.13422 0.53977 0.99855
 C82 C -0.11320 0.50709 1.00480
 N83 N -0.13139 0.47711 1.01219
 N84 N -0.16922 0.47973 1.01343
 C85 C 0.34722 0.48477 0.98593
 N86 N 0.36410 0.51166 0.96941
 N87 N 0.40085 0.51417 0.97091
 C88 C 0.42256 0.48999 0.98896
 N89 N 0.40532 0.46317 1.00564
 N90 N 0.36852 0.46043 1.00401
 C91 C 0.30619 0.48357 0.98546
 N92 N 0.28915 0.45468 0.99809
 N93 N 0.25161 0.45465 0.99837
 C94 C 0.22982 0.48364 0.98627
 N95 N 0.24693 0.51241 0.97363
 N96 N 0.28440 0.51231 0.97311
 C97 C 0.18823 0.48489 0.98772
 N98 N 0.16630 0.51741 0.98251
 N99 N 0.12848 0.51934 0.98444
 C100 C 0.11116 0.48871 0.99135
 N101 N 0.13307 0.45601 0.99633
 N102 N 0.17096 0.45418 0.99469
 C103 C 0.01370 -0.35138 0.48249
 N104 N -0.00173 -0.37325 0.45603
 N105 N -0.00279 -0.41025 0.45807
 C106 C 0.01181 -0.42701 0.48635
 N107 N 0.02713 -0.40469 0.51267
 N108 N 0.02807 -0.36780 0.51083
 C109 C 0.01387 -0.31031 0.48187
 N110 N 0.02421 -0.28843 0.51196
 N111 N 0.02369 -0.25095 0.51249
 C112 C 0.01305 -0.23394 0.48283
 N113 N 0.00292 -0.25580 0.45250
 N114 N 0.00322 -0.29337 0.45207
 C115 C 0.01171 -0.19241 0.48448
 N116 N 0.00617 -0.17510 0.45344
 N117 N 0.00461 -0.13722 0.45562
 C118 C 0.00830 -0.11539 0.48898
 N119 N 0.01380 -0.13275 0.51993
 N120 N 0.01562 -0.17056 0.51768
 C121 C -0.00879 0.34428 0.51519
 N122 N -0.03120 0.36391 0.49406
 N123 N -0.02908 0.40062 0.49201
 C124 C -0.00440 0.41919 0.51089
 N125 N 0.01827 0.39937 0.53178
 N126 N 0.01593 0.36267 0.53413
 C127 C -0.01020 0.30340 0.51583
 N128 N 0.00656 0.28470 0.54166
 N129 N 0.00598 0.24728 0.54123
 C130 C -0.01106 0.22724 0.51473
 N131 N -0.02779 0.24597 0.48897
 N132 N -0.02753 0.28340 0.48963
 C133 C -0.01037 0.18577 0.51289
 N134 N -0.01819 0.16464 0.48092
 N135 N -0.01660 0.12682 0.47848
 C136 C -0.00753 0.10878 0.50808
 N137 N -0.00002 0.12992 0.54024
 N138 N -0.00123 0.16775 0.54253
 C139 C 0.51741 -0.00869 -0.34561
 N140 N 0.53931 0.01244 -0.36575
 N141 N 0.53730 0.01333 -0.40285
 C142 C 0.51384 -0.00733 -0.42154
 N143 N 0.49184 -0.02815 -0.40090
 N144 N 0.49359 -0.02887 -0.36387
 C145 C 0.51787 -0.00883 -0.30438
 N146 N 0.49023 -0.02359 -0.28363
 N147 N 0.48956 -0.02318 -0.24608
 C148 C 0.51672 -0.00830 -0.22785
 N149 N 0.54462 0.00625 -0.24859
 N150 N 0.54511 0.00612 -0.28621
 C151 C 0.51488 -0.00717 -0.18620
 N152 N 0.54490 0.00086 -0.16811
 N153 N 0.54257 0.00219 -0.13018
 C154 C 0.51003 -0.00417 -0.10904
 N155 N 0.48008 -0.01213 -0.12717
 N156 N 0.48254 -0.01379 -0.16504
 C157 C 0.47722 0.01867 0.35279
 N158 N 0.46096 -0.00804 0.37039
 N159 N 0.46376 -0.01046 0.40706
 C160 C 0.48236 0.01413 0.42769
 N161 N 0.49839 0.04092 0.40996
 N162 N 0.49594 0.04312 0.37327
 C163 C 0.47688 0.01972 0.31172
 N164 N 0.50202 0.03837 0.29223
 N165 N 0.50333 0.03794 0.25458
 C166 C 0.47927 0.01917 0.23507
 N167 N 0.45378 0.00085 0.25459
 N168 N 0.45275 0.00093 0.29224
 C169 C 0.48194 0.01765 0.19334
 N170 N 0.45312 0.00729 0.17457
 N171 N 0.45611 0.00537 0.13656
 C172 C 0.48822 0.01331 0.11597
 N173 N 0.51704 0.02355 0.13475
 N174 N 0.51386 0.02589 0.17276
 C175 C 0.51734 -0.34504 -0.01039
 N176 N 0.53881 -0.36550 0.01097
 N177 N 0.53671 -0.40262 0.01136
 C178 C 0.51360 -0.42104 -0.01004
 N179 N 0.49215 -0.40010 -0.03118
 N180 N 0.49397 -0.36307 -0.03140
 C181 C 0.51764 -0.30370 -0.00984
 N182 N 0.49006 -0.28273 -0.02460
 N183 N 0.48923 -0.24513 -0.02363
 C184 C 0.51615 -0.22703 -0.00816
 N185 N 0.54399 -0.24798 0.00641
 N186 N 0.54463 -0.28564 0.00574
 C187 C 0.51425 -0.18532 -0.00665
 N188 N 0.54427 -0.16734 0.00152
 N189 N 0.54199 -0.12945 0.00288
 C190 C 0.50948 -0.10819 -0.00357
 N191 N 0.47951 -0.12620 -0.01162
 N192 N 0.48192 -0.16404 -0.01332
 C193 C 0.47793 0.35308 0.01344
 N194 N 0.49231 0.37476 0.04088
 N195 N 0.49383 0.41170 0.03935
 C196 C 0.48110 0.42849 0.01029
 N197 N 0.46718 0.40658 -0.01747
 N198 N 0.46523 0.36969 -0.01571
 C199 C 0.47810 0.31191 0.01431
 N200 N 0.45604 0.29175 -0.00669
 N201 N 0.45718 0.25418 -0.00653
 C202 C 0.48079 0.23535 0.01423
 N203 N 0.50286 0.25552 0.03514
 N204 N 0.50138 0.29313 0.03536
 C205 C 0.48334 0.19369 0.01333
 N206 N 0.51449 0.17337 0.02342
 N207 N 0.51746 0.13547 0.02179
 C208 C 0.48914 0.11655 0.01048
 N209 N 0.45779 0.13689 0.00070
 N210 N 0.45505 0.17477 0.00186
 C211 C -0.34877 0.01044 0.51890
 N212 N -0.36719 0.03110 0.49563
 N213 N -0.40440 0.03102 0.49461
 C214 C -0.42505 0.01038 0.51680
 N215 N -0.40622 -0.01074 0.53973
 N216 N -0.36894 -0.01048 0.54104
 C217 C -0.30739 0.00986 0.51855
 N218 N -0.28905 -0.00500 0.54567
 N219 N -0.25134 -0.00563 0.54456
 C220 C -0.23067 0.00828 0.51611
 N221 N -0.24906 0.02303 0.48905
 N222 N -0.28672 0.02396 0.49034
 C223 C -0.18901 0.00686 0.51385
 N224 N -0.16791 0.01276 0.48113
 N225 N -0.13005 0.01111 0.47849
 C226 C -0.11191 0.00390 0.50862
 N227 N -0.13299 -0.00177 0.54149
 N228 N -0.17088 -0.00047 0.54402
 C229 C 0.34862 -0.01424 0.48136
 N230 N 0.36879 -0.03831 0.50058
 N231 N 0.40542 -0.03605 0.50322
 C232 C 0.42339 -0.00957 0.48688
 N233 N 0.40303 0.01469 0.46784
 N234 N 0.36644 0.01220 0.46486
 C235 C 0.30768 -0.01553 0.48052
 N236 N 0.28860 0.00278 0.45587
 N237 N 0.25110 0.00252 0.45632
 C238 C 0.23131 -0.01569 0.48171
 N239 N 0.25042 -0.03398 0.50630
 N240 N 0.28793 -0.03406 0.50558
 C241 C 0.18972 -0.01460 0.48371
 N242 N 0.16880 -0.02290 0.51541
 N243 N 0.13091 -0.02098 0.51799
 C244 C 0.11258 -0.01111 0.48878
 N245 N 0.13350 -0.00311 0.45689
 N246 N 0.17140 -0.00462 0.45449
 C247 C -0.00974 0.51840 1.34727
 N248 N 0.01925 0.53135 1.36408
 N249 N 0.02154 0.52869 1.40080
 C250 C -0.00553 0.51374 1.42228
 N251 N -0.03438 0.50072 1.40529
 N252 N -0.03643 0.50298 1.36854
 C253 C -0.01120 0.51890 1.30627
 N254 N -0.03227 0.49571 1.28733
 N255 N -0.03261 0.49469 1.24981
 C256 C -0.01225 0.51718 1.22989
 N257 N 0.00853 0.54074 1.24887
 N258 N 0.00923 0.54142 1.28638
 C259 C -0.01172 0.51481 1.18829
 N260 N -0.00060 0.54318 1.16945
 N261 N 0.00043 0.54039 1.13153
 C262 C -0.00917 0.50893 1.11110
 N263 N -0.02018 0.48057 1.12994
 N264 N -0.02167 0.48358 1.16787
 C265 C 0.01799 0.47262 0.64850
 N266 N 0.04270 0.49162 0.62898
 N267 N 0.04125 0.49436 0.59224
 C268 C 0.01499 0.47833 0.57347
 N269 N -0.00983 0.45932 0.59307
 N270 N -0.00817 0.45626 0.62983
 C271 C 0.01806 0.47240 0.68974
 N272 N -0.00119 0.44842 0.70875
 N273 N -0.00211 0.44970 0.74654
 C274 C 0.01582 0.47532 0.76666
 N275 N 0.03504 0.49922 0.74761
 N276 N 0.03630 0.49765 0.70985
 C277 C 0.01350 0.47834 0.80850
 N278 N 0.02140 0.51045 0.82927
 N279 N 0.01862 0.51392 0.86732
 C280 C 0.00826 0.48522 0.88599
 N281 N 0.00062 0.45293 0.86523
 N282 N 0.00297 0.44964 0.82715
   
