data_POSCAR
  _audit_creation_date              2014-09-24
  _audit_creation_method            'ToBaCCo'
  _symmetry_space_group_name_H-M    'P1'
  _symmetry_Int_Tables_number       1
  _symmetry_cell_setting            triclinic
  loop_
  _symmetry_equiv_pos_as_xyz
 x,y,z
_cell_length_a 41.3298
_cell_length_b 41.4390
_cell_length_c 41.3975
_cell_angle_alpha 90.017400
_cell_angle_beta 90.017200
_cell_angle_gamma 90.020000
loop_
  _atom_site_label
  _atom_site_type_symbol
  _atom_site_fract_x
  _atom_site_fract_y
  _atom_site_fract_z
O1 O 0.36578 0.32445 -0.03357
 O2 O 0.32398 0.36618 0.03236
 O3 O 0.36764 0.32110 0.02865
 O4 O 0.32079 0.36824 -0.02985
 O5 O 0.28271 0.33075 -0.03031
 O6 O 0.32983 0.28332 0.02886
 O7 O 0.28565 0.32892 0.03248
 O8 O 0.32823 0.28643 -0.03393
 Cu9 Cu 0.34832 0.34874 -0.00060
 Cu10 Cu 0.30274 0.30352 -0.00075
 C11 C 0.35453 0.29822 -0.04459
 C12 C 0.29761 0.35505 0.04328
 C13 C 0.35694 0.29412 0.03837
 C14 C 0.29369 0.35777 -0.03967
 O15 O 0.67613 0.63388 0.03224
 O16 O 0.63428 0.67561 -0.03365
 O17 O 0.67919 0.63173 -0.02998
 O18 O 0.63255 0.67904 0.02857
 O19 O 0.67044 0.71674 0.02869
 O20 O 0.71734 0.66916 -0.03051
 O21 O 0.67190 0.71356 -0.03409
 O22 O 0.71452 0.67105 0.03228
 Cu23 Cu 0.65175 0.65132 -0.00069
 Cu24 Cu 0.69742 0.69645 -0.00094
 C25 C 0.70254 0.64496 0.04311
 C26 C 0.64555 0.70180 -0.04470
 C27 C 0.70629 0.64214 -0.03984
 C28 C 0.64333 0.70600 0.03825
 O29 O 0.67604 0.36619 0.96766
 O30 O 0.63423 0.32445 1.03357
 O31 O 0.67919 0.36830 1.02987
 O32 O 0.63242 0.32107 0.97135
 O33 O 0.67024 0.28333 0.97117
 O34 O 0.71730 0.33085 1.03035
 O35 O 0.67181 0.28648 1.03396
 O36 O 0.71439 0.32898 0.96757
 Cu37 Cu 0.65169 0.34875 1.00060
 Cu38 Cu 0.69730 0.30358 1.00079
 C39 C 0.70243 0.35509 0.95676
 C40 C 0.64550 0.29825 1.04460
 C41 C 0.70629 0.35786 1.03970
 C42 C 0.64314 0.29410 0.96165
 O43 O 0.32411 0.63358 0.96798
 O44 O 0.36612 0.67546 1.03376
 O45 O 0.32114 0.63158 1.03021
 O46 O 0.36778 0.67871 0.97153
 O47 O 0.32996 0.71645 0.97139
 O48 O 0.28304 0.66903 1.03071
 O49 O 0.32854 0.71343 1.03418
 O50 O 0.28578 0.67080 0.96792
 Cu51 Cu 0.34857 0.65109 1.00086
 Cu52 Cu 0.30296 0.69625 1.00108
 C53 C 0.29770 0.64467 0.95712
 C54 C 0.35489 0.70169 1.04478
 C55 C 0.29406 0.64203 1.04007
 C56 C 0.35704 0.70567 0.96182
 O57 O -0.03341 0.36579 0.32418
 O58 O 0.03257 0.32416 0.36610
 O59 O 0.02892 0.36780 0.32105
 O60 O -0.02975 0.32083 0.36792
 O61 O -0.02999 0.28293 0.33030
 O62 O 0.02934 0.33018 0.28315
 O63 O 0.03290 0.28601 0.32874
 O64 O -0.03355 0.32841 0.28604
 Cu65 Cu -0.00042 0.34840 0.34857
 Cu66 Cu -0.00031 0.30304 0.30321
 C67 C -0.04433 0.35459 0.29787
 C68 C 0.04359 0.29789 0.35496
 C69 C 0.03876 0.35722 0.29405
 C70 C -0.03950 0.29381 0.35734
 O71 O -0.03329 0.63398 0.67561
 O72 O 0.03278 0.67551 0.63372
 O73 O 0.02903 0.63195 0.67887
 O74 O -0.02953 0.67883 0.63178
 O75 O -0.02979 0.71681 0.66931
 O76 O 0.02944 0.66966 0.71668
 O77 O 0.03309 0.71373 0.67101
 O78 O -0.03345 0.67143 0.71367
 Cu79 Cu -0.00026 0.65130 0.65124
 Cu80 Cu -0.00017 0.69676 0.69651
 C81 C -0.04424 0.64523 0.70188
 C82 C 0.04380 0.70180 0.64483
 C83 C 0.03884 0.64259 0.70586
 C84 C -0.03927 0.70587 0.64228
 O85 O 1.03328 0.63405 0.32429
 O86 O 0.96730 0.67568 0.36619
 O87 O 0.97096 0.63208 0.32107
 O88 O 1.02961 0.67893 0.36811
 O89 O 1.02991 0.71688 0.33057
 O90 O 0.97060 0.66975 0.28324
 O91 O 0.96703 0.71387 0.32889
 O92 O 1.03349 0.67147 0.28622
 Cu93 Cu 1.00029 0.65142 0.34867
 Cu94 Cu 1.00026 0.69685 0.30339
 C95 C 1.04424 0.64527 0.29802
 C96 C 0.95631 0.70197 0.35508
 C97 C 0.96116 0.64271 0.29408
 C98 C 1.03939 0.70596 0.35759
 O99 O 0.96707 0.32433 0.63333
 O100 O 1.03300 0.36597 0.67546
 O101 O 1.02940 0.32110 0.63157
 O102 O 0.97066 0.36793 0.67849
 O103 O 0.97021 0.33024 0.71630
 O104 O 1.02960 0.28313 0.66909
 O105 O 1.03311 0.32852 0.71350
 O106 O 0.96671 0.28613 0.67062
 Cu107 Cu 1.00005 0.34860 0.65096
 Cu108 Cu 0.99989 0.30315 0.69621
 C109 C 0.95606 0.29803 0.64440
 C110 C 1.04390 0.35473 0.70176
 C111 C 1.03913 0.29407 0.64210
 C112 C 0.96081 0.35729 0.70546
 O113 O 0.32377 -0.03281 0.36576
 O114 O 0.36559 0.03320 0.32419
 O115 O 0.32048 0.02935 0.36789
 O116 O 0.36764 -0.02895 0.32083
 O117 O 0.32998 -0.02925 0.28287
 O118 O 0.28253 0.02970 0.33021
 O119 O 0.32817 0.03346 0.28600
 O120 O 0.28559 -0.03302 0.32832
 Cu121 Cu 0.34813 0.00020 0.34844
 Cu122 Cu 0.30271 0.00023 0.30300
 C123 C 0.29746 -0.04378 0.35452
 C124 C 0.35440 0.04419 0.29791
 C125 C 0.29341 0.03908 0.35730
 C126 C 0.35707 -0.03866 0.29377
 O127 O 0.63439 0.03310 0.67587
 O128 O 0.67628 -0.03289 0.63433
 O129 O 0.63243 -0.02905 0.67927
 O130 O 0.67944 0.02926 0.63210
 O131 O 0.71743 0.02977 0.66973
 O132 O 0.67012 -0.02920 0.71721
 O133 O 0.71449 -0.03295 0.67173
 O134 O 0.67186 0.03351 0.71401
 Cu135 Cu 0.65186 0.00009 0.65163
 Cu136 Cu 0.69733 0.00030 0.69702
 C137 C 0.64559 0.04416 0.70212
 C138 C 0.70261 -0.04378 0.64556
 C139 C 0.64303 -0.03869 0.70633
 C140 C 0.70651 0.03907 0.64264
 O141 O 0.32340 1.03274 0.63444
 O142 O 0.36531 0.96688 0.67613
 O143 O 0.32024 0.97059 0.63236
 O144 O 0.36725 1.02903 0.67941
 O145 O 0.32957 1.02928 0.71733
 O146 O 0.28226 0.97018 0.66999
 O147 O 0.32786 0.96656 0.71427
 O148 O 0.28521 1.03291 0.67184
 Cu149 Cu 0.34782 0.99981 0.65182
 Cu150 Cu 0.30237 0.99972 0.69721
 C151 C 0.29707 1.04367 0.64565
 C152 C 0.35412 0.95589 0.70241
 C153 C 0.29318 0.96080 0.64292
 C154 C 0.35665 1.03874 0.70644
 O155 O 0.67660 1.03320 0.36640
 O156 O 0.63475 0.96747 0.32434
 O157 O 0.67979 0.97104 0.36816
 O158 O 0.63277 1.02964 0.32136
 O159 O 0.67048 1.03010 0.28348
 O160 O 0.71780 0.97084 0.33056
 O161 O 0.67222 0.96736 0.28623
 O162 O 0.71482 1.03357 0.32905
 Cu163 Cu 0.65221 1.00032 0.34883
 Cu164 Cu 0.69769 1.00049 0.30348
 C165 C 0.70295 1.04420 0.35529
 C166 C 0.64596 0.95660 0.29802
 C167 C 0.70687 0.96133 0.35757
 C168 C 0.64337 1.03947 0.29438
 C169 C 0.88604 0.76294 0.49890
 C170 C 0.87121 0.77247 0.47024
 C171 C 0.84634 0.79543 0.47090
 C172 C 0.83723 0.81062 0.50029
 C173 C 0.85343 0.80101 0.52890
 C174 C 0.87700 0.77681 0.52818
 C175 C 0.81159 0.83653 0.50105
 C176 C 0.79640 0.84577 0.53040
 C177 C 0.77363 0.87082 0.53101
 C178 C 0.76431 0.88573 0.50234
 C179 C 0.77821 0.87660 0.47310
 C180 C 0.80223 0.85283 0.47243
 H181 H 0.90499 0.74481 0.49838
 H182 H 0.83454 0.80104 0.44833
 H183 H 0.84846 0.81226 0.55189
 H184 H 0.80184 0.83392 0.55297
 H185 H 0.74632 0.90481 0.50281
 H186 H 0.81352 0.84780 0.44947
 C187 C 0.11388 0.23698 0.49879
 C188 C 0.12872 0.22743 0.47014
 C189 C 0.15358 0.20447 0.47081
 C190 C 0.16270 0.18929 0.50020
 C191 C 0.14650 0.19891 0.52880
 C192 C 0.12292 0.22312 0.52807
 C193 C 0.18834 0.16339 0.50096
 C194 C 0.20348 0.15409 0.53034
 C195 C 0.22625 0.12906 0.53095
 C196 C 0.23563 0.11419 0.50227
 C197 C 0.22180 0.12337 0.47302
 C198 C 0.19777 0.14713 0.47234
 H199 H 0.09493 0.25510 0.49827
 H200 H 0.16537 0.19886 0.44824
 H201 H 0.15145 0.18768 0.55179
 H202 H 0.19799 0.16591 0.55292
 H203 H 0.25363 0.09512 0.50275
 H204 H 0.18654 0.15220 0.44936
 C205 C 0.11415 0.76275 0.50104
 C206 C 0.12901 0.77224 0.52971
 C207 C 0.15390 0.79519 0.52908
 C208 C 0.16301 0.81042 0.49972
 C209 C 0.14679 0.80086 0.47110
 C210 C 0.12319 0.77666 0.47179
 C211 C 0.18865 0.83634 0.49899
 C212 C 0.20384 0.84562 0.46965
 C213 C 0.22659 0.87070 0.46908
 C214 C 0.23590 0.88560 0.49778
 C215 C 0.22200 0.87642 0.52699
 C216 C 0.19799 0.85263 0.52762
 H217 H 0.09518 0.74464 0.50154
 H218 H 0.16573 0.80076 0.55165
 H219 H 0.15174 0.81215 0.44813
 H220 H 0.19840 0.83378 0.44707
 H221 H 0.25388 0.90469 0.49734
 H222 H 0.18670 0.84756 0.55057
 C223 C 0.88576 0.23674 0.50054
 C224 C 0.87096 0.22725 0.52922
 C225 C 0.84610 0.20425 0.52860
 C226 C 0.83695 0.18900 0.49924
 C227 C 0.85312 0.19859 0.47061
 C228 C 0.87670 0.22282 0.47129
 C229 C 0.81132 0.16306 0.49854
 C230 C 0.79616 0.15366 0.46920
 C231 C 0.77338 0.12860 0.46866
 C232 C 0.76404 0.11381 0.49739
 C233 C 0.77791 0.12308 0.52661
 C234 C 0.80193 0.14686 0.52720
 H235 H 0.90471 0.25488 0.50102
 H236 H 0.83433 0.19869 0.55119
 H237 H 0.84813 0.18731 0.44764
 H238 H 0.80162 0.16541 0.44658
 H239 H 0.74603 0.09473 0.49699
 H240 H 0.81319 0.15200 0.55016
 C241 C 0.49795 0.88583 0.76385
 C242 C 0.46925 0.87089 0.77319
 C243 C 0.46991 0.84588 0.79596
 C244 C 0.49933 0.83671 0.81113
 C245 C 0.52797 0.85303 0.80175
 C246 C 0.52726 0.87676 0.77773
 C247 C 0.50013 0.81087 0.83677
 C248 C 0.52955 0.79561 0.84577
 C249 C 0.53025 0.77269 0.87064
 C250 C 0.50158 0.76328 0.88560
 C251 C 0.47226 0.77723 0.87668
 C252 C 0.47152 0.80139 0.85309
 H253 H 0.49745 0.90488 0.74586
 H254 H 0.44732 0.83399 0.80143
 H255 H 0.55098 0.84803 0.81303
 H256 H 0.55211 0.80113 0.83386
 H257 H 0.50212 0.74519 0.90455
 H258 H 0.44851 0.81272 0.84821
 C259 C 0.49818 0.11473 0.23682
 C260 C 0.46945 0.12952 0.22735
 C261 C 0.47006 0.15442 0.20446
 C262 C 0.49948 0.16363 0.18931
 C263 C 0.52815 0.14745 0.19883
 C264 C 0.52748 0.12384 0.22296
 C265 C 0.50024 0.18935 0.16353
 C266 C 0.52965 0.20460 0.15444
 C267 C 0.53031 0.22740 0.12947
 C268 C 0.50162 0.23670 0.11447
 C269 C 0.47232 0.22277 0.12348
 C270 C 0.47161 0.19872 0.14718
 H271 H 0.49770 0.09576 0.25490
 H272 H 0.44745 0.16618 0.19889
 H273 H 0.55116 0.15247 0.18758
 H274 H 0.55223 0.19917 0.16636
 H275 H 0.50213 0.25471 0.09544
 H276 H 0.44861 0.18740 0.15213
 C277 C 0.50183 0.11433 0.76358
 C278 C 0.53055 0.12929 0.77289
 C279 C 0.52993 0.15428 0.79569
 C280 C 0.50054 0.16342 0.81092
 C281 C 0.47189 0.14709 0.80157
 C282 C 0.47256 0.12339 0.77753
 C283 C 0.49978 0.18922 0.83662
 C284 C 0.47038 0.20449 0.84565
 C285 C 0.46972 0.22735 0.87059
 C286 C 0.49841 0.23668 0.88558
 C287 C 0.52770 0.22272 0.87661
 C288 C 0.52841 0.19861 0.85296
 H289 H 0.50230 0.09530 0.74557
 H290 H 0.55252 0.16617 0.80114
 H291 H 0.44891 0.15207 0.81291
 H292 H 0.44780 0.19902 0.83372
 H293 H 0.49791 0.25473 0.90458
 H294 H 0.55139 0.18727 0.84804
 C295 C 0.50232 0.88628 0.23618
 C296 C 0.53106 0.87143 0.22681
 C297 C 0.53044 0.84642 0.20402
 C298 C 0.50102 0.83714 0.18887
 C299 C 0.47235 0.85338 0.19829
 C300 C 0.47303 0.87711 0.22232
 C301 C 0.50024 0.81128 0.16322
 C302 C 0.47083 0.79597 0.15420
 C303 C 0.47016 0.77303 0.12933
 C304 C 0.49885 0.76367 0.11438
 C305 C 0.52815 0.77767 0.12332
 C306 C 0.52887 0.80184 0.14691
 H307 H 0.50280 0.90532 0.25419
 H308 H 0.55305 0.83460 0.19852
 H309 H 0.44934 0.84831 0.18704
 H310 H 0.44826 0.80146 0.16610
 H311 H 0.49833 0.74556 0.09544
 H312 H 0.55186 0.81319 0.15180
 C313 C 0.76327 0.49854 0.88596
 C314 C 0.77276 0.46989 0.87116
 C315 C 0.79556 0.47051 0.84613
 C316 C 0.81065 0.49987 0.83678
 C317 C 0.80109 0.52848 0.85297
 C318 C 0.77703 0.52779 0.87672
 C319 C 0.83636 0.50061 0.81092
 C320 C 0.84554 0.52994 0.79571
 C321 C 0.87043 0.53056 0.77275
 C322 C 0.88526 0.50192 0.76325
 C323 C 0.87618 0.47270 0.77715
 C324 C 0.85257 0.47202 0.80135
 H325 H 0.74525 0.49805 0.90503
 H326 H 0.80111 0.44793 0.83437
 H327 H 0.81227 0.55146 0.84785
 H328 H 0.83375 0.55251 0.80129
 H329 H 0.90422 0.50240 0.74512
 H330 H 0.84760 0.44906 0.81262
 C331 C 0.23687 0.49849 0.11419
 C332 C 0.22730 0.46983 0.12893
 C333 C 0.20442 0.47045 0.15389
 C334 C 0.18935 0.49981 0.16322
 C335 C 0.19898 0.52843 0.14710
 C336 C 0.22312 0.52774 0.12342
 C337 C 0.16355 0.50056 0.18900
 C338 C 0.15439 0.52989 0.20423
 C339 C 0.12942 0.53052 0.22711
 C340 C 0.11451 0.50189 0.23652
 C341 C 0.12358 0.47267 0.22261
 C342 C 0.14726 0.47198 0.19848
 H343 H 0.25494 0.49800 0.09517
 H344 H 0.19880 0.44787 0.16559
 H345 H 0.18782 0.55141 0.15220
 H346 H 0.16623 0.55245 0.19873
 H347 H 0.09550 0.50238 0.25460
 H348 H 0.15223 0.44903 0.18720
 C349 C 0.76335 0.50150 0.11384
 C350 C 0.77286 0.53015 0.12866
 C351 C 0.79569 0.52951 0.15368
 C352 C 0.81077 0.50015 0.16299
 C353 C 0.80120 0.47155 0.14679
 C354 C 0.77712 0.47225 0.12305
 C355 C 0.83651 0.49938 0.18883
 C356 C 0.84563 0.47004 0.20406
 C357 C 0.87057 0.46940 0.22698
 C358 C 0.88549 0.49803 0.23643
 C359 C 0.87645 0.52725 0.22251
 C360 C 0.85281 0.52795 0.19834
 H361 H 0.74532 0.50200 0.09477
 H362 H 0.80126 0.55207 0.16546
 H363 H 0.81238 0.44857 0.15188
 H364 H 0.83377 0.44750 0.19853
 H365 H 0.90449 0.49753 0.25453
 H366 H 0.84787 0.55089 0.18705
 C367 C 0.23645 0.50126 0.88631
 C368 C 0.22695 0.52993 0.87156
 C369 C 0.20409 0.52933 0.84656
 C370 C 0.18899 0.49998 0.83719
 C371 C 0.19856 0.47135 0.85332
 C372 C 0.22267 0.47203 0.87705
 C373 C 0.16323 0.49924 0.81134
 C374 C 0.15403 0.46992 0.79609
 C375 C 0.12911 0.46932 0.77314
 C376 C 0.11428 0.49798 0.76369
 C377 C 0.12338 0.52719 0.77763
 C378 C 0.14701 0.52785 0.80182
 H379 H 0.25451 0.50173 0.90536
 H380 H 0.19853 0.55192 0.83484
 H381 H 0.18739 0.44838 0.84818
 H382 H 0.16582 0.44735 0.80163
 H383 H 0.09530 0.49751 0.74556
 H384 H 0.15201 0.55079 0.81310
 C385 C 0.28044 0.37384 0.06685
 C386 C 0.26690 0.39237 0.08480
 C387 C 0.25209 0.41690 0.10331
 C388 C 0.24031 0.44000 0.11658
 C389 C 0.71972 0.62616 0.06666
 C390 C 0.73326 0.60763 0.08460
 C391 C 0.74807 0.58308 0.10309
 C392 C 0.75985 0.55998 0.11634
 C393 C 0.71960 0.37389 0.93320
 C394 C 0.73314 0.39242 0.91526
 C395 C 0.74795 0.41696 0.89676
 C396 C 0.75974 0.44006 0.88349
 C397 C 0.28045 0.62584 0.93360
 C398 C 0.26684 0.60732 0.91568
 C399 C 0.25191 0.58281 0.89719
 C400 C 0.24004 0.55974 0.88392
 C401 C 0.06711 0.28075 0.37386
 C402 C 0.08499 0.26720 0.39247
 C403 C 0.10338 0.25235 0.41710
 C404 C 0.11653 0.24052 0.44026
 C405 C 0.06736 0.71891 0.62594
 C406 C 0.08526 0.73243 0.60734
 C407 C 0.10366 0.74728 0.58272
 C408 C 0.11682 0.75912 0.55957
 C409 C 0.93279 0.71912 0.37397
 C410 C 0.91492 0.73267 0.39258
 C411 C 0.89653 0.74753 0.41721
 C412 C 0.88339 0.75937 0.44037
 C413 C 0.93256 0.28087 0.62544
 C414 C 0.91471 0.26728 0.60681
 C415 C 0.89632 0.25235 0.58220
 C416 C 0.88317 0.24043 0.55907
 C417 C 0.37325 0.06773 0.28077
 C418 C 0.39182 0.08564 0.26721
 C419 C 0.41641 0.10408 0.25233
 C420 C 0.43955 0.11728 0.24047
 C421 C 0.62673 0.06769 0.71926
 C422 C 0.60815 0.08558 0.73284
 C423 C 0.58357 0.10397 0.74777
 C424 C 0.56043 0.11712 0.75969
 C425 C 0.37299 0.93240 0.71959
 C426 C 0.39158 0.91455 0.73319
 C427 C 0.41619 0.89618 0.74812
 C428 C 0.43935 0.88304 0.76002
 C429 C 0.62712 0.93314 0.28071
 C430 C 0.60858 0.91528 0.26701
 C431 C 0.58404 0.89686 0.25197
 C432 C 0.56093 0.88367 0.24000
 C433 C 0.37339 0.28102 0.93192
 C434 C 0.39200 0.26741 0.91408
 C435 C 0.41663 0.25247 0.89575
 C436 C 0.43981 0.24055 0.88267
 C437 C 0.62667 0.71901 0.93183
 C438 C 0.60804 0.73263 0.91402
 C439 C 0.58338 0.74758 0.89573
 C440 C 0.56018 0.75950 0.88268
 C441 C 0.37382 0.71897 0.06819
 C442 C 0.39244 0.73267 0.08597
 C443 C 0.41708 0.74773 0.10424
 C444 C 0.44025 0.75974 0.11729
 C445 C 0.62663 0.28104 0.06809
 C446 C 0.60803 0.26744 0.08593
 C447 C 0.58340 0.25250 0.10427
 C448 C 0.56022 0.24059 0.11736
 C449 C 0.27984 0.06720 0.62688
 C450 C 0.26622 0.08512 0.60838
 C451 C 0.25127 0.10358 0.58388
 C452 C 0.23938 0.11679 0.56079
 C453 C 0.71930 0.06638 0.37315
 C454 C 0.73306 0.08437 0.39152
 C455 C 0.74815 0.10294 0.41589
 C456 C 0.76016 0.11625 0.43888
 C457 C 0.71986 0.93266 0.62684
 C458 C 0.73351 0.91472 0.60837
 C459 C 0.74850 0.89626 0.58390
 C460 C 0.76044 0.88305 0.56083
 C461 C 0.28024 0.93265 0.37325
 C462 C 0.26662 0.91470 0.39173
 C463 C 0.25167 0.89621 0.41620
 C464 C 0.23976 0.88297 0.43927
 C465 C 0.06741 0.37349 0.71910
 C466 C 0.08530 0.39198 0.73282
 C467 C 0.10372 0.41646 0.74789
 C468 C 0.11690 0.43952 0.75989
 C469 C 0.06778 0.62650 0.28077
 C470 C 0.08568 0.60798 0.26714
 C471 C 0.10408 0.58344 0.25219
 C472 C 0.11724 0.56034 0.24028
 C473 C 0.93214 0.37338 0.28062
 C474 C 0.91426 0.39191 0.26699
 C475 C 0.89587 0.41646 0.25205
 C476 C 0.88273 0.43957 0.24015
 C477 C 0.93219 0.62649 0.71912
 C478 C 0.91427 0.60799 0.73275
 C479 C 0.89583 0.58347 0.74770
 C480 C 0.88264 0.56038 0.75960
 C481 C 0.72406 0.62307 0.94032
 C482 C 0.73878 0.60413 0.92387
 C483 C 0.75430 0.57961 0.90606
 C484 C 0.76578 0.55685 0.89205
 C485 C 0.27584 0.37679 0.94052
 C486 C 0.26105 0.39570 0.92408
 C487 C 0.24547 0.42020 0.90631
 C488 C 0.23395 0.44295 0.89233
 C489 C 0.27627 0.62299 0.05992
 C490 C 0.26152 0.60406 0.07637
 C491 C 0.24595 0.57956 0.09416
 C492 C 0.23443 0.55680 0.10814
 C493 C 0.72411 0.37692 0.05952
 C494 C 0.73885 0.39587 0.07595
 C495 C 0.75438 0.42042 0.09373
 C496 C 0.76586 0.44319 0.10772
 C497 C 0.94086 0.72370 0.62330
 C498 C 0.92435 0.73847 0.60442
 C499 C 0.90648 0.75404 0.57996
 C500 C 0.89240 0.76554 0.55723
 C501 C 0.94059 0.27594 0.37624
 C502 C 0.92406 0.26114 0.39507
 C503 C 0.90615 0.24556 0.41950
 C504 C 0.89207 0.23406 0.44222
 C505 C 0.05904 0.27624 0.62315
 C506 C 0.07557 0.26147 0.60429
 C507 C 0.09345 0.24590 0.57984
 C508 C 0.10753 0.23439 0.55712
 C509 C 0.05929 0.72378 0.37657
 C510 C 0.07581 0.73851 0.39546
 C511 C 0.09370 0.75402 0.41996
 C512 C 0.10778 0.76546 0.44272
 C513 C 0.62297 0.94037 0.72523
 C514 C 0.60389 0.92399 0.73989
 C515 C 0.57924 0.90622 0.75528
 C516 C 0.55639 0.89219 0.76663
 C517 C 0.37720 0.94044 0.27490
 C518 C 0.39631 0.92411 0.26025
 C519 C 0.42100 0.90641 0.24483
 C520 C 0.44387 0.89245 0.23346
 C521 C 0.62328 0.06046 0.27557
 C522 C 0.60418 0.07683 0.26094
 C523 C 0.57950 0.09456 0.24554
 C524 C 0.55663 0.10852 0.23415
 C525 C 0.37673 0.05972 0.72529
 C526 C 0.39583 0.07612 0.73989
 C527 C 0.42053 0.09391 0.75521
 C528 C 0.44341 0.10795 0.76650
 C529 C 0.62344 0.72495 0.05931
 C530 C 0.60451 0.73967 0.07580
 C531 C 0.58000 0.75514 0.09371
 C532 C 0.55724 0.76654 0.10783
 C533 C 0.37690 0.27525 0.05943
 C534 C 0.39588 0.26059 0.07592
 C535 C 0.42043 0.24518 0.09383
 C536 C 0.44322 0.23383 0.10796
 C537 C 0.62319 0.27519 0.94060
 C538 C 0.60420 0.26053 0.92412
 C539 C 0.57962 0.24513 0.90623
 C540 C 0.55681 0.23379 0.89211
 C541 C 0.37695 0.72456 0.94073
 C542 C 0.39589 0.73925 0.92422
 C543 C 0.42042 0.75470 0.90631
 C544 C 0.44318 0.76609 0.89218
 C545 C 0.72573 0.94030 0.37757
 C546 C 0.74038 0.92387 0.39659
 C547 C 0.75578 0.90606 0.42119
 C548 C 0.76713 0.89202 0.44400
 C549 C 0.27432 0.93985 0.62283
 C550 C 0.25970 0.92349 0.60371
 C551 C 0.24436 0.90577 0.57901
 C552 C 0.23306 0.89179 0.55613
 C553 C 0.27450 0.06000 0.37738
 C554 C 0.25981 0.07633 0.39644
 C555 C 0.24436 0.09405 0.42108
 C556 C 0.23296 0.10802 0.44391
 C557 C 0.72538 0.05996 0.62250
 C558 C 0.74003 0.07625 0.60337
 C559 C 0.75543 0.09390 0.57865
 C560 C 0.76679 0.10781 0.55577
 C561 C 0.94013 0.62270 0.27520
 C562 C 0.92371 0.60368 0.26053
 C563 C 0.90591 0.57909 0.24509
 C564 C 0.89187 0.55630 0.23369
 C565 C 0.93976 0.37729 0.72432
 C566 C 0.92334 0.39629 0.73900
 C567 C 0.90555 0.42086 0.75447
 C568 C 0.89154 0.44363 0.76592
 C569 C 0.05984 0.62259 0.72477
 C570 C 0.07625 0.60360 0.73948
 C571 C 0.09402 0.57903 0.75497
 C572 C 0.10803 0.55626 0.76642
 C573 C 0.05981 0.37725 0.27523
 C574 C 0.07625 0.39627 0.26059
 C575 C 0.09409 0.42084 0.24517
 C576 C 0.10815 0.44361 0.23377
   
