data_POSCAR
  _audit_creation_date              2014-09-24
  _audit_creation_method            'ToBaCCo'
  _symmetry_space_group_name_H-M    'P1'
  _symmetry_Int_Tables_number       1
  _symmetry_cell_setting            triclinic
  loop_
  _symmetry_equiv_pos_as_xyz
 x,y,z
_cell_length_a 51.3575
_cell_length_b 51.5065
_cell_length_c 20.5705
_cell_angle_alpha 89.952700
_cell_angle_beta 90.181500
_cell_angle_gamma 119.594800
loop_
  _atom_site_label
  _atom_site_type_symbol
  _atom_site_fract_x
  _atom_site_fract_y
  _atom_site_fract_z
C1 C 0.16364 0.45279 0.48097
 C2 C 0.17583 0.44747 0.42468
 C3 C 0.20494 0.45174 0.42768
 C4 C 0.22277 0.46292 0.48390
 C5 C 0.21019 0.46847 0.53935
 C6 C 0.18067 0.46361 0.53862
 C7 C 0.25468 0.46960 0.48297
 C8 C 0.26943 0.46841 0.54015
 C9 C 0.29938 0.47488 0.53803
 C10 C 0.31371 0.47975 0.47764
 C11 C 0.29949 0.48079 0.42048
 C12 C 0.27075 0.47722 0.42384
 H13 H 0.14101 0.44864 0.47971
 H14 H 0.21367 0.44626 0.38524
 H15 H 0.22369 0.47772 0.58265
 H16 H 0.25801 0.46285 0.58644
 H17 H 0.33627 0.48319 0.47509
 H18 H 0.26091 0.47991 0.37956
 C19 C 0.55613 -0.28753 0.47824
 C20 C 0.55141 -0.27577 0.42015
 C21 C 0.54475 -0.25244 0.42430
 C22 C 0.54481 -0.23934 0.48429
 C23 C 0.55072 -0.25077 0.54118
 C24 C 0.55549 -0.27539 0.53935
 C25 C 0.53846 -0.21396 0.48763
 C26 C 0.52472 -0.20986 0.54310
 C27 C 0.51968 -0.18557 0.54753
 C28 C 0.52640 -0.16642 0.49413
 C29 C 0.54025 -0.16974 0.43872
 C30 C 0.54629 -0.19344 0.43573
 H31 H 0.55848 -0.30711 0.47589
 H32 H 0.53942 -0.24452 0.38019
 H33 H 0.55155 -0.24055 0.58767
 H34 H 0.51798 -0.22536 0.58333
 H35 H 0.52008 -0.14926 0.49498
 H36 H 0.55755 -0.19541 0.39321
 C37 C 1.29257 0.82719 0.50631
 C38 C 1.27639 0.81390 0.44900
 C39 C 1.25160 0.78491 0.45248
 C40 C 1.24352 0.76873 0.51140
 C41 C 1.26156 0.78200 0.56678
 C42 C 1.28528 0.81138 0.56490
 C43 C 1.21600 0.73857 0.51567
 C44 C 1.20037 0.72861 0.57489
 C45 C 1.17418 0.70078 0.57991
 C46 C 1.16307 0.68293 0.52380
 C47 C 1.17768 0.69264 0.46379
 C48 C 1.20454 0.71992 0.46062
 H49 H 1.31232 0.84904 0.50544
 H50 H 1.23826 0.77540 0.40911
 H51 H 1.25721 0.76977 0.61193
 H52 H 1.20809 0.74280 0.61747
 H53 H 1.14403 0.66073 0.52696
 H54 H 1.21632 0.72641 0.41478
 C55 C 0.85047 0.54092 0.51313
 C56 C 0.84236 0.54536 0.45071
 C57 C 0.81610 0.54721 0.44323
 C58 C 0.79707 0.54311 0.49671
 C59 C 0.80563 0.53792 0.55834
 C60 C 0.83270 0.53809 0.56709
 C61 C 0.76829 0.54375 0.48831
 C62 C 0.75462 0.55017 0.54099
 C63 C 0.72731 0.55016 0.53339
 C64 C 0.71461 0.54530 0.47070
 C65 C 0.72812 0.53954 0.41781
 C66 C 0.75399 0.53756 0.42730
 H67 H 0.86989 0.53823 0.51997
 H68 H 0.81083 0.55188 0.39524
 H69 H 0.79143 0.53360 0.60025
 H70 H 0.76516 0.55551 0.58836
 H71 H 0.69336 0.54424 0.46229
 H72 H 0.76274 0.53120 0.38631
 C73 C 0.46641 0.30465 0.49100
 C74 C 0.46955 0.29152 0.43397
 C75 C 0.46745 0.26340 0.43761
 C76 C 0.45987 0.24705 0.49632
 C77 C 0.45642 0.26051 0.55263
 C78 C 0.46008 0.28944 0.55105
 C79 C 0.45468 0.21574 0.49790
 C80 C 0.46002 0.20334 0.55433
 C81 C 0.45495 0.17375 0.55490
 C82 C 0.44639 0.15745 0.49608
 C83 C 0.44092 0.16944 0.43970
 C84 C 0.44415 0.19795 0.44186
 H85 H 0.47043 0.32725 0.48820
 H86 H 0.47149 0.25426 0.39392
 H87 H 0.45026 0.24828 0.59801
 H88 H 0.46835 0.21670 0.59800
 H89 H 0.44557 0.13622 0.49252
 H90 H 0.43872 0.20632 0.39863
 C91 C 0.67538 0.16637 0.54057
 C92 C 0.68970 0.17471 0.48018
 C93 C 0.71914 0.19877 0.47689
 C94 C 0.73344 0.21603 0.53284
 C95 C 0.71793 0.20790 0.59224
 C96 C 0.68969 0.18255 0.59673
 C97 C 0.76404 0.24284 0.52966
 C98 C 0.78354 0.25179 0.58395
 C99 C 0.81169 0.27796 0.58262
 C100 C 0.82047 0.29483 0.52486
 C101 C 0.80185 0.28573 0.46970
 C102 C 0.77354 0.26028 0.47300
 H103 H 0.65305 0.14722 0.54390
 H104 H 0.73049 0.20421 0.43048
 H105 H 0.72784 0.22095 0.63574
 H106 H 0.77696 0.23830 0.62760
 H107 H 0.84095 0.31599 0.52323
 H108 H 0.75883 0.25441 0.43121
 O109 O 0.96243 0.50543 -0.06333
 O110 O 1.02505 0.49753 0.13796
 O111 O 0.94891 0.48743 0.04994
 O112 O 1.05511 0.54182 -0.04945
 O113 O 0.97189 0.48308 0.13272
 O114 O 1.01284 0.53897 -0.06944
 O115 O 1.05150 0.53430 0.07151
 O116 O 0.92931 0.46108 -0.05767
 C117 C 0.93643 0.48637 -0.07682
 C118 C 1.04354 0.52472 0.12796
 C119 C 0.95570 0.49248 0.10824
 C120 C 1.04041 0.55378 -0.06823
 O121 O 1.02402 0.49890 -0.13134
 O122 O 0.96074 0.43053 0.07529
 O123 O 0.95441 0.43012 -0.04180
 O124 O 1.05469 0.48532 0.05635
 O125 O 1.01229 0.44625 0.07584
 O126 O 0.97096 0.46142 -0.12312
 O127 O 1.05321 0.49106 -0.06581
 O128 O 0.92066 0.43108 0.04845
 Co129 Co 0.99276 0.49978 -0.08928
 Co130 Co 0.99287 0.46613 0.09710
 Co131 Co 0.95341 0.45942 0.00619
 Co132 Co 1.04839 0.51051 0.00334
 O133 O 0.99897 0.48601 0.00209
 C134 C 1.04434 0.49218 -0.12206
 C135 C 0.93358 0.42137 0.08777
 C136 C 0.95937 0.43491 -0.10161
 C137 C 1.03993 0.45864 0.07427
 O138 O 0.48590 0.47165 -0.12083
 O139 O 0.47715 0.48744 0.10231
 O140 O 0.50581 0.45191 0.03079
 O141 O 0.46092 0.50987 -0.05031
 O142 O 0.51884 0.47783 0.11547
 O143 O 0.48481 0.51783 -0.13708
 O144 O 0.46978 0.52160 0.06014
 O145 O 0.51609 0.45807 -0.08106
 C146 C 0.49246 0.45182 -0.11182
 C147 C 0.46036 0.49799 0.09299
 C148 C 0.50450 0.45291 0.09040
 C149 C 0.46035 0.50859 -0.10988
 O150 O 0.54383 0.54861 -0.12377
 O151 O 0.55704 0.53517 0.09845
 O152 O 0.56999 0.51075 -0.05372
 O153 O 0.52654 0.56968 0.02874
 O154 O 0.51561 0.54485 0.11478
 O155 O 0.54481 0.50213 -0.13901
 O156 O 0.51427 0.56242 -0.08186
 O157 O 0.56318 0.50025 0.05674
 Co158 Co 0.51495 0.51008 -0.11767
 Co159 Co 0.51705 0.51125 0.09562
 Co160 Co 0.53668 0.48293 -0.01179
 Co161 Co 0.49496 0.53813 -0.01082
 O162 O 0.51592 0.51059 -0.01109
 C163 C 0.53698 0.56830 -0.11562
 C164 C 0.57360 0.52459 0.08707
 C165 C 0.56978 0.51248 -0.11319
 C166 C 0.52926 0.56941 0.08805
 O167 O 0.53912 0.01345 -0.05909
 O168 O 0.48890 -0.03355 0.13929
 O169 O 0.53319 0.05156 0.08508
 O170 O 0.46758 -0.08007 -0.03791
 O171 O 0.50119 0.01883 0.15414
 O172 O 0.50706 -0.03898 -0.06307
 O173 O 0.50246 -0.04691 0.05122
 O174 O 0.53800 0.05366 -0.03677
 C175 C 0.55213 0.04101 -0.05519
 C176 C 0.50447 -0.04317 0.11137
 C177 C 0.52626 0.04157 0.14183
 C178 C 0.49021 -0.06625 -0.07623
 O179 O 0.46213 -0.03148 -0.11243
 O180 O 0.44691 0.00470 0.10291
 O181 O 0.48352 0.04581 -0.04670
 O182 O 0.44695 -0.07559 0.07332
 O183 O 0.43377 -0.04415 0.08897
 O184 O 0.49663 0.02248 -0.11603
 O185 O 0.43598 -0.05460 -0.02895
 O186 O 0.48161 0.04834 0.07506
 Co187 Co 0.49987 -0.00832 -0.07874
 Co188 Co 0.46920 -0.01310 0.11336
 Co189 Co 0.50689 0.04463 0.01876
 Co190 Co 0.47007 -0.04917 0.00964
 O191 O 0.48646 -0.00439 0.01852
 C192 C 0.43709 -0.04845 -0.08754
 C193 C 0.45655 0.03181 0.09937
 C194 C 0.48564 0.03907 -0.10395
 C195 C 0.42861 -0.06990 0.09868
 C196 C 1.16104 0.44031 0.36399
 C197 C 1.13155 0.43399 0.35379
 C198 C 1.12009 0.43650 0.28936
 C199 C 1.08906 0.42220 0.27931
 C200 C 1.07721 0.42772 0.22321
 C201 C 1.09625 0.44790 0.17589
 C202 C 1.12733 0.46145 0.18495
 C203 C 1.13920 0.45578 0.24097
 C204 C 1.08448 0.45833 0.12209
 C205 C 1.05464 0.44296 0.10220
 H206 H 1.11613 0.42769 0.39402
 H207 H 1.07388 0.40760 0.31624
 H208 H 1.05314 0.41747 0.21936
 H209 H 1.14246 0.47742 0.14982
 H210 H 1.16323 0.46788 0.24777
 H211 H 1.09893 0.48054 0.10307
 H212 H 1.17378 0.44092 0.32155
 H213 H 1.04044 0.41998 0.11680
 C214 C 0.55195 0.71280 0.35814
 C215 C 0.56329 0.69355 0.34556
 C216 C 0.56102 0.67929 0.28161
 C217 C 0.57978 0.66724 0.26947
 C218 C 0.57601 0.65035 0.21361
 C219 C 0.55307 0.64483 0.16894
 C220 C 0.53546 0.65834 0.17884
 C221 C 0.53919 0.67525 0.23493
 C222 C 0.54514 0.62261 0.11619
 C223 C 0.54576 0.59628 0.12779
 H224 H 0.57541 0.68923 0.38314
 H225 H 0.59690 0.67018 0.30429
 H226 H 0.59046 0.64084 0.20645
 H227 H 0.51762 0.65434 0.14509
 H228 H 0.52394 0.68372 0.24285
 H229 H 0.53363 0.62419 0.07342
 H230 H 0.54435 0.72048 0.31708
 H231 H 0.55372 0.59318 0.17438
 C232 C 0.28550 -0.17203 0.38807
 C233 C 0.30623 -0.14171 0.38050
 C234 C 0.32226 -0.12861 0.31925
 C235 C 0.32945 -0.14505 0.27540
 C236 C 0.34863 -0.13078 0.22301
 C237 C 0.36071 -0.09989 0.21364
 C238 C 0.35230 -0.08392 0.25574
 C239 C 0.33359 -0.09805 0.30845
 C240 C 0.38286 -0.08312 0.16251
 C241 C 0.40266 -0.09156 0.13643
 H242 H 0.31116 -0.12654 0.42094
 H243 H 0.32143 -0.16859 0.28314
 H244 H 0.35419 -0.14385 0.19066
 H245 H 0.36121 -0.06013 0.24936
 H246 H 0.32850 -0.08490 0.34181
 H247 H 0.38620 -0.06116 0.15062
 H248 H 0.27622 -0.18538 0.34457
 H249 H 0.40080 -0.11289 0.14811
 C250 C 0.85947 0.54546 0.39234
 C251 C 0.88928 0.55164 0.39558
 C252 C 0.90491 0.54419 0.34426
 C253 C 0.89150 0.53089 0.28452
 C254 C 0.90633 0.52185 0.24072
 C255 C 0.93488 0.52586 0.25558
 C256 C 0.94840 0.53957 0.31456
 C257 C 0.93372 0.54879 0.35809
 C258 C 0.95011 0.51415 0.21327
 C259 C 0.94395 0.50840 0.14710
 H260 H 0.90163 0.56100 0.44016
 H261 H 0.86935 0.52667 0.27162
 H262 H 0.89478 0.51067 0.19653
 H263 H 0.97028 0.54279 0.32745
 H264 H 0.94464 0.55883 0.40371
 H265 H 0.96666 0.50964 0.23533
 H266 H 0.84755 0.53919 0.34660
 H267 H 0.92918 0.51475 0.12299
 C268 C 0.47569 0.30708 0.37023
 C269 C 0.46449 0.32616 0.35430
 C270 C 0.46996 0.34264 0.29188
 C271 C 0.45241 0.35588 0.27733
 C272 C 0.45811 0.37369 0.22210
 C273 C 0.48182 0.37902 0.18021
 C274 C 0.49858 0.36475 0.19294
 C275 C 0.49289 0.34688 0.24843
 C276 C 0.49065 0.40084 0.12600
 C277 C 0.48836 0.42661 0.13222
 H278 H 0.45002 0.32858 0.38902
 H279 H 0.43444 0.35283 0.30948
 H280 H 0.44416 0.38361 0.21283
 H281 H 0.51696 0.36847 0.16140
 H282 H 0.50720 0.33743 0.25803
 H283 H 0.50328 0.39914 0.08572
 H284 H 0.48727 0.30151 0.33378
 H285 H 0.47939 0.43018 0.17676
 C286 C 0.67368 0.15840 0.42074
 C287 C 0.64443 0.15234 0.40865
 C288 C 0.62699 0.13601 0.35075
 C289 C 0.61082 0.14700 0.31654
 C290 C 0.59258 0.13108 0.26401
 C291 C 0.58911 0.10322 0.24666
 C292 C 0.60510 0.09200 0.28112
 C293 C 0.62428 0.10851 0.33231
 C294 C 0.56927 0.08676 0.19157
 C295 C 0.54772 0.05657 0.19532
 H296 H 0.63455 0.16170 0.44092
 H297 H 0.61242 0.16803 0.33040
 H298 H 0.58054 0.14016 0.23787
 H299 H 0.60298 0.07067 0.26801
 H300 H 0.63625 0.09943 0.35873
 H301 H 0.56931 0.09953 0.14963
 H302 H 0.68548 0.15302 0.38437
 H303 H 0.54509 0.04446 0.24013
 C304 C 0.45945 0.16187 -0.38662
 C305 C 0.45120 0.13165 -0.37775
 C306 C 0.45665 0.11849 -0.31820
 C307 C 0.47131 0.13514 -0.26223
 C308 C 0.47618 0.12123 -0.20851
 C309 C 0.46698 0.09061 -0.20977
 C310 C 0.45187 0.07393 -0.26510
 C311 C 0.44684 0.08771 -0.31844
 C312 C 0.47322 0.07663 -0.15300
 C313 C 0.47703 0.05166 -0.15890
 H314 H 0.43917 0.11585 -0.41597
 H315 H 0.47924 0.15881 -0.25934
 H316 H 0.48766 0.13455 -0.16622
 H317 H 0.44357 0.05013 -0.26724
 H318 H 0.43525 0.07414 -0.36038
 H319 H 0.47717 0.08759 -0.10618
 H320 H 0.46888 0.17691 -0.34580
 H321 H 0.47607 0.04228 -0.20649
 C322 C 0.71282 0.55330 -0.41113
 C323 C 0.68750 0.55699 -0.41385
 C324 C 0.66743 0.55307 -0.35825
 C325 C 0.66806 0.53958 -0.29906
 C326 C 0.64612 0.53318 -0.25152
 C327 C 0.62307 0.53997 -0.26253
 C328 C 0.62300 0.55407 -0.32078
 C329 C 0.64492 0.56064 -0.36781
 C330 C 0.59732 0.53052 -0.21788
 C331 C 0.59737 0.52390 -0.15204
 H332 H 0.68140 0.56290 -0.45955
 H333 H 0.68459 0.53278 -0.29014
 H334 H 0.64652 0.52173 -0.20775
 H335 H 0.60547 0.55946 -0.33067
 H336 H 0.64368 0.57088 -0.41288
 H337 H 0.57708 0.52899 -0.23812
 H338 H 0.72166 0.55253 -0.36379
 H339 H 0.61777 0.52757 -0.12839
 C340 C 0.82934 0.28730 -0.36019
 C341 C 0.85930 0.31029 -0.35819
 C342 C 0.87602 0.32488 -0.29771
 C343 C 0.90728 0.34290 -0.30109
 C344 C 0.92366 0.36044 -0.24816
 C345 C 0.90904 0.36063 -0.19063
 C346 C 0.87801 0.34137 -0.18582
 C347 C 0.86157 0.32379 -0.23890
 C348 C 0.92508 0.38199 -0.13699
 C349 C 0.94956 0.41029 -0.14857
 H350 H 0.87162 0.31836 -0.40307
 H351 H 0.91904 0.34406 -0.34559
 H352 H 0.94767 0.37422 -0.25300
 H353 H 0.86621 0.34100 -0.14196
 H354 H 0.83750 0.31059 -0.23451
 H355 H 0.91461 0.37736 -0.08953
 H356 H 0.81919 0.27587 -0.31523
 H357 H 0.95844 0.41629 -0.19727
 C358 C 0.50765 -0.18009 -0.39182
 C359 C 0.51578 -0.15097 -0.37308
 C360 C 0.50469 -0.14229 -0.31547
 C361 C 0.51191 -0.11232 -0.31087
 C362 C 0.50339 -0.10204 -0.25702
 C363 C 0.48775 -0.12144 -0.20562
 C364 C 0.47943 -0.15173 -0.21089
 C365 C 0.48796 -0.16215 -0.26532
 C366 C 0.48008 -0.11006 -0.14699
 C367 C 0.49881 -0.08098 -0.12552
 H368 H 0.53174 -0.13277 -0.40299
 H369 H 0.52432 -0.09663 -0.34920
 H370 H 0.50903 -0.07883 -0.25600
 H371 H 0.46700 -0.16714 -0.17218
 H372 H 0.48190 -0.18543 -0.26704
 H373 H 0.45969 -0.12450 -0.12082
 H374 H 0.49359 -0.19886 -0.36109
 H375 H 0.52022 -0.06739 -0.14889
 C376 C 0.31603 0.47673 -0.40160
 C377 C 0.34639 0.49799 -0.39663
 C378 C 0.36747 0.49851 -0.34686
 C379 C 0.35849 0.48381 -0.28654
 C380 C 0.38000 0.48507 -0.24230
 C381 C 0.41062 0.50077 -0.25831
 C382 C 0.41928 0.51526 -0.31847
 C383 C 0.39805 0.51441 -0.36182
 C384 C 0.43449 0.50245 -0.21532
 C385 C 0.43292 0.50037 -0.14764
 H386 H 0.35612 0.51421 -0.43548
 H387 H 0.33510 0.47156 -0.27322
 H388 H 0.37261 0.47336 -0.19650
 H389 H 0.44271 0.52752 -0.33198
 H390 H 0.40561 0.52591 -0.40791
 H391 H 0.45576 0.50864 -0.23821
 H392 H 0.30450 0.46134 -0.36234
 H393 H 0.41249 0.49515 -0.12229
 C394 C 1.16074 0.69117 -0.35867
 C395 C 1.13209 0.66681 -0.34921
 C396 C 1.12056 0.65311 -0.28500
 C397 C 1.08952 0.63600 -0.27645
 C398 C 1.07768 0.61927 -0.21999
 C399 C 1.09674 0.61914 -0.17081
 C400 C 1.12782 0.63693 -0.17857
 C401 C 1.13969 0.65391 -0.23498
 C402 C 1.08502 0.59773 -0.11607
 C403 C 1.05510 0.58373 -0.09710
 H404 H 1.11693 0.65738 -0.39003
 H405 H 1.07436 0.63473 -0.31465
 H406 H 1.05365 0.60519 -0.21712
 H407 H 1.14298 0.63684 -0.14193
 H408 H 1.16376 0.66627 -0.24068
 H409 H 1.09956 0.59014 -0.09554
 H410 H 1.17310 0.70362 -0.31614
 H411 H 1.04086 0.59249 -0.11319
 C412 C 0.84171 0.53417 -0.36721
 C413 C 0.87176 0.54872 -0.34874
 C414 C 0.88297 0.54306 -0.28728
 C415 C 0.86591 0.51728 -0.24982
 C416 C 0.87875 0.51097 -0.19652
 C417 C 0.90895 0.53015 -0.18030
 C418 C 0.92540 0.55663 -0.21557
 C419 C 0.91259 0.56293 -0.26880
 C420 C 0.92471 0.52255 -0.13026
 C421 C 0.91579 0.49330 -0.11181
 H422 H 0.88815 0.56494 -0.38173
 H423 H 0.84310 0.50125 -0.26276
 H424 H 0.86509 0.49080 -0.16922
 H425 H 0.94865 0.57187 -0.20371
 H426 H 0.92617 0.58296 -0.29682
 H427 H 0.94634 0.54023 -0.11385
 H428 H 0.82439 0.52102 -0.33244
 H429 H 0.89474 0.47482 -0.12801
 C430 C 0.45848 0.30247 -0.38999
 C431 C 0.45804 0.32934 -0.38531
 C432 C 0.46226 0.34559 -0.32347
 C433 C 0.47784 0.34246 -0.27038
 C434 C 0.48456 0.36095 -0.21586
 C435 C 0.47580 0.38277 -0.21318
 C436 C 0.45962 0.38535 -0.26581
 C437 C 0.45298 0.36697 -0.32019
 C438 C 0.48677 0.40460 -0.15902
 C439 C 0.47502 0.42330 -0.14581
 H440 H 0.45399 0.33902 -0.42810
 H441 H 0.48613 0.32682 -0.27186
 H442 H 0.49746 0.35882 -0.17653
 H443 H 0.45327 0.40247 -0.26711
 H444 H 0.44133 0.37011 -0.36081
 H445 H 0.50656 0.40799 -0.13284
 H446 H 0.45737 0.29086 -0.34524
 H447 H 0.45424 0.41917 -0.16824
 C448 C 0.67563 0.17282 -0.33920
 C449 C 0.66326 0.14309 -0.32057
 C450 C 0.64954 0.13194 -0.25653
 C451 C 0.64872 0.10624 -0.23157
 C452 C 0.63312 0.09316 -0.17451
 C453 C 0.61736 0.10521 -0.14227
 C454 C 0.61965 0.13191 -0.16535
 C455 C 0.63552 0.14517 -0.22209
 C456 C 0.59578 0.08915 -0.08960
 C457 C 0.58247 0.05832 -0.08131
 H458 H 0.66487 0.12751 -0.35348
 H459 H 0.65972 0.09593 -0.25702
 H460 H 0.63294 0.07326 -0.15721
 H461 H 0.60779 0.14171 -0.14139
 H462 H 0.63544 0.16481 -0.24053
 H463 H 0.58579 0.10077 -0.06537
 H464 H 0.67814 0.18957 -0.30412
 H465 H 0.59172 0.04578 -0.10408
 C466 C 1.16921 0.46982 -0.40470
 C467 C 1.14295 0.47186 -0.40323
 C468 C 1.12972 0.47644 -0.34345
 C469 C 1.13450 0.46803 -0.28141
 C470 C 1.11973 0.47098 -0.22711
 C471 C 1.09977 0.48208 -0.23379
 C472 C 1.09567 0.49116 -0.29571
 C473 C 1.11026 0.48808 -0.34979
 C474 C 1.08413 0.48453 -0.17550
 C475 C 1.05812 0.48675 -0.17919
 H476 H 1.13213 0.47208 -0.44814
 H477 H 1.14891 0.45845 -0.27483
 H478 H 1.12348 0.46405 -0.17991
 H479 H 1.08150 0.50094 -0.30297
 H480 H 1.10629 0.49487 -0.39696
 H481 H 1.09326 0.48432 -0.12806
 H482 H 1.18215 0.47463 -0.36025
 H483 H 1.04770 0.48546 -0.22572
 C484 C 0.55775 0.71222 -0.40097
 C485 C 0.56375 0.68858 -0.39437
 C486 C 0.56002 0.67221 -0.33252
 C487 C 0.54126 0.67174 -0.28226
 C488 C 0.53586 0.65349 -0.22778
 C489 C 0.54894 0.63523 -0.22214
 C490 C 0.56819 0.63619 -0.27191
 C491 C 0.57358 0.65443 -0.32629
 C492 C 0.53957 0.61353 -0.16753
 C493 C 0.55266 0.59597 -0.15373
 H494 H 0.57168 0.68145 -0.43547
 H495 H 0.52962 0.68436 -0.28583
 H496 H 0.52063 0.65294 -0.19079
 H497 H 0.57827 0.62211 -0.27095
 H498 H 0.58783 0.65405 -0.36457
 H499 H 0.51979 0.60938 -0.14051
 H500 H 0.55421 0.72148 -0.35684
 H501 H 0.57305 0.60015 -0.17775
 C502 C 0.30383 -0.17491 -0.37678
 C503 C 0.31332 -0.14530 -0.36017
 C504 C 0.33712 -0.12868 -0.31187
 C505 C 0.33657 -0.10607 -0.27488
 C506 C 0.36038 -0.08824 -0.23317
 C507 C 0.38546 -0.09227 -0.22957
 C508 C 0.38605 -0.11478 -0.26674
 C509 C 0.36193 -0.13310 -0.30694
 C510 C 0.41195 -0.07246 -0.19026
 C511 C 0.41006 -0.06284 -0.12807
 H512 H 0.30346 -0.13361 -0.38478
 H513 H 0.31783 -0.10203 -0.27880
 H514 H 0.35968 -0.07068 -0.20568
 H515 H 0.40532 -0.11806 -0.26492
 H516 H 0.36328 -0.14987 -0.33618
 H517 H 0.43360 -0.06830 -0.20765
 H518 H 0.31027 -0.18817 -0.34695
 H519 H 0.38841 -0.07013 -0.10607
 C520 C 0.54685 -0.14934 0.38275
 C521 C 0.55408 -0.11959 0.39202
 C522 C 0.55039 -0.10071 0.34250
 C523 C 0.55171 -0.07412 0.36342
 C524 C 0.54430 -0.05748 0.32130
 C525 C 0.53586 -0.06674 0.25693
 C526 C 0.53583 -0.09264 0.23487
 C527 C 0.54305 -0.10944 0.27720
 C528 C 0.52438 -0.05076 0.21650
 C529 C 0.52272 -0.05261 0.14893
 H530 H 0.55951 -0.11067 0.44096
 H531 H 0.55727 -0.06682 0.41342
 H532 H 0.54438 -0.03772 0.33958
 H533 H 0.52884 -0.10089 0.18597
 H534 H 0.54191 -0.12960 0.25875
 H535 H 0.51567 -0.03810 0.24123
 H536 H 0.54427 -0.15857 0.33449
 H537 H 0.53338 -0.06304 0.12280
 C538 C 0.31476 0.48594 0.35716
 C539 C 0.33132 0.47195 0.34211
 C540 C 0.34930 0.47780 0.28244
 C541 C 0.35617 0.45606 0.26107
 C542 C 0.37600 0.46196 0.20965
 C543 C 0.39004 0.49017 0.17952
 C544 C 0.38199 0.51141 0.19880
 C545 C 0.36184 0.50535 0.24988
 C546 C 0.41437 0.49884 0.13126
 C547 C 0.43172 0.48487 0.12771
 H548 H 0.33080 0.45546 0.37566
 H549 H 0.34655 0.43456 0.28506
 H550 H 0.38051 0.44447 0.19470
 H551 H 0.39230 0.53324 0.17619
 H552 H 0.35731 0.52276 0.26571
 H553 H 0.42129 0.51910 0.10353
 H554 H 0.31142 0.49929 0.32095
 H555 H 0.42627 0.46549 0.15722
 C556 C 1.16570 0.67415 0.40425
 C557 C 1.13507 0.65435 0.39539
 C558 C 1.12174 0.63428 0.33859
 C559 C 1.09207 0.61086 0.34345
 C560 C 1.07830 0.59118 0.29168
 C561 C 1.09395 0.59451 0.23354
 C562 C 1.12337 0.61833 0.22795
 C563 C 1.13723 0.63798 0.27993
 C564 C 1.08006 0.57410 0.17756
 C565 C 1.05655 0.54482 0.18405
 H566 H 1.11969 0.65298 0.43285
 H567 H 1.07945 0.60770 0.38768
 H568 H 1.05526 0.57377 0.29717
 H569 H 1.13575 0.62164 0.18329
 H570 H 1.15981 0.65613 0.27328
 H571 H 1.08971 0.58192 0.12989
 H572 H 1.18145 0.67696 0.36645
 H573 H 1.04807 0.53576 0.23172
 C574 C 0.43501 0.15442 0.37570
 C575 C 0.42649 0.12440 0.36753
 C576 C 0.42963 0.11206 0.30502
 C577 C 0.41510 0.08101 0.29714
 C578 C 0.42084 0.06836 0.24291
 C579 C 0.44140 0.08666 0.19525
 C580 C 0.45504 0.11774 0.20196
 C581 C 0.44933 0.13037 0.25622
 C582 C 0.45215 0.07451 0.14315
 C583 C 0.43918 0.04418 0.12927
 H584 H 0.41834 0.10948 0.40882
 H585 H 0.40009 0.06643 0.33433
 H586 H 0.41025 0.04432 0.24088
 H587 H 0.47123 0.13234 0.16650
 H588 H 0.46172 0.15439 0.26109
 H589 H 0.47320 0.08976 0.12001
 H590 H 0.43878 0.16810 0.33300
 H591 H 0.41733 0.02850 0.14808
 C592 C 0.71468 0.53451 0.35244
 C593 C 0.70248 0.55168 0.32969
 C594 C 0.68542 0.54559 0.26847
 C595 C 0.67097 0.51707 0.23982
 C596 C 0.65134 0.51105 0.18760
 C597 C 0.64561 0.53324 0.16370
 C598 C 0.66168 0.56228 0.18938
 C599 C 0.68117 0.56827 0.24171
 C600 C 0.62087 0.52472 0.11680
 C601 C 0.60339 0.53852 0.11687
 H602 H 0.70528 0.57044 0.35877
 H603 H 0.67338 0.49892 0.25970
 H604 H 0.63930 0.48854 0.16836
 H605 H 0.65867 0.58023 0.17048
 H606 H 0.69230 0.59048 0.26261
 H607 H 0.61318 0.50418 0.08960
 H608 H 0.71597 0.51836 0.32092
 H609 H 0.60974 0.55814 0.14638
 C610 C 0.81108 0.30312 0.40865
 C611 C 0.84110 0.31950 0.39052
 C612 C 0.85232 0.33783 0.33097
 C613 C 0.88341 0.35542 0.32386
 C614 C 0.89560 0.37297 0.26881
 C615 C 0.87692 0.37305 0.21879
 C616 C 0.84579 0.35603 0.22619
 C617 C 0.83350 0.33841 0.28163
 C618 C 0.88960 0.39138 0.15983
 C619 C 0.91795 0.39872 0.13747
 H620 H 0.85773 0.31876 0.42178
 H621 H 0.89844 0.35575 0.36137
 H622 H 0.91968 0.38680 0.26629
 H623 H 0.83098 0.35607 0.18861
 H624 H 0.80942 0.32526 0.28481
 H625 H 0.87660 0.39950 0.13408
 H626 H 0.79366 0.30167 0.37678
 H627 H 0.93031 0.38918 0.16028
   
