data_POSCAR
  _audit_creation_date              2014-09-24
  _audit_creation_method            'ToBaCCo'
  _symmetry_space_group_name_H-M    'P1'
  _symmetry_Int_Tables_number       1
  _symmetry_cell_setting            triclinic
  loop_
  _symmetry_equiv_pos_as_xyz
 x,y,z
_cell_length_a 44.8443
_cell_length_b 43.2223
_cell_length_c 45.4032
_cell_angle_alpha 89.186300
_cell_angle_beta 90.228600
_cell_angle_gamma 89.942200
loop_
  _atom_site_label
  _atom_site_type_symbol
  _atom_site_fract_x
  _atom_site_fract_y
  _atom_site_fract_z
N1 N 0.29863 0.36996 1.34506
 N2 N 0.29081 0.34103 1.34960
 C3 C 0.26370 0.34003 1.36197
 C4 C 0.25396 0.37012 1.36618
 C5 C 0.27687 0.38855 1.35503
 H6 H 0.25303 0.31887 1.36925
 H7 H 0.27784 0.41354 1.35416
 Cu8 Cu 0.31841 0.30733 1.34405
 Cu9 Cu 0.33669 0.38060 1.32679
 Cu10 Cu 0.38440 0.31974 1.31194
 N11 N 0.35198 0.27995 1.35093
 N12 N 0.37833 0.28492 1.33934
 C13 C 0.39732 0.26282 1.34926
 C14 C 0.38185 0.24291 1.36822
 C15 C 0.35307 0.25479 1.36848
 H16 H 0.42053 0.26151 1.34304
 H17 H 0.33418 0.24657 1.38100
 N18 N 0.38878 0.36110 1.29358
 N19 N 0.37092 0.38447 1.29960
 C20 C 0.37684 0.40813 1.28089
 C21 C 0.39930 0.39915 1.26196
 C22 C 0.40644 0.36921 1.27088
 H23 H 0.36393 0.42924 1.27945
 H24 H 0.42209 0.35378 1.26056
 H25 H 0.34109 0.33869 1.30587
 H26 H 0.36056 0.34236 1.34236
 N27 N 1.19322 0.61796 0.85561
 N28 N 1.19387 0.63520 0.87919
 C29 C 1.21927 0.62918 0.89431
 C30 C 1.23540 0.60707 0.87923
 C31 C 1.21801 0.60052 0.85484
 H32 H 1.22584 0.64047 0.91441
 H33 H 1.22289 0.58408 0.83781
 Cu34 Cu 1.16179 0.66449 0.88704
 Cu35 Cu 1.16047 0.61907 0.82752
 Cu36 Cu 1.10292 0.67044 0.84031
 N37 N 1.13048 0.69530 0.89210
 N38 N 1.10727 0.69708 0.87440
 C39 C 1.08982 0.72081 0.88262
 C40 C 1.10291 0.73513 0.90669
 C41 C 1.12872 0.71801 0.91200
 H42 H 1.06976 0.72777 0.87105
 H43 H 1.14535 0.72190 0.92880
 N44 N 1.10295 0.64171 0.80681
 N45 N 1.12554 0.62306 0.80146
 C46 C 1.12021 0.60799 0.77625
 C47 C 1.09287 0.61737 0.76518
 C48 C 1.08244 0.63868 0.78520
 H49 H 1.13503 0.59121 0.76665
 H50 H 1.06186 0.65167 0.78360
 H51 H 1.14816 0.66473 0.83496
 H52 H 1.12806 0.63410 0.85649
 N53 N 0.69463 -0.14234 0.14759
 N54 N 0.68822 -0.16180 0.12649
 C55 C 0.70707 -0.15699 0.10384
 C56 C 0.72647 -0.13333 0.11113
 C57 C 0.71779 -0.12459 0.13911
 H58 H 0.70725 -0.17031 0.08388
 H59 H 0.72771 -0.10683 0.15249
 Cu60 Cu 0.65679 -0.19247 0.13148
 Cu61 Cu 0.67346 -0.14235 0.18514
 Cu62 Cu 0.61779 -0.19740 0.19400
 N63 N 0.62509 -0.22289 0.13651
 N64 N 0.60984 -0.22449 0.16109
 C65 C 0.58976 -0.24749 0.15936
 C66 C 0.59253 -0.26148 0.13215
 C67 C 0.61530 -0.24501 0.11826
 H68 H 0.57474 -0.25380 0.17697
 H69 H 0.62436 -0.24883 0.09662
 N70 N 0.62887 -0.16803 0.22480
 N71 N 0.64943 -0.14644 0.22143
 C72 C 0.65114 -0.12993 0.24642
 C73 C 0.63096 -0.14211 0.26646
 C74 C 0.61727 -0.16610 0.25195
 H75 H 0.66627 -0.11089 0.25002
 H76 H 0.59977 -0.18082 0.26049
 H77 H 0.66232 -0.18848 0.18470
 H78 H 0.63436 -0.16059 0.16928
 N79 N -0.20420 1.14810 -0.34838
 N80 N -0.19332 1.16372 -0.37108
 C81 C -0.20898 1.15629 -0.39541
 C82 C -0.23081 1.13504 -0.38751
 C83 C -0.22679 1.13027 -0.35753
 H84 H -0.20584 1.16693 -0.41686
 H85 H -0.23992 1.11566 -0.34309
 Cu86 Cu -0.16221 1.19586 -0.36676
 Cu87 Cu -0.19090 1.15407 -0.30767
 Cu88 Cu -0.14818 1.21609 -0.29673
 N89 N -0.13990 1.23319 -0.35707
 N90 N -0.13621 1.24193 -0.32971
 C91 C -0.12110 1.26873 -0.32935
 C92 C -0.11426 1.27720 -0.35814
 C93 C -0.12659 1.25387 -0.37515
 H94 H -0.11436 1.28021 -0.30941
 H95 H -0.12648 1.25220 -0.39888
 N96 N -0.15014 1.18251 -0.26804
 N97 N -0.16649 1.15778 -0.27234
 C98 C -0.16355 1.13844 -0.24897
 C99 C -0.14426 1.15192 -0.22894
 C100 C -0.13621 1.17985 -0.24191
 H101 H -0.17485 1.11645 -0.24665
 H102 H -0.12096 1.19688 -0.23330
 H103 H -0.18726 1.19772 -0.32924
 H104 H -0.15425 1.17114 -0.32781
 N105 N 0.72369 0.61951 0.65089
 N106 N 0.71653 0.62674 0.62357
 C107 C 0.73846 0.61744 0.60559
 C108 C 0.76067 0.60360 0.62262
 C109 C 0.75044 0.60549 0.65131
 H110 H 0.73822 0.62067 0.58194
 H111 H 0.76159 0.59760 0.67119
 Cu112 Cu 0.67996 0.64895 0.61437
 Cu113 Cu 0.69816 0.62931 0.68394
 Cu114 Cu 0.62675 0.65328 0.66576
 N115 N 0.64759 0.67872 0.61100
 N116 N 0.62703 0.68091 0.63143
 C117 C 0.60836 0.70426 0.62426
 C118 C 0.61772 0.71728 0.59784
 C119 C 0.64261 0.70039 0.59001
 H120 H 0.58956 0.71135 0.63743
 H121 H 0.65670 0.70432 0.57104
 N122 N 0.63718 0.63589 0.70463
 N123 N 0.66475 0.62829 0.71196
 C124 C 0.66495 0.61679 0.73964
 C125 C 0.63605 0.61694 0.75020
 C126 C 0.61901 0.62928 0.72738
 H127 H 0.68442 0.60734 0.75065
 H128 H 0.59514 0.63285 0.72715
 H129 H 0.66178 0.62157 0.65810
 H130 H 0.67044 0.66304 0.66539
 N131 N 0.79637 0.39723 0.13421
 N132 N 0.79505 0.37137 0.11937
 C133 C 0.77428 0.37440 0.09796
 C134 C 0.76221 0.40384 0.09933
 C135 C 0.77684 0.41768 0.12255
 H136 H 0.76826 0.35655 0.08259
 H137 H 0.77271 0.44051 0.13107
 Cu138 Cu 0.82045 0.33629 0.12978
 Cu139 Cu 0.82139 0.40174 0.16903
 Cu140 Cu 0.86554 0.33895 0.18909
 N141 N 0.84723 0.30226 0.14001
 N142 N 0.86380 0.30285 0.16395
 C143 C 0.87997 0.27661 0.16585
 C144 C 0.87353 0.25882 0.14157
 C145 C 0.85269 0.27582 0.12561
 H146 H 0.89621 0.27145 0.18289
 H147 H 0.84249 0.26944 0.10496
 N148 N 0.86441 0.37764 0.21153
 N149 N 0.84800 0.40175 0.20369
 C150 C 0.85261 0.42466 0.22302
 C151 C 0.87306 0.41457 0.24400
 C152 C 0.87997 0.38461 0.23595
 H153 H 0.84212 0.44715 0.22175
 H154 H 0.89514 0.36893 0.24713
 H155 H 0.85383 0.37057 0.15645
 H156 H 0.82303 0.35529 0.18008
 N157 N 0.28465 0.09194 0.84631
 N158 N 0.28226 0.11286 0.86693
 C159 C 0.25742 0.10729 0.88265
 C160 C 0.24367 0.08131 0.87156
 C161 C 0.26162 0.07205 0.84856
 H162 H 0.25014 0.12066 0.90124
 H163 H 0.25800 0.05252 0.83436
 Cu164 Cu 0.31226 0.14478 0.87206
 Cu165 Cu 0.31729 0.09243 0.81794
 Cu166 Cu 0.37112 0.14913 0.82697
 N167 N 0.34314 0.17582 0.87734
 N168 N 0.36550 0.17805 0.85883
 C169 C 0.38287 0.20202 0.86639
 C170 C 0.37100 0.21531 0.89123
 C171 C 0.34585 0.19804 0.89772
 H172 H 0.40294 0.20902 0.85498
 H173 H 0.33046 0.20184 0.91558
 N174 N 0.37307 0.11791 0.79601
 N175 N 0.35215 0.09696 0.79170
 C176 C 0.35984 0.07966 0.76839
 C177 C 0.38712 0.08996 0.75809
 C178 C 0.39483 0.11411 0.77609
 H179 H 0.34710 0.06042 0.76007
 H180 H 0.41485 0.12795 0.77459
 H181 H 0.34768 0.11252 0.84587
 H182 H 0.32635 0.13895 0.82061
 N183 N 0.22195 0.90162 0.33627
 N184 N 0.22697 0.87738 0.35336
 C185 C 0.25184 0.88215 0.36928
 C186 C 0.26299 0.91106 0.36187
 C187 C 0.24343 0.92278 0.34080
 H188 H 0.26060 0.86614 0.38567
 H189 H 0.24470 0.94498 0.32956
 Cu190 Cu 0.19992 0.84244 0.35443
 Cu191 Cu 0.18819 0.90310 0.30923
 Cu192 Cu 0.13015 0.85414 0.32899
 N193 N 0.16736 0.81550 0.36566
 N194 N 0.13997 0.82056 0.35643
 C195 C 0.12202 0.79846 0.36766
 C196 C 0.13910 0.77852 0.38499
 C197 C 0.16782 0.79017 0.38316
 H198 H 0.09835 0.79697 0.36333
 H199 H 0.18771 0.78079 0.39343
 N200 N 0.12541 0.88908 0.30093
 N201 N 0.14790 0.90666 0.29231
 C202 C 0.13861 0.92564 0.27040
 C203 C 0.10877 0.91986 0.26506
 C204 C 0.10110 0.89668 0.28490
 H205 H 0.15266 0.94197 0.25872
 H206 H 0.07988 0.88489 0.28614
 H207 H 0.16425 0.88304 0.34255
 H208 H 0.17141 0.85785 0.31030
 Zn209 Zn 0.01754 0.98481 0.00229
 Zn210 Zn -0.04707 0.97665 -0.01371
 Zn211 Zn -0.02964 1.01006 0.04165
 Zn212 Zn -0.01815 1.03908 -0.01639
 O213 O -0.01944 1.00247 0.00347
 O214 O 0.01701 0.94741 -0.01397
 O215 O -0.07609 0.96498 0.01181
 O216 O -0.00104 0.99895 0.06736
 O217 O -0.03033 0.94140 -0.02674
 O218 O 0.03366 0.97995 0.03813
 O219 O -0.06195 0.98897 0.05229
 O220 O -0.02998 1.07095 0.00486
 O221 O -0.06547 0.99435 -0.04539
 O222 O -0.03869 1.05005 0.04858
 O223 O -0.04262 1.03967 -0.04689
 O224 O 0.01790 1.04877 -0.03029
 O225 O 0.04422 1.00721 -0.01826
 C226 C -0.00361 0.93151 -0.02559
 C227 C -0.07985 0.97131 0.03885
 C228 C 0.02436 0.98663 0.06364
 C229 C -0.03863 1.07337 0.03125
 C230 C -0.06160 1.02094 -0.05711
 C231 C 0.04223 1.03381 -0.03029
 Zn232 Zn 0.51833 -0.03921 0.48677
 Zn233 Zn 0.52570 -0.00490 0.54219
 Zn234 Zn 0.54456 0.02472 0.48500
 Zn235 Zn 0.47967 0.01496 0.49900
 O236 O 0.51714 -0.00101 0.50315
 O237 O 0.52885 -0.06926 0.51219
 O238 O 0.55751 0.01694 0.55210
 O239 O 0.56417 0.00589 0.45554
 O240 O 0.53351 -0.04385 0.55380
 O241 O 0.54442 -0.04099 0.45754
 O242 O 0.57260 0.03872 0.51034
 O243 O 0.47978 0.05053 0.47887
 O244 O 0.49640 0.00820 0.56533
 O245 O 0.52730 0.05845 0.46824
 O246 O 0.46159 0.02258 0.53341
 O247 O 0.45504 -0.00989 0.47934
 O248 O 0.48336 -0.05076 0.47127
 C249 C 0.53455 -0.06886 0.53956
 C250 C 0.57555 0.03407 0.53794
 C251 C 0.56217 -0.02153 0.44595
 C252 C 0.50010 0.06672 0.46688
 C253 C 0.47068 0.01905 0.55976
 C254 C 0.45857 -0.03673 0.46898
 Zn255 Zn 1.00087 0.50720 0.52821
 Zn256 Zn 1.02600 0.47354 0.47733
 Zn257 Zn 0.99281 0.53265 0.46671
 Zn258 Zn 1.05300 0.53258 0.49591
 O259 O 1.01807 0.51158 0.49201
 O260 O 0.99371 0.46753 0.53798
 O261 O 1.00808 0.46761 0.44304
 O262 O 0.95860 0.54358 0.48419
 O263 O 1.01294 0.44261 0.50032
 O264 O 0.96543 0.52576 0.52966
 O265 O 0.98260 0.51062 0.43457
 O266 O 1.05248 0.56848 0.47622
 O267 O 1.06463 0.46724 0.46993
 O268 O 1.00885 0.56823 0.45329
 O269 O 1.08443 0.51215 0.48180
 O270 O 1.06191 0.54132 0.53336
 O271 O 1.02278 0.52322 0.55756
 C272 C 0.99906 0.44253 0.52461
 C273 C 0.99065 0.48368 0.42699
 C274 C 0.94962 0.53991 0.51051
 C275 C 1.03363 0.58113 0.45894
 C276 C 1.08694 0.48519 0.47142
 C277 C 1.04795 0.53666 0.55728
 Zn278 Zn 0.47342 0.48526 0.95153
 Zn279 Zn 0.47522 0.50713 1.01426
 Zn280 Zn 0.49888 0.44440 0.99816
 Zn281 Zn 0.53136 0.50048 0.97873
 O282 O 0.49459 0.48441 0.98582
 O283 O 0.43975 0.50664 0.95480
 O284 O 0.46691 0.48418 1.04713
 O285 O 0.48123 0.41710 0.97444
 O286 O 0.43997 0.52261 1.00092
 O287 O 0.46296 0.44768 0.93929
 O288 O 0.48324 0.43825 1.03347
 O289 O 0.56123 0.47516 0.98930
 O290 O 0.49684 0.54044 1.02575
 O291 O 0.53705 0.43263 1.00229
 O292 O 0.53724 0.53482 0.99847
 O293 O 0.53725 0.51161 0.94111
 O294 O 0.49315 0.50247 0.92138
 C295 C 0.42759 0.52117 0.97568
 C296 C 0.47107 0.45546 1.05236
 C297 C 0.46710 0.42094 0.95041
 C298 C 0.56124 0.44747 0.99897
 C299 C 0.52222 0.54991 1.01698
 C300 C 0.51967 0.51236 0.91916
 C301 C 1.22366 0.41013 0.38964
 C302 C 1.19796 0.41879 0.40511
 C303 C 1.17526 0.39679 0.41049
 C304 C 1.17884 0.36644 0.40086
 C305 C 1.20474 0.35776 0.38623
 C306 C 1.22757 0.37939 0.38034
 C307 C 1.14935 0.40540 0.42545
 C308 C 1.14596 0.43569 0.43550
 C309 C 1.16896 0.45755 0.43086
 C310 C 1.19475 0.44903 0.41555
 C311 C 1.16560 0.48769 0.44137
 C312 C 1.13937 0.49633 0.45560
 C313 C 1.11596 0.47503 0.45949
 C314 C 1.11968 0.44455 0.44975
 H315 H 1.24090 0.42723 0.38583
 H316 H 1.16164 0.34928 0.40478
 H317 H 1.20640 0.33405 0.37913
 H318 H 1.13181 0.38854 0.42922
 H319 H 1.21226 0.46590 0.41173
 H320 H 1.18305 0.50471 0.43817
 H321 H 1.13709 0.51999 0.46281
 H322 H 1.10188 0.42785 0.45268
 C323 C 0.27666 0.59443 0.91552
 C324 C 0.30433 0.58046 0.92227
 C325 C 0.32049 0.56568 0.89976
 C326 C 0.30903 0.56521 0.87108
 C327 C 0.28161 0.57892 0.86463
 C328 C 0.26497 0.59348 0.88667
 C329 C 0.34782 0.55140 0.90618
 C330 C 0.35936 0.55153 0.93488
 C331 C 0.34351 0.56632 0.95752
 C332 C 0.31603 0.58076 0.95108
 C333 C 0.35547 0.56630 0.98618
 C334 C 0.38280 0.55171 0.99228
 C335 C 0.39861 0.53680 0.96985
 C336 C 0.38660 0.53694 0.94117
 H337 H 0.26409 0.60546 0.93279
 H338 H 0.32125 0.55412 0.85358
 H339 H 0.27361 0.57822 0.84214
 H340 H 0.36008 0.54005 0.88883
 H341 H 0.30377 0.59206 0.96844
 H342 H 0.34369 0.57754 1.00386
 H343 H 0.39151 0.55201 1.01455
 H344 H 0.39849 0.52569 0.92354
 C345 C -0.22555 0.89621 0.10701
 C346 C -0.20124 0.90735 0.09065
 C347 C -0.19940 0.90128 0.06020
 C348 C -0.22201 0.88409 0.04669
 C349 C -0.24611 0.87295 0.06319
 C350 C -0.24817 0.87886 0.09351
 C351 C -0.17501 0.91244 0.04384
 C352 C -0.15241 0.92956 0.05762
 C353 C -0.15438 0.93549 0.08812
 C354 C -0.17870 0.92438 0.10439
 C355 C -0.13199 0.95254 0.10197
 C356 C -0.10789 0.96384 0.08583
 C357 C -0.10553 0.95834 0.05544
 C358 C -0.12793 0.94098 0.04145
 H359 H -0.22650 0.90074 0.13038
 H360 H -0.22106 0.87922 0.02337
 H361 H -0.26325 0.85989 0.05205
 H362 H -0.17362 0.90781 0.02047
 H363 H -0.18009 0.92901 0.12777
 H364 H -0.13315 0.95724 0.12532
 H365 H -0.09104 0.97703 0.09729
 H366 H -0.12646 0.93659 0.01806
 C367 C 0.71931 0.10983 0.60748
 C368 C 0.69580 0.09825 0.59057
 C369 C 0.69736 0.09934 0.55951
 C370 C 0.72264 0.11224 0.54596
 C371 C 0.74608 0.12384 0.56307
 C372 C 0.74470 0.12264 0.59401
 C373 C 0.67367 0.08750 0.54267
 C374 C 0.64857 0.07454 0.55664
 C375 C 0.64726 0.07369 0.58778
 C376 C 0.67075 0.08559 0.60447
 C377 C 0.62254 0.06070 0.60192
 C378 C 0.59935 0.04823 0.58549
 C379 C 0.60023 0.04860 0.55451
 C380 C 0.62487 0.06213 0.54014
 H381 H 0.71747 0.10915 0.63124
 H382 H 0.72432 0.11331 0.52217
 H383 H 0.76537 0.13351 0.55204
 H384 H 0.67484 0.08823 0.51881
 H385 H 0.66962 0.08481 0.62834
 H386 H 0.62121 0.05995 0.62575
 H387 H 0.58063 0.03820 0.59719
 H388 H 0.62586 0.06248 0.51629
 C389 C 0.42289 0.20828 0.38418
 C390 C 0.43298 0.18248 0.40077
 C391 C 0.41233 0.16483 0.41738
 C392 C 0.38224 0.17306 0.41729
 C393 C 0.37243 0.19863 0.40104
 C394 C 0.39243 0.21681 0.38424
 C395 C 0.42192 0.13911 0.43386
 C396 C 0.45200 0.13061 0.43411
 C397 C 0.47295 0.14811 0.41778
 C398 C 0.46331 0.17401 0.40115
 C399 C 0.50308 0.13919 0.41833
 C400 C 0.51220 0.11301 0.43461
 C401 C 0.49134 0.09534 0.45063
 C402 C 0.46129 0.10458 0.45037
 H403 H 0.43890 0.22169 0.37162
 H404 H 0.36617 0.15967 0.42987
 H405 H 0.34886 0.20366 0.40177
 H406 H 0.40590 0.12563 0.44647
 H407 H 0.47931 0.18745 0.38852
 H408 H 0.51954 0.15229 0.40600
 H409 H 0.53550 0.10641 0.43439
 H410 H 0.44488 0.09130 0.46262
 C411 C 0.91325 0.30546 0.60341
 C412 C 0.92993 0.33129 0.59418
 C413 C 0.93472 0.35598 0.61371
 C414 C 0.92370 0.35393 0.64246
 C415 C 0.90792 0.32779 0.65179
 C416 C 0.90211 0.30330 0.63237
 C417 C 0.95034 0.38236 0.60420
 C418 C 0.96170 0.38415 0.57551
 C419 C 0.95801 0.35890 0.55636
 C420 C 0.94197 0.33274 0.56573
 C421 C 0.97005 0.36045 0.52796
 C422 C 0.98468 0.38717 0.51821
 C423 C 0.98732 0.41296 0.53658
 C424 C 0.97622 0.41104 0.56546
 H425 H 0.90974 0.28679 0.58813
 H426 H 0.92729 0.37258 0.65778
 H427 H 0.89963 0.32740 0.67412
 H428 H 0.95349 0.40153 0.61906
 H429 H 0.93872 0.31363 0.55083
 H430 H 0.96765 0.34123 0.51307
 H431 H 0.99295 0.38803 0.49583
 H432 H 0.97827 0.43070 0.57990
 C433 C 0.06546 0.77599 -0.08548
 C434 C 0.05633 0.80318 -0.07138
 C435 C 0.07515 0.81680 -0.05018
 C436 C 0.10231 0.80267 -0.04287
 C437 C 0.11111 0.77553 -0.05670
 C438 C 0.09313 0.76189 -0.07853
 C439 C 0.06666 0.84444 -0.03672
 C440 C 0.03943 0.85862 -0.04401
 C441 C 0.02016 0.84467 -0.06462
 C442 C 0.02876 0.81709 -0.07827
 C443 C -0.00730 0.85874 -0.07138
 C444 C -0.01536 0.88661 -0.05823
 C445 C 0.00401 0.90109 -0.03829
 C446 C 0.03131 0.88672 -0.03113
 H447 H 0.05081 0.76600 -0.10176
 H448 H 0.11692 0.81273 -0.02654
 H449 H 0.13245 0.76582 -0.05042
 H450 H 0.08134 0.85500 -0.02069
 H451 H 0.01412 0.80657 -0.09434
 H452 H -0.02245 0.84831 -0.08702
 H453 H -0.03650 0.89717 -0.06414
 H454 H 0.04636 0.89746 -0.01558
 C455 C 0.58352 0.69999 1.09399
 C456 C 0.56855 0.67376 1.08378
 C457 C 0.54575 0.66002 1.10088
 C458 C 0.53826 0.67298 1.12795
 C459 C 0.55349 0.69897 1.13819
 C460 C 0.57653 0.71282 1.12149
 C461 C 0.53112 0.63341 1.09077
 C462 C 0.53941 0.62013 1.06394
 C463 C 0.56231 0.63406 1.04697
 C464 C 0.57649 0.66082 1.05685
 C465 C 0.57106 0.62079 1.02049
 C466 C 0.55769 0.59366 1.01101
 C467 C 0.53504 0.57928 1.02760
 C468 C 0.52564 0.59290 1.05396
 H469 H 0.60100 0.70984 1.08047
 H470 H 0.52080 0.66286 1.14139
 H471 H 0.54698 0.70796 1.15930
 H472 H 0.51367 0.62282 1.10394
 H473 H 0.59407 0.67132 1.04375
 H474 H 0.58851 0.63122 1.00723
 H475 H 0.56517 0.58390 0.99047
 H476 H 0.50825 0.58198 1.06696
 C477 C 0.42128 0.39898 1.21136
 C478 C 0.42902 0.41400 1.18491
 C479 C 0.42532 0.44637 1.18185
 C480 C 0.41390 0.46313 1.20554
 C481 C 0.40585 0.44789 1.23176
 C482 C 0.40937 0.41567 1.23490
 C483 C 0.43280 0.46127 1.15512
 C484 C 0.44369 0.44407 1.13137
 C485 C 0.44721 0.41166 1.13469
 C486 C 0.43997 0.39691 1.16135
 C487 C 0.45789 0.39431 1.11123
 C488 C 0.46523 0.40878 1.08469
 C489 C 0.46210 0.44101 1.08085
 C490 C 0.45115 0.45860 1.10438
 H491 H 0.42374 0.37410 1.21316
 H492 H 0.41091 0.48796 1.20370
 H493 H 0.39686 0.46136 1.24958
 H494 H 0.42998 0.48610 1.15275
 H495 H 0.44271 0.37205 1.16370
 H496 H 0.46064 0.36946 1.11342
 H497 H 0.47351 0.39451 1.06709
 H498 H 0.44867 0.48344 1.10179
 C499 C 0.62772 -0.10102 0.30503
 C500 C 0.61818 -0.09138 0.33295
 C501 C 0.60603 -0.11336 0.35294
 C502 C 0.60427 -0.14450 0.34513
 C503 C 0.61324 -0.15373 0.31729
 C504 C 0.62449 -0.13211 0.29679
 C505 C 0.59488 -0.10384 0.38007
 C506 C 0.59499 -0.07249 0.38734
 C507 C 0.60771 -0.05043 0.36788
 C508 C 0.61953 -0.06006 0.34085
 C509 C 0.60752 -0.01904 0.37548
 C510 C 0.59372 -0.00954 0.40149
 C511 C 0.57998 -0.03129 0.42031
 C512 C 0.58147 -0.06283 0.41337
 H513 H 0.63629 -0.08417 0.28933
 H514 H 0.59522 -0.16162 0.36030
 H515 H 0.61108 -0.17789 0.31170
 H516 H 0.58516 -0.12072 0.39511
 H517 H 0.62887 -0.04312 0.32565
 H518 H 0.61730 -0.00177 0.36095
 H519 H 0.59294 0.01490 0.40636
 H520 H 0.57125 -0.07993 0.42782
 C521 C -0.13485 1.10767 -0.19338
 C522 C -0.12292 1.09619 -0.16666
 C523 C -0.11030 1.11707 -0.14639
 C524 C -0.11034 1.14883 -0.15269
 C525 C -0.12195 1.15995 -0.17926
 C526 C -0.13389 1.13959 -0.20007
 C527 C -0.09724 1.10594 -0.12034
 C528 C -0.09618 1.07414 -0.11430
 C529 C -0.10926 1.05306 -0.13401
 C530 C -0.12272 1.06425 -0.16011
 C531 C -0.10808 1.02119 -0.12738
 C532 C -0.09331 1.01039 -0.10193
 C533 C -0.07942 1.03133 -0.08289
 C534 C -0.08153 1.06319 -0.08904
 H535 H -0.14395 1.09171 -0.20924
 H536 H -0.10096 1.16508 -0.13724
 H537 H -0.12145 1.18464 -0.18347
 H538 H -0.08727 1.12203 -0.10503
 H539 H -0.13246 1.04815 -0.17552
 H540 H -0.11812 1.00463 -0.14211
 H541 H -0.09206 0.98573 -0.09756
 H542 H -0.07132 1.07964 -0.07428
 C543 C 1.09631 0.59732 0.71390
 C544 C 1.08314 0.58710 0.68771
 C545 C 1.05173 0.58608 0.68514
 C546 C 1.03409 0.59608 0.70865
 C547 C 1.04743 0.60677 0.73450
 C548 C 1.07862 0.60715 0.73749
 C549 C 1.03853 0.57520 0.65913
 C550 C 1.05639 0.56596 0.63545
 C551 C 1.08780 0.56782 0.63784
 C552 C 1.10095 0.57805 0.66402
 C553 C 1.10562 0.55960 0.61390
 C554 C 1.09252 0.54969 0.58774
 C555 C 1.06139 0.54719 0.58520
 C556 C 1.04340 0.55520 0.60926
 H557 H 1.12041 0.59801 0.71575
 H558 H 1.00998 0.59564 0.70705
 H559 H 1.03335 0.61414 0.75241
 H560 H 1.01444 0.57414 0.65725
 H561 H 1.12505 0.57917 0.66588
 H562 H 1.12971 0.56102 0.61533
 H563 H 1.10681 0.54360 0.56954
 H564 H 1.01934 0.55368 0.60736
 C565 C 0.79947 0.59536 0.58369
 C566 C 0.82681 0.58304 0.57447
 C567 C 0.84423 0.56522 0.59444
 C568 C 0.83399 0.55986 0.62314
 C569 C 0.80682 0.57220 0.63213
 C570 C 0.78929 0.59017 0.61263
 C571 C 0.87166 0.55311 0.58549
 C572 C 0.88199 0.55862 0.55681
 C573 C 0.86459 0.57629 0.53671
 C574 C 0.83708 0.58839 0.54566
 C575 C 0.87510 0.58161 0.50803
 C576 C 0.90266 0.56968 0.49939
 C577 C 0.92021 0.55226 0.51930
 C578 C 0.90957 0.54678 0.54799
 H579 H 0.78642 0.60926 0.56837
 H580 H 0.84702 0.54616 0.63868
 H581 H 0.79958 0.56742 0.65442
 H582 H 0.88503 0.53951 0.60088
 H583 H 0.82374 0.60203 0.53029
 H584 H 0.86205 0.59507 0.49231
 H585 H 0.91030 0.57425 0.47715
 H586 H 0.92278 0.53331 0.56359
 C587 C 0.71536 0.39809 1.06956
 C588 C 0.69073 0.41108 1.05465
 C589 C 0.68884 0.44356 1.05079
 C590 C 0.71158 0.46243 1.06178
 C591 C 0.73558 0.44938 1.07719
 C592 C 0.73761 0.41719 1.08142
 C593 C 0.66388 0.45675 1.03676
 C594 C 0.64028 0.43798 1.02739
 C595 C 0.64209 0.40551 1.03125
 C596 C 0.66752 0.39222 1.04442
 C597 C 0.61799 0.38697 1.02271
 C598 C 0.59193 0.40053 1.01145
 C599 C 0.58977 0.43281 1.00790
 C600 C 0.61437 0.45133 1.01529
 H601 H 0.71655 0.37325 1.07297
 H602 H 0.71049 0.48735 1.05900
 H603 H 0.75260 0.46453 1.08587
 H604 H 0.66239 0.48167 1.03400
 H605 H 0.66882 0.36733 1.04755
 H606 H 0.61896 0.36205 1.02550
 H607 H 0.57329 0.38578 1.00588
 H608 H 0.61284 0.47629 1.01297
 C609 C 0.19368 1.08482 -0.10476
 C610 C 0.16785 1.07109 -0.09322
 C611 C 0.16455 1.03857 -0.09374
 C612 C 0.18678 1.02048 -0.10675
 C613 C 0.21220 1.03444 -0.11874
 C614 C 0.21607 1.06662 -0.11741
 C615 C 0.13918 1.02472 -0.08121
 C616 C 0.11681 1.04307 -0.06871
 C617 C 0.11971 1.07567 -0.06920
 C618 C 0.14531 1.08943 -0.08117
 C619 C 0.09692 1.09403 -0.05766
 C620 C 0.07156 1.08030 -0.04552
 C621 C 0.06876 1.04794 -0.04415
 C622 C 0.09152 1.02940 -0.05580
 H623 H 0.19628 1.10974 -0.10409
 H624 H 0.18456 0.99554 -0.10754
 H625 H 0.22923 1.01999 -0.12834
 H626 H 0.13684 0.99975 -0.08123
 H627 H 0.14767 1.11441 -0.08113
 H628 H 0.09871 1.11904 -0.05802
 H629 H 0.05433 1.09501 -0.03662
 H630 H 0.08936 1.00442 -0.05513
 C631 C 0.31268 -0.09149 0.38692
 C632 C 0.33728 -0.07721 0.40016
 C633 C 0.33845 -0.04457 0.40162
 C634 C 0.31536 -0.02681 0.38910
 C635 C 0.29111 -0.04123 0.37563
 C636 C 0.28937 -0.07365 0.37475
 C637 C 0.36259 -0.03026 0.41563
 C638 C 0.38576 -0.04817 0.42787
 C639 C 0.38497 -0.08077 0.42571
 C640 C 0.36064 -0.09509 0.41203
 C641 C 0.40854 -0.09852 0.43730
 C642 C 0.43263 -0.08415 0.45108
 C643 C 0.43334 -0.05183 0.45390
 C644 C 0.40979 -0.03397 0.44220
 H645 H 0.31178 -0.11652 0.38595
 H646 H 0.31596 -0.00177 0.38990
 H647 H 0.27336 -0.02699 0.36652
 H648 H 0.36334 -0.00524 0.41703
 H649 H 0.35988 -0.12011 0.41066
 H650 H 0.40835 -0.12351 0.43571
 H651 H 0.45052 -0.09838 0.45994
 H652 H 0.41030 -0.00898 0.44397
 C653 C 0.59167 -0.23153 0.59799
 C654 C 0.58148 -0.20470 0.58333
 C655 C 0.58411 -0.20215 0.55235
 C656 C 0.59711 -0.22633 0.53663
 C657 C 0.60786 -0.25259 0.55148
 C658 C 0.60525 -0.25541 0.58221
 C659 C 0.57421 -0.17530 0.53764
 C660 C 0.56244 -0.15058 0.55358
 C661 C 0.56018 -0.15292 0.58459
 C662 C 0.56936 -0.18012 0.59923
 C663 C 0.54921 -0.12780 0.60047
 C664 C 0.54086 -0.10047 0.58583
 C665 C 0.54285 -0.09797 0.55500
 C666 C 0.55342 -0.12330 0.53899
 H667 H 0.58995 -0.23334 0.62176
 H668 H 0.59936 -0.22474 0.51290
 H669 H 0.61811 -0.27080 0.53888
 H670 H 0.57620 -0.17340 0.51388
 H671 H 0.56758 -0.18193 0.62302
 H672 H 0.54740 -0.12915 0.62425
 H673 H 0.53270 -0.08130 0.59863
 H674 H 0.55532 -0.12152 0.51523
 C675 C 1.10147 0.73666 0.39492
 C676 C 1.09264 0.70936 0.40955
 C677 C 1.11175 0.69562 0.43087
 C678 C 1.13913 0.70951 0.43739
 C679 C 1.14779 0.73656 0.42267
 C680 C 1.12922 0.75033 0.40117
 C681 C 1.10335 0.66808 0.44514
 C682 C 1.07616 0.65391 0.43826
 C683 C 1.05688 0.66767 0.41714
 C684 C 1.06520 0.69538 0.40295
 C685 C 1.02971 0.65327 0.41040
 C686 C 1.02192 0.62530 0.42419
 C687 C 1.04114 0.61126 0.44496
 C688 C 1.06816 0.62594 0.45200
 H689 H 1.08694 0.74680 0.37830
 H690 H 1.15397 0.69934 0.45376
 H691 H 1.16908 0.74667 0.42830
 H692 H 1.11812 0.65750 0.46139
 H693 H 1.05050 0.70589 0.38662
 H694 H 1.01462 0.66350 0.39431
 H695 H 1.00096 0.61453 0.41837
 H696 H 1.08321 0.61548 0.46803
 C697 C -0.10800 1.22235 0.10359
 C698 C -0.09437 1.19451 0.09555
 C699 C -0.08587 1.17267 0.11752
 C700 C -0.09049 1.17955 0.14727
 C701 C -0.10344 1.20771 0.15513
 C702 C -0.11257 1.22916 0.13337
 C703 C -0.07288 1.14445 0.10936
 C704 C -0.06779 1.13809 0.07953
 C705 C -0.07550 1.16048 0.05775
 C706 C -0.08894 1.18835 0.06586
 C707 C -0.06980 1.15463 0.02808
 C708 C -0.05705 1.12666 0.01986
 C709 C -0.04998 1.10374 0.04108
 C710 C -0.05526 1.10970 0.07102
 H711 H -0.11450 1.23901 0.08668
 H712 H -0.08399 1.16322 0.16445
 H713 H -0.10677 1.21253 0.17822
 H714 H -0.06671 1.12753 0.12618
 H715 H -0.09513 1.20527 0.04904
 H716 H -0.07544 1.17160 0.01115
 H717 H -0.05339 1.12272 -0.00335
 H718 H -0.04980 1.09229 0.08759
 C719 C 0.39661 0.26645 0.89134
 C720 C 0.40807 0.29211 0.90614
 C721 C 0.40645 0.29321 0.93721
 C722 C 0.39249 0.26905 0.95282
 C723 C 0.38041 0.24395 0.93780
 C724 C 0.38273 0.24229 0.90705
 C725 C 0.41863 0.31850 0.95211
 C726 C 0.43162 0.34309 0.93625
 C727 C 0.43223 0.34244 0.90511
 C728 C 0.42087 0.31676 0.89029
 C729 C 0.44399 0.36765 0.88926
 C730 C 0.45501 0.39332 0.90409
 C731 C 0.45521 0.39384 0.93499
 C732 C 0.44364 0.36857 0.95100
 H733 H 0.39804 0.26550 0.86754
 H734 H 0.39085 0.26960 0.97661
 H735 H 0.36983 0.22548 0.95028
 H736 H 0.41771 0.31919 0.97596
 H737 H 0.42169 0.31612 0.86643
 H738 H 0.44444 0.36762 0.86540
 H739 H 0.46385 0.41263 0.89142
 H740 H 0.44337 0.36910 0.97487
 C741 C 0.59631 0.59291 0.78161
 C742 C 0.58686 0.57914 0.80815
 C743 C 0.60682 0.57694 0.83229
 C744 C 0.63588 0.58844 0.82943
 C745 C 0.64523 0.60170 0.80281
 C746 C 0.62561 0.60401 0.77867
 C747 C 0.59749 0.56311 0.85881
 C748 C 0.56852 0.55121 0.86144
 C749 C 0.54864 0.55320 0.83723
 C750 C 0.55789 0.56723 0.81078
 C751 C 0.51977 0.54114 0.83991
 C752 C 0.51054 0.52748 0.86640
 C753 C 0.53000 0.52562 0.89073
 C754 C 0.55909 0.53744 0.88797
 H755 H 0.58107 0.59420 0.76305
 H756 H 0.65146 0.58697 0.84770
 H757 H 0.66784 0.61029 0.80118
 H758 H 0.61279 0.56151 0.87734
 H759 H 0.54261 0.56880 0.79224
 H760 H 0.50426 0.54240 0.82157
 H761 H 0.48801 0.51861 0.86788
 H762 H 0.57434 0.53619 0.90654
 C763 C 0.39176 0.06890 0.70719
 C764 C 0.40950 0.05947 0.68345
 C765 C 0.44083 0.05763 0.68697
 C766 C 0.45393 0.06561 0.71386
 C767 C 0.43626 0.07590 0.73694
 C768 C 0.40515 0.07762 0.73384
 C769 C 0.45870 0.04840 0.66343
 C770 C 0.44581 0.04183 0.63608
 C771 C 0.41459 0.04423 0.63223
 C772 C 0.39656 0.05262 0.65608
 C773 C 0.40203 0.03854 0.60447
 C774 C 0.42024 0.03065 0.58076
 C775 C 0.45125 0.02780 0.58454
 C776 C 0.46382 0.03333 0.61236
 H777 H 0.36777 0.07058 0.70462
 H778 H 0.47789 0.06442 0.71688
 H779 H 0.44692 0.08243 0.75738
 H780 H 0.48269 0.04687 0.66626
 H781 H 0.37259 0.05434 0.65319
 H782 H 0.37816 0.04038 0.60104
 H783 H 0.41003 0.02643 0.55953
 H784 H 0.48775 0.03152 0.61548
 C785 C 0.10311 0.94056 0.21374
 C786 C 0.08525 0.95018 0.18990
 C787 C 0.05403 0.95276 0.19349
 C788 C 0.04124 0.94544 0.22085
 C789 C 0.05912 0.93503 0.24424
 C790 C 0.09013 0.93248 0.24087
 C791 C 0.03608 0.96192 0.16955
 C792 C 0.04884 0.96761 0.14183
 C793 C 0.08002 0.96459 0.13818
 C794 C 0.09806 0.95636 0.16232
 C795 C 0.09260 0.96928 0.11027
 C796 C 0.07444 0.97646 0.08607
 C797 C 0.04347 0.97967 0.08946
 C798 C 0.03084 0.97556 0.11752
 H799 H 0.12698 0.93816 0.21082
 H800 H 0.01736 0.94720 0.22399
 H801 H 0.04871 0.92899 0.26502
 H802 H 0.01214 0.96393 0.17231
 H803 H 0.12197 0.95408 0.15950
 H804 H 0.11643 0.96698 0.10706
 H805 H 0.08467 0.97966 0.06468
 H806 H 0.00692 0.97771 0.12029
 C807 C 0.91096 0.42129 0.28408
 C808 C 0.92227 0.43698 0.30850
 C809 C 0.90779 0.46387 0.31856
 C810 C 0.88228 0.47472 0.30370
 C811 C 0.87108 0.45888 0.27935
 C812 C 0.88517 0.43189 0.26940
 C813 C 0.91891 0.47923 0.34340
 C814 C 0.94421 0.46782 0.35838
 C815 C 0.95867 0.44098 0.34801
 C816 C 0.94774 0.42589 0.32313
 C817 C 0.98369 0.42931 0.36292
 C818 C 0.99406 0.44363 0.38824
 C819 C 0.97983 0.47011 0.39914
 C820 C 0.95505 0.48239 0.38382
 H821 H 0.92242 0.40084 0.27655
 H822 H 0.87084 0.49529 0.31103
 H823 H 0.85113 0.46760 0.26863
 H824 H 0.90772 0.49978 0.35123
 H825 H 0.95885 0.40525 0.31537
 H826 H 0.99504 0.40883 0.35521
 H827 H 1.01331 0.43376 0.39941
 H828 H 0.94383 0.50273 0.39205
   
