data_POSCAR
  _audit_creation_date              2014-09-24
  _audit_creation_method            'ToBaCCo'
  _symmetry_space_group_name_H-M    'P1'
  _symmetry_Int_Tables_number       1
  _symmetry_cell_setting            triclinic
  loop_
  _symmetry_equiv_pos_as_xyz
 x,y,z
_cell_length_a 37.6118
_cell_length_b 18.3566
_cell_length_c 13.9232
_cell_angle_alpha 90.053900
_cell_angle_beta 89.879600
_cell_angle_gamma 90.088100
loop_
  _atom_site_label
  _atom_site_type_symbol
  _atom_site_fract_x
  _atom_site_fract_y
  _atom_site_fract_z
C1 C 0.65891 0.31214 0.50736
 C2 C 0.67758 0.30848 0.59444
 C3 C 0.71378 0.28885 0.59229
 C4 C 0.73043 0.26556 0.50658
 C5 C 0.70990 0.26424 0.42192
 C6 C 0.67466 0.28937 0.42126
 C7 C 0.76873 0.24149 0.50576
 C8 C 0.78894 0.24180 0.42008
 C9 C 0.82396 0.21438 0.41734
 C10 C 0.83983 0.19222 0.50378
 C11 C 0.82148 0.19785 0.59108
 C12 C 0.78558 0.21830 0.59075
 H13 H 0.63128 0.32890 0.50692
 H14 H 0.72901 0.29313 0.65749
 H15 H 0.72108 0.24383 0.35583
 H16 H 0.77728 0.26257 0.35512
 H17 H 0.86729 0.17436 0.50412
 H18 H 0.77107 0.21544 0.65755
 C19 C 0.15561 0.80095 0.50625
 C20 C 0.17129 0.77849 0.59278
 C21 C 0.20626 0.75097 0.59047
 C22 C 0.22668 0.75156 0.50525
 C23 C 0.20999 0.77468 0.41990
 C24 C 0.17408 0.79534 0.41912
 C25 C 0.26498 0.72753 0.50551
 C26 C 0.28181 0.70390 0.42048
 C27 C 0.31786 0.68439 0.41962
 C28 C 0.33635 0.68000 0.50664
 C29 C 0.32047 0.70257 0.59311
 C30 C 0.28531 0.72914 0.59068
 H31 H 0.12818 0.81897 0.50568
 H32 H 0.21774 0.72987 0.65548
 H33 H 0.22462 0.77729 0.35329
 H34 H 0.26719 0.70031 0.35408
 H35 H 0.36392 0.66289 0.50599
 H36 H 0.27367 0.75056 0.65548
 C37 C 0.34057 0.29642 -0.49784
 C38 C 0.32174 0.29296 -0.58421
 C39 C 0.28545 0.27490 -0.58248
 C40 C 0.26841 0.25347 -0.49638
 C41 C 0.28890 0.25258 -0.41141
 C42 C 0.32446 0.27609 -0.41129
 C43 C 0.22983 0.23096 -0.49547
 C44 C 0.20964 0.23207 -0.40974
 C45 C 0.17430 0.20621 -0.40702
 C46 C 0.15815 0.18481 -0.49349
 C47 C 0.17652 0.18970 -0.58080
 C48 C 0.21266 0.20858 -0.58049
 H49 H 0.36843 0.31162 -0.49851
 H50 H 0.27087 0.27842 -0.64892
 H51 H 0.27753 0.23383 -0.34469
 H52 H 0.22152 0.25228 -0.34470
 H53 H 0.13048 0.16818 -0.49384
 H54 H 0.22706 0.20513 -0.64737
 C55 C -0.16258 0.80858 -0.49745
 C56 C -0.17868 0.78716 -0.58399
 C57 C -0.21401 0.76132 -0.58153
 C58 C -0.23426 0.76244 -0.49602
 C59 C -0.21715 0.78476 -0.41079
 C60 C -0.18100 0.80369 -0.41022
 C61 C -0.27283 0.73986 -0.49563
 C62 C -0.28992 0.71828 -0.40975
 C63 C -0.32617 0.70009 -0.40831
 C64 C -0.34493 0.69652 -0.49478
 C65 C -0.32879 0.71691 -0.58126
 C66 C -0.29325 0.74065 -0.58082
 H67 H -0.13491 0.82523 -0.49699
 H68 H -0.22583 0.74112 -0.64664
 H69 H -0.23160 0.78812 -0.34398
 H70 H -0.27539 0.71476 -0.34322
 H71 H -0.37278 0.68119 -0.49425
 H72 H -0.28183 0.75951 -0.64744
 N73 N 0.03702 1.12428 -0.09602
 N74 N 0.06434 1.16888 -0.10560
 N75 N -0.03734 1.07609 -0.16848
 N76 N -0.06525 1.08250 -0.22516
 N77 N -0.03812 1.12551 -0.10021
 N78 N -0.06690 1.16614 -0.10773
 N79 N 0.03722 1.07472 -0.16409
 N80 N 0.06439 1.08498 -0.22287
 C81 C 0.08105 1.14381 -0.18511
 C82 C -0.08330 1.13900 -0.18646
 N83 N -0.03981 0.86991 -0.10057
 N84 N -0.06907 0.83055 -0.10839
 N85 N 0.03616 0.91705 -0.16428
 N86 N 0.06314 0.90532 -0.22318
 N87 N 0.03530 0.86755 -0.09630
 N88 N 0.06195 0.82148 -0.10605
 N89 N -0.03839 0.91929 -0.16871
 N90 N -0.06633 0.91411 -0.22557
 Mn91 Mn -0.00051 0.99679 -0.16757
 C92 C -0.08509 0.85841 -0.18715
 C93 C 0.07895 0.84563 -0.18555
 N94 N -0.03985 1.12608 0.10607
 N95 N -0.06658 1.17197 0.11580
 N96 N 0.03387 1.07439 0.17840
 N97 N 0.06184 1.07952 0.23513
 N98 N 0.03528 1.12377 0.11026
 N99 N 0.06454 1.16309 0.11793
 N100 N -0.04068 1.07655 0.17403
 N101 N -0.06770 1.08809 0.23286
 Mn102 Mn -0.00141 1.12584 0.00503
 C103 C -0.08360 1.14770 0.19526
 C104 C 0.08059 1.13520 0.19660
 N105 N 0.03372 0.86816 0.10994
 N106 N 0.06252 0.82755 0.11749
 N107 N -0.04164 0.91888 0.17379
 N108 N -0.06883 0.90859 0.23248
 N109 N -0.04143 0.86937 0.10567
 N110 N -0.06873 0.82475 0.11511
 N111 N 0.03293 0.91758 0.17821
 N112 N 0.06084 0.91118 0.23490
 Mn113 Mn -0.00306 0.86783 0.00469
 Mn114 Mn -0.00396 0.99685 0.17728
 Cl115 Cl -0.00223 0.99683 0.00486
 C116 C 0.07892 0.85469 0.19624
 C117 C -0.08546 0.84978 0.19458
 N118 N 0.53274 0.62652 -0.10177
 N119 N 0.56157 0.66732 -0.10850
 N120 N 0.45770 0.57336 -0.16463
 N121 N 0.43059 0.58320 -0.22341
 N122 N 0.45765 0.62282 -0.09646
 N123 N 0.43024 0.66696 -0.10598
 N124 N 0.53225 0.57716 -0.17016
 N125 N 0.56043 0.58385 -0.22616
 C126 C 0.57830 0.64043 -0.18693
 C127 C 0.41371 0.64166 -0.18550
 N128 N 0.46109 0.36597 -0.09750
 N129 N 0.43484 0.31882 -0.10704
 N130 N 0.53422 0.42022 -0.17107
 N131 N 0.56240 0.41682 -0.22759
 N132 N 0.53620 0.37110 -0.10273
 N133 N 0.56614 0.33402 -0.10975
 N134 N 0.45965 0.41587 -0.16487
 N135 N 0.43254 0.40356 -0.22286
 Mn136 Mn 0.49587 0.49664 -0.16890
 C137 C 0.41732 0.34297 -0.18545
 C138 C 0.58191 0.36263 -0.18862
 N139 N 0.45953 0.62197 0.10971
 N140 N 0.42991 0.65995 0.11762
 N141 N 0.53600 0.57715 0.17161
 N142 N 0.56308 0.58945 0.22970
 N143 N 0.53458 0.62705 0.10425
 N144 N 0.56084 0.67422 0.11393
 N145 N 0.46137 0.57259 0.17774
 N146 N 0.43331 0.57643 0.23468
 Mn147 Mn 0.49610 0.62550 0.00392
 C148 C 0.41407 0.63131 0.19636
 C149 C 0.57833 0.65005 0.19242
 N150 N 0.53785 0.36999 0.10328
 N151 N 0.56484 0.32492 0.11371
 N152 N 0.46337 0.41575 0.17694
 N153 N 0.43522 0.40907 0.23308
 N154 N 0.46281 0.36645 0.10849
 N155 N 0.43397 0.32568 0.11536
 N156 N 0.53801 0.41975 0.17104
 N157 N 0.56497 0.40947 0.23015
 Mn158 Mn 0.49950 0.36747 0.00286
 Mn159 Mn 0.49977 0.49632 0.17556
 Cl160 Cl 0.49781 0.49649 0.00336
 C161 C 0.58148 0.35029 0.19296
 C162 C 0.41729 0.35253 0.19393
 C163 C 0.34103 0.30348 0.32410
 C164 C 0.33140 0.27256 0.23734
 C165 C 0.35888 0.28704 0.17616
 C166 C 0.38299 0.32615 0.22982
 O167 O 0.37237 0.33617 0.31931
 H168 H 0.30803 0.24031 0.22158
 H169 H 0.36129 0.27041 0.10183
 C170 C -0.15911 0.79115 0.32971
 C171 C -0.16870 0.76043 0.24241
 C172 C -0.14182 0.77723 0.18049
 C173 C -0.11817 0.81789 0.23345
 O174 O -0.12835 0.82626 0.32359
 H175 H -0.19191 0.72824 0.22507
 H176 H -0.13988 0.76249 0.10537
 C177 C 0.65016 0.71416 0.32913
 C178 C 0.65610 0.75635 0.24847
 C179 C 0.62971 0.73795 0.18586
 C180 C 0.60990 0.68564 0.23261
 O181 O 0.62211 0.67119 0.31934
 H182 H 0.67659 0.79688 0.23722
 H183 H 0.62537 0.76002 0.11480
 C184 C 0.15703 1.18044 0.32767
 C185 C 0.16693 1.21183 0.24133
 C186 C 0.13945 1.19869 0.18008
 C187 C 0.11502 1.15993 0.23317
 O188 O 0.12544 1.14881 0.32253
 H189 H 0.19051 1.24357 0.22583
 H190 H 0.13725 1.21605 0.10606
 C191 C 0.65935 0.32057 -0.31844
 C192 C 0.67178 0.30309 -0.22757
 C193 C 0.64405 0.31577 -0.16660
 C194 C 0.61708 0.34127 -0.22390
 O195 O 0.62611 0.34432 -0.31550
 H196 H 0.69723 0.28044 -0.20755
 H197 H 0.64351 0.30742 -0.08965
 C198 C 0.15171 0.78325 -0.32102
 C199 C 0.16083 0.75180 -0.23389
 C200 C 0.13419 0.76994 -0.17192
 C201 C 0.11117 0.81200 -0.22466
 O202 O 0.12148 0.82001 -0.31474
 H203 H 0.18355 0.71832 -0.21669
 H204 H 0.13203 0.75515 -0.09689
 C205 C 0.34009 0.69916 -0.32078
 C206 C 0.33057 0.73057 -0.23375
 C207 C 0.35742 0.71420 -0.17191
 C208 C 0.38100 0.67313 -0.22457
 O209 O 0.37079 0.66406 -0.31452
 H210 H 0.30742 0.76290 -0.21650
 H211 H 0.35937 0.72954 -0.09703
 C212 C -0.15916 1.18766 -0.31740
 C213 C -0.16870 1.21941 -0.23095
 C214 C -0.14139 1.20505 -0.16973
 C215 C -0.11742 1.16526 -0.22294
 O216 O -0.12797 1.15466 -0.31234
 H217 H -0.19190 1.25215 -0.21536
 H218 H -0.13899 1.22225 -0.09564
 C219 C 0.65452 0.68959 -0.31672
 C220 C 0.66408 0.72069 -0.23000
 C221 C 0.63660 0.70614 -0.16891
 C222 C 0.61258 0.66685 -0.22262
 O223 O 0.62324 0.65676 -0.31202
 H224 H 0.68740 0.75310 -0.21423
 H225 H 0.63412 0.72286 -0.09463
 C226 C 0.15475 1.20222 -0.32061
 C227 C 0.16440 1.23289 -0.23332
 C228 C 0.13751 1.21620 -0.17131
 C229 C 0.11380 1.17564 -0.22416
 O230 O 0.12395 1.16722 -0.31437
 H231 H 0.18765 1.26497 -0.21607
 H232 H 0.13563 1.23095 -0.09619
 C233 C 0.34553 0.27875 -0.32184
 C234 C 0.33966 0.23646 -0.24125
 C235 C 0.36605 0.25491 -0.17870
 C236 C 0.38578 0.30734 -0.22547
 O237 O 0.37354 0.32182 -0.31211
 H238 H 0.31921 0.19583 -0.23000
 H239 H 0.37045 0.23280 -0.10768
 C240 C -0.16152 0.81304 -0.31859
 C241 C -0.17147 0.78179 -0.23221
 C242 C -0.14401 0.79496 -0.17087
 C243 C -0.11952 0.83363 -0.22392
 O244 O -0.12991 0.84464 -0.31337
 H245 H -0.19507 0.75013 -0.21671
 H246 H -0.14186 0.77770 -0.09680
 C247 C 0.33724 0.67440 0.32780
 C248 C 0.32706 0.70444 0.24101
 C249 C 0.35460 0.69174 0.17959
 C250 C 0.37937 0.65452 0.23300
 O251 O 0.36908 0.64394 0.32271
 H252 H 0.30328 0.73523 0.22526
 H253 H 0.35666 0.70852 0.10528
 C254 C -0.15653 1.20953 0.33094
 C255 C -0.16579 1.24066 0.24375
 C256 C -0.13912 1.22274 0.18168
 C257 C -0.11593 1.18107 0.23442
 O258 O -0.12618 1.17311 0.32460
 H259 H -0.18863 1.27382 0.22658
 H260 H -0.13706 1.23741 0.10660
 C261 C 0.65354 0.29049 0.33166
 C262 C 0.65973 0.24738 0.25187
 C263 C 0.63339 0.26432 0.18870
 C264 C 0.61328 0.31665 0.23425
 O265 O 0.62529 0.33258 0.32083
 H266 H 0.68035 0.20711 0.24143
 H267 H 0.62921 0.24113 0.11811
 C268 C 0.15481 0.80584 0.32744
 C269 C 0.16442 0.77441 0.24086
 C270 C 0.13713 0.78887 0.17956
 C271 C 0.11308 0.82842 0.23282
 O272 O 0.12357 0.83877 0.32235
 H273 H 0.18766 0.74180 0.22522
 H274 H 0.13480 0.77189 0.10537
   
