data_POSCAR
  _audit_creation_date              2014-09-24
  _audit_creation_method            'ToBaCCo'
  _symmetry_space_group_name_H-M    'P1'
  _symmetry_Int_Tables_number       1
  _symmetry_cell_setting            triclinic
  loop_
  _symmetry_equiv_pos_as_xyz
 x,y,z
_cell_length_a 29.7162
_cell_length_b 30.5071
_cell_length_c 31.0153
_cell_angle_alpha 90.183400
_cell_angle_beta 90.003600
_cell_angle_gamma 89.936300
loop_
  _atom_site_label
  _atom_site_type_symbol
  _atom_site_fract_x
  _atom_site_fract_y
  _atom_site_fract_z
N1 N 0.29353 0.19299 0.18168
 N2 N 0.27419 0.22102 0.15549
 C3 C 0.30197 0.22920 0.12221
 C4 C 0.34080 0.20466 0.12774
 C5 C 0.33414 0.18203 0.16584
 H6 H 0.29444 0.25138 0.09605
 H7 H 0.35736 0.15976 0.18129
 Cu8 Cu 0.21536 0.24517 0.16826
 Cu9 Cu 0.26462 0.17249 0.23415
 Cu10 Cu 0.15723 0.21229 0.25492
 N11 N 0.16711 0.28050 0.19233
 N12 N 0.14413 0.26759 0.22614
 C13 C 0.11350 0.29849 0.23629
 C14 C 0.11777 0.33294 0.20742
 C15 C 0.15220 0.32012 0.17993
 H16 H 0.09042 0.29612 0.26311
 H17 H 0.16629 0.33850 0.15344
 N18 N 0.18718 0.16824 0.29140
 N19 N 0.22908 0.15535 0.28491
 C20 C 0.24148 0.12862 0.31721
 C21 C 0.20561 0.12411 0.34510
 C22 C 0.17158 0.14948 0.32772
 H23 H 0.27410 0.11318 0.32018
 H24 H 0.13862 0.15522 0.34142
 H25 H 0.20032 0.17959 0.21214
 H26 H 0.22325 0.22653 0.24381
 N27 N 0.70632 -0.19347 0.18080
 N28 N 0.72447 -0.22344 0.15581
 C29 C 0.69614 -0.23248 0.12312
 C30 C 0.65808 -0.20626 0.12754
 C31 C 0.66613 -0.18180 0.16461
 H32 H 0.70310 -0.25623 0.09807
 H33 H 0.64412 -0.15800 0.17955
 Cu34 Cu 0.78296 -0.24829 0.16893
 Cu35 Cu 0.73555 -0.17239 0.23298
 Cu36 Cu 0.84151 -0.21466 0.25532
 N37 N 0.83101 -0.28363 0.19318
 N38 N 0.85386 -0.27057 0.22708
 C39 C 0.88436 -0.30145 0.23740
 C40 C 0.88030 -0.33619 0.20845
 C41 C 0.84598 -0.32330 0.18074
 H42 H 0.90730 -0.29860 0.26429
 H43 H 0.83201 -0.34146 0.15395
 N44 N 0.81248 -0.16908 0.29091
 N45 N 0.77112 -0.15502 0.28374
 C46 C 0.75904 -0.12758 0.31574
 C47 C 0.79458 -0.12383 0.34414
 C48 C 0.82808 -0.15036 0.32738
 H49 H 0.72678 -0.11136 0.31831
 H50 H 0.86055 -0.15704 0.34170
 H51 H 0.79975 -0.18203 0.21165
 H52 H 0.77513 -0.22741 0.24405
 N53 N 0.70749 0.19536 0.81870
 N54 N 0.72675 0.22350 0.84498
 C55 C 0.69902 0.23153 0.87843
 C56 C 0.66035 0.20675 0.87289
 C57 C 0.66705 0.18419 0.83463
 H58 H 0.70648 0.25373 0.90471
 H59 H 0.64396 0.16178 0.81911
 Cu60 Cu 0.78544 0.24790 0.83207
 Cu61 Cu 0.73624 0.17480 0.76610
 Cu62 Cu 0.84280 0.21551 0.74441
 N63 N 0.83328 0.28347 0.80778
 N64 N 0.85555 0.27097 0.77332
 C65 C 0.88567 0.30210 0.76289
 C66 C 0.88196 0.33644 0.79235
 C67 C 0.84827 0.32302 0.82050
 H68 H 0.90805 0.29974 0.73552
 H69 H 0.83462 0.34081 0.84769
 N70 N 0.81317 0.17086 0.70822
 N71 N 0.77150 0.15761 0.71508
 C72 C 0.75919 0.13036 0.68304
 C73 C 0.79491 0.12586 0.65493
 C74 C 0.82874 0.15179 0.67190
 H75 H 0.72678 0.11451 0.68040
 H76 H 0.86154 0.15764 0.65796
 H77 H 0.80071 0.18249 0.78757
 H78 H 0.77682 0.22922 0.75644
 N79 N 0.29360 -0.19464 0.81839
 N80 N 0.27399 -0.22228 0.84478
 C81 C 0.30167 -0.23035 0.87820
 C82 C 0.34067 -0.20614 0.87255
 C83 C 0.33422 -0.18385 0.83423
 H84 H 0.29396 -0.25222 0.90455
 H85 H 0.35759 -0.16190 0.81863
 Cu86 Cu 0.21495 -0.24611 0.83206
 Cu87 Cu 0.26505 -0.17420 0.76574
 Cu88 Cu 0.15842 -0.21456 0.74383
 N89 N 0.16678 -0.28154 0.80793
 N90 N 0.14518 -0.26955 0.77297
 C91 C 0.11503 -0.30066 0.76242
 C92 C 0.11788 -0.33439 0.79241
 C93 C 0.15113 -0.32068 0.82098
 H94 H 0.09302 -0.29860 0.73476
 H95 H 0.16423 -0.33816 0.84851
 N96 N 0.18828 -0.17030 0.70770
 N97 N 0.22995 -0.15710 0.71466
 C98 C 0.24233 -0.12994 0.68272
 C99 C 0.20663 -0.12546 0.65459
 C100 C 0.17276 -0.15132 0.67144
 H101 H 0.27474 -0.11410 0.68021
 H102 H 0.13994 -0.15711 0.65750
 H103 H 0.20045 -0.18122 0.78703
 H104 H 0.22424 -0.22851 0.75634
 N105 N 0.71745 -0.18058 0.83236
 N106 N 0.73041 -0.21707 0.85110
 C107 C 0.69988 -0.22846 0.88106
 C108 C 0.66643 -0.19695 0.88167
 C109 C 0.67877 -0.16679 0.85062
 H110 H 0.70153 -0.25781 0.90049
 H111 H 0.65977 -0.13840 0.84040
 Cu112 Cu 0.78526 -0.24717 0.83405
 Cu113 Cu 0.74965 -0.15681 0.78283
 Cu114 Cu 0.81806 -0.23338 0.73168
 N115 N 0.82618 -0.28800 0.80647
 N116 N 0.83558 -0.28446 0.76528
 C117 C 0.86127 -0.31861 0.75312
 C118 C 0.86920 -0.34482 0.78886
 C119 C 0.84644 -0.32402 0.82232
 H120 H 0.87469 -0.32287 0.72099
 H121 H 0.84333 -0.33493 0.85531
 N122 N 0.79759 -0.17886 0.70394
 N123 N 0.77251 -0.14917 0.72359
 C124 C 0.76542 -0.11540 0.69648
 C125 C 0.78759 -0.12410 0.65806
 C126 C 0.80754 -0.16460 0.66409
 H127 H 0.74585 -0.08655 0.70428
 H128 H 0.82770 -0.18250 0.64098
 H129 H 0.75894 -0.22045 0.76490
 H130 H 0.81079 -0.19118 0.78261
 N131 N 0.28359 0.18305 0.83179
 N132 N 0.27094 0.21973 0.85058
 C133 C 0.30170 0.23116 0.88038
 C134 C 0.33505 0.19952 0.88080
 C135 C 0.32233 0.16923 0.84979
 H136 H 0.30009 0.26046 0.90006
 H137 H 0.34094 0.14049 0.83965
 Cu138 Cu 0.21574 0.24949 0.83426
 Cu139 Cu 0.25048 0.15847 0.78306
 Cu140 Cu 0.17843 0.23270 0.73362
 N141 N 0.17342 0.28943 0.80758
 N142 N 0.16117 0.28408 0.76720
 C143 C 0.13442 0.31760 0.75557
 C144 C 0.12929 0.34520 0.79069
 C145 C 0.15436 0.32623 0.82330
 H146 H 0.11911 0.32126 0.72415
 H147 H 0.15940 0.33891 0.85554
 N148 N 0.19918 0.17828 0.70559
 N149 N 0.22583 0.14957 0.72457
 C150 C 0.23350 0.11598 0.69718
 C151 C 0.21015 0.12376 0.65926
 C152 C 0.18882 0.16354 0.66590
 H153 H 0.25452 0.08799 0.70435
 H154 H 0.16773 0.18081 0.64320
 H155 H 0.23935 0.22159 0.76451
 H156 H 0.18893 0.19184 0.78478
 N157 N 0.28295 -0.18184 0.16785
 N158 N 0.27012 -0.21840 0.14900
 C159 C 0.30079 -0.22999 0.11916
 C160 C 0.33424 -0.19855 0.11874
 C161 C 0.32172 -0.16822 0.14980
 H162 H 0.29910 -0.25931 0.09951
 H163 H 0.34052 -0.13967 0.16001
 Cu164 Cu 0.21493 -0.24796 0.16541
 Cu165 Cu 0.25015 -0.15732 0.21686
 Cu166 Cu 0.17837 -0.23161 0.26634
 N167 N 0.17279 -0.28791 0.19213
 N168 N 0.16088 -0.28278 0.23263
 C169 C 0.13430 -0.31635 0.24430
 C170 C 0.12892 -0.34374 0.20908
 C171 C 0.15366 -0.32462 0.17637
 H172 H 0.11931 -0.32020 0.27583
 H173 H 0.15848 -0.33716 0.14403
 N174 N 0.19930 -0.17739 0.29450
 N175 N 0.22584 -0.14863 0.27553
 C176 C 0.23359 -0.11517 0.30304
 C177 C 0.21042 -0.12311 0.34102
 C178 C 0.18911 -0.16283 0.33430
 H179 H 0.25453 -0.08716 0.29590
 H180 H 0.16813 -0.18017 0.35699
 H181 H 0.23908 -0.22049 0.23512
 H182 H 0.18855 -0.19047 0.21533
 N183 N 0.71745 0.18073 0.16852
 N184 N 0.73040 0.21712 0.14965
 C185 C 0.69976 0.22861 0.11982
 C186 C 0.66617 0.19730 0.11945
 C187 C 0.67861 0.16714 0.15052
 H188 H 0.70158 0.25777 0.10014
 H189 H 0.65973 0.13871 0.16074
 Cu190 Cu 0.78564 0.24666 0.16606
 Cu191 Cu 0.75032 0.15635 0.21740
 Cu192 Cu 0.82266 0.23055 0.26677
 N193 N 0.82780 0.28673 0.19282
 N194 N 0.84002 0.28162 0.23321
 C195 C 0.86661 0.31525 0.24491
 C196 C 0.87162 0.34269 0.20984
 C197 C 0.84667 0.32351 0.17718
 H198 H 0.88180 0.31913 0.27637
 H199 H 0.84153 0.33604 0.14497
 N200 N 0.80176 0.17644 0.29482
 N201 N 0.77495 0.14777 0.27591
 C202 C 0.76713 0.11447 0.30337
 C203 C 0.79056 0.12243 0.34126
 C204 C 0.81209 0.16199 0.33453
 H205 H 0.74596 0.08657 0.29628
 H206 H 0.83325 0.17931 0.35718
 H207 H 0.76174 0.21954 0.23581
 H208 H 0.81204 0.18925 0.21569
 C209 C 0.20658 -0.02219 0.49939
 C210 C 0.20632 0.02230 0.50123
 C211 C 0.20530 0.04895 0.46153
 C212 C 0.20687 0.04669 0.54274
 C213 C 0.20590 -0.04890 0.53904
 C214 C 0.20721 -0.04653 0.45785
 C215 C 0.24396 0.07178 0.44894
 C216 C 0.24402 0.09601 0.41087
 C217 C 0.20495 0.09888 0.38555
 C218 C 0.16580 0.07702 0.39888
 C219 C 0.16613 0.05173 0.43644
 C220 C 0.24171 0.04084 0.57280
 C221 C 0.24240 0.06521 0.61110
 C222 C 0.20870 0.09643 0.61966
 C223 C 0.17396 0.10219 0.58941
 C224 C 0.17312 0.07764 0.55136
 C225 C 0.16669 -0.05230 0.56397
 C226 C 0.16653 -0.07799 0.60126
 C227 C 0.20589 -0.09964 0.61450
 C228 C 0.24503 -0.09607 0.58940
 C229 C 0.24481 -0.07145 0.55158
 C230 C 0.17356 -0.07747 0.44919
 C231 C 0.17438 -0.10186 0.41105
 C232 C 0.20902 -0.09594 0.38073
 C233 C 0.24264 -0.06473 0.38934
 C234 C 0.24196 -0.04052 0.42774
 H235 H 0.27433 0.07004 0.46818
 H236 H 0.27447 0.11293 0.40145
 H237 H 0.13536 0.07870 0.37975
 H238 H 0.13597 0.03441 0.44603
 H239 H 0.26880 0.01804 0.56626
 H240 H 0.26994 0.06035 0.63342
 H241 H 0.14602 0.08277 0.52857
 H242 H 0.13633 -0.03522 0.55441
 H243 H 0.13603 -0.08019 0.62023
 H244 H 0.27565 -0.11281 0.59876
 H245 H 0.27521 -0.06926 0.53243
 H246 H 0.14651 -0.08270 0.47200
 H247 H 0.14766 -0.12522 0.40534
 H248 H 0.27009 -0.05975 0.36696
 H249 H 0.26897 -0.01767 0.43430
 H250 H 0.14719 0.12556 0.59508
 C251 C 0.79410 0.02222 0.49938
 C252 C 0.79392 -0.02226 0.50101
 C253 C 0.79284 -0.04665 0.54237
 C254 C 0.79489 -0.04891 0.46115
 C255 C 0.79354 0.04644 0.45793
 C256 C 0.79505 0.04905 0.53910
 C257 C 0.82576 -0.07846 0.55067
 C258 C 0.82427 -0.10317 0.58844
 C259 C 0.78972 -0.09665 0.61876
 C260 C 0.75687 -0.06455 0.61058
 C261 C 0.75817 -0.04006 0.57252
 C262 C 0.83426 -0.05223 0.43640
 C263 C 0.83457 -0.07744 0.39864
 C264 C 0.79520 -0.09864 0.38476
 C265 C 0.75593 -0.09523 0.40972
 C266 C 0.75600 -0.07111 0.44801
 C267 C 0.75853 0.04070 0.42801
 C268 C 0.75792 0.06471 0.38965
 C269 C 0.79188 0.09547 0.38092
 C270 C 0.82677 0.10116 0.41106
 C271 C 0.82751 0.07695 0.44916
 C272 C 0.75645 0.07223 0.55153
 C273 C 0.75645 0.09698 0.58942
 C274 C 0.79554 0.10006 0.61468
 C275 C 0.83463 0.07783 0.60154
 C276 C 0.83422 0.05199 0.56418
 H277 H 0.85271 -0.08420 0.52782
 H278 H 0.85040 -0.12724 0.59386
 H279 H 0.72949 -0.05912 0.63300
 H280 H 0.73164 -0.01662 0.56621
 H281 H 0.86460 -0.03538 0.44641
 H282 H 0.86517 -0.07958 0.37978
 H283 H 0.72547 -0.06894 0.46699
 H284 H 0.73127 0.01822 0.43469
 H285 H 0.73027 0.05995 0.36742
 H286 H 0.85373 0.12420 0.40524
 H287 H 0.85475 0.08197 0.47185
 H288 H 0.72610 0.07042 0.53226
 H289 H 0.72604 0.11417 0.59872
 H290 H 0.86507 0.07967 0.62065
 H291 H 0.86436 0.03445 0.55468
 H292 H 0.72530 -0.11165 0.39986
 C293 C 0.50017 0.20211 -0.02160
 C294 C 0.50097 0.20152 0.02213
 C295 C 0.45913 0.20195 0.04807
 C296 C 0.54387 0.20017 0.04622
 C297 C 0.54203 0.20296 -0.04748
 C298 C 0.45730 0.20120 -0.04577
 C299 C 0.42920 0.23747 0.04594
 C300 C 0.39033 0.23808 0.07128
 C301 C 0.38118 0.20351 0.09982
 C302 C 0.41146 0.16816 0.10210
 C303 C 0.45007 0.16742 0.07646
 C304 C 0.56181 0.23894 0.06333
 C305 C 0.60218 0.23804 0.08636
 C306 C 0.62428 0.19810 0.09396
 C307 C 0.60580 0.15914 0.07751
 C308 C 0.56612 0.16026 0.05323
 C309 C 0.55141 0.16863 -0.07623
 C310 C 0.59005 0.16971 -0.10179
 C311 C 0.62006 0.20522 -0.09910
 C312 C 0.61062 0.23957 -0.07016
 C313 C 0.57170 0.23862 -0.04486
 C314 C 0.43477 0.16150 -0.05314
 C315 C 0.39510 0.16079 -0.07745
 C316 C 0.37689 0.19994 -0.09360
 C317 C 0.39927 0.23967 -0.08564
 C318 C 0.43962 0.24017 -0.06257
 H319 H 0.43631 0.26507 0.02519
 H320 H 0.36808 0.26610 0.06924
 H321 H 0.40525 0.14086 0.12346
 H322 H 0.47282 0.13978 0.07870
 H323 H 0.54470 0.26990 0.05848
 H324 H 0.61558 0.26842 0.09911
 H325 H 0.55243 0.13004 0.04034
 H326 H 0.52885 0.14090 -0.07882
 H327 H 0.59648 0.14254 -0.12344
 H328 H 0.63266 0.26768 -0.06776
 H329 H 0.56436 0.26604 -0.02377
 H330 H 0.44824 0.13114 -0.04051
 H331 H 0.37832 0.12982 -0.08315
 H332 H 0.38608 0.27020 -0.09815
 H333 H 0.45693 0.27097 -0.05742
 H334 H 0.62238 0.12801 0.08294
 C335 C 0.49992 0.79745 0.02209
 C336 C 0.50084 0.79768 -0.02171
 C337 C 0.45902 0.79695 -0.04773
 C338 C 0.54369 0.79939 -0.04591
 C339 C 0.54163 0.79677 0.04846
 C340 C 0.45678 0.79865 0.04589
 C341 C 0.42888 0.76168 -0.04506
 C342 C 0.38999 0.76096 -0.07040
 C343 C 0.38102 0.79512 -0.09947
 C344 C 0.41152 0.83020 -0.10228
 C345 C 0.45014 0.83107 -0.07667
 C346 C 0.56008 0.76144 -0.06609
 C347 C 0.60061 0.76253 -0.08884
 C348 C 0.62433 0.80202 -0.09324
 C349 C 0.60728 0.84031 -0.07400
 C350 C 0.56749 0.83886 -0.04988
 C351 C 0.54792 0.82822 0.08091
 C352 C 0.58620 0.82724 0.10696
 C353 C 0.61955 0.79485 0.10100
 C354 C 0.61301 0.76333 0.06824
 C355 C 0.57417 0.76390 0.04284
 C356 C 0.43371 0.83834 0.05192
 C357 C 0.39394 0.83943 0.07607
 C358 C 0.37614 0.80063 0.09330
 C359 C 0.39899 0.76088 0.08658
 C360 C 0.43948 0.76006 0.06373
 H361 H 0.43582 0.73438 -0.02386
 H362 H 0.36757 0.73315 -0.06792
 H363 H 0.40548 0.85722 -0.12405
 H364 H 0.47308 0.85849 -0.07933
 H365 H 0.54179 0.73086 -0.06358
 H366 H 0.61295 0.73273 -0.10380
 H367 H 0.55494 0.86849 -0.03475
 H368 H 0.52318 0.85379 0.08607
 H369 H 0.58954 0.85247 0.13128
 H370 H 0.63706 0.73729 0.06275
 H371 H 0.56924 0.73815 0.01925
 H372 H 0.44690 0.86843 0.03849
 H373 H 0.37677 0.87040 0.08083
 H374 H 0.38608 0.73064 0.09992
 H375 H 0.45718 0.72927 0.05958
 H376 H 0.62512 0.87108 -0.07708
 C377 C 0.02245 0.49856 0.20612
 C378 C -0.02318 0.50119 0.20631
 C379 C -0.05121 0.46121 0.20632
 C380 C -0.04734 0.54378 0.20689
 C381 C 0.05084 0.53829 0.20581
 C382 C 0.04623 0.45585 0.20660
 C383 C -0.05507 0.43514 0.16919
 C384 C -0.08098 0.39689 0.16999
 C385 C -0.10246 0.38386 0.20820
 C386 C -0.09856 0.41020 0.24523
 C387 C -0.07362 0.44891 0.24410
 C388 C -0.07900 0.55304 0.17475
 C389 C -0.10266 0.59260 0.17511
 C390 C -0.09535 0.62403 0.20784
 C391 C -0.06349 0.61430 0.24019
 C392 C -0.04014 0.57450 0.23989
 C393 C 0.07478 0.54991 0.24303
 C394 C 0.10004 0.58843 0.24405
 C395 C 0.10282 0.61520 0.20741
 C396 C 0.07996 0.60277 0.16966
 C397 C 0.05367 0.56475 0.16902
 C398 C 0.04136 0.42688 0.24131
 C399 C 0.06417 0.38678 0.24144
 C400 C 0.09264 0.37507 0.20701
 C401 C 0.09752 0.40445 0.17242
 C402 C 0.07468 0.44448 0.17235
 H403 H -0.03795 0.44440 0.13977
 H404 H -0.08335 0.37700 0.14110
 H405 H -0.11515 0.40106 0.27495
 H406 H -0.07095 0.46886 0.27295
 H407 H -0.08524 0.52963 0.14911
 H408 H -0.12649 0.59817 0.14939
 H409 H -0.01677 0.56748 0.26574
 H410 H 0.07297 0.52965 0.27160
 H411 H 0.11771 0.59712 0.27339
 H412 H 0.08151 0.62301 0.14108
 H413 H 0.03544 0.55597 0.14001
 H414 H 0.02021 0.43552 0.26847
 H415 H 0.05985 0.36537 0.26884
 H416 H 0.11883 0.39668 0.14520
 H417 H 0.07892 0.46652 0.14534
 H418 H -0.05676 0.63688 0.26632
 C419 C 0.02221 0.50280 0.79392
 C420 C -0.02342 0.49998 0.79393
 C421 C -0.04717 0.45721 0.79359
 C422 C -0.05183 0.53976 0.79322
 C423 C 0.04593 0.54553 0.79367
 C424 C 0.05076 0.46311 0.79413
 C425 C -0.04045 0.42693 0.76009
 C426 C -0.06326 0.38687 0.75991
 C427 C -0.09411 0.37642 0.79290
 C428 C -0.10090 0.40737 0.82620
 C429 C -0.07775 0.44718 0.82644
 C430 C -0.06764 0.55574 0.75380
 C431 C -0.09307 0.59416 0.75231
 C432 C -0.10506 0.61642 0.79055
 C433 C -0.09044 0.59905 0.83027
 C434 C -0.06338 0.56150 0.83148
 C435 C 0.07439 0.55671 0.82795
 C436 C 0.09799 0.59630 0.82768
 C437 C 0.09360 0.62585 0.79300
 C438 C 0.06490 0.61417 0.75859
 C439 C 0.04191 0.57424 0.75870
 C440 C 0.05430 0.43696 0.83109
 C441 C 0.08072 0.39897 0.83037
 C442 C 0.10302 0.38624 0.79239
 C443 C 0.09951 0.41268 0.75557
 C444 C 0.07411 0.45117 0.75665
 H445 H -0.01784 0.43449 0.73378
 H446 H -0.05694 0.36467 0.73337
 H447 H -0.12391 0.40120 0.85246
 H448 H -0.08355 0.47011 0.85258
 H449 H -0.05945 0.53883 0.72404
 H450 H -0.10420 0.60554 0.72109
 H451 H -0.05148 0.54934 0.86221
 H452 H 0.07827 0.53472 0.85506
 H453 H 0.11929 0.60352 0.85503
 H454 H 0.06076 0.63513 0.73084
 H455 H 0.02153 0.56545 0.73110
 H456 H 0.03652 0.44596 0.86029
 H457 H 0.08282 0.37898 0.85909
 H458 H 0.11673 0.40377 0.72604
 H459 H 0.07174 0.47118 0.72794
 H460 H -0.09847 0.61511 0.86046
   
