data_POSCAR
  _audit_creation_date              2014-09-24
  _audit_creation_method            'ToBaCCo'
  _symmetry_space_group_name_H-M    'P1'
  _symmetry_Int_Tables_number       1
  _symmetry_cell_setting            triclinic
  loop_
  _symmetry_equiv_pos_as_xyz
 x,y,z
_cell_length_a 20.9930
_cell_length_b 21.2645
_cell_length_c 52.8039
_cell_angle_alpha 87.182600
_cell_angle_beta 88.611000
_cell_angle_gamma 119.640100
loop_
  _atom_site_label
  _atom_site_type_symbol
  _atom_site_fract_x
  _atom_site_fract_y
  _atom_site_fract_z
C1 C 0.01645 0.08680 0.53529
 H2 H 0.06540 0.08198 0.53442
 C3 C 0.01221 0.13484 0.55119
 H4 H 0.05766 0.16507 0.56295
 C5 C -0.10239 0.05068 0.52129
 H6 H -0.14625 0.01843 0.50925
 C7 C -0.10844 0.09960 0.53668
 H8 H -0.15729 0.10455 0.53626
 N9 N -0.04062 0.04501 0.52109
 C10 C 0.00151 -0.13287 0.50959
 H11 H 0.00615 -0.13130 0.48909
 C12 C 0.00090 -0.18976 0.52431
 H13 H 0.00606 -0.23160 0.51514
 C14 C -0.01532 -0.08294 0.54664
 H15 H -0.02536 -0.04373 0.55541
 C16 C -0.01442 -0.13755 0.56200
 H17 H -0.02235 -0.13878 0.58241
 Zn18 Zn -0.02075 -0.01382 0.50031
 N19 N -0.00723 -0.08128 0.52092
 C20 C 0.12885 0.05187 0.47901
 N21 N 0.06430 0.05240 0.48031
 C22 C 0.05673 0.10541 0.46774
 C23 C 0.11546 0.16140 0.45333
 C24 C 0.18934 0.10693 0.46443
 C25 C -0.16642 -0.11404 0.48778
 C26 C -0.21835 -0.16322 0.47215
 C27 C -0.12464 -0.11773 0.43805
 C28 C -0.07552 -0.06870 0.45410
 N29 N -0.09646 -0.06836 0.47858
 H30 H 0.13361 0.00940 0.48939
 H31 H 0.00472 0.10437 0.46919
 H32 H 0.10793 0.20283 0.44338
 H33 H 0.24073 0.10654 0.46353
 H34 H -0.18118 -0.11450 0.50759
 H35 H -0.27210 -0.20065 0.48083
 H36 H -0.10484 -0.11385 0.41863
 H37 H -0.01942 -0.03288 0.44716
 C38 C -0.00742 -0.19234 0.55084
 C39 C -0.05040 0.14265 0.55192
 C40 C -0.19763 -0.16808 0.44686
 C41 C 0.18299 0.16304 0.45165
 C42 C 1.14631 0.09736 0.13466
 H43 H 1.14914 0.14872 0.13747
 C44 C 1.19877 0.09517 0.11869
 H45 H 1.24234 0.14542 0.10956
 C46 C 1.08669 -0.02984 0.14390
 H47 H 1.04338 -0.07823 0.15397
 C48 C 1.13800 -0.03463 0.12783
 H49 H 1.13256 -0.08725 0.12530
 N50 N 1.09097 0.03545 0.14653
 C51 C 0.91303 0.08257 0.15655
 H52 H 0.90620 0.07963 0.17702
 C53 C 0.86077 0.08605 0.14151
 H54 H 0.81452 0.08725 0.15050
 C55 C 0.97878 0.07936 0.11997
 H56 H 1.02265 0.07323 0.11161
 C57 C 0.92846 0.08367 0.10426
 H58 H 0.93488 0.08145 0.08396
 Zn59 Zn 1.02482 0.05068 0.16678
 N60 N 0.96957 0.07755 0.14563
 C61 C 1.09088 0.19046 0.18787
 N62 N 1.08397 0.12339 0.18819
 C63 C 1.12362 0.10455 0.20356
 C64 C 1.17220 0.15355 0.21971
 C65 C 1.14000 0.24195 0.20359
 C66 C 0.91137 -0.09600 0.17645
 C67 C 0.85390 -0.15395 0.19107
 C68 C 0.88705 -0.07945 0.22688
 C69 C 0.94450 -0.02374 0.21184
 N70 N 0.95569 -0.03266 0.18708
 H71 H 1.05945 0.20439 0.17514
 H72 H 1.11712 0.05085 0.20326
 H73 H 1.20161 0.13622 0.23218
 H74 H 1.14623 0.29568 0.20273
 H75 H 0.91915 -0.10075 0.15646
 H76 H 0.81835 -0.20395 0.18247
 H77 H 0.87785 -0.07104 0.24640
 H78 H 0.97790 0.02781 0.21971
 C79 C 0.86736 0.08493 0.11502
 C80 C 1.19449 0.02846 0.11471
 C81 C 0.84090 -0.14509 0.21645
 C82 C 1.18185 0.22377 0.21970
 C83 C 0.08890 0.92636 0.86377
 H84 H 0.03915 0.87462 0.86319
 C85 C 0.14577 0.93178 0.87820
 H86 H 0.13896 0.88401 0.88899
 C87 C 0.15668 1.05174 0.85081
 H88 H 0.16039 1.09805 0.83998
 C89 C 0.21502 1.05979 0.86525
 H90 H 0.26373 1.11258 0.86546
 N91 N 0.09502 0.98577 0.85058
 C92 C -0.13320 0.93268 0.84708
 H93 H -0.14406 0.92314 0.82730
 C94 C -0.18640 0.93283 0.86358
 H95 H -0.23774 0.92283 0.85598
 C96 C -0.04994 0.96462 0.87984
 H97 H 0.00385 0.97889 0.88608
 C98 C -0.10039 0.96731 0.89670
 H99 H -0.08489 0.98012 0.91597
 Zn100 Zn 0.01253 0.96814 0.83214
 N101 N -0.06626 0.94908 0.85538
 C102 C -0.07283 0.82858 0.81133
 N103 N -0.00630 0.88946 0.81232
 C104 C 0.05409 0.89711 0.79935
 C105 C 0.04908 0.84322 0.78424
 C106 C -0.08062 0.77342 0.79603
 C107 C 0.03157 1.10705 0.82198
 C108 C 0.03100 1.16312 0.80719
 C109 C 0.03085 1.10250 0.76965
 C110 C 0.03026 1.04710 0.78516
 N111 N 0.02979 1.04989 0.81084
 H112 H -0.11993 0.82287 0.82216
 H113 H 0.10659 0.94551 0.80085
 H114 H 0.09845 0.85056 0.77446
 H115 H -0.13438 0.72638 0.79483
 H116 H 0.02997 1.10737 0.84246
 H117 H 0.03017 1.20717 0.81636
 H118 H 0.02860 1.09811 0.74931
 H119 H 0.02713 1.00057 0.77665
 C120 C -0.16946 0.95325 0.88865
 C121 C 0.20979 0.99914 0.87918
 C122 C 0.02947 1.16058 0.78069
 C123 C -0.01912 0.78066 0.78202
 C124 C 0.31245 -0.02624 -0.01577
 C125 C 0.30881 -0.02396 0.01011
 C126 C 0.37935 0.00042 0.01791
 N127 N 0.42574 0.01241 -0.00228
 C128 C 0.38488 -0.00405 -0.02287
 C129 C 0.40132 0.01731 0.04291
 C130 C 0.47242 0.03587 0.05025
 C131 C 0.50454 0.07263 0.07146
 C132 C 0.57269 0.07824 0.07209
 C133 C 0.57983 0.04397 0.05141
 N134 N 0.51836 0.01816 0.03825
 C135 C 0.63986 0.03313 0.04602
 C136 C 0.64937 0.00696 0.02300
 C137 C 0.69495 -0.02193 0.01915
 C138 C 0.69257 -0.03586 -0.00600
 C139 C 0.64664 -0.01375 -0.01679
 N140 N 0.61997 0.01203 0.00104
 C141 C 0.63526 -0.01102 -0.04303
 C142 C 0.58122 0.00392 -0.05237
 C143 C 0.57950 0.02702 -0.07724
 C144 C 0.51686 0.03226 -0.07860
 C145 C 0.48203 0.01203 -0.05454
 N146 N 0.52153 -0.00532 -0.03871
 C147 C 0.41308 0.00531 -0.04815
 H148 H 0.26700 -0.04230 -0.02798
 H149 H 0.25999 -0.03765 0.02177
 H150 H 0.50477 -0.02969 -0.02039
 H151 H 0.48150 0.09365 0.08497
 H152 H 0.61208 0.10401 0.08632
 H153 H 0.72658 -0.03191 0.03305
 H154 H 0.72223 -0.05863 -0.01531
 H155 H 0.49872 0.04850 -0.09544
 H156 H 0.50517 -0.01615 0.02350
 H157 H 0.61926 0.03901 -0.09279
 C158 C -0.06596 0.25131 0.68287
 C159 C -0.07550 0.24856 0.65728
 C160 C -0.06150 0.31686 0.64833
 N161 N -0.04333 0.36125 0.66761
 C162 C -0.04603 0.32128 0.68875
 C163 C -0.05719 0.33957 0.62242
 C164 C -0.04468 0.40922 0.61417
 C165 C -0.02035 0.44163 0.58979
 C166 C -0.01581 0.50836 0.58963
 C167 C -0.03934 0.51421 0.61371
 N168 N -0.05730 0.45331 0.62849
 C169 C -0.04731 0.57304 0.62113
 C170 C -0.06246 0.58096 0.64658
 C171 C -0.08732 0.62688 0.65418
 C172 C -0.08765 0.62443 0.68017
 C173 C -0.06215 0.57771 0.68755
 N174 N -0.04722 0.55086 0.66699
 C175 C -0.04471 0.56725 0.71251
 C176 C -0.02677 0.51309 0.71956
 C177 C 0.00908 0.51181 0.74111
 C178 C 0.01551 0.45045 0.74103
 C179 C -0.01701 0.41567 0.71950
 N180 N -0.04313 0.45399 0.70664
 C181 C -0.02448 0.34875 0.71283
 H182 H -0.07176 0.20711 0.69561
 H183 H -0.08917 0.20202 0.64647
 H184 H -0.07614 0.43750 0.69121
 H185 H -0.00675 0.42005 0.57371
 H186 H 0.00212 0.54762 0.57347
 H187 H -0.10268 0.65943 0.64218
 H188 H -0.10306 0.65502 0.69222
 H189 H 0.04140 0.43356 0.75521
 H190 H -0.08339 0.43946 0.64652
 H191 H 0.02930 0.55136 0.75528
 C192 C 0.29723 0.32944 0.35064
 C193 C 0.29421 0.33669 0.32483
 C194 C 0.36167 0.39412 0.31583
 N195 N 0.40596 0.42160 0.33529
 C196 C 0.36654 0.38245 0.35662
 C197 C 0.38312 0.41627 0.28987
 C198 C 0.45146 0.47658 0.28124
 C199 C 0.48078 0.49092 0.25642
 C200 C 0.54615 0.55513 0.25574
 C201 C 0.55479 0.57882 0.28008
 N202 N 0.49635 0.53102 0.29541
 C203 C 0.61283 0.64575 0.28701
 C204 C 0.62388 0.66643 0.31228
 C205 C 0.67193 0.73571 0.31920
 C206 C 0.66943 0.73219 0.34519
 C207 C 0.62142 0.66047 0.35341
 N208 N 0.59355 0.62046 0.33323
 C209 C 0.60912 0.63211 0.37900
 C210 C 0.55575 0.55978 0.38684
 C211 C 0.55321 0.52458 0.40997
 C212 C 0.49255 0.45637 0.41050
 C213 C 0.45961 0.45175 0.38769
 N214 N 0.49822 0.51519 0.37346
 C215 C 0.39322 0.39133 0.38129
 H216 H 0.25341 0.28933 0.36350
 H217 H 0.24789 0.30267 0.31396
 H218 H 0.48193 0.53002 0.35686
 H219 H 0.45749 0.45900 0.24034
 H220 H 0.58223 0.58202 0.23900
 H221 H 0.70567 0.78399 0.30692
 H222 H 0.70063 0.77727 0.35667
 H223 H 0.47458 0.41498 0.42599
 H224 H 0.48378 0.53885 0.31368
 H225 H 0.59123 0.54568 0.42491
 C226 C -0.12067 0.18099 0.58086
 C227 C -0.05401 0.19545 0.56861
 C228 C 0.01053 0.25976 0.57334
 C229 C 0.00915 0.30634 0.59073
 C230 C -0.05710 0.29125 0.60310
 C231 C -0.12222 0.22883 0.59784
 H232 H -0.17126 0.13176 0.57796
 H233 H 0.06258 0.27410 0.56377
 H234 H 0.05991 0.35430 0.59461
 H235 H -0.17379 0.21629 0.60741
 C236 C 0.72244 0.81028 0.24127
 C237 C 0.77805 0.79754 0.23207
 C238 C 0.77638 0.73259 0.23961
 C239 C 0.72146 0.68237 0.25708
 C240 C 0.66700 0.69607 0.26682
 C241 C 0.66667 0.75940 0.25830
 H242 H 0.72314 0.86030 0.23562
 H243 H 0.81920 0.72227 0.23279
 H244 H 0.72226 0.63361 0.26350
 H245 H 0.62485 0.77052 0.26559
 C246 C 0.30142 0.06293 -0.08837
 C247 C 0.26878 0.00563 -0.10440
 C248 C 0.28870 -0.04861 -0.10316
 C249 C 0.33783 -0.04725 -0.08552
 C250 C 0.36774 0.00828 -0.06881
 C251 C 0.35036 0.06410 -0.07067
 H252 H 0.28660 0.10502 -0.08873
 H253 H 0.26504 -0.09293 -0.11551
 H254 H 0.35072 -0.09069 -0.08433
 H255 H 0.37304 0.10733 -0.05785
 C256 C 0.03078 0.76033 0.58809
 C257 C -0.01287 0.74657 0.56712
 C258 C -0.06609 0.67487 0.56321
 C259 C -0.07724 0.61802 0.58058
 C260 C -0.03435 0.63208 0.60182
 C261 C 0.02059 0.70352 0.60515
 H262 H 0.07210 0.81526 0.59143
 H263 H -0.10091 0.66333 0.54730
 H264 H -0.12008 0.56332 0.57776
 H265 H 0.05460 0.71539 0.62130
 C266 C 0.30086 0.27629 0.24141
 C267 C 0.23550 0.27687 0.23646
 C268 C 0.22096 0.32651 0.24843
 C269 C 0.26982 0.37313 0.26535
 C270 C 0.33355 0.37041 0.27073
 C271 C 0.34887 0.32196 0.25859
 H272 H 0.31491 0.24021 0.23210
 H273 H 0.17090 0.32792 0.24531
 H274 H 0.25720 0.41015 0.27472
 H275 H 0.39796 0.31939 0.26254
 C276 C 0.70473 -0.07853 -0.09671
 C277 C 0.78160 -0.03745 -0.09501
 C278 C 0.80891 0.01451 -0.07664
 C279 C 0.76153 0.02433 -0.06048
 C280 C 0.68532 -0.01900 -0.06148
 C281 C 0.65728 -0.07010 -0.07988
 H282 H 0.68065 -0.11989 -0.11013
 H283 H 0.86723 0.05022 -0.07526
 H284 H 0.78450 0.06560 -0.04694
 H285 H 0.59854 -0.10415 -0.08101
 C286 C 0.27230 0.07076 0.07397
 C287 C 0.24792 0.02536 0.09652
 C288 C 0.27532 -0.02223 0.10146
 C289 C 0.32568 -0.02442 0.08417
 C290 C 0.34943 0.02082 0.06167
 C291 C 0.32287 0.06888 0.05685
 H292 H 0.25150 0.10719 0.06933
 H293 H 0.25847 -0.05716 0.11879
 H294 H 0.34587 -0.06169 0.08823
 H295 H 0.34079 0.10441 0.03963
 C296 C 0.67768 0.74709 0.43568
 C297 C 0.75502 0.78054 0.43160
 C298 C 0.78178 0.75838 0.41091
 C299 C 0.73431 0.70814 0.39475
 C300 C 0.65844 0.67931 0.39810
 C301 C 0.63034 0.69801 0.41895
 H302 H 0.65264 0.76193 0.45063
 H303 H 0.83954 0.77689 0.40748
 H304 H 0.75700 0.69273 0.37915
 H305 H 0.57169 0.67611 0.42187
 C306 C 0.06261 0.24449 0.74155
 C307 C 0.02108 0.21495 0.76463
 C308 C -0.03233 0.23364 0.77140
 C309 C -0.04601 0.27861 0.75489
 C310 C -0.00596 0.30622 0.73149
 C311 C 0.04958 0.29013 0.72522
 H312 H 0.10447 0.23141 0.73599
 H313 H -0.06562 0.21100 0.78897
 H314 H -0.08920 0.29024 0.76003
 H315 H 0.08145 0.31140 0.70732
 C316 C 0.73416 0.02839 0.10591
 C317 C 0.80805 0.07827 0.09872
 C318 C 0.82525 0.11663 0.07481
 C319 C 0.77013 0.10351 0.05811
 C320 C 0.69682 0.05155 0.06491
 C321 C 0.67902 0.01495 0.08910
 H322 H 0.71943 -0.00267 0.12407
 H323 H 0.88158 0.15576 0.06887
 H324 H 0.78480 0.13258 0.03956
 H325 H 0.62280 -0.02557 0.09462
 C326 C 0.28571 0.20845 0.41815
 C327 C 0.24510 0.22294 0.43614
 C328 C 0.25946 0.29463 0.43760
 C329 C 0.31040 0.35001 0.42051
 C330 C 0.34775 0.33466 0.40165
 C331 C 0.33654 0.26396 0.40094
 H332 H 0.27536 0.15365 0.41654
 H333 H 0.22952 0.30737 0.45151
 H334 H 0.31850 0.40428 0.42131
 H335 H 0.36502 0.25136 0.38642
 C336 C 0.01771 0.74614 0.74174
 C337 C -0.02550 0.72487 0.76467
 C338 C -0.07420 0.65044 0.77067
 C339 C -0.07993 0.59886 0.75397
 C340 C -0.03691 0.62077 0.73107
 C341 C 0.01264 0.69471 0.72532
 H342 H 0.05475 0.80283 0.73617
 H343 H -0.10749 0.63201 0.78831
 H344 H -0.11833 0.54196 0.75876
 H345 H 0.04652 0.71272 0.70778
   
