data_POSCAR
  _audit_creation_date              2014-09-24
  _audit_creation_method            'ToBaCCo'
  _symmetry_space_group_name_H-M    'P1'
  _symmetry_Int_Tables_number       1
  _symmetry_cell_setting            triclinic
  loop_
  _symmetry_equiv_pos_as_xyz
 x,y,z
_cell_length_a 42.5610
_cell_length_b 42.6048
_cell_length_c 23.8367
_cell_angle_alpha 89.946900
_cell_angle_beta 90.054300
_cell_angle_gamma 90.018200
loop_
  _atom_site_label
  _atom_site_type_symbol
  _atom_site_fract_x
  _atom_site_fract_y
  _atom_site_fract_z
C1 C -0.02902 0.26911 0.02860
 C2 C -0.02895 0.26912 -0.03071
 C3 C -0.00031 0.26922 -0.05979
 C4 C 0.02828 0.26912 -0.03057
 C5 C 0.02819 0.26920 0.02862
 C6 C -0.00040 0.26930 0.05773
 H7 H -0.00030 0.26911 0.10327
 H8 H -0.00028 0.26897 -0.10536
 C9 C 0.47143 0.77157 0.52955
 C10 C 0.47128 0.77155 0.47044
 C11 C 0.49979 0.77167 0.44120
 C12 C 0.52840 0.77149 0.47032
 C13 C 0.52856 0.77139 0.52942
 C14 C 0.50004 0.77159 0.55867
 H15 H 0.50011 0.77129 0.60418
 H16 H 0.49973 0.77143 0.39568
 C17 C 1.02857 0.72943 0.02957
 C18 C 1.02847 0.72928 -0.02962
 C19 C 0.99988 0.72915 -0.05880
 C20 C 0.97130 0.72940 -0.02968
 C21 C 0.97140 0.72948 0.02951
 C22 C 0.99999 0.72938 0.05870
 H23 H 0.99993 0.72972 0.10424
 H24 H 0.99994 0.72932 -0.10434
 C25 C 0.52860 0.22994 0.53036
 C26 C 0.52872 0.22997 0.47125
 C27 C 0.50018 0.22974 0.44196
 C28 C 0.47158 0.22977 0.47103
 C29 C 0.47145 0.22985 0.53014
 C30 C 0.49999 0.22979 0.55943
 H31 H 0.49995 0.23006 0.60494
 H32 H 0.50022 0.22997 0.39645
 C33 C 0.72960 -0.02899 0.03081
 C34 C 0.72965 -0.02894 -0.02840
 C35 C 0.72954 -0.00038 -0.05756
 C36 C 0.72963 0.02814 -0.02840
 C37 C 0.72954 0.02811 0.03069
 C38 C 0.72941 -0.00042 0.05994
 H39 H 0.72962 -0.00033 0.10547
 H40 H 0.72986 -0.00034 -0.10307
 C41 C 0.22971 0.47138 0.52953
 C42 C 0.22975 0.47131 0.47042
 C43 C 0.22967 0.49982 0.44111
 C44 C 0.22982 0.52839 0.47015
 C45 C 0.22987 0.52847 0.52927
 C46 C 0.22968 0.49996 0.55858
 H47 H 0.22992 0.50000 0.60409
 H48 H 0.22991 0.49977 0.39559
 C49 C 0.26894 1.02951 0.02955
 C50 C 0.26894 1.02950 -0.02977
 C51 C 0.26903 1.00090 -0.05884
 C52 C 0.26890 0.97237 -0.02961
 C53 C 0.26890 0.97237 0.02948
 C54 C 0.26904 1.00089 0.05867
 H55 H 0.26881 1.00076 0.10421
 H56 H 0.26881 1.00078 -0.10438
 C57 C 0.77160 0.52854 0.52920
 C58 C 0.77149 0.52866 0.47010
 C59 C 0.77168 0.50018 0.44080
 C60 C 0.77169 0.47160 0.46988
 C61 C 0.77172 0.47147 0.52898
 C62 C 0.77182 0.49995 0.55828
 H63 H 0.77160 0.49987 0.60379
 H64 H 0.77136 0.50027 0.39529
 O65 O 0.24292 0.19948 0.24929
 O66 O 0.23278 0.27541 0.32085
 O67 O 0.19987 0.24272 0.24954
 O68 O 0.27589 0.23213 0.32063
 O69 O 0.29976 0.25610 0.25055
 O70 O 0.22375 0.26667 0.17946
 O71 O 0.25669 0.29932 0.25075
 O72 O 0.26684 0.22341 0.17923
 Cu73 Cu 0.23548 0.23504 0.29212
 Cu74 Cu 0.26416 0.26377 0.20796
 C75 C 0.25651 0.19845 0.20189
 C76 C 0.24308 0.30036 0.29814
 C77 C 0.19880 0.25641 0.20221
 C78 C 0.30084 0.24241 0.29788
 O79 O 0.75688 0.80063 0.24930
 O80 O 0.76711 0.72469 0.32092
 O81 O 0.79990 0.75736 0.24951
 O82 O 0.72401 0.76797 0.32067
 O83 O 0.70002 0.74406 0.25066
 O84 O 0.77589 0.73345 0.17951
 O85 O 0.74308 0.70082 0.25091
 O86 O 0.73284 0.77676 0.17930
 Cu87 Cu 0.76438 0.76506 0.29214
 Cu88 Cu 0.73555 0.73638 0.20806
 C89 C 0.74319 0.80170 0.20194
 C90 C 0.75679 0.69975 0.29825
 C91 C 0.80089 0.74366 0.20224
 C92 C 0.69902 0.75775 0.29794
 O93 O 0.80081 0.24293 0.24885
 O94 O 0.72486 0.23307 0.32100
 O95 O 0.75736 0.20002 0.24965
 O96 O 0.76836 0.27601 0.32027
 O97 O 0.74431 0.29988 0.25021
 O98 O 0.73333 0.22388 0.17957
 O99 O 0.70087 0.25695 0.25091
 O100 O 0.77681 0.26684 0.17880
 Cu101 Cu 0.76525 0.23563 0.29197
 Cu102 Cu 0.73643 0.26428 0.20785
 C103 C 0.80181 0.25648 0.20136
 C104 C 0.69986 0.24340 0.29839
 C105 C 0.74355 0.19894 0.20242
 C106 C 0.75811 0.30095 0.29745
 O107 O 0.26620 0.77649 0.17892
 O108 O 0.25603 0.70042 0.25000
 O109 O 0.22309 0.73315 0.17858
 O110 O 0.29909 0.74374 0.25032
 O111 O 0.27505 0.76746 0.32037
 O112 O 0.19905 0.75688 0.24863
 O113 O 0.23195 0.72411 0.32004
 O114 O 0.24212 0.80019 0.24897
 Cu115 Cu 0.26350 0.73608 0.20743
 Cu116 Cu 0.23463 0.76453 0.29152
 C117 C 0.25581 0.80136 0.20168
 C118 C 0.24236 0.69924 0.29731
 C119 C 0.19805 0.74331 0.20121
 C120 C 0.30008 0.75732 0.29772
 O121 O 0.76786 0.27564 0.67920
 O122 O 0.75732 0.19982 0.75105
 O123 O 0.72450 0.23260 0.67971
 O124 O 0.80064 0.24282 0.75058
 O125 O 0.77694 0.26693 0.82060
 O126 O 0.70081 0.25669 0.74976
 O127 O 0.73361 0.22387 0.82110
 O128 O 0.74413 0.29969 0.74924
 Cu129 Cu 0.76495 0.23531 0.70809
 Cu130 Cu 0.73650 0.26421 0.79221
 C131 C 0.75771 0.30065 0.70182
 C132 C 0.74375 0.19886 0.79847
 C133 C 0.69962 0.24297 0.70251
 C134 C 0.80182 0.25654 0.79783
 O135 O 0.24269 0.80034 0.75032
 O136 O 0.23290 0.72439 0.67871
 O137 O 0.19988 0.75684 0.75001
 O138 O 0.27580 0.76789 0.67911
 O139 O 0.29982 0.74406 0.74925
 O140 O 0.22391 0.73299 0.82011
 O141 O 0.25696 0.70058 0.74882
 O142 O 0.26674 0.77655 0.82045
 Cu143 Cu 0.23541 0.76475 0.70749
 Cu144 Cu 0.26427 0.73616 0.79170
 C145 C 0.25629 0.80145 0.79775
 C146 C 0.24333 0.69948 0.70141
 C147 C 0.19890 0.74311 0.79730
 C148 C 0.30081 0.75777 0.70195
 O149 O 0.25576 0.29951 0.75003
 O150 O 0.26628 0.22349 0.82110
 O151 O 0.29904 0.25645 0.74986
 O152 O 0.22292 0.26656 0.82123
 O153 O 0.19904 0.24271 0.75104
 O154 O 0.27517 0.23259 0.67968
 O155 O 0.24235 0.19966 0.75093
 O156 O 0.23185 0.27570 0.67984
 Cu157 Cu 0.26338 0.26388 0.79259
 Cu158 Cu 0.23471 0.23529 0.70834
 C159 C 0.24212 0.30062 0.70264
 C160 C 0.25602 0.19856 0.79831
 C161 C 0.30014 0.24289 0.70244
 C162 C 0.19794 0.25626 0.79847
 O163 O 0.72480 0.76705 0.67939
 O164 O 0.80079 0.75672 0.75129
 O165 O 0.76813 0.72396 0.67963
 O166 O 0.75747 0.79975 0.75107
 O167 O 0.73346 0.77571 0.82091
 O168 O 0.74411 0.69993 0.74948
 O169 O 0.77682 0.73265 0.82113
 O170 O 0.70082 0.74299 0.74924
 Cu171 Cu 0.76520 0.76427 0.70833
 Cu172 Cu 0.73641 0.73541 0.79219
 C173 C 0.69979 0.75672 0.70192
 C174 C 0.80182 0.74301 0.79862
 C175 C 0.75785 0.69897 0.70222
 C176 C 0.74373 0.80071 0.79832
 C177 C 0.26523 0.11043 0.11539
 C178 C 0.27803 0.13774 0.09213
 C179 C 0.27545 0.16635 0.12045
 C180 C 0.26806 0.05690 0.05945
 C181 C 0.24752 0.14033 0.19589
 C182 C 0.25008 0.11176 0.16741
 C183 C 0.26696 0.08122 0.08524
 C184 C 0.26003 0.16800 0.17257
 H185 H 0.28984 0.13697 0.05194
 H186 H 0.28537 0.18719 0.10135
 H187 H 0.23549 0.14078 0.23590
 H188 H 0.24003 0.09076 0.18577
 C189 C 0.76733 0.61099 0.61618
 C190 C 0.75218 0.61224 0.66820
 C191 C 0.74937 0.64081 0.69652
 C192 C 0.77055 0.55746 0.56059
 C193 C 0.77705 0.66699 0.62092
 C194 C 0.77988 0.63837 0.59274
 C195 C 0.76929 0.58179 0.58621
 C196 C 0.76162 0.66855 0.67304
 H197 H 0.74234 0.59118 0.68666
 H198 H 0.73735 0.64121 0.73654
 H199 H 0.78677 0.68789 0.60172
 H200 H 0.79167 0.63764 0.55253
 C201 C 0.73388 0.88987 0.11594
 C202 C 0.74907 0.88849 0.16796
 C203 C 0.75186 0.85986 0.19624
 C204 C 0.73063 0.94355 0.06044
 C205 C 0.72406 0.83387 0.12059
 C206 C 0.72126 0.86254 0.09246
 C207 C 0.73190 0.91916 0.08603
 C208 C 0.73952 0.83218 0.17272
 H209 H 0.75898 0.90951 0.18647
 H210 H 0.76390 0.85937 0.23627
 H211 H 0.71428 0.81302 0.10134
 H212 H 0.70943 0.86336 0.05225
 C213 C 0.23329 0.38879 0.61661
 C214 C 0.24827 0.38739 0.66882
 C215 C 0.25085 0.35876 0.69716
 C216 C 0.23054 0.44242 0.56095
 C217 C 0.22323 0.33284 0.62120
 C218 C 0.22064 0.36151 0.59301
 C219 C 0.23159 0.41805 0.58660
 C220 C 0.23851 0.33111 0.67350
 H221 H 0.25819 0.40837 0.68741
 H222 H 0.26276 0.35824 0.73731
 H223 H 0.21347 0.31202 0.60186
 H224 H 0.20897 0.36235 0.55265
 C225 C 0.88990 0.26516 0.11445
 C226 C 0.86250 0.27784 0.09115
 C227 C 0.83387 0.27525 0.11957
 C228 C 0.94352 0.26816 0.05847
 C229 C 0.86002 0.24753 0.19518
 C230 C 0.88860 0.25010 0.16661
 C231 C 0.91915 0.26698 0.08426
 C232 C 0.83227 0.25994 0.17185
 H233 H 0.86322 0.28958 0.05086
 H234 H 0.81299 0.28509 0.10044
 H235 H 0.85961 0.23559 0.23529
 H236 H 0.90965 0.24015 0.18502
 C237 C 0.38892 0.76750 0.61640
 C238 C 0.36154 0.77997 0.59276
 C239 C 0.33287 0.77709 0.62081
 C240 C 0.44250 0.77062 0.56090
 C241 C 0.35903 0.74954 0.69668
 C242 C 0.38765 0.75241 0.66848
 C243 C 0.41815 0.76943 0.58649
 C244 C 0.33128 0.76168 0.67298
 H245 H 0.36231 0.79172 0.55248
 H246 H 0.31196 0.78672 0.60146
 H247 H 0.35859 0.73754 0.73675
 H248 H 0.40873 0.74262 0.68707
 C249 C 0.10983 0.73386 0.11483
 C250 C 0.11112 0.74882 0.16703
 C251 C 0.13975 0.75164 0.19543
 C252 C 0.05609 0.73052 0.05919
 C253 C 0.16596 0.72435 0.11956
 C254 C 0.13729 0.72152 0.09131
 C255 C 0.08052 0.73184 0.08481
 C256 C 0.16755 0.73957 0.17188
 H257 H 0.09002 0.75851 0.18560
 H258 H 0.14015 0.76350 0.23559
 H259 H 0.18690 0.71478 0.10027
 H260 H 0.13657 0.70988 0.05097
 C261 C 0.61127 0.23390 0.61712
 C262 C 0.61276 0.24910 0.66905
 C263 C 0.64146 0.25179 0.69717
 C264 C 0.55756 0.23092 0.56176
 C265 C 0.66725 0.22386 0.62153
 C266 C 0.63851 0.22116 0.59356
 C267 C 0.58196 0.23208 0.58731
 C268 C 0.66907 0.23934 0.67356
 H269 H 0.59180 0.25910 0.68758
 H270 H 0.64207 0.26385 0.73713
 H271 H 0.68805 0.21400 0.60225
 H272 H 0.63758 0.20932 0.55341
 C273 C 0.73418 0.11081 0.88477
 C274 C 0.74910 0.11204 0.83253
 C275 C 0.75197 0.14064 0.80416
 C276 C 0.73076 0.05715 0.94031
 C277 C 0.72480 0.16688 0.88016
 C278 C 0.72192 0.13824 0.90839
 C279 C 0.73211 0.08154 0.91474
 C280 C 0.73998 0.16842 0.82779
 H281 H 0.75872 0.09094 0.81391
 H282 H 0.76379 0.14101 0.76396
 H283 H 0.71530 0.18781 0.89950
 H284 H 0.71032 0.13754 0.94877
 C285 C 0.23361 0.61102 0.38320
 C286 C 0.22086 0.63826 0.40670
 C287 C 0.22345 0.66694 0.37857
 C288 C 0.23076 0.55736 0.43874
 C289 C 0.25128 0.64113 0.30286
 C290 C 0.24871 0.61249 0.33115
 C291 C 0.23187 0.58174 0.41313
 C292 C 0.23882 0.66873 0.32642
 H293 H 0.20910 0.63736 0.44694
 H294 H 0.21358 0.68773 0.39784
 H295 H 0.26327 0.64170 0.26282
 H296 H 0.25871 0.59154 0.31262
 C297 C 0.26494 0.88963 0.88381
 C298 C 0.27760 0.86234 0.90743
 C299 C 0.27502 0.83367 0.87929
 C300 C 0.26792 0.94334 0.93916
 C301 C 0.24733 0.85957 0.80335
 C302 C 0.24990 0.88820 0.83164
 C303 C 0.26675 0.91893 0.91367
 C304 C 0.25973 0.83193 0.82700
 H305 H 0.28931 0.86318 0.94775
 H306 H 0.28484 0.81286 0.89864
 H307 H 0.23541 0.85906 0.76321
 H308 H 0.23996 0.90918 0.81301
 C309 C 0.76764 0.38909 0.38300
 C310 C 0.78025 0.36177 0.40656
 C311 C 0.77743 0.33311 0.37852
 C312 C 0.77073 0.44267 0.43850
 C313 C 0.74966 0.35912 0.30277
 C314 C 0.75247 0.38774 0.33096
 C315 C 0.76953 0.41832 0.41290
 C316 C 0.76196 0.33144 0.32640
 H317 H 0.79206 0.36258 0.44679
 H318 H 0.78718 0.31225 0.39784
 H319 H 0.73760 0.35864 0.26275
 H320 H 0.74257 0.40876 0.31241
 C321 C 0.10961 0.26510 0.88448
 C322 C 0.13698 0.27765 0.90809
 C323 C 0.16569 0.27502 0.87996
 C324 C 0.05581 0.26815 0.93989
 C325 C 0.13968 0.24751 0.80403
 C326 C 0.11102 0.25013 0.83230
 C327 C 0.08026 0.26695 0.91436
 C328 C 0.16740 0.25979 0.82767
 H329 H 0.13617 0.28932 0.94840
 H330 H 0.18655 0.28475 0.89933
 H331 H 0.14017 0.23563 0.76389
 H332 H 0.08999 0.24027 0.81365
 C333 C 0.61092 0.76729 0.38354
 C334 C 0.63830 0.77979 0.40714
 C335 C 0.66696 0.77694 0.37910
 C336 C 0.55733 0.77047 0.43897
 C337 C 0.64083 0.74935 0.30333
 C338 C 0.61220 0.75218 0.33152
 C339 C 0.58168 0.76924 0.41341
 C340 C 0.66857 0.76154 0.32698
 H341 H 0.63752 0.79154 0.44738
 H342 H 0.68787 0.78661 0.39840
 H343 H 0.64127 0.73736 0.26330
 H344 H 0.59113 0.74238 0.31297
 C345 C 0.89004 0.73373 0.88504
 C346 C 0.88870 0.74892 0.83302
 C347 C 0.86006 0.75170 0.80461
 C348 C 0.94378 0.73045 0.94069
 C349 C 0.83396 0.72390 0.88013
 C350 C 0.86264 0.72111 0.90839
 C351 C 0.91935 0.73173 0.91506
 C352 C 0.83231 0.73935 0.82798
 H353 H 0.90975 0.75883 0.81459
 H354 H 0.85962 0.76374 0.76459
 H355 H 0.81307 0.71412 0.89928
 H356 H 0.86341 0.70928 0.94859
 C357 C 0.38901 0.23337 0.38388
 C358 C 0.38766 0.24842 0.33175
 C359 C 0.35902 0.25106 0.30340
 C360 C 0.44262 0.23059 0.43959
 C361 C 0.33302 0.22338 0.37922
 C362 C 0.36170 0.22072 0.40741
 C363 C 0.41826 0.23165 0.41392
 C364 C 0.33134 0.23873 0.32700
 H365 H 0.40868 0.25833 0.31323
 H366 H 0.35852 0.26302 0.26331
 H367 H 0.31216 0.21361 0.39850
 H368 H 0.36253 0.20901 0.44773
 C369 C 0.73408 0.88865 0.88438
 C370 C 0.72150 0.86126 0.90772
 C371 C 0.72439 0.83266 0.87954
 C372 C 0.73075 0.94215 0.94008
 C373 C 0.75219 0.85887 0.80411
 C374 C 0.74931 0.88743 0.83245
 C375 C 0.73205 0.91784 0.91439
 C376 C 0.73991 0.83112 0.82750
 H377 H 0.70964 0.86197 0.94787
 H378 H 0.71465 0.81175 0.89867
 H379 H 0.76428 0.85848 0.76416
 H380 H 0.75919 0.90850 0.81407
 C381 C 0.23395 0.38853 0.38403
 C382 C 0.22152 0.36116 0.40774
 C383 C 0.22426 0.33249 0.37965
 C384 C 0.23077 0.44225 0.43928
 C385 C 0.25164 0.35856 0.30360
 C386 C 0.24891 0.38719 0.33184
 C387 C 0.23201 0.41783 0.41385
 C388 C 0.23947 0.33084 0.32733
 H389 H 0.20988 0.36194 0.44809
 H390 H 0.21462 0.31162 0.39906
 H391 H 0.26349 0.35811 0.26344
 H392 H 0.25867 0.40823 0.31314
 C393 C 0.26514 0.11042 0.88437
 C394 C 0.24991 0.11181 0.83239
 C395 C 0.24723 0.14042 0.80402
 C396 C 0.26805 0.05688 0.94029
 C397 C 0.27523 0.16636 0.87951
 C398 C 0.27793 0.13771 0.90771
 C399 C 0.26693 0.08120 0.91448
 C400 C 0.25970 0.16807 0.82744
 H401 H 0.23988 0.09082 0.81399
 H402 H 0.23513 0.14093 0.76405
 H403 H 0.28512 0.18718 0.89867
 H404 H 0.28979 0.13688 0.94789
 C405 C 0.76653 0.61151 0.38388
 C406 C 0.77890 0.63889 0.40760
 C407 C 0.77594 0.66759 0.37961
 C408 C 0.77021 0.55773 0.43897
 C409 C 0.74843 0.64153 0.30368
 C410 C 0.75139 0.61287 0.33181
 C411 C 0.76874 0.58217 0.41359
 C412 C 0.76055 0.66926 0.32740
 H413 H 0.79068 0.63809 0.44786
 H414 H 0.78554 0.68847 0.39900
 H415 H 0.73646 0.64200 0.26359
 H416 H 0.74168 0.59182 0.31313
 C417 C 0.11086 0.73332 0.88306
 C418 C 0.11210 0.74856 0.83112
 C419 C 0.14070 0.75145 0.80282
 C420 C 0.05737 0.73021 0.93883
 C421 C 0.16688 0.72361 0.87833
 C422 C 0.13824 0.72071 0.90646
 C423 C 0.08168 0.73139 0.91311
 C424 C 0.16845 0.73918 0.82631
 H425 H 0.09102 0.75846 0.81272
 H426 H 0.14112 0.76357 0.76288
 H427 H 0.18779 0.71388 0.89752
 H428 H 0.13750 0.70884 0.94663
 C429 C 0.61164 0.23441 0.38477
 C430 C 0.61296 0.24932 0.33248
 C431 C 0.64159 0.25202 0.30412
 C432 C 0.55783 0.23110 0.44010
 C433 C 0.66775 0.22473 0.38022
 C434 C 0.63907 0.22202 0.40844
 C435 C 0.58229 0.23241 0.41465
 C436 C 0.66937 0.23988 0.32779
 H437 H 0.59188 0.25904 0.31378
 H438 H 0.64201 0.26382 0.26388
 H439 H 0.68866 0.21511 0.39961
 H440 H 0.63833 0.21042 0.44885
 C441 C 0.89009 0.26547 0.88354
 C442 C 0.86288 0.27846 0.90678
 C443 C 0.83417 0.27582 0.87868
 C444 C 0.94367 0.26826 0.93934
 C445 C 0.85994 0.24747 0.80351
 C446 C 0.88860 0.25009 0.83178
 C447 C 0.91934 0.26719 0.91356
 C448 C 0.83236 0.26015 0.82684
 H449 H 0.86381 0.29045 0.94678
 H450 H 0.81340 0.28587 0.89774
 H451 H 0.85933 0.23525 0.76371
 H452 H 0.90954 0.23990 0.81350
 C453 C 0.38835 0.76695 0.38387
 C454 C 0.36088 0.77918 0.40753
 C455 C 0.33218 0.77628 0.37936
 C456 C 0.44216 0.77042 0.43926
 C457 C 0.35841 0.74914 0.30333
 C458 C 0.38706 0.75203 0.33165
 C459 C 0.41769 0.76906 0.41378
 C460 C 0.33059 0.76110 0.32700
 H461 H 0.36160 0.79079 0.44790
 H462 H 0.31124 0.78577 0.39874
 H463 H 0.35801 0.73732 0.26314
 H464 H 0.40817 0.74243 0.31297
 C465 C 0.26486 0.88965 0.11608
 C466 C 0.24973 0.88817 0.16810
 C467 C 0.24704 0.85950 0.19627
 C468 C 0.26791 0.94337 0.06076
 C469 C 0.27483 0.83368 0.12051
 C470 C 0.27752 0.86239 0.09249
 C471 C 0.26672 0.91896 0.08627
 C472 C 0.25942 0.83189 0.17264
 H473 H 0.23979 0.90913 0.18668
 H474 H 0.23504 0.85893 0.23629
 H475 H 0.28463 0.81289 0.10119
 H476 H 0.28930 0.86329 0.05227
 C477 C 0.76729 0.38872 0.61558
 C478 C 0.75242 0.38748 0.66786
 C479 C 0.74955 0.35888 0.69621
 C480 C 0.77066 0.44241 0.56015
 C481 C 0.77662 0.33264 0.62011
 C482 C 0.77949 0.36128 0.59190
 C483 C 0.76934 0.41800 0.58565
 C484 C 0.76148 0.33109 0.67252
 H485 H 0.74283 0.40859 0.68653
 H486 H 0.73776 0.35851 0.73645
 H487 H 0.78608 0.31170 0.60072
 H488 H 0.79106 0.36199 0.55147
 C489 C 0.73379 0.11074 0.11717
 C490 C 0.74902 0.11211 0.16915
 C491 C 0.75191 0.14076 0.19723
 C492 C 0.73055 0.05709 0.06192
 C493 C 0.72413 0.16675 0.12147
 C494 C 0.72122 0.13806 0.09354
 C495 C 0.73180 0.08147 0.08739
 C496 C 0.73965 0.16844 0.17354
 H497 H 0.75888 0.09109 0.18775
 H498 H 0.76400 0.14125 0.23722
 H499 H 0.71441 0.18760 0.10211
 H500 H 0.70937 0.13723 0.05335
 C501 C 0.23429 0.61127 0.61557
 C502 C 0.24935 0.61267 0.66772
 C503 C 0.25207 0.64131 0.69592
 C504 C 0.23099 0.55752 0.56040
 C505 C 0.22450 0.66729 0.61992
 C506 C 0.22178 0.63860 0.59186
 C507 C 0.23231 0.58195 0.58581
 C508 C 0.23980 0.66899 0.67221
 H509 H 0.25918 0.59166 0.68642
 H510 H 0.26399 0.64181 0.73607
 H511 H 0.21478 0.68812 0.60052
 H512 H 0.21006 0.63778 0.55155
 C513 C 0.88896 0.73391 0.11659
 C514 C 0.88771 0.74913 0.16851
 C515 C 0.85909 0.75204 0.19673
 C516 C 0.94249 0.73058 0.06103
 C517 C 0.83291 0.72430 0.12118
 C518 C 0.86156 0.72138 0.09312
 C519 C 0.91817 0.73188 0.08668
 C520 C 0.83134 0.73981 0.17320
 H521 H 0.90879 0.75897 0.18696
 H522 H 0.85867 0.76412 0.23668
 H523 H 0.81199 0.71460 0.10197
 H524 H 0.86231 0.70953 0.05297
 C525 C 0.38849 0.23398 0.61651
 C526 C 0.38710 0.24884 0.66879
 C527 C 0.35842 0.25149 0.69703
 C528 C 0.44233 0.23086 0.56127
 C529 C 0.33238 0.22423 0.62085
 C530 C 0.36109 0.22157 0.59275
 C531 C 0.41786 0.23209 0.58670
 C532 C 0.33068 0.23935 0.67325
 H533 H 0.40814 0.25858 0.68756
 H534 H 0.35795 0.26327 0.73725
 H535 H 0.31150 0.21461 0.60137
 H536 H 0.36189 0.21001 0.55235
 C537 C 0.11066 0.26553 0.11614
 C538 C 0.13796 0.27833 0.09282
 C539 C 0.16663 0.27564 0.12104
 C540 C 0.05712 0.26836 0.06025
 C541 C 0.14064 0.24764 0.19649
 C542 C 0.11202 0.25031 0.16811
 C543 C 0.08144 0.26728 0.08603
 C544 C 0.16831 0.26011 0.17309
 H545 H 0.13714 0.29018 0.05264
 H546 H 0.18747 0.28552 0.10191
 H547 H 0.14114 0.23554 0.23646
 H548 H 0.09101 0.24028 0.18646
 C549 C 0.61150 0.76643 0.61586
 C550 C 0.63895 0.77880 0.59230
 C551 C 0.66766 0.77586 0.62042
 C552 C 0.55767 0.77011 0.56059
 C553 C 0.64149 0.74835 0.69620
 C554 C 0.61283 0.75129 0.66794
 C555 C 0.58214 0.76864 0.58604
 C556 C 0.66928 0.76048 0.67264
 H557 H 0.63820 0.79058 0.55204
 H558 H 0.68858 0.78547 0.60112
 H559 H 0.64192 0.73638 0.73629
 H560 H 0.59174 0.74157 0.68654
   
