data_POSCAR
  _audit_creation_date              2014-09-24
  _audit_creation_method            'ToBaCCo'
  _symmetry_space_group_name_H-M    'P1'
  _symmetry_Int_Tables_number       1
  _symmetry_cell_setting            triclinic
  loop_
  _symmetry_equiv_pos_as_xyz
 x,y,z
_cell_length_a 25.7034
_cell_length_b 25.8061
_cell_length_c 26.0046
_cell_angle_alpha 90.894600
_cell_angle_beta 91.662400
_cell_angle_gamma 89.218200
loop_
  _atom_site_label
  _atom_site_type_symbol
  _atom_site_fract_x
  _atom_site_fract_y
  _atom_site_fract_z
C1 C 0.52202 0.99039 -0.50277
 C2 C 0.47094 1.00219 -0.49617
 C3 C 0.43608 1.01882 -0.53918
 C4 C 0.44593 0.99866 -0.44564
 C5 C 0.55633 0.97264 -0.45962
 C6 C 0.54737 0.99361 -0.55337
 C7 C 0.44194 1.06667 -0.56246
 C8 C 0.40535 1.08389 -0.59943
 C9 C 0.36167 1.05336 -0.61471
 C10 C 0.35764 1.00443 -0.59096
 C11 C 0.39380 0.98799 -0.55360
 C12 C 0.41574 1.04073 -0.42806
 C13 C 0.38779 1.03699 -0.38322
 C14 C 0.39001 0.99130 -0.35480
 C15 C 0.42076 0.94938 -0.37169
 C16 C 0.44794 0.95274 -0.41727
 C17 C 0.58034 0.92368 -0.46315
 C18 C 0.61864 0.90886 -0.42710
 C19 C 0.63428 0.94309 -0.38722
 C20 C 0.60844 0.99132 -0.38241
 C21 C 0.56970 1.00600 -0.41841
 C22 C 0.52661 0.96886 -0.59766
 C23 C 0.55454 0.96699 -0.64299
 C24 C 0.60486 0.98789 -0.64449
 C25 C 0.62492 1.01360 -0.60030
 C26 C 0.59633 1.01682 -0.55559
 H27 H 0.47390 1.09152 -0.55066
 H28 H 0.41085 1.12258 -0.61320
 H29 H 0.32802 0.97683 -0.60180
 H30 H 0.38895 0.95067 -0.53593
 H31 H 0.41330 1.07637 -0.44951
 H32 H 0.36456 1.06985 -0.37053
 H33 H 0.46949 0.91918 -0.43093
 H34 H 0.57038 0.89752 -0.49479
 H35 H 0.63708 0.87111 -0.43127
 H36 H 0.62000 1.01878 -0.35246
 H37 H 0.55196 1.04420 -0.41557
 H38 H 0.48972 0.94924 -0.59683
 H39 H 0.53707 0.94789 -0.67642
 H40 H 0.66373 1.02934 -0.59917
 H41 H 0.61347 1.03579 -0.52185
 H42 H 0.42251 0.91365 -0.35037
 C43 C -0.52776 1.50979 -0.00196
 C44 C -0.47630 1.49838 -0.00659
 C45 C -0.43544 1.53691 0.00533
 C46 C -0.45724 1.44527 -0.01885
 C47 C -0.56799 1.47025 -0.01226
 C48 C -0.54740 1.56254 0.01158
 C49 C -0.41974 1.57142 -0.03201
 C50 C -0.37957 1.60615 -0.02104
 C51 C -0.35165 1.60483 0.02648
 C52 C -0.36629 1.56806 0.06283
 C53 C -0.40811 1.53508 0.05259
 C54 C -0.42674 1.43654 -0.06211
 C55 C -0.40311 1.38816 -0.07057
 C56 C -0.40986 1.34768 -0.03603
 C57 C -0.44123 1.35617 0.00670
 C58 C -0.46407 1.40477 0.01560
 C59 C -0.58743 1.44172 0.02822
 C60 C -0.62911 1.40832 0.01948
 C61 C -0.65258 1.40346 -0.02981
 C62 C -0.63249 1.43157 -0.07050
 C63 C -0.59044 1.46470 -0.06174
 C64 C -0.57865 1.57003 0.05450
 C65 C -0.60292 1.61792 0.06387
 C66 C -0.59506 1.66023 0.03148
 C67 C -0.56244 1.65274 -0.01077
 C68 C -0.54052 1.60411 -0.02147
 H69 H -0.43821 1.57123 -0.06993
 H70 H -0.37074 1.63379 -0.05020
 H71 H -0.34504 1.56361 0.09898
 H72 H -0.41842 1.50714 0.08112
 H73 H -0.42027 1.46756 -0.08866
 H74 H -0.37897 1.38252 -0.10370
 H75 H -0.48521 1.41131 0.05051
 H76 H -0.57108 1.44618 0.06685
 H77 H -0.64422 1.38774 0.05168
 H78 H -0.64964 1.42826 -0.10892
 H79 H -0.57615 1.48696 -0.09324
 H80 H -0.58514 1.53855 0.08044
 H81 H -0.62680 1.62199 0.09736
 H82 H -0.55702 1.68325 -0.03814
 H83 H -0.52028 1.59854 -0.05695
 H84 H -0.44602 1.32591 0.03450
 C85 C 0.00747 0.49580 0.52399
 C86 C 0.00106 0.50443 0.47265
 C87 C -0.01429 0.46225 0.43604
 C88 C 0.00776 0.55627 0.44951
 C89 C 0.02284 0.53719 0.56162
 C90 C -0.00033 0.44390 0.54666
 C91 C -0.06483 0.44292 0.43471
 C92 C -0.08045 0.40707 0.39656
 C93 C -0.04556 0.38862 0.35885
 C94 C 0.00577 0.40808 0.36180
 C95 C 0.02075 0.44474 0.39929
 C96 C 0.05336 0.58508 0.45796
 C97 C 0.05974 0.63211 0.43279
 C98 C 0.02124 0.65036 0.39783
 C99 C -0.02427 0.62164 0.38963
 C100 C -0.03099 0.57529 0.41530
 C101 C -0.00868 0.58110 0.56991
 C102 C 0.00224 0.61501 0.61137
 C103 C 0.04452 0.60522 0.64621
 C104 C 0.07737 0.56231 0.63540
 C105 C 0.06651 0.52888 0.59399
 C106 C -0.03254 0.43968 0.58896
 C107 C -0.03525 0.39327 0.61558
 C108 C -0.00591 0.34920 0.60054
 C109 C 0.02524 0.35349 0.55679
 C110 C 0.02839 0.40032 0.53069
 H111 H -0.09280 0.45705 0.46216
 H112 H -0.12086 0.39624 0.39606
 H113 H 0.03561 0.39463 0.33629
 H114 H 0.06005 0.45944 0.39981
 H115 H 0.08446 0.57067 0.48305
 H116 H 0.09538 0.65344 0.43937
 H117 H -0.06648 0.55391 0.40802
 H118 H -0.04314 0.58774 0.54583
 H119 H -0.02502 0.64656 0.61779
 H120 H 0.11210 0.55425 0.65850
 H121 H 0.09165 0.49543 0.58791
 H122 H -0.05508 0.47287 0.60204
 H123 H -0.06146 0.39210 0.64731
 H124 H 0.05016 0.32195 0.54427
 H125 H 0.05499 0.40305 0.49936
 H126 H -0.05476 0.63517 0.36331
 O127 O -0.04889 0.95773 -0.13446
 O128 O -0.08703 1.00936 0.12222
 O129 O -0.11097 0.90148 0.00008
 O130 O -0.14627 1.03482 -0.02487
 O131 O -0.10162 1.11110 -0.03183
 O132 O -0.03519 0.85797 0.02422
 O133 O -0.13791 0.98055 0.05318
 O134 O -0.11877 0.95428 -0.08111
 Zr135 Zr -0.08764 0.97883 -0.00894
 O136 O -0.06358 1.04368 0.03180
 O137 O -0.02733 0.93613 -0.03896
 C138 C -0.09727 0.94866 -0.12542
 C139 C -0.13039 0.99264 0.10132
 C140 C -0.08505 0.86068 0.01502
 C141 C -0.14412 1.08444 -0.03179
 H142 H -0.05806 0.93286 0.07518
 O143 O -0.03974 0.95516 0.05129
 H144 H -0.07423 1.03721 -0.08705
 O145 O -0.05044 1.02590 -0.05871
 O146 O 0.04964 1.04569 0.13862
 O147 O 0.08650 0.99368 -0.11829
 O148 O 0.02536 0.88989 0.09812
 O149 O -0.04469 1.14228 0.04187
 O150 O -0.02153 1.11580 -0.09447
 O151 O 0.03883 0.86130 -0.03825
 O152 O 0.14466 0.97093 0.03330
 O153 O 0.11065 1.10199 -0.00145
 O154 O 0.10063 0.89408 0.03868
 O155 O 0.03447 1.14624 -0.02164
 O156 O 0.00196 0.96231 0.14573
 O157 O 0.03138 0.90928 -0.11229
 O158 O 0.00385 1.04327 -0.14074
 O159 O -0.03962 1.09274 0.11522
 O160 O 0.11796 1.05069 0.08335
 O161 O 0.13756 1.02217 -0.04946
 Zr162 Zr -0.01284 1.01977 0.08995
 Zr163 Zr 0.01238 0.98457 -0.08588
 Zr164 Zr 0.02236 0.91550 0.02131
 Zr165 Zr -0.02318 1.08915 -0.01756
 Zr166 Zr 0.08665 1.02567 0.01211
 O167 O 0.03955 1.04993 -0.04818
 O168 O 0.05020 0.97868 0.06271
 C169 C 0.09755 1.05580 0.12807
 C170 C 0.13063 1.00766 -0.09702
 C171 C 0.01654 0.91410 0.14123
 C172 C -0.04986 1.13527 0.09093
 C173 C -0.00913 1.09190 -0.13697
 C174 C 0.03937 0.86627 -0.08794
 C175 C 0.14277 0.92142 0.04092
 C176 C 0.08466 1.14329 -0.01495
 H177 H 0.09175 0.94040 -0.04198
 O178 O 0.06238 0.96061 -0.02786
 H179 H 0.03892 1.09921 0.06100
 O180 O 0.02622 1.06798 0.04231
 C181 C 0.24116 1.06092 0.30377
 C182 C 0.25331 1.10039 0.27186
 C183 C 0.29987 1.12670 0.27634
 C184 C 0.33578 1.11148 0.31504
 C185 C 0.32526 1.06992 0.34911
 C186 C 0.27569 1.04552 0.34298
 O187 O 0.19679 1.03785 0.29046
 C188 C 0.18080 1.06313 0.24876
 C189 C 0.21399 1.10202 0.23594
 C190 C 0.20764 1.13029 0.19114
 C191 C 0.16644 1.11676 0.15738
 C192 C 0.13265 1.07578 0.16899
 C193 C 0.13890 1.04962 0.21609
 H194 H 0.30917 1.15676 0.24966
 H195 H 0.37277 1.13069 0.31511
 H196 H 0.26263 1.01555 0.36780
 H197 H 0.23486 1.15996 0.18135
 H198 H 0.16213 1.13664 0.12107
 H199 H 0.11483 1.01698 0.22483
 C200 C -0.29022 1.00386 0.25725
 C201 C -0.29660 0.95914 0.22861
 C202 C -0.33471 0.92322 0.23813
 C203 C -0.36738 0.93345 0.27938
 C204 C -0.36220 0.97955 0.30974
 C205 C -0.32312 1.01551 0.29771
 O206 O -0.25033 1.03191 0.24278
 C207 C -0.23120 1.00418 0.20404
 C208 C -0.25849 0.95949 0.19375
 C209 C -0.24575 0.92469 0.15477
 C210 C -0.20336 0.93660 0.12477
 C211 C -0.17422 0.98224 0.13461
 C212 C -0.18798 1.01634 0.17524
 H213 H -0.33835 0.88789 0.21540
 H214 H -0.39550 0.90440 0.28841
 H215 H -0.31794 1.05133 0.31929
 H216 H -0.26778 0.88974 0.14754
 H217 H -0.19281 0.90990 0.09410
 H218 H -0.16641 1.05138 0.18349
 C219 C -0.27261 0.93520 -0.27208
 C220 C -0.22995 0.91251 -0.29444
 C221 C -0.22972 0.89739 -0.34592
 C222 C -0.27519 0.90639 -0.37570
 C223 C -0.31972 0.93028 -0.35379
 C224 C -0.31831 0.94440 -0.30093
 O225 O -0.26370 0.94935 -0.22337
 C226 C -0.21429 0.93555 -0.21495
 C227 C -0.19184 0.91288 -0.25723
 C228 C -0.13945 0.89882 -0.25806
 C229 C -0.10877 0.90928 -0.21372
 C230 C -0.13091 0.93302 -0.16971
 C231 C -0.18473 0.94546 -0.17019
 H232 H -0.19536 0.88047 -0.36287
 H233 H -0.27495 0.89641 -0.41628
 H234 H -0.35137 0.96294 -0.28304
 H235 H -0.12249 0.88182 -0.29210
 H236 H -0.06763 0.89979 -0.21403
 H237 H -0.20250 0.96483 -0.13776
 C238 C 0.27929 0.99821 -0.26327
 C239 C 0.30503 0.98580 -0.21795
 C240 C 0.35782 0.97317 -0.21500
 C241 C 0.38540 0.97380 -0.26074
 C242 C 0.35997 0.98769 -0.30769
 C243 C 0.30611 0.99983 -0.30898
 O244 O 0.22899 1.00854 -0.25767
 C245 C 0.22289 1.00285 -0.20757
 C246 C 0.26841 0.98937 -0.18161
 C247 C 0.27153 0.98273 -0.12880
 C248 C 0.22581 0.99007 -0.10158
 C249 C 0.17801 1.00311 -0.12737
 C250 C 0.17653 1.00940 -0.18131
 H251 H 0.37709 0.96340 -0.17881
 H252 H 0.42668 0.96473 -0.25951
 H253 H 0.28586 1.01031 -0.34449
 H254 H 0.30784 0.97237 -0.10923
 H255 H 0.22748 0.98455 -0.06041
 H256 H 0.14070 1.01947 -0.20195
 C257 C 0.25224 1.29402 -0.02041
 C258 C 0.21020 1.31374 -0.04798
 C259 C 0.21108 1.36151 -0.07197
 C260 C 0.25697 1.39030 -0.06684
 C261 C 0.30060 1.37112 -0.03787
 C262 C 0.29807 1.32201 -0.01467
 O263 O 0.24349 1.24801 -0.00058
 C264 C 0.19480 1.23852 -0.01580
 C265 C 0.17253 1.27756 -0.04473
 C266 C 0.12152 1.27573 -0.06395
 C267 C 0.09243 1.23170 -0.05319
 C268 C 0.11480 1.19054 -0.02394
 C269 C 0.16682 1.19435 -0.00494
 H270 H 0.17750 1.37630 -0.09342
 H271 H 0.25804 1.42810 -0.08425
 H272 H 0.33075 1.30615 0.00741
 H273 H 0.10474 1.30698 -0.08652
 H274 H 0.05285 1.22936 -0.06840
 H275 H 0.18508 1.16389 0.01768
 C276 C 0.30044 0.75702 0.05929
 C277 C 0.32473 0.80208 0.04703
 C278 C 0.37571 0.80307 0.03080
 C279 C 0.40259 0.75559 0.02638
 C280 C 0.37880 0.70814 0.03931
 C281 C 0.32705 0.70960 0.05725
 O282 O 0.25017 0.76376 0.06826
 C283 C 0.24267 0.81427 0.06175
 C284 C 0.28726 0.83957 0.04944
 C285 C 0.28787 0.89207 0.03857
 C286 C 0.24039 0.91940 0.03928
 C287 C 0.19317 0.89377 0.04930
 C288 C 0.19479 0.84052 0.06191
 H289 H 0.39366 0.83895 0.02031
 H290 H 0.44228 0.75615 0.01359
 H291 H 0.30633 0.67454 0.06533
 H292 H 0.32341 0.91106 0.02863
 H293 H 0.24031 0.96008 0.02977
 H294 H 0.15966 0.81952 0.06926
 C295 C -0.23947 0.69750 0.00944
 C296 C -0.22489 0.70753 0.05977
 C297 C -0.25026 0.68657 0.10084
 C298 C -0.29223 0.65366 0.08960
 C299 C -0.30731 0.64084 0.03781
 C300 C -0.27974 0.66338 -0.00271
 O301 O -0.21282 0.72432 -0.02386
 C302 C -0.18050 0.75171 0.00619
 C303 C -0.18579 0.74221 0.05772
 C304 C -0.15622 0.76705 0.09609
 C305 C -0.12039 0.80386 0.08074
 C306 C -0.11584 0.81575 0.02808
 C307 C -0.14602 0.78919 -0.00984
 H308 H -0.23906 0.69631 0.14022
 H309 H -0.31329 0.63930 0.12167
 H310 H -0.28874 0.65489 -0.04276
 H311 H -0.16121 0.75908 0.13637
 H312 H -0.09796 0.82494 0.10992
 H313 H -0.14377 0.79850 -0.05017
 C314 C -0.30016 1.25069 -0.05063
 C315 C -0.32603 1.20486 -0.04529
 C316 C -0.37951 1.20293 -0.03864
 C317 C -0.40725 1.25020 -0.03690
 C318 C -0.38130 1.29793 -0.04218
 C319 C -0.32704 1.29794 -0.04979
 O320 O -0.24898 1.24446 -0.05324
 C321 C -0.24232 1.19359 -0.04946
 C322 C -0.28819 1.16749 -0.04475
 C323 C -0.28982 1.11420 -0.03803
 C324 C -0.24223 1.08682 -0.03548
 C325 C -0.19417 1.11301 -0.03924
 C326 C -0.19464 1.16724 -0.04702
 H327 H -0.39896 1.16647 -0.03376
 H328 H -0.44875 1.24978 -0.03088
 H329 H -0.30601 1.33382 -0.05258
 H330 H -0.32635 1.09452 -0.03391
 H331 H -0.24295 1.04545 -0.02931
 H332 H -0.15895 1.18874 -0.04952
 C333 C -0.04791 1.30690 0.23758
 C334 C -0.09203 1.27883 0.24418
 C335 C -0.12240 1.28484 0.28712
 C336 C -0.10688 1.32137 0.32488
 C337 C -0.06141 1.35206 0.31958
 C338 C -0.03209 1.34415 0.27411
 O339 O -0.02215 1.29235 0.19602
 C340 C -0.05066 1.25403 0.17607
 C341 C -0.09410 1.24449 0.20401
 C342 C -0.12737 1.20361 0.19252
 C343 C -0.11438 1.17018 0.15171
 C344 C -0.06901 1.17818 0.12331
 C345 C -0.03734 1.22146 0.13477
 H346 H -0.15616 1.26103 0.29224
 H347 H -0.12967 1.32310 0.35906
 H348 H 0.00197 1.36625 0.26603
 H349 H -0.16075 1.19629 0.21564
 H350 H -0.13810 1.13645 0.14380
 H351 H -0.00131 1.22700 0.11510
 C352 C -0.01607 1.25734 -0.29014
 C353 C -0.00521 1.21120 -0.31469
 C354 C 0.00501 1.20770 -0.36675
 C355 C 0.00434 1.25372 -0.39481
 C356 C -0.00670 1.30265 -0.37086
 C357 C -0.01750 1.30363 -0.31730
 O358 O -0.02308 1.25230 -0.23998
 C359 C -0.01664 1.20170 -0.23284
 C360 C -0.00579 1.17492 -0.27747
 C361 C 0.00324 1.12181 -0.27900
 C362 C 0.00124 1.09510 -0.23264
 C363 C -0.00948 1.12155 -0.18556
 C364 C -0.01880 1.17587 -0.18598
 H365 H 0.01335 1.17075 -0.38521
 H366 H 0.01085 1.25036 -0.43562
 H367 H -0.02420 1.33940 -0.29618
 H368 H 0.01190 1.10165 -0.31461
 H369 H 0.00852 1.05368 -0.23364
 H370 H -0.02670 1.19748 -0.15098
 C371 C 0.04169 0.71589 -0.25882
 C372 C 0.06574 0.69329 -0.21682
 C373 C 0.08442 0.64266 -0.21776
 C374 C 0.07794 0.61399 -0.26372
 C375 C 0.05259 0.63579 -0.30824
 C376 C 0.03435 0.68808 -0.30492
 O377 O 0.02654 0.76449 -0.24979
 C378 C 0.04110 0.77252 -0.20093
 C379 C 0.06506 0.73011 -0.17885
 C380 C 0.08200 0.72968 -0.12751
 C381 C 0.07366 0.77478 -0.09769
 C382 C 0.04927 0.81924 -0.11969
 C383 C 0.03312 0.81789 -0.17229
 H384 H 0.10277 0.62549 -0.18400
 H385 H 0.09058 0.57389 -0.26304
 H386 H 0.01614 0.70759 -0.33738
 H387 H 0.10048 0.69568 -0.11087
 H388 H 0.08632 0.77508 -0.05760
 H389 H 0.01389 0.85080 -0.19023
 C390 C 0.02251 0.74559 0.28922
 C391 C 0.03600 0.79040 0.31535
 C392 C 0.04699 0.79171 0.36813
 C393 C 0.04344 0.74504 0.39501
 C394 C 0.02838 0.69866 0.36896
 C395 C 0.01819 0.69910 0.31520
 O396 O 0.01341 0.75241 0.23930
 C397 C 0.02102 0.80271 0.23369
 C398 C 0.03458 0.82791 0.27904
 C399 C 0.04250 0.88113 0.28199
 C400 C 0.03620 0.90939 0.23638
 C401 C 0.02296 0.88407 0.18900
 C402 C 0.01546 0.82984 0.18786
 H403 H 0.05752 0.82740 0.38794
 H404 H 0.05103 0.74524 0.43619
 H405 H 0.00691 0.66423 0.29425
 H406 H 0.05267 0.90028 0.31814
 H407 H 0.04202 0.95087 0.23790
 H408 H 0.00457 0.80946 0.15252
   
