data_POSCAR
  _audit_creation_date              2014-09-24
  _audit_creation_method            'ToBaCCo'
  _symmetry_space_group_name_H-M    'P1'
  _symmetry_Int_Tables_number       1
  _symmetry_cell_setting            triclinic
  loop_
  _symmetry_equiv_pos_as_xyz
 x,y,z
_cell_length_a 24.2289
_cell_length_b 24.2289
_cell_length_c 24.2290
_cell_angle_alpha 90.004200
_cell_angle_beta 90.004200
_cell_angle_gamma 89.995800
loop_
  _atom_site_label
  _atom_site_type_symbol
  _atom_site_fract_x
  _atom_site_fract_y
  _atom_site_fract_z
N1 N 0.38154 0.38622 1.38338
 N2 N 1.11557 0.61557 0.88443
 N3 N 0.61662 -0.11846 0.11378
 N4 N -0.11378 1.11662 -0.38153
 N5 N 0.67048 0.67535 0.67290
 N6 N 0.82482 0.32482 0.17519
 N7 N 0.32710 0.17048 0.82466
 N8 N 0.17535 0.82710 0.32952
 Zn9 Zn 0.00525 1.06364 -0.03312
 Zn10 Zn -0.04646 0.95195 -0.04604
 Zn11 Zn 0.06528 0.96365 0.00583
 Zn12 Zn -0.03449 1.00284 0.06615
 O13 O -0.00270 0.99544 -0.00187
 O14 O -0.02818 1.06850 -0.09855
 O15 O -0.01369 0.88779 -0.06427
 O16 O 0.12034 1.00477 -0.02188
 O17 O -0.06434 0.98521 -0.11006
 O18 O 0.07556 1.08018 -0.04787
 O19 O 0.06947 0.89809 -0.02745
 O20 O 0.00708 0.97564 0.12121
 O21 O -0.11065 0.93376 -0.01339
 O22 O 0.08222 0.94935 0.07613
 O23 O -0.09992 0.96915 0.07034
 O24 O -0.04930 1.07305 0.08307
 O25 O -0.02202 1.11855 0.00855
 C26 C -0.05458 1.03371 -0.12727
 C27 C 0.03451 0.86992 -0.05422
 C28 C 0.11970 1.05255 -0.04319
 C29 C 0.05496 0.95453 0.12044
 C30 C -0.12829 0.94299 0.03505
 C31 C -0.04384 1.11750 0.05610
 Zn32 Zn 0.47134 0.02077 0.42831
 Zn33 Zn 0.46266 -0.03734 0.53734
 Zn34 Zn 0.57169 -0.02866 0.47923
 Zn35 Zn 0.52077 0.07169 0.52866
 O36 O 0.50653 0.00653 0.49347
 O37 O 0.40667 -0.01395 0.42341
 O38 O 0.49739 -0.09925 0.55947
 O39 O 0.58257 -0.04237 0.40724
 O40 O 0.40075 -0.05947 0.50261
 O41 O 0.50908 -0.00308 0.36952
 O42 O 0.57659 -0.09333 0.51396
 O43 O 0.59276 0.08257 0.54237
 O44 O 0.44053 -0.00261 0.59925
 O45 O 0.63048 0.00909 0.50308
 O46 O 0.48604 0.07659 0.59333
 O47 O 0.49692 0.13048 0.49092
 O48 O 0.45763 0.09276 0.41743
 C49 C 0.38183 -0.04701 0.45538
 C50 C 0.54462 -0.11817 0.54701
 C51 C 0.55386 -0.02976 0.36535
 C52 C 0.63466 0.05387 0.52976
 C53 C 0.45299 0.04462 0.61817
 C54 C 0.47024 0.13466 0.44614
 Zn55 Zn 1.03313 0.50525 0.43636
 Zn56 Zn 1.04604 0.45355 0.54805
 Zn57 Zn 0.99417 0.56528 0.53635
 Zn58 Zn 0.93385 0.46551 0.49716
 O59 O 1.00187 0.49731 0.50456
 O60 O 1.09855 0.47182 0.43150
 O61 O 1.06427 0.48631 0.61221
 O62 O 1.02188 0.62034 0.49523
 O63 O 1.11006 0.43566 0.51479
 O64 O 1.04787 0.57556 0.41982
 O65 O 1.02745 0.56947 0.60191
 O66 O 0.87879 0.50708 0.52436
 O67 O 1.01339 0.38935 0.56624
 O68 O 0.92387 0.58222 0.55065
 O69 O 0.92966 0.40008 0.53085
 O70 O 0.91693 0.45070 0.42695
 O71 O 0.99145 0.47798 0.38145
 C72 C 1.12728 0.44542 0.46629
 C73 C 1.05422 0.53451 0.63008
 C74 C 1.04319 0.61970 0.44746
 C75 C 0.87956 0.55496 0.54547
 C76 C 0.96495 0.37171 0.55701
 C77 C 0.94390 0.45616 0.38250
 Zn78 Zn 0.46365 0.49417 0.93472
 Zn79 Zn 0.45195 0.54604 1.04646
 Zn80 Zn 0.50284 0.43385 1.03449
 Zn81 Zn 0.56364 0.53313 0.99475
 O82 O 0.49544 0.50187 1.00270
 O83 O 0.39809 0.52745 0.93053
 O84 O 0.43376 0.51339 1.11065
 O85 O 0.47564 0.37879 0.99292
 O86 O 0.38779 0.56427 1.01369
 O87 O 0.44935 0.42388 0.91778
 O88 O 0.46915 0.42966 1.09992
 O89 O 0.61855 0.49145 1.02203
 O90 O 0.48521 0.61006 1.06434
 O91 O 0.57305 0.41693 1.04930
 O92 O 0.56850 0.59855 1.02818
 O93 O 0.58018 0.54788 0.92444
 O94 O 0.50477 0.52188 0.87966
 C95 C 0.36992 0.55422 0.96549
 C96 C 0.44299 0.46495 1.12829
 C97 C 0.45453 0.37956 0.94504
 C98 C 0.61750 0.44391 1.04384
 C99 C 0.53371 0.62728 1.05458
 C100 C 0.55255 0.54319 0.88030
 C101 C 1.32786 0.39517 0.40124
 C102 C 1.28144 0.40378 0.41706
 C103 C 1.22740 0.41565 0.43536
 C104 C 1.18150 0.42786 0.45022
 C105 C 0.16919 0.60606 0.90218
 C106 C 0.21561 0.59698 0.91774
 C107 C 0.26968 0.58461 0.93557
 C108 C 0.31563 0.57206 0.94996
 C109 C -0.32950 0.89078 0.09666
 C110 C -0.28288 0.89980 0.08166
 C111 C -0.22863 0.91230 0.06442
 C112 C -0.18260 0.92500 0.05040
 C113 C 0.83311 0.10629 0.59972
 C114 C 0.78716 0.09661 0.58314
 C115 C 0.73371 0.08382 0.56381
 C116 C 0.68832 0.07124 0.54778
 C117 C 0.40029 0.33311 0.39371
 C118 C 0.41686 0.28717 0.40339
 C119 C 0.43619 0.23371 0.41618
 C120 C 0.45222 0.18832 0.42876
 C121 C 0.90334 0.17050 0.60922
 C122 C 0.91834 0.21712 0.60020
 C123 C 0.93558 0.27137 0.58771
 C124 C 0.94960 0.31740 0.57500
 C125 C 0.09782 0.66919 -0.10606
 C126 C 0.08226 0.71561 -0.09698
 C127 C 0.06443 0.76968 -0.08461
 C128 C 0.05004 0.81563 -0.07206
 C129 C 0.59876 0.82786 1.10483
 C130 C 0.58294 0.78144 1.09622
 C131 C 0.56464 0.72740 1.08435
 C132 C 0.54978 0.68151 1.07215
 C133 C 0.39078 0.40334 1.32950
 C134 C 0.39980 0.41835 1.28288
 C135 C 0.41229 0.43558 1.22863
 C136 C 0.42500 0.44960 1.18260
 C137 C 0.60629 -0.09971 0.16689
 C138 C 0.59661 -0.08314 0.21284
 C139 C 0.58382 -0.06381 0.26629
 C140 C 0.57124 -0.04778 0.31168
 C141 C -0.10483 1.09876 -0.32786
 C142 C -0.09622 1.08294 -0.28143
 C143 C -0.08435 1.06464 -0.22740
 C144 C -0.07215 1.04978 -0.18150
 C145 C 1.10606 0.59783 0.83081
 C146 C 1.09698 0.58226 0.78439
 C147 C 1.08461 0.56443 0.73032
 C148 C 1.07206 0.55005 0.68437
 C149 C 0.70945 0.64781 0.64132
 C150 C 0.74511 0.62478 0.61534
 C151 C 0.78950 0.59920 0.58767
 C152 C 0.82956 0.57843 0.56673
 C153 C 0.78639 0.35217 1.14279
 C154 C 0.75114 0.37494 1.11603
 C155 C 0.70712 0.40015 1.08743
 C156 C 0.66731 0.42063 1.06578
 C157 C 0.28868 1.14291 -0.14314
 C158 C 0.25344 1.12020 -0.11635
 C159 C 0.20940 1.09535 -0.08749
 C160 C 0.16956 1.07529 -0.06551
 C161 C 0.21347 -0.14476 0.36164
 C162 C 0.24852 -0.12114 0.38790
 C163 C 0.29242 -0.09456 0.41546
 C164 C 0.33215 -0.07254 0.43575
 C165 C 0.63837 -0.28653 0.64476
 C166 C 0.61210 -0.25147 0.62114
 C167 C 0.58454 -0.20758 0.59456
 C168 C 0.56425 -0.16785 0.57255
 C169 C 1.14314 0.78868 0.35710
 C170 C 1.11635 0.75344 0.37980
 C171 C 1.08749 0.70940 0.40465
 C172 C 1.06551 0.66956 0.42471
 C173 C -0.14279 1.28639 0.14783
 C174 C -0.11603 1.25114 0.12506
 C175 C -0.08743 1.20712 0.09986
 C176 C -0.06577 1.16731 0.07937
 C177 C 0.35868 0.20945 0.85219
 C178 C 0.38466 0.24511 0.87522
 C179 C 0.41233 0.28951 0.90081
 C180 C 0.43327 0.32956 0.92157
 C181 C 0.64290 0.64314 0.71132
 C182 C 0.62020 0.61635 0.74657
 C183 C 0.59535 0.58749 0.79060
 C184 C 0.57529 0.56551 0.83044
 C185 C 0.35524 0.13837 0.78654
 C186 C 0.37886 0.11210 0.75148
 C187 C 0.40544 0.08454 0.70758
 C188 C 0.42745 0.06425 0.66785
 C189 C 0.14781 0.85868 0.29055
 C190 C 0.12478 0.88466 0.25489
 C191 C 0.09920 0.91233 0.21050
 C192 C 0.07843 0.93327 0.17044
 C193 C 0.85217 0.35722 0.21362
 C194 C 0.87494 0.38397 0.24886
 C195 C 0.90014 0.41257 0.29288
 C196 C 0.92063 0.43423 0.33269
   
