data_POSCAR
  _audit_creation_date              2014-09-24
  _audit_creation_method            'ToBaCCo'
  _symmetry_space_group_name_H-M    'P1'
  _symmetry_Int_Tables_number       1
  _symmetry_cell_setting            triclinic
  loop_
  _symmetry_equiv_pos_as_xyz
 x,y,z
_cell_length_a 32.0138
_cell_length_b 32.0374
_cell_length_c 31.6731
_cell_angle_alpha 90.043900
_cell_angle_beta 89.972000
_cell_angle_gamma 89.981000
loop_
  _atom_site_label
  _atom_site_type_symbol
  _atom_site_fract_x
  _atom_site_fract_y
  _atom_site_fract_z
C1 C 0.15133 0.18427 0.21124
 C2 C 0.15481 0.21759 0.18279
 C3 C 0.18789 0.21916 0.15460
 C4 C 0.21727 0.18658 0.15372
 C5 C 0.21294 0.15298 0.18085
 C6 C 0.18003 0.15205 0.21010
 C7 C 0.12347 0.17564 0.24321
 N8 N 0.13466 0.13895 0.26157
 C9 C 0.16896 0.12407 0.24113
 C10 C 0.24431 0.12508 0.17154
 N11 N 0.26786 0.14102 0.13966
 C12 C 0.25166 0.17876 0.12871
 C13 C 0.18222 0.25414 0.12987
 N14 N 0.14619 0.27304 0.14195
 C15 C 0.12924 0.25102 0.17423
 H16 H 0.09734 0.19496 0.25273
 H17 H 0.18537 0.09553 0.24893
 H18 H 0.24947 0.09527 0.18678
 H19 H 0.26334 0.19862 0.10370
 H20 H 0.20148 0.26378 0.10351
 H21 H 0.09975 0.25810 0.18939
 C22 C -0.15553 0.81337 0.21873
 C23 C -0.15548 0.78324 0.18659
 C24 C -0.18305 0.78674 0.15307
 C25 C -0.21207 0.81959 0.15209
 C26 C -0.21244 0.84900 0.18409
 C27 C -0.18353 0.84624 0.21723
 C28 C -0.13025 0.81960 0.25334
 N29 N -0.14180 0.85585 0.27241
 C30 C -0.17458 0.87216 0.25067
 C31 C -0.24412 0.87677 0.17540
 N32 N -0.26317 0.86481 0.13898
 C33 C -0.24346 0.83006 0.12430
 C34 C -0.17411 0.75480 0.12535
 N35 N -0.14235 0.73186 0.14165
 C36 C -0.13083 0.74879 0.17912
 H37 H -0.10428 0.80008 0.26284
 H38 H -0.19011 0.90134 0.25793
 H39 H -0.25298 0.90338 0.19452
 H40 H -0.25183 0.81310 0.09596
 H41 H -0.18930 0.74882 0.09541
 H42 H -0.10547 0.73765 0.19872
 C43 C -0.15465 0.17949 -0.21208
 C44 C -0.15500 0.21033 -0.18064
 C45 C -0.18847 0.21323 -0.15308
 C46 C -0.22129 0.18432 -0.15568
 C47 C -0.22089 0.15388 -0.18669
 C48 C -0.18766 0.15184 -0.21548
 C49 C -0.12635 0.16945 -0.24320
 N50 N -0.14171 0.13678 -0.26580
 C51 C -0.17920 0.12577 -0.24898
 C52 C -0.25500 0.12858 -0.18001
 N53 N -0.27574 0.14256 -0.14530
 C54 C -0.25559 0.17697 -0.13053
 C55 C -0.18072 0.24640 -0.12649
 N56 N -0.14322 0.26313 -0.13702
 C57 C -0.12707 0.24120 -0.16984
 H58 H -0.09701 0.18517 -0.24926
 H59 H -0.19879 0.10049 -0.26009
 H60 H -0.26297 0.10092 -0.19797
 H61 H -0.26418 0.19437 -0.10250
 H62 H -0.20059 0.25733 -0.10110
 H63 H -0.09749 0.24769 -0.18507
 C64 C 0.15264 0.82122 -0.21262
 C65 C 0.15225 0.78852 -0.18329
 C66 C 0.18451 0.78442 -0.15446
 C67 C 0.21690 0.81401 -0.15370
 C68 C 0.21679 0.84669 -0.18230
 C69 C 0.18479 0.84999 -0.21235
 C70 C 0.12605 0.83192 -0.24492
 N71 N 0.14150 0.86631 -0.26462
 C72 C 0.17734 0.87775 -0.24471
 C73 C 0.25033 0.87181 -0.17290
 N74 N 0.27081 0.85537 -0.13918
 C75 C 0.25080 0.81974 -0.12747
 C76 C 0.17584 0.74975 -0.13021
 N77 N 0.13892 0.73346 -0.14334
 C78 C 0.12415 0.75695 -0.17561
 H79 H 0.09789 0.81540 -0.25384
 H80 H 0.19681 0.90404 -0.25333
 H81 H 0.25856 0.90056 -0.18883
 H82 H 0.25935 0.80021 -0.10095
 H83 H 0.19438 0.73783 -0.10430
 H84 H 0.09514 0.75137 -0.19224
 C85 C 0.18183 1.15206 0.78825
 C86 C 0.21157 1.15113 0.82069
 C87 C 0.21344 1.18343 0.84970
 C88 C 0.18462 1.21631 0.84748
 C89 C 0.15520 1.21716 0.81551
 C90 C 0.15412 1.18507 0.78540
 C91 C 0.17296 1.12506 0.75568
 N92 N 0.14075 1.14109 0.73290
 C93 C 0.12900 1.17780 0.75091
 C94 C 0.13003 1.25131 0.82244
 N95 N 0.14310 1.27082 0.85821
 C96 C 0.17675 1.24982 0.87351
 C97 C 0.24580 1.17478 0.87692
 N98 N 0.26299 1.13782 0.86537
 C99 C 0.24221 1.12290 0.83127
 H100 H 0.18894 1.09599 0.74897
 H101 H 0.10382 1.19762 0.74000
 H102 H 0.10317 1.26026 0.80374
 H103 H 0.19343 1.25748 0.90222
 H104 H 0.25595 1.19370 0.90333
 H105 H 0.24945 1.09406 0.81498
 C106 C 0.82128 0.85013 0.78916
 C107 C 0.78904 0.84900 0.81902
 C108 C 0.78507 0.81507 0.84580
 C109 C 0.81432 0.78244 0.84393
 C110 C 0.84638 0.78384 0.81463
 C111 C 0.84951 0.81759 0.78668
 C112 C 0.83197 0.87868 0.75861
 N113 N 0.86571 0.86392 0.73724
 C114 C 0.87679 0.82663 0.75438
 C115 C 0.87145 0.74967 0.82151
 N116 N 0.85565 0.72768 0.85455
 C117 C 0.82040 0.74726 0.86816
 C118 C 0.75077 0.82242 0.87106
 N119 N 0.73452 0.86011 0.86047
 C120 C 0.75774 0.87672 0.82890
 H121 H 0.81581 0.90763 0.75189
 H122 H 0.90258 0.80731 0.74394
 H123 H 0.89993 0.74223 0.80464
 H124 H 0.80149 0.73761 0.89478
 H125 H 0.73895 0.80233 0.89580
 H126 H 0.75204 0.90664 0.81410
 C127 C 0.18334 0.84601 1.21469
 C128 C 0.21762 0.84227 1.18748
 C129 C 0.21883 0.81059 1.15775
 C130 C 0.18502 0.78294 1.15415
 C131 C 0.15036 0.78780 1.17993
 C132 C 0.14971 0.81927 1.21067
 C133 C 0.17492 0.87245 1.24782
 N134 N 0.13692 0.86240 1.26400
 C135 C 0.12099 0.83024 1.24107
 C136 C 0.12166 0.75801 1.16828
 N137 N 0.13835 0.73494 1.13660
 C138 C 0.17706 0.74974 1.12772
 C139 C 0.25465 0.81611 1.13424
 N140 N 0.27437 0.85082 1.14854
 C141 C 0.25213 0.86697 1.18110
 H142 H 0.19524 0.89685 1.25960
 H143 H 0.09130 0.81508 1.24686
 H144 H 0.09108 0.75312 1.18206
 H145 H 0.19757 0.73759 1.10345
 H146 H 0.26407 0.79812 1.10689
 H147 H 0.25953 0.89569 1.19752
 C148 C 0.81786 1.15190 1.21320
 C149 C 0.78475 1.15410 1.18444
 C150 C 0.78182 1.18741 1.15675
 C151 C 0.81297 1.21825 1.15658
 C152 C 0.84645 1.21522 1.18413
 C153 C 0.84850 1.18226 1.21309
 C154 C 0.82742 1.12412 1.24481
 N155 N 0.86291 1.13721 1.26425
 C156 C 0.87630 1.17254 1.24472
 C157 C 0.87345 1.24729 1.17489
 N158 N 0.85693 1.26990 1.14284
 C159 C 0.81985 1.25272 1.13153
 C160 C 0.74712 1.18063 1.13193
 N161 N 0.72974 1.14377 1.14359
 C162 C 0.75243 1.12730 1.17559
 H163 H 0.80930 1.09693 1.25361
 H164 H 0.90370 1.19039 1.25342
 H165 H 0.90328 1.25335 1.18979
 H166 H 0.80035 1.26346 1.10581
 H167 H 0.73638 1.19999 1.10612
 H168 H 0.74628 1.09760 1.19065
 O169 O 0.55943 0.92403 0.92710
 O170 O 0.60459 0.96673 0.96332
 C171 C 0.59663 0.93738 0.93634
 O172 O 0.43748 1.07342 0.93030
 O173 O 0.39353 1.03039 0.96755
 C174 C 0.40061 1.06041 0.94112
 O175 O 0.55461 1.07196 0.92257
 O176 O 0.60237 1.03622 0.96287
 C177 C 0.59251 1.06255 0.93348
 O178 O 0.44227 0.91832 0.93161
 O179 O 0.39581 0.95919 0.96840
 C180 C 0.40470 0.92961 0.94196
 Zr181 Zr 0.50031 0.94511 0.94893
 O182 O 0.49541 0.94931 0.88235
 O183 O 0.50271 0.87937 0.94358
 Zr184 Zr 0.49714 1.05045 0.94774
 O185 O 0.49079 1.04796 0.88124
 O186 O 0.50032 1.11640 0.94524
 O187 O 0.53597 0.99871 0.93933
 O188 O 0.46219 0.99663 0.94142
 O189 O 0.44483 0.92056 1.07644
 O190 O 0.39713 0.96044 1.04038
 C191 C 0.40690 0.93134 1.06697
 O192 O 0.55769 1.07514 1.07541
 O193 O 0.60395 1.03606 1.03637
 C194 C 0.59523 1.06414 1.06450
 O195 O 0.44005 1.07550 1.07359
 O196 O 0.39466 1.03191 1.03872
 C197 C 0.40277 1.06246 1.06426
 O198 O 0.56194 0.92846 1.07871
 O199 O 0.60583 0.96691 1.03655
 C200 C 0.59879 0.94003 1.06622
 Zr201 Zr 0.50226 0.94651 1.05585
 O202 O 0.49865 0.94832 1.12258
 O203 O 0.50862 0.88075 1.05729
 Zr204 Zr 0.49915 1.05209 1.05440
 O205 O 0.49576 1.05070 1.12117
 O206 O 0.50189 1.11807 1.05570
 Zr207 Zr 0.56179 1.00029 1.00055
 Zr208 Zr 0.43759 0.99666 1.00309
 O209 O 0.46457 0.99838 1.06365
 O210 O 0.53811 1.00050 1.06268
 O211 O 0.46440 0.93648 1.00324
 O212 O 0.53414 1.05992 1.00023
 O213 O 0.53766 0.93920 1.00188
 O214 O 0.46073 1.05832 1.00171
 H215 H 0.44269 0.99587 0.91714
 H216 H 0.55212 1.08507 0.99945
 H217 H 0.44600 0.99831 1.08868
 H218 H 0.55720 0.91523 1.00228
 H219 H 0.47893 1.12743 0.96481
 H220 H 0.48055 1.12852 1.03579
 H221 H 0.52202 1.03819 1.13169
 H222 H 0.52195 0.96592 1.13276
 H223 H 0.48669 0.86897 1.03877
 H224 H 0.51177 0.86842 0.97123
 H225 H 0.52257 0.95919 0.87129
 H226 H 0.51497 1.03221 0.87004
 O227 O 0.07400 0.44141 -0.07687
 O228 O 0.03623 0.39544 -0.03626
 C229 C 0.06409 0.40405 -0.06464
 O230 O 0.07290 0.56169 0.06995
 O231 O 0.03138 0.60603 0.03130
 C232 C 0.06023 0.59865 0.05904
 O233 O 0.07896 0.44434 0.06871
 O234 O 0.03696 0.39711 0.03447
 C235 C 0.06719 0.40651 0.05994
 O236 O 0.07015 0.55863 -0.08087
 O237 O 0.03006 0.60438 -0.04234
 C238 C 0.05811 0.59602 -0.07064
 Zr239 Zr 0.05004 0.50000 -0.05721
 O240 O 0.11593 0.50501 -0.05991
 O241 O 0.04691 0.49493 -0.12380
 Zr242 Zr 0.05237 0.50206 0.04954
 O243 O 0.11819 0.50769 0.05071
 O244 O 0.05122 0.49882 0.11632
 O245 O 0.06020 0.46402 -0.00335
 O246 O 0.05806 0.53730 -0.00469
 O247 O -0.07788 0.55543 -0.07880
 O248 O -0.04012 0.60282 -0.03996
 C249 C -0.06757 0.59322 -0.06839
 O250 O -0.07660 0.44154 0.07213
 O251 O -0.03421 0.39578 0.03634
 C252 C -0.06406 0.40418 0.06267
 O253 O -0.07256 0.55876 0.07617
 O254 O -0.03825 0.60435 0.03232
 C255 C -0.06362 0.59610 0.06308
 O256 O -0.07937 0.43829 -0.07174
 O257 O -0.03558 0.39416 -0.03566
 C258 C -0.06622 0.40134 -0.06135
 Zr259 Zr -0.05561 0.49785 -0.05471
 O260 O -0.12163 0.50139 -0.05445
 O261 O -0.05562 0.49166 -0.12127
 Zr262 Zr -0.05309 0.50007 0.05207
 O263 O -0.11902 0.50456 0.05445
 O264 O -0.05084 0.49577 0.11873
 Zr265 Zr -0.00024 0.43793 -0.00139
 Zr266 Zr -0.00288 0.56206 -0.00393
 O267 O -0.06275 0.53495 -0.00181
 O268 O -0.06174 0.46161 -0.00040
 O269 O -0.00372 0.53606 -0.06506
 O270 O 0.00054 0.46492 0.05924
 O271 O -0.00221 0.46254 -0.06297
 O272 O -0.00087 0.53855 0.05825
 H273 H 0.08244 0.55631 -0.00555
 H274 H 0.00143 0.44643 0.08428
 H275 H -0.08774 0.55320 -0.00138
 H276 H -0.00245 0.44310 -0.08732
 H277 H 0.03877 0.52508 0.12692
 H278 H -0.03315 0.51895 0.12901
 H279 H -0.13043 0.48218 0.03630
 H280 H -0.13199 0.47966 -0.03493
 H281 H -0.04023 0.51580 -0.13297
 H282 H 0.03212 0.51990 -0.13449
 H283 H 0.12769 0.48255 -0.04210
 H284 H 0.12935 0.48845 0.02906
 O285 O 1.08117 -0.06778 0.55905
 O286 O 1.04030 -0.03059 0.60537
 C287 C 1.06981 -0.05692 0.59685
 O288 O 1.06991 0.07886 0.43775
 O289 O 1.03334 0.03579 0.39305
 C290 C 1.05928 0.06592 0.40040
 O291 O 1.07562 0.07788 0.55667
 O292 O 1.03855 0.03852 0.60436
 C293 C 1.06602 0.06660 0.59484
 O294 O 1.07576 -0.07303 0.44044
 O295 O 1.03427 -0.03629 0.39434
 C296 C 1.06298 -0.06348 0.40275
 Zr297 Zr 1.05571 -0.04980 0.49986
 O298 O 1.12163 -0.04961 0.49484
 O299 O 1.05367 -0.11566 0.50272
 Zr300 Zr 1.05216 0.05582 0.49803
 O301 O 1.11803 0.05733 0.49215
 O302 O 1.05018 0.12178 0.50136
 O303 O 1.06284 0.00400 0.53637
 O304 O 1.06085 0.00254 0.46221
 O305 O 0.93047 -0.07942 0.44408
 O306 O 0.96470 -0.03782 0.39621
 C307 C 0.93928 -0.06779 0.40588
 O308 O 0.92246 0.07131 0.55946
 O309 O 0.96615 0.03734 0.60556
 C310 C 0.93544 0.06229 0.59718
 O311 O 0.92535 0.07414 0.44058
 O312 O 0.96384 0.03437 0.39437
 C313 C 0.93632 0.06273 0.40283
 O314 O 0.92941 -0.07341 0.56241
 O315 O 0.96790 -0.03203 0.60714
 C316 C 0.94035 -0.06068 0.59971
 Zr317 Zr 0.95027 -0.05332 0.50219
 O318 O 0.88419 -0.05448 0.49909
 O319 O 0.95222 -0.11915 0.50713
 Zr320 Zr 0.94659 0.05226 0.50007
 O321 O 0.88062 0.05070 0.49620
 O322 O 0.94518 0.11822 0.50415
 Zr323 Zr 1.00238 0.00250 0.56275
 Zr324 Zr 0.99995 -0.00000 0.43734
 O325 O 0.94005 -0.00150 0.46467
 O326 O 0.94095 -0.00008 0.53889
 O327 O 1.00256 -0.06035 0.46350
 O328 O 0.99977 0.06238 0.53558
 O329 O 1.00399 -0.05839 0.53790
 O330 O 0.99842 0.06144 0.46127
 H331 H 1.08507 0.00291 0.44273
 H332 H 0.99921 0.08715 0.55432
 H333 H 0.91522 -0.00257 0.44604
 H334 H 1.00518 -0.08255 0.55737
 H335 H 1.03195 0.13163 0.47822
 H336 H 0.96062 0.12931 0.47955
 H337 H 0.87060 0.03152 0.51846
 H338 H 0.87339 -0.03959 0.52420
 H339 H 0.97480 -0.12896 0.48823
 H340 H 1.08312 -0.12517 0.50209
 H341 H 1.13223 -0.02895 0.51542
 H342 H 1.12985 0.04234 0.51668
 N343 N 1.12855 0.08305 0.30983
 C344 C 1.11572 0.12091 0.29544
 N345 N 1.08404 0.14063 0.31606
 N346 N 1.06614 0.12330 0.34978
 C347 C 1.07910 0.08552 0.36393
 N348 N 1.11041 0.06559 0.34329
 N349 N 0.86649 -0.08706 0.31884
 C350 C 0.87756 -0.12600 0.30595
 N351 N 0.90906 -0.14589 0.32661
 N352 N 0.92860 -0.12759 0.35885
 C353 C 0.91762 -0.08857 0.37126
 N354 N 0.88630 -0.06862 0.35074
 N355 N 0.91667 0.12923 0.68918
 C356 C 0.87712 0.11848 0.70041
 N357 N 0.85678 0.08919 0.67708
 N358 N 0.87515 0.07158 0.64376
 C359 C 0.91469 0.08228 0.63287
 N360 N 0.93522 0.11120 0.65623
 N361 N 1.08762 -0.12877 0.68479
 C362 C 1.12425 -0.11472 0.70114
 N363 N 1.14329 -0.08158 0.68239
 N364 N 1.12633 -0.06330 0.64868
 C365 C 1.08976 -0.07754 0.63257
 N366 N 1.07061 -0.11040 0.65127
 N367 N 0.31094 1.08169 1.13091
 C368 C 0.30125 1.12192 1.12131
 N369 N 0.32545 1.14246 1.09278
 N370 N 0.35811 1.12365 1.07487
 C371 C 0.36739 1.08341 1.08432
 N372 N 0.34320 1.06270 1.11251
 N373 N 0.31893 0.91076 0.86790
 C374 C 0.30430 0.87293 0.88047
 N375 N 0.32333 0.85357 0.91353
 N376 N 0.35565 0.87135 0.93311
 C377 C 0.36986 0.90925 0.92051
 N378 N 0.35097 0.92862 0.88764
 N379 N 0.68434 0.91688 1.13988
 C380 C 0.70310 0.88361 1.12099
 N381 N 0.68706 0.86917 1.08402
 N382 N 0.65375 0.88724 1.06667
 C383 C 0.63503 0.92021 1.08575
 N384 N 0.65089 0.93482 1.12260
 N385 N 0.67455 1.13882 0.90976
 C386 C 0.69093 1.12362 0.87324
 N387 N 0.67418 1.08830 0.85642
 N388 N 0.64251 1.06892 0.87543
 C389 C 0.62653 1.08410 0.91199
 N390 N 0.64297 1.11938 0.92880
 N391 N 0.08493 0.30600 0.11254
 C392 C 0.12645 0.30730 0.12097
 N393 N 0.14873 0.34141 0.10907
 N394 N 0.12992 0.37334 0.08984
 C395 C 0.08841 0.37181 0.08111
 N396 N 0.06633 0.33752 0.09264
 N397 N -0.14665 0.33234 -0.10633
 C398 C -0.12384 0.29820 -0.11708
 N399 N -0.08216 0.29809 -0.10925
 N400 N -0.06399 0.33083 -0.09096
 C401 C -0.08667 0.36514 -0.08061
 N402 N -0.12830 0.36542 -0.08875
 N403 N 0.13984 0.66292 -0.11600
 C404 C 0.11819 0.69812 -0.12543
 N405 N 0.07650 0.69932 -0.11761
 N406 N 0.05723 0.66667 -0.10032
 C407 C 0.07881 0.63133 -0.09120
 N408 N 0.12041 0.62997 -0.09947
 N409 N -0.11471 0.69756 0.07955
 C410 C -0.12268 0.69696 0.12163
 N411 N -0.11107 0.66305 0.14451
 N412 N -0.09254 0.63065 0.12583
 C413 C -0.08419 0.63146 0.08381
 N414 N -0.09548 0.66552 0.06104
 N415 N 1.13522 0.08467 0.68513
 C416 C 1.12312 0.12325 0.69825
 N417 N 1.09273 0.14342 0.67627
 N418 N 1.07515 0.12571 0.64262
 C419 C 1.08721 0.08715 0.62983
 N420 N 1.11736 0.06682 0.65172
 N421 N 0.87190 -0.07887 0.69062
 C422 C 0.88441 -0.11730 0.70373
 N423 N 0.91558 -0.13684 0.68225
 N424 N 0.93330 -0.11881 0.64887
 C425 C 0.92071 -0.08048 0.63598
 N426 N 0.88989 -0.06069 0.65747
 N427 N 1.07892 -0.12938 0.30945
 C428 C 1.11870 -0.11952 0.29820
 N429 N 1.14011 -0.09153 0.32214
 N430 N 1.12255 -0.07426 0.35603
 C431 C 1.08284 -0.08408 0.36700
 N432 N 1.06117 -0.11165 0.34302
 N433 N 0.91590 0.13551 0.31612
 C434 C 0.88100 0.11891 0.29835
 N435 N 0.86420 0.08393 0.31574
 N436 N 0.88162 0.06625 0.34945
 C437 C 0.91629 0.08306 0.36713
 N438 N 0.93330 0.11782 0.34986
 N439 N 0.09050 0.32257 -0.14139
 C440 C 0.12426 0.30416 -0.12320
 N441 N 0.13814 0.31914 -0.08555
 N442 N 0.11893 0.35104 -0.06677
 C443 C 0.08524 0.36920 -0.08505
 N444 N 0.07142 0.35458 -0.12271
 N445 N -0.14519 0.33858 0.11106
 C446 C -0.12305 0.30422 0.12234
 N447 N -0.08152 0.30282 0.11379
 N448 N -0.06280 0.33455 0.09433
 C449 C -0.08482 0.36909 0.08344
 N450 N -0.12630 0.37065 0.09230
 N451 N -0.14443 0.67431 -0.09388
 C452 C -0.12634 0.69357 -0.12749
 N453 N -0.08912 0.67885 -0.14192
 N454 N -0.07057 0.64651 -0.12332
 C455 C -0.08869 0.62752 -0.08977
 N456 N -0.12595 0.64185 -0.07539
 N457 N 0.07710 0.70175 0.10702
 C458 C 0.11848 0.70042 0.11628
 N459 N 0.14060 0.66559 0.10654
 N460 N 0.12187 0.63301 0.08854
 C461 C 0.08058 0.63444 0.07898
 N462 N 0.05854 0.66945 0.08829
 N463 N 0.29768 1.07646 0.89266
 C464 C 0.29786 1.11818 0.88525
 N465 N 0.33189 1.14088 0.89645
 N466 N 0.36483 1.12240 0.91408
 C467 C 0.36450 1.08074 0.92181
 N468 N 0.33029 1.05812 0.91102
 N469 N 0.34332 0.84943 1.11696
 C470 C 0.30863 0.87112 1.12825
 N471 N 0.30645 0.91246 1.11927
 N472 N 0.33774 0.93147 1.09939
 C473 C 0.37260 0.90996 1.08844
 N474 N 0.37500 0.86866 1.09775
 N475 N 0.69731 1.08239 1.11384
 C476 C 0.69535 1.12367 1.12332
 N477 N 0.66030 1.14538 1.11342
 N478 N 0.62811 1.12629 1.09501
 C479 C 0.63024 1.08508 1.08520
 N480 N 0.66546 1.06351 1.09472
 N481 N 0.66483 0.85716 0.89004
 C482 C 0.69924 0.87973 0.87976
 N483 N 0.69954 0.92137 0.88770
 N484 N 0.66679 0.93974 0.90581
 C485 C 0.63224 0.91727 0.91575
 N486 N 0.63175 0.87569 0.90745
   
