data_POSCAR
  _audit_creation_date              2014-09-24
  _audit_creation_method            'ToBaCCo'
  _symmetry_space_group_name_H-M    'P1'
  _symmetry_Int_Tables_number       1
  _symmetry_cell_setting            triclinic
  loop_
  _symmetry_equiv_pos_as_xyz
 x,y,z
_cell_length_a 22.2502
_cell_length_b 22.0672
_cell_length_c 22.2006
_cell_angle_alpha 90.066700
_cell_angle_beta 90.436200
_cell_angle_gamma 89.930600
loop_
  _atom_site_label
  _atom_site_type_symbol
  _atom_site_fract_x
  _atom_site_fract_y
  _atom_site_fract_z
N1 N 0.17733 0.17937 0.17387
 N2 N -0.17104 0.82452 0.17991
 N3 N -0.18317 0.17093 -0.17683
 N4 N 0.17558 0.82420 -0.17570
 N5 N 0.18520 1.18155 0.82398
 N6 N 0.82323 0.82508 0.81701
 N7 N 0.17503 0.82094 1.18151
 N8 N 0.82317 1.17524 1.17194
 O9 O 0.58462 0.87613 0.90515
 O10 O 0.65086 0.93829 0.95501
 C11 C 0.63859 0.89398 0.91846
 O12 O 0.41284 1.08924 0.89094
 O13 O 0.34740 1.03771 0.95161
 C14 C 0.35905 1.07419 0.90742
 O15 O 0.58042 1.08386 0.88493
 O16 O 0.64896 1.04012 0.94917
 C17 C 0.63509 1.07223 0.90217
 O18 O 0.41679 0.86892 0.91232
 O19 O 0.34942 0.93294 0.95752
 C20 C 0.36246 0.88641 0.92448
 Zr21 Zr 0.50040 0.90979 0.93343
 O22 O 0.49426 0.91129 0.83816
 O23 O 0.50254 0.81405 0.92881
 Zr24 Zr 0.49769 1.06265 0.92602
 O25 O 0.49243 1.06837 0.83115
 O26 O 0.50284 1.15842 0.92956
 O27 O 0.55243 0.98617 0.91755
 O28 O 0.44665 0.98443 0.91848
 O29 O 0.41833 0.87852 1.11013
 O30 O 0.35033 0.93644 1.05763
 C31 C 0.36383 0.89288 1.09443
 O32 O 0.58197 1.09318 1.11745
 O33 O 0.64956 1.04511 1.05625
 C34 C 0.63641 1.08016 1.10117
 O35 O 0.41449 1.09910 1.11032
 O36 O 0.34808 1.04258 1.05433
 C37 C 0.36049 1.08233 1.09568
 O38 O 0.58588 0.89796 1.12497
 O39 O 0.65130 0.94530 1.06112
 C40 C 0.63964 0.91268 1.10809
 Zr41 Zr 0.50137 0.91764 1.08486
 O42 O 0.49242 0.92112 1.17966
 O43 O 0.51282 0.82251 1.08983
 Zr44 Zr 0.49864 1.07062 1.07668
 O45 O 0.49610 1.08996 1.16984
 O46 O 0.50358 1.16520 1.06151
 Zr47 Zr 0.58973 0.99146 1.00507
 Zr48 Zr 0.40946 0.98881 1.00535
 O49 O 0.44783 0.99338 1.09218
 O50 O 0.55298 0.99555 1.09244
 O51 O 0.44776 0.90124 1.00968
 O52 O 0.55144 1.07866 1.00083
 O53 O 0.55380 0.90343 1.01011
 O54 O 0.44345 1.07790 1.00080
 H55 H 0.41949 0.98083 0.88309
 H56 H 0.57953 1.11346 0.99926
 H57 H 0.42123 0.99265 1.12775
 H58 H 0.58196 0.86879 1.01361
 H59 H 0.46281 1.17372 0.94147
 H60 H 0.46224 1.17970 1.05314
 H61 H 0.49003 1.05081 1.19049
 H62 H 0.52046 0.95258 1.19463
 H63 H 0.48332 0.80407 1.06173
 H64 H 0.52121 0.79923 0.96653
 H65 H 0.53318 0.92603 0.82261
 H66 H 0.49930 1.02694 0.81573
 O67 O 0.09788 0.58365 -0.11695
 O68 O 0.04558 0.65129 -0.05895
 C69 C 0.08173 0.63829 -0.10263
 O70 O -0.11389 0.41145 -0.10689
 O71 O -0.05314 0.34589 -0.05448
 C72 C -0.09827 0.35738 -0.09002
 O73 O -0.09948 0.58034 -0.12676
 O74 O -0.05424 0.64948 -0.06412
 C75 C -0.08686 0.63547 -0.11061
 O76 O 0.11768 0.41541 -0.09518
 O77 O 0.05483 0.34809 -0.04879
 C78 C 0.10183 0.36089 -0.08039
 Zr79 Zr 0.07605 0.49980 -0.07640
 O80 O 0.08429 0.48604 -0.17030
 O81 O 0.17003 0.51409 -0.07042
 Zr82 Zr -0.07466 0.49651 -0.08677
 O83 O -0.06531 0.48208 -0.18060
 O84 O -0.16863 0.50477 -0.09945
 O85 O 0.00011 0.55180 -0.09419
 O86 O 0.00232 0.44425 -0.09153
 O87 O 0.10932 0.42049 0.09885
 O88 O 0.05052 0.35047 0.04999
 C89 C 0.09512 0.36515 0.08494
 O90 O -0.11999 0.58495 0.09059
 O91 O -0.06038 0.65232 0.03994
 C92 C -0.10386 0.63954 0.07634
 O93 O -0.12422 0.41545 0.08427
 O94 O -0.05681 0.34805 0.04439
 C95 C -0.10510 0.36081 0.07419
 O96 O 0.08796 0.58875 0.11273
 O97 O 0.03982 0.65382 0.04801
 C98 C 0.07281 0.64267 0.09511
 Zr99 Zr 0.06656 0.50304 0.07559
 O100 O 0.05738 0.49266 0.16991
 O101 O 0.15985 0.51574 0.08898
 Zr102 Zr -0.08367 0.49991 0.06551
 O103 O -0.07932 0.49444 0.16069
 O104 O -0.17824 0.50183 0.07319
 Zr105 Zr -0.00583 0.59056 -0.00731
 Zr106 Zr -0.00232 0.40901 -0.00366
 O107 O -0.00809 0.44779 0.08277
 O108 O -0.01061 0.55616 0.08122
 O109 O 0.08408 0.44845 0.00136
 O110 O -0.09156 0.55053 -0.01281
 O111 O 0.08163 0.55478 -0.00078
 O112 O -0.09006 0.44507 -0.01018
 H113 H 0.00464 0.41469 -0.12508
 H114 H -0.12742 0.57688 -0.01707
 H115 H -0.00923 0.41938 0.11730
 H116 H 0.11558 0.58378 0.00083
 H117 H -0.18783 0.48329 -0.06560
 H118 H -0.19445 0.50863 0.03221
 H119 H -0.07390 0.53610 0.17637
 H120 H 0.03321 0.52720 0.18467
 H121 H 0.18008 0.49764 0.05383
 H122 H 0.18728 0.48130 -0.04533
 H123 H 0.05404 0.51217 -0.19025
 H124 H -0.04745 0.51907 -0.19807
 O125 O 1.12109 -0.09218 0.42246
 O126 O 1.06240 -0.04323 0.35225
 C127 C 1.10567 -0.07979 0.36726
 O128 O 0.89215 -0.09351 0.58233
 O129 O 0.94873 -0.03970 0.65048
 C130 C 0.90543 -0.07668 0.63685
 O131 O 0.91401 -0.11284 0.41585
 O132 O 0.96219 -0.05040 0.34940
 C133 C 0.92905 -0.09697 0.36177
 O134 O 1.12255 -0.08043 0.59100
 O135 O 1.05572 -0.03464 0.65479
 C136 C 1.10315 -0.06717 0.64439
 Zr137 Zr 1.08443 -0.06242 0.50538
 O138 O 1.08193 -0.15791 0.51445
 O139 O 1.17923 -0.06749 0.50461
 Zr140 Zr 0.93345 -0.07106 0.49967
 O141 O 0.93913 -0.16587 0.51300
 O142 O 0.83964 -0.07918 0.48556
 O143 O 1.01157 -0.07996 0.44898
 O144 O 1.00792 -0.07683 0.55592
 O145 O 1.10261 0.12605 0.58618
 O146 O 1.04967 0.06698 0.65204
 C147 C 1.08698 0.11029 0.64009
 O148 O 0.90564 0.12013 0.41091
 O149 O 0.95661 0.05727 0.34683
 C150 C 0.92109 0.10262 0.35743
 O151 O 0.89142 0.11511 0.57866
 O152 O 0.94611 0.06157 0.64869
 C153 C 0.90599 0.10157 0.63378
 O154 O 1.10006 0.12777 0.41770
 O155 O 1.05637 0.06196 0.35055
 C156 C 1.08841 0.10930 0.36337
 Zr157 Zr 1.07587 0.09009 0.50167
 O158 O 1.07493 0.18590 0.50516
 O159 O 1.17099 0.09129 0.49884
 Zr160 Zr 0.92429 0.08095 0.49581
 O161 O 0.90454 0.17462 0.49678
 O162 O 0.83088 0.06562 0.48514
 Zr163 Zr 1.00738 0.00739 0.41051
 Zr164 Zr 1.00195 0.01160 0.59084
 O165 O 0.99795 0.09795 0.55047
 O166 O 1.00117 0.09615 0.44547
 O167 O 1.09046 0.01600 0.55760
 O168 O 0.91933 0.00314 0.44411
 O169 O 1.09290 0.01359 0.45141
 O170 O 0.91549 0.00594 0.55117
 H171 H 1.00873 -0.11070 0.58520
 H172 H 0.88598 0.00067 0.41435
 H173 H 0.99576 0.13506 0.57549
 H174 H 1.12889 0.01633 0.42554
 H175 H 0.82008 -0.04768 0.51036
 H176 H 0.81402 0.05936 0.52579
 H177 H 0.94308 0.19581 0.50369
 H178 H 1.04136 0.19968 0.47909
 H179 H 1.18605 0.07549 0.53785
 H180 H 1.19398 -0.02547 0.50865
 H181 H 1.07400 -0.17525 0.47403
 H182 H 0.96866 -0.18177 0.48388
 N183 N 1.11594 0.20464 0.31717
 N184 N 1.13765 0.22553 0.26589
 C185 C 1.14597 0.17692 0.23004
 C186 C 1.12912 0.12542 0.26069
 N187 N 1.11061 0.14495 0.31486
 H188 H 1.13207 0.07867 0.24614
 N189 N 0.91326 -0.19433 0.31331
 N190 N 0.88832 -0.21716 0.26391
 C191 C 0.86772 -0.16965 0.23161
 C192 C 0.88064 -0.11685 0.26256
 N193 N 0.90915 -0.13448 0.31318
 H194 H 0.86790 -0.07088 0.25117
 N195 N 0.86418 0.19413 0.67470
 N196 N 0.84301 0.21554 0.72607
 C197 C 0.84565 0.16944 0.76577
 C198 C 0.86810 0.11878 0.73737
 N199 N 0.87917 0.13635 0.68060
 H200 H 0.87398 0.07357 0.75538
 N201 N 1.19713 -0.08211 0.69795
 N202 N 1.21830 -0.11016 0.74632
 C203 C 1.17058 -0.13514 0.77394
 C204 C 1.11921 -0.12140 0.74129
 N205 N 1.13803 -0.08805 0.69439
 H206 H 1.07362 -0.13642 0.74901
 N207 N 0.31533 1.10367 1.19185
 N208 N 0.26597 1.12745 1.21484
 C209 C 0.23102 1.14383 1.16776
 C210 C 0.26036 1.12954 1.11485
 N211 N 0.31284 1.10453 1.13227
 H212 H 0.24631 1.13848 1.06892
 N213 N 0.31585 0.79256 0.89122
 N214 N 0.26515 0.77386 0.86573
 C215 C 0.23048 0.82356 0.85853
 C216 C 0.26103 0.87331 0.88011
 N217 N 0.31402 0.85183 0.90016
 H218 H 0.24749 0.92045 0.87884
 N219 N 0.68713 0.88937 1.20424
 N220 N 0.73890 0.86847 1.22560
 C221 C 0.77455 0.85939 1.17756
 C222 C 0.74314 0.87477 1.12601
 N223 N 0.68888 0.89321 1.14478
 H224 H 0.75689 0.86962 1.07960
 N225 N 0.67972 1.09315 0.80542
 N226 N 0.72846 1.11808 0.78242
 C227 C 0.76302 1.13559 0.82947
 C228 C 0.73422 1.12050 0.88233
 N229 N 0.68239 1.09404 0.86498
 H230 H 0.74816 1.12977 0.92824
 N231 N 0.19308 0.32295 0.10859
 N232 N 0.21732 0.27214 0.12918
 C233 C 0.17138 0.23375 0.13915
 C234 C 0.11809 0.26254 0.12479
 N235 N 0.13382 0.31807 0.10599
 H236 H 0.07265 0.24610 0.13037
 N237 N -0.19595 0.31053 -0.10202
 N238 N -0.22053 0.25974 -0.12223
 C239 C -0.17486 0.22423 -0.14060
 C240 C -0.12132 0.25490 -0.13151
 N241 N -0.13675 0.30854 -0.10738
 H242 H -0.07641 0.24113 -0.14408
 N243 N 0.10574 0.68381 -0.19897
 N244 N 0.12795 0.73488 -0.22080
 C245 C 0.13851 0.77126 -0.17307
 C246 C 0.12281 0.74094 -0.12120
 N247 N 0.10260 0.68664 -0.13950
 H248 H 0.12897 0.75529 -0.07491
 N249 N -0.19770 0.68648 0.10494
 N250 N -0.21766 0.73615 0.13160
 C251 C -0.16886 0.77003 0.14461
 C252 C -0.11815 0.73997 0.12512
 N253 N -0.13845 0.68810 0.10047
 H254 H -0.07152 0.75306 0.13036
 N255 N 1.10298 0.20502 0.69265
 N256 N 1.12766 0.22562 0.74306
 C257 C 1.15108 0.17725 0.77230
 C258 C 1.13942 0.12586 0.73805
 N259 N 1.10957 0.14558 0.68900
 H260 H 1.15123 0.07917 0.74739
 N261 N 0.80791 -0.09332 0.68181
 N262 N 0.78402 -0.11719 0.73082
 C263 C 0.83030 -0.13665 0.76526
 C264 C 0.88350 -0.12427 0.73590
 N265 N 0.86727 -0.09721 0.68404
 H266 H 0.92884 -0.13634 0.74928
 N267 N 1.19920 -0.11662 0.32557
 N268 N 1.21995 -0.14164 0.27565
 C269 C 1.17259 -0.14704 0.23779
 C270 C 1.12197 -0.12466 0.26574
 N271 N 1.14080 -0.10613 0.32047
 H272 H 1.07613 -0.12374 0.24903
 N273 N 0.90294 0.19829 0.30730
 N274 N 0.87863 0.21965 0.25703
 C275 C 0.86046 0.17109 0.22483
 C276 C 0.87416 0.11909 0.25675
 N277 N 0.90072 0.13836 0.30785
 H278 H 0.86334 0.07258 0.24554
 N279 N 0.19709 0.30700 -0.08232
 N280 N 0.22074 0.25735 -0.10611
 C281 C 0.17665 0.23029 -0.13851
 C282 C 0.12481 0.26484 -0.13311
 N283 N 0.13987 0.31213 -0.09820
 H284 H 0.08094 0.25723 -0.15316
 N285 N -0.20055 0.31303 0.09593
 N286 N -0.22167 0.26272 0.12028
 C287 C -0.17343 0.22883 0.13553
 C288 C -0.12193 0.25968 0.11993
 N289 N -0.14108 0.31195 0.09536
 H290 H -0.07559 0.24698 0.12825
 N291 N -0.11480 0.68060 -0.20668
 N292 N -0.13613 0.73238 -0.22824
 C293 C -0.14336 0.76948 -0.18051
 C294 C -0.12656 0.73894 -0.12892
 N295 N -0.10901 0.68372 -0.14737
 H296 H -0.12950 0.75415 -0.08265
 N297 N 0.07718 0.69592 0.19030
 N298 N 0.10292 0.74402 0.21506
 C299 C 0.13416 0.77150 0.17104
 C300 C 0.12673 0.73889 0.11820
 N301 N 0.09072 0.69222 0.13247
 H302 H 0.14749 0.74648 0.07492
 N303 N 0.30483 1.08110 0.81303
 N304 N 0.25761 1.10880 0.78911
 C305 C 0.23229 1.14212 0.83330
 C306 C 0.26569 1.13321 0.88585
 N307 N 0.31028 1.09499 0.87076
 H308 H 0.25921 1.15279 0.93005
 N309 N 0.31985 0.79704 1.12466
 N310 N 0.26835 0.77533 1.14498
 C311 C 0.23063 0.82295 1.14941
 C312 C 0.26057 0.87474 1.13218
 N313 N 0.31604 0.85642 1.11696
 H314 H 0.24468 0.92111 1.13318
 N315 N 0.68208 1.10904 1.19650
 N316 N 0.73296 1.13205 1.21767
 C317 C 0.76871 1.14064 1.16967
 C318 C 0.73834 1.12275 1.11828
 N319 N 0.68450 1.10332 1.13720
 H320 H 0.75264 1.12616 1.07190
 N321 N 0.68565 0.79961 0.89000
 N322 N 0.73501 0.77914 0.86407
 C323 C 0.76860 0.82813 0.85104
 C324 C 0.73854 0.87963 0.86988
 N325 N 0.68697 0.85943 0.89407
 H326 H 0.75163 0.92657 0.86482
   
