data_POSCAR
  _audit_creation_date              2014-09-24
  _audit_creation_method            'ToBaCCo'
  _symmetry_space_group_name_H-M    'P1'
  _symmetry_Int_Tables_number       1
  _symmetry_cell_setting            triclinic
  loop_
  _symmetry_equiv_pos_as_xyz
 x,y,z
_cell_length_a 49.0486
_cell_length_b 27.8916
_cell_length_c 21.7358
_cell_angle_alpha 89.996600
_cell_angle_beta 89.857100
_cell_angle_gamma 89.878200
loop_
  _atom_site_label
  _atom_site_type_symbol
  _atom_site_fract_x
  _atom_site_fract_y
  _atom_site_fract_z
C1 C 0.68574 0.31275 0.49976
 C2 C 0.69797 0.30040 0.55533
 C3 C 0.72279 0.27536 0.55553
 C4 C 0.73597 0.26204 0.49969
 C5 C 0.72285 0.27531 0.44398
 C6 C 0.69808 0.30030 0.44428
 C7 C 0.76283 0.23472 0.49952
 C8 C 0.77599 0.22134 0.44366
 C9 C 0.80075 0.19614 0.44389
 C10 C 0.81294 0.18374 0.49943
 C11 C 0.80065 0.19624 0.55489
 C12 C 0.77593 0.22140 0.55525
 H13 H 0.66648 0.33202 0.49955
 H14 H 0.73118 0.26682 0.59992
 H15 H 0.73120 0.26678 0.39948
 H16 H 0.76763 0.22992 0.39925
 H17 H 0.83216 0.16431 0.49963
 H18 H 0.76760 0.22994 0.59976
 C19 C 0.18589 0.81312 0.50211
 C20 C 0.19766 0.79945 0.55769
 C21 C 0.22223 0.77372 0.55799
 C22 C 0.23601 0.76215 0.50232
 C23 C 0.22357 0.77728 0.44655
 C24 C 0.19864 0.80185 0.44668
 C25 C 0.26278 0.73464 0.50241
 C26 C 0.27526 0.71931 0.44668
 C27 C 0.30010 0.69453 0.44687
 C28 C 0.31275 0.68329 0.50223
 C29 C 0.30097 0.69715 0.55782
 C30 C 0.27646 0.72310 0.55814
 H31 H 0.16666 0.83249 0.50186
 H32 H 0.22994 0.76306 0.60229
 H33 H 0.23266 0.77067 0.40222
 H34 H 0.26627 0.72588 0.40235
 H35 H 0.33192 0.66374 0.50193
 H36 H 0.26872 0.73392 0.60244
 C37 C 0.31230 0.31562 -0.49966
 C38 C 0.30036 0.30221 -0.55500
 C39 C 0.27582 0.27665 -0.55502
 C40 C 0.26231 0.26473 -0.49910
 C41 C 0.27499 0.27946 -0.44350
 C42 C 0.29981 0.30416 -0.44407
 C43 C 0.23551 0.23749 -0.49876
 C44 C 0.22287 0.22287 -0.44289
 C45 C 0.19794 0.19834 -0.44293
 C46 C 0.18538 0.18693 -0.49842
 C47 C 0.19734 0.20026 -0.55395
 C48 C 0.22193 0.22561 -0.55437
 H49 H 0.33147 0.33500 -0.49984
 H50 H 0.26797 0.26657 -0.59935
 H51 H 0.26621 0.27246 -0.39898
 H52 H 0.23181 0.22991 -0.39862
 H53 H 0.16614 0.16771 -0.49852
 H54 H 0.22977 0.23563 -0.59882
 C55 C -0.18686 0.81684 -0.50089
 C56 C -0.19912 0.80499 -0.55652
 C57 C -0.22387 0.77997 -0.55702
 C58 C -0.23681 0.76573 -0.50135
 C59 C -0.22358 0.77823 -0.44545
 C60 C -0.19900 0.80370 -0.44553
 C61 C -0.26357 0.73834 -0.50159
 C62 C -0.27700 0.72567 -0.44591
 C63 C -0.30161 0.70037 -0.44630
 C64 C -0.31361 0.68750 -0.50182
 C65 C -0.30114 0.69951 -0.55728
 C66 C -0.27635 0.72437 -0.55744
 H67 H -0.16770 0.83630 -0.50055
 H68 H -0.23243 0.77226 -0.60148
 H69 H -0.23167 0.76872 -0.40106
 H70 H -0.26903 0.73498 -0.40142
 H71 H -0.33280 0.66819 -0.50188
 H72 H -0.26769 0.73214 -0.60186
 O73 O -0.03789 0.91841 0.11434
 O74 O -0.06797 0.96088 0.05436
 C75 C -0.06232 0.93113 0.09832
 O76 O 0.03842 1.08654 0.10895
 O77 O 0.06869 1.04114 0.05275
 C78 C 0.06289 1.07342 0.09364
 O79 O -0.03804 1.08182 0.11413
 O80 O -0.06805 1.03921 0.05441
 C81 C -0.06245 1.06905 0.09826
 O82 O 0.03860 0.91367 0.10950
 O83 O 0.06876 0.95881 0.05301
 C84 C 0.06304 0.92671 0.09416
 Zr85 Zr 0.00041 0.93919 0.07789
 O86 O 0.00305 0.93575 0.17494
 O87 O -0.00259 0.86352 0.07341
 Zr88 Zr 0.00029 1.06094 0.07766
 O89 O 0.00298 1.06455 0.17468
 O90 O -0.00288 1.13659 0.07297
 O91 O -0.02374 1.00009 0.09009
 O92 O 0.02384 1.00006 0.08918
 O93 O 0.03884 0.91332 -0.10794
 O94 O 0.06891 0.95864 -0.05178
 C95 C 0.06326 0.92639 -0.09268
 O96 O -0.03776 1.08166 -0.11343
 O97 O -0.06791 1.03923 -0.05349
 C98 C -0.06220 1.06899 -0.09742
 O99 O 0.03869 1.08628 -0.10844
 O100 O 0.06883 1.04109 -0.05201
 C101 C 0.06313 1.07321 -0.09311
 O102 O -0.03763 0.91822 -0.11327
 O103 O -0.06786 0.96089 -0.05356
 C104 C -0.06210 0.93105 -0.09743
 Zr105 Zr 0.00057 0.93901 -0.07672
 O106 O 0.00348 0.93544 -0.17376
 O107 O -0.00248 0.86336 -0.07215
 Zr108 Zr 0.00048 1.06075 -0.07699
 O109 O 0.00340 1.06399 -0.17403
 O110 O -0.00264 1.13643 -0.07275
 Zr111 Zr -0.04006 1.00002 0.00045
 Zr112 Zr 0.04121 0.99994 0.00042
 O113 O 0.02400 0.99984 -0.08833
 O114 O -0.02351 0.99990 -0.08917
 O115 O 0.02511 0.92982 0.00058
 O116 O -0.02355 1.06954 0.00031
 O117 O -0.02343 0.93047 0.00058
 O118 O 0.02497 1.07008 0.00031
 H119 H 0.03565 1.00011 0.12602
 H120 H -0.03627 1.09719 0.00029
 H121 H 0.03600 0.99977 -0.12511
 H122 H -0.03611 0.90286 0.00058
 H123 H 0.01404 1.14879 0.05371
 H124 H 0.01421 1.14862 -0.05338
 H125 H -0.00952 1.04020 -0.19077
 H126 H -0.00930 0.95950 -0.19060
 H127 H 0.01437 0.85116 -0.05267
 H128 H 0.01443 0.85128 0.05454
 H129 H -0.00978 0.95985 0.19166
 H130 H -0.00982 1.04052 0.19151
 O131 O 0.46221 0.41802 0.11289
 O132 O 0.43205 0.46071 0.05336
 C133 C 0.43775 0.43083 0.09714
 O134 O 0.53855 0.58606 0.10797
 O135 O 0.56875 0.54087 0.05128
 C136 C 0.56301 0.57302 0.09240
 O137 O 0.46208 0.58139 0.11338
 O138 O 0.43200 0.53904 0.05354
 C139 C 0.43766 0.56871 0.09752
 O140 O 0.53869 0.41316 0.10729
 O141 O 0.56881 0.45847 0.05094
 C142 C 0.56311 0.42623 0.09190
 Zr143 Zr 0.50048 0.43882 0.07625
 O144 O 0.50326 0.43511 0.17325
 O145 O 0.49743 0.36318 0.07150
 Zr146 Zr 0.50036 0.56061 0.07661
 O147 O 0.50314 0.56389 0.17367
 O148 O 0.49722 0.63625 0.07237
 O149 O 0.47636 0.49970 0.08889
 O150 O 0.52388 0.49967 0.08776
 O151 O 0.53871 0.41357 -0.11005
 O152 O 0.56879 0.45870 -0.05385
 C153 C 0.56313 0.42658 -0.09487
 O154 O 0.46209 0.58178 -0.11433
 O155 O 0.43199 0.53922 -0.05442
 C156 C 0.43765 0.56905 -0.09831
 O157 O 0.53855 0.58653 -0.10950
 O158 O 0.56875 0.54108 -0.05343
 C159 C 0.56300 0.57341 -0.09429
 O160 O 0.46220 0.41834 -0.11457
 O161 O 0.43206 0.46087 -0.05448
 C162 C 0.43776 0.43110 -0.09844
 Zr163 Zr 0.50047 0.43914 -0.07835
 O164 O 0.50322 0.43609 -0.17550
 O165 O 0.49744 0.36347 -0.07430
 Zr166 Zr 0.50037 0.56093 -0.07804
 O167 O 0.50321 0.56466 -0.17506
 O168 O 0.49720 0.63654 -0.07317
 Zr169 Zr 0.45992 0.49993 -0.00066
 Zr170 Zr 0.54114 0.49984 -0.00115
 O171 O 0.52389 0.50002 -0.08980
 O172 O 0.47635 0.50007 -0.09038
 O173 O 0.52509 0.42976 -0.00124
 O174 O 0.47643 0.56947 -0.00054
 O175 O 0.47655 0.43039 -0.00097
 O176 O 0.52494 0.57004 -0.00079
 H177 H 0.53581 0.49956 0.12450
 H178 H 0.46370 0.59708 -0.00041
 H179 H 0.53581 0.50008 -0.12665
 H180 H 0.46387 0.40277 -0.00094
 H181 H 0.51413 0.64852 0.05318
 H182 H 0.51411 0.64872 -0.05405
 H183 H 0.49056 0.54044 -0.19183
 H184 H 0.49015 0.45978 -0.19209
 H185 H 0.51431 0.35125 -0.05494
 H186 H 0.51437 0.35103 0.05219
 H187 H 0.49047 0.45916 0.19021
 H188 H 0.49035 0.53983 0.19044
 C189 C 0.35424 0.34280 0.19646
 C190 C 0.36259 0.31304 0.25377
 C191 C 0.34410 0.34489 0.29377
 C192 C 0.33540 0.37439 0.23740
 C193 C 0.37792 0.37733 0.20939
 C194 C 0.35943 0.40917 0.24942
 C195 C 0.38651 0.34786 0.26586
 C196 C 0.36781 0.37944 0.30639
 C197 C 0.32670 0.32786 0.34406
 C198 C 0.31387 0.31525 0.38855
 C199 C 0.39801 0.39583 0.16549
 C200 C 0.41565 0.41154 0.13256
 H201 H 0.34890 0.32801 0.15065
 H202 H 0.36369 0.27333 0.25605
 H203 H 0.31416 0.38504 0.22625
 H204 H 0.35835 0.44890 0.24720
 H205 H 0.40773 0.33719 0.27721
 H206 H 0.37323 0.39434 0.35210
 C207 C -0.11432 0.84474 0.26346
 C208 C -0.13071 0.87685 0.30816
 C209 C -0.15625 0.84676 0.29503
 C210 C -0.14009 0.81436 0.25086
 C211 C -0.12232 0.87825 0.21036
 C212 C -0.14783 0.84818 0.19688
 C213 C -0.13849 0.91060 0.25458
 C214 C -0.16434 0.88030 0.24202
 C215 C -0.17367 0.83026 0.34551
 C216 C -0.18641 0.81782 0.39018
 C217 C -0.10216 0.89640 0.16644
 C218 C -0.08446 0.91194 0.13358
 H219 H -0.09354 0.83035 0.27187
 H220 H -0.12382 0.88845 0.35444
 H221 H -0.14095 0.77460 0.24984
 H222 H -0.15461 0.83665 0.15052
 H223 H -0.13762 0.95036 0.25568
 H224 H -0.18515 0.89463 0.23379
 C225 C 0.63860 0.59477 0.24772
 C226 C 0.66433 0.62575 0.23641
 C227 C 0.65575 0.65826 0.29019
 C228 C 0.63032 0.62749 0.30207
 C229 C 0.62246 0.62751 0.20406
 C230 C 0.61398 0.66000 0.25792
 C231 C 0.64786 0.65827 0.19183
 C232 C 0.63963 0.69106 0.24658
 C233 C 0.67291 0.67428 0.34131
 C234 C 0.68555 0.68635 0.38618
 C235 C 0.60260 0.60942 0.15952
 C236 C 0.58507 0.59347 0.12665
 H237 H 0.63798 0.55499 0.24775
 H238 H 0.68525 0.61190 0.22813
 H239 H 0.62324 0.61497 0.34788
 H240 H 0.59308 0.67389 0.26637
 H241 H 0.65485 0.67066 0.14591
 H242 H 0.64023 0.73084 0.24662
 C243 C 0.14727 1.15918 0.19441
 C244 C 0.13866 1.19201 0.24882
 C245 C 0.15457 1.15936 0.29299
 C246 C 0.16353 1.12681 0.23957
 C247 C 0.12186 1.12830 0.20598
 C248 C 0.13779 1.09572 0.25020
 C249 C 0.11301 1.16083 0.25950
 C250 C 0.12914 1.12847 0.30421
 C251 C 0.17138 1.17555 0.34452
 C252 C 0.18388 1.18757 0.38958
 C253 C 0.10226 1.11007 0.16103
 C254 C 0.08487 1.09398 0.12795
 H255 H 0.15451 1.17151 0.14866
 H256 H 0.13921 1.23179 0.24878
 H257 H 0.18452 1.11305 0.23199
 H258 H 0.13724 1.05593 0.25030
 H259 H 0.09203 1.17459 0.26725
 H260 H 0.12182 1.11599 0.34984
 C261 C 0.62358 0.39197 -0.27322
 C262 C 0.65507 0.39256 -0.26969
 C263 C 0.65561 0.34095 -0.29442
 C264 C 0.62435 0.34023 -0.29849
 C265 C 0.62250 0.37175 -0.20748
 C266 C 0.62304 0.32016 -0.23221
 C267 C 0.65376 0.37260 -0.20312
 C268 C 0.65463 0.32059 -0.22875
 C269 C 0.67265 0.32486 -0.34594
 C270 C 0.68523 0.31280 -0.39112
 C271 C 0.60271 0.38991 -0.16253
 C272 C 0.58521 0.40603 -0.12938
 H273 H 0.61063 0.42149 -0.29114
 H274 H 0.66842 0.42216 -0.28564
 H275 H 0.61240 0.32679 -0.33819
 H276 H 0.60965 0.29059 -0.21628
 H277 H 0.66562 0.38612 -0.16333
 H278 H 0.66763 0.29105 -0.21106
 C279 C 0.12264 0.88956 -0.27150
 C280 C 0.15412 0.89204 -0.26952
 C281 C 0.15540 0.83985 -0.29200
 C282 C 0.12415 0.83724 -0.29453
 C283 C 0.12253 0.87109 -0.20488
 C284 C 0.12381 0.81892 -0.22736
 C285 C 0.15378 0.87384 -0.20209
 C286 C 0.15541 0.82124 -0.22545
 C287 C 0.17229 0.82354 -0.34360
 C288 C 0.18481 0.81149 -0.38881
 C289 C 0.10283 0.88950 -0.15991
 C290 C 0.08534 0.90574 -0.12693
 H291 H 0.10899 0.91785 -0.29008
 H292 H 0.16676 0.92196 -0.28740
 H293 H 0.11210 0.82208 -0.33306
 H294 H 0.11114 0.78906 -0.20949
 H295 H 0.16573 0.88910 -0.16349
 H296 H 0.16912 0.79297 -0.20712
 C297 C 0.35237 0.65324 -0.19608
 C298 C 0.36025 0.68713 -0.24990
 C299 C 0.34396 0.65528 -0.29414
 C300 C 0.33573 0.62166 -0.24128
 C301 C 0.37776 0.62270 -0.21002
 C302 C 0.36146 0.59087 -0.25430
 C303 C 0.38589 0.65628 -0.26298
 C304 C 0.36937 0.62470 -0.30774
 C305 C 0.32659 0.67235 -0.34435
 C306 C 0.31382 0.68489 -0.38888
 C307 C 0.39787 0.60412 -0.16630
 C308 C 0.41553 0.58837 -0.13353
 H309 H 0.34561 0.66469 -0.14956
 H310 H 0.35955 0.72690 -0.24857
 H311 H 0.31487 0.60767 -0.23288
 H312 H 0.36217 0.55110 -0.25569
 H313 H 0.40673 0.67027 -0.27156
 H314 H 0.37622 0.61312 -0.35416
 C315 C -0.12173 1.10622 -0.27696
 C316 C -0.15310 1.10108 -0.27468
 C317 C -0.15582 1.15387 -0.29393
 C318 C -0.12466 1.15916 -0.29677
 C319 C -0.12201 1.12222 -0.20933
 C320 C -0.12472 1.17501 -0.22856
 C321 C -0.15316 1.11682 -0.20624
 C322 C -0.15621 1.17002 -0.22635
 C323 C -0.17319 1.17051 -0.34427
 C324 C -0.18596 1.18297 -0.38877
 C325 C -0.10194 1.10393 -0.16545
 C326 C -0.08429 1.08828 -0.13264
 H327 H -0.10737 1.07981 -0.29740
 H328 H -0.16497 1.07087 -0.29418
 H329 H -0.11310 1.17675 -0.33447
 H330 H -0.11280 1.20518 -0.20907
 H331 H -0.16462 1.09917 -0.16846
 H332 H -0.17061 1.19645 -0.20614
 C333 C 0.61374 0.66151 -0.25942
 C334 C 0.63967 0.69187 -0.24854
 C335 C 0.65530 0.65918 -0.29334
 C336 C 0.62959 0.62911 -0.30476
 C337 C 0.62228 0.62826 -0.20647
 C338 C 0.63793 0.59564 -0.25132
 C339 C 0.64796 0.65832 -0.19469
 C340 C 0.66394 0.62592 -0.24048
 C341 C 0.67229 0.67532 -0.34479
 C342 C 0.68489 0.68742 -0.38982
 C343 C 0.60253 0.61006 -0.16161
 C344 C 0.58503 0.59400 -0.12861
 H345 H 0.59289 0.67594 -0.26682
 H346 H 0.64058 0.73163 -0.24796
 H347 H 0.62219 0.61724 -0.35052
 H348 H 0.63702 0.55588 -0.25200
 H349 H 0.65528 0.67004 -0.14883
 H350 H 0.68480 0.61150 -0.23328
 C351 C 0.11419 1.16102 -0.25851
 C352 C 0.14030 1.19094 -0.24768
 C353 C 0.15575 1.15798 -0.29251
 C354 C 0.12986 1.12837 -0.30388
 C355 C 0.12255 1.12762 -0.20556
 C356 C 0.13802 1.09475 -0.25045
 C357 C 0.14841 1.15723 -0.19384
 C358 C 0.16420 1.12457 -0.23965
 C359 C 0.17282 1.17378 -0.34408
 C360 C 0.18535 1.18575 -0.38931
 C361 C 0.10274 1.10964 -0.16059
 C362 C 0.08521 1.09366 -0.12753
 H363 H 0.09343 1.17583 -0.26586
 H364 H 0.14142 1.23068 -0.24706
 H365 H 0.12236 1.11664 -0.34961
 H366 H 0.13690 1.05501 -0.25118
 H367 H 0.15581 1.16887 -0.14800
 H368 H 0.18499 1.10981 -0.23246
 C369 C 0.35998 0.41054 -0.25040
 C370 C 0.36799 0.37966 -0.30669
 C371 C 0.34359 0.34670 -0.29353
 C372 C 0.33527 0.37735 -0.23781
 C373 C 0.37772 0.37813 -0.20963
 C374 C 0.35337 0.34517 -0.19613
 C375 C 0.38594 0.34749 -0.26542
 C376 C 0.36133 0.31426 -0.25280
 C377 C 0.32603 0.33024 -0.34357
 C378 C 0.31317 0.31777 -0.38788
 C379 C 0.39794 0.39629 -0.16610
 C380 C 0.41564 0.41187 -0.13350
 H381 H 0.35965 0.45032 -0.24899
 H382 H 0.37385 0.39365 -0.35267
 H383 H 0.31420 0.38933 -0.22703
 H384 H 0.34762 0.33123 -0.15007
 H385 H 0.40699 0.33543 -0.27638
 H386 H 0.36168 0.27448 -0.25429
 C387 C -0.13804 0.91009 -0.25391
 C388 C -0.13007 0.87640 -0.30753
 C389 C -0.15551 0.84600 -0.29423
 C390 C -0.16379 0.87947 -0.24120
 C391 C -0.12178 0.87796 -0.20974
 C392 C -0.14719 0.84757 -0.19612
 C393 C -0.11361 0.84451 -0.26287
 C394 C -0.13927 0.81383 -0.25011
 C395 C -0.17286 0.82923 -0.34456
 C396 C -0.18562 0.81675 -0.38907
 C397 C -0.10175 0.89627 -0.16578
 C398 C -0.08415 0.91186 -0.13283
 H399 H -0.13732 0.94986 -0.25507
 H400 H -0.12318 0.88808 -0.35385
 H401 H -0.18464 0.89359 -0.23284
 H402 H -0.15399 0.83598 -0.14972
 H403 H -0.09277 0.83037 -0.27142
 H404 H -0.13998 0.77407 -0.24904
 C405 C 0.38525 0.65629 0.26182
 C406 C 0.35866 0.68463 0.24929
 C407 C 0.34365 0.65211 0.29523
 C408 C 0.37001 0.62407 0.30831
 C409 C 0.37766 0.62114 0.21025
 C410 C 0.36264 0.58870 0.25624
 C411 C 0.35133 0.64917 0.19683
 C412 C 0.33597 0.61695 0.24374
 C413 C 0.32616 0.66837 0.34579
 C414 C 0.31337 0.68079 0.39042
 C415 C 0.39783 0.60322 0.16610
 C416 C 0.41553 0.58781 0.13304
 H417 H 0.40572 0.67225 0.26883
 H418 H 0.35682 0.72426 0.24695
 H419 H 0.37754 0.61394 0.35466
 H420 H 0.36449 0.54907 0.25868
 H421 H 0.34392 0.65926 0.15038
 H422 H 0.31548 0.60105 0.23688
 C423 C -0.14786 1.15279 0.19715
 C424 C -0.16449 1.12089 0.24220
 C425 C -0.15633 1.15424 0.29529
 C426 C -0.14006 1.18642 0.25120
 C427 C -0.12244 1.12228 0.21060
 C428 C -0.11438 1.15560 0.26378
 C429 C -0.13873 1.09015 0.25473
 C430 C -0.13088 1.12371 0.30841
 C431 C -0.17374 1.17098 0.34579
 C432 C -0.18650 1.18348 0.39049
 C433 C -0.10231 1.10393 0.16659
 C434 C -0.08462 1.08829 0.13363
 H435 H -0.15460 1.16449 0.15079
 H436 H -0.18533 1.10689 0.23387
 H437 H -0.14081 1.22619 0.25023
 H438 H -0.09357 1.16965 0.27228
 H439 H -0.13797 1.05037 0.25577
 H440 H -0.12403 1.11193 0.35466
 C441 C 0.64791 0.34111 0.19261
 C442 C 0.66400 0.37374 0.23761
 C443 C 0.65526 0.34121 0.29116
 C444 C 0.63952 0.30830 0.24715
 C445 C 0.62234 0.37173 0.20414
 C446 C 0.61369 0.33922 0.25779
 C447 C 0.63809 0.40458 0.24822
 C448 C 0.62966 0.37184 0.30236
 C449 C 0.67221 0.32527 0.34266
 C450 C 0.68474 0.31328 0.38774
 C451 C 0.60264 0.38972 0.15916
 C452 C 0.58517 0.40571 0.12614
 H453 H 0.65517 0.32875 0.14686
 H454 H 0.68491 0.38769 0.22991
 H455 H 0.64031 0.26853 0.24727
 H456 H 0.59280 0.32523 0.26572
 H457 H 0.63730 0.44436 0.24823
 H458 H 0.62232 0.38430 0.34800
 C459 C 0.14790 0.84195 0.19525
 C460 C 0.16423 0.87487 0.23946
 C461 C 0.15567 0.84283 0.29366
 C462 C 0.13968 0.80965 0.25042
 C463 C 0.12241 0.87280 0.20686
 C464 C 0.11394 0.84078 0.26114
 C465 C 0.13841 0.90592 0.25017
 C466 C 0.13014 0.87368 0.30493
 C467 C 0.17281 0.82718 0.34506
 C468 C 0.18542 0.81522 0.39008
 C469 C 0.10259 0.89055 0.16192
 C470 C 0.08509 0.90635 0.12872
 H471 H 0.15497 0.82914 0.14955
 H472 H 0.18513 0.88865 0.23113
 H473 H 0.14039 0.76987 0.25104
 H474 H 0.09306 0.82695 0.26964
 H475 H 0.13768 0.94571 0.24964
 H476 H 0.12297 0.88657 0.35052
   
