data_POSCAR
  _audit_creation_date              2014-09-24
  _audit_creation_method            'ToBaCCo'
  _symmetry_space_group_name_H-M    'P1'
  _symmetry_Int_Tables_number       1
  _symmetry_cell_setting            triclinic
  loop_
  _symmetry_equiv_pos_as_xyz
 x,y,z
_cell_length_a 25.2894
_cell_length_b 25.2901
_cell_length_c 25.2901
_cell_angle_alpha 90.239800
_cell_angle_beta 90.000000
_cell_angle_gamma 89.997000
loop_
  _atom_site_label
  _atom_site_type_symbol
  _atom_site_fract_x
  _atom_site_fract_y
  _atom_site_fract_z
C1 C 0.50044 1.00026 -0.64364
 C2 C 0.45317 1.00760 -0.61609
 C3 C 0.45327 1.00903 -0.56069
 C4 C 0.50043 1.00019 -0.53185
 C5 C 0.54759 0.99139 -0.56077
 C6 C 0.54770 0.99288 -0.61616
 C7 C 0.50043 1.00016 -0.47231
 C8 C 0.54756 1.00911 -0.44337
 C9 C 0.54762 1.00765 -0.38803
 C10 C 0.50044 1.00010 -0.36057
 C11 C 0.45326 0.99257 -0.38809
 C12 C 0.45331 0.99118 -0.44345
 H13 H 0.50044 1.00028 -0.68660
 H14 H 0.41638 1.01736 -0.54074
 H15 H 0.58448 0.98303 -0.54090
 H16 H 0.58450 1.01755 -0.46308
 H17 H 0.50044 1.00007 -0.31766
 H18 H 0.41637 0.98276 -0.46324
 C19 C -0.64343 1.50000 0.00089
 C20 C -0.61589 1.45279 0.00832
 C21 C -0.56049 1.45294 0.00983
 C22 C -0.53164 1.50007 0.00099
 C23 C -0.56054 1.54716 -0.00791
 C24 C -0.61594 1.54724 -0.00651
 C25 C -0.47210 1.50011 0.00101
 C26 C -0.44323 1.54730 0.00991
 C27 C -0.38787 1.54739 0.00845
 C28 C -0.36035 1.50018 0.00097
 C29 C -0.38781 1.45295 -0.00650
 C30 C -0.44317 1.45295 -0.00791
 H31 H -0.68639 1.49997 0.00084
 H32 H -0.54057 1.41610 0.01821
 H33 H -0.54065 1.58402 -0.01627
 H34 H -0.46299 1.58427 0.01829
 H35 H -0.31744 1.50021 0.00093
 H36 H -0.46288 1.41596 -0.01630
 C37 C -0.00036 0.35855 0.49997
 C38 C 0.00707 0.38592 0.45275
 C39 C 0.00849 0.44132 0.45293
 C40 C -0.00041 0.47032 0.50013
 C41 C -0.00928 0.44153 0.54721
 C42 C -0.00781 0.38619 0.54720
 C43 C -0.00042 0.52986 0.50026
 C44 C 0.00847 0.55886 0.54746
 C45 C 0.00704 0.61426 0.54764
 C46 C -0.00040 0.64162 0.50043
 C47 C -0.00785 0.61399 0.45320
 C48 C -0.00930 0.55864 0.45318
 H49 H -0.00035 0.31562 0.50006
 H50 H 0.01688 0.46113 0.41608
 H51 H -0.01766 0.46137 0.58419
 H52 H 0.01686 0.53905 0.58431
 H53 H -0.00040 0.68456 0.50033
 H54 H -0.01766 0.53880 0.41620
 O55 O -0.13554 1.00223 -0.07138
 O56 O 0.13642 0.99768 -0.07140
 O57 O -0.00174 1.07139 -0.13562
 O58 O 0.00256 0.92824 -0.13593
 O59 O 0.00249 0.86369 -0.07159
 O60 O -0.00168 1.13619 -0.07099
 O61 O 0.07191 0.99763 -0.13606
 O62 O -0.07104 1.00203 -0.13604
 Zr63 Zr 0.00044 0.99990 -0.09288
 O64 O 0.04829 0.95207 -0.04779
 O65 O -0.04742 1.04790 -0.04757
 C66 C -0.11975 1.00339 -0.12013
 C67 C 0.12062 0.99636 -0.12015
 C68 C -0.00298 1.12017 -0.11973
 C69 C 0.00377 0.87951 -0.12027
 H70 H 0.07088 1.07033 -0.07006
 O71 O 0.04830 1.04781 -0.04753
 H72 H -0.07004 0.92957 -0.07037
 O73 O -0.04744 0.95217 -0.04775
 O74 O 0.13643 1.00232 0.07176
 O75 O -0.13555 0.99812 0.07175
 O76 O 0.07207 1.13603 0.00268
 O77 O 0.07191 0.86405 -0.00224
 O78 O -0.07124 0.86416 0.00213
 O79 O -0.07109 1.13610 -0.00168
 O80 O 0.00265 1.07194 0.13635
 O81 O -0.00180 0.92879 0.13604
 O82 O 0.00265 1.13648 0.07200
 O83 O -0.00183 0.86399 0.07141
 O84 O 0.13673 1.07152 0.00250
 O85 O -0.13578 1.07164 -0.00180
 O86 O -0.13586 0.92871 0.00223
 O87 O 0.13664 0.92847 -0.00209
 O88 O 0.07196 1.00246 0.13645
 O89 O -0.07108 0.99823 0.13645
 Zr90 Zr 0.09353 1.00003 0.00019
 Zr91 Zr -0.09265 1.00015 0.00020
 Zr92 Zr 0.00048 1.09317 0.00041
 Zr93 Zr 0.00037 0.90700 -0.00000
 Zr94 Zr 0.00044 1.00028 0.09330
 O95 O -0.04747 0.95234 0.04798
 O96 O 0.04835 1.04803 0.04819
 C97 C 0.12067 1.00366 0.12051
 C98 C -0.11979 0.99695 0.12050
 C99 C 0.12081 1.12024 0.00389
 C100 C 0.12068 0.87977 -0.00343
 C101 C -0.11998 0.87999 0.00344
 C102 C -0.11984 1.12034 -0.00297
 C103 C 0.00391 1.12066 0.12068
 C104 C -0.00310 0.88001 0.12015
 H105 H -0.06995 1.07068 0.07078
 O106 O -0.04738 1.04805 0.04815
 H107 H 0.07080 0.92977 0.07046
 O108 O 0.04825 0.95232 0.04793
 C109 C 0.24227 1.04431 0.28088
 C110 C 0.26484 0.99596 0.31100
 C111 C 0.32094 1.01323 0.29539
 C112 C 0.29918 1.06155 0.26590
 C113 C 0.23989 1.01060 0.23024
 C114 C 0.29602 1.02785 0.21473
 C115 C 0.26168 0.96231 0.25974
 C116 C 0.31839 0.97959 0.24470
 C117 C 0.36746 1.01324 0.32988
 C118 C 0.40710 1.01153 0.35626
 C119 C 0.19600 1.00842 0.19252
 C120 C 0.16104 1.00627 0.16023
 H121 H 0.21040 1.07088 0.29531
 H122 H 0.25255 0.98291 0.35101
 H123 H 0.31509 1.10237 0.26885
 H124 H 0.30840 1.04089 0.17474
 H125 H 0.24582 0.92147 0.25678
 H126 H 0.35018 0.95298 0.23015
 C127 C -0.28773 0.95449 0.22287
 C128 C -0.28484 0.93960 0.28218
 C129 C -0.32005 0.98738 0.29531
 C130 C -0.32357 1.00220 0.23654
 C131 C -0.23901 0.99007 0.23018
 C132 C -0.27428 1.03778 0.24336
 C133 C -0.23530 0.97522 0.28892
 C134 C -0.27134 1.02298 0.30265
 C135 C -0.36658 0.98732 0.32978
 C136 C -0.40623 0.98900 0.35616
 C137 C -0.19511 0.99226 0.19248
 C138 C -0.16015 0.99440 0.16020
 H139 H -0.29401 0.92637 0.18963
 H140 H -0.28970 0.89924 0.29856
 H141 H -0.36035 1.01327 0.21534
 H142 H -0.26949 1.07816 0.22701
 H143 H -0.19845 0.96417 0.31000
 H144 H -0.26511 1.05110 0.33589
 C145 C -0.27164 0.96227 -0.24641
 C146 C -0.32221 0.99584 -0.23878
 C147 C -0.31839 1.01340 -0.29676
 C148 C -0.26840 0.97981 -0.30493
 C149 C -0.23822 1.01051 -0.23058
 C150 C -0.23422 1.02810 -0.28853
 C151 C -0.28822 1.04407 -0.22245
 C152 C -0.28503 1.06170 -0.28098
 C153 C -0.36447 1.01355 -0.33182
 C154 C -0.40383 1.01192 -0.35864
 C155 C -0.19474 1.00821 -0.19242
 C156 C -0.16002 1.00600 -0.15990
 H157 H -0.26569 0.92137 -0.23179
 H158 H -0.35888 0.98260 -0.21866
 H159 H -0.26075 0.95344 -0.33929
 H160 H -0.19748 1.04132 -0.30852
 H161 H -0.29592 1.07044 -0.18810
 H162 H -0.29104 1.10258 -0.29562
 C163 C 0.23673 0.96549 -0.28662
 C164 C 0.26654 1.01465 -0.30783
 C165 C 0.31928 0.98659 -0.29687
 C166 C 0.29029 0.93744 -0.27628
 C167 C 0.23911 0.98931 -0.23067
 C168 C 0.29187 0.96128 -0.21978
 C169 C 0.26815 1.03841 -0.25129
 C170 C 0.32148 1.01037 -0.24089
 C171 C 0.36536 0.98654 -0.33194
 C172 C 0.40471 0.98824 -0.35874
 C173 C 0.19563 0.99153 -0.19248
 C174 C 0.16090 0.99372 -0.15995
 H175 H 0.20132 0.94708 -0.30495
 H176 H 0.25664 1.03653 -0.34447
 H177 H 0.29989 0.89592 -0.28699
 H178 H 0.30183 0.93940 -0.18314
 H179 H 0.25861 1.07995 -0.24059
 H180 H 0.35682 1.02880 -0.22242
 C181 C 0.28831 1.23652 0.02962
 C182 C 0.30486 1.27002 -0.01890
 C183 C 0.29566 1.32051 0.01382
 C184 C 0.27972 1.28785 0.06235
 C185 C 0.23053 1.23945 0.01104
 C186 C 0.22138 1.28997 0.04374
 C187 C 0.24652 1.27218 -0.03742
 C188 C 0.23785 1.32326 -0.00471
 C189 C 0.33011 1.36706 0.01390
 C190 C 0.35647 1.40672 0.01222
 C191 C 0.19283 1.19555 0.00878
 C192 C 0.16054 1.16059 0.00656
 H193 H 0.30860 1.20029 0.04368
 H194 H 0.33962 1.26232 -0.04461
 H195 H 0.29379 1.29479 0.10337
 H196 H 0.18662 1.29771 0.06944
 H197 H 0.23247 1.26530 -0.07847
 H198 H 0.21743 1.35942 -0.01880
 C199 C 0.22308 0.71138 -0.04532
 C200 C 0.28241 0.71411 -0.06043
 C201 C 0.29549 0.67942 -0.01246
 C202 C 0.23672 0.67605 0.00257
 C203 C 0.23035 0.76048 -0.01009
 C204 C 0.24350 0.72572 0.03781
 C205 C 0.28910 0.76402 -0.02515
 C206 C 0.30280 0.72850 0.02280
 C207 C 0.32998 0.63290 -0.01235
 C208 C 0.35637 0.59327 -0.01053
 C209 C 0.19264 0.80440 -0.00804
 C210 C 0.16036 0.83938 -0.00597
 H211 H 0.18986 0.70479 -0.07329
 H212 H 0.29882 0.70882 -0.10081
 H213 H 0.21551 0.63938 0.01395
 H214 H 0.22710 0.73093 0.07822
 H215 H 0.31019 0.80076 -0.03651
 H216 H 0.33602 0.73503 0.05077
 C217 C -0.27094 0.74856 -0.03271
 C218 C -0.25470 0.68967 -0.02926
 C219 C -0.29668 0.68144 0.01387
 C220 C -0.31354 0.73969 0.01046
 C221 C -0.23051 0.76160 0.01076
 C222 C -0.27245 0.75351 0.05395
 C223 C -0.21380 0.70332 0.01416
 C224 C -0.25624 0.69449 0.05733
 C225 C -0.33174 0.63536 0.01414
 C226 C -0.35853 0.59599 0.01261
 C227 C -0.19233 0.80506 0.00836
 C228 C -0.15979 0.83975 0.00609
 H229 H -0.27654 0.77125 -0.06977
 H230 H -0.24774 0.66294 -0.06349
 H231 H -0.35497 0.75411 0.00900
 H232 H -0.27928 0.78032 0.08814
 H233 H -0.17240 0.68880 0.01561
 H234 H -0.25061 0.67179 0.09438
 C235 C -0.21645 1.29411 -0.03057
 C236 C -0.26941 1.29502 -0.06132
 C237 C -0.29649 1.31899 -0.01242
 C238 C -0.24404 1.31870 0.01826
 C239 C -0.23030 1.23883 -0.00976
 C240 C -0.25740 1.26285 0.03910
 C241 C -0.28272 1.23895 -0.04051
 C242 C -0.31043 1.26374 0.00841
 C243 C -0.33157 1.36506 -0.01247
 C244 C -0.35840 1.40440 -0.01079
 C245 C -0.19212 1.19536 -0.00761
 C246 C -0.15961 1.16062 -0.00549
 H247 H -0.17739 1.30615 -0.04653
 H248 H -0.27478 1.30873 -0.10261
 H249 H -0.22847 1.35198 0.04242
 H250 H -0.25202 1.24918 0.08041
 H251 H -0.29815 1.20560 -0.06464
 H252 H -0.34951 1.25178 0.02438
 C253 C 0.04549 1.22377 0.28900
 C254 C 0.06109 1.28295 0.28610
 C255 C 0.01302 1.29670 0.32064
 C256 C -0.00251 1.23807 0.32418
 C257 C 0.01062 1.23095 0.23981
 C258 C -0.03739 1.24476 0.27442
 C259 C 0.02618 1.28955 0.23609
 C260 C -0.02188 1.30391 0.27147
 C261 C 0.01291 1.33149 0.36707
 C262 C 0.01110 1.35809 0.40668
 C263 C 0.00854 1.19295 0.19601
 C264 C 0.00646 1.16048 0.16108
 H265 H 0.07315 1.19039 0.29576
 H266 H 0.10157 1.29908 0.29142
 H267 H -0.01429 1.21723 0.36090
 H268 H -0.07789 1.22865 0.26918
 H269 H 0.03793 1.31026 0.19930
 H270 H -0.04954 1.33730 0.26476
 C271 C 0.03773 1.24459 -0.27252
 C272 C 0.00325 1.23729 -0.32253
 C273 C -0.01324 1.29566 -0.31867
 C274 C 0.02126 1.30350 -0.26925
 C275 C -0.01024 1.23007 -0.23829
 C276 C -0.02676 1.28842 -0.23425
 C277 C -0.04472 1.22228 -0.28773
 C278 C -0.06128 1.28120 -0.28450
 C279 C -0.01348 1.33041 -0.36485
 C280 C -0.01195 1.35700 -0.40425
 C281 C -0.00789 1.19219 -0.19471
 C282 C -0.00564 1.15984 -0.15996
 H283 H 0.07846 1.22913 -0.26716
 H284 H 0.01556 1.21659 -0.35932
 H285 H 0.04834 1.33733 -0.26214
 H286 H -0.03905 1.30899 -0.19738
 H287 H -0.07180 1.18844 -0.29487
 H288 H -0.10199 1.29668 -0.28992
 C289 C 0.02888 0.71143 -0.23624
 C290 C -0.01974 0.69476 -0.26982
 C291 C 0.01294 0.70349 -0.32025
 C292 C 0.06157 0.71953 -0.28751
 C293 C 0.01046 0.76923 -0.23942
 C294 C 0.04312 0.77791 -0.28987
 C295 C -0.03809 0.75314 -0.27222
 C296 C -0.00543 0.76132 -0.32324
 C297 C 0.01287 0.66869 -0.36668
 C298 C 0.01106 0.64209 -0.40629
 C299 C 0.00837 0.80723 -0.19561
 C300 C 0.00629 0.83969 -0.16068
 H301 H 0.04294 0.69137 -0.19990
 H302 H -0.04553 0.66014 -0.26208
 H303 H 0.10254 0.70529 -0.29430
 H304 H 0.06891 0.81253 -0.29766
 H305 H -0.07909 0.76736 -0.26550
 H306 H -0.01952 0.78151 -0.35951
 C307 C -0.04232 0.77953 0.28956
 C308 C -0.06201 0.72156 0.28698
 C309 C -0.01338 0.70453 0.31908
 C310 C 0.00623 0.76197 0.32229
 C311 C -0.01039 0.77012 0.23870
 C312 C 0.03817 0.75304 0.27086
 C313 C -0.03005 0.71271 0.23532
 C314 C 0.01856 0.69506 0.26824
 C315 C -0.01359 0.66977 0.36526
 C316 C -0.01203 0.64318 0.40465
 C317 C -0.00804 0.80800 0.19513
 C318 C -0.00578 0.84035 0.16037
 H319 H -0.06730 0.81470 0.29788
 H320 H -0.10319 0.70819 0.29412
 H321 H 0.02112 0.78189 0.35855
 H322 H 0.07937 0.76639 0.26380
 H323 H -0.04492 0.69292 0.19899
 H324 H 0.04355 0.65990 0.25998
   
