data_POSCAR
  _audit_creation_date              2014-09-24
  _audit_creation_method            'ToBaCCo'
  _symmetry_space_group_name_H-M    'P1'
  _symmetry_Int_Tables_number       1
  _symmetry_cell_setting            triclinic
  loop_
  _symmetry_equiv_pos_as_xyz
 x,y,z
_cell_length_a 25.4791
_cell_length_b 25.4754
_cell_length_c 43.8807
_cell_angle_alpha 89.645700
_cell_angle_beta 89.976800
_cell_angle_gamma 89.256400
loop_
  _atom_site_label
  _atom_site_type_symbol
  _atom_site_fract_x
  _atom_site_fract_y
  _atom_site_fract_z
O1 O -0.03900 0.44856 1.02694
 O2 O -0.03889 0.55105 0.96739
 O3 O -0.03899 0.44892 0.96759
 O4 O -0.03922 0.55068 1.02682
 O5 O 0.04750 0.54983 1.02679
 O6 O 0.04773 0.44766 0.96774
 O7 O 0.04779 0.55025 0.96760
 O8 O 0.04773 0.44731 1.02691
 Cu9 Cu -0.04773 0.49994 0.99718
 Cu10 Cu 0.05640 0.49867 0.99726
 C11 C 0.00435 0.43032 1.03695
 C12 C 0.00446 0.56831 0.95742
 C13 C 0.00439 0.43078 0.95771
 C14 C 0.00408 0.56769 1.03681
 O15 O 0.54749 0.04390 0.46646
 O16 O 0.44606 0.04578 0.52635
 O17 O 0.54864 0.04622 0.52584
 O18 O 0.44524 0.04390 0.46731
 O19 O 0.44743 -0.04283 0.46808
 O20 O 0.54909 -0.04047 0.52775
 O21 O 0.44707 -0.04095 0.52743
 O22 O 0.54988 -0.04273 0.46848
 Cu23 Cu 0.49682 0.05366 0.49637
 Cu24 Cu 0.49852 -0.05045 0.49804
 C25 C 0.56622 0.00024 0.45738
 C26 C 0.42901 0.00270 0.53688
 C27 C 0.56634 0.00328 0.53682
 C28 C 0.42868 0.00018 0.45778
 Si29 Si -0.00413 -0.00332 0.24785
 Si30 Si -0.00259 0.00016 0.74781
 C31 C 0.00341 -0.31348 0.10209
 N32 N -0.04197 -0.33683 0.09381
 N33 N -0.04173 -0.37488 0.07311
 C34 C 0.00393 -0.39112 0.06004
 N35 N 0.04934 -0.36797 0.06844
 N36 N 0.04907 -0.32976 0.08903
 C37 C 0.00297 -0.27061 0.12431
 N38 N 0.04712 -0.24290 0.12973
 N39 N 0.04645 -0.20317 0.14933
 C40 C 0.00167 -0.18986 0.16435
 N41 N -0.04241 -0.21777 0.15908
 N42 N -0.04180 -0.25735 0.13936
 C43 C 0.00068 -0.14529 0.18541
 N44 N -0.04264 -0.13464 0.20245
 N45 N -0.04386 -0.09351 0.22107
 C46 C -0.00190 -0.06155 0.22319
 N47 N 0.04137 -0.07207 0.20619
 N48 N 0.04271 -0.11333 0.18769
 C49 C 0.00383 0.30989 0.10208
 N50 N 0.04955 0.32577 0.08931
 N51 N 0.04978 0.36452 0.06878
 C52 C 0.00427 0.38864 0.06018
 N53 N -0.04143 0.37281 0.07297
 N54 N -0.04163 0.33421 0.09360
 C55 C 0.00340 0.26643 0.12422
 N56 N -0.04167 0.25319 0.13869
 N57 N -0.04233 0.21310 0.15833
 C58 C 0.00202 0.18465 0.16411
 N59 N 0.04712 0.19793 0.14967
 N60 N 0.04782 0.23816 0.13012
 C61 C 0.00093 0.13964 0.18516
 N62 N 0.04359 0.10758 0.18836
 N63 N 0.04213 0.06603 0.20693
 C64 C -0.00190 0.05530 0.22305
 N65 N -0.04448 0.08735 0.21994
 N66 N -0.04313 0.12877 0.20129
 C67 C 0.30858 0.00382 0.60160
 N68 N 0.33311 -0.04181 0.59387
 N69 N 0.37173 -0.04210 0.57339
 C70 C 0.38741 0.00326 0.56002
 N71 N 0.36310 0.04895 0.56788
 N72 N 0.32431 0.04921 0.58826
 C73 C 0.26507 0.00390 0.62356
 N74 N 0.23644 0.04831 0.62862
 N75 N 0.19621 0.04806 0.64803
 C76 C 0.18330 0.00343 0.66319
 N77 N 0.21210 -0.04092 0.65825
 N78 N 0.25218 -0.04072 0.63874
 C79 C 0.13846 0.00290 0.68421
 N80 N 0.12825 -0.04039 0.70131
 N81 N 0.08718 -0.04110 0.72010
 C82 C 0.05481 0.00136 0.72234
 N83 N 0.06486 0.04462 0.70527
 N84 N 0.10606 0.04543 0.68657
 C85 C -0.31482 0.00538 0.60245
 N86 N -0.33104 0.05050 0.58854
 N87 N -0.36922 0.04991 0.56780
 C88 C -0.39239 0.00416 0.56013
 N89 N -0.37620 -0.04094 0.57406
 N90 N -0.33818 -0.04032 0.59488
 C91 C -0.27200 0.00576 0.62484
 N92 N -0.25861 -0.03859 0.64045
 N93 N -0.21902 -0.03861 0.66028
 C94 C -0.19123 0.00567 0.66513
 N95 N -0.20468 0.05006 0.64957
 N96 N -0.24442 0.05014 0.62983
 C97 C -0.14649 0.00508 0.68623
 N98 N -0.11470 0.04727 0.68835
 N99 N -0.07309 0.04601 0.70674
 C100 C -0.06202 0.00267 0.72378
 N101 N -0.09384 -0.03941 0.72177
 N102 N -0.13533 -0.03826 0.70330
 C103 C 0.00431 -0.31395 0.89307
 N104 N -0.04146 -0.33507 0.90276
 N105 N -0.04140 -0.37342 0.92354
 C106 C 0.00446 -0.39227 0.93532
 N107 N 0.05026 -0.37134 0.92545
 N108 N 0.05017 -0.33280 0.90478
 C109 C 0.00409 -0.27070 0.87079
 N110 N 0.04892 -0.24467 0.86425
 N111 N 0.04843 -0.20453 0.84463
 C112 C 0.00315 -0.18914 0.83072
 N113 N -0.04160 -0.21538 0.83712
 N114 N -0.04117 -0.25534 0.85685
 C115 C 0.00229 -0.14407 0.80969
 N116 N -0.04175 -0.13173 0.79363
 N117 N -0.04297 -0.09010 0.77511
 C118 C -0.00028 -0.05928 0.77206
 N119 N 0.04372 -0.07146 0.78813
 N120 N 0.04506 -0.11325 0.80654
 C121 C 0.00399 0.31075 0.89319
 N122 N 0.04964 0.32624 0.90608
 N123 N 0.04985 0.36489 0.92640
 C124 C 0.00439 0.38929 0.93466
 N125 N -0.04125 0.37385 0.92174
 N126 N -0.04142 0.33537 0.90132
 C127 C 0.00359 0.26739 0.87129
 N128 N -0.04124 0.25479 0.85648
 N129 N -0.04184 0.21485 0.83703
 C130 C 0.00232 0.18589 0.83180
 N131 N 0.04717 0.19851 0.84660
 N132 N 0.04782 0.23861 0.86594
 C133 C 0.00138 0.14114 0.81088
 N134 N 0.04369 0.10849 0.80837
 N135 N 0.04252 0.06734 0.78980
 C136 C -0.00089 0.05759 0.77301
 N137 N -0.04313 0.09023 0.77538
 N138 N -0.04206 0.13125 0.79405
 C139 C -0.31703 -0.00212 0.39283
 N140 N -0.33945 0.04402 0.40160
 N141 N -0.37748 0.04480 0.42245
 C142 C -0.39467 -0.00056 0.43523
 N143 N -0.37244 -0.04671 0.42628
 N144 N -0.33424 -0.04746 0.40554
 C145 C -0.27410 -0.00292 0.37049
 N146 N -0.24708 -0.04808 0.36480
 N147 N -0.20721 -0.04859 0.34514
 C148 C -0.19308 -0.00401 0.33034
 N149 N -0.22032 0.04110 0.33587
 N150 N -0.26002 0.04166 0.35565
 C151 C -0.14821 -0.00431 0.30932
 N152 N -0.13682 0.03890 0.29242
 N153 N -0.09527 0.03900 0.27397
 C154 C -0.06362 -0.00403 0.27183
 N155 N -0.07488 -0.04718 0.28873
 N156 N -0.11656 -0.04741 0.30707
 C157 C 0.30735 -0.00133 0.39371
 N158 N 0.33221 -0.04666 0.40204
 N159 N 0.37114 -0.04623 0.42232
 C160 C 0.38676 -0.00042 0.43486
 N161 N 0.36210 0.04490 0.42640
 N162 N 0.32304 0.04444 0.40624
 C163 C 0.26354 -0.00173 0.37199
 N164 N 0.23471 0.04258 0.36672
 N165 N 0.19432 0.04221 0.34746
 C166 C 0.18142 -0.00241 0.33265
 N167 N 0.21039 -0.04670 0.33780
 N168 N 0.25065 -0.04640 0.35718
 C169 C 0.13649 -0.00275 0.31171
 N170 N 0.12652 -0.04551 0.29441
 N171 N 0.08553 -0.04571 0.27556
 C172 C 0.05301 -0.00327 0.27348
 N173 N 0.06280 0.03939 0.29078
 N174 N 0.10392 0.03971 0.30951
   
