data_POSCAR
  _audit_creation_date              2014-09-24
  _audit_creation_method            'ToBaCCo'
  _symmetry_space_group_name_H-M    'P1'
  _symmetry_Int_Tables_number       1
  _symmetry_cell_setting            triclinic
  loop_
  _symmetry_equiv_pos_as_xyz
 x,y,z
_cell_length_a 28.8910
_cell_length_b 28.9667
_cell_length_c 28.9742
_cell_angle_alpha 94.709400
_cell_angle_beta 91.843100
_cell_angle_gamma 92.713100
loop_
  _atom_site_label
  _atom_site_type_symbol
  _atom_site_fract_x
  _atom_site_fract_y
  _atom_site_fract_z
C1 C 0.03242 0.44980 0.19114
 H2 H 0.06381 0.47161 0.19728
 C3 C 0.03445 0.40514 0.16920
 H4 H 0.06765 0.39348 0.15794
 C5 C -0.04816 0.43791 0.20121
 H6 H -0.08007 0.45010 0.21496
 C7 C -0.04789 0.39339 0.17901
 H8 H -0.08011 0.37252 0.17564
 N9 N -0.00824 0.46474 0.20773
 C10 C -0.01235 0.61350 0.24446
 H11 H -0.01787 0.61240 0.28112
 C12 C -0.01201 0.65578 0.22474
 H13 H -0.01730 0.68707 0.24662
 C14 C 0.00100 0.57348 0.17181
 H15 H 0.00594 0.54117 0.15151
 C16 C 0.00155 0.61514 0.15053
 H17 H 0.00703 0.61449 0.11370
 Zn18 Zn -0.00702 0.51877 0.24917
 N19 N -0.00553 0.57357 0.21805
 C20 C 0.07787 0.55526 0.29061
 N21 N 0.04694 0.51819 0.28789
 C22 C 0.05694 0.47852 0.30741
 C23 C 0.10011 0.47464 0.32965
 C24 C 0.12108 0.55303 0.31276
 C25 C -0.09998 0.53217 0.26083
 C26 C -0.14283 0.53033 0.28134
 C27 C -0.10632 0.49956 0.34770
 C28 C -0.06388 0.50231 0.32591
 N29 N -0.06171 0.51793 0.28301
 H30 H 0.06998 0.58611 0.27407
 H31 H 0.03219 0.44912 0.30383
 H32 H 0.10794 0.44234 0.34381
 H33 H 0.14539 0.58272 0.31342
 H34 H -0.09732 0.54412 0.22657
 H35 H -0.17285 0.54130 0.26259
 H36 H -0.10764 0.48647 0.38160
 H37 H -0.03298 0.49122 0.34290
 C38 C -0.00487 0.65707 0.17717
 C39 C -0.00589 0.37560 0.16408
 C40 C -0.14658 0.51336 0.32513
 C41 C 0.13315 0.51201 0.33175
 C42 C 0.04550 0.56890 0.78555
 H43 H 0.07487 0.55845 0.76584
 C44 C 0.04593 0.61381 0.80706
 H45 H 0.07607 0.63688 0.80404
 C46 C -0.03016 0.55253 0.81102
 H47 H -0.06017 0.52876 0.81124
 C48 C -0.03140 0.59745 0.83269
 H49 H -0.06232 0.60764 0.85019
 N50 N 0.00762 0.53945 0.78732
 C51 C 0.00213 0.38880 0.75706
 H52 H 0.00235 0.38837 0.71969
 C53 C 0.00080 0.34719 0.77799
 H54 H 0.00020 0.31483 0.75638
 C55 C 0.00295 0.43199 0.83022
 H56 H 0.00382 0.46525 0.85022
 C57 C 0.00240 0.39097 0.85276
 H58 H 0.00263 0.39296 0.89025
 Zn59 Zn 0.00363 0.48302 0.74889
 N60 N 0.00244 0.43003 0.78314
 C61 C 0.09642 0.47011 0.73751
 N62 N 0.05754 0.47981 0.71317
 C63 C 0.05911 0.48805 0.66768
 C64 C 0.10156 0.48833 0.64551
 C65 C 0.13924 0.46966 0.71676
 C66 C -0.08698 0.45060 0.72033
 C67 C -0.13131 0.45297 0.70053
 C68 C -0.10491 0.52143 0.66479
 C69 C -0.06092 0.51775 0.68562
 N70 N -0.05279 0.48276 0.71291
 H71 H 0.09424 0.46374 0.77366
 H72 H 0.02779 0.49535 0.64881
 H73 H 0.10237 0.49580 0.60954
 H74 H 0.16967 0.46265 0.73733
 H75 H -0.08077 0.42397 0.74338
 H76 H -0.15755 0.42700 0.70816
 H77 H -0.11031 0.55016 0.64387
 H78 H -0.03371 0.54386 0.68138
 C79 C 0.00089 0.34783 0.82645
 C80 C 0.00671 0.62906 0.83008
 C81 C -0.14147 0.48920 0.67276
 C82 C 0.14247 0.47952 0.67033
 C83 C 0.18874 0.02647 0.44467
 H84 H 0.19061 0.05619 0.46995
 C85 C 0.16673 0.02935 0.40135
 H86 H 0.15104 0.06127 0.39395
 C87 C 0.20970 -0.05010 0.42261
 H88 H 0.22771 -0.08053 0.43027
 C89 C 0.18806 -0.04878 0.37910
 H90 H 0.18920 -0.07871 0.35426
 N91 N 0.21034 -0.01258 0.45411
 C92 C 0.24185 -0.02133 0.60073
 H93 H 0.27759 -0.03023 0.59735
 C94 C 0.22175 -0.02128 0.64372
 H95 H 0.24234 -0.03020 0.67328
 C96 C 0.17213 0.00171 0.56599
 H97 H 0.15308 0.01048 0.53547
 C98 C 0.15078 0.00299 0.60874
 H99 H 0.11513 0.01270 0.61081
 Zn100 Zn 0.24978 -0.01143 0.50761
 N101 N 0.21703 -0.00997 0.56300
 C102 C 0.29017 0.07349 0.54689
 N103 N 0.28901 0.04278 0.50873
 C104 C 0.30998 0.05344 0.46934
 C105 C 0.33178 0.09727 0.46678
 C106 C 0.31168 0.11744 0.54594
 C107 C 0.25811 -0.10458 0.51581
 C108 C 0.27876 -0.14696 0.51609
 C109 C 0.35009 -0.10995 0.49288
 C110 C 0.32816 -0.06782 0.49387
 N111 N 0.28287 -0.06612 0.50500
 H112 H 0.27271 0.06484 0.57764
 H113 H 0.30777 0.02870 0.43918
 H114 H 0.34696 0.10566 0.43464
 H115 H 0.31095 0.14163 0.57642
 H116 H 0.22209 -0.10216 0.52439
 H117 H 0.25829 -0.17710 0.52480
 H118 H 0.38612 -0.11101 0.48383
 H119 H 0.34716 -0.03670 0.48560
 C120 C 0.17576 -0.00870 0.64823
 C121 C 0.16720 -0.00828 0.36750
 C122 C 0.32527 -0.15009 0.50438
 C123 C 0.33182 0.13032 0.50515
 C124 C 0.83462 0.00714 0.55383
 H125 H 0.85490 0.00475 0.52308
 C126 C 0.85626 0.00576 0.59773
 H127 H 0.89345 0.00285 0.60062
 C128 C 0.76126 0.01213 0.58782
 H129 H 0.72405 0.01374 0.58350
 C130 C 0.78134 0.01181 0.63197
 H131 H 0.75924 0.01324 0.66148
 N132 N 0.78786 0.01040 0.54995
 C133 C 0.77264 -0.02638 0.40505
 H134 H 0.74406 -0.05075 0.40957
 C135 C 0.79367 -0.02769 0.36247
 H136 H 0.78130 -0.05401 0.33562
 C137 C 0.82077 0.03875 0.43374
 H138 H 0.83041 0.06505 0.46151
 C139 C 0.84278 0.03892 0.39133
 H140 H 0.86971 0.06542 0.38724
 Zn141 Zn 0.75171 0.00852 0.49436
 N142 N 0.78647 0.00625 0.43981
 C143 C 0.73117 0.09847 0.52685
 N144 N 0.71674 0.06245 0.49583
 C145 C 0.68161 0.06681 0.46433
 C146 C 0.65915 0.10863 0.46377
 C147 C 0.70980 0.14057 0.52756
 C148 C 0.74256 -0.08491 0.49356
 C149 C 0.72257 -0.12940 0.49397
 C150 C 0.64728 -0.09656 0.49827
 C151 C 0.66886 -0.05230 0.49685
 N152 N 0.71575 -0.04757 0.49422
 H153 H 0.76038 0.09526 0.55034
 H154 H 0.67156 0.03812 0.43918
 H155 H 0.63146 0.11160 0.43828
 H156 H 0.72240 0.16863 0.55245
 H157 H 0.77984 -0.07991 0.49235
 H158 H 0.74480 -0.15851 0.49317
 H159 H 0.60996 -0.10014 0.50042
 H160 H 0.64837 -0.02197 0.49838
 C161 C 0.82903 0.00550 0.35466
 C162 C 0.82935 0.00832 0.63744
 C163 C 0.67440 -0.13574 0.49644
 C164 C 0.67345 0.14633 0.49560
 C165 C 0.56511 0.17143 0.99552
 H166 H 0.53392 0.15446 1.00695
 C167 C 0.60727 0.14968 0.99791
 H168 H 0.60808 0.11576 1.01097
 C169 C 0.60233 0.23670 0.96558
 H170 H 0.60026 0.27109 0.95392
 C171 C 0.64487 0.21619 0.96696
 H172 H 0.67522 0.23505 0.95589
 N173 N 0.56363 0.21440 0.97999
 C174 C 0.42391 0.20933 0.94404
 H175 H 0.43277 0.22596 0.91334
 C176 C 0.37971 0.18852 0.94644
 H177 H 0.35593 0.18896 0.91683
 C178 C 0.44341 0.19108 1.02020
 H179 H 0.46804 0.19364 1.04934
 C180 C 0.39929 0.17006 1.02429
 H181 H 0.39088 0.15581 1.05656
 Zn182 Zn 0.50973 0.24877 0.98025
 N183 N 0.45457 0.21081 0.98077
 C184 C 0.51608 0.25470 0.88580
 N185 N 0.50923 0.28072 0.92599
 C186 C 0.50274 0.32692 0.92654
 C187 C 0.50200 0.34848 0.88507
 C188 C 0.51565 0.27474 0.84372
 C189 C 0.55049 0.29257 1.06292
 C190 C 0.55010 0.31506 1.10729
 C191 C 0.47017 0.33220 1.09281
 C192 C 0.47222 0.30966 1.04840
 N193 N 0.51169 0.28952 1.03479
 H194 H 0.52147 0.21805 0.88653
 H195 H 0.49774 0.34692 0.95902
 H196 H 0.49638 0.38523 0.88606
 H197 H 0.52079 0.25312 0.81220
 H198 H 0.58135 0.27589 1.05186
 H199 H 0.58106 0.31573 1.12945
 H200 H 0.43794 0.34657 1.10363
 H201 H 0.44162 0.30610 1.02562
 C202 C 0.36621 0.16950 0.98740
 C203 C 0.64792 0.17235 0.98382
 C204 C 0.50919 0.33410 1.12330
 C205 C 0.50826 0.32219 0.84287
 C206 C 0.43496 0.83134 1.01602
 H207 H 0.46738 0.85111 1.01372
 C208 C 0.39293 0.85360 1.01464
 H209 H 0.39377 0.89062 1.01146
 C210 C 0.39469 0.75912 1.02212
 H211 H 0.39561 0.72206 1.02431
 C212 C 0.35222 0.77983 1.02152
 H213 H 0.32096 0.75805 1.02358
 N214 N 0.43503 0.78479 1.01935
 C215 C 0.57484 0.79278 1.05671
 H216 H 0.56522 0.77666 1.08756
 C217 C 0.61926 0.81350 1.05458
 H218 H 0.64313 0.81333 1.08415
 C219 C 0.55599 0.81117 0.98041
 H220 H 0.53162 0.80865 0.95107
 C221 C 0.60004 0.83260 0.97691
 H222 H 0.60892 0.84710 0.94489
 Zn223 Zn 0.49030 0.75121 1.01824
 N224 N 0.54469 0.79083 1.01948
 C225 C 0.52864 0.69185 0.94785
 N226 N 0.48959 0.71309 0.96116
 C227 C 0.45206 0.71292 0.93150
 C228 C 0.45285 0.69133 0.88682
 C229 C 0.53113 0.67020 0.90297
 C230 C 0.46135 0.72396 1.10474
 C231 C 0.46265 0.70062 1.14487
 C232 C 0.53053 0.66289 1.11768
 C233 C 0.52692 0.68576 1.07699
 N234 N 0.49264 0.71577 1.07121
 H235 H 0.55872 0.69367 0.97120
 H236 H 0.42183 0.73114 0.94132
 H237 H 0.42270 0.69272 0.86388
 H238 H 0.56291 0.65458 0.89265
 H239 H 0.43592 0.74961 1.10134
 H240 H 0.43736 0.70763 1.17103
 H241 H 0.55825 0.63960 1.12223
 H242 H 0.55224 0.68053 1.05069
 C243 C 0.63284 0.83272 1.01386
 C244 C 0.35058 0.82774 1.01725
 C245 C 0.49775 0.67007 1.15185
 C246 C 0.49300 0.67036 0.87159
 B247 B 1.00162 1.05076 0.03332
 B248 B 1.00087 1.04884 -0.02514
 B249 B 1.04864 1.03375 0.00437
 B250 B 1.03092 1.00507 0.04989
 B251 B 0.97213 1.00269 0.04853
 B252 B 0.95363 1.02938 0.00204
 B253 B 1.00054 0.95384 -0.03005
 B254 B 1.00080 0.95572 0.02873
 B255 B 0.95324 0.97073 -0.00112
 B256 B 0.97128 0.99925 -0.04653
 B257 B 1.02999 1.00210 -0.04486
 B258 B 1.04844 0.97502 0.00162
 B259 B 0.54675 0.49818 0.47111
 B260 B 0.54669 0.50114 0.52972
 B261 B 0.52970 0.54671 0.50154
 B262 B 0.50002 0.52565 0.45221
 B263 B 0.49834 0.46718 0.44995
 B264 B 0.52722 0.45161 0.49766
 B265 B 0.45150 0.49856 0.52624
 B266 B 0.45160 0.49605 0.46770
 B267 B 0.46849 0.45033 0.49581
 B268 B 0.49857 0.47127 0.54495
 B269 B 0.49979 0.53006 0.54712
 B270 B 0.47104 0.54521 0.49925
 C271 C 0.99913 1.23764 0.11688
 N272 N 1.03839 1.26553 0.12089
 N273 N 1.03677 1.31026 0.13552
 C274 C 0.99583 1.32891 0.14667
 N275 N 0.95664 1.30076 0.14236
 N276 N 0.95821 1.25614 0.12762
 C277 C 1.00036 1.18865 0.09969
 N278 N 0.96029 1.16267 0.09080
 N279 N 0.96093 1.11914 0.07228
 C280 C 1.00162 1.09967 0.06232
 N281 N 1.04177 1.12543 0.07213
 N282 N 1.04119 1.16909 0.09051
 C283 C 0.99740 0.78398 0.11666
 N284 N 1.00212 0.74357 0.09039
 N285 N 1.00140 0.70332 0.10955
 C286 C 0.99587 0.70185 0.15577
 N287 N 0.99113 0.74239 0.18200
 N288 N 0.99188 0.78269 0.16285
 C289 C 0.99826 0.82809 0.09507
 N290 N 0.99429 0.86913 0.12060
 N291 N 0.99519 0.90888 0.10034
 C292 C 1.00017 0.90902 0.05389
 N293 N 1.00391 0.86789 0.02868
 N294 N 1.00306 0.82825 0.04875
 C295 C 0.99918 1.22194 -0.11118
 N296 N 1.01327 1.26231 -0.08643
 N297 N 1.01336 1.30241 -0.10598
 C298 C 0.99968 1.30363 -0.15114
 N299 N 0.98555 1.26316 -0.17577
 N300 N 0.98515 1.22313 -0.15617
 C301 C 0.99967 1.17768 -0.08977
 N302 N 0.97922 1.13834 -0.11171
 N303 N 0.97971 1.09833 -0.09202
 C304 C 1.00107 1.09599 -0.04990
 N305 N 1.02160 1.13540 -0.02825
 N306 N 1.02087 1.17545 -0.04766
 C307 C 1.00181 0.76888 -0.11926
 N308 N 0.96327 0.74004 -0.12024
 N309 N 0.96486 0.69555 -0.13582
 C310 C 1.00508 0.67812 -0.15093
 N311 N 1.04355 0.70712 -0.14985
 N312 N 1.04201 0.75153 -0.13417
 C313 C 1.00061 0.81760 -0.10073
 N314 N 1.04030 0.84477 -0.09511
 N315 N 1.03989 0.88786 -0.07524
 C316 C 0.99980 0.90565 -0.06052
 N317 N 0.95995 0.87877 -0.06715
 N318 N 0.96030 0.83559 -0.08689
 C319 C 1.11721 1.00195 0.23120
 N320 N 1.13650 0.96273 0.24339
 N321 N 1.15190 0.95947 0.28673
 C322 C 1.14847 0.99516 0.31973
 N323 N 1.12910 1.03443 0.30744
 N324 N 1.11363 1.03771 0.26405
 C325 C 1.09894 1.00469 0.18371
 N326 N 1.07728 1.04273 0.17173
 N327 N 1.05783 1.04365 0.12952
 C328 C 1.05927 1.00665 0.09775
 N329 N 1.08207 0.96916 0.10942
 N330 N 1.10153 0.96817 0.15158
 C331 C 1.11773 0.99726 -0.22081
 N332 N 1.15503 0.97167 -0.22966
 N333 N 1.17327 0.96966 -0.27137
 C334 C 1.15467 0.99277 -0.30591
 N335 N 1.11712 1.01809 -0.29705
 N336 N 1.09908 1.02038 -0.25525
 C337 C 1.09749 0.99968 -0.17499
 N338 N 1.06492 1.03059 -0.16445
 N339 N 1.04523 1.03195 -0.12355
 C340 C 1.05701 1.00241 -0.09164
 N341 N 1.09006 0.97182 -0.10202
 N342 N 1.11009 0.97057 -0.14289
 C343 C 0.88589 1.00601 0.22572
 N344 N 0.90013 1.03854 0.26034
 N345 N 0.88204 1.03834 0.30208
 C346 C 0.84896 1.00557 0.31092
 N347 N 0.83496 0.97304 0.27606
 N348 N 0.85305 0.97319 0.23439
 C349 C 0.90616 1.00594 0.17988
 N350 N 0.89367 0.97219 0.14582
 N351 N 0.91325 0.97154 0.10474
 C352 C 0.94591 1.00459 0.09606
 N353 N 0.95785 1.03850 0.13007
 N354 N 0.93845 1.03925 0.17114
 C355 C 0.88562 0.99999 -0.22850
 N356 N 0.90855 0.98327 -0.26604
 N357 N 0.89121 0.98653 -0.30879
 C358 C 0.85020 1.00647 -0.31553
 N359 N 0.82745 1.02324 -0.27787
 N360 N 0.84492 1.02031 -0.23521
 C361 C 0.90497 0.99708 -0.18146
 N362 N 0.88732 1.02164 -0.14471
 N363 N 0.90669 1.02111 -0.10240
 C364 C 0.94414 0.99572 -0.09522
 N365 N 0.96078 0.97013 -0.13185
 N366 N 0.94172 0.97089 -0.17418
 C367 C 1.23087 1.12113 -0.00033
 N368 N 1.24500 1.13776 -0.04021
 N369 N 1.28874 1.15302 -0.04412
 C370 C 1.32034 1.15214 -0.00844
 N371 N 1.30604 1.13531 0.03151
 N372 N 1.26219 1.12002 0.03546
 C373 C 1.18294 1.10292 0.00289
 N374 N 1.16827 1.08503 0.04205
 N375 N 1.12566 1.06556 0.04339
 C376 C 1.09614 1.06341 0.00573
 N377 N 1.11068 1.08206 -0.03305
 N378 N 1.15317 1.10158 -0.03442
 C379 C 0.77788 1.11476 -0.00427
 N380 N 0.74031 1.09515 0.01496
 N381 N 0.69889 1.11313 0.01092
 C382 C 0.69351 1.15139 -0.01250
 N383 N 0.73122 1.17086 -0.03169
 N384 N 0.77255 1.15284 -0.02779
 C385 C 0.82333 1.09462 -0.00067
 N386 N 0.85970 1.11163 -0.02371
 N387 N 0.90045 1.09209 -0.02212
 C388 C 0.90639 1.05487 0.00259
 N389 N 0.87026 1.03860 0.02646
 N390 N 0.82944 1.05799 0.02478
 C391 C 1.22414 0.88813 0.00957
 N392 N 1.22645 0.84268 0.01698
 N393 N 1.26728 0.82337 0.01953
 C394 C 1.30758 0.84866 0.01507
 N395 N 1.30508 0.89430 0.00790
 N396 N 1.26420 0.91359 0.00510
 C397 C 1.17911 0.90946 0.00651
 N398 N 1.17661 0.95325 -0.00625
 N399 N 1.13599 0.97292 -0.00848
 C400 C 1.09624 0.94985 0.00207
 N401 N 1.09878 0.90591 0.01471
 N402 N 1.13941 0.88600 0.01673
 C403 C 0.77075 0.88160 0.00046
 N404 N 0.73718 0.89066 -0.03096
 N405 N 0.69341 0.87530 -0.02672
 C406 C 0.68135 0.85069 0.00940
 N407 N 0.71505 0.84172 0.04080
 N408 N 0.75884 0.85688 0.03645
 C409 C 0.81864 0.90031 -0.00306
 N410 N 0.85278 0.88944 0.02692
 N411 N 0.89521 0.90950 0.02616
 C412 C 0.90508 0.94144 -0.00432
 N413 N 0.87127 0.95105 -0.03524
 N414 N 0.82892 0.93090 -0.03469
 C415 C 0.72300 0.50164 0.38383
 N416 N 0.72856 0.52360 0.34468
 N417 N 0.77002 0.52734 0.32624
 C418 C 0.80761 0.50952 0.34630
 N419 N 0.80197 0.48759 0.38558
 N420 N 0.76044 0.48373 0.40401
 C421 C 0.67748 0.49858 0.40456
 N422 N 0.67121 0.47540 0.44285
 N423 N 0.63032 0.47450 0.46275
 C424 C 0.59429 0.49697 0.44538
 N425 N 0.60042 0.51923 0.40651
 N426 N 0.64122 0.52008 0.38646
 C427 C 0.26908 0.50071 0.38359
 N428 N 0.25475 0.54152 0.36993
 N429 N 0.21149 0.54503 0.35402
 C430 C 0.18065 0.50798 0.35131
 N431 N 0.19499 0.46709 0.36517
 N432 N 0.23839 0.46353 0.38111
 C433 C 0.31670 0.49783 0.40178
 N434 N 0.33226 0.45763 0.41599
 N435 N 0.37496 0.45635 0.43458
 C436 C 0.40371 0.49507 0.43931
 N437 N 0.38802 0.53503 0.42479
 N438 N 0.34551 0.53636 0.40617
 C439 C 0.72669 0.50136 0.62165
 N440 N 0.76143 0.53182 0.61177
 N441 N 0.80452 0.52796 0.62843
 C442 C 0.81484 0.49323 0.65541
 N443 N 0.77976 0.46282 0.66506
 N444 N 0.73670 0.46676 0.64857
 C445 C 0.67954 0.50425 0.60171
 N446 N 0.64465 0.47441 0.61258
 N447 N 0.60285 0.47461 0.59175
 C448 C 0.59441 0.50440 0.55903
 N449 N 0.62897 0.53518 0.54935
 N450 N 0.67071 0.53514 0.57022
 C451 C 0.27329 0.48839 0.61115
 N452 N 0.23490 0.50092 0.58789
 N453 N 0.19331 0.49766 0.60634
 C454 C 0.18844 0.48176 0.64884
 N455 N 0.22694 0.46915 0.67195
 N456 N 0.26850 0.47228 0.65348
 C457 C 0.31913 0.49216 0.59069
 N458 N 0.35734 0.47704 0.61225
 N459 N 0.39858 0.47973 0.59293
 C460 C 0.40327 0.49787 0.55148
 N461 N 0.36501 0.51321 0.53032
 N462 N 0.32381 0.51047 0.54944
 C463 C 0.50126 0.60931 0.27792
 N464 N 0.54059 0.62885 0.26181
 N465 N 0.53992 0.64711 0.22099
 C466 C 0.49981 0.64685 0.19515
 N467 N 0.46056 0.62744 0.21141
 N468 N 0.46138 0.60859 0.25179
 C469 C 0.50135 0.58882 0.32261
 N470 N 0.46908 0.55506 0.33014
 N471 N 0.46878 0.53604 0.37037
 C472 C 0.50010 0.55043 0.40508
 N473 N 0.53200 0.58479 0.39773
 N474 N 0.53284 0.60346 0.35715
 C475 C 0.49872 0.61875 0.73217
 N476 N 0.53750 0.62172 0.76027
 N477 N 0.53576 0.63759 0.80470
 C478 C 0.49517 0.65099 0.82273
 N479 N 0.45650 0.64786 0.79446
 N480 N 0.45819 0.63193 0.75017
 C481 C 0.49989 0.60010 0.68353
 N482 N 0.46002 0.59317 0.65729
 N483 N 0.46034 0.57343 0.61417
 C484 C 0.50054 0.56020 0.59540
 N485 N 0.54055 0.56801 0.62139
 N486 N 0.54029 0.58763 0.66461
 C487 C 0.50232 0.38388 0.26302
 N488 N 0.46375 0.38091 0.23468
 N489 N 0.46596 0.36576 0.19014
 C490 C 0.50685 0.35316 0.17219
 N491 N 0.54535 0.35635 0.20067
 N492 N 0.54318 0.37154 0.24513
 C493 C 0.50040 0.40138 0.31187
 N494 N 0.53979 0.40724 0.33892
 N495 N 0.53872 0.42573 0.38244
 C496 C 0.49824 0.43876 0.40078
 N497 N 0.45873 0.43209 0.37390
 N498 N 0.45973 0.41368 0.33030
 C499 C 0.50329 0.38299 0.71627
 N500 N 0.51090 0.33724 0.71739
 N501 N 0.51257 0.31803 0.75760
 C502 C 0.50676 0.34376 0.79823
 N503 N 0.49918 0.38955 0.79695
 N504 N 0.49750 0.40877 0.75677
 C505 C 0.50149 0.40460 0.67224
 N506 N 0.49409 0.45040 0.67209
 N507 N 0.49280 0.47054 0.63251
 C508 C 0.49868 0.44588 0.59146
 N509 N 0.50613 0.39994 0.59158
 N510 N 0.50745 0.37963 0.63125
 C511 C 0.61746 0.72924 0.50265
 N512 N 0.59421 0.76634 0.51942
 N513 N 0.61183 0.80939 0.51689
 C514 C 0.65349 0.81686 0.49769
 N515 N 0.67660 0.77965 0.48089
 N516 N 0.65884 0.73667 0.48307
 C517 C 0.59769 0.68196 0.50488
 N518 N 0.61530 0.64549 0.47995
 N519 N 0.59539 0.60302 0.47997
 C520 C 0.55741 0.59546 0.50521
 N521 N 0.54083 0.63180 0.53115
 N522 N 0.56042 0.67424 0.53089
 C523 C 0.61402 0.27588 0.49419
 N524 N 0.64842 0.26900 0.52544
 N525 N 0.66699 0.22783 0.52586
 C526 C 0.65194 0.19183 0.49515
 N527 N 0.61743 0.19880 0.46387
 N528 N 0.59880 0.24002 0.46344
 C529 C 0.59324 0.32120 0.49415
 N530 N 0.55830 0.32792 0.46346
 N531 N 0.53865 0.36861 0.46425
 C532 C 0.55302 0.40422 0.49561
 N533 N 0.58829 0.39753 0.52599
 N534 N 0.60806 0.35684 0.52530
 C535 C 0.38540 0.72096 0.50199
 N536 N 0.40365 0.75505 0.47756
 N537 N 0.38496 0.79629 0.47869
 C538 C 0.34713 0.80483 0.50407
 N539 N 0.32899 0.77063 0.52850
 N540 N 0.34787 0.72955 0.52766
 C541 C 0.40593 0.67560 0.50066
 N542 N 0.39369 0.64451 0.53126
 N543 N 0.41324 0.60372 0.53058
 C544 C 0.44536 0.59234 0.49901
 N545 N 0.45705 0.62333 0.46812
 N546 N 0.43785 0.66422 0.46897
 C547 C 0.38128 0.26793 0.49686
 N548 N 0.36368 0.25416 0.53661
 N549 N 0.34843 0.21041 0.53922
 C550 C 0.35037 0.17856 0.50230
 N551 N 0.36807 0.19241 0.46248
 N552 N 0.38336 0.23623 0.45985
 C553 C 0.39951 0.31583 0.49485
 N554 N 0.41914 0.32957 0.45599
 N555 N 0.43876 0.37208 0.45560
 C556 C 0.43953 0.40239 0.49396
 N557 N 0.41874 0.38897 0.53233
 N558 N 0.39910 0.34652 0.53280
   
