data_POSCAR
  _audit_creation_date              2014-09-24
  _audit_creation_method            'ToBaCCo'
  _symmetry_space_group_name_H-M    'P1'
  _symmetry_Int_Tables_number       1
  _symmetry_cell_setting            triclinic
  loop_
  _symmetry_equiv_pos_as_xyz
 x,y,z
_cell_length_a 12.9582
_cell_length_b 12.7473
_cell_length_c 12.1046
_cell_angle_alpha 93.052300
_cell_angle_beta 93.286000
_cell_angle_gamma 87.838700
loop_
  _atom_site_label
  _atom_site_type_symbol
  _atom_site_fract_x
  _atom_site_fract_y
  _atom_site_fract_z
C1 C 0.39238 1.03836 -0.51800
 C2 C 0.43326 1.01393 -0.41190
 C3 C 0.54056 0.99530 -0.39529
 C4 C 0.60644 0.99699 -0.48467
 C5 C 0.56222 1.02352 -0.59181
 C6 C 0.45676 1.04724 -0.60344
 H7 H 0.42214 1.06527 -0.68451
 H8 H 0.57232 0.97522 -0.31406
 C9 C -0.59470 1.45862 0.02348
 C10 C -0.58572 1.56827 0.04726
 C11 C -0.49305 1.61588 0.02835
 C12 C -0.40610 1.55652 -0.00604
 C13 C -0.41187 1.44863 -0.02493
 C14 C -0.50664 1.40045 -0.01365
 H15 H -0.51059 1.31637 -0.03012
 H16 H -0.48612 1.69940 0.04819
 C17 C -0.04994 0.45351 0.40045
 C18 C -0.03916 0.56254 0.41555
 C19 C 0.01251 0.60226 0.51190
 C20 C 0.05380 0.53568 0.59069
 C21 C 0.04400 0.42665 0.57570
 C22 C -0.00796 0.38656 0.47933
 H23 H -0.01965 0.30285 0.46697
 H24 H 0.02396 0.68597 0.52500
 O25 O -0.05576 0.94575 -0.32185
 O26 O -0.20326 1.03096 0.22378
 O27 O -0.25455 0.85514 -0.08982
 O28 O -0.26011 1.12718 -0.10599
 O29 O -0.14340 1.25821 -0.06830
 O30 O -0.13745 0.73038 -0.02291
 O31 O -0.28843 1.00875 0.05158
 O32 O -0.21355 0.97273 -0.24453
 Zr33 Zr -0.17306 0.99213 -0.06996
 O34 O -0.11517 1.10224 0.04504
 O35 O -0.06371 0.88145 -0.12356
 C36 C -0.15586 0.95573 -0.32939
 C37 C -0.28547 1.01887 0.16020
 C38 C -0.22923 0.76187 -0.06062
 C39 C -0.23649 1.22415 -0.09157
 H40 H -0.16588 0.87797 0.10090
 O41 O -0.11332 0.91790 0.06700
 H42 H -0.09386 1.11057 -0.20459
 O43 O -0.06251 1.07292 -0.14096
 O44 O 0.05479 1.04769 0.31606
 O45 O 0.20609 0.96495 -0.22139
 O46 O -0.03666 0.75282 0.16436
 O47 O -0.05033 1.28917 0.09436
 O48 O 0.04081 1.23895 -0.17131
 O49 O 0.05014 0.70406 -0.10154
 O50 O 0.25388 0.85664 0.11448
 O51 O 0.25796 1.14071 0.07283
 O52 O 0.12993 0.73122 0.08306
 O53 O 0.13783 1.26573 0.01096
 O54 O -0.06592 0.89875 0.28039
 O55 O 0.08978 0.80661 -0.24320
 O56 O 0.07642 1.09231 -0.28447
 O57 O -0.09556 1.18481 0.23208
 O58 O 0.21381 1.02347 0.24041
 O59 O 0.29670 0.98932 -0.05261
 Zr60 Zr -0.05028 1.02788 0.17943
 Zr61 Zr 0.05180 0.96446 -0.18486
 Zr62 Zr 0.00051 0.81522 0.01722
 Zr63 Zr 0.00045 1.17832 -0.02385
 Zr64 Zr 0.17727 1.00004 0.06550
 O65 O 0.11596 1.07434 -0.07232
 O66 O 0.06453 0.92006 0.13615
 C67 C 0.15448 1.04063 0.32406
 C68 C 0.29040 0.97982 -0.16125
 C69 C -0.05735 0.79794 0.25873
 C70 C -0.09296 1.27445 0.18525
 C71 C 0.06685 1.19323 -0.26391
 C72 C 0.08848 0.71725 -0.19510
 C73 C 0.22134 0.76086 0.11600
 C74 C 0.23111 1.23505 0.04473
 H75 H 0.17592 0.84363 -0.07002
 O76 O 0.11762 0.89138 -0.04953
 H77 H 0.09168 1.16397 0.16965
 O78 O 0.06462 1.10946 0.11544
 N79 N 0.29278 1.04674 0.45859
 N80 N 0.19931 1.05447 0.43494
 N81 N -0.39410 1.01450 0.31239
 N82 N -0.38021 1.00799 0.21174
 N83 N -0.29498 0.97312 -0.46411
 N84 N -0.20314 0.94980 -0.44075
 N85 N 0.36186 1.00322 -0.32714
 N86 N 0.38047 0.99004 -0.22375
 N87 N 0.31016 1.40485 0.03535
 N88 N 0.31521 1.30551 0.04519
 N89 N 0.34627 0.62480 0.10304
 N90 N 0.28960 0.68156 0.16113
 N91 N -0.31062 0.60647 -0.01708
 N92 N -0.31422 0.69508 -0.05991
 N93 N -0.31902 1.38767 -0.04518
 N94 N -0.32343 1.29563 -0.08982
 N95 N -0.09917 1.41111 0.31419
 N96 N -0.14306 1.36431 0.23519
 N97 N 0.06787 1.35898 -0.33571
 N98 N 0.07292 1.25960 -0.35341
 N99 N 0.10016 0.57911 -0.32211
 N100 N 0.14095 0.62754 -0.24250
 N101 N -0.06259 0.63128 0.32788
 N102 N -0.06287 0.73052 0.34712
   
