data_POSCAR
  _audit_creation_date              2014-09-24
  _audit_creation_method            'ToBaCCo'
  _symmetry_space_group_name_H-M    'P1'
  _symmetry_Int_Tables_number       1
  _symmetry_cell_setting            triclinic
  loop_
  _symmetry_equiv_pos_as_xyz
 x,y,z
_cell_length_a 22.7766
_cell_length_b 23.3314
_cell_length_c 28.2365
_cell_angle_alpha 89.968400
_cell_angle_beta 90.184600
_cell_angle_gamma 89.980100
loop_
  _atom_site_label
  _atom_site_type_symbol
  _atom_site_fract_x
  _atom_site_fract_y
  _atom_site_fract_z
B1 B 0.27577 0.22695 0.29988
 B2 B 0.20606 0.21377 0.28536
 B3 B 0.22473 0.28070 0.30000
 B4 B 0.29395 0.29307 0.27925
 B5 B 0.31533 0.23244 0.25035
 B6 B 0.26044 0.18308 0.25401
 B7 B 0.21803 0.27557 0.20512
 B8 B 0.28804 0.28819 0.21915
 B9 B 0.26874 0.22134 0.20464
 B10 B 0.20008 0.20909 0.22547
 B11 B 0.17882 0.26941 0.25427
 B12 B 0.23381 0.31894 0.25092
 B13 B 0.72427 0.77611 0.29510
 B14 B 0.79332 0.79128 0.28025
 B15 B 0.77555 0.72308 0.29075
 B16 B 0.70630 0.71189 0.27103
 B17 B 0.68305 0.77459 0.24661
 B18 B 0.73748 0.82417 0.25184
 B19 B 0.77852 0.73748 0.19598
 B20 B 0.70914 0.72216 0.21174
 B21 B 0.72732 0.79030 0.20064
 B22 B 0.79684 0.80165 0.22057
 B23 B 0.82015 0.73888 0.24495
 B24 B 0.76554 0.68912 0.23934
 B25 B 0.72586 0.21796 -0.20520
 B26 B 0.70884 0.28675 -0.21659
 B27 B 0.77720 0.27076 -0.19911
 B28 B 0.79622 0.20660 -0.22253
 B29 B 0.73848 0.18426 -0.25588
 B30 B 0.68372 0.23415 -0.25248
 B31 B 0.77876 0.28497 -0.29384
 B32 B 0.79606 0.21695 -0.28197
 B33 B 0.72765 0.23182 -0.29980
 B34 B 0.70838 0.29662 -0.27637
 B35 B 0.76649 0.31902 -0.24296
 B36 B 0.82091 0.26913 -0.24627
 B37 B 0.27581 0.77328 -0.20245
 B38 B 0.29453 0.70590 -0.21736
 B39 B 0.22416 0.72051 -0.20415
 B40 B 0.20825 0.78730 -0.22481
 B41 B 0.26997 0.81214 -0.25158
 B42 B 0.32362 0.76146 -0.24712
 B43 B 0.23322 0.71617 -0.29915
 B44 B 0.21591 0.78339 -0.28439
 B45 B 0.28560 0.76860 -0.29740
 B46 B 0.30132 0.70177 -0.27715
 B47 B 0.23982 0.67688 -0.24994
 B48 B 0.18630 0.72787 -0.25438
 B49 B 1.22269 1.28920 0.78915
 B50 B 1.29360 1.30234 0.77619
 B51 B 1.27464 1.23656 0.79565
 B52 B 1.20672 1.22097 0.77368
 B53 B 1.18640 1.27708 0.73818
 B54 B 1.24047 1.32767 0.74052
 B55 B 1.28577 1.23076 0.70039
 B56 B 1.21494 1.21779 0.71432
 B57 B 1.23550 1.28251 0.69367
 B58 B 1.30226 1.29957 0.71619
 B59 B 1.32242 1.24379 0.75021
 B60 B 1.26830 1.19261 0.74941
 B61 B 0.77086 0.71065 0.70472
 B62 B 0.79121 0.77812 0.71669
 B63 B 0.72246 0.76574 0.69837
 B64 B 0.70045 0.70161 0.72147
 B65 B 0.75721 0.67668 0.75585
 B66 B 0.81342 0.72490 0.75272
 B67 B 0.71961 0.77876 0.79331
 B68 B 0.70022 0.71089 0.78116
 B69 B 0.76920 0.72477 0.79988
 B70 B 0.79061 0.78830 0.77634
 B71 B 0.73421 0.81284 0.74268
 B72 B 0.67775 0.76470 0.74515
 B73 B 1.22531 0.72947 0.20660
 B74 B 1.29458 0.71620 0.22360
 B75 B 1.27528 0.78370 0.21066
 B76 B 1.20516 0.79411 0.22908
 B77 B 1.18300 0.73167 0.25447
 B78 B 1.23857 0.68297 0.25126
 B79 B 1.27624 0.77275 0.30580
 B80 B 1.20706 0.78568 0.28886
 B81 B 1.22677 0.71837 0.30164
 B82 B 1.29666 0.70808 0.28345
 B83 B 1.31901 0.77043 0.25798
 B84 B 1.26312 0.81915 0.26104
 B85 B 0.77581 1.27060 0.29626
 B86 B 0.79537 1.20448 0.27838
 B87 B 0.72484 1.21838 0.29301
 B88 B 0.70819 1.28588 0.27437
 B89 B 0.76935 1.31194 0.24754
 B90 B 0.82353 1.26200 0.25060
 B91 B 0.73256 1.21801 0.19762
 B92 B 0.71508 1.28450 0.21418
 B93 B 0.78472 1.27016 0.20038
 B94 B 0.80140 1.20320 0.21863
 B95 B 0.74050 1.17682 0.24542
 B96 B 0.68625 1.22778 0.24324
 O97 O 0.43410 1.10744 0.03857
 O98 O 0.55898 0.90003 0.03904
 O99 O 0.37883 0.93273 0.02667
 O100 O 0.61302 1.07267 0.01783
 O101 O 0.45869 0.90679 0.05733
 O102 O 0.53678 1.09970 0.05239
 O103 O 0.59871 0.98060 0.05668
 O104 O 0.39161 1.02906 0.05959
 C105 C 0.40021 1.08098 0.06607
 C106 C 0.59158 0.92922 0.06554
 C107 C 0.40447 0.90823 0.05959
 C108 C 0.59102 1.09866 0.05129
 O109 O 0.55525 1.10530 -0.04528
 O110 O 0.43207 0.89648 -0.03794
 O111 O 0.37529 1.07151 -0.02558
 O112 O 0.61117 0.93178 -0.02708
 O113 O 0.53204 0.90492 -0.05735
 O114 O 0.45373 1.09868 -0.05749
 O115 O 0.59374 1.02470 -0.06520
 O116 O 0.38896 0.97428 -0.05994
 Co117 Co 0.49505 1.09385 -0.00272
 Co118 Co 0.49548 0.91099 0.00006
 Co119 Co 0.39604 1.00193 -0.00016
 Co120 Co 0.59157 1.00236 -0.00415
 O121 O 0.49433 1.00235 -0.00171
 C122 C 0.58648 1.07647 -0.07321
 C123 C 0.39846 0.92227 -0.06603
 C124 C 0.39955 1.09954 -0.05703
 C125 C 0.58624 0.90565 -0.05928
 O126 O 0.95100 0.60048 0.55267
 O127 O 1.04979 0.35389 0.52085
 O128 O 0.88810 0.44488 0.53238
 O129 O 1.08466 0.53172 0.56842
 O130 O 0.96934 0.41099 0.56117
 O131 O 1.05916 0.61019 0.53683
 O132 O 1.07532 0.43374 0.55299
 O133 O 0.87755 0.54946 0.52440
 C134 C 0.89847 0.58450 0.55483
 C135 C 1.08774 0.38165 0.54664
 C136 C 0.91483 0.41793 0.56455
 C137 C 1.08713 0.58415 0.56786
 O138 O 1.03905 0.60297 0.44767
 O139 O 0.93886 0.36878 0.48057
 O140 O 0.90937 0.53527 0.42994
 O141 O 1.10869 0.45089 0.46254
 O142 O 1.03093 0.40629 0.44240
 O143 O 0.93058 0.61245 0.46459
 O144 O 1.11420 0.55413 0.47566
 O145 O 0.92164 0.43999 0.43874
 Co146 Co 0.99499 0.59599 0.50010
 Co147 Co 1.00181 0.41306 0.50204
 Co148 Co 0.90622 0.49291 0.48282
 Co149 Co 1.08749 0.49330 0.51335
 O150 O 0.99515 0.50181 0.49817
 C151 C 1.09259 0.58984 0.44625
 C152 C 0.91136 0.38889 0.44620
 C153 C 0.90623 0.58749 0.43141
 C154 C 1.08373 0.41701 0.43532
 O155 O 1.05673 0.47296 0.09423
 O156 O 1.01987 0.56208 -0.09849
 O157 O 1.07947 0.41574 -0.03576
 O158 O 1.08402 0.58299 0.03653
 O159 O 1.03451 0.45822 -0.09458
 O160 O 1.02924 0.57727 0.09480
 O161 O 1.07996 0.57496 -0.04324
 O162 O 1.04906 0.39827 0.04888
 C163 C 1.06902 0.42174 0.08474
 C164 C 1.06877 0.57990 -0.08530
 C165 C 1.07790 0.42874 -0.07859
 C166 C 1.07624 0.59414 0.07823
 O167 O 0.92104 0.55289 0.07421
 O168 O 0.91498 0.45324 -0.06099
 O169 O 0.94131 0.39087 0.02419
 O170 O 0.96731 0.62212 -0.04660
 O171 O 0.91149 0.55122 -0.05854
 O172 O 0.94473 0.44653 0.08651
 O173 O 0.96629 0.62330 0.03887
 O174 O 0.97443 0.38753 -0.06008
 Co175 Co 0.98877 0.51155 0.07861
 Co176 Co 0.97302 0.50545 -0.07176
 Co177 Co 1.00993 0.40982 -0.00509
 Co178 Co 1.02209 0.59286 -0.00319
 O179 O 0.99848 0.50464 0.00064
 C180 C 0.92317 0.60484 0.06308
 C181 C 0.92475 0.40291 -0.07013
 C182 C 0.92518 0.40310 0.06533
 C183 C 0.91844 0.60357 -0.06045
 O184 O 0.56560 0.93785 0.58267
 O185 O 0.54573 1.05650 0.41186
 O186 O 0.52704 0.88331 0.44073
 O187 O 0.53780 1.11269 0.55512
 O188 O 0.56524 0.95883 0.41627
 O189 O 0.58303 1.03844 0.57482
 O190 O 0.57779 1.09657 0.47529
 O191 O 0.58142 0.89539 0.51593
 C192 C 0.59521 0.90320 0.55809
 C193 C 0.58315 1.08772 0.43213
 C194 C 0.56715 0.90606 0.41871
 C195 C 0.58145 1.09154 0.57390
 O196 O 0.46284 1.05779 0.58820
 O197 O 0.44402 0.93675 0.41841
 O198 O 0.48234 0.88381 0.56022
 O199 O 0.47008 1.11126 0.44364
 O200 O 0.42584 1.03589 0.42597
 O201 O 0.44466 0.95910 0.58599
 O202 O 0.43069 1.09665 0.52398
 O203 O 0.42749 0.89569 0.48540
 Co204 Co 0.51340 0.99820 0.57567
 Co205 Co 0.49589 0.99698 0.42528
 Co206 Co 0.50451 0.90109 0.50045
 Co207 Co 0.50416 1.09187 0.49952
 O208 O 0.50449 0.99684 0.50025
 C209 C 0.42575 1.08919 0.56744
 C210 C 0.41337 0.90366 0.44342
 C211 C 0.44280 0.90631 0.58303
 C212 C 0.42666 1.08891 0.42547
 O213 O 1.09756 1.06585 0.46748
 O214 O 0.90026 1.06638 0.53902
 O215 O 0.97566 1.07613 0.42446
 O216 O 1.02596 1.07433 0.58407
 O217 O 0.89288 1.05424 0.45776
 O218 O 1.10696 1.05157 0.54856
 O219 O 0.93102 1.02250 0.59726
 O220 O 1.06849 1.02197 0.40882
 C221 C 1.09353 1.06388 0.42406
 C222 C 0.90722 1.06528 0.58216
 C223 C 0.92229 1.08584 0.42976
 C224 C 1.07908 1.08361 0.57696
 O225 O 1.09932 0.93085 0.53460
 O226 O 0.89806 0.93226 0.46996
 O227 O 1.01558 0.92718 0.42072
 O228 O 0.98104 0.92638 0.58664
 O229 O 0.89653 0.94462 0.55360
 O230 O 1.10038 0.94413 0.45274
 O231 O 1.07593 0.97620 0.59453
 O232 O 0.92303 0.97974 0.41182
 Co233 Co 1.09270 0.99821 0.50090
 Co234 Co 0.90544 0.99921 0.50509
 Co235 Co 0.99623 1.00132 0.42585
 Co236 Co 1.00311 1.00007 0.58157
 O237 O 0.99945 0.99933 0.50347
 C238 C 1.09848 0.93334 0.57820
 C239 C 0.90004 0.93630 0.42634
 C240 C 1.06788 0.91405 0.42603
 C241 C 0.92828 0.91422 0.58106
 O242 O 0.58788 0.57598 -0.04001
 O243 O 0.41306 0.57148 0.04455
 O244 O 0.44099 0.51436 -0.09190
 O245 O 0.51803 0.57383 0.08573
 O246 O 0.41100 0.56841 -0.03587
 O247 O 0.60128 0.56482 0.04846
 O248 O 0.42446 0.51821 0.09994
 O249 O 0.54394 0.52423 -0.09427
 C250 C 0.57136 0.56941 -0.08211
 C251 C 0.40507 0.56353 0.08679
 C252 C 0.41808 0.56023 -0.07885
 C253 C 0.56910 0.59030 0.07822
 O254 O 0.61749 0.44945 0.03363
 O255 O 0.37844 0.45963 -0.04036
 O256 O 0.55154 0.41321 -0.05475
 O257 O 0.47619 0.42528 0.08684
 O258 O 0.39463 0.44666 0.04744
 O259 O 0.61944 0.47210 -0.05382
 O260 O 0.57297 0.48053 0.09410
 O261 O 0.45197 0.40860 -0.04866
 Co262 Co 0.59619 0.51389 -0.00177
 Co263 Co 0.40766 0.50929 0.00502
 Co264 Co 0.49741 0.46754 -0.06643
 Co265 Co 0.49817 0.49905 0.08210
 O266 O 0.50017 0.49822 0.00363
 C267 C 0.60632 0.44495 0.07688
 C268 C 0.40017 0.41598 -0.05821
 C269 C 0.60078 0.42539 -0.06751
 C270 C 0.42372 0.41453 0.07667
 C271 C 0.36094 1.19553 0.15354
 C272 C 0.30036 1.18649 0.16214
 C273 C 0.27350 1.13931 0.13975
 C274 C 0.30621 1.10309 0.10977
 C275 C 0.36614 1.11387 0.10123
 C276 C 0.39263 1.16083 0.12296
 H277 H 0.38553 1.22848 0.17163
 H278 H 0.22783 1.12944 0.14644
 H279 H 0.28452 1.06733 0.09266
 H280 H 0.43864 1.17014 0.11701
 C281 C 0.77105 0.64854 0.62556
 C282 C 0.80199 0.67346 0.66371
 C283 C 0.86310 0.66452 0.66628
 C284 C 0.89242 0.63336 0.63204
 C285 C 0.86249 0.61012 0.59313
 C286 C 0.80114 0.61709 0.59039
 H287 H 0.72402 0.65404 0.62254
 H288 H 0.88971 0.68236 0.69439
 H289 H 0.93957 0.62863 0.63569
 H290 H 0.77692 0.59988 0.56057
 C291 C 0.72063 0.87309 0.13692
 C292 C 0.69378 0.82724 0.16091
 C293 C 0.63247 0.81978 0.15531
 C294 C 0.59985 0.85451 0.12568
 C295 C 0.62640 0.89950 0.10164
 C296 C 0.68700 0.90925 0.10752
 H297 H 0.76709 0.88138 0.14133
 H298 H 0.60833 0.78722 0.17424
 H299 H 0.55342 0.84595 0.12133
 H300 H 0.70846 0.94350 0.08832
 C301 C 1.18872 0.27441 0.60749
 C302 C 1.21136 0.30869 0.64456
 C303 C 1.20211 0.36807 0.64192
 C304 C 1.16406 0.39095 0.60853
 C305 C 1.13458 0.35557 0.57592
 C306 C 1.14939 0.29737 0.57402
 H307 H 1.19871 0.22933 0.60545
 H308 H 1.22074 0.39716 0.66773
 H309 H 1.15524 0.43648 0.61043
 H310 H 1.12921 0.26947 0.54802
 C311 C 0.71602 1.13222 -0.14399
 C312 C 0.69031 1.17913 -0.16755
 C313 C 0.62902 1.18746 -0.16245
 C314 C 0.59553 1.15277 -0.13314
 C315 C 0.62117 1.10677 -0.10936
 C316 C 0.68161 1.09609 -0.11531
 H317 H 0.76239 1.12329 -0.14791
 H318 H 0.60621 1.22160 -0.18078
 H319 H 0.54931 1.16225 -0.12873
 H320 H 0.70253 1.06115 -0.09647
 C321 C 1.22359 0.64938 0.37689
 C322 C 1.19410 0.68334 0.34309
 C323 C 1.13214 0.68415 0.34401
 C324 C 1.10085 0.65299 0.37678
 C325 C 1.12950 0.61946 0.41072
 C326 C 1.19143 0.61759 0.41063
 H327 H 1.27107 0.64727 0.37714
 H328 H 1.10639 0.70944 0.31948
 H329 H 1.05343 0.65569 0.37539
 H330 H 1.21476 0.59215 0.43666
 C331 C 0.27571 0.85742 -0.14012
 C332 C 0.30435 0.80928 -0.15960
 C333 C 0.36442 0.80153 -0.14894
 C334 C 0.39440 0.83936 -0.11974
 C335 C 0.36631 0.88756 -0.10114
 C336 C 0.30655 0.89644 -0.11131
 H337 H 0.23013 0.86605 -0.14843
 H338 H 0.38971 0.76724 -0.16456
 H339 H 0.44024 0.83112 -0.11201
 H340 H 0.28359 0.93277 -0.09633
 C341 C 0.81182 0.36129 0.34180
 C342 C 0.80126 0.30191 0.34348
 C343 C 0.82072 0.27211 0.38430
 C344 C 0.85630 0.29928 0.41868
 C345 C 0.87097 0.35745 0.41377
 C346 C 0.84598 0.38826 0.37598
 H347 H 0.79600 0.38755 0.31289
 H348 H 0.81049 0.22733 0.38903
 H349 H 0.87306 0.27472 0.44833
 H350 H 0.85432 0.43367 0.37163
 C351 C 1.19518 0.37206 0.16054
 C352 C 1.18408 0.31215 0.16501
 C353 C 1.13488 0.28969 0.14180
 C354 C 1.09743 0.32599 0.11630
 C355 C 1.10777 0.38569 0.11400
 C356 C 1.15727 0.40824 0.13590
 H357 H 1.23207 0.39225 0.17798
 H358 H 1.12400 0.24466 0.14489
 H359 H 1.05933 0.30749 0.09907
 H360 H 1.16689 0.45363 0.13370
 C361 C 0.65550 0.77241 0.62099
 C362 C 0.69720 0.79765 0.65128
 C363 C 0.71045 0.85653 0.64402
 C364 C 0.68081 0.88951 0.61059
 C365 C 0.63736 0.86508 0.58241
 C366 C 0.62611 0.80580 0.58660
 H367 H 0.64312 0.72799 0.62565
 H368 H 0.74182 0.87895 0.66604
 H369 H 0.68951 0.93512 0.60867
 H370 H 0.59135 0.78633 0.56592
 C371 C 1.20004 0.62840 -0.15447
 C372 C 1.18758 0.68694 -0.16379
 C373 C 1.13413 0.70911 -0.14681
 C374 C 1.09424 0.67358 -0.12279
 C375 C 1.10720 0.61542 -0.11491
 C376 C 1.16102 0.59367 -0.12968
 H377 H 1.23852 0.60764 -0.16861
 H378 H 1.12181 0.75307 -0.15408
 H379 H 1.05325 0.69149 -0.11025
 H380 H 1.17228 0.54924 -0.12303
 C381 C 0.68402 1.20399 0.38146
 C382 C 0.68952 1.18467 0.33436
 C383 C 0.66170 1.13243 0.32236
 C384 C 0.63224 1.09992 0.35552
 C385 C 0.62574 1.11908 0.40203
 C386 C 0.65234 1.17140 0.41513
 H387 H 0.70260 1.24466 0.39198
 H388 H 0.66223 1.11528 0.28682
 H389 H 0.61222 1.06021 0.34383
 H390 H 0.64674 1.18805 0.45061
 C391 C 0.85765 0.73460 0.12656
 C392 C 0.80964 0.70899 0.14986
 C393 C 0.79617 0.65158 0.13801
 C394 C 0.82969 0.62056 0.10597
 C395 C 0.88000 0.64437 0.08559
 C396 C 0.89261 0.70255 0.09478
 H397 H 0.87047 0.77804 0.13516
 H398 H 0.76146 0.62844 0.15568
 H399 H 0.81845 0.57603 0.09991
 H400 H 0.93162 0.72206 0.08004
 C401 C 0.32555 1.20896 0.61289
 C402 C 0.32201 1.19445 0.66126
 C403 C 0.35154 1.14433 0.67640
 C404 C 0.38070 1.10904 0.64493
 C405 C 0.38458 1.12315 0.59694
 C406 C 0.35650 1.17351 0.58091
 H407 H 0.30572 1.24799 0.59988
 H408 H 0.35235 1.13112 0.71311
 H409 H 0.40217 1.07116 0.65891
 H410 H 0.36016 1.18643 0.54420
 C411 C 0.79556 0.35772 -0.14273
 C412 C 0.80743 0.29945 -0.15313
 C413 C 0.85593 0.27377 -0.13060
 C414 C 0.89319 0.30655 -0.10147
 C415 C 0.88191 0.36522 -0.09386
 C416 C 0.83126 0.38947 -0.11291
 H417 H 0.76153 0.38145 -0.16063
 H418 H 0.86761 0.22975 -0.13822
 H419 H 0.93220 0.28676 -0.08674
 H420 H 0.82152 0.43452 -0.10786
 C421 C 0.29449 0.86328 0.35876
 C422 C 0.30439 0.80383 0.35185
 C423 C 0.34446 0.77626 0.38224
 C424 C 0.37619 0.80806 0.41617
 C425 C 0.36872 0.86789 0.41983
 C426 C 0.32648 0.89467 0.39178
 H427 H 0.26379 0.88697 0.33698
 H428 H 0.35361 0.73102 0.37808
 H429 H 0.40978 0.78673 0.43691
 H430 H 0.32053 0.94071 0.39354
 C431 C 1.13253 1.13339 0.30806
 C432 C 1.16924 1.17770 0.32292
 C433 C 1.17740 1.18660 0.37230
 C434 C 1.15138 1.15113 0.40559
 C435 C 1.11702 1.10560 0.39042
 C436 C 1.10677 1.09763 0.34148
 H437 H 1.12534 1.12502 0.27077
 H438 H 1.20625 1.21947 0.38583
 H439 H 1.15992 1.15804 0.44293
 H440 H 1.08016 1.06251 0.32865
 C441 C 0.65720 0.68989 -0.13507
 C442 C 0.65626 0.67752 -0.18393
 C443 C 0.62022 0.63235 -0.19970
 C444 C 0.58880 0.59883 -0.16702
 C445 C 0.59263 0.61038 -0.11815
 C446 C 0.62523 0.65775 -0.10302
 H447 H 0.68583 0.72204 -0.12028
 H448 H 0.61841 0.62118 -0.23688
 H449 H 0.56403 0.56231 -0.17973
 H450 H 0.62948 0.66793 -0.06573
 C451 C 0.83391 1.19503 0.63263
 C452 C 0.83719 1.18359 0.68192
 C453 C 0.86989 1.13654 0.69744
 C454 C 0.89455 1.09947 0.66453
 C455 C 0.88708 1.10885 0.61552
 C456 C 0.85857 1.15798 0.59981
 H457 H 0.80780 1.22966 0.61851
 H458 H 0.87353 1.12629 0.73474
 H459 H 0.91707 1.06185 0.67770
 H460 H 0.85269 1.16621 0.56233
 C461 C 0.36597 0.63317 0.20287
 C462 C 0.33507 0.68161 0.18749
 C463 C 0.33201 0.69285 0.13818
 C464 C 0.35680 0.65583 0.10542
 C465 C 0.38402 0.60592 0.12092
 C466 C 0.38979 0.59541 0.16987
 H467 H 0.36882 0.62253 0.24014
 H468 H 0.30583 0.72715 0.12379
 H469 H 0.35163 0.66454 0.06794
 H470 H 0.41110 0.55698 0.18277
 C471 C 1.19077 0.81503 0.62867
 C472 C 1.18071 0.82142 0.67804
 C473 C 1.14025 0.86230 0.69310
 C474 C 1.11217 0.89697 0.65998
 C475 C 1.12390 0.89155 0.61108
 C476 C 1.16252 0.84955 0.59560
 H477 H 1.22123 0.78362 0.61510
 H478 H 1.13099 0.86831 0.73036
 H479 H 1.08210 0.92905 0.67305
 H480 H 1.17227 0.84461 0.55830
 C481 C 0.68881 0.31813 0.12696
 C482 C 0.68070 0.32485 0.17667
 C483 C 0.64768 0.37157 0.19218
 C484 C 0.62436 0.41032 0.15941
 C485 C 0.63335 0.40354 0.11009
 C486 C 0.66554 0.35681 0.09427
 H487 H 0.71546 0.28418 0.11257
 H488 H 0.64104 0.37909 0.22962
 H489 H 0.59970 0.44631 0.17308
 H490 H 0.67307 0.35032 0.05679
 C491 C 0.82292 0.81205 0.36886
 C492 C 0.83039 0.82454 0.31985
 C493 C 0.86447 0.87163 0.30734
 C494 C 0.88783 0.90662 0.34247
 C495 C 0.87835 0.89510 0.39109
 C496 C 0.84698 0.84666 0.40399
 H497 H 0.79529 0.77743 0.38082
 H498 H 0.87080 0.88315 0.27055
 H499 H 0.91167 0.94410 0.33105
 H500 H 0.83887 0.83697 0.44092
 C501 C 0.30332 0.39041 -0.16610
 C502 C 0.32990 0.34224 -0.18718
 C503 C 0.38326 0.32301 -0.16772
 C504 C 0.40383 0.34427 -0.12439
 C505 C 0.37361 0.38821 -0.10065
 C506 C 0.32418 0.41240 -0.12298
 H507 H 0.26436 0.40940 -0.18148
 H508 H 0.40853 0.29024 -0.18516
 H509 H 0.44420 0.32698 -0.10988
 H510 H 0.30177 0.44865 -0.10732
 C511 C 1.19474 0.32467 -0.12389
 C512 C 1.18455 0.32602 -0.17295
 C513 C 1.14202 0.36560 -0.19006
 C514 C 1.11055 0.40132 -0.15980
 C515 C 1.11955 0.39893 -0.11096
 C516 C 1.16259 0.36057 -0.09329
 H517 H 1.22803 0.29677 -0.10922
 H518 H 1.13261 0.36986 -0.22746
 H519 H 1.07764 0.42961 -0.17477
 H520 H 1.17057 0.35732 -0.05556
 C521 C 0.70068 0.86492 0.34847
 C522 C 0.69162 0.80568 0.33951
 C523 C 0.64388 0.77891 0.36175
 C524 C 0.60456 0.81116 0.38918
 C525 C 0.61190 0.87089 0.39449
 C526 C 0.66149 0.89685 0.37533
 H527 H 0.73586 0.88850 0.33184
 H528 H 0.63470 0.73401 0.35549
 H529 H 0.56674 0.78985 0.40425
 H530 H 0.66881 0.94247 0.37944
 C531 C 0.78777 0.64236 -0.13804
 C532 C 0.79984 0.69909 -0.15232
 C533 C 0.84802 0.72680 -0.13046
 C534 C 0.88483 0.69746 -0.09813
 C535 C 0.87418 0.63972 -0.08637
 C536 C 0.82362 0.61365 -0.10535
 H537 H 0.75277 0.61812 -0.15447
 H538 H 0.85979 0.77001 -0.14066
 H539 H 0.92341 0.71898 -0.08443
 H540 H 0.81369 0.56928 -0.09741
 C541 C 0.35343 1.21873 0.36895
 C542 C 0.30812 1.19322 0.34268
 C543 C 0.29895 1.13338 0.34838
 C544 C 0.33542 1.09999 0.37692
 C545 C 0.38266 1.12497 0.40062
 C546 C 0.39017 1.18502 0.39770
 H547 H 0.36247 1.26409 0.36541
 H548 H 0.26522 1.11094 0.32878
 H549 H 0.32819 1.05415 0.37866
 H550 H 0.42622 1.20572 0.41601
 C551 C 1.14158 0.72259 0.14216
 C552 C 1.19323 0.69908 0.16183
 C553 C 1.20674 0.64140 0.15034
 C554 C 1.16995 0.60846 0.12161
 C555 C 1.11721 0.63109 0.10486
 C556 C 1.10366 0.68871 0.11440
 H557 H 1.12841 0.76593 0.15076
 H558 H 1.24364 0.61953 0.16619
 H559 H 1.18116 0.56412 0.11465
 H560 H 1.06302 0.70705 0.10133
 C561 C 0.71123 1.14092 0.64643
 C562 C 0.69861 1.19985 0.65475
 C563 C 0.65029 1.22356 0.63084
 C564 C 0.61398 1.18879 0.60251
 C565 C 0.62481 1.12934 0.59776
 C566 C 0.67512 1.10650 0.61851
 H567 H 0.74652 1.11913 0.66461
 H568 H 0.63817 1.26789 0.63654
 H569 H 0.57547 1.20794 0.58641
 H570 H 0.68499 1.06124 0.61528
 C571 C 0.85177 0.27509 0.12365
 C572 C 0.81659 0.30318 0.15736
 C573 C 0.81259 0.36358 0.15510
 C574 C 0.84440 0.39487 0.12238
 C575 C 0.88217 0.36744 0.09087
 C576 C 0.88441 0.30710 0.09050
 H577 H 0.85587 0.22887 0.12413
 H578 H 0.78569 0.38780 0.17942
 H579 H 0.84151 0.44124 0.12324
 H580 H 0.91391 0.28504 0.06666
 C581 C 0.31278 0.86249 0.65655
 C582 C 0.32048 0.80235 0.66148
 C583 C 0.36681 0.77659 0.63675
 C584 C 0.40554 0.81026 0.60996
 C585 C 0.39907 0.87043 0.60776
 C586 C 0.35134 0.89580 0.63021
 H587 H 0.27846 0.88518 0.67510
 H588 H 0.37487 0.73101 0.63995
 H589 H 0.44200 0.78940 0.59248
 H590 H 0.34477 0.94176 0.62869
 C591 C 0.36646 1.18743 -0.16430
 C592 C 0.30665 1.20437 -0.15967
 C593 C 0.27667 1.18434 -0.11936
 C594 C 0.30607 1.15008 -0.08521
 C595 C 0.36592 1.13535 -0.09096
 C596 C 0.39524 1.15504 -0.13067
 H597 H 0.39295 1.19696 -0.19483
 H598 H 0.23043 1.19351 -0.11495
 H599 H 0.28209 1.13486 -0.05465
 H600 H 0.44074 1.14378 -0.13685
 C601 C 0.78018 0.64277 0.35647
 C602 C 0.80826 0.68678 0.33123
 C603 C 0.86917 0.69528 0.33872
 C604 C 0.90013 0.66337 0.37173
 C605 C 0.87231 0.61967 0.39638
 C606 C 0.81229 0.60889 0.38854
 H607 H 0.73397 0.63405 0.35098
 H608 H 0.89373 0.72718 0.31931
 H609 H 0.94631 0.67216 0.37739
 H610 H 0.79020 0.57510 0.40780
 C611 C 0.63655 1.19859 0.14876
 C612 C 0.69791 1.18881 0.15361
 C613 C 0.72400 1.14906 0.12287
 C614 C 0.68953 1.11990 0.08904
 C615 C 0.62831 1.12947 0.08587
 C616 C 0.60266 1.16949 0.11581
 H617 H 0.61330 1.22856 0.17106
 H618 H 0.77045 1.13971 0.12561
 H619 H 0.71050 1.08904 0.06599
 H620 H 0.55601 1.17836 0.11394
 C621 C 1.13949 0.69843 0.64928
 C622 C 1.19906 0.68395 0.65835
 C623 C 1.22101 0.63366 0.63744
 C624 C 1.18437 0.59950 0.60877
 C625 C 1.12579 0.61594 0.59997
 C626 C 1.10436 0.66611 0.61969
 H627 H 1.11770 0.73350 0.66682
 H628 H 1.26541 0.61955 0.64478
 H629 H 1.20184 0.56070 0.59327
 H630 H 1.05929 0.67929 0.61363
 C631 C 0.71452 0.84272 -0.12915
 C632 C 0.68522 0.81468 -0.16632
 C633 C 0.62301 0.81777 -0.16752
 C634 C 0.59142 0.84714 -0.13307
 C635 C 0.62047 0.87483 -0.09605
 C636 C 0.68247 0.87257 -0.09443
 H637 H 0.76195 0.84130 -0.12677
 H638 H 0.59754 0.79650 -0.19467
 H639 H 0.54398 0.84799 -0.13545
 H640 H 0.70624 0.89364 -0.06610
 C641 C 1.21493 0.36109 0.36572
 C642 C 1.18981 0.31490 0.34116
 C643 C 1.12847 0.30564 0.34665
 C644 C 1.09402 0.34028 0.37522
 C645 C 1.11903 0.38594 0.39968
 C646 C 1.17998 0.39605 0.39488
 H647 H 1.26112 0.37084 0.36170
 H648 H 1.10558 0.27206 0.32781
 H649 H 1.04769 0.33062 0.37865
 H650 H 1.20081 0.43075 0.41405
 C651 C 0.37056 0.82060 0.16847
 C652 C 0.30833 0.81878 0.16911
 C653 C 0.27790 0.84776 0.13299
 C654 C 0.30894 0.87733 0.09746
 C655 C 0.37100 0.87840 0.09734
 C656 C 0.40109 0.84977 0.13336
 H657 H 0.39684 0.79849 0.19467
 H658 H 0.23037 0.84733 0.13205
 H659 H 0.28438 0.89909 0.06991
 H660 H 0.44858 0.84951 0.13435
 C661 C 0.87615 0.31906 0.66546
 C662 C 0.81394 0.32146 0.66668
 C663 C 0.78555 0.35888 0.63512
 C664 C 0.81840 0.39208 0.60309
 C665 C 0.88037 0.38871 0.60205
 C666 C 0.90858 0.35200 0.63386
 H667 H 0.90073 0.29093 0.68864
 H668 H 0.73815 0.36244 0.63512
 H669 H 0.79517 0.41969 0.57854
 H670 H 0.95593 0.34758 0.63367
 C671 C 1.11596 1.19276 0.67142
 C672 C 1.17412 1.17689 0.68305
 C673 C 1.19821 1.12840 0.66113
 C674 C 1.16831 1.10085 0.62468
 C675 C 1.11202 1.11898 0.61093
 C676 C 1.08512 1.16382 0.63578
 H677 H 1.09512 1.22916 0.68813
 H678 H 1.24079 1.11223 0.67114
 H679 H 1.18873 1.06401 0.60818
 H680 H 1.04069 1.17688 0.62721
 C681 C 0.67278 0.69879 0.12620
 C682 C 0.66639 0.69043 0.17553
 C683 C 0.62063 0.65548 0.19174
 C684 C 0.58490 0.62673 0.15936
 C685 C 0.59542 0.63158 0.11050
 C686 C 0.63862 0.66865 0.09410
 H687 H 0.70544 0.72749 0.11190
 H688 H 0.61312 0.64930 0.22923
 H689 H 0.55158 0.59787 0.17263
 H690 H 0.64708 0.67296 0.05652
 C691 C 1.17230 0.80852 0.37518
 C692 C 1.16417 0.81662 0.32581
 C693 C 1.11740 0.85111 0.31062
 C694 C 1.08233 0.87920 0.34393
 C695 C 1.09446 0.87411 0.39272
 C696 C 1.13892 0.83792 0.40806
 H697 H 1.20562 0.78041 0.38930
 H698 H 1.10871 0.85737 0.27325
 H699 H 1.04803 0.90763 0.33147
 H700 H 1.14878 0.83350 0.44546
 C701 C 0.67282 0.30466 -0.12992
 C702 C 0.67073 0.32152 -0.17823
 C703 C 0.64598 0.37515 -0.18908
 C704 C 0.62552 0.41075 -0.15260
 C705 C 0.62825 0.39246 -0.10514
 C706 C 0.65066 0.33891 -0.09429
 H707 H 0.69586 0.26698 -0.11812
 H708 H 0.64512 0.39068 -0.22521
 H709 H 0.60717 0.45225 -0.16139
 H710 H 0.65272 0.32426 -0.05787
 C711 C 0.81134 1.11877 0.33545
 C712 C 0.83566 1.16638 0.31245
 C713 C 0.89190 1.18526 0.32667
 C714 C 0.91964 1.16098 0.36625
 C715 C 0.89140 1.11792 0.39239
 C716 C 0.83773 1.09613 0.37577
 H717 H 0.77085 1.09981 0.32336
 H718 H 0.91298 1.22100 0.30916
 H719 H 0.96263 1.17628 0.37681
 H720 H 0.81696 1.05995 0.39298
 C721 C 0.37249 0.62662 -0.19605
 C722 C 0.33273 0.66871 -0.18080
 C723 C 0.32483 0.67645 -0.13164
 C724 C 0.35476 0.64312 -0.09886
 C725 C 0.39278 0.59995 -0.11400
 C726 C 0.40214 0.59232 -0.16289
 H727 H 0.37969 0.61925 -0.23344
 H728 H 0.29395 0.70740 -0.11792
 H729 H 0.34619 0.64979 -0.06155
 H730 H 0.43139 0.55909 -0.17548
 C731 C 0.83091 0.79939 0.63088
 C732 C 0.83567 0.80906 0.68037
 C733 C 0.87719 0.84914 0.69615
 C734 C 0.91018 0.88066 0.66339
 C735 C 0.90118 0.87375 0.61432
 C736 C 0.86195 0.83237 0.59837
 H737 H 0.80027 0.76881 0.61640
 H738 H 0.88287 0.85754 0.73359
 H739 H 0.94040 0.91280 0.67646
 H740 H 0.85442 0.82637 0.56079
 C741 C 0.31245 0.31674 0.13124
 C742 C 0.32609 0.32169 0.18033
 C743 C 0.37577 0.35286 0.19339
 C744 C 0.40942 0.37970 0.15869
 C745 C 0.39314 0.37734 0.11032
 C746 C 0.34440 0.34567 0.09691
 H747 H 0.27703 0.29006 0.11861
 H748 H 0.38874 0.35642 0.23020
 H749 H 0.44706 0.40438 0.17013
 H750 H 0.33129 0.34307 0.06006
   
