data_POSCAR
  _audit_creation_date              2014-09-24
  _audit_creation_method            'ToBaCCo'
  _symmetry_space_group_name_H-M    'P1'
  _symmetry_Int_Tables_number       1
  _symmetry_cell_setting            triclinic
  loop_
  _symmetry_equiv_pos_as_xyz
 x,y,z
_cell_length_a 28.3851
_cell_length_b 27.2138
_cell_length_c 27.6662
_cell_angle_alpha 92.866600
_cell_angle_beta 88.222300
_cell_angle_gamma 91.698800
loop_
  _atom_site_label
  _atom_site_type_symbol
  _atom_site_fract_x
  _atom_site_fract_y
  _atom_site_fract_z
C1 C 0.59193 0.68061 0.64340
 C2 C 0.59540 0.64614 0.67906
 C3 C 0.63223 0.61226 0.67684
 C4 C 0.66604 0.61454 0.63867
 C5 C 0.66271 0.64880 0.60271
 C6 C 0.62590 0.68201 0.60550
 H7 H 0.56964 0.64692 0.70871
 H8 H 0.69506 0.58940 0.63666
 H9 H 0.62381 0.70905 0.57823
 C10 C 0.92746 0.32095 0.10392
 C11 C 0.92556 0.35911 0.14034
 C12 C 0.89111 0.39492 0.14018
 C13 C 0.85847 0.39321 0.10306
 C14 C 0.86056 0.35626 0.06579
 C15 C 0.89505 0.32049 0.06646
 H16 H 0.95126 0.36213 0.16850
 H17 H 0.83169 0.42076 0.10312
 H18 H 0.89611 0.29173 0.03788
 C19 C 0.41409 0.18073 -0.12985
 C20 C 0.42038 0.13823 -0.16015
 C21 C 0.38695 0.09925 -0.15949
 C22 C 0.34885 0.10152 -0.12587
 C23 C 0.34279 0.14340 -0.09487
 C24 C 0.37452 0.18355 -0.09833
 H25 H 0.45004 0.13642 -0.18574
 H26 H 0.32366 0.07091 -0.12410
 H27 H 0.36955 0.21625 -0.07490
 C28 C 0.07115 0.83630 0.38931
 C29 C 0.10532 0.84065 0.42518
 C30 C 0.14006 0.87845 0.42477
 C31 C 0.13991 0.91310 0.38908
 C32 C 0.10605 0.90966 0.35311
 C33 C 0.07172 0.87155 0.35349
 H34 H 0.10513 0.81443 0.45346
 H35 H 0.16605 0.94296 0.38957
 H36 H 0.04498 0.87069 0.32641
 N37 N 0.07967 0.18706 0.11367
 N38 N 0.06519 0.17260 0.15643
 C39 C 0.02910 0.20047 0.17287
 C40 C 0.01996 0.23322 0.13808
 C41 C 0.05260 0.22380 0.10094
 H42 H 0.01057 0.19710 0.20734
 H43 H 0.05751 0.24360 0.06814
 Cu44 Cu 0.09359 0.11732 0.18514
 Cu45 Cu 0.13573 0.16116 0.08022
 Cu46 Cu 0.19654 0.07496 0.14036
 N47 N 0.12312 0.06195 0.21267
 N48 N 0.16411 0.04643 0.19568
 C49 C 0.17778 0.00955 0.22220
 C50 C 0.14309 0.00086 0.25701
 C51 C 0.10883 0.03475 0.25005
 H52 H 0.21033 -0.00986 0.21633
 H53 H 0.07655 0.03984 0.27126
 N54 N 0.21672 0.09795 0.07645
 N55 N 0.19388 0.13101 0.05368
 C56 C 0.21737 0.14011 0.01186
 C57 C 0.25637 0.11079 0.00803
 C58 C 0.25466 0.08426 0.04922
 H59 H 0.20688 0.16591 -0.01398
 H60 H 0.27974 0.05754 0.05892
 H61 H 0.13423 0.09224 0.10983
 H62 H 0.16594 0.14422 0.14288
 N63 N 0.42301 0.79684 0.59759
 N64 N 0.44083 0.81979 0.63612
 C65 C 0.48108 0.79818 0.64677
 C66 C 0.48898 0.76011 0.61273
 C67 C 0.45171 0.76050 0.58193
 H68 H 0.50345 0.80976 0.67640
 H69 H 0.44569 0.73572 0.55080
 Cu70 Cu 0.41048 0.87671 0.66743
 Cu71 Cu 0.36328 0.81471 0.57137
 Cu72 Cu 0.30790 0.91499 0.62741
 N73 N 0.37930 0.93354 0.69801
 N74 N 0.33847 0.94721 0.68285
 C75 C 0.32360 0.98588 0.71077
 C76 C 0.35711 0.99759 0.74477
 C77 C 0.39214 0.96372 0.73580
 H78 H 0.29098 1.00452 0.70647
 H79 H 0.42399 0.96080 0.75578
 N80 N 0.28237 0.87774 0.57085
 N81 N 0.30262 0.83859 0.55034
 C82 C 0.27598 0.82058 0.51366
 C83 C 0.23780 0.85037 0.51050
 C84 C 0.24286 0.88620 0.54726
 H85 H 0.28411 0.78877 0.49024
 H86 H 0.21919 0.91588 0.55638
 H87 H 0.36852 0.88816 0.59340
 H88 H 0.33562 0.84636 0.63494
 N89 N 0.91686 0.69365 0.38379
 N90 N 0.93097 0.67537 0.34105
 C91 C 0.96670 0.70382 0.32388
 C92 C 0.97612 0.74102 0.35819
 C93 C 0.94395 0.73359 0.39583
 H94 H 0.98491 0.69785 0.28926
 H95 H 0.93960 0.75651 0.42865
 Cu96 Cu 0.90230 0.61520 0.31307
 Cu97 Cu 0.86205 0.66653 0.41863
 Cu98 Cu 0.80830 0.56105 0.36701
 N99 N 0.87295 0.55540 0.28505
 N100 N 0.83509 0.53532 0.30541
 C101 C 0.82129 0.49531 0.27824
 C102 C 0.85273 0.48957 0.23943
 C103 C 0.88507 0.52831 0.24477
 H104 H 0.79134 0.47142 0.28666
 H105 H 0.91484 0.53628 0.22082
 N106 N 0.78656 0.59269 0.42913
 N107 N 0.80612 0.63362 0.44803
 C108 C 0.78234 0.64691 0.48931
 C109 C 0.74661 0.61231 0.49694
 C110 C 0.75049 0.57833 0.45846
 H111 H 0.79085 0.67878 0.51265
 H112 H 0.72823 0.54586 0.45217
 H113 H 0.86953 0.59472 0.39230
 H114 H 0.82974 0.63358 0.35892
 N115 N 0.59168 0.30588 -0.11641
 N116 N 0.56034 0.33444 -0.13372
 C117 C 0.52066 0.30773 -0.14286
 C118 C 0.52778 0.25979 -0.13090
 C119 C 0.57323 0.25985 -0.11455
 H120 H 0.48928 0.32199 -0.15763
 H121 H 0.59093 0.22900 -0.10084
 Cu122 Cu 0.57441 0.40336 -0.14478
 Cu123 Cu 0.65174 0.33183 -0.09265
 Cu124 Cu 0.68499 0.44795 -0.12686
 N125 N 0.59901 0.46192 -0.17546
 N126 N 0.64302 0.47743 -0.17076
 C127 C 0.65159 0.51568 -0.19909
 C128 C 0.61055 0.52478 -0.22237
 C129 C 0.57778 0.49035 -0.20626
 H130 H 0.68498 0.53564 -0.20220
 H131 H 0.54171 0.48528 -0.21744
 N132 N 0.72221 0.41089 -0.08307
 N133 N 0.71037 0.36566 -0.07139
 C134 C 0.74078 0.35108 -0.03893
 C135 C 0.77305 0.38922 -0.02956
 C136 C 0.76018 0.42654 -0.05802
 H137 H 0.73778 0.31665 -0.02106
 H138 H 0.77624 0.46303 -0.05892
 H139 H 0.63661 0.40590 -0.08654
 H140 H 0.65579 0.37987 -0.14821
 C141 C -0.03881 0.28399 0.10299
 C142 C -0.01515 0.27191 0.14171
 H143 H -0.03349 0.26201 0.06955
 H144 H -0.02357 0.28768 0.17748
 C145 C 0.55320 0.71577 0.64715
 C146 C 0.52873 0.72650 0.60869
 H147 H 0.54252 0.73035 0.68285
 H148 H 0.53640 0.70826 0.57374
 C149 C 1.03701 0.79777 0.39131
 C150 C 1.01125 0.78137 0.35367
 H151 H 1.03307 0.77828 0.42454
 H152 H 1.01814 0.79453 0.31782
 C153 C 0.44775 0.22306 -0.13112
 C154 C 0.49441 0.21739 -0.13342
 H155 H 0.43382 0.25965 -0.12589
 H156 H 0.50857 0.18083 -0.13388
 C157 C 0.10487 -0.05337 0.31589
 C158 C 0.14420 -0.03570 0.29432
 H159 H 0.07077 -0.04261 0.30415
 H160 H 0.17812 -0.04984 0.30274
 C161 C 0.63719 0.57688 -0.28831
 C162 C 0.60277 0.56252 -0.25730
 H163 H 0.67033 0.55800 -0.28826
 H164 H 0.56723 0.57526 -0.25948
 C165 C 0.39154 1.05706 0.80508
 C166 C 0.35390 1.03735 0.78258
 H167 H 0.42653 1.04492 0.79447
 H168 H 0.31952 1.05278 0.79002
 C169 C 0.89121 0.43509 0.17802
 C170 C 0.85169 0.45020 0.20100
 H171 H 0.92504 0.45037 0.18931
 H172 H 0.81824 0.43172 0.19322
 C173 C 0.30366 0.14571 -0.05854
 C174 C 0.29281 0.10785 -0.03084
 H175 H 0.28640 0.18044 -0.05160
 H176 H 0.31335 0.07486 -0.03452
 C177 C 0.69804 0.65099 0.56254
 C178 C 0.71229 0.61035 0.53779
 H179 H 0.71010 0.68686 0.55112
 H180 H 0.69669 0.57483 0.54615
 C181 C 0.82579 0.35293 0.02702
 C182 C 0.80935 0.39274 0.00743
 H183 H 0.81481 0.31658 0.01315
 H184 H 0.82317 0.42902 0.01828
 C185 C 0.17611 0.88324 0.46208
 C186 C 0.20017 0.84473 0.47506
 H187 H 0.18560 0.91992 0.47627
 H188 H 0.19398 0.80878 0.45738
   
