data_POSCAR
  _audit_creation_date              2014-09-24
  _audit_creation_method            'ToBaCCo'
  _symmetry_space_group_name_H-M    'P1'
  _symmetry_Int_Tables_number       1
  _symmetry_cell_setting            triclinic
  loop_
  _symmetry_equiv_pos_as_xyz
 x,y,z
_cell_length_a 23.9140
_cell_length_b 23.9826
_cell_length_c 24.7935
_cell_angle_alpha 89.804300
_cell_angle_beta 89.964600
_cell_angle_gamma 125.182400
loop_
  _atom_site_label
  _atom_site_type_symbol
  _atom_site_fract_x
  _atom_site_fract_y
  _atom_site_fract_z
O1 O 0.32698 0.55728 0.30853
 O2 O 0.21614 0.55006 0.28824
 C3 C 0.20873 0.58948 0.31685
 O4 O 0.24411 0.65346 0.30948
 O5 O 0.35994 0.77268 0.29643
 C6 C 0.40843 0.78210 0.32565
 O7 O 0.43694 0.75197 0.31698
 O8 O 0.43595 0.64470 0.29720
 C9 C 0.38948 0.59021 0.32144
 O10 O 0.35442 0.56322 0.20202
 O11 O 0.24677 0.56194 0.18175
 C12 C 0.21585 0.58969 0.17268
 O13 O 0.22548 0.63818 0.20187
 O14 O 0.34497 0.75398 0.18879
 C15 C 0.40917 0.78952 0.18166
 O16 O 0.44876 0.78226 0.21047
 O17 O 0.44192 0.67193 0.19059
 C18 C 0.40903 0.60960 0.17780
 Cr19 Cr 0.28800 0.56170 0.24528
 Cr20 Cr 0.29529 0.70293 0.24914
 Cr21 Cr 0.43731 0.71078 0.25366
 O22 O 0.34027 0.65842 0.24940
 O23 O 0.56355 0.35510 0.70253
 O24 O 0.56240 0.24775 0.68270
 C25 C 0.59095 0.21768 0.67390
 O26 O 0.63953 0.22712 0.70301
 O27 O 0.75549 0.34626 0.69024
 C28 C 0.79081 0.41022 0.68280
 O29 O 0.78332 0.44967 0.71130
 O30 O 0.67251 0.44249 0.69118
 C31 C 0.61000 0.40958 0.67829
 O32 O 0.55766 0.32791 0.80912
 O33 O 0.55058 0.21745 0.78921
 C34 C 0.59009 0.20998 0.81789
 O35 O 0.65428 0.24537 0.81070
 O36 O 0.77376 0.36106 0.79794
 C37 C 0.78331 0.40963 0.82680
 O38 O 0.75311 0.43804 0.81779
 O39 O 0.64528 0.43661 0.79775
 C40 C 0.59064 0.39024 0.82195
 Cr41 Cr 0.56215 0.28901 0.74604
 Cr42 Cr 0.70410 0.29661 0.75047
 Cr43 Cr 0.71160 0.43810 0.75437
 O44 O 0.65925 0.34129 0.75031
 C45 C 0.51250 -0.11037 0.44564
 C46 C 0.48763 -0.07003 0.45489
 C47 C 0.43439 -0.08097 0.42102
 C48 C 0.40820 -0.12965 0.37960
 C49 C 0.43420 -0.16836 0.37062
 C50 C 0.48626 -0.15837 0.40429
 C51 C 0.40763 -0.04308 0.42831
 C52 C 0.43250 0.00590 0.46839
 C53 C 0.48570 0.01929 0.50313
 C54 C 0.51372 -0.01936 0.49631
 C55 C 0.56697 -0.00592 0.53100
 C56 C 0.59186 0.04307 0.57107
 C57 C 0.56505 0.08091 0.57841
 C58 C 0.51176 0.06993 0.54457
 C59 C 0.48681 0.11018 0.55391
 C60 C 0.51304 0.15816 0.59529
 C61 C 0.56517 0.16820 0.62890
 C62 C 0.59123 0.12956 0.61984
 H63 H 0.55240 -0.10623 0.46936
 H64 H 0.36784 -0.13683 0.35394
 H65 H 0.50732 -0.18763 0.39860
 H66 H 0.36687 -0.05128 0.40260
 H67 H 0.40859 0.03248 0.47091
 H68 H 0.59094 -0.03244 0.52844
 H69 H 0.63267 0.05131 0.59675
 H70 H 0.44683 0.10597 0.53025
 H71 H 0.49191 0.18735 0.60105
 H72 H 0.63163 0.13676 0.64546
 C73 C 1.06501 0.46139 0.41032
 C74 C 1.05420 0.50316 0.44255
 C75 C 1.09607 0.57435 0.43224
 C76 C 1.14604 0.60181 0.39149
 C77 C 1.15587 0.55971 0.35990
 C78 C 1.11491 0.48934 0.36986
 C79 C 1.08806 0.61812 0.46256
 C80 C 1.03924 0.59312 0.50314
 C81 C 0.99597 0.52272 0.51523
 C82 C 1.00358 0.47695 0.48443
 C83 C 0.96033 0.40656 0.49654
 C84 C 0.91152 0.38156 0.53713
 C85 C 0.90350 0.42533 0.56743
 C86 C 0.94534 0.49651 0.55710
 C87 C 0.93450 0.53828 0.58929
 C88 C 0.88460 0.51033 0.62976
 C89 C 0.84367 0.43997 0.63974
 C90 C 0.85353 0.39787 0.60819
 H91 H 1.03595 0.40688 0.41512
 H92 H 1.17738 0.65644 0.38440
 H93 H 1.12132 0.45546 0.34624
 H94 H 1.12002 0.67261 0.45483
 H95 H 1.03690 0.63079 0.52435
 H96 H 0.96270 0.36889 0.47535
 H97 H 0.87958 0.32707 0.54488
 H98 H 0.96352 0.59278 0.58447
 H99 H 0.87817 0.54422 0.65335
 H100 H 0.82220 0.34324 0.61530
 C101 C 0.37532 0.47677 0.43520
 C102 C 0.44423 0.50839 0.45089
 C103 C 0.49511 0.56862 0.42294
 C104 C 0.47721 0.59528 0.38112
 C105 C 0.40871 0.56294 0.36600
 C106 C 0.35819 0.50362 0.39363
 C107 C 0.56376 0.60206 0.43667
 C108 C 0.58354 0.57726 0.47753
 C109 C 0.53517 0.51743 0.50665
 C110 C 0.46430 0.48241 0.49313
 C111 C 0.41593 0.42258 0.52225
 C112 C 0.43572 0.39777 0.56310
 C113 C 0.50436 0.43121 0.57683
 C114 C 0.55524 0.49144 0.54888
 C115 C 0.62416 0.52306 0.56457
 C116 C 0.64129 0.49621 0.60613
 C117 C 0.59076 0.43688 0.63376
 C118 C 0.52227 0.40454 0.61864
 H119 H 0.33309 0.43112 0.45401
 H120 H 0.51691 0.64127 0.36020
 H121 H 0.30472 0.47740 0.38311
 H122 H 0.60288 0.64814 0.41550
 H123 H 0.63764 0.60659 0.48520
 H124 H 0.36183 0.39325 0.51458
 H125 H 0.39660 0.35170 0.58427
 H126 H 0.66639 0.56871 0.54576
 H127 H 0.69476 0.52242 0.61665
 H128 H 0.48257 0.35855 0.63956
 C129 C 0.53785 -0.06630 1.08888
 C130 C 0.49606 -0.05526 1.05666
 C131 C 0.42461 -0.09727 1.06662
 C132 C 0.39693 -0.14754 1.10709
 C133 C 0.43908 -0.15753 1.13873
 C134 C 0.50970 -0.11648 1.12907
 C135 C 0.38080 -0.08905 1.03627
 C136 C 0.40602 -0.03986 0.99601
 C137 C 0.47668 0.00359 0.98431
 C138 C 0.52250 -0.00427 1.01511
 C139 C 0.59315 0.03914 1.00338
 C140 C 0.61838 0.08832 0.96312
 C141 C 0.57458 0.09658 0.93280
 C142 C 0.50313 0.05461 0.94278
 C143 C 0.46136 0.06573 0.91061
 C144 C 0.48953 0.11595 0.87045
 C145 C 0.56014 0.15696 0.86077
 C146 C 0.60227 0.14689 0.89236
 H147 H 0.59255 -0.03718 1.08433
 H148 H 0.34211 -0.17896 1.11396
 H149 H 0.54363 -0.12300 1.15273
 H150 H 0.32611 -0.12112 1.04373
 H151 H 0.36830 -0.03738 0.97475
 H152 H 0.63087 0.03661 1.02460
 H153 H 0.67307 0.12035 0.95563
 H154 H 0.40667 0.03667 0.91521
 H155 H 0.45561 0.12255 0.84684
 H156 H 0.65709 0.17826 0.88548
 C157 C 1.10995 0.48594 1.05756
 C158 C 1.07139 0.51247 1.04677
 C159 C 1.08418 0.56726 1.07916
 C160 C 1.13306 0.59354 1.12062
 C161 C 1.17035 0.56598 1.13156
 C162 C 1.15811 0.51206 1.09894
 C163 C 1.04787 0.59557 1.07036
 C164 C 0.99857 0.57058 1.03036
 C165 C 0.98332 0.51578 0.99710
 C166 C 1.02062 0.48645 1.00523
 C167 C 1.00587 0.43211 0.97159
 C168 C 0.95674 0.40725 0.93146
 C169 C 0.91992 0.43506 0.92308
 C170 C 0.93223 0.48947 0.95582
 C171 C 0.89272 0.51518 0.94565
 C172 C 0.84433 0.48872 0.90441
 C173 C 0.83313 0.43561 0.87176
 C174 C 0.87093 0.40873 0.88173
 H175 H 1.10417 0.44461 1.03511
 H176 H 1.14124 0.63532 1.14472
 H177 H 1.18555 0.48908 1.10531
 H178 H 1.05753 0.63762 1.09488
 H179 H 0.97338 0.59581 1.02658
 H180 H 1.03156 0.40735 0.97496
 H181 H 0.94750 0.36562 0.90661
 H182 H 0.89772 0.55581 0.96863
 H183 H 0.81577 0.51045 0.89798
 H184 H 0.86275 0.36749 0.85692
 C185 C 0.52301 0.62389 1.06442
 C186 C 0.49132 0.55520 1.04877
 C187 C 0.43089 0.50442 1.07665
 C188 C 0.40409 0.52221 1.11833
 C189 C 0.43649 0.59049 1.13341
 C190 C 0.49602 0.64092 1.10586
 C191 C 0.39738 0.43599 1.06295
 C192 C 0.42230 0.41633 1.02221
 C193 C 0.48233 0.46460 0.99317
 C194 C 0.51743 0.53525 1.00665
 C195 C 0.57745 0.58353 0.97761
 C196 C 0.60237 0.56386 0.93686
 C197 C 0.56886 0.49543 0.92316
 C198 C 0.50843 0.44466 0.95104
 C199 C 0.47673 0.37596 0.93539
 C200 C 0.50370 0.35894 0.89394
 C201 C 0.56322 0.40936 0.86638
 C202 C 0.59564 0.47764 0.88146
 H203 H 0.56881 0.66603 1.04567
 H204 H 0.35794 0.48259 1.13919
 H205 H 0.52229 0.69422 1.11635
 H206 H 0.35115 0.39695 1.08406
 H207 H 0.39289 0.36239 1.01456
 H208 H 0.60686 0.63746 0.98526
 H209 H 0.64860 0.60290 0.91575
 H210 H 0.43093 0.33382 0.95415
 H211 H 0.47742 0.30563 0.88344
 H212 H 0.64178 0.51725 0.86059
   
