data_POSCAR
  _audit_creation_date              2014-09-24
  _audit_creation_method            'ToBaCCo'
  _symmetry_space_group_name_H-M    'P1'
  _symmetry_Int_Tables_number       1
  _symmetry_cell_setting            triclinic
  loop_
  _symmetry_equiv_pos_as_xyz
 x,y,z
_cell_length_a 32.1205
_cell_length_b 29.2012
_cell_length_c 7.4476
_cell_angle_alpha 89.803000
_cell_angle_beta 87.880800
_cell_angle_gamma 90.103800
loop_
  _atom_site_label
  _atom_site_type_symbol
  _atom_site_fract_x
  _atom_site_fract_y
  _atom_site_fract_z
C1 C 0.16162 0.20660 0.20029
 C2 C 0.14117 0.24864 0.18172
 C3 C 0.16254 0.29020 0.18645
 C4 C 0.20560 0.29067 0.21718
 C5 C 0.22690 0.24870 0.24186
 C6 C 0.20499 0.20647 0.23259
 C7 C 0.22623 0.16575 0.27129
 C8 C 0.26814 0.16618 0.31191
 C9 C 0.29106 0.20729 0.31389
 C10 C 0.26989 0.24912 0.28172
 C11 C 0.22772 0.33208 0.22586
 C12 C 0.26959 0.33254 0.26620
 C13 C 0.29110 0.29157 0.29680
 C14 C 0.33287 0.29203 0.34883
 C15 C 0.35303 0.25088 0.38344
 C16 C 0.33348 0.20829 0.36304
 H17 H 0.21030 0.13311 0.27802
 H18 H 0.28178 0.13385 0.34889
 H19 H 0.21264 0.36468 0.20502
 H20 H 0.28471 0.36551 0.27661
 H21 H 0.10814 0.24915 0.15560
 H22 H 0.38546 0.25224 0.41928
 C23 C 0.66125 0.20691 0.21687
 C24 C 0.64040 0.24903 0.20359
 C25 C 0.66148 0.29073 0.21846
 C26 C 0.70523 0.29109 0.23245
 C27 C 0.72729 0.24914 0.23559
 C28 C 0.70544 0.20695 0.22684
 C29 C 0.72858 0.16601 0.21906
 C30 C 0.77168 0.16626 0.23120
 C31 C 0.79369 0.20757 0.24656
 C32 C 0.77136 0.24940 0.24812
 C33 C 0.72748 0.33248 0.24209
 C34 C 0.77059 0.33271 0.25427
 C35 C 0.79317 0.29156 0.25611
 C36 C 0.83712 0.29157 0.26308
 C37 C 0.85858 0.24996 0.26795
 C38 C 0.83759 0.20814 0.25626
 H39 H 0.71366 0.13324 0.20010
 H40 H 0.78765 0.13365 0.22749
 H41 H 0.71176 0.36520 0.23798
 H42 H 0.78612 0.36553 0.26227
 H43 H 0.60663 0.24961 0.20224
 H44 H 0.89237 0.25023 0.26619
 C45 C 0.66897 0.70912 0.60165
 C46 C 0.64909 0.75083 0.57281
 C47 C 0.66892 0.79258 0.60266
 C48 C 0.71048 0.79298 0.65935
 C49 C 0.73150 0.75091 0.68521
 C50 C 0.71059 0.70878 0.65694
 C51 C 0.73188 0.66749 0.68348
 C52 C 0.77250 0.66742 0.74161
 C53 C 0.79368 0.70866 0.77229
 C54 C 0.77327 0.75092 0.74206
 C55 C 0.73149 0.83421 0.69090
 C56 C 0.77211 0.83426 0.74969
 C57 C 0.79410 0.79311 0.77301
 C58 C 0.83515 0.79256 0.83885
 C59 C 0.85388 0.75020 0.87328
 C60 C 0.83434 0.70872 0.83753
 H61 H 0.71724 0.63473 0.66052
 H62 H 0.78694 0.63458 0.76447
 H63 H 0.71657 0.86698 0.67229
 H64 H 0.78557 0.86711 0.78032
 H65 H 0.61698 0.75080 0.53218
 H66 H 0.88543 0.74926 0.92070
 C67 C 0.16293 0.70738 0.76253
 C68 C 0.14198 0.74943 0.75024
 C69 C 0.16261 0.79141 0.77199
 C70 C 0.20671 0.79167 0.78241
 C71 C 0.22890 0.74965 0.78041
 C72 C 0.20705 0.70744 0.77226
 C73 C 0.23014 0.66648 0.76130
 C74 C 0.27338 0.66674 0.76467
 C75 C 0.29556 0.70804 0.77436
 C76 C 0.27321 0.74987 0.78259
 C77 C 0.22946 0.83298 0.78152
 C78 C 0.27270 0.83313 0.78476
 C79 C 0.29521 0.79200 0.78398
 C80 C 0.33928 0.79200 0.77915
 C81 C 0.36079 0.75042 0.77748
 C82 C 0.33962 0.70864 0.77072
 H83 H 0.21508 0.63369 0.74471
 H84 H 0.28936 0.63415 0.75716
 H85 H 0.21419 0.86583 0.77256
 H86 H 0.28840 0.86596 0.78530
 H87 H 0.10821 0.74929 0.74847
 H88 H 0.39457 0.75069 0.76605
 O89 O 0.95795 -0.03160 -0.16579
 O90 O 1.04241 0.05023 -0.07236
 O91 O 1.03847 -0.03396 -0.19156
 O92 O 0.96102 0.05270 -0.05493
 O93 O 0.96058 0.02942 0.22723
 O94 O 1.04221 -0.05400 0.09356
 O95 O 1.04067 0.02988 0.21394
 O96 O 0.96100 -0.05525 0.11489
 Cu97 Cu 0.99996 0.01218 -0.14868
 Cu98 Cu 1.00124 -0.01540 0.18969
 C99 C 0.94566 -0.05826 -0.03916
 C100 C 1.05498 0.05484 0.08635
 C101 C 1.05357 -0.05895 -0.07045
 C102 C 0.94737 0.05606 0.10653
 O103 O 0.53934 0.55328 0.36708
 O104 O 0.45567 0.46943 0.30470
 O105 O 0.45863 0.55360 0.41748
 O106 O 0.53623 0.46792 0.26284
 O107 O 0.54208 0.44767 0.54622
 O108 O 0.46456 0.53269 0.70009
 O109 O 0.46131 0.44833 0.58732
 O110 O 0.54497 0.53253 0.65005
 Cu111 Cu 0.49690 0.51370 0.31088
 Cu112 Cu 0.50385 0.48768 0.64806
 C113 C 0.55626 0.55770 0.51738
 C114 C 0.44439 0.44411 0.43672
 C115 C 0.44841 0.55812 0.58285
 C116 C 0.55235 0.44276 0.38137
 O117 O -0.04163 0.44782 -0.05854
 O118 O 0.03740 0.53240 -0.20675
 O119 O 0.03924 0.44760 -0.09015
 O120 O -0.04302 0.53166 -0.17368
 O121 O -0.03915 0.55399 0.10781
 O122 O 0.04240 0.46916 0.19254
 O123 O 0.04221 0.55321 0.07648
 O124 O -0.03811 0.46941 0.22408
 Cu125 Cu -0.00225 0.48714 -0.15957
 Cu126 Cu 0.00219 0.51429 0.17753
 C127 C -0.05338 0.44382 0.10533
 C128 C 0.05322 0.55752 -0.08814
 C129 C 0.05446 0.44334 0.06401
 C130 C -0.05498 0.55759 -0.04537
 O131 O 0.53408 1.03325 0.26573
 O132 O 0.45720 0.94793 0.43007
 O133 O 0.45400 1.03232 0.32161
 O134 O 0.53782 0.94795 0.37357
 O135 O 0.54488 0.96796 0.65608
 O136 O 0.46309 1.05420 0.60059
 O137 O 0.46463 0.96892 0.71119
 O138 O 0.54360 1.05230 0.54776
 Cu139 Cu 0.49500 0.98774 0.32076
 Cu140 Cu 0.50478 1.01341 0.65612
 C141 C 0.55206 1.05747 0.38122
 C142 C 0.44763 0.94364 0.59608
 C143 C 0.44472 1.05836 0.45328
 C144 C 0.55540 0.94309 0.52248
 C145 C 1.09992 0.16137 0.28336
 C146 C 1.13773 0.16640 0.18343
 C147 C 1.14888 0.13295 0.05459
 C148 C 1.12215 0.09613 0.02326
 C149 C 1.08475 0.09134 0.12474
 C150 C 1.07422 0.12363 0.25723
 H151 H 1.09042 0.18661 0.38298
 H152 H 1.17715 0.13661 -0.02821
 H153 H 1.13045 0.07162 -0.08084
 H154 H 1.04520 0.12062 0.33537
 C155 C 0.63200 0.63984 0.72647
 C156 C 0.64427 0.66692 0.57765
 C157 C 0.62937 0.65644 0.40821
 C158 C 0.60187 0.61995 0.38802
 C159 C 0.58847 0.59343 0.53745
 C160 C 0.60441 0.60323 0.70650
 H161 H 0.64279 0.64796 0.85877
 H162 H 0.63830 0.67727 0.29235
 H163 H 0.59028 0.61326 0.25588
 H164 H 0.59458 0.58356 0.82416
 C165 C -0.13622 0.35333 0.06071
 C166 C -0.13798 0.33369 0.23263
 C167 C -0.11363 0.35208 0.36751
 C168 C -0.08729 0.38951 0.32940
 C169 C -0.08444 0.40816 0.15493
 C170 C -0.10963 0.39007 0.02196
 H171 H -0.15457 0.33921 -0.04514
 H172 H -0.11448 0.33697 0.50063
 H173 H -0.06803 0.40262 0.43394
 H174 H -0.10820 0.40377 -0.11350
 C175 C 0.38984 0.85247 0.87153
 C176 C 0.36386 0.83407 0.74259
 C177 C 0.36382 0.85344 0.57031
 C178 C 0.39020 0.88998 0.52536
 C179 C 0.41699 0.90808 0.65235
 C180 C 0.41598 0.88964 0.82723
 H181 H 0.39042 0.83752 1.00470
 H182 H 0.34423 0.83928 0.46886
 H183 H 0.39019 0.90351 0.38973
 H184 H 0.43650 0.90270 0.92716
 C185 C -0.12916 0.65604 0.04275
 C186 C -0.14173 0.66640 -0.13090
 C187 C -0.12761 0.63927 -0.27578
 C188 C -0.10046 0.60277 -0.24761
 C189 C -0.08675 0.59319 -0.07424
 C190 C -0.10201 0.61971 0.07105
 H191 H -0.13954 0.67691 0.15571
 H192 H -0.13657 0.64731 -0.41111
 H193 H -0.08915 0.58304 -0.36217
 H194 H -0.09219 0.61314 0.20630
 C195 C 0.38261 1.16599 0.54286
 C196 C 0.35756 1.16865 0.39194
 C197 C 0.36044 1.13338 0.26349
 C198 C 0.38815 1.09694 0.28445
 C199 C 0.41328 1.09482 0.43484
 C200 C 0.40965 1.12935 0.56506
 H201 H 0.38110 1.19235 0.64498
 H202 H 0.34284 1.13512 0.14235
 H203 H 0.39050 1.07093 0.18125
 H204 H 0.42861 1.12881 0.68233
 C205 C 1.14344 -0.14160 -0.04632
 C206 C 1.13797 -0.16902 -0.19906
 C207 C 1.10489 -0.15875 -0.31149
 C208 C 1.07870 -0.12146 -0.27446
 C209 C 1.08381 -0.09505 -0.11979
 C210 C 1.11634 -0.10540 -0.00611
 H211 H 1.16747 -0.14956 0.04718
 H212 H 1.09961 -0.17929 -0.42944
 H213 H 1.05344 -0.11436 -0.36281
 H214 H 1.12053 -0.08573 0.11500
 C215 C 0.63428 0.35129 0.42370
 C216 C 0.63610 0.33236 0.25107
 C217 C 0.61169 0.35120 0.11696
 C218 C 0.58547 0.38851 0.15620
 C219 C 0.58282 0.40668 0.33096
 C220 C 0.60790 0.38797 0.46341
 H221 H 0.65262 0.33683 0.52910
 H222 H 0.61256 0.33667 -0.01673
 H223 H 0.56630 0.40205 0.05200
 H224 H 0.60666 0.40124 0.59917
 C225 C 0.87928 -0.16382 0.03523
 C226 C 0.85865 -0.16763 -0.12742
 C227 C 0.86577 -0.13370 -0.26024
 C228 C 0.89344 -0.09746 -0.23157
 C229 C 0.91422 -0.09429 -0.06922
 C230 C 0.90620 -0.12747 0.06467
 H231 H 0.87447 -0.18915 0.14076
 H232 H 0.85167 -0.13647 -0.38968
 H233 H 0.89923 -0.07255 -0.33767
 H234 H 0.92161 -0.12614 0.19150
 C235 C 0.37050 0.34604 0.54336
 C236 C 0.35698 0.33464 0.37244
 C237 C 0.37021 0.36105 0.22327
 C238 C 0.39752 0.39786 0.24453
 C239 C 0.41223 0.40844 0.41517
 C240 C 0.39778 0.38266 0.56475
 H241 H 0.36079 0.32572 0.65953
 H242 H 0.36046 0.35221 0.09003
 H243 H 0.40819 0.41699 0.12673
 H244 H 0.40839 0.38999 0.69800
 C245 C 0.10472 0.65844 -0.32470
 C246 C 0.13857 0.66723 -0.21447
 C247 C 0.14484 0.63787 -0.06741
 C248 C 0.11762 0.60151 -0.02955
 C249 C 0.08407 0.59294 -0.13987
 C250 C 0.07832 0.62100 -0.29008
 H251 H 0.09883 0.68047 -0.43831
 H252 H 0.16944 0.64457 0.02474
 H253 H 0.12231 0.58050 0.08813
 H254 H 0.05228 0.61524 -0.37567
 C255 C 0.60236 1.15802 0.13661
 C256 C 0.63683 1.16691 0.24320
 C257 C 0.64381 1.13777 0.39016
 C258 C 0.61683 1.10144 0.43106
 C259 C 0.58264 1.09275 0.32458
 C260 C 0.57605 1.12066 0.17468
 H261 H 0.59589 1.17987 0.02315
 H262 H 0.66881 1.14461 0.48013
 H263 H 0.62219 1.08061 0.54863
 H264 H 0.54949 1.11486 0.09214
 C265 C 0.12631 0.36108 0.29633
 C266 C 0.13849 0.33226 0.15373
 C267 C 0.12495 0.34147 -0.01923
 C268 C 0.09877 0.37855 -0.04918
 C269 C 0.08541 0.40692 0.09393
 C270 C 0.09999 0.39825 0.26665
 H271 H 0.13630 0.35403 0.43098
 H272 H 0.13398 0.31929 -0.13029
 H273 H 0.08818 0.38428 -0.18379
 H274 H 0.09016 0.41938 0.37961
 C275 C 0.63179 0.86121 0.72832
 C276 C 0.64409 0.83464 0.57909
 C277 C 0.62878 0.84521 0.41013
 C278 C 0.60089 0.88135 0.39086
 C279 C 0.58762 0.90741 0.54072
 C280 C 0.60393 0.89748 0.70921
 H281 H 0.64277 0.85293 0.86035
 H282 H 0.63764 0.82469 0.29404
 H283 H 0.58899 0.88816 0.25927
 H284 H 0.59420 0.91680 0.82728
 C285 C 0.86795 0.14965 0.04978
 C286 C 0.86302 0.16661 0.22487
 C287 C 0.88428 0.14572 0.36447
 C288 C 0.91064 0.10837 0.32829
 C289 C 0.91654 0.09218 0.15146
 C290 C 0.89452 0.11290 0.01323
 H291 H 0.85193 0.16566 -0.05943
 H292 H 0.88091 0.15872 0.50025
 H293 H 0.92742 0.09323 0.43706
 H294 H 0.89830 0.10115 -0.12420
 C295 C 0.36737 0.65126 0.55269
 C296 C 0.36466 0.66731 0.72973
 C297 C 0.38807 0.64608 0.86158
 C298 C 0.41435 0.60934 0.81583
 C299 C 0.41805 0.59402 0.63695
 C300 C 0.39389 0.61508 0.50648
 H301 H 0.34969 0.66762 0.44933
 H302 H 0.38647 0.65841 0.99867
 H303 H 0.43268 0.59392 0.91894
 H304 H 0.39594 0.60404 0.36773
   
