data_POSCAR
  _audit_creation_date              2014-09-24
  _audit_creation_method            'ToBaCCo'
  _symmetry_space_group_name_H-M    'P1'
  _symmetry_Int_Tables_number       1
  _symmetry_cell_setting            triclinic
  loop_
  _symmetry_equiv_pos_as_xyz
 x,y,z
_cell_length_a 47.2615
_cell_length_b 48.1263
_cell_length_c 47.5940
_cell_angle_alpha 89.994100
_cell_angle_beta 89.992800
_cell_angle_gamma 89.959900
loop_
  _atom_site_label
  _atom_site_type_symbol
  _atom_site_fract_x
  _atom_site_fract_y
  _atom_site_fract_z
C1 C 0.17017 0.17347 0.20645
 N2 N 0.19326 0.16161 0.19439
 C3 C 0.20438 0.17217 0.17035
 N4 N 0.19221 0.19482 0.15831
 C5 C 0.16916 0.20688 0.17024
 N6 N 0.15817 0.19615 0.19429
 C7 C -0.16589 0.83000 0.20389
 N8 N -0.18890 0.84180 0.19161
 C9 C -0.20326 0.82818 0.17104
 N10 N -0.19409 0.80279 0.16236
 C11 C -0.17059 0.79124 0.17396
 N12 N -0.15672 0.80481 0.19481
 C13 C -0.16826 0.16731 -0.20416
 N14 N -0.15896 0.19271 -0.19586
 C15 C -0.17200 0.20643 -0.17455
 N16 N -0.19478 0.19480 -0.16173
 C17 C -0.20402 0.16919 -0.16959
 N18 N -0.19049 0.15544 -0.19062
 C19 C 0.17130 0.82861 -0.20390
 N20 N 0.15906 0.80593 -0.19207
 C21 C 0.17051 0.79419 -0.16874
 N22 N 0.19425 0.80529 -0.15719
 C23 C 0.20662 0.82798 -0.16894
 N24 N 0.19502 0.83954 -0.19229
 C25 C 0.16730 1.17008 0.79780
 N26 N 0.15765 1.19519 0.80672
 C27 C 0.17104 1.20901 0.82779
 N28 N 0.19458 1.19773 0.83963
 C29 C 0.20414 1.17246 0.83114
 N30 N 0.19028 1.15860 0.81044
 C31 C 0.82952 0.82783 0.79104
 N32 N 0.84082 0.80441 0.80245
 C33 C 0.83141 0.79481 0.82768
 N34 N 0.81024 0.80855 0.84122
 C35 C 0.79825 0.83141 0.82947
 N36 N 0.80811 0.84105 0.80456
 C37 C 0.16730 0.82777 1.20330
 N38 N 0.15698 0.80294 1.19445
 C39 C 0.16933 0.78927 1.17271
 N40 N 0.19244 0.80036 1.15996
 C41 C 0.20269 0.82538 1.16843
 N42 N 0.18989 0.83912 1.18990
 C43 C 0.83459 1.17136 1.20438
 N44 N 0.84352 1.19616 1.19402
 C45 C 0.82940 1.20861 1.17251
 N46 N 0.80586 1.19632 1.16175
 C47 C 0.79709 1.17132 1.17173
 N48 N 0.81168 1.15882 1.19278
 O49 O 0.45927 1.04583 1.05458
 O50 O 0.42891 1.02212 1.02545
 C51 C 0.43412 1.03959 1.04553
 O52 O 0.54103 1.05217 0.95614
 O53 O 0.57162 1.02433 0.98098
 C54 C 0.56628 1.04390 0.96303
 O55 O 0.46147 1.05445 0.95695
 O56 O 0.43021 1.02508 0.97887
 C57 C 0.43602 1.04597 0.96268
 O58 O 0.53878 1.04439 1.05795
 O59 O 0.57044 1.02075 1.03019
 C60 C 0.56433 1.03759 1.05057
 Zr61 Zr 0.49943 1.03159 1.04084
 O62 O 0.50132 1.07533 1.04500
 O63 O 0.49580 1.02692 1.08492
 Zr64 Zr 0.50096 1.03802 0.97027
 O65 O 0.50139 1.08116 0.97846
 O66 O 0.50212 1.04527 0.92641
 O67 O 0.47488 1.04001 1.00544
 O68 O 0.52490 1.03986 1.00644
 O69 O 0.53954 0.94673 1.04938
 O70 O 0.57083 0.97523 1.02631
 C71 C 0.56497 0.95526 1.04361
 O72 O 0.46178 0.95354 0.94814
 O73 O 0.43014 0.97675 0.97632
 C74 C 0.43626 0.95936 0.95644
 O75 O 0.54145 0.95654 0.94731
 O76 O 0.57167 0.97842 0.97792
 C77 C 0.56659 0.96251 0.95655
 O78 O 0.46004 0.94415 1.04510
 O79 O 0.42946 0.97381 1.02261
 C80 C 0.43479 0.95264 1.03859
 Zr81 Zr 0.49991 0.96154 1.03452
 O82 O 0.50320 0.91779 1.03145
 O83 O 0.49587 0.95863 1.07873
 Zr84 Zr 0.50127 0.96791 0.96364
 O85 O 0.50461 0.92420 0.95989
 O86 O 0.49951 0.97202 0.91940
 Zr87 Zr 0.45838 0.99955 1.00140
 Zr88 Zr 0.54237 0.99979 1.00318
 O89 O 0.52510 0.95970 0.99912
 O90 O 0.47548 0.95921 0.99809
 O91 O 0.52477 0.99617 1.04371
 O92 O 0.47664 1.00329 0.96130
 O93 O 0.47497 0.99605 1.04227
 O94 O 0.52633 1.00349 0.96201
 H95 H 0.53772 1.05607 1.00796
 H96 H 0.46394 1.00440 0.94479
 H97 H 0.53795 0.94347 0.99793
 H98 H 0.46172 0.99464 1.05834
 H99 H 0.49269 1.02942 0.91712
 H100 H 0.51415 0.98569 0.91393
 H101 H 0.48828 0.91594 0.96985
 H102 H 0.48904 0.91159 1.01750
 H103 H 0.51232 0.96822 1.08715
 H104 H 0.51229 1.01598 1.09138
 H105 H 0.48785 1.08330 1.03126
 H106 H 0.50254 1.09038 0.95987
 O107 O -0.05700 0.45914 0.04293
 O108 O -0.02792 0.42923 0.01872
 C109 C -0.04858 0.43438 0.03590
 O110 O -0.04934 0.54004 -0.05473
 O111 O -0.02607 0.56951 -0.02466
 C112 C -0.04289 0.56467 -0.04560
 O113 O -0.05353 0.46202 -0.05350
 O114 O -0.02621 0.43068 -0.02920
 C115 C -0.04574 0.43687 -0.04728
 O116 O -0.05428 0.53697 0.04808
 O117 O -0.02658 0.56814 0.02399
 C118 C -0.04599 0.56205 0.04224
 Zr119 Zr -0.03992 0.49836 0.03193
 O120 O -0.08460 0.50092 0.03056
 O121 O -0.04097 0.49407 0.07620
 Zr122 Zr -0.03746 0.50050 -0.03882
 O123 O -0.08211 0.50244 -0.03740
 O124 O -0.03746 0.49879 -0.08324
 O125 O -0.04410 0.47457 -0.00444
 O126 O -0.04377 0.52369 -0.00288
 O127 O 0.04544 0.53657 0.05129
 O128 O 0.01994 0.56799 0.02520
 C129 C 0.03805 0.56173 0.04467
 O130 O 0.05101 0.46165 -0.04999
 O131 O 0.02207 0.43047 -0.02747
 C132 C 0.04270 0.43654 -0.04432
 O133 O 0.04847 0.53993 -0.05011
 O134 O 0.02103 0.56962 -0.02389
 C135 C 0.04032 0.56462 -0.04258
 O136 O 0.04782 0.45869 0.04634
 O137 O 0.02042 0.42899 0.02020
 C138 C 0.03998 0.43400 0.03859
 Zr139 Zr 0.03171 0.49808 0.03441
 O140 O 0.07631 0.50105 0.03706
 O141 O 0.02908 0.49360 0.07858
 Zr142 Zr 0.03417 0.50032 -0.03650
 O143 O 0.07884 0.50337 -0.03559
 O144 O 0.03492 0.49848 -0.08094
 Zr145 Zr -0.00287 0.45795 -0.00355
 Zr146 Zr -0.00278 0.54056 -0.00087
 O147 O 0.03813 0.52330 -0.00012
 O148 O 0.03846 0.47439 -0.00166
 O149 O -0.00423 0.52277 0.03955
 O150 O -0.00150 0.47650 -0.04359
 O151 O -0.00431 0.47397 0.03759
 O152 O -0.00141 0.52530 -0.04239
 H153 H -0.06030 0.53636 -0.00310
 H154 H -0.00101 0.46451 -0.06050
 H155 H 0.05478 0.53577 0.00076
 H156 H -0.00489 0.46091 0.05367
 H157 H -0.02269 0.51178 -0.08984
 H158 H 0.02549 0.51540 -0.08813
 H159 H 0.08597 0.48819 -0.02351
 H160 H 0.08434 0.48722 0.02392
 H161 H 0.01887 0.50997 0.08600
 H162 H -0.03011 0.50972 0.08426
 H163 H -0.09093 0.48934 0.01457
 H164 H -0.08855 0.50308 -0.05720
 O165 O 1.05323 -0.04905 0.53918
 O166 O 1.02577 -0.02400 0.56998
 C167 C 1.04541 -0.04199 0.56437
 O168 O 1.05047 0.05334 0.46250
 O169 O 1.02758 0.02547 0.43063
 C170 C 1.04459 0.04559 0.43701
 O171 O 1.05180 0.04890 0.54138
 O172 O 1.02531 0.02163 0.57101
 C173 C 1.04429 0.04050 0.56624
 O174 O 1.05211 -0.05008 0.46007
 O175 O 1.02794 -0.02185 0.42946
 C176 C 1.04564 -0.04169 0.43494
 Zr177 Zr 1.03837 -0.03482 0.49965
 O178 O 1.08310 -0.03357 0.49780
 O179 O 1.03935 -0.07874 0.50185
 Zr180 Zr 1.03785 0.03540 0.50126
 O181 O 1.08232 0.03102 0.50110
 O182 O 1.04182 0.07914 0.50288
 O183 O 1.04307 -0.00018 0.52563
 O184 O 1.04380 0.00092 0.47606
 O185 O 0.95505 -0.05066 0.45807
 O186 O 0.97990 -0.02202 0.42844
 C187 C 0.96227 -0.04206 0.43322
 O188 O 0.94996 0.04780 0.53933
 O189 O 0.97585 0.02109 0.56999
 C190 C 0.95664 0.03951 0.56446
 O191 O 0.95406 0.05192 0.46033
 O192 O 0.97957 0.02501 0.42957
 C193 C 0.96154 0.04451 0.43515
 O194 O 0.95089 -0.05020 0.53703
 O195 O 0.97630 -0.02452 0.56892
 C196 C 0.95744 -0.04301 0.56250
 Zr197 Zr 0.96690 -0.03536 0.49820
 O198 O 0.92227 -0.03471 0.49428
 O199 O 0.96651 -0.07929 0.50030
 Zr200 Zr 0.96629 0.03509 0.49979
 O201 O 0.92167 0.03426 0.49591
 O202 O 0.96560 0.07893 0.50340
 Zr203 Zr 1.00141 -0.00081 0.54139
 Zr204 Zr 1.00317 0.00101 0.45799
 O205 O 0.96187 0.00037 0.47459
 O206 O 0.96047 -0.00073 0.52386
 O207 O 1.00319 -0.03996 0.47374
 O208 O 1.00149 0.03978 0.52503
 O209 O 1.00218 -0.04065 0.52320
 O210 O 1.00253 0.04121 0.47567
 H211 H 1.06056 0.00137 0.46357
 H212 H 1.00097 0.05574 0.53816
 H213 H 0.94553 0.00053 0.46156
 H214 H 1.00212 -0.05724 0.53552
 H215 H 1.02316 0.08663 0.50836
 H216 H 0.97864 0.08643 0.48901
 H217 H 0.91418 0.02322 0.51179
 H218 H 0.91462 -0.02492 0.51091
 H219 H 0.97932 -0.08627 0.48546
 H220 H 1.02717 -0.08591 0.48660
 H221 H 1.08962 -0.02155 0.51338
 H222 H 1.09002 0.05015 0.50107
 C223 C 1.13554 0.13858 0.27725
 N224 N 1.12591 0.16338 0.26755
 N225 N 1.13713 0.17478 0.24459
 C226 C 1.15864 0.16197 0.23073
 N227 N 1.16845 0.13734 0.24070
 N228 N 1.15696 0.12576 0.26339
 C229 C 1.12250 0.12528 0.30173
 N230 N 1.12376 0.09728 0.30478
 N231 N 1.11144 0.08491 0.32660
 C232 C 1.09779 0.10013 0.34641
 N233 N 1.09676 0.12819 0.34355
 N234 N 1.10873 0.14054 0.32146
 C235 C 1.08394 0.08625 0.37010
 N236 N 1.07967 0.09971 0.39483
 N237 N 1.06729 0.08676 0.41634
 C238 C 1.05838 0.06007 0.41367
 N239 N 1.06248 0.04674 0.38888
 N240 N 1.07522 0.05952 0.36756
 C241 C 0.87375 -0.13142 0.26997
 N242 N 0.88108 -0.15762 0.26235
 N243 N 0.86855 -0.16993 0.24060
 C244 C 0.84792 -0.15665 0.22591
 N245 N 0.84058 -0.13043 0.23360
 N246 N 0.85341 -0.11797 0.25511
 C247 C 0.88726 -0.11809 0.29419
 N248 N 0.88794 -0.08999 0.29646
 N249 N 0.90021 -0.07793 0.31851
 C250 C 0.91185 -0.09356 0.33926
 N251 N 0.91099 -0.12166 0.33709
 N252 N 0.89908 -0.13371 0.31484
 C253 C 0.92510 -0.08028 0.36366
 N254 N 0.92749 -0.09412 0.38841
 N255 N 0.93922 -0.08191 0.41067
 C256 C 0.94935 -0.05559 0.40882
 N257 N 0.94717 -0.04185 0.38400
 N258 N 0.93508 -0.05391 0.36187
 C259 C 0.86807 0.12841 0.72802
 N260 N 0.87556 0.15473 0.73500
 N261 N 0.86413 0.16715 0.75730
 C262 C 0.84450 0.15385 0.77323
 N263 N 0.83699 0.12751 0.76617
 N264 N 0.84873 0.11494 0.74410
 C265 C 0.88052 0.11487 0.70333
 N266 N 0.88141 0.08674 0.70139
 N267 N 0.89300 0.07449 0.67906
 C268 C 0.90369 0.08994 0.65769
 N269 N 0.90258 0.11806 0.65952
 N270 N 0.89136 0.13031 0.68202
 C271 C 0.91668 0.07651 0.63321
 N272 N 0.91860 0.09016 0.60832
 N273 N 0.93085 0.07815 0.58621
 C274 C 0.94196 0.05223 0.58834
 N275 N 0.94013 0.03862 0.61327
 N276 N 0.92752 0.05047 0.63525
 C277 C 1.13490 -0.13354 0.72589
 N278 N 1.12972 -0.16071 0.73160
 N279 N 1.14124 -0.17282 0.75404
 C280 C 1.15865 -0.15827 0.77131
 N281 N 1.16400 -0.13119 0.76544
 N282 N 1.15218 -0.11899 0.74324
 C283 C 1.12184 -0.11995 0.70157
 N284 N 1.11874 -0.09192 0.70100
 N285 N 1.10670 -0.07948 0.67904
 C286 C 1.09771 -0.09459 0.65670
 N287 N 1.10097 -0.12262 0.65717
 N288 N 1.11266 -0.13511 0.67931
 C289 C 1.08445 -0.08083 0.63258
 N290 N 1.08397 -0.09330 0.60700
 N291 N 1.07184 -0.08076 0.58513
 C292 C 1.05945 -0.05549 0.58817
 N293 N 1.05984 -0.04308 0.61378
 N294 N 1.07231 -0.05544 0.63554
 C295 C 0.27297 1.13428 1.13379
 N296 N 0.25909 1.15503 1.12025
 N297 N 0.23704 1.16759 1.13223
 C298 C 0.22779 1.15954 1.15801
 N299 N 0.24164 1.13867 1.17145
 N300 N 0.26394 1.12640 1.15965
 C301 C 0.29716 1.12036 1.12062
 N302 N 0.31694 1.10740 1.13662
 N303 N 0.33889 1.09466 1.12467
 C304 C 0.34158 1.09406 1.09628
 N305 N 0.32170 1.10687 1.08027
 N306 N 0.29997 1.11997 1.09224
 C307 C 0.36556 1.07976 1.08314
 N308 N 0.36359 1.07004 1.05645
 N309 N 0.38535 1.05691 1.04457
 C310 C 0.40996 1.05340 1.05885
 N311 N 0.41198 1.06329 1.08548
 N312 N 0.39008 1.07604 1.09750
 C313 C 0.27684 0.86355 0.86681
 N314 N 0.26299 0.84263 0.88009
 N315 N 0.24046 0.83076 0.86832
 C316 C 0.23069 0.83970 0.84304
 N317 N 0.24457 0.86068 0.82982
 N318 N 0.26734 0.87226 0.84139
 C319 C 0.30120 0.87709 0.88001
 N320 N 0.32081 0.89043 0.86413
 N321 N 0.34269 0.90316 0.87619
 C322 C 0.34545 0.90339 0.90457
 N323 N 0.32575 0.89018 0.92045
 N324 N 0.30412 0.87709 0.90837
 C325 C 0.36909 0.91796 0.91792
 N326 N 0.36665 0.92758 0.94461
 N327 N 0.38800 0.94107 0.95672
 C328 C 0.41268 0.94508 0.94272
 N329 N 0.41522 0.93527 0.91610
 N330 N 0.39370 0.92214 0.90382
 C331 C 0.72723 0.86461 1.13453
 N332 N 0.74335 0.87888 1.15318
 N333 N 0.76571 0.86695 1.16520
 C334 C 0.77305 0.84041 1.15875
 N335 N 0.75696 0.82617 1.13997
 N336 N 0.73436 0.83800 1.12822
 C337 C 0.70269 0.87790 1.12124
 N338 N 0.68152 0.86238 1.11006
 N339 N 0.65923 0.87456 1.09810
 C340 C 0.65752 0.90269 1.09657
 N341 N 0.67878 0.91818 1.10760
 N342 N 0.70087 0.90601 1.11989
 C343 C 0.63332 0.91623 1.08292
 N344 N 0.63574 0.94252 1.07293
 N345 N 0.61395 0.95485 1.06028
 C346 C 0.58883 0.94147 1.05752
 N347 N 0.58632 0.91523 1.06769
 N348 N 0.60826 0.90275 1.08001
 C349 C 0.72827 1.13297 0.87023
 N350 N 0.73542 1.15973 0.87580
 N351 N 0.75749 1.17146 0.86302
 C352 C 0.77297 1.15699 0.84391
 N353 N 0.76562 1.13029 0.83822
 N354 N 0.74381 1.11845 0.85127
 C355 C 0.70417 1.11988 0.88444
 N356 N 0.70260 1.09181 0.88663
 N357 N 0.68075 1.07984 0.89952
 C358 C 0.65947 1.09551 0.91032
 N359 N 0.66095 1.12359 0.90798
 N360 N 0.68301 1.13558 0.89544
 C361 C 0.63527 1.08225 0.92418
 N362 N 0.61007 1.09566 0.92629
 N363 N 0.58800 1.08342 0.93855
 C364 C 0.59048 1.05747 0.94950
 N365 N 0.61572 1.04415 0.94756
 N366 N 0.63767 1.05624 0.93495
 C367 C 0.13110 0.27527 0.13153
 N368 N 0.11609 0.25886 0.14931
 N369 N 0.12832 0.23725 0.16192
 C370 C 0.15589 0.23106 0.15689
 N371 N 0.17085 0.24738 0.13900
 N372 N 0.15873 0.26922 0.12670
 C373 C 0.11760 0.29898 0.11756
 N374 N 0.13342 0.32033 0.10755
 N375 N 0.12114 0.34188 0.09489
 C376 C 0.09264 0.34264 0.09141
 N377 N 0.07684 0.32121 0.10126
 N378 N 0.08908 0.29984 0.11426
 C379 C 0.07912 0.36629 0.07736
 N380 N 0.05310 0.36359 0.06561
 N381 N 0.04078 0.38510 0.05292
 C382 C 0.05390 0.41017 0.05186
 N383 N 0.07986 0.41290 0.06372
 N384 N 0.09235 0.39129 0.07607
 C385 C -0.13689 0.27935 -0.14216
 N386 N -0.12145 0.26228 -0.15888
 N387 N -0.13296 0.23948 -0.16983
 C388 C -0.16025 0.23273 -0.16421
 N389 N -0.17576 0.24984 -0.14753
 N390 N -0.16434 0.27286 -0.13685
 C391 C -0.12360 0.30363 -0.12900
 N392 N -0.13949 0.32492 -0.11888
 N393 N -0.12721 0.34660 -0.10642
 C394 C -0.09867 0.34755 -0.10329
 N395 N -0.08283 0.32621 -0.11331
 N396 N -0.09506 0.30474 -0.12608
 C397 C -0.08504 0.37092 -0.08886
 N398 N -0.05893 0.36780 -0.07740
 N399 N -0.04653 0.38880 -0.06401
 C400 C -0.05962 0.41381 -0.06191
 N401 N -0.08565 0.41705 -0.07356
 N402 N -0.09822 0.39591 -0.08664
 C403 C 0.13205 0.72505 -0.13186
 N404 N 0.15983 0.73055 -0.12719
 N405 N 0.17207 0.75266 -0.13885
 C406 C 0.15707 0.76984 -0.15588
 N407 N 0.12935 0.76421 -0.16072
 N408 N 0.11702 0.74232 -0.14877
 C409 C 0.11840 0.70102 -0.11861
 N410 N 0.08989 0.70033 -0.11524
 N411 N 0.07749 0.67868 -0.10289
 C412 C 0.09312 0.65677 -0.09382
 N413 N 0.12162 0.65737 -0.09738
 N414 N 0.13406 0.67919 -0.10938
 C415 C 0.07943 0.63283 -0.08046
 N416 N 0.09256 0.60774 -0.07970
 N417 N 0.08000 0.58593 -0.06782
 C418 C 0.05402 0.58852 -0.05594
 N419 N 0.04097 0.61366 -0.05652
 N420 N 0.05337 0.63537 -0.06875
 C421 C -0.13564 0.71919 0.13934
 N422 N -0.11990 0.73618 0.15584
 N423 N -0.13134 0.75871 0.16743
 C424 C -0.15886 0.76527 0.16271
 N425 N -0.17466 0.74827 0.14622
 N426 N -0.16329 0.72551 0.13488
 C427 C -0.12251 0.69509 0.12567
 N428 N -0.13853 0.67384 0.11572
 N429 N -0.12642 0.65224 0.10293
 C430 C -0.09793 0.65133 0.09931
 N431 N -0.08197 0.67263 0.10917
 N432 N -0.09402 0.69403 0.12227
 C433 C -0.08453 0.62801 0.08458
 N434 N -0.05850 0.63105 0.07295
 N435 N -0.04630 0.61005 0.05932
 C436 C -0.05955 0.58513 0.05715
 N437 N -0.08552 0.58201 0.06895
 N438 N -0.09788 0.60314 0.08227
 C439 C 1.12965 0.13061 0.73099
 N440 N 1.14983 0.11754 0.74639
 N441 N 1.16197 0.13030 0.76812
 C442 C 1.15408 0.15645 0.77553
 N443 N 1.13360 0.16935 0.76031
 N444 N 1.12176 0.15675 0.73833
 C445 C 1.11695 0.11694 0.70647
 N446 N 1.10566 0.13228 0.68531
 N447 N 1.09455 0.11995 0.66281
 C448 C 1.09397 0.09182 0.66083
 N449 N 1.10507 0.07646 0.68208
 N450 N 1.11657 0.08880 0.70440
 C451 C 1.08145 0.07829 0.63615
 N452 N 1.07107 0.05205 0.63791
 N453 N 1.05921 0.04000 0.61562
 C454 C 1.05773 0.05359 0.59065
 N455 N 1.06835 0.07973 0.58883
 N456 N 1.07982 0.09193 0.61123
 C457 C 0.86367 -0.13699 0.72014
 N458 N 0.87207 -0.16267 0.72859
 N459 N 0.86083 -0.17433 0.75143
 C460 C 0.84050 -0.16088 0.76639
 N461 N 0.83183 -0.13542 0.75758
 N462 N 0.84334 -0.12362 0.73502
 C463 C 0.87708 -0.12327 0.69608
 N464 N 0.87741 -0.09511 0.69440
 N465 N 0.89011 -0.08240 0.67300
 C466 C 0.90258 -0.09738 0.65227
 N467 N 0.90204 -0.12556 0.65378
 N468 N 0.88969 -0.13829 0.67543
 C469 C 0.91666 -0.08326 0.62884
 N470 N 0.91972 -0.09607 0.60361
 N471 N 0.93242 -0.08310 0.58233
 C472 C 0.94286 -0.05703 0.58566
 N473 N 0.93998 -0.04431 0.61095
 N474 N 0.92690 -0.05711 0.63209
 C475 C 1.13194 -0.13313 0.27152
 N476 N 1.15195 -0.12014 0.25583
 N477 N 1.16343 -0.13279 0.23368
 C478 C 1.15501 -0.15874 0.22615
 N479 N 1.13475 -0.17156 0.24170
 N480 N 1.12357 -0.15906 0.26407
 C481 C 1.11968 -0.11947 0.29624
 N482 N 1.10797 -0.13476 0.31719
 N483 N 1.09688 -0.12239 0.33970
 C484 C 1.09678 -0.09427 0.34186
 N485 N 1.10837 -0.07897 0.32084
 N486 N 1.11983 -0.09136 0.29853
 C487 C 1.08389 -0.08058 0.36624
 N488 N 1.07428 -0.05408 0.36422
 N489 N 1.06204 -0.04176 0.38614
 C490 C 1.05935 -0.05534 0.41099
 N491 N 1.06917 -0.08177 0.41311
 N492 N 1.08105 -0.09425 0.39105
 C493 C 0.87394 0.13503 0.27199
 N494 N 0.85376 0.12116 0.25739
 N495 N 0.84107 0.13297 0.23545
 C496 C 0.84842 0.15894 0.22698
 N497 N 0.86888 0.17270 0.24142
 N498 N 0.88128 0.16103 0.26366
 C499 C 0.88744 0.12201 0.29641
 N500 N 0.89892 0.13770 0.31720
 N501 N 0.91063 0.12568 0.33961
 C502 C 0.91158 0.09756 0.34180
 N503 N 0.90030 0.08192 0.32090
 N504 N 0.88824 0.09392 0.29873
 C505 C 0.92469 0.08411 0.36618
 N506 N 0.93488 0.05784 0.36398
 N507 N 0.94675 0.04540 0.38599
 C508 C 0.94847 0.05858 0.41114
 N509 N 0.93810 0.08480 0.41345
 N510 N 0.92658 0.09742 0.39127
 C511 C 0.13632 0.28024 -0.13938
 N512 N 0.12245 0.26553 -0.15941
 N513 N 0.13409 0.24287 -0.17060
 C514 C 0.15986 0.23380 -0.16188
 N515 N 0.17378 0.24863 -0.14189
 N516 N 0.16231 0.27153 -0.13098
 C517 C 0.12277 0.30435 -0.12608
 N518 N 0.13845 0.32416 -0.11305
 N519 N 0.12593 0.34562 -0.10040
 C520 C 0.09728 0.34777 -0.09994
 N521 N 0.08163 0.32790 -0.11288
 N522 N 0.09415 0.30669 -0.12588
 C523 C 0.08332 0.37087 -0.08531
 N524 N 0.05640 0.36806 -0.07578
 N525 N 0.04364 0.38890 -0.06240
 C526 C 0.05719 0.41343 -0.05837
 N527 N 0.08406 0.41632 -0.06804
 N528 N 0.09699 0.39533 -0.08108
 C529 C -0.13779 0.27828 0.13483
 N530 N -0.16383 0.26881 0.12760
 N531 N -0.17470 0.24644 0.14009
 C532 C -0.16009 0.23296 0.16058
 N533 N -0.13426 0.24280 0.16815
 N534 N -0.12323 0.26491 0.15537
 C535 C -0.12500 0.30179 0.11988
 N536 N -0.09644 0.30433 0.11852
 N537 N -0.08466 0.32514 0.10426
 C538 C -0.10101 0.34436 0.09114
 N539 N -0.12960 0.34197 0.09269
 N540 N -0.14139 0.32090 0.10661
 C541 C -0.08789 0.36744 0.07581
 N542 N -0.10196 0.39178 0.07211
 N543 N -0.08954 0.41308 0.05916
 C544 C -0.06280 0.41063 0.04901
 N545 N -0.04888 0.38617 0.05241
 N546 N -0.06113 0.36503 0.06574
 C547 C -0.13213 0.72598 -0.13618
 N548 N -0.15131 0.74142 -0.12179
 N549 N -0.16336 0.76354 -0.13364
 C550 C -0.15638 0.77131 -0.16019
 N551 N -0.13708 0.75590 -0.17454
 N552 N -0.12532 0.73354 -0.16282
 C553 C -0.11873 0.70176 -0.12296
 N554 N -0.10716 0.68125 -0.13885
 N555 N -0.09508 0.65926 -0.12674
 C556 C -0.09378 0.65720 -0.09832
 N557 N -0.10518 0.67780 -0.08245
 N558 N -0.11761 0.69958 -0.09455
 C559 C -0.08027 0.63317 -0.08485
 N560 N -0.07052 0.63505 -0.05810
 N561 N -0.05834 0.61328 -0.04574
 C562 C -0.05583 0.58871 -0.05955
 N563 N -0.06571 0.58678 -0.08626
 N564 N -0.07754 0.60868 -0.09877
 C565 C 0.13119 0.71822 0.13941
 N566 N 0.11634 0.73592 0.15601
 N567 N 0.12877 0.75816 0.16716
 C568 C 0.15641 0.76371 0.16186
 N569 N 0.17129 0.74603 0.14522
 N570 N 0.15894 0.72357 0.13437
 C571 C 0.11715 0.69426 0.12643
 N572 N 0.13244 0.67220 0.11714
 N573 N 0.11963 0.65068 0.10496
 C574 C 0.09114 0.65063 0.10128
 N575 N 0.07588 0.67273 0.11048
 N576 N 0.08864 0.69407 0.12301
 C577 C 0.07711 0.62736 0.08705
 N578 N 0.05150 0.63095 0.07464
 N579 N 0.03904 0.61003 0.06112
 C580 C 0.05157 0.58467 0.05985
 N581 N 0.07707 0.58102 0.07247
 N582 N 0.08971 0.60204 0.08567
 C583 C 0.27443 1.13626 0.86999
 N584 N 0.25605 1.12054 0.85492
 N585 N 0.23382 1.13215 0.84233
 C586 C 0.22897 1.15985 0.84463
 N587 N 0.24728 1.17558 0.85980
 N588 N 0.26971 1.16401 0.87213
 C589 C 0.29879 1.12329 0.88396
 N590 N 0.32118 1.13880 0.89256
 N591 N 0.34327 1.12686 0.90513
 C592 C 0.34359 1.09903 0.90985
 N593 N 0.32113 1.08358 0.90139
 N594 N 0.29922 1.09547 0.88854
 C595 C 0.36766 1.08568 0.92394
 N596 N 0.36472 1.05999 0.93532
 N597 N 0.38646 1.04759 0.94793
 C598 C 0.41207 1.06026 0.94938
 N599 N 0.41509 1.08594 0.93791
 N600 N 0.39321 1.09850 0.92555
 C601 C 0.27205 0.86137 1.12784
 N602 N 0.26714 0.83365 1.12564
 N603 N 0.24494 0.82215 1.13843
 C604 C 0.22710 0.83789 1.15415
 N605 N 0.23212 0.86556 1.15646
 N606 N 0.25409 0.87711 1.14341
 C607 C 0.29630 0.87428 1.11368
 N608 N 0.29671 0.90212 1.10917
 N609 N 0.31868 0.91404 1.09648
 C610 C 0.34122 0.89862 1.08813
 N611 N 0.34091 0.87077 1.09276
 N612 N 0.31875 0.85879 1.10516
 C613 C 0.36550 0.91207 1.07454
 N614 N 0.39116 0.89938 1.07350
 N615 N 0.41331 0.91217 1.06193
 C616 C 0.41046 0.93797 1.05069
 N617 N 0.38474 0.95049 1.05149
 N618 N 0.36271 0.93785 1.06333
 C619 C 0.72651 1.13136 1.13772
 N620 N 0.74642 1.11680 1.15204
 N621 N 0.76881 1.12964 1.16297
 C622 C 0.77231 1.15743 1.15965
 N623 N 0.75249 1.17201 1.14517
 N624 N 0.72989 1.15921 1.13453
 C625 C 0.70192 1.11708 1.12569
 N626 N 0.67810 1.13140 1.11897
 N627 N 0.65581 1.11832 1.10809
 C628 C 0.65667 1.09053 1.10323
 N629 N 0.68054 1.07625 1.10981
 N630 N 0.70269 1.08926 1.12103
 C631 C 0.63243 1.07625 1.09052
 N632 N 0.63597 1.05154 1.07722
 N633 N 0.61418 1.03904 1.06476
 C634 C 0.58798 1.05059 1.06554
 N635 N 0.58436 1.07513 1.07914
 N636 N 0.60623 1.08781 1.09128
 C637 C 0.72944 0.87091 0.86758
 N638 N 0.74678 0.85423 0.88287
 N639 N 0.76872 0.84154 0.87079
 C640 C 0.77430 0.84541 0.84308
 N641 N 0.75706 0.86224 0.82788
 N642 N 0.73494 0.87464 0.83986
 C643 C 0.70510 0.88471 0.88072
 N644 N 0.68345 0.89441 0.86472
 N645 N 0.66130 0.90690 0.87660
 C646 C 0.66018 0.91045 0.90487
 N647 N 0.68190 0.90088 0.92085
 N648 N 0.70389 0.88808 0.90900
 C649 C 0.63593 0.92440 0.91799
 N650 N 0.63816 0.93514 0.94425
 N651 N 0.61614 0.94768 0.95627
 C652 C 0.59101 0.94969 0.94261
 N653 N 0.58872 0.93884 0.91638
 N654 N 0.61086 0.92659 0.90420
   
