data_POSCAR
  _audit_creation_date              2014-09-24
  _audit_creation_method            'ToBaCCo'
  _symmetry_space_group_name_H-M    'P1'
  _symmetry_Int_Tables_number       1
  _symmetry_cell_setting            triclinic
  loop_
  _symmetry_equiv_pos_as_xyz
 x,y,z
_cell_length_a 19.5259
_cell_length_b 18.8945
_cell_length_c 19.1171
_cell_angle_alpha 90.400100
_cell_angle_beta 88.516500
_cell_angle_gamma 91.485000
loop_
  _atom_site_label
  _atom_site_type_symbol
  _atom_site_fract_x
  _atom_site_fract_y
  _atom_site_fract_z
C1 C 0.53452 0.99349 -0.50666
 C2 C 0.46540 0.99961 -0.49835
 C3 C 0.41747 0.97970 -0.55452
 C4 C 0.43181 1.02338 -0.43122
 C5 C 0.58170 1.01003 -0.44892
 C6 C 0.56842 0.97098 -0.57371
 C7 C 0.41333 1.01923 -0.61614
 C8 C 0.35860 1.00709 -0.66143
 C9 C 0.30657 0.95623 -0.64472
 C10 C 0.31481 0.91348 -0.58547
 C11 C 0.36912 0.92542 -0.54100
 C12 C 0.37885 1.07256 -0.43304
 C13 C 0.34187 1.09064 -0.37211
 C14 C 0.35823 1.06120 -0.30782
 C15 C 0.41125 1.01256 -0.30550
 C16 C 0.44660 0.99258 -0.36676
 C17 C 0.61772 0.95513 -0.41879
 C18 C 0.66759 0.97015 -0.36935
 C19 C 0.68385 1.04053 -0.35116
 C20 C 0.64708 1.09545 -0.38062
 C21 C 0.59575 1.08025 -0.42863
 C22 C 0.54994 0.90752 -0.60815
 C23 C 0.58692 0.88536 -0.66796
 C24 C 0.64411 0.92518 -0.69300
 C25 C 0.66233 0.98845 -0.65854
 C26 C 0.62477 1.01119 -0.59998
 H27 H 0.45028 1.06167 -0.62720
 H28 H 0.35507 1.04070 -0.70671
 H29 H 0.27912 0.87080 -0.57203
 H30 H 0.37210 0.89376 -0.49417
 H31 H 0.36542 1.09632 -0.48205
 H32 H 0.30103 1.12814 -0.37501
 H33 H 0.48407 0.95166 -0.36380
 H34 H 0.60783 0.90071 -0.43451
 H35 H 0.69577 0.92703 -0.34798
 H36 H 0.65880 1.15014 -0.36725
 H37 H 0.56891 1.12320 -0.45204
 H38 H 0.50816 0.87424 -0.58790
 H39 H 0.57207 0.83613 -0.69337
 H40 H 0.70538 1.02096 -0.67722
 H41 H 0.64032 1.06020 -0.57456
 H42 H 0.42373 0.98809 -0.25652
 C43 C -0.49538 1.53581 -0.00846
 C44 C -0.51047 1.46784 0.01033
 C45 C -0.58026 1.44109 0.03152
 C46 C -0.45764 1.41292 0.00690
 C47 C -0.42359 1.56112 -0.02100
 C48 C -0.54765 1.59032 -0.01962
 C49 C -0.58728 1.39851 0.09152
 C50 C -0.64934 1.36384 0.10833
 C51 C -0.70614 1.37273 0.06660
 C52 C -0.70038 1.41677 0.00778
 C53 C -0.63737 1.44950 -0.01064
 C54 C -0.40129 1.41409 0.05124
 C55 C -0.35754 1.35641 0.05209
 C56 C -0.37083 1.29685 0.00970
 C57 C -0.42555 1.29741 -0.03632
 C58 C -0.46838 1.35489 -0.03778
 C59 C -0.38377 1.53674 -0.07806
 C60 C -0.32071 1.57011 -0.09511
 C61 C -0.29766 1.62898 -0.05615
 C62 C -0.33664 1.65139 0.00225
 C63 C -0.39888 1.61773 0.01963
 C64 C -0.54122 1.63137 -0.08046
 C65 C -0.58191 1.68966 -0.08959
 C66 C -0.63224 1.70750 -0.03915
 C67 C -0.64170 1.66384 0.02016
 C68 C -0.59840 1.60700 0.03081
 H69 H -0.54382 1.39042 0.12438
 H70 H -0.65303 1.32990 0.15378
 H71 H -0.74383 1.42329 -0.02546
 H72 H -0.63288 1.47962 -0.05856
 H73 H -0.39277 1.45821 0.08668
 H74 H -0.31562 1.35679 0.08810
 H75 H -0.51145 1.35326 -0.07243
 H76 H -0.40281 1.49406 -0.11092
 H77 H -0.29164 1.55206 -0.14051
 H78 H -0.31957 1.69571 0.03410
 H79 H -0.42918 1.63746 0.06351
 H80 H -0.50298 1.61936 -0.12057
 H81 H -0.57430 1.71971 -0.13724
 H82 H -0.67950 1.67599 0.06058
 H83 H -0.60340 1.57746 0.07906
 H84 H -0.43607 1.25269 -0.07047
 C85 C 0.00072 0.46548 0.51256
 C86 C 0.00685 0.53383 0.49075
 C87 C 0.00905 0.59434 0.54059
 C88 C 0.00860 0.55350 0.41589
 C89 C -0.00121 0.40365 0.46331
 C90 C -0.00687 0.44717 0.58814
 C91 C -0.05064 0.63120 0.55694
 C92 C -0.04687 0.69530 0.59352
 C93 C 0.01591 0.72088 0.61950
 C94 C 0.07496 0.68120 0.60744
 C95 C 0.07209 0.62061 0.56497
 C96 C -0.04626 0.59043 0.38917
 C97 C -0.04219 0.61805 0.32194
 C98 C 0.01656 0.60881 0.27957
 C99 C 0.07009 0.56828 0.30450
 C100 C 0.06630 0.54112 0.37264
 C101 C 0.03562 0.34348 0.48007
 C102 C 0.02629 0.28012 0.44349
 C103 C -0.01816 0.27559 0.38680
 C104 C -0.05202 0.33706 0.36709
 C105 C -0.04531 0.39972 0.40629
 C106 C 0.04366 0.46620 0.63618
 C107 C 0.03990 0.44066 0.70457
 C108 C -0.01132 0.39060 0.72466
 C109 C -0.06181 0.37136 0.67640
 C110 C -0.06046 0.40065 0.60962
 H111 H -0.09992 0.61165 0.53947
 H112 H -0.09368 0.72368 0.60334
 H113 H 0.12421 0.70004 0.62589
 H114 H 0.11915 0.59442 0.55064
 H115 H -0.09213 0.59896 0.42059
 H116 H -0.08473 0.64783 0.30347
 H117 H 0.10914 0.51276 0.39247
 H118 H 0.07011 0.34479 0.52358
 H119 H 0.05545 0.23530 0.45923
 H120 H -0.08730 0.33573 0.32431
 H121 H -0.07693 0.44374 0.39368
 H122 H 0.08844 0.49706 0.62009
 H123 H 0.08097 0.45523 0.73922
 H124 H -0.10273 0.33383 0.69017
 H125 H -0.09960 0.38428 0.57331
 H126 H 0.11608 0.56065 0.27278
 O127 O -0.15775 1.00016 -0.12035
 O128 O 0.18415 1.06311 -0.05391
 O129 O 0.00355 1.15044 -0.13747
 O130 O 0.03974 0.97381 -0.19847
 O131 O 0.04986 0.86481 -0.14638
 O132 O -0.02727 1.20063 -0.03110
 O133 O 0.11782 1.07138 -0.15165
 O134 O -0.06586 1.05130 -0.18148
 Zr135 Zr 0.01736 1.04251 -0.11425
 O136 O 0.08303 0.97567 -0.06634
 O137 O -0.06529 1.06814 -0.05071
 C138 C -0.12997 1.03236 -0.17427
 C139 C 0.17605 1.07455 -0.11988
 C140 C -0.01343 1.20347 -0.09764
 C141 C 0.04765 0.90592 -0.20049
 H142 H 0.08062 1.13572 -0.04146
 O143 O 0.05414 1.09277 -0.02699
 H144 H -0.05711 0.92761 -0.13138
 O145 O -0.03722 0.95075 -0.08980
 O146 O 0.15527 1.00412 0.12524
 O147 O -0.18384 0.93126 0.05464
 O148 O 0.04711 1.18748 0.07268
 O149 O 0.13047 0.85330 -0.04182
 O150 O -0.04859 0.81143 -0.06918
 O151 O -0.13080 1.14970 0.03555
 O152 O -0.03900 1.02746 0.19808
 O153 O -0.00778 0.84891 0.13609
 O154 O -0.04740 1.13648 0.14580
 O155 O 0.02805 0.79952 0.03100
 O156 O 0.14764 1.12617 0.06253
 O157 O -0.19072 1.05164 -0.00532
 O158 O -0.14844 0.87358 -0.05668
 O159 O 0.19142 0.94995 0.00122
 O160 O 0.06175 0.95499 0.18485
 O161 O -0.11619 0.92208 0.15114
 Zr162 Zr 0.11584 1.02483 0.02455
 Zr163 Zr -0.11624 0.97532 -0.02238
 Zr164 Zr -0.02829 1.11482 0.03860
 Zr165 Zr 0.02772 0.88550 -0.03891
 Zr166 Zr -0.01823 0.95752 0.11422
 O167 O -0.05475 0.90591 0.02743
 O168 O 0.03596 1.04998 0.09140
 C169 C 0.12553 0.97533 0.18023
 C170 C -0.17423 0.91626 0.11969
 C171 C 0.11294 1.18276 0.07619
 C172 C 0.18664 0.88661 -0.02499
 C173 C -0.11456 0.81667 -0.07037
 C174 C -0.18654 1.11651 0.01653
 C175 C -0.04601 1.09553 0.19993
 C176 C 0.01207 0.79626 0.09719
 H177 H -0.12138 1.03790 0.09954
 O178 O -0.08324 1.02509 0.06725
 H179 H 0.09529 0.90000 0.07437
 O180 O 0.06433 0.93221 0.05076
 N181 N 0.13687 0.92491 0.29412
 N182 N 0.18796 0.91710 0.34236
 C183 C 0.24558 0.95014 0.31723
 C184 C 0.23206 0.97925 0.25181
 C185 C 0.16358 0.96169 0.23938
 H186 H 0.26712 1.00864 0.21745
 H187 H 0.08700 0.90413 0.30042
 H188 H 0.17911 0.89375 0.39114
 N189 N -0.29376 0.86810 0.13783
 N190 N -0.34193 0.87048 0.18773
 C191 C -0.31531 0.90191 0.24484
 C192 C -0.24667 0.91842 0.23104
 C193 C -0.23520 0.89664 0.16264
 H194 H -0.21146 0.94772 0.26391
 H195 H -0.30188 0.85021 0.08681
 H196 H -0.39308 0.85498 0.18098
 N197 N -0.16142 1.10649 -0.27455
 N198 N -0.21149 1.11031 -0.31936
 C199 C -0.25711 1.05697 -0.30659
 C200 C -0.23541 1.01777 -0.25042
 C201 C -0.17446 1.05117 -0.23175
 H202 H -0.25974 0.97108 -0.22735
 H203 H -0.11914 1.14142 -0.27343
 H204 H -0.21298 1.14759 -0.35934
 N205 N 0.30158 1.09637 -0.13186
 N206 N 0.34989 1.09109 -0.18104
 C207 C 0.32009 1.08021 -0.24300
 C208 C 0.24927 1.07909 -0.23291
 C209 C 0.23973 1.08855 -0.16120
 H210 H 0.21083 1.06557 -0.27089
 H211 H 0.31125 1.10105 -0.07851
 H212 H 0.40237 1.09206 -0.17165
 N213 N 0.12038 1.31289 0.09422
 N214 N 0.16799 1.36362 0.08912
 C215 C 0.22952 1.33361 0.08274
 C216 C 0.22100 1.26056 0.08386
 C217 C 0.15070 1.24951 0.09031
 H218 H 0.25971 1.22148 0.07398
 H219 H 0.06779 1.32184 0.09558
 H220 H 0.15811 1.41764 0.08722
 N221 N 0.30067 0.87585 -0.08163
 N222 N 0.35008 0.82423 -0.08814
 C223 C 0.32962 0.76887 -0.04753
 C224 C 0.26667 0.78364 -0.01552
 C225 C 0.25061 0.85036 -0.03868
 H226 H 0.23535 0.74978 0.01850
 H227 H 0.30180 0.92403 -0.10817
 H228 H 0.39599 0.83091 -0.11680
 N229 N -0.12947 0.69124 -0.11091
 N230 N -0.17809 0.64123 -0.10677
 C231 C -0.23474 0.66921 -0.07712
 C232 C -0.22207 0.74028 -0.06345
 C233 C -0.15486 0.75200 -0.08506
 H234 H -0.25561 0.77745 -0.03744
 H235 H -0.07927 0.68304 -0.12876
 H236 H -0.17119 0.58833 -0.12082
 N237 N -0.31247 1.11936 0.01086
 N238 N -0.36081 1.16648 0.00860
 C239 C -0.33201 1.23154 0.01592
 C240 C -0.26189 1.22565 0.02426
 C241 C -0.25176 1.15329 0.01968
 H242 H -0.22359 1.26780 0.02838
 H243 H -0.32111 1.06488 0.00478
 H244 H -0.41255 1.15387 0.00131
 N245 N -0.02733 1.09571 0.32730
 N246 N -0.01529 1.14680 0.37866
 C247 C -0.02869 1.21066 0.35159
 C248 C -0.05012 1.20137 0.28307
 C249 C -0.04690 1.12914 0.26949
 H250 H -0.05972 1.24230 0.24549
 H251 H -0.01559 1.04232 0.33165
 H252 H 0.00092 1.13543 0.42885
 N253 N 0.01953 1.33054 -0.10245
 N254 N 0.02302 1.38266 -0.15379
 C255 C -0.00912 1.35658 -0.21049
 C256 C -0.03287 1.28792 -0.19681
 C257 C -0.01289 1.27345 -0.12969
 H258 H -0.05600 1.25075 -0.23306
 H259 H 0.04410 1.33366 -0.05459
 H260 H 0.04690 1.43233 -0.14781
 N261 N -0.00513 0.89596 -0.31493
 N262 N -0.01979 0.84137 -0.36180
 C263 C 0.01949 0.78647 -0.34607
 C264 C 0.05932 0.80432 -0.28873
 C265 C 0.04085 0.87259 -0.26966
 H266 H 0.09107 0.76934 -0.25977
 H267 H -0.03323 0.94213 -0.31008
 H268 H -0.05539 0.84402 -0.40149
 N269 N 0.05606 0.67363 0.10638
 N270 N 0.05858 0.62439 0.15510
 C271 C 0.02313 0.64644 0.21227
 C272 C -0.00261 0.71253 0.19950
 C273 C 0.01957 0.72802 0.13210
 H274 H -0.03071 0.74626 0.23546
 H275 H 0.08094 0.67085 0.05745
 H276 H 0.08470 0.57709 0.14921
   
