data_POSCAR
  _audit_creation_date              2014-09-24
  _audit_creation_method            'ToBaCCo'
  _symmetry_space_group_name_H-M    'P1'
  _symmetry_Int_Tables_number       1
  _symmetry_cell_setting            triclinic
  loop_
  _symmetry_equiv_pos_as_xyz
 x,y,z
_cell_length_a 41.0639
_cell_length_b 41.0639
_cell_length_c 41.0639
_cell_angle_alpha 90.000000
_cell_angle_beta 90.000000
_cell_angle_gamma 90.000000
loop_
  _atom_site_label
  _atom_site_type_symbol
  _atom_site_fract_x
  _atom_site_fract_y
  _atom_site_fract_z
C1 C 0.16145 1.20490 0.15845
 N2 N 0.14544 1.19357 0.18608
 C3 C 0.15533 1.16598 0.20348
 N4 N 0.18267 1.14963 0.19184
 C5 C 0.20006 1.15963 0.16431
 N6 N 0.18875 1.18725 0.14831
 C7 C 0.83736 0.79616 0.16363
 N8 N 0.85042 0.81009 0.19134
 C9 C 0.83904 0.83759 0.20673
 N10 N 0.81200 0.85213 0.19277
 C11 C 0.79660 0.83991 0.16478
 N12 N 0.80987 0.81163 0.15045
 C13 C 0.83860 1.20654 -0.16279
 N14 N 0.81114 1.19303 -0.14864
 C15 C 0.79560 1.16514 -0.16089
 N16 N 0.80904 1.15057 -0.18898
 C17 C 0.83681 1.16347 -0.20424
 N18 N 0.85012 1.19097 -0.19013
 C19 C 0.15499 0.79656 -0.16560
 N20 N 0.18240 0.80798 -0.14929
 C21 C 0.19997 0.83532 -0.15934
 N22 N 0.18877 0.85142 -0.18691
 C23 C 0.16136 0.84155 -0.20447
 N24 N 0.14518 0.81401 -0.19318
 C25 C 0.53777 1.06030 -0.02547
 H26 H 0.52083 1.07360 -0.01029
 C27 C 0.56499 1.07774 -0.03953
 H28 H 0.56616 1.10362 -0.03494
 C29 C 0.55633 1.01199 -0.04860
 H30 H 0.55436 0.98597 -0.05215
 C31 C 0.58404 1.02867 -0.06307
 H32 H 0.60136 1.01447 -0.07694
 N33 N 0.53321 1.02733 -0.02941
 C34 C 0.45553 1.01943 0.05969
 H35 H 0.47022 1.00135 0.07191
 C36 C 0.42808 1.03298 0.07715
 H37 H 0.42504 1.02523 0.10209
 C38 C 0.44173 1.04948 0.01372
 H39 H 0.44562 1.05606 -0.01148
 C40 C 0.41372 1.06349 0.03044
 H41 H 0.39820 1.08007 0.01710
 Zn42 Zn 0.49813 0.99904 -0.00085
 N43 N 0.46277 1.02722 0.02789
 C44 C 0.54153 0.97911 0.05903
 N45 N 0.53348 0.97078 0.02757
 C46 C 0.55378 0.94784 0.01340
 C47 C 0.58188 0.93369 0.02979
 C48 C 0.56909 0.96545 0.07615
 C49 C 0.44002 0.98559 -0.04832
 C50 C 0.41217 0.96879 -0.06229
 C51 C 0.43085 0.92014 -0.03754
 C52 C 0.45824 0.93770 -0.02401
 N53 N 0.46302 0.97052 -0.02881
 H54 H 0.52743 0.99772 0.07115
 H55 H 0.54921 0.94085 -0.01158
 H56 H 0.59686 0.91659 0.01647
 H57 H 0.57289 0.97365 0.10085
 H58 H 0.44219 1.01149 -0.05250
 H59 H 0.39494 0.98277 -0.07649
 H60 H 0.42945 0.89440 -0.03228
 H61 H 0.47509 0.92467 -0.00850
 C62 C 0.40515 1.05525 0.06309
 C63 C 0.59007 1.06253 -0.05853
 C64 C 0.40590 0.93510 -0.05686
 C65 C 0.59129 0.94250 0.06204
 C66 C -0.02873 0.54052 1.06086
 H67 H -0.01378 0.52367 1.07452
 C68 C -0.04336 0.56764 1.07786
 H69 H -0.03943 0.56891 1.10385
 C70 C -0.05094 0.55883 1.01195
 H71 H -0.05391 0.55670 0.98588
 C72 C -0.06590 0.58646 1.02816
 H73 H -0.07952 0.60370 1.01361
 N74 N -0.03193 0.53597 1.02785
 C75 C 0.01137 0.44423 1.04946
 H76 H -0.01413 0.44734 1.05520
 C77 C 0.02823 0.41634 1.06343
 H78 H 0.01465 0.40006 1.07907
 C79 C 0.05816 0.46014 1.02177
 H80 H 0.07073 0.47597 1.00488
 C81 C 0.07578 0.43275 1.03530
 H82 H 0.10112 0.43055 1.02862
 Zn83 Zn -0.00321 0.50117 1.00014
 N84 N 0.02582 0.46613 1.02824
 C85 C 0.05381 0.54980 0.97827
 N86 N 0.02391 0.53622 0.97052
 C87 C 0.00753 0.55156 0.94567
 C88 C 0.02016 0.57947 0.92850
 C89 C 0.06755 0.57781 0.96126
 C90 C -0.05163 0.44398 0.98786
 C91 C -0.06609 0.41627 0.97138
 C92 C -0.04122 0.43421 0.92245
 C93 C -0.02714 0.46139 0.93971
 N94 N -0.03173 0.46639 0.97248
 H95 H 0.06725 0.53975 0.99857
 H96 H -0.01656 0.54295 0.93938
 H97 H 0.00435 0.58992 0.91032
 H98 H 0.09112 0.58676 0.96891
 H99 H -0.05581 0.44656 1.01372
 H100 H -0.08053 0.39936 0.98552
 H101 H -0.03617 0.43256 0.89668
 H102 H -0.01139 0.47788 0.92651
 C103 C 0.06138 0.40883 1.05633
 C104 C -0.06209 0.59252 1.06205
 C105 C -0.06079 0.40973 0.93777
 C106 C 0.05110 0.59415 0.93530
 C107 C 1.04653 -0.00634 0.55604
 H108 H 1.04869 0.01947 0.55119
 C109 C 1.06311 -0.01942 0.58411
 H110 H 1.07706 -0.00247 0.59861
 C111 C 1.02409 -0.05714 0.54467
 H112 H 1.00810 -0.07256 0.53049
 C113 C 1.04045 -0.07126 0.57288
 H114 H 1.03686 -0.09686 0.57798
 N115 N 1.02706 -0.02471 0.53590
 C116 C 1.00522 0.05086 0.44471
 H117 H 0.97947 0.05316 0.44984
 C118 C 1.01808 0.06743 0.41650
 H119 H 1.00102 0.08148 0.40222
 C120 C 1.05602 0.02819 0.45550
 H121 H 1.07154 0.01214 0.46947
 C122 C 1.06991 0.04454 0.42711
 H123 H 1.09543 0.04084 0.42174
 Zn124 Zn 0.99736 0.00170 0.50052
 N125 N 1.02369 0.03128 0.46467
 C126 C 0.96869 0.06169 0.53880
 N127 N 0.96765 0.02841 0.53521
 C128 C 0.95062 0.01187 0.55913
 C129 C 0.93534 0.02780 0.58676
 C130 C 0.95379 0.07840 0.56595
 C131 C 0.98875 -0.04750 0.44600
 C132 C 0.97542 -0.06381 0.41802
 C133 C 0.92390 -0.04018 0.42921
 C134 C 0.93828 -0.02408 0.45733
 N135 N 0.97063 -0.02774 0.46602
 H136 H 0.98219 0.07586 0.52116
 H137 H 0.94973 -0.01443 0.55791
 H138 H 0.92339 0.01286 0.60488
 H139 H 0.95606 0.10462 0.56659
 H140 H 1.01452 -0.05003 0.45088
 H141 H 0.99208 -0.07808 0.40349
 H142 H 0.89837 -0.03618 0.42406
 H143 H 0.92323 -0.00771 0.47145
 C144 C 1.05128 0.06519 0.40615
 C145 C 1.06096 -0.05275 0.59403
 C146 C 0.94216 -0.06100 0.40821
 C147 C 0.93694 0.06205 0.59178
 C148 C 0.11423 0.28400 1.12704
 C149 C 0.13299 0.29141 1.10040
 C150 C 0.15998 0.27214 1.09224
 C151 C 0.16834 0.24446 1.11160
 C152 C 0.15042 0.23458 1.13986
 C153 C 0.12238 0.25561 1.14732
 O154 O 0.08947 0.30596 1.13021
 C155 C 0.09278 0.32751 1.10512
 C156 C 0.11918 0.31942 1.08631
 C157 C 0.12734 0.33808 1.05893
 C158 C 0.10836 0.36593 1.05034
 C159 C 0.08058 0.37679 1.06846
 C160 C 0.07286 0.35609 1.09669
 H161 H 0.17458 0.27825 1.07116
 H162 H 0.18943 0.23057 1.10404
 H163 H 0.10731 0.25012 1.16823
 H164 H 0.14803 0.33126 1.04410
 H165 H 0.11554 0.37871 1.02852
 H166 H 0.05220 0.36215 1.11185
 C167 C -0.13338 0.71728 1.11356
 C168 C -0.10739 0.70886 1.13280
 C169 C -0.09932 0.72696 1.16028
 C170 C -0.11805 0.75464 1.16882
 C171 C -0.14583 0.76605 1.15075
 C172 C -0.15333 0.74603 1.12194
 O173 O -0.13610 0.69579 1.08828
 C174 C -0.11138 0.67377 1.09203
 C175 C -0.09335 0.68109 1.11911
 C176 C -0.06650 0.66217 1.12814
 C177 C -0.05752 0.63457 1.10925
 C178 C -0.07477 0.62435 1.08079
 C179 C -0.10249 0.64537 1.07210
 H180 H -0.07873 0.71993 1.17516
 H181 H -0.11004 0.76723 1.19051
 H182 H -0.17376 0.75249 1.10662
 H183 H -0.05238 0.66861 1.14945
 H184 H -0.03608 0.62145 1.11702
 H185 H -0.11687 0.63965 1.05079
 C186 C -0.13144 0.28529 0.88581
 C187 C -0.10488 0.29299 0.86704
 C188 C -0.09646 0.27422 0.84000
 C189 C -0.11550 0.24664 0.83149
 C190 C -0.14375 0.23627 0.84927
 C191 C -0.15154 0.25682 0.87750
 O192 O -0.13461 0.30712 0.91065
 C193 C -0.10960 0.32875 0.90723
 C194 C -0.09089 0.32084 0.88075
 C195 C -0.06361 0.33940 0.87227
 C196 C -0.05496 0.36716 0.89112
 C197 C -0.07299 0.37786 0.91893
 C198 C -0.10109 0.35725 0.92703
 H199 H -0.07543 0.28066 0.82547
 H200 H -0.10754 0.23324 0.81026
 H201 H -0.17242 0.25098 0.89246
 H202 H -0.04894 0.33256 0.85147
 H203 H -0.03318 0.38000 0.88385
 H204 H -0.11607 0.36336 0.94782
 C205 C 0.12282 0.71833 0.88225
 C206 C 0.09815 0.70911 0.86170
 C207 C 0.09133 0.72706 0.83346
 C208 C 0.11008 0.75527 0.82565
 C209 C 0.13659 0.76675 0.84518
 C210 C 0.14272 0.74704 0.87446
 O211 O 0.12463 0.69762 0.90820
 C212 C 0.10071 0.67497 0.90376
 C213 C 0.08407 0.68113 0.87545
 C214 C 0.05870 0.66073 0.86544
 C215 C 0.04956 0.63335 0.88475
 C216 C 0.06462 0.62511 0.91518
 C217 C 0.09146 0.64706 0.92426
 H218 H 0.07170 0.71957 0.81755
 H219 H 0.10364 0.76814 0.80357
 H220 H 0.16221 0.75388 0.89082
 H221 H 0.04612 0.66556 0.84278
 H222 H 0.03049 0.61824 0.87489
 H223 H 0.10460 0.64279 0.94667
 C224 C 1.12362 0.11858 0.28241
 C225 C 1.09784 0.13819 0.29059
 C226 C 1.09029 0.16573 0.27186
 C227 C 1.10939 0.17379 0.24393
 C228 C 1.13686 0.15509 0.23330
 C229 C 1.14372 0.12649 0.25380
 O230 O 1.12620 0.09332 0.30388
 C231 C 1.10161 0.09718 0.32592
 C232 C 1.08371 0.12444 0.31860
 C233 C 1.05716 0.13350 0.33803
 C234 C 1.04820 0.11429 0.36558
 C235 C 1.06480 0.08512 0.37512
 C236 C 1.09277 0.07701 0.35424
 H237 H 1.06985 0.18096 0.27856
 H238 H 1.10233 0.19533 0.23048
 H239 H 1.16398 0.11079 0.24772
 H240 H 1.04346 0.15524 0.33221
 H241 H 1.02796 0.12305 0.37993
 H242 H 1.10697 0.05547 0.35953
 C243 C 1.11417 -0.12618 0.71690
 C244 C 1.13376 -0.10029 0.70901
 C245 C 1.16125 -0.09286 0.72784
 C246 C 1.16926 -0.11220 0.75559
 C247 C 1.15056 -0.13979 0.76588
 C248 C 1.12203 -0.14653 0.74529
 O249 O 1.08895 -0.12858 0.69539
 C250 C 1.09284 -0.10377 0.67362
 C251 C 1.12006 -0.08592 0.68115
 C252 C 1.12917 -0.05918 0.66203
 C253 C 1.11001 -0.04997 0.63456
 C254 C 1.08086 -0.06651 0.62486
 C255 C 1.07272 -0.09468 0.64541
 H256 H 1.17646 -0.07233 0.72135
 H257 H 1.19076 -0.10522 0.76915
 H258 H 1.10636 -0.16687 0.75116
 H259 H 1.15090 -0.04553 0.66803
 H260 H 1.11877 -0.02959 0.62041
 H261 H 1.05118 -0.10883 0.63995
 C262 C 0.86948 -0.11352 0.28515
 C263 C 0.89440 -0.13381 0.29432
 C264 C 0.90160 -0.16190 0.27662
 C265 C 0.88303 -0.16991 0.24859
 C266 C 0.85634 -0.15067 0.23679
 C267 C 0.84972 -0.12142 0.25632
 O268 O 0.86747 -0.08772 0.30600
 C269 C 0.89154 -0.09211 0.32852
 C270 C 0.90848 -0.12015 0.32212
 C271 C 0.93429 -0.13009 0.34198
 C272 C 0.94363 -0.11083 0.36920
 C273 C 0.92813 -0.08082 0.37774
 C274 C 0.90081 -0.07181 0.35646
 H275 H 0.92140 -0.17758 0.28419
 H276 H 0.88999 -0.19202 0.23609
 H277 H 0.83010 -0.10530 0.24932
 H278 H 0.94711 -0.15251 0.33676
 H279 H 0.96325 -0.12013 0.38408
 H280 H 0.88754 -0.04955 0.36116
 C281 C 0.86604 0.11332 0.71686
 C282 C 0.89163 0.13291 0.70805
 C283 C 0.89948 0.16061 0.72591
 C284 C 0.88093 0.16902 0.75377
 C285 C 0.85350 0.15064 0.76554
 C286 C 0.84620 0.12163 0.74573
 O287 O 0.86355 0.08781 0.69562
 C288 C 0.88799 0.09178 0.67332
 C289 C 0.90561 0.11924 0.68022
 C290 C 0.93205 0.12863 0.66086
 C291 C 0.94101 0.10969 0.63328
 C292 C 0.92424 0.08077 0.62360
 C293 C 0.89696 0.07173 0.64503
 H294 H 0.91977 0.17575 0.71858
 H295 H 0.88872 0.19091 0.76613
 H296 H 0.82606 0.10605 0.75248
 H297 H 0.94581 0.15027 0.66692
 H298 H 0.96205 0.11776 0.61968
 H299 H 0.88294 0.05008 0.63967
 C300 C 0.28097 1.12688 0.11633
 C301 C 0.28745 1.09946 0.13430
 C302 C 0.26756 1.09089 0.16074
 C303 C 0.24023 1.11066 0.16934
 C304 C 0.23135 1.13963 0.15218
 C305 C 0.25292 1.14751 0.12471
 O306 O 0.30340 1.13040 0.09205
 C307 C 0.32432 1.10473 0.09483
 C308 C 0.31535 1.08520 0.12042
 C309 C 0.33322 1.05711 0.12786
 C310 C 0.36116 1.04853 0.10900
 C311 C 0.37297 1.06740 0.08210
 C312 C 0.35306 1.09636 0.07509
 H313 H 0.27294 1.06921 0.17473
 H314 H 0.22571 1.10295 0.18993
 H315 H 0.24810 1.16903 0.11032
 H316 H 0.32571 1.04169 0.14787
 H317 H 0.37324 1.02613 0.11558
 H318 H 0.35983 1.11212 0.05511
 C319 C 0.71499 1.11514 -0.12924
 C320 C 0.70654 1.13466 -0.10346
 C321 C 0.72486 1.16235 -0.09583
 C322 C 0.75268 1.17068 -0.11484
 C323 C 0.76372 1.15215 -0.14226
 C324 C 0.74364 1.12332 -0.14927
 O325 O 0.69367 1.08973 -0.13183
 C326 C 0.67155 1.09350 -0.10726
 C327 C 0.67864 1.12080 -0.08938
 C328 C 0.65931 1.12971 -0.06272
 C329 C 0.63174 1.11052 -0.05386
 C330 C 0.62189 1.08178 -0.07098
 C331 C 0.64327 1.07330 -0.09848
 H332 H 0.71791 1.17752 -0.07543
 H333 H 0.76578 1.19239 -0.10768
 H334 H 0.75005 1.10776 -0.16953
 H335 H 0.66539 1.15116 -0.04866
 H336 H 0.61833 1.11831 -0.03261
 H337 H 0.63792 1.05188 -0.11283
 C338 C 0.28075 0.88303 -0.12670
 C339 C 0.28868 0.86361 -0.10069
 C340 C 0.26971 0.83626 -0.09295
 C341 C 0.24182 0.82827 -0.11215
 C342 C 0.23159 0.84690 -0.13973
 C343 C 0.25223 0.87522 -0.14678
 O344 O 0.30240 0.90805 -0.12956
 C345 C 0.32431 0.90424 -0.10491
 C346 C 0.31678 0.87726 -0.08669
 C347 C 0.33600 0.86849 -0.05989
 C348 C 0.36382 0.88749 -0.05130
 C349 C 0.37397 0.91588 -0.06885
 C350 C 0.35277 0.92420 -0.09644
 H351 H 0.27621 0.82114 -0.07237
 H352 H 0.22801 0.80694 -0.10518
 H353 H 0.24631 0.89073 -0.16723
 H354 H 0.32965 0.84732 -0.04553
 H355 H 0.37717 0.87987 -0.02997
 H356 H 0.35836 0.94534 -0.11111
 C357 C 0.71525 0.87070 0.11552
 C358 C 0.70993 0.89944 0.13173
 C359 C 0.73063 0.90936 0.15691
 C360 C 0.75760 0.88960 0.16616
 C361 C 0.76548 0.85920 0.15097
 C362 C 0.74308 0.84993 0.12459
 O363 O 0.69195 0.86622 0.09220
 C364 C 0.67177 0.89263 0.09390
 C365 C 0.68205 0.91351 0.11784
 C366 C 0.66527 0.94252 0.12408
 C367 C 0.63697 0.95070 0.10569
 C368 C 0.62376 0.93052 0.08050
 C369 C 0.64260 0.90059 0.07462
 H370 H 0.72612 0.93209 0.16947
 H371 H 0.77267 0.89861 0.18579
 H372 H 0.74700 0.82730 0.11169
 H373 H 0.67390 0.95893 0.14282
 H374 H 0.62572 0.97382 0.11120
 H375 H 0.63468 0.88383 0.05591
   
