data_POSCAR
  _audit_creation_date              2014-09-24
  _audit_creation_method            'ToBaCCo'
  _symmetry_space_group_name_H-M    'P1'
  _symmetry_Int_Tables_number       1
  _symmetry_cell_setting            triclinic
  loop_
  _symmetry_equiv_pos_as_xyz
 x,y,z
_cell_length_a 34.1027
_cell_length_b 30.6158
_cell_length_c 17.7008
_cell_angle_alpha 90.056700
_cell_angle_beta 89.848900
_cell_angle_gamma 90.055500
loop_
  _atom_site_label
  _atom_site_type_symbol
  _atom_site_fract_x
  _atom_site_fract_y
  _atom_site_fract_z
C1 C 0.68692 0.30917 0.57004
 C2 C 0.67168 0.32330 0.50111
 C3 C 0.68715 0.30878 0.43252
 C4 C 0.71887 0.27920 0.43195
 C5 C 0.73471 0.26449 0.50158
 C6 C 0.71869 0.27951 0.57107
 C7 C 0.73484 0.26449 0.63932
 C8 C 0.76612 0.23528 0.63944
 C9 C 0.78246 0.21998 0.57133
 C10 C 0.76662 0.23473 0.50169
 C11 C 0.73514 0.26398 0.36384
 C12 C 0.76643 0.23481 0.36391
 C13 C 0.78262 0.21976 0.43213
 C14 C 0.81438 0.19013 0.43300
 C15 C 0.82966 0.17589 0.50181
 C16 C 0.81423 0.19030 0.57061
 H17 H 0.72335 0.27525 0.69330
 H18 H 0.77745 0.22473 0.69351
 H19 H 0.72375 0.27455 0.30983
 H20 H 0.77789 0.22409 0.30988
 H21 H 0.64726 0.34609 0.50068
 H22 H 0.85408 0.15307 0.50183
 C23 C 0.31309 0.69099 0.43268
 C24 C 0.32836 0.67663 0.50135
 C25 C 0.31297 0.69098 0.57014
 C26 C 0.28130 0.72065 0.57111
 C27 C 0.26545 0.73553 0.50164
 C28 C 0.28141 0.72064 0.43201
 C29 C 0.26531 0.73576 0.36389
 C30 C 0.23405 0.76502 0.36400
 C31 C 0.21782 0.78019 0.43223
 C32 C 0.23363 0.76534 0.50177
 C33 C 0.26509 0.73579 0.63936
 C34 C 0.23384 0.76507 0.63952
 C35 C 0.21766 0.78027 0.57140
 C36 C 0.18593 0.81001 0.57058
 C37 C 0.17072 0.82428 0.50171
 C38 C 0.18616 0.80983 0.43303
 H39 H 0.27678 0.72505 0.30988
 H40 H 0.22268 0.77570 0.31005
 H41 H 0.27649 0.72507 0.69327
 H42 H 0.22241 0.77575 0.69359
 H43 H 0.35273 0.65382 0.50126
 H44 H 0.14634 0.84712 0.50138
 C45 C 0.18611 0.19107 -0.43403
 C46 C 0.17067 0.17672 -0.50261
 C47 C 0.18601 0.19099 -0.57156
 C48 C 0.21786 0.22064 -0.57254
 C49 C 0.23384 0.23547 -0.50300
 C50 C 0.21790 0.22062 -0.43339
 C51 C 0.23413 0.23565 -0.36523
 C52 C 0.26550 0.26479 -0.36524
 C53 C 0.28175 0.27994 -0.43341
 C54 C 0.26581 0.26519 -0.50301
 C55 C 0.23415 0.23584 -0.64073
 C56 C 0.26551 0.26503 -0.64074
 C57 C 0.28179 0.28012 -0.57256
 C58 C 0.31364 0.30975 -0.57162
 C59 C 0.32899 0.32392 -0.50272
 C60 C 0.31355 0.30948 -0.43408
 H61 H 0.22266 0.22496 -0.31123
 H62 H 0.27696 0.27539 -0.31126
 H63 H 0.22271 0.22523 -0.69473
 H64 H 0.27697 0.27573 -0.69476
 H65 H 0.14620 0.15395 -0.50216
 H66 H 0.35346 0.34668 -0.50235
 C67 C -0.31399 0.68984 -0.43246
 C68 C -0.32924 0.67542 -0.50125
 C69 C -0.31386 0.68983 -0.57006
 C70 C -0.28219 0.71968 -0.57090
 C71 C -0.26637 0.73463 -0.50132
 C72 C -0.28231 0.71967 -0.43170
 C73 C -0.26614 0.73491 -0.36354
 C74 C -0.23493 0.76427 -0.36360
 C75 C -0.21875 0.77947 -0.43177
 C76 C -0.23456 0.76458 -0.50134
 C77 C -0.26592 0.73497 -0.63908
 C78 C -0.23473 0.76437 -0.63907
 C79 C -0.21859 0.77960 -0.57089
 C80 C -0.18690 0.80945 -0.56995
 C81 C -0.17170 0.82375 -0.50104
 C82 C -0.18711 0.80923 -0.43244
 H83 H -0.27754 0.72421 -0.30948
 H84 H -0.22356 0.77499 -0.30962
 H85 H -0.27725 0.72427 -0.69311
 H86 H -0.22330 0.77512 -0.69308
 H87 H -0.35360 0.65246 -0.50123
 H88 H -0.14734 0.84667 -0.50061
 N89 N 0.04066 0.95330 -0.13295
 N90 N 0.06642 0.94456 -0.18654
 N91 N -0.04174 0.92235 -0.08094
 N92 N -0.06748 0.89160 -0.09816
 N93 N -0.04174 0.95321 -0.13247
 N94 N -0.06748 0.94442 -0.18579
 N95 N 0.04070 0.92247 -0.08138
 N96 N 0.06648 0.89180 -0.09881
 C97 C 0.08272 0.90664 -0.16375
 C98 C -0.08373 0.90644 -0.16289
 N99 N -0.04172 0.95326 0.13406
 N100 N -0.06747 0.94447 0.18764
 N101 N 0.04070 0.92256 0.08198
 N102 N 0.06646 0.89190 0.09915
 N103 N 0.04068 0.95346 0.13354
 N104 N 0.06644 0.94479 0.18685
 N105 N -0.04174 0.92240 0.08243
 N106 N -0.06749 0.89166 0.09981
 Mn107 Mn -0.00052 0.92199 0.00052
 C108 C -0.08374 0.90648 0.16479
 C109 C 0.08271 0.90685 0.16390
 N110 N -0.04181 1.04718 -0.13249
 N111 N -0.06743 1.05596 -0.18600
 N112 N 0.04058 1.07820 -0.08134
 N113 N 0.06631 1.10893 -0.09883
 N114 N 0.04059 1.04728 -0.13287
 N115 N 0.06631 1.05602 -0.18648
 N116 N -0.04185 1.07807 -0.08090
 N117 N -0.06750 1.10882 -0.09828
 Mn118 Mn -0.00058 1.00024 -0.13319
 C119 C -0.08367 1.09396 -0.16317
 C120 C 0.08255 1.09403 -0.16375
 N121 N 0.04065 1.04745 0.13362
 N122 N 0.06643 1.05627 0.18689
 N123 N -0.04181 1.07812 0.08256
 N124 N -0.06748 1.10885 0.10025
 N125 N -0.04175 1.04725 0.13408
 N126 N -0.06739 1.05601 0.18784
 N127 N 0.04063 1.07828 0.08204
 N128 N 0.06640 1.10903 0.09915
 Mn129 Mn -0.00054 1.00035 0.13433
 Mn130 Mn -0.00062 1.07862 0.00059
 Cl131 Cl -0.00056 1.00030 0.00056
 C132 C 0.08269 1.09424 0.16390
 C133 C -0.08364 1.09397 0.16524
 N134 N 0.54224 0.57752 -0.08199
 N135 N 0.56789 0.60832 -0.09968
 N136 N 0.45977 0.54685 -0.13329
 N137 N 0.43387 0.55554 -0.18635
 N138 N 0.45981 0.57768 -0.08161
 N139 N 0.43394 0.60829 -0.09838
 N140 N 0.54217 0.54664 -0.13359
 N141 N 0.56776 0.55547 -0.18740
 C142 C 0.58403 0.59348 -0.16476
 C143 C 0.41759 0.59343 -0.16308
 N144 N 0.45940 0.42196 -0.08215
 N145 N 0.43363 0.39127 -0.09962
 N146 N 0.54192 0.45267 -0.13376
 N147 N 0.56774 0.44391 -0.18721
 N148 N 0.54183 0.42181 -0.08223
 N149 N 0.56758 0.39110 -0.09955
 N150 N 0.45952 0.45287 -0.13360
 N151 N 0.43385 0.44417 -0.18711
 Mn152 Mn 0.50084 0.49976 -0.13406
 C153 C 0.41750 0.40620 -0.16443
 C154 C 0.58394 0.40595 -0.16438
 N155 N 0.45970 0.57767 0.08170
 N156 N 0.43397 0.60839 0.09906
 N157 N 0.54197 0.54659 0.13300
 N158 N 0.56765 0.55531 0.18649
 N159 N 0.54214 0.57745 0.08146
 N160 N 0.56792 0.60813 0.09884
 N161 N 0.45957 0.54678 0.13317
 N162 N 0.43375 0.55554 0.18663
 Mn163 Mn 0.50098 0.57804 -0.00011
 C164 C 0.41759 0.59353 0.16387
 C165 C 0.58403 0.59324 0.16368
 N166 N 0.54169 0.42175 0.08117
 N167 N 0.56733 0.39097 0.09844
 N168 N 0.45930 0.45278 0.13290
 N169 N 0.43341 0.44411 0.18627
 N170 N 0.45925 0.42194 0.08122
 N171 N 0.43333 0.39134 0.09835
 N172 N 0.54171 0.45261 0.13280
 N173 N 0.56736 0.44379 0.18624
 Mn174 Mn 0.50055 0.42141 -0.00050
 Mn175 Mn 0.50064 0.49969 0.13347
 Cl176 Cl 0.50076 0.49972 -0.00030
 C177 C 0.58354 0.40579 0.16332
 C178 C 0.41703 0.40623 0.16322
 C179 C 0.33076 0.32578 0.36418
 C180 C 0.34776 0.34168 0.31111
 C181 C 0.36990 0.36236 0.25396
 C182 C 0.39055 0.38161 0.20978
 C183 C -0.16979 0.82558 0.36586
 C184 C -0.15279 0.84159 0.31285
 C185 C -0.13067 0.86240 0.25574
 C186 C -0.11009 0.88175 0.21153
 C187 C 0.66923 0.67379 0.36564
 C188 C 0.65246 0.65789 0.31240
 C189 C 0.63062 0.63721 0.25497
 C190 C 0.61023 0.61794 0.21053
 C191 C 0.16889 1.17500 0.36428
 C192 C 0.15187 1.15906 0.31134
 C193 C 0.12971 1.13831 0.25438
 C194 C 0.10909 1.11898 0.21035
 C195 C 0.66979 0.32528 -0.36579
 C196 C 0.65284 0.34123 -0.31268
 C197 C 0.63080 0.36195 -0.25542
 C198 C 0.61026 0.38125 -0.21111
 C199 C 0.16880 0.82605 -0.36516
 C200 C 0.15180 0.84198 -0.31206
 C201 C 0.12968 0.86270 -0.25484
 C202 C 0.10908 0.88198 -0.21055
 C203 C 0.33099 0.67409 -0.36215
 C204 C 0.34810 0.65809 -0.30954
 C205 C 0.37035 0.63733 -0.25293
 C206 C 0.39107 0.61804 -0.20919
 C207 C -0.16885 1.17440 -0.36505
 C208 C -0.15205 1.15858 -0.31183
 C209 C -0.13018 1.13794 -0.25443
 C210 C -0.10980 1.11869 -0.21002
 C211 C 0.66898 0.67385 -0.36807
 C212 C 0.65219 0.65805 -0.31464
 C213 C 0.63040 0.63748 -0.25683
 C214 C 0.61009 0.61825 -0.21201
 C215 C 0.16810 1.17427 -0.36602
 C216 C 0.15116 1.15845 -0.31284
 C217 C 0.12921 1.13790 -0.25531
 C218 C 0.10877 1.11870 -0.21072
 C219 C 0.33161 0.32618 -0.36612
 C220 C 0.34864 0.34196 -0.31309
 C221 C 0.37071 0.36246 -0.25575
 C222 C 0.39122 0.38160 -0.21131
 C223 C -0.16920 0.82604 -0.36447
 C224 C -0.15231 0.84189 -0.31138
 C225 C -0.13039 0.86249 -0.25401
 C226 C -0.10995 0.88172 -0.20961
 C227 C 0.33122 0.67412 0.36477
 C228 C 0.34835 0.65816 0.31188
 C229 C 0.37056 0.63747 0.25479
 C230 C 0.39120 0.61821 0.21057
 C231 C -0.16857 1.17414 0.36865
 C232 C -0.15179 1.15837 0.31519
 C233 C -0.13002 1.13786 0.25733
 C234 C -0.10972 1.11868 0.21248
 C235 C 0.66919 0.32547 0.36453
 C236 C 0.65223 0.34128 0.31153
 C237 C 0.63022 0.36186 0.25431
 C238 C 0.60975 0.38108 0.21001
 C239 C 0.16825 0.82663 0.36513
 C240 C 0.15135 0.84247 0.31213
 C241 C 0.12941 0.86304 0.25488
 C242 C 0.10896 0.88222 0.21056
   
