data_POSCAR
  _audit_creation_date              2014-09-24
  _audit_creation_method            'ToBaCCo'
  _symmetry_space_group_name_H-M    'P1'
  _symmetry_Int_Tables_number       1
  _symmetry_cell_setting            triclinic
  loop_
  _symmetry_equiv_pos_as_xyz
 x,y,z
_cell_length_a 39.3140
_cell_length_b 38.2564
_cell_length_c 40.6367
_cell_angle_alpha 86.125000
_cell_angle_beta 92.257500
_cell_angle_gamma 87.186300
loop_
  _atom_site_label
  _atom_site_type_symbol
  _atom_site_fract_x
  _atom_site_fract_y
  _atom_site_fract_z
C1 C 0.27322 0.24398 0.23916
 N2 N 0.25444 0.27481 0.23777
 C3 C 0.22924 0.27994 0.25898
 N4 N 0.22252 0.25382 0.28176
 C5 C 0.24101 0.22276 0.28331
 N6 N 0.26640 0.21793 0.26196
 C7 C 0.70499 -0.23478 0.23280
 N8 N 0.73332 -0.25684 0.23740
 C9 C 0.75545 -0.25381 0.26357
 N10 N 0.74912 -0.22870 0.28483
 C11 C 0.72115 -0.20648 0.28027
 N12 N 0.69914 -0.20964 0.25428
 C13 C 0.68154 0.24513 0.77463
 N14 N 0.68203 0.21914 0.75348
 C15 C 0.70661 0.21713 0.73109
 N16 N 0.73100 0.24106 0.73019
 C17 C 0.73058 0.26737 0.75102
 N18 N 0.70562 0.26945 0.77307
 C19 C 0.26050 -0.29530 0.78295
 N20 N 0.23746 -0.32057 0.78455
 C21 C 0.21025 -0.31920 0.76288
 N22 N 0.20603 -0.29223 0.73934
 C23 C 0.22887 -0.26675 0.73744
 N24 N 0.25613 -0.26834 0.75931
 C25 C 0.71078 -0.26957 0.75056
 N26 N 0.73889 -0.29190 0.75103
 C27 C 0.76243 -0.28771 0.72757
 N28 N 0.75816 -0.26050 0.70429
 C29 C 0.73038 -0.23794 0.70387
 N30 N 0.70652 -0.24295 0.72668
 C31 C 0.29720 0.22831 0.77258
 N32 N 0.30183 0.20600 0.74839
 C33 C 0.27776 0.20455 0.72364
 N34 N 0.24872 0.22564 0.72318
 C35 C 0.24401 0.24801 0.74746
 N36 N 0.26823 0.24908 0.77199
 C37 C 0.31520 -0.23672 0.21954
 N38 N 0.28855 -0.25790 0.21730
 C39 C 0.26546 -0.25975 0.24126
 N40 N 0.26926 -0.24026 0.26785
 C41 C 0.29587 -0.21903 0.27039
 N42 N 0.31867 -0.21730 0.24614
 C43 C 0.73008 0.30802 0.23368
 N44 N 0.73323 0.28487 0.26058
 C45 C 0.76264 0.28173 0.27948
 N46 N 0.78856 0.30249 0.27176
 C47 C 0.78553 0.32611 0.24513
 N48 N 0.75633 0.32849 0.22590
 O49 O 0.28899 0.00647 0.47632
 O50 O 0.28874 -0.05721 0.54754
 O51 O 0.28844 -0.06114 0.48322
 O52 O 0.28377 0.01119 0.53968
 O53 O 0.22757 0.01174 0.53516
 O54 O 0.23217 -0.06020 0.48018
 O55 O 0.23251 -0.05669 0.54405
 O56 O 0.23273 0.00802 0.47182
 Cu57 Cu 0.29307 -0.02537 0.51224
 Cu58 Cu 0.22565 -0.02423 0.50746
 C59 C 0.26121 0.01803 0.46183
 C60 C 0.26089 -0.06785 0.55804
 C61 C 0.26079 -0.07263 0.47188
 C62 C 0.25459 0.02385 0.54676
 O63 O 0.72532 0.04983 0.52759
 O64 O 0.72612 -0.01048 0.46047
 O65 O 0.73083 -0.01777 0.52442
 O66 O 0.71820 0.05732 0.46321
 O67 O 0.77396 0.06101 0.46088
 O68 O 0.78666 -0.01459 0.52233
 O69 O 0.78194 -0.00684 0.45852
 O70 O 0.78108 0.05333 0.52491
 Cu71 Cu 0.71948 0.01951 0.49410
 Cu72 Cu 0.78650 0.02367 0.49140
 C73 C 0.75322 0.06168 0.53771
 C74 C 0.75440 -0.01920 0.44840
 C75 C 0.76080 -0.02914 0.53368
 C76 C 0.74382 0.07196 0.45159
 O77 O 0.45911 0.31738 0.04854
 O78 O 0.52077 0.32063 -0.01690
 O79 O 0.45505 0.31739 -0.01562
 O80 O 0.52530 0.31905 0.04718
 O81 O 0.53116 0.26122 0.04873
 O82 O 0.45964 0.25946 -0.01198
 O83 O 0.52456 0.26269 -0.01490
 O84 O 0.46437 0.25949 0.05259
 Cu85 Cu 0.48949 0.32441 0.01566
 Cu86 Cu 0.49529 0.25483 0.01928
 C87 C 0.45119 0.28809 0.06171
 C88 C 0.53280 0.29229 -0.02738
 C89 C 0.44580 0.28810 -0.02484
 C90 C 0.54069 0.29033 0.05798
 O91 O 0.54533 0.69128 0.01618
 O92 O 0.47847 0.70238 -0.05065
 O93 O 0.54479 0.69643 -0.04841
 O94 O 0.47880 0.69593 0.01339
 O95 O 0.47965 0.75358 0.01404
 O96 O 0.54786 0.75370 -0.04580
 O97 O 0.48098 0.75991 -0.05053
 O98 O 0.54540 0.74885 0.01783
 Cu99 Cu 0.51175 0.69072 -0.01752
 Cu100 Cu 0.51351 0.75982 -0.01622
 C101 C 0.55640 0.71832 0.02867
 C102 C 0.46840 0.73309 -0.06197
 C103 C 0.55784 0.72508 -0.05730
 C104 C 0.46801 0.72457 0.02427
 O105 O 0.05016 0.50853 0.30644
 O106 O -0.02066 0.57467 0.28801
 O107 O -0.01487 0.50706 0.29817
 O108 O 0.04550 0.57718 0.29863
 O109 O 0.05262 0.57329 0.24536
 O110 O -0.00964 0.50379 0.24449
 O111 O -0.01377 0.57151 0.23460
 O112 O 0.05603 0.50490 0.25293
 Cu113 Cu 0.01453 0.54259 0.30315
 Cu114 Cu 0.02208 0.53827 0.23895
 C115 C 0.06459 0.49486 0.28265
 C116 C -0.02973 0.58372 0.25814
 C117 C -0.02254 0.49345 0.27145
 C118 C 0.05975 0.58687 0.27234
 O119 O 0.00750 0.49585 0.70095
 O120 O -0.05668 0.42923 0.70816
 O121 O -0.05660 0.49647 0.71320
 O122 O 0.00861 0.42797 0.69616
 O123 O 0.02231 0.42067 0.74947
 O124 O -0.04519 0.48612 0.76673
 O125 O -0.04191 0.41843 0.76105
 O126 O 0.01935 0.48808 0.75461
 Cu127 Cu -0.02555 0.46309 0.69920
 Cu128 Cu -0.01008 0.45245 0.76333
 C129 C 0.02397 0.50369 0.72666
 C130 C -0.06009 0.41244 0.73577
 C131 C -0.06206 0.50282 0.74289
 C132 C 0.02689 0.41296 0.72001
 C133 C 0.30097 0.23893 0.21631
 C134 C 0.31058 0.26661 0.19516
 C135 C 0.33813 0.26355 0.17198
 N136 N 0.34709 0.29273 0.15432
 N137 N 0.37171 0.29094 0.13289
 C138 C 0.38834 0.25985 0.12818
 N139 N 0.37936 0.23053 0.14581
 N140 N 0.35471 0.23234 0.16739
 C141 C 0.41526 0.25790 0.10403
 C142 C 0.42604 0.28823 0.08745
 H143 H 0.29761 0.29219 0.19577
 H144 H 0.42642 0.23247 0.09902
 H145 H 0.31431 0.21346 0.21655
 H146 H 0.41515 0.31357 0.09315
 C147 C 0.68200 0.76333 0.20610
 C148 C 0.68447 0.73797 0.18304
 C149 C 0.66001 0.73886 0.15454
 N150 N 0.65809 0.71096 0.13569
 N151 N 0.63586 0.71188 0.10992
 C152 C 0.61496 0.74084 0.10203
 N153 N 0.61712 0.76874 0.12071
 N154 N 0.63913 0.76774 0.14650
 C155 C 0.59040 0.74302 0.07371
 C156 C 0.58208 0.71430 0.05619
 H157 H 0.70415 0.71703 0.18602
 H158 H 0.57746 0.76833 0.06712
 H159 H 0.66093 0.78282 0.20341
 H160 H 0.59366 0.68851 0.06339
 C161 C 0.65578 0.24561 -0.20017
 C162 C 0.65327 0.27194 -0.17819
 C163 C 0.62987 0.27025 -0.15089
 N164 N 0.62575 0.29797 -0.13205
 N165 N 0.60516 0.29650 -0.10679
 C166 C 0.58811 0.26715 -0.09933
 N167 N 0.59235 0.23938 -0.11809
 N168 N 0.61281 0.24091 -0.14343
 C169 C 0.56546 0.26501 -0.07146
 C170 C 0.55641 0.29422 -0.05444
 H171 H 0.66922 0.29418 -0.18069
 H172 H 0.55485 0.24002 -0.06483
 H173 H 0.63897 0.22403 -0.19831
 H174 H 0.56578 0.31957 -0.06199
 C175 C 0.28830 0.70204 -0.19448
 C176 C 0.31289 0.72709 -0.19303
 C177 C 0.34190 0.72263 -0.16875
 N178 N 0.36230 0.74960 -0.16392
 N179 N 0.38832 0.74583 -0.14169
 C180 C 0.39500 0.71486 -0.12364
 N181 N 0.37479 0.68784 -0.12870
 N182 N 0.34871 0.69167 -0.15078
 C183 C 0.42327 0.71015 -0.09867
 C184 C 0.44165 0.73800 -0.08847
 H185 H 0.31055 0.75074 -0.20936
 H186 H 0.42881 0.68407 -0.08699
 H187 H 0.29052 0.67929 -0.17699
 H188 H 0.43539 0.76434 -0.09920
 C189 C 0.20953 0.31369 0.25651
 C190 C 0.18739 0.32380 0.28048
 C191 C 0.16767 0.35763 0.27676
 N192 N 0.14929 0.36878 0.30199
 N193 N 0.13083 0.39908 0.29851
 C194 C 0.13007 0.41926 0.26963
 N195 N 0.14843 0.40809 0.24445
 N196 N 0.16697 0.37792 0.24798
 C197 C 0.10836 0.45167 0.26446
 C198 C 0.09065 0.46618 0.28971
 H199 H 0.18467 0.30678 0.30252
 H200 H 0.10524 0.46374 0.23956
 H201 H 0.21330 0.33155 0.23527
 H202 H 0.09469 0.45517 0.31491
 C203 C 0.18590 0.65290 0.76530
 C204 C 0.16009 0.64971 0.74136
 C205 C 0.13641 0.62114 0.74384
 N206 N 0.11437 0.61638 0.71820
 N207 N 0.09291 0.59049 0.72008
 C208 C 0.09264 0.56849 0.74774
 N209 N 0.11456 0.57337 0.77344
 N210 N 0.13610 0.59916 0.77151
 C211 C 0.06895 0.53997 0.75038
 C212 C 0.04836 0.53151 0.72369
 H213 H 0.15762 0.66809 0.71982
 H214 H 0.06791 0.52511 0.77395
 H215 H 0.18905 0.63373 0.78621
 H216 H 0.05008 0.54566 0.69986
 C217 C -0.21504 0.72462 0.26909
 C218 C -0.20368 0.70026 0.24741
 C219 C -0.17133 0.67955 0.25449
 N220 N -0.15636 0.66217 0.23041
 N221 N -0.12673 0.64397 0.23662
 C222 C -0.11110 0.64240 0.26716
 N223 N -0.12624 0.65949 0.29128
 N224 N -0.15571 0.67782 0.28503
 C225 C -0.07882 0.62186 0.27475
 C226 C -0.05972 0.60772 0.25027
 H227 H -0.21769 0.69750 0.22431
 H228 H -0.07012 0.61742 0.30039
 H229 H -0.19948 0.72812 0.29114
 H230 H -0.06779 0.61313 0.22455
 C231 C -0.24470 0.29227 0.74988
 C232 C -0.21545 0.28827 0.73185
 C233 C -0.19002 0.31502 0.73026
 N234 N -0.15649 0.30530 0.72891
 N235 N -0.13318 0.32939 0.72696
 C236 C -0.14270 0.36407 0.72566
 N237 N -0.17628 0.37382 0.72651
 N238 N -0.19954 0.34970 0.72905
 C239 C -0.11727 0.39073 0.72268
 C240 C -0.08529 0.38558 0.73862
 H241 H -0.20986 0.26405 0.72031
 H242 H -0.12451 0.41574 0.70954
 H243 H -0.24774 0.31479 0.76453
 H244 H -0.07964 0.36264 0.75542
 C245 C 0.23345 0.19493 0.30835
 C246 C 0.25408 0.16429 0.31398
 C247 C 0.24816 0.13752 0.34054
 N248 N 0.27250 0.11177 0.34878
 N249 N 0.26821 0.08789 0.37344
 C250 C 0.23932 0.08870 0.39070
 N251 N 0.21470 0.11417 0.38215
 N252 N 0.21908 0.13823 0.35758
 C253 C 0.23513 0.06303 0.41874
 C254 C 0.26307 0.04295 0.43297
 H255 H 0.27638 0.16049 0.29956
 H256 H 0.21036 0.06120 0.42931
 H257 H 0.21183 0.19933 0.32355
 H258 H 0.28807 0.04660 0.42337
 C259 C 0.70599 0.18978 0.70738
 C260 C 0.73147 0.18594 0.68485
 C261 C 0.72987 0.16097 0.65902
 N262 N 0.75652 0.15704 0.63920
 N263 N 0.75531 0.13518 0.61511
 C264 C 0.72732 0.11655 0.60983
 N265 N 0.70059 0.12052 0.62961
 N266 N 0.70184 0.14233 0.65381
 C267 C 0.72570 0.09263 0.58305
 C268 C 0.75392 0.08551 0.56448
 H269 H 0.75327 0.20216 0.68574
 H270 H 0.70209 0.08007 0.57818
 H271 H 0.68465 0.17292 0.70720
 H272 H 0.77781 0.09720 0.57016
 C273 C 0.22381 -0.23810 0.71139
 C274 C 0.24804 -0.21332 0.70540
 C275 C 0.24379 -0.18605 0.67800
 N276 N 0.27005 -0.16565 0.67057
 N277 N 0.26700 -0.14142 0.64537
 C278 C 0.23750 -0.13654 0.62669
 N279 N 0.21108 -0.15671 0.63430
 N280 N 0.21419 -0.18107 0.65945
 C281 C 0.23423 -0.11029 0.59832
 C282 C 0.26244 -0.09327 0.58690
 H283 H 0.27151 -0.21468 0.72043
 H284 H 0.20957 -0.10519 0.58559
 H285 H 0.20078 -0.23728 0.69576
 H286 H 0.28723 -0.09950 0.59906
 C287 C 0.71517 -0.17843 0.30270
 C288 C 0.74064 -0.16987 0.32510
 C289 C 0.73658 -0.14086 0.34666
 N290 N 0.76426 -0.13043 0.36356
 N291 N 0.76137 -0.10421 0.38331
 C292 C 0.73065 -0.08748 0.38703
 N293 N 0.70284 -0.09804 0.37029
 N294 N 0.70577 -0.12420 0.35033
 C295 C 0.72736 -0.05906 0.40948
 C296 C 0.75611 -0.04461 0.42303
 H297 H 0.76522 -0.18408 0.32607
 H298 H 0.70213 -0.04977 0.41576
 H299 H 0.69109 -0.16327 0.30045
 H300 H 0.78118 -0.05303 0.41553
 C301 C 0.68598 0.72651 -0.22608
 C302 C 0.69074 0.70476 -0.19719
 C303 C 0.66382 0.70306 -0.17323
 N304 N 0.67126 0.70635 -0.14073
 N305 N 0.64661 0.70623 -0.11912
 C306 C 0.61377 0.70223 -0.12921
 N307 N 0.60644 0.69827 -0.16160
 N308 N 0.63098 0.69906 -0.18330
 C309 C 0.58649 0.70185 -0.10560
 C310 C 0.58521 0.72523 -0.08084
 H311 H 0.71541 0.69181 -0.19051
 H312 H 0.56563 0.68485 -0.10930
 H313 H 0.66255 0.74273 -0.22975
 H314 H 0.60362 0.74535 -0.07990
 C315 C 0.32309 0.22925 -0.20035
 C316 C 0.32122 0.25474 -0.17740
 C317 C 0.34579 0.25537 -0.14925
 N318 N 0.34522 0.28329 -0.13034
 N319 N 0.36701 0.28417 -0.10449
 C320 C 0.39002 0.25700 -0.09647
 N321 N 0.39046 0.22899 -0.11527
 N322 N 0.36879 0.22819 -0.14123
 C323 C 0.41435 0.25749 -0.06810
 C324 C 0.41921 0.28756 -0.05125
 H325 H 0.30112 0.27526 -0.18018
 H326 H 0.43006 0.23385 -0.06129
 H327 H 0.34400 0.20961 -0.19853
 H328 H 0.40485 0.31179 -0.05902
 C329 C 0.33897 0.76543 0.19491
 C330 C 0.33803 0.74476 0.16784
 C331 C 0.36315 0.74695 0.14196
 N332 N 0.36469 0.72217 0.11963
 N333 N 0.38729 0.72362 0.09606
 C334 C 0.40906 0.75009 0.09377
 N335 N 0.40733 0.77507 0.11592
 N336 N 0.38486 0.77349 0.13965
 C337 C 0.43427 0.75191 0.06793
 C338 C 0.44177 0.72361 0.04908
 H339 H 0.31886 0.72552 0.16583
 H340 H 0.44823 0.77552 0.06462
 H341 H 0.35917 0.78348 0.19733
 H342 H 0.42920 0.69929 0.05371
 C343 C 0.69816 0.31087 0.21348
 C344 C 0.69782 0.31826 0.17949
 C345 C 0.66611 0.31851 0.15916
 N346 N 0.66660 0.30656 0.12851
 N347 N 0.63788 0.30598 0.11008
 C348 C 0.60773 0.31787 0.12145
 N349 N 0.60731 0.33043 0.15187
 N350 N 0.63596 0.33045 0.17054
 C351 C 0.57610 0.31746 0.10107
 C352 C 0.57073 0.29042 0.08055
 H353 H 0.72167 0.32063 0.16725
 H354 H 0.55624 0.33771 0.10328
 H355 H 0.67483 0.30404 0.22512
 H356 H 0.58897 0.26816 0.08144
 C357 C -0.20981 0.68844 0.72591
 C358 C -0.20341 0.65910 0.74805
 C359 C -0.17642 0.63224 0.74261
 N360 N -0.16773 0.60631 0.76635
 N361 N -0.14398 0.58139 0.76119
 C362 C -0.12827 0.58138 0.73199
 N363 N -0.13709 0.60721 0.70825
 N364 N -0.16065 0.63219 0.71347
 C365 C -0.10251 0.55380 0.72541
 C366 C -0.08815 0.52984 0.75004
 H367 H -0.21885 0.65521 0.76937
 H368 H -0.09394 0.55299 0.70044
 H369 H -0.19301 0.69257 0.70565
 H370 H -0.09530 0.53165 0.77536
 C371 C -0.18841 0.34859 0.23793
 C372 C -0.15913 0.34924 0.25846
 C373 C -0.13350 0.37562 0.25374
 N374 N -0.11030 0.37974 0.27856
 N375 N -0.08763 0.40433 0.27554
 C376 C -0.08713 0.42565 0.24748
 N377 N -0.10999 0.42120 0.22238
 N378 N -0.13290 0.39672 0.22550
 C379 C -0.06274 0.45358 0.24459
 C380 C -0.04641 0.46513 0.27260
 H381 H -0.15584 0.33137 0.28034
 H382 H -0.05887 0.46632 0.22050
 H383 H -0.19190 0.36718 0.21659
 H384 H -0.05232 0.45387 0.29675
 C385 C 0.21289 0.27068 0.74879
 C386 C 0.18799 0.27637 0.72332
 C387 C 0.15797 0.30031 0.72705
 N388 N 0.13666 0.31099 0.70077
 N389 N 0.11007 0.33335 0.70422
 C390 C 0.10382 0.34565 0.73414
 N391 N 0.12491 0.33468 0.76036
 N392 N 0.15146 0.31253 0.75689
 C393 C 0.07520 0.37075 0.73898
 C394 C 0.05386 0.38650 0.71340
 H395 H 0.19106 0.26413 0.70029
 H396 H 0.07153 0.37791 0.76399
 H397 H 0.21008 0.28446 0.77104
 H398 H 0.05745 0.37999 0.68820
 C399 C 0.23829 0.71838 0.23798
 C400 C 0.21347 0.71449 0.26144
 C401 C 0.18523 0.69092 0.25748
 N402 N 0.16311 0.68620 0.28199
 N403 N 0.13773 0.66462 0.27900
 C404 C 0.13344 0.64702 0.25131
 N405 N 0.15544 0.65190 0.22671
 N406 N 0.18087 0.67343 0.22973
 C407 C 0.10602 0.62236 0.24801
 C408 C 0.08508 0.61384 0.27395
 H409 H 0.21486 0.72866 0.28362
 H410 H 0.10323 0.60956 0.22516
 H411 H 0.23668 0.70369 0.21613
 H412 H 0.08850 0.62605 0.29706
 C413 C 0.72599 -0.20781 0.67936
 C414 C 0.75226 -0.19717 0.65953
 C415 C 0.74848 -0.16561 0.63665
 N416 N 0.77595 -0.15365 0.62103
 N417 N 0.77294 -0.12486 0.60052
 C418 C 0.74231 -0.10704 0.59486
 N419 N 0.71483 -0.11910 0.61036
 N420 N 0.71785 -0.14779 0.63094
 C421 C 0.73827 -0.07548 0.57206
 C422 C 0.76579 -0.05980 0.55754
 H423 H 0.77675 -0.21158 0.66166
 H424 H 0.71268 -0.06422 0.56660
 H425 H 0.70194 -0.19260 0.67811
 H426 H 0.79152 -0.07033 0.56357
 C427 C 0.30044 -0.19780 0.29906
 C428 C 0.27715 -0.19687 0.32405
 C429 C 0.28109 -0.17472 0.35212
 N430 N 0.25570 -0.17192 0.37359
 N431 N 0.25836 -0.15137 0.39865
 C432 C 0.28661 -0.13293 0.40335
 N433 N 0.31220 -0.13601 0.38209
 N434 N 0.30948 -0.15649 0.35692
 C435 C 0.28912 -0.10891 0.43019
 C436 C 0.26098 -0.10029 0.44843
 H437 H 0.25470 -0.21211 0.32261
 H438 H 0.31270 -0.09597 0.43407
 H439 H 0.32255 -0.18204 0.30018
 H440 H 0.23703 -0.11209 0.44330
 C441 C 0.76733 0.25537 0.30758
 C442 C 0.74186 0.23310 0.31691
 C443 C 0.74775 0.20469 0.34307
 N444 N 0.72169 0.18476 0.35228
 N445 N 0.72679 0.15839 0.37535
 C446 C 0.75821 0.15087 0.38999
 N447 N 0.78429 0.17078 0.38076
 N448 N 0.77916 0.19722 0.35775
 C449 C 0.76436 0.12143 0.41509
 C450 C 0.73795 0.10182 0.42699
 H451 H 0.71699 0.23607 0.30430
 H452 H 0.79027 0.11517 0.42449
 H453 H 0.79195 0.25283 0.32069
 H454 H 0.71194 0.10868 0.41822
 C455 C 0.28358 0.17955 0.69815
 C456 C 0.25868 0.17257 0.67446
 C457 C 0.26435 0.14550 0.65079
 N458 N 0.23807 0.13646 0.63103
 N459 N 0.24255 0.11141 0.61014
 C460 C 0.27353 0.09448 0.60811
 N461 N 0.29991 0.10373 0.62766
 N462 N 0.29540 0.12872 0.64865
 C463 C 0.27856 0.06616 0.58557
 C464 C 0.25113 0.05292 0.56852
 H465 H 0.23387 0.18626 0.67404
 H466 H 0.30407 0.05486 0.58317
 H467 H 0.30802 0.16507 0.69903
 H468 H 0.22559 0.06370 0.57182
   
