data_POSCAR
  _audit_creation_date              2014-09-24
  _audit_creation_method            'ToBaCCo'
  _symmetry_space_group_name_H-M    'P1'
  _symmetry_Int_Tables_number       1
  _symmetry_cell_setting            triclinic
  loop_
  _symmetry_equiv_pos_as_xyz
 x,y,z
_cell_length_a 43.2400
_cell_length_b 42.7288
_cell_length_c 42.5966
_cell_angle_alpha 89.937600
_cell_angle_beta 90.065000
_cell_angle_gamma 89.944900
loop_
  _atom_site_label
  _atom_site_type_symbol
  _atom_site_fract_x
  _atom_site_fract_y
  _atom_site_fract_z
N1 N 0.18877 1.25149 0.16564
 N2 N 0.16784 1.25224 0.18792
 C3 C 0.14785 1.27569 0.18200
 C4 C 0.15662 1.29059 0.15437
 C5 C 0.18290 1.27443 0.14482
 H6 H 0.12804 1.28095 0.19649
 H7 H 0.19654 1.27847 0.12399
 Cu8 Cu 0.16753 1.22174 0.22192
 Cu9 Cu 0.22126 1.22003 0.16449
 Cu10 Cu 0.22006 1.16325 0.22239
 N11 N 0.16646 1.18832 0.25301
 N12 N 0.18698 1.16566 0.25314
 C13 C 0.18023 1.14541 0.27633
 C14 C 0.15378 1.15573 0.29171
 C15 C 0.14584 1.18321 0.27612
 H16 H 0.19338 1.12443 0.28103
 H17 H 0.12620 1.19815 0.28068
 N18 N 0.25175 1.16467 0.18929
 N19 N 0.25222 1.18632 0.16722
 C20 C 0.27587 1.18041 0.14755
 C21 C 0.29108 1.15366 0.15764
 C22 C 0.27508 1.14440 0.18424
 H23 H 0.28110 1.19411 0.12691
 H24 H 0.27984 1.12418 0.19870
 H25 H 0.19559 1.18621 0.18746
 H26 H 0.22209 1.21055 0.21210
 N27 N 0.81498 0.74841 0.16413
 N28 N 0.83685 0.74951 0.18553
 C29 C 0.85755 0.72665 0.17981
 C30 C 0.84820 0.71027 0.15333
 C31 C 0.82098 0.72484 0.14412
 H32 H 0.87824 0.72274 0.19349
 H33 H 0.80675 0.71917 0.12406
 Cu34 Cu 0.83664 0.78187 0.21765
 Cu35 Cu 0.78114 0.77855 0.16272
 Cu36 Cu 0.78080 0.83632 0.21997
 N37 N 0.83643 0.81423 0.24976
 N38 N 0.81446 0.83546 0.25046
 C39 C 0.82013 0.85564 0.27398
 C40 C 0.84732 0.84677 0.28902
 C41 C 0.85687 0.82019 0.27286
 H42 H 0.80565 0.87557 0.27920
 H43 H 0.87743 0.80646 0.27708
 N44 N 0.74881 0.83315 0.18706
 N45 N 0.74893 0.81117 0.16532
 C46 C 0.72490 0.81593 0.14575
 C47 C 0.70881 0.84223 0.15552
 C48 C 0.72470 0.85244 0.18186
 H49 H 0.71981 0.80153 0.12558
 H50 H 0.71962 0.87295 0.19573
 H51 H 0.80476 0.81490 0.18394
 H52 H 0.78126 0.78911 0.20999
 N53 N 0.80984 1.25206 -0.16470
 N54 N 0.83040 1.25231 -0.18736
 C55 C 0.85075 1.27556 -0.18205
 C56 C 0.84252 1.29077 -0.15454
 C57 C 0.81633 1.27513 -0.14427
 H58 H 0.87057 1.28042 -0.19667
 H59 H 0.80316 1.27976 -0.12324
 Cu60 Cu 0.82988 1.22141 -0.22090
 Cu61 Cu 0.77721 1.22090 -0.16241
 Cu62 Cu 0.77711 1.16327 -0.21933
 N63 N 0.83019 1.18756 -0.25145
 N64 N 0.80963 1.16500 -0.25076
 C65 C 0.81587 1.14439 -0.27375
 C66 C 0.84201 1.15438 -0.28987
 C67 C 0.85032 1.18204 -0.27491
 H68 H 0.80257 1.12341 -0.27785
 H69 H 0.86987 1.19685 -0.28013
 N70 N 0.74603 1.16539 -0.18566
 N71 N 0.74604 1.18739 -0.16399
 C72 C 0.72273 1.18196 -0.14378
 C73 C 0.70723 1.15513 -0.15307
 C74 C 0.72271 1.14535 -0.17980
 H75 H 0.71774 1.19629 -0.12355
 H76 H 0.71787 1.12474 -0.19359
 H77 H 0.80239 1.18654 -0.18521
 H78 H 0.77550 1.21067 -0.20974
 N79 N 0.18854 0.74794 -0.16803
 N80 N 0.16705 0.74875 -0.18984
 C81 C 0.14689 0.72529 -0.18477
 C82 C 0.15619 0.70883 -0.15831
 C83 C 0.18282 0.72394 -0.14840
 H84 H 0.12669 0.72084 -0.19902
 H85 H 0.19656 0.71857 -0.12788
 Cu86 Cu 0.16661 0.78149 -0.22162
 Cu87 Cu 0.22131 0.77912 -0.16555
 Cu88 Cu 0.22086 0.83773 -0.22198
 N89 N 0.16660 0.81444 -0.25318
 N90 N 0.18787 0.83635 -0.25318
 C91 C 0.18191 0.85677 -0.27648
 C92 C 0.15524 0.84733 -0.29208
 C93 C 0.14633 0.82018 -0.27650
 H94 H 0.19576 0.87727 -0.28113
 H95 H 0.12627 0.80591 -0.28123
 N96 N 0.25227 0.83506 -0.18848
 N97 N 0.25245 0.81276 -0.16704
 C98 C 0.27592 0.81796 -0.14691
 C99 C 0.29134 0.84491 -0.15601
 C100 C 0.27564 0.85502 -0.18254
 H101 H 0.28109 0.80339 -0.12685
 H102 H 0.28033 0.87585 -0.19609
 H103 H 0.19678 0.81495 -0.18682
 H104 H 0.22161 0.79029 -0.21273
 C105 C 0.54683 1.04173 -0.00713
 H106 H 0.54745 1.04151 0.01826
 C107 C 0.56800 1.05986 -0.02388
 H108 H 0.58494 1.07377 -0.01139
 C109 C 0.52461 1.02314 -0.05452
 H110 H 0.50813 1.00829 -0.06637
 C111 C 0.54541 1.04093 -0.07218
 H112 H 0.54469 1.03995 -0.09758
 N113 N 0.52561 1.02397 -0.02258
 C114 C 0.45225 1.00794 0.04570
 H115 H 0.45150 0.98264 0.04545
 C116 C 0.43120 1.02473 0.06394
 H117 H 0.41422 1.01236 0.07791
 C118 C 0.47465 1.05508 0.02704
 H119 H 0.49116 1.06682 0.01212
 C120 C 0.45398 1.07278 0.04493
 H121 H 0.45480 1.09810 0.04396
 Zn122 Zn 0.49939 0.99846 0.00212
 N123 N 0.47348 1.02324 0.02783
 C124 C 0.52417 0.97324 0.05882
 N125 N 0.52529 0.97260 0.02688
 C126 C 0.54642 0.95473 0.01145
 C127 C 0.56741 0.93632 0.02822
 C128 C 0.54477 0.95516 0.07650
 C129 C 0.45216 0.98946 -0.04167
 C130 C 0.43101 0.97284 -0.05997
 C131 C 0.45324 0.92461 -0.04061
 C132 C 0.47403 0.94214 -0.02267
 N133 N 0.47320 0.97398 -0.02363
 H134 H 0.50774 0.98816 0.07066
 H135 H 0.54713 0.95509 -0.01393
 H136 H 0.58433 0.92236 0.01575
 H137 H 0.54398 0.95600 0.10190
 H138 H 0.45166 1.01478 -0.04154
 H139 H 0.41420 0.98535 -0.07410
 H140 H 0.45382 0.89929 -0.03952
 H141 H 0.49036 0.93026 -0.00760
 C142 C 0.43200 1.05743 0.06344
 C143 C 0.56733 1.05938 -0.05669
 C144 C 0.43150 0.94013 -0.05934
 C145 C 0.56664 0.93663 0.06103
 C146 C -0.00661 0.54723 1.04155
 H147 H 0.01841 0.54767 1.04144
 C148 C -0.02303 0.56896 1.05946
 H149 H -0.01066 0.58613 1.07332
 C150 C -0.05338 0.52504 1.02280
 H151 H -0.06512 0.50837 1.00794
 C152 C -0.07069 0.54637 1.04037
 H153 H -0.09572 0.54586 1.03924
 N154 N -0.02191 0.52578 1.02379
 C155 C 0.04498 0.45105 1.00784
 H156 H 0.04473 0.45033 0.98245
 C157 C 0.06282 0.42956 1.02469
 H158 H 0.07648 0.41229 1.01229
 C159 C 0.02673 0.47380 1.05511
 H160 H 0.01213 0.49061 1.06687
 C161 C 0.04424 0.45271 1.07288
 H162 H 0.04332 0.45354 1.09827
 Zn163 Zn 0.00231 0.49908 0.99830
 N164 N 0.02752 0.47266 1.02318
 C165 C 0.05822 0.52418 0.97350
 N166 N 0.02676 0.52518 0.97243
 C167 C 0.01162 0.54649 0.95428
 C168 C 0.02820 0.56779 0.93602
 C169 C 0.07569 0.54512 0.95560
 C170 C -0.04092 0.45154 0.98945
 C171 C -0.05907 0.43016 0.97292
 C172 C -0.04016 0.45237 0.92439
 C173 C -0.02235 0.47339 0.94184
 N174 N -0.02317 0.47269 0.97379
 H175 H 0.06982 0.50763 0.98866
 H176 H -0.01340 0.54712 0.95434
 H177 H 0.01595 0.58484 0.92183
 H178 H 0.10071 0.54444 0.95680
 H179 H -0.04069 0.45115 1.01484
 H180 H -0.07300 0.41330 0.98558
 H181 H -0.03924 0.45287 0.89898
 H182 H -0.00753 0.48982 0.92983
 C183 C 0.06237 0.43036 1.05750
 C184 C -0.05535 0.56858 1.05877
 C185 C -0.05862 0.43054 0.94011
 C186 C 0.06051 0.56717 0.93679
 C187 C 1.04094 -0.00734 0.54847
 H188 H 1.04051 0.01796 0.54934
 C189 C 1.05914 -0.02412 0.56972
 H190 H 1.07289 -0.01174 0.58698
 C191 C 1.02287 -0.05449 0.52553
 H192 H 1.00824 -0.06624 0.50871
 C193 C 1.04075 -0.07217 0.54639
 H194 H 1.04004 -0.09749 0.54539
 N195 N 1.02342 -0.02266 0.52685
 C196 C 1.00715 0.04592 0.45276
 H197 H 0.98214 0.04586 0.45214
 C198 C 1.02373 0.06394 0.43122
 H199 H 1.01148 0.07795 0.41401
 C200 C 1.05376 0.02686 0.47520
 H201 H 1.06538 0.01184 0.49186
 C202 C 1.07122 0.04453 0.45405
 H203 H 1.09624 0.04329 0.45470
 Zn204 Zn 0.99799 0.00209 0.50048
 N205 N 1.02231 0.02794 0.47423
 C206 C 0.97331 0.05828 0.52636
 N207 N 0.97249 0.02643 0.52703
 C208 C 0.95480 0.01080 0.54829
 C209 C 0.93678 0.02727 0.56987
 C210 C 0.95563 0.07565 0.54757
 C211 C 0.98933 -0.04097 0.45219
 C212 C 0.97307 -0.05894 0.43037
 C213 C 0.92524 -0.04026 0.45295
 C214 C 0.94240 -0.02263 0.47441
 N215 N 0.97387 -0.02341 0.47371
 H216 H 0.98806 0.07026 0.50982
 H217 H 0.95502 -0.01452 0.54865
 H218 H 0.92295 0.01463 0.58686
 H219 H 0.95661 0.10098 0.54712
 H220 H 1.01434 -0.04067 0.45180
 H221 H 0.98556 -0.07267 0.41318
 H222 H 0.90021 -0.03931 0.45341
 H223 H 0.93055 -0.00792 0.49113
 C224 C 1.05605 0.06313 0.43181
 C225 C 1.05898 -0.05682 0.56871
 C226 C 0.94075 -0.05848 0.43070
 C227 C 0.93729 0.05998 0.56956
 C228 C 0.11036 0.36419 1.10677
 C229 C 0.13744 0.35144 1.09429
 C230 C 0.15295 0.32742 1.11013
 C231 C 0.14156 0.31557 1.13884
 C232 C 0.11438 0.32906 1.15131
 C233 C 0.09897 0.35308 1.13537
 C234 C 0.09378 0.38803 1.08978
 C235 C 0.07962 0.40757 1.07523
 H236 H 0.14646 0.35988 1.07212
 H237 H 0.17369 0.31818 1.09945
 H238 H 0.10462 0.32113 1.17326
 H239 H 0.07799 0.36283 1.14527
 C240 C -0.10370 0.63546 1.10645
 C241 C -0.13062 0.64807 1.09332
 C242 C -0.14643 0.67214 1.10868
 C243 C -0.13550 0.68404 1.13746
 C244 C -0.10852 0.67090 1.15058
 C245 C -0.09275 0.64683 1.13515
 C246 C -0.08690 0.61144 1.09003
 C247 C -0.07263 0.59168 1.07596
 H248 H -0.13927 0.63949 1.07105
 H249 H -0.16699 0.68152 1.09769
 H250 H -0.09938 0.67917 1.17269
 H251 H -0.07189 0.63725 1.14550
 C252 C -0.10834 0.36486 0.89227
 C253 C -0.09994 0.35598 0.86186
 C254 C -0.11611 0.33216 0.84646
 C255 C -0.14092 0.31681 0.86133
 C256 C -0.14937 0.32625 0.89181
 C257 C -0.13317 0.35006 0.90713
 C258 C -0.09101 0.38852 0.90862
 C259 C -0.07633 0.40791 0.92275
 H260 H -0.08074 0.36729 0.85012
 H261 H -0.10901 0.32583 0.82298
 H262 H -0.16818 0.31506 0.90416
 H263 H -0.13982 0.35671 0.93072
 C264 C 0.10881 0.63336 0.88813
 C265 C 0.13888 0.64140 0.89717
 C266 C 0.15448 0.66562 0.88179
 C267 C 0.14016 0.68223 0.85716
 C268 C 0.11006 0.67359 0.84798
 C269 C 0.09452 0.64937 0.86340
 C270 C 0.09220 0.60946 0.90491
 C271 C 0.07794 0.58991 0.91928
 H272 H 0.15017 0.62916 0.91631
 H273 H 0.17767 0.67131 0.88938
 H274 H 0.09814 0.68581 0.82931
 H275 H 0.07120 0.64340 0.85628
 C276 C 1.10524 0.11048 0.36525
 C277 C 1.13243 0.09738 0.35339
 C278 C 1.14867 0.11243 0.32938
 C279 C 1.13791 0.14098 0.31664
 C280 C 1.11059 0.15407 0.32920
 C281 C 1.09444 0.13890 0.35322
 C282 C 1.08804 0.09431 0.38918
 C283 C 1.07352 0.08033 0.40884
 H284 H 1.14101 0.07534 0.36255
 H285 H 1.16948 0.10130 0.32088
 H286 H 1.10128 0.17591 0.32054
 H287 H 1.07338 0.14927 0.36226
 C288 C 1.10819 -0.10580 0.63425
 C289 C 1.13578 -0.09362 0.64616
 C290 C 1.15158 -0.10926 0.67016
 C291 C 1.13997 -0.13745 0.68284
 C292 C 1.11233 -0.14969 0.67011
 C293 C 1.09663 -0.13395 0.64611
 C294 C 1.09120 -0.08891 0.61060
 C295 C 1.07667 -0.07446 0.59124
 H296 H 1.14494 -0.07180 0.63713
 H297 H 1.17269 -0.09882 0.67877
 H298 H 1.10238 -0.17125 0.67867
 H299 H 1.07524 -0.14359 0.63705
 C300 C 0.89329 -0.10673 0.36347
 C301 C 0.86528 -0.09510 0.35194
 C302 C 0.84990 -0.11059 0.32763
 C303 C 0.86235 -0.13807 0.31423
 C304 C 0.89049 -0.14970 0.32647
 C305 C 0.90577 -0.13411 0.35080
 C306 C 0.90967 -0.09006 0.38765
 C307 C 0.92367 -0.07581 0.40751
 H308 H 0.85542 -0.07386 0.36158
 H309 H 0.82840 -0.10062 0.31938
 H310 H 0.90111 -0.17069 0.31732
 H311 H 0.92751 -0.14329 0.35955
 C312 C 0.88884 0.10805 0.63615
 C313 C 0.86189 0.09519 0.64881
 C314 C 0.84621 0.11061 0.67296
 C315 C 0.85728 0.13927 0.68504
 C316 C 0.88430 0.15213 0.67164
 C317 C 0.89990 0.13660 0.64749
 C318 C 0.90560 0.09149 0.61218
 C319 C 0.91990 0.07729 0.59251
 H320 H 0.85312 0.07306 0.64020
 H321 H 0.82558 0.09966 0.68211
 H322 H 0.89383 0.17405 0.67975
 H323 H 0.92078 0.14678 0.63784
 C324 C 0.36627 1.10615 0.11179
 C325 C 0.35810 1.13650 0.10265
 C326 C 0.33396 1.15214 0.11782
 C327 C 0.31756 1.13758 0.14236
 C328 C 0.32633 1.10720 0.15166
 C329 C 0.35047 1.09162 0.13644
 C330 C 0.39005 1.08944 0.09515
 C331 C 0.40947 1.07506 0.08088
 H332 H 0.37019 1.14797 0.08357
 H333 H 0.32818 1.17556 0.11016
 H334 H 0.31427 1.09509 0.17027
 H335 H 0.35654 1.06807 0.14364
 C336 C 0.63271 1.10815 -0.10548
 C337 C 0.64679 1.13424 -0.09180
 C338 C 0.67071 1.14979 -0.10741
 C339 C 0.68097 1.13940 -0.13700
 C340 C 0.66628 1.11337 -0.15073
 C341 C 0.64237 1.09787 -0.13505
 C342 C 0.60912 1.09131 -0.08870
 C343 C 0.58982 1.07691 -0.07429
 H344 H 0.63955 1.14236 -0.06886
 H345 H 0.68135 1.16960 -0.09594
 H346 H 0.67323 1.10473 -0.17350
 H347 H 0.63163 1.07767 -0.14586
 C348 C 0.36603 0.89153 -0.10826
 C349 C 0.35652 0.90179 -0.13793
 C350 C 0.33257 0.88639 -0.15367
 C351 C 0.31768 0.86048 -0.13990
 C352 C 0.32782 0.85009 -0.11022
 C353 C 0.35177 0.86553 -0.09455
 C354 C 0.38965 0.90829 -0.09142
 C355 C 0.40898 0.92264 -0.07697
 H356 H 0.36741 0.92191 -0.14877
 H357 H 0.32574 0.89499 -0.17653
 H358 H 0.31702 0.83037 -0.09872
 H359 H 0.35891 0.85743 -0.07154
 C360 C 0.63241 0.88780 0.10944
 C361 C 0.64165 0.89742 0.13939
 C362 C 0.66612 0.88228 0.15463
 C363 C 0.68179 0.85730 0.14006
 C364 C 0.67185 0.84746 0.11016
 C365 C 0.64738 0.86263 0.09499
 C366 C 0.60853 0.90458 0.09293
 C367 C 0.58911 0.91900 0.07863
 H368 H 0.63020 0.91689 0.15080
 H369 H 0.67278 0.89039 0.17770
 H370 H 0.68326 0.82846 0.09807
 H371 H 0.64046 0.85504 0.07176
   
