data_POSCAR
  _audit_creation_date              2014-09-24
  _audit_creation_method            'ToBaCCo'
  _symmetry_space_group_name_H-M    'P1'
  _symmetry_Int_Tables_number       1
  _symmetry_cell_setting            triclinic
  loop_
  _symmetry_equiv_pos_as_xyz
 x,y,z
_cell_length_a 30.3291
_cell_length_b 30.0234
_cell_length_c 52.9926
_cell_angle_alpha 88.922200
_cell_angle_beta 91.958400
_cell_angle_gamma 85.458500
loop_
  _atom_site_label
  _atom_site_type_symbol
  _atom_site_fract_x
  _atom_site_fract_y
  _atom_site_fract_z
C1 C 0.02347 0.58959 1.02511
 C2 C 0.02589 0.61329 1.00217
 C3 C 0.02364 0.59274 0.97864
 C4 C 0.02136 0.54560 0.97802
 C5 C 0.01997 0.52053 1.00101
 C6 C 0.02183 0.54237 1.02455
 C7 C 0.02663 0.51589 1.04681
 C8 C 0.02541 0.46978 1.04628
 C9 C 0.01945 0.44759 1.02344
 C10 C 0.01900 0.47308 1.00049
 C11 C 0.02461 0.52228 0.95526
 C12 C 0.02309 0.47625 0.95474
 C13 C 0.01973 0.45106 0.97704
 C14 C 0.01971 0.40408 0.97655
 C15 C 0.01943 0.37958 0.99916
 C16 C 0.01852 0.40019 1.02274
 H17 H 0.03331 0.53025 1.06496
 H18 H 0.03120 0.45166 1.06404
 H19 H 0.03007 0.53898 0.93755
 H20 H 0.02607 0.46045 0.93663
 H21 H 0.02529 0.64945 1.00251
 H22 H 0.01779 0.34369 0.99812
 C23 C 0.40417 -0.00378 0.52469
 C24 C 0.38043 -0.01074 0.50224
 C25 C 0.40008 -0.00884 0.47881
 C26 C 0.44555 -0.00160 0.47773
 C27 C 0.47038 0.00477 0.50040
 C28 C 0.44942 0.00438 0.52392
 C29 C 0.47419 0.01229 0.54601
 C30 C 0.51864 0.02029 0.54509
 C31 C 0.54105 0.01837 0.52223
 C32 C 0.51617 0.01187 0.49953
 C33 C 0.46688 -0.00095 0.45463
 C34 C 0.51140 0.00677 0.45371
 C35 C 0.53671 0.01304 0.47590
 C36 C 0.58182 0.02141 0.47501
 C37 C 0.60571 0.02854 0.49737
 C38 C 0.58687 0.02566 0.52117
 H39 H 0.45937 0.01283 0.56429
 H40 H 0.53486 0.02885 0.56260
 H41 H 0.44937 -0.00642 0.43697
 H42 H 0.52568 0.00805 0.43530
 H43 H 0.34552 -0.01607 0.50295
 H44 H 0.64071 0.03315 0.49616
 C45 C 0.06028 0.01638 0.27040
 H46 H 0.05818 0.03940 0.25443
 C47 C 0.09671 0.01565 0.28731
 H48 H 0.12163 0.03898 0.28446
 C49 C 0.03091 -0.04209 0.29342
 H50 H 0.00570 -0.06511 0.29556
 C51 C 0.06672 -0.04395 0.31076
 H52 H 0.06850 -0.06848 0.32608
 N53 N 0.02793 -0.01186 0.27386
 C54 C -0.05518 -0.07314 0.21797
 H55 H -0.08502 -0.05086 0.21791
 C56 C -0.05304 -0.11037 0.20250
 H57 H -0.08137 -0.11629 0.19040
 C58 C 0.01881 -0.09089 0.23288
 H59 H 0.04696 -0.08273 0.24445
 C60 C 0.02235 -0.12848 0.21777
 H61 H 0.05314 -0.14941 0.21822
 Zn62 Zn -0.02183 -0.01028 0.25080
 N63 N -0.01931 -0.06376 0.23242
 C64 C -0.01804 0.03158 0.20272
 N65 N -0.02018 0.03922 0.22789
 C66 C -0.01956 0.08137 0.23688
 C67 C -0.01700 0.11780 0.22033
 C68 C -0.01539 0.06696 0.18554
 C69 C -0.08529 -0.04243 0.28246
 C70 C -0.12210 -0.04021 0.29764
 C71 C -0.13900 0.03639 0.28364
 C72 C -0.10185 0.03269 0.26873
 N73 N -0.07504 -0.00589 0.26896
 H74 H -0.01796 -0.00204 0.19584
 H75 H -0.02036 0.08660 0.25701
 H76 H -0.01585 0.15096 0.22788
 H77 H -0.01411 0.06009 0.16559
 H78 H -0.06470 -0.07337 0.28158
 H79 H -0.12860 -0.06924 0.30893
 H80 H -0.15954 0.06759 0.28344
 H81 H -0.09438 0.06098 0.25727
 C82 C -0.01360 -0.13822 0.20196
 C83 C 0.10010 -0.01461 0.30794
 C84 C -0.14906 -0.00011 0.29875
 C85 C -0.01465 0.11077 0.19427
 C86 C 0.00276 0.09587 0.76043
 H87 H 0.00197 0.10110 0.74016
 C88 C 0.00287 0.13248 0.77638
 H89 H 0.00262 0.16585 0.76825
 C90 C 0.00488 0.04590 0.79567
 H91 H 0.00496 0.01227 0.80322
 C92 C 0.00509 0.08138 0.81223
 H93 H 0.00537 0.07449 0.83237
 N94 N 0.00486 0.05354 0.77029
 C95 C 0.06779 -0.03239 0.71414
 H96 H 0.04480 -0.05814 0.71318
 C97 C 0.10456 -0.03467 0.69895
 H98 H 0.10932 -0.06209 0.68609
 C99 C 0.08844 0.03534 0.73157
 H100 H 0.08237 0.06233 0.74449
 C101 C 0.12565 0.03438 0.71671
 H102 H 0.14784 0.06079 0.71838
 Zn103 Zn 0.00751 0.00443 0.74823
 N104 N 0.05984 0.00278 0.72959
 C105 C -0.03752 0.01423 0.70059
 N106 N -0.04294 0.01089 0.72591
 C107 C -0.08402 0.01350 0.73560
 C108 C -0.12172 0.01801 0.71952
 C109 C -0.07420 0.01895 0.68389
 C110 C 0.04648 -0.05974 0.78219
 C111 C 0.04924 -0.09653 0.79877
 C112 C -0.02354 -0.11347 0.78377
 C113 C -0.02488 -0.07627 0.76740
 N114 N 0.00933 -0.04956 0.76747
 H115 H -0.00477 0.01338 0.69320
 H116 H -0.08746 0.01184 0.75584
 H117 H -0.15417 0.01991 0.72753
 H118 H -0.06905 0.02059 0.66379
 H119 H 0.07348 -0.03829 0.78158
 H120 H 0.07882 -0.10353 0.81065
 H121 H -0.05185 -0.13325 0.78425
 H122 H -0.05375 -0.06823 0.75519
 C123 C 0.13375 -0.00062 0.69985
 C124 C 0.00484 0.12532 0.80268
 C125 C 0.01348 -0.12336 0.80016
 C126 C -0.11701 0.02067 0.69327
 C127 C 0.01124 -0.33091 0.09021
 C128 C 0.04279 -0.32273 0.07244
 C129 C 0.04736 -0.34948 0.05129
 C130 C 0.02073 -0.38546 0.04758
 C131 C -0.01100 -0.39331 0.06570
 C132 C -0.01555 -0.36633 0.08687
 C133 C 0.00564 -0.30163 0.11126
 C134 C 0.00185 -0.27571 0.12830
 C135 C -0.00154 -0.24324 0.14792
 C136 C 0.03402 -0.21752 0.15315
 C137 C 0.03031 -0.18398 0.17103
 C138 C -0.00912 -0.17562 0.18400
 C139 C -0.04453 -0.20211 0.17889
 C140 C -0.04074 -0.23570 0.16094
 H141 H 0.06364 -0.29531 0.07481
 H142 H 0.07233 -0.34236 0.03797
 H143 H -0.03359 -0.41915 0.06302
 H144 H -0.04055 -0.37256 0.10034
 H145 H 0.06439 -0.22282 0.14304
 H146 H 0.05791 -0.16373 0.17416
 H147 H -0.07515 -0.19680 0.18873
 H148 H -0.06852 -0.25537 0.15700
 C149 C 0.00700 0.31361 0.08592
 C150 C -0.01877 0.35438 0.08403
 C151 C -0.01455 0.38355 0.06347
 C152 C 0.01583 0.37247 0.04453
 C153 C 0.04136 0.33109 0.04676
 C154 C 0.03713 0.30219 0.06730
 C155 C 0.00187 0.28231 0.10631
 C156 C -0.00139 0.25438 0.12264
 C157 C -0.00411 0.21922 0.14122
 C158 C -0.03224 0.22486 0.16152
 C159 C -0.03544 0.18978 0.17899
 C160 C -0.01064 0.14860 0.17625
 C161 C 0.01785 0.14354 0.15593
 C162 C 0.02103 0.17858 0.13856
 H163 H -0.04270 0.36325 0.09818
 H164 H -0.03630 0.41394 0.06191
 H165 H 0.06532 0.32130 0.03278
 H166 H 0.05718 0.27064 0.06852
 H167 H -0.05197 0.25615 0.16371
 H168 H -0.05794 0.19454 0.19431
 H169 H 0.03791 0.11254 0.15354
 H170 H 0.04299 0.17388 0.12296
 C171 C 0.32692 -0.00384 0.59086
 C172 C 0.33632 -0.04355 0.57794
 C173 C 0.36254 -0.04373 0.55676
 C174 C 0.37979 -0.00425 0.54840
 C175 C 0.37067 0.03541 0.56155
 C176 C 0.34442 0.03556 0.58274
 C177 C 0.29721 -0.00308 0.61147
 C178 C 0.27124 -0.00245 0.62819
 C179 C 0.23898 -0.00164 0.64750
 C180 C 0.22941 -0.04139 0.65960
 C181 C 0.19585 -0.04101 0.67706
 C182 C 0.17135 -0.00081 0.68261
 C183 C 0.18187 0.03909 0.67070
 C184 C 0.21542 0.03862 0.65325
 H185 H 0.32265 -0.07412 0.58394
 H186 H 0.36885 -0.07445 0.54663
 H187 H 0.38314 0.06629 0.55507
 H188 H 0.33701 0.06654 0.59246
 H189 H 0.24742 -0.07277 0.65526
 H190 H 0.18891 -0.07218 0.68614
 H191 H 0.16324 0.07047 0.67427
 H192 H 0.22235 0.06954 0.64385
 C193 C -0.32384 0.02908 0.58430
 C194 C -0.32309 0.06050 0.56456
 C195 C -0.35299 0.05979 0.54396
 C196 C -0.38478 0.02792 0.54287
 C197 C -0.38488 -0.00380 0.56288
 C198 C -0.35481 -0.00303 0.58345
 C199 C -0.29134 0.02870 0.60475
 C200 C -0.26305 0.02855 0.62130
 C201 C -0.22796 0.02848 0.64029
 C202 C -0.19260 0.05480 0.63657
 C203 C -0.15700 0.05300 0.65409
 C204 C -0.15624 0.02473 0.67560
 C205 C -0.19243 -0.00085 0.67951
 C206 C -0.22803 0.00095 0.66191
 H207 H -0.29903 0.08533 0.56494
 H208 H -0.35170 0.08475 0.52903
 H209 H -0.40704 -0.03036 0.56217
 H210 H -0.35513 -0.02806 0.59843
 H211 H -0.19223 0.07628 0.61992
 H212 H -0.12995 0.07358 0.65075
 H213 H -0.19258 -0.02324 0.69576
 H214 H -0.25518 -0.01971 0.66492
 C215 C 0.01774 -0.32036 0.91439
 C216 C -0.01147 -0.35405 0.91585
 C217 C -0.00938 -0.38317 0.93688
 C218 C 0.02236 -0.37935 0.95668
 C219 C 0.05104 -0.34471 0.95501
 C220 C 0.04891 -0.31579 0.93401
 C221 C 0.01522 -0.28932 0.89327
 C222 C 0.01415 -0.26201 0.87625
 C223 C 0.01402 -0.22784 0.85683
 C224 C -0.00329 -0.23465 0.83250
 C225 C -0.00334 -0.20085 0.81391
 C226 C 0.01407 -0.15991 0.81949
 C227 C 0.03137 -0.15355 0.84401
 C228 C 0.03135 -0.18727 0.86250
 H229 H -0.03626 -0.35739 0.90095
 H230 H -0.03354 -0.40778 0.93801
 H231 H 0.07588 -0.34052 0.96978
 H232 H 0.07152 -0.28964 0.93314
 H233 H -0.01674 -0.26599 0.82791
 H234 H -0.01658 -0.20686 0.79516
 H235 H 0.04423 -0.12217 0.84907
 H236 H 0.04467 -0.18157 0.88130
 C237 C 0.01637 0.32485 0.91018
 C238 C 0.05326 0.32048 0.92692
 C239 C 0.05481 0.34723 0.94815
 C240 C 0.01955 0.37881 0.95280
 C241 C -0.01713 0.38360 0.93577
 C242 C -0.01867 0.35673 0.91451
 C243 C 0.01360 0.29446 0.88962
 C244 C 0.01204 0.26729 0.87322
 C245 C 0.01118 0.23288 0.85472
 C246 C 0.03772 0.19301 0.85890
 C247 C 0.03596 0.15837 0.84180
 C248 C 0.00750 0.16304 0.82022
 C249 C -0.01856 0.20354 0.81590
 C250 C -0.01681 0.23824 0.83312
 H251 H 0.08039 0.29568 0.92385
 H252 H 0.08315 0.34285 0.96122
 H253 H -0.04487 0.40738 0.93929
 H254 H -0.04754 0.36010 0.90180
 H255 H 0.05955 0.18853 0.87552
 H256 H 0.05698 0.12791 0.84543
 H257 H -0.04099 0.20796 0.79955
 H258 H -0.03762 0.26894 0.82976
 C259 C -0.34080 0.01737 0.40876
 C260 C -0.34809 0.05736 0.42172
 C261 C -0.37433 0.05900 0.44291
 C262 C -0.39374 0.02069 0.45125
 C263 C -0.38668 -0.01924 0.43806
 C264 C -0.36043 -0.02084 0.41686
 C265 C -0.31120 0.01496 0.38809
 C266 C -0.28534 0.01293 0.37129
 C267 C -0.25324 0.01057 0.35187
 C268 C -0.22745 0.04648 0.34779
 C269 C -0.19424 0.04334 0.33012
 C270 C -0.18628 0.00411 0.31629
 C271 C -0.21294 -0.03152 0.32021
 C272 C -0.24618 -0.02829 0.33790
 H273 H -0.33278 0.08702 0.41574
 H274 H -0.37900 0.08990 0.45306
 H275 H -0.40076 -0.04930 0.44452
 H276 H -0.35468 -0.05206 0.40712
 H277 H -0.23243 0.07660 0.35862
 H278 H -0.17390 0.07109 0.32785
 H279 H -0.20800 -0.06194 0.30966
 H280 H -0.26592 -0.05632 0.34094
 C281 C 0.30923 -0.01583 0.41554
 C282 C 0.33198 0.02251 0.41902
 C283 C 0.36271 0.02429 0.43918
 C284 C 0.37112 -0.01241 0.45597
 C285 C 0.34864 -0.05099 0.45219
 C286 C 0.31792 -0.05273 0.43203
 C287 C 0.27510 -0.01638 0.39604
 C288 C 0.24560 -0.01656 0.38021
 C289 C 0.20942 -0.01654 0.36192
 C290 C 0.21662 -0.01085 0.33615
 C291 C 0.18113 -0.01028 0.31854
 C292 C 0.13798 -0.01544 0.32651
 C293 C 0.13119 -0.02120 0.35246
 C294 C 0.16667 -0.02174 0.37001
 H295 H 0.32523 0.05139 0.40651
 H296 H 0.37914 0.05462 0.44210
 H297 H 0.35433 -0.07938 0.46514
 H298 H 0.30025 -0.08243 0.42963
 H299 H 0.24960 -0.00684 0.32969
 H300 H 0.18751 -0.00631 0.29868
 H301 H 0.09833 -0.02460 0.35924
 H302 H 0.16070 -0.02596 0.38993
   
