data_POSCAR
  _audit_creation_date              2014-09-24
  _audit_creation_method            'ToBaCCo'
  _symmetry_space_group_name_H-M    'P1'
  _symmetry_Int_Tables_number       1
  _symmetry_cell_setting            triclinic
  loop_
  _symmetry_equiv_pos_as_xyz
 x,y,z
_cell_length_a 34.5871
_cell_length_b 25.7206
_cell_length_c 23.1640
_cell_angle_alpha 89.960300
_cell_angle_beta 90.041800
_cell_angle_gamma 90.061600
loop_
  _atom_site_label
  _atom_site_type_symbol
  _atom_site_fract_x
  _atom_site_fract_y
  _atom_site_fract_z
C1 C 0.22022 0.22261 0.22207
 C2 C 0.21754 0.27743 0.22912
 C3 C 0.24534 0.30358 0.26225
 C4 C 0.27644 0.27730 0.28781
 C5 C 0.27974 0.22251 0.28107
 C6 C 0.25198 0.19657 0.24697
 H7 H 0.25304 0.15453 0.24447
 H8 H 0.24394 0.34561 0.26554
 C9 C 0.77963 0.27908 0.21848
 C10 C 0.77847 0.22369 0.21701
 C11 C 0.74883 0.19714 0.24606
 C12 C 0.72022 0.22372 0.27690
 C13 C 0.72129 0.27857 0.27918
 C14 C 0.75095 0.30537 0.25045
 H15 H 0.75066 0.34750 0.25159
 H16 H 0.74826 0.15498 0.24519
 C17 C 0.72105 0.72439 0.72196
 C18 C 0.72218 0.77924 0.71960
 C19 C 0.75164 0.80600 0.74884
 C20 C 0.78010 0.77964 0.78132
 C21 C 0.77893 0.72423 0.78268
 C22 C 0.74945 0.69775 0.75321
 H23 H 0.74885 0.65559 0.75406
 H24 H 0.75138 0.84813 0.74769
 C25 C 0.27786 0.77749 0.71706
 C26 C 0.27897 0.72266 0.71964
 C27 C 0.25012 0.69585 0.74999
 C28 C 0.21948 0.72205 0.77762
 C29 C 0.21882 0.77744 0.77526
 C30 C 0.24792 0.80407 0.74501
 H31 H 0.24751 0.84623 0.74376
 H32 H 0.25104 0.65372 0.75017
 O33 O 1.03852 -0.06780 0.00089
 O34 O 0.96358 0.00698 0.07734
 O35 O 0.96302 -0.06780 0.00158
 O36 O 1.03879 0.00715 0.07641
 O37 O 1.03842 0.06500 0.00573
 O38 O 0.96270 -0.00990 -0.06904
 O39 O 0.96326 0.06484 0.00666
 O40 O 1.03815 -0.00990 -0.06973
 Cu41 Cu 1.00102 -0.03627 0.04613
 Cu42 Cu 1.00059 0.03329 -0.03878
 C43 C 1.05108 -0.05136 -0.04722
 C44 C 0.95082 0.04858 0.05492
 C45 C 0.94998 -0.05139 -0.04627
 C46 C 1.05133 0.04878 0.05372
 O47 O 0.46316 0.49131 0.42847
 O48 O 0.53849 0.56629 0.50400
 O49 O 0.53861 0.49050 0.42943
 O50 O 0.46339 0.56639 0.50384
 O51 O 0.46301 0.50898 0.57498
 O52 O 0.53821 0.43314 0.50059
 O53 O 0.53812 0.50895 0.57519
 O54 O 0.46274 0.43391 0.49960
 Cu55 Cu 0.50097 0.53434 0.45918
 Cu56 Cu 0.50049 0.46538 0.54470
 C57 C 0.45013 0.45006 0.45136
 C58 C 0.55090 0.55042 0.55243
 C59 C 0.55117 0.44908 0.45252
 C60 C 0.45060 0.55055 0.55207
 O61 O -0.03714 0.56538 -0.00548
 O62 O 0.03775 0.49163 0.07222
 O63 O 0.03797 0.56561 -0.00473
 O64 O -0.03767 0.49094 0.07063
 O65 O -0.03708 0.43251 0.00064
 O66 O 0.03852 0.50714 -0.07468
 O67 O 0.03837 0.43314 0.00230
 O68 O -0.03662 0.50698 -0.07552
 Cu69 Cu 0.00020 0.53423 0.04028
 Cu70 Cu 0.00089 0.46397 -0.04381
 C71 C -0.04947 0.54872 -0.05361
 C72 C 0.05075 0.44998 0.05037
 C73 C 0.05087 0.54908 -0.05257
 C74 C -0.05025 0.44922 0.04822
 O75 O 0.53737 1.00743 0.42204
 O76 O 0.46265 0.93078 0.49704
 O77 O 0.46218 1.00676 0.42279
 O78 O 0.53817 0.93137 0.49649
 O79 O 0.53823 0.98825 0.56802
 O80 O 0.46232 1.06357 0.49443
 O81 O 0.46276 0.98764 0.56861
 O82 O 0.53745 1.06426 0.49364
 Cu83 Cu 0.50011 0.96327 0.45243
 Cu84 Cu 0.50023 1.03158 0.53847
 C85 C 0.54991 1.04888 0.44509
 C86 C 0.44994 0.94644 0.54536
 C87 C 0.44948 1.04793 0.44616
 C88 C 0.55109 0.94718 0.54465
 C89 C 1.13424 0.13319 0.13677
 C90 C 1.17331 0.12065 0.13041
 C91 C 1.20163 0.14996 0.15865
 C92 C 1.19139 0.19295 0.19334
 C93 C 1.15171 0.20434 0.20011
 C94 C 1.12351 0.17493 0.17182
 C95 C 1.10512 0.10316 0.10750
 C96 C 1.08061 0.07820 0.08296
 H97 H 1.18194 0.08835 0.10334
 H98 H 1.23165 0.13995 0.15153
 H99 H 1.14219 0.23486 0.22888
 H100 H 1.09327 0.18450 0.17774
 C101 C 0.63343 0.63501 0.63609
 C102 C 0.67253 0.62629 0.62405
 C103 C 0.70100 0.65536 0.65219
 C104 C 0.69062 0.69365 0.69250
 C105 C 0.65133 0.70193 0.70481
 C106 C 0.62287 0.67285 0.67656
 C107 C 0.60422 0.60512 0.60682
 C108 C 0.57987 0.58007 0.58207
 H109 H 0.68101 0.59710 0.59284
 H110 H 0.73113 0.64840 0.64217
 H111 H 0.64277 0.73080 0.73631
 H112 H 0.59268 0.67980 0.68630
 C113 C -0.13490 0.36714 0.13037
 C114 C -0.15138 0.32361 0.10390
 C115 C -0.17988 0.29486 0.13243
 C116 C -0.19212 0.30870 0.18850
 C117 C -0.17594 0.35371 0.21381
 C118 C -0.14745 0.38234 0.18514
 C119 C -0.10508 0.39617 0.10137
 C120 C -0.08002 0.42041 0.07715
 H121 H -0.14234 0.31198 0.06104
 H122 H -0.19305 0.26267 0.10966
 H123 H -0.18405 0.36572 0.25693
 H124 H -0.13493 0.41609 0.20601
 C125 C 0.36536 0.86445 0.62781
 C126 C 0.34351 0.82722 0.59806
 C127 C 0.31465 0.79927 0.62680
 C128 C 0.30755 0.80806 0.68572
 C129 C 0.32921 0.84595 0.71509
 C130 C 0.35803 0.87390 0.68630
 C131 C 0.39528 0.89302 0.59845
 C132 C 0.42032 0.91722 0.57413
 H133 H 0.34883 0.81975 0.55273
 H134 H 0.29794 0.77066 0.60322
 H135 H 0.32418 0.85328 0.76050
 H136 H 0.37470 0.90269 0.70970
 C137 C -0.13269 0.63209 -0.13704
 C138 C -0.17151 0.62500 -0.12190
 C139 C -0.20026 0.65471 -0.14847
 C140 C -0.19043 0.69210 -0.19020
 C141 C -0.15148 0.69839 -0.20601
 C142 C -0.12273 0.66867 -0.17932
 C143 C -0.10313 0.60239 -0.10841
 C144 C -0.07856 0.57772 -0.08371
 H145 H -0.17952 0.59680 -0.08926
 H146 H -0.23013 0.64920 -0.13584
 H147 H -0.14339 0.72655 -0.23863
 H148 H -0.09277 0.67437 -0.19143
 C149 C 0.36593 1.13272 0.36522
 C150 C 0.35460 1.12054 0.30890
 C151 C 0.32612 1.14998 0.28127
 C152 C 0.30870 1.19273 0.30928
 C153 C 0.32000 1.20375 0.36659
 C154 C 0.34848 1.17422 0.39405
 C155 C 0.39535 1.10254 0.39356
 C156 C 0.42005 1.07747 0.41748
 H157 H 0.36794 1.08843 0.28617
 H158 H 0.31878 1.14026 0.23711
 H159 H 0.30596 1.23406 0.39119
 H160 H 0.35663 1.18350 0.43803
 C161 C 1.13465 -0.13281 -0.13216
 C162 C 1.15795 -0.16849 -0.10258
 C163 C 1.18584 -0.19716 -0.13242
 C164 C 1.19041 -0.19075 -0.19230
 C165 C 1.16751 -0.15408 -0.22147
 C166 C 1.13968 -0.12541 -0.19157
 C167 C 1.10529 -0.10415 -0.10182
 C168 C 1.08055 -0.08013 -0.07676
 H169 H 1.15440 -0.17436 -0.05657
 H170 H 1.20355 -0.22478 -0.10905
 H171 H 1.17068 -0.14849 -0.26758
 H172 H 1.12187 -0.09782 -0.21485
 C173 C 0.63486 0.36622 0.36952
 C174 C 0.65670 0.32887 0.39907
 C175 C 0.68513 0.30054 0.36994
 C176 C 0.69180 0.30910 0.31085
 C177 C 0.67007 0.34702 0.28166
 C178 C 0.64170 0.37533 0.31082
 C179 C 0.60540 0.39523 0.39922
 C180 C 0.58064 0.41973 0.42369
 H181 H 0.65173 0.32163 0.44455
 H182 H 0.70189 0.27192 0.39338
 H183 H 0.67475 0.35416 0.23611
 H184 H 0.62501 0.40417 0.28756
 C185 C 0.86525 -0.13296 -0.12901
 C186 C 0.84852 -0.17651 -0.10293
 C187 C 0.82008 -0.20499 -0.13194
 C188 C 0.80816 -0.19087 -0.18813
 C189 C 0.82455 -0.14579 -0.21302
 C190 C 0.85298 -0.11742 -0.18387
 C191 C 0.89509 -0.10426 -0.09959
 C192 C 0.92017 -0.08020 -0.07517
 H193 H 0.85733 -0.18839 -0.06001
 H194 H 0.80673 -0.23723 -0.10948
 H195 H 0.81668 -0.13355 -0.25620
 H196 H 0.86570 -0.08365 -0.20444
 C197 C 0.36540 0.36803 0.36925
 C198 C 0.37473 0.33433 0.32392
 C199 C 0.34574 0.30533 0.29683
 C200 C 0.30713 0.30938 0.31519
 C201 C 0.29785 0.34404 0.35992
 C202 C 0.32688 0.37306 0.38694
 C203 C 0.39537 0.39704 0.39796
 C204 C 0.42043 0.42123 0.42226
 H205 H 0.40442 0.33030 0.30972
 H206 H 0.35342 0.27938 0.26187
 H207 H 0.26826 0.34783 0.37458
 H208 H 0.31933 0.39911 0.42189
 C209 C 0.13319 0.63300 -0.13748
 C210 C 0.17203 0.61843 -0.13391
 C211 C 0.20036 0.64749 -0.16235
 C212 C 0.19043 0.69227 -0.19442
 C213 C 0.15093 0.70559 -0.19875
 C214 C 0.12268 0.67640 -0.17024
 C215 C 0.10416 0.60334 -0.10756
 C216 C 0.07987 0.57852 -0.08239
 H217 H 0.18048 0.58480 -0.10870
 H218 H 0.23026 0.63592 -0.15717
 H219 H 0.14157 0.73762 -0.22560
 H220 H 0.09258 0.68754 -0.17406
 C221 C 0.63236 1.13424 0.36215
 C222 C 0.62190 1.17210 0.32156
 C223 C 0.65044 1.20122 0.29351
 C224 C 0.68970 1.19294 0.30612
 C225 C 0.69997 1.15463 0.34654
 C226 C 0.67144 1.12553 0.37449
 C227 C 0.60309 1.10423 0.39116
 C228 C 0.57877 1.07896 0.41571
 H229 H 0.59174 1.17904 0.31156
 H230 H 0.64195 1.23010 0.26192
 H231 H 0.73008 1.14766 0.35681
 H232 H 0.67985 1.09631 0.40577
 C233 C 0.13360 0.36829 0.13690
 C234 C 0.13740 0.37367 0.19680
 C235 C 0.16508 0.34462 0.22674
 C236 C 0.18904 0.30959 0.19707
 C237 C 0.18562 0.30522 0.13679
 C238 C 0.15792 0.33425 0.10693
 C239 C 0.10449 0.39726 0.10628
 C240 C 0.07999 0.42134 0.08068
 H241 H 0.11877 0.39998 0.22039
 H242 H 0.16733 0.34866 0.27316
 H243 H 0.20419 0.27899 0.11300
 H244 H 0.15534 0.32995 0.06057
 C245 C 0.63565 0.86585 0.62790
 C246 C 0.64229 0.87529 0.68659
 C247 C 0.67080 0.84747 0.71616
 C248 C 0.69285 0.80971 0.68738
 C249 C 0.68646 0.80093 0.62826
 C250 C 0.65789 0.82876 0.59873
 C251 C 0.60590 0.89418 0.59788
 C252 C 0.58088 0.91819 0.57332
 H253 H 0.62530 0.90394 0.70957
 H254 H 0.67526 0.85477 0.76173
 H255 H 0.70346 0.77241 0.60514
 H256 H 0.65308 0.82128 0.55326
 C257 C 0.86729 0.13205 0.13733
 C258 C 0.82853 0.12494 0.12176
 C259 C 0.79964 0.15444 0.14818
 C260 C 0.80925 0.19165 0.19019
 C261 C 0.84814 0.19793 0.20645
 C262 C 0.87703 0.16842 0.17992
 C263 C 0.89699 0.10247 0.10895
 C264 C 0.92166 0.07779 0.08454
 H265 H 0.82068 0.09688 0.08891
 H266 H 0.76982 0.14894 0.13519
 H267 H 0.85606 0.22595 0.23928
 H268 H 0.90693 0.17411 0.19239
 C269 C 0.36752 0.63445 0.63491
 C270 C 0.32854 0.62560 0.62194
 C271 C 0.29978 0.65417 0.64986
 C272 C 0.30972 0.69208 0.69089
 C273 C 0.34888 0.70045 0.70420
 C274 C 0.37765 0.67185 0.67617
 C275 C 0.39701 0.60504 0.60585
 C276 C 0.42153 0.58022 0.58130
 H277 H 0.32039 0.59671 0.59013
 H278 H 0.26975 0.64719 0.63901
 H279 H 0.35710 0.72908 0.73621
 H280 H 0.40773 0.67888 0.68666
   
