data_POSCAR
  _audit_creation_date              2014-09-24
  _audit_creation_method            'ToBaCCo'
  _symmetry_space_group_name_H-M    'P1'
  _symmetry_Int_Tables_number       1
  _symmetry_cell_setting            triclinic
  loop_
  _symmetry_equiv_pos_as_xyz
 x,y,z
_cell_length_a 33.1984
_cell_length_b 33.2323
_cell_length_c 67.7960
_cell_angle_alpha 88.246500
_cell_angle_beta 90.798500
_cell_angle_gamma 120.073600
loop_
  _atom_site_label
  _atom_site_type_symbol
  _atom_site_fract_x
  _atom_site_fract_y
  _atom_site_fract_z
C1 C 0.01771 0.07540 0.52686
 H2 H 0.05064 0.07611 0.52662
 C3 C 0.01253 0.10655 0.53841
 H4 H 0.04149 0.13126 0.54716
 C5 C -0.05993 0.04313 0.51533
 H6 H -0.08773 0.01895 0.50602
 C7 C -0.06657 0.07379 0.52668
 H8 H -0.09964 0.07290 0.52623
 N9 N -0.01829 0.04439 0.51571
 C10 C 0.01411 -0.06538 0.50604
 H11 H 0.01495 -0.06485 0.49008
 C12 C 0.01924 -0.09897 0.51686
 H13 H 0.02432 -0.12428 0.50925
 C14 C 0.00422 -0.03449 0.53549
 H15 H -0.00294 -0.01020 0.54268
 C16 C 0.00918 -0.06750 0.54687
 H17 H 0.00631 -0.06818 0.56279
 Zn18 Zn -0.00596 0.00624 0.49967
 N19 N 0.00669 -0.03407 0.51545
 C20 C 0.08614 0.04547 0.48413
 N21 N 0.04573 0.04668 0.48370
 C22 C 0.04158 0.07918 0.47257
 C23 C 0.07885 0.11200 0.46112
 C24 C 0.12436 0.07777 0.47287
 C25 C -0.09733 -0.06468 0.49321
 C26 C -0.13535 -0.09700 0.48236
 C27 C -0.09167 -0.06138 0.45238
 C28 C -0.05449 -0.02975 0.46380
 N29 N -0.05792 -0.03202 0.48384
 H30 H 0.08906 0.02005 0.49341
 H31 H 0.00931 0.07977 0.47278
 H32 H 0.07528 0.13790 0.45240
 H33 H 0.15655 0.07692 0.47337
 H34 H -0.09873 -0.06626 0.50917
 H35 H -0.16622 -0.12336 0.49004
 H36 H -0.08816 -0.05975 0.43645
 H37 H -0.02249 -0.00438 0.45665
 C38 C 0.01637 -0.10025 0.53745
 C39 C -0.02993 0.10582 0.53828
 C40 C -0.13235 -0.09560 0.46175
 C41 C 0.12064 0.11138 0.46132
 C42 C 1.08848 0.03562 0.13952
 H43 H 1.08929 0.06857 0.13958
 C44 C 1.12034 0.03081 0.12808
 H45 H 1.14572 0.06008 0.11922
 C46 C 1.05515 -0.04250 0.15139
 H47 H 1.03024 -0.07067 0.16078
 C48 C 1.08649 -0.04879 0.14015
 H49 H 1.08542 -0.08192 0.14077
 N50 N 1.05659 -0.00081 0.15078
 C51 C 0.94592 0.03101 0.15985
 H52 H 0.94530 0.03114 0.17580
 C53 C 0.91294 0.03642 0.14887
 H54 H 0.88696 0.04100 0.15636
 C55 C 0.97905 0.02257 0.13058
 H56 H 1.00396 0.01583 0.12353
 C57 C 0.94669 0.02783 0.11906
 H58 H 0.94713 0.02562 0.10316
 Zn59 Zn 1.01728 0.01084 0.16661
 N60 N 0.97803 0.02414 0.15061
 C61 C 1.05519 0.10203 0.18186
 N62 N 1.05656 0.06174 0.18243
 C63 C 1.08833 0.05710 0.19367
 C64 C 1.12015 0.09369 0.20512
 C65 C 1.08650 0.13959 0.19311
 C66 C 0.94577 -0.08075 0.17338
 C67 C 0.91273 -0.11922 0.18436
 C68 C 0.94637 -0.07696 0.21417
 C69 C 0.97879 -0.03927 0.20264
 N70 N 0.97786 -0.04179 0.18261
 H71 H 1.03037 0.10537 0.17249
 H72 H 1.08908 0.02493 0.19358
 H73 H 1.14544 0.08972 0.21396
 H74 H 1.08548 0.17168 0.19253
 H75 H 0.94522 -0.08145 0.15743
 H76 H 0.88677 -0.14978 0.17688
 H77 H 0.94675 -0.07438 0.23007
 H78 H 1.00369 -0.00763 0.20968
 C79 C 0.91312 0.03441 0.12831
 C80 C 1.11941 -0.01172 0.12843
 C81 C 0.91283 -0.11712 0.20493
 C82 C 1.11929 0.13533 0.20481
 C83 C 0.04089 0.95976 0.86062
 H84 H 0.00865 0.92681 0.86046
 C85 C 0.07816 0.96438 0.87205
 H86 H 0.07463 0.93497 0.88082
 C87 C 0.08535 1.03805 0.84896
 H88 H 0.08824 1.06635 0.83965
 C89 C 0.12357 1.04414 0.86020
 H90 H 0.15572 1.07727 0.85966
 N91 N 0.04500 0.99635 0.84945
 C92 C -0.09809 0.96435 0.84009
 H93 H -0.09950 0.96447 0.82413
 C94 C -0.13608 0.95871 0.85098
 H95 H -0.16696 0.95418 0.84338
 C96 C -0.05525 0.97242 0.86945
 H97 H -0.02326 0.97911 0.87657
 C98 C -0.09241 0.96692 0.88091
 H99 H -0.08898 0.96891 0.89682
 Zn100 Zn -0.00670 0.98492 0.83353
 N101 N -0.05868 0.97117 0.84942
 C102 C -0.06062 0.89398 0.81794
 N103 N -0.01897 0.93440 0.81753
 C104 C 0.01708 0.93943 0.80637
 C105 C 0.01194 0.90310 0.79484
 C106 C -0.06722 0.85667 0.80661
 C107 C 0.01325 1.07658 0.82708
 C108 C 0.01840 1.11529 0.81623
 C109 C 0.00853 1.07374 0.78626
 C110 C 0.00355 1.03578 0.79766
 N111 N 0.00592 1.03784 0.81770
 H112 H -0.08847 0.89034 0.82725
 H113 H 0.05002 0.97168 0.80659
 H114 H 0.04094 0.90737 0.78607
 H115 H -0.10030 0.82446 0.80708
 H116 H 0.01403 1.07690 0.84304
 H117 H 0.02342 1.14568 0.82382
 H118 H 0.00575 1.07154 0.77034
 H119 H -0.00354 1.00432 0.79050
 C120 C -0.13304 0.96043 0.87158
 C121 C 0.11989 1.00689 0.87180
 C122 C 0.01564 1.11368 0.79564
 C123 C -0.03053 0.86132 0.79500
 C124 C 0.50681 -0.00235 0.00960
 C125 C 0.50527 -0.00410 -0.01048
 C126 C 0.46883 -0.00025 -0.02200
 C127 C 0.53987 -0.01000 -0.02185
 C128 C 0.54806 0.00348 0.02088
 C129 C 0.46735 -0.00606 0.02120
 C130 C 0.44261 -0.03338 -0.03616
 C131 C 0.40837 -0.02989 -0.04706
 C132 C 0.40024 0.00692 -0.04401
 C133 C 0.42667 0.04043 -0.03012
 C134 C 0.46094 0.03701 -0.01923
 C135 C 0.54846 -0.04651 -0.01709
 C136 C 0.58077 -0.05205 -0.02794
 C137 C 0.60451 -0.02145 -0.04377
 C138 C 0.59570 0.01462 -0.04874
 C139 C 0.56343 0.02023 -0.03789
 C140 C 0.59298 0.03997 0.01608
 C141 C 0.63152 0.04552 0.02689
 C142 C 0.62553 0.01496 0.04273
 C143 C 0.58084 -0.02111 0.04773
 C144 C 0.54228 -0.02674 0.03692
 C145 C 0.47543 0.02710 0.03539
 C146 C 0.43850 0.02372 0.04639
 C147 C 0.39318 -0.01302 0.04343
 C148 C 0.38494 -0.04654 0.02949
 C149 C 0.42184 -0.04323 0.01850
 H150 H 0.44834 -0.06218 -0.03861
 H151 H 0.38818 -0.05595 -0.05781
 H152 H 0.42082 0.06918 -0.02771
 H153 H 0.48142 0.06346 -0.00867
 H154 H 0.52997 -0.07080 -0.00504
 H155 H 0.58714 -0.08023 -0.02403
 H156 H 0.55711 0.04840 -0.04188
 H157 H 0.59812 0.06425 0.00403
 H158 H 0.66592 0.07370 0.02296
 H159 H 0.57581 -0.04489 0.05999
 H160 H 0.50794 -0.05488 0.04095
 H161 H 0.51027 0.05583 0.03779
 H162 H 0.44528 0.04979 0.05717
 H163 H 0.35004 -0.07523 0.02715
 H164 H 0.41497 -0.06969 0.00792
 H165 H 0.61380 0.03843 -0.06099
 C166 C -0.01585 0.49017 0.67665
 C167 C -0.01582 0.49148 0.65653
 C168 C -0.02047 0.45195 0.64505
 C169 C -0.01077 0.53266 0.64508
 C170 C -0.02054 0.52503 0.68814
 C171 C -0.01085 0.45403 0.68810
 C172 C 0.01139 0.45997 0.62992
 C173 C 0.00716 0.42300 0.61904
 C174 C -0.02915 0.37767 0.62306
 C175 C -0.06140 0.36948 0.63794
 C176 C -0.05723 0.40644 0.64883
 C177 C 0.02630 0.57751 0.64885
 C178 C 0.03111 0.61600 0.63790
 C179 C -0.00077 0.61005 0.62295
 C180 C -0.03744 0.56542 0.61895
 C181 C -0.04232 0.52689 0.62991
 C182 C -0.05729 0.53374 0.68440
 C183 C -0.06150 0.56649 0.69529
 C184 C -0.02931 0.59055 0.71015
 C185 C 0.00698 0.58156 0.71415
 C186 C 0.01126 0.54886 0.70326
 C187 C -0.04247 0.42816 0.70329
 C188 C -0.03765 0.39447 0.71423
 C189 C -0.00099 0.38654 0.71020
 C190 C 0.03097 0.41256 0.69523
 C191 C 0.02623 0.44629 0.68430
 H192 H 0.03980 0.49480 0.62669
 H193 H 0.03225 0.42973 0.60752
 H194 H -0.08974 0.33458 0.64112
 H195 H -0.08273 0.39961 0.66016
 H196 H 0.05159 0.58263 0.66020
 H197 H 0.05975 0.65035 0.64104
 H198 H -0.07092 0.49260 0.62668
 H199 H -0.08273 0.51508 0.67308
 H200 H -0.08983 0.57302 0.69213
 H201 H 0.03202 0.59992 0.72565
 H202 H 0.03966 0.54247 0.70646
 H203 H -0.07108 0.43381 0.70654
 H204 H -0.06251 0.37461 0.72581
 H205 H 0.05961 0.40688 0.69206
 H206 H 0.05157 0.46652 0.67294
 H207 H -0.06224 0.56041 0.60738
 C208 C 0.50575 0.51077 0.34404
 C209 C 0.50713 0.51108 0.32394
 C210 C 0.54829 0.54681 0.31264
 C211 C 0.46756 0.47559 0.31233
 C212 C 0.46937 0.47016 0.35550
 C213 C 0.54048 0.55099 0.35548
 C214 C 0.54241 0.57165 0.29681
 C215 C 0.58089 0.60487 0.28597
 C216 C 0.62561 0.61336 0.29075
 C217 C 0.63170 0.58840 0.30637
 C218 C 0.59324 0.55514 0.31721
 C219 C 0.42208 0.46716 0.31525
 C220 C 0.38509 0.43384 0.30424
 C221 C 0.39321 0.40893 0.29007
 C222 C 0.43849 0.41762 0.28689
 C223 C 0.47551 0.45090 0.29790
 C224 C 0.46140 0.42508 0.35246
 C225 C 0.42717 0.38709 0.36329
 C226 C 0.40087 0.39379 0.37741
 C227 C 0.40909 0.43868 0.38072
 C228 C 0.44328 0.47670 0.36989
 C229 C 0.56417 0.54392 0.37132
 C230 C 0.59659 0.58153 0.38222
 C231 C 0.60543 0.62656 0.37751
 C232 C 0.58155 0.63381 0.36189
 C233 C 0.54909 0.59622 0.35099
 H234 H 0.50805 0.56555 0.29296
 H235 H 0.57578 0.62391 0.27387
 H236 H 0.66611 0.59452 0.31013
 H237 H 0.59846 0.53570 0.32909
 H238 H 0.41531 0.48648 0.32601
 H239 H 0.35022 0.42755 0.30675
 H240 H 0.51032 0.45708 0.29534
 H241 H 0.48177 0.41938 0.34173
 H242 H 0.42125 0.35254 0.36068
 H243 H 0.38900 0.44426 0.39165
 H244 H 0.44908 0.51117 0.37255
 H245 H 0.55784 0.50932 0.37510
 H246 H 0.61481 0.57552 0.39430
 H247 H 0.58795 0.66847 0.35818
 H248 H 0.53051 0.60234 0.33910
 H249 H 0.44517 0.39861 0.27593
 C250 C -0.03956 0.20246 0.57037
 N251 N -0.03603 0.20191 0.59032
 N252 N -0.03541 0.23559 0.60073
 C253 C -0.03825 0.27087 0.59150
 N254 N -0.04186 0.27139 0.57155
 N255 N -0.04248 0.23770 0.56115
 C256 C -0.03781 0.16752 0.55910
 C257 C -0.03501 0.13892 0.54962
 C258 C -0.03582 0.30805 0.60264
 C259 C -0.03308 0.33964 0.61196
 C260 C 0.80906 0.77772 0.23751
 N261 N 0.80803 0.78066 0.25739
 N262 N 0.77253 0.74784 0.26792
 C263 C 0.73696 0.71112 0.25889
 N264 N 0.73802 0.70815 0.23902
 N265 N 0.77352 0.74097 0.22848
 C266 C 0.84628 0.81404 0.22608
 C267 C 0.87698 0.84510 0.21645
 C268 C 0.69809 0.67649 0.27016
 C269 C 0.66516 0.64763 0.27957
 C270 C 0.22907 0.01560 -0.09643
 N271 N 0.26656 0.01901 -0.10578
 N272 N 0.30077 0.01849 -0.09545
 C273 C 0.29850 0.01449 -0.07548
 N274 N 0.26104 0.01115 -0.06613
 N275 N 0.22683 0.01166 -0.07645
 C276 C 0.19128 0.01402 -0.10758
 C277 C 0.15902 0.01149 -0.11697
 C278 C 0.33460 0.01244 -0.06441
 C279 C 0.36465 0.01016 -0.05511
 C280 C 0.01737 0.79459 0.56967
 N281 N 0.01660 0.75851 0.56049
 N282 N 0.01397 0.72270 0.57098
 C283 C 0.01197 0.72185 0.59097
 N284 N 0.01280 0.75795 0.60015
 N285 N 0.01543 0.79377 0.58966
 C286 C 0.01836 0.83226 0.55835
 C287 C 0.01811 0.86337 0.54882
 C288 C 0.00793 0.68273 0.60224
 C289 C 0.00411 0.64967 0.61169
 C290 C 0.21720 0.24229 0.23690
 N291 N 0.25277 0.27989 0.22768
 N292 N 0.28669 0.31326 0.23815
 C293 C 0.28611 0.31001 0.25815
 N294 N 0.25051 0.27244 0.26736
 N295 N 0.21658 0.23907 0.25689
 C296 C 0.18188 0.20533 0.22561
 C297 C 0.15291 0.17373 0.21612
 C298 C 0.32345 0.34514 0.26939
 C299 C 0.35512 0.37435 0.27883
 C300 C 0.76538 -0.04115 -0.09671
 N301 N 0.76884 -0.03828 -0.07679
 N302 N 0.73663 -0.03557 -0.06632
 C303 C 0.70003 -0.03558 -0.07547
 N304 N 0.69654 -0.03851 -0.09539
 N305 N 0.72875 -0.04123 -0.10586
 C306 C 0.80112 -0.04198 -0.10805
 C307 C 0.83174 -0.04149 -0.11761
 C308 C 0.66614 -0.03120 -0.06427
 C309 C 0.63793 -0.02698 -0.05490
 C310 C 0.21740 -0.02103 0.09645
 N311 N 0.25266 -0.02343 0.10569
 N312 N 0.28657 -0.02308 0.09526
 C313 C 0.28627 -0.02026 0.07526
 N314 N 0.25098 -0.01792 0.06601
 N315 N 0.21707 -0.01827 0.07645
 C316 C 0.18207 -0.01925 0.10770
 C317 C 0.15308 -0.01654 0.11715
 C318 C 0.32356 -0.01835 0.06405
 C319 C 0.35518 -0.01616 0.05465
 C320 C 0.76716 0.80611 0.43053
 N321 N 0.73063 0.76935 0.43970
 N322 N 0.69827 0.73461 0.42924
 C323 C 0.70149 0.73555 0.40929
 N324 N 0.73799 0.77234 0.40012
 N325 N 0.77035 0.80709 0.41058
 C326 C 0.80304 0.84251 0.44185
 C327 C 0.83377 0.87251 0.45139
 C328 C 0.66741 0.69749 0.39808
 C329 C 0.63905 0.66526 0.38869
 C330 C 0.01680 0.21989 0.76340
 N331 N 0.01447 0.21858 0.74342
 N332 N 0.01191 0.25181 0.73294
 C333 C 0.01153 0.28732 0.74212
 N334 N 0.01392 0.28865 0.76209
 N335 N 0.01648 0.25542 0.77257
 C336 C 0.01771 0.18316 0.77472
 C337 C 0.01742 0.15179 0.78425
 C338 C 0.00757 0.32244 0.73087
 C339 C 0.00382 0.35174 0.72143
 C340 C 0.80932 0.03540 0.09580
 N341 N 0.77363 0.03633 0.10485
 N342 N 0.73808 0.03343 0.09435
 C343 C 0.73711 0.02944 0.07447
 N344 N 0.77282 0.02858 0.06541
 N345 N 0.80838 0.03148 0.07592
 C346 C 0.84657 0.03649 0.10720
 C347 C 0.87728 0.03624 0.11681
 C348 C 0.69816 0.02491 0.06324
 C349 C 0.66517 0.02058 0.05386
 C350 C 0.22984 0.21255 0.42960
 N351 N 0.26729 0.24653 0.43897
 N352 N 0.30149 0.28152 0.42869
 C353 C 0.29923 0.28362 0.40872
 N354 N 0.26182 0.24960 0.39935
 N355 N 0.22762 0.21462 0.40963
 C356 C 0.19205 0.17607 0.44072
 C357 C 0.15978 0.14613 0.45010
 C358 C 0.33531 0.32207 0.39770
 C359 C 0.36532 0.35466 0.38845
 C360 C -0.04003 0.75511 0.76290
 N361 N -0.03656 0.75920 0.74295
 N362 N -0.03588 0.72617 0.73253
 C363 C -0.03859 0.68810 0.74176
 N364 N -0.04214 0.68397 0.76171
 N365 N -0.04282 0.71700 0.77213
 C366 C -0.03834 0.79177 0.77418
 C367 C -0.03557 0.82315 0.78367
 C368 C -0.03609 0.65340 0.73060
 C369 C -0.03330 0.62460 0.72127
   
