data_POSCAR
  _audit_creation_date              2014-09-24
  _audit_creation_method            'ToBaCCo'
  _symmetry_space_group_name_H-M    'P1'
  _symmetry_Int_Tables_number       1
  _symmetry_cell_setting            triclinic
  loop_
  _symmetry_equiv_pos_as_xyz
 x,y,z
_cell_length_a 48.0866
_cell_length_b 48.6914
_cell_length_c 48.3550
_cell_angle_alpha 89.996100
_cell_angle_beta 90.160600
_cell_angle_gamma 89.880900
loop_
  _atom_site_label
  _atom_site_type_symbol
  _atom_site_fract_x
  _atom_site_fract_y
  _atom_site_fract_z
C1 C 0.20843 0.52250 1.03323
 H2 H 0.20719 0.53829 1.01753
 C3 C 0.19015 0.52300 1.05560
 H4 H 0.17504 0.53947 1.05681
 C5 C 0.22941 0.48168 1.04992
 H6 H 0.24437 0.46531 1.04735
 C7 C 0.21153 0.48131 1.07263
 H8 H 0.21334 0.46464 1.08736
 N9 N 0.22764 0.50215 1.03087
 C10 C 0.29160 0.53601 0.97711
 H11 H 0.29202 0.52045 0.96114
 C12 C 0.31022 0.55794 0.97612
 H13 H 0.32481 0.55912 0.95916
 C14 C 0.27247 0.55270 1.01898
 H15 H 0.25815 0.55027 1.03596
 C16 C 0.29075 0.57497 1.01883
 H17 H 0.29000 0.58961 1.03566
 Zn18 Zn 0.25032 0.50225 0.99896
 N19 N 0.27316 0.53384 0.99824
 C20 C 0.22636 0.52179 0.94865
 N21 N 0.22621 0.50148 0.96797
 C22 C 0.20764 0.48052 0.96659
 C23 C 0.18842 0.47919 0.94496
 C24 C 0.20746 0.52129 0.92665
 C25 C 0.29373 0.47001 1.01933
 C26 C 0.31279 0.44838 1.02011
 C27 C 0.29188 0.43016 0.97850
 C28 C 0.27318 0.45216 0.97854
 N29 N 0.27431 0.47141 0.99889
 H30 H 0.24083 0.53863 0.95044
 H31 H 0.20768 0.46489 0.98250
 H32 H 0.17380 0.46231 0.94438
 H33 H 0.20786 0.53772 0.91157
 H34 H 0.29444 0.48586 1.03499
 H35 H 0.32806 0.44774 1.03659
 H36 H 0.29066 0.41511 0.96207
 H37 H 0.25804 0.45397 0.96210
 C38 C 0.31007 0.57773 0.99727
 C39 C 0.19136 0.50210 1.07572
 C40 C 0.31207 0.42808 0.99947
 C41 C 0.18808 0.49980 0.92463
 C42 C 0.79089 0.52253 -0.03240
 H43 H 0.79159 0.53818 -0.01653
 C44 C 0.80961 0.52341 -0.05439
 H45 H 0.82458 0.53997 -0.05528
 C46 C 0.77089 0.48160 -0.04986
 H47 H 0.75616 0.46504 -0.04773
 C48 C 0.78927 0.48166 -0.07220
 H49 H 0.78818 0.46518 -0.08719
 N50 N 0.77195 0.50193 -0.03060
 C51 C 0.70677 0.53445 0.02275
 H52 H 0.70634 0.51859 0.03842
 C53 C 0.68799 0.55630 0.02401
 H54 H 0.67324 0.55709 0.04087
 C55 C 0.72619 0.55204 -0.01858
 H56 H 0.74074 0.55003 -0.03543
 C57 C 0.70774 0.57425 -0.01815
 H58 H 0.70857 0.58926 -0.03465
 Zn59 Zn 0.74880 0.50146 0.00099
 N60 N 0.72546 0.53278 0.00178
 C61 C 0.77180 0.52088 0.05175
 N62 N 0.77248 0.50071 0.03230
 C63 C 0.79128 0.47988 0.03380
 C64 C 0.81018 0.47853 0.05571
 C65 C 0.79037 0.52036 0.07402
 C66 C 0.70621 0.46863 -0.02012
 C67 C 0.68735 0.44690 -0.02095
 C68 C 0.70785 0.42917 0.02111
 C69 C 0.72634 0.45125 0.02111
 N70 N 0.72530 0.47034 0.00059
 H71 H 0.75715 0.53762 0.04986
 H72 H 0.79167 0.46436 0.01779
 H73 H 0.82499 0.46176 0.05638
 H74 H 0.78956 0.53669 0.08920
 H75 H 0.70554 0.48436 -0.03591
 H76 H 0.67229 0.44605 -0.03761
 H77 H 0.70895 0.41430 0.03773
 H78 H 0.74118 0.45331 0.03778
 C79 C 0.68822 0.57654 0.00331
 C80 C 0.80906 0.50271 -0.07463
 C81 C 0.68793 0.42682 -0.00007
 C82 C 0.80996 0.49901 0.07618
 C83 C -0.02325 0.29065 0.46567
 H84 H -0.03906 0.29101 0.48155
 C85 C -0.02454 0.30929 0.44377
 H86 H -0.04164 0.32378 0.44307
 C87 C 0.01847 0.27157 0.44816
 H88 H 0.03551 0.25724 0.45025
 C89 C 0.01806 0.28984 0.42589
 H90 H 0.03481 0.28894 0.41100
 N91 N -0.00206 0.27223 0.46743
 C92 C -0.03324 0.20713 0.52086
 H93 H -0.01705 0.20694 0.53645
 C94 C -0.05487 0.18812 0.52218
 H95 H -0.05517 0.17345 0.53900
 C96 C -0.05184 0.22615 0.47967
 H97 H -0.05028 0.24064 0.46283
 C98 C -0.07386 0.20747 0.48014
 H99 H -0.08918 0.20804 0.46371
 Zn100 Zn -0.00088 0.24923 0.49897
 N101 N -0.03216 0.22572 0.49992
 C102 C -0.02077 0.27163 0.54963
 N103 N -0.00028 0.27251 0.53031
 C104 C 0.02046 0.29138 0.53184
 C105 C 0.02128 0.31027 0.55354
 C106 C -0.02078 0.29016 0.57169
 C107 C 0.03249 0.20770 0.47731
 C108 C 0.05463 0.18920 0.47599
 C109 C 0.07330 0.20921 0.51780
 C110 C 0.05077 0.22740 0.51828
 N111 N 0.03100 0.22639 0.49813
 H112 H -0.03745 0.25693 0.54772
 H113 H 0.03623 0.29193 0.51593
 H114 H 0.03792 0.32519 0.55420
 H115 H -0.03741 0.28922 0.58670
 H116 H 0.01623 0.20706 0.46181
 H117 H 0.05523 0.17443 0.45926
 H118 H 0.08869 0.21022 0.53415
 H119 H 0.04891 0.24197 0.53502
 C120 C -0.07551 0.18801 0.50155
 C121 C -0.00357 0.30927 0.42348
 C122 C 0.07537 0.18967 0.49650
 C123 C 0.00037 0.30993 0.57379
 C124 C 0.97862 0.70528 0.53012
 H125 H 0.96306 0.70494 0.51392
 C126 C 0.97725 0.68643 0.55181
 H127 H 0.96039 0.67173 0.55217
 C128 C 1.01990 0.72447 0.54865
 H129 H 1.03681 0.73893 0.54703
 C130 C 1.01935 0.70597 0.57072
 H131 H 1.03580 0.70668 0.58603
 N132 N 0.99964 0.72387 0.52897
 C133 C 0.96840 0.78914 0.47542
 H134 H 0.98475 0.78953 0.46009
 C135 C 0.94658 0.80803 0.47391
 H136 H 0.94629 0.82283 0.45721
 C137 C 0.94960 0.76970 0.51619
 H138 H 0.95115 0.75510 0.53294
 C139 C 0.92739 0.78824 0.51550
 H140 H 0.91192 0.78745 0.53170
 Zn141 Zn 1.00097 0.74709 0.49761
 N142 N 0.96948 0.77041 0.49625
 C143 C 0.98195 0.72481 0.44647
 N144 N 1.00217 0.72398 0.46619
 C145 C 1.02311 0.70523 0.46504
 C146 C 1.02444 0.68642 0.44332
 C147 C 0.98245 0.70632 0.42437
 C148 C 1.03384 0.78863 0.51999
 C149 C 1.05584 0.80720 0.52166
 C150 C 1.07490 0.78748 0.47995
 C151 C 1.05252 0.76923 0.47911
 N152 N 1.03263 0.77006 0.49904
 H153 H 0.96510 0.73941 0.44809
 H154 H 1.03865 0.70474 0.48126
 H155 H 1.04124 0.67158 0.44297
 H156 H 0.96602 0.70718 0.40904
 H157 H 1.01749 0.78913 0.53531
 H158 H 1.05624 0.82187 0.53848
 H159 H 1.09039 0.78660 0.46377
 H160 H 1.05085 0.75477 0.46225
 C161 C 0.92575 0.80786 0.49423
 C162 C 0.99789 0.68649 0.57244
 C163 C 1.07671 0.80690 0.50138
 C164 C 1.00382 0.68667 0.42267
 C165 C 0.46649 -0.02028 0.29271
 H166 H 0.48270 -0.03572 0.29297
 C167 C 0.44472 -0.02168 0.31167
 H168 H 0.44434 -0.03842 0.32640
 C169 C 0.44792 0.02061 0.27348
 H170 H 0.44953 0.03735 0.25892
 C171 C 0.42577 0.02003 0.29212
 H172 H 0.41040 0.03630 0.29144
 N173 N 0.46763 0.00054 0.27401
 C174 C 0.52003 -0.03098 0.20773
 H175 H 0.53571 -0.01510 0.20712
 C176 C 0.52092 -0.05257 0.18877
 H177 H 0.53761 -0.05300 0.17378
 C178 C 0.47902 -0.04888 0.22781
 H179 H 0.46241 -0.04707 0.24269
 C180 C 0.47906 -0.07084 0.20921
 H181 H 0.46246 -0.08579 0.21042
 Zn182 Zn 0.49889 0.00150 0.25031
 N183 N 0.49939 -0.02958 0.22682
 C184 C 0.55056 -0.01785 0.27194
 N185 N 0.53088 0.00221 0.27318
 C186 C 0.53265 0.02286 0.29202
 C187 C 0.55502 0.02409 0.31041
 C188 C 0.57330 -0.01746 0.28999
 C189 C 0.47647 0.03455 0.20864
 C190 C 0.47516 0.05632 0.18989
 C191 C 0.51776 0.07411 0.20943
 C192 C 0.51823 0.05200 0.22783
 N193 N 0.49770 0.03284 0.22719
 H194 H 0.54848 -0.03445 0.25727
 H195 H 0.51646 0.03830 0.29285
 H196 H 0.55587 0.04068 0.32529
 H197 H 0.58862 -0.03373 0.28877
 H198 H 0.46067 0.01876 0.20826
 H199 H 0.45813 0.05713 0.17523
 H200 H 0.53444 0.08900 0.21017
 H201 H 0.53531 0.04994 0.24224
 C202 C 0.50014 -0.07291 0.18915
 C203 C 0.42400 -0.00128 0.31163
 C204 C 0.49609 0.07642 0.19001
 C205 C 0.57570 0.00367 0.30965
 C206 C 0.53455 -0.02069 0.70959
 H207 H 0.51830 -0.03602 0.70900
 C208 C 0.55672 -0.02228 0.69111
 H209 H 0.55736 -0.03904 0.67641
 C210 C 0.55285 0.02008 0.72917
 H211 H 0.55099 0.03683 0.74368
 C212 C 0.57539 0.01931 0.71101
 H213 H 0.59080 0.03546 0.71201
 N214 N 0.53309 0.00015 0.72823
 C215 C 0.47944 -0.03106 0.79353
 H216 H 0.46373 -0.01512 0.79386
 C217 C 0.47830 -0.05259 0.81255
 H218 H 0.46147 -0.05308 0.82736
 C219 C 0.52084 -0.04911 0.77418
 H220 H 0.53771 -0.04737 0.75961
 C221 C 0.52053 -0.07100 0.79285
 H222 H 0.53711 -0.08605 0.79214
 Zn223 Zn 0.50140 0.00131 0.75130
 N224 N 0.50041 -0.02976 0.77478
 C225 C 0.45010 -0.01766 0.72876
 N226 N 0.46986 0.00226 0.72783
 C227 C 0.46854 0.02286 0.70890
 C228 C 0.44653 0.02418 0.69006
 C229 C 0.42772 -0.01715 0.71027
 C230 C 0.52318 0.03400 0.79341
 C231 C 0.52434 0.05571 0.81221
 C232 C 0.48229 0.07411 0.79189
 C233 C 0.48196 0.05203 0.77344
 N234 N 0.50230 0.03260 0.77446
 H235 H 0.45185 -0.03423 0.74351
 H236 H 0.48479 0.03819 0.70833
 H237 H 0.44601 0.04074 0.67512
 H238 H 0.41232 -0.03331 0.71127
 H239 H 0.53882 0.01800 0.79406
 H240 H 0.54110 0.05627 0.82719
 H241 H 0.46578 0.08923 0.79085
 H242 H 0.46517 0.05023 0.75869
 C243 C 0.49912 -0.07288 0.81248
 C244 C 0.57750 -0.00204 0.69158
 C245 C 0.50361 0.07609 0.81172
 C246 C 0.42577 0.00393 0.69050
 C247 C 0.24859 -0.00168 0.50150
 C248 C 0.75089 -0.00240 0.50052
 C249 C 0.49978 0.25067 1.00071
 C250 C 0.49933 0.75274 0.00186
 C251 C 1.00284 0.49650 0.24954
 C252 C -0.00234 0.49875 0.74852
 N253 N 0.13769 0.14964 0.51686
 C254 C 0.13922 0.13078 0.49630
 N255 N 0.12018 0.13150 0.47561
 N256 N 0.10016 0.15045 0.47550
 C257 C 0.09839 0.16935 0.49611
 N258 N 0.11766 0.16861 0.51674
 C259 C 0.15971 0.10932 0.49713
 C260 C 0.17613 0.09058 0.49779
 C261 C 0.19464 0.06743 0.49856
 N262 N 0.18423 0.04166 0.49715
 N263 N 0.20113 0.02000 0.49808
 C264 C 0.22913 0.02320 0.50057
 N265 N 0.23945 0.04920 0.50173
 N266 N 0.22251 0.07091 0.50080
 N267 N 0.62993 0.62142 0.02451
 C268 C 0.62941 0.64033 0.00396
 N269 N 0.64835 0.63859 -0.01667
 N270 N 0.66722 0.61850 -0.01675
 C271 C 0.66779 0.59940 0.00376
 N272 N 0.64878 0.60135 0.02442
 C273 C 0.60840 0.66130 0.00363
 C274 C 0.59026 0.67842 0.00349
 C275 C 0.56807 0.69817 0.00351
 N276 N 0.56507 0.71618 -0.01766
 N277 N 0.54378 0.73375 -0.01809
 C278 C 0.52473 0.73399 0.00268
 N279 N 0.52790 0.71579 0.02382
 N280 N 0.54918 0.69825 0.02424
 N281 N 0.86345 -0.15189 0.51373
 C282 C 0.86246 -0.13267 0.49347
 N283 N 0.88192 -0.13315 0.47326
 N284 N 0.90182 -0.15223 0.47335
 C285 C 0.90302 -0.17151 0.49366
 N286 N 0.88336 -0.17097 0.51380
 C287 C 0.84174 -0.11142 0.49397
 C288 C 0.82476 -0.09318 0.49456
 C289 C 0.80507 -0.07102 0.49550
 N290 N 0.80429 -0.05205 0.47502
 N291 N 0.78684 -0.03082 0.47645
 C292 C 0.76942 -0.02777 0.49837
 N293 N 0.77042 -0.04689 0.51889
 N294 N 0.78787 -0.06813 0.51746
 N295 N 0.37097 0.38337 1.01964
 C296 C 0.37084 0.36426 0.99928
 N297 N 0.35132 0.36586 0.97907
 N298 N 0.33251 0.38601 0.97922
 C299 C 0.33257 0.40529 0.99956
 N300 N 0.35218 0.40349 1.01979
 C301 C 0.39165 0.34312 0.99878
 C302 C 0.40959 0.32579 0.99854
 C303 C 0.43148 0.30574 0.99848
 N304 N 0.43426 0.28779 1.01973
 N305 N 0.45538 0.27004 1.02029
 C306 C 0.47447 0.26953 0.99958
 N307 N 0.47152 0.28764 0.97833
 N308 N 0.45041 0.30538 0.97778
 N309 N 0.86277 0.14714 0.48157
 C310 C 0.86168 0.12829 0.50216
 N311 N 0.88088 0.12920 0.52269
 N312 N 0.90063 0.14834 0.52262
 C313 C 0.90194 0.16727 0.50200
 N314 N 0.88254 0.16630 0.48151
 C315 C 0.84109 0.10698 0.50181
 C316 C 0.82433 0.08860 0.50170
 C317 C 0.80504 0.06615 0.50177
 N318 N 0.80784 0.04563 0.52050
 N319 N 0.79059 0.02428 0.52013
 C320 C 0.76989 0.02260 0.50097
 N321 N 0.76708 0.04338 0.48233
 N322 N 0.78437 0.06474 0.48271
 N323 N 0.36830 0.62284 -0.02311
 C324 C 0.36898 0.64119 -0.00206
 N325 N 0.35012 0.63905 0.01860
 N326 N 0.33120 0.61908 0.01824
 C327 C 0.33048 0.60052 -0.00276
 N328 N 0.34939 0.60289 -0.02346
 C329 C 0.39007 0.66198 -0.00125
 C330 C 0.40829 0.67893 -0.00075
 C331 C 0.43058 0.69847 -0.00042
 N332 N 0.43348 0.71635 0.02087
 N333 N 0.45480 0.73379 0.02154
 C334 C 0.47398 0.73401 0.00089
 N335 N 0.47094 0.71594 -0.02035
 N336 N 0.44963 0.69853 -0.02101
 N337 N 0.13924 -0.15325 0.48225
 C338 C 0.14052 -0.13446 0.50290
 N339 N 0.12119 -0.13513 0.52322
 N340 N 0.10114 -0.15395 0.52288
 C341 C 0.09964 -0.17280 0.50219
 N342 N 0.11918 -0.17209 0.48193
 C343 C 0.16128 -0.11334 0.50273
 C344 C 0.17808 -0.09499 0.50275
 C345 C 0.19722 -0.07243 0.50298
 N346 N 0.19741 -0.05459 0.52446
 N347 N 0.21403 -0.03276 0.52415
 C348 C 0.23117 -0.02794 0.50234
 N349 N 0.23089 -0.04600 0.48084
 N350 N 0.21424 -0.06784 0.48117
 N351 N 0.62918 0.38204 0.97998
 C352 C 0.62916 0.36325 1.00064
 N353 N 0.64856 0.36505 1.02094
 N354 N 0.66739 0.38509 1.02058
 C355 C 0.66748 0.40407 0.99995
 N356 N 0.64800 0.40207 0.97963
 C357 C 0.60828 0.34226 1.00140
 C358 C 0.59030 0.32506 1.00189
 C359 C 0.56835 0.30515 1.00226
 N360 N 0.56541 0.28705 0.98117
 N361 N 0.54423 0.26946 0.98086
 C362 C 0.52522 0.26926 1.00166
 N363 N 0.52834 0.28752 1.02274
 N364 N 0.54952 0.30510 1.02305
 N365 N 0.47506 0.12081 1.13149
 C366 C 0.49587 0.13952 1.13090
 N367 N 0.51658 0.13783 1.14991
 N368 N 0.51649 0.11798 1.16888
 C369 C 0.49573 0.09907 1.16951
 N370 N 0.47499 0.10097 1.15045
 C371 C 0.49644 0.16020 1.10978
 C372 C 0.49684 0.17710 1.09156
 C373 C 0.49719 0.19661 1.06933
 N374 N 0.47654 0.19669 1.05022
 N375 N 0.47727 0.21405 1.02896
 C376 C 0.49866 0.23205 1.02602
 N377 N 0.51936 0.23181 1.04527
 N378 N 0.51862 0.21443 1.06655
 N379 N -0.02305 0.62780 0.61620
 C380 C -0.00256 0.62724 0.63548
 N381 N 0.01792 0.64630 0.63436
 N382 N 0.01792 0.66529 0.61452
 C383 C -0.00253 0.66591 0.59504
 N384 N -0.02305 0.64678 0.59636
 C385 C -0.00213 0.60620 0.65626
 C386 C -0.00182 0.58816 0.67333
 C387 C -0.00152 0.56624 0.69317
 N388 N 0.01954 0.54771 0.69334
 N389 N 0.01938 0.52679 0.71109
 C390 C -0.00182 0.52364 0.72940
 N391 N -0.02292 0.54231 0.72903
 N392 N -0.02275 0.56323 0.71128
 N393 N 0.47861 0.88349 -0.12841
 C394 C 0.49927 0.86454 -0.12785
 N395 N 0.51972 0.86583 -0.14703
 N396 N 0.51954 0.88554 -0.16616
 C397 C 0.49892 0.90469 -0.16678
 N398 N 0.47843 0.90319 -0.14753
 C399 C 0.49986 0.84390 -0.10668
 C400 C 0.50025 0.82695 -0.08851
 C401 C 0.50053 0.80728 -0.06643
 N402 N 0.52151 0.80720 -0.04766
 N403 N 0.52126 0.78968 -0.02651
 C404 C 0.50005 0.77151 -0.02336
 N405 N 0.47903 0.77176 -0.04227
 N406 N 0.47929 0.78929 -0.06342
 N407 N 1.01686 0.34778 0.36250
 C408 C 0.99632 0.36681 0.36086
 N409 N 0.97563 0.36645 0.37981
 N410 N 0.97552 0.34768 0.39986
 C411 C 0.99612 0.32857 0.40179
 N412 N 1.01674 0.32901 0.38256
 C413 C 0.99701 0.38777 0.34002
 C414 C 0.99765 0.40584 0.32299
 C415 C 0.99845 0.42791 0.30334
 N416 N 0.97765 0.44670 0.30252
 N417 N 0.97890 0.46790 0.28517
 C418 C 1.00095 0.47110 0.26790
 N419 N 1.02178 0.45215 0.26892
 N420 N 1.02053 0.43094 0.28628
 N421 N 0.47949 0.86633 0.15067
 C422 C 0.49960 0.86497 0.13114
 N423 N 0.52004 0.88407 0.13112
 N424 N 0.52032 0.90398 0.15000
 C425 C 0.50016 0.90562 0.16962
 N426 N 0.47979 0.88626 0.16956
 C427 C 0.49888 0.84409 0.11020
 C428 C 0.49842 0.82700 0.09218
 C429 C 0.49806 0.80719 0.07021
 N430 N 0.51934 0.78917 0.06716
 N431 N 0.51960 0.77163 0.04602
 C432 C 0.49854 0.77139 0.02716
 N433 N 0.47727 0.78958 0.03037
 N434 N 0.47702 0.80712 0.05151
 N435 N -0.02101 0.34991 0.63530
 C436 C -0.00078 0.36920 0.63680
 N437 N 0.01999 0.36888 0.61792
 N438 N 0.02048 0.34989 0.59810
 C439 C 0.00023 0.33053 0.59639
 N440 N -0.02050 0.33091 0.61547
 C441 C -0.00171 0.39025 0.65757
 C442 C -0.00237 0.40834 0.67458
 C443 C -0.00294 0.43036 0.69430
 N444 N -0.02416 0.44871 0.69419
 N445 N -0.02412 0.46987 0.71166
 C446 C -0.00289 0.47344 0.72996
 N447 N 0.01836 0.45492 0.72991
 N448 N 0.01831 0.43377 0.71243
 N449 N 0.52412 0.12013 0.87060
 C450 C 0.50349 0.13912 0.87088
 N451 N 0.48305 0.13772 0.85157
 N452 N 0.48324 0.11788 0.83258
 C453 C 0.50383 0.09870 0.83225
 N454 N 0.52430 0.10031 0.85162
 C455 C 0.50284 0.15980 0.89199
 C456 C 0.50243 0.17671 0.91019
 C457 C 0.50210 0.19623 0.93239
 N458 N 0.48079 0.21429 0.93505
 N459 N 0.48011 0.23175 0.95626
 C460 C 0.50077 0.23185 0.97556
 N461 N 0.52204 0.21360 0.97275
 N462 N 0.52270 0.19615 0.95156
 N463 N 0.98355 0.64627 0.36101
 C464 C 1.00409 0.62721 0.35987
 N465 N 1.02471 0.62785 0.37900
 N466 N 1.02477 0.64693 0.39874
 C467 C 1.00419 0.66606 0.40010
 N468 N 0.98362 0.66537 0.38076
 C469 C 1.00359 0.60594 0.33934
 C470 C 1.00341 0.58755 0.32265
 C471 C 1.00353 0.56505 0.30350
 N472 N 1.02252 0.54464 0.30625
 N473 N 1.02228 0.52327 0.28908
 C474 C 1.00298 0.52145 0.26854
 N475 N 0.98406 0.54211 0.26580
 N476 N 0.98431 0.56350 0.28300
 N477 N 1.13437 0.52079 0.12109
 C478 C 1.13508 0.50018 0.13990
 N479 N 1.15478 0.48038 0.13758
 N480 N 1.17316 0.48115 0.11703
 C481 C 1.17250 0.50170 0.09794
 N482 N 1.15274 0.52156 0.10055
 C483 C 1.11440 0.49875 0.16117
 C484 C 1.09637 0.49766 0.17839
 C485 C 1.07410 0.49654 0.19802
 N486 N 1.05668 0.47472 0.19839
 N487 N 1.03479 0.47447 0.21520
 C488 C 1.02949 0.49601 0.23233
 N489 N 1.04717 0.51781 0.23190
 N490 N 1.06906 0.51806 0.21508
 N491 N 0.64053 0.01698 0.65226
 C492 C 0.64215 -0.00363 0.63349
 N493 N 0.62287 -0.02387 0.63398
 N494 N 0.60254 -0.02350 0.65263
 C495 C 0.60070 -0.00285 0.67145
 N496 N 0.62019 0.01734 0.67093
 C497 C 0.66319 -0.00349 0.61252
 C498 C 0.68019 -0.00356 0.59424
 C499 C 0.69951 -0.00387 0.57170
 N500 N 0.69973 -0.02523 0.55376
 N501 N 0.71641 -0.02494 0.53184
 C502 C 0.73358 -0.00329 0.52701
 N503 N 0.73327 0.01808 0.54518
 N504 N 0.71656 0.01778 0.56712
 N505 N -0.13242 0.52265 0.88020
 C506 C -0.13220 0.50207 0.86134
 N507 N -0.15142 0.48184 0.86320
 N508 N -0.17026 0.48217 0.88337
 C509 C -0.17054 0.50271 0.90242
 N510 N -0.15124 0.52297 0.90035
 C511 C -0.11123 0.50132 0.84029
 C512 C -0.09312 0.50091 0.82311
 C513 C -0.07094 0.50071 0.80331
 N514 N -0.06787 0.47945 0.78547
 N515 N -0.04662 0.47889 0.76785
 C516 C -0.02768 0.49962 0.76736
 N517 N -0.03091 0.52084 0.78538
 N518 N -0.05214 0.52139 0.80298
 N519 N 0.36163 0.01803 0.35197
 C520 C 0.36038 -0.00250 0.37087
 N521 N 0.37972 -0.02275 0.37016
 N522 N 0.39975 -0.02248 0.35119
 C523 C 0.40121 -0.00192 0.33223
 N524 N 0.38167 0.01829 0.33298
 C525 C 0.33949 -0.00236 0.39201
 C526 C 0.32249 -0.00242 0.41029
 C527 C 0.30296 -0.00269 0.43268
 N528 N 0.30554 -0.02149 0.45319
 N529 N 0.28816 -0.02123 0.47458
 C530 C 0.26757 -0.00212 0.47633
 N531 N 0.26497 0.01658 0.45554
 N532 N 0.28238 0.01631 0.43414
 N533 N 0.12929 0.47820 0.88028
 C534 C 0.12833 0.49858 0.86122
 N535 N 0.14710 0.51926 0.86271
 N536 N 0.16624 0.51954 0.88270
 C537 C 0.16727 0.49919 0.90194
 N538 N 0.14842 0.47849 0.90025
 C539 C 0.10710 0.49863 0.84030
 C540 C 0.08882 0.49851 0.82319
 C541 C 0.06652 0.49818 0.80342
 N542 N 0.06331 0.51902 0.78509
 N543 N 0.04198 0.51911 0.76744
 C544 C 0.02309 0.49833 0.76742
 N545 N 0.02645 0.47754 0.78593
 N546 N 0.04778 0.47745 0.80356
 N547 N 0.62143 0.02422 0.36763
 C548 C 0.64045 0.00366 0.36802
 N549 N 0.63858 -0.01671 0.34900
 N550 N 0.61826 -0.01652 0.33019
 C551 C 0.59902 0.00399 0.32979
 N552 N 0.60112 0.02440 0.34885
 C553 C 0.66122 0.00270 0.38937
 C554 C 0.67784 0.00192 0.40806
 C555 C 0.69652 0.00098 0.43123
 N556 N 0.72436 -0.00141 0.42756
 N557 N 0.74143 -0.00249 0.44932
 C558 C 0.73130 -0.00135 0.47556
 N559 N 0.70333 0.00128 0.47895
 N560 N 0.68630 0.00237 0.45725
 N561 N 0.85055 0.51883 0.13818
 C562 C 0.86940 0.49816 0.13987
 N563 N 0.86854 0.47761 0.12100
 N564 N 0.84944 0.47774 0.10099
 C565 C 0.83054 0.49845 0.09907
 N566 N 0.83144 0.51895 0.11816
 C567 C 0.89096 0.49861 0.16043
 C568 C 0.90980 0.49879 0.17692
 C569 C 0.93311 0.49874 0.19550
 N570 N 0.95924 0.50039 0.18531
 N571 N 0.98109 0.49975 0.20224
 C572 C 0.97773 0.49730 0.23007
 N573 N 0.95136 0.49592 0.24017
 N574 N 0.92946 0.49655 0.22320
 N575 N 0.36289 -0.01559 0.65088
 C576 C 0.36153 0.00456 0.63158
 N577 N 0.38096 0.02467 0.63178
 N578 N 0.40118 0.02460 0.65067
 C579 C 0.40275 0.00441 0.67003
 N580 N 0.38311 -0.01564 0.66978
 C581 C 0.34044 0.00408 0.61053
 C582 C 0.32319 0.00358 0.59240
 C583 C 0.30323 0.00283 0.57030
 N584 N 0.30236 0.02328 0.55132
 N585 N 0.28472 0.02202 0.53007
 C586 C 0.26721 0.00031 0.52701
 N587 N 0.26829 -0.02016 0.54615
 N588 N 0.28592 -0.01891 0.56741
   
