data_POSCAR
  _audit_creation_date              2014-09-24
  _audit_creation_method            'ToBaCCo'
  _symmetry_space_group_name_H-M    'P1'
  _symmetry_Int_Tables_number       1
  _symmetry_cell_setting            triclinic
  loop_
  _symmetry_equiv_pos_as_xyz
 x,y,z
_cell_length_a 35.3568
_cell_length_b 36.0367
_cell_length_c 36.6170
_cell_angle_alpha 91.312100
_cell_angle_beta 88.694800
_cell_angle_gamma 88.234200
loop_
  _atom_site_label
  _atom_site_type_symbol
  _atom_site_fract_x
  _atom_site_fract_y
  _atom_site_fract_z
C1 C 0.19948 0.52672 1.04798
 H2 H 0.20437 0.55072 1.03150
 C3 C 0.17554 0.53004 1.07879
 H4 H 0.16213 0.55689 1.08477
 C5 C 0.20945 0.46246 1.05735
 H6 H 0.22222 0.43606 1.04846
 C7 C 0.18481 0.46422 1.08775
 H8 H 0.17967 0.43887 1.10214
 N9 N 0.21653 0.49354 1.03836
 C10 C 0.30475 0.53116 0.96416
 H11 H 0.29998 0.51246 0.94131
 C12 C 0.33299 0.55717 0.96164
 H13 H 0.34906 0.55872 0.93627
 C14 C 0.28878 0.55168 1.02464
 H15 H 0.27226 0.54875 1.04951
 C16 C 0.31690 0.57806 1.02337
 H17 H 0.32133 0.59552 1.04726
 Zn18 Zn 0.24748 0.49103 0.99552
 N19 N 0.28308 0.52910 0.99513
 C20 C 0.21505 0.52536 0.93394
 N21 N 0.21540 0.49494 0.95526
 C22 C 0.19221 0.46626 0.94875
 C23 C 0.16861 0.46665 0.91876
 C24 C 0.19143 0.52717 0.90395
 C25 C 0.29741 0.43689 1.02118
 C26 C 0.32266 0.40640 1.01891
 C27 C 0.30401 0.39528 0.95665
 C28 C 0.27883 0.42584 0.96025
 N29 N 0.27611 0.44597 0.99213
 H30 H 0.23285 0.54837 0.94027
 H31 H 0.19249 0.44280 0.96668
 H32 H 0.15033 0.44356 0.91405
 H33 H 0.19148 0.55149 0.88712
 H34 H 0.29541 0.45397 1.04588
 H35 H 0.33962 0.40003 1.04235
 H36 H 0.30676 0.38098 0.93041
 H37 H 0.26290 0.43448 0.93693
 C38 C 0.33973 0.58084 0.99168
 C39 C 0.16764 0.49845 1.09941
 C40 C 0.32669 0.38534 0.98617
 C41 C 0.16832 0.49728 0.89576
 C42 C 0.81806 0.54030 -0.03058
 H43 H 0.81709 0.55440 -0.00415
 C44 C 0.84568 0.54893 -0.05650
 H45 H 0.86552 0.57024 -0.04998
 C46 C 0.79352 0.49488 -0.07065
 H47 H 0.77370 0.47320 -0.07563
 C48 C 0.82065 0.50277 -0.09751
 H49 H 0.82148 0.48705 -0.12310
 N50 N 0.79305 0.51338 -0.03783
 C51 C 0.69985 0.53405 0.04002
 H52 H 0.70123 0.50860 0.05510
 C53 C 0.66938 0.55916 0.04586
 H54 H 0.64796 0.55321 0.06629
 C55 C 0.72558 0.57176 -0.00595
 H56 H 0.74674 0.57586 -0.02709
 C57 C 0.69562 0.59770 -0.00091
 H58 H 0.69429 0.62176 -0.01807
 Zn59 Zn 0.76090 0.50053 0.00140
 N60 N 0.72671 0.54032 0.01394
 C61 C 0.79089 0.50761 0.07306
 N62 N 0.79256 0.48842 0.04060
 C63 C 0.81971 0.46159 0.03340
 C64 C 0.84723 0.45367 0.05898
 C65 C 0.81799 0.50057 0.09952
 C66 C 0.70407 0.46693 -0.03691
 C67 C 0.67639 0.44110 -0.04375
 C68 C 0.70543 0.40072 0.00010
 C69 C 0.73242 0.42754 0.00639
 N70 N 0.73082 0.46013 -0.01164
 H71 H 0.76944 0.52926 0.07798
 H72 H 0.82051 0.44698 0.00723
 H73 H 0.86861 0.43227 0.05245
 H74 H 0.81705 0.51689 0.12475
 H75 H 0.70325 0.49325 -0.05054
 H76 H 0.65466 0.44750 -0.06320
 H77 H 0.70604 0.37559 0.01577
 H78 H 0.75342 0.42298 0.02691
 C79 C 0.66632 0.59087 0.02434
 C80 C 0.84780 0.52941 -0.09016
 C81 C 0.67622 0.40799 -0.02430
 C82 C 0.84725 0.47399 0.09219
 C83 C -0.04522 0.30612 0.48035
 H84 H -0.06626 0.30611 0.50228
 C85 C -0.05023 0.32969 0.45104
 H86 H -0.07534 0.34746 0.45189
 C87 C 0.01369 0.28372 0.45556
 H88 H 0.03883 0.26617 0.45782
 C89 C 0.01008 0.30714 0.42580
 H90 H 0.03272 0.30660 0.40536
 N91 N -0.01381 0.28367 0.48207
 C92 C -0.04890 0.19876 0.55793
 H93 H -0.02812 0.20177 0.57895
 C94 C -0.07580 0.17128 0.56062
 H95 H -0.07582 0.15411 0.58443
 C96 C -0.07359 0.21799 0.50162
 H97 H -0.07213 0.23559 0.47819
 C98 C -0.10079 0.19077 0.50307
 H99 H -0.12007 0.18812 0.48067
 Zn100 Zn -0.00882 0.25570 0.52496
 N101 N -0.04831 0.22149 0.52880
 C102 C -0.03666 0.28897 0.59250
 N103 N -0.01078 0.29044 0.56456
 C104 C 0.01363 0.31872 0.56244
 C105 C 0.01257 0.34713 0.58896
 C106 C -0.03853 0.31673 0.61987
 C107 C 0.04118 0.19901 0.49952
 C108 C 0.07250 0.17450 0.50009
 C109 C 0.09630 0.20996 0.55087
 C110 C 0.06429 0.23362 0.54952
 N111 N 0.03739 0.22760 0.52428
 H112 H -0.05625 0.26660 0.59345
 H113 H 0.03359 0.31948 0.53964
 H114 H 0.03201 0.36958 0.58617
 H115 H -0.05900 0.31435 0.64198
 H116 H 0.01917 0.19461 0.47998
 H117 H 0.07418 0.15141 0.48062
 H118 H 0.11716 0.21586 0.57112
 H119 H 0.06063 0.25628 0.56923
 C120 C -0.10192 0.16650 0.53258
 C121 C -0.02225 0.33090 0.42293
 C122 C 0.10041 0.17921 0.52648
 C123 C -0.01404 0.34677 0.61808
 C124 C 0.96933 0.69998 0.51820
 H125 H 0.95567 0.69315 0.49293
 C126 C 0.96369 0.67784 0.54839
 H127 H 0.94549 0.65438 0.54581
 C128 C 1.01272 0.73633 0.55052
 H129 H 1.03245 0.75857 0.55107
 C130 C 1.00806 0.71466 0.58144
 H131 H 1.02406 0.72076 0.60561
 N132 N 0.99314 0.72887 0.51976
 C133 C 0.96035 0.82179 0.45954
 H134 H 0.98817 0.83220 0.45401
 C135 C 0.92889 0.84625 0.45969
 H136 H 0.93298 0.87537 0.45469
 C137 C 0.92127 0.77165 0.47361
 H138 H 0.91822 0.74266 0.47914
 C139 C 0.88912 0.79515 0.47424
 H140 H 0.86174 0.78366 0.47989
 Zn141 Zn 1.00002 0.75468 0.47555
 N142 N 0.95623 0.78545 0.46774
 C143 C 0.98295 0.71446 0.40990
 N144 N 1.00648 0.71734 0.43866
 C145 C 1.03317 0.69050 0.44511
 C146 C 1.03597 0.65839 0.42320
 C147 C 0.98494 0.68271 0.38704
 C148 C 1.04324 0.81320 0.50267
 C149 C 1.07374 0.83682 0.50439
 C150 C 1.10478 0.80078 0.45539
 C151 C 1.07350 0.77797 0.45445
 N152 N 1.04348 0.78454 0.47784
 H153 H 0.96167 0.73602 0.40560
 H154 H 1.05126 0.69342 0.46837
 H155 H 1.05703 0.63713 0.42929
 H156 H 0.96520 0.68009 0.36502
 H157 H 1.01889 0.81813 0.52076
 H158 H 1.07242 0.85981 0.52399
 H159 H 1.12838 0.79435 0.43682
 H160 H 1.07320 0.75520 0.43477
 C161 C 0.89288 0.83327 0.46854
 C162 C 0.98312 0.68506 0.58064
 C163 C 1.10499 0.83115 0.48027
 C164 C 1.01089 0.65367 0.39439
 C165 C 0.45052 -0.01082 0.30439
 H166 H 0.47415 -0.03048 0.30596
 C167 C 0.42169 -0.01016 0.33122
 H168 H 0.42348 -0.02964 0.35323
 C169 C 0.42077 0.03947 0.27468
 H170 H 0.42071 0.05933 0.25308
 C171 C 0.39113 0.04075 0.30051
 H172 H 0.36835 0.06094 0.29714
 N173 N 0.44981 0.01409 0.27709
 C174 C 0.51789 -0.02058 0.18199
 H175 H 0.53389 0.00442 0.17997
 C176 C 0.52012 -0.04697 0.15369
 H177 H 0.53905 -0.04191 0.13088
 C178 C 0.47527 -0.05689 0.21556
 H179 H 0.45735 -0.06016 0.23952
 C180 C 0.47758 -0.08479 0.18823
 H181 H 0.46113 -0.10938 0.19166
 Zn182 Zn 0.49207 0.01580 0.24446
 N183 N 0.49511 -0.02545 0.21171
 C184 C 0.56279 -0.01142 0.26763
 N185 N 0.53645 0.01669 0.27218
 C186 C 0.54011 0.04378 0.29817
 C187 C 0.57126 0.04316 0.32097
 C188 C 0.59421 -0.01327 0.28994
 C189 C 0.46008 0.05620 0.18945
 C190 C 0.45685 0.08324 0.16310
 C191 C 0.50999 0.11387 0.18940
 C192 C 0.51231 0.08597 0.21529
 N193 N 0.48753 0.05786 0.21474
 H194 H 0.55892 -0.03319 0.24742
 H195 H 0.51840 0.06547 0.30162
 H196 H 0.57341 0.06482 0.34173
 H197 H 0.61365 -0.03689 0.28654
 H198 H 0.44148 0.03291 0.18900
 H199 H 0.43580 0.07993 0.14242
 H200 H 0.53028 0.13576 0.18983
 H201 H 0.53457 0.08626 0.23501
 C202 C 0.49919 -0.07953 0.15596
 C203 C 0.39170 0.01639 0.33000
 C204 C 0.48210 0.11262 0.16265
 C205 C 0.59881 0.01421 0.31724
 C206 C 0.54776 -0.03865 0.69272
 H207 H 0.52546 -0.05764 0.68682
 C208 C 0.57713 -0.03411 0.66714
 H209 H 0.57706 -0.04991 0.64164
 C210 C 0.57364 0.00609 0.73248
 H211 H 0.57204 0.02214 0.75774
 C212 C 0.60377 0.01110 0.70800
 H213 H 0.62520 0.03029 0.71577
 N214 N 0.54618 -0.01816 0.72437
 C215 C 0.47910 -0.06658 0.81094
 H216 H 0.45783 -0.04453 0.81486
 C217 C 0.48070 -0.09563 0.83533
 H218 H 0.46025 -0.09556 0.85779
 C219 C 0.53251 -0.09179 0.77776
 H220 H 0.55298 -0.08972 0.75556
 C221 C 0.53515 -0.12159 0.80160
 H222 H 0.55728 -0.14258 0.79668
 Zn223 Zn 0.50306 -0.02092 0.75580
 N224 N 0.50492 -0.06494 0.78305
 C225 C 0.43263 -0.04564 0.73046
 N226 N 0.45901 -0.01920 0.72697
 C227 C 0.45571 0.00733 0.70134
 C228 C 0.42539 0.00743 0.67744
 C229 C 0.40163 -0.04629 0.70751
 C230 C 0.52722 0.01440 0.81837
 C231 C 0.52855 0.04102 0.84640
 C232 C 0.48034 0.07729 0.81635
 C233 C 0.47956 0.04955 0.78894
 N234 N 0.50290 0.01890 0.79048
 H235 H 0.43573 -0.06672 0.75074
 H236 H 0.47725 0.02786 0.69881
 H237 H 0.42400 0.02835 0.65672
 H238 H 0.38108 -0.06742 0.71169
 H239 H 0.54556 -0.01016 0.81887
 H240 H 0.54833 0.03687 0.86819
 H241 H 0.46156 0.10151 0.81502
 H242 H 0.46028 0.05247 0.76662
 C243 C 0.50942 -0.12341 0.83142
 C244 C 0.60534 -0.00831 0.67417
 C245 C 0.50467 0.07280 0.84582
 C246 C 0.39801 -0.02003 0.67981
 Si247 Si 0.25105 0.00096 0.51042
 Si248 Si 0.74112 0.00927 0.49107
 Si249 Si 0.51665 0.24902 0.99015
 Si250 Si 0.49289 0.74605 0.01138
 Si251 Si 1.00304 0.47301 0.25447
 Si252 Si 0.00678 0.53605 0.74431
 C253 C 0.16559 0.09886 0.50146
 C254 C 0.18777 0.09558 0.53255
 N255 N 0.18203 0.12019 0.56087
 C256 C 0.15500 0.14785 0.55967
 C257 C 0.13233 0.15122 0.52855
 N258 N 0.13861 0.12636 0.50025
 N259 N 0.17050 0.07376 0.47343
 C260 C 0.19645 0.04530 0.47523
 C261 C 0.21852 0.04178 0.50639
 N262 N 0.21373 0.06708 0.53443
 H263 H 0.15084 0.16603 0.58334
 H264 H 0.19945 0.02528 0.45277
 C265 C 0.60233 0.67435 0.01708
 C266 C 0.56675 0.65933 0.02363
 N267 N 0.56429 0.62291 0.03147
 C268 C 0.59584 0.60059 0.03294
 C269 C 0.63172 0.61525 0.02597
 N270 N 0.63393 0.65197 0.01809
 N271 N 0.60461 0.71095 0.00938
 C272 C 0.57280 0.73312 0.00774
 C273 C 0.53722 0.71783 0.01355
 N274 N 0.53512 0.68131 0.02158
 H275 H 0.59267 0.57145 0.03827
 H276 H 0.57524 0.76221 0.00171
 C277 C 0.83084 -0.08199 0.46110
 C278 C 0.80333 -0.08744 0.48854
 N279 N 0.80444 -0.11921 0.50768
 C280 C 0.83202 -0.14574 0.50090
 C281 C 0.86025 -0.14014 0.47396
 N282 N 0.85879 -0.10820 0.45470
 N283 N 0.82975 -0.05010 0.44203
 C284 C 0.80259 -0.02324 0.44948
 C285 C 0.77571 -0.02830 0.47754
 N286 N 0.77662 -0.06040 0.49636
 H287 H 0.83262 -0.17023 0.51743
 H288 H 0.80252 0.00215 0.43424
 C289 C 0.41549 0.33142 1.00315
 C290 C 0.41603 0.30399 0.97531
 N291 N 0.38664 0.30243 0.95217
 C292 C 0.35699 0.32742 0.95524
 C293 C 0.35681 0.35568 0.98259
 N294 N 0.38619 0.35646 1.00598
 N295 N 0.44454 0.33300 1.02661
 C296 C 0.47438 0.30846 1.02332
 C297 C 0.47539 0.28145 0.99510
 N298 N 0.44605 0.27958 0.97177
 H299 H 0.33395 0.32493 0.93656
 H300 H 0.49729 0.31026 1.04233
 C301 C 0.81511 0.11052 0.50813
 C302 C 0.82134 0.07807 0.52779
 N303 N 0.85164 0.07533 0.54975
 C304 C 0.87623 0.10348 0.55280
 C305 C 0.87047 0.13608 0.53274
 N306 N 0.83971 0.13854 0.51099
 N307 N 0.78542 0.11293 0.48536
 C308 C 0.76192 0.08408 0.48098
 C309 C 0.76850 0.05130 0.50014
 N310 N 0.79801 0.04916 0.52330
 H311 H 0.90060 0.09958 0.56970
 H312 H 0.73902 0.08651 0.46204
 C313 C 0.39537 0.66454 0.01229
 C314 C 0.42755 0.65840 -0.01039
 N315 N 0.43070 0.62732 -0.03193
 C316 C 0.40301 0.60203 -0.03201
 C317 C 0.37039 0.60805 -0.00951
 N318 N 0.36764 0.63931 0.01224
 N319 N 0.39250 0.69556 0.03410
 C320 C 0.42059 0.72056 0.03444
 C321 C 0.45299 0.71412 0.01206
 N322 N 0.45547 0.68330 -0.01006
 H323 H 0.40705 0.57717 -0.04890
 H324 H 0.41747 0.74517 0.05181
 C325 C 0.16788 -0.09435 0.51275
 C326 C 0.19197 -0.08985 0.48232
 N327 N 0.18822 -0.11179 0.45212
 C328 C 0.16133 -0.13797 0.45077
 C329 C 0.13668 -0.14248 0.48112
 N330 N 0.14093 -0.12034 0.51139
 N331 N 0.17086 -0.07171 0.54263
 C332 C 0.19661 -0.04443 0.54327
 C333 C 0.22037 -0.03957 0.51268
 N334 N 0.21756 -0.06250 0.48288
 H335 H 0.15867 -0.15400 0.42574
 H336 H 0.19790 -0.02616 0.56706
 C337 C 0.62001 0.32232 0.97688
 C338 C 0.58295 0.33734 0.97636
 N339 N 0.57709 0.37450 0.97368
 C340 C 0.60666 0.39757 0.97189
 C341 C 0.64396 0.38292 0.97346
 N342 N 0.64968 0.34544 0.97589
 N343 N 0.62560 0.28495 0.97920
 C344 C 0.59571 0.26207 0.98174
 C345 C 0.55873 0.27740 0.98296
 N346 N 0.55333 0.31465 0.97970
 H347 H 0.60096 0.42719 0.97076
 H348 H 0.60077 0.23242 0.98363
 C349 C 0.51515 0.17991 1.09409
 C350 C 0.48264 0.18555 1.07346
 N351 N 0.44996 0.16959 1.08360
 C352 C 0.44844 0.14735 1.11300
 C353 C 0.48142 0.13998 1.13290
 N354 N 0.51389 0.15712 1.12310
 N355 N 0.54765 0.19657 1.08418
 C356 C 0.54920 0.21820 1.05419
 C357 C 0.51697 0.22271 1.03285
 N358 N 0.48439 0.20648 1.04326
 H359 H 0.42170 0.13556 1.12044
 H360 H 0.57538 0.23114 1.04700
 C361 C 0.00932 0.62893 0.66065
 C362 C -0.02368 0.60915 0.66702
 N363 N -0.05454 0.61596 0.64660
 C364 C -0.05371 0.64113 0.61954
 C365 C -0.02025 0.66018 0.61215
 N366 N 0.01030 0.65382 0.63342
 N367 N 0.04033 0.62183 0.68081
 C368 C 0.03996 0.59555 0.70687
 C369 C 0.00717 0.57534 0.71286
 N370 N -0.02394 0.58266 0.69276
 H371 H -0.07889 0.64599 0.60390
 H372 H 0.06540 0.58979 0.72184
 C373 C 0.48345 0.81830 -0.08987
 C374 C 0.51730 0.79842 -0.08353
 N375 N 0.54777 0.80297 -0.10605
 C376 C 0.54608 0.82677 -0.13440
 C377 C 0.51227 0.84734 -0.14053
 N378 N 0.48184 0.84210 -0.11793
 N379 N 0.45314 0.81470 -0.06701
 C380 C 0.45527 0.79237 -0.03773
 C381 C 0.48920 0.77285 -0.03092
 N382 N 0.51954 0.77611 -0.05411
 H383 H 0.57135 0.83038 -0.15090
 H384 H 0.43089 0.79043 -0.01952
 C385 C 1.00526 0.38423 0.34293
 C386 C 0.97258 0.40605 0.33721
 N387 N 0.94159 0.40199 0.35900
 C388 C 0.94180 0.37749 0.38670
 C389 C 0.97493 0.35574 0.39340
 N390 N 1.00561 0.35979 0.37060
 N391 N 1.03648 0.38853 0.32136
 C392 C 1.03647 0.41383 0.29434
 C393 C 1.00375 0.43581 0.28862
 N394 N 0.97254 0.43139 0.31033
 H395 H 0.91596 0.37522 0.40254
 H396 H 1.06205 0.41726 0.27821
 C397 C 0.49020 0.83191 0.10623
 C398 C 0.49966 0.84172 0.07042
 N399 N 0.50888 0.87706 0.06343
 C400 C 0.50938 0.90323 0.09063
 C401 C 0.49956 0.89393 0.12692
 N402 N 0.48982 0.85823 0.13343
 N403 N 0.48220 0.79608 0.11327
 C404 C 0.48301 0.76975 0.08594
 C405 C 0.49130 0.77996 0.04995
 N406 N 0.49967 0.81571 0.04315
 H407 H 0.51579 0.93122 0.08325
 H408 H 0.47695 0.74131 0.09217
 C409 C 0.01320 0.43132 0.67034
 C410 C -0.01875 0.43897 0.69296
 N411 N -0.04849 0.41611 0.69151
 C412 C -0.04784 0.38596 0.66840
 C413 C -0.01582 0.37811 0.64545
 N414 N 0.01386 0.40130 0.64731
 N415 N 0.04270 0.45452 0.67107
 C416 C 0.04156 0.48525 0.69331
 C417 C 0.00956 0.49309 0.71581
 N418 N -0.01992 0.46968 0.71523
 H419 H -0.07260 0.36918 0.66751
 H420 H 0.06525 0.50358 0.69319
 C421 C 0.50514 0.16393 0.89590
 C422 C 0.50976 0.15267 0.93203
 N423 N 0.51157 0.11600 0.93946
 C424 C 0.50941 0.08990 0.91233
 C425 C 0.50529 0.10086 0.87594
 N426 N 0.50288 0.13782 0.86868
 N427 N 0.50376 0.20077 0.88863
 C428 C 0.50689 0.22680 0.91589
 C429 C 0.51154 0.21542 0.95193
 N430 N 0.51279 0.17859 0.95910
 H431 H 0.51076 0.06084 0.91918
 H432 H 0.50586 0.25599 0.90952
 C433 C 1.00240 0.58488 0.31761
 C434 C 1.00914 0.55123 0.33529
 N435 N 1.01621 0.55154 0.37151
 C436 C 1.01710 0.58402 0.39096
 C437 C 1.01054 0.61797 0.37349
 N438 N 1.00301 0.61744 0.33710
 N439 N 0.99566 0.58438 0.28121
 C440 C 0.99546 0.55173 0.26173
 C441 C 1.00207 0.51814 0.27951
 N442 N 1.00870 0.51873 0.31592
 H443 H 1.02223 0.58320 0.41995
 H444 H 0.99021 0.55196 0.23273
 C445 C 1.10039 0.46807 0.16917
 C446 C 1.08914 0.50169 0.18674
 N447 N 1.10480 0.53365 0.17605
 C448 C 1.13081 0.53374 0.14811
 C449 C 1.14205 0.50004 0.12977
 N450 N 1.12662 0.46803 0.14156
 N451 N 1.08362 0.43624 0.17881
 C452 C 1.05584 0.43662 0.20513
 C453 C 1.04473 0.47023 0.22294
 N454 N 1.06166 0.50205 0.21325
 H455 H 1.14291 0.55989 0.14127
 H456 H 1.04203 0.41111 0.21154
 C457 C 0.66503 -0.01943 0.58905
 C458 C 0.68599 0.01299 0.58969
 N459 N 0.68125 0.03748 0.61819
 C460 C 0.65639 0.03122 0.64609
 C461 C 0.63495 -0.00125 0.64565
 N462 N 0.64015 -0.02571 0.61685
 N463 N 0.66883 -0.04343 0.55999
 C464 C 0.69242 -0.03625 0.53134
 C465 C 0.71313 -0.00365 0.53180
 N466 N 0.70950 0.02024 0.56105
 H467 H 0.65283 0.05218 0.66751
 H468 H 0.69436 -0.05537 0.50810
 C469 C -0.09667 0.53429 0.82246
 C470 C -0.06025 0.54046 0.83526
 N471 N -0.05469 0.54410 0.87163
 C472 C -0.08392 0.54168 0.89602
 C473 C -0.12052 0.53490 0.88357
 N474 N -0.12592 0.53131 0.84687
 N475 N -0.10192 0.53062 0.78589
 C476 C -0.07224 0.53240 0.76163
 C477 C -0.03571 0.53755 0.77465
 N478 N -0.03075 0.54164 0.81117
 H479 H -0.07826 0.54379 0.92489
 H480 H -0.07695 0.52899 0.73267
 C481 C 0.33370 -0.00854 0.41174
 C482 C 0.31011 0.02317 0.41742
 N483 N 0.31304 0.05198 0.39450
 C484 C 0.33845 0.05064 0.36604
 C485 C 0.36224 0.01876 0.35989
 N486 N 0.35904 -0.00999 0.38328
 N487 N 0.33148 -0.03702 0.43526
 C488 C 0.30676 -0.03511 0.46431
 C489 C 0.28313 -0.00342 0.46995
 N490 N 0.28537 0.02506 0.44634
 H491 H 0.34040 0.07478 0.34929
 H492 H 0.30573 -0.05797 0.48294
 C493 C 0.10057 0.53411 0.82862
 C494 C 0.09269 0.50205 0.80800
 N495 N 0.11044 0.46930 0.81558
 C496 C 0.13538 0.46701 0.84320
 C497 C 0.14292 0.49894 0.86433
 N498 N 0.12551 0.53185 0.85613
 N499 N 0.08192 0.56661 0.82184
 C500 C 0.05538 0.56841 0.79562
 C501 C 0.04732 0.53634 0.77516
 N502 N 0.06622 0.50386 0.78182
 H503 H 0.14917 0.44053 0.84855
 H504 H 0.04003 0.59436 0.79141
 C505 C 0.65291 0.02646 0.40243
 C506 C 0.68561 0.00423 0.39511
 N507 N 0.69047 -0.01298 0.36194
 C508 C 0.66381 -0.00958 0.33592
 C509 C 0.63023 0.01168 0.34352
 N510 N 0.62610 0.02949 0.37668
 N511 N 0.64807 0.04401 0.43546
 C512 C 0.67438 0.04005 0.46168
 C513 C 0.70672 0.01725 0.45468
 N514 N 0.71170 -0.00012 0.42146
 H515 H 0.66910 -0.02332 0.30969
 H516 H 0.66981 0.05409 0.48793
 C517 C 0.90130 0.47279 0.17852
 C518 C 0.93822 0.46466 0.16522
 N519 N 0.94467 0.45875 0.12891
 C520 C 0.91588 0.46069 0.10507
 C521 C 0.87871 0.46925 0.11801
 N522 N 0.87245 0.47518 0.15465
 N523 N 0.89516 0.47901 0.21499
 C524 C 0.92440 0.47782 0.23862
 C525 C 0.96137 0.47047 0.22508
 N526 N 0.96728 0.46395 0.18867
 H527 H 0.92234 0.45680 0.07621
 H528 H 0.91899 0.48344 0.26746
 C529 C 0.33348 0.00830 0.60535
 C530 C 0.31253 -0.02366 0.59970
 N531 N 0.31902 -0.05365 0.62061
 C532 C 0.34557 -0.05330 0.64691
 C533 C 0.36696 -0.02129 0.65280
 N534 N 0.36002 0.00871 0.63158
 N535 N 0.32787 0.03795 0.58369
 C536 C 0.30245 0.03692 0.55638
 C537 C 0.28165 0.00488 0.55053
 N538 N 0.28715 -0.02474 0.57239
 H539 H 0.35039 -0.07830 0.66201
 H540 H 0.29904 0.06060 0.53896
   
