data_POSCAR
  _audit_creation_date              2014-09-24
  _audit_creation_method            'ToBaCCo'
  _symmetry_space_group_name_H-M    'P1'
  _symmetry_Int_Tables_number       1
  _symmetry_cell_setting            triclinic
  loop_
  _symmetry_equiv_pos_as_xyz
 x,y,z
_cell_length_a 29.0143
_cell_length_b 29.0748
_cell_length_c 23.9169
_cell_angle_alpha 89.946000
_cell_angle_beta 89.917600
_cell_angle_gamma 89.286300
loop_
  _atom_site_label
  _atom_site_type_symbol
  _atom_site_fract_x
  _atom_site_fract_y
  _atom_site_fract_z
O1 O 0.02719 0.31410 -0.05267
 O2 O -0.05201 0.27108 0.05575
 O3 O 0.02660 0.31361 0.05707
 O4 O -0.05150 0.27224 -0.05292
 O5 O -0.01450 0.20535 -0.05352
 O6 O 0.06410 0.24698 0.05501
 O7 O -0.01406 0.20477 0.05681
 O8 O 0.06401 0.24708 -0.05221
 Cu9 Cu -0.01611 0.29954 0.00191
 Cu10 Cu 0.02828 0.21912 0.00148
 C11 C 0.05902 0.28767 -0.07088
 C12 C -0.04613 0.23078 0.07524
 C13 C 0.05874 0.28724 0.07452
 C14 C -0.04596 0.23192 -0.07226
 O15 O 0.44907 0.77415 0.55300
 O16 O 0.52859 0.81443 0.44342
 O17 O 0.44906 0.77394 0.44403
 O18 O 0.52864 0.81439 0.55317
 O19 O 0.56436 0.74680 0.55205
 O20 O 0.48501 0.70650 0.44352
 O21 O 0.56429 0.74683 0.44471
 O22 O 0.48504 0.70672 0.55382
 Cu23 Cu 0.48528 0.80107 0.49838
 Cu24 Cu 0.52790 0.71971 0.49851
 C25 C 0.45399 0.73379 0.57254
 C26 C 0.55999 0.78734 0.42555
 C27 C 0.45393 0.73350 0.42478
 C28 C 0.56002 0.78732 0.57109
 O29 O 1.05878 0.72475 0.05288
 O30 O 0.98025 0.68275 -0.05648
 O31 O 1.05876 0.72525 -0.05569
 O32 O 0.98027 0.68217 0.05336
 O33 O 0.94271 0.74877 0.05244
 O34 O 1.02081 0.79156 -0.05637
 O35 O 0.94266 0.74932 -0.05478
 O36 O 1.02086 0.79107 0.05425
 Cu37 Cu 1.02320 0.69697 -0.00153
 Cu38 Cu 0.97837 0.77711 -0.00105
 C39 C 1.05282 0.76490 0.07266
 C40 C 0.94811 0.70903 -0.07416
 C41 C 1.05278 0.76554 -0.07509
 C42 C 0.94813 0.70831 0.07136
 O43 O 0.47760 0.17960 0.44561
 O44 O 0.55644 0.22095 0.55497
 O45 O 0.47717 0.17997 0.55525
 O46 O 0.55679 0.22072 0.44597
 O47 O 0.52030 0.28787 0.44484
 O48 O 0.44107 0.24736 0.55373
 O49 O 0.52006 0.28817 0.55509
 O50 O 0.44138 0.24693 0.44645
 Cu51 Cu 0.52064 0.19350 0.50050
 Cu52 Cu 0.47742 0.27455 0.49998
 C53 C 0.44602 0.20638 0.42760
 C54 C 0.55124 0.26141 0.57406
 C55 C 0.44554 0.20688 0.57293
 C56 C 0.55164 0.26103 0.42635
 O57 O 0.72867 -0.05705 0.05217
 O58 O 0.68658 0.02457 -0.05494
 O59 O 0.72796 -0.05568 -0.05701
 O60 O 0.68760 0.02280 0.05427
 O61 O 0.75483 0.05771 0.05220
 O62 O 0.79550 -0.02141 -0.05749
 O63 O 0.75443 0.05821 -0.05514
 O64 O 0.79582 -0.02205 0.05295
 Cu65 Cu 0.70093 -0.01989 -0.00147
 Cu66 Cu 0.78216 0.02119 -0.00193
 C67 C 0.76908 -0.05277 0.07156
 C68 C 0.71342 0.05545 -0.07306
 C69 C 0.76840 -0.05152 -0.07655
 C70 C 0.71447 0.05373 0.07192
 O71 O 0.22661 0.44544 0.55491
 O72 O 0.18590 0.52518 0.44499
 O73 O 0.22665 0.44488 0.44590
 O74 O 0.18594 0.52579 0.55461
 O75 O 0.25360 0.55987 0.55318
 O76 O 0.29410 0.47930 0.44486
 O77 O 0.25352 0.55936 0.44580
 O78 O 0.29409 0.47981 0.55521
 Cu79 Cu 0.19945 0.48190 0.50015
 Cu80 Cu 0.28083 0.52265 0.49971
 C81 C 0.26707 0.44950 0.57422
 C82 C 0.21291 0.55588 0.42685
 C83 C 0.26713 0.44878 0.42641
 C84 C 0.21296 0.55662 0.57225
 O85 O 0.27549 1.05354 0.05447
 O86 O 0.31680 0.97393 -0.05529
 O87 O 0.27527 1.05393 -0.05420
 O88 O 0.31699 0.97348 0.05441
 O89 O 0.24976 0.93858 0.05328
 O90 O 0.20835 1.01859 -0.05512
 O91 O 0.24960 0.93896 -0.05389
 O92 O 0.20857 1.01821 0.05561
 Cu93 Cu 0.30294 1.01717 -0.00016
 Cu94 Cu 0.22206 0.97551 -0.00001
 C95 C 0.23516 1.04902 0.07425
 C96 C 0.29012 0.94287 -0.07311
 C97 C 0.23488 1.04954 -0.07370
 C98 C 0.29035 0.94230 0.07216
 O99 O 0.77956 0.54936 0.55394
 O100 O 0.82052 0.46934 0.44462
 O101 O 0.77948 0.54941 0.44486
 O102 O 0.82032 0.46913 0.55413
 O103 O 0.75270 0.43494 0.55308
 O104 O 0.71206 0.51493 0.44432
 O105 O 0.75292 0.43511 0.44586
 O106 O 0.71214 0.51487 0.55476
 Cu107 Cu 0.80678 0.51278 0.49939
 Cu108 Cu 0.72542 0.47191 0.49950
 C109 C 0.73914 0.54524 0.57349
 C110 C 0.79355 0.43856 0.42681
 C111 C 0.73905 0.54531 0.42545
 C112 C 0.79332 0.43832 0.57202
 O113 O 0.21564 0.18356 0.25228
 O114 O 0.24384 0.29337 0.32041
 O115 O 0.18042 0.26615 0.25308
 O116 O 0.28032 0.21163 0.32204
 O117 O 0.32432 0.22803 0.24931
 O118 O 0.22415 0.28168 0.17981
 O119 O 0.28861 0.31061 0.24876
 O120 O 0.26132 0.20043 0.18133
 Cu121 Cu 0.22573 0.23651 0.29424
 Cu122 Cu 0.27902 0.25727 0.20760
 C123 C 0.23322 0.17359 0.20501
 C124 C 0.27127 0.32056 0.29613
 C125 C 0.18533 0.28264 0.20439
 C126 C 0.31926 0.21113 0.29778
 O127 O 0.76286 0.69967 0.31793
 O128 O 0.79026 0.81001 0.25055
 O129 O 0.72582 0.78104 0.31988
 O130 O 0.82624 0.72764 0.25041
 O131 O 0.78265 0.71176 0.17733
 O132 O 0.68218 0.76500 0.24689
 O133 O 0.74538 0.79289 0.17914
 O134 O 0.71810 0.68252 0.24642
 Cu135 Cu 0.78065 0.75667 0.29195
 Cu136 Cu 0.72769 0.73592 0.20522
 C137 C 0.73543 0.67254 0.29376
 C138 C 0.77290 0.81999 0.20322
 C139 C 0.68699 0.78165 0.29548
 C140 C 0.82148 0.71118 0.20173
 O141 O 0.81805 0.20870 0.25119
 O142 O 0.70745 0.23732 0.31949
 O143 O 0.73585 0.17417 0.25141
 O144 O 0.78881 0.27300 0.32119
 O145 O 0.77154 0.31746 0.24893
 O146 O 0.71955 0.21836 0.17859
 O147 O 0.68941 0.28248 0.24822
 O148 O 0.80041 0.25481 0.18067
 Cu149 Cu 0.76470 0.21889 0.29306
 Cu150 Cu 0.74304 0.27273 0.20691
 C151 C 0.82785 0.22659 0.20419
 C152 C 0.67974 0.26501 0.29548
 C153 C 0.71923 0.17950 0.20281
 C154 C 0.78873 0.31196 0.29720
 O155 O 0.18756 0.78559 0.24978
 O156 O 0.29818 0.75729 0.31804
 O157 O 0.26964 0.82036 0.24990
 O158 O 0.21697 0.72134 0.32013
 O159 O 0.23434 0.67693 0.24792
 O160 O 0.28638 0.77616 0.17727
 O161 O 0.31636 0.71206 0.24694
 O162 O 0.20548 0.73963 0.17927
 Cu163 Cu 0.24086 0.77554 0.29169
 Cu164 Cu 0.26279 0.72175 0.20568
 C165 C 0.17795 0.76783 0.20272
 C166 C 0.32595 0.72959 0.29411
 C167 C 0.28650 0.81505 0.20137
 C168 C 0.21723 0.68235 0.29631
 O169 O 0.68861 0.28448 0.75183
 O170 O 0.79877 0.25547 0.82048
 O171 O 0.77113 0.31837 0.75138
 O172 O 0.71664 0.22119 0.82315
 O173 O 0.73506 0.17524 0.75271
 O174 O 0.78702 0.27321 0.67935
 O175 O 0.81694 0.20982 0.74976
 O176 O 0.70584 0.23708 0.68249
 Cu177 Cu 0.74172 0.27442 0.79383
 Cu178 Cu 0.76323 0.21930 0.70892
 C179 C 0.67861 0.26588 0.70540
 C180 C 0.82649 0.22753 0.79682
 C181 C 0.78776 0.31232 0.70286
 C182 C 0.71728 0.18171 0.80057
 O183 O 0.31659 0.71332 0.75122
 O184 O 0.20547 0.74089 0.81846
 O185 O 0.23458 0.67826 0.75003
 O186 O 0.28625 0.77748 0.82075
 O187 O 0.26996 0.82169 0.74796
 O188 O 0.21731 0.72275 0.67781
 O189 O 0.18786 0.78702 0.74796
 O190 O 0.29862 0.75848 0.67993
 Cu191 Cu 0.26288 0.72304 0.79230
 Cu192 Cu 0.24129 0.77689 0.70617
 C193 C 0.32629 0.73075 0.70396
 C194 C 0.17807 0.76916 0.79497
 C195 C 0.21750 0.68373 0.70167
 C196 C 0.28648 0.81639 0.79661
 O197 O 0.28850 0.31180 0.75269
 O198 O 0.26104 0.20143 0.81992
 O199 O 0.32397 0.22914 0.75165
 O200 O 0.22431 0.28284 0.82236
 O201 O 0.18016 0.26766 0.74955
 O202 O 0.27963 0.21315 0.67928
 O203 O 0.21506 0.18499 0.74930
 O204 O 0.24333 0.29494 0.68147
 Cu205 Cu 0.27892 0.25836 0.79382
 Cu206 Cu 0.22517 0.23811 0.70764
 C207 C 0.27098 0.32194 0.70550
 C208 C 0.23277 0.17479 0.79636
 C209 C 0.31867 0.21241 0.70319
 C210 C 0.18536 0.28392 0.79827
 O211 O 0.71825 0.68308 0.75153
 O212 O 0.74514 0.79406 0.81705
 O213 O 0.68208 0.76545 0.75002
 O214 O 0.78282 0.71311 0.81991
 O215 O 0.82627 0.72858 0.74639
 O216 O 0.72560 0.78107 0.67660
 O217 O 0.78990 0.81084 0.74520
 O218 O 0.76288 0.69986 0.67958
 Cu219 Cu 0.72771 0.73682 0.79191
 Cu220 Cu 0.78052 0.75711 0.70465
 C221 C 0.73554 0.67283 0.70423
 C222 C 0.77247 0.82112 0.79243
 C223 C 0.68680 0.78177 0.70119
 C224 C 0.82163 0.71247 0.79532
 C225 C 0.22042 0.07794 0.11730
 C226 C 0.17988 0.07312 0.14699
 C227 C 0.18000 0.10759 0.18573
 C228 C 0.22019 0.13117 0.17615
 O229 O 0.24481 0.11326 0.13480
 H230 H 0.15364 0.04739 0.14141
 H231 H 0.15346 0.11538 0.21626
 C232 C 0.72394 0.57559 0.61911
 C233 C 0.68640 0.56775 0.65310
 C234 C 0.68617 0.60287 0.69094
 C235 C 0.72334 0.62959 0.67671
 O236 O 0.74636 0.61310 0.63324
 H237 H 0.66248 0.53954 0.65093
 H238 H 0.66156 0.60871 0.72431
 C239 C 0.78453 0.91678 0.11700
 C240 C 0.82226 0.92460 0.15056
 C241 C 0.82255 0.88962 0.18866
 C242 C 0.78522 0.86298 0.17503
 O243 O 0.76205 0.87939 0.13167
 H244 H 0.84622 0.95276 0.14799
 H245 H 0.84726 0.88385 0.22187
 C246 C 0.28237 0.41911 0.61980
 C247 C 0.32014 0.42682 0.65331
 C248 C 0.32052 0.39169 0.69120
 C249 C 0.28321 0.36505 0.67750
 O250 O 0.25995 0.38162 0.63429
 H251 H 0.34413 0.45497 0.65078
 H252 H 0.34530 0.38581 0.72430
 C253 C 0.92498 0.21539 0.11767
 C254 C 0.93092 0.17474 0.14691
 C255 C 0.89589 0.17413 0.18507
 C256 C 0.87094 0.21404 0.17560
 O257 O 0.88851 0.23917 0.13490
 H258 H 0.95773 0.14891 0.14140
 H259 H 0.88871 0.14736 0.21520
 C260 C 0.42377 0.71871 0.61811
 C261 C 0.43225 0.68100 0.65178
 C262 C 0.39707 0.68088 0.68971
 C263 C 0.36966 0.71827 0.67588
 O264 O 0.38580 0.74133 0.63254
 H265 H 0.46092 0.65692 0.64934
 H266 H 0.39168 0.65623 0.72295
 C267 C 0.08147 0.77992 0.11544
 C268 C 0.07541 0.82034 0.14502
 C269 C 0.11012 0.82054 0.18351
 C270 C 0.13504 0.78063 0.17391
 O271 O 0.11774 0.75590 0.13278
 H272 H 0.04871 0.84629 0.13953
 H273 H 0.11713 0.84707 0.21394
 C274 C 0.58134 0.27700 0.61935
 C275 C 0.57297 0.31527 0.65204
 C276 C 0.60810 0.31587 0.68990
 C277 C 0.63537 0.27816 0.67701
 O278 O 0.61920 0.25446 0.63432
 H279 H 0.54442 0.33945 0.64899
 H280 H 0.61355 0.34103 0.72248
 C281 C 0.69842 0.08698 0.88699
 C282 C 0.65554 0.08773 0.86188
 C283 C 0.65656 0.12398 0.82540
 C284 C 0.69972 0.14246 0.83163
 O285 O 0.72515 0.12020 0.86866
 H286 H 0.62721 0.06455 0.86896
 H287 H 0.62932 0.13552 0.79768
 C288 C 0.19788 0.58773 0.38277
 C289 C 0.16120 0.58092 0.34720
 C290 C 0.16286 0.61642 0.30975
 C291 C 0.19981 0.64240 0.32628
 O292 O 0.22128 0.62500 0.37018
 H293 H 0.13735 0.55260 0.34728
 H294 H 0.14043 0.62232 0.27429
 C295 C 0.30538 0.91112 0.88283
 C296 C 0.34158 0.91853 0.84658
 C297 C 0.34009 0.88302 0.80921
 C298 C 0.30377 0.85640 0.82648
 O299 O 0.28248 0.87345 0.87074
 H300 H 0.36489 0.94729 0.84609
 H301 H 0.36218 0.87756 0.77327
 C302 C 0.80858 0.40656 0.38300
 C303 C 0.84525 0.41320 0.34721
 C304 C 0.84343 0.37762 0.30998
 C305 C 0.80644 0.35179 0.32689
 O306 O 0.78508 0.36934 0.37077
 H307 H 0.86914 0.44149 0.34695
 H308 H 0.86577 0.37160 0.27439
 C309 C 0.09043 0.30322 0.88518
 C310 C 0.08190 0.33919 0.84883
 C311 C 0.11741 0.33766 0.81119
 C312 C 0.14512 0.30155 0.82846
 O313 O 0.12876 0.28043 0.87292
 H314 H 0.05235 0.36228 0.84834
 H315 H 0.12209 0.35948 0.77501
 C316 C 0.59166 0.80206 0.38145
 C317 C 0.58370 0.83798 0.34482
 C318 C 0.61934 0.83586 0.30742
 C319 C 0.64654 0.79949 0.32504
 O320 O 0.62975 0.77875 0.36955
 H321 H 0.55450 0.86149 0.34411
 H322 H 0.62452 0.85758 0.27124
 C323 C 0.91694 0.69369 0.88164
 C324 C 0.92620 0.65852 0.84443
 C325 C 0.89071 0.66003 0.80690
 C326 C 0.86227 0.69528 0.82504
 O327 O 0.87818 0.71594 0.86998
 H328 H 0.95618 0.63602 0.84335
 H329 H 0.88648 0.63872 0.77024
 C330 C 0.41446 0.19126 0.38374
 C331 C 0.42254 0.15515 0.34748
 C332 C 0.38690 0.15696 0.31016
 C333 C 0.35960 0.19336 0.32749
 O334 O 0.37632 0.21439 0.37171
 H335 H 0.45181 0.13173 0.34692
 H336 H 0.38182 0.13507 0.27418
 C337 C 0.78356 0.91839 0.87757
 C338 C 0.82109 0.92641 0.84362
 C339 C 0.82149 0.89132 0.80573
 C340 C 0.78444 0.86443 0.81992
 O341 O 0.76132 0.88079 0.86338
 H342 H 0.84493 0.95468 0.84590
 H343 H 0.84617 0.88559 0.77241
 C344 C 0.28250 0.41804 0.38119
 C345 C 0.32030 0.42563 0.34754
 C346 C 0.32076 0.39032 0.30997
 C347 C 0.28346 0.36370 0.32398
 O348 O 0.26013 0.38046 0.36710
 H349 H 0.34423 0.45383 0.34972
 H350 H 0.34555 0.38435 0.27684
 C351 C 0.22002 0.07874 0.88361
 C352 C 0.17938 0.07415 0.85422
 C353 C 0.17944 0.10884 0.81570
 C354 C 0.21971 0.13229 0.82512
 O355 O 0.24442 0.11411 0.86615
 H356 H 0.15313 0.04842 0.85984
 H357 H 0.15284 0.11683 0.78541
 C358 C 0.72382 0.57564 0.37980
 C359 C 0.68617 0.56779 0.34613
 C360 C 0.68592 0.60279 0.30806
 C361 C 0.72317 0.62948 0.32183
 O362 O 0.74628 0.61308 0.36525
 H363 H 0.66221 0.53963 0.34864
 H364 H 0.66125 0.60855 0.27480
 C365 C 0.08144 0.78085 0.88221
 C366 C 0.07544 0.82145 0.85290
 C367 C 0.11022 0.82185 0.81438
 C368 C 0.13509 0.78187 0.82372
 O369 O 0.11771 0.75692 0.86469
 H370 H 0.04875 0.84738 0.85858
 H371 H 0.11732 0.84855 0.78412
 C372 C 0.58194 0.27637 0.38097
 C373 C 0.57338 0.31412 0.34739
 C374 C 0.60871 0.31454 0.30966
 C375 C 0.63628 0.27729 0.32352
 O376 O 0.62011 0.25402 0.36667
 H377 H 0.54456 0.33803 0.34974
 H378 H 0.61406 0.33928 0.27651
 C379 C 0.92396 0.21634 0.88247
 C380 C 0.93262 0.17846 0.84920
 C381 C 0.89740 0.17792 0.81145
 C382 C 0.86981 0.21525 0.82500
 O383 O 0.88585 0.23866 0.86797
 H384 H 0.96143 0.15456 0.85176
 H385 H 0.89213 0.15308 0.77847
 C386 C 0.42363 0.71819 0.37951
 C387 C 0.43211 0.68035 0.34614
 C388 C 0.39685 0.67995 0.30845
 C389 C 0.36937 0.71732 0.32213
 O390 O 0.38555 0.74064 0.36514
 H391 H 0.46085 0.65635 0.34859
 H392 H 0.39146 0.65514 0.27547
 C393 C 0.30571 0.91014 0.11571
 C394 C 0.34232 0.91689 0.15140
 C395 C 0.34080 0.88111 0.18847
 C396 C 0.30402 0.85505 0.17159
 O397 O 0.28250 0.87265 0.12786
 H398 H 0.36596 0.94539 0.15173
 H399 H 0.36315 0.87514 0.22399
 C400 C 0.80827 0.40628 0.61587
 C401 C 0.84502 0.41282 0.65143
 C402 C 0.84301 0.37741 0.68896
 C403 C 0.80583 0.35173 0.67246
 O404 O 0.78453 0.36925 0.62854
 H405 H 0.86905 0.44099 0.65138
 H406 H 0.86529 0.37144 0.72455
 C407 C 0.69961 0.08519 0.11640
 C408 C 0.66408 0.07729 0.15345
 C409 C 0.66591 0.11259 0.19104
 C410 C 0.70173 0.13957 0.17309
 O411 O 0.72242 0.12295 0.12821
 H412 H 0.64103 0.04832 0.15430
 H413 H 0.64440 0.11768 0.22758
 C414 C 0.19793 0.58886 0.61589
 C415 C 0.16080 0.58271 0.65111
 C416 C 0.16250 0.61839 0.68820
 C417 C 0.19994 0.64382 0.67186
 O418 O 0.22166 0.62592 0.62840
 H419 H 0.13659 0.55469 0.65103
 H420 H 0.13976 0.62477 0.72333
 C421 C 0.91686 0.69261 0.11535
 C422 C 0.92588 0.65707 0.15218
 C423 C 0.89028 0.65839 0.18970
 C424 C 0.86205 0.69391 0.17190
 O425 O 0.87817 0.71490 0.12722
 H426 H 0.95578 0.63446 0.15304
 H427 H 0.88587 0.63680 0.22615
 C428 C 0.41376 0.19198 0.61685
 C429 C 0.42145 0.15568 0.65299
 C430 C 0.38578 0.15768 0.69037
 C431 C 0.35884 0.19438 0.67320
 O432 O 0.37581 0.21542 0.62902
 H433 H 0.45050 0.13197 0.65343
 H434 H 0.38047 0.13571 0.72630
 C435 C 0.09008 0.30243 0.11854
 C436 C 0.08112 0.33755 0.15591
 C437 C 0.11673 0.33576 0.19326
 C438 C 0.14492 0.30042 0.17481
 O439 O 0.12875 0.27995 0.12991
 H440 H 0.05123 0.36016 0.15726
 H441 H 0.12116 0.35688 0.23005
 C442 C 0.59158 0.80204 0.61517
 C443 C 0.58339 0.83780 0.65189
 C444 C 0.61891 0.83568 0.68934
 C445 C 0.64629 0.79946 0.67165
 O446 O 0.62973 0.77882 0.62705
 H447 H 0.55409 0.86120 0.65266
 H448 H 0.62390 0.85730 0.72558
   
