data_POSCAR
  _audit_creation_date              2014-09-24
  _audit_creation_method            'ToBaCCo'
  _symmetry_space_group_name_H-M    'P1'
  _symmetry_Int_Tables_number       1
  _symmetry_cell_setting            triclinic
  loop_
  _symmetry_equiv_pos_as_xyz
 x,y,z
_cell_length_a 37.3768
_cell_length_b 37.6749
_cell_length_c 35.9914
_cell_angle_alpha 89.887700
_cell_angle_beta 89.036500
_cell_angle_gamma 88.699300
loop_
  _atom_site_label
  _atom_site_type_symbol
  _atom_site_fract_x
  _atom_site_fract_y
  _atom_site_fract_z
N1 N 0.19111 1.25836 0.15822
 N2 N 0.16576 1.25894 0.18400
 C3 C 0.14353 1.28695 0.17802
 C4 C 0.15573 1.30485 0.14671
 C5 C 0.18596 1.28599 0.13500
 H6 H 0.11981 1.29311 0.19456
 H7 H 0.20240 1.29146 0.11073
 Cu8 Cu 0.16342 1.22175 0.22148
 Cu9 Cu 0.22780 1.22081 0.15540
 Cu10 Cu 0.22376 1.15458 0.22241
 N11 N 0.16108 1.18454 0.25895
 N12 N 0.18499 1.15841 0.25917
 C13 C 0.17688 1.13566 0.28675
 C14 C 0.14605 1.14821 0.30479
 C15 C 0.13682 1.17926 0.28641
 H16 H 0.19187 1.11145 0.29244
 H17 H 0.11359 1.19615 0.29210
 N18 N 0.26092 1.15543 0.18287
 N19 N 0.26243 1.18060 0.15735
 C20 C 0.28956 1.17284 0.13339
 C21 C 0.30590 1.14141 0.14434
 C22 C 0.28703 1.13102 0.17580
 H23 H 0.29646 1.18838 0.10912
 H24 H 0.29120 1.10697 0.19168
 H25 H 0.19786 1.18191 0.18047
 H26 H 0.22689 1.20825 0.21113
 N27 N 0.82257 0.74113 0.15906
 N28 N 0.84984 0.74561 0.18101
 C29 C 0.87439 0.71948 0.17478
 C30 C 0.86179 0.69756 0.14729
 C31 C 0.82887 0.71209 0.13802
 H32 H 0.89985 0.71728 0.18848
 H33 H 0.81138 0.70282 0.11665
 Cu34 Cu 0.85175 0.78601 0.21432
 Cu35 Cu 0.78254 0.77496 0.15683
 Cu36 Cu 0.78673 0.84890 0.21371
 N37 N 0.84657 0.82087 0.25391
 N38 N 0.82127 0.84565 0.25343
 C39 C 0.82527 0.86761 0.28245
 C40 C 0.85478 0.85581 0.30227
 C41 C 0.86747 0.82603 0.28343
 H42 H 0.80842 0.89077 0.28793
 H43 H 0.89085 0.80996 0.29014
 N44 N 0.74714 0.84112 0.17948
 N45 N 0.74510 0.81261 0.15843
 C46 C 0.71548 0.81549 0.13773
 C47 C 0.69806 0.84723 0.14616
 C48 C 0.71882 0.86281 0.17286
 H49 H 0.70758 0.79643 0.11718
 H50 H 0.71415 0.88828 0.18601
 H51 H 0.81107 0.81764 0.17199
 H52 H 0.78723 0.79432 0.21054
 N53 N 0.81596 1.26391 -0.15016
 N54 N 0.83954 1.26265 -0.17766
 C55 C 0.86394 1.28787 -0.17238
 C56 C 0.85510 1.30587 -0.13997
 C57 C 0.82443 1.28996 -0.12658
 H58 H 0.88691 1.29244 -0.19029
 H59 H 0.80985 1.29611 -0.10114
 Cu60 Cu 0.83696 1.22721 -0.21680
 Cu61 Cu 0.77735 1.23037 -0.14568
 Cu62 Cu 0.77300 1.16551 -0.21341
 N63 N 0.83469 1.18980 -0.25387
 N64 N 0.80957 1.16594 -0.25257
 C65 C 0.81493 1.14280 -0.28068
 C66 C 0.84511 1.15251 -0.30059
 C67 C 0.85698 1.18258 -0.28281
 H68 H 0.79857 1.12006 -0.28582
 H69 H 0.88038 1.19770 -0.28980
 N70 N 0.73844 1.16947 -0.17154
 N71 N 0.74020 1.19418 -0.14573
 C72 C 0.71419 1.18898 -0.12009
 C73 C 0.69517 1.15968 -0.13017
 C74 C 0.71118 1.14792 -0.16300
 H75 H 0.70983 1.20474 -0.09528
 H76 H 0.70419 1.12488 -0.17892
 H77 H 0.80382 1.18942 -0.17400
 H78 H 0.77371 1.21905 -0.20182
 N79 N 0.17737 0.74666 -0.15447
 N80 N 0.15184 0.74901 -0.17907
 C81 C 0.13037 0.72099 -0.17515
 C82 C 0.14309 0.70009 -0.14629
 C83 C 0.17291 0.71720 -0.13385
 H84 H 0.10663 0.71696 -0.19120
 H85 H 0.18952 0.70935 -0.11078
 Cu86 Cu 0.14693 0.79009 -0.21148
 Cu87 Cu 0.21255 0.78348 -0.14922
 Cu88 Cu 0.21778 0.84291 -0.22278
 N89 N 0.14965 0.82425 -0.25180
 N90 N 0.17764 0.84435 -0.25654
 C91 C 0.17192 0.86648 -0.28535
 C92 C 0.13837 0.85986 -0.29937
 C93 C 0.12515 0.83277 -0.27753
 H94 H 0.19036 0.88654 -0.29441
 H95 H 0.09924 0.82079 -0.27968
 N96 N 0.25520 0.83772 -0.18511
 N97 N 0.25274 0.81579 -0.15658
 C98 C 0.28103 0.82015 -0.13449
 C99 C 0.30221 0.84624 -0.14986
 C100 C 0.28507 0.85671 -0.18185
 H101 H 0.28536 0.80593 -0.10879
 H102 H 0.29324 0.87757 -0.20062
 H103 H 0.18925 0.82638 -0.17732
 H104 H 0.21159 0.79055 -0.20554
 C105 C 0.55435 1.03411 -0.02116
 H106 H 0.55543 1.03477 0.00885
 C107 C 0.57879 1.05329 -0.04243
 H108 H 0.59878 1.06828 -0.02829
 C109 C 0.52826 1.01151 -0.07553
 H110 H 0.50907 0.99455 -0.08830
 C111 C 0.55234 1.03014 -0.09791
 H112 H 0.55120 1.02768 -0.12784
 N113 N 0.52955 1.01402 -0.03788
 C114 C 0.44524 1.00104 0.04566
 H115 H 0.44387 0.97238 0.04590
 C116 C 0.42110 1.02130 0.06722
 H117 H 0.40103 1.00770 0.08347
 C118 C 0.47181 1.05304 0.02185
 H119 H 0.49108 1.06535 0.00353
 C120 C 0.44818 1.07436 0.04301
 H121 H 0.44976 1.10298 0.04106
 Zn122 Zn 0.49949 0.98705 -0.00652
 N123 N 0.47005 1.01705 0.02371
 C124 C 0.52909 0.96040 0.06069
 N125 N 0.52980 0.95809 0.02298
 C126 C 0.55426 0.93689 0.00487
 C127 C 0.57963 0.91723 0.02475
 C128 C 0.55398 0.94117 0.08170
 C129 C 0.44389 0.97704 -0.05554
 C130 C 0.41855 0.95853 -0.07530
 C131 C 0.44434 0.90355 -0.05224
 C132 C 0.46926 0.92318 -0.03286
 N133 N 0.46855 0.95924 -0.03484
 H134 H 0.50971 0.97769 0.07458
 H135 H 0.55448 0.93586 -0.02517
 H136 H 0.59927 0.90093 0.00980
 H137 H 0.55255 0.94327 0.11164
 H138 H 0.44366 1.00575 -0.05622
 H139 H 0.39888 0.97321 -0.09133
 H140 H 0.44583 0.87491 -0.05053
 H141 H 0.48876 0.90956 -0.01584
 C142 C 0.42250 1.05858 0.06620
 C143 C 0.57784 1.05157 -0.08144
 C144 C 0.41813 0.92136 -0.07338
 C145 C 0.58024 0.91978 0.06361
 C146 C -0.00218 0.55366 1.04868
 H147 H 0.02666 0.55480 1.04607
 C148 C -0.02099 0.57863 1.07045
 H149 H -0.00607 0.59901 1.08395
 C150 C -0.05620 0.52685 1.03160
 H151 H -0.06989 0.50721 1.01571
 C152 C -0.07609 0.55122 1.05317
 H153 H -0.10501 0.54981 1.05393
 N154 N -0.01989 0.52841 1.02989
 C155 C 0.05756 0.44264 1.00771
 H156 H 0.05625 0.44143 0.97773
 C157 C 0.07817 0.41758 1.02696
 H158 H 0.09292 0.39720 1.01155
 C159 C 0.03892 0.47010 1.06417
 H160 H 0.02315 0.49027 1.07861
 C161 C 0.05926 0.44560 1.08455
 H162 H 0.05955 0.44818 1.11444
 Zn163 Zn 0.00770 0.49798 0.99837
 N164 N 0.03829 0.46807 1.02646
 C165 C 0.07074 0.52578 0.96484
 N166 N 0.03435 0.52742 0.96613
 C167 C 0.01572 0.55243 0.94668
 C168 C 0.03366 0.57721 0.92482
 C169 C 0.08978 0.55002 0.94325
 C170 C -0.04084 0.44361 0.99098
 C171 C -0.06243 0.41959 0.97290
 C172 C -0.04512 0.44605 0.91430
 C173 C -0.02381 0.46959 0.93354
 N174 N -0.02231 0.46812 0.97124
 H175 H 0.08510 0.50629 0.98123
 H176 H -0.01318 0.55367 0.94900
 H177 H 0.01801 0.59754 0.91088
 H178 H 0.11876 0.54870 0.94296
 H179 H -0.03845 0.44248 1.02088
 H180 H -0.07604 0.39986 0.98938
 H181 H -0.04596 0.44747 0.88426
 H182 H -0.00818 0.48866 0.91828
 C183 C 0.07863 0.41834 1.06592
 C184 C -0.05858 0.57754 1.07301
 C185 C -0.06500 0.42080 0.93395
 C186 C 0.07131 0.57621 0.92292
 C187 C 1.04200 -0.00793 0.55692
 H188 H 1.04054 0.02075 0.55842
 C189 C 1.06306 -0.02712 0.58191
 H190 H 1.07724 -0.01275 0.60283
 C191 C 1.02311 -0.06110 0.52904
 H192 H 1.00694 -0.07425 0.50889
 C193 C 1.04378 -0.08136 0.55355
 H194 H 1.04359 -0.11006 0.55182
 N195 N 1.02283 -0.02504 0.53096
 C196 C 1.00494 0.05138 0.44182
 H197 H 0.97608 0.05085 0.44020
 C198 C 1.02455 0.07134 0.41626
 H199 H 1.01056 0.08630 0.39503
 C200 C 1.05822 0.03160 0.47085
 H201 H 1.07133 0.01567 0.49179
 C202 C 1.07887 0.05131 0.44597
 H203 H 1.10759 0.05096 0.44911
 Zn204 Zn 0.99355 0.00325 0.49976
 N205 N 1.02195 0.03200 0.46839
 C206 C 0.96322 0.06763 0.52884
 N207 N 0.96349 0.03159 0.53108
 C208 C 0.94403 0.01461 0.55764
 C209 C 0.92345 0.03399 0.58357
 C210 C 0.94292 0.08808 0.55417
 C211 C 0.98466 -0.04477 0.44217
 C212 C 0.96638 -0.06500 0.41656
 C213 C 0.91060 -0.04578 0.44575
 C214 C 0.93000 -0.02578 0.47078
 N215 N 0.96635 -0.02563 0.46853
 H216 H 0.97914 0.08067 0.50779
 H217 H 0.94505 -0.01409 0.55902
 H218 H 0.90851 0.01996 0.60481
 H219 H 0.94292 0.11664 0.55131
 H220 H 1.01357 -0.04387 0.44078
 H221 H 0.98147 -0.07975 0.39551
 H222 H 0.88177 -0.04573 0.44862
 H223 H 0.91592 -0.01011 0.49170
 C224 C 1.06203 0.07105 0.41771
 C225 C 1.06435 -0.06444 0.58021
 C226 C 0.92886 -0.06533 0.41771
 C227 C 0.92317 0.07122 0.58253
 C228 C 0.14069 0.33438 1.12868
 C229 C 0.11065 0.35118 1.14081
 C230 C 0.09285 0.38127 1.12140
 C231 C 0.09913 0.39011 1.08574
 H232 H 0.09794 0.34302 1.16656
 H233 H 0.07181 0.39487 1.13708
 H234 H 0.15435 0.34342 1.10382
 H235 H 0.11818 0.37461 1.06925
 C236 C -0.12009 0.66706 1.12880
 C237 C -0.08804 0.65431 1.13937
 C238 C -0.06734 0.62573 1.11995
 C239 C -0.08052 0.60442 1.09389
 H240 H -0.07495 0.66639 1.16259
 H241 H -0.03988 0.62229 1.12841
 H242 H -0.13337 0.65601 1.10519
 H243 H -0.10867 0.60605 1.08754
 C244 C -0.12411 0.33425 0.87702
 C245 C -0.13464 0.35049 0.90861
 C246 C -0.11367 0.37729 0.92820
 C247 C -0.08643 0.39517 0.91294
 H248 H -0.15922 0.34276 0.92235
 H249 H -0.12222 0.38288 0.95647
 H250 H -0.09909 0.34081 0.86347
 H251 H -0.07990 0.39189 0.88374
 C252 C 0.12709 0.66843 0.87079
 C253 C 0.09774 0.65348 0.85739
 C254 C 0.07852 0.62412 0.87571
 C255 C 0.09217 0.60337 0.90259
 H256 H 0.08546 0.66450 0.83280
 H257 H 0.05185 0.61962 0.86584
 H258 H 0.13925 0.65851 0.89590
 H259 H 0.11987 0.60587 0.91015
 C260 C 1.12675 0.13291 0.33410
 C261 C 1.13693 0.10222 0.35026
 C262 C 1.11675 0.08427 0.38032
 C263 C 1.08232 0.09136 0.38929
 H264 H 1.16171 0.08906 0.34169
 H265 H 1.13085 0.06252 0.39368
 H266 H 1.10274 0.14691 0.34357
 H267 H 1.06740 0.11111 0.37373
 C268 C 1.11995 -0.12262 0.67223
 C269 C 1.13338 -0.09507 0.65328
 C270 C 1.11326 -0.07430 0.62530
 C271 C 1.08509 -0.08640 0.60689
 H272 H 1.15952 -0.08533 0.65986
 H273 H 1.12322 -0.04818 0.61912
 H274 H 1.09317 -0.13133 0.66670
 H275 H 1.07734 -0.11371 0.61043
 C276 C 0.87062 -0.12906 0.33321
 C277 C 0.85798 -0.09920 0.34957
 C278 C 0.87565 -0.08112 0.38058
 C279 C 0.91029 -0.08603 0.38905
 H280 H 0.83330 -0.08686 0.34023
 H281 H 0.85965 -0.06096 0.39479
 H282 H 0.89431 -0.14240 0.34370
 H283 H 0.92680 -0.10422 0.37264
 C284 C 0.86031 0.13417 0.66904
 C285 C 0.89031 0.14452 0.65145
 C286 C 0.90837 0.12507 0.62044
 C287 C 0.90240 0.09110 0.61160
 H288 H 0.90287 0.16881 0.65964
 H289 H 0.92935 0.13925 0.60622
 H290 H 0.84684 0.11069 0.65999
 H291 H 0.88333 0.07616 0.62783
 C292 C 0.33546 1.12258 0.12444
 C293 C 0.35017 1.09217 0.13705
 C294 C 0.37792 1.07071 0.11696
 C295 C 0.39646 1.08167 0.08695
 H296 H 0.34046 1.08103 0.16294
 H297 H 0.38331 1.04460 0.12836
 H298 H 0.34425 1.13397 0.09837
 H299 H 0.39325 1.10869 0.07721
 C300 C 0.66596 1.14379 -0.10822
 C301 C 0.64876 1.11500 -0.11914
 C302 C 0.62138 1.09891 -0.09492
 C303 C 0.60414 1.06997 -0.10550
 H304 H 0.65537 1.10267 -0.14560
 H305 H 0.61551 1.11095 -0.06815
 H306 H 0.65892 1.15592 -0.08172
 H307 H 0.60921 1.05946 -0.13317
 C308 C 0.33447 0.86240 -0.13484
 C309 C 0.34865 0.85235 -0.10239
 C310 C 0.37926 0.86975 -0.08495
 C311 C 0.38985 0.90264 -0.09350
 H312 H 0.33756 0.83015 -0.08739
 H313 H 0.39138 0.85553 -0.06211
 H314 H 0.34622 0.88344 -0.15109
 H315 H 0.37556 0.91789 -0.11422
 C316 C 0.66579 0.86159 0.12785
 C317 C 0.65095 0.89325 0.13673
 C318 C 0.62006 0.90990 0.11759
 C319 C 0.60884 0.90027 0.08389
 H320 H 0.66167 0.90826 0.15941
 H321 H 0.60812 0.93297 0.13113
 H322 H 0.65453 0.84547 0.10637
 H323 H 0.62279 0.87909 0.06901
   
